101616
  -OEChem-07051212533D

 52 54  0     1  0  0  0  0  0999 V2000
    3.1231    0.9125   -2.7771 O   0  0  0  0  0  0  0  0  0  0  0  0
   -1.1768    0.7716    1.2920 O   0  0  0  0  0  0  0  0  0  0  0  0
    0.3482   -1.3528   -0.3846 N   0  0  2  0  0  0  0  0  0  0  0  0
    1.7963   -1.6665   -0.3519 C   0  0  1  0  0  0  0  0  0  0  0  0
   -0.3113   -1.8922    0.8279 C   0  0  2  0  0  0  0  0  0  0  0  0
    2.0766   -3.1755   -0.2379 C   0  0  0  0  0  0  0  0  0  0  0  0
   -0.1141   -3.4102    0.9881 C   0  0  0  0  0  0  0  0  0  0  0  0
    1.3651   -3.7831    0.9670 C   0  0  0  0  0  0  0  0  0  0  0  0
    2.5797   -1.0605   -1.5217 C   0  0  0  0  0  0  0  0  0  0  0  0
   -1.7970   -1.5290    0.9285 C   0  0  0  0  0  0  0  0  0  0  0  0
   -0.3103   -1.7362   -1.6346 C   0  0  0  0  0  0  0  0  0  0  0  0
    2.3594    0.4459   -1.6634 C   0  0  1  0  0  0  0  0  0  0  0  0
   -2.0116   -0.0311    0.8808 C   0  0  0  0  0  0  0  0  0  0  0  0
    2.7687    1.2457   -0.4485 C   0  0  0  0  0  0  0  0  0  0  0  0
   -3.2934    0.4777    0.3096 C   0  0  0  0  0  0  0  0  0  0  0  0
    2.1044    2.4261   -0.1585 C   0  0  0  0  0  0  0  0  0  0  0  0
    3.8005    0.7832    0.3516 C   0  0  0  0  0  0  0  0  0  0  0  0
   -4.4228   -0.2991    0.4298 C   0  0  0  0  0  0  0  0  0  0  0  0
   -3.2956    1.7037   -0.3150 C   0  0  0  0  0  0  0  0  0  0  0  0
    2.4825    3.1647    0.9628 C   0  0  0  0  0  0  0  0  0  0  0  0
    4.1786    1.5216    1.4730 C   0  0  0  0  0  0  0  0  0  0  0  0
    3.5195    2.7124    1.7785 C   0  0  0  0  0  0  0  0  0  0  0  0
   -5.6206    0.1764   -0.1042 C   0  0  0  0  0  0  0  0  0  0  0  0
   -4.4933    2.1793   -0.8488 C   0  0  0  0  0  0  0  0  0  0  0  0
   -5.6557    1.4155   -0.7434 C   0  0  0  0  0  0  0  0  0  0  0  0
    2.1845   -1.2265    0.5738 H   0  0  0  0  0  0  0  0  0  0  0  0
    0.1781   -1.4146    1.6898 H   0  0  0  0  0  0  0  0  0  0  0  0
    3.1550   -3.3498   -0.1379 H   0  0  0  0  0  0  0  0  0  0  0  0
    1.7599   -3.6952   -1.1506 H   0  0  0  0  0  0  0  0  0  0  0  0
   -0.6406   -3.9533    0.1938 H   0  0  0  0  0  0  0  0  0  0  0  0
   -0.5510   -3.7462    1.9364 H   0  0  0  0  0  0  0  0  0  0  0  0
    1.8411   -3.4215    1.8870 H   0  0  0  0  0  0  0  0  0  0  0  0
    1.4772   -4.8730    0.9588 H   0  0  0  0  0  0  0  0  0  0  0  0
    2.3017   -1.5500   -2.4651 H   0  0  0  0  0  0  0  0  0  0  0  0
    3.6477   -1.2980   -1.4344 H   0  0  0  0  0  0  0  0  0  0  0  0
   -2.1934   -1.8786    1.8902 H   0  0  0  0  0  0  0  0  0  0  0  0
   -2.3650   -2.0327    0.1398 H   0  0  0  0  0  0  0  0  0  0  0  0
   -0.3194   -2.8179   -1.7987 H   0  0  0  0  0  0  0  0  0  0  0  0
    0.1560   -1.2711   -2.5075 H   0  0  0  0  0  0  0  0  0  0  0  0
   -1.3446   -1.3805   -1.6664 H   0  0  0  0  0  0  0  0  0  0  0  0
    1.3093    0.6563   -1.8943 H   0  0  0  0  0  0  0  0  0  0  0  0
    2.8126    0.4363   -3.5661 H   0  0  0  0  0  0  0  0  0  0  0  0
    1.2961    2.7872   -0.7877 H   0  0  0  0  0  0  0  0  0  0  0  0
    4.3613   -0.1194    0.1387 H   0  0  0  0  0  0  0  0  0  0  0  0
   -4.4280   -1.2569    0.9395 H   0  0  0  0  0  0  0  0  0  0  0  0
   -2.3968    2.3054   -0.4090 H   0  0  0  0  0  0  0  0  0  0  0  0
    1.9695    4.0920    1.2005 H   0  0  0  0  0  0  0  0  0  0  0  0
    4.9904    1.1733    2.1050 H   0  0  0  0  0  0  0  0  0  0  0  0
    3.8149    3.2882    2.6507 H   0  0  0  0  0  0  0  0  0  0  0  0
   -6.5268   -0.4159   -0.0184 H   0  0  0  0  0  0  0  0  0  0  0  0
   -4.5206    3.1436   -1.3477 H   0  0  0  0  0  0  0  0  0  0  0  0
   -6.5884    1.7862   -1.1584 H   0  0  0  0  0  0  0  0  0  0  0  0
  1 12  1  0  0  0  0
  1 42  1  0  0  0  0
  2 13  2  0  0  0  0
  3  4  1  0  0  0  0
  3  5  1  0  0  0  0
  3 11  1  0  0  0  0
  4  6  1  0  0  0  0
  4  9  1  0  0  0  0
  4 26  1  0  0  0  0
  5  7  1  0  0  0  0
  5 10  1  0  0  0  0
  5 27  1  0  0  0  0
  6  8  1  0  0  0  0
  6 28  1  0  0  0  0
  6 29  1  0  0  0  0
  7  8  1  0  0  0  0
  7 30  1  0  0  0  0
  7 31  1  0  0  0  0
  8 32  1  0  0  0  0
  8 33  1  0  0  0  0
  9 12  1  0  0  0  0
  9 34  1  0  0  0  0
  9 35  1  0  0  0  0
 10 13  1  0  0  0  0
 10 36  1  0  0  0  0
 10 37  1  0  0  0  0
 11 38  1  0  0  0  0
 11 39  1  0  0  0  0
 11 40  1  0  0  0  0
 12 14  1  0  0  0  0
 12 41  1  0  0  0  0
 13 15  1  0  0  0  0
 14 16  2  0  0  0  0
 14 17  1  0  0  0  0
 15 18  2  0  0  0  0
 15 19  1  0  0  0  0
 16 20  1  0  0  0  0
 16 43  1  0  0  0  0
 17 21  2  0  0  0  0
 17 44  1  0  0  0  0
 18 23  1  0  0  0  0
 18 45  1  0  0  0  0
 19 24  2  0  0  0  0
 19 46  1  0  0  0  0
 20 22  2  0  0  0  0
 20 47  1  0  0  0  0
 21 22  1  0  0  0  0
 21 48  1  0  0  0  0
 22 49  1  0  0  0  0
 23 25  2  0  0  0  0
 23 50  1  0  0  0  0
 24 25  1  0  0  0  0
 24 51  1  0  0  0  0
 25 52  1  0  0  0  0
M  END
> <PUBCHEM_COMPOUND_CID>
101616

> <PUBCHEM_CONFORMER_RMSD>
0.8

> <PUBCHEM_CONFORMER_DIVERSEORDER>
1
75
61
77
100
96
46
13
37
101
87
15
102
50
107
17
106
67
89
59
32
104
38
97
76
95
74
78
5
7
18
47
27
86
105
72
90
81
108
36
73
14
64
10
8
62
99
42
70
6
31
23
53
39
3
94
35
92
79
21
41
2
98
68
63
43
29
56
93
69
49
26
58
30
84
55
28
25
16
66
60
51
4
88
34
12
82
109
48
80
103
52
44
91
24
65
54
33
11
71
83
20
45
9
57
19
85
40
22

> <PUBCHEM_MMFF94_PARTIAL_CHARGES>
32
1 -0.68
10 0.06
11 0.27
12 0.42
13 0.42
14 -0.14
15 0.09
16 -0.15
17 -0.15
18 -0.15
19 -0.15
2 -0.57
20 -0.15
21 -0.15
22 -0.15
23 -0.15
24 -0.15
25 -0.15
3 -0.81
4 0.27
42 0.4
43 0.15
44 0.15
45 0.15
46 0.15
47 0.15
48 0.15
49 0.15
5 0.27
50 0.15
51 0.15
52 0.15

> <PUBCHEM_EFFECTIVE_ROTOR_COUNT>
7.2

> <PUBCHEM_PHARMACOPHORE_FEATURES>
7
1 1 acceptor
1 1 donor
1 2 acceptor
1 3 cation
6 14 16 17 20 21 22 rings
6 15 18 19 23 24 25 rings
6 3 4 5 6 7 8 rings

> <PUBCHEM_HEAVY_ATOM_COUNT>
25

> <PUBCHEM_ATOM_DEF_STEREO_COUNT>
3

> <PUBCHEM_ATOM_UDEF_STEREO_COUNT>
0

> <PUBCHEM_BOND_DEF_STEREO_COUNT>
0

> <PUBCHEM_BOND_UDEF_STEREO_COUNT>
0

> <PUBCHEM_ISOTOPIC_ATOM_COUNT>
0

> <PUBCHEM_COMPONENT_COUNT>
1

> <PUBCHEM_CACTVS_TAUTO_COUNT>
2

> <PUBCHEM_CONFORMER_ID>
00018CF000000001

> <PUBCHEM_MMFF94_ENERGY>
63.9279

> <PUBCHEM_FEATURE_SELFOVERLAP>
35.52

> <PUBCHEM_SHAPE_FINGERPRINT>
10675989 125 18260267443132832673
10764073 3 12820531598781552435
11370993 70 18337958887221195305
11582403 64 18041291958586818254
11725454 13 17968944067735707706
12156800 1 15144954005114838740
12160290 23 17832119655069214522
12403259 327 15338828738192590381
12596602 18 15482092883163307821
12633257 1 16415205550393351936
12769317 202 18335428971232297089
12788726 201 16768988650985099411
13134695 92 18049169061598882430
13294875 104 18341043099484875830
13402501 40 18410577279539820336
13583140 156 18340760533586640899
13773456 73 17917426502182471153
13965767 371 18059311897683077170
14114206 34 17682916133760733252
14251764 3 18413111645304442597
14251764 30 12750693914240768408
14347329 18 18058710460406780956
14468879 13 17988348283476380857
14955137 171 18120097444579747102
17974551 9 18053967069019022512
17980427 23 18046378398109137722
1813 80 13840274706092238163
18681886 176 18119538879724787387
20567600 254 18410303483816480649
20567600 299 18050572042930903639
20567600 347 18343025479999417739
20578428 11 14274891784096735225
21304303 282 17827387408800517542
21475661 188 18409733924161494392
22149856 69 18128511892083162587
22393880 68 18337103562170273703
23227448 37 18335143034174728551
23419403 2 17626129768394722390
23559900 14 18058723740598562463
238 59 18187352242618866240
238918 7 18057068953834039356
3187 122 17403174798854642179
3298306 158 18336272258164920169
376196 1 17605852313057425752
43658 37 18334297543776098403
44317340 157 18270405027115089293
474 4 18335703818942328225
4938544 92 17831597388048568720
495365 180 18271805769667225815
5895379 119 17027683220147623809
7471813 234 17976828905946844855
7808743 9 17912345547176302412
84936 182 18269547402811348963
90316 7 17186716118217215370
9981440 41 18270968942687326139

> <PUBCHEM_SHAPE_MULTIPOLES>
497.77
9.9
4.29
1.73
13.27
2.28
-0.7
-8.1
-0.51
-3.45
1.43
-1.72
-0.26
1.73

> <PUBCHEM_SHAPE_SELFOVERLAP>
1052.685

> <PUBCHEM_SHAPE_VOLUME>
277.7

> <PUBCHEM_COORDINATE_TYPE>
2
5
10

$$$$

