5281408
  -OEChem-07051212573D

 56 59  0     1  0  0  0  0  0999 V2000
   -1.7071    1.6756    2.2152 O   0  0  0  0  0  0  0  0  0  0  0  0
    4.4649   -2.2694    0.0185 O   0  0  0  0  0  0  0  0  0  0  0  0
    2.3335    0.4033    2.2933 O   0  0  0  0  0  0  0  0  0  0  0  0
    2.6478   -2.6138   -1.3487 O   0  0  0  0  0  0  0  0  0  0  0  0
   -0.3513    2.0969   -0.6284 N   0  0  2  0  0  0  0  0  0  0  0  0
   -3.1022   -0.1813    1.8978 N   0  0  0  0  0  0  0  0  0  0  0  0
   -0.7954    0.6989   -0.6268 C   0  0  2  0  0  0  0  0  0  0  0  0
   -2.2156    0.8314   -0.0628 C   0  0  1  0  0  0  0  0  0  0  0  0
    0.1988   -0.1768    0.1347 C   0  0  0  0  0  0  0  0  0  0  0  0
   -2.7076    2.1751   -0.6363 C   0  0  0  0  0  0  0  0  0  0  0  0
    1.5959   -0.0623   -0.5051 C   0  0  1  0  0  0  0  0  0  0  0  0
    2.0188    1.4263   -0.6341 C   0  0  2  0  0  0  0  0  0  0  0  0
   -1.4578    2.8470   -1.2170 C   0  0  0  0  0  0  0  0  0  0  0  0
    0.9186    2.2609   -1.3277 C   0  0  0  0  0  0  0  0  0  0  0  0
   -3.1120   -0.3369   -0.3772 C   0  0  0  0  0  0  0  0  0  0  0  0
   -2.2748    0.8702    1.4921 C   0  0  0  0  0  0  0  0  0  0  0  0
    3.3376    1.5829   -1.3995 C   0  0  0  0  0  0  0  0  0  0  0  0
   -3.5944   -0.8884    0.8080 C   0  0  0  0  0  0  0  0  0  0  0  0
    2.5765   -0.8751    0.2861 C   0  0  0  0  0  0  0  0  0  0  0  0
   -3.4776   -0.8826   -1.5958 C   0  0  0  0  0  0  0  0  0  0  0  0
    3.7962    3.0257   -1.4079 C   0  0  0  0  0  0  0  0  0  0  0  0
   -4.4396   -1.9802    0.8345 C   0  0  0  0  0  0  0  0  0  0  0  0
    3.2131   -2.0107   -0.4453 C   0  0  0  0  0  0  0  0  0  0  0  0
    2.8812   -0.6214    1.5673 C   0  0  0  0  0  0  0  0  0  0  0  0
   -4.3328   -1.9890   -1.5975 C   0  0  0  0  0  0  0  0  0  0  0  0
   -4.8095   -2.5334   -0.3918 C   0  0  0  0  0  0  0  0  0  0  0  0
    5.1569   -3.3452   -0.6246 C   0  0  0  0  0  0  0  0  0  0  0  0
    3.2381    0.8724    3.2790 C   0  0  0  0  0  0  0  0  0  0  0  0
   -0.8487    0.3311   -1.6635 H   0  0  0  0  0  0  0  0  0  0  0  0
   -0.1389   -1.2208    0.1080 H   0  0  0  0  0  0  0  0  0  0  0  0
    0.2178    0.1169    1.1879 H   0  0  0  0  0  0  0  0  0  0  0  0
   -3.1516    2.8089    0.1407 H   0  0  0  0  0  0  0  0  0  0  0  0
   -3.4580    2.0510   -1.4255 H   0  0  0  0  0  0  0  0  0  0  0  0
    1.5167   -0.4599   -1.5264 H   0  0  0  0  0  0  0  0  0  0  0  0
    2.1544    1.8584    0.3654 H   0  0  0  0  0  0  0  0  0  0  0  0
   -1.4714    2.7605   -2.3109 H   0  0  0  0  0  0  0  0  0  0  0  0
   -1.4148    3.9086   -0.9542 H   0  0  0  0  0  0  0  0  0  0  0  0
    1.1770    3.3244   -1.2993 H   0  0  0  0  0  0  0  0  0  0  0  0
    0.8307    1.9702   -2.3829 H   0  0  0  0  0  0  0  0  0  0  0  0
    3.2373    1.2190   -2.4289 H   0  0  0  0  0  0  0  0  0  0  0  0
    4.1233    0.9842   -0.9254 H   0  0  0  0  0  0  0  0  0  0  0  0
   -3.3269   -0.4052    2.8600 H   0  0  0  0  0  0  0  0  0  0  0  0
   -3.1150   -0.4685   -2.5304 H   0  0  0  0  0  0  0  0  0  0  0  0
    3.1833    3.6504   -2.0640 H   0  0  0  0  0  0  0  0  0  0  0  0
    3.7920    3.4584   -0.4023 H   0  0  0  0  0  0  0  0  0  0  0  0
    4.8218    3.0841   -1.7884 H   0  0  0  0  0  0  0  0  0  0  0  0
   -4.8061   -2.3968    1.7658 H   0  0  0  0  0  0  0  0  0  0  0  0
    3.5747   -1.2250    2.1388 H   0  0  0  0  0  0  0  0  0  0  0  0
   -4.6337   -2.4349   -2.5419 H   0  0  0  0  0  0  0  0  0  0  0  0
   -5.4732   -3.3935   -0.4178 H   0  0  0  0  0  0  0  0  0  0  0  0
    6.1407   -3.4432   -0.1583 H   0  0  0  0  0  0  0  0  0  0  0  0
    5.2922   -3.1261   -1.6880 H   0  0  0  0  0  0  0  0  0  0  0  0
    4.6088   -4.2824   -0.4889 H   0  0  0  0  0  0  0  0  0  0  0  0
    3.4250    0.1050    4.0382 H   0  0  0  0  0  0  0  0  0  0  0  0
    2.7832    1.7349    3.7751 H   0  0  0  0  0  0  0  0  0  0  0  0
    4.1812    1.1990    2.8266 H   0  0  0  0  0  0  0  0  0  0  0  0
  1 16  2  0  0  0  0
  2 23  1  0  0  0  0
  2 27  1  0  0  0  0
  3 24  1  0  0  0  0
  3 28  1  0  0  0  0
  4 23  2  0  0  0  0
  5  7  1  0  0  0  0
  5 13  1  0  0  0  0
  5 14  1  0  0  0  0
  6 16  1  0  0  0  0
  6 18  1  0  0  0  0
  6 42  1  0  0  0  0
  7  8  1  0  0  0  0
  7  9  1  0  0  0  0
  7 29  1  0  0  0  0
  8 10  1  0  0  0  0
  8 15  1  0  0  0  0
  8 16  1  0  0  0  0
  9 11  1  0  0  0  0
  9 30  1  0  0  0  0
  9 31  1  0  0  0  0
 10 13  1  0  0  0  0
 10 32  1  0  0  0  0
 10 33  1  0  0  0  0
 11 12  1  0  0  0  0
 11 19  1  0  0  0  0
 11 34  1  0  0  0  0
 12 14  1  0  0  0  0
 12 17  1  0  0  0  0
 12 35  1  0  0  0  0
 13 36  1  0  0  0  0
 13 37  1  0  0  0  0
 14 38  1  0  0  0  0
 14 39  1  0  0  0  0
 15 18  1  0  0  0  0
 15 20  2  0  0  0  0
 17 21  1  0  0  0  0
 17 40  1  0  0  0  0
 17 41  1  0  0  0  0
 18 22  2  0  0  0  0
 19 23  1  0  0  0  0
 19 24  2  0  0  0  0
 20 25  1  0  0  0  0
 20 43  1  0  0  0  0
 21 44  1  0  0  0  0
 21 45  1  0  0  0  0
 21 46  1  0  0  0  0
 22 26  1  0  0  0  0
 22 47  1  0  0  0  0
 24 48  1  0  0  0  0
 25 26  2  0  0  0  0
 25 49  1  0  0  0  0
 26 50  1  0  0  0  0
 27 51  1  0  0  0  0
 27 52  1  0  0  0  0
 27 53  1  0  0  0  0
 28 54  1  0  0  0  0
 28 55  1  0  0  0  0
 28 56  1  0  0  0  0
M  END
> <PUBCHEM_COMPOUND_CID>
5281408

> <PUBCHEM_CONFORMER_RMSD>
0.8

> <PUBCHEM_CONFORMER_DIVERSEORDER>
1
24
20
16
9
12
19
8
22
13
10
7
18
23
21
14
3
5
6
4
17
11
25
15
2

> <PUBCHEM_MMFF94_PARTIAL_CHARGES>
29
1 -0.57
11 0.14
13 0.27
14 0.27
15 -0.14
16 0.57
18 0.12
19 -0.12
2 -0.43
20 -0.15
22 -0.15
23 0.71
24 -0.07
25 -0.15
26 -0.15
27 0.28
28 0.28
3 -0.36
4 -0.57
42 0.37
43 0.15
47 0.15
48 0.15
49 0.15
5 -0.81
50 0.15
6 -0.55
7 0.27
8 0.2

> <PUBCHEM_EFFECTIVE_ROTOR_COUNT>
6.4

> <PUBCHEM_PHARMACOPHORE_FEATURES>
10
1 1 acceptor
1 21 hydrophobe
1 3 acceptor
1 4 acceptor
1 5 cation
1 6 donor
5 5 7 8 10 13 rings
5 6 8 15 16 18 rings
6 15 18 20 22 25 26 rings
6 5 7 9 11 12 14 rings

> <PUBCHEM_HEAVY_ATOM_COUNT>
28

> <PUBCHEM_ATOM_DEF_STEREO_COUNT>
4

> <PUBCHEM_ATOM_UDEF_STEREO_COUNT>
0

> <PUBCHEM_BOND_DEF_STEREO_COUNT>
1

> <PUBCHEM_BOND_UDEF_STEREO_COUNT>
0

> <PUBCHEM_ISOTOPIC_ATOM_COUNT>
0

> <PUBCHEM_COMPONENT_COUNT>
1

> <PUBCHEM_CACTVS_TAUTO_COUNT>
2

> <PUBCHEM_CONFORMER_ID>
0050968000000001

> <PUBCHEM_MMFF94_ENERGY>
83.2097

> <PUBCHEM_FEATURE_SELFOVERLAP>
50.922

> <PUBCHEM_SHAPE_FINGERPRINT>
11135609 12 18412544340074510218
11578080 2 18114758023316479393
11991303 11 16619258154263890532
12160290 23 17485660569266708829
12363563 72 18060147535009985835
12422481 6 18264749104915495993
12553582 1 18265899047421552991
12633257 1 16298098783539059259
13009979 54 18187914136416514794
13083527 12 17773340983588241104
13140716 1 18269827769528657589
13224815 77 18261395516228666367
13544653 18 18114192895550192935
13583140 156 17313115184260528273
13782708 43 18264500640963236802
13911987 19 17411598226118140341
14114206 34 16987989638982287676
14429115 67 18335430028158352323
14950920 106 16660370259641262395
15238133 3 17025414863013408240
17134984 74 17690013241169189551
17492 89 18413386527559114647
20645477 70 18059858303074282463
20681677 274 17749399181959044002
20775530 9 18335706078169719315
21033648 29 17685792610544786376
21033650 10 15985110729802384047
22393880 68 17346604057974953271
23557571 272 18266483025150129929
23559900 14 18340214088722702052
25222932 49 17128454203820620731
312423 11 18340758299638657527
392239 28 17242191049345912634
4280585 95 18057612156144693798
469060 322 16667456543166941185
7970288 3 18342168960553156651
9709674 26 18130782356500934476

> <PUBCHEM_SHAPE_MULTIPOLES>
542.79
9.87
3.66
2.22
0.75
0.39
1.92
7.98
-1.04
-2.71
-1.93
-1.01
-0.47
-0.31

> <PUBCHEM_SHAPE_SELFOVERLAP>
1168.606

> <PUBCHEM_SHAPE_VOLUME>
300.5

> <PUBCHEM_COORDINATE_TYPE>
2
5
10

$$$$

