22819
  -OEChem-07051212463D

 20 21  0     1  0  0  0  0  0999 V2000
    2.2468   -1.5461   -0.3843 O   0  0  0  0  0  0  0  0  0  0  0  0
    1.6624   -0.5015    0.3675 C   0  0  1  0  0  0  0  0  0  0  0  0
    2.1048    0.8726   -0.1615 C   0  0  0  0  0  0  0  0  0  0  0  0
    0.9431    1.8382    0.1097 C   0  0  0  0  0  0  0  0  0  0  0  0
    0.1790   -0.4240    0.1670 C   0  0  0  0  0  0  0  0  0  0  0  0
   -0.2276    0.9092    0.0231 C   0  0  0  0  0  0  0  0  0  0  0  0
   -0.7468   -1.4547    0.1617 C   0  0  0  0  0  0  0  0  0  0  0  0
   -1.5643    1.2374   -0.1295 C   0  0  0  0  0  0  0  0  0  0  0  0
   -2.0959   -1.1336   -0.0044 C   0  0  0  0  0  0  0  0  0  0  0  0
   -2.5017    0.2025   -0.1492 C   0  0  0  0  0  0  0  0  0  0  0  0
    1.8960   -0.6234    1.4309 H   0  0  0  0  0  0  0  0  0  0  0  0
    2.2968    0.8161   -1.2426 H   0  0  0  0  0  0  0  0  0  0  0  0
    3.0393    1.2090    0.3001 H   0  0  0  0  0  0  0  0  0  0  0  0
    0.9032    2.6342   -0.6390 H   0  0  0  0  0  0  0  0  0  0  0  0
    1.0100    2.2684    1.1141 H   0  0  0  0  0  0  0  0  0  0  0  0
   -0.4393   -2.4875    0.2864 H   0  0  0  0  0  0  0  0  0  0  0  0
   -1.8812    2.2698   -0.2300 H   0  0  0  0  0  0  0  0  0  0  0  0
   -2.8409   -1.9247   -0.0154 H   0  0  0  0  0  0  0  0  0  0  0  0
   -3.5567    0.4326   -0.2711 H   0  0  0  0  0  0  0  0  0  0  0  0
    3.2117   -1.4615   -0.2990 H   0  0  0  0  0  0  0  0  0  0  0  0
  1  2  1  0  0  0  0
  1 20  1  0  0  0  0
  2  3  1  0  0  0  0
  2  5  1  0  0  0  0
  2 11  1  0  0  0  0
  3  4  1  0  0  0  0
  3 12  1  0  0  0  0
  3 13  1  0  0  0  0
  4  6  1  0  0  0  0
  4 14  1  0  0  0  0
  4 15  1  0  0  0  0
  5  6  1  0  0  0  0
  5  7  2  0  0  0  0
  6  8  2  0  0  0  0
  7  9  1  0  0  0  0
  7 16  1  0  0  0  0
  8 10  1  0  0  0  0
  8 17  1  0  0  0  0
  9 10  2  0  0  0  0
  9 18  1  0  0  0  0
 10 19  1  0  0  0  0
M  END
> <PUBCHEM_COMPOUND_CID>
22819

> <PUBCHEM_CONFORMER_RMSD>
0.4

> <PUBCHEM_CONFORMER_DIVERSEORDER>
1
2

> <PUBCHEM_MMFF94_PARTIAL_CHARGES>
14
1 -0.68
10 -0.15
16 0.15
17 0.15
18 0.15
19 0.15
2 0.42
20 0.4
4 0.14
5 -0.14
6 -0.14
7 -0.15
8 -0.15
9 -0.15

> <PUBCHEM_EFFECTIVE_ROTOR_COUNT>
0.6

> <PUBCHEM_PHARMACOPHORE_FEATURES>
4
1 1 acceptor
1 1 donor
5 2 3 4 5 6 rings
6 5 6 7 8 9 10 rings

> <PUBCHEM_HEAVY_ATOM_COUNT>
10

> <PUBCHEM_ATOM_DEF_STEREO_COUNT>
0

> <PUBCHEM_ATOM_UDEF_STEREO_COUNT>
1

> <PUBCHEM_BOND_DEF_STEREO_COUNT>
0

> <PUBCHEM_BOND_UDEF_STEREO_COUNT>
0

> <PUBCHEM_ISOTOPIC_ATOM_COUNT>
0

> <PUBCHEM_COMPONENT_COUNT>
1

> <PUBCHEM_CACTVS_TAUTO_COUNT>
1

> <PUBCHEM_CONFORMER_ID>
0000592300000001

> <PUBCHEM_MMFF94_ENERGY>
26.353

> <PUBCHEM_FEATURE_SELFOVERLAP>
20.38

> <PUBCHEM_SHAPE_FINGERPRINT>
12423570 1 6833981954047614201
12524768 44 18340207397195140751
12897270 3 18267304218469905501
14128692 85 18409443713194735150
16945 1 18337954463446863809
18185500 45 18268997651076033547
19973954 147 18411418388765099633
21040471 1 18412267203046430049
23552423 10 18272369754454304534
23559900 14 17975135658995384718
241688 4 18267304416080683776
2748010 2 18411704313264651517
29004967 10 18337108969064470640
369184 2 15792024401631651499
5084963 1 18260553363315135091

> <PUBCHEM_SHAPE_MULTIPOLES>
199.93
3.23
1.84
0.64
0.28
0.03
-0.01
-0.32
0.23
-0.32
0.04
-0.03
-0.01
0.12

> <PUBCHEM_SHAPE_SELFOVERLAP>
431.329

> <PUBCHEM_SHAPE_VOLUME>
112.7

> <PUBCHEM_COORDINATE_TYPE>
2
5
10

$$$$

