777
  -OEChem-07051212452D

 19 19  0     0  0  0  0  0  0999 V2000
    2.5369    1.6550    0.0000 O   0  0  0  0  0  0  0  0  0  0  0  0
    4.2690   -1.3450    0.0000 N   0  0  0  0  0  0  0  0  0  0  0  0
    5.1350    0.1550    0.0000 N   0  0  0  0  0  0  0  0  0  0  0  0
    2.5369   -1.3450    0.0000 N   0  0  0  0  0  0  0  0  0  0  0  0
    3.4030    0.1550    0.0000 C   0  0  0  0  0  0  0  0  0  0  0  0
    3.4030   -0.8450    0.0000 C   0  0  0  0  0  0  0  0  0  0  0  0
    2.5369    0.6550    0.0000 C   0  0  0  0  0  0  0  0  0  0  0  0
    4.2690    0.6550    0.0000 C   0  0  0  0  0  0  0  0  0  0  0  0
    5.1350   -0.8450    0.0000 C   0  0  0  0  0  0  0  0  0  0  0  0
    6.0010   -1.3450    0.0000 C   0  0  0  0  0  0  0  0  0  0  0  0
    1.9264    0.7627    0.0000 H   0  0  0  0  0  0  0  0  0  0  0  0
    2.3249    0.0724    0.0000 H   0  0  0  0  0  0  0  0  0  0  0  0
    4.2690    1.2750    0.0000 H   0  0  0  0  0  0  0  0  0  0  0  0
    5.6910   -1.8819    0.0000 H   0  0  0  0  0  0  0  0  0  0  0  0
    6.5380   -1.6550    0.0000 H   0  0  0  0  0  0  0  0  0  0  0  0
    6.3110   -0.8081    0.0000 H   0  0  0  0  0  0  0  0  0  0  0  0
    2.5369   -1.9650    0.0000 H   0  0  0  0  0  0  0  0  0  0  0  0
    2.0000   -1.0350    0.0000 H   0  0  0  0  0  0  0  0  0  0  0  0
    2.0000    1.9650    0.0000 H   0  0  0  0  0  0  0  0  0  0  0  0
  1  7  1  0  0  0  0
  1 19  1  0  0  0  0
  2  6  2  0  0  0  0
  2  9  1  0  0  0  0
  3  8  1  0  0  0  0
  3  9  2  0  0  0  0
  4  6  1  0  0  0  0
  4 17  1  0  0  0  0
  4 18  1  0  0  0  0
  5  6  1  0  0  0  0
  5  7  1  0  0  0  0
  5  8  2  0  0  0  0
  7 11  1  0  0  0  0
  7 12  1  0  0  0  0
  8 13  1  0  0  0  0
  9 10  1  0  0  0  0
 10 14  1  0  0  0  0
 10 15  1  0  0  0  0
 10 16  1  0  0  0  0
M  END
> <PUBCHEM_COMPOUND_CID>
777

> <PUBCHEM_COMPOUND_CANONICALIZED>
1

> <PUBCHEM_CACTVS_COMPLEXITY>
109

> <PUBCHEM_CACTVS_HBOND_ACCEPTOR>
4

> <PUBCHEM_CACTVS_HBOND_DONOR>
2

> <PUBCHEM_CACTVS_ROTATABLE_BOND>
1

> <PUBCHEM_CACTVS_SUBSKEYS>
AAADccBjIAAAAAAAAAAAAAAAAAAAAAAAAAAsAAAAAAAAAAABgAAAHgAQCAAADADhmwYvsJZIEgCgAhJnZACAgCkRAKABUCA4TBCAHIBASUAERAgKAALAECAAAAAAAAAAAAAAAAAAAAAAAAAAAAAAAAAAAA==

> <PUBCHEM_IUPAC_OPENEYE_NAME>
(4-amino-2-methyl-pyrimidin-5-yl)methanol

> <PUBCHEM_IUPAC_CAS_NAME>
(4-amino-2-methyl-5-pyrimidinyl)methanol

> <PUBCHEM_IUPAC_NAME>
(4-amino-2-methylpyrimidin-5-yl)methanol

> <PUBCHEM_IUPAC_SYSTEMATIC_NAME>
(4-azanyl-2-methyl-pyrimidin-5-yl)methanol

> <PUBCHEM_IUPAC_TRADITIONAL_NAME>
(4-amino-2-methyl-pyrimidin-5-yl)methanol

> <PUBCHEM_IUPAC_INCHI>
InChI=1S/C6H9N3O/c1-4-8-2-5(3-10)6(7)9-4/h2,10H,3H2,1H3,(H2,7,8,9)

> <PUBCHEM_IUPAC_INCHIKEY>
VUTBELPREDJDDH-UHFFFAOYSA-N

> <PUBCHEM_XLOGP3_AA>
-0.1

> <PUBCHEM_EXACT_MASS>
139.074562

> <PUBCHEM_MOLECULAR_FORMULA>
C6H9N3O

> <PUBCHEM_MOLECULAR_WEIGHT>
139.15516

> <PUBCHEM_OPENEYE_CAN_SMILES>
CC1=NC=C(C(=N1)N)CO

> <PUBCHEM_OPENEYE_ISO_SMILES>
CC1=NC=C(C(=N1)N)CO

> <PUBCHEM_CACTVS_TPSA>
72

> <PUBCHEM_MONOISOTOPIC_WEIGHT>
139.074562

> <PUBCHEM_TOTAL_CHARGE>
0

> <PUBCHEM_HEAVY_ATOM_COUNT>
10

> <PUBCHEM_ATOM_DEF_STEREO_COUNT>
0

> <PUBCHEM_ATOM_UDEF_STEREO_COUNT>
0

> <PUBCHEM_BOND_DEF_STEREO_COUNT>
0

> <PUBCHEM_BOND_UDEF_STEREO_COUNT>
0

> <PUBCHEM_ISOTOPIC_ATOM_COUNT>
0

> <PUBCHEM_COMPONENT_COUNT>
1

> <PUBCHEM_CACTVS_TAUTO_COUNT>
3

> <PUBCHEM_COORDINATE_TYPE>
1
5
255

> <PUBCHEM_BONDANNOTATIONS>
2  6  8
2  9  8
3  8  8
3  9  8
5  6  8
5  8  8

$$$$

