46174029
  -OEChem-07051213113D

 65 66  0     1  0  0  0  0  0999 V2000
    1.4430   -0.0178    0.0580 O   0  0  0  0  0  0  0  0  0  0  0  0
   -1.7619   -2.6612   -1.7204 O   0  0  0  0  0  0  0  0  0  0  0  0
   -1.0589   -1.2872    2.3900 O   0  0  0  0  0  0  0  0  0  0  0  0
    3.2646    1.1004    1.0608 O   0  0  0  0  0  0  0  0  0  0  0  0
   -2.8261    1.4502   -0.4656 O   0  0  0  0  0  0  0  0  0  0  0  0
   -2.8044   -0.7826    0.2076 N   0  0  0  0  0  0  0  0  0  0  0  0
    2.5904   -2.6080    0.4087 N   0  0  0  0  0  0  0  0  0  0  0  0
    0.3718    2.4808   -0.8318 N   0  0  0  0  0  0  0  0  0  0  0  0
    6.5790    0.4966   -0.4292 N   0  0  0  0  0  0  0  0  0  0  0  0
   -5.3858    1.8654   -0.0449 N   0  0  0  0  0  0  0  0  0  0  0  0
   -7.4332    3.1708    0.0087 N   0  0  0  0  0  0  0  0  0  0  0  0
    0.9194   -0.8951    1.0555 C   0  0  1  0  0  0  0  0  0  0  0  0
   -1.3903   -0.9967   -0.0171 C   0  0  1  0  0  0  0  0  0  0  0  0
   -0.5783   -0.6046    1.2319 C   0  0  1  0  0  0  0  0  0  0  0  0
    1.1651   -2.3566    0.6350 C   0  0  1  0  0  0  0  0  0  0  0  0
   -1.1225   -2.4424   -0.4622 C   0  0  2  0  0  0  0  0  0  0  0  0
    0.3762   -2.7158   -0.6278 C   0  0  0  0  0  0  0  0  0  0  0  0
    1.9016    1.1969    0.6298 C   0  0  1  0  0  0  0  0  0  0  0  0
    1.7491    2.3592   -0.3622 C   0  0  1  0  0  0  0  0  0  0  0  0
    2.7014    2.1874   -1.5483 C   0  0  0  0  0  0  0  0  0  0  0  0
    4.1866    0.8617   -0.0090 C   0  0  1  0  0  0  0  0  0  0  0  0
    4.1275    1.9903   -1.0403 C   0  0  0  0  0  0  0  0  0  0  0  0
   -3.5496   -1.9378    0.7109 C   0  0  0  0  0  0  0  0  0  0  0  0
   -3.4233    0.4571   -0.0418 C   0  0  0  0  0  0  0  0  0  0  0  0
    5.5789    0.7505    0.5984 C   0  0  0  0  0  0  0  0  0  0  0  0
   -1.9834   -4.0434   -1.9534 C   0  0  0  0  0  0  0  0  0  0  0  0
   -4.9103    0.5126    0.2463 C   0  0  0  0  0  0  0  0  0  0  0  0
    7.9112    0.4010    0.1521 C   0  0  0  0  0  0  0  0  0  0  0  0
   -6.6379    2.0682    0.1602 C   0  0  0  0  0  0  0  0  0  0  0  0
    1.4437   -0.7444    2.0106 H   0  0  0  0  0  0  0  0  0  0  0  0
   -1.0943   -0.3284   -0.8371 H   0  0  0  0  0  0  0  0  0  0  0  0
   -0.7383    0.4640    1.4173 H   0  0  0  0  0  0  0  0  0  0  0  0
    0.8352   -3.0153    1.4485 H   0  0  0  0  0  0  0  0  0  0  0  0
   -1.4831   -3.1641    0.2797 H   0  0  0  0  0  0  0  0  0  0  0  0
    0.7539   -2.1562   -1.4949 H   0  0  0  0  0  0  0  0  0  0  0  0
    0.5443   -3.7724   -0.8688 H   0  0  0  0  0  0  0  0  0  0  0  0
    1.3139    1.4512    1.5214 H   0  0  0  0  0  0  0  0  0  0  0  0
    2.0249    3.2884    0.1537 H   0  0  0  0  0  0  0  0  0  0  0  0
    2.4087    1.3216   -2.1564 H   0  0  0  0  0  0  0  0  0  0  0  0
    2.6633    3.0662   -2.2034 H   0  0  0  0  0  0  0  0  0  0  0  0
    3.1125   -2.4100    1.2612 H   0  0  0  0  0  0  0  0  0  0  0  0
    2.7367   -3.5953    0.2027 H   0  0  0  0  0  0  0  0  0  0  0  0
    3.9298   -0.0916   -0.4880 H   0  0  0  0  0  0  0  0  0  0  0  0
    4.4616    2.9295   -0.5805 H   0  0  0  0  0  0  0  0  0  0  0  0
    4.7854    1.7896   -1.8928 H   0  0  0  0  0  0  0  0  0  0  0  0
   -0.5434   -0.9718    3.1517 H   0  0  0  0  0  0  0  0  0  0  0  0
   -3.7778   -2.6123   -0.1177 H   0  0  0  0  0  0  0  0  0  0  0  0
   -4.5052   -1.6642    1.1580 H   0  0  0  0  0  0  0  0  0  0  0  0
   -3.0008   -2.4590    1.4980 H   0  0  0  0  0  0  0  0  0  0  0  0
    5.8123    1.6743    1.1437 H   0  0  0  0  0  0  0  0  0  0  0  0
    5.5784   -0.0547    1.3446 H   0  0  0  0  0  0  0  0  0  0  0  0
   -0.2488    2.6412   -0.0396 H   0  0  0  0  0  0  0  0  0  0  0  0
    0.2851    3.2958   -1.4373 H   0  0  0  0  0  0  0  0  0  0  0  0
   -2.5726   -4.1381   -2.8702 H   0  0  0  0  0  0  0  0  0  0  0  0
   -2.5529   -4.5013   -1.1387 H   0  0  0  0  0  0  0  0  0  0  0  0
   -1.0438   -4.5796   -2.1078 H   0  0  0  0  0  0  0  0  0  0  0  0
   -5.0751    0.3045    1.3089 H   0  0  0  0  0  0  0  0  0  0  0  0
   -5.4278   -0.2181   -0.3848 H   0  0  0  0  0  0  0  0  0  0  0  0
    6.3584   -0.3721   -0.9154 H   0  0  0  0  0  0  0  0  0  0  0  0
    8.1941    1.3336    0.6509 H   0  0  0  0  0  0  0  0  0  0  0  0
    8.6423    0.2181   -0.6416 H   0  0  0  0  0  0  0  0  0  0  0  0
    7.9788   -0.4241    0.8686 H   0  0  0  0  0  0  0  0  0  0  0  0
   -7.2560    1.2308    0.5324 H   0  0  0  0  0  0  0  0  0  0  0  0
   -7.0530    4.0496   -0.3256 H   0  0  0  0  0  0  0  0  0  0  0  0
   -8.4242    3.1458    0.2246 H   0  0  0  0  0  0  0  0  0  0  0  0
  1 12  1  0  0  0  0
  1 18  1  0  0  0  0
  2 16  1  0  0  0  0
  2 26  1  0  0  0  0
  3 14  1  0  0  0  0
  3 46  1  0  0  0  0
  4 18  1  0  0  0  0
  4 21  1  0  0  0  0
  5 24  2  0  0  0  0
  6 13  1  0  0  0  0
  6 23  1  0  0  0  0
  6 24  1  0  0  0  0
  7 15  1  0  0  0  0
  7 41  1  0  0  0  0
  7 42  1  0  0  0  0
  8 19  1  0  0  0  0
  8 52  1  0  0  0  0
  8 53  1  0  0  0  0
  9 25  1  0  0  0  0
  9 28  1  0  0  0  0
  9 59  1  0  0  0  0
 10 27  1  0  0  0  0
 10 29  2  0  0  0  0
 11 29  1  0  0  0  0
 11 64  1  0  0  0  0
 11 65  1  0  0  0  0
 12 14  1  0  0  0  0
 12 15  1  0  0  0  0
 12 30  1  0  0  0  0
 13 14  1  0  0  0  0
 13 16  1  0  0  0  0
 13 31  1  0  0  0  0
 14 32  1  0  0  0  0
 15 17  1  0  0  0  0
 15 33  1  0  0  0  0
 16 17  1  0  0  0  0
 16 34  1  0  0  0  0
 17 35  1  0  0  0  0
 17 36  1  0  0  0  0
 18 19  1  0  0  0  0
 18 37  1  0  0  0  0
 19 20  1  0  0  0  0
 19 38  1  0  0  0  0
 20 22  1  0  0  0  0
 20 39  1  0  0  0  0
 20 40  1  0  0  0  0
 21 22  1  0  0  0  0
 21 25  1  0  0  0  0
 21 43  1  0  0  0  0
 22 44  1  0  0  0  0
 22 45  1  0  0  0  0
 23 47  1  0  0  0  0
 23 48  1  0  0  0  0
 23 49  1  0  0  0  0
 24 27  1  0  0  0  0
 25 50  1  0  0  0  0
 25 51  1  0  0  0  0
 26 54  1  0  0  0  0
 26 55  1  0  0  0  0
 26 56  1  0  0  0  0
 27 57  1  0  0  0  0
 27 58  1  0  0  0  0
 28 60  1  0  0  0  0
 28 61  1  0  0  0  0
 28 62  1  0  0  0  0
 29 63  1  0  0  0  0
M  END
> <PUBCHEM_COMPOUND_CID>
46174029

> <PUBCHEM_CONFORMER_RMSD>
1

> <PUBCHEM_CONFORMER_DIVERSEORDER>
1
12
28
11
17
19
29
23
16
5
14
27
22
13
26
15
10
7
6
24
21
8
25
20
18
3
4
2
9

> <PUBCHEM_MMFF94_PARTIAL_CHARGES>
35
1 -0.56
10 -0.7
11 -0.85
12 0.28
13 0.3
14 0.28
15 0.27
16 0.28
18 0.56
19 0.27
2 -0.56
21 0.28
23 0.3
24 0.57
25 0.27
26 0.28
27 0.31
28 0.27
29 0.44
3 -0.68
4 -0.56
41 0.36
42 0.36
46 0.4
5 -0.57
52 0.36
53 0.36
59 0.36
6 -0.66
63 0.06
64 0.4
65 0.4
7 -0.99
8 -0.99
9 -0.9

> <PUBCHEM_EFFECTIVE_ROTOR_COUNT>
11.4

> <PUBCHEM_PHARMACOPHORE_FEATURES>
16
1 1 acceptor
1 11 donor
1 2 acceptor
1 3 acceptor
1 3 donor
1 4 acceptor
1 5 acceptor
1 7 cation
1 7 donor
1 8 cation
1 8 donor
1 9 cation
1 9 donor
3 10 11 29 cation
6 12 13 14 15 16 17 rings
6 4 18 19 20 21 22 rings

> <PUBCHEM_HEAVY_ATOM_COUNT>
29

> <PUBCHEM_ATOM_DEF_STEREO_COUNT>
8

> <PUBCHEM_ATOM_UDEF_STEREO_COUNT>
0

> <PUBCHEM_BOND_DEF_STEREO_COUNT>
0

> <PUBCHEM_BOND_UDEF_STEREO_COUNT>
0

> <PUBCHEM_ISOTOPIC_ATOM_COUNT>
0

> <PUBCHEM_COMPONENT_COUNT>
1

> <PUBCHEM_CACTVS_TAUTO_COUNT>
2

> <PUBCHEM_CONFORMER_ID>
02C08F4D00000001

> <PUBCHEM_MMFF94_ENERGY>
67.6749

> <PUBCHEM_FEATURE_SELFOVERLAP>
81.228

> <PUBCHEM_SHAPE_FINGERPRINT>
10366900 7 12103022054138874574
12788726 201 17761775057450448039
12838862 33 18340222859099226436
14251751 93 18264487291170529039
14294032 229 18261388894080510771
14394314 77 18341623582043413064
15238133 3 17917983967415351404
15297060 5 18040433317837091793
15420108 30 18336839644645770583
1601671 61 18343304764748606904
17980427 26 17845668039716847595
21033648 144 18271250525522963317
21033648 29 18262248698935226120
21298829 104 18409165553822728345
2838139 119 18410013204658018621
335352 9 18343582932453027612
3411729 13 18271804696400174969
38695281 34 18335700572490423325
5385378 56 18340485685205819858
633830 44 17845093974519198578

> <PUBCHEM_SHAPE_MULTIPOLES>
537.57
14.76
4.11
1.36
3.16
1.94
0.06
-14.1
-0.29
-4.49
1.87
-0.02
0.79
-1.29

> <PUBCHEM_SHAPE_SELFOVERLAP>
1078.895

> <PUBCHEM_SHAPE_VOLUME>
312.3

> <PUBCHEM_COORDINATE_TYPE>
2
5
10

$$$$

