442906
  -OEChem-07051213003D

 49 52  0     1  0  0  0  0  0999 V2000
   -3.1852   -1.2732    0.6467 O   0  0  0  0  0  0  0  0  0  0  0  0
   -1.7869    0.3520   -0.3705 O   0  0  0  0  0  0  0  0  0  0  0  0
   -5.8294    1.8524   -0.0172 O   0  0  0  0  0  0  0  0  0  0  0  0
   -6.0574   -0.5465   -1.5469 O   0  0  0  0  0  0  0  0  0  0  0  0
   -4.3597    0.8843    2.1386 O   0  0  0  0  0  0  0  0  0  0  0  0
    0.2054    2.2363   -0.4984 O   0  0  0  0  0  0  0  0  0  0  0  0
    3.8912   -2.5221    0.1081 O   0  0  0  0  0  0  0  0  0  0  0  0
    5.1593    1.9339   -0.3082 O   0  0  0  0  0  0  0  0  0  0  0  0
    2.8127    1.5214   -0.3409 N   0  0  0  0  0  0  0  0  0  0  0  0
   -4.7338    0.9710   -0.2536 C   0  0  2  0  0  0  0  0  0  0  0  0
   -5.2561   -0.4613   -0.3710 C   0  0  2  0  0  0  0  0  0  0  0  0
   -3.7148    1.0911    0.8808 C   0  0  2  0  0  0  0  0  0  0  0  0
   -4.0813   -1.4458   -0.4558 C   0  0  2  0  0  0  0  0  0  0  0  0
   -2.6174    0.0376    0.7419 C   0  0  1  0  0  0  0  0  0  0  0  0
   -4.5492   -2.8982   -0.4269 C   0  0  0  0  0  0  0  0  0  0  0  0
   -0.4750   -0.0328   -0.2883 C   0  0  0  0  0  0  0  0  0  0  0  0
    0.5429    0.9171   -0.3524 C   0  0  0  0  0  0  0  0  0  0  0  0
    1.8838    0.5562   -0.2719 C   0  0  0  0  0  0  0  0  0  0  0  0
   -0.1743   -1.3762   -0.1407 C   0  0  0  0  0  0  0  0  0  0  0  0
    2.1884   -0.8174   -0.1211 C   0  0  0  0  0  0  0  0  0  0  0  0
    1.1577   -1.7696   -0.0571 C   0  0  0  0  0  0  0  0  0  0  0  0
    3.5334   -1.2099   -0.0377 C   0  0  0  0  0  0  0  0  0  0  0  0
    4.5163   -0.2161   -0.1083 C   0  0  0  0  0  0  0  0  0  0  0  0
    4.0840    1.0956   -0.2563 C   0  0  0  0  0  0  0  0  0  0  0  0
    5.9317   -0.1653   -0.0688 C   0  0  0  0  0  0  0  0  0  0  0  0
    6.2709    1.1617   -0.1937 C   0  0  0  0  0  0  0  0  0  0  0  0
    0.0064    2.9830    0.6964 C   0  0  0  0  0  0  0  0  0  0  0  0
    4.6367   -2.8592    1.2731 C   0  0  0  0  0  0  0  0  0  0  0  0
   -4.2749    1.2812   -1.2006 H   0  0  0  0  0  0  0  0  0  0  0  0
   -5.9039   -0.6878    0.4847 H   0  0  0  0  0  0  0  0  0  0  0  0
   -3.2978    2.1037    0.8929 H   0  0  0  0  0  0  0  0  0  0  0  0
   -3.5299   -1.2982   -1.3934 H   0  0  0  0  0  0  0  0  0  0  0  0
   -2.0219    0.0463    1.6652 H   0  0  0  0  0  0  0  0  0  0  0  0
   -5.1120   -3.1090    0.4891 H   0  0  0  0  0  0  0  0  0  0  0  0
   -5.1760   -3.1420   -1.2892 H   0  0  0  0  0  0  0  0  0  0  0  0
   -3.6870   -3.5746   -0.4276 H   0  0  0  0  0  0  0  0  0  0  0  0
   -6.4630    1.7311   -0.7450 H   0  0  0  0  0  0  0  0  0  0  0  0
   -6.5164   -1.4029   -1.5319 H   0  0  0  0  0  0  0  0  0  0  0  0
   -4.6018   -0.0545    2.2085 H   0  0  0  0  0  0  0  0  0  0  0  0
   -0.9465   -2.1372   -0.1083 H   0  0  0  0  0  0  0  0  0  0  0  0
    1.3748   -2.8296    0.0542 H   0  0  0  0  0  0  0  0  0  0  0  0
    6.6289   -0.9845    0.0288 H   0  0  0  0  0  0  0  0  0  0  0  0
    7.2116    1.6919   -0.2204 H   0  0  0  0  0  0  0  0  0  0  0  0
   -0.7526    2.5158    1.3312 H   0  0  0  0  0  0  0  0  0  0  0  0
   -0.3386    3.9836    0.4219 H   0  0  0  0  0  0  0  0  0  0  0  0
    0.9457    3.0791    1.2501 H   0  0  0  0  0  0  0  0  0  0  0  0
    4.3384   -3.8647    1.5848 H   0  0  0  0  0  0  0  0  0  0  0  0
    4.4415   -2.1734    2.1050 H   0  0  0  0  0  0  0  0  0  0  0  0
    5.7045   -2.8817    1.0407 H   0  0  0  0  0  0  0  0  0  0  0  0
  1 13  1  0  0  0  0
  1 14  1  0  0  0  0
  2 14  1  0  0  0  0
  2 16  1  0  0  0  0
  3 10  1  0  0  0  0
  3 37  1  0  0  0  0
  4 11  1  0  0  0  0
  4 38  1  0  0  0  0
  5 12  1  0  0  0  0
  5 39  1  0  0  0  0
  6 17  1  0  0  0  0
  6 27  1  0  0  0  0
  7 22  1  0  0  0  0
  7 28  1  0  0  0  0
  8 24  1  0  0  0  0
  8 26  1  0  0  0  0
  9 18  1  0  0  0  0
  9 24  2  0  0  0  0
 10 11  1  0  0  0  0
 10 12  1  0  0  0  0
 10 29  1  0  0  0  0
 11 13  1  0  0  0  0
 11 30  1  0  0  0  0
 12 14  1  0  0  0  0
 12 31  1  0  0  0  0
 13 15  1  0  0  0  0
 13 32  1  0  0  0  0
 14 33  1  0  0  0  0
 15 34  1  0  0  0  0
 15 35  1  0  0  0  0
 15 36  1  0  0  0  0
 16 17  2  0  0  0  0
 16 19  1  0  0  0  0
 17 18  1  0  0  0  0
 18 20  2  0  0  0  0
 19 21  2  0  0  0  0
 19 40  1  0  0  0  0
 20 21  1  0  0  0  0
 20 22  1  0  0  0  0
 21 41  1  0  0  0  0
 22 23  2  0  0  0  0
 23 24  1  0  0  0  0
 23 25  1  0  0  0  0
 25 26  2  0  0  0  0
 25 42  1  0  0  0  0
 26 43  1  0  0  0  0
 27 44  1  0  0  0  0
 27 45  1  0  0  0  0
 27 46  1  0  0  0  0
 28 47  1  0  0  0  0
 28 48  1  0  0  0  0
 28 49  1  0  0  0  0
M  END
> <PUBCHEM_COMPOUND_CID>
442906

> <PUBCHEM_CONFORMER_RMSD>
0.8

> <PUBCHEM_CONFORMER_DIVERSEORDER>
1
39
29
33
32
19
30
25
28
8
35
21
27
20
37
31
18
11
40
17
38
13
4
24
10
23
9
15
5
14
2
12
16
7
3
26
36
22
34
6

> <PUBCHEM_MMFF94_PARTIAL_CHARGES>
32
1 -0.56
10 0.28
11 0.28
12 0.28
13 0.28
14 0.56
16 0.08
17 0.08
18 0.31
19 -0.15
2 -0.36
21 -0.15
22 0.08
24 0.4
25 -0.15
26 -0.01
27 0.28
28 0.28
3 -0.68
37 0.4
38 0.4
39 0.4
4 -0.68
40 0.15
41 0.15
42 0.15
43 0.15
5 -0.68
6 -0.36
7 -0.36
8 -0.28
9 -0.57

> <PUBCHEM_EFFECTIVE_ROTOR_COUNT>
5.2

> <PUBCHEM_PHARMACOPHORE_FEATURES>
14
1 1 acceptor
1 2 acceptor
1 3 acceptor
1 3 donor
1 4 acceptor
1 4 donor
1 5 acceptor
1 5 donor
1 6 acceptor
1 7 acceptor
5 8 23 24 25 26 rings
6 1 10 11 12 13 14 rings
6 16 17 18 19 20 21 rings
6 9 18 20 22 23 24 rings

> <PUBCHEM_HEAVY_ATOM_COUNT>
28

> <PUBCHEM_ATOM_DEF_STEREO_COUNT>
5

> <PUBCHEM_ATOM_UDEF_STEREO_COUNT>
0

> <PUBCHEM_BOND_DEF_STEREO_COUNT>
0

> <PUBCHEM_BOND_UDEF_STEREO_COUNT>
0

> <PUBCHEM_ISOTOPIC_ATOM_COUNT>
0

> <PUBCHEM_COMPONENT_COUNT>
1

> <PUBCHEM_CACTVS_TAUTO_COUNT>
1

> <PUBCHEM_CONFORMER_ID>
0006C21A00000001

> <PUBCHEM_MMFF94_ENERGY>
104.2753

> <PUBCHEM_FEATURE_SELFOVERLAP>
71.251

> <PUBCHEM_SHAPE_FINGERPRINT>
10595046 47 18410294674933489135
10622 236 18191047667321352871
11315181 36 18261952955897523353
12107183 9 17832701649012576034
12236239 1 18113337517857142988
12516196 113 18260832591871397753
12596602 18 17749384837332427024
13533116 47 17917151723376721450
13544653 18 18130500907367685708
13631057 29 18188774925520873271
13785724 45 17832986431737667986
14528608 73 18335419050058082342
14787075 74 18343019948302917282
14790565 3 18125430909514296004
15183329 4 18342182171839767191
15196674 1 18411417314923217798
15250474 111 18408895048108303331
15788980 27 17489867124607360855
17492 89 18193560197740870702
17857418 61 18411140242266724071
17980427 23 17676758825974842777
18681886 176 18114752516555741763
200 152 18259706688312776383
20028762 73 18262807379528273886
20511986 3 18336276694570445179
21033648 29 16702306793097644143
21065198 48 18334574659139678434
21236236 1 18336826403514531631
21267235 1 18336818693647360726
21421861 104 17988372563369928714
23402539 116 18333732399089302644
23559900 14 18263653866426855257
24771293 8 18336264536320747412
3004659 81 18272370914670701774
34797466 226 16298382418704711728
34934 24 18411419522483400527
350125 39 18335979754149789595
4073 2 18059570243986943466
4214541 1 18409448077229628517
4340502 62 16774077376030081778
5104073 3 18410570699623186107
5283173 99 18130234877252140613

> <PUBCHEM_SHAPE_MULTIPOLES>
524.29
15.23
2.85
0.99
2.04
0.55
0.3
0.66
-0.88
-0.62
0.41
0.92
0.01
-1.67

> <PUBCHEM_SHAPE_SELFOVERLAP>
1152.909

> <PUBCHEM_SHAPE_VOLUME>
281.3

> <PUBCHEM_COORDINATE_TYPE>
2
5
10

$$$$

