11069
  -OEChem-06261205172D

 55 57  0     1  0  0  0  0  0999 V2000
    4.4366    0.8660    0.0000 S   0  0  0  0  0  0  0  0  0  0  0  0
    4.8029    7.8630    0.0000 O   0  0  0  0  0  0  0  0  0  0  0  0
    7.4670    9.3388    0.0000 O   0  0  0  0  0  0  0  0  0  0  0  0
    5.3026    1.3660    0.0000 O   0  0  0  0  0  0  0  0  0  0  0  0
    3.5705    0.3660    0.0000 O   0  0  0  0  0  0  0  0  0  0  0  0
    3.9366    1.7320    0.0000 O   0  0  0  0  0  0  0  0  0  0  0  0
    4.9366    0.0000    0.0000 O   0  0  0  0  0  0  0  0  0  0  0  0
    2.5960    5.8571    0.0000 N   0  0  3  0  0  0  0  0  0  0  0  0
    3.9369   11.3630    0.0000 N   0  0  0  0  0  0  0  0  0  0  0  0
    2.0960    6.7232    0.0000 C   0  0  3  0  0  0  0  0  0  0  0  0
    3.0709    7.8630    0.0000 C   0  0  3  0  0  0  0  0  0  0  0  0
    2.1049    8.1218    0.0000 C   0  0  0  0  0  0  0  0  0  0  0  0
    4.7867    6.3054    0.0000 C   0  0  3  0  0  0  0  0  0  0  0  0
    0.5229    5.5161    0.0000 C   0  0  0  0  0  0  0  0  0  0  0  0
    4.5279    5.3395    0.0000 C   0  0  0  0  0  0  0  0  0  0  0  0
    1.0229    4.6500    0.0000 C   0  0  0  0  0  0  0  0  0  0  0  0
    3.9369    8.3630    0.0000 C   0  0  3  0  0  0  0  0  0  0  0  0
    5.6527    6.8054    0.0000 C   0  0  0  0  0  0  0  0  0  0  0  0
    3.9369    9.3630    0.0000 C   0  0  0  0  0  0  0  0  0  0  0  0
    6.5188    6.3054    0.0000 C   0  0  0  0  0  0  0  0  0  0  0  0
    4.8029    9.8630    0.0000 C   0  0  0  0  0  0  0  0  0  0  0  0
    3.0709    9.8630    0.0000 C   0  0  0  0  0  0  0  0  0  0  0  0
    4.8029   10.8630    0.0000 C   0  0  0  0  0  0  0  0  0  0  0  0
    5.6969    9.3283    0.0000 C   0  0  0  0  0  0  0  0  0  0  0  0
    3.0709   10.8630    0.0000 C   0  0  0  0  0  0  0  0  0  0  0  0
    5.6969   11.3976    0.0000 C   0  0  0  0  0  0  0  0  0  0  0  0
    6.6029    9.8421    0.0000 C   0  0  0  0  0  0  0  0  0  0  0  0
    6.6029   10.8838    0.0000 C   0  0  0  0  0  0  0  0  0  0  0  0
    8.3350    9.8355    0.0000 C   0  0  0  0  0  0  0  0  0  0  0  0
    2.3065    5.8996    0.0000 H   0  0  0  0  0  0  0  0  0  0  0  0
    3.7527    7.3554    0.0000 H   0  0  0  0  0  0  0  0  0  0  0  0
    2.2139    8.7321    0.0000 H   0  0  0  0  0  0  0  0  0  0  0  0
    1.4875    8.1784    0.0000 H   0  0  0  0  0  0  0  0  0  0  0  0
    4.6305    7.1410    0.0000 H   0  0  0  0  0  0  0  0  0  0  0  0
    0.1673    6.0239    0.0000 H   0  0  0  0  0  0  0  0  0  0  0  0
    0.0000    5.1829    0.0000 H   0  0  0  0  0  0  0  0  0  0  0  0
    4.3674    4.7406    0.0000 H   0  0  0  0  0  0  0  0  0  0  0  0
    5.1268    5.1790    0.0000 H   0  0  0  0  0  0  0  0  0  0  0  0
    0.5000    4.3169    0.0000 H   0  0  0  0  0  0  0  0  0  0  0  0
    1.3785    4.1422    0.0000 H   0  0  0  0  0  0  0  0  0  0  0  0
    3.9369    7.5130    0.0000 H   0  0  0  0  0  0  0  0  0  0  0  0
    5.6527    7.4254    0.0000 H   0  0  0  0  0  0  0  0  0  0  0  0
    5.3399    8.1730    0.0000 H   0  0  0  0  0  0  0  0  0  0  0  0
    6.5188    5.6854    0.0000 H   0  0  0  0  0  0  0  0  0  0  0  0
    7.0557    6.6154    0.0000 H   0  0  0  0  0  0  0  0  0  0  0  0
    2.5339    9.5529    0.0000 H   0  0  0  0  0  0  0  0  0  0  0  0
    5.6897    8.7083    0.0000 H   0  0  0  0  0  0  0  0  0  0  0  0
    2.5339   11.1730    0.0000 H   0  0  0  0  0  0  0  0  0  0  0  0
    5.6897   12.0176    0.0000 H   0  0  0  0  0  0  0  0  0  0  0  0
    7.1387   11.1958    0.0000 H   0  0  0  0  0  0  0  0  0  0  0  0
    8.6429    9.2973    0.0000 H   0  0  0  0  0  0  0  0  0  0  0  0
    8.8731   10.1434    0.0000 H   0  0  0  0  0  0  0  0  0  0  0  0
    8.0270   10.3736    0.0000 H   0  0  0  0  0  0  0  0  0  0  0  0
    5.8395    1.0560    0.0000 H   0  0  0  0  0  0  0  0  0  0  0  0
    3.0336    0.6760    0.0000 H   0  0  0  0  0  0  0  0  0  0  0  0
  1  4  1  0  0  0  0
  1  5  1  0  0  0  0
  1  6  2  0  0  0  0
  1  7  2  0  0  0  0
  2 17  1  0  0  0  0
  2 43  1  0  0  0  0
  3 27  1  0  0  0  0
  3 29  1  0  0  0  0
  4 54  1  0  0  0  0
  5 55  1  0  0  0  0
  8 11  1  0  0  0  0
  8 15  1  0  0  0  0
  8 16  1  0  0  0  0
  9 23  2  0  0  0  0
  9 25  1  0  0  0  0
 10 12  1  0  0  0  0
 10 13  1  0  0  0  0
 10 14  1  0  0  0  0
 10 30  1  0  0  0  0
 11 12  1  0  0  0  0
 11 17  1  0  0  0  0
 11 31  1  0  0  0  0
 12 32  1  0  0  0  0
 12 33  1  0  0  0  0
 13 15  1  0  0  0  0
 13 18  1  0  0  0  0
 13 34  1  0  0  0  0
 14 16  1  0  0  0  0
 14 35  1  0  0  0  0
 14 36  1  0  0  0  0
 15 37  1  0  0  0  0
 15 38  1  0  0  0  0
 16 39  1  0  0  0  0
 16 40  1  0  0  0  0
 17 19  1  0  0  0  0
 17 41  1  0  0  0  0
 18 20  2  0  0  0  0
 18 42  1  0  0  0  0
 19 21  2  0  0  0  0
 19 22  1  0  0  0  0
 20 44  1  0  0  0  0
 20 45  1  0  0  0  0
 21 23  1  0  0  0  0
 21 24  1  0  0  0  0
 22 25  2  0  0  0  0
 22 46  1  0  0  0  0
 23 26  1  0  0  0  0
 24 27  2  0  0  0  0
 24 47  1  0  0  0  0
 25 48  1  0  0  0  0
 26 28  2  0  0  0  0
 26 49  1  0  0  0  0
 27 28  1  0  0  0  0
 28 50  1  0  0  0  0
 29 51  1  0  0  0  0
 29 52  1  0  0  0  0
 29 53  1  0  0  0  0
M  END
> <PUBCHEM_COMPOUND_CID>
11069

> <PUBCHEM_COMPOUND_CANONICALIZED>
1

> <PUBCHEM_CACTVS_COMPLEXITY>
538

> <PUBCHEM_CACTVS_HBOND_ACCEPTOR>
8

> <PUBCHEM_CACTVS_HBOND_DONOR>
3

> <PUBCHEM_CACTVS_ROTATABLE_BOND>
4

> <PUBCHEM_CACTVS_SUBSKEYS>
AAADceB7OABAAAAAAAAAAAAAAAAAAAAAAAA8WLFiAAAAAACx8AAAHgAACAAADTzhngY+xvMIFoCgAzRnRDCCiCAxIiAI2CA+bJgONuLEsZuEcChkwBHY+Aew4PwOgEABAAACAAAAgAIAAAQAAAAAAAAAAA==

> <PUBCHEM_IUPAC_OPENEYE_NAME>
(6-methoxy-4-quinolyl)-(5-vinylquinuclidin-2-yl)methanol; sulfuric acid

> <PUBCHEM_IUPAC_CAS_NAME>
(5-ethenyl-1-azabicyclo[2.2.2]octan-2-yl)-(6-methoxy-4-quinolinyl)methanol; sulfuric acid

> <PUBCHEM_IUPAC_NAME>
(5-ethenyl-1-azabicyclo[2.2.2]octan-2-yl)-(6-methoxyquinolin-4-yl)methanol; sulfuric acid

> <PUBCHEM_IUPAC_SYSTEMATIC_NAME>
(5-ethenyl-1-azabicyclo[2.2.2]octan-2-yl)-(6-methoxyquinolin-4-yl)methanol; sulfuric acid

> <PUBCHEM_IUPAC_TRADITIONAL_NAME>
(6-methoxy-4-quinolyl)-(5-vinylquinuclidin-2-yl)methanol; sulfuric acid

> <PUBCHEM_IUPAC_INCHI>
InChI=1S/C20H24N2O2.H2O4S/c1-3-13-12-22-9-7-14(13)10-19(22)20(23)16-6-8-21-18-5-4-15(24-2)11-17(16)18;1-5(2,3)4/h3-6,8,11,13-14,19-20,23H,1,7,9-10,12H2,2H3;(H2,1,2,3,4)

> <PUBCHEM_IUPAC_INCHIKEY>
AKYHKWQPZHDOBW-UHFFFAOYSA-N

> <PUBCHEM_EXACT_MASS>
422.151158

> <PUBCHEM_MOLECULAR_FORMULA>
C20H26N2O6S

> <PUBCHEM_MOLECULAR_WEIGHT>
422.49524

> <PUBCHEM_OPENEYE_CAN_SMILES>
COC1=CC2=C(C=CN=C2C=C1)C(C3CC4CCN3CC4C=C)O.OS(=O)(=O)O

> <PUBCHEM_OPENEYE_ISO_SMILES>
COC1=CC2=C(C=CN=C2C=C1)C(C3CC4CCN3CC4C=C)O.OS(=O)(=O)O

> <PUBCHEM_CACTVS_TPSA>
129

> <PUBCHEM_MONOISOTOPIC_WEIGHT>
422.151158

> <PUBCHEM_TOTAL_CHARGE>
0

> <PUBCHEM_HEAVY_ATOM_COUNT>
29

> <PUBCHEM_ATOM_DEF_STEREO_COUNT>
0

> <PUBCHEM_ATOM_UDEF_STEREO_COUNT>
4

> <PUBCHEM_BOND_DEF_STEREO_COUNT>
0

> <PUBCHEM_BOND_UDEF_STEREO_COUNT>
0

> <PUBCHEM_ISOTOPIC_ATOM_COUNT>
0

> <PUBCHEM_COMPONENT_COUNT>
2

> <PUBCHEM_CACTVS_TAUTO_COUNT>
1

> <PUBCHEM_COORDINATE_TYPE>
1
5
255

> <PUBCHEM_BONDANNOTATIONS>
10  30  3
11  31  3
13  34  3
17  41  3
19  21  8
19  22  8
21  23  8
21  24  8
22  25  8
23  26  8
24  27  8
26  28  8
27  28  8
9  23  8
9  25  8

$$$$

