9412
  -OEChem-07051213133D

 24 24  0     0  0  0  0  0  0999 V2000
    2.4626   -2.3268   -0.0016 Br  0  0  0  0  0  0  0  0  0  0  0  0
   -0.5390   -2.0791    0.0075 O   0  0  0  0  0  0  0  0  0  0  0  0
   -0.9446    2.5629    0.0048 O   0  0  0  0  0  0  0  0  0  0  0  0
   -0.8117    0.2331    0.0005 N   0  0  0  0  0  0  0  0  0  0  0  0
    1.1136    1.5809    0.0003 N   0  0  0  0  0  0  0  0  0  0  0  0
   -2.2651    0.1069   -0.0030 C   0  0  0  0  0  0  0  0  0  0  0  0
   -2.7370   -0.6132    1.2535 C   0  0  0  0  0  0  0  0  0  0  0  0
   -2.7364   -0.6117   -1.2612 C   0  0  0  0  0  0  0  0  0  0  0  0
   -0.0553   -0.9471    0.0025 C   0  0  0  0  0  0  0  0  0  0  0  0
   -0.2675    1.5317    0.0015 C   0  0  0  0  0  0  0  0  0  0  0  0
    1.9423    0.4841   -0.0012 C   0  0  0  0  0  0  0  0  0  0  0  0
    1.4331   -0.7602   -0.0002 C   0  0  0  0  0  0  0  0  0  0  0  0
    3.4051    0.8386   -0.0034 C   0  0  0  0  0  0  0  0  0  0  0  0
   -2.7221    1.1027   -0.0027 H   0  0  0  0  0  0  0  0  0  0  0  0
   -3.8286   -0.5509    1.3311 H   0  0  0  0  0  0  0  0  0  0  0  0
   -2.4836   -1.6763    1.2765 H   0  0  0  0  0  0  0  0  0  0  0  0
   -2.3159   -0.1485    2.1520 H   0  0  0  0  0  0  0  0  0  0  0  0
   -2.3193   -0.1413   -2.1585 H   0  0  0  0  0  0  0  0  0  0  0  0
   -3.8285   -0.5558   -1.3364 H   0  0  0  0  0  0  0  0  0  0  0  0
   -2.4751   -1.6728   -1.2883 H   0  0  0  0  0  0  0  0  0  0  0  0
    1.5505    2.4987    0.0005 H   0  0  0  0  0  0  0  0  0  0  0  0
    3.6495    1.4336    0.8838 H   0  0  0  0  0  0  0  0  0  0  0  0
    3.6468    1.4338   -0.8912 H   0  0  0  0  0  0  0  0  0  0  0  0
    4.0717   -0.0265   -0.0045 H   0  0  0  0  0  0  0  0  0  0  0  0
  1 12  1  0  0  0  0
  2  9  2  0  0  0  0
  3 10  2  0  0  0  0
  4  6  1  0  0  0  0
  4  9  1  0  0  0  0
  4 10  1  0  0  0  0
  5 10  1  0  0  0  0
  5 11  1  0  0  0  0
  5 21  1  0  0  0  0
  6  7  1  0  0  0  0
  6  8  1  0  0  0  0
  6 14  1  0  0  0  0
  7 15  1  0  0  0  0
  7 16  1  0  0  0  0
  7 17  1  0  0  0  0
  8 18  1  0  0  0  0
  8 19  1  0  0  0  0
  8 20  1  0  0  0  0
  9 12  1  0  0  0  0
 11 12  2  0  0  0  0
 11 13  1  0  0  0  0
 13 22  1  0  0  0  0
 13 23  1  0  0  0  0
 13 24  1  0  0  0  0
M  END
> <PUBCHEM_COMPOUND_CID>
9412

> <PUBCHEM_CONFORMER_RMSD>
0.4

> <PUBCHEM_CONFORMER_DIVERSEORDER>
1
2
3
4

> <PUBCHEM_MMFF94_PARTIAL_CHARGES>
12
1 -0.11
10 0.69
11 -0.03
12 0.12
13 0.14
2 -0.57
21 0.37
3 -0.57
4 -0.42
5 -0.54
6 0.3
9 0.62

> <PUBCHEM_EFFECTIVE_ROTOR_COUNT>
1

> <PUBCHEM_PHARMACOPHORE_FEATURES>
6
1 1 hydrophobe
1 2 acceptor
1 3 acceptor
1 5 donor
3 6 7 8 hydrophobe
6 4 5 9 10 11 12 rings

> <PUBCHEM_HEAVY_ATOM_COUNT>
13

> <PUBCHEM_ATOM_DEF_STEREO_COUNT>
0

> <PUBCHEM_ATOM_UDEF_STEREO_COUNT>
0

> <PUBCHEM_BOND_DEF_STEREO_COUNT>
0

> <PUBCHEM_BOND_UDEF_STEREO_COUNT>
0

> <PUBCHEM_ISOTOPIC_ATOM_COUNT>
0

> <PUBCHEM_COMPONENT_COUNT>
1

> <PUBCHEM_CACTVS_TAUTO_COUNT>
3

> <PUBCHEM_CONFORMER_ID>
000024C400000001

> <PUBCHEM_MMFF94_ENERGY>
26.5382

> <PUBCHEM_FEATURE_SELFOVERLAP>
30.446

> <PUBCHEM_SHAPE_FINGERPRINT>
11206711 2 18196368354115558142
12423570 1 17751920465327427543
12524768 44 18409446968711672462
12932764 1 17894914039873438424
13140716 1 18122060897463032944
13380535 76 18339651040375624226
14617773 55 17968659448621351561
15775835 57 18113614590613707449
161256 15 18336534019315400014
16945 1 18410856521238421412
17844478 74 17989198218691219497
193761 8 18122343742376016032
20201158 50 18343306933242737635
20588541 1 18339640040694951058
20645477 70 18337680805648632183
21501502 16 18265615570831813452
2334 1 18338797939474098912
23419403 2 16471573221040460288
23552423 10 18198622327293393046
23559900 14 17470167420478249838
241688 4 18123751117296460384
2748010 2 18267025148980874700
5084963 1 17969232294190141058
528886 8 18337113367068796715

> <PUBCHEM_SHAPE_MULTIPOLES>
251.78
4.5
2.4
0.86
0.58
0.18
0
-0.85
-0.01
0.9
0
-0.68
-0.22
0

> <PUBCHEM_SHAPE_SELFOVERLAP>
500.217

> <PUBCHEM_SHAPE_VOLUME>
152.9

> <PUBCHEM_COORDINATE_TYPE>
2
5
10

$$$$

