8829
  -OEChem-06261203092D

 11  9  0     0  0  0  0  0  0999 V2000
    4.5838   -1.0171    0.0000 Fe  0  2  0  0  0  0  0  0  0  0  0  0
    3.6828   -1.4510    0.0000 O   0  5  0  0  0  0  0  0  0  0  0  0
    4.8063   -0.0422    0.0000 O   0  5  0  0  0  0  0  0  0  0  0  0
    2.0000   -1.6406    0.0000 O   0  0  0  0  0  0  0  0  0  0  0  0
    4.6167    1.6406    0.0000 O   0  0  0  0  0  0  0  0  0  0  0  0
    2.5593   -0.0422    0.0000 C   0  0  0  0  0  0  0  0  0  0  0  0
    3.1828    0.7396    0.0000 C   0  0  0  0  0  0  0  0  0  0  0  0
    2.7818   -1.0171    0.0000 C   0  0  0  0  0  0  0  0  0  0  0  0
    4.1828    0.7396    0.0000 C   0  0  0  0  0  0  0  0  0  0  0  0
    1.9549    0.0958    0.0000 H   0  0  0  0  0  0  0  0  0  0  0  0
    2.9138    1.2982    0.0000 H   0  0  0  0  0  0  0  0  0  0  0  0
  2  8  1  0  0  0  0
  3  9  1  0  0  0  0
  4  8  2  0  0  0  0
  5  9  2  0  0  0  0
  6  7  2  3  0  0  0
  6  8  1  0  0  0  0
  6 10  1  0  0  0  0
  7  9  1  0  0  0  0
  7 11  1  0  0  0  0
M  CHG  3   1   2   2  -1   3  -1
M  END
> <PUBCHEM_COMPOUND_CID>
8829

> <PUBCHEM_COMPOUND_CANONICALIZED>
1

> <PUBCHEM_CACTVS_COMPLEXITY>
108

> <PUBCHEM_CACTVS_HBOND_ACCEPTOR>
4

> <PUBCHEM_CACTVS_HBOND_DONOR>
0

> <PUBCHEM_CACTVS_ROTATABLE_BOND>
0

> <PUBCHEM_CACTVS_SUBSKEYS>
AAADcQBgOAAAAAAgAAAAAAAAAAAAAAAAAAAAAAAAAAAAAAAAAAAAGgAAAAAACACAgAAACAAAAACIACDSCAAAAAAAAAAICAAAAEAABAAAAAAAEAAAAAAAAYAAAAAAAAAAAAAAAAAAAAAAAAAAAAAAAAAAAA==

> <PUBCHEM_IUPAC_OPENEYE_NAME>
ferrous but-2-enedioate

> <PUBCHEM_IUPAC_CAS_NAME>
2-butenedioate; iron(2+)

> <PUBCHEM_IUPAC_NAME>
but-2-enedioate; iron(2+)

> <PUBCHEM_IUPAC_SYSTEMATIC_NAME>
but-2-enedioate; iron(2+)

> <PUBCHEM_IUPAC_TRADITIONAL_NAME>
ferrous but-2-enedioate

> <PUBCHEM_IUPAC_INCHI>
InChI=1S/C4H4O4.Fe/c5-3(6)1-2-4(7)8;/h1-2H,(H,5,6)(H,7,8);/q;+2/p-2

> <PUBCHEM_IUPAC_INCHIKEY>
PMVSDNDAUGGCCE-UHFFFAOYSA-L

> <PUBCHEM_EXACT_MASS>
169.930246

> <PUBCHEM_MOLECULAR_FORMULA>
C4H2FeO4

> <PUBCHEM_MOLECULAR_WEIGHT>
169.90128

> <PUBCHEM_OPENEYE_CAN_SMILES>
C(=CC(=O)[O-])C(=O)[O-].[Fe+2]

> <PUBCHEM_OPENEYE_ISO_SMILES>
C(=CC(=O)[O-])C(=O)[O-].[Fe+2]

> <PUBCHEM_CACTVS_TPSA>
80.3

> <PUBCHEM_MONOISOTOPIC_WEIGHT>
169.930246

> <PUBCHEM_TOTAL_CHARGE>
0

> <PUBCHEM_HEAVY_ATOM_COUNT>
9

> <PUBCHEM_ATOM_DEF_STEREO_COUNT>
0

> <PUBCHEM_ATOM_UDEF_STEREO_COUNT>
0

> <PUBCHEM_BOND_DEF_STEREO_COUNT>
0

> <PUBCHEM_BOND_UDEF_STEREO_COUNT>
1

> <PUBCHEM_ISOTOPIC_ATOM_COUNT>
0

> <PUBCHEM_COMPONENT_COUNT>
2

> <PUBCHEM_CACTVS_TAUTO_COUNT>
1

> <PUBCHEM_COORDINATE_TYPE>
1
5
255

> <PUBCHEM_BONDANNOTATIONS>
6  7  1

$$$$

