440083
  -OEChem-07051212483D

 57 59  0     1  0  0  0  0  0999 V2000
   -4.3093   -0.4200    0.9695 P   0  0  1  0  0  0  0  0  0  0  0  0
   -2.7207   -2.8491    0.4866 P   0  0  1  0  0  0  0  0  0  0  0  0
    3.5707   -2.5211   -0.4405 P   0  0  0  0  0  0  0  0  0  0  0  0
   -1.0786    3.2536    0.0622 O   0  0  0  0  0  0  0  0  0  0  0  0
   -0.3816    1.6175   -3.0616 O   0  0  0  0  0  0  0  0  0  0  0  0
   -2.5840    3.1372   -2.5870 O   0  0  0  0  0  0  0  0  0  0  0  0
   -3.9891    1.1055    0.5344 O   0  0  0  0  0  0  0  0  0  0  0  0
   -3.1012   -1.2857    0.3331 O   0  0  0  0  0  0  0  0  0  0  0  0
   -3.9979   -0.4604    2.5566 O   0  0  0  0  0  0  0  0  0  0  0  0
   -5.6791   -0.9065    0.5945 O   0  0  0  0  0  0  0  0  0  0  0  0
   -1.3019   -2.9558   -0.2832 O   0  0  0  0  0  0  0  0  0  0  0  0
   -2.3252   -2.9753    2.0501 O   0  0  0  0  0  0  0  0  0  0  0  0
   -3.7859   -3.7995    0.0237 O   0  0  0  0  0  0  0  0  0  0  0  0
    2.1369   -1.8702   -0.0704 O   0  0  0  0  0  0  0  0  0  0  0  0
   -0.1049   -2.2304   -2.8391 O   0  0  0  0  0  0  0  0  0  0  0  0
    1.6744   -0.8483   -2.5265 O   0  0  0  0  0  0  0  0  0  0  0  0
    4.5666   -1.8255    0.6269 O   0  0  0  0  0  0  0  0  0  0  0  0
    3.4530   -4.0418    0.0969 O   0  0  0  0  0  0  0  0  0  0  0  0
    3.9813   -2.3782   -1.8769 O   0  0  0  0  0  0  0  0  0  0  0  0
    1.1305    2.5309   -0.4154 N   0  0  0  0  0  0  0  0  0  0  0  0
    3.3438    2.3235   -0.2476 N   0  0  0  0  0  0  0  0  0  0  0  0
    0.4605    1.5904    1.7217 N   0  0  0  0  0  0  0  0  0  0  0  0
    2.3984    0.8800    3.0239 N   0  0  0  0  0  0  0  0  0  0  0  0
    4.6413    1.1175    2.2236 N   0  0  0  0  0  0  0  0  0  0  0  0
   -0.8396    1.7228   -1.7290 C   0  0  2  0  0  0  0  0  0  0  0  0
   -2.3012    2.1136   -1.6328 C   0  0  1  0  0  0  0  0  0  0  0  0
   -0.1702    2.8702   -0.9881 C   0  0  1  0  0  0  0  0  0  0  0  0
   -2.3866    2.7106   -0.2315 C   0  0  1  0  0  0  0  0  0  0  0  0
   -2.7277    1.6778    0.8336 C   0  0  0  0  0  0  0  0  0  0  0  0
    1.3655    1.9589    0.8024 C   0  0  0  0  0  0  0  0  0  0  0  0
    2.3491    2.7302   -1.0084 C   0  0  0  0  0  0  0  0  0  0  0  0
    2.7434    1.8392    0.8874 C   0  0  0  0  0  0  0  0  0  0  0  0
    3.2553    1.2757    2.0518 C   0  0  0  0  0  0  0  0  0  0  0  0
    1.0739    1.0593    2.8017 C   0  0  0  0  0  0  0  0  0  0  0  0
   -0.2539   -2.0856    0.1066 C   0  0  0  0  0  0  0  0  0  0  0  0
    0.9824   -2.3539   -0.7413 C   0  0  1  0  0  0  0  0  0  0  0  0
    0.9114   -1.7071   -2.1079 C   0  0  0  0  0  0  0  0  0  0  0  0
   -0.6748    0.7686   -1.2226 H   0  0  0  0  0  0  0  0  0  0  0  0
   -2.9805    1.2804   -1.8321 H   0  0  0  0  0  0  0  0  0  0  0  0
   -0.0109    3.7425   -1.6344 H   0  0  0  0  0  0  0  0  0  0  0  0
   -3.1111    3.5321   -0.1945 H   0  0  0  0  0  0  0  0  0  0  0  0
   -2.7760    2.1503    1.8205 H   0  0  0  0  0  0  0  0  0  0  0  0
   -1.9593    0.9020    0.8904 H   0  0  0  0  0  0  0  0  0  0  0  0
    0.5692    1.4166   -3.0308 H   0  0  0  0  0  0  0  0  0  0  0  0
   -3.5157    3.3909   -2.4724 H   0  0  0  0  0  0  0  0  0  0  0  0
    2.4493    3.1717   -1.9906 H   0  0  0  0  0  0  0  0  0  0  0  0
    0.4170    0.7300    3.5997 H   0  0  0  0  0  0  0  0  0  0  0  0
    5.2826    1.4104    1.4989 H   0  0  0  0  0  0  0  0  0  0  0  0
    4.9887    0.7042    3.0783 H   0  0  0  0  0  0  0  0  0  0  0  0
   -4.2386   -1.2631    3.0664 H   0  0  0  0  0  0  0  0  0  0  0  0
   -0.0105   -2.2632    1.1591 H   0  0  0  0  0  0  0  0  0  0  0  0
   -0.5752   -1.0460    0.0136 H   0  0  0  0  0  0  0  0  0  0  0  0
    1.0970   -3.4330   -0.9009 H   0  0  0  0  0  0  0  0  0  0  0  0
   -1.7313   -2.3094    2.4565 H   0  0  0  0  0  0  0  0  0  0  0  0
   -0.1569   -1.8289   -3.7326 H   0  0  0  0  0  0  0  0  0  0  0  0
    5.5313   -1.9858    0.5506 H   0  0  0  0  0  0  0  0  0  0  0  0
    4.1902   -4.6650   -0.0772 H   0  0  0  0  0  0  0  0  0  0  0  0
  1  7  1  0  0  0  0
  1  8  1  0  0  0  0
  1  9  1  0  0  0  0
  1 10  2  0  0  0  0
  2  8  1  0  0  0  0
  2 11  1  0  0  0  0
  2 12  1  0  0  0  0
  2 13  2  0  0  0  0
  3 14  1  0  0  0  0
  3 17  1  0  0  0  0
  3 18  1  0  0  0  0
  3 19  2  0  0  0  0
  4 27  1  0  0  0  0
  4 28  1  0  0  0  0
  5 25  1  0  0  0  0
  5 44  1  0  0  0  0
  6 26  1  0  0  0  0
  6 45  1  0  0  0  0
  7 29  1  0  0  0  0
  9 50  1  0  0  0  0
 11 35  1  0  0  0  0
 12 54  1  0  0  0  0
 14 36  1  0  0  0  0
 15 37  1  0  0  0  0
 15 55  1  0  0  0  0
 16 37  2  0  0  0  0
 17 56  1  0  0  0  0
 18 57  1  0  0  0  0
 20 27  1  0  0  0  0
 20 30  1  0  0  0  0
 20 31  1  0  0  0  0
 21 31  2  0  0  0  0
 21 32  1  0  0  0  0
 22 30  1  0  0  0  0
 22 34  2  0  0  0  0
 23 33  2  0  0  0  0
 23 34  1  0  0  0  0
 24 33  1  0  0  0  0
 24 48  1  0  0  0  0
 24 49  1  0  0  0  0
 25 26  1  0  0  0  0
 25 27  1  0  0  0  0
 25 38  1  0  0  0  0
 26 28  1  0  0  0  0
 26 39  1  0  0  0  0
 27 40  1  0  0  0  0
 28 29  1  0  0  0  0
 28 41  1  0  0  0  0
 29 42  1  0  0  0  0
 29 43  1  0  0  0  0
 30 32  2  0  0  0  0
 31 46  1  0  0  0  0
 32 33  1  0  0  0  0
 34 47  1  0  0  0  0
 35 36  1  0  0  0  0
 35 51  1  0  0  0  0
 35 52  1  0  0  0  0
 36 37  1  0  0  0  0
 36 53  1  0  0  0  0
M  END
> <PUBCHEM_COMPOUND_CID>
440083

> <PUBCHEM_CONFORMER_RMSD>
1.6

> <PUBCHEM_CONFORMER_DIVERSEORDER>
1
145
108
131
65
81
77
45
92
6
121
96
139
144
2
84
3
64
130
129
134
140
132
110
115
135
21
62
10
32
116
155
153
127
85
11
141
50
118
75
161
143
159
15
160
7
147
152
27
17
154
38
98
69
22
142
26
36
112
136
54
23
162
120
80
55
146
122
137
91
12
79
9
49
25
56
59
83
149
123
31
18
90
150
82
30
103
95
114
53
97
4
44
151
52
102
101
87
8
133
68
71
66
47
60
157
20
5
63
34
73
156
29
24
158
48
58
28
37
99
119
43
89
128
40
117
93
41
42
33
70
51
138
57
113
39
16
106
35
126
111
94
100
107
67
78
125
14
74
88
19
105
148
86
124
46
72
76
61
104
13
109

> <PUBCHEM_MMFF94_PARTIAL_CHARGES>
48
1 1.51
10 -0.7
11 -0.55
12 -0.77
13 -0.7
14 -0.55
15 -0.65
16 -0.57
17 -0.77
18 -0.77
19 -0.7
2 1.51
20 0.05
21 -0.57
22 -0.57
23 -0.62
24 -0.9
25 0.28
26 0.28
27 0.54
28 0.28
29 0.28
3 1.51
30 0.11
31 0.04
32 0.23
33 0.41
34 0.47
35 0.28
36 0.34
37 0.66
4 -0.56
44 0.4
45 0.4
46 0.15
47 0.15
48 0.4
49 0.4
5 -0.68
50 0.5
54 0.5
55 0.5
56 0.5
57 0.5
6 -0.68
7 -0.55
8 -0.54
9 -0.77

> <PUBCHEM_EFFECTIVE_ROTOR_COUNT>
13

> <PUBCHEM_PHARMACOPHORE_FEATURES>
23
1 10 acceptor
1 12 acceptor
1 13 acceptor
1 15 acceptor
1 16 acceptor
1 17 acceptor
1 18 acceptor
1 19 acceptor
1 24 donor
1 4 acceptor
1 5 acceptor
1 5 donor
1 6 acceptor
1 6 donor
1 9 acceptor
3 15 16 37 anion
3 20 21 31 cation
3 22 23 34 cation
3 23 24 33 cation
4 3 17 18 19 anion
5 20 21 30 31 32 rings
5 4 25 26 27 28 rings
6 22 23 30 32 33 34 rings

> <PUBCHEM_HEAVY_ATOM_COUNT>
37

> <PUBCHEM_ATOM_DEF_STEREO_COUNT>
4

> <PUBCHEM_ATOM_UDEF_STEREO_COUNT>
1

> <PUBCHEM_BOND_DEF_STEREO_COUNT>
0

> <PUBCHEM_BOND_UDEF_STEREO_COUNT>
0

> <PUBCHEM_ISOTOPIC_ATOM_COUNT>
0

> <PUBCHEM_COMPONENT_COUNT>
1

> <PUBCHEM_CACTVS_TAUTO_COUNT>
3

> <PUBCHEM_CONFORMER_ID>
0006B71300000001

> <PUBCHEM_MMFF94_ENERGY>
0.719

> <PUBCHEM_FEATURE_SELFOVERLAP>
117.089

> <PUBCHEM_SHAPE_FINGERPRINT>
11513181 2 18115295662367989431
12156800 1 17630899389268511915
12422481 6 18335715905708339026
13402501 40 18265330788677563547
14020679 6 17538836293075832913
19319366 153 15535305616810667929
20600515 1 17687172502221762148
20764821 26 18412544331748170503
23419403 2 18189342427606183322
35225 105 17826252708457861325
508706 21 18341626935552787311

> <PUBCHEM_SHAPE_MULTIPOLES>
654.18
8.05
5.37
2.91
2.41
2.27
-0.17
3.4
3.64
-0.22
-1.52
-0.77
-0.8
2.82

> <PUBCHEM_SHAPE_SELFOVERLAP>
1335.827

> <PUBCHEM_SHAPE_VOLUME>
380

> <PUBCHEM_COORDINATE_TYPE>
2
5
10

$$$$

