46174025
  -OEChem-07051213112D

 64 65  0     1  0  0  0  0  0999 V2000
    4.6200   -0.6519    0.0000 O   0  0  0  0  0  0  0  0  0  0  0  0
    8.0841    1.3481    0.0000 O   0  0  0  0  0  0  0  0  0  0  0  0
    4.6200    1.3481    0.0000 O   0  0  0  0  0  0  0  0  0  0  0  0
    4.6200   -2.3840    0.0000 O   0  0  0  0  0  0  0  0  0  0  0  0
    8.0841    2.3481    0.0000 O   0  0  0  0  0  0  0  0  0  0  0  0
    8.9501    5.8481    0.0000 O   0  0  0  0  0  0  0  0  0  0  0  0
    6.3520    2.3481    0.0000 N   0  0  0  0  0  0  0  0  0  0  0  0
    6.8521   -1.5179    0.0000 N   0  0  0  0  0  0  0  0  0  0  0  0
    2.6200   -0.6519    0.0000 N   0  0  0  0  0  0  0  0  0  0  0  0
    4.1200   -4.9820    0.0000 N   0  0  0  0  0  0  0  0  0  0  0  0
    8.0841    4.3481    0.0000 N   0  0  0  0  0  0  0  0  0  0  0  0
    6.3520    1.3481    0.0000 C   0  0  1  0  0  0  0  0  0  0  0  0
    5.4860   -0.1519    0.0000 C   0  0  1  0  0  0  0  0  0  0  0  0
    5.4860    0.8481    0.0000 C   0  0  2  0  0  0  0  0  0  0  0  0
    6.3520   -0.6519    0.0000 C   0  0  2  0  0  0  0  0  0  0  0  0
    7.2181    0.8481    0.0000 C   0  0  2  0  0  0  0  0  0  0  0  0
    7.2181   -0.1519    0.0000 C   0  0  0  0  0  0  0  0  0  0  0  0
    4.1201   -1.5180    0.0000 C   0  0  1  0  0  0  0  0  0  0  0  0
    3.1200   -1.5180    0.0000 C   0  0  1  0  0  0  0  0  0  0  0  0
    2.6200   -2.3840    0.0000 C   0  0  0  0  0  0  0  0  0  0  0  0
    4.1200   -3.2500    0.0000 C   0  0  1  0  0  0  0  0  0  0  0  0
    3.1201   -3.2500    0.0000 C   0  0  0  0  0  0  0  0  0  0  0  0
    5.4860    2.8481    0.0000 C   0  0  0  0  0  0  0  0  0  0  0  0
    7.2181    2.8481    0.0000 C   0  0  0  0  0  0  0  0  0  0  0  0
    4.6200   -4.1160    0.0000 C   0  0  0  0  0  0  0  0  0  0  0  0
    8.9501    0.8481    0.0000 C   0  0  0  0  0  0  0  0  0  0  0  0
    7.2181    3.8481    0.0000 C   0  0  0  0  0  0  0  0  0  0  0  0
    4.6200   -5.8481    0.0000 C   0  0  0  0  0  0  0  0  0  0  0  0
    8.0841    5.3481    0.0000 C   0  0  0  0  0  0  0  0  0  0  0  0
    6.8890    1.6581    0.0000 H   0  0  0  0  0  0  0  0  0  0  0  0
    5.4860   -0.7719    0.0000 H   0  0  0  0  0  0  0  0  0  0  0  0
    5.4860    1.4681    0.0000 H   0  0  0  0  0  0  0  0  0  0  0  0
    5.9137   -1.0904    0.0000 H   0  0  0  0  0  0  0  0  0  0  0  0
    7.2181    1.4681    0.0000 H   0  0  0  0  0  0  0  0  0  0  0  0
    7.4301   -0.7345    0.0000 H   0  0  0  0  0  0  0  0  0  0  0  0
    7.8287   -0.0443    0.0000 H   0  0  0  0  0  0  0  0  0  0  0  0
    3.8101   -0.9811    0.0000 H   0  0  0  0  0  0  0  0  0  0  0  0
    2.5000   -1.5180    0.0000 H   0  0  0  0  0  0  0  0  0  0  0  0
    2.1451   -1.9855    0.0000 H   0  0  0  0  0  0  0  0  0  0  0  0
    2.1451   -2.7826    0.0000 H   0  0  0  0  0  0  0  0  0  0  0  0
    7.4720   -1.5180    0.0000 H   0  0  0  0  0  0  0  0  0  0  0  0
    6.5421   -2.0549    0.0000 H   0  0  0  0  0  0  0  0  0  0  0  0
    4.7400   -3.2500    0.0000 H   0  0  0  0  0  0  0  0  0  0  0  0
    2.5375   -3.4621    0.0000 H   0  0  0  0  0  0  0  0  0  0  0  0
    3.2278   -3.8606    0.0000 H   0  0  0  0  0  0  0  0  0  0  0  0
    4.0831    1.0381    0.0000 H   0  0  0  0  0  0  0  0  0  0  0  0
    5.7960    3.3850    0.0000 H   0  0  0  0  0  0  0  0  0  0  0  0
    4.9491    3.1581    0.0000 H   0  0  0  0  0  0  0  0  0  0  0  0
    5.1760    2.3111    0.0000 H   0  0  0  0  0  0  0  0  0  0  0  0
    5.0950   -4.5146    0.0000 H   0  0  0  0  0  0  0  0  0  0  0  0
    5.0950   -3.7175    0.0000 H   0  0  0  0  0  0  0  0  0  0  0  0
    2.0000   -0.6519    0.0000 H   0  0  0  0  0  0  0  0  0  0  0  0
    2.9300   -0.1149    0.0000 H   0  0  0  0  0  0  0  0  0  0  0  0
    8.6401    0.3111    0.0000 H   0  0  0  0  0  0  0  0  0  0  0  0
    9.4871    0.5381    0.0000 H   0  0  0  0  0  0  0  0  0  0  0  0
    9.2601    1.3850    0.0000 H   0  0  0  0  0  0  0  0  0  0  0  0
    7.0060    4.4307    0.0000 H   0  0  0  0  0  0  0  0  0  0  0  0
    6.6075    3.7404    0.0000 H   0  0  0  0  0  0  0  0  0  0  0  0
    3.5000   -4.9820    0.0000 H   0  0  0  0  0  0  0  0  0  0  0  0
    8.6210    4.0381    0.0000 H   0  0  0  0  0  0  0  0  0  0  0  0
    4.0831   -6.1581    0.0000 H   0  0  0  0  0  0  0  0  0  0  0  0
    4.9300   -6.3850    0.0000 H   0  0  0  0  0  0  0  0  0  0  0  0
    5.1569   -5.5381    0.0000 H   0  0  0  0  0  0  0  0  0  0  0  0
    7.5472    5.6581    0.0000 H   0  0  0  0  0  0  0  0  0  0  0  0
 13  1  1  1  0  0  0
 18  1  1  1  0  0  0
 16  2  1  1  0  0  0
  2 26  1  0  0  0  0
 14  3  1  6  0  0  0
  3 46  1  0  0  0  0
  4 18  1  0  0  0  0
  4 21  1  0  0  0  0
  5 24  2  0  0  0  0
  6 29  2  0  0  0  0
 12  7  1  6  0  0  0
  7 23  1  0  0  0  0
  7 24  1  0  0  0  0
 15  8  1  6  0  0  0
  8 41  1  0  0  0  0
  8 42  1  0  0  0  0
 19  9  1  1  0  0  0
  9 52  1  0  0  0  0
  9 53  1  0  0  0  0
 10 25  1  0  0  0  0
 10 28  1  0  0  0  0
 10 59  1  0  0  0  0
 11 27  1  0  0  0  0
 11 29  1  0  0  0  0
 11 60  1  0  0  0  0
 12 14  1  0  0  0  0
 12 16  1  0  0  0  0
 12 30  1  0  0  0  0
 13 14  1  0  0  0  0
 13 15  1  0  0  0  0
 13 31  1  0  0  0  0
 14 32  1  0  0  0  0
 15 17  1  0  0  0  0
 15 33  1  0  0  0  0
 16 17  1  0  0  0  0
 16 34  1  0  0  0  0
 17 35  1  0  0  0  0
 17 36  1  0  0  0  0
 18 19  1  0  0  0  0
 18 37  1  0  0  0  0
 19 20  1  0  0  0  0
 19 38  1  0  0  0  0
 20 22  1  0  0  0  0
 20 39  1  0  0  0  0
 20 40  1  0  0  0  0
 21 22  1  0  0  0  0
 21 25  1  6  0  0  0
 21 43  1  0  0  0  0
 22 44  1  0  0  0  0
 22 45  1  0  0  0  0
 23 47  1  0  0  0  0
 23 48  1  0  0  0  0
 23 49  1  0  0  0  0
 24 27  1  0  0  0  0
 25 50  1  0  0  0  0
 25 51  1  0  0  0  0
 26 54  1  0  0  0  0
 26 55  1  0  0  0  0
 26 56  1  0  0  0  0
 27 57  1  0  0  0  0
 27 58  1  0  0  0  0
 28 61  1  0  0  0  0
 28 62  1  0  0  0  0
 28 63  1  0  0  0  0
 29 64  1  0  0  0  0
M  END
> <PUBCHEM_COMPOUND_CID>
46174025

> <PUBCHEM_COMPOUND_CANONICALIZED>
1

> <PUBCHEM_CACTVS_COMPLEXITY>
541

> <PUBCHEM_CACTVS_HBOND_ACCEPTOR>
9

> <PUBCHEM_CACTVS_HBOND_DONOR>
5

> <PUBCHEM_CACTVS_ROTATABLE_BOND>
8

> <PUBCHEM_CACTVS_SUBSKEYS>
AAADcfB7uAAAAAAAAAAAAAAAAAAAAAAAAAA0QAAAAAAAAAAAAAAAHgAQCAAACDzxgAcCCAPABgAIAAEQkAAAAAAAAAAAAICIAAATUAIAgCA3QAAHFgCXAAHwcA8AAAAAAAAAAAACAQAUAACgAAAAAAAAAA==

> <PUBCHEM_IUPAC_OPENEYE_NAME>
N-[(1S,2R,3R,4S,6S)-4-amino-3-[(2R,3R,6S)-3-amino-6-(methylaminomethyl)tetrahydropyran-2-yl]oxy-2-hydroxy-6-methoxy-cyclohexyl]-2-formamido-N-methyl-acetamide

> <PUBCHEM_IUPAC_CAS_NAME>
N-[(1S,2R,3R,4S,6S)-4-amino-3-[[(2R,3R,6S)-3-amino-6-(methylaminomethyl)-2-oxanyl]oxy]-2-hydroxy-6-methoxycyclohexyl]-2-formamido-N-methylacetamide

> <PUBCHEM_IUPAC_NAME>
N-[(1S,2R,3R,4S,6S)-4-amino-3-[(2R,3R,6S)-3-amino-6-(methylaminomethyl)oxan-2-yl]oxy-2-hydroxy-6-methoxycyclohexyl]-2-formamido-N-methylacetamide

> <PUBCHEM_IUPAC_SYSTEMATIC_NAME>
N-[(1S,2R,3R,4S,6S)-4-azanyl-3-[(2R,3R,6S)-3-azanyl-6-(methylaminomethyl)oxan-2-yl]oxy-6-methoxy-2-oxidanyl-cyclohexyl]-2-formamido-N-methyl-ethanamide

> <PUBCHEM_IUPAC_TRADITIONAL_NAME>
N-[(1S,2R,3R,4S,6S)-4-amino-3-[(2R,3R,6S)-3-amino-6-(methylaminomethyl)tetrahydropyran-2-yl]oxy-2-hydroxy-6-methoxy-cyclohexyl]-2-formamido-N-methyl-acetamide

> <PUBCHEM_IUPAC_INCHI>
InChI=1S/C18H35N5O6/c1-21-7-10-4-5-11(19)18(28-10)29-17-12(20)6-13(27-3)15(16(17)26)23(2)14(25)8-22-9-24/h9-13,15-18,21,26H,4-8,19-20H2,1-3H3,(H,22,24)/t10-,11+,12-,13-,15+,16+,17+,18+/m0/s1

> <PUBCHEM_IUPAC_INCHIKEY>
IHPJPQIRNONWGH-GTSDWETFSA-N

> <PUBCHEM_XLOGP3_AA>
-3.1

> <PUBCHEM_EXACT_MASS>
417.258734

> <PUBCHEM_MOLECULAR_FORMULA>
C18H35N5O6

> <PUBCHEM_MOLECULAR_WEIGHT>
417.5004

> <PUBCHEM_OPENEYE_CAN_SMILES>
CNCC1CCC(C(O1)OC2C(CC(C(C2O)N(C)C(=O)CNC=O)OC)N)N

> <PUBCHEM_OPENEYE_ISO_SMILES>
CNC[C@@H]1CC[C@H]([C@H](O1)O[C@@H]2[C@H](C[C@@H]([C@H]([C@H]2O)N(C)C(=O)CNC=O)OC)N)N

> <PUBCHEM_CACTVS_TPSA>
161

> <PUBCHEM_MONOISOTOPIC_WEIGHT>
417.258734

> <PUBCHEM_TOTAL_CHARGE>
0

> <PUBCHEM_HEAVY_ATOM_COUNT>
29

> <PUBCHEM_ATOM_DEF_STEREO_COUNT>
8

> <PUBCHEM_ATOM_UDEF_STEREO_COUNT>
0

> <PUBCHEM_BOND_DEF_STEREO_COUNT>
0

> <PUBCHEM_BOND_UDEF_STEREO_COUNT>
0

> <PUBCHEM_ISOTOPIC_ATOM_COUNT>
0

> <PUBCHEM_COMPONENT_COUNT>
1

> <PUBCHEM_CACTVS_TAUTO_COUNT>
2

> <PUBCHEM_COORDINATE_TYPE>
1
5
255

> <PUBCHEM_BONDANNOTATIONS>
13  1  5
18  1  5
16  2  5
21  25  6
14  3  6
12  7  6
15  8  6
19  9  5

$$$$

