69160
  -OEChem-07051213082D

 19 20  0     0  0  0  0  0  0999 V2000
    7.1279    0.1900    0.0000 O   0  0  0  0  0  0  0  0  0  0  0  0
    3.7320   -1.8100    0.0000 O   0  0  0  0  0  0  0  0  0  0  0  0
    2.0000    1.1900    0.0000 O   0  0  0  0  0  0  0  0  0  0  0  0
    5.5443   -0.6147    0.0000 N   0  0  0  0  0  0  0  0  0  0  0  0
    5.5443    0.9947    0.0000 N   0  0  0  0  0  0  0  0  0  0  0  0
    3.7320    1.1900    0.0000 N   0  0  0  0  0  0  0  0  0  0  0  0
    2.8660   -0.3100    0.0000 N   0  0  0  0  0  0  0  0  0  0  0  0
    4.5981   -0.3100    0.0000 C   0  0  0  0  0  0  0  0  0  0  0  0
    4.5981    0.6900    0.0000 C   0  0  0  0  0  0  0  0  0  0  0  0
    6.1279    0.1900    0.0000 C   0  0  0  0  0  0  0  0  0  0  0  0
    3.7320   -0.8100    0.0000 C   0  0  0  0  0  0  0  0  0  0  0  0
    5.8550   -1.5652    0.0000 C   0  0  0  0  0  0  0  0  0  0  0  0
    2.8660    0.6900    0.0000 C   0  0  0  0  0  0  0  0  0  0  0  0
    5.7369    1.5840    0.0000 H   0  0  0  0  0  0  0  0  0  0  0  0
    3.7320    1.8100    0.0000 H   0  0  0  0  0  0  0  0  0  0  0  0
    5.2656   -1.7579    0.0000 H   0  0  0  0  0  0  0  0  0  0  0  0
    6.0476   -2.1546    0.0000 H   0  0  0  0  0  0  0  0  0  0  0  0
    6.4443   -1.3726    0.0000 H   0  0  0  0  0  0  0  0  0  0  0  0
    2.3291   -0.6200    0.0000 H   0  0  0  0  0  0  0  0  0  0  0  0
  1 10  2  0  0  0  0
  2 11  2  0  0  0  0
  3 13  2  0  0  0  0
  4  8  1  0  0  0  0
  4 10  1  0  0  0  0
  4 12  1  0  0  0  0
  5  9  1  0  0  0  0
  5 10  1  0  0  0  0
  5 14  1  0  0  0  0
  6  9  1  0  0  0  0
  6 13  1  0  0  0  0
  6 15  1  0  0  0  0
  7 11  1  0  0  0  0
  7 13  1  0  0  0  0
  7 19  1  0  0  0  0
  8  9  2  0  0  0  0
  8 11  1  0  0  0  0
 12 16  1  0  0  0  0
 12 17  1  0  0  0  0
 12 18  1  0  0  0  0
M  END
> <PUBCHEM_COMPOUND_CID>
69160

> <PUBCHEM_COMPOUND_CANONICALIZED>
1

> <PUBCHEM_CACTVS_COMPLEXITY>
359

> <PUBCHEM_CACTVS_HBOND_ACCEPTOR>
3

> <PUBCHEM_CACTVS_HBOND_DONOR>
3

> <PUBCHEM_CACTVS_ROTATABLE_BOND>
0

> <PUBCHEM_CACTVS_SUBSKEYS>
AAADcYBjsAAAAAAAAAAAAAAAAAAAAQAAAAAgAAAAAAAAAFgAAAAAHgAQAAAACAgBgAQDAAPAAACIAAVQUACAAAAAAAAAAACIAECAQAAAACAQAAAIByIAAEAAAAAAAAAAAAAAAAAAAAAAAAAAAAAAAAAAAA==

> <PUBCHEM_IUPAC_OPENEYE_NAME>
7-methyl-3,9-dihydropurine-2,6,8-trione

> <PUBCHEM_IUPAC_CAS_NAME>
7-methyl-3,9-dihydropurine-2,6,8-trione

> <PUBCHEM_IUPAC_NAME>
7-methyl-3,9-dihydropurine-2,6,8-trione

> <PUBCHEM_IUPAC_SYSTEMATIC_NAME>
7-methyl-3,9-dihydropurine-2,6,8-trione

> <PUBCHEM_IUPAC_TRADITIONAL_NAME>
7-methyluric acid

> <PUBCHEM_IUPAC_INCHI>
InChI=1S/C6H6N4O3/c1-10-2-3(8-6(10)13)7-5(12)9-4(2)11/h1H3,(H3,7,8,9,11,12,13)

> <PUBCHEM_IUPAC_INCHIKEY>
YHNNPKUFPWLTOP-UHFFFAOYSA-N

> <PUBCHEM_XLOGP3>
-1.2

> <PUBCHEM_EXACT_MASS>
182.04399

> <PUBCHEM_MOLECULAR_FORMULA>
C6H6N4O3

> <PUBCHEM_MOLECULAR_WEIGHT>
182.13684

> <PUBCHEM_OPENEYE_CAN_SMILES>
CN1C2=C(NC(=O)NC2=O)NC1=O

> <PUBCHEM_OPENEYE_ISO_SMILES>
CN1C2=C(NC(=O)NC2=O)NC1=O

> <PUBCHEM_CACTVS_TPSA>
90.5

> <PUBCHEM_MONOISOTOPIC_WEIGHT>
182.04399

> <PUBCHEM_TOTAL_CHARGE>
0

> <PUBCHEM_HEAVY_ATOM_COUNT>
13

> <PUBCHEM_ATOM_DEF_STEREO_COUNT>
0

> <PUBCHEM_ATOM_UDEF_STEREO_COUNT>
0

> <PUBCHEM_BOND_DEF_STEREO_COUNT>
0

> <PUBCHEM_BOND_UDEF_STEREO_COUNT>
0

> <PUBCHEM_ISOTOPIC_ATOM_COUNT>
0

> <PUBCHEM_COMPONENT_COUNT>
1

> <PUBCHEM_CACTVS_TAUTO_COUNT>
26

> <PUBCHEM_COORDINATE_TYPE>
1
5
255

> <PUBCHEM_BONDANNOTATIONS>
4  10  8
4  8  8
5  10  8
5  9  8
6  13  8
6  9  8
7  11  8
7  13  8
8  11  8
8  9  8

$$$$

