177154
  -OEChem-07051213013D

 82 88  0     1  0  0  0  0  0999 V2000
   -0.4100    0.9575   -0.8323 O   0  0  0  0  0  0  0  0  0  0  0  0
   -0.3817    2.8643    1.4201 O   0  0  0  0  0  0  0  0  0  0  0  0
   -2.8621    4.9589   -1.8093 O   0  0  0  0  0  0  0  0  0  0  0  0
   -0.5763    3.4454   -2.0719 O   0  0  0  0  0  0  0  0  0  0  0  0
    0.6516   -4.6437   -0.4759 O   0  0  0  0  0  0  0  0  0  0  0  0
   -1.1832   -6.5793   -0.2109 O   0  0  0  0  0  0  0  0  0  0  0  0
   -3.5407   -0.3390    1.6826 N   0  0  1  0  0  0  0  0  0  0  0  0
    5.5676    1.5580   -0.3990 N   0  0  1  0  0  0  0  0  0  0  0  0
   -2.6619   -0.2533    0.4966 C   0  0  2  0  0  0  0  0  0  0  0  0
    4.4572    0.5802   -0.4994 C   0  0  2  0  0  0  0  0  0  0  0  0
   -2.6683    1.1774   -0.0463 C   0  0  0  0  0  0  0  0  0  0  0  0
    3.1549    1.2432   -0.0648 C   0  0  0  0  0  0  0  0  0  0  0  0
   -4.9184    0.0577    1.3898 C   0  0  0  0  0  0  0  0  0  0  0  0
   -3.8233    1.9708    0.0877 C   0  0  0  0  0  0  0  0  0  0  0  0
   -4.9850    1.5183    0.9356 C   0  0  0  0  0  0  0  0  0  0  0  0
   -2.9768   -1.2134   -0.6931 C   0  0  0  0  0  0  0  0  0  0  0  0
    5.7285    2.0642    0.9679 C   0  0  0  0  0  0  0  0  0  0  0  0
    3.1691    2.2288    0.9349 C   0  0  0  0  0  0  0  0  0  0  0  0
    4.4682    2.7904    1.4538 C   0  0  0  0  0  0  0  0  0  0  0  0
    4.7047   -0.7429    0.2893 C   0  0  0  0  0  0  0  0  0  0  0  0
   -1.5578    1.7111   -0.7264 C   0  0  0  0  0  0  0  0  0  0  0  0
    1.9302    0.8643   -0.6400 C   0  0  0  0  0  0  0  0  0  0  0  0
   -3.4835   -1.6069    2.3943 C   0  0  0  0  0  0  0  0  0  0  0  0
    0.7269    1.4223   -0.1994 C   0  0  0  0  0  0  0  0  0  0  0  0
   -3.8675    3.2438   -0.5021 C   0  0  0  0  0  0  0  0  0  0  0  0
    1.9576    2.7645    1.3916 C   0  0  0  0  0  0  0  0  0  0  0  0
   -2.4931   -2.6365   -0.5463 C   0  0  0  0  0  0  0  0  0  0  0  0
    6.8312    1.0594   -0.9325 C   0  0  0  0  0  0  0  0  0  0  0  0
   -1.6236    2.9663   -1.3412 C   0  0  0  0  0  0  0  0  0  0  0  0
    3.6447   -1.8047    0.1007 C   0  0  0  0  0  0  0  0  0  0  0  0
    0.7418    2.3504    0.8442 C   0  0  0  0  0  0  0  0  0  0  0  0
   -2.7803    3.7304   -1.2265 C   0  0  0  0  0  0  0  0  0  0  0  0
   -1.1194   -2.9246   -0.5577 C   0  0  0  0  0  0  0  0  0  0  0  0
   -3.4093   -3.6921   -0.4486 C   0  0  0  0  0  0  0  0  0  0  0  0
    3.5031   -2.4606   -1.1302 C   0  0  0  0  0  0  0  0  0  0  0  0
    2.7823   -2.1365    1.1575 C   0  0  0  0  0  0  0  0  0  0  0  0
   -0.6700   -4.2462   -0.4399 C   0  0  0  0  0  0  0  0  0  0  0  0
    1.6215   -3.6955   -0.2652 C   0  0  0  0  0  0  0  0  0  0  0  0
   -2.9638   -5.0083   -0.3351 C   0  0  0  0  0  0  0  0  0  0  0  0
    2.4960   -3.4075   -1.3129 C   0  0  0  0  0  0  0  0  0  0  0  0
    1.7784   -3.0871    0.9808 C   0  0  0  0  0  0  0  0  0  0  0  0
   -1.5984   -5.2851   -0.3311 C   0  0  0  0  0  0  0  0  0  0  0  0
   -0.9169    2.1593    2.5380 C   0  0  0  0  0  0  0  0  0  0  0  0
   -2.4440    6.0762   -1.0275 C   0  0  0  0  0  0  0  0  0  0  0  0
   -1.6443   -0.4529    0.8547 H   0  0  0  0  0  0  0  0  0  0  0  0
    4.3478    0.3417   -1.5664 H   0  0  0  0  0  0  0  0  0  0  0  0
   -5.5459   -0.0411    2.2851 H   0  0  0  0  0  0  0  0  0  0  0  0
   -5.3708   -0.5937    0.6333 H   0  0  0  0  0  0  0  0  0  0  0  0
   -5.0042    2.1591    1.8273 H   0  0  0  0  0  0  0  0  0  0  0  0
   -5.9241    1.6792    0.3927 H   0  0  0  0  0  0  0  0  0  0  0  0
   -2.5066   -0.8349   -1.6127 H   0  0  0  0  0  0  0  0  0  0  0  0
   -4.0472   -1.2050   -0.9309 H   0  0  0  0  0  0  0  0  0  0  0  0
    6.5631    2.7758    1.0156 H   0  0  0  0  0  0  0  0  0  0  0  0
    5.9845    1.2568    1.6642 H   0  0  0  0  0  0  0  0  0  0  0  0
    4.5240    3.8358    1.1221 H   0  0  0  0  0  0  0  0  0  0  0  0
    4.4576    2.7918    2.5503 H   0  0  0  0  0  0  0  0  0  0  0  0
    4.7985   -0.5380    1.3630 H   0  0  0  0  0  0  0  0  0  0  0  0
    5.6571   -1.1955   -0.0122 H   0  0  0  0  0  0  0  0  0  0  0  0
    1.9116    0.1259   -1.4386 H   0  0  0  0  0  0  0  0  0  0  0  0
   -2.4483   -1.9277    2.5534 H   0  0  0  0  0  0  0  0  0  0  0  0
   -4.0296   -2.4038    1.8844 H   0  0  0  0  0  0  0  0  0  0  0  0
   -3.9272   -1.4939    3.3901 H   0  0  0  0  0  0  0  0  0  0  0  0
   -4.7582    3.8588   -0.3923 H   0  0  0  0  0  0  0  0  0  0  0  0
    1.9661    3.5154    2.1793 H   0  0  0  0  0  0  0  0  0  0  0  0
    7.5533    1.8796   -1.0155 H   0  0  0  0  0  0  0  0  0  0  0  0
    6.6976    0.6596   -1.9436 H   0  0  0  0  0  0  0  0  0  0  0  0
    7.2816    0.2824   -0.3063 H   0  0  0  0  0  0  0  0  0  0  0  0
   -0.4188   -2.1028   -0.6794 H   0  0  0  0  0  0  0  0  0  0  0  0
   -4.4784   -3.4949   -0.4554 H   0  0  0  0  0  0  0  0  0  0  0  0
    4.1701   -2.2275   -1.9562 H   0  0  0  0  0  0  0  0  0  0  0  0
    2.8819   -1.6479    2.1236 H   0  0  0  0  0  0  0  0  0  0  0  0
   -3.6939   -5.8092   -0.2526 H   0  0  0  0  0  0  0  0  0  0  0  0
    2.3906   -3.9042   -2.2732 H   0  0  0  0  0  0  0  0  0  0  0  0
    1.1207   -3.3353    1.8089 H   0  0  0  0  0  0  0  0  0  0  0  0
    0.0527    2.7228   -2.2336 H   0  0  0  0  0  0  0  0  0  0  0  0
   -0.8115    1.0759    2.4305 H   0  0  0  0  0  0  0  0  0  0  0  0
   -1.9745    2.4149    2.6413 H   0  0  0  0  0  0  0  0  0  0  0  0
   -0.3973    2.4797    3.4465 H   0  0  0  0  0  0  0  0  0  0  0  0
   -3.0716    6.1763   -0.1364 H   0  0  0  0  0  0  0  0  0  0  0  0
   -2.5520    6.9791   -1.6348 H   0  0  0  0  0  0  0  0  0  0  0  0
   -1.3936    5.9727   -0.7374 H   0  0  0  0  0  0  0  0  0  0  0  0
   -1.9624   -7.1576   -0.1451 H   0  0  0  0  0  0  0  0  0  0  0  0
  1 21  1  0  0  0  0
  1 24  1  0  0  0  0
  2 31  1  0  0  0  0
  2 43  1  0  0  0  0
  3 32  1  0  0  0  0
  3 44  1  0  0  0  0
  4 29  1  0  0  0  0
  4 75  1  0  0  0  0
  5 37  1  0  0  0  0
  5 38  1  0  0  0  0
  6 42  1  0  0  0  0
  6 82  1  0  0  0  0
  7  9  1  0  0  0  0
  7 13  1  0  0  0  0
  7 23  1  0  0  0  0
  8 10  1  0  0  0  0
  8 17  1  0  0  0  0
  8 28  1  0  0  0  0
  9 11  1  0  0  0  0
  9 16  1  0  0  0  0
  9 45  1  0  0  0  0
 10 12  1  0  0  0  0
 10 20  1  0  0  0  0
 10 46  1  0  0  0  0
 11 14  1  0  0  0  0
 11 21  2  0  0  0  0
 12 18  1  0  0  0  0
 12 22  2  0  0  0  0
 13 15  1  0  0  0  0
 13 47  1  0  0  0  0
 13 48  1  0  0  0  0
 14 15  1  0  0  0  0
 14 25  2  0  0  0  0
 15 49  1  0  0  0  0
 15 50  1  0  0  0  0
 16 27  1  0  0  0  0
 16 51  1  0  0  0  0
 16 52  1  0  0  0  0
 17 19  1  0  0  0  0
 17 53  1  0  0  0  0
 17 54  1  0  0  0  0
 18 19  1  0  0  0  0
 18 26  2  0  0  0  0
 19 55  1  0  0  0  0
 19 56  1  0  0  0  0
 20 30  1  0  0  0  0
 20 57  1  0  0  0  0
 20 58  1  0  0  0  0
 21 29  1  0  0  0  0
 22 24  1  0  0  0  0
 22 59  1  0  0  0  0
 23 60  1  0  0  0  0
 23 61  1  0  0  0  0
 23 62  1  0  0  0  0
 24 31  2  0  0  0  0
 25 32  1  0  0  0  0
 25 63  1  0  0  0  0
 26 31  1  0  0  0  0
 26 64  1  0  0  0  0
 27 33  2  0  0  0  0
 27 34  1  0  0  0  0
 28 65  1  0  0  0  0
 28 66  1  0  0  0  0
 28 67  1  0  0  0  0
 29 32  2  0  0  0  0
 30 35  2  0  0  0  0
 30 36  1  0  0  0  0
 33 37  1  0  0  0  0
 33 68  1  0  0  0  0
 34 39  2  0  0  0  0
 34 69  1  0  0  0  0
 35 40  1  0  0  0  0
 35 70  1  0  0  0  0
 36 41  2  0  0  0  0
 36 71  1  0  0  0  0
 37 42  2  0  0  0  0
 38 40  2  0  0  0  0
 38 41  1  0  0  0  0
 39 42  1  0  0  0  0
 39 72  1  0  0  0  0
 40 73  1  0  0  0  0
 41 74  1  0  0  0  0
 43 76  1  0  0  0  0
 43 77  1  0  0  0  0
 43 78  1  0  0  0  0
 44 79  1  0  0  0  0
 44 80  1  0  0  0  0
 44 81  1  0  0  0  0
M  END
> <PUBCHEM_COMPOUND_CID>
177154

> <PUBCHEM_CONFORMER_RMSD>
1

> <PUBCHEM_CONFORMER_DIVERSEORDER>
1
3
2

> <PUBCHEM_MMFF94_PARTIAL_CHARGES>
56
1 -0.17
10 0.41
11 -0.14
12 -0.14
13 0.27
14 -0.14
15 0.14
16 0.14
17 0.27
18 -0.14
19 0.14
2 -0.36
20 0.14
21 0.08
22 -0.15
23 0.27
24 0.08
25 -0.15
26 -0.15
27 -0.14
28 0.27
29 0.08
3 -0.36
30 -0.14
31 0.08
32 0.08
33 -0.15
34 -0.15
35 -0.15
36 -0.15
37 0.08
38 0.08
39 -0.15
4 -0.53
40 -0.15
41 -0.15
42 0.08
43 0.28
44 0.28
5 -0.17
59 0.15
6 -0.53
63 0.15
64 0.15
68 0.15
69 0.15
7 -0.81
70 0.15
71 0.15
72 0.15
73 0.15
74 0.15
75 0.45
8 -0.81
82 0.45
9 0.41

> <PUBCHEM_EFFECTIVE_ROTOR_COUNT>
4

> <PUBCHEM_PHARMACOPHORE_FEATURES>
14
1 1 acceptor
1 2 acceptor
1 3 acceptor
1 4 donor
1 5 acceptor
1 6 donor
1 7 cation
1 8 cation
6 11 14 21 25 29 32 rings
6 12 18 22 24 26 31 rings
6 27 33 34 37 39 42 rings
6 30 35 36 38 40 41 rings
6 7 9 11 13 14 15 rings
6 8 10 12 17 18 19 rings

> <PUBCHEM_HEAVY_ATOM_COUNT>
44

> <PUBCHEM_ATOM_DEF_STEREO_COUNT>
2

> <PUBCHEM_ATOM_UDEF_STEREO_COUNT>
0

> <PUBCHEM_BOND_DEF_STEREO_COUNT>
0

> <PUBCHEM_BOND_UDEF_STEREO_COUNT>
0

> <PUBCHEM_ISOTOPIC_ATOM_COUNT>
0

> <PUBCHEM_COMPONENT_COUNT>
1

> <PUBCHEM_CACTVS_TAUTO_COUNT>
8

> <PUBCHEM_CONFORMER_ID>
0002B40200000001

> <PUBCHEM_MMFF94_ENERGY>
181.2311

> <PUBCHEM_FEATURE_SELFOVERLAP>
71.085

> <PUBCHEM_SHAPE_FINGERPRINT>
10290309 65 18266174118322476302
10462674 296 17978226058839927678
10675989 125 17330564653269682220
10864689 126 18049439546556181534
1100329 8 18264494056366616190
11014199 57 17762335821065399542
11170278 133 18198609120712167742
12128747 34 17979918529521711509
12677640 9 18043239142773394883
13560911 43 17117212698196221346
1361 2 18193000537584445259
140371 6 17042045663688861848
14068700 686 18270394005274686716
14143925 63 17467634797678149878
144659 178 17474954224877153188
14725015 67 18200870803035065715
15001296 14 18266183842450175098
15320467 1 18265054630765337870
15400415 2 18267027343994779292
15721738 15 17044868676814927236
15927050 60 18334295370665545863
15968369 26 17550687928747495564
15975801 100 18271815571294097272
20764821 26 18192739875364824414
21796203 349 17266353813750964025
23559900 14 17690849277536912268
3298306 158 17764030563968550957
42626532 9 7380682882152703984
463206 1 18337386033194385418
469060 322 18052257289107917185
50150288 127 16372387363804745970
50677037 204 17762617292243060560
5265222 85 18196921374336648020
5776283 40 18193815232909827822
653340 110 18192440675622683154

> <PUBCHEM_SHAPE_MULTIPOLES>
860.32
10.65
9.11
1.69
11.42
6.29
-0.57
-4.7
-1.18
-7.35
3.22
-0.68
-1.25
1.98

> <PUBCHEM_SHAPE_SELFOVERLAP>
1904.219

> <PUBCHEM_SHAPE_VOLUME>
459.9

> <PUBCHEM_COORDINATE_TYPE>
2
5
10

$$$$

