83170
  -OEChem-07051212493D

 37 36  0     1  0  0  0  0  0999 V2000
    1.8156   -0.2421    0.6168 O   0  0  0  0  0  0  0  0  0  0  0  0
   -1.1097    2.5800    0.8184 O   0  0  0  0  0  0  0  0  0  0  0  0
   -2.9864    2.4249   -0.4329 O   0  0  0  0  0  0  0  0  0  0  0  0
    0.9498    0.6626   -1.3084 O   0  0  0  0  0  0  0  0  0  0  0  0
   -0.4100    0.0458    0.4679 N   0  0  0  0  0  0  0  0  0  0  0  0
   -2.6023   -2.0374    0.1984 C   0  0  0  0  0  0  0  0  0  0  0  0
   -2.8148   -0.5145    0.3554 C   0  0  0  0  0  0  0  0  0  0  0  0
   -1.6803    0.4154   -0.1007 C   0  0  1  0  0  0  0  0  0  0  0  0
    3.1331   -0.1407    0.0650 C   0  0  0  0  0  0  0  0  0  0  0  0
   -2.3547   -2.3627   -1.2795 C   0  0  0  0  0  0  0  0  0  0  0  0
   -1.4537   -2.5903    1.0390 C   0  0  0  0  0  0  0  0  0  0  0  0
   -2.0115    1.8881    0.0819 C   0  0  0  0  0  0  0  0  0  0  0  0
    3.4206    1.3286   -0.2402 C   0  0  0  0  0  0  0  0  0  0  0  0
    4.1116   -0.6741    1.1092 C   0  0  0  0  0  0  0  0  0  0  0  0
    3.1935   -0.9836   -1.2080 C   0  0  0  0  0  0  0  0  0  0  0  0
    0.7991    0.1998   -0.1825 C   0  0  0  0  0  0  0  0  0  0  0  0
   -3.0229   -0.3117    1.4153 H   0  0  0  0  0  0  0  0  0  0  0  0
   -3.7337   -0.2342   -0.1775 H   0  0  0  0  0  0  0  0  0  0  0  0
   -3.5286   -2.5325    0.5161 H   0  0  0  0  0  0  0  0  0  0  0  0
   -1.5678    0.3092   -1.1878 H   0  0  0  0  0  0  0  0  0  0  0  0
   -2.3363   -3.4479   -1.4293 H   0  0  0  0  0  0  0  0  0  0  0  0
   -3.1532   -1.9562   -1.9092 H   0  0  0  0  0  0  0  0  0  0  0  0
   -1.3989   -1.9673   -1.6380 H   0  0  0  0  0  0  0  0  0  0  0  0
   -0.4696   -2.4202    0.5951 H   0  0  0  0  0  0  0  0  0  0  0  0
   -1.4715   -2.1865    2.0562 H   0  0  0  0  0  0  0  0  0  0  0  0
   -1.5588   -3.6786    1.1247 H   0  0  0  0  0  0  0  0  0  0  0  0
   -0.3814   -0.2412    1.4414 H   0  0  0  0  0  0  0  0  0  0  0  0
    3.1011    1.9716    0.5882 H   0  0  0  0  0  0  0  0  0  0  0  0
    4.4959    1.4844   -0.3898 H   0  0  0  0  0  0  0  0  0  0  0  0
    2.9413    1.7076   -1.1463 H   0  0  0  0  0  0  0  0  0  0  0  0
    3.8767   -1.7135    1.3662 H   0  0  0  0  0  0  0  0  0  0  0  0
    4.0363   -0.1007    2.0404 H   0  0  0  0  0  0  0  0  0  0  0  0
    5.1476   -0.6299    0.7581 H   0  0  0  0  0  0  0  0  0  0  0  0
    2.7068   -0.5324   -2.0761 H   0  0  0  0  0  0  0  0  0  0  0  0
    4.2352   -1.1510   -1.5068 H   0  0  0  0  0  0  0  0  0  0  0  0
    2.7278   -1.9635   -1.0511 H   0  0  0  0  0  0  0  0  0  0  0  0
   -1.3463    3.5292    0.8911 H   0  0  0  0  0  0  0  0  0  0  0  0
  1  9  1  0  0  0  0
  1 16  1  0  0  0  0
  2 12  1  0  0  0  0
  2 37  1  0  0  0  0
  3 12  2  0  0  0  0
  4 16  2  0  0  0  0
  5  8  1  0  0  0  0
  5 16  1  0  0  0  0
  5 27  1  0  0  0  0
  6  7  1  0  0  0  0
  6 10  1  0  0  0  0
  6 11  1  0  0  0  0
  6 19  1  0  0  0  0
  7  8  1  0  0  0  0
  7 17  1  0  0  0  0
  7 18  1  0  0  0  0
  8 12  1  0  0  0  0
  8 20  1  0  0  0  0
  9 13  1  0  0  0  0
  9 14  1  0  0  0  0
  9 15  1  0  0  0  0
 10 21  1  0  0  0  0
 10 22  1  0  0  0  0
 10 23  1  0  0  0  0
 11 24  1  0  0  0  0
 11 25  1  0  0  0  0
 11 26  1  0  0  0  0
 13 28  1  0  0  0  0
 13 29  1  0  0  0  0
 13 30  1  0  0  0  0
 14 31  1  0  0  0  0
 14 32  1  0  0  0  0
 14 33  1  0  0  0  0
 15 34  1  0  0  0  0
 15 35  1  0  0  0  0
 15 36  1  0  0  0  0
M  END
> <PUBCHEM_COMPOUND_CID>
83170

> <PUBCHEM_CONFORMER_RMSD>
0.8

> <PUBCHEM_CONFORMER_DIVERSEORDER>
2
30
55
58
18
5
49
56
59
20
34
54
25
53
41
19
6
32
21
7
31
40
23
57
43
22
8
1
14
48
24
37
27
39
4
50
26
28
42
52
13
35
10
3
12
46
44
51
16
15
33
36
47
38
29
17
11
45
9

> <PUBCHEM_MMFF94_PARTIAL_CHARGES>
11
1 -0.43
12 0.66
16 0.78
2 -0.65
27 0.37
3 -0.57
37 0.5
4 -0.57
5 -0.73
8 0.36
9 0.28

> <PUBCHEM_EFFECTIVE_ROTOR_COUNT>
7

> <PUBCHEM_PHARMACOPHORE_FEATURES>
7
1 2 acceptor
1 3 acceptor
1 4 acceptor
1 5 donor
3 2 3 12 anion
3 6 10 11 hydrophobe
4 9 13 14 15 hydrophobe

> <PUBCHEM_HEAVY_ATOM_COUNT>
16

> <PUBCHEM_ATOM_DEF_STEREO_COUNT>
1

> <PUBCHEM_ATOM_UDEF_STEREO_COUNT>
0

> <PUBCHEM_BOND_DEF_STEREO_COUNT>
0

> <PUBCHEM_BOND_UDEF_STEREO_COUNT>
0

> <PUBCHEM_ISOTOPIC_ATOM_COUNT>
0

> <PUBCHEM_COMPONENT_COUNT>
1

> <PUBCHEM_CACTVS_TAUTO_COUNT>
2

> <PUBCHEM_CONFORMER_ID>
000144E200000002

> <PUBCHEM_MMFF94_ENERGY>
36.7988

> <PUBCHEM_FEATURE_SELFOVERLAP>
35.581

> <PUBCHEM_SHAPE_FINGERPRINT>
12346177 29 18411145770032169486
12500047 106 18337954622603182060
12553582 1 18120086187137726087
12932764 1 17703788167316790860
13931106 250 18042141915450859919
14289901 80 18410015399470345880
14965852 173 18341896307490863032
15375462 6 18261951839232328820
15669948 3 18411698785546672494
16752209 62 18342187686736115307
19049666 15 17896874555216293870
20279233 1 17676493877715282230
20442098 301 18408039594060338358
20510252 161 18409161117258057697
20524608 308 18336262448359155119
20645477 56 18337952393204360777
20671657 53 17559966423837845246
20871998 184 18334286557439886767
21501502 16 18343019969809668524
21524375 3 18124597741397781073
23402539 116 18262813951027806941
23419403 2 17691732954004630589
23557571 272 18334285449359579268
23559900 14 18189053252301853886
257057 1 18047479924323767815
305870 269 17618779597419146673
6049 1 17895183407754118420
69090 78 18340208604350158157
6992083 37 17988637562044918012
74978 22 18340482378476854908
7615 1 17917989456415171748
81228 2 18410566263190695329
9709674 26 18334010622802429902

> <PUBCHEM_SHAPE_MULTIPOLES>
300.81
6.68
2.82
1.13
5.41
0.53
-0.16
-1.19
0.14
-3.22
0.13
0.29
-0.45
-0.18

> <PUBCHEM_SHAPE_SELFOVERLAP>
580.358

> <PUBCHEM_SHAPE_VOLUME>
183.2

> <PUBCHEM_COORDINATE_TYPE>
2
5
10

$$$$

