13592
  -OEChem-06241222393D

 16 16  0     1  0  0  0  0  0999 V2000
   -1.9705   -0.0172   -1.0363 Cl  0  0  0  0  0  0  0  0  0  0  0  0
   -1.1047    0.1006    0.5313 C   0  0  1  0  0  0  0  0  0  0  0  0
   -0.2937   -1.1722    0.7876 C   0  0  0  0  0  0  0  0  0  0  0  0
   -0.2044    1.3435    0.5480 C   0  0  0  0  0  0  0  0  0  0  0  0
    0.8741   -1.3423   -0.1914 C   0  0  0  0  0  0  0  0  0  0  0  0
    1.1111    1.1461   -0.1483 C   0  0  0  0  0  0  0  0  0  0  0  0
    1.5882   -0.0584   -0.4910 C   0  0  0  0  0  0  0  0  0  0  0  0
   -1.8837    0.2045    1.2937 H   0  0  0  0  0  0  0  0  0  0  0  0
   -0.9378   -2.0591    0.7507 H   0  0  0  0  0  0  0  0  0  0  0  0
    0.1085   -1.1274    1.8088 H   0  0  0  0  0  0  0  0  0  0  0  0
    0.0119    1.6145    1.5891 H   0  0  0  0  0  0  0  0  0  0  0  0
   -0.7273    2.1999    0.1059 H   0  0  0  0  0  0  0  0  0  0  0  0
    0.5146   -1.7691   -1.1351 H   0  0  0  0  0  0  0  0  0  0  0  0
    1.5858   -2.0622    0.2290 H   0  0  0  0  0  0  0  0  0  0  0  0
    1.6947    2.0327   -0.3788 H   0  0  0  0  0  0  0  0  0  0  0  0
    2.5407   -0.1231   -1.0088 H   0  0  0  0  0  0  0  0  0  0  0  0
  1  2  1  0  0  0  0
  2  3  1  0  0  0  0
  2  4  1  0  0  0  0
  2  8  1  0  0  0  0
  3  5  1  0  0  0  0
  3  9  1  0  0  0  0
  3 10  1  0  0  0  0
  4  6  1  0  0  0  0
  4 11  1  0  0  0  0
  4 12  1  0  0  0  0
  5  7  1  0  0  0  0
  5 13  1  0  0  0  0
  5 14  1  0  0  0  0
  6  7  2  0  0  0  0
  6 15  1  0  0  0  0
  7 16  1  0  0  0  0
M  END
> <PUBCHEM_COMPOUND_CID>
13592

> <PUBCHEM_CONFORMER_RMSD>
0.4

> <PUBCHEM_CONFORMER_DIVERSEORDER>
1
2

> <PUBCHEM_MMFF94_PARTIAL_CHARGES>
8
1 -0.29
15 0.15
16 0.15
2 0.29
4 0.14
5 0.14
6 -0.29
7 -0.29

> <PUBCHEM_EFFECTIVE_ROTOR_COUNT>
0.8

> <PUBCHEM_PHARMACOPHORE_FEATURES>
1
6 2 3 4 5 6 7 rings

> <PUBCHEM_HEAVY_ATOM_COUNT>
7

> <PUBCHEM_ATOM_DEF_STEREO_COUNT>
0

> <PUBCHEM_ATOM_UDEF_STEREO_COUNT>
1

> <PUBCHEM_BOND_DEF_STEREO_COUNT>
0

> <PUBCHEM_BOND_UDEF_STEREO_COUNT>
0

> <PUBCHEM_ISOTOPIC_ATOM_COUNT>
0

> <PUBCHEM_COMPONENT_COUNT>
1

> <PUBCHEM_CACTVS_TAUTO_COUNT>
1

> <PUBCHEM_CONFORMER_ID>
0000351800000001

> <PUBCHEM_MMFF94_ENERGY>
0.6418

> <PUBCHEM_FEATURE_SELFOVERLAP>
5.074

> <PUBCHEM_SHAPE_FINGERPRINT>
137420 1 9345424360341470071
18185500 45 17977950412096654479
21040471 1 18269553836450766776
24536 1 18340753897429080216
29004967 10 18260266326276726195
5943 1 14391428337997035587

> <PUBCHEM_SHAPE_MULTIPOLES>
145.93
2.05
1.51
1
0.5
0.01
-0.05
-0.04
-0.73
-0.33
0.21
0.31
0.05
0.01

> <PUBCHEM_SHAPE_SELFOVERLAP>
273.92

> <PUBCHEM_SHAPE_VOLUME>
88.8

> <PUBCHEM_COORDINATE_TYPE>
2
5
10

$$$$

