854035
  -OEChem-06241222473D

 38 41  0     1  0  0  0  0  0999 V2000
    0.4073   -1.6077   -0.7283 O   0  0  0  0  0  0  0  0  0  0  0  0
   -0.9751    2.6053    0.1823 O   0  0  0  0  0  0  0  0  0  0  0  0
   -0.0461    0.4475    0.0801 N   0  0  0  0  0  0  0  0  0  0  0  0
    0.9151   -0.2678   -0.7112 C   0  0  2  0  0  0  0  0  0  0  0  0
   -0.8394   -0.4236    0.9204 C   0  0  2  0  0  0  0  0  0  0  0  0
    0.8039    0.4807   -2.0368 C   0  0  0  0  0  0  0  0  0  0  0  0
    0.5666    1.9338   -1.5821 C   0  0  0  0  0  0  0  0  0  0  0  0
   -0.2493   -1.7930    0.5565 C   0  0  0  0  0  0  0  0  0  0  0  0
   -0.2564    1.7574   -0.3205 C   0  0  0  0  0  0  0  0  0  0  0  0
    2.2958   -0.2269   -0.1438 C   0  0  0  0  0  0  0  0  0  0  0  0
   -2.2870   -0.3768    0.5586 C   0  0  0  0  0  0  0  0  0  0  0  0
    3.3616   -0.7586   -0.8681 C   0  0  0  0  0  0  0  0  0  0  0  0
    2.5165    0.3427    1.1093 C   0  0  0  0  0  0  0  0  0  0  0  0
   -3.1634    0.4187    1.2954 C   0  0  0  0  0  0  0  0  0  0  0  0
   -2.7609   -1.1289   -0.5155 C   0  0  0  0  0  0  0  0  0  0  0  0
    4.6513   -0.7205   -0.3381 C   0  0  0  0  0  0  0  0  0  0  0  0
    3.8062    0.3807    1.6393 C   0  0  0  0  0  0  0  0  0  0  0  0
   -4.5159    0.4625    0.9574 C   0  0  0  0  0  0  0  0  0  0  0  0
   -4.1134   -1.0851   -0.8535 C   0  0  0  0  0  0  0  0  0  0  0  0
    4.8736   -0.1509    0.9156 C   0  0  0  0  0  0  0  0  0  0  0  0
   -4.9910   -0.2894   -0.1171 C   0  0  0  0  0  0  0  0  0  0  0  0
   -0.6833   -0.1865    1.9780 H   0  0  0  0  0  0  0  0  0  0  0  0
   -0.0686    0.1246   -2.6010 H   0  0  0  0  0  0  0  0  0  0  0  0
    1.6692    0.3967   -2.7003 H   0  0  0  0  0  0  0  0  0  0  0  0
    0.0110    2.5005   -2.3331 H   0  0  0  0  0  0  0  0  0  0  0  0
    1.5015    2.4460   -1.3357 H   0  0  0  0  0  0  0  0  0  0  0  0
    0.5373   -2.0603    1.2741 H   0  0  0  0  0  0  0  0  0  0  0  0
   -0.9359   -2.6444    0.5239 H   0  0  0  0  0  0  0  0  0  0  0  0
    3.2047   -1.2172   -1.8406 H   0  0  0  0  0  0  0  0  0  0  0  0
    1.7220    0.7670    1.7146 H   0  0  0  0  0  0  0  0  0  0  0  0
   -2.8057    1.0101    2.1340 H   0  0  0  0  0  0  0  0  0  0  0  0
   -2.1175   -1.7365   -1.1430 H   0  0  0  0  0  0  0  0  0  0  0  0
    5.4820   -1.1371   -0.9001 H   0  0  0  0  0  0  0  0  0  0  0  0
    3.9800    0.8231    2.6159 H   0  0  0  0  0  0  0  0  0  0  0  0
   -5.1991    1.0828    1.5303 H   0  0  0  0  0  0  0  0  0  0  0  0
   -4.4826   -1.6639   -1.6951 H   0  0  0  0  0  0  0  0  0  0  0  0
    5.8777   -0.1222    1.3286 H   0  0  0  0  0  0  0  0  0  0  0  0
   -6.0438   -0.2537   -0.3816 H   0  0  0  0  0  0  0  0  0  0  0  0
  1  4  1  0  0  0  0
  1  8  1  0  0  0  0
  2  9  2  0  0  0  0
  3  4  1  0  0  0  0
  3  5  1  0  0  0  0
  3  9  1  0  0  0  0
  4  6  1  0  0  0  0
  4 10  1  0  0  0  0
  5  8  1  0  0  0  0
  5 11  1  0  0  0  0
  5 22  1  0  0  0  0
  6  7  1  0  0  0  0
  6 23  1  0  0  0  0
  6 24  1  0  0  0  0
  7  9  1  0  0  0  0
  7 25  1  0  0  0  0
  7 26  1  0  0  0  0
  8 27  1  0  0  0  0
  8 28  1  0  0  0  0
 10 12  2  0  0  0  0
 10 13  1  0  0  0  0
 11 14  2  0  0  0  0
 11 15  1  0  0  0  0
 12 16  1  0  0  0  0
 12 29  1  0  0  0  0
 13 17  2  0  0  0  0
 13 30  1  0  0  0  0
 14 18  1  0  0  0  0
 14 31  1  0  0  0  0
 15 19  2  0  0  0  0
 15 32  1  0  0  0  0
 16 20  2  0  0  0  0
 16 33  1  0  0  0  0
 17 20  1  0  0  0  0
 17 34  1  0  0  0  0
 18 21  2  0  0  0  0
 18 35  1  0  0  0  0
 19 21  1  0  0  0  0
 19 36  1  0  0  0  0
 20 37  1  0  0  0  0
 21 38  1  0  0  0  0
M  END
> <PUBCHEM_COMPOUND_CID>
854035

> <PUBCHEM_CONFORMER_RMSD>
0.6

> <PUBCHEM_CONFORMER_DIVERSEORDER>
1
2

> <PUBCHEM_MMFF94_PARTIAL_CHARGES>
30
1 -0.56
10 -0.14
11 -0.14
12 -0.15
13 -0.15
14 -0.15
15 -0.15
16 -0.15
17 -0.15
18 -0.15
19 -0.15
2 -0.57
20 -0.15
21 -0.15
29 0.15
3 -0.66
30 0.15
31 0.15
32 0.15
33 0.15
34 0.15
35 0.15
36 0.15
37 0.15
38 0.15
4 0.72
5 0.44
7 0.06
8 0.28
9 0.57

> <PUBCHEM_EFFECTIVE_ROTOR_COUNT>
3

> <PUBCHEM_PHARMACOPHORE_FEATURES>
6
1 1 acceptor
1 2 acceptor
5 1 3 4 5 8 rings
5 3 4 6 7 9 rings
6 10 12 13 16 17 20 rings
6 11 14 15 18 19 21 rings

> <PUBCHEM_HEAVY_ATOM_COUNT>
21

> <PUBCHEM_ATOM_DEF_STEREO_COUNT>
2

> <PUBCHEM_ATOM_UDEF_STEREO_COUNT>
0

> <PUBCHEM_BOND_DEF_STEREO_COUNT>
0

> <PUBCHEM_BOND_UDEF_STEREO_COUNT>
0

> <PUBCHEM_ISOTOPIC_ATOM_COUNT>
0

> <PUBCHEM_COMPONENT_COUNT>
1

> <PUBCHEM_CACTVS_TAUTO_COUNT>
2

> <PUBCHEM_CONFORMER_ID>
000D081300000001

> <PUBCHEM_MMFF94_ENERGY>
74.7624

> <PUBCHEM_FEATURE_SELFOVERLAP>
30.733

> <PUBCHEM_SHAPE_FINGERPRINT>
10366900 7 18408600362507847194
104564 63 17845377802821684365
10863032 1 16732982028744737547
11045977 3 17313105241474521970
11132069 177 18333450953939875680
11370993 70 16732982037524784687
11578080 2 17898842710873627953
11646440 116 18335411379779527945
11796584 16 16056880243045767867
12011746 2 18259981566035129948
12119455 92 16515688853114673852
12236239 1 17131830984628545346
12403259 118 15719396178317950898
12403814 3 14562532903150774137
124424 183 17060621083938192059
12592029 89 14548745031591349624
12633257 1 18336281058921876434
12788726 201 17131838715522478428
13134695 92 17632579305781715925
13140716 1 18128809751025717947
13583140 156 15791740663196821210
13965767 371 17393568770054295817
14081887 123 18189335843379653353
14181834 199 17986951838947115700
14787075 74 18187370882956584672
15238133 3 17845922044361872269
15342168 16 17315372340705767976
15375358 24 15792003498595456183
15788980 27 18343019986904998795
15848700 24 18342742905352641646
15848702 151 17676485072715872854
1601671 61 17846222201892094765
16752209 62 17846506966813669492
16945 1 17917713487090714058
17349148 13 18341605997692766459
17357779 13 18342190967816966165
17980427 23 17604147030652533913
1813 80 18131348622395773524
18222031 100 18343865506777458742
192875 21 18341046337858464485
19784866 240 15625672729693931802
200 152 15482676797152281034
204376 136 4967609485842892045
20600515 1 18342165644716110300
20645477 70 14620800431380959170
21033648 29 18260841413966248617
21330990 113 18261113001843704302
22182313 1 18126281085025361687
23175994 123 17275385417299881167
23184049 59 18343021055945595674
23227448 37 14708640286131943600
23402539 116 18411422825577125239
23419403 2 17183114212360167766
23557571 272 17895185641142536721
23559900 14 16009857506380341142
296302 2 15502369033099415779
3009799 131 18059306404451599901
3286 77 17530962510151998634
34797466 226 15936684861480722881
350125 39 18125442157991316106
351380 180 17385445414343215690
3759504 43 4895262741885375388
4072396 5 17988370350696704435
4340502 62 15285354016362175391
465052 167 17131822158196783747
7495541 125 16701726160800450483
81539 233 14056991737291782540
9981440 41 17255691789757787793

> <PUBCHEM_SHAPE_MULTIPOLES>
415.45
9.09
1.69
1.51
0.88
0.85
0.09
-2.2
-2
0.32
0.34
-0.46
0.23
-0.35

> <PUBCHEM_SHAPE_SELFOVERLAP>
925.575

> <PUBCHEM_SHAPE_VOLUME>
223.3

> <PUBCHEM_COORDINATE_TYPE>
2
5
10

$$$$

