11954155
  -OEChem-07051213073D

 52 55  0     1  0  0  0  0  0999 V2000
   -4.6780   -1.8150   -0.4784 O   0  0  0  0  0  0  0  0  0  0  0  0
    5.7639    0.1856   -1.1052 O   0  0  0  0  0  0  0  0  0  0  0  0
   -0.4227    0.7455    0.3895 C   0  0  1  0  0  0  0  0  0  0  0  0
   -1.8477    0.7143   -0.2462 C   0  0  1  0  0  0  0  0  0  0  0  0
    0.4272   -0.4614   -0.1164 C   0  0  1  0  0  0  0  0  0  0  0  0
   -2.5963   -0.6260    0.0437 C   0  0  2  0  0  0  0  0  0  0  0  0
    1.9086   -0.4722    0.4337 C   0  0  2  0  0  0  0  0  0  0  0  0
   -0.3107   -1.7963    0.1144 C   0  0  0  0  0  0  0  0  0  0  0  0
   -1.7231   -1.7960   -0.4679 C   0  0  0  0  0  0  0  0  0  0  0  0
    0.3160    2.0600    0.0756 C   0  0  0  0  0  0  0  0  0  0  0  0
   -3.9427   -0.6213   -0.7402 C   0  0  2  0  0  0  0  0  0  0  0  0
   -2.7254    1.9277    0.1250 C   0  0  0  0  0  0  0  0  0  0  0  0
    2.5417    0.9065    0.2317 C   0  0  0  0  0  0  0  0  0  0  0  0
    1.7175    2.0885    0.6693 C   0  0  0  0  0  0  0  0  0  0  0  0
   -4.8203    0.5859   -0.4046 C   0  0  0  0  0  0  0  0  0  0  0  0
   -4.0751    1.8983   -0.5924 C   0  0  0  0  0  0  0  0  0  0  0  0
    2.7167   -1.5468   -0.3534 C   0  0  0  0  0  0  0  0  0  0  0  0
   -2.8707   -0.8391    1.5563 C   0  0  0  0  0  0  0  0  0  0  0  0
    1.9634   -0.8111    1.9411 C   0  0  0  0  0  0  0  0  0  0  0  0
    4.2237   -1.4099   -0.2031 C   0  0  0  0  0  0  0  0  0  0  0  0
    3.7694    1.1084   -0.2751 C   0  0  0  0  0  0  0  0  0  0  0  0
    4.6647   -0.0259   -0.5972 C   0  0  0  0  0  0  0  0  0  0  0  0
   -0.5273    0.6838    1.4788 H   0  0  0  0  0  0  0  0  0  0  0  0
   -1.6984    0.7721   -1.3362 H   0  0  0  0  0  0  0  0  0  0  0  0
    0.5013   -0.3380   -1.2091 H   0  0  0  0  0  0  0  0  0  0  0  0
   -0.3592   -2.0312    1.1822 H   0  0  0  0  0  0  0  0  0  0  0  0
    0.2377   -2.6191   -0.3567 H   0  0  0  0  0  0  0  0  0  0  0  0
   -1.6470   -1.7481   -1.5624 H   0  0  0  0  0  0  0  0  0  0  0  0
   -2.1897   -2.7605   -0.2334 H   0  0  0  0  0  0  0  0  0  0  0  0
   -0.2277    2.9146    0.4910 H   0  0  0  0  0  0  0  0  0  0  0  0
    0.3696    2.2091   -1.0106 H   0  0  0  0  0  0  0  0  0  0  0  0
   -3.7402   -0.6001   -1.8194 H   0  0  0  0  0  0  0  0  0  0  0  0
   -2.2344    2.8625   -0.1632 H   0  0  0  0  0  0  0  0  0  0  0  0
   -2.8765    1.9756    1.2091 H   0  0  0  0  0  0  0  0  0  0  0  0
    1.6517    2.0929    1.7643 H   0  0  0  0  0  0  0  0  0  0  0  0
    2.1970    3.0347    0.3894 H   0  0  0  0  0  0  0  0  0  0  0  0
   -5.2021    0.5099    0.6204 H   0  0  0  0  0  0  0  0  0  0  0  0
   -5.7145    0.5736   -1.0402 H   0  0  0  0  0  0  0  0  0  0  0  0
   -4.6969    2.7290   -0.2394 H   0  0  0  0  0  0  0  0  0  0  0  0
   -3.9109    2.0642   -1.6647 H   0  0  0  0  0  0  0  0  0  0  0  0
    2.4750   -1.4746   -1.4231 H   0  0  0  0  0  0  0  0  0  0  0  0
    2.4303   -2.5571   -0.0382 H   0  0  0  0  0  0  0  0  0  0  0  0
   -3.3542   -1.8063    1.7357 H   0  0  0  0  0  0  0  0  0  0  0  0
   -1.9570   -0.8297    2.1563 H   0  0  0  0  0  0  0  0  0  0  0  0
   -3.5252   -0.0696    1.9745 H   0  0  0  0  0  0  0  0  0  0  0  0
    1.6871   -1.8538    2.1307 H   0  0  0  0  0  0  0  0  0  0  0  0
    2.9712   -0.6704    2.3491 H   0  0  0  0  0  0  0  0  0  0  0  0
    1.2906   -0.1812    2.5316 H   0  0  0  0  0  0  0  0  0  0  0  0
    4.7174   -2.1331   -0.8617 H   0  0  0  0  0  0  0  0  0  0  0  0
    4.5504   -1.6051    0.8230 H   0  0  0  0  0  0  0  0  0  0  0  0
    4.1764    2.1045   -0.4134 H   0  0  0  0  0  0  0  0  0  0  0  0
   -4.2308   -2.5470   -0.9347 H   0  0  0  0  0  0  0  0  0  0  0  0
  1 11  1  0  0  0  0
  1 52  1  0  0  0  0
  2 22  2  0  0  0  0
  3  4  1  0  0  0  0
  3  5  1  0  0  0  0
  3 10  1  0  0  0  0
  3 23  1  0  0  0  0
  4  6  1  0  0  0  0
  4 12  1  0  0  0  0
  4 24  1  0  0  0  0
  5  7  1  0  0  0  0
  5  8  1  0  0  0  0
  5 25  1  0  0  0  0
  6  9  1  0  0  0  0
  6 11  1  0  0  0  0
  6 18  1  0  0  0  0
  7 13  1  0  0  0  0
  7 17  1  0  0  0  0
  7 19  1  0  0  0  0
  8  9  1  0  0  0  0
  8 26  1  0  0  0  0
  8 27  1  0  0  0  0
  9 28  1  0  0  0  0
  9 29  1  0  0  0  0
 10 14  1  0  0  0  0
 10 30  1  0  0  0  0
 10 31  1  0  0  0  0
 11 15  1  0  0  0  0
 11 32  1  0  0  0  0
 12 16  1  0  0  0  0
 12 33  1  0  0  0  0
 12 34  1  0  0  0  0
 13 14  1  0  0  0  0
 13 21  2  0  0  0  0
 14 35  1  0  0  0  0
 14 36  1  0  0  0  0
 15 16  1  0  0  0  0
 15 37  1  0  0  0  0
 15 38  1  0  0  0  0
 16 39  1  0  0  0  0
 16 40  1  0  0  0  0
 17 20  1  0  0  0  0
 17 41  1  0  0  0  0
 17 42  1  0  0  0  0
 18 43  1  0  0  0  0
 18 44  1  0  0  0  0
 18 45  1  0  0  0  0
 19 46  1  0  0  0  0
 19 47  1  0  0  0  0
 19 48  1  0  0  0  0
 20 22  1  0  0  0  0
 20 49  1  0  0  0  0
 20 50  1  0  0  0  0
 21 22  1  0  0  0  0
 21 51  1  0  0  0  0
M  END
> <PUBCHEM_COMPOUND_CID>
11954155

> <PUBCHEM_CONFORMER_RMSD>
0.6

> <PUBCHEM_CONFORMER_DIVERSEORDER>
1

> <PUBCHEM_MMFF94_PARTIAL_CHARGES>
11
1 -0.68
11 0.28
13 -0.28
14 0.14
2 -0.57
20 0.06
21 -0.14
22 0.49
51 0.15
52 0.4
7 0.14

> <PUBCHEM_EFFECTIVE_ROTOR_COUNT>
2

> <PUBCHEM_PHARMACOPHORE_FEATURES>
7
1 1 acceptor
1 1 donor
1 2 acceptor
6 3 4 5 6 8 9 rings
6 3 5 7 10 13 14 rings
6 4 6 11 12 15 16 rings
6 7 13 17 20 21 22 rings

> <PUBCHEM_HEAVY_ATOM_COUNT>
22

> <PUBCHEM_ATOM_DEF_STEREO_COUNT>
6

> <PUBCHEM_ATOM_UDEF_STEREO_COUNT>
0

> <PUBCHEM_BOND_DEF_STEREO_COUNT>
0

> <PUBCHEM_BOND_UDEF_STEREO_COUNT>
0

> <PUBCHEM_ISOTOPIC_ATOM_COUNT>
0

> <PUBCHEM_COMPONENT_COUNT>
1

> <PUBCHEM_CACTVS_TAUTO_COUNT>
5

> <PUBCHEM_CONFORMER_ID>
00B667EB00000001

> <PUBCHEM_MMFF94_ENERGY>
61.639

> <PUBCHEM_FEATURE_SELFOVERLAP>
35.569

> <PUBCHEM_SHAPE_FINGERPRINT>
10366900 7 17988647354812803211
10498660 4 18341337776710928605
10759866 29 17988365991378531120
12011746 2 18411140242546357765
12236239 1 18060421330996614710
12403259 226 18262526879693014921
12403259 415 18187090542062119769
12788726 201 18192715759087262320
13140716 1 18337966699861594041
13224815 77 18131070437258464289
13944108 23 16613658934365587461
14790565 3 17903628932197521505
15099037 51 18335985345495582615
15196674 1 18409731763550163068
15238133 3 18058745717803700808
15536298 74 18261118434877178424
15788980 27 18412542119866347646
1601671 61 18410013273071429772
16752209 62 18409457998234856211
16945 1 18266180526186763624
17349148 13 16805602551508988565
17804303 29 18334859402823917069
1813 80 4751162921687541496
18186145 218 18202014243455793637
18681886 176 18335423444389868152
19591789 44 18410014342465590935
19862831 5 18411138047570142864
200 152 17821730533175615169
20645477 70 18337961082039043708
20871999 31 18411699898001257038
21267235 1 18336539447779678215
21279426 13 18265895941669509748
21637258 2 15574988533798639652
221357 26 18335707126505086949
221490 88 18338233752253526929
22393880 68 18411708689947212925
23175994 123 16877941641866783408
23402539 116 18335986441165897886
23402655 69 18411416237318774372
23493267 7 18131631183719674275
23559900 14 18187655673537479344
2748010 2 18411146826525688785
2838139 119 16199574781269580044
2871803 45 18342463603502866409
296302 2 14764349327427915202
3004659 81 18270678788109145766
335352 9 18336549429747794165
34934 24 18410017620021178624
350125 39 18409727379174862121
4214541 1 18409449206473958373
4280585 95 17469031620270889694
4340502 62 16486964145972106408
474 4 17274533235927987684
4921388 177 16702008756452389451
4990 188 18260545641106400812
5104073 3 18409451392374708616
633830 44 17846499188918014428
7364860 26 18116156571603850144
9709674 26 18339365141481956235

> <PUBCHEM_SHAPE_MULTIPOLES>
441.01
10.05
2.25
1.08
2.05
0.38
0.42
-0.23
-3.16
-0.8
-0.01
0.21
-0.21
0.1

> <PUBCHEM_SHAPE_SELFOVERLAP>
938.366

> <PUBCHEM_SHAPE_VOLUME>
241

> <PUBCHEM_COORDINATE_TYPE>
2
5
10

$$$$

