439899
  -OEChem-07051212482D

 65 68  0     1  0  0  0  0  0999 V2000
    2.0000   -3.3515    0.0000 O   0  0  0  0  0  0  0  0  0  0  0  0
   11.2283    3.2695    0.0000 O   0  0  0  0  0  0  0  0  0  0  0  0
   11.5855    1.5747    0.0000 O   0  0  0  0  0  0  0  0  0  0  0  0
    7.3931   -0.2992    0.0000 C   0  0  1  0  0  0  0  0  0  0  0  0
    7.3931   -1.2992    0.0000 C   0  0  2  0  0  0  0  0  0  0  0  0
    6.5271   -1.7992    0.0000 C   0  0  1  0  0  0  0  0  0  0  0  0
    5.6610   -1.2992    0.0000 C   0  0  1  0  0  0  0  0  0  0  0  0
    4.7510   -1.8060    0.0000 C   0  0  2  0  0  0  0  0  0  0  0  0
    8.3393    0.0055    0.0000 C   0  0  2  0  0  0  0  0  0  0  0  0
    6.5271    0.2008    0.0000 C   0  0  0  0  0  0  0  0  0  0  0  0
    5.6610   -0.2992    0.0000 C   0  0  0  0  0  0  0  0  0  0  0  0
    8.3393   -1.6039    0.0000 C   0  0  0  0  0  0  0  0  0  0  0  0
    4.7430   -2.8476    0.0000 C   0  0  2  0  0  0  0  0  0  0  0  0
    6.5431   -2.8407    0.0000 C   0  0  0  0  0  0  0  0  0  0  0  0
    8.9229   -0.7992    0.0000 C   0  0  0  0  0  0  0  0  0  0  0  0
    5.6451   -3.3685    0.0000 C   0  0  0  0  0  0  0  0  0  0  0  0
    3.8242   -1.2420    0.0000 C   0  0  0  0  0  0  0  0  0  0  0  0
    7.3931    0.7008    0.0000 C   0  0  0  0  0  0  0  0  0  0  0  0
    8.6500    0.9560    0.0000 C   0  0  2  0  0  0  0  0  0  0  0  0
    4.7587   -0.8061    0.0000 C   0  0  0  0  0  0  0  0  0  0  0  0
    3.8076   -3.3974    0.0000 C   0  0  0  0  0  0  0  0  0  0  0  0
    2.8763   -1.7699    0.0000 C   0  0  0  0  0  0  0  0  0  0  0  0
    2.8680   -2.8549    0.0000 C   0  0  0  0  0  0  0  0  0  0  0  0
    9.6285    1.1623    0.0000 C   0  0  0  0  0  0  0  0  0  0  0  0
    7.9821    1.7004    0.0000 C   0  0  0  0  0  0  0  0  0  0  0  0
    9.9391    2.1128    0.0000 C   0  0  0  0  0  0  0  0  0  0  0  0
   10.9176    2.3190    0.0000 C   0  0  0  0  0  0  0  0  0  0  0  0
    7.4830   -2.1444    0.0000 H   0  0  0  0  0  0  0  0  0  0  0  0
    7.2664   -2.2185    0.0000 H   0  0  0  0  0  0  0  0  0  0  0  0
    6.3972   -0.8742    0.0000 H   0  0  0  0  0  0  0  0  0  0  0  0
    9.1790    0.1374    0.0000 H   0  0  0  0  0  0  0  0  0  0  0  0
    6.9256    0.6757    0.0000 H   0  0  0  0  0  0  0  0  0  0  0  0
    6.1285    0.6757    0.0000 H   0  0  0  0  0  0  0  0  0  0  0  0
    5.4490    0.2834    0.0000 H   0  0  0  0  0  0  0  0  0  0  0  0
    5.0504   -0.4069    0.0000 H   0  0  0  0  0  0  0  0  0  0  0  0
    8.0883   -2.1708    0.0000 H   0  0  0  0  0  0  0  0  0  0  0  0
    8.8767   -1.9132    0.0000 H   0  0  0  0  0  0  0  0  0  0  0  0
    4.7463   -3.6976    0.0000 H   0  0  0  0  0  0  0  0  0  0  0  0
    6.7612   -3.4211    0.0000 H   0  0  0  0  0  0  0  0  0  0  0  0
    7.1523   -2.7252    0.0000 H   0  0  0  0  0  0  0  0  0  0  0  0
    9.3838   -1.2139    0.0000 H   0  0  0  0  0  0  0  0  0  0  0  0
    9.3838   -0.3845    0.0000 H   0  0  0  0  0  0  0  0  0  0  0  0
    5.2478   -3.8444    0.0000 H   0  0  0  0  0  0  0  0  0  0  0  0
    6.0460   -3.8414    0.0000 H   0  0  0  0  0  0  0  0  0  0  0  0
    4.2324   -0.7753    0.0000 H   0  0  0  0  0  0  0  0  0  0  0  0
    3.4343   -0.7599    0.0000 H   0  0  0  0  0  0  0  0  0  0  0  0
    8.0131    0.7008    0.0000 H   0  0  0  0  0  0  0  0  0  0  0  0
    7.3931    1.3208    0.0000 H   0  0  0  0  0  0  0  0  0  0  0  0
    6.7731    0.7008    0.0000 H   0  0  0  0  0  0  0  0  0  0  0  0
    8.0433    0.8282    0.0000 H   0  0  0  0  0  0  0  0  0  0  0  0
    5.3787   -0.8109    0.0000 H   0  0  0  0  0  0  0  0  0  0  0  0
    4.7635   -0.1861    0.0000 H   0  0  0  0  0  0  0  0  0  0  0  0
    4.1388   -0.8013    0.0000 H   0  0  0  0  0  0  0  0  0  0  0  0
    3.4103   -3.8734    0.0000 H   0  0  0  0  0  0  0  0  0  0  0  0
    4.2085   -3.8703    0.0000 H   0  0  0  0  0  0  0  0  0  0  0  0
    2.6718   -1.1846    0.0000 H   0  0  0  0  0  0  0  0  0  0  0  0
    2.2647   -1.8713    0.0000 H   0  0  0  0  0  0  0  0  0  0  0  0
    9.6490    0.5426    0.0000 H   0  0  0  0  0  0  0  0  0  0  0  0
   10.2423    1.0749    0.0000 H   0  0  0  0  0  0  0  0  0  0  0  0
    8.4436    2.1144    0.0000 H   0  0  0  0  0  0  0  0  0  0  0  0
    7.5681    2.1618    0.0000 H   0  0  0  0  0  0  0  0  0  0  0  0
    7.5207    1.2863    0.0000 H   0  0  0  0  0  0  0  0  0  0  0  0
    9.9186    2.7324    0.0000 H   0  0  0  0  0  0  0  0  0  0  0  0
    9.3253    2.2001    0.0000 H   0  0  0  0  0  0  0  0  0  0  0  0
   11.8350    3.3974    0.0000 H   0  0  0  0  0  0  0  0  0  0  0  0
  1 23  2  0  0  0  0
  2 27  1  0  0  0  0
  2 65  1  0  0  0  0
  3 27  2  0  0  0  0
  4  5  1  0  0  0  0
  4  9  1  0  0  0  0
  4 10  1  0  0  0  0
  4 18  1  1  0  0  0
  5  6  1  0  0  0  0
  5 12  1  0  0  0  0
  5 28  1  6  0  0  0
  6  7  1  0  0  0  0
  6 14  1  0  0  0  0
  6 29  1  1  0  0  0
  7  8  1  0  0  0  0
  7 11  1  0  0  0  0
  7 30  1  6  0  0  0
  8 13  1  0  0  0  0
  8 17  1  0  0  0  0
  8 20  1  1  0  0  0
  9 15  1  0  0  0  0
  9 19  1  0  0  0  0
  9 31  1  6  0  0  0
 10 11  1  0  0  0  0
 10 32  1  0  0  0  0
 10 33  1  0  0  0  0
 11 34  1  0  0  0  0
 11 35  1  0  0  0  0
 12 15  1  0  0  0  0
 12 36  1  0  0  0  0
 12 37  1  0  0  0  0
 13 16  1  0  0  0  0
 13 21  1  0  0  0  0
 13 38  1  1  0  0  0
 14 16  1  0  0  0  0
 14 39  1  0  0  0  0
 14 40  1  0  0  0  0
 15 41  1  0  0  0  0
 15 42  1  0  0  0  0
 16 43  1  0  0  0  0
 16 44  1  0  0  0  0
 17 22  1  0  0  0  0
 17 45  1  0  0  0  0
 17 46  1  0  0  0  0
 18 47  1  0  0  0  0
 18 48  1  0  0  0  0
 18 49  1  0  0  0  0
 19 24  1  0  0  0  0
 19 25  1  1  0  0  0
 19 50  1  0  0  0  0
 20 51  1  0  0  0  0
 20 52  1  0  0  0  0
 20 53  1  0  0  0  0
 21 23  1  0  0  0  0
 21 54  1  0  0  0  0
 21 55  1  0  0  0  0
 22 23  1  0  0  0  0
 22 56  1  0  0  0  0
 22 57  1  0  0  0  0
 24 26  1  0  0  0  0
 24 58  1  0  0  0  0
 24 59  1  0  0  0  0
 25 60  1  0  0  0  0
 25 61  1  0  0  0  0
 25 62  1  0  0  0  0
 26 27  1  0  0  0  0
 26 63  1  0  0  0  0
 26 64  1  0  0  0  0
M  END
> <PUBCHEM_COMPOUND_CID>
439899

> <PUBCHEM_COMPOUND_CANONICALIZED>
1

> <PUBCHEM_CACTVS_COMPLEXITY>
613

> <PUBCHEM_CACTVS_HBOND_ACCEPTOR>
3

> <PUBCHEM_CACTVS_HBOND_DONOR>
1

> <PUBCHEM_CACTVS_ROTATABLE_BOND>
4

> <PUBCHEM_CACTVS_SUBSKEYS>
AAADcfB4MAAAAAAAAAAAAAAAAAAAAYAAAAAwYMAAAAAAAGDAAAAAGgAACAAADwSAgAACCAAAAgAIAICQCAAAAAAAAAAAAAEAAAAAABIAAAAAQAAEAAAAAAGIyPCPgAAAAAAAAACAAAQAACAAAQAACAAAAA==

> <PUBCHEM_IUPAC_OPENEYE_NAME>
(4S)-4-[(5R,8R,9S,10S,13R,14S,17R)-10,13-dimethyl-3-oxo-1,2,4,5,6,7,8,9,11,12,14,15,16,17-tetradecahydrocyclopenta[a]phenanthren-17-yl]pentanoic acid

> <PUBCHEM_IUPAC_CAS_NAME>
(4S)-4-[(5R,8R,9S,10S,13R,14S,17R)-10,13-dimethyl-3-oxo-1,2,4,5,6,7,8,9,11,12,14,15,16,17-tetradecahydrocyclopenta[a]phenanthren-17-yl]pentanoic acid

> <PUBCHEM_IUPAC_NAME>
(4S)-4-[(5R,8R,9S,10S,13R,14S,17R)-10,13-dimethyl-3-oxo-1,2,4,5,6,7,8,9,11,12,14,15,16,17-tetradecahydrocyclopenta[a]phenanthren-17-yl]pentanoic acid

> <PUBCHEM_IUPAC_SYSTEMATIC_NAME>
(4S)-4-[(5R,8R,9S,10S,13R,14S,17R)-10,13-dimethyl-3-oxidanylidene-1,2,4,5,6,7,8,9,11,12,14,15,16,17-tetradecahydrocyclopenta[a]phenanthren-17-yl]pentanoic acid

> <PUBCHEM_IUPAC_TRADITIONAL_NAME>
(4S)-4-[(5R,8R,9S,10S,13R,14S,17R)-3-keto-10,13-dimethyl-1,2,4,5,6,7,8,9,11,12,14,15,16,17-tetradecahydrocyclopenta[a]phenanthren-17-yl]valeric acid

> <PUBCHEM_IUPAC_INCHI>
InChI=1S/C24H38O3/c1-15(4-9-22(26)27)19-7-8-20-18-6-5-16-14-17(25)10-12-23(16,2)21(18)11-13-24(19,20)3/h15-16,18-21H,4-14H2,1-3H3,(H,26,27)/t15-,16+,18-,19+,20-,21-,23-,24+/m0/s1

> <PUBCHEM_IUPAC_INCHIKEY>
KIQFUORWRVZTHT-HSYHYESFSA-N

> <PUBCHEM_XLOGP3_AA>
5.8

> <PUBCHEM_EXACT_MASS>
374.282095

> <PUBCHEM_MOLECULAR_FORMULA>
C24H38O3

> <PUBCHEM_MOLECULAR_WEIGHT>
374.55672

> <PUBCHEM_OPENEYE_CAN_SMILES>
CC(CCC(=O)O)C1CCC2C1(CCC3C2CCC4C3(CCC(=O)C4)C)C

> <PUBCHEM_OPENEYE_ISO_SMILES>
C[C@@H](CCC(=O)O)[C@H]1CC[C@@H]2[C@@]1(CC[C@H]3[C@H]2CC[C@H]4[C@@]3(CCC(=O)C4)C)C

> <PUBCHEM_CACTVS_TPSA>
54.4

> <PUBCHEM_MONOISOTOPIC_WEIGHT>
374.282095

> <PUBCHEM_TOTAL_CHARGE>
0

> <PUBCHEM_HEAVY_ATOM_COUNT>
27

> <PUBCHEM_ATOM_DEF_STEREO_COUNT>
8

> <PUBCHEM_ATOM_UDEF_STEREO_COUNT>
0

> <PUBCHEM_BOND_DEF_STEREO_COUNT>
0

> <PUBCHEM_BOND_UDEF_STEREO_COUNT>
0

> <PUBCHEM_ISOTOPIC_ATOM_COUNT>
0

> <PUBCHEM_COMPONENT_COUNT>
1

> <PUBCHEM_CACTVS_TAUTO_COUNT>
3

> <PUBCHEM_COORDINATE_TYPE>
1
5
255

> <PUBCHEM_BONDANNOTATIONS>
13  38  5
19  25  5
4  18  5
5  28  6
6  29  5
7  30  6
8  20  5
9  31  6

$$$$

