2723949
  -OEChem-07051213133D

  9  8  0     0  0  0  0  0  0999 V2000
    1.6173   -0.2412   -0.0003 S   0  0  0  0  0  0  0  0  0  0  0  0
   -0.5617    1.2959   -0.0003 N   0  0  0  0  0  0  0  0  0  0  0  0
   -1.0259   -1.0908   -0.0003 C   0  0  0  0  0  0  0  0  0  0  0  0
   -0.0298    0.0361    0.0008 C   0  0  0  0  0  0  0  0  0  0  0  0
   -0.8880   -1.7087   -0.8935 H   0  0  0  0  0  0  0  0  0  0  0  0
   -0.8797   -1.7187    0.8846 H   0  0  0  0  0  0  0  0  0  0  0  0
   -2.0541   -0.7172    0.0066 H   0  0  0  0  0  0  0  0  0  0  0  0
    0.0368    2.1153   -0.0006 H   0  0  0  0  0  0  0  0  0  0  0  0
   -1.5622    1.4658   -0.0004 H   0  0  0  0  0  0  0  0  0  0  0  0
  1  4  2  0  0  0  0
  2  4  1  0  0  0  0
  2  8  1  0  0  0  0
  2  9  1  0  0  0  0
  3  4  1  0  0  0  0
  3  5  1  0  0  0  0
  3  6  1  0  0  0  0
  3  7  1  0  0  0  0
M  END
> <PUBCHEM_COMPOUND_CID>
2723949

> <PUBCHEM_CONFORMER_RMSD>
0.4

> <PUBCHEM_CONFORMER_DIVERSEORDER>
1

> <PUBCHEM_MMFF94_PARTIAL_CHARGES>
6
1 -0.38
2 -0.8
3 0.06
4 0.38
8 0.37
9 0.37

> <PUBCHEM_EFFECTIVE_ROTOR_COUNT>
0

> <PUBCHEM_PHARMACOPHORE_FEATURES>
1
1 1 acceptor

> <PUBCHEM_HEAVY_ATOM_COUNT>
4

> <PUBCHEM_ATOM_DEF_STEREO_COUNT>
0

> <PUBCHEM_ATOM_UDEF_STEREO_COUNT>
0

> <PUBCHEM_BOND_DEF_STEREO_COUNT>
0

> <PUBCHEM_BOND_UDEF_STEREO_COUNT>
0

> <PUBCHEM_ISOTOPIC_ATOM_COUNT>
0

> <PUBCHEM_COMPONENT_COUNT>
1

> <PUBCHEM_CACTVS_TAUTO_COUNT>
2

> <PUBCHEM_CONFORMER_ID>
0029906D00000001

> <PUBCHEM_MMFF94_ENERGY>
6.462

> <PUBCHEM_FEATURE_SELFOVERLAP>
5.074

> <PUBCHEM_SHAPE_FINGERPRINT>
139733 1 9294748483529207650
20096714 4 17979353389102527704
21015797 1 8718826491875739754
5943 1 13439100699537393247

> <PUBCHEM_SHAPE_MULTIPOLES>
81.19
1.72
1.25
0.62
0.65
0.27
0
-0.46
0
-0.4
0
0.04
-0.03
0

> <PUBCHEM_SHAPE_SELFOVERLAP>
129.376

> <PUBCHEM_SHAPE_VOLUME>
58.7

> <PUBCHEM_COORDINATE_TYPE>
2
5
10

$$$$

