4388265
  -OEChem-07051213042D

 30 32  0     0  0  0  0  0  0999 V2000
    4.9889    2.6097    0.0000 O   0  0  0  0  0  0  0  0  0  0  0  0
    4.9889   -0.9008    0.0000 O   0  0  0  0  0  0  0  0  0  0  0  0
    8.2619   -2.6097    0.0000 O   0  0  0  0  0  0  0  0  0  0  0  0
    5.2619    0.8544    0.0000 N   0  0  0  0  0  0  0  0  0  0  0  0
    6.2619    0.8544    0.0000 C   0  0  0  0  0  0  0  0  0  0  0  0
    3.7320    1.3544    0.0000 C   0  0  0  0  0  0  0  0  0  0  0  0
    3.7320    0.3544    0.0000 C   0  0  0  0  0  0  0  0  0  0  0  0
    4.6783    1.6592    0.0000 C   0  0  0  0  0  0  0  0  0  0  0  0
    4.6783    0.0497    0.0000 C   0  0  0  0  0  0  0  0  0  0  0  0
    6.7619   -0.0116    0.0000 C   0  0  0  0  0  0  0  0  0  0  0  0
    2.8660    1.8544    0.0000 C   0  0  0  0  0  0  0  0  0  0  0  0
    2.8660   -0.1456    0.0000 C   0  0  0  0  0  0  0  0  0  0  0  0
    6.2619   -0.8776    0.0000 C   0  0  0  0  0  0  0  0  0  0  0  0
    7.7619   -0.0116    0.0000 C   0  0  0  0  0  0  0  0  0  0  0  0
    2.0000    0.3544    0.0000 C   0  0  0  0  0  0  0  0  0  0  0  0
    2.0000    1.3544    0.0000 C   0  0  0  0  0  0  0  0  0  0  0  0
    6.7619   -1.7436    0.0000 C   0  0  0  0  0  0  0  0  0  0  0  0
    8.2619   -0.8776    0.0000 C   0  0  0  0  0  0  0  0  0  0  0  0
    7.7619   -1.7436    0.0000 C   0  0  0  0  0  0  0  0  0  0  0  0
    6.8445    1.0665    0.0000 H   0  0  0  0  0  0  0  0  0  0  0  0
    6.1542    1.4650    0.0000 H   0  0  0  0  0  0  0  0  0  0  0  0
    2.8660    2.4744    0.0000 H   0  0  0  0  0  0  0  0  0  0  0  0
    2.8660   -0.7656    0.0000 H   0  0  0  0  0  0  0  0  0  0  0  0
    5.6419   -0.8776    0.0000 H   0  0  0  0  0  0  0  0  0  0  0  0
    8.0719    0.5253    0.0000 H   0  0  0  0  0  0  0  0  0  0  0  0
    1.4631    1.6644    0.0000 H   0  0  0  0  0  0  0  0  0  0  0  0
    1.4631    0.0444    0.0000 H   0  0  0  0  0  0  0  0  0  0  0  0
    6.4519   -2.2806    0.0000 H   0  0  0  0  0  0  0  0  0  0  0  0
    8.8819   -0.8776    0.0000 H   0  0  0  0  0  0  0  0  0  0  0  0
    8.8819   -2.6097    0.0000 H   0  0  0  0  0  0  0  0  0  0  0  0
  1  8  2  0  0  0  0
  2  9  2  0  0  0  0
  3 19  1  0  0  0  0
  3 30  1  0  0  0  0
  4  5  1  0  0  0  0
  4  8  1  0  0  0  0
  4  9  1  0  0  0  0
  5 10  1  0  0  0  0
  5 20  1  0  0  0  0
  5 21  1  0  0  0  0
  6  7  1  0  0  0  0
  6  8  1  0  0  0  0
  6 11  2  0  0  0  0
  7  9  1  0  0  0  0
  7 12  2  0  0  0  0
 10 13  2  0  0  0  0
 10 14  1  0  0  0  0
 11 16  1  0  0  0  0
 11 22  1  0  0  0  0
 12 15  1  0  0  0  0
 12 23  1  0  0  0  0
 13 17  1  0  0  0  0
 13 24  1  0  0  0  0
 14 18  2  0  0  0  0
 14 25  1  0  0  0  0
 15 16  2  0  0  0  0
 15 27  1  0  0  0  0
 16 26  1  0  0  0  0
 17 19  2  0  0  0  0
 17 28  1  0  0  0  0
 18 19  1  0  0  0  0
 18 29  1  0  0  0  0
M  END
> <PUBCHEM_COMPOUND_CID>
4388265

> <PUBCHEM_COMPOUND_CANONICALIZED>
1

> <PUBCHEM_CACTVS_COMPLEXITY>
350

> <PUBCHEM_CACTVS_HBOND_ACCEPTOR>
3

> <PUBCHEM_CACTVS_HBOND_DONOR>
1

> <PUBCHEM_CACTVS_ROTATABLE_BOND>
2

> <PUBCHEM_CACTVS_SUBSKEYS>
AAADccByMAAAAAAAAAAAAAAAAAAAAWAAAAAwYAAAAAAAAFgBQAAAHgAACAAADATBmAQwBoMAAgCIAiFSEACCAAAkIAAIiAEODMgIJjKClROEcQhkxjGImYed2IKOoAAAAAAQAABAAAAAACAAAAAAAAAAAA==

> <PUBCHEM_IUPAC_OPENEYE_NAME>
2-[(4-hydroxyphenyl)methyl]isoindoline-1,3-dione

> <PUBCHEM_IUPAC_CAS_NAME>
2-[(4-hydroxyphenyl)methyl]isoindole-1,3-dione

> <PUBCHEM_IUPAC_NAME>
2-[(4-hydroxyphenyl)methyl]isoindole-1,3-dione

> <PUBCHEM_IUPAC_SYSTEMATIC_NAME>
2-[(4-hydroxyphenyl)methyl]isoindole-1,3-dione

> <PUBCHEM_IUPAC_TRADITIONAL_NAME>
2-(4-hydroxybenzyl)isoindoline-1,3-quinone

> <PUBCHEM_IUPAC_INCHI>
InChI=1S/C15H11NO3/c17-11-7-5-10(6-8-11)9-16-14(18)12-3-1-2-4-13(12)15(16)19/h1-8,17H,9H2

> <PUBCHEM_IUPAC_INCHIKEY>
OLOKGSWYKBEWSH-UHFFFAOYSA-N

> <PUBCHEM_XLOGP3>
2.4

> <PUBCHEM_EXACT_MASS>
253.073893

> <PUBCHEM_MOLECULAR_FORMULA>
C15H11NO3

> <PUBCHEM_MOLECULAR_WEIGHT>
253.25274

> <PUBCHEM_OPENEYE_CAN_SMILES>
C1=CC=C2C(=C1)C(=O)N(C2=O)CC3=CC=C(C=C3)O

> <PUBCHEM_OPENEYE_ISO_SMILES>
C1=CC=C2C(=C1)C(=O)N(C2=O)CC3=CC=C(C=C3)O

> <PUBCHEM_CACTVS_TPSA>
57.6

> <PUBCHEM_MONOISOTOPIC_WEIGHT>
253.073893

> <PUBCHEM_TOTAL_CHARGE>
0

> <PUBCHEM_HEAVY_ATOM_COUNT>
19

> <PUBCHEM_ATOM_DEF_STEREO_COUNT>
0

> <PUBCHEM_ATOM_UDEF_STEREO_COUNT>
0

> <PUBCHEM_BOND_DEF_STEREO_COUNT>
0

> <PUBCHEM_BOND_UDEF_STEREO_COUNT>
0

> <PUBCHEM_ISOTOPIC_ATOM_COUNT>
0

> <PUBCHEM_COMPONENT_COUNT>
1

> <PUBCHEM_CACTVS_TAUTO_COUNT>
2

> <PUBCHEM_COORDINATE_TYPE>
1
5
255

> <PUBCHEM_BONDANNOTATIONS>
10  13  8
10  14  8
11  16  8
12  15  8
13  17  8
14  18  8
15  16  8
17  19  8
18  19  8
6  11  8
6  7  8
7  12  8

$$$$

