5282274
  -OEChem-07051213043D

 48 47  0     0  0  0  0  0  0999 V2000
    0.8180    1.4959   -3.4734 N   0  0  0  0  0  0  0  0  0  0  0  0
   -2.4818   -1.3869   -0.3702 C   0  0  0  0  0  0  0  0  0  0  0  0
   -3.2026   -0.0927    0.0171 C   0  0  0  0  0  0  0  0  0  0  0  0
   -1.0274   -1.1137   -0.7669 C   0  0  0  0  0  0  0  0  0  0  0  0
   -4.6476   -0.3689    0.4388 C   0  0  0  0  0  0  0  0  0  0  0  0
   -5.4051    0.8901    0.8645 C   0  0  0  0  0  0  0  0  0  0  0  0
   -0.2535   -2.3830   -1.1385 C   0  0  0  0  0  0  0  0  0  0  0  0
   -6.8352    0.6169    1.3043 C   0  0  0  0  0  0  0  0  0  0  0  0
    1.1499   -2.1114   -1.6049 C   0  0  0  0  0  0  0  0  0  0  0  0
    2.2132   -2.1098   -0.7845 C   0  0  0  0  0  0  0  0  0  0  0  0
    2.2392   -2.3646    0.6998 C   0  0  0  0  0  0  0  0  0  0  0  0
    3.3418   -1.6839    1.4578 C   0  0  0  0  0  0  0  0  0  0  0  0
    3.2196   -0.4724    2.0212 C   0  0  0  0  0  0  0  0  0  0  0  0
    1.9660    0.3505    1.9624 C   0  0  0  0  0  0  0  0  0  0  0  0
    2.2712    1.8148    2.0798 C   0  0  0  0  0  0  0  0  0  0  0  0
    2.3643    2.1689   -0.4017 C   0  0  0  0  0  0  0  0  0  0  0  0
    2.4490    2.6271    1.0274 C   0  0  0  0  0  0  0  0  0  0  0  0
    0.9463    2.2800   -0.9653 C   0  0  0  0  0  0  0  0  0  0  0  0
    0.8747    1.8430   -2.3677 C   0  0  0  0  0  0  0  0  0  0  0  0
   -3.0058   -1.8672   -1.2052 H   0  0  0  0  0  0  0  0  0  0  0  0
   -2.5032   -2.0878    0.4730 H   0  0  0  0  0  0  0  0  0  0  0  0
   -3.1938    0.6038   -0.8299 H   0  0  0  0  0  0  0  0  0  0  0  0
   -2.6682    0.3939    0.8420 H   0  0  0  0  0  0  0  0  0  0  0  0
   -1.0159   -0.4207   -1.6167 H   0  0  0  0  0  0  0  0  0  0  0  0
   -0.5229   -0.6101    0.0641 H   0  0  0  0  0  0  0  0  0  0  0  0
   -5.1825   -0.8464   -0.3916 H   0  0  0  0  0  0  0  0  0  0  0  0
   -4.6506   -1.0848    1.2702 H   0  0  0  0  0  0  0  0  0  0  0  0
   -5.4202    1.6035    0.0320 H   0  0  0  0  0  0  0  0  0  0  0  0
   -4.8691    1.3752    1.6890 H   0  0  0  0  0  0  0  0  0  0  0  0
   -0.2563   -3.0797   -0.2917 H   0  0  0  0  0  0  0  0  0  0  0  0
   -0.7792   -2.9056   -1.9476 H   0  0  0  0  0  0  0  0  0  0  0  0
   -7.4132    0.1647    0.4922 H   0  0  0  0  0  0  0  0  0  0  0  0
   -7.3283    1.5493    1.5962 H   0  0  0  0  0  0  0  0  0  0  0  0
   -6.8566   -0.0635    2.1615 H   0  0  0  0  0  0  0  0  0  0  0  0
    1.2966   -1.9046   -2.6614 H   0  0  0  0  0  0  0  0  0  0  0  0
    3.1816   -1.9286   -1.2496 H   0  0  0  0  0  0  0  0  0  0  0  0
    2.3793   -3.4443    0.8447 H   0  0  0  0  0  0  0  0  0  0  0  0
    1.2703   -2.1384    1.1582 H   0  0  0  0  0  0  0  0  0  0  0  0
    4.2877   -2.2113    1.5493 H   0  0  0  0  0  0  0  0  0  0  0  0
    4.0678   -0.0833    2.5801 H   0  0  0  0  0  0  0  0  0  0  0  0
    1.3267    0.0785    2.8115 H   0  0  0  0  0  0  0  0  0  0  0  0
    1.3817    0.1488    1.0633 H   0  0  0  0  0  0  0  0  0  0  0  0
    2.3586    2.2305    3.0805 H   0  0  0  0  0  0  0  0  0  0  0  0
    2.7425    1.1462   -0.5171 H   0  0  0  0  0  0  0  0  0  0  0  0
    3.0474    2.7903   -0.9962 H   0  0  0  0  0  0  0  0  0  0  0  0
    2.6561    3.6791    1.2041 H   0  0  0  0  0  0  0  0  0  0  0  0
    0.6054    3.3208   -0.8987 H   0  0  0  0  0  0  0  0  0  0  0  0
    0.2478    1.6871   -0.3654 H   0  0  0  0  0  0  0  0  0  0  0  0
  1 19  3  0  0  0  0
  2  3  1  0  0  0  0
  2  4  1  0  0  0  0
  2 20  1  0  0  0  0
  2 21  1  0  0  0  0
  3  5  1  0  0  0  0
  3 22  1  0  0  0  0
  3 23  1  0  0  0  0
  4  7  1  0  0  0  0
  4 24  1  0  0  0  0
  4 25  1  0  0  0  0
  5  6  1  0  0  0  0
  5 26  1  0  0  0  0
  5 27  1  0  0  0  0
  6  8  1  0  0  0  0
  6 28  1  0  0  0  0
  6 29  1  0  0  0  0
  7  9  1  0  0  0  0
  7 30  1  0  0  0  0
  7 31  1  0  0  0  0
  8 32  1  0  0  0  0
  8 33  1  0  0  0  0
  8 34  1  0  0  0  0
  9 10  2  0  0  0  0
  9 35  1  0  0  0  0
 10 11  1  0  0  0  0
 10 36  1  0  0  0  0
 11 12  1  0  0  0  0
 11 37  1  0  0  0  0
 11 38  1  0  0  0  0
 12 13  2  0  0  0  0
 12 39  1  0  0  0  0
 13 14  1  0  0  0  0
 13 40  1  0  0  0  0
 14 15  1  0  0  0  0
 14 41  1  0  0  0  0
 14 42  1  0  0  0  0
 15 17  2  0  0  0  0
 15 43  1  0  0  0  0
 16 17  1  0  0  0  0
 16 18  1  0  0  0  0
 16 44  1  0  0  0  0
 16 45  1  0  0  0  0
 17 46  1  0  0  0  0
 18 19  1  0  0  0  0
 18 47  1  0  0  0  0
 18 48  1  0  0  0  0
M  END
> <PUBCHEM_COMPOUND_CID>
5282274

> <PUBCHEM_CONFORMER_RMSD>
1.2

> <PUBCHEM_CONFORMER_DIVERSEORDER>
1
21
61
142
77
236
339
249
127
232
129
264
287
119
237
215
226
83
33
158
10
245
54
85
300
34
292
90
230
165
58
88
19
173
293
307
99
175
209
70
252
219
214
291
121
273
157
86
12
213
322
253
43
114
211
106
73
268
276
163
144
37
149
132
64
254
102
337
16
277
341
17
11
133
283
89
247
193
167
112
227
65
326
97
181
162
168
323
63
80
184
79
91
87
122
75
29
200
160
222
218
299
103
207
123
333
42
229
107
179
332
94
206
52
137
110
186
59
308
324
243
250
72
246
135
136
275
116
176
118
310
48
321
203
98
13
194
198
25
125
108
130
244
296
131
224
152
205
81
235
147
267
150
329
233
188
223
270
57
146
126
170
45
257
212
185
334
286
340
71
74
139
51
115
241
312
41
196
225
328
315
138
195
49
96
210
9
20
178
240
272
128
36
197
201
141
161
30
228
117
319
189
220
303
155
298
78
28
32
269
31
180
336
171
274
26
92
3
255
281
242
304
258
76
68
60
202
238
216
172
204
190
151
320
221
327
330
282
50
285
302
169
105
301
259
35
156
15
288
7
256
318
113
39
124
100
84
314
23
261
143
145
309
56
260
101
95
177
265
148
316
192
153
2
295
208
62
82
8
278
174
93
266
191
187
313
306
248
109
311
183
166
24
271
154
5
234
164
284
14
199
55
4
104
66
231
46
297
182
294
53
325
217
134
120
111
67
338
6
305
27
262
38
263
18
317
239
335
280
279
47
289
140
69
251
290
40
159
22
44
331

> <PUBCHEM_MMFF94_PARTIAL_CHARGES>
19
1 -0.56
10 -0.29
11 0.28
12 -0.29
13 -0.29
14 0.28
15 -0.29
16 0.14
17 -0.29
18 0.2
19 0.36
35 0.15
36 0.15
39 0.15
40 0.15
43 0.15
46 0.15
7 0.14
9 -0.29

> <PUBCHEM_EFFECTIVE_ROTOR_COUNT>
12

> <PUBCHEM_PHARMACOPHORE_FEATURES>
2
1 1 acceptor
1 8 hydrophobe

> <PUBCHEM_HEAVY_ATOM_COUNT>
19

> <PUBCHEM_ATOM_DEF_STEREO_COUNT>
0

> <PUBCHEM_ATOM_UDEF_STEREO_COUNT>
0

> <PUBCHEM_BOND_DEF_STEREO_COUNT>
3

> <PUBCHEM_BOND_UDEF_STEREO_COUNT>
0

> <PUBCHEM_ISOTOPIC_ATOM_COUNT>
0

> <PUBCHEM_COMPONENT_COUNT>
1

> <PUBCHEM_CACTVS_TAUTO_COUNT>
1

> <PUBCHEM_CONFORMER_ID>
005099E200000001

> <PUBCHEM_MMFF94_ENERGY>
7.5972

> <PUBCHEM_FEATURE_SELFOVERLAP>
10.148

> <PUBCHEM_SHAPE_FINGERPRINT>
10382601 240 17986412013672570224
11244481 83 17488724697503021547
12633257 1 16772128933434373352
13773456 73 17895188875606390251
13965767 371 18265912288441833312
17810953 82 17967254213005870123
17859628 37 18041008348921722910
21304303 94 9655570821081892113
23596394 208 9943522986664114763
238 59 9511168716052105670
3060560 45 6338658678463149546
5283268 108 18269555095066134097
539174 4 17834430867687406902
6786 2 16052620576265250134

> <PUBCHEM_SHAPE_MULTIPOLES>
386.03
9.71
3.45
2.72
25.39
0.01
1.71
2.38
-7.32
-3.49
0.74
-2.28
1.27
-0.84

> <PUBCHEM_SHAPE_SELFOVERLAP>
716.564

> <PUBCHEM_SHAPE_VOLUME>
238.9

> <PUBCHEM_COORDINATE_TYPE>
2
5
10

$$$$

