5245
  -OEChem-06261200362D

 28 28  0     0  0  0  0  0  0999 V2000
    4.7690    1.3471    0.0000 P   0  0  0  0  0  0  0  0  0  0  0  0
    3.4030    1.7132    0.0000 P   0  0  0  0  0  0  0  0  0  0  0  0
    4.4030   -0.0189    0.0000 O   0  0  0  0  0  0  0  0  0  0  0  0
    2.9030    2.5792    0.0000 O   0  0  0  0  0  0  0  0  0  0  0  0
    2.5369    1.2132    0.0000 O   0  0  0  0  0  0  0  0  0  0  0  0
    5.6350    1.8471    0.0000 O   0  0  0  0  0  0  0  0  0  0  0  0
    5.2690    0.4811    0.0000 O   0  0  0  0  0  0  0  0  0  0  0  0
    3.7450    2.6529    0.0000 O   0  0  0  0  0  0  0  0  0  0  0  0
    4.9426    2.3320    0.0000 O   0  0  0  0  0  0  0  0  0  0  0  0
    3.9030   -2.1529    0.0000 N   0  0  0  0  0  0  0  0  0  0  0  0
    3.9030    0.8471    0.0000 C   0  0  0  0  0  0  0  0  0  0  0  0
    3.0369    0.3471    0.0000 C   0  0  0  0  0  0  0  0  0  0  0  0
    3.0369   -0.6529    0.0000 C   0  0  0  0  0  0  0  0  0  0  0  0
    2.1709   -1.1529    0.0000 C   0  0  0  0  0  0  0  0  0  0  0  0
    3.9030   -1.1529    0.0000 C   0  0  0  0  0  0  0  0  0  0  0  0
    2.1709   -2.1529    0.0000 C   0  0  0  0  0  0  0  0  0  0  0  0
    3.0369   -2.6529    0.0000 C   0  0  0  0  0  0  0  0  0  0  0  0
    2.8249    0.9298    0.0000 H   0  0  0  0  0  0  0  0  0  0  0  0
    2.4263    0.2395    0.0000 H   0  0  0  0  0  0  0  0  0  0  0  0
    4.0930   -0.5558    0.0000 H   0  0  0  0  0  0  0  0  0  0  0  0
    1.6340   -0.8429    0.0000 H   0  0  0  0  0  0  0  0  0  0  0  0
    4.4399   -0.8429    0.0000 H   0  0  0  0  0  0  0  0  0  0  0  0
    2.2830    2.5792    0.0000 H   0  0  0  0  0  0  0  0  0  0  0  0
    2.0000    1.5232    0.0000 H   0  0  0  0  0  0  0  0  0  0  0  0
    5.6350    2.4671    0.0000 H   0  0  0  0  0  0  0  0  0  0  0  0
    5.8890    0.4811    0.0000 H   0  0  0  0  0  0  0  0  0  0  0  0
    1.6340   -2.4629    0.0000 H   0  0  0  0  0  0  0  0  0  0  0  0
    3.0369   -3.2729    0.0000 H   0  0  0  0  0  0  0  0  0  0  0  0
  1  6  1  0  0  0  0
  1  7  1  0  0  0  0
  1  9  2  0  0  0  0
  1 11  1  0  0  0  0
  2  4  1  0  0  0  0
  2  5  1  0  0  0  0
  2  8  2  0  0  0  0
  2 11  1  0  0  0  0
  3 11  1  0  0  0  0
  3 20  1  0  0  0  0
  4 23  1  0  0  0  0
  5 24  1  0  0  0  0
  6 25  1  0  0  0  0
  7 26  1  0  0  0  0
 10 15  1  0  0  0  0
 10 17  2  0  0  0  0
 11 12  1  0  0  0  0
 12 13  1  0  0  0  0
 12 18  1  0  0  0  0
 12 19  1  0  0  0  0
 13 14  1  0  0  0  0
 13 15  2  0  0  0  0
 14 16  2  0  0  0  0
 14 21  1  0  0  0  0
 15 22  1  0  0  0  0
 16 17  1  0  0  0  0
 16 27  1  0  0  0  0
 17 28  1  0  0  0  0
M  END
> <PUBCHEM_COMPOUND_CID>
5245

> <PUBCHEM_COMPOUND_CANONICALIZED>
1

> <PUBCHEM_CACTVS_COMPLEXITY>
339

> <PUBCHEM_CACTVS_HBOND_ACCEPTOR>
8

> <PUBCHEM_CACTVS_HBOND_DONOR>
5

> <PUBCHEM_CACTVS_ROTATABLE_BOND>
4

> <PUBCHEM_CACTVS_SUBSKEYS>
AAADccBiOAMAAAAAAAAAAAAAAAAAAAAAAAAsAAAAAAAAAAABgAAAHggACCAADADBmgQ8gJIIEhCgQjBnRICCgCAxAiAI2CA4ZJgIIOLAkZGEYAhkwAHIyAewQAAOAAAAAAAAAAAAAAAAAAAAAAAAAAAAAA==

> <PUBCHEM_IUPAC_OPENEYE_NAME>
[1-hydroxy-1-phosphono-2-(3-pyridyl)ethyl]phosphonic acid

> <PUBCHEM_IUPAC_CAS_NAME>
[1-hydroxy-1-phosphono-2-(3-pyridinyl)ethyl]phosphonic acid

> <PUBCHEM_IUPAC_NAME>
(1-hydroxy-1-phosphono-2-pyridin-3-ylethyl)phosphonic acid

> <PUBCHEM_IUPAC_SYSTEMATIC_NAME>
(1-oxidanyl-1-phosphono-2-pyridin-3-yl-ethyl)phosphonic acid

> <PUBCHEM_IUPAC_TRADITIONAL_NAME>
[1-hydroxy-1-phosphono-2-(3-pyridyl)ethyl]phosphonic acid

> <PUBCHEM_IUPAC_INCHI>
InChI=1S/C7H11NO7P2/c9-7(16(10,11)12,17(13,14)15)4-6-2-1-3-8-5-6/h1-3,5,9H,4H2,(H2,10,11,12)(H2,13,14,15)

> <PUBCHEM_IUPAC_INCHIKEY>
IIDJRNMFWXDHID-UHFFFAOYSA-N

> <PUBCHEM_XLOGP3_AA>
-3.1

> <PUBCHEM_EXACT_MASS>
283.001075

> <PUBCHEM_MOLECULAR_FORMULA>
C7H11NO7P2

> <PUBCHEM_MOLECULAR_WEIGHT>
283.112264

> <PUBCHEM_OPENEYE_CAN_SMILES>
C1=CC(=CN=C1)CC(O)(P(=O)(O)O)P(=O)(O)O

> <PUBCHEM_OPENEYE_ISO_SMILES>
C1=CC(=CN=C1)CC(O)(P(=O)(O)O)P(=O)(O)O

> <PUBCHEM_CACTVS_TPSA>
148

> <PUBCHEM_MONOISOTOPIC_WEIGHT>
283.001075

> <PUBCHEM_TOTAL_CHARGE>
0

> <PUBCHEM_HEAVY_ATOM_COUNT>
17

> <PUBCHEM_ATOM_DEF_STEREO_COUNT>
0

> <PUBCHEM_ATOM_UDEF_STEREO_COUNT>
0

> <PUBCHEM_BOND_DEF_STEREO_COUNT>
0

> <PUBCHEM_BOND_UDEF_STEREO_COUNT>
0

> <PUBCHEM_ISOTOPIC_ATOM_COUNT>
0

> <PUBCHEM_COMPONENT_COUNT>
1

> <PUBCHEM_CACTVS_TAUTO_COUNT>
1

> <PUBCHEM_COORDINATE_TYPE>
1
5
255

> <PUBCHEM_BONDANNOTATIONS>
10  15  8
10  17  8
13  14  8
13  15  8
14  16  8
16  17  8

$$$$

