8554
  -OEChem-06261202543D

 24 24  0     0  0  0  0  0  0999 V2000
    2.1516   -0.6114    0.9395 O   0  0  0  0  0  0  0  0  0  0  0  0
   -2.2187   -1.4775    0.4119 O   0  0  0  0  0  0  0  0  0  0  0  0
    2.1521   -0.4593   -1.3481 O   0  0  0  0  0  0  0  0  0  0  0  0
   -0.3606   -1.8922   -0.8655 O   0  0  0  0  0  0  0  0  0  0  0  0
    0.5529    0.7763   -0.1132 C   0  0  0  0  0  0  0  0  0  0  0  0
   -0.7628    0.3133   -0.1019 C   0  0  0  0  0  0  0  0  0  0  0  0
    0.8135    2.1405    0.0162 C   0  0  0  0  0  0  0  0  0  0  0  0
   -1.8181    1.2146    0.0385 C   0  0  0  0  0  0  0  0  0  0  0  0
   -0.2418    3.0418    0.1567 C   0  0  0  0  0  0  0  0  0  0  0  0
   -1.5576    2.5787    0.1677 C   0  0  0  0  0  0  0  0  0  0  0  0
    1.6766   -0.1400   -0.2582 C   0  0  0  0  0  0  0  0  0  0  0  0
   -1.0672   -1.1055   -0.2348 C   0  0  0  0  0  0  0  0  0  0  0  0
    3.2576   -1.5185    0.8697 C   0  0  0  0  0  0  0  0  0  0  0  0
   -2.5777   -2.8608    0.3215 C   0  0  0  0  0  0  0  0  0  0  0  0
    1.8345    2.5135    0.0088 H   0  0  0  0  0  0  0  0  0  0  0  0
   -2.8542    0.8861    0.0386 H   0  0  0  0  0  0  0  0  0  0  0  0
   -0.0392    4.1041    0.2567 H   0  0  0  0  0  0  0  0  0  0  0  0
   -2.3792    3.2812    0.2741 H   0  0  0  0  0  0  0  0  0  0  0  0
    4.1186   -1.0296    0.4043 H   0  0  0  0  0  0  0  0  0  0  0  0
    2.9742   -2.4169    0.3133 H   0  0  0  0  0  0  0  0  0  0  0  0
    3.5256   -1.8066    1.8897 H   0  0  0  0  0  0  0  0  0  0  0  0
   -1.7966   -3.4838    0.7672 H   0  0  0  0  0  0  0  0  0  0  0  0
   -2.7472   -3.1396   -0.7228 H   0  0  0  0  0  0  0  0  0  0  0  0
   -3.5061   -3.0079    0.8797 H   0  0  0  0  0  0  0  0  0  0  0  0
  1 11  1  0  0  0  0
  1 13  1  0  0  0  0
  2 12  1  0  0  0  0
  2 14  1  0  0  0  0
  3 11  2  0  0  0  0
  4 12  2  0  0  0  0
  5  6  1  0  0  0  0
  5  7  2  0  0  0  0
  5 11  1  0  0  0  0
  6  8  2  0  0  0  0
  6 12  1  0  0  0  0
  7  9  1  0  0  0  0
  7 15  1  0  0  0  0
  8 10  1  0  0  0  0
  8 16  1  0  0  0  0
  9 10  2  0  0  0  0
  9 17  1  0  0  0  0
 10 18  1  0  0  0  0
 13 19  1  0  0  0  0
 13 20  1  0  0  0  0
 13 21  1  0  0  0  0
 14 22  1  0  0  0  0
 14 23  1  0  0  0  0
 14 24  1  0  0  0  0
M  END
> <PUBCHEM_COMPOUND_CID>
8554

> <PUBCHEM_CONFORMER_RMSD>
0.6

> <PUBCHEM_CONFORMER_DIVERSEORDER>
1
9
2
8
7
3
4
6
5

> <PUBCHEM_MMFF94_PARTIAL_CHARGES>
18
1 -0.43
10 -0.15
11 0.63
12 0.63
13 0.28
14 0.28
15 0.15
16 0.15
17 0.15
18 0.15
2 -0.43
3 -0.57
4 -0.57
5 0.09
6 0.09
7 -0.15
8 -0.15
9 -0.15

> <PUBCHEM_EFFECTIVE_ROTOR_COUNT>
4

> <PUBCHEM_PHARMACOPHORE_FEATURES>
3
1 3 acceptor
1 4 acceptor
6 5 6 7 8 9 10 rings

> <PUBCHEM_HEAVY_ATOM_COUNT>
14

> <PUBCHEM_ATOM_DEF_STEREO_COUNT>
0

> <PUBCHEM_ATOM_UDEF_STEREO_COUNT>
0

> <PUBCHEM_BOND_DEF_STEREO_COUNT>
0

> <PUBCHEM_BOND_UDEF_STEREO_COUNT>
0

> <PUBCHEM_ISOTOPIC_ATOM_COUNT>
0

> <PUBCHEM_COMPONENT_COUNT>
1

> <PUBCHEM_CACTVS_TAUTO_COUNT>
1

> <PUBCHEM_CONFORMER_ID>
0000216A00000001

> <PUBCHEM_MMFF94_ENERGY>
47.589

> <PUBCHEM_FEATURE_SELFOVERLAP>
15.225

> <PUBCHEM_SHAPE_FINGERPRINT>
1 1 17113260499038155844
10980938 120 17543905707689285323
11680986 33 18265631908666186313
13538477 17 18200587120249296854
14817 1 13641651327347193870
15279308 132 17614842250759501958
15502708 68 17256809988692692345
161256 15 17976809900795681493
16945 1 18266451199336724365
19021347 4 17906174310241647883
193761 8 18338235942835086477
20510252 161 17901113232592064504
20645476 183 17841690092240152124
20645477 70 17614839613840045255
20871998 184 18261118512270901334
20871998 22 18191575363739069998
21650355 55 18268450055978855434
2334 1 18265049120443168165
23402539 116 18046651128547550141
23559900 14 17827917657775027222
257057 1 18267035980640553267
2748010 2 18335703784778080461
3071541 236 18196941190872502891
43471831 8 17476081701226735179
528862 383 17615968807653903063
54173680 148 18339363066728136506
7364860 26 17541083278230386343
81228 2 18335422417143611281

> <PUBCHEM_SHAPE_MULTIPOLES>
264.64
3.64
3.57
0.87
0.82
4.43
0.09
-2.73
-0.76
0.31
-0.41
0.48
-0.14
0.18

> <PUBCHEM_SHAPE_SELFOVERLAP>
552.853

> <PUBCHEM_SHAPE_VOLUME>
150.9

> <PUBCHEM_COORDINATE_TYPE>
2
5
10

$$$$

