54691348
  -OEChem-07051213033D

 50 52  0     0  0  0  0  0  0999 V2000
    3.3063   -1.0606    1.0797 O   0  0  0  0  0  0  0  0  0  0  0  0
    1.3673    1.6250   -1.4776 O   0  0  0  0  0  0  0  0  0  0  0  0
    7.5627    0.8007   -0.0462 O   0  0  0  0  0  0  0  0  0  0  0  0
   -6.3812   -1.3031   -0.4257 O   0  0  0  0  0  0  0  0  0  0  0  0
    1.3099   -2.0382    1.5870 O   0  0  0  0  0  0  0  0  0  0  0  0
   -0.1906   -2.5397   -0.7621 O   0  0  0  0  0  0  0  0  0  0  0  0
   -0.1050   -0.3388   -0.0163 N   0  0  0  0  0  0  0  0  0  0  0  0
    3.4034    0.7802   -0.5230 C   0  0  0  0  0  0  0  0  0  0  0  0
    4.0409   -0.1086    0.3442 C   0  0  0  0  0  0  0  0  0  0  0  0
    5.4258   -0.1190    0.5238 C   0  0  0  0  0  0  0  0  0  0  0  0
    1.9411    0.7034   -0.6288 C   0  0  0  0  0  0  0  0  0  0  0  0
    1.2562   -0.2211    0.0600 C   0  0  0  0  0  0  0  0  0  0  0  0
   -4.2898   -0.5294    0.4540 C   0  0  0  0  0  0  0  0  0  0  0  0
   -4.9847    0.3993    1.3943 C   0  0  0  0  0  0  0  0  0  0  0  0
   -2.2314   -1.4425   -0.4214 C   0  0  0  0  0  0  0  0  0  0  0  0
    4.2131    1.6705   -1.2415 C   0  0  0  0  0  0  0  0  0  0  0  0
   -2.8960   -0.5805    0.4511 C   0  0  0  0  0  0  0  0  0  0  0  0
    6.2086    0.7808   -0.1900 C   0  0  0  0  0  0  0  0  0  0  0  0
    1.9282   -1.1820    0.9633 C   0  0  0  0  0  0  0  0  0  0  0  0
    5.6036    1.6719   -1.0737 C   0  0  0  0  0  0  0  0  0  0  0  0
   -5.0193   -1.3404   -0.4155 C   0  0  0  0  0  0  0  0  0  0  0  0
   -0.7463   -1.4972   -0.4248 C   0  0  0  0  0  0  0  0  0  0  0  0
    6.0652   -1.0872    1.4653 C   0  0  0  0  0  0  0  0  0  0  0  0
   -2.9609   -2.2534   -1.2907 C   0  0  0  0  0  0  0  0  0  0  0  0
   -5.5360    1.6247    0.7084 C   0  0  0  0  0  0  0  0  0  0  0  0
   -4.3548   -2.2025   -1.2878 C   0  0  0  0  0  0  0  0  0  0  0  0
   -4.9148    2.7971    0.4773 C   0  0  0  0  0  0  0  0  0  0  0  0
   -3.4951    3.0092    0.9320 C   0  0  0  0  0  0  0  0  0  0  0  0
   -5.5267    3.9816   -0.2151 C   0  0  0  0  0  0  0  0  0  0  0  0
   -5.8177   -0.1292    1.8779 H   0  0  0  0  0  0  0  0  0  0  0  0
   -4.3364    0.6708    2.2352 H   0  0  0  0  0  0  0  0  0  0  0  0
    3.7765    2.3808   -1.9397 H   0  0  0  0  0  0  0  0  0  0  0  0
   -2.3434    0.0350    1.1554 H   0  0  0  0  0  0  0  0  0  0  0  0
   -0.6269    0.5295   -0.1077 H   0  0  0  0  0  0  0  0  0  0  0  0
    6.2012    2.3789   -1.6438 H   0  0  0  0  0  0  0  0  0  0  0  0
    6.0429   -2.0950    1.0381 H   0  0  0  0  0  0  0  0  0  0  0  0
    7.1076   -0.8390    1.6879 H   0  0  0  0  0  0  0  0  0  0  0  0
    5.5392   -1.0962    2.4262 H   0  0  0  0  0  0  0  0  0  0  0  0
   -2.4611   -2.9280   -1.9809 H   0  0  0  0  0  0  0  0  0  0  0  0
   -6.5649    1.5279    0.3634 H   0  0  0  0  0  0  0  0  0  0  0  0
   -4.9104   -2.8391   -1.9712 H   0  0  0  0  0  0  0  0  0  0  0  0
    0.4107    1.4562   -1.5086 H   0  0  0  0  0  0  0  0  0  0  0  0
   -3.0985    2.2338    1.5872 H   0  0  0  0  0  0  0  0  0  0  0  0
   -3.4221    3.9490    1.4912 H   0  0  0  0  0  0  0  0  0  0  0  0
   -2.8337    3.0818    0.0619 H   0  0  0  0  0  0  0  0  0  0  0  0
   -6.5536    3.7748   -0.5340 H   0  0  0  0  0  0  0  0  0  0  0  0
   -4.9464    4.2444   -1.1053 H   0  0  0  0  0  0  0  0  0  0  0  0
   -5.5522    4.8464    0.4555 H   0  0  0  0  0  0  0  0  0  0  0  0
    7.9335    1.4903   -0.6232 H   0  0  0  0  0  0  0  0  0  0  0  0
   -6.7110   -1.9306   -1.0916 H   0  0  0  0  0  0  0  0  0  0  0  0
  1  9  1  0  0  0  0
  1 19  1  0  0  0  0
  2 11  1  0  0  0  0
  2 42  1  0  0  0  0
  3 18  1  0  0  0  0
  3 49  1  0  0  0  0
  4 21  1  0  0  0  0
  4 50  1  0  0  0  0
  5 19  2  0  0  0  0
  6 22  2  0  0  0  0
  7 12  1  0  0  0  0
  7 22  1  0  0  0  0
  7 34  1  0  0  0  0
  8  9  2  0  0  0  0
  8 11  1  0  0  0  0
  8 16  1  0  0  0  0
  9 10  1  0  0  0  0
 10 18  2  0  0  0  0
 10 23  1  0  0  0  0
 11 12  2  0  0  0  0
 12 19  1  0  0  0  0
 13 14  1  0  0  0  0
 13 17  1  0  0  0  0
 13 21  2  0  0  0  0
 14 25  1  0  0  0  0
 14 30  1  0  0  0  0
 14 31  1  0  0  0  0
 15 17  2  0  0  0  0
 15 22  1  0  0  0  0
 15 24  1  0  0  0  0
 16 20  2  0  0  0  0
 16 32  1  0  0  0  0
 17 33  1  0  0  0  0
 18 20  1  0  0  0  0
 20 35  1  0  0  0  0
 21 26  1  0  0  0  0
 23 36  1  0  0  0  0
 23 37  1  0  0  0  0
 23 38  1  0  0  0  0
 24 26  2  0  0  0  0
 24 39  1  0  0  0  0
 25 27  2  0  0  0  0
 25 40  1  0  0  0  0
 26 41  1  0  0  0  0
 27 28  1  0  0  0  0
 27 29  1  0  0  0  0
 28 43  1  0  0  0  0
 28 44  1  0  0  0  0
 28 45  1  0  0  0  0
 29 46  1  0  0  0  0
 29 47  1  0  0  0  0
 29 48  1  0  0  0  0
M  END
> <PUBCHEM_COMPOUND_CID>
54691348

> <PUBCHEM_CONFORMER_RMSD>
0.8

> <PUBCHEM_CONFORMER_DIVERSEORDER>
3
30
11
64
19
21
31
61
17
56
62
29
51
12
49
66
20
38
23
53
60
5
35
7
27
46
10
22
32
59
18
47
55
57
43
67
36
54
41
34
2
16
42
48
25
6
13
50
15
33
44
24
39
63
52
14
37
28
8
58
45
4
40
9
1
26
68
65

> <PUBCHEM_MMFF94_PARTIAL_CHARGES>
39
1 -0.23
10 -0.14
11 0.05
12 0.12
13 -0.14
14 0.28
15 0.09
16 -0.15
17 -0.15
18 0.08
19 0.71
2 -0.53
20 -0.15
21 0.08
22 0.54
23 0.14
24 -0.15
25 -0.29
26 -0.15
27 -0.28
28 0.14
29 0.14
3 -0.53
32 0.15
33 0.15
34 0.37
35 0.15
39 0.15
4 -0.53
40 0.15
41 0.15
42 0.45
49 0.45
5 -0.57
50 0.45
6 -0.57
7 -0.54
8 0.03
9 0.08

> <PUBCHEM_EFFECTIVE_ROTOR_COUNT>
5

> <PUBCHEM_PHARMACOPHORE_FEATURES>
10
1 2 donor
1 3 donor
1 4 donor
1 5 acceptor
1 6 acceptor
1 7 donor
3 27 28 29 hydrophobe
6 1 8 9 11 12 19 rings
6 13 15 17 21 24 26 rings
6 8 9 10 16 18 20 rings

> <PUBCHEM_HEAVY_ATOM_COUNT>
29

> <PUBCHEM_ATOM_DEF_STEREO_COUNT>
0

> <PUBCHEM_ATOM_UDEF_STEREO_COUNT>
0

> <PUBCHEM_BOND_DEF_STEREO_COUNT>
0

> <PUBCHEM_BOND_UDEF_STEREO_COUNT>
0

> <PUBCHEM_ISOTOPIC_ATOM_COUNT>
0

> <PUBCHEM_COMPONENT_COUNT>
1

> <PUBCHEM_CACTVS_TAUTO_COUNT>
391

> <PUBCHEM_CONFORMER_ID>
0342861400000003

> <PUBCHEM_MMFF94_ENERGY>
97.7676

> <PUBCHEM_FEATURE_SELFOVERLAP>
50.775

> <PUBCHEM_SHAPE_FINGERPRINT>
10411042 1 17829052014425158695
10670039 82 18260550004935585093
10906281 52 18059845127153965254
12107183 9 18051982716080841531
12236239 1 18411420596600050458
12422481 6 18200312250737232180
12596602 18 17775000164051262481
13167372 99 18341894112847094336
14294032 229 18040714793309576593
14466204 15 18335419084222914697
14790565 3 18412540985952835484
14856354 85 18261954029845615319
15064981 113 18113058242056884095
15183329 4 18336261258806325214
15475509 8 18341879828213077774
15513586 35 18049700950866187137
15575132 122 18408318891820737757
1577012 14 18411981364773090066
16992828 155 18271813483914397837
16993438 75 17416138393587887373
20511986 3 18271814565697198337
21033650 10 18117248467995868132
21236236 1 18409730664503051405
21302155 148 18338230574500434929
22122407 14 18201427052369869921
23081809 10 18341898472244297874
23522609 53 17987497300258373388
23559900 14 16298384626355039778
23569914 2 17027738015261986912
23569943 247 17059237967083383466
24771293 8 18270122302287577612
25147074 1 18343027713461435322
2838139 119 18411415077408754520
335352 9 17845937330672484302
34797466 226 16951401032068760920
3633792 109 17917726703655078775
397830 11 13182725993279033876
6299153 45 18340769368101773322
6327066 14 18265898145974909957
6328613 192 18340767044704125772
7808743 9 18334293197659682513

> <PUBCHEM_SHAPE_MULTIPOLES>
556.61
18.3
3.33
1.31
10.03
2.28
0.07
7.75
1.28
-6.46
-0.5
0.41
-0.21
-3.13

> <PUBCHEM_SHAPE_SELFOVERLAP>
1210.164

> <PUBCHEM_SHAPE_VOLUME>
302

> <PUBCHEM_COORDINATE_TYPE>
2
5
10

$$$$

