247942
  -OEChem-07051213053D

 52 55  0     1  0  0  0  0  0999 V2000
   -5.0633   -1.0771   -0.6396 O   0  0  0  0  0  0  0  0  0  0  0  0
    5.1959    0.0211   -1.4013 O   0  0  0  0  0  0  0  0  0  0  0  0
   -0.5552    0.6399    0.5046 C   0  0  1  0  0  0  0  0  0  0  0  0
   -1.8828    0.6698   -0.2645 C   0  0  1  0  0  0  0  0  0  0  0  0
   -2.7009   -0.6267   -0.0942 C   0  0  2  0  0  0  0  0  0  0  0  0
    0.3063   -0.5804   -0.0022 C   0  0  1  0  0  0  0  0  0  0  0  0
    1.6767   -0.6843    0.7679 C   0  0  2  0  0  0  0  0  0  0  0  0
   -1.8865   -1.7817   -0.6866 C   0  0  0  0  0  0  0  0  0  0  0  0
   -0.5080   -1.9037   -0.0152 C   0  0  0  0  0  0  0  0  0  0  0  0
    0.2272    1.9853    0.4575 C   0  0  1  0  0  0  0  0  0  0  0  0
   -2.8983    1.7661    0.0538 C   0  0  0  0  0  0  0  0  0  0  0  0
   -3.9530   -0.2420   -0.9060 C   0  0  2  0  0  0  0  0  0  0  0  0
   -4.2262    1.2188   -0.5003 C   0  0  0  0  0  0  0  0  0  0  0  0
    1.5756    1.8501    1.1949 C   0  0  0  0  0  0  0  0  0  0  0  0
    2.3542    0.6844    0.6333 C   0  0  0  0  0  0  0  0  0  0  0  0
   -3.0922   -0.9646    1.3674 C   0  0  0  0  0  0  0  0  0  0  0  0
    2.6105   -1.7998    0.2146 C   0  0  0  0  0  0  0  0  0  0  0  0
    1.4699   -1.0324    2.2653 C   0  0  0  0  0  0  0  0  0  0  0  0
    0.4442    2.5327   -0.9622 C   0  0  0  0  0  0  0  0  0  0  0  0
    3.3078   -1.4218   -1.0791 C   0  0  0  0  0  0  0  0  0  0  0  0
    3.4903    0.9098   -0.0475 C   0  0  0  0  0  0  0  0  0  0  0  0
    4.1080   -0.1636   -0.8606 C   0  0  0  0  0  0  0  0  0  0  0  0
   -0.7935    0.4766    1.5613 H   0  0  0  0  0  0  0  0  0  0  0  0
   -1.6353    0.7736   -1.3333 H   0  0  0  0  0  0  0  0  0  0  0  0
    0.5410   -0.3791   -1.0578 H   0  0  0  0  0  0  0  0  0  0  0  0
   -1.7374   -1.6247   -1.7629 H   0  0  0  0  0  0  0  0  0  0  0  0
   -2.4287   -2.7296   -0.5865 H   0  0  0  0  0  0  0  0  0  0  0  0
   -0.6390   -2.2803    1.0039 H   0  0  0  0  0  0  0  0  0  0  0  0
    0.0474   -2.6757   -0.5584 H   0  0  0  0  0  0  0  0  0  0  0  0
   -0.3607    2.7386    0.9991 H   0  0  0  0  0  0  0  0  0  0  0  0
   -2.6407    2.7222   -0.4114 H   0  0  0  0  0  0  0  0  0  0  0  0
   -2.9776    1.9367    1.1334 H   0  0  0  0  0  0  0  0  0  0  0  0
   -3.7513   -0.2825   -1.9839 H   0  0  0  0  0  0  0  0  0  0  0  0
   -5.0233    1.2976    0.2474 H   0  0  0  0  0  0  0  0  0  0  0  0
   -4.5505    1.7959   -1.3736 H   0  0  0  0  0  0  0  0  0  0  0  0
    1.4073    1.7081    2.2683 H   0  0  0  0  0  0  0  0  0  0  0  0
    2.1389    2.7879    1.1084 H   0  0  0  0  0  0  0  0  0  0  0  0
   -3.7226   -0.1932    1.8207 H   0  0  0  0  0  0  0  0  0  0  0  0
   -3.6556   -1.9042    1.4084 H   0  0  0  0  0  0  0  0  0  0  0  0
   -2.2250   -1.0888    2.0212 H   0  0  0  0  0  0  0  0  0  0  0  0
    2.0757   -2.7455    0.0846 H   0  0  0  0  0  0  0  0  0  0  0  0
    3.3946   -2.0122    0.9571 H   0  0  0  0  0  0  0  0  0  0  0  0
    0.7376   -0.3929    2.7641 H   0  0  0  0  0  0  0  0  0  0  0  0
    1.1319   -2.0671    2.3906 H   0  0  0  0  0  0  0  0  0  0  0  0
    2.4093   -0.9324    2.8232 H   0  0  0  0  0  0  0  0  0  0  0  0
    1.0498    3.4454   -0.9328 H   0  0  0  0  0  0  0  0  0  0  0  0
    0.9534    1.8162   -1.6130 H   0  0  0  0  0  0  0  0  0  0  0  0
   -0.5039    2.7992   -1.4375 H   0  0  0  0  0  0  0  0  0  0  0  0
    2.5999   -1.2599   -1.8977 H   0  0  0  0  0  0  0  0  0  0  0  0
    3.9934   -2.2250   -1.3706 H   0  0  0  0  0  0  0  0  0  0  0  0
    3.9291    1.8985   -0.1271 H   0  0  0  0  0  0  0  0  0  0  0  0
   -4.8110   -1.9846   -0.8808 H   0  0  0  0  0  0  0  0  0  0  0  0
  1 12  1  0  0  0  0
  1 52  1  0  0  0  0
  2 22  2  0  0  0  0
  3  4  1  0  0  0  0
  3  6  1  0  0  0  0
  3 10  1  0  0  0  0
  3 23  1  0  0  0  0
  4  5  1  0  0  0  0
  4 11  1  0  0  0  0
  4 24  1  0  0  0  0
  5  8  1  0  0  0  0
  5 12  1  0  0  0  0
  5 16  1  0  0  0  0
  6  7  1  0  0  0  0
  6  9  1  0  0  0  0
  6 25  1  0  0  0  0
  7 15  1  0  0  0  0
  7 17  1  0  0  0  0
  7 18  1  0  0  0  0
  8  9  1  0  0  0  0
  8 26  1  0  0  0  0
  8 27  1  0  0  0  0
  9 28  1  0  0  0  0
  9 29  1  0  0  0  0
 10 14  1  0  0  0  0
 10 19  1  0  0  0  0
 10 30  1  0  0  0  0
 11 13  1  0  0  0  0
 11 31  1  0  0  0  0
 11 32  1  0  0  0  0
 12 13  1  0  0  0  0
 12 33  1  0  0  0  0
 13 34  1  0  0  0  0
 13 35  1  0  0  0  0
 14 15  1  0  0  0  0
 14 36  1  0  0  0  0
 14 37  1  0  0  0  0
 15 21  2  0  0  0  0
 16 38  1  0  0  0  0
 16 39  1  0  0  0  0
 16 40  1  0  0  0  0
 17 20  1  0  0  0  0
 17 41  1  0  0  0  0
 17 42  1  0  0  0  0
 18 43  1  0  0  0  0
 18 44  1  0  0  0  0
 18 45  1  0  0  0  0
 19 46  1  0  0  0  0
 19 47  1  0  0  0  0
 19 48  1  0  0  0  0
 20 22  1  0  0  0  0
 20 49  1  0  0  0  0
 20 50  1  0  0  0  0
 21 22  1  0  0  0  0
 21 51  1  0  0  0  0
M  END
> <PUBCHEM_COMPOUND_CID>
247942

> <PUBCHEM_CONFORMER_RMSD>
0.6

> <PUBCHEM_CONFORMER_DIVERSEORDER>
1

> <PUBCHEM_MMFF94_PARTIAL_CHARGES>
11
1 -0.68
12 0.28
14 0.14
15 -0.28
2 -0.57
20 0.06
21 -0.14
22 0.49
51 0.15
52 0.4
7 0.14

> <PUBCHEM_EFFECTIVE_ROTOR_COUNT>
1.8

> <PUBCHEM_PHARMACOPHORE_FEATURES>
7
1 1 acceptor
1 1 donor
1 2 acceptor
5 4 5 11 12 13 rings
6 3 4 5 6 8 9 rings
6 3 6 7 10 14 15 rings
6 7 15 17 20 21 22 rings

> <PUBCHEM_HEAVY_ATOM_COUNT>
22

> <PUBCHEM_ATOM_DEF_STEREO_COUNT>
7

> <PUBCHEM_ATOM_UDEF_STEREO_COUNT>
0

> <PUBCHEM_BOND_DEF_STEREO_COUNT>
0

> <PUBCHEM_BOND_UDEF_STEREO_COUNT>
0

> <PUBCHEM_ISOTOPIC_ATOM_COUNT>
0

> <PUBCHEM_COMPONENT_COUNT>
1

> <PUBCHEM_CACTVS_TAUTO_COUNT>
5

> <PUBCHEM_CONFORMER_ID>
0003C88600000001

> <PUBCHEM_MMFF94_ENERGY>
76.1013

> <PUBCHEM_FEATURE_SELFOVERLAP>
35.636

> <PUBCHEM_SHAPE_FINGERPRINT>
10366900 7 17988927726225622379
104564 63 18263922314045330433
10498660 4 18272658986252871373
10759866 29 17773600605554669040
10863032 1 18343299301186027634
10967382 1 18337400348473155609
11578080 2 16878524434585203632
12011746 2 18411703188362911469
12236239 1 18060425746196692890
12553582 1 18334860523567489571
12788726 201 17898284159061631152
13134695 92 15574720162013048096
13140716 1 18266470986356409625
13221675 6 18411140199338150307
13224815 77 18272374178317929931
14790565 3 17758667128858446065
14955137 171 18193529320772418353
15163728 17 16700074853513065749
15196674 1 18408609183906241301
15210252 30 17846777425321365548
15238133 3 17916320470272386056
15536298 74 18187373090390342073
15635459 17 18407762525382203286
15848702 151 17458335364400361295
1601671 61 18338518641824430165
16752209 62 18262528112016131241
16945 1 18264215724672450536
17349148 13 16370725903246203469
17357779 13 18335994120266983285
17492 54 18272077284909819324
17804303 29 18260831501223848717
1813 80 4967618269821061272
18186145 218 18260839219411877105
19862831 5 18409449201936228928
200 152 17022619779885400238
20645477 70 18260556571439713221
20691752 17 17846502564382877745
20871999 31 18410569604311241654
21069387 34 14490479681104872623
21267235 1 18335696135251396143
21285901 2 18116147951250773932
21637258 2 15574990732700601894
221357 26 18260552225412649733
22393880 68 18410304613793676453
2334 1 18411145744230535337
23402539 116 18060415820780258564
23419403 2 16768407056858116816
23493267 7 18131066052017915987
23559900 14 17968387770512847184
2748010 2 18338529593996186409
2838139 119 16486396682946982908
2871803 45 18410572894773161556
296302 2 14476961181367277265
3004659 81 18340483491301036086
3060560 45 18334867090841874342
3286 77 15936417740253021395
3323516 105 18334012778933638172
34934 24 18413114956787167528
350125 39 18409163342768866185
4280585 95 17252008937249192782
4340502 62 16415189113790692609
474 4 17203318975803384156
4990 188 18259984885723005622
5104073 3 18335990830685778563
7364860 26 18042975272118387944
7832392 63 18335990774249842093
9709674 26 18190750734566399863

> <PUBCHEM_SHAPE_MULTIPOLES>
441.01
8.27
2.32
1.36
1.22
0.61
-0.44
-0.98
3.19
0.11
0.06
-0.7
-0.22
0.17

> <PUBCHEM_SHAPE_SELFOVERLAP>
943.839

> <PUBCHEM_SHAPE_VOLUME>
242.5

> <PUBCHEM_COORDINATE_TYPE>
2
5
10

$$$$

