15509898
  -OEChem-07051213112D

 23 24  0     0  0  0  0  0  0999 V2000
    2.0000    0.0000    0.0000 Br  0  0  0  0  0  0  0  0  0  0  0  0
    5.4641    0.0000    0.0000 Br  0  0  0  0  0  0  0  0  0  0  0  0
    3.7320    3.0000    0.0000 Br  0  0  0  0  0  0  0  0  0  0  0  0
    5.4641   -2.0000    0.0000 Br  0  0  0  0  0  0  0  0  0  0  0  0
    3.7320   -3.0000    0.0000 Br  0  0  0  0  0  0  0  0  0  0  0  0
    7.1962    3.0000    0.0000 Br  0  0  0  0  0  0  0  0  0  0  0  0
    3.7320    1.0000    0.0000 O   0  0  0  0  0  0  0  0  0  0  0  0
    3.7320    0.0000    0.0000 C   0  0  0  0  0  0  0  0  0  0  0  0
    4.5981    1.5000    0.0000 C   0  0  0  0  0  0  0  0  0  0  0  0
    2.8660   -0.5000    0.0000 C   0  0  0  0  0  0  0  0  0  0  0  0
    4.5981   -0.5000    0.0000 C   0  0  0  0  0  0  0  0  0  0  0  0
    5.4641    1.0000    0.0000 C   0  0  0  0  0  0  0  0  0  0  0  0
    4.5981    2.5000    0.0000 C   0  0  0  0  0  0  0  0  0  0  0  0
    4.5981   -1.5000    0.0000 C   0  0  0  0  0  0  0  0  0  0  0  0
    2.8660   -1.5000    0.0000 C   0  0  0  0  0  0  0  0  0  0  0  0
    6.3301    1.5000    0.0000 C   0  0  0  0  0  0  0  0  0  0  0  0
    5.4641    3.0000    0.0000 C   0  0  0  0  0  0  0  0  0  0  0  0
    3.7320   -2.0000    0.0000 C   0  0  0  0  0  0  0  0  0  0  0  0
    6.3301    2.5000    0.0000 C   0  0  0  0  0  0  0  0  0  0  0  0
    5.1350   -0.1900    0.0000 H   0  0  0  0  0  0  0  0  0  0  0  0
    2.3291   -1.8100    0.0000 H   0  0  0  0  0  0  0  0  0  0  0  0
    6.8671    1.1900    0.0000 H   0  0  0  0  0  0  0  0  0  0  0  0
    5.4641    3.6200    0.0000 H   0  0  0  0  0  0  0  0  0  0  0  0
  1 10  1  0  0  0  0
  2 12  1  0  0  0  0
  3 13  1  0  0  0  0
  4 14  1  0  0  0  0
  5 18  1  0  0  0  0
  6 19  1  0  0  0  0
  7  8  1  0  0  0  0
  7  9  1  0  0  0  0
  8 10  1  0  0  0  0
  8 11  2  0  0  0  0
  9 12  2  0  0  0  0
  9 13  1  0  0  0  0
 10 15  2  0  0  0  0
 11 14  1  0  0  0  0
 11 20  1  0  0  0  0
 12 16  1  0  0  0  0
 13 17  2  0  0  0  0
 14 18  2  0  0  0  0
 15 18  1  0  0  0  0
 15 21  1  0  0  0  0
 16 19  2  0  0  0  0
 16 22  1  0  0  0  0
 17 19  1  0  0  0  0
 17 23  1  0  0  0  0
M  END
> <PUBCHEM_COMPOUND_CID>
15509898

> <PUBCHEM_COMPOUND_CANONICALIZED>
1

> <PUBCHEM_CACTVS_COMPLEXITY>
292

> <PUBCHEM_CACTVS_HBOND_ACCEPTOR>
1

> <PUBCHEM_CACTVS_HBOND_DONOR>
0

> <PUBCHEM_CACTVS_ROTATABLE_BOND>
2

> <PUBCHEM_CACTVS_SUBSKEYS>
AAADcYBwIAAAHAAAAAAAAAAAAAAAAAAAAAAwYAAAAAAAAAABQAAAGgBAAAABqASAkAAwBoAABACAACBCAAACCAAgIAQAiAAGCKgMJiKEMRqCOCCkwBEIqheAQAAAABAEAIAgBAEAIAgBAEAIAgAAAAAAAA==

> <PUBCHEM_IUPAC_OPENEYE_NAME>
1,2,4-tribromo-5-(2,4,6-tribromophenoxy)benzene

> <PUBCHEM_IUPAC_CAS_NAME>
1,2,4-tribromo-5-(2,4,6-tribromophenoxy)benzene

> <PUBCHEM_IUPAC_NAME>
1,2,4-tribromo-5-(2,4,6-tribromophenoxy)benzene

> <PUBCHEM_IUPAC_SYSTEMATIC_NAME>
1,2,4-tris(bromanyl)-5-[2,4,6-tris(bromanyl)phenoxy]benzene

> <PUBCHEM_IUPAC_TRADITIONAL_NAME>
1,2,4-tribromo-5-(2,4,6-tribromophenoxy)benzene

> <PUBCHEM_IUPAC_INCHI>
InChI=1S/C12H4Br6O/c13-5-1-9(17)12(10(18)2-5)19-11-4-7(15)6(14)3-8(11)16/h1-4H

> <PUBCHEM_IUPAC_INCHIKEY>
VHNPZYZQKWIWOD-UHFFFAOYSA-N

> <PUBCHEM_XLOGP3_AA>
7.6

> <PUBCHEM_EXACT_MASS>
643.530098

> <PUBCHEM_MOLECULAR_FORMULA>
C12H4Br6O

> <PUBCHEM_MOLECULAR_WEIGHT>
643.58356

> <PUBCHEM_OPENEYE_CAN_SMILES>
C1=C(C=C(C(=C1Br)OC2=CC(=C(C=C2Br)Br)Br)Br)Br

> <PUBCHEM_OPENEYE_ISO_SMILES>
C1=C(C=C(C(=C1Br)OC2=CC(=C(C=C2Br)Br)Br)Br)Br

> <PUBCHEM_CACTVS_TPSA>
9.2

> <PUBCHEM_MONOISOTOPIC_WEIGHT>
637.536237

> <PUBCHEM_TOTAL_CHARGE>
0

> <PUBCHEM_HEAVY_ATOM_COUNT>
19

> <PUBCHEM_ATOM_DEF_STEREO_COUNT>
0

> <PUBCHEM_ATOM_UDEF_STEREO_COUNT>
0

> <PUBCHEM_BOND_DEF_STEREO_COUNT>
0

> <PUBCHEM_BOND_UDEF_STEREO_COUNT>
0

> <PUBCHEM_ISOTOPIC_ATOM_COUNT>
0

> <PUBCHEM_COMPONENT_COUNT>
1

> <PUBCHEM_CACTVS_TAUTO_COUNT>
1

> <PUBCHEM_COORDINATE_TYPE>
1
5
255

> <PUBCHEM_BONDANNOTATIONS>
10  15  8
11  14  8
12  16  8
13  17  8
14  18  8
15  18  8
16  19  8
17  19  8
8  10  8
8  11  8
9  12  8
9  13  8

$$$$

