63224
  -OEChem-07051213003D

 41 43  0     1  0  0  0  0  0999 V2000
    5.4249    1.2776    0.2918 O   0  0  0  0  0  0  0  0  0  0  0  0
    0.8960    1.3429   -1.2834 O   0  0  0  0  0  0  0  0  0  0  0  0
   -0.9595   -0.6689    1.6607 O   0  0  0  0  0  0  0  0  0  0  0  0
    2.5833   -1.0565   -0.2258 N   0  0  0  0  0  0  0  0  0  0  0  0
   -1.2306    1.3125    0.4601 N   0  0  0  0  0  0  0  0  0  0  0  0
   -3.2002    1.6487   -0.8623 N   0  0  0  0  0  0  0  0  0  0  0  0
    3.3112    0.2186   -0.2240 C   0  0  2  0  0  0  0  0  0  0  0  0
    4.7044    0.0535    0.4071 C   0  0  1  0  0  0  0  0  0  0  0  0
    5.4971   -1.0531   -0.2886 C   0  0  0  0  0  0  0  0  0  0  0  0
    4.6882   -2.3419   -0.3477 C   0  0  0  0  0  0  0  0  0  0  0  0
    3.3094   -2.0963   -0.9542 C   0  0  0  0  0  0  0  0  0  0  0  0
    2.4807    1.2578    0.5337 C   0  0  0  0  0  0  0  0  0  0  0  0
    1.1079    1.4510   -0.0759 C   0  0  0  0  0  0  0  0  0  0  0  0
    0.0202    1.8575    0.8970 C   0  0  0  0  0  0  0  0  0  0  0  0
   -1.6231    0.0358    0.9063 C   0  0  0  0  0  0  0  0  0  0  0  0
   -2.0562    2.0338   -0.4011 C   0  0  0  0  0  0  0  0  0  0  0  0
   -2.9304   -0.4423    0.4007 C   0  0  0  0  0  0  0  0  0  0  0  0
   -3.6631    0.3840   -0.4621 C   0  0  0  0  0  0  0  0  0  0  0  0
   -3.4200   -1.6966    0.7799 C   0  0  0  0  0  0  0  0  0  0  0  0
   -4.8978   -0.0679   -0.9409 C   0  0  0  0  0  0  0  0  0  0  0  0
   -4.6522   -2.1313    0.2938 C   0  0  0  0  0  0  0  0  0  0  0  0
   -5.3901   -1.3190   -0.5652 C   0  0  0  0  0  0  0  0  0  0  0  0
    3.4272    0.5712   -1.2586 H   0  0  0  0  0  0  0  0  0  0  0  0
    4.6085   -0.1781    1.4755 H   0  0  0  0  0  0  0  0  0  0  0  0
    6.4461   -1.2223    0.2337 H   0  0  0  0  0  0  0  0  0  0  0  0
    5.7674   -0.7336   -1.3035 H   0  0  0  0  0  0  0  0  0  0  0  0
    5.2264   -3.0906   -0.9397 H   0  0  0  0  0  0  0  0  0  0  0  0
    4.5788   -2.7519    0.6644 H   0  0  0  0  0  0  0  0  0  0  0  0
    3.4020   -1.8211   -2.0119 H   0  0  0  0  0  0  0  0  0  0  0  0
    2.7304   -3.0254   -0.9147 H   0  0  0  0  0  0  0  0  0  0  0  0
    1.6665   -0.9356   -0.6548 H   0  0  0  0  0  0  0  0  0  0  0  0
    2.3688    0.9429    1.5781 H   0  0  0  0  0  0  0  0  0  0  0  0
    2.9751    2.2356    0.5340 H   0  0  0  0  0  0  0  0  0  0  0  0
    6.2959    1.1447    0.7032 H   0  0  0  0  0  0  0  0  0  0  0  0
    0.2521    1.4857    1.8992 H   0  0  0  0  0  0  0  0  0  0  0  0
   -0.0207    2.9513    0.9226 H   0  0  0  0  0  0  0  0  0  0  0  0
   -1.6484    3.0166   -0.6864 H   0  0  0  0  0  0  0  0  0  0  0  0
   -2.8595   -2.3443    1.4481 H   0  0  0  0  0  0  0  0  0  0  0  0
   -5.4857    0.5540   -1.6118 H   0  0  0  0  0  0  0  0  0  0  0  0
   -5.0374   -3.1043    0.5845 H   0  0  0  0  0  0  0  0  0  0  0  0
   -6.3499   -1.6596   -0.9431 H   0  0  0  0  0  0  0  0  0  0  0  0
  1  8  1  0  0  0  0
  1 34  1  0  0  0  0
  2 13  2  0  0  0  0
  3 15  2  0  0  0  0
  4  7  1  0  0  0  0
  4 11  1  0  0  0  0
  4 31  1  0  0  0  0
  5 14  1  0  0  0  0
  5 15  1  0  0  0  0
  5 16  1  0  0  0  0
  6 16  2  0  0  0  0
  6 18  1  0  0  0  0
  7  8  1  0  0  0  0
  7 12  1  0  0  0  0
  7 23  1  0  0  0  0
  8  9  1  0  0  0  0
  8 24  1  0  0  0  0
  9 10  1  0  0  0  0
  9 25  1  0  0  0  0
  9 26  1  0  0  0  0
 10 11  1  0  0  0  0
 10 27  1  0  0  0  0
 10 28  1  0  0  0  0
 11 29  1  0  0  0  0
 11 30  1  0  0  0  0
 12 13  1  0  0  0  0
 12 32  1  0  0  0  0
 12 33  1  0  0  0  0
 13 14  1  0  0  0  0
 14 35  1  0  0  0  0
 14 36  1  0  0  0  0
 15 17  1  0  0  0  0
 16 37  1  0  0  0  0
 17 18  1  0  0  0  0
 17 19  2  0  0  0  0
 18 20  2  0  0  0  0
 19 21  1  0  0  0  0
 19 38  1  0  0  0  0
 20 22  1  0  0  0  0
 20 39  1  0  0  0  0
 21 22  2  0  0  0  0
 21 40  1  0  0  0  0
 22 41  1  0  0  0  0
M  END
> <PUBCHEM_COMPOUND_CID>
63224

> <PUBCHEM_CONFORMER_RMSD>
0.8

> <PUBCHEM_CONFORMER_DIVERSEORDER>
1
72
188
154
133
186
117
171
36
180
81
167
104
60
76
157
112
146
145
119
38
179
31
155
97
139
195
111
93
87
125
134
5
13
53
192
20
3
44
67
58
30
35
88
82
15
127
129
191
103
189
27
2
101
175
118
45
115
141
163
169
19
86
185
108
75
184
16
24
122
190
159
150
160
149
17
174
128
110
130
94
99
25
41
161
153
168
147
9
7
131
73
156
137
18
77
90
107
51
182
85
121
22
61
89
151
28
123
69
21
124
10
74
83
42
100
49
106
170
84
78
4
79
46
196
68
187
32
29
57
14
126
6
173
26
95
102
113
70
164
177
52
135
40
12
143
56
181
120
43
158
194
34
47
140
193
23
178
98
152
92
183
8
116
11
172
136
65
132
39
55
37
91
166
105
59
96
50
114
109
165
80
71
162
176
138
142
66
144
33
64
54
62
48
63
148

> <PUBCHEM_MMFF94_PARTIAL_CHARGES>
27
1 -0.68
11 0.27
12 0.06
13 0.45
14 0.36
15 0.54
16 0.45
17 0.09
18 0.18
19 -0.15
2 -0.57
20 -0.15
21 -0.15
22 -0.15
3 -0.57
31 0.36
34 0.4
37 0.06
38 0.15
39 0.15
4 -0.9
40 0.15
41 0.15
5 -0.42
6 -0.63
7 0.27
8 0.28

> <PUBCHEM_EFFECTIVE_ROTOR_COUNT>
5.2

> <PUBCHEM_PHARMACOPHORE_FEATURES>
9
1 1 acceptor
1 1 donor
1 2 acceptor
1 3 acceptor
1 4 cation
1 4 donor
6 17 18 19 20 21 22 rings
6 4 7 8 9 10 11 rings
6 5 6 15 16 17 18 rings

> <PUBCHEM_HEAVY_ATOM_COUNT>
22

> <PUBCHEM_ATOM_DEF_STEREO_COUNT>
2

> <PUBCHEM_ATOM_UDEF_STEREO_COUNT>
0

> <PUBCHEM_BOND_DEF_STEREO_COUNT>
0

> <PUBCHEM_BOND_UDEF_STEREO_COUNT>
0

> <PUBCHEM_ISOTOPIC_ATOM_COUNT>
0

> <PUBCHEM_COMPONENT_COUNT>
1

> <PUBCHEM_CACTVS_TAUTO_COUNT>
3

> <PUBCHEM_CONFORMER_ID>
0000F6F800000001

> <PUBCHEM_MMFF94_ENERGY>
40.671

> <PUBCHEM_FEATURE_SELFOVERLAP>
45.698

> <PUBCHEM_SHAPE_FINGERPRINT>
10447042 23 18334861606432160550
10835480 77 18409740559728412860
108634 29 18272360941667294994
11796584 16 18343310274801075771
12596602 18 16009034947223723170
12954195 1 18340777043820722093
13402501 40 18409448068118084519
13544653 18 18334571352173148488
14251751 18 18341048519469885343
14341114 328 14201402659741045642
14790565 3 17546449342089317233
14866123 147 18191019209194349985
15163728 17 15194181503212806583
15183329 4 17489316295020039291
15196674 1 18409166640617596486
15352361 1 18409446990043934750
15537594 2 17749109946292661318
17834072 14 18411135857331825278
17870717 6 18201434800717205375
193927 3 18260257573191418918
19784866 170 6699817492147902201
200 152 18040718060635158737
20261772 1 17748830709131334742
20374829 77 18343588421452490425
20403669 9 18335697264891241615
20645477 70 18340488876767694048
21033650 10 17131269207064520244
21250096 35 18260547818327739649
22393880 68 18200881797887111338
23403322 49 18410011052599490601
23559900 14 18341338781781190289
25122255 55 18261948635012971262
2838139 119 13614252472699159399
2871803 45 18342739628572377474
3004659 81 18273497875339072746
314194 84 17968101888878104476
46194498 28 17917431952148037741
463206 1 18263082124137834951
474 4 11311787167490066289
5104073 3 18114183090097516016
5283173 99 18200317744043069516
7808743 9 9294992557978067358
9709674 26 18271520914324062328

> <PUBCHEM_SHAPE_MULTIPOLES>
420.2
13.08
2.49
1.06
4.95
0.42
-0.07
6.94
1.91
0.33
0.17
-0.46
0
1.15

> <PUBCHEM_SHAPE_SELFOVERLAP>
895.014

> <PUBCHEM_SHAPE_VOLUME>
230.5

> <PUBCHEM_COORDINATE_TYPE>
2
5
10

$$$$

