596894
  -OEChem-07051213093D

 24 25  0     0  0  0  0  0  0999 V2000
    2.4406   -1.7315    0.1741 O   0  0  0  0  0  0  0  0  0  0  0  0
    3.3361    0.4729   -0.2082 O   0  0  0  0  0  0  0  0  0  0  0  0
   -1.0460    2.4655   -0.1845 O   0  0  0  0  0  0  0  0  0  0  0  0
   -2.9045    0.7958    0.7308 O   0  0  0  0  0  0  0  0  0  0  0  0
   -0.7375    0.1016    0.1364 C   0  0  0  0  0  0  0  0  0  0  0  0
    1.4673   -0.7827    0.1075 C   0  0  0  0  0  0  0  0  0  0  0  0
    1.9786    0.4761   -0.1107 C   0  0  0  0  0  0  0  0  0  0  0  0
    0.1115   -1.0033    0.2357 C   0  0  0  0  0  0  0  0  0  0  0  0
   -0.2151    1.3879   -0.0866 C   0  0  0  0  0  0  0  0  0  0  0  0
    1.1622    1.5839   -0.2126 C   0  0  0  0  0  0  0  0  0  0  0  0
   -2.1740   -0.1017    0.2663 C   0  0  0  0  0  0  0  0  0  0  0  0
   -2.8017   -1.4352   -0.1729 C   0  0  0  0  0  0  0  0  0  0  0  0
    3.6219   -0.9290   -0.0262 C   0  0  0  0  0  0  0  0  0  0  0  0
   -4.2396   -1.3001   -0.6492 C   0  0  0  0  0  0  0  0  0  0  0  0
   -0.2552   -2.0068    0.4214 H   0  0  0  0  0  0  0  0  0  0  0  0
    1.5827    2.5687   -0.3852 H   0  0  0  0  0  0  0  0  0  0  0  0
   -2.2135   -1.8545   -0.9967 H   0  0  0  0  0  0  0  0  0  0  0  0
   -2.7568   -2.1258    0.6760 H   0  0  0  0  0  0  0  0  0  0  0  0
    4.2759   -1.0435    0.8459 H   0  0  0  0  0  0  0  0  0  0  0  0
    4.1501   -1.2974   -0.9130 H   0  0  0  0  0  0  0  0  0  0  0  0
   -4.3099   -0.5885   -1.4784 H   0  0  0  0  0  0  0  0  0  0  0  0
   -4.6225   -2.2672   -0.9890 H   0  0  0  0  0  0  0  0  0  0  0  0
   -4.8876   -0.9400    0.1564 H   0  0  0  0  0  0  0  0  0  0  0  0
   -0.5127    3.2643   -0.3377 H   0  0  0  0  0  0  0  0  0  0  0  0
  1  6  1  0  0  0  0
  1 13  1  0  0  0  0
  2  7  1  0  0  0  0
  2 13  1  0  0  0  0
  3  9  1  0  0  0  0
  3 24  1  0  0  0  0
  4 11  2  0  0  0  0
  5  8  2  0  0  0  0
  5  9  1  0  0  0  0
  5 11  1  0  0  0  0
  6  7  2  0  0  0  0
  6  8  1  0  0  0  0
  7 10  1  0  0  0  0
  8 15  1  0  0  0  0
  9 10  2  0  0  0  0
 10 16  1  0  0  0  0
 11 12  1  0  0  0  0
 12 14  1  0  0  0  0
 12 17  1  0  0  0  0
 12 18  1  0  0  0  0
 13 19  1  0  0  0  0
 13 20  1  0  0  0  0
 14 21  1  0  0  0  0
 14 22  1  0  0  0  0
 14 23  1  0  0  0  0
M  END
> <PUBCHEM_COMPOUND_CID>
596894

> <PUBCHEM_CONFORMER_RMSD>
0.6

> <PUBCHEM_CONFORMER_DIVERSEORDER>
1
5
2
6
3
4

> <PUBCHEM_MMFF94_PARTIAL_CHARGES>
16
1 -0.36
10 -0.15
11 0.42
12 0.06
13 0.56
15 0.15
16 0.15
2 -0.36
24 0.45
3 -0.53
4 -0.57
5 0.09
6 0.08
7 0.08
8 -0.15
9 0.08

> <PUBCHEM_EFFECTIVE_ROTOR_COUNT>
2.6

> <PUBCHEM_PHARMACOPHORE_FEATURES>
7
1 1 acceptor
1 14 hydrophobe
1 2 acceptor
1 3 donor
1 4 acceptor
5 1 2 6 7 13 rings
6 5 6 7 8 9 10 rings

> <PUBCHEM_HEAVY_ATOM_COUNT>
14

> <PUBCHEM_ATOM_DEF_STEREO_COUNT>
0

> <PUBCHEM_ATOM_UDEF_STEREO_COUNT>
0

> <PUBCHEM_BOND_DEF_STEREO_COUNT>
0

> <PUBCHEM_BOND_UDEF_STEREO_COUNT>
0

> <PUBCHEM_ISOTOPIC_ATOM_COUNT>
0

> <PUBCHEM_COMPONENT_COUNT>
1

> <PUBCHEM_CACTVS_TAUTO_COUNT>
7

> <PUBCHEM_CONFORMER_ID>
00091B9E00000001

> <PUBCHEM_MMFF94_ENERGY>
33.8558

> <PUBCHEM_FEATURE_SELFOVERLAP>
35.675

> <PUBCHEM_SHAPE_FINGERPRINT>
10967382 1 18267302028163100498
11132069 177 18335985358459579882
11206711 2 18201152251851081884
11471102 20 18341616962374845647
11543360 7 15338825418235930026
11769659 78 18408325501079087106
11806522 49 18264492788876159383
12032990 46 18411976932008469123
14144814 61 18410008831969744283
14251717 144 18339645529447001022
14576447 43 18191031105726297599
14993402 34 18335980874376871663
15477762 27 18266744580310978175
15757776 16 18341057332431442783
16945 1 18343293752278243576
18186145 218 17060618888919733979
19422 9 18334007298254785582
200 152 18260836964643763031
20201158 50 18272933791008221035
20645477 70 18338520729505739863
20871998 184 18114465659805518575
21267235 1 18410283701250096599
21501502 16 18339920523581838512
21501925 9 18337399257361662394
221490 88 17910110210051630355
23402539 116 18341620342952100326
23402655 69 18411986858141743853
23463225 33 18410570686658876351
23552423 10 18272645749116003548
23559900 14 17831301967429059214
2748010 2 17765138480826297200
7364860 26 18117279142489051608

> <PUBCHEM_SHAPE_MULTIPOLES>
264.64
6.09
1.98
0.68
2.11
0.7
0
-2.96
0.67
0.14
0.11
0.22
-0.01
-0.44

> <PUBCHEM_SHAPE_SELFOVERLAP>
572.438

> <PUBCHEM_SHAPE_VOLUME>
146

> <PUBCHEM_COORDINATE_TYPE>
2
5
10

$$$$

