5281866
  -OEChem-07051213002D

 39 40  0     0  0  0  0  0  0999 V2000
    6.3301    1.1550    0.0000 O   0  0  0  0  0  0  0  0  0  0  0  0
    2.8660    0.1550    0.0000 O   0  0  0  0  0  0  0  0  0  0  0  0
    7.1962   -4.3450    0.0000 O   0  0  0  0  0  0  0  0  0  0  0  0
    4.5981    1.1550    0.0000 C   0  0  0  0  0  0  0  0  0  0  0  0
    4.5981    0.1550    0.0000 C   0  0  0  0  0  0  0  0  0  0  0  0
    3.7320    2.6550    0.0000 C   0  0  0  0  0  0  0  0  0  0  0  0
    3.7320    1.6550    0.0000 C   0  0  0  0  0  0  0  0  0  0  0  0
    5.4641    1.6550    0.0000 C   0  0  0  0  0  0  0  0  0  0  0  0
    5.4641   -0.3450    0.0000 C   0  0  0  0  0  0  0  0  0  0  0  0
    3.7320   -0.3450    0.0000 C   0  0  0  0  0  0  0  0  0  0  0  0
    2.8660    3.1550    0.0000 C   0  0  0  0  0  0  0  0  0  0  0  0
    5.4641   -1.3450    0.0000 C   0  0  0  0  0  0  0  0  0  0  0  0
    4.5981    3.1550    0.0000 C   0  0  0  0  0  0  0  0  0  0  0  0
    5.4641    2.6550    0.0000 C   0  0  0  0  0  0  0  0  0  0  0  0
    3.7320   -1.3450    0.0000 C   0  0  0  0  0  0  0  0  0  0  0  0
    4.5981   -1.8450    0.0000 C   0  0  0  0  0  0  0  0  0  0  0  0
    6.3301   -1.8450    0.0000 C   0  0  0  0  0  0  0  0  0  0  0  0
    2.8660    4.1550    0.0000 C   0  0  0  0  0  0  0  0  0  0  0  0
    6.3301   -2.8450    0.0000 C   0  0  0  0  0  0  0  0  0  0  0  0
    7.1962   -3.3450    0.0000 C   0  0  0  0  0  0  0  0  0  0  0  0
    2.0000    4.6550    0.0000 C   0  0  0  0  0  0  0  0  0  0  0  0
    3.1951    1.3450    0.0000 H   0  0  0  0  0  0  0  0  0  0  0  0
    6.0010   -0.0350    0.0000 H   0  0  0  0  0  0  0  0  0  0  0  0
    2.2554    3.2627    0.0000 H   0  0  0  0  0  0  0  0  0  0  0  0
    2.6540    2.5724    0.0000 H   0  0  0  0  0  0  0  0  0  0  0  0
    4.5981    3.7750    0.0000 H   0  0  0  0  0  0  0  0  0  0  0  0
    6.0010    2.9650    0.0000 H   0  0  0  0  0  0  0  0  0  0  0  0
    3.1951   -1.6550    0.0000 H   0  0  0  0  0  0  0  0  0  0  0  0
    4.5981   -2.4650    0.0000 H   0  0  0  0  0  0  0  0  0  0  0  0
    6.8671   -1.5350    0.0000 H   0  0  0  0  0  0  0  0  0  0  0  0
    3.4030    4.4650    0.0000 H   0  0  0  0  0  0  0  0  0  0  0  0
    6.8671    1.4650    0.0000 H   0  0  0  0  0  0  0  0  0  0  0  0
    5.7932   -3.1550    0.0000 H   0  0  0  0  0  0  0  0  0  0  0  0
    2.3291   -0.1550    0.0000 H   0  0  0  0  0  0  0  0  0  0  0  0
    7.8067   -3.4527    0.0000 H   0  0  0  0  0  0  0  0  0  0  0  0
    7.4082   -2.7624    0.0000 H   0  0  0  0  0  0  0  0  0  0  0  0
    2.0000    5.2750    0.0000 H   0  0  0  0  0  0  0  0  0  0  0  0
    1.4631    4.3450    0.0000 H   0  0  0  0  0  0  0  0  0  0  0  0
    7.7331   -4.6550    0.0000 H   0  0  0  0  0  0  0  0  0  0  0  0
  1  8  1  0  0  0  0
  1 32  1  0  0  0  0
  2 10  1  0  0  0  0
  2 34  1  0  0  0  0
  3 20  1  0  0  0  0
  3 39  1  0  0  0  0
  4  5  1  0  0  0  0
  4  7  1  0  0  0  0
  4  8  2  0  0  0  0
  5  9  1  0  0  0  0
  5 10  2  0  0  0  0
  6  7  2  0  0  0  0
  6 11  1  0  0  0  0
  6 13  1  0  0  0  0
  7 22  1  0  0  0  0
  8 14  1  0  0  0  0
  9 12  2  0  0  0  0
  9 23  1  0  0  0  0
 10 15  1  0  0  0  0
 11 18  1  0  0  0  0
 11 24  1  0  0  0  0
 11 25  1  0  0  0  0
 12 16  1  0  0  0  0
 12 17  1  0  0  0  0
 13 14  2  0  0  0  0
 13 26  1  0  0  0  0
 14 27  1  0  0  0  0
 15 16  2  0  0  0  0
 15 28  1  0  0  0  0
 16 29  1  0  0  0  0
 17 19  2  0  0  0  0
 17 30  1  0  0  0  0
 18 21  2  0  0  0  0
 18 31  1  0  0  0  0
 19 20  1  0  0  0  0
 19 33  1  0  0  0  0
 20 35  1  0  0  0  0
 20 36  1  0  0  0  0
 21 37  1  0  0  0  0
 21 38  1  0  0  0  0
M  END
> <PUBCHEM_COMPOUND_CID>
5281866

> <PUBCHEM_COMPOUND_CANONICALIZED>
1

> <PUBCHEM_CACTVS_COMPLEXITY>
352

> <PUBCHEM_CACTVS_HBOND_ACCEPTOR>
3

> <PUBCHEM_CACTVS_HBOND_DONOR>
3

> <PUBCHEM_CACTVS_ROTATABLE_BOND>
5

> <PUBCHEM_CACTVS_SUBSKEYS>
AAADceB4MAAAAAAAAAAAAAAAAAAAAAAAAAAwYAAAAAAAAAABQAAAGgAACAAADASgmAIwBoAAAgCAAiBCAAACAAAgIAAIiAAGCIgINiKCERKAcAAkwBEImAfAwPAOoAACAAAIAABAAAQAABAAAAAAAAAAAA==

> <PUBCHEM_IUPAC_OPENEYE_NAME>
4-allyl-2-[2-hydroxy-5-[(E)-3-hydroxyprop-1-enyl]phenyl]phenol

> <PUBCHEM_IUPAC_CAS_NAME>
2-[2-hydroxy-5-[(E)-3-hydroxyprop-1-enyl]phenyl]-4-prop-2-enylphenol

> <PUBCHEM_IUPAC_NAME>
2-[2-hydroxy-5-[(E)-3-hydroxyprop-1-enyl]phenyl]-4-prop-2-enylphenol

> <PUBCHEM_IUPAC_SYSTEMATIC_NAME>
2-[2-oxidanyl-5-[(E)-3-oxidanylprop-1-enyl]phenyl]-4-prop-2-enyl-phenol

> <PUBCHEM_IUPAC_TRADITIONAL_NAME>
4-allyl-2-[2-hydroxy-5-[(E)-3-hydroxyprop-1-enyl]phenyl]phenol

> <PUBCHEM_IUPAC_INCHI>
InChI=1S/C18H18O3/c1-2-4-13-6-8-17(20)15(11-13)16-12-14(5-3-10-19)7-9-18(16)21/h2-3,5-9,11-12,19-21H,1,4,10H2/b5-3+

> <PUBCHEM_IUPAC_INCHIKEY>
OUJJWPMPNAGHRR-HWKANZROSA-N

> <PUBCHEM_XLOGP3_AA>
3.7

> <PUBCHEM_EXACT_MASS>
282.125594

> <PUBCHEM_MOLECULAR_FORMULA>
C18H18O3

> <PUBCHEM_MOLECULAR_WEIGHT>
282.33372

> <PUBCHEM_OPENEYE_CAN_SMILES>
C=CCC1=CC(=C(C=C1)O)C2=C(C=CC(=C2)C=CCO)O

> <PUBCHEM_OPENEYE_ISO_SMILES>
C=CCC1=CC(=C(C=C1)O)C2=C(C=CC(=C2)/C=C/CO)O

> <PUBCHEM_CACTVS_TPSA>
60.7

> <PUBCHEM_MONOISOTOPIC_WEIGHT>
282.125594

> <PUBCHEM_TOTAL_CHARGE>
0

> <PUBCHEM_HEAVY_ATOM_COUNT>
21

> <PUBCHEM_ATOM_DEF_STEREO_COUNT>
0

> <PUBCHEM_ATOM_UDEF_STEREO_COUNT>
0

> <PUBCHEM_BOND_DEF_STEREO_COUNT>
1

> <PUBCHEM_BOND_UDEF_STEREO_COUNT>
0

> <PUBCHEM_ISOTOPIC_ATOM_COUNT>
0

> <PUBCHEM_COMPONENT_COUNT>
1

> <PUBCHEM_CACTVS_TAUTO_COUNT>
63

> <PUBCHEM_COORDINATE_TYPE>
1
5
255

> <PUBCHEM_BONDANNOTATIONS>
10  15  8
12  16  8
13  14  8
15  16  8
4  7  8
4  8  8
5  10  8
5  9  8
6  13  8
6  7  8
8  14  8
9  12  8

$$$$

