52940204
  -OEChem-07051213152D

 65 67  0     1  0  0  0  0  0999 V2000
    7.7331   -0.0950    0.0000 O   0  0  0  0  0  0  0  0  0  0  0  0
    6.8671    2.4050    0.0000 O   0  0  0  0  0  0  0  0  0  0  0  0
    6.8671   -1.5950    0.0000 O   0  0  0  0  0  0  0  0  0  0  0  0
    5.1350    2.4050    0.0000 O   0  0  0  0  0  0  0  0  0  0  0  0
    9.4651   -3.0950    0.0000 O   0  0  0  0  0  0  0  0  0  0  0  0
    5.1350    1.4050    0.0000 O   0  0  0  0  0  0  0  0  0  0  0  0
    5.1350   -0.5950    0.0000 O   0  0  0  0  0  0  0  0  0  0  0  0
    6.8671   -3.5950    0.0000 O   0  0  0  0  0  0  0  0  0  0  0  0
    6.8671    4.4050    0.0000 O   0  0  0  0  0  0  0  0  0  0  0  0
    8.5991   -0.5950    0.0000 O   0  0  0  0  0  0  0  0  0  0  0  0
    5.1350    5.4050    0.0000 O   0  0  0  0  0  0  0  0  0  0  0  0
    3.4030    4.4050    0.0000 O   0  0  0  0  0  0  0  0  0  0  0  0
   10.3312   -1.5950    0.0000 O   0  0  0  0  0  0  0  0  0  0  0  0
    9.4651   -5.0950    0.0000 O   0  0  0  0  0  0  0  0  0  0  0  0
    2.5369    2.9050    0.0000 O   0  0  0  0  0  0  0  0  0  0  0  0
    6.8671    1.4050    0.0000 C   0  0  2  0  0  0  0  0  0  0  0  0
    6.0010    0.9050    0.0000 C   0  0  2  0  0  0  0  0  0  0  0  0
    6.0010   -0.0950    0.0000 C   0  0  2  0  0  0  0  0  0  0  0  0
    7.7331    0.9050    0.0000 C   0  0  2  0  0  0  0  0  0  0  0  0
    6.8671   -0.5950    0.0000 C   0  0  1  0  0  0  0  0  0  0  0  0
    7.7331   -2.0950    0.0000 C   0  0  1  0  0  0  0  0  0  0  0  0
    6.0010    2.9050    0.0000 C   0  0  2  0  0  0  0  0  0  0  0  0
    7.7331   -3.0950    0.0000 C   0  0  1  0  0  0  0  0  0  0  0  0
    6.0010    3.9050    0.0000 C   0  0  1  0  0  0  0  0  0  0  0  0
    8.5991   -1.5950    0.0000 C   0  0  2  0  0  0  0  0  0  0  0  0
    5.1350    4.4050    0.0000 C   0  0  2  0  0  0  0  0  0  0  0  0
    4.2690    3.9050    0.0000 C   0  0  1  0  0  0  0  0  0  0  0  0
    8.5991   -3.5950    0.0000 C   0  0  1  0  0  0  0  0  0  0  0  0
    4.2690    2.9050    0.0000 C   0  0  1  0  0  0  0  0  0  0  0  0
    9.4651   -2.0950    0.0000 C   0  0  1  0  0  0  0  0  0  0  0  0
    8.5991    1.4050    0.0000 C   0  0  0  0  0  0  0  0  0  0  0  0
    8.5991   -4.5950    0.0000 C   0  0  0  0  0  0  0  0  0  0  0  0
    3.4030    2.4050    0.0000 C   0  0  0  0  0  0  0  0  0  0  0  0
    6.3301    1.7150    0.0000 H   0  0  0  0  0  0  0  0  0  0  0  0
    5.4641    0.5950    0.0000 H   0  0  0  0  0  0  0  0  0  0  0  0
    5.4641    0.2150    0.0000 H   0  0  0  0  0  0  0  0  0  0  0  0
    8.2700    0.5950    0.0000 H   0  0  0  0  0  0  0  0  0  0  0  0
    6.3301   -0.9050    0.0000 H   0  0  0  0  0  0  0  0  0  0  0  0
    7.7331   -1.4750    0.0000 H   0  0  0  0  0  0  0  0  0  0  0  0
    6.5380    3.2150    0.0000 H   0  0  0  0  0  0  0  0  0  0  0  0
    7.7331   -3.7150    0.0000 H   0  0  0  0  0  0  0  0  0  0  0  0
    6.5380    3.5950    0.0000 H   0  0  0  0  0  0  0  0  0  0  0  0
    8.0622   -1.2850    0.0000 H   0  0  0  0  0  0  0  0  0  0  0  0
    5.6720    4.7150    0.0000 H   0  0  0  0  0  0  0  0  0  0  0  0
    3.7320    3.5950    0.0000 H   0  0  0  0  0  0  0  0  0  0  0  0
    9.1360   -3.9050    0.0000 H   0  0  0  0  0  0  0  0  0  0  0  0
    4.2690    2.2850    0.0000 H   0  0  0  0  0  0  0  0  0  0  0  0
    9.4651   -1.4750    0.0000 H   0  0  0  0  0  0  0  0  0  0  0  0
    8.9091    0.8681    0.0000 H   0  0  0  0  0  0  0  0  0  0  0  0
    9.1360    1.7150    0.0000 H   0  0  0  0  0  0  0  0  0  0  0  0
    8.2891    1.9419    0.0000 H   0  0  0  0  0  0  0  0  0  0  0  0
    4.5981    1.0950    0.0000 H   0  0  0  0  0  0  0  0  0  0  0  0
    7.9885   -4.4873    0.0000 H   0  0  0  0  0  0  0  0  0  0  0  0
    8.3871   -5.1776    0.0000 H   0  0  0  0  0  0  0  0  0  0  0  0
    3.0044    1.9300    0.0000 H   0  0  0  0  0  0  0  0  0  0  0  0
    3.8015    1.9300    0.0000 H   0  0  0  0  0  0  0  0  0  0  0  0
    5.1350   -1.2150    0.0000 H   0  0  0  0  0  0  0  0  0  0  0  0
    6.8671   -4.2150    0.0000 H   0  0  0  0  0  0  0  0  0  0  0  0
    6.8671    5.0250    0.0000 H   0  0  0  0  0  0  0  0  0  0  0  0
    9.1360   -0.2850    0.0000 H   0  0  0  0  0  0  0  0  0  0  0  0
    4.5981    5.7150    0.0000 H   0  0  0  0  0  0  0  0  0  0  0  0
    3.4030    5.0250    0.0000 H   0  0  0  0  0  0  0  0  0  0  0  0
   10.8681   -1.9050    0.0000 H   0  0  0  0  0  0  0  0  0  0  0  0
    9.4651   -5.7150    0.0000 H   0  0  0  0  0  0  0  0  0  0  0  0
    2.0000    2.5950    0.0000 H   0  0  0  0  0  0  0  0  0  0  0  0
  1 19  1  0  0  0  0
  1 20  1  0  0  0  0
 16  2  1  1  0  0  0
 22  2  1  6  0  0  0
 20  3  1  1  0  0  0
 21  3  1  6  0  0  0
  4 22  1  0  0  0  0
  4 29  1  0  0  0  0
  5 28  1  0  0  0  0
  5 30  1  0  0  0  0
 17  6  1  6  0  0  0
  6 52  1  0  0  0  0
 18  7  1  6  0  0  0
  7 57  1  0  0  0  0
 23  8  1  1  0  0  0
  8 58  1  0  0  0  0
 24  9  1  1  0  0  0
  9 59  1  0  0  0  0
 25 10  1  1  0  0  0
 10 60  1  0  0  0  0
 26 11  1  6  0  0  0
 11 61  1  0  0  0  0
 27 12  1  1  0  0  0
 12 62  1  0  0  0  0
 30 13  1  6  0  0  0
 13 63  1  0  0  0  0
 14 32  1  0  0  0  0
 14 64  1  0  0  0  0
 15 33  1  0  0  0  0
 15 65  1  0  0  0  0
 16 17  1  0  0  0  0
 16 19  1  0  0  0  0
 16 34  1  0  0  0  0
 17 18  1  0  0  0  0
 17 35  1  0  0  0  0
 18 20  1  0  0  0  0
 18 36  1  0  0  0  0
 19 31  1  6  0  0  0
 19 37  1  0  0  0  0
 20 38  1  0  0  0  0
 21 23  1  0  0  0  0
 21 25  1  0  0  0  0
 21 39  1  0  0  0  0
 22 24  1  0  0  0  0
 22 40  1  0  0  0  0
 23 28  1  0  0  0  0
 23 41  1  0  0  0  0
 24 26  1  0  0  0  0
 24 42  1  0  0  0  0
 25 30  1  0  0  0  0
 25 43  1  0  0  0  0
 26 27  1  0  0  0  0
 26 44  1  0  0  0  0
 27 29  1  0  0  0  0
 27 45  1  0  0  0  0
 28 32  1  6  0  0  0
 28 46  1  0  0  0  0
 29 33  1  6  0  0  0
 29 47  1  0  0  0  0
 30 48  1  0  0  0  0
 31 49  1  0  0  0  0
 31 50  1  0  0  0  0
 31 51  1  0  0  0  0
 32 53  1  0  0  0  0
 32 54  1  0  0  0  0
 33 55  1  0  0  0  0
 33 56  1  0  0  0  0
M  END
> <PUBCHEM_COMPOUND_CID>
52940204

> <PUBCHEM_COMPOUND_CANONICALIZED>
1

> <PUBCHEM_CACTVS_COMPLEXITY>
626

> <PUBCHEM_CACTVS_HBOND_ACCEPTOR>
15

> <PUBCHEM_CACTVS_HBOND_DONOR>
10

> <PUBCHEM_CACTVS_ROTATABLE_BOND>
6

> <PUBCHEM_CACTVS_SUBSKEYS>
AAADcfB4PAAAAAAAAAAAAAAAAAAAAAAAAAAkSJAAAAAAAAAAAAAAGgAACAAACBSwgAMCCAAABgAAAAAAAAAAAAAAAAAAAAAAAAAREAIAAAAiQAAFAAAHAAHAYAwAAAAAAAAAAAAAAAAAAAAAAAAAAAAAAA==

> <PUBCHEM_IUPAC_OPENEYE_NAME>
(2R,3R,4S,5R,6R)-4-[(2S,3R,4S,5R,6S)-3,4-dihydroxy-6-methyl-5-[(2S,3R,4S,5S,6R)-3,4,5-trihydroxy-6-(hydroxymethyl)tetrahydropyran-2-yl]oxy-tetrahydropyran-2-yl]oxy-6-(hydroxymethyl)tetrahydropyran-2,3,5-triol

> <PUBCHEM_IUPAC_CAS_NAME>
(2R,3R,4S,5R,6R)-4-[[(2S,3R,4S,5R,6S)-3,4-dihydroxy-6-methyl-5-[[(2S,3R,4S,5S,6R)-3,4,5-trihydroxy-6-(hydroxymethyl)-2-oxanyl]oxy]-2-oxanyl]oxy]-6-(hydroxymethyl)oxane-2,3,5-triol

> <PUBCHEM_IUPAC_NAME>
(2R,3R,4S,5R,6R)-4-[(2S,3R,4S,5R,6S)-3,4-dihydroxy-6-methyl-5-[(2S,3R,4S,5S,6R)-3,4,5-trihydroxy-6-(hydroxymethyl)oxan-2-yl]oxyoxan-2-yl]oxy-6-(hydroxymethyl)oxane-2,3,5-triol

> <PUBCHEM_IUPAC_SYSTEMATIC_NAME>
(2R,3R,4S,5R,6R)-6-(hydroxymethyl)-4-[(2S,3R,4S,5R,6S)-5-[(2S,3R,4S,5S,6R)-6-(hydroxymethyl)-3,4,5-tris(oxidanyl)oxan-2-yl]oxy-6-methyl-3,4-bis(oxidanyl)oxan-2-yl]oxy-oxane-2,3,5-triol

> <PUBCHEM_IUPAC_TRADITIONAL_NAME>
(2R,3R,4S,5R,6R)-4-[(2S,3R,4S,5R,6S)-3,4-dihydroxy-6-methyl-5-[(2S,3R,4S,5S,6R)-3,4,5-trihydroxy-6-methylol-tetrahydropyran-2-yl]oxy-tetrahydropyran-2-yl]oxy-6-methylol-tetrahydropyran-2,3,5-triol

> <PUBCHEM_IUPAC_INCHI>
InChI=1S/C18H32O15/c1-4-14(32-18-11(25)9(23)7(21)5(2-19)31-18)10(24)12(26)17(29-4)33-15-8(22)6(3-20)30-16(28)13(15)27/h4-28H,2-3H2,1H3/t4-,5+,6+,7+,8+,9-,10-,11+,12+,13+,14-,15-,16+,17-,18-/m0/s1

> <PUBCHEM_IUPAC_INCHIKEY>
CWVRQJBCBCTFLT-XXFCETQUSA-N

> <PUBCHEM_XLOGP3_AA>
-5.3

> <PUBCHEM_EXACT_MASS>
488.17412

> <PUBCHEM_MOLECULAR_FORMULA>
C18H32O15

> <PUBCHEM_MOLECULAR_WEIGHT>
488.43768

> <PUBCHEM_OPENEYE_CAN_SMILES>
CC1C(C(C(C(O1)OC2C(C(OC(C2O)O)CO)O)O)O)OC3C(C(C(C(O3)CO)O)O)O

> <PUBCHEM_OPENEYE_ISO_SMILES>
C[C@H]1[C@@H]([C@H]([C@H]([C@@H](O1)O[C@H]2[C@@H]([C@H](O[C@H]([C@@H]2O)O)CO)O)O)O)O[C@H]3[C@@H]([C@H]([C@@H]([C@H](O3)CO)O)O)O

> <PUBCHEM_CACTVS_TPSA>
248

> <PUBCHEM_MONOISOTOPIC_WEIGHT>
488.17412

> <PUBCHEM_TOTAL_CHARGE>
0

> <PUBCHEM_HEAVY_ATOM_COUNT>
33

> <PUBCHEM_ATOM_DEF_STEREO_COUNT>
15

> <PUBCHEM_ATOM_UDEF_STEREO_COUNT>
0

> <PUBCHEM_BOND_DEF_STEREO_COUNT>
0

> <PUBCHEM_BOND_UDEF_STEREO_COUNT>
0

> <PUBCHEM_ISOTOPIC_ATOM_COUNT>
0

> <PUBCHEM_COMPONENT_COUNT>
1

> <PUBCHEM_CACTVS_TAUTO_COUNT>
1

> <PUBCHEM_COORDINATE_TYPE>
1
5
255

> <PUBCHEM_BONDANNOTATIONS>
25  10  5
26  11  6
27  12  5
30  13  6
19  31  6
16  2  5
22  2  6
28  32  6
29  33  6
20  3  5
21  3  6
17  6  6
18  7  6
23  8  5
24  9  5

$$$$

