47205208
  -OEChem-06241222583D

 25 26  0     0  0  0  0  0  0999 V2000
   -2.0800   -0.8921    0.7048 O   0  0  0  0  0  0  0  0  0  0  0  0
   -0.1705    1.9478   -0.2305 O   0  0  0  0  0  0  0  0  0  0  0  0
    0.4180    0.1432    1.1015 N   0  0  0  0  0  0  0  0  0  0  0  0
    3.2002   -1.1500    0.3231 N   0  0  0  0  0  0  0  0  0  0  0  0
    4.0868   -1.3713   -0.6624 N   0  0  0  0  0  0  0  0  0  0  0  0
   -3.3824   -1.2640    0.3943 N   0  0  0  0  0  0  0  0  0  0  0  0
    1.7567    0.5921    1.4101 C   0  0  0  0  0  0  0  0  0  0  0  0
    2.7526    0.1372    0.3829 C   0  0  0  0  0  0  0  0  0  0  0  0
   -1.7935    0.2871    0.0961 C   0  0  0  0  0  0  0  0  0  0  0  0
   -0.4424    0.8717    0.2955 C   0  0  0  0  0  0  0  0  0  0  0  0
    3.3911    0.8042   -0.6339 C   0  0  0  0  0  0  0  0  0  0  0  0
   -2.8817    0.7137   -0.6181 C   0  0  0  0  0  0  0  0  0  0  0  0
   -3.8408   -0.2897   -0.3968 C   0  0  0  0  0  0  0  0  0  0  0  0
    4.1994   -0.1739   -1.2436 C   0  0  0  0  0  0  0  0  0  0  0  0
   -5.2135   -0.3560   -0.9230 C   0  0  0  0  0  0  0  0  0  0  0  0
    2.0195    0.1897    2.3944 H   0  0  0  0  0  0  0  0  0  0  0  0
    1.7637    1.6856    1.4804 H   0  0  0  0  0  0  0  0  0  0  0  0
    0.1079   -0.7435    1.4889 H   0  0  0  0  0  0  0  0  0  0  0  0
    3.2865    1.8465   -0.8974 H   0  0  0  0  0  0  0  0  0  0  0  0
   -2.9682    1.6138   -1.2089 H   0  0  0  0  0  0  0  0  0  0  0  0
    2.9438   -1.9268    0.9196 H   0  0  0  0  0  0  0  0  0  0  0  0
    4.8655   -0.0640   -2.0872 H   0  0  0  0  0  0  0  0  0  0  0  0
   -5.3531   -1.2577   -1.5283 H   0  0  0  0  0  0  0  0  0  0  0  0
   -5.9413   -0.3744   -0.1052 H   0  0  0  0  0  0  0  0  0  0  0  0
   -5.4408    0.5093   -1.5542 H   0  0  0  0  0  0  0  0  0  0  0  0
  1  6  1  0  0  0  0
  1  9  1  0  0  0  0
  2 10  2  0  0  0  0
  3  7  1  0  0  0  0
  3 10  1  0  0  0  0
  3 18  1  0  0  0  0
  4  5  1  0  0  0  0
  4  8  1  0  0  0  0
  4 21  1  0  0  0  0
  5 14  2  0  0  0  0
  6 13  2  0  0  0  0
  7  8  1  0  0  0  0
  7 16  1  0  0  0  0
  7 17  1  0  0  0  0
  8 11  2  0  0  0  0
  9 10  1  0  0  0  0
  9 12  2  0  0  0  0
 11 14  1  0  0  0  0
 11 19  1  0  0  0  0
 12 13  1  0  0  0  0
 12 20  1  0  0  0  0
 13 15  1  0  0  0  0
 14 22  1  0  0  0  0
 15 23  1  0  0  0  0
 15 24  1  0  0  0  0
 15 25  1  0  0  0  0
M  END
> <PUBCHEM_COMPOUND_CID>
47205208

> <PUBCHEM_CONFORMER_RMSD>
0.6

> <PUBCHEM_CONFORMER_DIVERSEORDER>
1
43
10
57
29
38
49
7
54
27
47
2
21
56
28
32
36
4
48
51
12
46
44
53
24
16
52
26
37
42
55
23
13
40
5
25
50
45
18
30
33
35
3
22
19
39
34
14
41
20
31
11
6
15
17
8
9

> <PUBCHEM_MMFF94_PARTIAL_CHARGES>
20
1 -0.02
10 0.71
11 -0.15
12 -0.15
13 0.11
14 0.14
15 0.18
18 0.37
19 0.15
2 -0.57
20 0.15
21 0.27
22 0.15
3 -0.73
4 0.3
5 -0.71
6 -0.41
7 0.48
8 -0.33
9 0.05

> <PUBCHEM_EFFECTIVE_ROTOR_COUNT>
4

> <PUBCHEM_PHARMACOPHORE_FEATURES>
7
1 2 acceptor
1 3 donor
1 4 donor
1 5 acceptor
1 6 acceptor
5 1 6 9 12 13 rings
5 4 5 8 11 14 rings

> <PUBCHEM_HEAVY_ATOM_COUNT>
15

> <PUBCHEM_ATOM_DEF_STEREO_COUNT>
0

> <PUBCHEM_ATOM_UDEF_STEREO_COUNT>
0

> <PUBCHEM_BOND_DEF_STEREO_COUNT>
0

> <PUBCHEM_BOND_UDEF_STEREO_COUNT>
0

> <PUBCHEM_ISOTOPIC_ATOM_COUNT>
0

> <PUBCHEM_COMPONENT_COUNT>
1

> <PUBCHEM_CACTVS_TAUTO_COUNT>
4

> <PUBCHEM_CONFORMER_ID>
02D04B5800000001

> <PUBCHEM_MMFF94_ENERGY>
8.3202

> <PUBCHEM_FEATURE_SELFOVERLAP>
35.52

> <PUBCHEM_SHAPE_FINGERPRINT>
10465860 71 18202845439538773589
11543360 7 17917987257054175918
122479 349 11239705384112113152
12251169 10 6915972656516574656
12616999 72 17203335519558608915
12892183 10 5545201597225662022
13675066 3 5833997143654716281
14252887 29 16153707639772253190
14366163 111 17060624399368244565
15239191 94 17603585235733572182
15885798 251 16226044500614500521
17846911 113 9295290551646879019
17862501 102 14562535059482819485
18186145 218 17060618897499235896
20279233 1 18335146358194488258
20281407 28 18114181934329228600
20281475 54 18187079606853694986
20374829 77 18336271214160728315
20432913 95 16588021320622381198
20645476 183 16917349203937798691
20645477 70 17676492735095732540
20671657 53 18260828193740607760
20871999 31 18273213118722790765
21065199 12 6627475090233211294
21119208 17 17561082514134192558
21499 59 14692571013580491744
22079108 93 12175617400248305021
22094290 60 18410292531929502681
2215653 11 18335428958959045631
22485316 2 18040720242335931756
22854114 59 9079118869007734781
22926399 37 14979955882739279669
23402539 116 17775289344383930796
23402655 69 17489866059750935708
23557571 272 18340502135448229856
23559900 14 18343022160206046744
23590187 173 14189582935459477622
2871803 45 18411699915471510366
3060560 45 17561366180013930402
31174 14 17167876239920366848
328317 168 15410888527333210284
3286 77 17385729105623121784
351380 180 9367348111082546951
4047638 21 12031792478382686184
42 15 4967614974779259229
449060 62 13542467583235244570
465052 167 17022901212002070319
474 4 12895068530882649919
548570 60 11527948949839300783
573450 72 14562528466792552211
90316 7 14201386188700059603
94968 8 18113054930995624838
960060 61 18409168792137664989

> <PUBCHEM_SHAPE_MULTIPOLES>
277.03
9.92
1.29
1.13
2.92
0.07
-0.05
-3.64
3.55
-0.39
0.04
-0.46
0.03
0.37

> <PUBCHEM_SHAPE_SELFOVERLAP>
585.628

> <PUBCHEM_SHAPE_VOLUME>
156.4

> <PUBCHEM_COORDINATE_TYPE>
2
5
10

$$$$

