26295
  -OEChem-07051213152D

 27 28  0     0  0  0  0  0  0999 V2000
    4.2690    1.1550    0.0000 O   0  0  0  0  0  0  0  0  0  0  0  0
    2.5369   -2.8450    0.0000 O   0  0  0  0  0  0  0  0  0  0  0  0
    3.4030   -1.3450    0.0000 C   0  0  0  0  0  0  0  0  0  0  0  0
    4.2690    0.1550    0.0000 C   0  0  0  0  0  0  0  0  0  0  0  0
    3.4030   -0.3450    0.0000 C   0  0  0  0  0  0  0  0  0  0  0  0
    4.2690   -1.8450    0.0000 C   0  0  0  0  0  0  0  0  0  0  0  0
    5.1350   -0.3450    0.0000 C   0  0  0  0  0  0  0  0  0  0  0  0
    2.5369   -1.8450    0.0000 C   0  0  0  0  0  0  0  0  0  0  0  0
    5.1350   -1.3450    0.0000 C   0  0  0  0  0  0  0  0  0  0  0  0
    5.1350    1.6550    0.0000 C   0  0  0  0  0  0  0  0  0  0  0  0
    6.0010    1.1550    0.0000 C   0  0  0  0  0  0  0  0  0  0  0  0
    5.1350    2.6550    0.0000 C   0  0  0  0  0  0  0  0  0  0  0  0
    6.8671    1.6550    0.0000 C   0  0  0  0  0  0  0  0  0  0  0  0
    6.0010    3.1550    0.0000 C   0  0  0  0  0  0  0  0  0  0  0  0
    6.8671    2.6550    0.0000 C   0  0  0  0  0  0  0  0  0  0  0  0
    2.8660   -0.0350    0.0000 H   0  0  0  0  0  0  0  0  0  0  0  0
    4.2690   -2.4650    0.0000 H   0  0  0  0  0  0  0  0  0  0  0  0
    5.6720   -0.0350    0.0000 H   0  0  0  0  0  0  0  0  0  0  0  0
    2.3249   -1.2624    0.0000 H   0  0  0  0  0  0  0  0  0  0  0  0
    1.9264   -1.9527    0.0000 H   0  0  0  0  0  0  0  0  0  0  0  0
    5.6720   -1.6550    0.0000 H   0  0  0  0  0  0  0  0  0  0  0  0
    6.0010    0.5350    0.0000 H   0  0  0  0  0  0  0  0  0  0  0  0
    4.5981    2.9650    0.0000 H   0  0  0  0  0  0  0  0  0  0  0  0
    7.4040    1.3450    0.0000 H   0  0  0  0  0  0  0  0  0  0  0  0
    6.0010    3.7750    0.0000 H   0  0  0  0  0  0  0  0  0  0  0  0
    7.4040    2.9650    0.0000 H   0  0  0  0  0  0  0  0  0  0  0  0
    2.0000   -3.1550    0.0000 H   0  0  0  0  0  0  0  0  0  0  0  0
  1  4  1  0  0  0  0
  1 10  1  0  0  0  0
  2  8  1  0  0  0  0
  2 27  1  0  0  0  0
  3  5  2  0  0  0  0
  3  6  1  0  0  0  0
  3  8  1  0  0  0  0
  4  5  1  0  0  0  0
  4  7  2  0  0  0  0
  5 16  1  0  0  0  0
  6  9  2  0  0  0  0
  6 17  1  0  0  0  0
  7  9  1  0  0  0  0
  7 18  1  0  0  0  0
  8 19  1  0  0  0  0
  8 20  1  0  0  0  0
  9 21  1  0  0  0  0
 10 11  2  0  0  0  0
 10 12  1  0  0  0  0
 11 13  1  0  0  0  0
 11 22  1  0  0  0  0
 12 14  2  0  0  0  0
 12 23  1  0  0  0  0
 13 15  2  0  0  0  0
 13 24  1  0  0  0  0
 14 15  1  0  0  0  0
 14 25  1  0  0  0  0
 15 26  1  0  0  0  0
M  END
> <PUBCHEM_COMPOUND_CID>
26295

> <PUBCHEM_COMPOUND_CANONICALIZED>
1

> <PUBCHEM_CACTVS_COMPLEXITY>
175

> <PUBCHEM_CACTVS_HBOND_ACCEPTOR>
2

> <PUBCHEM_CACTVS_HBOND_DONOR>
1

> <PUBCHEM_CACTVS_ROTATABLE_BOND>
3

> <PUBCHEM_CACTVS_SUBSKEYS>
AAADccBwMAAAAAAAAAAAAAAAAAAAAAAAAAAwYAAAAAAAAAABQAAAGgAACAAADASgmAIwBoAABgCAAiBCAAACCAAgIAAIiAAGCIgMNiKEMRqCeCCkwBEIuAfAwDAOAAABAAAAAAAAAAIAAAAAAAAAAAAAAA==

> <PUBCHEM_IUPAC_OPENEYE_NAME>
(3-phenoxyphenyl)methanol

> <PUBCHEM_IUPAC_CAS_NAME>
(3-phenoxyphenyl)methanol

> <PUBCHEM_IUPAC_NAME>
(3-phenoxyphenyl)methanol

> <PUBCHEM_IUPAC_SYSTEMATIC_NAME>
(3-phenoxyphenyl)methanol

> <PUBCHEM_IUPAC_TRADITIONAL_NAME>
(3-phenoxyphenyl)methanol

> <PUBCHEM_IUPAC_INCHI>
InChI=1S/C13H12O2/c14-10-11-5-4-8-13(9-11)15-12-6-2-1-3-7-12/h1-9,14H,10H2

> <PUBCHEM_IUPAC_INCHIKEY>
KGANAERDZBAECK-UHFFFAOYSA-N

> <PUBCHEM_XLOGP3>
2.5

> <PUBCHEM_EXACT_MASS>
200.08373

> <PUBCHEM_MOLECULAR_FORMULA>
C13H12O2

> <PUBCHEM_MOLECULAR_WEIGHT>
200.23318

> <PUBCHEM_OPENEYE_CAN_SMILES>
C1=CC=C(C=C1)OC2=CC=CC(=C2)CO

> <PUBCHEM_OPENEYE_ISO_SMILES>
C1=CC=C(C=C1)OC2=CC=CC(=C2)CO

> <PUBCHEM_CACTVS_TPSA>
29.5

> <PUBCHEM_MONOISOTOPIC_WEIGHT>
200.08373

> <PUBCHEM_TOTAL_CHARGE>
0

> <PUBCHEM_HEAVY_ATOM_COUNT>
15

> <PUBCHEM_ATOM_DEF_STEREO_COUNT>
0

> <PUBCHEM_ATOM_UDEF_STEREO_COUNT>
0

> <PUBCHEM_BOND_DEF_STEREO_COUNT>
0

> <PUBCHEM_BOND_UDEF_STEREO_COUNT>
0

> <PUBCHEM_ISOTOPIC_ATOM_COUNT>
0

> <PUBCHEM_COMPONENT_COUNT>
1

> <PUBCHEM_CACTVS_TAUTO_COUNT>
1

> <PUBCHEM_COORDINATE_TYPE>
1
5
255

> <PUBCHEM_BONDANNOTATIONS>
10  11  8
10  12  8
11  13  8
12  14  8
13  15  8
14  15  8
3  5  8
3  6  8
4  5  8
4  7  8
6  9  8
7  9  8

$$$$

