56928120
  -OEChem-07051213152D

 81 85  0     1  0  0  0  0  0999 V2000
   11.1246    2.5364    0.0000 O   0  0  0  0  0  0  0  0  0  0  0  0
    5.7847   -0.6080    0.0000 C   0  0  2  0  0  0  0  0  0  0  0  0
    6.6507   -1.1080    0.0000 C   0  0  1  0  0  0  0  0  0  0  0  0
    4.8746   -1.1148    0.0000 C   0  0  3  0  0  0  0  0  0  0  0  0
    4.8666   -2.1564    0.0000 C   0  0  1  0  0  0  0  0  0  0  0  0
    7.5167   -0.6080    0.0000 C   0  0  0  0  0  0  0  0  0  0  0  0
    6.6667   -2.1495    0.0000 C   0  0  0  0  0  0  0  0  0  0  0  0
    5.7847    0.3920    0.0000 C   0  0  0  0  0  0  0  0  0  0  0  0
    5.7687   -2.6772    0.0000 C   0  0  0  0  0  0  0  0  0  0  0  0
    8.4106    0.9267    0.0000 C   0  0  2  0  0  0  0  0  0  0  0  0
    3.9478   -0.5507    0.0000 C   0  0  0  0  0  0  0  0  0  0  0  0
    7.5167    0.3920    0.0000 C   0  0  0  0  0  0  0  0  0  0  0  0
    9.3167    0.4128    0.0000 C   0  0  3  0  0  0  0  0  0  0  0  0
    3.9312   -2.7062    0.0000 C   0  0  0  0  0  0  0  0  0  0  0  0
    6.6507    0.8920    0.0000 C   0  0  0  0  0  0  0  0  0  0  0  0
    2.9999   -1.0787    0.0000 C   0  0  0  0  0  0  0  0  0  0  0  0
    4.9186   -0.1080    0.0000 C   0  0  0  0  0  0  0  0  0  0  0  0
    8.4106   -1.1426    0.0000 C   0  0  0  0  0  0  0  0  0  0  0  0
    2.9916   -2.1636    0.0000 C   0  0  0  0  0  0  0  0  0  0  0  0
    7.5167   -1.6080    0.0000 C   0  0  0  0  0  0  0  0  0  0  0  0
   10.2605    0.9481    0.0000 C   0  0  0  0  0  0  0  0  0  0  0  0
    9.3167   -0.6288    0.0000 C   0  0  0  0  0  0  0  0  0  0  0  0
    4.8589   -3.1564    0.0000 C   0  0  0  0  0  0  0  0  0  0  0  0
    8.3856    2.0114    0.0000 C   0  0  0  0  0  0  0  0  0  0  0  0
   10.2605    2.0331    0.0000 C   0  0  2  0  0  0  0  0  0  0  0  0
    9.3167    2.5683    0.0000 C   0  0  0  0  0  0  0  0  0  0  0  0
    7.5408    1.4200    0.0000 C   0  0  0  0  0  0  0  0  0  0  0  0
    2.0000   -1.0671    0.0000 C   0  0  0  0  0  0  0  0  0  0  0  0
    2.5100   -0.2069    0.0000 C   0  0  0  0  0  0  0  0  0  0  0  0
   11.2605    0.9442    0.0000 C   0  0  0  0  0  0  0  0  0  0  0  0
   10.7572    0.0801    0.0000 C   0  0  0  0  0  0  0  0  0  0  0  0
    4.8866   -0.4949    0.0000 H   0  0  0  0  0  0  0  0  0  0  0  0
    6.8848   -2.7299    0.0000 H   0  0  0  0  0  0  0  0  0  0  0  0
    7.2759   -2.0340    0.0000 H   0  0  0  0  0  0  0  0  0  0  0  0
    5.5726    0.9746    0.0000 H   0  0  0  0  0  0  0  0  0  0  0  0
    5.1741    0.2844    0.0000 H   0  0  0  0  0  0  0  0  0  0  0  0
    5.3714   -3.1532    0.0000 H   0  0  0  0  0  0  0  0  0  0  0  0
    6.1697   -3.1501    0.0000 H   0  0  0  0  0  0  0  0  0  0  0  0
    4.3560   -0.0841    0.0000 H   0  0  0  0  0  0  0  0  0  0  0  0
    3.5579   -0.0687    0.0000 H   0  0  0  0  0  0  0  0  0  0  0  0
    9.8524    0.1008    0.0000 H   0  0  0  0  0  0  0  0  0  0  0  0
    3.5339   -3.1821    0.0000 H   0  0  0  0  0  0  0  0  0  0  0  0
    4.3322   -3.1790    0.0000 H   0  0  0  0  0  0  0  0  0  0  0  0
    7.0492    1.3670    0.0000 H   0  0  0  0  0  0  0  0  0  0  0  0
    6.2522    1.3670    0.0000 H   0  0  0  0  0  0  0  0  0  0  0  0
    5.2286    0.4290    0.0000 H   0  0  0  0  0  0  0  0  0  0  0  0
    4.3817    0.2020    0.0000 H   0  0  0  0  0  0  0  0  0  0  0  0
    4.6086   -0.6449    0.0000 H   0  0  0  0  0  0  0  0  0  0  0  0
    8.0060   -1.6124    0.0000 H   0  0  0  0  0  0  0  0  0  0  0  0
    8.8043   -1.6217    0.0000 H   0  0  0  0  0  0  0  0  0  0  0  0
    2.3816   -2.0529    0.0000 H   0  0  0  0  0  0  0  0  0  0  0  0
    2.7780   -2.7457    0.0000 H   0  0  0  0  0  0  0  0  0  0  0  0
    7.2067   -2.1449    0.0000 H   0  0  0  0  0  0  0  0  0  0  0  0
    8.0536   -1.9180    0.0000 H   0  0  0  0  0  0  0  0  0  0  0  0
    7.8267   -1.0710    0.0000 H   0  0  0  0  0  0  0  0  0  0  0  0
    9.5258   -1.2125    0.0000 H   0  0  0  0  0  0  0  0  0  0  0  0
    9.9276   -0.5227    0.0000 H   0  0  0  0  0  0  0  0  0  0  0  0
    4.2389   -3.1516    0.0000 H   0  0  0  0  0  0  0  0  0  0  0  0
    4.8541   -3.7764    0.0000 H   0  0  0  0  0  0  0  0  0  0  0  0
    5.4789   -3.1612    0.0000 H   0  0  0  0  0  0  0  0  0  0  0  0
    8.1631    2.5901    0.0000 H   0  0  0  0  0  0  0  0  0  0  0  0
    7.7773    1.8912    0.0000 H   0  0  0  0  0  0  0  0  0  0  0  0
   10.7980    1.7241    0.0000 H   0  0  0  0  0  0  0  0  0  0  0  0
    9.7103    3.0473    0.0000 H   0  0  0  0  0  0  0  0  0  0  0  0
    8.9121    3.0381    0.0000 H   0  0  0  0  0  0  0  0  0  0  0  0
    7.8466    1.9593    0.0000 H   0  0  0  0  0  0  0  0  0  0  0  0
    7.0015    1.7258    0.0000 H   0  0  0  0  0  0  0  0  0  0  0  0
    7.2349    0.8807    0.0000 H   0  0  0  0  0  0  0  0  0  0  0  0
    2.0072   -0.4472    0.0000 H   0  0  0  0  0  0  0  0  0  0  0  0
    1.3800   -1.0600    0.0000 H   0  0  0  0  0  0  0  0  0  0  0  0
    1.9928   -1.6871    0.0000 H   0  0  0  0  0  0  0  0  0  0  0  0
    3.0505    0.0968    0.0000 H   0  0  0  0  0  0  0  0  0  0  0  0
    2.2062    0.3335    0.0000 H   0  0  0  0  0  0  0  0  0  0  0  0
    1.9695   -0.5107    0.0000 H   0  0  0  0  0  0  0  0  0  0  0  0
   10.2190   -0.2278    0.0000 H   0  0  0  0  0  0  0  0  0  0  0  0
   11.0651   -0.4580    0.0000 H   0  0  0  0  0  0  0  0  0  0  0  0
   11.2953    0.3881    0.0000 H   0  0  0  0  0  0  0  0  0  0  0  0
   11.2581    0.3242    0.0000 H   0  0  0  0  0  0  0  0  0  0  0  0
   11.8805    0.9418    0.0000 H   0  0  0  0  0  0  0  0  0  0  0  0
   11.2629    1.5642    0.0000 H   0  0  0  0  0  0  0  0  0  0  0  0
   11.1222    3.1564    0.0000 H   0  0  0  0  0  0  0  0  0  0  0  0
 25  1  1  6  0  0  0
  1 81  1  0  0  0  0
  2  3  1  0  0  0  0
  2  4  1  0  0  0  0
  2  8  1  0  0  0  0
  2 17  1  1  0  0  0
  3  6  1  0  0  0  0
  3  7  1  0  0  0  0
  3 20  1  6  0  0  0
  4  5  1  0  0  0  0
  4 11  1  0  0  0  0
  4 32  1  0  0  0  0
  5  9  1  0  0  0  0
  5 14  1  0  0  0  0
  5 23  1  6  0  0  0
  6 12  2  0  0  0  0
  6 18  1  0  0  0  0
  7  9  1  0  0  0  0
  7 33  1  0  0  0  0
  7 34  1  0  0  0  0
  8 15  1  0  0  0  0
  8 35  1  0  0  0  0
  8 36  1  0  0  0  0
  9 37  1  0  0  0  0
  9 38  1  0  0  0  0
 10 12  1  0  0  0  0
 10 13  1  0  0  0  0
 10 24  1  0  0  0  0
 10 27  1  6  0  0  0
 11 16  1  0  0  0  0
 11 39  1  0  0  0  0
 11 40  1  0  0  0  0
 12 15  1  0  0  0  0
 13 21  1  0  0  0  0
 13 22  1  0  0  0  0
 13 41  1  0  0  0  0
 14 19  1  0  0  0  0
 14 42  1  0  0  0  0
 14 43  1  0  0  0  0
 15 44  1  0  0  0  0
 15 45  1  0  0  0  0
 16 19  1  0  0  0  0
 16 28  1  0  0  0  0
 16 29  1  0  0  0  0
 17 46  1  0  0  0  0
 17 47  1  0  0  0  0
 17 48  1  0  0  0  0
 18 22  1  0  0  0  0
 18 49  1  0  0  0  0
 18 50  1  0  0  0  0
 19 51  1  0  0  0  0
 19 52  1  0  0  0  0
 20 53  1  0  0  0  0
 20 54  1  0  0  0  0
 20 55  1  0  0  0  0
 21 25  1  0  0  0  0
 21 30  1  0  0  0  0
 21 31  1  0  0  0  0
 22 56  1  0  0  0  0
 22 57  1  0  0  0  0
 23 58  1  0  0  0  0
 23 59  1  0  0  0  0
 23 60  1  0  0  0  0
 24 26  1  0  0  0  0
 24 61  1  0  0  0  0
 24 62  1  0  0  0  0
 25 26  1  0  0  0  0
 25 63  1  0  0  0  0
 26 64  1  0  0  0  0
 26 65  1  0  0  0  0
 27 66  1  0  0  0  0
 27 67  1  0  0  0  0
 27 68  1  0  0  0  0
 28 69  1  0  0  0  0
 28 70  1  0  0  0  0
 28 71  1  0  0  0  0
 29 72  1  0  0  0  0
 29 73  1  0  0  0  0
 29 74  1  0  0  0  0
 30 78  1  0  0  0  0
 30 79  1  0  0  0  0
 30 80  1  0  0  0  0
 31 75  1  0  0  0  0
 31 76  1  0  0  0  0
 31 77  1  0  0  0  0
M  END
> <PUBCHEM_COMPOUND_CID>
56928120

> <PUBCHEM_COMPOUND_CANONICALIZED>
1

> <PUBCHEM_CACTVS_COMPLEXITY>
803

> <PUBCHEM_CACTVS_HBOND_ACCEPTOR>
1

> <PUBCHEM_CACTVS_HBOND_DONOR>
1

> <PUBCHEM_CACTVS_ROTATABLE_BOND>
0

> <PUBCHEM_CACTVS_SUBSKEYS>
AAADcfB4IAAAAAAAAAAAAAAAAAAAAAAAAAAwYMECAAAAAADAAAAAGgAACAAADxSggAICAAAAAgCAAgBAAAAAAAAgAAAACAAAAAgAEAIAAAAAQAAEgAAIAAOAwPAPgAAAAAAAAADAAAYAADAAAAAAAAAAAA==

> <PUBCHEM_IUPAC_OPENEYE_NAME>
(3S,6aS,6bS,8aR,14bS)-4,4,6a,6b,8a,11,11,14b-octamethyl-1,2,3,4a,5,6,7,8,9,10,12,12a,13,14-tetradecahydropicen-3-ol

> <PUBCHEM_IUPAC_CAS_NAME>
(3S,6aS,6bS,8aR,14bS)-4,4,6a,6b,8a,11,11,14b-octamethyl-1,2,3,4a,5,6,7,8,9,10,12,12a,13,14-tetradecahydropicen-3-ol

> <PUBCHEM_IUPAC_NAME>
(3S,6aS,6bS,8aR,14bS)-4,4,6a,6b,8a,11,11,14b-octamethyl-1,2,3,4a,5,6,7,8,9,10,12,12a,13,14-tetradecahydropicen-3-ol

> <PUBCHEM_IUPAC_SYSTEMATIC_NAME>
(3S,6aS,6bS,8aR,14bS)-4,4,6a,6b,8a,11,11,14b-octamethyl-1,2,3,4a,5,6,7,8,9,10,12,12a,13,14-tetradecahydropicen-3-ol

> <PUBCHEM_IUPAC_TRADITIONAL_NAME>
(3S,6aS,6bS,8aR,14bS)-4,4,6a,6b,8a,11,11,14b-octamethyl-1,2,3,4a,5,6,7,8,9,10,12,12a,13,14-tetradecahydropicen-3-ol

> <PUBCHEM_IUPAC_INCHI>
InChI=1S/C30H50O/c1-25(2)15-16-27(5)17-18-29(7)21-9-10-22-26(3,4)24(31)12-13-28(22,6)20(21)11-14-30(29,8)23(27)19-25/h22-24,31H,9-19H2,1-8H3/t22?,23?,24-,27+,28+,29+,30-/m0/s1

> <PUBCHEM_IUPAC_INCHIKEY>
MCSMMGJCXCBSKD-KTLHYBCNSA-N

> <PUBCHEM_XLOGP3_AA>
8.9

> <PUBCHEM_EXACT_MASS>
426.386166

> <PUBCHEM_MOLECULAR_FORMULA>
C30H50O

> <PUBCHEM_MOLECULAR_WEIGHT>
426.7174

> <PUBCHEM_OPENEYE_CAN_SMILES>
CC1(CCC2(CCC3(C4=C(CCC3(C2C1)C)C5(CCC(C(C5CC4)(C)C)O)C)C)C)C

> <PUBCHEM_OPENEYE_ISO_SMILES>
C[C@@]12CC[C@@]3(C4=C(CC[C@]3(C1CC(CC2)(C)C)C)[C@]5(CC[C@@H](C(C5CC4)(C)C)O)C)C

> <PUBCHEM_CACTVS_TPSA>
20.2

> <PUBCHEM_MONOISOTOPIC_WEIGHT>
426.386166

> <PUBCHEM_TOTAL_CHARGE>
0

> <PUBCHEM_HEAVY_ATOM_COUNT>
31

> <PUBCHEM_ATOM_DEF_STEREO_COUNT>
5

> <PUBCHEM_ATOM_UDEF_STEREO_COUNT>
2

> <PUBCHEM_BOND_DEF_STEREO_COUNT>
0

> <PUBCHEM_BOND_UDEF_STEREO_COUNT>
0

> <PUBCHEM_ISOTOPIC_ATOM_COUNT>
0

> <PUBCHEM_COMPONENT_COUNT>
1

> <PUBCHEM_CACTVS_TAUTO_COUNT>
1

> <PUBCHEM_COORDINATE_TYPE>
1
5
255

> <PUBCHEM_BONDANNOTATIONS>
25  1  6
10  27  6
13  21  3
2  17  5
3  20  6
4  11  3
5  23  6

$$$$

