6439562
  -OEChem-07051213113D

 35 35  0     0  0  0  0  0  0999 V2000
   -1.3809   -2.2676    0.7268 O   0  0  0  0  0  0  0  0  0  0  0  0
    6.1173    1.4578   -0.2193 O   0  0  0  0  0  0  0  0  0  0  0  0
   -2.2941   -0.9020   -0.9196 N   0  0  0  0  0  0  0  0  0  0  0  0
   -5.7375    2.9402    0.3892 N   0  0  0  0  0  0  0  0  0  0  0  0
   -4.5314   -0.7003    0.0962 C   0  0  0  0  0  0  0  0  0  0  0  0
   -4.6814    0.7892   -0.2374 C   0  0  0  0  0  0  0  0  0  0  0  0
   -3.6304   -1.4305   -0.8956 C   0  0  0  0  0  0  0  0  0  0  0  0
   -5.6260    1.5239    0.7161 C   0  0  0  0  0  0  0  0  0  0  0  0
   -1.2732   -1.3680   -0.1002 C   0  0  0  0  0  0  0  0  0  0  0  0
    0.0083   -0.6430   -0.3339 C   0  0  0  0  0  0  0  0  0  0  0  0
    2.4209   -0.3361    0.2122 C   0  0  0  0  0  0  0  0  0  0  0  0
    1.1027   -0.9765    0.3661 C   0  0  0  0  0  0  0  0  0  0  0  0
    2.5020    0.9182   -0.3702 C   0  0  0  0  0  0  0  0  0  0  0  0
    3.5531   -1.0014    0.6533 C   0  0  0  0  0  0  0  0  0  0  0  0
    3.7499    1.5242   -0.5154 C   0  0  0  0  0  0  0  0  0  0  0  0
    4.8010   -0.3953    0.5081 C   0  0  0  0  0  0  0  0  0  0  0  0
    4.8994    0.8674   -0.0762 C   0  0  0  0  0  0  0  0  0  0  0  0
   -4.1265   -0.8039    1.1104 H   0  0  0  0  0  0  0  0  0  0  0  0
   -5.5196   -1.1753    0.0931 H   0  0  0  0  0  0  0  0  0  0  0  0
   -3.6973    1.2733   -0.2046 H   0  0  0  0  0  0  0  0  0  0  0  0
   -5.0522    0.8926   -1.2652 H   0  0  0  0  0  0  0  0  0  0  0  0
   -3.5886   -2.4943   -0.6373 H   0  0  0  0  0  0  0  0  0  0  0  0
   -4.0331   -1.3476   -1.9107 H   0  0  0  0  0  0  0  0  0  0  0  0
   -6.6223    1.0709    0.6704 H   0  0  0  0  0  0  0  0  0  0  0  0
   -5.2659    1.4217    1.7458 H   0  0  0  0  0  0  0  0  0  0  0  0
   -2.1060   -0.1476   -1.5735 H   0  0  0  0  0  0  0  0  0  0  0  0
   -4.8205    3.3802    0.4542 H   0  0  0  0  0  0  0  0  0  0  0  0
   -6.3263    3.4019    1.0810 H   0  0  0  0  0  0  0  0  0  0  0  0
    0.0065    0.1271   -1.0964 H   0  0  0  0  0  0  0  0  0  0  0  0
    1.0589   -1.7764    1.1016 H   0  0  0  0  0  0  0  0  0  0  0  0
    1.6333    1.4757   -0.7058 H   0  0  0  0  0  0  0  0  0  0  0  0
    3.4930   -1.9861    1.1091 H   0  0  0  0  0  0  0  0  0  0  0  0
    3.8133    2.5102   -0.9680 H   0  0  0  0  0  0  0  0  0  0  0  0
    5.6931   -0.9121    0.8514 H   0  0  0  0  0  0  0  0  0  0  0  0
    5.9989    2.3256   -0.6423 H   0  0  0  0  0  0  0  0  0  0  0  0
  1  9  2  0  0  0  0
  2 17  1  0  0  0  0
  2 35  1  0  0  0  0
  3  7  1  0  0  0  0
  3  9  1  0  0  0  0
  3 26  1  0  0  0  0
  4  8  1  0  0  0  0
  4 27  1  0  0  0  0
  4 28  1  0  0  0  0
  5  6  1  0  0  0  0
  5  7  1  0  0  0  0
  5 18  1  0  0  0  0
  5 19  1  0  0  0  0
  6  8  1  0  0  0  0
  6 20  1  0  0  0  0
  6 21  1  0  0  0  0
  7 22  1  0  0  0  0
  7 23  1  0  0  0  0
  8 24  1  0  0  0  0
  8 25  1  0  0  0  0
  9 10  1  0  0  0  0
 10 12  2  0  0  0  0
 10 29  1  0  0  0  0
 11 12  1  0  0  0  0
 11 13  2  0  0  0  0
 11 14  1  0  0  0  0
 12 30  1  0  0  0  0
 13 15  1  0  0  0  0
 13 31  1  0  0  0  0
 14 16  2  0  0  0  0
 14 32  1  0  0  0  0
 15 17  2  0  0  0  0
 15 33  1  0  0  0  0
 16 17  1  0  0  0  0
 16 34  1  0  0  0  0
M  END
> <PUBCHEM_COMPOUND_CID>
6439562

> <PUBCHEM_CONFORMER_RMSD>
0.8

> <PUBCHEM_CONFORMER_DIVERSEORDER>
1
28
5
13
7
12
8
32
15
30
19
29
4
31
26
14
24
27
23
3
11
2
16
6
18
22
10
20
17
9
25
21

> <PUBCHEM_MMFF94_PARTIAL_CHARGES>
25
1 -0.57
10 -0.14
11 0.03
12 -0.18
13 -0.15
14 -0.15
15 -0.15
16 -0.15
17 0.08
2 -0.53
26 0.37
27 0.36
28 0.36
29 0.15
3 -0.73
30 0.15
31 0.15
32 0.15
33 0.15
34 0.15
35 0.45
4 -0.99
7 0.3
8 0.27
9 0.62

> <PUBCHEM_EFFECTIVE_ROTOR_COUNT>
7

> <PUBCHEM_PHARMACOPHORE_FEATURES>
6
1 1 acceptor
1 2 donor
1 3 donor
1 4 cation
1 4 donor
6 11 13 14 15 16 17 rings

> <PUBCHEM_HEAVY_ATOM_COUNT>
17

> <PUBCHEM_ATOM_DEF_STEREO_COUNT>
0

> <PUBCHEM_ATOM_UDEF_STEREO_COUNT>
0

> <PUBCHEM_BOND_DEF_STEREO_COUNT>
1

> <PUBCHEM_BOND_UDEF_STEREO_COUNT>
0

> <PUBCHEM_ISOTOPIC_ATOM_COUNT>
0

> <PUBCHEM_COMPONENT_COUNT>
1

> <PUBCHEM_CACTVS_TAUTO_COUNT>
4

> <PUBCHEM_CONFORMER_ID>
0062428A00000001

> <PUBCHEM_MMFF94_ENERGY>
25.0806

> <PUBCHEM_FEATURE_SELFOVERLAP>
30.446

> <PUBCHEM_SHAPE_FINGERPRINT>
10354089 29 18059856147274999694
105312 117 16950003638857996325
10730089 173 18259982682521145513
10912923 1 18271538519395521795
11046707 91 10303814281047469863
117890 112 18334859411424141360
12107183 9 18196098969345698475
12236239 1 18409450271820974570
12596602 18 17704070703366766993
13073987 5 18341333309908238507
13167372 99 18411139155935494904
13177829 73 18408325514122244729
13785724 45 17763187234266791770
13911882 115 12895079551879962856
14123255 352 18335138713485081789
14251752 14 18113899381537350578
15415430 10 9727630609974280051
15778101 99 18335698356371687959
15880784 105 10447929485786198262
17959699 21 18335702702346036720
20281389 69 18335141998918883113
20621476 21 12679183872371165624
20621476 66 18408600374796818689
20645477 56 17274554130638252318
20645477 70 18341901784012775270
212847 35 18335424569069874322
23402539 116 18259992552055129663
23402655 69 18340208480133742830
23559900 14 5039661625868823086
270888 7 18117839018332851761
2838139 119 18041288750647317433
312425 54 16415472796934897329
465052 167 10807924985919766177
5104073 3 17774168894658757826
542803 24 18335704905790918342
54446538 1 18410014312859489437
6299153 45 18192430994439402818
633830 44 18411141372234117559
7062679 6 18408882949548797317
8272917 22 18409730690410394974

> <PUBCHEM_SHAPE_MULTIPOLES>
328.15
15.21
2.24
0.84
5.14
0.92
0.02
10.19
-1.17
2.75
-0.21
0.25
-0.09
-1.52

> <PUBCHEM_SHAPE_SELFOVERLAP>
661.22

> <PUBCHEM_SHAPE_VOLUME>
191.9

> <PUBCHEM_COORDINATE_TYPE>
2
5
10

$$$$

