60825
  -OEChem-07051212523D

 26 27  0     1  0  0  0  0  0999 V2000
   -3.1049   -1.2086   -0.8358 S   0  0  0  0  0  0  0  0  0  0  0  0
   -1.5844    0.2040    0.8145 O   0  0  0  0  0  0  0  0  0  0  0  0
   -3.4197    1.8189   -0.5143 O   0  0  0  0  0  0  0  0  0  0  0  0
    1.5655   -2.3556    0.3684 O   0  0  0  0  0  0  0  0  0  0  0  0
    0.5818   -0.2866    0.1062 N   0  0  0  0  0  0  0  0  0  0  0  0
    2.9565   -0.5831    0.0947 N   0  0  0  0  0  0  0  0  0  0  0  0
    4.3762    1.2376   -0.1846 N   0  0  0  0  0  0  0  0  0  0  0  0
   -0.7575   -0.7937    0.2047 C   0  0  2  0  0  0  0  0  0  0  0  0
   -1.3380   -1.1114   -1.1652 C   0  0  0  0  0  0  0  0  0  0  0  0
   -2.9513   -0.2048    0.6657 C   0  0  1  0  0  0  0  0  0  0  0  0
   -3.8265    1.0329    0.5942 C   0  0  0  0  0  0  0  0  0  0  0  0
    0.7451    1.0664   -0.0812 C   0  0  0  0  0  0  0  0  0  0  0  0
    1.6940   -1.1418    0.1989 C   0  0  0  0  0  0  0  0  0  0  0  0
    1.9504    1.6231   -0.1826 C   0  0  0  0  0  0  0  0  0  0  0  0
    3.1128    0.7025   -0.0836 C   0  0  0  0  0  0  0  0  0  0  0  0
   -0.7605   -1.6854    0.8466 H   0  0  0  0  0  0  0  0  0  0  0  0
   -1.1695   -0.3028   -1.8839 H   0  0  0  0  0  0  0  0  0  0  0  0
   -0.9424   -2.0410   -1.5834 H   0  0  0  0  0  0  0  0  0  0  0  0
   -3.2263   -0.8142    1.5329 H   0  0  0  0  0  0  0  0  0  0  0  0
   -3.7086    1.6448    1.4946 H   0  0  0  0  0  0  0  0  0  0  0  0
   -4.8860    0.7822    0.4824 H   0  0  0  0  0  0  0  0  0  0  0  0
   -0.1347    1.6920   -0.1741 H   0  0  0  0  0  0  0  0  0  0  0  0
    2.1014    2.6825   -0.3411 H   0  0  0  0  0  0  0  0  0  0  0  0
   -2.4819    2.0423   -0.3881 H   0  0  0  0  0  0  0  0  0  0  0  0
    4.5301    2.2310   -0.3228 H   0  0  0  0  0  0  0  0  0  0  0  0
    5.1982    0.6467   -0.1225 H   0  0  0  0  0  0  0  0  0  0  0  0
  1  9  1  0  0  0  0
  1 10  1  0  0  0  0
  2  8  1  0  0  0  0
  2 10  1  0  0  0  0
  3 11  1  0  0  0  0
  3 24  1  0  0  0  0
  4 13  2  0  0  0  0
  5  8  1  0  0  0  0
  5 12  1  0  0  0  0
  5 13  1  0  0  0  0
  6 13  1  0  0  0  0
  6 15  2  0  0  0  0
  7 15  1  0  0  0  0
  7 25  1  0  0  0  0
  7 26  1  0  0  0  0
  8  9  1  0  0  0  0
  8 16  1  0  0  0  0
  9 17  1  0  0  0  0
  9 18  1  0  0  0  0
 10 11  1  0  0  0  0
 10 19  1  0  0  0  0
 11 20  1  0  0  0  0
 11 21  1  0  0  0  0
 12 14  2  0  0  0  0
 12 22  1  0  0  0  0
 14 15  1  0  0  0  0
 14 23  1  0  0  0  0
M  END
> <PUBCHEM_COMPOUND_CID>
60825

> <PUBCHEM_CONFORMER_RMSD>
0.6

> <PUBCHEM_CONFORMER_DIVERSEORDER>
1
12
10
5
11
9
4
6
2
3
7
8

> <PUBCHEM_MMFF94_PARTIAL_CHARGES>
20
1 -0.46
10 0.51
11 0.28
12 -0.04
13 0.84
14 -0.14
15 0.49
2 -0.56
22 0.15
23 0.15
24 0.4
25 0.4
26 0.4
3 -0.68
4 -0.57
5 -0.47
6 -0.66
7 -0.85
8 0.58
9 0.23

> <PUBCHEM_EFFECTIVE_ROTOR_COUNT>
3

> <PUBCHEM_PHARMACOPHORE_FEATURES>
8
1 2 acceptor
1 3 acceptor
1 3 donor
1 4 acceptor
1 6 donor
1 7 donor
5 1 2 8 9 10 rings
6 5 6 12 13 14 15 rings

> <PUBCHEM_HEAVY_ATOM_COUNT>
15

> <PUBCHEM_ATOM_DEF_STEREO_COUNT>
2

> <PUBCHEM_ATOM_UDEF_STEREO_COUNT>
0

> <PUBCHEM_BOND_DEF_STEREO_COUNT>
0

> <PUBCHEM_BOND_UDEF_STEREO_COUNT>
0

> <PUBCHEM_ISOTOPIC_ATOM_COUNT>
0

> <PUBCHEM_COMPONENT_COUNT>
1

> <PUBCHEM_CACTVS_TAUTO_COUNT>
3

> <PUBCHEM_CONFORMER_ID>
0000ED9900000001

> <PUBCHEM_MMFF94_ENERGY>
40.3362

> <PUBCHEM_FEATURE_SELFOVERLAP>
40.644

> <PUBCHEM_SHAPE_FINGERPRINT>
10608611 8 18343301496072844089
10922523 26 18342737472356357069
10980938 120 18411981385942023306
11471102 20 18413673525810526484
12346645 44 18411983520640976626
12932764 1 17967536735806991883
14144814 61 18410294696492559235
14897335 6 18335422374183362747
15219456 202 18202283653579381837
15442244 35 18122063366720853899
15775835 57 18334571339393670137
16752209 62 17386585582627573887
16945 1 18342177726221659058
18186145 218 18041272171741076664
200 152 18264215725284633575
201361 129 18412261757122785826
20279233 1 16128383661848803267
20645464 45 16988846055772248811
20645476 183 18186523185546287783
20645477 70 18334855081860204615
21501502 16 18411991277383698223
23402539 116 15792003493767875536
23402655 69 18408324401841889437
23559900 14 17240480287453683856
23598291 2 18261965140503730919
25 1 18343301461712897890
2748010 2 16966329470263210614
305870 269 18413108368043675802
528886 8 18339925913908057626
53748568 43 18260831470826820502
7364860 26 18261669393572176486
77492 1 18186804664358970887
7832392 63 18408323310772444593

> <PUBCHEM_SHAPE_MULTIPOLES>
279.99
7
1.91
0.87
0.64
0.16
0.09
-2.54
0.19
-0.02
0.11
-0.55
0.12
-0.64

> <PUBCHEM_SHAPE_SELFOVERLAP>
572.714

> <PUBCHEM_SHAPE_VOLUME>
163.5

> <PUBCHEM_COORDINATE_TYPE>
2
5
10

$$$$

