5281532
  -OEChem-07051212582D

 40 41  0     1  0  0  0  0  0999 V2000
    7.7750   -1.4768    0.0000 O   0  0  0  0  0  0  0  0  0  0  0  0
    5.1980    1.0825    0.0000 C   0  0  3  0  0  0  0  0  0  0  0  0
    3.4659    0.0825    0.0000 C   0  0  3  0  0  0  0  0  0  0  0  0
    5.4568    2.0485    0.0000 C   0  0  3  0  0  0  0  0  0  0  0  0
    4.7202    3.0311    0.0000 C   0  0  0  0  0  0  0  0  0  0  0  0
    7.0299    0.3237    0.0000 C   0  0  0  0  0  0  0  0  0  0  0  0
    2.9659    0.9486    0.0000 C   0  0  0  0  0  0  0  0  0  0  0  0
    7.2888    1.2896    0.0000 C   0  0  0  0  0  0  0  0  0  0  0  0
    3.8243   -0.8510    0.0000 C   0  0  0  0  0  0  0  0  0  0  0  0
    2.6888   -0.5468    0.0000 C   0  0  0  0  0  0  0  0  0  0  0  0
    2.0000    1.2074    0.0000 C   0  0  0  0  0  0  0  0  0  0  0  0
    4.8120   -1.0075    0.0000 C   0  0  0  0  0  0  0  0  0  0  0  0
    5.1704   -1.9411    0.0000 C   0  0  0  0  0  0  0  0  0  0  0  0
    6.1580   -2.0975    0.0000 C   0  0  0  0  0  0  0  0  0  0  0  0
    6.7874   -1.3204    0.0000 C   0  0  0  0  0  0  0  0  0  0  0  0
    6.5164   -3.0311    0.0000 C   0  0  0  0  0  0  0  0  0  0  0  0
    5.2536    0.2344    0.0000 H   0  0  0  0  0  0  0  0  0  0  0  0
    5.4666    1.1985    0.0000 H   0  0  0  0  0  0  0  0  0  0  0  0
    5.0380    3.5634    0.0000 H   0  0  0  0  0  0  0  0  0  0  0  0
    4.1070    3.1230    0.0000 H   0  0  0  0  0  0  0  0  0  0  0  0
    6.8179   -0.2589    0.0000 H   0  0  0  0  0  0  0  0  0  0  0  0
    7.6212    0.1373    0.0000 H   0  0  0  0  0  0  0  0  0  0  0  0
    7.8800    1.1032    0.0000 H   0  0  0  0  0  0  0  0  0  0  0  0
    7.5008    1.8722    0.0000 H   0  0  0  0  0  0  0  0  0  0  0  0
    3.2157   -0.9693    0.0000 H   0  0  0  0  0  0  0  0  0  0  0  0
    3.8351   -1.4710    0.0000 H   0  0  0  0  0  0  0  0  0  0  0  0
    2.2986   -0.0650    0.0000 H   0  0  0  0  0  0  0  0  0  0  0  0
    2.2070   -0.9370    0.0000 H   0  0  0  0  0  0  0  0  0  0  0  0
    3.0790   -1.0286    0.0000 H   0  0  0  0  0  0  0  0  0  0  0  0
    1.8395    1.8062    0.0000 H   0  0  0  0  0  0  0  0  0  0  0  0
    1.5616    0.7690    0.0000 H   0  0  0  0  0  0  0  0  0  0  0  0
    5.4206   -0.8892    0.0000 H   0  0  0  0  0  0  0  0  0  0  0  0
    4.8012   -0.3876    0.0000 H   0  0  0  0  0  0  0  0  0  0  0  0
    4.7802   -2.4229    0.0000 H   0  0  0  0  0  0  0  0  0  0  0  0
    6.9892   -0.7341    0.0000 H   0  0  0  0  0  0  0  0  0  0  0  0
    6.2451   -1.0198    0.0000 H   0  0  0  0  0  0  0  0  0  0  0  0
    5.9376   -3.2533    0.0000 H   0  0  0  0  0  0  0  0  0  0  0  0
    6.7386   -3.6099    0.0000 H   0  0  0  0  0  0  0  0  0  0  0  0
    7.0952   -2.8089    0.0000 H   0  0  0  0  0  0  0  0  0  0  0  0
    7.9972   -2.0556    0.0000 H   0  0  0  0  0  0  0  0  0  0  0  0
  1 15  1  0  0  0  0
  1 40  1  0  0  0  0
  2  3  1  0  0  0  0
  2  5  1  0  0  0  0
  2  6  1  0  0  0  0
  2 17  1  0  0  0  0
  3  7  1  0  0  0  0
  3  9  1  0  0  0  0
  3 10  1  0  0  0  0
  4  5  1  0  0  0  0
  4  7  1  0  0  0  0
  4  8  1  0  0  0  0
  4 18  1  0  0  0  0
  5 19  1  0  0  0  0
  5 20  1  0  0  0  0
  6  8  1  0  0  0  0
  6 21  1  0  0  0  0
  6 22  1  0  0  0  0
  7 11  2  0  0  0  0
  8 23  1  0  0  0  0
  8 24  1  0  0  0  0
  9 12  1  0  0  0  0
  9 25  1  0  0  0  0
  9 26  1  0  0  0  0
 10 27  1  0  0  0  0
 10 28  1  0  0  0  0
 10 29  1  0  0  0  0
 11 30  1  0  0  0  0
 11 31  1  0  0  0  0
 12 13  1  0  0  0  0
 12 32  1  0  0  0  0
 12 33  1  0  0  0  0
 13 14  2  0  0  0  0
 13 34  1  0  0  0  0
 14 15  1  0  0  0  0
 14 16  1  0  0  0  0
 15 35  1  0  0  0  0
 15 36  1  0  0  0  0
 16 37  1  0  0  0  0
 16 38  1  0  0  0  0
 16 39  1  0  0  0  0
M  END
> <PUBCHEM_COMPOUND_CID>
5281532

> <PUBCHEM_COMPOUND_CANONICALIZED>
1

> <PUBCHEM_CACTVS_COMPLEXITY>
315

> <PUBCHEM_CACTVS_HBOND_ACCEPTOR>
1

> <PUBCHEM_CACTVS_HBOND_DONOR>
1

> <PUBCHEM_CACTVS_ROTATABLE_BOND>
4

> <PUBCHEM_CACTVS_SUBSKEYS>
AAADceBwIAAAAAAAAAAAAAAAAAAAAYMAAAAwAAAAAAAAAAAAAAAAGgAACAAADwCggAICAAAAAgCAAiBCAAAAAAAgAAAACAAAAAgAFAIAAQAAUAAAgAAIEAMAgMAPgAAAAAAAAAAAAAQAACAAAQAACAAAAA==

> <PUBCHEM_IUPAC_OPENEYE_NAME>
(Z)-2-methyl-5-(2-methyl-3-methylene-norbornan-2-yl)pent-2-en-1-ol

> <PUBCHEM_IUPAC_CAS_NAME>
(Z)-2-methyl-5-(3-methyl-2-methylene-3-bicyclo[2.2.1]heptanyl)-2-penten-1-ol

> <PUBCHEM_IUPAC_NAME>
(Z)-2-methyl-5-(3-methyl-2-methylidene-3-bicyclo[2.2.1]heptanyl)pent-2-en-1-ol

> <PUBCHEM_IUPAC_SYSTEMATIC_NAME>
(Z)-2-methyl-5-(3-methyl-2-methylidene-3-bicyclo[2.2.1]heptanyl)pent-2-en-1-ol

> <PUBCHEM_IUPAC_TRADITIONAL_NAME>
(Z)-2-methyl-5-(2-methyl-3-methylene-norbornan-2-yl)pent-2-en-1-ol

> <PUBCHEM_IUPAC_INCHI>
InChI=1S/C15H24O/c1-11(10-16)5-4-8-15(3)12(2)13-6-7-14(15)9-13/h5,13-14,16H,2,4,6-10H2,1,3H3/b11-5-

> <PUBCHEM_IUPAC_INCHIKEY>
OJYKYCDSGQGTRJ-WZUFQYTHSA-N

> <PUBCHEM_XLOGP3_AA>
4

> <PUBCHEM_EXACT_MASS>
220.182715

> <PUBCHEM_MOLECULAR_FORMULA>
C15H24O

> <PUBCHEM_MOLECULAR_WEIGHT>
220.35046

> <PUBCHEM_OPENEYE_CAN_SMILES>
CC(=CCCC1(C2CCC(C2)C1=C)C)CO

> <PUBCHEM_OPENEYE_ISO_SMILES>
C/C(=C/CCC1(C2CCC(C2)C1=C)C)/CO

> <PUBCHEM_CACTVS_TPSA>
20.2

> <PUBCHEM_MONOISOTOPIC_WEIGHT>
220.182715

> <PUBCHEM_TOTAL_CHARGE>
0

> <PUBCHEM_HEAVY_ATOM_COUNT>
16

> <PUBCHEM_ATOM_DEF_STEREO_COUNT>
0

> <PUBCHEM_ATOM_UDEF_STEREO_COUNT>
3

> <PUBCHEM_BOND_DEF_STEREO_COUNT>
1

> <PUBCHEM_BOND_UDEF_STEREO_COUNT>
0

> <PUBCHEM_ISOTOPIC_ATOM_COUNT>
0

> <PUBCHEM_COMPONENT_COUNT>
1

> <PUBCHEM_CACTVS_TAUTO_COUNT>
1

> <PUBCHEM_COORDINATE_TYPE>
1
5
255

> <PUBCHEM_BONDANNOTATIONS>
2  17  3
3  9  3
4  18  3

$$$$

