443698
  -OEChem-07051213033D

 47 52  0     1  0  0  0  0  0999 V2000
   -4.4427   -1.3981    0.4178 O   0  0  0  0  0  0  0  0  0  0  0  0
   -5.9197    0.4835    0.1565 O   0  0  0  0  0  0  0  0  0  0  0  0
   -0.1475   -3.8256   -2.1077 O   0  0  0  0  0  0  0  0  0  0  0  0
    5.0614   -1.4643    0.7327 O   0  0  0  0  0  0  0  0  0  0  0  0
    6.0103    0.5570   -0.1695 O   0  0  0  0  0  0  0  0  0  0  0  0
   -0.1641   -0.8523    0.8825 N   0  0  1  0  0  0  0  0  0  0  0  0
   -1.4542   -1.2726    0.3078 C   0  0  1  0  0  0  0  0  0  0  0  0
   -2.3835   -0.0929    0.1440 C   0  0  0  0  0  0  0  0  0  0  0  0
    0.4540    0.2735    0.2866 C   0  0  0  0  0  0  0  0  0  0  0  0
   -1.8471    1.1936   -0.1002 C   0  0  0  0  0  0  0  0  0  0  0  0
   -0.3720    1.3321   -0.1906 C   0  0  0  0  0  0  0  0  0  0  0  0
   -1.2263   -2.0008   -1.0201 C   0  0  0  0  0  0  0  0  0  0  0  0
    1.8778    0.3493    0.1699 C   0  0  0  0  0  0  0  0  0  0  0  0
   -3.7625   -0.2359    0.2076 C   0  0  0  0  0  0  0  0  0  0  0  0
   -0.0372   -0.9229    2.3389 C   0  0  0  0  0  0  0  0  0  0  0  0
    2.4610    1.5262   -0.3866 C   0  0  0  0  0  0  0  0  0  0  0  0
   -2.7444    2.2812   -0.2390 C   0  0  0  0  0  0  0  0  0  0  0  0
    0.2464    2.4627   -0.7421 C   0  0  0  0  0  0  0  0  0  0  0  0
   -4.6091    0.8354    0.0587 C   0  0  0  0  0  0  0  0  0  0  0  0
   -0.3308   -3.2109   -0.8399 C   0  0  0  0  0  0  0  0  0  0  0  0
    1.6348    2.5630   -0.8256 C   0  0  0  0  0  0  0  0  0  0  0  0
   -4.1310    2.1067   -0.1611 C   0  0  0  0  0  0  0  0  0  0  0  0
    2.7483   -0.7029    0.5495 C   0  0  0  0  0  0  0  0  0  0  0  0
    3.8564    1.6506   -0.5144 C   0  0  0  0  0  0  0  0  0  0  0  0
    4.1124   -0.5456    0.4052 C   0  0  0  0  0  0  0  0  0  0  0  0
    4.6522    0.6024   -0.1088 C   0  0  0  0  0  0  0  0  0  0  0  0
   -5.8068   -0.9353    0.3800 C   0  0  0  0  0  0  0  0  0  0  0  0
    6.2641   -0.7570    0.3678 C   0  0  0  0  0  0  0  0  0  0  0  0
   -1.9206   -1.9836    1.0035 H   0  0  0  0  0  0  0  0  0  0  0  0
   -0.7891   -1.3321   -1.7737 H   0  0  0  0  0  0  0  0  0  0  0  0
   -2.1846   -2.3228   -1.4492 H   0  0  0  0  0  0  0  0  0  0  0  0
   -0.3212   -1.9201    2.6922 H   0  0  0  0  0  0  0  0  0  0  0  0
   -0.6952   -0.1904    2.8200 H   0  0  0  0  0  0  0  0  0  0  0  0
    0.9843   -0.7393    2.6858 H   0  0  0  0  0  0  0  0  0  0  0  0
   -2.3793    3.2920   -0.4025 H   0  0  0  0  0  0  0  0  0  0  0  0
   -0.3358    3.2932   -1.1326 H   0  0  0  0  0  0  0  0  0  0  0  0
    0.6569   -2.9551   -0.4478 H   0  0  0  0  0  0  0  0  0  0  0  0
   -0.7894   -3.9444   -0.1697 H   0  0  0  0  0  0  0  0  0  0  0  0
    2.0619    3.4649   -1.2608 H   0  0  0  0  0  0  0  0  0  0  0  0
   -4.8012    2.9519   -0.2715 H   0  0  0  0  0  0  0  0  0  0  0  0
    2.3688   -1.6387    0.9491 H   0  0  0  0  0  0  0  0  0  0  0  0
    4.3082    2.5461   -0.9320 H   0  0  0  0  0  0  0  0  0  0  0  0
   -6.2872   -1.1800    1.3343 H   0  0  0  0  0  0  0  0  0  0  0  0
   -6.3341   -1.4611   -0.4243 H   0  0  0  0  0  0  0  0  0  0  0  0
    0.3022   -3.1841   -2.6837 H   0  0  0  0  0  0  0  0  0  0  0  0
    6.8034   -1.3455   -0.3833 H   0  0  0  0  0  0  0  0  0  0  0  0
    6.8964   -0.6568    1.2575 H   0  0  0  0  0  0  0  0  0  0  0  0
  1 14  1  0  0  0  0
  1 27  1  0  0  0  0
  2 19  1  0  0  0  0
  2 27  1  0  0  0  0
  3 20  1  0  0  0  0
  3 45  1  0  0  0  0
  4 25  1  0  0  0  0
  4 28  1  0  0  0  0
  5 26  1  0  0  0  0
  5 28  1  0  0  0  0
  6  7  1  0  0  0  0
  6  9  1  0  0  0  0
  6 15  1  0  0  0  0
  7  8  1  0  0  0  0
  7 12  1  0  0  0  0
  7 29  1  0  0  0  0
  8 10  2  0  0  0  0
  8 14  1  0  0  0  0
  9 11  2  0  0  0  0
  9 13  1  0  0  0  0
 10 11  1  0  0  0  0
 10 17  1  0  0  0  0
 11 18  1  0  0  0  0
 12 20  1  0  0  0  0
 12 30  1  0  0  0  0
 12 31  1  0  0  0  0
 13 16  1  0  0  0  0
 13 23  2  0  0  0  0
 14 19  2  0  0  0  0
 15 32  1  0  0  0  0
 15 33  1  0  0  0  0
 15 34  1  0  0  0  0
 16 21  1  0  0  0  0
 16 24  2  0  0  0  0
 17 22  2  0  0  0  0
 17 35  1  0  0  0  0
 18 21  2  0  0  0  0
 18 36  1  0  0  0  0
 19 22  1  0  0  0  0
 20 37  1  0  0  0  0
 20 38  1  0  0  0  0
 21 39  1  0  0  0  0
 22 40  1  0  0  0  0
 23 25  1  0  0  0  0
 23 41  1  0  0  0  0
 24 26  1  0  0  0  0
 24 42  1  0  0  0  0
 25 26  2  0  0  0  0
 27 43  1  0  0  0  0
 27 44  1  0  0  0  0
 28 46  1  0  0  0  0
 28 47  1  0  0  0  0
M  END
> <PUBCHEM_COMPOUND_CID>
443698

> <PUBCHEM_CONFORMER_RMSD>
0.8

> <PUBCHEM_CONFORMER_DIVERSEORDER>
1
2
3
4

> <PUBCHEM_MMFF94_PARTIAL_CHARGES>
30
1 -0.36
14 0.08
15 0.37
17 -0.15
18 -0.15
19 0.08
2 -0.36
20 0.28
21 -0.15
22 -0.15
23 -0.15
24 -0.15
25 0.08
26 0.08
27 0.56
28 0.56
3 -0.68
35 0.15
36 0.15
39 0.15
4 -0.36
40 0.15
41 0.15
42 0.15
45 0.4
5 -0.36
6 -0.84
7 0.51
8 -0.14
9 0.1

> <PUBCHEM_EFFECTIVE_ROTOR_COUNT>
3.6

> <PUBCHEM_PHARMACOPHORE_FEATURES>
13
1 1 acceptor
1 2 acceptor
1 3 acceptor
1 3 donor
1 4 acceptor
1 5 acceptor
1 6 cation
5 1 2 14 19 27 rings
5 4 5 25 26 28 rings
6 13 16 23 24 25 26 rings
6 6 7 8 9 10 11 rings
6 8 10 14 17 19 22 rings
6 9 11 13 16 18 21 rings

> <PUBCHEM_HEAVY_ATOM_COUNT>
28

> <PUBCHEM_ATOM_DEF_STEREO_COUNT>
0

> <PUBCHEM_ATOM_UDEF_STEREO_COUNT>
1

> <PUBCHEM_BOND_DEF_STEREO_COUNT>
0

> <PUBCHEM_BOND_UDEF_STEREO_COUNT>
0

> <PUBCHEM_ISOTOPIC_ATOM_COUNT>
0

> <PUBCHEM_COMPONENT_COUNT>
1

> <PUBCHEM_CACTVS_TAUTO_COUNT>
1

> <PUBCHEM_CONFORMER_ID>
0006C53200000001

> <PUBCHEM_MMFF94_ENERGY>
101.514

> <PUBCHEM_FEATURE_SELFOVERLAP>
66.341

> <PUBCHEM_SHAPE_FINGERPRINT>
10906281 52 18128796664845974600
11488393 25 18118392089044100459
11524674 6 17530971302150936606
11578080 2 14202496776853534017
11607047 141 15577208469356061319
11607047 403 15800490358362550971
12107183 9 17623861531345803689
12236239 1 18273495680083614672
12422481 6 18196092363643181730
12592029 89 18336259119664977451
12715332 25 18334296431284655741
12788726 201 17895177905511317832
13140716 1 18266454318152706043
13862211 1 18131354137318547200
14028597 1 17023451054143196035
14790565 3 18342172288962322172
15042514 8 18267020549377251915
15131766 46 15337127700048474662
15196674 1 18344145895032907088
15274700 242 18057629662711305458
15849732 13 18411700976249129590
1601671 61 18339926012275697393
1813 80 16917071057856213060
18681886 176 18337117786996683689
19141452 34 18335143051333498606
19319366 153 17846781793687876306
19591789 44 18343023297992604521
20028762 73 18186805742928857255
20511986 3 18202013101316739884
20775438 99 16671952322318437815
21033648 29 17968676976377885224
21236236 1 18341332275311645873
21267235 1 18271800228995695424
22393880 68 17846511347912939837
23402539 116 18408891736729988781
23522609 53 18055038113077253957
23559900 14 18270121201625962896
3004659 81 17918273165170651304
335352 9 18343584049524144309
34797466 226 17749381530603812676
34934 24 18271244920348256328
350125 39 18413107260348600625
4017518 198 17749382681586691862
404807 14 16888054095390386758
4073 2 17632287931258601504
4093350 32 16661197196007234559
4214541 1 18343021116255011981
4340502 62 17385442133283574582
465052 167 18200584814078874643
5104073 3 18413387626833502569
5265222 85 18261668169922813172
5385378 56 18042111223957401691
6138700 20 18272651298482814514
9953998 17 18115328704637574290

> <PUBCHEM_SHAPE_MULTIPOLES>
541.9
12.09
3.07
1.14
3.72
1.2
-0.09
-0.11
-1.58
-0.65
1.65
0.07
0.86
-0.54

> <PUBCHEM_SHAPE_SELFOVERLAP>
1239.749

> <PUBCHEM_SHAPE_VOLUME>
281.2

> <PUBCHEM_COORDINATE_TYPE>
2
5
10

$$$$

