9517
  -OEChem-06261203463D

 32 31  0     0  0  0  0  0  0999 V2000
    6.5187    0.8583    0.8828 F   0  0  0  0  0  0  0  0  0  0  0  0
   -5.8425    1.4042   -0.7318 F   0  0  0  0  0  0  0  0  0  0  0  0
   -3.5234    0.2476    0.2198 O   0  0  0  0  0  0  0  0  0  0  0  0
   -2.4132   -1.7676    0.0282 O   0  0  0  0  0  0  0  0  0  0  0  0
    2.6211   -0.5320   -0.2029 C   0  0  0  0  0  0  0  0  0  0  0  0
    1.3690    0.3224    0.0046 C   0  0  0  0  0  0  0  0  0  0  0  0
    3.8893    0.3230   -0.1744 C   0  0  0  0  0  0  0  0  0  0  0  0
    0.0986   -0.5304   -0.0573 C   0  0  0  0  0  0  0  0  0  0  0  0
    5.1378   -0.5264   -0.4178 C   0  0  0  0  0  0  0  0  0  0  0  0
   -1.1704    0.2994    0.1153 C   0  0  0  0  0  0  0  0  0  0  0  0
    6.4036    0.3112   -0.3564 C   0  0  0  0  0  0  0  0  0  0  0  0
   -2.4198   -0.5463    0.1147 C   0  0  0  0  0  0  0  0  0  0  0  0
   -4.7782   -0.4403    0.2270 C   0  0  0  0  0  0  0  0  0  0  0  0
   -5.8907    0.5769    0.3483 C   0  0  0  0  0  0  0  0  0  0  0  0
    2.5532   -1.0536   -1.1654 H   0  0  0  0  0  0  0  0  0  0  0  0
    2.6764   -1.3001    0.5780 H   0  0  0  0  0  0  0  0  0  0  0  0
    1.4244    0.8299    0.9752 H   0  0  0  0  0  0  0  0  0  0  0  0
    1.3230    1.1011   -0.7663 H   0  0  0  0  0  0  0  0  0  0  0  0
    3.9669    0.8278    0.7961 H   0  0  0  0  0  0  0  0  0  0  0  0
    3.8245    1.1049   -0.9409 H   0  0  0  0  0  0  0  0  0  0  0  0
    0.0580   -1.0608   -1.0171 H   0  0  0  0  0  0  0  0  0  0  0  0
    0.1430   -1.3012    0.7227 H   0  0  0  0  0  0  0  0  0  0  0  0
    5.0726   -1.0176   -1.3952 H   0  0  0  0  0  0  0  0  0  0  0  0
    5.1932   -1.3099    0.3468 H   0  0  0  0  0  0  0  0  0  0  0  0
   -1.1307    0.8407    1.0672 H   0  0  0  0  0  0  0  0  0  0  0  0
   -1.2473    1.0248   -0.7024 H   0  0  0  0  0  0  0  0  0  0  0  0
    6.3867    1.1245   -1.0878 H   0  0  0  0  0  0  0  0  0  0  0  0
    7.2885   -0.3063   -0.5347 H   0  0  0  0  0  0  0  0  0  0  0  0
   -4.8121   -1.1361    1.0722 H   0  0  0  0  0  0  0  0  0  0  0  0
   -4.8847   -0.9909   -0.7141 H   0  0  0  0  0  0  0  0  0  0  0  0
   -5.7672    1.1993    1.2390 H   0  0  0  0  0  0  0  0  0  0  0  0
   -6.8727    0.0974    0.3682 H   0  0  0  0  0  0  0  0  0  0  0  0
  1 11  1  0  0  0  0
  2 14  1  0  0  0  0
  3 12  1  0  0  0  0
  3 13  1  0  0  0  0
  4 12  2  0  0  0  0
  5  6  1  0  0  0  0
  5  7  1  0  0  0  0
  5 15  1  0  0  0  0
  5 16  1  0  0  0  0
  6  8  1  0  0  0  0
  6 17  1  0  0  0  0
  6 18  1  0  0  0  0
  7  9  1  0  0  0  0
  7 19  1  0  0  0  0
  7 20  1  0  0  0  0
  8 10  1  0  0  0  0
  8 21  1  0  0  0  0
  8 22  1  0  0  0  0
  9 11  1  0  0  0  0
  9 23  1  0  0  0  0
  9 24  1  0  0  0  0
 10 12  1  0  0  0  0
 10 25  1  0  0  0  0
 10 26  1  0  0  0  0
 11 27  1  0  0  0  0
 11 28  1  0  0  0  0
 13 14  1  0  0  0  0
 13 29  1  0  0  0  0
 13 30  1  0  0  0  0
 14 31  1  0  0  0  0
 14 32  1  0  0  0  0
M  END
> <PUBCHEM_COMPOUND_CID>
9517

> <PUBCHEM_CONFORMER_RMSD>
1

> <PUBCHEM_CONFORMER_DIVERSEORDER>
1
88
150
50
110
132
9
19
31
121
87
26
135
116
76
147
99
8
34
60
49
14
109
107
66
70
41
90
4
72
84
93
38
130
118
16
13
74
3
22
141
59
100
36
62
82
2
91
128
32
131
102
138
108
79
39
97
114
124
18
64
21
112
136
45
78
5
144
54
61
24
126
148
129
104
127
43
20
142
53
10
51
119
139
89
95
122
23
103
28
81
134
58
30
73
25
140
17
80
46
85
52
11
69
94
29
48
98
83
101
15
40
37
68
125
111
71
12
77
35
92
33
113
106
56
96
6
120
27
146
145
55
117
137
42
86
115
7
47
149
65
44
75
63
57
105
143
67
133
123

> <PUBCHEM_MMFF94_PARTIAL_CHARGES>
9
1 -0.34
10 0.06
11 0.34
12 0.66
13 0.28
14 0.34
2 -0.34
3 -0.43
4 -0.57

> <PUBCHEM_EFFECTIVE_ROTOR_COUNT>
10

> <PUBCHEM_PHARMACOPHORE_FEATURES>
3
1 4 acceptor
3 5 7 9 hydrophobe
3 6 8 10 hydrophobe

> <PUBCHEM_HEAVY_ATOM_COUNT>
14

> <PUBCHEM_ATOM_DEF_STEREO_COUNT>
0

> <PUBCHEM_ATOM_UDEF_STEREO_COUNT>
0

> <PUBCHEM_BOND_DEF_STEREO_COUNT>
0

> <PUBCHEM_BOND_UDEF_STEREO_COUNT>
0

> <PUBCHEM_ISOTOPIC_ATOM_COUNT>
0

> <PUBCHEM_COMPONENT_COUNT>
1

> <PUBCHEM_CACTVS_TAUTO_COUNT>
1

> <PUBCHEM_CONFORMER_ID>
0000252D00000001

> <PUBCHEM_MMFF94_ENERGY>
2.8884

> <PUBCHEM_FEATURE_SELFOVERLAP>
15.223

> <PUBCHEM_SHAPE_FINGERPRINT>
10968037 39 18040996237176978845
117890 112 18408320012153028812
12091667 2 18272649039630638555
12714333 28 18187082858170266178
12815109 37 18335417967615475790
13533116 47 15430309296005007934
14123238 8 5473145128695836974
14251718 22 6555412011405845828
14251764 18 18272369776657050499
14251764 46 17275102825826871787
14729087 3 18411422825318980616
15048467 5 18413670218490614188
15242439 84 18040996232892678114
15501527 16 18413106178100711901
15716309 27 11887666278390459089
16079462 125 18261120668460658384
17834072 33 6338948966944191130
17834072 8 18333170574696867985
17834076 25 18342455941323395359
20281389 69 18272370892620858837
20621476 66 18411414033932213517
20645477 56 18343304773285540653
20645477 70 16878494769752368550
20681677 155 18272089374778982162
20767249 213 17821728329598903510
21150785 3 16588031199347783989
220451 1 15913327971143895242
23035841 295 11312056543222410544
23218964 4 18412824702728375358
23402539 116 18334860511231181559
23559900 14 17894638015078338609
300161 21 18408608063009707638
42788 4 18410853261104912750
4463277 17 18342737416516559316
8209 1 18259983777478998780

> <PUBCHEM_SHAPE_MULTIPOLES>
261.83
17.76
1.06
0.7
6.58
0.15
-0.01
-4.97
-0.11
-0.8
0.04
0.16
-0.09
0.63

> <PUBCHEM_SHAPE_SELFOVERLAP>
483.125

> <PUBCHEM_SHAPE_VOLUME>
164.6

> <PUBCHEM_COORDINATE_TYPE>
2
5
10

$$$$

