44237218
  -OEChem-07051213112D

 95 97  0     0  0  0  0  0  0999 V2000
    4.5981   -1.2500    0.0000 O   0  0  0  0  0  0  0  0  0  0  0  0
   11.5263   -0.2500    0.0000 O   0  0  0  0  0  0  0  0  0  0  0  0
    7.1962    3.2500    0.0000 O   0  0  0  0  0  0  0  0  0  0  0  0
    2.8660   -6.2500    0.0000 O   0  0  0  0  0  0  0  0  0  0  0  0
    6.3301   -6.2500    0.0000 O   0  0  0  0  0  0  0  0  0  0  0  0
    4.5981   -7.2500    0.0000 O   0  0  0  0  0  0  0  0  0  0  0  0
   14.9904   -4.2500    0.0000 O   0  0  0  0  0  0  0  0  0  0  0  0
   12.3923    4.2500    0.0000 O   0  0  0  0  0  0  0  0  0  0  0  0
   16.7224   -1.2500    0.0000 O   0  0  0  0  0  0  0  0  0  0  0  0
   10.6603    7.2500    0.0000 O   0  0  0  0  0  0  0  0  0  0  0  0
   16.7224   -3.2500    0.0000 O   0  0  0  0  0  0  0  0  0  0  0  0
   12.3923    6.2500    0.0000 O   0  0  0  0  0  0  0  0  0  0  0  0
    6.3301   -1.2500    0.0000 N   0  0  0  0  0  0  0  0  0  0  0  0
   10.6603   -1.7500    0.0000 N   0  0  0  0  0  0  0  0  0  0  0  0
    8.0622    1.7500    0.0000 N   0  0  0  0  0  0  0  0  0  0  0  0
    7.1962   -1.7500    0.0000 C   0  0  0  0  0  0  0  0  0  0  0  0
    8.0622   -1.2500    0.0000 C   0  0  0  0  0  0  0  0  0  0  0  0
    6.3301   -0.2500    0.0000 C   0  0  0  0  0  0  0  0  0  0  0  0
    8.9282   -1.7500    0.0000 C   0  0  0  0  0  0  0  0  0  0  0  0
    7.1962    0.2500    0.0000 C   0  0  0  0  0  0  0  0  0  0  0  0
    9.7942   -1.2500    0.0000 C   0  0  0  0  0  0  0  0  0  0  0  0
    7.1962    1.2500    0.0000 C   0  0  0  0  0  0  0  0  0  0  0  0
    5.4641   -1.7500    0.0000 C   0  0  0  0  0  0  0  0  0  0  0  0
    5.4641   -2.7500    0.0000 C   0  0  0  0  0  0  0  0  0  0  0  0
   11.5263   -1.2500    0.0000 C   0  0  0  0  0  0  0  0  0  0  0  0
    4.5981   -3.2500    0.0000 C   0  0  0  0  0  0  0  0  0  0  0  0
    8.0622    2.7500    0.0000 C   0  0  0  0  0  0  0  0  0  0  0  0
    4.5981   -4.2500    0.0000 C   0  0  0  0  0  0  0  0  0  0  0  0
   12.3923   -1.7500    0.0000 C   0  0  0  0  0  0  0  0  0  0  0  0
    8.9282    3.2500    0.0000 C   0  0  0  0  0  0  0  0  0  0  0  0
    3.7320   -4.7500    0.0000 C   0  0  0  0  0  0  0  0  0  0  0  0
    5.4641   -4.7500    0.0000 C   0  0  0  0  0  0  0  0  0  0  0  0
   13.2583   -1.2500    0.0000 C   0  0  0  0  0  0  0  0  0  0  0  0
    8.9282    4.2500    0.0000 C   0  0  0  0  0  0  0  0  0  0  0  0
    3.7320   -5.7500    0.0000 C   0  0  0  0  0  0  0  0  0  0  0  0
    5.4641   -5.7500    0.0000 C   0  0  0  0  0  0  0  0  0  0  0  0
    4.5981   -6.2500    0.0000 C   0  0  0  0  0  0  0  0  0  0  0  0
   14.1244   -1.7500    0.0000 C   0  0  0  0  0  0  0  0  0  0  0  0
    9.7942    4.7500    0.0000 C   0  0  0  0  0  0  0  0  0  0  0  0
   14.1244   -2.7500    0.0000 C   0  0  0  0  0  0  0  0  0  0  0  0
   14.9904   -1.2500    0.0000 C   0  0  0  0  0  0  0  0  0  0  0  0
   10.6603    4.2500    0.0000 C   0  0  0  0  0  0  0  0  0  0  0  0
    9.7942    5.7500    0.0000 C   0  0  0  0  0  0  0  0  0  0  0  0
   14.9904   -3.2500    0.0000 C   0  0  0  0  0  0  0  0  0  0  0  0
   11.5263    4.7500    0.0000 C   0  0  0  0  0  0  0  0  0  0  0  0
   15.8564   -1.7500    0.0000 C   0  0  0  0  0  0  0  0  0  0  0  0
   10.6603    6.2500    0.0000 C   0  0  0  0  0  0  0  0  0  0  0  0
   15.8564   -2.7500    0.0000 C   0  0  0  0  0  0  0  0  0  0  0  0
   11.5263    5.7500    0.0000 C   0  0  0  0  0  0  0  0  0  0  0  0
    2.0000   -5.7500    0.0000 C   0  0  0  0  0  0  0  0  0  0  0  0
   14.1244   -4.7500    0.0000 C   0  0  0  0  0  0  0  0  0  0  0  0
   13.2583    4.7500    0.0000 C   0  0  0  0  0  0  0  0  0  0  0  0
    6.7976   -2.2250    0.0000 H   0  0  0  0  0  0  0  0  0  0  0  0
    7.5947   -2.2250    0.0000 H   0  0  0  0  0  0  0  0  0  0  0  0
    8.4607   -0.7751    0.0000 H   0  0  0  0  0  0  0  0  0  0  0  0
    7.6636   -0.7751    0.0000 H   0  0  0  0  0  0  0  0  0  0  0  0
    6.1181    0.3326    0.0000 H   0  0  0  0  0  0  0  0  0  0  0  0
    5.7196   -0.3577    0.0000 H   0  0  0  0  0  0  0  0  0  0  0  0
    8.5297   -2.2250    0.0000 H   0  0  0  0  0  0  0  0  0  0  0  0
    9.3267   -2.2250    0.0000 H   0  0  0  0  0  0  0  0  0  0  0  0
    7.4082   -0.3326    0.0000 H   0  0  0  0  0  0  0  0  0  0  0  0
    7.8067    0.3577    0.0000 H   0  0  0  0  0  0  0  0  0  0  0  0
   10.1928   -0.7751    0.0000 H   0  0  0  0  0  0  0  0  0  0  0  0
    9.3957   -0.7751    0.0000 H   0  0  0  0  0  0  0  0  0  0  0  0
    6.9841    1.8326    0.0000 H   0  0  0  0  0  0  0  0  0  0  0  0
    6.5856    1.1423    0.0000 H   0  0  0  0  0  0  0  0  0  0  0  0
   10.6603   -2.3700    0.0000 H   0  0  0  0  0  0  0  0  0  0  0  0
    8.5991    1.4400    0.0000 H   0  0  0  0  0  0  0  0  0  0  0  0
    6.0010   -3.0600    0.0000 H   0  0  0  0  0  0  0  0  0  0  0  0
    4.0611   -2.9400    0.0000 H   0  0  0  0  0  0  0  0  0  0  0  0
   12.3923   -2.3700    0.0000 H   0  0  0  0  0  0  0  0  0  0  0  0
    9.4651    2.9400    0.0000 H   0  0  0  0  0  0  0  0  0  0  0  0
    3.1951   -4.4400    0.0000 H   0  0  0  0  0  0  0  0  0  0  0  0
    6.0010   -4.4400    0.0000 H   0  0  0  0  0  0  0  0  0  0  0  0
   13.2583   -0.6300    0.0000 H   0  0  0  0  0  0  0  0  0  0  0  0
    8.3913    4.5600    0.0000 H   0  0  0  0  0  0  0  0  0  0  0  0
   13.5874   -3.0600    0.0000 H   0  0  0  0  0  0  0  0  0  0  0  0
   14.9904   -0.6300    0.0000 H   0  0  0  0  0  0  0  0  0  0  0  0
   10.6603    3.6300    0.0000 H   0  0  0  0  0  0  0  0  0  0  0  0
    9.2573    6.0600    0.0000 H   0  0  0  0  0  0  0  0  0  0  0  0
    6.8671   -5.9400    0.0000 H   0  0  0  0  0  0  0  0  0  0  0  0
    4.0611   -7.5600    0.0000 H   0  0  0  0  0  0  0  0  0  0  0  0
    2.3100   -5.2131    0.0000 H   0  0  0  0  0  0  0  0  0  0  0  0
    1.4631   -5.4400    0.0000 H   0  0  0  0  0  0  0  0  0  0  0  0
    1.6900   -6.2869    0.0000 H   0  0  0  0  0  0  0  0  0  0  0  0
   16.7224   -0.6300    0.0000 H   0  0  0  0  0  0  0  0  0  0  0  0
   10.1233    7.5600    0.0000 H   0  0  0  0  0  0  0  0  0  0  0  0
   17.2594   -2.9400    0.0000 H   0  0  0  0  0  0  0  0  0  0  0  0
   12.3923    6.8700    0.0000 H   0  0  0  0  0  0  0  0  0  0  0  0
   13.8144   -4.2131    0.0000 H   0  0  0  0  0  0  0  0  0  0  0  0
   13.5874   -5.0600    0.0000 H   0  0  0  0  0  0  0  0  0  0  0  0
   14.4344   -5.2869    0.0000 H   0  0  0  0  0  0  0  0  0  0  0  0
   13.5683    4.2131    0.0000 H   0  0  0  0  0  0  0  0  0  0  0  0
   13.7953    5.0600    0.0000 H   0  0  0  0  0  0  0  0  0  0  0  0
   12.9483    5.2869    0.0000 H   0  0  0  0  0  0  0  0  0  0  0  0
  1 23  2  0  0  0  0
  2 25  2  0  0  0  0
  3 27  2  0  0  0  0
  4 35  1  0  0  0  0
  4 50  1  0  0  0  0
  5 36  1  0  0  0  0
  5 81  1  0  0  0  0
  6 37  1  0  0  0  0
  6 82  1  0  0  0  0
  7 44  1  0  0  0  0
  7 51  1  0  0  0  0
  8 45  1  0  0  0  0
  8 52  1  0  0  0  0
  9 46  1  0  0  0  0
  9 86  1  0  0  0  0
 10 47  1  0  0  0  0
 10 87  1  0  0  0  0
 11 48  1  0  0  0  0
 11 88  1  0  0  0  0
 12 49  1  0  0  0  0
 12 89  1  0  0  0  0
 13 16  1  0  0  0  0
 13 18  1  0  0  0  0
 13 23  1  0  0  0  0
 14 21  1  0  0  0  0
 14 25  1  0  0  0  0
 14 67  1  0  0  0  0
 15 22  1  0  0  0  0
 15 27  1  0  0  0  0
 15 68  1  0  0  0  0
 16 17  1  0  0  0  0
 16 53  1  0  0  0  0
 16 54  1  0  0  0  0
 17 19  1  0  0  0  0
 17 55  1  0  0  0  0
 17 56  1  0  0  0  0
 18 20  1  0  0  0  0
 18 57  1  0  0  0  0
 18 58  1  0  0  0  0
 19 21  1  0  0  0  0
 19 59  1  0  0  0  0
 19 60  1  0  0  0  0
 20 22  1  0  0  0  0
 20 61  1  0  0  0  0
 20 62  1  0  0  0  0
 21 63  1  0  0  0  0
 21 64  1  0  0  0  0
 22 65  1  0  0  0  0
 22 66  1  0  0  0  0
 23 24  1  0  0  0  0
 24 26  2  0  0  0  0
 24 69  1  0  0  0  0
 25 29  1  0  0  0  0
 26 28  1  0  0  0  0
 26 70  1  0  0  0  0
 27 30  1  0  0  0  0
 28 31  1  0  0  0  0
 28 32  2  0  0  0  0
 29 33  2  0  0  0  0
 29 71  1  0  0  0  0
 30 34  2  0  0  0  0
 30 72  1  0  0  0  0
 31 35  2  0  0  0  0
 31 73  1  0  0  0  0
 32 36  1  0  0  0  0
 32 74  1  0  0  0  0
 33 38  1  0  0  0  0
 33 75  1  0  0  0  0
 34 39  1  0  0  0  0
 34 76  1  0  0  0  0
 35 37  1  0  0  0  0
 36 37  2  0  0  0  0
 38 40  1  0  0  0  0
 38 41  2  0  0  0  0
 39 42  1  0  0  0  0
 39 43  2  0  0  0  0
 40 44  2  0  0  0  0
 40 77  1  0  0  0  0
 41 46  1  0  0  0  0
 41 78  1  0  0  0  0
 42 45  2  0  0  0  0
 42 79  1  0  0  0  0
 43 47  1  0  0  0  0
 43 80  1  0  0  0  0
 44 48  1  0  0  0  0
 45 49  1  0  0  0  0
 46 48  2  0  0  0  0
 47 49  2  0  0  0  0
 50 83  1  0  0  0  0
 50 84  1  0  0  0  0
 50 85  1  0  0  0  0
 51 90  1  0  0  0  0
 51 91  1  0  0  0  0
 51 92  1  0  0  0  0
 52 93  1  0  0  0  0
 52 94  1  0  0  0  0
 52 95  1  0  0  0  0
M  END
> <PUBCHEM_COMPOUND_CID>
44237218

> <PUBCHEM_COMPOUND_CANONICALIZED>
1

> <PUBCHEM_CACTVS_COMPLEXITY>
1200

> <PUBCHEM_CACTVS_HBOND_ACCEPTOR>
12

> <PUBCHEM_CACTVS_HBOND_DONOR>
8

> <PUBCHEM_CACTVS_ROTATABLE_BOND>
18

> <PUBCHEM_CACTVS_SUBSKEYS>
AAADcfB/PAAAAAAAAAAAAAAAAAAAAAAAAAAwYMAAAAAAAAABUAAAHgAQCAAADATBmAYyBoPABgCIAiFSEACCCAAgIAAIiIAOiMgNJyKG8RqEcCMl1hWLuYeA4BwOIAABCAAAQABAAAIQAACAAAAAAAAAAA==

> <PUBCHEM_IUPAC_OPENEYE_NAME>
(E)-3-(3,4-dihydroxy-5-methoxy-phenyl)-N-[4-[[(E)-3-(3,4-dihydroxy-5-methoxy-phenyl)prop-2-enoyl]-[3-[[(E)-3-(3,4-dihydroxy-5-methoxy-phenyl)prop-2-enoyl]amino]propyl]amino]butyl]prop-2-enamide

> <PUBCHEM_IUPAC_CAS_NAME>
(E)-3-(3,4-dihydroxy-5-methoxyphenyl)-N-[4-[[(E)-3-(3,4-dihydroxy-5-methoxyphenyl)-1-oxoprop-2-enyl]-[3-[[(E)-3-(3,4-dihydroxy-5-methoxyphenyl)-1-oxoprop-2-enyl]amino]propyl]amino]butyl]-2-propenamide

> <PUBCHEM_IUPAC_NAME>
(E)-3-(3,4-dihydroxy-5-methoxyphenyl)-N-[4-[[(E)-3-(3,4-dihydroxy-5-methoxyphenyl)prop-2-enoyl]-[3-[[(E)-3-(3,4-dihydroxy-5-methoxyphenyl)prop-2-enoyl]amino]propyl]amino]butyl]prop-2-enamide

> <PUBCHEM_IUPAC_SYSTEMATIC_NAME>
(E)-3-[3-methoxy-4,5-bis(oxidanyl)phenyl]-N-[4-[[(E)-3-[3-methoxy-4,5-bis(oxidanyl)phenyl]prop-2-enoyl]-[3-[[(E)-3-[3-methoxy-4,5-bis(oxidanyl)phenyl]prop-2-enoyl]amino]propyl]amino]butyl]prop-2-enamide

> <PUBCHEM_IUPAC_TRADITIONAL_NAME>
(E)-3-(3,4-dihydroxy-5-methoxy-phenyl)-N-[4-[[(E)-3-(3,4-dihydroxy-5-methoxy-phenyl)acryloyl]-[3-[[(E)-3-(3,4-dihydroxy-5-methoxy-phenyl)acryloyl]amino]propyl]amino]butyl]acrylamide

> <PUBCHEM_IUPAC_INCHI>
InChI=1S/C37H43N3O12/c1-50-29-20-23(17-26(41)35(29)47)7-10-32(44)38-13-4-5-15-40(34(46)12-9-25-19-28(43)37(49)31(22-25)52-3)16-6-14-39-33(45)11-8-24-18-27(42)36(48)30(21-24)51-2/h7-12,17-22,41-43,47-49H,4-6,13-16H2,1-3H3,(H,38,44)(H,39,45)/b10-7+,11-8+,12-9+

> <PUBCHEM_IUPAC_INCHIKEY>
YVLXSHWZFBDIEL-SRDSWEMOSA-N

> <PUBCHEM_XLOGP3_AA>
3.5

> <PUBCHEM_EXACT_MASS>
721.284674

> <PUBCHEM_MOLECULAR_FORMULA>
C37H43N3O12

> <PUBCHEM_MOLECULAR_WEIGHT>
721.75022

> <PUBCHEM_OPENEYE_CAN_SMILES>
COC1=CC(=CC(=C1O)O)C=CC(=O)NCCCCN(CCCNC(=O)C=CC2=CC(=C(C(=C2)OC)O)O)C(=O)C=CC3=CC(=C(C(=C3)OC)O)O

> <PUBCHEM_OPENEYE_ISO_SMILES>
COC1=CC(=CC(=C1O)O)/C=C/C(=O)NCCCCN(CCCNC(=O)/C=C/C2=CC(=C(C(=C2)OC)O)O)C(=O)/C=C/C3=CC(=C(C(=C3)OC)O)O

> <PUBCHEM_CACTVS_TPSA>
228

> <PUBCHEM_MONOISOTOPIC_WEIGHT>
721.284674

> <PUBCHEM_TOTAL_CHARGE>
0

> <PUBCHEM_HEAVY_ATOM_COUNT>
52

> <PUBCHEM_ATOM_DEF_STEREO_COUNT>
0

> <PUBCHEM_ATOM_UDEF_STEREO_COUNT>
0

> <PUBCHEM_BOND_DEF_STEREO_COUNT>
3

> <PUBCHEM_BOND_UDEF_STEREO_COUNT>
0

> <PUBCHEM_ISOTOPIC_ATOM_COUNT>
0

> <PUBCHEM_COMPONENT_COUNT>
1

> <PUBCHEM_CACTVS_TAUTO_COUNT>
994

> <PUBCHEM_COORDINATE_TYPE>
1
5
255

> <PUBCHEM_BONDANNOTATIONS>
28  31  8
28  32  8
31  35  8
32  36  8
35  37  8
36  37  8
38  40  8
38  41  8
39  42  8
39  43  8
40  44  8
41  46  8
42  45  8
43  47  8
44  48  8
45  49  8
46  48  8
47  49  8

$$$$

