227844
  -OEChem-07051213073D

 46 49  0     1  0  0  0  0  0999 V2000
   -0.1165    2.6648   -0.4102 O   0  0  0  0  0  0  0  0  0  0  0  0
   -4.9990    0.9438    0.7610 O   0  0  0  0  0  0  0  0  0  0  0  0
    5.7510   -0.0858    0.5952 O   0  0  0  0  0  0  0  0  0  0  0  0
   -0.6347   -0.8971   -0.2840 C   0  0  1  0  0  0  0  0  0  0  0  0
   -2.0473   -0.8341    0.3078 C   0  0  1  0  0  0  0  0  0  0  0  0
    0.1833    0.3212    0.2603 C   0  0  1  0  0  0  0  0  0  0  0  0
   -2.7879    0.4493   -0.1241 C   0  0  2  0  0  0  0  0  0  0  0  0
    1.6630    0.3097   -0.2640 C   0  0  1  0  0  0  0  0  0  0  0  0
    2.2828   -1.0708    0.1345 C   0  0  1  0  0  0  0  0  0  0  0  0
    0.0518   -2.2284    0.0459 C   0  0  0  0  0  0  0  0  0  0  0  0
   -2.0708    1.6394    0.4931 C   0  0  0  0  0  0  0  0  0  0  0  0
   -3.0405   -1.9543    0.0157 C   0  0  0  0  0  0  0  0  0  0  0  0
    1.5016   -2.2620   -0.4263 C   0  0  0  0  0  0  0  0  0  0  0  0
   -0.6145    1.6335    0.0394 C   0  0  0  0  0  0  0  0  0  0  0  0
   -4.1545    0.1156    0.4462 C   0  0  0  0  0  0  0  0  0  0  0  0
   -4.3627   -1.3850    0.5484 C   0  0  0  0  0  0  0  0  0  0  0  0
   -2.9713    0.6474   -1.6401 C   0  0  0  0  0  0  0  0  0  0  0  0
    3.7703   -1.1656   -0.2155 C   0  0  0  0  0  0  0  0  0  0  0  0
    1.7203    0.5530   -1.7915 C   0  0  0  0  0  0  0  0  0  0  0  0
    2.5202    1.3807    0.4014 C   0  0  0  0  0  0  0  0  0  0  0  0
    4.5396   -0.0149    0.3946 C   0  0  0  0  0  0  0  0  0  0  0  0
    3.8157    1.2396    0.7121 C   0  0  0  0  0  0  0  0  0  0  0  0
   -0.7089   -0.8302   -1.3751 H   0  0  0  0  0  0  0  0  0  0  0  0
   -1.9314   -0.8214    1.4056 H   0  0  0  0  0  0  0  0  0  0  0  0
    0.2340    0.2273    1.3572 H   0  0  0  0  0  0  0  0  0  0  0  0
    2.2207   -1.1522    1.2328 H   0  0  0  0  0  0  0  0  0  0  0  0
   -0.4896   -3.0588   -0.4221 H   0  0  0  0  0  0  0  0  0  0  0  0
    0.0222   -2.4030    1.1291 H   0  0  0  0  0  0  0  0  0  0  0  0
   -2.0913    1.6094    1.5886 H   0  0  0  0  0  0  0  0  0  0  0  0
   -2.5406    2.5818    0.1889 H   0  0  0  0  0  0  0  0  0  0  0  0
   -2.7833   -2.8884    0.5249 H   0  0  0  0  0  0  0  0  0  0  0  0
   -3.1071   -2.1672   -1.0566 H   0  0  0  0  0  0  0  0  0  0  0  0
    1.9597   -3.1999   -0.0887 H   0  0  0  0  0  0  0  0  0  0  0  0
    1.5408   -2.2761   -1.5212 H   0  0  0  0  0  0  0  0  0  0  0  0
   -4.5106   -1.6503    1.5992 H   0  0  0  0  0  0  0  0  0  0  0  0
   -5.2124   -1.7058   -0.0579 H   0  0  0  0  0  0  0  0  0  0  0  0
   -3.4839   -0.1964   -2.1136 H   0  0  0  0  0  0  0  0  0  0  0  0
   -3.5882    1.5332   -1.8349 H   0  0  0  0  0  0  0  0  0  0  0  0
   -2.0211    0.7945   -2.1621 H   0  0  0  0  0  0  0  0  0  0  0  0
    3.9406   -1.1708   -1.2966 H   0  0  0  0  0  0  0  0  0  0  0  0
    4.1805   -2.0956    0.1961 H   0  0  0  0  0  0  0  0  0  0  0  0
    1.1790   -0.2086   -2.3586 H   0  0  0  0  0  0  0  0  0  0  0  0
    1.2940    1.5222   -2.0689 H   0  0  0  0  0  0  0  0  0  0  0  0
    2.7501    0.5574   -2.1660 H   0  0  0  0  0  0  0  0  0  0  0  0
    2.0671    2.3410    0.6280 H   0  0  0  0  0  0  0  0  0  0  0  0
    4.3749    2.0456    1.1733 H   0  0  0  0  0  0  0  0  0  0  0  0
  1 14  2  0  0  0  0
  2 15  2  0  0  0  0
  3 21  2  0  0  0  0
  4  5  1  0  0  0  0
  4  6  1  0  0  0  0
  4 10  1  0  0  0  0
  4 23  1  0  0  0  0
  5  7  1  0  0  0  0
  5 12  1  0  0  0  0
  5 24  1  0  0  0  0
  6  8  1  0  0  0  0
  6 14  1  0  0  0  0
  6 25  1  0  0  0  0
  7 11  1  0  0  0  0
  7 15  1  0  0  0  0
  7 17  1  0  0  0  0
  8  9  1  0  0  0  0
  8 19  1  0  0  0  0
  8 20  1  0  0  0  0
  9 13  1  0  0  0  0
  9 18  1  0  0  0  0
  9 26  1  0  0  0  0
 10 13  1  0  0  0  0
 10 27  1  0  0  0  0
 10 28  1  0  0  0  0
 11 14  1  0  0  0  0
 11 29  1  0  0  0  0
 11 30  1  0  0  0  0
 12 16  1  0  0  0  0
 12 31  1  0  0  0  0
 12 32  1  0  0  0  0
 13 33  1  0  0  0  0
 13 34  1  0  0  0  0
 15 16  1  0  0  0  0
 16 35  1  0  0  0  0
 16 36  1  0  0  0  0
 17 37  1  0  0  0  0
 17 38  1  0  0  0  0
 17 39  1  0  0  0  0
 18 21  1  0  0  0  0
 18 40  1  0  0  0  0
 18 41  1  0  0  0  0
 19 42  1  0  0  0  0
 19 43  1  0  0  0  0
 19 44  1  0  0  0  0
 20 22  2  0  0  0  0
 20 45  1  0  0  0  0
 21 22  1  0  0  0  0
 22 46  1  0  0  0  0
M  END
> <PUBCHEM_COMPOUND_CID>
227844

> <PUBCHEM_CONFORMER_RMSD>
0.6

> <PUBCHEM_CONFORMER_DIVERSEORDER>
1

> <PUBCHEM_MMFF94_PARTIAL_CHARGES>
16
1 -0.57
11 0.06
14 0.45
15 0.45
16 0.06
18 0.06
2 -0.57
20 -0.29
21 0.49
22 -0.14
3 -0.57
45 0.15
46 0.15
6 0.06
7 0.06
8 0.14

> <PUBCHEM_EFFECTIVE_ROTOR_COUNT>
1.2

> <PUBCHEM_PHARMACOPHORE_FEATURES>
7
1 1 acceptor
1 2 acceptor
1 3 acceptor
5 5 7 12 15 16 rings
6 4 5 6 7 11 14 rings
6 4 6 8 9 10 13 rings
6 8 9 18 20 21 22 rings

> <PUBCHEM_HEAVY_ATOM_COUNT>
22

> <PUBCHEM_ATOM_DEF_STEREO_COUNT>
6

> <PUBCHEM_ATOM_UDEF_STEREO_COUNT>
0

> <PUBCHEM_BOND_DEF_STEREO_COUNT>
0

> <PUBCHEM_BOND_UDEF_STEREO_COUNT>
0

> <PUBCHEM_ISOTOPIC_ATOM_COUNT>
0

> <PUBCHEM_COMPONENT_COUNT>
1

> <PUBCHEM_CACTVS_TAUTO_COUNT>
12

> <PUBCHEM_CONFORMER_ID>
00037A0400000001

> <PUBCHEM_MMFF94_ENERGY>
66.1793

> <PUBCHEM_FEATURE_SELFOVERLAP>
35.617

> <PUBCHEM_SHAPE_FINGERPRINT>
10062212 137 18341333301671517155
10967382 1 18410009961493317490
11132069 177 18341890784152422779
12011746 2 18409449202669302750
12236239 1 17775283855178466568
12403259 226 18337957895642749968
12403259 415 18411707577751403028
12839892 36 18338250352835428442
13140716 1 18338515218629740624
13214271 11 18333450937335032423
13224815 77 18409731767839952999
13675066 3 18343863299095716291
13862211 1 18410860923348148578
14178342 30 18410001165727525009
14223421 5 18265052616425227894
14289901 80 16081082701501813525
14341114 176 18335697273823755674
14787075 74 18270120093682058378
14790565 3 18194673770675069780
15163728 17 14564194347431280281
15196674 1 18409729525872175946
15536298 74 18261107499916816422
15788980 27 17203613683178798349
16945 1 18195251241506100326
17349148 13 18060700585121675554
1813 80 17418374705711513860
18186145 218 18410293622724374598
19141452 34 18408038494833261203
19591789 44 18265617584860576810
200 152 17822017509899930489
20028762 73 17971470707003105279
20600515 1 18261948557635137096
21033648 29 18339099136809212560
21267235 1 18411129212775182627
21421861 104 18057888150157696330
22182313 1 18269837682291538863
23184049 59 18408603643192642678
2334 1 18411417267710226087
23402539 116 18261681397646760990
23557571 272 18187921742424236031
23558518 356 18127120007891565976
23559900 14 18335421301022047238
26918003 58 18409732863162108737
2748010 2 18410570682369339839
296302 2 16153707617601019639
335352 9 18409729586001672797
34934 24 18338521936512609203
350125 39 18409446969360687960
3545911 37 18410572907246704107
5104073 3 18410012100407949002
633830 44 18040996237092674124
7364860 26 18188487016224054918
9709674 26 18262235650259980366

> <PUBCHEM_SHAPE_MULTIPOLES>
435.14
9.21
2.28
1.02
2.18
0.21
0.42
0.23
-2.26
-0.34
0.01
-0.11
-0.22
0.33

> <PUBCHEM_SHAPE_SELFOVERLAP>
945.096

> <PUBCHEM_SHAPE_VOLUME>
236.3

> <PUBCHEM_COORDINATE_TYPE>
2
5
10

$$$$

