9139
  -OEChem-06261203263D

 50 57  0     0  0  0  0  0  0999 V2000
   -3.6810   -0.2329    0.0006 C   0  0  0  0  0  0  0  0  0  0  0  0
   -2.5741    0.6574    0.0014 C   0  0  0  0  0  0  0  0  0  0  0  0
   -1.2364    0.1258    0.0025 C   0  0  0  0  0  0  0  0  0  0  0  0
   -5.0176    0.2574   -0.0009 C   0  0  0  0  0  0  0  0  0  0  0  0
   -1.0528   -1.2759    0.0021 C   0  0  0  0  0  0  0  0  0  0  0  0
   -3.4683   -1.6279    0.0011 C   0  0  0  0  0  0  0  0  0  0  0  0
    1.2370    0.3705    0.0038 C   0  0  0  0  0  0  0  0  0  0  0  0
    1.3878   -1.0239    0.0023 C   0  0  0  0  0  0  0  0  0  0  0  0
   -2.1633   -2.1271    0.0018 C   0  0  0  0  0  0  0  0  0  0  0  0
   -5.2642    1.6471   -0.0019 C   0  0  0  0  0  0  0  0  0  0  0  0
   -0.0599    0.9197    0.0038 C   0  0  0  0  0  0  0  0  0  0  0  0
   -6.1130   -0.6404   -0.0016 C   0  0  0  0  0  0  0  0  0  0  0  0
    0.2402   -1.8286    0.0018 C   0  0  0  0  0  0  0  0  0  0  0  0
   -2.8705    2.0398    0.0005 C   0  0  0  0  0  0  0  0  0  0  0  0
   -4.5632   -2.5029    0.0005 C   0  0  0  0  0  0  0  0  0  0  0  0
   -4.1810    2.5249   -0.0010 C   0  0  0  0  0  0  0  0  0  0  0  0
    3.6767    0.6322    0.0034 C   0  0  0  0  0  0  0  0  0  0  0  0
    3.8261   -0.7682    0.0009 C   0  0  0  0  0  0  0  0  0  0  0  0
    2.3842    1.1838    0.0048 C   0  0  0  0  0  0  0  0  0  0  0  0
    2.6792   -1.5797    0.0008 C   0  0  0  0  0  0  0  0  0  0  0  0
   -5.8688   -2.0165   -0.0007 C   0  0  0  0  0  0  0  0  0  0  0  0
   -6.5843    2.1220   -0.0036 C   0  0  0  0  0  0  0  0  0  0  0  0
   -7.4231   -0.1394   -0.0033 C   0  0  0  0  0  0  0  0  0  0  0  0
    4.8221    1.4463    0.0042 C   0  0  0  0  0  0  0  0  0  0  0  0
    5.1174   -1.3227   -0.0019 C   0  0  0  0  0  0  0  0  0  0  0  0
   -7.6563    1.2335   -0.0044 C   0  0  0  0  0  0  0  0  0  0  0  0
    6.1136    0.8936    0.0012 C   0  0  0  0  0  0  0  0  0  0  0  0
    6.2633   -0.5103   -0.0024 C   0  0  0  0  0  0  0  0  0  0  0  0
    7.2592    1.7067    0.0013 C   0  0  0  0  0  0  0  0  0  0  0  0
    7.5545   -1.0635   -0.0067 C   0  0  0  0  0  0  0  0  0  0  0  0
    8.5345    1.1414   -0.0031 C   0  0  0  0  0  0  0  0  0  0  0  0
    8.6819   -0.2420   -0.0074 C   0  0  0  0  0  0  0  0  0  0  0  0
   -2.0084   -3.2068    0.0018 H   0  0  0  0  0  0  0  0  0  0  0  0
   -0.1393    2.0055    0.0046 H   0  0  0  0  0  0  0  0  0  0  0  0
    0.3570   -2.9131    0.0010 H   0  0  0  0  0  0  0  0  0  0  0  0
   -2.0795    2.7854    0.0010 H   0  0  0  0  0  0  0  0  0  0  0  0
   -4.4105   -3.5806    0.0009 H   0  0  0  0  0  0  0  0  0  0  0  0
   -4.3385    3.6017   -0.0017 H   0  0  0  0  0  0  0  0  0  0  0  0
    2.2681    2.2678    0.0062 H   0  0  0  0  0  0  0  0  0  0  0  0
    2.7928   -2.6639   -0.0008 H   0  0  0  0  0  0  0  0  0  0  0  0
   -6.6924   -2.7274   -0.0013 H   0  0  0  0  0  0  0  0  0  0  0  0
   -6.7890    3.1905   -0.0044 H   0  0  0  0  0  0  0  0  0  0  0  0
   -8.2754   -0.8156   -0.0039 H   0  0  0  0  0  0  0  0  0  0  0  0
    4.7062    2.5302    0.0065 H   0  0  0  0  0  0  0  0  0  0  0  0
    5.2325   -2.4067   -0.0044 H   0  0  0  0  0  0  0  0  0  0  0  0
   -8.6746    1.6112   -0.0057 H   0  0  0  0  0  0  0  0  0  0  0  0
    7.1674    2.7909    0.0042 H   0  0  0  0  0  0  0  0  0  0  0  0
    7.6933   -2.1427   -0.0098 H   0  0  0  0  0  0  0  0  0  0  0  0
    9.4118    1.7817   -0.0033 H   0  0  0  0  0  0  0  0  0  0  0  0
    9.6745   -0.6830   -0.0109 H   0  0  0  0  0  0  0  0  0  0  0  0
  1  2  2  0  0  0  0
  1  4  1  0  0  0  0
  1  6  1  0  0  0  0
  2  3  1  0  0  0  0
  2 14  1  0  0  0  0
  3  5  1  0  0  0  0
  3 11  2  0  0  0  0
  4 10  1  0  0  0  0
  4 12  2  0  0  0  0
  5  9  1  0  0  0  0
  5 13  2  0  0  0  0
  6  9  2  0  0  0  0
  6 15  1  0  0  0  0
  7  8  1  0  0  0  0
  7 11  1  0  0  0  0
  7 19  2  0  0  0  0
  8 13  1  0  0  0  0
  8 20  2  0  0  0  0
  9 33  1  0  0  0  0
 10 16  1  0  0  0  0
 10 22  2  0  0  0  0
 11 34  1  0  0  0  0
 12 21  1  0  0  0  0
 12 23  1  0  0  0  0
 13 35  1  0  0  0  0
 14 16  2  0  0  0  0
 14 36  1  0  0  0  0
 15 21  2  0  0  0  0
 15 37  1  0  0  0  0
 16 38  1  0  0  0  0
 17 18  1  0  0  0  0
 17 19  1  0  0  0  0
 17 24  2  0  0  0  0
 18 20  1  0  0  0  0
 18 25  2  0  0  0  0
 19 39  1  0  0  0  0
 20 40  1  0  0  0  0
 21 41  1  0  0  0  0
 22 26  1  0  0  0  0
 22 42  1  0  0  0  0
 23 26  2  0  0  0  0
 23 43  1  0  0  0  0
 24 27  1  0  0  0  0
 24 44  1  0  0  0  0
 25 28  1  0  0  0  0
 25 45  1  0  0  0  0
 26 46  1  0  0  0  0
 27 28  1  0  0  0  0
 27 29  2  0  0  0  0
 28 30  2  0  0  0  0
 29 31  1  0  0  0  0
 29 47  1  0  0  0  0
 30 32  1  0  0  0  0
 30 48  1  0  0  0  0
 31 32  2  0  0  0  0
 31 49  1  0  0  0  0
 32 50  1  0  0  0  0
M  END
> <PUBCHEM_COMPOUND_CID>
9139

> <PUBCHEM_CONFORMER_RMSD>
0.6

> <PUBCHEM_CONFORMER_DIVERSEORDER>
1

> <PUBCHEM_MMFF94_PARTIAL_CHARGES>
36
11 -0.15
13 -0.15
14 -0.15
15 -0.15
16 -0.15
19 -0.15
20 -0.15
21 -0.15
22 -0.15
23 -0.15
24 -0.15
25 -0.15
26 -0.15
29 -0.15
30 -0.15
31 -0.15
32 -0.15
33 0.15
34 0.15
35 0.15
36 0.15
37 0.15
38 0.15
39 0.15
40 0.15
41 0.15
42 0.15
43 0.15
44 0.15
45 0.15
46 0.15
47 0.15
48 0.15
49 0.15
50 0.15
9 -0.15

> <PUBCHEM_EFFECTIVE_ROTOR_COUNT>
0

> <PUBCHEM_PHARMACOPHORE_FEATURES>
8
6 1 2 3 5 6 9 rings
6 1 2 4 10 14 16 rings
6 1 4 6 12 15 21 rings
6 17 18 24 25 27 28 rings
6 27 28 29 30 31 32 rings
6 3 5 7 8 11 13 rings
6 4 10 12 22 23 26 rings
6 7 8 17 18 19 20 rings

> <PUBCHEM_HEAVY_ATOM_COUNT>
32

> <PUBCHEM_ATOM_DEF_STEREO_COUNT>
0

> <PUBCHEM_ATOM_UDEF_STEREO_COUNT>
0

> <PUBCHEM_BOND_DEF_STEREO_COUNT>
0

> <PUBCHEM_BOND_UDEF_STEREO_COUNT>
0

> <PUBCHEM_ISOTOPIC_ATOM_COUNT>
0

> <PUBCHEM_COMPONENT_COUNT>
1

> <PUBCHEM_CACTVS_TAUTO_COUNT>
1

> <PUBCHEM_CONFORMER_ID>
000023B300000001

> <PUBCHEM_MMFF94_ENERGY>
120.5137

> <PUBCHEM_FEATURE_SELFOVERLAP>
40.822

> <PUBCHEM_SHAPE_FINGERPRINT>
10 15 18272931635018859265
10050765 1 18122625226095440716
10076449 9 17821728313395032643
100830 39 18411138064940351277
10299344 5 18273215296677125274
10411042 1 17978510833438886991
10580692 12 18410011035731156602
10666366 153 18114733911664693070
11007060 377 18342452617060959035
11135926 11 18271816734660892463
11315181 36 18342457032946689057
11524674 6 16660362550058545391
11578080 2 16986614172165196263
11719270 70 18113901581051749542
12236239 1 18273496771231959722
13811026 1 18333729139562643862
13885169 127 18410575089037349384
14118638 360 15482403040142331664
14251764 18 18343866610953182390
14394314 77 18338794632708886777
14933364 13 18409448085719420664
15021287 119 17561358470247116709
15183329 4 18410293622908991058
15419008 145 18200606912150200208
15419008 47 17530971293281635400
15461852 350 17603591798892071831
15510794 2 18113897183395219390
15604295 49 18115877304768363896
1577012 14 18343026605122775378
15840311 113 18201997717271329004
15849732 13 18343582945216331060
15890870 6 18410858794188503805
15927050 60 18413392020696523851
16087824 20 18339643451812373805
16989713 51 17387140771549192319
18608769 82 18409168792148240049
18681886 176 18336272257821814465
19315958 150 18262794211727178021
19611394 137 17986940870143818091
19841028 212 18341053034446345714
21033648 29 18041858216155382432
21057603 40 16733255851139767782
21130935 74 18411702093447710946
21236236 1 18410293605396682223
21267235 1 18411978031456760907
21792934 111 18187937188339585672
21792961 116 17676482878694472826
23559900 14 18335427820719372297
23576562 1 16951424125733910745
3004659 81 18342740711199424720
335352 9 18409733954853844357
350125 39 18410576175716816293
4073 2 18131064897125679938
4098825 35 18410857655315457672
4325135 7 18411982459551972093
4339292 15 16588318121118753263
44280117 145 17896604994742892775
44802255 64 16988298529870067463
5265222 85 18188212000835913838
5758199 1 17846499236089198250
6086070 43 17313394387204801427
6669772 16 17095515223401462838
9831232 110 18187635965067000694
99344 41 18410856577268499958

> <PUBCHEM_SHAPE_MULTIPOLES>
658.54
25.5
2.49
0.62
24.8
0.05
0
-6.01
0.05
-2.77
0
0
0
0.01

> <PUBCHEM_SHAPE_SELFOVERLAP>
1572.746

> <PUBCHEM_SHAPE_VOLUME>
290.7

> <PUBCHEM_COORDINATE_TYPE>
2
5
10

$$$$

