13540
  -OEChem-06241222393D

 43 42  0     0  0  0  0  0  0999 V2000
   -0.0017    0.0002    0.8257 O   0  0  0  0  0  0  0  0  0  0  0  0
    5.4472   -2.6530   -1.7033 O   0  0  0  0  0  0  0  0  0  0  0  0
    5.3440    2.1845    2.1777 O   0  0  0  0  0  0  0  0  0  0  0  0
   -5.4496    2.6473   -1.7085 O   0  0  0  0  0  0  0  0  0  0  0  0
   -5.3517   -2.1832    2.1747 O   0  0  0  0  0  0  0  0  0  0  0  0
    4.7780   -0.5669   -2.3057 O   0  0  0  0  0  0  0  0  0  0  0  0
    4.3342    2.4432    0.1589 O   0  0  0  0  0  0  0  0  0  0  0  0
   -4.7657    0.5655   -2.3089 O   0  0  0  0  0  0  0  0  0  0  0  0
   -4.3286   -2.4437    0.1628 O   0  0  0  0  0  0  0  0  0  0  0  0
    3.6175   -0.2105    0.1604 N   0  0  0  0  0  0  0  0  0  0  0  0
   -3.6142    0.2120    0.1632 N   0  0  0  0  0  0  0  0  0  0  0  0
    2.3839   -0.1276    0.9417 C   0  0  0  0  0  0  0  0  0  0  0  0
   -2.3871    0.1279    0.9411 C   0  0  0  0  0  0  0  0  0  0  0  0
    1.1720   -0.0618    0.0261 C   0  0  0  0  0  0  0  0  0  0  0  0
   -1.1747    0.0640    0.0259 C   0  0  0  0  0  0  0  0  0  0  0  0
    3.8172   -1.5714   -0.3365 C   0  0  0  0  0  0  0  0  0  0  0  0
    4.7622    0.2126    0.9660 C   0  0  0  0  0  0  0  0  0  0  0  0
   -3.8197    1.5743   -0.3347 C   0  0  0  0  0  0  0  0  0  0  0  0
   -4.7654   -0.2124    0.9635 C   0  0  0  0  0  0  0  0  0  0  0  0
    4.7225   -1.5175   -1.5358 C   0  0  0  0  0  0  0  0  0  0  0  0
    4.7682    1.7144    1.0421 C   0  0  0  0  0  0  0  0  0  0  0  0
   -4.7193    1.5160   -1.5384 C   0  0  0  0  0  0  0  0  0  0  0  0
   -4.7694   -1.7141    1.0420 C   0  0  0  0  0  0  0  0  0  0  0  0
    2.3615    0.7780    1.5627 H   0  0  0  0  0  0  0  0  0  0  0  0
    2.2903   -0.9626    1.6495 H   0  0  0  0  0  0  0  0  0  0  0  0
   -2.3629   -0.7783    1.5611 H   0  0  0  0  0  0  0  0  0  0  0  0
   -2.2920    0.9610    1.6509 H   0  0  0  0  0  0  0  0  0  0  0  0
    1.1026   -0.9396   -0.6237 H   0  0  0  0  0  0  0  0  0  0  0  0
    1.2293    0.8333   -0.6059 H   0  0  0  0  0  0  0  0  0  0  0  0
   -1.1050    0.9432   -0.6221 H   0  0  0  0  0  0  0  0  0  0  0  0
   -1.2316   -0.8298   -0.6081 H   0  0  0  0  0  0  0  0  0  0  0  0
    2.8951   -2.0446   -0.6881 H   0  0  0  0  0  0  0  0  0  0  0  0
    4.2489   -2.2197    0.4360 H   0  0  0  0  0  0  0  0  0  0  0  0
    5.7176   -0.0665    0.5058 H   0  0  0  0  0  0  0  0  0  0  0  0
    4.7298   -0.2207    1.9730 H   0  0  0  0  0  0  0  0  0  0  0  0
   -2.8980    2.0520   -0.6813 H   0  0  0  0  0  0  0  0  0  0  0  0
   -4.2581    2.2196    0.4365 H   0  0  0  0  0  0  0  0  0  0  0  0
   -5.7182    0.0649    0.4971 H   0  0  0  0  0  0  0  0  0  0  0  0
   -4.7380    0.2226    1.9699 H   0  0  0  0  0  0  0  0  0  0  0  0
    6.0185   -2.6082   -2.4995 H   0  0  0  0  0  0  0  0  0  0  0  0
    5.3558    3.1650    2.2030 H   0  0  0  0  0  0  0  0  0  0  0  0
   -6.0170    2.5998   -2.5073 H   0  0  0  0  0  0  0  0  0  0  0  0
   -5.3622   -3.1638    2.2014 H   0  0  0  0  0  0  0  0  0  0  0  0
  1 14  1  0  0  0  0
  1 15  1  0  0  0  0
  2 20  1  0  0  0  0
  2 40  1  0  0  0  0
  3 21  1  0  0  0  0
  3 41  1  0  0  0  0
  4 22  1  0  0  0  0
  4 42  1  0  0  0  0
  5 23  1  0  0  0  0
  5 43  1  0  0  0  0
  6 20  2  0  0  0  0
  7 21  2  0  0  0  0
  8 22  2  0  0  0  0
  9 23  2  0  0  0  0
 10 12  1  0  0  0  0
 10 16  1  0  0  0  0
 10 17  1  0  0  0  0
 11 13  1  0  0  0  0
 11 18  1  0  0  0  0
 11 19  1  0  0  0  0
 12 14  1  0  0  0  0
 12 24  1  0  0  0  0
 12 25  1  0  0  0  0
 13 15  1  0  0  0  0
 13 26  1  0  0  0  0
 13 27  1  0  0  0  0
 14 28  1  0  0  0  0
 14 29  1  0  0  0  0
 15 30  1  0  0  0  0
 15 31  1  0  0  0  0
 16 20  1  0  0  0  0
 16 32  1  0  0  0  0
 16 33  1  0  0  0  0
 17 21  1  0  0  0  0
 17 34  1  0  0  0  0
 17 35  1  0  0  0  0
 18 22  1  0  0  0  0
 18 36  1  0  0  0  0
 18 37  1  0  0  0  0
 19 23  1  0  0  0  0
 19 38  1  0  0  0  0
 19 39  1  0  0  0  0
M  END
> <PUBCHEM_COMPOUND_CID>
13540

> <PUBCHEM_CONFORMER_RMSD>
1.2

> <PUBCHEM_CONFORMER_DIVERSEORDER>
1
7
6
8
16
13
4
9
5
15
14
10
11
12
3
2

> <PUBCHEM_MMFF94_PARTIAL_CHARGES>
27
1 -0.56
10 -0.81
11 -0.81
12 0.27
13 0.27
14 0.28
15 0.28
16 0.33
17 0.33
18 0.33
19 0.33
2 -0.65
20 0.66
21 0.66
22 0.66
23 0.66
3 -0.65
4 -0.65
40 0.5
41 0.5
42 0.5
43 0.5
5 -0.65
6 -0.57
7 -0.57
8 -0.57
9 -0.57

> <PUBCHEM_EFFECTIVE_ROTOR_COUNT>
14

> <PUBCHEM_PHARMACOPHORE_FEATURES>
15
1 1 acceptor
1 10 cation
1 11 cation
1 2 acceptor
1 3 acceptor
1 4 acceptor
1 5 acceptor
1 6 acceptor
1 7 acceptor
1 8 acceptor
1 9 acceptor
3 2 6 20 anion
3 3 7 21 anion
3 4 8 22 anion
3 5 9 23 anion

> <PUBCHEM_HEAVY_ATOM_COUNT>
23

> <PUBCHEM_ATOM_DEF_STEREO_COUNT>
0

> <PUBCHEM_ATOM_UDEF_STEREO_COUNT>
0

> <PUBCHEM_BOND_DEF_STEREO_COUNT>
0

> <PUBCHEM_BOND_UDEF_STEREO_COUNT>
0

> <PUBCHEM_ISOTOPIC_ATOM_COUNT>
0

> <PUBCHEM_COMPONENT_COUNT>
1

> <PUBCHEM_CACTVS_TAUTO_COUNT>
1

> <PUBCHEM_CONFORMER_ID>
000034E400000001

> <PUBCHEM_MMFF94_ENERGY>
40.6564

> <PUBCHEM_FEATURE_SELFOVERLAP>
76.349

> <PUBCHEM_SHAPE_FINGERPRINT>
11056379 131 17989196041654938915
12403259 415 18412539925090658243
12616971 3 16588016948250708634
12730499 353 18041271068572518970
13760787 5 17240482519876555928
13955234 65 17749388153490544570
15081414 286 18260827069044966296
15799311 1 15647046040966667356
17844677 252 18187634830013335992
20645477 70 17968086534982262706
22061861 79 18187082888124365247
2303208 19 18410280419873886259
23559900 14 18336828684162998682
239999 70 18186512216548193806
312423 11 17313927719696563968
314194 84 17095244717749599922
34797466 226 18409732841872018401
90127 26 18261395584805965129

> <PUBCHEM_SHAPE_MULTIPOLES>
410.54
17.68
2.65
2.06
0.01
0
0.67
0.01
2.02
0.01
0.17
0
0
6.36

> <PUBCHEM_SHAPE_SELFOVERLAP>
801.428

> <PUBCHEM_SHAPE_VOLUME>
246.3

> <PUBCHEM_COORDINATE_TYPE>
2
5
10

$$$$

