10912
  -OEChem-06261205072D

 77 76  0     0  0  0  0  0  0999 V2000
    8.0622    0.0000    0.0000 Si  0  0  0  0  0  0  0  0  0  0  0  0
    9.7942    0.0000    0.0000 Si  0  0  0  0  0  0  0  0  0  0  0  0
    6.3301    0.0000    0.0000 Si  0  0  0  0  0  0  0  0  0  0  0  0
   11.5263    0.0000    0.0000 Si  0  0  0  0  0  0  0  0  0  0  0  0
    4.5981    0.0000    0.0000 Si  0  0  0  0  0  0  0  0  0  0  0  0
   13.2583    0.0000    0.0000 Si  0  0  0  0  0  0  0  0  0  0  0  0
    2.8660    0.0000    0.0000 Si  0  0  0  0  0  0  0  0  0  0  0  0
    8.9282    0.5000    0.0000 O   0  0  0  0  0  0  0  0  0  0  0  0
    7.1962   -0.5000    0.0000 O   0  0  0  0  0  0  0  0  0  0  0  0
   10.6603   -0.5000    0.0000 O   0  0  0  0  0  0  0  0  0  0  0  0
    5.4641    0.5000    0.0000 O   0  0  0  0  0  0  0  0  0  0  0  0
   12.3923    0.5000    0.0000 O   0  0  0  0  0  0  0  0  0  0  0  0
    3.7320   -0.5000    0.0000 O   0  0  0  0  0  0  0  0  0  0  0  0
    7.5622    0.8660    0.0000 C   0  0  0  0  0  0  0  0  0  0  0  0
    8.5622   -0.8660    0.0000 C   0  0  0  0  0  0  0  0  0  0  0  0
   10.2942    0.8660    0.0000 C   0  0  0  0  0  0  0  0  0  0  0  0
    9.2942   -0.8660    0.0000 C   0  0  0  0  0  0  0  0  0  0  0  0
    5.8301   -0.8660    0.0000 C   0  0  0  0  0  0  0  0  0  0  0  0
    6.8301    0.8660    0.0000 C   0  0  0  0  0  0  0  0  0  0  0  0
   12.0263   -0.8660    0.0000 C   0  0  0  0  0  0  0  0  0  0  0  0
   11.0263    0.8660    0.0000 C   0  0  0  0  0  0  0  0  0  0  0  0
    4.0981    0.8660    0.0000 C   0  0  0  0  0  0  0  0  0  0  0  0
    5.0981   -0.8660    0.0000 C   0  0  0  0  0  0  0  0  0  0  0  0
   14.1244   -0.5000    0.0000 C   0  0  0  0  0  0  0  0  0  0  0  0
   13.7583    0.8660    0.0000 C   0  0  0  0  0  0  0  0  0  0  0  0
   12.7583   -0.8660    0.0000 C   0  0  0  0  0  0  0  0  0  0  0  0
    2.0000    0.5000    0.0000 C   0  0  0  0  0  0  0  0  0  0  0  0
    2.3660   -0.8660    0.0000 C   0  0  0  0  0  0  0  0  0  0  0  0
    3.3660    0.8660    0.0000 C   0  0  0  0  0  0  0  0  0  0  0  0
    8.0252   -1.1760    0.0000 H   0  0  0  0  0  0  0  0  0  0  0  0
    8.8722   -1.4030    0.0000 H   0  0  0  0  0  0  0  0  0  0  0  0
    9.0991   -0.5560    0.0000 H   0  0  0  0  0  0  0  0  0  0  0  0
    8.0991    1.1760    0.0000 H   0  0  0  0  0  0  0  0  0  0  0  0
    7.2522    1.4030    0.0000 H   0  0  0  0  0  0  0  0  0  0  0  0
    7.0252    0.5560    0.0000 H   0  0  0  0  0  0  0  0  0  0  0  0
    7.3671    0.5560    0.0000 H   0  0  0  0  0  0  0  0  0  0  0  0
    7.1401    1.4030    0.0000 H   0  0  0  0  0  0  0  0  0  0  0  0
    6.2932    1.1760    0.0000 H   0  0  0  0  0  0  0  0  0  0  0  0
    5.2932   -0.5560    0.0000 H   0  0  0  0  0  0  0  0  0  0  0  0
    5.5201   -1.4030    0.0000 H   0  0  0  0  0  0  0  0  0  0  0  0
    6.3671   -1.1760    0.0000 H   0  0  0  0  0  0  0  0  0  0  0  0
    8.7573   -0.5560    0.0000 H   0  0  0  0  0  0  0  0  0  0  0  0
    8.9842   -1.4030    0.0000 H   0  0  0  0  0  0  0  0  0  0  0  0
    9.8312   -1.1760    0.0000 H   0  0  0  0  0  0  0  0  0  0  0  0
   10.8312    0.5560    0.0000 H   0  0  0  0  0  0  0  0  0  0  0  0
   10.6042    1.4030    0.0000 H   0  0  0  0  0  0  0  0  0  0  0  0
    9.7573    1.1760    0.0000 H   0  0  0  0  0  0  0  0  0  0  0  0
   11.4893   -1.1760    0.0000 H   0  0  0  0  0  0  0  0  0  0  0  0
   12.3363   -1.4030    0.0000 H   0  0  0  0  0  0  0  0  0  0  0  0
   12.5632   -0.5560    0.0000 H   0  0  0  0  0  0  0  0  0  0  0  0
   11.5632    1.1760    0.0000 H   0  0  0  0  0  0  0  0  0  0  0  0
   10.7163    1.4030    0.0000 H   0  0  0  0  0  0  0  0  0  0  0  0
   10.4893    0.5560    0.0000 H   0  0  0  0  0  0  0  0  0  0  0  0
    4.6350    1.1760    0.0000 H   0  0  0  0  0  0  0  0  0  0  0  0
    3.7881    1.4030    0.0000 H   0  0  0  0  0  0  0  0  0  0  0  0
    3.5611    0.5560    0.0000 H   0  0  0  0  0  0  0  0  0  0  0  0
    4.5611   -1.1760    0.0000 H   0  0  0  0  0  0  0  0  0  0  0  0
    5.4081   -1.4030    0.0000 H   0  0  0  0  0  0  0  0  0  0  0  0
    5.6350   -0.5560    0.0000 H   0  0  0  0  0  0  0  0  0  0  0  0
    3.9030    0.5560    0.0000 H   0  0  0  0  0  0  0  0  0  0  0  0
    3.6760    1.4030    0.0000 H   0  0  0  0  0  0  0  0  0  0  0  0
    2.8291    1.1760    0.0000 H   0  0  0  0  0  0  0  0  0  0  0  0
    1.8291   -0.5560    0.0000 H   0  0  0  0  0  0  0  0  0  0  0  0
    2.0560   -1.4030    0.0000 H   0  0  0  0  0  0  0  0  0  0  0  0
    2.9030   -1.1760    0.0000 H   0  0  0  0  0  0  0  0  0  0  0  0
    2.3100    1.0369    0.0000 H   0  0  0  0  0  0  0  0  0  0  0  0
    1.4631    0.8100    0.0000 H   0  0  0  0  0  0  0  0  0  0  0  0
    1.6900   -0.0369    0.0000 H   0  0  0  0  0  0  0  0  0  0  0  0
   12.2214   -0.5560    0.0000 H   0  0  0  0  0  0  0  0  0  0  0  0
   12.4483   -1.4030    0.0000 H   0  0  0  0  0  0  0  0  0  0  0  0
   13.2953   -1.1760    0.0000 H   0  0  0  0  0  0  0  0  0  0  0  0
   14.2953    0.5560    0.0000 H   0  0  0  0  0  0  0  0  0  0  0  0
   14.0683    1.4030    0.0000 H   0  0  0  0  0  0  0  0  0  0  0  0
   13.2214    1.1760    0.0000 H   0  0  0  0  0  0  0  0  0  0  0  0
   13.8144   -1.0369    0.0000 H   0  0  0  0  0  0  0  0  0  0  0  0
   14.6613   -0.8100    0.0000 H   0  0  0  0  0  0  0  0  0  0  0  0
   14.4344    0.0369    0.0000 H   0  0  0  0  0  0  0  0  0  0  0  0
  1  8  1  0  0  0  0
  1  9  1  0  0  0  0
  1 14  1  0  0  0  0
  1 15  1  0  0  0  0
  2  8  1  0  0  0  0
  2 10  1  0  0  0  0
  2 16  1  0  0  0  0
  2 17  1  0  0  0  0
  3  9  1  0  0  0  0
  3 11  1  0  0  0  0
  3 18  1  0  0  0  0
  3 19  1  0  0  0  0
  4 10  1  0  0  0  0
  4 12  1  0  0  0  0
  4 20  1  0  0  0  0
  4 21  1  0  0  0  0
  5 11  1  0  0  0  0
  5 13  1  0  0  0  0
  5 22  1  0  0  0  0
  5 23  1  0  0  0  0
  6 12  1  0  0  0  0
  6 24  1  0  0  0  0
  6 25  1  0  0  0  0
  6 26  1  0  0  0  0
  7 13  1  0  0  0  0
  7 27  1  0  0  0  0
  7 28  1  0  0  0  0
  7 29  1  0  0  0  0
 14 33  1  0  0  0  0
 14 34  1  0  0  0  0
 14 35  1  0  0  0  0
 15 30  1  0  0  0  0
 15 31  1  0  0  0  0
 15 32  1  0  0  0  0
 16 45  1  0  0  0  0
 16 46  1  0  0  0  0
 16 47  1  0  0  0  0
 17 42  1  0  0  0  0
 17 43  1  0  0  0  0
 17 44  1  0  0  0  0
 18 39  1  0  0  0  0
 18 40  1  0  0  0  0
 18 41  1  0  0  0  0
 19 36  1  0  0  0  0
 19 37  1  0  0  0  0
 19 38  1  0  0  0  0
 20 48  1  0  0  0  0
 20 49  1  0  0  0  0
 20 50  1  0  0  0  0
 21 51  1  0  0  0  0
 21 52  1  0  0  0  0
 21 53  1  0  0  0  0
 22 54  1  0  0  0  0
 22 55  1  0  0  0  0
 22 56  1  0  0  0  0
 23 57  1  0  0  0  0
 23 58  1  0  0  0  0
 23 59  1  0  0  0  0
 24 75  1  0  0  0  0
 24 76  1  0  0  0  0
 24 77  1  0  0  0  0
 25 72  1  0  0  0  0
 25 73  1  0  0  0  0
 25 74  1  0  0  0  0
 26 69  1  0  0  0  0
 26 70  1  0  0  0  0
 26 71  1  0  0  0  0
 27 66  1  0  0  0  0
 27 67  1  0  0  0  0
 27 68  1  0  0  0  0
 28 63  1  0  0  0  0
 28 64  1  0  0  0  0
 28 65  1  0  0  0  0
 29 60  1  0  0  0  0
 29 61  1  0  0  0  0
 29 62  1  0  0  0  0
M  END
> <PUBCHEM_COMPOUND_CID>
10912

> <PUBCHEM_COMPOUND_CANONICALIZED>
1

> <PUBCHEM_CACTVS_COMPLEXITY>
493

> <PUBCHEM_CACTVS_HBOND_ACCEPTOR>
6

> <PUBCHEM_CACTVS_HBOND_DONOR>
0

> <PUBCHEM_CACTVS_ROTATABLE_BOND>
12

> <PUBCHEM_CACTVS_SUBSKEYS>
AAADcfB4OAwAAAAAAAAAAAAAAAAAAAAAAAAAAAAAAAAAAAAAAAAAEBAAAEAAAAAAAABCAAAAAAEAAAAAAAAAAAAAAAAAAAAAAAAAAAAAAAAAAAAAAAAAAAAAAAAAAAAAAAAAAAAAAAAAAAAAAAAAAAAAAA==

> <PUBCHEM_IUPAC_OPENEYE_NAME>
bis[[[dimethyl(trimethylsilyloxy)silyl]oxy-dimethyl-silyl]oxy]-dimethyl-silane

> <PUBCHEM_IUPAC_CAS_NAME>
bis[[[dimethyl(trimethylsilyloxy)silyl]oxy-dimethylsilyl]oxy]-dimethylsilane

> <PUBCHEM_IUPAC_NAME>
bis[[[dimethyl(trimethylsilyloxy)silyl]oxy-dimethylsilyl]oxy]-dimethylsilane

> <PUBCHEM_IUPAC_SYSTEMATIC_NAME>
bis[[[dimethyl(trimethylsilyloxy)silyl]oxy-dimethyl-silyl]oxy]-dimethyl-silane

> <PUBCHEM_IUPAC_TRADITIONAL_NAME>
bis[[[dimethyl(trimethylsilyloxy)silyl]oxy-dimethyl-silyl]oxy]-dimethyl-silane

> <PUBCHEM_IUPAC_INCHI>
InChI=1S/C16H48O6Si7/c1-23(2,3)17-25(7,8)19-27(11,12)21-29(15,16)22-28(13,14)20-26(9,10)18-24(4,5)6/h1-16H3

> <PUBCHEM_IUPAC_INCHIKEY>
NFVSFLUJRHRSJG-UHFFFAOYSA-N

> <PUBCHEM_EXACT_MASS>
532.183575

> <PUBCHEM_MOLECULAR_FORMULA>
C16H48O6Si7

> <PUBCHEM_MOLECULAR_WEIGHT>
533.14722

> <PUBCHEM_OPENEYE_CAN_SMILES>
C[Si](C)(C)O[Si](C)(C)O[Si](C)(C)O[Si](C)(C)O[Si](C)(C)O[Si](C)(C)O[Si](C)(C)C

> <PUBCHEM_OPENEYE_ISO_SMILES>
C[Si](C)(C)O[Si](C)(C)O[Si](C)(C)O[Si](C)(C)O[Si](C)(C)O[Si](C)(C)O[Si](C)(C)C

> <PUBCHEM_CACTVS_TPSA>
55.4

> <PUBCHEM_MONOISOTOPIC_WEIGHT>
532.183575

> <PUBCHEM_TOTAL_CHARGE>
0

> <PUBCHEM_HEAVY_ATOM_COUNT>
29

> <PUBCHEM_ATOM_DEF_STEREO_COUNT>
0

> <PUBCHEM_ATOM_UDEF_STEREO_COUNT>
0

> <PUBCHEM_BOND_DEF_STEREO_COUNT>
0

> <PUBCHEM_BOND_UDEF_STEREO_COUNT>
0

> <PUBCHEM_ISOTOPIC_ATOM_COUNT>
0

> <PUBCHEM_COMPONENT_COUNT>
1

> <PUBCHEM_CACTVS_TAUTO_COUNT>
1

> <PUBCHEM_COORDINATE_TYPE>
1
5
255

$$$$

