165456
  -OEChem-07051213152D

 58 62  0     1  0  0  0  0  0999 V2000
    3.5670    4.5432    0.0000 O   0  0  0  0  0  0  0  0  0  0  0  0
    5.8187   -4.0318    0.0000 O   0  0  0  0  0  0  0  0  0  0  0  0
    0.9984    2.8017    0.0000 N   0  0  0  0  0  0  0  0  0  0  0  0
    4.6244    1.3515    0.0000 C   0  0  2  0  0  0  0  0  0  0  0  0
    4.4995    0.3173    0.0000 C   0  0  2  0  0  0  0  0  0  0  0  0
    5.5379    1.7582    0.0000 C   0  0  2  0  0  0  0  0  0  0  0  0
    5.3375   -0.3014    0.0000 C   0  0  1  0  0  0  0  0  0  0  0  0
    3.0892    2.5946    0.0000 C   0  0  2  0  0  0  0  0  0  0  0  0
    4.2412   -1.8226    0.0000 C   0  0  2  0  0  0  0  0  0  0  0  0
    3.4984   -0.1009    0.0000 C   0  0  0  0  0  0  0  0  0  0  0  0
    6.3900    1.1590    0.0000 C   0  0  0  0  0  0  0  0  0  0  0  0
    6.2891    0.1223    0.0000 C   0  0  0  0  0  0  0  0  0  0  0  0
    5.2324   -1.3813    0.0000 C   0  0  0  0  0  0  0  0  0  0  0  0
    3.3684   -1.1781    0.0000 C   0  0  0  0  0  0  0  0  0  0  0  0
    5.4334    2.7527    0.0000 C   0  0  0  0  0  0  0  0  0  0  0  0
    2.8304    3.5605    0.0000 C   0  0  2  0  0  0  0  0  0  0  0  0
    3.7108    0.9447    0.0000 C   0  0  0  0  0  0  0  0  0  0  0  0
    4.3567   -2.8950    0.0000 C   0  0  2  0  0  0  0  0  0  0  0  0
    1.2573    1.8358    0.0000 C   0  0  0  0  0  0  0  0  0  0  0  0
    5.9520   -2.1847    0.0000 C   0  0  0  0  0  0  0  0  0  0  0  0
    3.3276   -2.2293    0.0000 C   0  0  0  0  0  0  0  0  0  0  0  0
    5.4119   -3.1183    0.0000 C   0  0  0  0  0  0  0  0  0  0  0  0
    3.6147   -3.5654    0.0000 C   0  0  0  0  0  0  0  0  0  0  0  0
    3.8243   -4.5432    0.0000 C   0  0  0  0  0  0  0  0  0  0  0  0
    2.6632   -3.2580    0.0000 C   0  0  0  0  0  0  0  0  0  0  0  0
    3.8216    0.8301    0.0000 H   0  0  0  0  0  0  0  0  0  0  0  0
    6.3144    2.1039    0.0000 H   0  0  0  0  0  0  0  0  0  0  0  0
    6.0271   -0.7983    0.0000 H   0  0  0  0  0  0  0  0  0  0  0  0
    3.3092    1.7736    0.0000 H   0  0  0  0  0  0  0  0  0  0  0  0
    2.8792   -0.1330    0.0000 H   0  0  0  0  0  0  0  0  0  0  0  0
    3.3608    0.5036    0.0000 H   0  0  0  0  0  0  0  0  0  0  0  0
    6.6546    1.7197    0.0000 H   0  0  0  0  0  0  0  0  0  0  0  0
    6.9877    0.9943    0.0000 H   0  0  0  0  0  0  0  0  0  0  0  0
    6.9073    0.1687    0.0000 H   0  0  0  0  0  0  0  0  0  0  0  0
    6.4406   -0.4789    0.0000 H   0  0  0  0  0  0  0  0  0  0  0  0
    3.0909   -1.7325    0.0000 H   0  0  0  0  0  0  0  0  0  0  0  0
    2.7746   -0.9996    0.0000 H   0  0  0  0  0  0  0  0  0  0  0  0
    5.5357    3.3642    0.0000 H   0  0  0  0  0  0  0  0  0  0  0  0
    6.0531    2.7338    0.0000 H   0  0  0  0  0  0  0  0  0  0  0  0
    2.6104    4.3816    0.0000 H   0  0  0  0  0  0  0  0  0  0  0  0
    3.9630    0.3783    0.0000 H   0  0  0  0  0  0  0  0  0  0  0  0
    3.1444    0.6926    0.0000 H   0  0  0  0  0  0  0  0  0  0  0  0
    3.4586    1.5111    0.0000 H   0  0  0  0  0  0  0  0  0  0  0  0
    4.5180   -3.4936    0.0000 H   0  0  0  0  0  0  0  0  0  0  0  0
    1.4693    1.2532    0.0000 H   0  0  0  0  0  0  0  0  0  0  0  0
    0.6660    1.6494    0.0000 H   0  0  0  0  0  0  0  0  0  0  0  0
    0.4615    3.1117    0.0000 H   0  0  0  0  0  0  0  0  0  0  0  0
    6.5687   -2.1209    0.0000 H   0  0  0  0  0  0  0  0  0  0  0  0
    3.5798   -2.7957    0.0000 H   0  0  0  0  0  0  0  0  0  0  0  0
    2.7613   -2.4815    0.0000 H   0  0  0  0  0  0  0  0  0  0  0  0
    3.0755   -1.6629    0.0000 H   0  0  0  0  0  0  0  0  0  0  0  0
    3.1547   -3.9810    0.0000 H   0  0  0  0  0  0  0  0  0  0  0  0
    2.4726   -3.8480    0.0000 H   0  0  0  0  0  0  0  0  0  0  0  0
    2.0732   -3.0674    0.0000 H   0  0  0  0  0  0  0  0  0  0  0  0
    2.8537   -2.6680    0.0000 H   0  0  0  0  0  0  0  0  0  0  0  0
    4.4306   -4.4132    0.0000 H   0  0  0  0  0  0  0  0  0  0  0  0
    3.9543   -5.1494    0.0000 H   0  0  0  0  0  0  0  0  0  0  0  0
    3.2181   -4.6731    0.0000 H   0  0  0  0  0  0  0  0  0  0  0  0
  1  8  1  0  0  0  0
  1 16  1  0  0  0  0
  2 22  2  0  0  0  0
  3 16  1  0  0  0  0
  3 19  1  0  0  0  0
  3 47  1  0  0  0  0
  4  5  1  0  0  0  0
  4  6  1  0  0  0  0
  4  8  1  0  0  0  0
  4 17  1  6  0  0  0
  5  7  1  0  0  0  0
  5 10  1  0  0  0  0
  5 26  1  1  0  0  0
  6 11  1  0  0  0  0
  6 15  1  0  0  0  0
  6 27  1  6  0  0  0
  7 12  1  0  0  0  0
  7 13  1  0  0  0  0
  7 28  1  6  0  0  0
  8 19  1  0  0  0  0
  8 29  1  1  0  0  0
  9 13  1  0  0  0  0
  9 14  1  0  0  0  0
  9 18  1  0  0  0  0
  9 21  1  6  0  0  0
 10 14  1  0  0  0  0
 10 30  1  0  0  0  0
 10 31  1  0  0  0  0
 11 12  1  0  0  0  0
 11 32  1  0  0  0  0
 11 33  1  0  0  0  0
 12 34  1  0  0  0  0
 12 35  1  0  0  0  0
 13 20  2  0  0  0  0
 14 36  1  0  0  0  0
 14 37  1  0  0  0  0
 15 16  1  0  0  0  0
 15 38  1  0  0  0  0
 15 39  1  0  0  0  0
 16 40  1  6  0  0  0
 17 41  1  0  0  0  0
 17 42  1  0  0  0  0
 17 43  1  0  0  0  0
 18 22  1  0  0  0  0
 18 23  1  6  0  0  0
 18 44  1  0  0  0  0
 19 45  1  0  0  0  0
 19 46  1  0  0  0  0
 20 22  1  0  0  0  0
 20 48  1  0  0  0  0
 21 49  1  0  0  0  0
 21 50  1  0  0  0  0
 21 51  1  0  0  0  0
 23 24  1  0  0  0  0
 23 25  1  0  0  0  0
 23 52  1  0  0  0  0
 24 56  1  0  0  0  0
 24 57  1  0  0  0  0
 24 58  1  0  0  0  0
 25 53  1  0  0  0  0
 25 54  1  0  0  0  0
 25 55  1  0  0  0  0
M  END
> <PUBCHEM_COMPOUND_CID>
165456

> <PUBCHEM_COMPOUND_CANONICALIZED>
1

> <PUBCHEM_CACTVS_COMPLEXITY>
640

> <PUBCHEM_CACTVS_HBOND_ACCEPTOR>
3

> <PUBCHEM_CACTVS_HBOND_DONOR>
1

> <PUBCHEM_CACTVS_ROTATABLE_BOND>
1

> <PUBCHEM_CACTVS_SUBSKEYS>
AAADcfB6MAAAAAAAAAAAAAAAAAAAAWIAAAA0YIAABYAAAEDQAAAAHgAQAAAADxThgAYCAALABACIAqBSAAAAAAAgAAAACIEIAEkCABIAgQAPAAAEkACYAQOY2PKPgAAAAAAAAACAAAQAACAAAAAAAAAAAA==

> <PUBCHEM_IUPAC_INCHI>
InChI=1S/C22H33NO2/c1-12(2)20-17(24)10-16-14-6-5-13-9-19-23-11-18(25-19)22(13,4)15(14)7-8-21(16,20)3/h10,12-15,18-20,23H,5-9,11H2,1-4H3/t13-,14-,15+,18+,19+,20+,21+,22+/m1/s1

> <PUBCHEM_IUPAC_INCHIKEY>
YVWOGPJZTKNLJO-BYXPGVIDSA-N

> <PUBCHEM_XLOGP3_AA>
4.3

> <PUBCHEM_EXACT_MASS>
343.251129

> <PUBCHEM_MOLECULAR_FORMULA>
C22H33NO2

> <PUBCHEM_MOLECULAR_WEIGHT>
343.50292

> <PUBCHEM_OPENEYE_CAN_SMILES>
CC(C)C1C(=O)C=C2C1(CCC3C2CCC4C3(C5CNC(C4)O5)C)C

> <PUBCHEM_OPENEYE_ISO_SMILES>
CC(C)[C@H]1C(=O)C=C2[C@@]1(CC[C@H]3[C@H]2CC[C@H]4[C@@]3([C@@H]5CN[C@H](C4)O5)C)C

> <PUBCHEM_CACTVS_TPSA>
38.3

> <PUBCHEM_MONOISOTOPIC_WEIGHT>
343.251129

> <PUBCHEM_TOTAL_CHARGE>
0

> <PUBCHEM_HEAVY_ATOM_COUNT>
25

> <PUBCHEM_ATOM_DEF_STEREO_COUNT>
8

> <PUBCHEM_ATOM_UDEF_STEREO_COUNT>
0

> <PUBCHEM_BOND_DEF_STEREO_COUNT>
0

> <PUBCHEM_BOND_UDEF_STEREO_COUNT>
0

> <PUBCHEM_ISOTOPIC_ATOM_COUNT>
0

> <PUBCHEM_COMPONENT_COUNT>
1

> <PUBCHEM_CACTVS_TAUTO_COUNT>
5

> <PUBCHEM_COORDINATE_TYPE>
1
5
255

> <PUBCHEM_BONDANNOTATIONS>
16  40  6
18  23  6
4  17  6
5  26  5
6  27  6
7  28  6
8  29  5
9  21  6

$$$$

