123595
  -OEChem-07051212582D

 30 31  0     0  0  0  0  0  0999 V2000
    7.6023    1.7214    0.0000 O   0  0  0  0  0  0  0  0  0  0  0  0
    5.3792   -0.7512    0.0000 C   0  0  0  0  0  0  0  0  0  0  0  0
    5.3742    0.2488    0.0000 C   0  0  0  0  0  0  0  0  0  0  0  0
    4.6005   -1.3786    0.0000 C   0  0  0  0  0  0  0  0  0  0  0  0
    6.3189    0.5582    0.0000 C   0  0  0  0  0  0  0  0  0  0  0  0
    4.5893    0.8684    0.0000 C   0  0  0  0  0  0  0  0  0  0  0  0
    3.6155    0.6410    0.0000 C   0  0  0  0  0  0  0  0  0  0  0  0
    6.3269   -1.0512    0.0000 C   0  0  0  0  0  0  0  0  0  0  0  0
    6.9065   -0.2436    0.0000 C   0  0  0  0  0  0  0  0  0  0  0  0
    3.6244   -1.1609    0.0000 C   0  0  0  0  0  0  0  0  0  0  0  0
    3.1861   -0.2621    0.0000 C   0  0  0  0  0  0  0  0  0  0  0  0
    4.8278   -2.3524    0.0000 C   0  0  0  0  0  0  0  0  0  0  0  0
    2.9881    1.4197    0.0000 C   0  0  0  0  0  0  0  0  0  0  0  0
    6.6248    1.5103    0.0000 C   0  0  0  0  0  0  0  0  0  0  0  0
    2.0000    1.2657    0.0000 C   0  0  0  0  0  0  0  0  0  0  0  0
    3.3488    2.3524    0.0000 C   0  0  0  0  0  0  0  0  0  0  0  0
    4.7242    1.4735    0.0000 H   0  0  0  0  0  0  0  0  0  0  0  0
    6.5224   -1.6396    0.0000 H   0  0  0  0  0  0  0  0  0  0  0  0
    7.5265   -0.2405    0.0000 H   0  0  0  0  0  0  0  0  0  0  0  0
    3.2403   -1.6476    0.0000 H   0  0  0  0  0  0  0  0  0  0  0  0
    2.5661   -0.2652    0.0000 H   0  0  0  0  0  0  0  0  0  0  0  0
    4.2241   -2.4934    0.0000 H   0  0  0  0  0  0  0  0  0  0  0  0
    4.9688   -2.9562    0.0000 H   0  0  0  0  0  0  0  0  0  0  0  0
    5.4316   -2.2114    0.0000 H   0  0  0  0  0  0  0  0  0  0  0  0
    6.2084    1.9697    0.0000 H   0  0  0  0  0  0  0  0  0  0  0  0
    1.9045    1.8783    0.0000 H   0  0  0  0  0  0  0  0  0  0  0  0
    1.3874    1.1703    0.0000 H   0  0  0  0  0  0  0  0  0  0  0  0
    2.0955    0.6531    0.0000 H   0  0  0  0  0  0  0  0  0  0  0  0
    3.9614    2.4478    0.0000 H   0  0  0  0  0  0  0  0  0  0  0  0
    2.9598    2.8352    0.0000 H   0  0  0  0  0  0  0  0  0  0  0  0
  1 14  2  0  0  0  0
  2  3  1  0  0  0  0
  2  4  2  0  0  0  0
  2  8  1  0  0  0  0
  3  5  2  0  0  0  0
  3  6  1  0  0  0  0
  4 10  1  0  0  0  0
  4 12  1  0  0  0  0
  5  9  1  0  0  0  0
  5 14  1  0  0  0  0
  6  7  2  0  0  0  0
  6 17  1  0  0  0  0
  7 11  1  0  0  0  0
  7 13  1  0  0  0  0
  8  9  2  0  0  0  0
  8 18  1  0  0  0  0
  9 19  1  0  0  0  0
 10 11  2  0  0  0  0
 10 20  1  0  0  0  0
 11 21  1  0  0  0  0
 12 22  1  0  0  0  0
 12 23  1  0  0  0  0
 12 24  1  0  0  0  0
 13 15  1  0  0  0  0
 13 16  2  0  0  0  0
 14 25  1  0  0  0  0
 15 26  1  0  0  0  0
 15 27  1  0  0  0  0
 15 28  1  0  0  0  0
 16 29  1  0  0  0  0
 16 30  1  0  0  0  0
M  END
> <PUBCHEM_COMPOUND_CID>
123595

> <PUBCHEM_COMPOUND_CANONICALIZED>
1

> <PUBCHEM_CACTVS_COMPLEXITY>
281

> <PUBCHEM_CACTVS_HBOND_ACCEPTOR>
1

> <PUBCHEM_CACTVS_HBOND_DONOR>
0

> <PUBCHEM_CACTVS_ROTATABLE_BOND>
2

> <PUBCHEM_CACTVS_SUBSKEYS>
AAADccBwIAAAAAAAAAAAAAAAAAAAAYAAAAAAAAAABgAAAADBAAAAGgAAAAAADACgmAIyAMAAAACIAihSgAACAAAkAAAIiAEAAMgIIDKAFRCAIQAggAAIiYcIiMCOgAAAAAAAAAAAAAAAAAAAAQAACAAAAA==

> <PUBCHEM_IUPAC_OPENEYE_NAME>
7-isopropenyl-4-methyl-azulene-1-carbaldehyde

> <PUBCHEM_IUPAC_CAS_NAME>
4-methyl-7-(1-methylethenyl)-1-azulenecarboxaldehyde

> <PUBCHEM_IUPAC_NAME>
4-methyl-7-prop-1-en-2-ylazulene-1-carbaldehyde

> <PUBCHEM_IUPAC_SYSTEMATIC_NAME>
4-methyl-7-prop-1-en-2-yl-azulene-1-carbaldehyde

> <PUBCHEM_IUPAC_TRADITIONAL_NAME>
7-isopropenyl-4-methyl-azulene-1-carbaldehyde

> <PUBCHEM_IUPAC_INCHI>
InChI=1S/C15H14O/c1-10(2)12-5-4-11(3)14-7-6-13(9-16)15(14)8-12/h4-9H,1H2,2-3H3

> <PUBCHEM_IUPAC_INCHIKEY>
PUEUPUYRYIOTKZ-UHFFFAOYSA-N

> <PUBCHEM_XLOGP3_AA>
4.1

> <PUBCHEM_EXACT_MASS>
210.104465

> <PUBCHEM_MOLECULAR_FORMULA>
C15H14O

> <PUBCHEM_MOLECULAR_WEIGHT>
210.27106

> <PUBCHEM_OPENEYE_CAN_SMILES>
CC1=C2C=CC(=C2C=C(C=C1)C(=C)C)C=O

> <PUBCHEM_OPENEYE_ISO_SMILES>
CC1=C2C=CC(=C2C=C(C=C1)C(=C)C)C=O

> <PUBCHEM_CACTVS_TPSA>
17.1

> <PUBCHEM_MONOISOTOPIC_WEIGHT>
210.104465

> <PUBCHEM_TOTAL_CHARGE>
0

> <PUBCHEM_HEAVY_ATOM_COUNT>
16

> <PUBCHEM_ATOM_DEF_STEREO_COUNT>
0

> <PUBCHEM_ATOM_UDEF_STEREO_COUNT>
0

> <PUBCHEM_BOND_DEF_STEREO_COUNT>
0

> <PUBCHEM_BOND_UDEF_STEREO_COUNT>
0

> <PUBCHEM_ISOTOPIC_ATOM_COUNT>
0

> <PUBCHEM_COMPONENT_COUNT>
1

> <PUBCHEM_CACTVS_TAUTO_COUNT>
7

> <PUBCHEM_COORDINATE_TYPE>
1
5
255

> <PUBCHEM_BONDANNOTATIONS>
10  11  8
2  4  8
2  8  8
3  5  8
3  6  8
4  10  8
5  9  8
6  7  8
7  11  8
8  9  8

$$$$

