5164
  -OEChem-06261200333D

 44 47  0     0  0  0  0  0  0999 V2000
   -6.2528    0.3376    0.0509 F   0  0  0  0  0  0  0  0  0  0  0  0
    1.3720    1.1371   -0.0848 N   0  0  0  0  0  0  0  0  0  0  0  0
    5.6498    0.8836   -0.0352 N   0  0  0  0  0  0  0  0  0  0  0  0
   -0.2628    2.6127   -0.3522 N   0  0  0  0  0  0  0  0  0  0  0  0
    0.1396   -1.7559   -0.8119 N   0  0  0  0  0  0  0  0  0  0  0  0
    0.0609   -3.6918    0.6210 N   0  0  0  0  0  0  0  0  0  0  0  0
    0.0700   -3.9211   -1.7140 N   0  0  0  0  0  0  0  0  0  0  0  0
    2.7401    0.6175    0.0099 C   0  0  0  0  0  0  0  0  0  0  0  0
    3.5247    1.2223    1.1848 C   0  0  0  0  0  0  0  0  0  0  0  0
    3.5269    0.7756   -1.3008 C   0  0  0  0  0  0  0  0  0  0  0  0
    4.9492    0.6701    1.2318 C   0  0  0  0  0  0  0  0  0  0  0  0
    4.9514    0.2421   -1.1499 C   0  0  0  0  0  0  0  0  0  0  0  0
    0.2105    0.4313    0.0406 C   0  0  0  0  0  0  0  0  0  0  0  0
    1.0400    2.4409   -0.3194 C   0  0  0  0  0  0  0  0  0  0  0  0
   -0.7859    1.3639   -0.1280 C   0  0  0  0  0  0  0  0  0  0  0  0
    0.1578   -0.9898    0.2954 C   0  0  0  0  0  0  0  0  0  0  0  0
   -2.1926    1.0993   -0.0820 C   0  0  0  0  0  0  0  0  0  0  0  0
    0.1304   -1.4852    1.5798 C   0  0  0  0  0  0  0  0  0  0  0  0
   -2.8824    1.1834    1.1296 C   0  0  0  0  0  0  0  0  0  0  0  0
   -2.8802    0.7571   -1.2485 C   0  0  0  0  0  0  0  0  0  0  0  0
    0.0818   -2.8603    1.6834 C   0  0  0  0  0  0  0  0  0  0  0  0
    0.0913   -3.0815   -0.5790 C   0  0  0  0  0  0  0  0  0  0  0  0
   -4.2527    0.9262    1.1744 C   0  0  0  0  0  0  0  0  0  0  0  0
   -4.2504    0.5003   -1.2037 C   0  0  0  0  0  0  0  0  0  0  0  0
   -4.9367    0.5846    0.0077 C   0  0  0  0  0  0  0  0  0  0  0  0
    2.6565   -0.4590    0.2022 H   0  0  0  0  0  0  0  0  0  0  0  0
    3.5629    2.3159    1.0975 H   0  0  0  0  0  0  0  0  0  0  0  0
    3.0135    1.0021    2.1300 H   0  0  0  0  0  0  0  0  0  0  0  0
    3.0174    0.2398   -2.1110 H   0  0  0  0  0  0  0  0  0  0  0  0
    3.5652    1.8311   -1.5997 H   0  0  0  0  0  0  0  0  0  0  0  0
    5.5064    1.1670    2.0334 H   0  0  0  0  0  0  0  0  0  0  0  0
    4.9363   -0.3992    1.4751 H   0  0  0  0  0  0  0  0  0  0  0  0
    4.9387   -0.8450   -1.0058 H   0  0  0  0  0  0  0  0  0  0  0  0
    5.5103    0.4291   -2.0734 H   0  0  0  0  0  0  0  0  0  0  0  0
    5.7081    1.8862   -0.2153 H   0  0  0  0  0  0  0  0  0  0  0  0
    1.7773    3.2198   -0.4586 H   0  0  0  0  0  0  0  0  0  0  0  0
    0.1465   -0.8522    2.4581 H   0  0  0  0  0  0  0  0  0  0  0  0
   -2.3643    1.4484    2.0484 H   0  0  0  0  0  0  0  0  0  0  0  0
   -2.3604    0.6866   -2.2013 H   0  0  0  0  0  0  0  0  0  0  0  0
    0.0576   -3.3462    2.6529 H   0  0  0  0  0  0  0  0  0  0  0  0
   -4.7872    0.9918    2.1174 H   0  0  0  0  0  0  0  0  0  0  0  0
   -4.7834    0.2342   -2.1118 H   0  0  0  0  0  0  0  0  0  0  0  0
    0.0907   -3.5096   -2.6368 H   0  0  0  0  0  0  0  0  0  0  0  0
    0.0332   -4.9234   -1.5902 H   0  0  0  0  0  0  0  0  0  0  0  0
  1 25  1  0  0  0  0
  2  8  1  0  0  0  0
  2 13  1  0  0  0  0
  2 14  1  0  0  0  0
  3 11  1  0  0  0  0
  3 12  1  0  0  0  0
  3 35  1  0  0  0  0
  4 14  2  0  0  0  0
  4 15  1  0  0  0  0
  5 16  2  0  0  0  0
  5 22  1  0  0  0  0
  6 21  1  0  0  0  0
  6 22  2  0  0  0  0
  7 22  1  0  0  0  0
  7 43  1  0  0  0  0
  7 44  1  0  0  0  0
  8  9  1  0  0  0  0
  8 10  1  0  0  0  0
  8 26  1  0  0  0  0
  9 11  1  0  0  0  0
  9 27  1  0  0  0  0
  9 28  1  0  0  0  0
 10 12  1  0  0  0  0
 10 29  1  0  0  0  0
 10 30  1  0  0  0  0
 11 31  1  0  0  0  0
 11 32  1  0  0  0  0
 12 33  1  0  0  0  0
 12 34  1  0  0  0  0
 13 15  2  0  0  0  0
 13 16  1  0  0  0  0
 14 36  1  0  0  0  0
 15 17  1  0  0  0  0
 16 18  1  0  0  0  0
 17 19  2  0  0  0  0
 17 20  1  0  0  0  0
 18 21  2  0  0  0  0
 18 37  1  0  0  0  0
 19 23  1  0  0  0  0
 19 38  1  0  0  0  0
 20 24  2  0  0  0  0
 20 39  1  0  0  0  0
 21 40  1  0  0  0  0
 23 25  2  0  0  0  0
 23 41  1  0  0  0  0
 24 25  1  0  0  0  0
 24 42  1  0  0  0  0
M  END
> <PUBCHEM_COMPOUND_CID>
5164

> <PUBCHEM_CONFORMER_RMSD>
0.8

> <PUBCHEM_CONFORMER_DIVERSEORDER>
2
14
10
3
9
4
13
11
12
6
8
7
5
1

> <PUBCHEM_MMFF94_PARTIAL_CHARGES>
33
1 -0.19
11 0.27
12 0.27
13 -0.2
14 0.04
15 0.17
16 0.36
17 0.05
18 -0.15
19 -0.15
2 0.05
20 -0.15
21 0.16
22 0.72
23 -0.15
24 -0.15
25 0.19
3 -0.9
35 0.36
36 0.15
37 0.15
38 0.15
39 0.15
4 -0.57
40 0.15
41 0.15
42 0.15
43 0.4
44 0.4
5 -0.62
6 -0.62
7 -0.9
8 0.26

> <PUBCHEM_EFFECTIVE_ROTOR_COUNT>
4.2

> <PUBCHEM_PHARMACOPHORE_FEATURES>
10
1 3 cation
1 3 donor
1 5 acceptor
1 7 donor
3 2 4 14 cation
4 5 6 7 22 cation
5 2 4 13 14 15 rings
6 17 19 20 23 24 25 rings
6 3 8 9 10 11 12 rings
6 5 6 16 18 21 22 rings

> <PUBCHEM_HEAVY_ATOM_COUNT>
25

> <PUBCHEM_ATOM_DEF_STEREO_COUNT>
0

> <PUBCHEM_ATOM_UDEF_STEREO_COUNT>
0

> <PUBCHEM_BOND_DEF_STEREO_COUNT>
0

> <PUBCHEM_BOND_UDEF_STEREO_COUNT>
0

> <PUBCHEM_ISOTOPIC_ATOM_COUNT>
0

> <PUBCHEM_COMPONENT_COUNT>
1

> <PUBCHEM_CACTVS_TAUTO_COUNT>
3

> <PUBCHEM_CONFORMER_ID>
0000142C00000002

> <PUBCHEM_MMFF94_ENERGY>
54.3256

> <PUBCHEM_FEATURE_SELFOVERLAP>
50.743

> <PUBCHEM_SHAPE_FINGERPRINT>
10764073 3 14762129537947835074
10906281 52 17916571168094228217
1100329 8 18267589013525271561
11421498 54 17822565110173168617
11488393 25 18122061167729961266
116883 192 17831022321169049838
12035758 1 18339348670050345952
12236239 1 17822008714287521317
12592029 89 18130792282259987569
12788726 201 17762060938984827014
13052359 8 18200309914127667947
13083527 12 17913225426771221491
13140716 1 18268993086032693929
133893 2 17841420742024651016
13583140 156 16415185738026109736
13692114 37 18262798446407345475
13911987 19 18202556263717655677
13965767 371 16884092447953604793
14790565 3 18341041978071838876
14863182 85 18341599456452170183
15209289 33 18260546714669337769
15849732 13 17561365080755419604
16752209 62 18127979611431352922
17980427 23 14692566641826218799
20028762 73 18189894223878391759
20197701 30 18410580573657702699
20567600 347 18340482360906810087
20602899 9 17967806137678430994
20642791 13 17759543083506429368
20771845 140 17968106360330027743
20771845 171 17561074843359934494
21054139 6 18262811670626935215
21344244 181 18041547105303735422
21421861 104 17910105043100283737
21781051 124 18058710460227491082
22182313 1 18192403377610213558
22224240 67 18410858742100627617
229495 10 15768961028763831162
22956985 138 17771070685123975146
23559900 14 17623589934946542355
23569943 247 17825371140925309038
23598288 3 17982718689632507934
249057 3 18272362050512376612
283562 15 18337949112108348792
3178227 256 18343011169479935633
3383291 50 18267022937722492906
38695281 34 18334016120550122183
404807 14 15218319163244019140
465052 167 17632849815691251233
474229 33 18343863316286173985
6138700 20 18339919445961895734
6669772 16 18412261770546414062
81228 2 17765725619676749129

> <PUBCHEM_SHAPE_MULTIPOLES>
477.33
9.91
3.51
1.48
0.68
4.85
0.07
-6
-0.11
-0.33
-0.34
-0.23
0.64
0.01

> <PUBCHEM_SHAPE_SELFOVERLAP>
1046.337

> <PUBCHEM_SHAPE_VOLUME>
259

> <PUBCHEM_COORDINATE_TYPE>
2
5
10

$$$$

