23135
  -OEChem-07051212593D

 31 31  0     0  0  0  0  0  0999 V2000
    4.6984   -0.0298    0.4552 O   0  0  0  0  0  0  0  0  0  0  0  0
   -3.1770   -0.0081    0.1663 N   0  3  0  0  0  0  0  0  0  0  0  0
   -1.7078    0.0366    0.5607 C   0  0  0  0  0  0  0  0  0  0  0  0
   -0.8268    0.0416   -0.6840 C   0  0  0  0  0  0  0  0  0  0  0  0
   -4.0392   -0.0094    1.4205 C   0  0  0  0  0  0  0  0  0  0  0  0
   -3.5126    1.2125   -0.6787 C   0  0  0  0  0  0  0  0  0  0  0  0
   -3.4486   -1.2717   -0.6372 C   0  0  0  0  0  0  0  0  0  0  0  0
    0.6507    0.0224   -0.3791 C   0  0  0  0  0  0  0  0  0  0  0  0
    1.3292    1.2214   -0.2281 C   0  0  0  0  0  0  0  0  0  0  0  0
    1.3035   -1.1942   -0.2558 C   0  0  0  0  0  0  0  0  0  0  0  0
    2.6952    1.2038    0.0534 C   0  0  0  0  0  0  0  0  0  0  0  0
    2.6696   -1.2121    0.0260 C   0  0  0  0  0  0  0  0  0  0  0  0
    3.3654   -0.0130    0.1807 C   0  0  0  0  0  0  0  0  0  0  0  0
   -1.5063   -0.8386    1.1906 H   0  0  0  0  0  0  0  0  0  0  0  0
   -1.5501    0.9383    1.1653 H   0  0  0  0  0  0  0  0  0  0  0  0
   -1.0233   -0.8190   -1.3315 H   0  0  0  0  0  0  0  0  0  0  0  0
   -1.0128    0.9258   -1.3038 H   0  0  0  0  0  0  0  0  0  0  0  0
   -3.8292    0.9040    1.9848 H   0  0  0  0  0  0  0  0  0  0  0  0
   -5.0915   -0.0395    1.1228 H   0  0  0  0  0  0  0  0  0  0  0  0
   -3.7855   -0.8936    2.0128 H   0  0  0  0  0  0  0  0  0  0  0  0
   -3.0632    1.1204   -1.6703 H   0  0  0  0  0  0  0  0  0  0  0  0
   -4.6009    1.2553   -0.7917 H   0  0  0  0  0  0  0  0  0  0  0  0
   -3.1565    2.1078   -0.1607 H   0  0  0  0  0  0  0  0  0  0  0  0
   -3.0266   -1.1813   -1.6408 H   0  0  0  0  0  0  0  0  0  0  0  0
   -3.0283   -2.1279   -0.1013 H   0  0  0  0  0  0  0  0  0  0  0  0
   -4.5339   -1.3865   -0.7277 H   0  0  0  0  0  0  0  0  0  0  0  0
    0.8158    2.1740   -0.3225 H   0  0  0  0  0  0  0  0  0  0  0  0
    0.7699   -2.1332   -0.3718 H   0  0  0  0  0  0  0  0  0  0  0  0
    3.2256    2.1448    0.1721 H   0  0  0  0  0  0  0  0  0  0  0  0
    3.1860   -2.1630    0.1244 H   0  0  0  0  0  0  0  0  0  0  0  0
    5.0164    0.8864    0.5292 H   0  0  0  0  0  0  0  0  0  0  0  0
  1 13  1  0  0  0  0
  1 31  1  0  0  0  0
  2  3  1  0  0  0  0
  2  5  1  0  0  0  0
  2  6  1  0  0  0  0
  2  7  1  0  0  0  0
  3  4  1  0  0  0  0
  3 14  1  0  0  0  0
  3 15  1  0  0  0  0
  4  8  1  0  0  0  0
  4 16  1  0  0  0  0
  4 17  1  0  0  0  0
  5 18  1  0  0  0  0
  5 19  1  0  0  0  0
  5 20  1  0  0  0  0
  6 21  1  0  0  0  0
  6 22  1  0  0  0  0
  6 23  1  0  0  0  0
  7 24  1  0  0  0  0
  7 25  1  0  0  0  0
  7 26  1  0  0  0  0
  8  9  2  0  0  0  0
  8 10  1  0  0  0  0
  9 11  1  0  0  0  0
  9 27  1  0  0  0  0
 10 12  2  0  0  0  0
 10 28  1  0  0  0  0
 11 13  2  0  0  0  0
 11 29  1  0  0  0  0
 12 13  1  0  0  0  0
 12 30  1  0  0  0  0
M  CHG  1   2   1
M  END
> <PUBCHEM_COMPOUND_CID>
23135

> <PUBCHEM_CONFORMER_RMSD>
0.6

> <PUBCHEM_CONFORMER_DIVERSEORDER>
1
2

> <PUBCHEM_MMFF94_PARTIAL_CHARGES>
18
1 -0.53
10 -0.15
11 -0.15
12 -0.15
13 0.08
2 -1.01
27 0.15
28 0.15
29 0.15
3 0.5
30 0.15
31 0.45
4 0.14
5 0.5
6 0.5
7 0.5
8 -0.14
9 -0.15

> <PUBCHEM_EFFECTIVE_ROTOR_COUNT>
3

> <PUBCHEM_PHARMACOPHORE_FEATURES>
3
1 1 donor
1 2 cation
6 8 9 10 11 12 13 rings

> <PUBCHEM_HEAVY_ATOM_COUNT>
13

> <PUBCHEM_ATOM_DEF_STEREO_COUNT>
0

> <PUBCHEM_ATOM_UDEF_STEREO_COUNT>
0

> <PUBCHEM_BOND_DEF_STEREO_COUNT>
0

> <PUBCHEM_BOND_UDEF_STEREO_COUNT>
0

> <PUBCHEM_ISOTOPIC_ATOM_COUNT>
0

> <PUBCHEM_COMPONENT_COUNT>
1

> <PUBCHEM_CACTVS_TAUTO_COUNT>
2

> <PUBCHEM_CONFORMER_ID>
00005A5F00000001

> <PUBCHEM_MMFF94_ENERGY>
41.5759

> <PUBCHEM_FEATURE_SELFOVERLAP>
15.223

> <PUBCHEM_SHAPE_FINGERPRINT>
10219947 1 18412263930608216284
10980938 120 18408605855401545510
11132069 177 18334863817944659454
12251169 10 18408318882803346903
124424 183 17988931084526102661
12500047 106 18411146852632745455
12932764 1 18410847763979303781
13296908 3 17989485234244287799
13922767 16 18408609166768771504
14144814 61 18187363242188386367
14251717 144 18411423894860679102
14252887 29 18410851101295785546
14325111 11 18410013217168062365
14445660 50 18113328713643684499
15501101 241 18343022177206581172
18186145 218 18186795894014406751
190213 19 17603586326470551582
19050596 39 18334009463181930075
1986462 14 16057160601584045563
200 152 18187939360959872047
20201158 50 18201719569728253218
20279233 1 18060418032224367535
20645477 56 18342459287836499509
20645477 70 18266187303788081943
20871998 22 18118399786047033462
22485316 2 18272939353117320354
23402539 116 16200158711394351894
23402655 69 18409451413902538797
26918003 58 18201434770842312681
3248919 1 17275099518538517247
42 15 18059850671270812209
581208 293 18413392016632378478
69090 78 18412263913645053675

> <PUBCHEM_SHAPE_MULTIPOLES>
256.68
8.39
1.32
0.93
0.95
0.02
0.16
0.05
1.58
-0.09
-0.2
0.87
0
0.01

> <PUBCHEM_SHAPE_SELFOVERLAP>
513.038

> <PUBCHEM_SHAPE_VOLUME>
154.4

> <PUBCHEM_COORDINATE_TYPE>
2
5
10

$$$$

