656519
  -OEChem-07051212553D

 52 53  0     1  0  0  0  0  0999 V2000
   -1.2785    0.3060   -0.4559 O   0  0  0  0  0  0  0  0  0  0  0  0
    1.4323    0.8732   -0.3145 O   0  0  0  0  0  0  0  0  0  0  0  0
    2.8745   -0.6285   -1.3707 O   0  0  0  0  0  0  0  0  0  0  0  0
   -0.3540    3.8038   -1.0260 O   0  0  0  0  0  0  0  0  0  0  0  0
   -3.1527   -0.6974    0.5055 O   0  0  0  0  0  0  0  0  0  0  0  0
   -2.2484    3.9586    1.1519 O   0  0  0  0  0  0  0  0  0  0  0  0
   -4.3004    1.8613    0.8852 O   0  0  0  0  0  0  0  0  0  0  0  0
    3.5307    1.5763    1.4875 O   0  0  0  0  0  0  0  0  0  0  0  0
    5.4796   -0.5107    1.8389 O   0  0  0  0  0  0  0  0  0  0  0  0
    4.3480   -2.4773    0.2215 O   0  0  0  0  0  0  0  0  0  0  0  0
   -5.2972   -2.9639   -0.8225 N   0  0  0  0  0  0  0  0  0  0  0  0
   -0.7340    1.4259   -1.1563 C   0  0  1  0  0  0  0  0  0  0  0  0
   -0.8228    2.6806   -0.2844 C   0  0  2  0  0  0  0  0  0  0  0  0
   -2.2644    2.9329    0.1578 C   0  0  1  0  0  0  0  0  0  0  0  0
   -2.8935    1.6680    0.7417 C   0  0  2  0  0  0  0  0  0  0  0  0
   -2.6664    0.4621   -0.1700 C   0  0  1  0  0  0  0  0  0  0  0  0
    0.7099    1.0873   -1.5133 C   0  0  0  0  0  0  0  0  0  0  0  0
    2.7985    0.5503   -0.5712 C   0  0  2  0  0  0  0  0  0  0  0  0
    3.4905    0.3385    0.7779 C   0  0  1  0  0  0  0  0  0  0  0  0
    4.9242   -0.1498    0.5773 C   0  0  2  0  0  0  0  0  0  0  0  0
    4.9728   -1.3411   -0.3780 C   0  0  2  0  0  0  0  0  0  0  0  0
    4.2186   -1.0198   -1.6619 C   0  0  0  0  0  0  0  0  0  0  0  0
   -2.9701   -1.8658   -0.2788 C   0  0  1  0  0  0  0  0  0  0  0  0
   -2.0801   -2.8311    0.4695 C   0  0  0  0  0  0  0  0  0  0  0  0
   -4.2697   -2.4813   -0.5811 C   0  0  0  0  0  0  0  0  0  0  0  0
   -2.5635   -3.3636    1.7919 C   0  0  0  0  0  0  0  0  0  0  0  0
   -0.8842   -3.1945   -0.0222 C   0  0  0  0  0  0  0  0  0  0  0  0
   -1.2852    1.5699   -2.0951 H   0  0  0  0  0  0  0  0  0  0  0  0
   -0.1987    2.5903    0.6137 H   0  0  0  0  0  0  0  0  0  0  0  0
   -2.8597    3.3186   -0.6791 H   0  0  0  0  0  0  0  0  0  0  0  0
   -2.4918    1.4671    1.7429 H   0  0  0  0  0  0  0  0  0  0  0  0
   -3.2351    0.5787   -1.1033 H   0  0  0  0  0  0  0  0  0  0  0  0
    1.1721    1.8864   -2.1029 H   0  0  0  0  0  0  0  0  0  0  0  0
    0.7100    0.1674   -2.1098 H   0  0  0  0  0  0  0  0  0  0  0  0
    3.2547    1.3947   -1.1054 H   0  0  0  0  0  0  0  0  0  0  0  0
    2.9187   -0.3656    1.3950 H   0  0  0  0  0  0  0  0  0  0  0  0
    5.5404    0.6676    0.1837 H   0  0  0  0  0  0  0  0  0  0  0  0
    6.0122   -1.6170   -0.5856 H   0  0  0  0  0  0  0  0  0  0  0  0
    4.7127   -0.2220   -2.2281 H   0  0  0  0  0  0  0  0  0  0  0  0
    4.1593   -1.9045   -2.3041 H   0  0  0  0  0  0  0  0  0  0  0  0
    0.6139    3.7379   -1.0851 H   0  0  0  0  0  0  0  0  0  0  0  0
   -3.1711    4.1756    1.3666 H   0  0  0  0  0  0  0  0  0  0  0  0
   -4.4361    2.5698    1.5365 H   0  0  0  0  0  0  0  0  0  0  0  0
   -2.5142   -1.6284   -1.2507 H   0  0  0  0  0  0  0  0  0  0  0  0
    3.9915    1.4145    2.3287 H   0  0  0  0  0  0  0  0  0  0  0  0
    4.9711   -1.2655    2.1818 H   0  0  0  0  0  0  0  0  0  0  0  0
    4.4239   -3.2182   -0.4038 H   0  0  0  0  0  0  0  0  0  0  0  0
   -1.8128   -3.9967    2.2773 H   0  0  0  0  0  0  0  0  0  0  0  0
   -3.4668   -3.9679    1.6634 H   0  0  0  0  0  0  0  0  0  0  0  0
   -2.7883   -2.5402    2.4774 H   0  0  0  0  0  0  0  0  0  0  0  0
   -0.5210   -2.8110   -0.9700 H   0  0  0  0  0  0  0  0  0  0  0  0
   -0.2380   -3.8826    0.5127 H   0  0  0  0  0  0  0  0  0  0  0  0
  1 12  1  0  0  0  0
  1 16  1  0  0  0  0
  2 17  1  0  0  0  0
  2 18  1  0  0  0  0
  3 18  1  0  0  0  0
  3 22  1  0  0  0  0
  4 13  1  0  0  0  0
  4 41  1  0  0  0  0
  5 16  1  0  0  0  0
  5 23  1  0  0  0  0
  6 14  1  0  0  0  0
  6 42  1  0  0  0  0
  7 15  1  0  0  0  0
  7 43  1  0  0  0  0
  8 19  1  0  0  0  0
  8 45  1  0  0  0  0
  9 20  1  0  0  0  0
  9 46  1  0  0  0  0
 10 21  1  0  0  0  0
 10 47  1  0  0  0  0
 11 25  3  0  0  0  0
 12 13  1  0  0  0  0
 12 17  1  0  0  0  0
 12 28  1  0  0  0  0
 13 14  1  0  0  0  0
 13 29  1  0  0  0  0
 14 15  1  0  0  0  0
 14 30  1  0  0  0  0
 15 16  1  0  0  0  0
 15 31  1  0  0  0  0
 16 32  1  0  0  0  0
 17 33  1  0  0  0  0
 17 34  1  0  0  0  0
 18 19  1  0  0  0  0
 18 35  1  0  0  0  0
 19 20  1  0  0  0  0
 19 36  1  0  0  0  0
 20 21  1  0  0  0  0
 20 37  1  0  0  0  0
 21 22  1  0  0  0  0
 21 38  1  0  0  0  0
 22 39  1  0  0  0  0
 22 40  1  0  0  0  0
 23 24  1  0  0  0  0
 23 25  1  0  0  0  0
 23 44  1  0  0  0  0
 24 26  1  0  0  0  0
 24 27  2  0  0  0  0
 26 48  1  0  0  0  0
 26 49  1  0  0  0  0
 26 50  1  0  0  0  0
 27 51  1  0  0  0  0
 27 52  1  0  0  0  0
M  END
> <PUBCHEM_COMPOUND_CID>
656519

> <PUBCHEM_CONFORMER_RMSD>
1

> <PUBCHEM_CONFORMER_DIVERSEORDER>
2
24
152
3
51
33
58
157
30
71
125
29
129
18
42
147
91
124
108
99
150
97
139
6
122
38
136
76
149
134
9
143
61
93
73
153
103
67
87
138
28
32
86
127
140
63
20
39
106
1
118
111
113
132
49
75
142
154
69
40
36
57
121
114
25
110
115
78
47
85
82
95
141
117
56
94
12
14
48
126
89
74
16
123
98
133
45
84
79
53
44
21
15
92
102
116
22
43
135
96
120
104
34
65
27
72
77
26
88
8
7
137
156
70
59
4
130
131
148
19
35
17
46
155
112
146
23
151
66
144
5
37
107
11
100
128
10
13
31
50
68
119
55
145
81
109
62
64
52
90
41
80
101
54
83
60
105

> <PUBCHEM_MMFF94_PARTIAL_CHARGES>
35
1 -0.56
10 -0.68
11 -0.56
12 0.28
13 0.28
14 0.28
15 0.28
16 0.56
17 0.28
18 0.56
19 0.28
2 -0.56
20 0.28
21 0.28
22 0.28
23 0.62
24 -0.28
25 0.36
26 0.14
27 -0.3
3 -0.56
4 -0.68
41 0.4
42 0.4
43 0.4
45 0.4
46 0.4
47 0.4
5 -0.56
51 0.15
52 0.15
6 -0.68
7 -0.68
8 -0.68
9 -0.68

> <PUBCHEM_EFFECTIVE_ROTOR_COUNT>
8.4

> <PUBCHEM_PHARMACOPHORE_FEATURES>
19
1 1 acceptor
1 10 acceptor
1 10 donor
1 11 acceptor
1 2 acceptor
1 3 acceptor
1 4 acceptor
1 4 donor
1 5 acceptor
1 6 acceptor
1 6 donor
1 7 acceptor
1 7 donor
1 8 acceptor
1 8 donor
1 9 acceptor
1 9 donor
6 1 12 13 14 15 16 rings
6 3 18 19 20 21 22 rings

> <PUBCHEM_HEAVY_ATOM_COUNT>
27

> <PUBCHEM_ATOM_DEF_STEREO_COUNT>
10

> <PUBCHEM_ATOM_UDEF_STEREO_COUNT>
0

> <PUBCHEM_BOND_DEF_STEREO_COUNT>
0

> <PUBCHEM_BOND_UDEF_STEREO_COUNT>
0

> <PUBCHEM_ISOTOPIC_ATOM_COUNT>
0

> <PUBCHEM_COMPONENT_COUNT>
1

> <PUBCHEM_CACTVS_TAUTO_COUNT>
1

> <PUBCHEM_CONFORMER_ID>
000A048700000002

> <PUBCHEM_MMFF94_ENERGY>
67.3165

> <PUBCHEM_FEATURE_SELFOVERLAP>
96.538

> <PUBCHEM_SHAPE_FINGERPRINT>
1100329 8 18410844448655415433
11552529 35 18334577966523089016
12553582 1 18049982425594327759
12633257 1 18114731737330111680
12788726 201 18268137682659400310
13004483 165 18264216815799930431
13583140 156 17386016069752763304
13994607 96 5978102487865918647
14081887 123 18409169926283506122
14866123 147 18339357590966899347
15042514 8 18410846673384891889
15230672 131 17694211576217769886
15420108 30 17902783395819750161
20403669 9 18339644434383743646
22122407 14 15647055983879579833
23557571 272 18338526244027073928
23559900 14 18335412487622744188
3027735 51 18200610184419420663
339767 52 17917157078847615010
463206 1 18124038927292852175
508706 21 18338505452170229910
5924683 9 18334861623342971831
6004065 56 17973740073338110479
602551 16 18340485668701157596
613672 6 18268151946267434922
653340 110 18336552702455182370

> <PUBCHEM_SHAPE_MULTIPOLES>
491.97
10.85
4.87
1.45
9.39
1
0.16
-7.03
1.61
-6.22
0.75
0.87
-0.09
-0.33

> <PUBCHEM_SHAPE_SELFOVERLAP>
1004.564

> <PUBCHEM_SHAPE_VOLUME>
278

> <PUBCHEM_COORDINATE_TYPE>
2
5
10

$$$$

