11782
  -OEChem-06261206063D

 21 21  0     0  0  0  0  0  0999 V2000
    2.8130    0.8108   -0.5233 O   0  0  0  0  0  0  0  0  0  0  0  0
    2.4567   -1.2006    0.4738 O   0  0  0  0  0  0  0  0  0  0  0  0
   -0.4093   -0.6953   -0.0408 C   0  0  0  0  0  0  0  0  0  0  0  0
   -1.7440   -0.2896   -0.0342 C   0  0  0  0  0  0  0  0  0  0  0  0
    0.6088    0.2551    0.0378 C   0  0  0  0  0  0  0  0  0  0  0  0
   -2.0604    1.0663    0.0510 C   0  0  0  0  0  0  0  0  0  0  0  0
   -0.0733   -2.1504   -0.1321 C   0  0  0  0  0  0  0  0  0  0  0  0
    0.2924    1.6109    0.1231 C   0  0  0  0  0  0  0  0  0  0  0  0
   -2.8535   -1.2861   -0.1179 C   0  0  0  0  0  0  0  0  0  0  0  0
   -1.0421    2.0164    0.1296 C   0  0  0  0  0  0  0  0  0  0  0  0
    2.0118   -0.1375    0.0331 C   0  0  0  0  0  0  0  0  0  0  0  0
   -3.0946    1.4001    0.0572 H   0  0  0  0  0  0  0  0  0  0  0  0
   -0.9096   -2.7791   -0.4482 H   0  0  0  0  0  0  0  0  0  0  0  0
    0.7023   -2.3274   -0.8855 H   0  0  0  0  0  0  0  0  0  0  0  0
    0.2619   -2.5248    0.8407 H   0  0  0  0  0  0  0  0  0  0  0  0
    1.0614    2.3752    0.1992 H   0  0  0  0  0  0  0  0  0  0  0  0
   -2.8512   -1.7876   -1.0912 H   0  0  0  0  0  0  0  0  0  0  0  0
   -2.7767   -2.0267    0.6851 H   0  0  0  0  0  0  0  0  0  0  0  0
   -3.8327   -0.8063   -0.0073 H   0  0  0  0  0  0  0  0  0  0  0  0
   -1.2889    3.0719    0.1989 H   0  0  0  0  0  0  0  0  0  0  0  0
    3.7554    0.5385   -0.5228 H   0  0  0  0  0  0  0  0  0  0  0  0
  1 11  1  0  0  0  0
  1 21  1  0  0  0  0
  2 11  2  0  0  0  0
  3  4  2  0  0  0  0
  3  5  1  0  0  0  0
  3  7  1  0  0  0  0
  4  6  1  0  0  0  0
  4  9  1  0  0  0  0
  5  8  2  0  0  0  0
  5 11  1  0  0  0  0
  6 10  2  0  0  0  0
  6 12  1  0  0  0  0
  7 13  1  0  0  0  0
  7 14  1  0  0  0  0
  7 15  1  0  0  0  0
  8 10  1  0  0  0  0
  8 16  1  0  0  0  0
  9 17  1  0  0  0  0
  9 18  1  0  0  0  0
  9 19  1  0  0  0  0
 10 20  1  0  0  0  0
M  END
> <PUBCHEM_COMPOUND_CID>
11782

> <PUBCHEM_CONFORMER_RMSD>
0.4

> <PUBCHEM_CONFORMER_DIVERSEORDER>
2
1
3

> <PUBCHEM_MMFF94_PARTIAL_CHARGES>
15
1 -0.65
10 -0.15
11 0.63
12 0.15
16 0.15
2 -0.57
20 0.15
21 0.5
3 -0.14
4 -0.14
5 0.09
6 -0.15
7 0.14
8 -0.15
9 0.14

> <PUBCHEM_EFFECTIVE_ROTOR_COUNT>
1

> <PUBCHEM_PHARMACOPHORE_FEATURES>
4
1 1 acceptor
1 2 acceptor
3 1 2 11 anion
6 3 4 5 6 8 10 rings

> <PUBCHEM_HEAVY_ATOM_COUNT>
11

> <PUBCHEM_ATOM_DEF_STEREO_COUNT>
0

> <PUBCHEM_ATOM_UDEF_STEREO_COUNT>
0

> <PUBCHEM_BOND_DEF_STEREO_COUNT>
0

> <PUBCHEM_BOND_UDEF_STEREO_COUNT>
0

> <PUBCHEM_ISOTOPIC_ATOM_COUNT>
0

> <PUBCHEM_COMPONENT_COUNT>
1

> <PUBCHEM_CACTVS_TAUTO_COUNT>
1

> <PUBCHEM_CONFORMER_ID>
00002E0600000002

> <PUBCHEM_MMFF94_ENERGY>
35.6718

> <PUBCHEM_FEATURE_SELFOVERLAP>
20.355

> <PUBCHEM_SHAPE_FINGERPRINT>
11206711 2 18411422786991043749
12423570 1 12028745646000305937
13380535 76 18049169057614683605
161256 15 18191873318558231305
16945 1 18267588992023651921
18185500 45 18194966240466617782
193761 8 17977383068629144167
20871998 184 18187367640076785127
21040471 1 17976538630513507929
23463225 33 18341051938068459690
23552423 10 18271523216532196690
23559900 14 17827636169908009942
241688 4 18409735032352753897
2748010 2 18409732867409557653
369184 2 18341051907887559592
5084963 1 18113899368304315139
528886 8 18409452500755916521
53812654 25 18190757348647315022
66348 1 18266177231957377411

> <PUBCHEM_SHAPE_MULTIPOLES>
214.64
3.57
2.16
0.64
0.77
0.01
0
-0.6
-0.14
-0.51
0.04
0.05
0
-0.24

> <PUBCHEM_SHAPE_SELFOVERLAP>
451.031

> <PUBCHEM_SHAPE_VOLUME>
122.8

> <PUBCHEM_COORDINATE_TYPE>
2
5
10

$$$$

