27295
  -OEChem-07051213013D

 30 31  0     0  0  0  0  0  0999 V2000
   -4.3675    2.7379   -0.3395 F   0  0  0  0  0  0  0  0  0  0  0  0
   -5.4404    0.8548   -0.2543 F   0  0  0  0  0  0  0  0  0  0  0  0
   -4.4877    1.6421    1.5349 F   0  0  0  0  0  0  0  0  0  0  0  0
    0.4560   -1.2674   -1.0684 O   0  0  0  0  0  0  0  0  0  0  0  0
   -2.3972   -3.0689    1.2245 O   0  5  0  0  0  0  0  0  0  0  0  0
   -0.4360   -3.1616    0.2427 O   0  0  0  0  0  0  0  0  0  0  0  0
    5.3325    1.4944    1.7557 O   0  5  0  0  0  0  0  0  0  0  0  0
    6.2009    1.1134   -0.2241 O   0  0  0  0  0  0  0  0  0  0  0  0
   -1.4953   -2.5522    0.5233 N   0  3  0  0  0  0  0  0  0  0  0  0
    5.2441    1.0511    0.5852 N   0  3  0  0  0  0  0  0  0  0  0  0
   -0.7016   -0.6194   -0.7537 C   0  0  0  0  0  0  0  0  0  0  0  0
   -3.0537    0.7488   -0.1382 C   0  0  0  0  0  0  0  0  0  0  0  0
   -1.6801   -1.2316    0.0296 C   0  0  0  0  0  0  0  0  0  0  0  0
   -2.8561   -0.5477    0.3373 C   0  0  0  0  0  0  0  0  0  0  0  0
   -0.8991    0.6769   -1.2291 C   0  0  0  0  0  0  0  0  0  0  0  0
   -2.0750    1.3611   -0.9213 C   0  0  0  0  0  0  0  0  0  0  0  0
    1.6453   -0.6916   -0.6576 C   0  0  0  0  0  0  0  0  0  0  0  0
   -4.3107    1.4804    0.1912 C   0  0  0  0  0  0  0  0  0  0  0  0
    1.7474   -0.2010    0.6322 C   0  0  0  0  0  0  0  0  0  0  0  0
    2.7030   -0.6201   -1.5469 C   0  0  0  0  0  0  0  0  0  0  0  0
    4.0234    0.4604    0.1636 C   0  0  0  0  0  0  0  0  0  0  0  0
    2.9462    0.3797    1.0460 C   0  0  0  0  0  0  0  0  0  0  0  0
    3.9018   -0.0395   -1.1330 C   0  0  0  0  0  0  0  0  0  0  0  0
   -3.6365   -0.9991    0.9457 H   0  0  0  0  0  0  0  0  0  0  0  0
   -0.1527    1.1655   -1.8501 H   0  0  0  0  0  0  0  0  0  0  0  0
   -2.2116    2.3693   -1.3026 H   0  0  0  0  0  0  0  0  0  0  0  0
    0.9306   -0.2685    1.3443 H   0  0  0  0  0  0  0  0  0  0  0  0
    2.6091   -1.0086   -2.5565 H   0  0  0  0  0  0  0  0  0  0  0  0
    3.0063    0.7549    2.0645 H   0  0  0  0  0  0  0  0  0  0  0  0
    4.7196    0.0062   -1.8476 H   0  0  0  0  0  0  0  0  0  0  0  0
  1 18  1  0  0  0  0
  2 18  1  0  0  0  0
  3 18  1  0  0  0  0
  4 11  1  0  0  0  0
  4 17  1  0  0  0  0
  5  9  1  0  0  0  0
  6  9  2  0  0  0  0
  7 10  1  0  0  0  0
  8 10  2  0  0  0  0
  9 13  1  0  0  0  0
 10 21  1  0  0  0  0
 11 13  2  0  0  0  0
 11 15  1  0  0  0  0
 12 14  2  0  0  0  0
 12 16  1  0  0  0  0
 12 18  1  0  0  0  0
 13 14  1  0  0  0  0
 14 24  1  0  0  0  0
 15 16  2  0  0  0  0
 15 25  1  0  0  0  0
 16 26  1  0  0  0  0
 17 19  2  0  0  0  0
 17 20  1  0  0  0  0
 19 22  1  0  0  0  0
 19 27  1  0  0  0  0
 20 23  2  0  0  0  0
 20 28  1  0  0  0  0
 21 22  2  0  0  0  0
 21 23  1  0  0  0  0
 22 29  1  0  0  0  0
 23 30  1  0  0  0  0
M  CHG  4   5  -1   7  -1   9   1  10   1
M  END
> <PUBCHEM_COMPOUND_CID>
27295

> <PUBCHEM_CONFORMER_RMSD>
0.8

> <PUBCHEM_CONFORMER_DIVERSEORDER>
2
1
3
4

> <PUBCHEM_MMFF94_PARTIAL_CHARGES>
30
1 -0.34
10 0.91
11 0.08
12 -0.14
13 0.13
14 -0.15
15 -0.15
16 -0.15
17 0.08
18 1.16
19 -0.15
2 -0.34
20 -0.15
21 0.13
22 -0.15
23 -0.15
24 0.15
25 0.15
26 0.15
27 0.15
28 0.15
29 0.15
3 -0.34
30 0.15
4 -0.17
5 -0.52
6 -0.52
7 -0.52
8 -0.52
9 0.91

> <PUBCHEM_EFFECTIVE_ROTOR_COUNT>
5

> <PUBCHEM_PHARMACOPHORE_FEATURES>
9
1 4 acceptor
1 5 acceptor
1 5 anion
1 6 acceptor
1 7 acceptor
1 7 anion
1 8 acceptor
6 11 12 13 14 15 16 rings
6 17 19 20 21 22 23 rings

> <PUBCHEM_HEAVY_ATOM_COUNT>
23

> <PUBCHEM_ATOM_DEF_STEREO_COUNT>
0

> <PUBCHEM_ATOM_UDEF_STEREO_COUNT>
0

> <PUBCHEM_BOND_DEF_STEREO_COUNT>
0

> <PUBCHEM_BOND_UDEF_STEREO_COUNT>
0

> <PUBCHEM_ISOTOPIC_ATOM_COUNT>
0

> <PUBCHEM_COMPONENT_COUNT>
1

> <PUBCHEM_CACTVS_TAUTO_COUNT>
1

> <PUBCHEM_CONFORMER_ID>
00006A9F00000002

> <PUBCHEM_MMFF94_ENERGY>
74.9375

> <PUBCHEM_FEATURE_SELFOVERLAP>
45.856

> <PUBCHEM_SHAPE_FINGERPRINT>
10319926 262 18411708664947575194
10493431 412 18341891913676113133
10692045 39 18194129731604889746
11405975 8 18412266147296962538
12236239 1 17060340686745214526
12403259 118 18192160300374007960
12616971 3 16630527298360592950
12633257 1 18131072602149192260
12730499 353 17822004328566483670
12788726 201 17556838253301970795
14178342 30 18201996586555810346
14341114 328 16702007695310928877
14787075 74 18260553329499046813
15375358 24 18113900451047426340
17870717 6 9295021196988834624
17980427 26 18120385507983127143
19862831 5 13984669148145487444
20374829 77 9511456728027342525
20645477 56 18413671318255436716
20645477 70 17095795599388427238
21033648 29 18200310056093872933
212916 134 18341617031120786963
21401589 2 18333728027002330865
21618674 25 18261392282039418327
22224240 67 18412820318500611937
23402655 69 16805325517613130772
23503953 91 17988642969788363460
23557571 272 18336817590389086638
23559900 14 18339344366883901990
27216 239 18115595837610628878
2838139 119 17385446561157843696
2916195 48 18260552237897014541
495365 180 17822296837652047454
5104073 3 18339636836544289059
53917941 68 18341625828057932559
633830 44 18044096976158433845
7808743 9 18342453716905200916
9981440 41 18200870790334175939

> <PUBCHEM_SHAPE_MULTIPOLES>
412.2
11.39
2.51
1.32
7.11
1.63
-0.06
-8.68
-2.72
-2.86
-0.71
0.76
-0.1
1.18

> <PUBCHEM_SHAPE_SELFOVERLAP>
900.617

> <PUBCHEM_SHAPE_VOLUME>
224.6

> <PUBCHEM_COORDINATE_TYPE>
2
5
10

$$$$

