442542
  -OEChem-07051212582D

 52 54  0     1  0  0  0  0  0999 V2000
    6.3580    0.2847    0.0000 O   0  0  0  0  0  0  0  0  0  0  0  0
    6.3465   -2.7846    0.0000 O   0  0  0  0  0  0  0  0  0  0  0  0
    4.5981   -2.7500    0.0000 O   0  0  0  0  0  0  0  0  0  0  0  0
    2.8660    0.2500    0.0000 O   0  0  0  0  0  0  0  0  0  0  0  0
    7.2641   -1.2708    0.0000 C   0  0  0  0  0  0  0  0  0  0  0  0
    6.3580   -1.7847    0.0000 C   0  0  2  0  0  0  0  0  0  0  0  0
    7.2641   -0.2292    0.0000 C   0  0  1  0  0  0  0  0  0  0  0  0
    5.4641   -1.2500    0.0000 C   0  0  0  0  0  0  0  0  0  0  0  0
    5.4641   -0.2500    0.0000 C   0  0  0  0  0  0  0  0  0  0  0  0
    4.5981    0.2500    0.0000 C   0  0  0  0  0  0  0  0  0  0  0  0
    8.1282    0.2742    0.0000 C   0  0  0  0  0  0  0  0  0  0  0  0
    4.5981   -1.7500    0.0000 C   0  0  0  0  0  0  0  0  0  0  0  0
    3.7320   -0.2500    0.0000 C   0  0  0  0  0  0  0  0  0  0  0  0
    4.5981    1.2500    0.0000 C   0  0  0  0  0  0  0  0  0  0  0  0
    3.7320   -1.2500    0.0000 C   0  0  0  0  0  0  0  0  0  0  0  0
    8.9962   -0.2225    0.0000 C   0  0  0  0  0  0  0  0  0  0  0  0
    8.1244    1.2741    0.0000 C   0  0  0  0  0  0  0  0  0  0  0  0
    3.7320    1.7500    0.0000 C   0  0  0  0  0  0  0  0  0  0  0  0
    9.8602    0.2808    0.0000 C   0  0  0  0  0  0  0  0  0  0  0  0
    8.9884    1.7775    0.0000 C   0  0  0  0  0  0  0  0  0  0  0  0
    9.8564    1.2808    0.0000 C   0  0  0  0  0  0  0  0  0  0  0  0
    3.7320    2.7500    0.0000 C   0  0  0  0  0  0  0  0  0  0  0  0
    3.7320   -3.2500    0.0000 C   0  0  0  0  0  0  0  0  0  0  0  0
    2.0000   -0.2500    0.0000 C   0  0  0  0  0  0  0  0  0  0  0  0
    2.8660    3.2500    0.0000 C   0  0  0  0  0  0  0  0  0  0  0  0
    4.5981    3.2500    0.0000 C   0  0  0  0  0  0  0  0  0  0  0  0
    7.4732   -1.8545    0.0000 H   0  0  0  0  0  0  0  0  0  0  0  0
    7.8750   -1.1647    0.0000 H   0  0  0  0  0  0  0  0  0  0  0  0
    6.8920   -2.0998    0.0000 H   0  0  0  0  0  0  0  0  0  0  0  0
    7.2605    0.3908    0.0000 H   0  0  0  0  0  0  0  0  0  0  0  0
    5.2087    1.1423    0.0000 H   0  0  0  0  0  0  0  0  0  0  0  0
    4.8101    1.8326    0.0000 H   0  0  0  0  0  0  0  0  0  0  0  0
    3.1951   -1.5600    0.0000 H   0  0  0  0  0  0  0  0  0  0  0  0
    6.8798   -3.1008    0.0000 H   0  0  0  0  0  0  0  0  0  0  0  0
    8.9985   -0.8425    0.0000 H   0  0  0  0  0  0  0  0  0  0  0  0
    7.5862    1.5821    0.0000 H   0  0  0  0  0  0  0  0  0  0  0  0
    3.1951    1.4400    0.0000 H   0  0  0  0  0  0  0  0  0  0  0  0
   10.3984   -0.0271    0.0000 H   0  0  0  0  0  0  0  0  0  0  0  0
    8.9860    2.3975    0.0000 H   0  0  0  0  0  0  0  0  0  0  0  0
   10.3921    1.5929    0.0000 H   0  0  0  0  0  0  0  0  0  0  0  0
    3.4220   -2.7131    0.0000 H   0  0  0  0  0  0  0  0  0  0  0  0
    3.1951   -3.5600    0.0000 H   0  0  0  0  0  0  0  0  0  0  0  0
    4.0420   -3.7869    0.0000 H   0  0  0  0  0  0  0  0  0  0  0  0
    1.6900    0.2869    0.0000 H   0  0  0  0  0  0  0  0  0  0  0  0
    1.4631   -0.5600    0.0000 H   0  0  0  0  0  0  0  0  0  0  0  0
    2.3100   -0.7869    0.0000 H   0  0  0  0  0  0  0  0  0  0  0  0
    3.1760    3.7869    0.0000 H   0  0  0  0  0  0  0  0  0  0  0  0
    2.3291    3.5600    0.0000 H   0  0  0  0  0  0  0  0  0  0  0  0
    2.5560    2.7131    0.0000 H   0  0  0  0  0  0  0  0  0  0  0  0
    4.9081    2.7131    0.0000 H   0  0  0  0  0  0  0  0  0  0  0  0
    5.1350    3.5600    0.0000 H   0  0  0  0  0  0  0  0  0  0  0  0
    4.2881    3.7869    0.0000 H   0  0  0  0  0  0  0  0  0  0  0  0
  1  7  1  0  0  0  0
  1  9  1  0  0  0  0
  6  2  1  1  0  0  0
  2 34  1  0  0  0  0
  3 12  1  0  0  0  0
  3 23  1  0  0  0  0
  4 13  1  0  0  0  0
  4 24  1  0  0  0  0
  5  6  1  0  0  0  0
  5  7  1  0  0  0  0
  5 27  1  0  0  0  0
  5 28  1  0  0  0  0
  6  8  1  0  0  0  0
  6 29  1  0  0  0  0
  7 11  1  6  0  0  0
  7 30  1  0  0  0  0
  8  9  1  0  0  0  0
  8 12  2  0  0  0  0
  9 10  2  0  0  0  0
 10 13  1  0  0  0  0
 10 14  1  0  0  0  0
 11 16  2  0  0  0  0
 11 17  1  0  0  0  0
 12 15  1  0  0  0  0
 13 15  2  0  0  0  0
 14 18  1  0  0  0  0
 14 31  1  0  0  0  0
 14 32  1  0  0  0  0
 15 33  1  0  0  0  0
 16 19  1  0  0  0  0
 16 35  1  0  0  0  0
 17 20  2  0  0  0  0
 17 36  1  0  0  0  0
 18 22  2  0  0  0  0
 18 37  1  0  0  0  0
 19 21  2  0  0  0  0
 19 38  1  0  0  0  0
 20 21  1  0  0  0  0
 20 39  1  0  0  0  0
 21 40  1  0  0  0  0
 22 25  1  0  0  0  0
 22 26  1  0  0  0  0
 23 41  1  0  0  0  0
 23 42  1  0  0  0  0
 23 43  1  0  0  0  0
 24 44  1  0  0  0  0
 24 45  1  0  0  0  0
 24 46  1  0  0  0  0
 25 47  1  0  0  0  0
 25 48  1  0  0  0  0
 25 49  1  0  0  0  0
 26 50  1  0  0  0  0
 26 51  1  0  0  0  0
 26 52  1  0  0  0  0
M  END
> <PUBCHEM_COMPOUND_CID>
442542

> <PUBCHEM_COMPOUND_CANONICALIZED>
1

> <PUBCHEM_CACTVS_COMPLEXITY>
467

> <PUBCHEM_CACTVS_HBOND_ACCEPTOR>
4

> <PUBCHEM_CACTVS_HBOND_DONOR>
1

> <PUBCHEM_CACTVS_ROTATABLE_BOND>
5

> <PUBCHEM_CACTVS_SUBSKEYS>
AAADceB4OAAAAAAAAAAAAAAAAAAAAAAAAAA0YIAAAAAAAACRQAAAGgAACAAADBSgmAIyBoAABgCAAiBCAAACCAAgIAAIiAAGCIgMNyKEMRqCeCClwBUIuAeA4OwOIAACCAAIAABAAAQQABAAAAAAAAAAAA==

> <PUBCHEM_IUPAC_OPENEYE_NAME>
(2S,4R)-5,7-dimethoxy-8-(3-methylbut-2-enyl)-2-phenyl-chroman-4-ol

> <PUBCHEM_IUPAC_CAS_NAME>
(2S,4R)-5,7-dimethoxy-8-(3-methylbut-2-enyl)-2-phenyl-3,4-dihydro-2H-1-benzopyran-4-ol

> <PUBCHEM_IUPAC_NAME>
(2S,4R)-5,7-dimethoxy-8-(3-methylbut-2-enyl)-2-phenyl-3,4-dihydro-2H-chromen-4-ol

> <PUBCHEM_IUPAC_SYSTEMATIC_NAME>
(2S,4R)-5,7-dimethoxy-8-(3-methylbut-2-enyl)-2-phenyl-3,4-dihydro-2H-chromen-4-ol

> <PUBCHEM_IUPAC_TRADITIONAL_NAME>
(2S,4R)-5,7-dimethoxy-8-(3-methylbut-2-enyl)-2-phenyl-chroman-4-ol

> <PUBCHEM_IUPAC_INCHI>
InChI=1S/C22H26O4/c1-14(2)10-11-16-19(24-3)13-20(25-4)21-17(23)12-18(26-22(16)21)15-8-6-5-7-9-15/h5-10,13,17-18,23H,11-12H2,1-4H3/t17-,18+/m1/s1

> <PUBCHEM_IUPAC_INCHIKEY>
ADIMMCHZVYYGPW-MSOLQXFVSA-N

> <PUBCHEM_XLOGP3_AA>
4.6

> <PUBCHEM_EXACT_MASS>
354.183109

> <PUBCHEM_MOLECULAR_FORMULA>
C22H26O4

> <PUBCHEM_MOLECULAR_WEIGHT>
354.43944

> <PUBCHEM_OPENEYE_CAN_SMILES>
CC(=CCC1=C(C=C(C2=C1OC(CC2O)C3=CC=CC=C3)OC)OC)C

> <PUBCHEM_OPENEYE_ISO_SMILES>
CC(=CCC1=C(C=C(C2=C1O[C@@H](C[C@H]2O)C3=CC=CC=C3)OC)OC)C

> <PUBCHEM_CACTVS_TPSA>
47.9

> <PUBCHEM_MONOISOTOPIC_WEIGHT>
354.183109

> <PUBCHEM_TOTAL_CHARGE>
0

> <PUBCHEM_HEAVY_ATOM_COUNT>
26

> <PUBCHEM_ATOM_DEF_STEREO_COUNT>
2

> <PUBCHEM_ATOM_UDEF_STEREO_COUNT>
0

> <PUBCHEM_BOND_DEF_STEREO_COUNT>
0

> <PUBCHEM_BOND_UDEF_STEREO_COUNT>
0

> <PUBCHEM_ISOTOPIC_ATOM_COUNT>
0

> <PUBCHEM_COMPONENT_COUNT>
1

> <PUBCHEM_CACTVS_TAUTO_COUNT>
1

> <PUBCHEM_COORDINATE_TYPE>
1
5
255

> <PUBCHEM_BONDANNOTATIONS>
10  13  8
11  16  8
11  17  8
12  15  8
13  15  8
16  19  8
17  20  8
19  21  8
6  2  5
20  21  8
7  11  6
8  12  8
8  9  8
9  10  8

$$$$

