11228
  -OEChem-06261205253D

 41 40  0     1  0  0  0  0  0999 V2000
    1.0530   -0.6445   -0.6625 P   0  0  2  0  0  0  0  0  0  0  0  0
   -0.9818    0.6785    0.9098 P   0  0  0  0  0  0  0  0  0  0  0  0
    2.6432   -0.9186   -0.8377 O   0  0  0  0  0  0  0  0  0  0  0  0
   -1.3702   -0.8905    0.7777 O   0  0  0  0  0  0  0  0  0  0  0  0
   -1.4976    1.1759   -0.5460 O   0  0  0  0  0  0  0  0  0  0  0  0
    0.5180   -2.0609   -0.0760 O   0  0  0  0  0  0  0  0  0  0  0  0
    0.3526   -0.2421   -1.9331 O   0  0  0  0  0  0  0  0  0  0  0  0
    0.8101    0.5898    0.5750 N   0  3  0  0  0  0  0  0  0  0  0  0
    1.5359    0.1316    1.8284 C   0  0  0  0  0  0  0  0  0  0  0  0
    1.3859    1.8975    0.0708 C   0  0  0  0  0  0  0  0  0  0  0  0
    1.3838    1.1840    2.9049 C   0  0  0  0  0  0  0  0  0  0  0  0
    2.8517    1.7050   -0.2517 C   0  0  0  0  0  0  0  0  0  0  0  0
   -2.7380   -1.2127    0.9830 C   0  0  0  0  0  0  0  0  0  0  0  0
   -2.8982    1.3669   -0.6845 C   0  0  0  0  0  0  0  0  0  0  0  0
    3.0696   -1.8802   -1.7863 C   0  0  0  0  0  0  0  0  0  0  0  0
   -2.9219   -2.7068    0.8238 C   0  0  0  0  0  0  0  0  0  0  0  0
   -3.1961    1.8273   -2.0955 C   0  0  0  0  0  0  0  0  0  0  0  0
    2.5804   -0.1032    1.6185 H   0  0  0  0  0  0  0  0  0  0  0  0
    1.0743   -0.8070    2.1608 H   0  0  0  0  0  0  0  0  0  0  0  0
    1.2237    2.6830    0.8149 H   0  0  0  0  0  0  0  0  0  0  0  0
    0.8475    2.1881   -0.8388 H   0  0  0  0  0  0  0  0  0  0  0  0
    1.7983    0.7815    3.8376 H   0  0  0  0  0  0  0  0  0  0  0  0
    0.3577    1.4751    3.1386 H   0  0  0  0  0  0  0  0  0  0  0  0
    1.9668    2.0856    2.6952 H   0  0  0  0  0  0  0  0  0  0  0  0
    3.0039    1.2707   -1.2427 H   0  0  0  0  0  0  0  0  0  0  0  0
    3.4691    1.2040    0.4915 H   0  0  0  0  0  0  0  0  0  0  0  0
    3.2927    2.7072   -0.3442 H   0  0  0  0  0  0  0  0  0  0  0  0
    0.4506   -2.8296   -0.6814 H   0  0  0  0  0  0  0  0  0  0  0  0
   -3.0422   -0.9261    1.9978 H   0  0  0  0  0  0  0  0  0  0  0  0
   -3.4583   -0.8382    0.2874 H   0  0  0  0  0  0  0  0  0  0  0  0
   -3.5135    0.4933   -0.6397 H   0  0  0  0  0  0  0  0  0  0  0  0
   -3.2601    2.1169    0.0291 H   0  0  0  0  0  0  0  0  0  0  0  0
    2.6545   -1.6475   -2.7703 H   0  0  0  0  0  0  0  0  0  0  0  0
    2.7535   -2.8786   -1.4742 H   0  0  0  0  0  0  0  0  0  0  0  0
    4.1604   -1.8543   -1.8449 H   0  0  0  0  0  0  0  0  0  0  0  0
   -3.9594   -3.0004    1.0096 H   0  0  0  0  0  0  0  0  0  0  0  0
   -2.6400   -3.0259   -0.1855 H   0  0  0  0  0  0  0  0  0  0  0  0
   -2.2746   -3.2504    1.5203 H   0  0  0  0  0  0  0  0  0  0  0  0
   -4.2670    2.0001   -2.2385 H   0  0  0  0  0  0  0  0  0  0  0  0
   -2.6600    2.7564   -2.3167 H   0  0  0  0  0  0  0  0  0  0  0  0
   -2.8570    1.0849   -2.8263 H   0  0  0  0  0  0  0  0  0  0  0  0
  1  3  1  0  0  0  0
  1  6  1  0  0  0  0
  1  7  2  0  0  0  0
  1  8  1  0  0  0  0
  2  4  1  0  0  0  0
  2  5  1  0  0  0  0
  2  8  1  0  0  0  0
  3 15  1  0  0  0  0
  4 13  1  0  0  0  0
  5 14  1  0  0  0  0
  6 28  1  0  0  0  0
  8  9  1  0  0  0  0
  8 10  1  0  0  0  0
  9 11  1  0  0  0  0
  9 18  1  0  0  0  0
  9 19  1  0  0  0  0
 10 12  1  0  0  0  0
 10 20  1  0  0  0  0
 10 21  1  0  0  0  0
 11 22  1  0  0  0  0
 11 23  1  0  0  0  0
 11 24  1  0  0  0  0
 12 25  1  0  0  0  0
 12 26  1  0  0  0  0
 12 27  1  0  0  0  0
 13 16  1  0  0  0  0
 13 29  1  0  0  0  0
 13 30  1  0  0  0  0
 14 17  1  0  0  0  0
 14 31  1  0  0  0  0
 14 32  1  0  0  0  0
 15 33  1  0  0  0  0
 15 34  1  0  0  0  0
 15 35  1  0  0  0  0
 16 36  1  0  0  0  0
 16 37  1  0  0  0  0
 16 38  1  0  0  0  0
 17 39  1  0  0  0  0
 17 40  1  0  0  0  0
 17 41  1  0  0  0  0
M  CHG  1   8   1
M  END
> <PUBCHEM_COMPOUND_CID>
11228

> <PUBCHEM_CONFORMER_RMSD>
0.8

> <PUBCHEM_CONFORMER_DIVERSEORDER>
1
22
23
8
21
7
9
17
16
4
15
12
6
20
18
5
10
11
3
24
2
13
19
14

> <PUBCHEM_MMFF94_PARTIAL_CHARGES>
14
1 1.75
10 0.5
13 0.28
14 0.28
15 0.28
2 0.55
28 0.5
3 -0.55
4 -0.38
5 -0.38
6 -0.77
7 -0.7
8 -0.86
9 0.5

> <PUBCHEM_EFFECTIVE_ROTOR_COUNT>
9

> <PUBCHEM_PHARMACOPHORE_FEATURES>
2
1 6 acceptor
1 7 acceptor

> <PUBCHEM_HEAVY_ATOM_COUNT>
17

> <PUBCHEM_ATOM_DEF_STEREO_COUNT>
0

> <PUBCHEM_ATOM_UDEF_STEREO_COUNT>
0

> <PUBCHEM_BOND_DEF_STEREO_COUNT>
0

> <PUBCHEM_BOND_UDEF_STEREO_COUNT>
0

> <PUBCHEM_ISOTOPIC_ATOM_COUNT>
0

> <PUBCHEM_COMPONENT_COUNT>
1

> <PUBCHEM_CACTVS_TAUTO_COUNT>
1

> <PUBCHEM_CONFORMER_ID>
00002BDC00000001

> <PUBCHEM_MMFF94_ENERGY>
40.1823

> <PUBCHEM_FEATURE_SELFOVERLAP>
10.16

> <PUBCHEM_SHAPE_FINGERPRINT>
11680611 10 17631472119073579953
12138202 97 17987230208889291871
12202030 40 18260820476016315867
12716301 132 18272382983016971091
13134695 92 17458347497909682690
14817 1 12774990715947885979
15219456 202 18409157797127024701
15852999 172 18122095158443435857
15881359 60 17756169803090899627
16945 1 18122614213704354834
18186145 218 18193570076023109981
19765921 60 15072894173072278961
20511035 2 18121534364278604808
20600515 1 18047759483760928170
20711985 344 17917423208027158859
21041028 32 17242425412973663202
22112679 90 16845581932329433759
23419403 2 18113617871910887842
23526113 38 18334300910925158412
23557571 272 18057884637422774819
23559900 14 18267577104446214182
2748010 2 18409166593103872461
298252 57 16986008361994363503
3060560 45 17554924283210402269
3286 77 17532355509611720555
68419 9 16988850483788546563
81228 2 17988350465604668465
88987 49 17917161566871700361

> <PUBCHEM_SHAPE_MULTIPOLES>
323.22
5.03
2.63
2.32
1.82
0.96
0.57
0.37
-1.63
0.82
-0.42
-0.53
-0.48
2.74

> <PUBCHEM_SHAPE_SELFOVERLAP>
575.073

> <PUBCHEM_SHAPE_VOLUME>
211.2

> <PUBCHEM_COORDINATE_TYPE>
2
5
10

$$$$

