15703425
  -OEChem-07051213083D

 85 88  0     1  0  0  0  0  0999 V2000
   -9.0197   -0.1387    0.2489 S   0  0  0  0  0  0  0  0  0  0  0  0
    1.7660   -0.1146   -2.1928 O   0  0  0  0  0  0  0  0  0  0  0  0
    3.5400    1.8826    1.7375 O   0  0  0  0  0  0  0  0  0  0  0  0
    7.1282    3.0987   -1.4540 O   0  0  0  0  0  0  0  0  0  0  0  0
   -4.5461    0.1751    1.4192 O   0  0  0  0  0  0  0  0  0  0  0  0
   -7.4719    0.0408   -0.2441 O   0  0  0  0  0  0  0  0  0  0  0  0
   -5.2949    3.6031   -1.0830 O   0  0  0  0  0  0  0  0  0  0  0  0
   -9.3113   -1.7279    0.0236 O   0  0  0  0  0  0  0  0  0  0  0  0
   -9.0551    0.1137    1.6775 O   0  0  0  0  0  0  0  0  0  0  0  0
   -9.8880    0.6053   -0.6444 O   0  0  0  0  0  0  0  0  0  0  0  0
    1.2862   -1.3467   -0.1137 C   0  0  1  0  0  0  0  0  0  0  0  0
    1.8652   -0.2602    0.8226 C   0  0  2  0  0  0  0  0  0  0  0  0
    3.3525   -0.4725    1.1456 C   0  0  1  0  0  0  0  0  0  0  0  0
    4.1686   -0.4621   -0.1909 C   0  0  1  0  0  0  0  0  0  0  0  0
    5.7106   -0.6775    0.0660 C   0  0  2  0  0  0  0  0  0  0  0  0
   -0.1902   -0.8710   -0.1487 C   0  0  2  0  0  0  0  0  0  0  0  0
    2.0440   -1.3050   -1.4561 C   0  0  2  0  0  0  0  0  0  0  0  0
    3.5684   -1.4333   -1.2511 C   0  0  0  0  0  0  0  0  0  0  0  0
    6.2256    0.4121    1.0646 C   0  0  2  0  0  0  0  0  0  0  0  0
    0.8687   -0.2122    1.9801 C   0  0  0  0  0  0  0  0  0  0  0  0
    3.8844    0.5647    2.1538 C   0  0  1  0  0  0  0  0  0  0  0  0
   -0.4923   -0.4991    1.3213 C   0  0  0  0  0  0  0  0  0  0  0  0
    5.3970    0.4556    2.3644 C   0  0  0  0  0  0  0  0  0  0  0  0
    6.5537   -0.5941   -1.2410 C   0  0  0  0  0  0  0  0  0  0  0  0
    1.3879   -2.7829    0.4696 C   0  0  0  0  0  0  0  0  0  0  0  0
   -1.2022   -1.8458   -0.7334 C   0  0  1  0  0  0  0  0  0  0  0  0
    6.3313    1.8124    0.4240 C   0  0  0  0  0  0  0  0  0  0  0  0
    5.9904   -2.0850    0.6585 C   0  0  0  0  0  0  0  0  0  0  0  0
    6.6108    0.7973   -1.8563 C   0  0  0  0  0  0  0  0  0  0  0  0
    7.1593    1.8065   -0.8572 C   0  0  1  0  0  0  0  0  0  0  0  0
   -2.6426   -1.5793   -0.2453 C   0  0  0  0  0  0  0  0  0  0  0  0
   -1.1167   -1.8654   -2.2621 C   0  0  0  0  0  0  0  0  0  0  0  0
   -3.1802   -0.1681   -0.5326 C   0  0  0  0  0  0  0  0  0  0  0  0
   -4.6109    0.0159    0.0001 C   0  0  2  0  0  0  0  0  0  0  0  0
   -5.3756    1.2186   -0.6034 C   0  0  1  0  0  0  0  0  0  0  0  0
   -6.8150    1.2893   -0.0663 C   0  0  0  0  0  0  0  0  0  0  0  0
   -4.6263    2.5494   -0.4010 C   0  0  0  0  0  0  0  0  0  0  0  0
    1.7842    0.7116    0.3093 H   0  0  0  0  0  0  0  0  0  0  0  0
    3.4665   -1.4501    1.6236 H   0  0  0  0  0  0  0  0  0  0  0  0
    4.0430    0.5408   -0.6208 H   0  0  0  0  0  0  0  0  0  0  0  0
   -0.2472    0.0696   -0.7160 H   0  0  0  0  0  0  0  0  0  0  0  0
    1.7368   -2.1398   -2.0920 H   0  0  0  0  0  0  0  0  0  0  0  0
    4.0540   -1.2510   -2.2161 H   0  0  0  0  0  0  0  0  0  0  0  0
    3.7941   -2.4674   -0.9731 H   0  0  0  0  0  0  0  0  0  0  0  0
    7.2505    0.1405    1.3586 H   0  0  0  0  0  0  0  0  0  0  0  0
    0.8709    0.7625    2.4789 H   0  0  0  0  0  0  0  0  0  0  0  0
    1.0962   -0.9712    2.7371 H   0  0  0  0  0  0  0  0  0  0  0  0
    3.3905    0.4077    3.1202 H   0  0  0  0  0  0  0  0  0  0  0  0
   -0.9670   -1.3124    1.8796 H   0  0  0  0  0  0  0  0  0  0  0  0
   -1.1288    0.3851    1.4076 H   0  0  0  0  0  0  0  0  0  0  0  0
    5.6015   -0.4546    2.9414 H   0  0  0  0  0  0  0  0  0  0  0  0
    5.7453    1.2929    2.9825 H   0  0  0  0  0  0  0  0  0  0  0  0
    7.5861   -0.9005   -1.0192 H   0  0  0  0  0  0  0  0  0  0  0  0
    6.1972   -1.3106   -1.9887 H   0  0  0  0  0  0  0  0  0  0  0  0
    0.7863   -2.9168    1.3738 H   0  0  0  0  0  0  0  0  0  0  0  0
    2.4129   -3.0601    0.7297 H   0  0  0  0  0  0  0  0  0  0  0  0
    1.0531   -3.5283   -0.2605 H   0  0  0  0  0  0  0  0  0  0  0  0
   -0.9928   -2.8660   -0.3950 H   0  0  0  0  0  0  0  0  0  0  0  0
    6.7807    2.5147    1.1381 H   0  0  0  0  0  0  0  0  0  0  0  0
    5.3463    2.2300    0.1940 H   0  0  0  0  0  0  0  0  0  0  0  0
    5.4281   -2.2868    1.5729 H   0  0  0  0  0  0  0  0  0  0  0  0
    5.7523   -2.8782   -0.0575 H   0  0  0  0  0  0  0  0  0  0  0  0
    7.0521   -2.1958    0.9103 H   0  0  0  0  0  0  0  0  0  0  0  0
    7.2497    0.7833   -2.7481 H   0  0  0  0  0  0  0  0  0  0  0  0
    5.6216    1.1087   -2.2129 H   0  0  0  0  0  0  0  0  0  0  0  0
    8.2051    1.5701   -0.6279 H   0  0  0  0  0  0  0  0  0  0  0  0
    2.2447   -0.1711   -3.0372 H   0  0  0  0  0  0  0  0  0  0  0  0
   -2.7252   -1.8051    0.8225 H   0  0  0  0  0  0  0  0  0  0  0  0
   -3.3077   -2.3054   -0.7330 H   0  0  0  0  0  0  0  0  0  0  0  0
    3.8613    2.4998    2.4166 H   0  0  0  0  0  0  0  0  0  0  0  0
   -0.2347   -2.4019   -2.6129 H   0  0  0  0  0  0  0  0  0  0  0  0
   -1.9788   -2.3904   -2.6893 H   0  0  0  0  0  0  0  0  0  0  0  0
   -1.1041   -0.8562   -2.6859 H   0  0  0  0  0  0  0  0  0  0  0  0
   -2.5311    0.5969   -0.1051 H   0  0  0  0  0  0  0  0  0  0  0  0
   -3.1869   -0.0189   -1.6189 H   0  0  0  0  0  0  0  0  0  0  0  0
    7.4816    3.7300   -0.8042 H   0  0  0  0  0  0  0  0  0  0  0  0
   -5.1822   -0.8982   -0.2013 H   0  0  0  0  0  0  0  0  0  0  0  0
   -5.4552    1.0388   -1.6848 H   0  0  0  0  0  0  0  0  0  0  0  0
   -4.2369   -0.6625    1.8019 H   0  0  0  0  0  0  0  0  0  0  0  0
   -7.3807    2.0610   -0.6003 H   0  0  0  0  0  0  0  0  0  0  0  0
   -6.8137    1.5459    0.9991 H   0  0  0  0  0  0  0  0  0  0  0  0
   -3.6114    2.4967   -0.8047 H   0  0  0  0  0  0  0  0  0  0  0  0
   -4.5676    2.8086    0.6612 H   0  0  0  0  0  0  0  0  0  0  0  0
   -4.7866    4.4161   -0.9206 H   0  0  0  0  0  0  0  0  0  0  0  0
  -10.2167   -2.0296    0.2710 H   0  0  0  0  0  0  0  0  0  0  0  0
  1  6  1  0  0  0  0
  1  8  1  0  0  0  0
  1  9  2  0  0  0  0
  1 10  2  0  0  0  0
  2 17  1  0  0  0  0
  2 67  1  0  0  0  0
  3 21  1  0  0  0  0
  3 70  1  0  0  0  0
  4 30  1  0  0  0  0
  4 76  1  0  0  0  0
  5 34  1  0  0  0  0
  5 79  1  0  0  0  0
  6 36  1  0  0  0  0
  7 37  1  0  0  0  0
  7 84  1  0  0  0  0
  8 85  1  0  0  0  0
 11 12  1  0  0  0  0
 11 16  1  0  0  0  0
 11 17  1  0  0  0  0
 11 25  1  0  0  0  0
 12 13  1  0  0  0  0
 12 20  1  0  0  0  0
 12 38  1  0  0  0  0
 13 14  1  0  0  0  0
 13 21  1  0  0  0  0
 13 39  1  0  0  0  0
 14 15  1  0  0  0  0
 14 18  1  0  0  0  0
 14 40  1  0  0  0  0
 15 19  1  0  0  0  0
 15 24  1  0  0  0  0
 15 28  1  0  0  0  0
 16 22  1  0  0  0  0
 16 26  1  0  0  0  0
 16 41  1  0  0  0  0
 17 18  1  0  0  0  0
 17 42  1  0  0  0  0
 18 43  1  0  0  0  0
 18 44  1  0  0  0  0
 19 23  1  0  0  0  0
 19 27  1  0  0  0  0
 19 45  1  0  0  0  0
 20 22  1  0  0  0  0
 20 46  1  0  0  0  0
 20 47  1  0  0  0  0
 21 23  1  0  0  0  0
 21 48  1  0  0  0  0
 22 49  1  0  0  0  0
 22 50  1  0  0  0  0
 23 51  1  0  0  0  0
 23 52  1  0  0  0  0
 24 29  1  0  0  0  0
 24 53  1  0  0  0  0
 24 54  1  0  0  0  0
 25 55  1  0  0  0  0
 25 56  1  0  0  0  0
 25 57  1  0  0  0  0
 26 31  1  0  0  0  0
 26 32  1  0  0  0  0
 26 58  1  0  0  0  0
 27 30  1  0  0  0  0
 27 59  1  0  0  0  0
 27 60  1  0  0  0  0
 28 61  1  0  0  0  0
 28 62  1  0  0  0  0
 28 63  1  0  0  0  0
 29 30  1  0  0  0  0
 29 64  1  0  0  0  0
 29 65  1  0  0  0  0
 30 66  1  0  0  0  0
 31 33  1  0  0  0  0
 31 68  1  0  0  0  0
 31 69  1  0  0  0  0
 32 71  1  0  0  0  0
 32 72  1  0  0  0  0
 32 73  1  0  0  0  0
 33 34  1  0  0  0  0
 33 74  1  0  0  0  0
 33 75  1  0  0  0  0
 34 35  1  0  0  0  0
 34 77  1  0  0  0  0
 35 36  1  0  0  0  0
 35 37  1  0  0  0  0
 35 78  1  0  0  0  0
 36 80  1  0  0  0  0
 36 81  1  0  0  0  0
 37 82  1  0  0  0  0
 37 83  1  0  0  0  0
M  END
> <PUBCHEM_COMPOUND_CID>
15703425

> <PUBCHEM_CONFORMER_RMSD>
1.2

> <PUBCHEM_CONFORMER_DIVERSEORDER>
1
36
16
38
35
57
24
63
23
21
53
25
37
34
65
52
58
22
45
4
39
20
43
13
48
41
18
47
3
32
61
19
12
10
54
11
40
60
42
44
26
29
30
9
56
31
59
55
17
8
46
6
33
28
62
14
27
51
5
66
2
15
50
64
7
67
49

> <PUBCHEM_MMFF94_PARTIAL_CHARGES>
22
1 1.67
10 -0.65
17 0.28
2 -0.68
21 0.28
3 -0.68
30 0.28
34 0.28
36 0.28
37 0.28
4 -0.68
5 -0.68
6 -0.46
67 0.4
7 -0.68
70 0.4
76 0.4
79 0.4
8 -0.68
84 0.4
85 0.5
9 -0.65

> <PUBCHEM_EFFECTIVE_ROTOR_COUNT>
11.2

> <PUBCHEM_PHARMACOPHORE_FEATURES>
19
1 10 acceptor
1 2 acceptor
1 2 donor
1 3 acceptor
1 3 donor
1 32 hydrophobe
1 4 acceptor
1 4 donor
1 5 acceptor
1 5 donor
1 7 acceptor
1 7 donor
1 8 acceptor
1 9 acceptor
4 1 8 9 10 anion
5 11 12 16 20 22 rings
6 11 12 13 14 17 18 rings
6 13 14 15 19 21 23 rings
6 15 19 24 27 29 30 rings

> <PUBCHEM_HEAVY_ATOM_COUNT>
37

> <PUBCHEM_ATOM_DEF_STEREO_COUNT>
12

> <PUBCHEM_ATOM_UDEF_STEREO_COUNT>
1

> <PUBCHEM_BOND_DEF_STEREO_COUNT>
0

> <PUBCHEM_BOND_UDEF_STEREO_COUNT>
0

> <PUBCHEM_ISOTOPIC_ATOM_COUNT>
0

> <PUBCHEM_COMPONENT_COUNT>
1

> <PUBCHEM_CACTVS_TAUTO_COUNT>
1

> <PUBCHEM_CONFORMER_ID>
00EF9D8100000001

> <PUBCHEM_MMFF94_ENERGY>
121.3473

> <PUBCHEM_FEATURE_SELFOVERLAP>
96.593

> <PUBCHEM_SHAPE_FINGERPRINT>
10 15 18272931613997664331
10162869 55 15482667936819866043
10554248 39 18115316686691573030
10816530 90 18336830801899107768
11115154 58 4823217216779863811
11719270 70 11600005466041118720
11991303 11 17822297833868215543
12202916 173 12175622880727029377
12522641 24 17417539107224304714
13560911 43 17346593076434882589
13782708 43 8934999270137674732
14118638 360 18269839869310912275
14251757 52 18272931605529256852
15064981 194 17604706639210725319
15082195 135 18113612371018241408
15131766 46 18197216941650124548
15183329 4 16950281810493289322
15188451 53 9655581816050132438
15840311 113 18131348614080171670
17686467 74 17703786999797992333
18608769 82 18260553308319791391
19611394 137 18340201887765126059
20105231 36 16081366346276013375
20771845 171 17822561794622297446
21424621 283 18131068255562913850
22149856 69 14979965795455337262
22224240 67 16200432472847338451
23559900 14 16153987921201847018
335352 9 17167577194675442526
4093350 32 17917991690304833946
4098825 35 17022904571262704731
4112364 45 18342453690724110021
4258327 124 18339073788001382557
439807 62 9007061266221818300
5283156 175 6411299026785525311
6126387 218 13830138295964478199

> <PUBCHEM_SHAPE_MULTIPOLES>
712.47
27.41
2.56
1.97
56.85
1.08
-0.16
11.12
1.15
-0.6
0.93
-2.54
0.28
0.2

> <PUBCHEM_SHAPE_SELFOVERLAP>
1460.156

> <PUBCHEM_SHAPE_VOLUME>
414.8

> <PUBCHEM_COORDINATE_TYPE>
2
5
10

$$$$

