5281790
  -OEChem-07051212593D

 34 34  0     0  0  0  0  0  0999 V2000
    2.5244    0.2016   -0.3533 O   0  0  0  0  0  0  0  0  0  0  0  0
   -5.7545    1.1667   -0.2129 O   0  0  0  0  0  0  0  0  0  0  0  0
   -5.9422   -1.5958    0.0211 O   0  0  0  0  0  0  0  0  0  0  0  0
    1.5957    2.2418    0.2056 O   0  0  0  0  0  0  0  0  0  0  0  0
   -2.2452    0.2498    0.1069 C   0  0  0  0  0  0  0  0  0  0  0  0
    5.8945   -0.6801    0.0370 C   0  0  0  0  0  0  0  0  0  0  0  0
    4.8355   -0.2770   -0.6905 C   0  0  0  0  0  0  0  0  0  0  0  0
    3.8268    0.7748   -0.3502 C   0  0  0  0  0  0  0  0  0  0  0  0
   -3.3834    1.0260   -0.0404 C   0  0  0  0  0  0  0  0  0  0  0  0
   -2.3225   -1.1282    0.2263 C   0  0  0  0  0  0  0  0  0  0  0  0
   -4.6331    0.4070   -0.0696 C   0  0  0  0  0  0  0  0  0  0  0  0
   -0.9251    0.9037    0.1372 C   0  0  0  0  0  0  0  0  0  0  0  0
   -4.7276   -0.9796    0.0495 C   0  0  0  0  0  0  0  0  0  0  0  0
   -3.5723   -1.7471    0.1975 C   0  0  0  0  0  0  0  0  0  0  0  0
    6.8065   -1.7602   -0.4826 C   0  0  0  0  0  0  0  0  0  0  0  0
    6.2841   -0.1397    1.3836 C   0  0  0  0  0  0  0  0  0  0  0  0
    0.2376    0.2829   -0.1078 C   0  0  0  0  0  0  0  0  0  0  0  0
    1.5008    1.0535   -0.0573 C   0  0  0  0  0  0  0  0  0  0  0  0
    4.6704   -0.7530   -1.6566 H   0  0  0  0  0  0  0  0  0  0  0  0
    3.8738    1.5570   -1.1173 H   0  0  0  0  0  0  0  0  0  0  0  0
    4.0103    1.2397    0.6213 H   0  0  0  0  0  0  0  0  0  0  0  0
   -3.3192    2.1073   -0.1350 H   0  0  0  0  0  0  0  0  0  0  0  0
   -1.4529   -1.7628    0.3648 H   0  0  0  0  0  0  0  0  0  0  0  0
   -0.9381    1.9666    0.3683 H   0  0  0  0  0  0  0  0  0  0  0  0
   -3.6324   -2.8279    0.2957 H   0  0  0  0  0  0  0  0  0  0  0  0
    7.8282   -1.3786   -0.5808 H   0  0  0  0  0  0  0  0  0  0  0  0
    6.8175   -2.6109    0.2068 H   0  0  0  0  0  0  0  0  0  0  0  0
    6.4963   -2.1333   -1.4644 H   0  0  0  0  0  0  0  0  0  0  0  0
    7.2917    0.2872    1.3383 H   0  0  0  0  0  0  0  0  0  0  0  0
    5.6188    0.6399    1.7578 H   0  0  0  0  0  0  0  0  0  0  0  0
    6.2869   -0.9467    2.1241 H   0  0  0  0  0  0  0  0  0  0  0  0
    0.3126   -0.7661   -0.3693 H   0  0  0  0  0  0  0  0  0  0  0  0
   -6.5271    0.5753   -0.2119 H   0  0  0  0  0  0  0  0  0  0  0  0
   -5.8129   -2.5552    0.1163 H   0  0  0  0  0  0  0  0  0  0  0  0
  1  8  1  0  0  0  0
  1 18  1  0  0  0  0
  2 11  1  0  0  0  0
  2 33  1  0  0  0  0
  3 13  1  0  0  0  0
  3 34  1  0  0  0  0
  4 18  2  0  0  0  0
  5  9  2  0  0  0  0
  5 10  1  0  0  0  0
  5 12  1  0  0  0  0
  6  7  2  0  0  0  0
  6 15  1  0  0  0  0
  6 16  1  0  0  0  0
  7  8  1  0  0  0  0
  7 19  1  0  0  0  0
  8 20  1  0  0  0  0
  8 21  1  0  0  0  0
  9 11  1  0  0  0  0
  9 22  1  0  0  0  0
 10 14  2  0  0  0  0
 10 23  1  0  0  0  0
 11 13  2  0  0  0  0
 12 17  2  0  0  0  0
 12 24  1  0  0  0  0
 13 14  1  0  0  0  0
 14 25  1  0  0  0  0
 15 26  1  0  0  0  0
 15 27  1  0  0  0  0
 15 28  1  0  0  0  0
 16 29  1  0  0  0  0
 16 30  1  0  0  0  0
 16 31  1  0  0  0  0
 17 18  1  0  0  0  0
 17 32  1  0  0  0  0
M  END
> <PUBCHEM_COMPOUND_CID>
5281790

> <PUBCHEM_CONFORMER_RMSD>
0.6

> <PUBCHEM_CONFORMER_DIVERSEORDER>
1
48
337
142
319
190
323
61
209
94
14
159
12
223
228
215
251
333
34
302
206
33
110
204
315
168
151
161
334
327
57
50
255
287
266
281
188
163
148
115
81
2
249
248
317
312
218
158
29
322
39
124
32
324
11
174
325
114
183
109
299
203
314
235
214
157
95
321
134
68
238
4
20
205
189
19
60
265
119
155
53
193
62
282
220
152
288
120
43
182
125
18
9
58
250
16
198
328
211
90
35
133
195
3
137
244
116
179
217
156
126
274
74
176
335
96
166
145
173
130
162
277
84
306
101
31
271
226
99
107
253
131
197
10
313
181
318
42
8
170
177
268
55
237
41
6
75
270
78
144
30
178
180
37
80
326
117
239
307
201
77
154
13
185
71
247
40
311
279
297
5
149
310
280
103
242
85
112
100
336
132
300
7
87
23
111
105
258
260
257
54
186
45
70
216
52
263
172
46
194
15
169
219
138
38
208
273
167
143
44
135
153
128
164
283
264
123
56
122
184
66
160
269
21
295
69
121
225
320
231
127
59
49
171
86
332
285
113
213
229
102
17
233
304
286
146
256
245
293
202
118
330
331
294
97
73
192
199
243
79
284
272
147
246
236
329
26
262
72
141
259
63
278
27
83
76
298
106
88
65
64
289
200
89
108
93
140
305
25
22
191
187
252
165
51
296
150
98
222
92
82
301
196
136
308
139
230
207
47
275
104
24
291
36
316
309
210
292
28
234
227
303
91
241
261
240
276
175
67
221
129
290
212
254
232
267
224

> <PUBCHEM_MMFF94_PARTIAL_CHARGES>
26
1 -0.43
10 -0.15
11 0.08
12 -0.18
13 0.08
14 -0.15
15 0.14
16 0.14
17 -0.14
18 0.71
19 0.15
2 -0.53
22 0.15
23 0.15
24 0.15
25 0.15
3 -0.53
32 0.15
33 0.45
34 0.45
4 -0.57
5 0.03
6 -0.28
7 -0.29
8 0.42
9 -0.15

> <PUBCHEM_EFFECTIVE_ROTOR_COUNT>
5

> <PUBCHEM_PHARMACOPHORE_FEATURES>
5
1 2 donor
1 3 donor
1 4 acceptor
3 6 15 16 hydrophobe
6 5 9 10 11 13 14 rings

> <PUBCHEM_HEAVY_ATOM_COUNT>
18

> <PUBCHEM_ATOM_DEF_STEREO_COUNT>
0

> <PUBCHEM_ATOM_UDEF_STEREO_COUNT>
0

> <PUBCHEM_BOND_DEF_STEREO_COUNT>
1

> <PUBCHEM_BOND_UDEF_STEREO_COUNT>
0

> <PUBCHEM_ISOTOPIC_ATOM_COUNT>
0

> <PUBCHEM_COMPONENT_COUNT>
1

> <PUBCHEM_CACTVS_TAUTO_COUNT>
10

> <PUBCHEM_CONFORMER_ID>
005097FE00000001

> <PUBCHEM_MMFF94_ENERGY>
38.0846

> <PUBCHEM_FEATURE_SELFOVERLAP>
25.376

> <PUBCHEM_SHAPE_FINGERPRINT>
100836 57 8790886285506576974
10354089 29 6050442609675058594
10670039 82 10231488449444180626
11315181 36 18259980474575574737
11524674 6 17385724694729230415
117890 112 7709460515763472660
11858739 19 18335700572564276406
12236239 1 17989204837003889564
12516196 113 18259704493500287048
12555020 224 18340774754254922231
12596602 18 17312821580871446810
13288520 33 18411980256808684149
13668630 136 18343017813915603006
13685833 64 18411416185299222882
13862211 1 18408602552418909022
13897977 58 8935003663815326235
14251731 8 18342459257127857749
14251751 18 18114182982343849430
14251752 14 17632584884896701869
14848160 23 18186240641159305490
15183329 4 17132116849062027394
15348495 7 17749959864660219954
17492 89 18053378795664570971
17857418 61 18272654558542294770
18222031 100 18273491295934770972
19489759 90 17894911858272892241
200 152 17894627033358730009
20374829 77 18342175561579299404
21267235 1 18271519815556362939
23035841 295 18130787858712489905
23198884 109 15841550777781567557
23402539 116 18410013234796577997
23536379 177 18202281403190695916
23559900 14 18336834095637701529
26918003 58 18113616785231381728
2916195 48 9727626194763821606
29717793 49 18060413630294177286
3004659 81 18202560684024356166
335352 9 18411982477534000109
351380 3 18344148103226144674
4214541 1 18411698781774243509
465052 167 18259981592237522302
5104073 3 18262792965411534145
559249 180 18412263947872695799
5718773 13 18190183395521016383
6138700 20 18412823620571216210
9971528 1 17775003436679861068

> <PUBCHEM_SHAPE_MULTIPOLES>
346.95
18.11
1.73
0.78
14.6
0.14
-0.13
7.52
-0.48
-0.57
0.01
0.98
0.04
0.47

> <PUBCHEM_SHAPE_SELFOVERLAP>
711.623

> <PUBCHEM_SHAPE_VOLUME>
200.3

> <PUBCHEM_COORDINATE_TYPE>
2
5
10

$$$$

