47445
  -OEChem-07051213122D

 34 35  0     0  0  0  0  0  0999 V2000
    3.7320    3.1830    0.0000 Cl  0  0  0  0  0  0  0  0  0  0  0  0
    2.0000   -4.8170    0.0000 F   0  0  0  0  0  0  0  0  0  0  0  0
    3.3660   -5.1830    0.0000 F   0  0  0  0  0  0  0  0  0  0  0  0
    2.3660   -3.4510    0.0000 F   0  0  0  0  0  0  0  0  0  0  0  0
    3.7320   -3.8170    0.0000 O   0  0  0  0  0  0  0  0  0  0  0  0
    6.3301    1.6830    0.0000 O   0  0  0  0  0  0  0  0  0  0  0  0
    5.4641    0.1830    0.0000 O   0  0  0  0  0  0  0  0  0  0  0  0
    3.7320    0.1830    0.0000 N   0  0  0  0  0  0  0  0  0  0  0  0
    4.5981    1.6830    0.0000 N   0  0  0  0  0  0  0  0  0  0  0  0
    3.7320   -0.8170    0.0000 C   0  0  0  0  0  0  0  0  0  0  0  0
    2.8660   -1.3170    0.0000 C   0  0  0  0  0  0  0  0  0  0  0  0
    4.5981   -1.3170    0.0000 C   0  0  0  0  0  0  0  0  0  0  0  0
    5.4641    3.1830    0.0000 C   0  0  0  0  0  0  0  0  0  0  0  0
    3.7320   -2.8170    0.0000 C   0  0  0  0  0  0  0  0  0  0  0  0
    2.8660   -2.3170    0.0000 C   0  0  0  0  0  0  0  0  0  0  0  0
    4.5981   -2.3170    0.0000 C   0  0  0  0  0  0  0  0  0  0  0  0
    5.4641    2.1830    0.0000 C   0  0  0  0  0  0  0  0  0  0  0  0
    4.5981    0.6830    0.0000 C   0  0  0  0  0  0  0  0  0  0  0  0
    4.5981    3.6830    0.0000 C   0  0  0  0  0  0  0  0  0  0  0  0
    6.3301    3.6830    0.0000 C   0  0  0  0  0  0  0  0  0  0  0  0
    4.5981    4.6830    0.0000 C   0  0  0  0  0  0  0  0  0  0  0  0
    6.3301    4.6830    0.0000 C   0  0  0  0  0  0  0  0  0  0  0  0
    5.4641    5.1830    0.0000 C   0  0  0  0  0  0  0  0  0  0  0  0
    2.8660   -4.3170    0.0000 C   0  0  0  0  0  0  0  0  0  0  0  0
    2.3291   -1.0070    0.0000 H   0  0  0  0  0  0  0  0  0  0  0  0
    5.1350   -1.0070    0.0000 H   0  0  0  0  0  0  0  0  0  0  0  0
    3.1951    0.4930    0.0000 H   0  0  0  0  0  0  0  0  0  0  0  0
    2.3291   -2.6270    0.0000 H   0  0  0  0  0  0  0  0  0  0  0  0
    5.1350   -2.6270    0.0000 H   0  0  0  0  0  0  0  0  0  0  0  0
    6.8671    3.3730    0.0000 H   0  0  0  0  0  0  0  0  0  0  0  0
    4.0611    1.9930    0.0000 H   0  0  0  0  0  0  0  0  0  0  0  0
    4.0611    4.9930    0.0000 H   0  0  0  0  0  0  0  0  0  0  0  0
    6.8671    4.9930    0.0000 H   0  0  0  0  0  0  0  0  0  0  0  0
    5.4641    5.8030    0.0000 H   0  0  0  0  0  0  0  0  0  0  0  0
  1 19  1  0  0  0  0
  2 24  1  0  0  0  0
  3 24  1  0  0  0  0
  4 24  1  0  0  0  0
  5 14  1  0  0  0  0
  5 24  1  0  0  0  0
  6 17  2  0  0  0  0
  7 18  2  0  0  0  0
  8 10  1  0  0  0  0
  8 18  1  0  0  0  0
  8 27  1  0  0  0  0
  9 17  1  0  0  0  0
  9 18  1  0  0  0  0
  9 31  1  0  0  0  0
 10 11  2  0  0  0  0
 10 12  1  0  0  0  0
 11 15  1  0  0  0  0
 11 25  1  0  0  0  0
 12 16  2  0  0  0  0
 12 26  1  0  0  0  0
 13 17  1  0  0  0  0
 13 19  1  0  0  0  0
 13 20  2  0  0  0  0
 14 15  2  0  0  0  0
 14 16  1  0  0  0  0
 15 28  1  0  0  0  0
 16 29  1  0  0  0  0
 19 21  2  0  0  0  0
 20 22  1  0  0  0  0
 20 30  1  0  0  0  0
 21 23  1  0  0  0  0
 21 32  1  0  0  0  0
 22 23  2  0  0  0  0
 22 33  1  0  0  0  0
 23 34  1  0  0  0  0
M  END
> <PUBCHEM_COMPOUND_CID>
47445

> <PUBCHEM_COMPOUND_CANONICALIZED>
1

> <PUBCHEM_CACTVS_COMPLEXITY>
454

> <PUBCHEM_CACTVS_HBOND_ACCEPTOR>
6

> <PUBCHEM_CACTVS_HBOND_DONOR>
2

> <PUBCHEM_CACTVS_ROTATABLE_BOND>
3

> <PUBCHEM_CACTVS_SUBSKEYS>
AAADccBzMYAEAAAAAAAAAAAAAAAAAAAAAAAwYAAAAAAAAAABQAAAHwIQAAAADA6BmDAxxoLABACIAiVSUACCCAAlJwAIiAEGbsiMJjLFt5uEMShs1TNI7ae4yACOAEAAAAABAAAAgAAAAAIAAAAAAAAAAA==

> <PUBCHEM_IUPAC_OPENEYE_NAME>
2-chloro-N-[[4-(trifluoromethoxy)phenyl]carbamoyl]benzamide

> <PUBCHEM_IUPAC_CAS_NAME>
2-chloro-N-[oxo-[4-(trifluoromethoxy)anilino]methyl]benzamide

> <PUBCHEM_IUPAC_NAME>
2-chloro-N-[[4-(trifluoromethoxy)phenyl]carbamoyl]benzamide

> <PUBCHEM_IUPAC_SYSTEMATIC_NAME>
2-chloranyl-N-[[4-(trifluoromethyloxy)phenyl]carbamoyl]benzamide

> <PUBCHEM_IUPAC_TRADITIONAL_NAME>
2-chloro-N-[[4-(trifluoromethoxy)phenyl]carbamoyl]benzamide

> <PUBCHEM_IUPAC_INCHI>
InChI=1S/C15H10ClF3N2O3/c16-12-4-2-1-3-11(12)13(22)21-14(23)20-9-5-7-10(8-6-9)24-15(17,18)19/h1-8H,(H2,20,21,22,23)

> <PUBCHEM_IUPAC_INCHIKEY>
XAIPTRIXGHTTNT-UHFFFAOYSA-N

> <PUBCHEM_XLOGP3>
5.6

> <PUBCHEM_EXACT_MASS>
358.033205

> <PUBCHEM_MOLECULAR_FORMULA>
C15H10ClF3N2O3

> <PUBCHEM_MOLECULAR_WEIGHT>
358.69971

> <PUBCHEM_OPENEYE_CAN_SMILES>
C1=CC=C(C(=C1)C(=O)NC(=O)NC2=CC=C(C=C2)OC(F)(F)F)Cl

> <PUBCHEM_OPENEYE_ISO_SMILES>
C1=CC=C(C(=C1)C(=O)NC(=O)NC2=CC=C(C=C2)OC(F)(F)F)Cl

> <PUBCHEM_CACTVS_TPSA>
67.4

> <PUBCHEM_MONOISOTOPIC_WEIGHT>
358.033205

> <PUBCHEM_TOTAL_CHARGE>
0

> <PUBCHEM_HEAVY_ATOM_COUNT>
24

> <PUBCHEM_ATOM_DEF_STEREO_COUNT>
0

> <PUBCHEM_ATOM_UDEF_STEREO_COUNT>
0

> <PUBCHEM_BOND_DEF_STEREO_COUNT>
0

> <PUBCHEM_BOND_UDEF_STEREO_COUNT>
0

> <PUBCHEM_ISOTOPIC_ATOM_COUNT>
0

> <PUBCHEM_COMPONENT_COUNT>
1

> <PUBCHEM_CACTVS_TAUTO_COUNT>
5

> <PUBCHEM_COORDINATE_TYPE>
1
5
255

> <PUBCHEM_BONDANNOTATIONS>
10  11  8
10  12  8
11  15  8
12  16  8
13  19  8
13  20  8
14  15  8
14  16  8
19  21  8
20  22  8
21  23  8
22  23  8

$$$$

