12305768
  -OEChem-07051213092D

 82 86  0     1  0  0  0  0  0999 V2000
    2.5357   -2.6896    0.0000 O   0  0  0  0  0  0  0  0  0  0  0  0
    2.5519   -0.5980    0.0000 O   0  0  0  0  0  0  0  0  0  0  0  0
   11.4608    0.3969    0.0000 O   0  0  0  0  0  0  0  0  0  0  0  0
   10.6064   -1.1097    0.0000 O   0  0  0  0  0  0  0  0  0  0  0  0
    7.0628   -1.1372    0.0000 C   0  0  1  0  0  0  0  0  0  0  0  0
    7.9288   -0.6372    0.0000 C   0  0  1  0  0  0  0  0  0  0  0  0
    6.1968   -0.6372    0.0000 C   0  0  1  0  0  0  0  0  0  0  0  0
    7.9288    0.3628    0.0000 C   0  0  1  0  0  0  0  0  0  0  0  0
    5.2868   -1.1441    0.0000 C   0  0  2  0  0  0  0  0  0  0  0  0
    8.8228    0.8974    0.0000 C   0  0  2  0  0  0  0  0  0  0  0  0
    5.2787   -2.1857    0.0000 C   0  0  1  0  0  0  0  0  0  0  0  0
    9.7288    0.3836    0.0000 C   0  0  1  0  0  0  0  0  0  0  0  0
    7.0789   -2.1788    0.0000 C   0  0  0  0  0  0  0  0  0  0  0  0
    6.1968    0.3628    0.0000 C   0  0  0  0  0  0  0  0  0  0  0  0
    8.8228   -1.1719    0.0000 C   0  0  0  0  0  0  0  0  0  0  0  0
    7.0628    0.8628    0.0000 C   0  0  0  0  0  0  0  0  0  0  0  0
    6.1808   -2.7065    0.0000 C   0  0  0  0  0  0  0  0  0  0  0  0
    9.7288   -0.6581    0.0000 C   0  0  0  0  0  0  0  0  0  0  0  0
    4.3433   -2.7354    0.0000 C   0  0  0  0  0  0  0  0  0  0  0  0
    9.0329    1.9113    0.0000 C   0  0  1  0  0  0  0  0  0  0  0  0
    4.3599   -0.5800    0.0000 C   0  0  0  0  0  0  0  0  0  0  0  0
    7.7056   -1.9033    0.0000 C   0  0  0  0  0  0  0  0  0  0  0  0
    8.2709   -1.5769    0.0000 C   0  0  0  0  0  0  0  0  0  0  0  0
   10.4911    1.0843    0.0000 C   0  0  0  0  0  0  0  0  0  0  0  0
    5.2945   -0.1441    0.0000 C   0  0  0  0  0  0  0  0  0  0  0  0
   10.0619    2.0266    0.0000 C   0  0  0  0  0  0  0  0  0  0  0  0
    3.4037   -2.1929    0.0000 C   0  0  2  0  0  0  0  0  0  0  0  0
    3.4120   -1.1080    0.0000 C   0  0  2  0  0  0  0  0  0  0  0  0
   10.5987   -0.1097    0.0000 C   0  0  0  0  0  0  0  0  0  0  0  0
    3.8467   -3.6034    0.0000 C   0  0  0  0  0  0  0  0  0  0  0  0
    4.8466   -3.5995    0.0000 C   0  0  0  0  0  0  0  0  0  0  0  0
    8.3593    2.6505    0.0000 C   0  0  0  0  0  0  0  0  0  0  0  0
    8.6626    3.6034    0.0000 C   0  0  0  0  0  0  0  0  0  0  0  0
    7.3824    2.4367    0.0000 C   0  0  0  0  0  0  0  0  0  0  0  0
    6.9329   -0.2122    0.0000 H   0  0  0  0  0  0  0  0  0  0  0  0
    7.9223    1.2127    0.0000 H   0  0  0  0  0  0  0  0  0  0  0  0
    8.1300    1.3900    0.0000 H   0  0  0  0  0  0  0  0  0  0  0  0
    5.2820   -3.0357    0.0000 H   0  0  0  0  0  0  0  0  0  0  0  0
    7.2969   -2.7592    0.0000 H   0  0  0  0  0  0  0  0  0  0  0  0
    7.6880   -2.0632    0.0000 H   0  0  0  0  0  0  0  0  0  0  0  0
    5.9847    0.9454    0.0000 H   0  0  0  0  0  0  0  0  0  0  0  0
    5.5862    0.2551    0.0000 H   0  0  0  0  0  0  0  0  0  0  0  0
    8.4182   -1.6417    0.0000 H   0  0  0  0  0  0  0  0  0  0  0  0
    9.2164   -1.6509    0.0000 H   0  0  0  0  0  0  0  0  0  0  0  0
    7.4613    1.3377    0.0000 H   0  0  0  0  0  0  0  0  0  0  0  0
    6.6643    1.3377    0.0000 H   0  0  0  0  0  0  0  0  0  0  0  0
    5.7835   -3.1825    0.0000 H   0  0  0  0  0  0  0  0  0  0  0  0
    6.5818   -3.1794    0.0000 H   0  0  0  0  0  0  0  0  0  0  0  0
    9.9379   -1.2418    0.0000 H   0  0  0  0  0  0  0  0  0  0  0  0
   10.3397   -0.5520    0.0000 H   0  0  0  0  0  0  0  0  0  0  0  0
    9.2513    2.4916    0.0000 H   0  0  0  0  0  0  0  0  0  0  0  0
    4.7681   -0.1134    0.0000 H   0  0  0  0  0  0  0  0  0  0  0  0
    3.9700   -0.0980    0.0000 H   0  0  0  0  0  0  0  0  0  0  0  0
    7.2306   -2.3018    0.0000 H   0  0  0  0  0  0  0  0  0  0  0  0
    8.1041   -2.3782    0.0000 H   0  0  0  0  0  0  0  0  0  0  0  0
    8.1805   -1.5048    0.0000 H   0  0  0  0  0  0  0  0  0  0  0  0
    7.6884   -1.7890    0.0000 H   0  0  0  0  0  0  0  0  0  0  0  0
    8.4830   -2.1595    0.0000 H   0  0  0  0  0  0  0  0  0  0  0  0
    8.8535   -1.3648    0.0000 H   0  0  0  0  0  0  0  0  0  0  0  0
   10.8604    0.5863    0.0000 H   0  0  0  0  0  0  0  0  0  0  0  0
   11.0252    1.3992    0.0000 H   0  0  0  0  0  0  0  0  0  0  0  0
    5.9145   -0.1489    0.0000 H   0  0  0  0  0  0  0  0  0  0  0  0
    5.2993    0.4759    0.0000 H   0  0  0  0  0  0  0  0  0  0  0  0
    4.6745   -0.1393    0.0000 H   0  0  0  0  0  0  0  0  0  0  0  0
   10.6500    2.2229    0.0000 H   0  0  0  0  0  0  0  0  0  0  0  0
    9.9285    2.6321    0.0000 H   0  0  0  0  0  0  0  0  0  0  0  0
    3.4025   -2.8129    0.0000 H   0  0  0  0  0  0  0  0  0  0  0  0
    2.8722   -1.4128    0.0000 H   0  0  0  0  0  0  0  0  0  0  0  0
    3.3085   -3.2954    0.0000 H   0  0  0  0  0  0  0  0  0  0  0  0
    3.5387   -4.1415    0.0000 H   0  0  0  0  0  0  0  0  0  0  0  0
    4.3848   -3.9113    0.0000 H   0  0  0  0  0  0  0  0  0  0  0  0
    4.3109   -3.9116    0.0000 H   0  0  0  0  0  0  0  0  0  0  0  0
    5.1587   -4.1352    0.0000 H   0  0  0  0  0  0  0  0  0  0  0  0
    5.3824   -3.2874    0.0000 H   0  0  0  0  0  0  0  0  0  0  0  0
    2.0000   -2.3775    0.0000 H   0  0  0  0  0  0  0  0  0  0  0  0
    2.5590    0.0220    0.0000 H   0  0  0  0  0  0  0  0  0  0  0  0
    9.2534    3.4153    0.0000 H   0  0  0  0  0  0  0  0  0  0  0  0
    8.8507    4.1941    0.0000 H   0  0  0  0  0  0  0  0  0  0  0  0
    8.0718    3.7914    0.0000 H   0  0  0  0  0  0  0  0  0  0  0  0
   12.0001    0.0911    0.0000 H   0  0  0  0  0  0  0  0  0  0  0  0
    6.9648    2.8950    0.0000 H   0  0  0  0  0  0  0  0  0  0  0  0
    7.1944    1.8459    0.0000 H   0  0  0  0  0  0  0  0  0  0  0  0
 27  1  1  1  0  0  0
  1 75  1  0  0  0  0
 28  2  1  6  0  0  0
  2 76  1  0  0  0  0
  3 29  1  0  0  0  0
  3 80  1  0  0  0  0
  4 29  2  0  0  0  0
  5  6  1  0  0  0  0
  5  7  1  0  0  0  0
  5 13  1  0  0  0  0
  5 22  1  1  0  0  0
  6  8  1  0  0  0  0
  6 15  1  0  0  0  0
  6 23  1  6  0  0  0
  7  9  1  0  0  0  0
  7 14  1  0  0  0  0
  7 35  1  6  0  0  0
  8 10  1  0  0  0  0
  8 16  1  0  0  0  0
  8 36  1  1  0  0  0
  9 11  1  0  0  0  0
  9 21  1  0  0  0  0
  9 25  1  1  0  0  0
 10 12  1  0  0  0  0
 10 20  1  0  0  0  0
 10 37  1  6  0  0  0
 11 17  1  0  0  0  0
 11 19  1  0  0  0  0
 11 38  1  6  0  0  0
 12 18  1  0  0  0  0
 12 24  1  0  0  0  0
 12 29  1  1  0  0  0
 13 17  1  0  0  0  0
 13 39  1  0  0  0  0
 13 40  1  0  0  0  0
 14 16  1  0  0  0  0
 14 41  1  0  0  0  0
 14 42  1  0  0  0  0
 15 18  1  0  0  0  0
 15 43  1  0  0  0  0
 15 44  1  0  0  0  0
 16 45  1  0  0  0  0
 16 46  1  0  0  0  0
 17 47  1  0  0  0  0
 17 48  1  0  0  0  0
 18 49  1  0  0  0  0
 18 50  1  0  0  0  0
 19 27  1  0  0  0  0
 19 30  1  0  0  0  0
 19 31  1  0  0  0  0
 20 26  1  0  0  0  0
 20 32  1  6  0  0  0
 20 51  1  0  0  0  0
 21 28  1  0  0  0  0
 21 52  1  0  0  0  0
 21 53  1  0  0  0  0
 22 54  1  0  0  0  0
 22 55  1  0  0  0  0
 22 56  1  0  0  0  0
 23 57  1  0  0  0  0
 23 58  1  0  0  0  0
 23 59  1  0  0  0  0
 24 26  1  0  0  0  0
 24 60  1  0  0  0  0
 24 61  1  0  0  0  0
 25 62  1  0  0  0  0
 25 63  1  0  0  0  0
 25 64  1  0  0  0  0
 26 65  1  0  0  0  0
 26 66  1  0  0  0  0
 27 28  1  0  0  0  0
 27 67  1  0  0  0  0
 28 68  1  0  0  0  0
 30 69  1  0  0  0  0
 30 70  1  0  0  0  0
 30 71  1  0  0  0  0
 31 72  1  0  0  0  0
 31 73  1  0  0  0  0
 31 74  1  0  0  0  0
 32 33  1  0  0  0  0
 32 34  2  0  0  0  0
 33 77  1  0  0  0  0
 33 78  1  0  0  0  0
 33 79  1  0  0  0  0
 34 81  1  0  0  0  0
 34 82  1  0  0  0  0
M  END
> <PUBCHEM_COMPOUND_CID>
12305768

> <PUBCHEM_COMPOUND_CANONICALIZED>
1

> <PUBCHEM_CACTVS_COMPLEXITY>
894

> <PUBCHEM_CACTVS_HBOND_ACCEPTOR>
4

> <PUBCHEM_CACTVS_HBOND_DONOR>
3

> <PUBCHEM_CACTVS_ROTATABLE_BOND>
2

> <PUBCHEM_CACTVS_SUBSKEYS>
AAADcfB4OAAAAAAAAAAAAAAAAAAAAYAAAAAwYMGAAAAAAGDAAAAAGgAACAAADxSggAICCAAAAgCIAgDSCAAAAAAgAAAAAAEAAAgBEBIAAQAAQAAEgAABAAGIyPCPgAAAAAAAAADAAAYAADCAAQAACAAAAA==

> <PUBCHEM_IUPAC_OPENEYE_NAME>
(1R,3aS,5aR,5bR,7aR,9R,10R,11aR,11bR,13aR,13bR)-9,10-dihydroxy-1-isopropenyl-5a,5b,8,8,11a-pentamethyl-1,2,3,4,5,6,7,7a,9,10,11,11b,12,13,13a,13b-hexadecahydrocyclopenta[a]chrysene-3a-carboxylic acid

> <PUBCHEM_IUPAC_CAS_NAME>
(1R,3aS,5aR,5bR,7aR,9R,10R,11aR,11bR,13aR,13bR)-9,10-dihydroxy-5a,5b,8,8,11a-pentamethyl-1-(1-methylethenyl)-1,2,3,4,5,6,7,7a,9,10,11,11b,12,13,13a,13b-hexadecahydrocyclopenta[a]chrysene-3a-carboxylic acid

> <PUBCHEM_IUPAC_NAME>
(1R,3aS,5aR,5bR,7aR,9R,10R,11aR,11bR,13aR,13bR)-9,10-dihydroxy-5a,5b,8,8,11a-pentamethyl-1-prop-1-en-2-yl-1,2,3,4,5,6,7,7a,9,10,11,11b,12,13,13a,13b-hexadecahydrocyclopenta[a]chrysene-3a-carboxylic acid

> <PUBCHEM_IUPAC_SYSTEMATIC_NAME>
(1R,3aS,5aR,5bR,7aR,9R,10R,11aR,11bR,13aR,13bR)-5a,5b,8,8,11a-pentamethyl-9,10-bis(oxidanyl)-1-prop-1-en-2-yl-1,2,3,4,5,6,7,7a,9,10,11,11b,12,13,13a,13b-hexadecahydrocyclopenta[a]chrysene-3a-carboxylic acid

> <PUBCHEM_IUPAC_TRADITIONAL_NAME>
(1R,3aS,5aR,5bR,7aR,9R,10R,11aR,11bR,13aR,13bR)-9,10-dihydroxy-1-isopropenyl-5a,5b,8,8,11a-pentamethyl-1,2,3,4,5,6,7,7a,9,10,11,11b,12,13,13a,13b-hexadecahydrocyclopenta[a]chrysene-3a-carboxylic acid

> <PUBCHEM_IUPAC_INCHI>
InChI=1S/C30H48O4/c1-17(2)18-10-13-30(25(33)34)15-14-28(6)19(23(18)30)8-9-22-27(5)16-20(31)24(32)26(3,4)21(27)11-12-29(22,28)7/h18-24,31-32H,1,8-16H2,2-7H3,(H,33,34)/t18-,19+,20+,21-,22+,23+,24-,27-,28+,29+,30-/m0/s1

> <PUBCHEM_IUPAC_INCHIKEY>
PFCVZKFJHRCLCC-PGOIBATFSA-N

> <PUBCHEM_XLOGP3_AA>
7.2

> <PUBCHEM_EXACT_MASS>
472.35526

> <PUBCHEM_MOLECULAR_FORMULA>
C30H48O4

> <PUBCHEM_MOLECULAR_WEIGHT>
472.69972

> <PUBCHEM_OPENEYE_CAN_SMILES>
CC(=C)C1CCC2(C1C3CCC4C(C3(CC2)C)(CCC5C4(CC(C(C5(C)C)O)O)C)C)C(=O)O

> <PUBCHEM_OPENEYE_ISO_SMILES>
CC(=C)[C@@H]1CC[C@]2([C@H]1[C@H]3CC[C@H]4[C@]([C@@]3(CC2)C)(CC[C@@H]5[C@@]4(C[C@H]([C@@H](C5(C)C)O)O)C)C)C(=O)O

> <PUBCHEM_CACTVS_TPSA>
77.8

> <PUBCHEM_MONOISOTOPIC_WEIGHT>
472.35526

> <PUBCHEM_TOTAL_CHARGE>
0

> <PUBCHEM_HEAVY_ATOM_COUNT>
34

> <PUBCHEM_ATOM_DEF_STEREO_COUNT>
11

> <PUBCHEM_ATOM_UDEF_STEREO_COUNT>
0

> <PUBCHEM_BOND_DEF_STEREO_COUNT>
0

> <PUBCHEM_BOND_UDEF_STEREO_COUNT>
0

> <PUBCHEM_ISOTOPIC_ATOM_COUNT>
0

> <PUBCHEM_COMPONENT_COUNT>
1

> <PUBCHEM_CACTVS_TAUTO_COUNT>
1

> <PUBCHEM_COORDINATE_TYPE>
1
5
255

> <PUBCHEM_BONDANNOTATIONS>
27  1  5
10  37  6
11  38  6
12  29  5
28  2  6
20  32  6
5  22  5
6  23  6
7  35  6
8  36  5
9  25  5

$$$$

