46173977
  -OEChem-07051213102D

 74 78  0     1  0  0  0  0  0999 V2000
    6.5862   -1.9676    0.0000 O   0  0  0  0  0  0  0  0  0  0  0  0
   12.0791   -2.0699    0.0000 O   0  0  0  0  0  0  0  0  0  0  0  0
    8.3074   -2.4288    0.0000 O   0  0  0  0  0  0  0  0  0  0  0  0
   10.2669   -3.2651    0.0000 O   0  0  0  0  0  0  0  0  0  0  0  0
   11.7220    1.2344    0.0000 O   0  0  0  0  0  0  0  0  0  0  0  0
    4.2294    3.1941    0.0000 O   0  0  0  0  0  0  0  0  0  0  0  0
   15.6628   -2.9972    0.0000 O   0  0  0  0  0  0  0  0  0  0  0  0
    2.7431    1.8558    0.0000 O   0  0  0  0  0  0  0  0  0  0  0  0
   16.6628   -1.2651    0.0000 O   0  0  0  0  0  0  0  0  0  0  0  0
    7.6688   -0.7651    0.0000 C   0  0  1  0  0  0  0  0  0  0  0  0
    6.7553   -0.3584    0.0000 C   0  0  2  0  0  0  0  0  0  0  0  0
    8.5348   -0.2651    0.0000 C   0  0  0  0  0  0  0  0  0  0  0  0
   12.0791   -0.4604    0.0000 C   0  0  1  0  0  0  0  0  0  0  0  0
    6.0862   -1.1015    0.0000 C   0  0  0  0  0  0  0  0  0  0  0  0
    6.5474    0.6198    0.0000 C   0  0  0  0  0  0  0  0  0  0  0  0
   11.1329   -0.7651    0.0000 C   0  0  0  0  0  0  0  0  0  0  0  0
   12.6628   -1.2651    0.0000 C   0  0  1  0  0  0  0  0  0  0  0  0
    9.4009   -0.7651    0.0000 C   0  0  0  0  0  0  0  0  0  0  0  0
    7.5643   -1.7597    0.0000 C   0  0  0  0  0  0  0  0  0  0  0  0
   11.1329   -1.7651    0.0000 C   0  0  0  0  0  0  0  0  0  0  0  0
   10.2669   -0.2651    0.0000 C   0  0  0  0  0  0  0  0  0  0  0  0
   12.3898    0.4901    0.0000 C   0  0  0  0  0  0  0  0  0  0  0  0
    9.4009   -1.7651    0.0000 C   0  0  0  0  0  0  0  0  0  0  0  0
   10.2669   -2.2651    0.0000 C   0  0  0  0  0  0  0  0  0  0  0  0
    5.5963    0.9288    0.0000 C   0  0  0  0  0  0  0  0  0  0  0  0
   13.6628   -1.2651    0.0000 C   0  0  0  0  0  0  0  0  0  0  0  0
    5.3884    1.9069    0.0000 C   0  0  0  0  0  0  0  0  0  0  0  0
    4.8532    0.2596    0.0000 C   0  0  0  0  0  0  0  0  0  0  0  0
   14.1628   -2.1312    0.0000 C   0  0  0  0  0  0  0  0  0  0  0  0
   14.1628   -0.3991    0.0000 C   0  0  0  0  0  0  0  0  0  0  0  0
    4.4374    2.2159    0.0000 C   0  0  0  0  0  0  0  0  0  0  0  0
   15.1628   -2.1312    0.0000 C   0  0  0  0  0  0  0  0  0  0  0  0
    3.9021    0.5687    0.0000 C   0  0  0  0  0  0  0  0  0  0  0  0
   15.1628   -0.3991    0.0000 C   0  0  0  0  0  0  0  0  0  0  0  0
    3.6942    1.5468    0.0000 C   0  0  0  0  0  0  0  0  0  0  0  0
   15.6628   -1.2651    0.0000 C   0  0  0  0  0  0  0  0  0  0  0  0
    9.4009   -3.7651    0.0000 C   0  0  0  0  0  0  0  0  0  0  0  0
    4.9726    3.8632    0.0000 C   0  0  0  0  0  0  0  0  0  0  0  0
   15.1628   -3.8632    0.0000 C   0  0  0  0  0  0  0  0  0  0  0  0
    2.0000    1.1867    0.0000 C   0  0  0  0  0  0  0  0  0  0  0  0
    8.1888   -1.1028    0.0000 H   0  0  0  0  0  0  0  0  0  0  0  0
    6.1564   -0.1979    0.0000 H   0  0  0  0  0  0  0  0  0  0  0  0
    8.9334    0.2098    0.0000 H   0  0  0  0  0  0  0  0  0  0  0  0
    8.1363    0.2098    0.0000 H   0  0  0  0  0  0  0  0  0  0  0  0
   11.6417   -0.0210    0.0000 H   0  0  0  0  0  0  0  0  0  0  0  0
    5.6713   -0.6408    0.0000 H   0  0  0  0  0  0  0  0  0  0  0  0
    5.5846   -1.4660    0.0000 H   0  0  0  0  0  0  0  0  0  0  0  0
    7.1670    0.6414    0.0000 H   0  0  0  0  0  0  0  0  0  0  0  0
    6.6337    1.2337    0.0000 H   0  0  0  0  0  0  0  0  0  0  0  0
   12.9445   -0.7128    0.0000 H   0  0  0  0  0  0  0  0  0  0  0  0
   10.2669    0.3549    0.0000 H   0  0  0  0  0  0  0  0  0  0  0  0
   12.9367    0.1981    0.0000 H   0  0  0  0  0  0  0  0  0  0  0  0
   12.7724    0.9780    0.0000 H   0  0  0  0  0  0  0  0  0  0  0  0
    8.8639   -2.0751    0.0000 H   0  0  0  0  0  0  0  0  0  0  0  0
    5.8492    2.3218    0.0000 H   0  0  0  0  0  0  0  0  0  0  0  0
    4.9821   -0.3468    0.0000 H   0  0  0  0  0  0  0  0  0  0  0  0
   13.8528   -2.6681    0.0000 H   0  0  0  0  0  0  0  0  0  0  0  0
   13.8528    0.1378    0.0000 H   0  0  0  0  0  0  0  0  0  0  0  0
   11.9146    1.8237    0.0000 H   0  0  0  0  0  0  0  0  0  0  0  0
    3.4414    0.1538    0.0000 H   0  0  0  0  0  0  0  0  0  0  0  0
   15.4728    0.1378    0.0000 H   0  0  0  0  0  0  0  0  0  0  0  0
    9.0909   -3.2282    0.0000 H   0  0  0  0  0  0  0  0  0  0  0  0
    8.8639   -4.0751    0.0000 H   0  0  0  0  0  0  0  0  0  0  0  0
    9.7109   -4.3021    0.0000 H   0  0  0  0  0  0  0  0  0  0  0  0
   16.9728   -0.7282    0.0000 H   0  0  0  0  0  0  0  0  0  0  0  0
    5.3874    3.4025    0.0000 H   0  0  0  0  0  0  0  0  0  0  0  0
    5.4333    4.2781    0.0000 H   0  0  0  0  0  0  0  0  0  0  0  0
    4.5577    4.3240    0.0000 H   0  0  0  0  0  0  0  0  0  0  0  0
   14.6258   -3.5532    0.0000 H   0  0  0  0  0  0  0  0  0  0  0  0
   14.8528   -4.4002    0.0000 H   0  0  0  0  0  0  0  0  0  0  0  0
   15.6997   -4.1732    0.0000 H   0  0  0  0  0  0  0  0  0  0  0  0
    1.5851    1.6474    0.0000 H   0  0  0  0  0  0  0  0  0  0  0  0
    1.5392    0.7718    0.0000 H   0  0  0  0  0  0  0  0  0  0  0  0
    2.4149    0.7259    0.0000 H   0  0  0  0  0  0  0  0  0  0  0  0
  1 14  1  0  0  0  0
  1 19  1  0  0  0  0
  2 17  1  0  0  0  0
  2 20  1  0  0  0  0
  3 19  2  0  0  0  0
  4 24  1  0  0  0  0
  4 37  1  0  0  0  0
  5 22  1  0  0  0  0
  5 59  1  0  0  0  0
  6 31  1  0  0  0  0
  6 38  1  0  0  0  0
  7 32  1  0  0  0  0
  7 39  1  0  0  0  0
  8 35  1  0  0  0  0
  8 40  1  0  0  0  0
  9 36  1  0  0  0  0
  9 65  1  0  0  0  0
 10 11  1  0  0  0  0
 10 12  1  1  0  0  0
 10 19  1  0  0  0  0
 10 41  1  0  0  0  0
 11 14  1  0  0  0  0
 11 15  1  6  0  0  0
 11 42  1  0  0  0  0
 12 18  1  0  0  0  0
 12 43  1  0  0  0  0
 12 44  1  0  0  0  0
 13 16  1  0  0  0  0
 13 17  1  0  0  0  0
 13 22  1  6  0  0  0
 13 45  1  0  0  0  0
 14 46  1  0  0  0  0
 14 47  1  0  0  0  0
 15 25  1  0  0  0  0
 15 48  1  0  0  0  0
 15 49  1  0  0  0  0
 16 20  2  0  0  0  0
 16 21  1  0  0  0  0
 17 26  1  1  0  0  0
 17 50  1  0  0  0  0
 18 21  2  0  0  0  0
 18 23  1  0  0  0  0
 20 24  1  0  0  0  0
 21 51  1  0  0  0  0
 22 52  1  0  0  0  0
 22 53  1  0  0  0  0
 23 24  2  0  0  0  0
 23 54  1  0  0  0  0
 25 27  2  0  0  0  0
 25 28  1  0  0  0  0
 26 29  2  0  0  0  0
 26 30  1  0  0  0  0
 27 31  1  0  0  0  0
 27 55  1  0  0  0  0
 28 33  2  0  0  0  0
 28 56  1  0  0  0  0
 29 32  1  0  0  0  0
 29 57  1  0  0  0  0
 30 34  2  0  0  0  0
 30 58  1  0  0  0  0
 31 35  2  0  0  0  0
 32 36  2  0  0  0  0
 33 35  1  0  0  0  0
 33 60  1  0  0  0  0
 34 36  1  0  0  0  0
 34 61  1  0  0  0  0
 37 62  1  0  0  0  0
 37 63  1  0  0  0  0
 37 64  1  0  0  0  0
 38 66  1  0  0  0  0
 38 67  1  0  0  0  0
 38 68  1  0  0  0  0
 39 69  1  0  0  0  0
 39 70  1  0  0  0  0
 39 71  1  0  0  0  0
 40 72  1  0  0  0  0
 40 73  1  0  0  0  0
 40 74  1  0  0  0  0
M  END
> <PUBCHEM_COMPOUND_CID>
46173977

> <PUBCHEM_COMPOUND_CANONICALIZED>
1

> <PUBCHEM_CACTVS_COMPLEXITY>
825

> <PUBCHEM_CACTVS_HBOND_ACCEPTOR>
9

> <PUBCHEM_CACTVS_HBOND_DONOR>
2

> <PUBCHEM_CACTVS_ROTATABLE_BOND>
10

> <PUBCHEM_CACTVS_SUBSKEYS>
AAADcfB4PAAAAAAAAAAAAAAAAAAAASJAAAAwYMAAAAAAAEgBUAAAGgAACAAADRSgmAIyDoAABgCIAiDSCAACCAAgIAAIiAEGiIgNNjKGMRqCeCOlwBELuAfK6PyOoAADAAAIQABAAAYAABCAAAAAAAAAAA==

> <PUBCHEM_IUPAC_OPENEYE_NAME>
(3R,4R)-4-[(3,4-dimethoxyphenyl)methyl]-3-[[(2S,3R)-2-(4-hydroxy-3-methoxy-phenyl)-3-(hydroxymethyl)-7-methoxy-2,3-dihydrobenzofuran-5-yl]methyl]tetrahydrofuran-2-one

> <PUBCHEM_IUPAC_CAS_NAME>
(3R,4R)-4-[(3,4-dimethoxyphenyl)methyl]-3-[[(2S,3R)-2-(4-hydroxy-3-methoxyphenyl)-3-(hydroxymethyl)-7-methoxy-2,3-dihydrobenzofuran-5-yl]methyl]-2-oxolanone

> <PUBCHEM_IUPAC_NAME>
(3R,4R)-4-[(3,4-dimethoxyphenyl)methyl]-3-[[(2S,3R)-2-(4-hydroxy-3-methoxyphenyl)-3-(hydroxymethyl)-7-methoxy-2,3-dihydro-1-benzofuran-5-yl]methyl]oxolan-2-one

> <PUBCHEM_IUPAC_SYSTEMATIC_NAME>
(3R,4R)-4-[(3,4-dimethoxyphenyl)methyl]-3-[[(2S,3R)-3-(hydroxymethyl)-7-methoxy-2-(3-methoxy-4-oxidanyl-phenyl)-2,3-dihydro-1-benzofuran-5-yl]methyl]oxolan-2-one

> <PUBCHEM_IUPAC_TRADITIONAL_NAME>
(3R,4R)-3-[[(2S,3R)-2-(4-hydroxy-3-methoxy-phenyl)-7-methoxy-3-methylol-coumaran-5-yl]methyl]-4-veratryl-tetrahydrofuran-2-one

> <PUBCHEM_IUPAC_INCHI>
InChI=1S/C31H34O9/c1-35-25-8-5-17(12-27(25)37-3)9-20-16-39-31(34)21(20)10-18-11-22-23(15-32)29(40-30(22)28(13-18)38-4)19-6-7-24(33)26(14-19)36-2/h5-8,11-14,20-21,23,29,32-33H,9-10,15-16H2,1-4H3/t20-,21+,23-,29+/m0/s1

> <PUBCHEM_IUPAC_INCHIKEY>
KNSPNZVXPUCWMJ-WHNHDLKRSA-N

> <PUBCHEM_XLOGP3_AA>
4.2

> <PUBCHEM_EXACT_MASS>
550.220283

> <PUBCHEM_MOLECULAR_FORMULA>
C31H34O9

> <PUBCHEM_MOLECULAR_WEIGHT>
550.59626

> <PUBCHEM_OPENEYE_CAN_SMILES>
COC1=C(C=C(C=C1)CC2COC(=O)C2CC3=CC(=C4C(=C3)C(C(O4)C5=CC(=C(C=C5)O)OC)CO)OC)OC

> <PUBCHEM_OPENEYE_ISO_SMILES>
COC1=C(C=C(C=C1)C[C@H]2COC(=O)[C@@H]2CC3=CC(=C4C(=C3)[C@@H]([C@H](O4)C5=CC(=C(C=C5)O)OC)CO)OC)OC

> <PUBCHEM_CACTVS_TPSA>
113

> <PUBCHEM_MONOISOTOPIC_WEIGHT>
550.220283

> <PUBCHEM_TOTAL_CHARGE>
0

> <PUBCHEM_HEAVY_ATOM_COUNT>
40

> <PUBCHEM_ATOM_DEF_STEREO_COUNT>
4

> <PUBCHEM_ATOM_UDEF_STEREO_COUNT>
0

> <PUBCHEM_BOND_DEF_STEREO_COUNT>
0

> <PUBCHEM_BOND_UDEF_STEREO_COUNT>
0

> <PUBCHEM_ISOTOPIC_ATOM_COUNT>
0

> <PUBCHEM_COMPONENT_COUNT>
1

> <PUBCHEM_CACTVS_TAUTO_COUNT>
6

> <PUBCHEM_COORDINATE_TYPE>
1
5
255

> <PUBCHEM_BONDANNOTATIONS>
10  12  5
11  15  6
13  22  6
16  20  8
16  21  8
17  26  5
18  21  8
18  23  8
20  24  8
23  24  8
25  27  8
25  28  8
26  29  8
26  30  8
27  31  8
28  33  8
29  32  8
30  34  8
31  35  8
32  36  8
33  35  8
34  36  8

$$$$

