440199
  -OEChem-07051212492D

 45 45  0     1  0  0  0  0  0999 V2000
    7.1962    0.8840    0.0000 O   0  0  0  0  0  0  0  0  0  0  0  0
    9.7942   -0.6160    0.0000 O   0  0  0  0  0  0  0  0  0  0  0  0
    6.3301   -1.6160    0.0000 O   0  0  0  0  0  0  0  0  0  0  0  0
    7.5622    2.2500    0.0000 O   0  0  0  0  0  0  0  0  0  0  0  0
    5.4641    0.8840    0.0000 O   0  0  0  0  0  0  0  0  0  0  0  0
    9.5622    2.2500    0.0000 O   0  0  0  0  0  0  0  0  0  0  0  0
    3.7320   -0.1160    0.0000 O   0  0  0  0  0  0  0  0  0  0  0  0
    8.0622    3.1160    0.0000 O   0  0  0  0  0  0  0  0  0  0  0  0
    9.7942   -1.6160    0.0000 O   0  0  0  0  0  0  0  0  0  0  0  0
    2.8660   -1.6160    0.0000 O   0  0  0  0  0  0  0  0  0  0  0  0
    8.0622   -1.6160    0.0000 N   0  0  0  0  0  0  0  0  0  0  0  0
    8.0622   -0.6160    0.0000 C   0  0  1  0  0  0  0  0  0  0  0  0
    7.1962   -0.1160    0.0000 C   0  0  2  0  0  0  0  0  0  0  0  0
    8.9282   -0.1160    0.0000 C   0  0  2  0  0  0  0  0  0  0  0  0
    8.9282    0.8840    0.0000 C   0  0  0  0  0  0  0  0  0  0  0  0
    6.3301   -0.6160    0.0000 C   0  0  3  0  0  0  0  0  0  0  0  0
    8.0622    1.3840    0.0000 C   0  0  1  0  0  0  0  0  0  0  0  0
    5.4641   -0.1160    0.0000 C   0  0  3  0  0  0  0  0  0  0  0  0
    8.5622    2.2500    0.0000 C   0  0  0  0  0  0  0  0  0  0  0  0
    4.5981   -0.6160    0.0000 C   0  0  0  0  0  0  0  0  0  0  0  0
    8.9282   -2.1160    0.0000 C   0  0  0  0  0  0  0  0  0  0  0  0
    8.9282   -3.1160    0.0000 C   0  0  0  0  0  0  0  0  0  0  0  0
    2.8660   -0.6160    0.0000 C   0  0  0  0  0  0  0  0  0  0  0  0
    2.0000   -0.1160    0.0000 C   0  0  0  0  0  0  0  0  0  0  0  0
    7.5252   -0.9260    0.0000 H   0  0  0  0  0  0  0  0  0  0  0  0
    6.6592    0.1940    0.0000 H   0  0  0  0  0  0  0  0  0  0  0  0
    9.4651    0.1940    0.0000 H   0  0  0  0  0  0  0  0  0  0  0  0
    9.5388    0.7763    0.0000 H   0  0  0  0  0  0  0  0  0  0  0  0
    9.1403    1.4666    0.0000 H   0  0  0  0  0  0  0  0  0  0  0  0
    7.0662   -1.0410    0.0000 H   0  0  0  0  0  0  0  0  0  0  0  0
    6.2002    0.3090    0.0000 H   0  0  0  0  0  0  0  0  0  0  0  0
    7.5252   -1.9260    0.0000 H   0  0  0  0  0  0  0  0  0  0  0  0
   10.3312   -0.3060    0.0000 H   0  0  0  0  0  0  0  0  0  0  0  0
    4.1996   -1.0910    0.0000 H   0  0  0  0  0  0  0  0  0  0  0  0
    4.9966   -1.0910    0.0000 H   0  0  0  0  0  0  0  0  0  0  0  0
    5.7932   -1.9260    0.0000 H   0  0  0  0  0  0  0  0  0  0  0  0
    6.9422    2.2500    0.0000 H   0  0  0  0  0  0  0  0  0  0  0  0
    4.9272    1.1940    0.0000 H   0  0  0  0  0  0  0  0  0  0  0  0
    8.3082   -3.1160    0.0000 H   0  0  0  0  0  0  0  0  0  0  0  0
    8.9282   -3.7360    0.0000 H   0  0  0  0  0  0  0  0  0  0  0  0
    9.5482   -3.1160    0.0000 H   0  0  0  0  0  0  0  0  0  0  0  0
    9.8722    2.7869    0.0000 H   0  0  0  0  0  0  0  0  0  0  0  0
    2.3100    0.4209    0.0000 H   0  0  0  0  0  0  0  0  0  0  0  0
    1.4631    0.1940    0.0000 H   0  0  0  0  0  0  0  0  0  0  0  0
    1.6900   -0.6530    0.0000 H   0  0  0  0  0  0  0  0  0  0  0  0
  1 13  1  0  0  0  0
  1 17  1  0  0  0  0
 14  2  1  6  0  0  0
  2 33  1  0  0  0  0
  3 16  1  0  0  0  0
  3 36  1  0  0  0  0
 17  4  1  1  0  0  0
  4 37  1  0  0  0  0
  5 18  1  0  0  0  0
  5 38  1  0  0  0  0
  6 19  1  0  0  0  0
  6 42  1  0  0  0  0
  7 20  1  0  0  0  0
  7 23  1  0  0  0  0
  8 19  2  0  0  0  0
  9 21  2  0  0  0  0
 10 23  2  0  0  0  0
 12 11  1  1  0  0  0
 11 21  1  0  0  0  0
 11 32  1  0  0  0  0
 12 13  1  0  0  0  0
 12 14  1  0  0  0  0
 12 25  1  0  0  0  0
 13 16  1  6  0  0  0
 13 26  1  0  0  0  0
 14 15  1  0  0  0  0
 14 27  1  0  0  0  0
 15 17  1  0  0  0  0
 15 28  1  0  0  0  0
 15 29  1  0  0  0  0
 16 18  1  0  0  0  0
 16 30  1  0  0  0  0
 17 19  1  0  0  0  0
 18 20  1  0  0  0  0
 18 31  1  0  0  0  0
 20 34  1  0  0  0  0
 20 35  1  0  0  0  0
 21 22  1  0  0  0  0
 22 39  1  0  0  0  0
 22 40  1  0  0  0  0
 22 41  1  0  0  0  0
 23 24  1  0  0  0  0
 24 43  1  0  0  0  0
 24 44  1  0  0  0  0
 24 45  1  0  0  0  0
M  END
> <PUBCHEM_COMPOUND_CID>
440199

> <PUBCHEM_COMPOUND_CANONICALIZED>
1

> <PUBCHEM_CACTVS_COMPLEXITY>
497

> <PUBCHEM_CACTVS_HBOND_ACCEPTOR>
10

> <PUBCHEM_CACTVS_HBOND_DONOR>
6

> <PUBCHEM_CACTVS_ROTATABLE_BOND>
7

> <PUBCHEM_CACTVS_SUBSKEYS>
AAADceByPAAAAAAAAAAAAAAAAAAAAAAAAAAkAAAAAAAAAAAAAAAAHgAQCAAACDzhgAYCCALABgAIAAGQGAIAAAAAAAAAAIFIAAATEBIAgAQHQAAHFgCXAAH6+aeQAAAAAAAAAAAAAAAAAAAAAAAAAAAAAA==

> <PUBCHEM_IUPAC_OPENEYE_NAME>
(2S,4S,5R,6R)-5-acetamido-6-(3-acetoxy-1,2-dihydroxy-propyl)-2,4-dihydroxy-tetrahydropyran-2-carboxylic acid

> <PUBCHEM_IUPAC_CAS_NAME>
(2S,4S,5R,6R)-5-acetamido-6-(3-acetyloxy-1,2-dihydroxypropyl)-2,4-dihydroxy-2-oxanecarboxylic acid

> <PUBCHEM_IUPAC_NAME>
(2S,4S,5R,6R)-5-acetamido-6-(3-acetyloxy-1,2-dihydroxypropyl)-2,4-dihydroxyoxane-2-carboxylic acid

> <PUBCHEM_IUPAC_SYSTEMATIC_NAME>
(2S,4S,5R,6R)-5-acetamido-6-[3-acetyloxy-1,2-bis(oxidanyl)propyl]-2,4-bis(oxidanyl)oxane-2-carboxylic acid

> <PUBCHEM_IUPAC_TRADITIONAL_NAME>
(2S,4S,5R,6R)-5-acetamido-6-(3-acetoxy-1,2-dihydroxy-propyl)-2,4-dihydroxy-tetrahydropyran-2-carboxylic acid

> <PUBCHEM_IUPAC_INCHI>
InChI=1S/C13H21NO10/c1-5(15)14-9-7(17)3-13(22,12(20)21)24-11(9)10(19)8(18)4-23-6(2)16/h7-11,17-19,22H,3-4H2,1-2H3,(H,14,15)(H,20,21)/t7-,8?,9+,10?,11+,13-/m0/s1

> <PUBCHEM_IUPAC_INCHIKEY>
NYWZBRWKDRMPAS-ZXQYLZRESA-N

> <PUBCHEM_XLOGP3_AA>
-2.9

> <PUBCHEM_EXACT_MASS>
351.116546

> <PUBCHEM_MOLECULAR_FORMULA>
C13H21NO10

> <PUBCHEM_MOLECULAR_WEIGHT>
351.30654

> <PUBCHEM_OPENEYE_CAN_SMILES>
CC(=O)NC1C(CC(OC1C(C(COC(=O)C)O)O)(C(=O)O)O)O

> <PUBCHEM_OPENEYE_ISO_SMILES>
CC(=O)N[C@@H]1[C@H](C[C@](O[C@H]1C(C(COC(=O)C)O)O)(C(=O)O)O)O

> <PUBCHEM_CACTVS_TPSA>
183

> <PUBCHEM_MONOISOTOPIC_WEIGHT>
351.116546

> <PUBCHEM_TOTAL_CHARGE>
0

> <PUBCHEM_HEAVY_ATOM_COUNT>
24

> <PUBCHEM_ATOM_DEF_STEREO_COUNT>
4

> <PUBCHEM_ATOM_UDEF_STEREO_COUNT>
2

> <PUBCHEM_BOND_DEF_STEREO_COUNT>
0

> <PUBCHEM_BOND_UDEF_STEREO_COUNT>
0

> <PUBCHEM_ISOTOPIC_ATOM_COUNT>
0

> <PUBCHEM_COMPONENT_COUNT>
1

> <PUBCHEM_CACTVS_TAUTO_COUNT>
2

> <PUBCHEM_COORDINATE_TYPE>
1
5
255

> <PUBCHEM_BONDANNOTATIONS>
12  11  5
13  16  6
16  30  3
18  31  3
14  2  6
17  4  5

$$$$

