13821
  -OEChem-06241222402D

 26 24  0     0  0  0  0  0  0999 V2000
    3.6942    0.3613    0.0000 Sn  0  0  0  0  0  0  0  0  0  0  0  0
    3.6942    1.3613    0.0000 O   0  0  0  0  0  0  0  0  0  0  0  0
    3.1064   -0.4477    0.0000 C   0  0  0  0  0  0  0  0  0  0  0  0
    4.2820   -0.4477    0.0000 C   0  0  0  0  0  0  0  0  0  0  0  0
    2.7431    0.6703    0.0000 C   0  0  0  0  0  0  0  0  0  0  0  0
    3.5132   -1.3613    0.0000 C   0  0  0  0  0  0  0  0  0  0  0  0
    5.2765   -0.3432    0.0000 C   0  0  0  0  0  0  0  0  0  0  0  0
    2.0000    0.0012    0.0000 C   0  0  0  0  0  0  0  0  0  0  0  0
    4.2839    0.5529    0.0000 H   0  0  0  0  0  0  0  0  0  0  0  0
    2.5924   -0.7944    0.0000 H   0  0  0  0  0  0  0  0  0  0  0  0
    2.6757   -0.0017    0.0000 H   0  0  0  0  0  0  0  0  0  0  0  0
    4.4529   -1.0437    0.0000 H   0  0  0  0  0  0  0  0  0  0  0  0
    3.7247   -0.7195    0.0000 H   0  0  0  0  0  0  0  0  0  0  0  0
    2.2546    1.0520    0.0000 H   0  0  0  0  0  0  0  0  0  0  0  0
    3.0342    1.2177    0.0000 H   0  0  0  0  0  0  0  0  0  0  0  0
    3.0742    1.3613    0.0000 H   0  0  0  0  0  0  0  0  0  0  0  0
    4.3142    1.3613    0.0000 H   0  0  0  0  0  0  0  0  0  0  0  0
    2.9468   -1.6135    0.0000 H   0  0  0  0  0  0  0  0  0  0  0  0
    3.7653   -1.9277    0.0000 H   0  0  0  0  0  0  0  0  0  0  0  0
    4.0796   -1.1091    0.0000 H   0  0  0  0  0  0  0  0  0  0  0  0
    5.3413   -0.9598    0.0000 H   0  0  0  0  0  0  0  0  0  0  0  0
    5.8931   -0.2784    0.0000 H   0  0  0  0  0  0  0  0  0  0  0  0
    5.2117    0.2734    0.0000 H   0  0  0  0  0  0  0  0  0  0  0  0
    1.5851    0.4619    0.0000 H   0  0  0  0  0  0  0  0  0  0  0  0
    1.5393   -0.4137    0.0000 H   0  0  0  0  0  0  0  0  0  0  0  0
    2.4149   -0.4596    0.0000 H   0  0  0  0  0  0  0  0  0  0  0  0
  1  3  1  0  0  0  0
  1  4  1  0  0  0  0
  1  5  1  0  0  0  0
  1  9  1  0  0  0  0
  2 16  1  0  0  0  0
  2 17  1  0  0  0  0
  3  6  1  0  0  0  0
  3 10  1  0  0  0  0
  3 11  1  0  0  0  0
  4  7  1  0  0  0  0
  4 12  1  0  0  0  0
  4 13  1  0  0  0  0
  5  8  1  0  0  0  0
  5 14  1  0  0  0  0
  5 15  1  0  0  0  0
  6 18  1  0  0  0  0
  6 19  1  0  0  0  0
  6 20  1  0  0  0  0
  7 21  1  0  0  0  0
  7 22  1  0  0  0  0
  7 23  1  0  0  0  0
  8 24  1  0  0  0  0
  8 25  1  0  0  0  0
  8 26  1  0  0  0  0
M  END
> <PUBCHEM_COMPOUND_CID>
13821

> <PUBCHEM_COMPOUND_CANONICALIZED>
1

> <PUBCHEM_CACTVS_COMPLEXITY>
30

> <PUBCHEM_CACTVS_HBOND_ACCEPTOR>
1

> <PUBCHEM_CACTVS_HBOND_DONOR>
1

> <PUBCHEM_CACTVS_ROTATABLE_BOND>
3

> <PUBCHEM_CACTVS_SUBSKEYS>
AAADceBgIAAAAAAAAACAAAAAAAAAAAAAAAAAAAAAAAAAAAAAAAAAGAAACAAAAACAAAACAAAAAAAAAAAAAAAAAAAAAAAAAAAAAAAAAAAAAAAAAAAAAAAAAAAAAAAAAAAAAAAAAAAAAAAAAAAAAAAAAAAAAA==

> <PUBCHEM_IUPAC_OPENEYE_NAME>
triethylstannane hydrate

> <PUBCHEM_IUPAC_CAS_NAME>
triethylstannane hydrate

> <PUBCHEM_IUPAC_NAME>
triethylstannane hydrate

> <PUBCHEM_IUPAC_SYSTEMATIC_NAME>
triethylstannane hydrate

> <PUBCHEM_IUPAC_TRADITIONAL_NAME>
triethylstannane hydrate

> <PUBCHEM_IUPAC_INCHI>
InChI=1S/3C2H5.H2O.Sn.H/c3*1-2;;;/h3*1H2,2H3;1H2;;

> <PUBCHEM_IUPAC_INCHIKEY>
XFQGDKGLLZXTLG-UHFFFAOYSA-N

> <PUBCHEM_EXACT_MASS>
226.03796

> <PUBCHEM_MOLECULAR_FORMULA>
C6H18OSn

> <PUBCHEM_MOLECULAR_WEIGHT>
224.91652

> <PUBCHEM_OPENEYE_CAN_SMILES>
CC[SnH](CC)CC.O

> <PUBCHEM_OPENEYE_ISO_SMILES>
CC[SnH](CC)CC.O

> <PUBCHEM_CACTVS_TPSA>
1

> <PUBCHEM_MONOISOTOPIC_WEIGHT>
226.03796

> <PUBCHEM_TOTAL_CHARGE>
0

> <PUBCHEM_HEAVY_ATOM_COUNT>
8

> <PUBCHEM_ATOM_DEF_STEREO_COUNT>
0

> <PUBCHEM_ATOM_UDEF_STEREO_COUNT>
0

> <PUBCHEM_BOND_DEF_STEREO_COUNT>
0

> <PUBCHEM_BOND_UDEF_STEREO_COUNT>
0

> <PUBCHEM_ISOTOPIC_ATOM_COUNT>
0

> <PUBCHEM_COMPONENT_COUNT>
2

> <PUBCHEM_CACTVS_TAUTO_COUNT>
1

> <PUBCHEM_NONSTANDARDBOND>
1  2  6

> <PUBCHEM_COORDINATE_TYPE>
1
5
255

> <PUBCHEM_BONDANNOTATIONS>
1  2  4

$$$$

