440990
  -OEChem-07051212513D

 38 40  0     1  0  0  0  0  0999 V2000
    3.7057    2.9267   -0.0121 O   0  0  0  0  0  0  0  0  0  0  0  0
    5.6894    0.9988   -0.2511 O   0  0  0  0  0  0  0  0  0  0  0  0
   -4.4219    2.4653    0.4480 O   0  0  0  0  0  0  0  0  0  0  0  0
   -6.0616    0.2234    0.3382 O   0  0  0  0  0  0  0  0  0  0  0  0
    0.0701   -1.9546    0.7906 N   0  0  0  0  0  0  0  0  0  0  0  0
    0.2553   -0.5436    0.4019 C   0  0  1  0  0  0  0  0  0  0  0  0
    1.7090   -0.1404    0.2357 C   0  0  0  0  0  0  0  0  0  0  0  0
    2.7163   -1.1141    0.1056 C   0  0  0  0  0  0  0  0  0  0  0  0
    2.3804   -2.5794    0.2029 C   0  0  0  0  0  0  0  0  0  0  0  0
   -0.5644   -0.2271   -0.8546 C   0  0  0  0  0  0  0  0  0  0  0  0
    0.8942   -2.8548   -0.0177 C   0  0  0  0  0  0  0  0  0  0  0  0
    2.0606    1.2176    0.1928 C   0  0  0  0  0  0  0  0  0  0  0  0
   -2.0267   -0.1035   -0.5373 C   0  0  0  0  0  0  0  0  0  0  0  0
    4.0515   -0.7170   -0.0511 C   0  0  0  0  0  0  0  0  0  0  0  0
    3.3910    1.6022    0.0264 C   0  0  0  0  0  0  0  0  0  0  0  0
    4.3854    0.6357   -0.0957 C   0  0  0  0  0  0  0  0  0  0  0  0
   -2.5522    1.1349   -0.1882 C   0  0  0  0  0  0  0  0  0  0  0  0
   -2.8399   -1.2292   -0.5947 C   0  0  0  0  0  0  0  0  0  0  0  0
   -3.9105    1.2494    0.1074 C   0  0  0  0  0  0  0  0  0  0  0  0
   -4.1982   -1.1149   -0.2990 C   0  0  0  0  0  0  0  0  0  0  0  0
   -4.7335    0.1246    0.0520 C   0  0  0  0  0  0  0  0  0  0  0  0
   -0.1279    0.0460    1.2463 H   0  0  0  0  0  0  0  0  0  0  0  0
    2.9593   -3.1461   -0.5360 H   0  0  0  0  0  0  0  0  0  0  0  0
    2.6751   -2.9309    1.1999 H   0  0  0  0  0  0  0  0  0  0  0  0
   -0.4121   -0.9623   -1.6546 H   0  0  0  0  0  0  0  0  0  0  0  0
   -0.2379    0.7207   -1.3048 H   0  0  0  0  0  0  0  0  0  0  0  0
    0.6413   -2.7785   -1.0810 H   0  0  0  0  0  0  0  0  0  0  0  0
    0.6809   -3.8893    0.2749 H   0  0  0  0  0  0  0  0  0  0  0  0
   -0.9068   -2.2290    0.7402 H   0  0  0  0  0  0  0  0  0  0  0  0
    1.2860    1.9752    0.2925 H   0  0  0  0  0  0  0  0  0  0  0  0
    4.8343   -1.4675   -0.1350 H   0  0  0  0  0  0  0  0  0  0  0  0
   -1.9143    2.0139   -0.1411 H   0  0  0  0  0  0  0  0  0  0  0  0
   -2.4418   -2.1980   -0.8829 H   0  0  0  0  0  0  0  0  0  0  0  0
   -4.8287   -1.9985   -0.3496 H   0  0  0  0  0  0  0  0  0  0  0  0
    2.8917    3.4495    0.0880 H   0  0  0  0  0  0  0  0  0  0  0  0
    5.7375    1.9706   -0.2582 H   0  0  0  0  0  0  0  0  0  0  0  0
   -5.3740    2.3597    0.6186 H   0  0  0  0  0  0  0  0  0  0  0  0
   -6.4712   -0.6541    0.2484 H   0  0  0  0  0  0  0  0  0  0  0  0
  1 15  1  0  0  0  0
  1 35  1  0  0  0  0
  2 16  1  0  0  0  0
  2 36  1  0  0  0  0
  3 19  1  0  0  0  0
  3 37  1  0  0  0  0
  4 21  1  0  0  0  0
  4 38  1  0  0  0  0
  5  6  1  0  0  0  0
  5 11  1  0  0  0  0
  5 29  1  0  0  0  0
  6  7  1  0  0  0  0
  6 10  1  0  0  0  0
  6 22  1  0  0  0  0
  7  8  1  0  0  0  0
  7 12  2  0  0  0  0
  8  9  1  0  0  0  0
  8 14  2  0  0  0  0
  9 11  1  0  0  0  0
  9 23  1  0  0  0  0
  9 24  1  0  0  0  0
 10 13  1  0  0  0  0
 10 25  1  0  0  0  0
 10 26  1  0  0  0  0
 11 27  1  0  0  0  0
 11 28  1  0  0  0  0
 12 15  1  0  0  0  0
 12 30  1  0  0  0  0
 13 17  2  0  0  0  0
 13 18  1  0  0  0  0
 14 16  1  0  0  0  0
 14 31  1  0  0  0  0
 15 16  2  0  0  0  0
 17 19  1  0  0  0  0
 17 32  1  0  0  0  0
 18 20  2  0  0  0  0
 18 33  1  0  0  0  0
 19 21  2  0  0  0  0
 20 21  1  0  0  0  0
 20 34  1  0  0  0  0
M  END
> <PUBCHEM_COMPOUND_CID>
440990

> <PUBCHEM_CONFORMER_RMSD>
0.6

> <PUBCHEM_CONFORMER_DIVERSEORDER>
1
3
10
12
4
5
7
14
11
2
8
9
6
13

> <PUBCHEM_MMFF94_PARTIAL_CHARGES>
31
1 -0.53
10 0.14
11 0.27
12 -0.15
13 -0.14
14 -0.15
15 0.08
16 0.08
17 -0.15
18 -0.15
19 0.08
2 -0.53
20 -0.15
21 0.08
29 0.36
3 -0.53
30 0.15
31 0.15
32 0.15
33 0.15
34 0.15
35 0.45
36 0.45
37 0.45
38 0.45
4 -0.53
5 -0.9
6 0.41
7 -0.14
8 -0.14
9 0.14

> <PUBCHEM_EFFECTIVE_ROTOR_COUNT>
2.8

> <PUBCHEM_PHARMACOPHORE_FEATURES>
9
1 1 donor
1 2 donor
1 3 donor
1 4 donor
1 5 cation
1 5 donor
6 13 17 18 19 20 21 rings
6 5 6 7 8 9 11 rings
6 7 8 12 14 15 16 rings

> <PUBCHEM_HEAVY_ATOM_COUNT>
21

> <PUBCHEM_ATOM_DEF_STEREO_COUNT>
1

> <PUBCHEM_ATOM_UDEF_STEREO_COUNT>
0

> <PUBCHEM_BOND_DEF_STEREO_COUNT>
0

> <PUBCHEM_BOND_UDEF_STEREO_COUNT>
0

> <PUBCHEM_ISOTOPIC_ATOM_COUNT>
0

> <PUBCHEM_COMPONENT_COUNT>
1

> <PUBCHEM_CACTVS_TAUTO_COUNT>
324

> <PUBCHEM_CONFORMER_ID>
0006BA9E00000001

> <PUBCHEM_MMFF94_ENERGY>
52.7739

> <PUBCHEM_FEATURE_SELFOVERLAP>
45.7

> <PUBCHEM_SHAPE_FINGERPRINT>
10411042 1 17834960046545971650
10616163 171 18336266756407162127
11796584 16 14851602176884047484
12107183 9 17760084421126343363
12236239 1 17967533479963279459
12644460 14 18059582420662209514
12730499 353 18341886390095294466
12788726 201 17096360804152381841
13009979 54 17462002373424422746
13167823 11 18335141998855676927
13544653 18 8069757324842891582
13760787 19 18187087243479945471
14341114 176 18411130364332475771
14341114 328 18334858324839697923
14528608 73 18410015412054638839
14790565 3 18339918221675105516
15196674 1 18410576222834706623
15239154 128 18408604777312110509
15788980 27 7565340946668013549
17834072 33 18408046208499676935
17844677 252 18335975484540886121
1813 80 16988554749515138989
18186145 218 18411708694416052254
19784866 9 18336270123539540386
20645477 70 18261392307793677238
21033648 29 16630263440627684677
21065198 48 18337392738139318627
21267235 1 18409160039358585007
21421861 104 17913776286665861906
21652331 79 18411139147488095453
21709351 56 18409458011009053622
23402539 116 18334019350317997372
23402655 69 18334296465829062398
23558518 356 17697039133270592242
23559900 14 18117845627374832015
245318 6 17342926049989047884
25 1 18411705383218020742
2637199 183 18410008823775390038
2916195 48 18041572317220334688
335352 9 18411698769548374150
3545911 37 18411136931158162317
4214541 1 18408886269579557621
474 4 18343019973629739244
5104073 3 18271804691899044955
543358 83 18336262465576103530
54446538 1 18408042900968904245
633830 44 18408045100007757246
77779 3 18409167731586827471
8272917 22 18335418014755069462
960060 61 6915978201208525784
9709674 26 18410570721446577671

> <PUBCHEM_SHAPE_MULTIPOLES>
403.71
11.59
2.68
0.72
5.83
0.21
-0.03
-5.29
0.18
-1.6
0.23
0.14
0.08
-0.54

> <PUBCHEM_SHAPE_SELFOVERLAP>
880.952

> <PUBCHEM_SHAPE_VOLUME>
218.3

> <PUBCHEM_COORDINATE_TYPE>
2
5
10

$$$$

