17395898
  -OEChem-06241222532D

 37 39  0     1  0  0  0  0  0999 V2000
    8.9282   -0.5173    0.0000 O   0  0  0  0  0  0  0  0  0  0  0  0
    8.9282    1.4827    0.0000 O   0  0  0  0  0  0  0  0  0  0  0  0
    5.4641   -1.5173    0.0000 O   0  0  0  0  0  0  0  0  0  0  0  0
    2.0000    1.4827    0.0000 O   0  0  0  0  0  0  0  0  0  0  0  0
    6.3301   -0.0173    0.0000 N   0  0  0  0  0  0  0  0  0  0  0  0
    2.8660   -0.0173    0.0000 N   0  0  0  0  0  0  0  0  0  0  0  0
    3.7320   -0.5173    0.0000 N   0  0  0  0  0  0  0  0  0  0  0  0
    8.0622   -0.0173    0.0000 C   0  0  3  0  0  0  0  0  0  0  0  0
    7.1962   -0.5173    0.0000 C   0  0  0  0  0  0  0  0  0  0  0  0
    8.0622    0.9827    0.0000 C   0  0  0  0  0  0  0  0  0  0  0  0
    9.7942   -0.0173    0.0000 C   0  0  0  0  0  0  0  0  0  0  0  0
    9.7942    0.9827    0.0000 C   0  0  0  0  0  0  0  0  0  0  0  0
   10.6882   -0.5520    0.0000 C   0  0  0  0  0  0  0  0  0  0  0  0
   10.6882    1.5173    0.0000 C   0  0  0  0  0  0  0  0  0  0  0  0
    5.4641   -0.5173    0.0000 C   0  0  0  0  0  0  0  0  0  0  0  0
   11.5942   -0.0381    0.0000 C   0  0  0  0  0  0  0  0  0  0  0  0
   11.5942    1.0035    0.0000 C   0  0  0  0  0  0  0  0  0  0  0  0
    4.5981   -0.0173    0.0000 C   0  0  0  0  0  0  0  0  0  0  0  0
    4.5981    0.9827    0.0000 C   0  0  0  0  0  0  0  0  0  0  0  0
    3.7320    1.4827    0.0000 C   0  0  0  0  0  0  0  0  0  0  0  0
    2.8660    0.9827    0.0000 C   0  0  0  0  0  0  0  0  0  0  0  0
    2.0000   -0.5173    0.0000 C   0  0  0  0  0  0  0  0  0  0  0  0
    8.0622   -0.6373    0.0000 H   0  0  0  0  0  0  0  0  0  0  0  0
    6.7976   -0.9923    0.0000 H   0  0  0  0  0  0  0  0  0  0  0  0
    7.5947   -0.9923    0.0000 H   0  0  0  0  0  0  0  0  0  0  0  0
    7.8501    1.5653    0.0000 H   0  0  0  0  0  0  0  0  0  0  0  0
    7.4516    0.8750    0.0000 H   0  0  0  0  0  0  0  0  0  0  0  0
    6.3301    0.6027    0.0000 H   0  0  0  0  0  0  0  0  0  0  0  0
   10.6810   -1.1720    0.0000 H   0  0  0  0  0  0  0  0  0  0  0  0
   10.6810    2.1373    0.0000 H   0  0  0  0  0  0  0  0  0  0  0  0
   12.1300   -0.3502    0.0000 H   0  0  0  0  0  0  0  0  0  0  0  0
   12.1300    1.3156    0.0000 H   0  0  0  0  0  0  0  0  0  0  0  0
    5.1350    1.2927    0.0000 H   0  0  0  0  0  0  0  0  0  0  0  0
    3.7320    2.1027    0.0000 H   0  0  0  0  0  0  0  0  0  0  0  0
    1.6900    0.0196    0.0000 H   0  0  0  0  0  0  0  0  0  0  0  0
    1.4631   -0.8273    0.0000 H   0  0  0  0  0  0  0  0  0  0  0  0
    2.3100   -1.0543    0.0000 H   0  0  0  0  0  0  0  0  0  0  0  0
  1  8  1  0  0  0  0
  1 11  1  0  0  0  0
  2 10  1  0  0  0  0
  2 12  1  0  0  0  0
  3 15  2  0  0  0  0
  4 21  2  0  0  0  0
  5  9  1  0  0  0  0
  5 15  1  0  0  0  0
  5 28  1  0  0  0  0
  6  7  1  0  0  0  0
  6 21  1  0  0  0  0
  6 22  1  0  0  0  0
  7 18  2  0  0  0  0
  8  9  1  0  0  0  0
  8 10  1  0  0  0  0
  8 23  1  0  0  0  0
  9 24  1  0  0  0  0
  9 25  1  0  0  0  0
 10 26  1  0  0  0  0
 10 27  1  0  0  0  0
 11 12  1  0  0  0  0
 11 13  2  0  0  0  0
 12 14  2  0  0  0  0
 13 16  1  0  0  0  0
 13 29  1  0  0  0  0
 14 17  1  0  0  0  0
 14 30  1  0  0  0  0
 15 18  1  0  0  0  0
 16 17  2  0  0  0  0
 16 31  1  0  0  0  0
 17 32  1  0  0  0  0
 18 19  1  0  0  0  0
 19 20  2  0  0  0  0
 19 33  1  0  0  0  0
 20 21  1  0  0  0  0
 20 34  1  0  0  0  0
 22 35  1  0  0  0  0
 22 36  1  0  0  0  0
 22 37  1  0  0  0  0
M  END
> <PUBCHEM_COMPOUND_CID>
17395898

> <PUBCHEM_COMPOUND_CANONICALIZED>
1

> <PUBCHEM_CACTVS_COMPLEXITY>
517

> <PUBCHEM_CACTVS_HBOND_ACCEPTOR>
5

> <PUBCHEM_CACTVS_HBOND_DONOR>
1

> <PUBCHEM_CACTVS_ROTATABLE_BOND>
3

> <PUBCHEM_CACTVS_SUBSKEYS>
AAADccBzOAAAAAAAAAAAAAAAAAAAAAAAAAA0QIAAAAAAAACRAAAAHgAYAAAACBzhkAYyBoLABACoASFyEACSCAAgIAAaiIEeiNgPJiKEMRqHOCKm3hGaqYeAQAAAAAAAAAAAQAAAAAAAAACAAAAAAAAAAA==

> <PUBCHEM_IUPAC_OPENEYE_NAME>
N-(2,3-dihydro-1,4-benzodioxin-3-ylmethyl)-1-methyl-6-oxo-pyridazine-3-carboxamide

> <PUBCHEM_IUPAC_CAS_NAME>
N-(2,3-dihydro-1,4-benzodioxin-3-ylmethyl)-1-methyl-6-oxo-3-pyridazinecarboxamide

> <PUBCHEM_IUPAC_NAME>
N-(2,3-dihydro-1,4-benzodioxin-3-ylmethyl)-1-methyl-6-oxopyridazine-3-carboxamide

> <PUBCHEM_IUPAC_SYSTEMATIC_NAME>
N-(2,3-dihydro-1,4-benzodioxin-3-ylmethyl)-1-methyl-6-oxidanylidene-pyridazine-3-carboxamide

> <PUBCHEM_IUPAC_TRADITIONAL_NAME>
N-(2,3-dihydro-1,4-benzodioxin-3-ylmethyl)-6-keto-1-methyl-pyridazine-3-carboxamide

> <PUBCHEM_IUPAC_INCHI>
InChI=1S/C15H15N3O4/c1-18-14(19)7-6-11(17-18)15(20)16-8-10-9-21-12-4-2-3-5-13(12)22-10/h2-7,10H,8-9H2,1H3,(H,16,20)

> <PUBCHEM_IUPAC_INCHIKEY>
LFQBBIRJLWSWMS-UHFFFAOYSA-N

> <PUBCHEM_XLOGP3_AA>
0.6

> <PUBCHEM_EXACT_MASS>
301.106256

> <PUBCHEM_MOLECULAR_FORMULA>
C15H15N3O4

> <PUBCHEM_MOLECULAR_WEIGHT>
301.2973

> <PUBCHEM_OPENEYE_CAN_SMILES>
CN1C(=O)C=CC(=N1)C(=O)NCC2COC3=CC=CC=C3O2

> <PUBCHEM_OPENEYE_ISO_SMILES>
CN1C(=O)C=CC(=N1)C(=O)NCC2COC3=CC=CC=C3O2

> <PUBCHEM_CACTVS_TPSA>
80.2

> <PUBCHEM_MONOISOTOPIC_WEIGHT>
301.106256

> <PUBCHEM_TOTAL_CHARGE>
0

> <PUBCHEM_HEAVY_ATOM_COUNT>
22

> <PUBCHEM_ATOM_DEF_STEREO_COUNT>
0

> <PUBCHEM_ATOM_UDEF_STEREO_COUNT>
1

> <PUBCHEM_BOND_DEF_STEREO_COUNT>
0

> <PUBCHEM_BOND_UDEF_STEREO_COUNT>
0

> <PUBCHEM_ISOTOPIC_ATOM_COUNT>
0

> <PUBCHEM_COMPONENT_COUNT>
1

> <PUBCHEM_CACTVS_TAUTO_COUNT>
2

> <PUBCHEM_COORDINATE_TYPE>
1
5
255

> <PUBCHEM_BONDANNOTATIONS>
11  12  8
11  13  8
12  14  8
13  16  8
14  17  8
16  17  8
18  19  8
19  20  8
20  21  8
6  21  8
6  7  8
7  18  8
8  9  3

$$$$

