441685
  -OEChem-07051212552D

 96102  0     1  0  0  0  0  0999 V2000
    8.8472    3.8894    0.0000 O   0  0  0  0  0  0  0  0  0  0  0  0
    5.2425   -2.2874    0.0000 O   0  0  0  0  0  0  0  0  0  0  0  0
    3.8795    2.0289    0.0000 O   0  0  0  0  0  0  0  0  0  0  0  0
    5.2455    2.6629    0.0000 O   0  0  0  0  0  0  0  0  0  0  0  0
    6.1049    3.2655    0.0000 O   0  0  0  0  0  0  0  0  0  0  0  0
    7.4955   -1.2434    0.0000 O   0  0  0  0  0  0  0  0  0  0  0  0
    2.0138   -3.1050    0.0000 O   0  0  0  0  0  0  0  0  0  0  0  0
    8.7756   -0.3612    0.0000 O   0  0  0  0  0  0  0  0  0  0  0  0
    4.1786   -4.1276    0.0000 O   0  0  0  0  0  0  0  0  0  0  0  0
    2.6892   -4.7819    0.0000 O   0  0  0  0  0  0  0  0  0  0  0  0
    6.9373   -1.9302    0.0000 O   0  0  0  0  0  0  0  0  0  0  0  0
    2.3795    1.1630    0.0000 O   0  0  0  0  0  0  0  0  0  0  0  0
    3.5134    2.6629    0.0000 O   0  0  0  0  0  0  0  0  0  0  0  0
    5.2101    4.7485    0.0000 O   0  0  0  0  0  0  0  0  0  0  0  0
    4.3795    0.1629    0.0000 C   0  0  1  0  0  0  0  0  0  0  0  0
    5.2455   -0.3371    0.0000 C   0  0  2  0  0  0  0  0  0  0  0  0
    6.1115    0.1629    0.0000 C   0  0  1  0  0  0  0  0  0  0  0  0
    3.6425   -0.5042    0.0000 C   0  0  2  0  0  0  0  0  0  0  0  0
    6.1115    1.1629    0.0000 C   0  0  1  0  0  0  0  0  0  0  0  0
    4.0476   -1.4120    0.0000 C   0  0  1  0  0  0  0  0  0  0  0  0
    7.0055    1.6976    0.0000 C   0  0  2  0  0  0  0  0  0  0  0  0
    5.0363   -1.3089    0.0000 C   0  0  2  0  0  0  0  0  0  0  0  0
    4.3795    1.1629    0.0000 C   0  0  2  0  0  0  0  0  0  0  0  0
    5.2455    1.6629    0.0000 C   0  0  1  0  0  0  0  0  0  0  0  0
    3.4527   -2.2595    0.0000 C   0  0  1  0  0  0  0  0  0  0  0  0
    7.9115    1.1837    0.0000 C   0  0  2  0  0  0  0  0  0  0  0  0
    7.0055   -0.3717    0.0000 C   0  0  2  0  0  0  0  0  0  0  0  0
    2.6144   -0.3810    0.0000 C   0  0  1  0  0  0  0  0  0  0  0  0
    6.9804    2.7823    0.0000 C   0  0  2  0  0  0  0  0  0  0  0  0
    3.5134    0.6629    0.0000 C   0  0  0  0  0  0  0  0  0  0  0  0
    7.9115    3.3392    0.0000 C   0  0  2  0  0  0  0  0  0  0  0  0
    8.8553    2.8040    0.0000 C   0  0  2  0  0  0  0  0  0  0  0  0
    8.8553    1.7190    0.0000 C   0  0  0  0  0  0  0  0  0  0  0  0
    7.9115    0.1421    0.0000 C   0  0  0  0  0  0  0  0  0  0  0  0
    6.1356    2.1909    0.0000 C   0  0  0  0  0  0  0  0  0  0  0  0
    3.6727   -3.2650    0.0000 C   0  0  1  0  0  0  0  0  0  0  0  0
    2.4220   -2.1601    0.0000 C   0  0  0  0  0  0  0  0  0  0  0  0
    2.0000   -1.2145    0.0000 C   0  0  0  0  0  0  0  0  0  0  0  0
    4.4480   -2.3555    0.0000 C   0  0  0  0  0  0  0  0  0  0  0  0
    2.2174    0.5369    0.0000 C   0  0  0  0  0  0  0  0  0  0  0  0
    2.7852   -3.7865    0.0000 C   0  0  0  0  0  0  0  0  0  0  0  0
    4.6494   -3.0504    0.0000 C   0  0  0  0  0  0  0  0  0  0  0  0
    6.1930   -2.5981    0.0000 C   0  0  0  0  0  0  0  0  0  0  0  0
    2.8795    2.0290    0.0000 C   0  0  0  0  0  0  0  0  0  0  0  0
    4.3795    3.1629    0.0000 C   0  0  0  0  0  0  0  0  0  0  0  0
    6.0856    4.2653    0.0000 C   0  0  0  0  0  0  0  0  0  0  0  0
    6.3992   -3.5766    0.0000 C   0  0  0  0  0  0  0  0  0  0  0  0
    2.3795    2.8950    0.0000 C   0  0  0  0  0  0  0  0  0  0  0  0
    4.3795    4.1629    0.0000 C   0  0  0  0  0  0  0  0  0  0  0  0
    6.9418    4.7819    0.0000 C   0  0  0  0  0  0  0  0  0  0  0  0
    5.9325   -0.8376    0.0000 H   0  0  0  0  0  0  0  0  0  0  0  0
    6.1050   -0.6871    0.0000 H   0  0  0  0  0  0  0  0  0  0  0  0
    3.3846    0.3058    0.0000 H   0  0  0  0  0  0  0  0  0  0  0  0
    6.1050    2.0129    0.0000 H   0  0  0  0  0  0  0  0  0  0  0  0
    4.4782   -2.1448    0.0000 H   0  0  0  0  0  0  0  0  0  0  0  0
    5.6563   -1.3102    0.0000 H   0  0  0  0  0  0  0  0  0  0  0  0
    3.7806    1.0024    0.0000 H   0  0  0  0  0  0  0  0  0  0  0  0
    4.7086    1.9729    0.0000 H   0  0  0  0  0  0  0  0  0  0  0  0
    8.6460    0.7559    0.0000 H   0  0  0  0  0  0  0  0  0  0  0  0
    6.5612   -0.8042    0.0000 H   0  0  0  0  0  0  0  0  0  0  0  0
    2.9851    0.1160    0.0000 H   0  0  0  0  0  0  0  0  0  0  0  0
    6.9696    3.4022    0.0000 H   0  0  0  0  0  0  0  0  0  0  0  0
    3.8234    1.1998    0.0000 H   0  0  0  0  0  0  0  0  0  0  0  0
    2.9765    0.9729    0.0000 H   0  0  0  0  0  0  0  0  0  0  0  0
    3.2034    0.1260    0.0000 H   0  0  0  0  0  0  0  0  0  0  0  0
    7.5953    3.8725    0.0000 H   0  0  0  0  0  0  0  0  0  0  0  0
    9.4753    2.8063    0.0000 H   0  0  0  0  0  0  0  0  0  0  0  0
    9.0644    1.1353    0.0000 H   0  0  0  0  0  0  0  0  0  0  0  0
    9.4662    1.8251    0.0000 H   0  0  0  0  0  0  0  0  0  0  0  0
    6.4415    2.7302    0.0000 H   0  0  0  0  0  0  0  0  0  0  0  0
    5.5963    2.4967    0.0000 H   0  0  0  0  0  0  0  0  0  0  0  0
    5.8298    1.6516    0.0000 H   0  0  0  0  0  0  0  0  0  0  0  0
    1.3836   -1.1478    0.0000 H   0  0  0  0  0  0  0  0  0  0  0  0
    4.3885   -2.9726    0.0000 H   0  0  0  0  0  0  0  0  0  0  0  0
    5.0652   -2.4150    0.0000 H   0  0  0  0  0  0  0  0  0  0  0  0
    4.5076   -1.7383    0.0000 H   0  0  0  0  0  0  0  0  0  0  0  0
    2.7865    0.7830    0.0000 H   0  0  0  0  0  0  0  0  0  0  0  0
    1.9713    1.1060    0.0000 H   0  0  0  0  0  0  0  0  0  0  0  0
    1.6484    0.2908    0.0000 H   0  0  0  0  0  0  0  0  0  0  0  0
    8.1154   -1.2507    0.0000 H   0  0  0  0  0  0  0  0  0  0  0  0
    4.7824   -3.6560    0.0000 H   0  0  0  0  0  0  0  0  0  0  0  0
    5.2549   -2.9174    0.0000 H   0  0  0  0  0  0  0  0  0  0  0  0
    4.5163   -2.4449    0.0000 H   0  0  0  0  0  0  0  0  0  0  0  0
    3.8723   -4.6666    0.0000 H   0  0  0  0  0  0  0  0  0  0  0  0
    5.7926   -3.7044    0.0000 H   0  0  0  0  0  0  0  0  0  0  0  0
    6.5271   -4.1832    0.0000 H   0  0  0  0  0  0  0  0  0  0  0  0
    7.0059   -3.4487    0.0000 H   0  0  0  0  0  0  0  0  0  0  0  0
    2.9164    3.2050    0.0000 H   0  0  0  0  0  0  0  0  0  0  0  0
    2.0694    3.4319    0.0000 H   0  0  0  0  0  0  0  0  0  0  0  0
    1.8426    2.5849    0.0000 H   0  0  0  0  0  0  0  0  0  0  0  0
    4.9995    4.1629    0.0000 H   0  0  0  0  0  0  0  0  0  0  0  0
    4.3795    4.7829    0.0000 H   0  0  0  0  0  0  0  0  0  0  0  0
    3.7595    4.1629    0.0000 H   0  0  0  0  0  0  0  0  0  0  0  0
    7.2621    4.2510    0.0000 H   0  0  0  0  0  0  0  0  0  0  0  0
    7.4727    5.1022    0.0000 H   0  0  0  0  0  0  0  0  0  0  0  0
    6.6215    5.3128    0.0000 H   0  0  0  0  0  0  0  0  0  0  0  0
 31  1  1  1  0  0  0
 32  1  1  1  0  0  0
 22  2  1  1  0  0  0
  2 43  1  0  0  0  0
 23  3  1  1  0  0  0
  3 44  1  0  0  0  0
 24  4  1  1  0  0  0
  4 45  1  0  0  0  0
 29  5  1  1  0  0  0
  5 46  1  0  0  0  0
 27  6  1  6  0  0  0
  6 80  1  0  0  0  0
  7 37  1  0  0  0  0
  7 41  1  0  0  0  0
  8 34  2  0  0  0  0
 36  9  1  6  0  0  0
  9 84  1  0  0  0  0
 10 41  2  0  0  0  0
 11 43  2  0  0  0  0
 12 44  2  0  0  0  0
 13 45  2  0  0  0  0
 14 46  2  0  0  0  0
 15 16  1  0  0  0  0
 15 18  1  0  0  0  0
 15 23  1  0  0  0  0
 15 30  1  6  0  0  0
 16 17  1  0  0  0  0
 16 22  1  0  0  0  0
 16 51  1  1  0  0  0
 17 19  1  0  0  0  0
 17 27  1  0  0  0  0
 17 52  1  6  0  0  0
 18 20  1  0  0  0  0
 18 28  1  0  0  0  0
 18 53  1  1  0  0  0
 19 21  1  0  0  0  0
 19 24  1  0  0  0  0
 19 54  1  1  0  0  0
 20 22  1  0  0  0  0
 20 25  1  0  0  0  0
 20 55  1  6  0  0  0
 21 26  1  0  0  0  0
 21 29  1  0  0  0  0
 21 35  1  6  0  0  0
 22 56  1  0  0  0  0
 23 24  1  0  0  0  0
 23 57  1  0  0  0  0
 24 58  1  0  0  0  0
 25 36  1  0  0  0  0
 25 37  1  0  0  0  0
 25 39  1  6  0  0  0
 26 33  1  0  0  0  0
 26 34  1  0  0  0  0
 26 59  1  1  0  0  0
 27 34  1  0  0  0  0
 27 60  1  0  0  0  0
 28 38  1  0  0  0  0
 28 40  1  1  0  0  0
 28 61  1  0  0  0  0
 29 31  1  0  0  0  0
 29 62  1  0  0  0  0
 30 63  1  0  0  0  0
 30 64  1  0  0  0  0
 30 65  1  0  0  0  0
 31 32  1  0  0  0  0
 31 66  1  0  0  0  0
 32 33  1  0  0  0  0
 32 67  1  0  0  0  0
 33 68  1  0  0  0  0
 33 69  1  0  0  0  0
 35 70  1  0  0  0  0
 35 71  1  0  0  0  0
 35 72  1  0  0  0  0
 36 41  1  0  0  0  0
 36 42  1  0  0  0  0
 37 38  2  0  0  0  0
 38 73  1  0  0  0  0
 39 74  1  0  0  0  0
 39 75  1  0  0  0  0
 39 76  1  0  0  0  0
 40 77  1  0  0  0  0
 40 78  1  0  0  0  0
 40 79  1  0  0  0  0
 42 81  1  0  0  0  0
 42 82  1  0  0  0  0
 42 83  1  0  0  0  0
 43 47  1  0  0  0  0
 44 48  1  0  0  0  0
 45 49  1  0  0  0  0
 46 50  1  0  0  0  0
 47 85  1  0  0  0  0
 47 86  1  0  0  0  0
 47 87  1  0  0  0  0
 48 88  1  0  0  0  0
 48 89  1  0  0  0  0
 48 90  1  0  0  0  0
 49 91  1  0  0  0  0
 49 92  1  0  0  0  0
 49 93  1  0  0  0  0
 50 94  1  0  0  0  0
 50 95  1  0  0  0  0
 50 96  1  0  0  0  0
M  END
> <PUBCHEM_COMPOUND_CID>
441685

> <PUBCHEM_COMPOUND_CANONICALIZED>
1

> <PUBCHEM_CACTVS_COMPLEXITY>
1620

> <PUBCHEM_CACTVS_HBOND_ACCEPTOR>
14

> <PUBCHEM_CACTVS_HBOND_DONOR>
2

> <PUBCHEM_CACTVS_ROTATABLE_BOND>
8

> <PUBCHEM_CACTVS_SUBSKEYS>
AAADcfB8PAAAAAAAAAAAAAAAEgAAAaIAAAAwYMEABIAAAGDAAAAAGgAACAAAD1SggAICCAAABgCIAKDSCAIACAAgIAAACAFAAAgBEBIAAAACQAAFwAALAAPK7PzPgAAAAAAAAADAAAYQADCAAYAADAAAAA==

> <PUBCHEM_IUPAC_INCHI>
InChI=1S/C36H46O14/c1-12-10-19-35(8,36(9,44)32(43)50-19)24-21(12)34(7)22(28(24)45-13(2)37)20-23(29(46-14(3)38)31(34)48-16(5)40)33(6)17(25(41)26(20)42)11-18-27(49-18)30(33)47-15(4)39/h10,12,17-18,20-24,26-31,42,44H,11H2,1-9H3/t12-,17-,18+,20+,21+,22-,23-,24+,26-,27+,28-,29+,30+,31+,33+,34-,35+,36-/m1/s1

> <PUBCHEM_IUPAC_INCHIKEY>
PTTJLTMUKRRHAT-VJAKQJMOSA-N

> <PUBCHEM_XLOGP3_AA>
1.7

> <PUBCHEM_EXACT_MASS>
702.288756

> <PUBCHEM_MOLECULAR_FORMULA>
C36H46O14

> <PUBCHEM_MOLECULAR_WEIGHT>
702.74204

> <PUBCHEM_OPENEYE_CAN_SMILES>
CC1C=C2C(C3C1C4(C(C3OC(=O)C)C5C(C(C4OC(=O)C)OC(=O)C)C6(C(CC7C(C6OC(=O)C)O7)C(=O)C5O)C)C)(C(C(=O)O2)(C)O)C

> <PUBCHEM_OPENEYE_ISO_SMILES>
C[C@@H]1C=C2[C@@]([C@H]3[C@H]1[C@@]4([C@@H]([C@H]3OC(=O)C)[C@H]5[C@H]([C@@H]([C@@H]4OC(=O)C)OC(=O)C)[C@@]6([C@H](C[C@H]7[C@@H]([C@@H]6OC(=O)C)O7)C(=O)[C@@H]5O)C)C)([C@](C(=O)O2)(C)O)C

> <PUBCHEM_CACTVS_TPSA>
202

> <PUBCHEM_MONOISOTOPIC_WEIGHT>
702.288756

> <PUBCHEM_TOTAL_CHARGE>
0

> <PUBCHEM_HEAVY_ATOM_COUNT>
50

> <PUBCHEM_ATOM_DEF_STEREO_COUNT>
18

> <PUBCHEM_ATOM_UDEF_STEREO_COUNT>
0

> <PUBCHEM_BOND_DEF_STEREO_COUNT>
0

> <PUBCHEM_BOND_UDEF_STEREO_COUNT>
0

> <PUBCHEM_ISOTOPIC_ATOM_COUNT>
0

> <PUBCHEM_COMPONENT_COUNT>
1

> <PUBCHEM_CACTVS_TAUTO_COUNT>
5

> <PUBCHEM_COORDINATE_TYPE>
1
5
255

> <PUBCHEM_BONDANNOTATIONS>
31  1  5
32  1  5
15  30  6
16  51  5
17  52  6
18  53  5
19  54  5
22  2  5
20  55  6
21  35  6
25  39  6
26  59  5
28  40  5
23  3  5
24  4  5
29  5  5
27  6  6
36  9  6

$$$$

