11954113
  -OEChem-07051213063D

 56 59  0     1  0  0  0  0  0999 V2000
   -5.2062    2.3475   -0.6990 F   0  0  0  0  0  0  0  0  0  0  0  0
    4.5693    0.8222    0.1190 O   0  0  0  0  0  0  0  0  0  0  0  0
   -6.2481   -0.0909   -0.9612 O   0  0  0  0  0  0  0  0  0  0  0  0
    6.0956   -0.1914   -1.2881 O   0  0  0  0  0  0  0  0  0  0  0  0
   -0.0259   -1.0179    0.3014 C   0  0  2  0  0  0  0  0  0  0  0  0
   -0.8139    0.2589   -0.1385 C   0  0  1  0  0  0  0  0  0  0  0  0
    1.3965   -0.9323   -0.2623 C   0  0  1  0  0  0  0  0  0  0  0  0
    2.1608    0.3086    0.2385 C   0  0  2  0  0  0  0  0  0  0  0  0
   -2.3081    0.2285    0.3586 C   0  0  2  0  0  0  0  0  0  0  0  0
   -2.9549   -1.0933   -0.1731 C   0  0  1  0  0  0  0  0  0  0  0  0
   -0.0486    1.5642    0.2089 C   0  0  0  0  0  0  0  0  0  0  0  0
    1.4192    1.5567   -0.2562 C   0  0  0  0  0  0  0  0  0  0  0  0
   -0.7363   -2.2964   -0.1631 C   0  0  0  0  0  0  0  0  0  0  0  0
    3.5206    0.0555   -0.4405 C   0  0  2  0  0  0  0  0  0  0  0  0
    2.3701   -2.0791   -0.0030 C   0  0  0  0  0  0  0  0  0  0  0  0
   -2.1950   -2.3437    0.2830 C   0  0  0  0  0  0  0  0  0  0  0  0
    3.7553   -1.4563   -0.2545 C   0  0  0  0  0  0  0  0  0  0  0  0
   -3.1089    1.4105   -0.2573 C   0  0  0  0  0  0  0  0  0  0  0  0
    2.3331    0.3854    1.7770 C   0  0  0  0  0  0  0  0  0  0  0  0
   -2.3792    0.3314    1.9024 C   0  0  0  0  0  0  0  0  0  0  0  0
   -4.4467   -1.2099    0.1544 C   0  0  0  0  0  0  0  0  0  0  0  0
   -4.6084    1.3538    0.0177 C   0  0  2  0  0  0  0  0  0  0  0  0
   -5.1836    0.0083   -0.3525 C   0  0  0  0  0  0  0  0  0  0  0  0
    5.8194    0.6013   -0.3979 C   0  0  0  0  0  0  0  0  0  0  0  0
    6.8237    1.4786    0.2860 C   0  0  0  0  0  0  0  0  0  0  0  0
    0.0302   -1.0580    1.3941 H   0  0  0  0  0  0  0  0  0  0  0  0
   -0.8542    0.2321   -1.2393 H   0  0  0  0  0  0  0  0  0  0  0  0
    1.2980   -0.8611   -1.3587 H   0  0  0  0  0  0  0  0  0  0  0  0
   -2.8842   -1.0653   -1.2722 H   0  0  0  0  0  0  0  0  0  0  0  0
   -0.0793    1.7499    1.2867 H   0  0  0  0  0  0  0  0  0  0  0  0
   -0.5399    2.4211   -0.2649 H   0  0  0  0  0  0  0  0  0  0  0  0
    1.4360    1.5946   -1.3532 H   0  0  0  0  0  0  0  0  0  0  0  0
    1.9208    2.4681    0.0909 H   0  0  0  0  0  0  0  0  0  0  0  0
   -0.2185   -3.1793    0.2297 H   0  0  0  0  0  0  0  0  0  0  0  0
   -0.6940   -2.3681   -1.2576 H   0  0  0  0  0  0  0  0  0  0  0  0
    3.4471    0.2876   -1.5125 H   0  0  0  0  0  0  0  0  0  0  0  0
    2.1886   -2.9296   -0.6681 H   0  0  0  0  0  0  0  0  0  0  0  0
    2.2964   -2.4428    1.0280 H   0  0  0  0  0  0  0  0  0  0  0  0
   -2.6632   -3.2394   -0.1436 H   0  0  0  0  0  0  0  0  0  0  0  0
   -2.2492   -2.4552    1.3720 H   0  0  0  0  0  0  0  0  0  0  0  0
    4.4313   -1.6796    0.5787 H   0  0  0  0  0  0  0  0  0  0  0  0
    4.1983   -1.8913   -1.1574 H   0  0  0  0  0  0  0  0  0  0  0  0
   -2.9556    1.4326   -1.3448 H   0  0  0  0  0  0  0  0  0  0  0  0
   -2.7356    2.3725    0.1132 H   0  0  0  0  0  0  0  0  0  0  0  0
    2.9012   -0.4605    2.1768 H   0  0  0  0  0  0  0  0  0  0  0  0
    2.8735    1.2966    2.0589 H   0  0  0  0  0  0  0  0  0  0  0  0
    1.3788    0.4060    2.3098 H   0  0  0  0  0  0  0  0  0  0  0  0
   -2.0231    1.3062    2.2516 H   0  0  0  0  0  0  0  0  0  0  0  0
   -3.3995    0.2238    2.2810 H   0  0  0  0  0  0  0  0  0  0  0  0
   -1.7805   -0.4333    2.4031 H   0  0  0  0  0  0  0  0  0  0  0  0
   -4.6327   -1.3141    1.2276 H   0  0  0  0  0  0  0  0  0  0  0  0
   -4.8670   -2.0938   -0.3399 H   0  0  0  0  0  0  0  0  0  0  0  0
   -4.8308    1.5433    1.0720 H   0  0  0  0  0  0  0  0  0  0  0  0
    6.8474    1.2498    1.3544 H   0  0  0  0  0  0  0  0  0  0  0  0
    6.5698    2.5288    0.1223 H   0  0  0  0  0  0  0  0  0  0  0  0
    7.8161    1.2897   -0.1332 H   0  0  0  0  0  0  0  0  0  0  0  0
  1 22  1  0  0  0  0
  2 14  1  0  0  0  0
  2 24  1  0  0  0  0
  3 23  2  0  0  0  0
  4 24  2  0  0  0  0
  5  6  1  0  0  0  0
  5  7  1  0  0  0  0
  5 13  1  0  0  0  0
  5 26  1  0  0  0  0
  6  9  1  0  0  0  0
  6 11  1  0  0  0  0
  6 27  1  0  0  0  0
  7  8  1  0  0  0  0
  7 15  1  0  0  0  0
  7 28  1  0  0  0  0
  8 12  1  0  0  0  0
  8 14  1  0  0  0  0
  8 19  1  0  0  0  0
  9 10  1  0  0  0  0
  9 18  1  0  0  0  0
  9 20  1  0  0  0  0
 10 16  1  0  0  0  0
 10 21  1  0  0  0  0
 10 29  1  0  0  0  0
 11 12  1  0  0  0  0
 11 30  1  0  0  0  0
 11 31  1  0  0  0  0
 12 32  1  0  0  0  0
 12 33  1  0  0  0  0
 13 16  1  0  0  0  0
 13 34  1  0  0  0  0
 13 35  1  0  0  0  0
 14 17  1  0  0  0  0
 14 36  1  0  0  0  0
 15 17  1  0  0  0  0
 15 37  1  0  0  0  0
 15 38  1  0  0  0  0
 16 39  1  0  0  0  0
 16 40  1  0  0  0  0
 17 41  1  0  0  0  0
 17 42  1  0  0  0  0
 18 22  1  0  0  0  0
 18 43  1  0  0  0  0
 18 44  1  0  0  0  0
 19 45  1  0  0  0  0
 19 46  1  0  0  0  0
 19 47  1  0  0  0  0
 20 48  1  0  0  0  0
 20 49  1  0  0  0  0
 20 50  1  0  0  0  0
 21 23  1  0  0  0  0
 21 51  1  0  0  0  0
 21 52  1  0  0  0  0
 22 23  1  0  0  0  0
 22 53  1  0  0  0  0
 24 25  1  0  0  0  0
 25 54  1  0  0  0  0
 25 55  1  0  0  0  0
 25 56  1  0  0  0  0
M  END
> <PUBCHEM_COMPOUND_CID>
11954113

> <PUBCHEM_CONFORMER_RMSD>
0.8

> <PUBCHEM_CONFORMER_DIVERSEORDER>
1
2

> <PUBCHEM_MMFF94_PARTIAL_CHARGES>
10
1 -0.34
14 0.28
2 -0.43
21 0.06
22 0.4
23 0.45
24 0.66
25 0.06
3 -0.57
4 -0.57

> <PUBCHEM_EFFECTIVE_ROTOR_COUNT>
4

> <PUBCHEM_PHARMACOPHORE_FEATURES>
6
1 3 acceptor
1 4 acceptor
5 7 8 14 15 17 rings
6 5 6 7 8 11 12 rings
6 5 6 9 10 13 16 rings
6 9 10 18 21 22 23 rings

> <PUBCHEM_HEAVY_ATOM_COUNT>
25

> <PUBCHEM_ATOM_DEF_STEREO_COUNT>
8

> <PUBCHEM_ATOM_UDEF_STEREO_COUNT>
0

> <PUBCHEM_BOND_DEF_STEREO_COUNT>
0

> <PUBCHEM_BOND_UDEF_STEREO_COUNT>
0

> <PUBCHEM_ISOTOPIC_ATOM_COUNT>
0

> <PUBCHEM_COMPONENT_COUNT>
1

> <PUBCHEM_CACTVS_TAUTO_COUNT>
3

> <PUBCHEM_CONFORMER_ID>
00B667C100000001

> <PUBCHEM_MMFF94_ENERGY>
78.7335

> <PUBCHEM_FEATURE_SELFOVERLAP>
30.538

> <PUBCHEM_SHAPE_FINGERPRINT>
10 15 18271808965687286408
10366900 7 17240483619504403986
10906281 52 18263344997346747306
11089746 13 14549018754347223887
11315181 36 17821722806772257480
12011746 2 18333449837353912702
12236239 1 17704075071195337202
12403259 415 18260272936548114129
12516196 113 18040155115256519952
12616971 3 12247670552894312746
12788726 201 17823134686554492657
12838862 33 18338816540634703069
13533116 47 17822575009413811319
14528608 73 18407759240122449700
14790565 3 18339358677276769676
15183329 4 18409163338120230654
15196674 1 18410855498841208071
15788980 27 18131345302697211642
1601671 61 18342177778014610780
17349148 13 17894349999457240339
18335252 98 18341609288170952459
18608769 82 18339920399492413659
18681886 176 18336271132656706584
200 152 17748548147701691643
20511986 3 18341907298227861890
20681677 155 18272370862777276930
21033648 29 18260277325593253689
21150785 3 17822015280817302453
21267235 1 18337662023519133091
21279426 13 18337387265802591622
21421861 104 17702678794723919122
221357 26 17603585231465108824
23402539 116 18335141968558557054
23402655 69 18334015016321598559
23522609 53 8357418244251144746
23559900 14 18115313275833327377
23569914 152 16741699206159487716
300161 21 18413673513110305810
3004659 81 18342455998007692502
335352 9 18410855425847616628
34797466 226 17530958056434689924
34934 24 18341897402665513930
350125 39 18409445861047596337
3545911 37 18408039598149252379
3633792 109 18334016099260278337
4073 2 18059850628664524674
465052 167 9871745811061755440
484989 97 18193843635749978263
495365 180 17386021549909701626
5104073 3 18342453785213117738
542803 24 17561362881088507548
9709674 26 18338517435392391635

> <PUBCHEM_SHAPE_MULTIPOLES>
489.61
13.92
2.18
1.03
7.64
0.52
-0.4
-4.9
3.34
-0.84
0.12
0.02
-0.14
0.55

> <PUBCHEM_SHAPE_SELFOVERLAP>
1041.442

> <PUBCHEM_SHAPE_VOLUME>
273.2

> <PUBCHEM_COORDINATE_TYPE>
2
5
10

$$$$

