443447
  -OEChem-07051213022D

 46 49  0     1  0  0  0  0  0999 V2000
    7.7163   -0.7181    0.0000 O   0  0  0  0  0  0  0  0  0  0  0  0
    6.5172   -1.9679    0.0000 O   0  0  0  0  0  0  0  0  0  0  0  0
    3.6340   -2.8554    0.0000 O   0  0  0  0  0  0  0  0  0  0  0  0
    2.0000   -0.4044    0.0000 O   0  0  0  0  0  0  0  0  0  0  0  0
    5.3658   -2.8857    0.0000 O   0  0  0  0  0  0  0  0  0  0  0  0
    6.1703    0.6802    0.0000 C   0  0  1  0  0  0  0  0  0  0  0  0
    5.2693    1.1141    0.0000 C   0  0  2  0  0  0  0  0  0  0  0  0
    6.0343   -0.3045    0.0000 C   0  0  2  0  0  0  0  0  0  0  0  0
    5.0561   -0.4812    0.0000 C   0  0  1  0  0  0  0  0  0  0  0  0
    6.0635    1.8570    0.0000 C   0  0  0  0  0  0  0  0  0  0  0  0
    6.6703    2.8708    0.0000 C   0  0  1  0  0  0  0  0  0  0  0  0
    7.0713    1.1141    0.0000 C   0  0  0  0  0  0  0  0  0  0  0  0
    4.5842    0.3938    0.0000 C   0  0  0  0  0  0  0  0  0  0  0  0
    5.0468    2.0890    0.0000 C   0  0  0  0  0  0  0  0  0  0  0  0
    5.6703    2.8708    0.0000 C   0  0  0  0  0  0  0  0  0  0  0  0
    4.5262   -1.3708    0.0000 C   0  0  2  0  0  0  0  0  0  0  0  0
    7.2938    2.0890    0.0000 C   0  0  0  0  0  0  0  0  0  0  0  0
    6.7559   -0.9968    0.0000 C   0  0  0  0  0  0  0  0  0  0  0  0
    3.5498    0.4398    0.0000 C   0  0  0  0  0  0  0  0  0  0  0  0
    3.4909   -1.3487    0.0000 C   0  0  0  0  0  0  0  0  0  0  0  0
    5.3833   -1.8858    0.0000 C   0  0  0  0  0  0  0  0  0  0  0  0
    2.9995   -0.4373    0.0000 C   0  0  0  0  0  0  0  0  0  0  0  0
    4.5087   -2.3706    0.0000 C   0  0  0  0  0  0  0  0  0  0  0  0
    8.2687    2.3115    0.0000 C   0  0  0  0  0  0  0  0  0  0  0  0
    4.5035    1.4829    0.0000 H   0  0  0  0  0  0  0  0  0  0  0  0
    6.6200   -0.1010    0.0000 H   0  0  0  0  0  0  0  0  0  0  0  0
    5.5403   -1.1798    0.0000 H   0  0  0  0  0  0  0  0  0  0  0  0
    5.6557    2.3240    0.0000 H   0  0  0  0  0  0  0  0  0  0  0  0
    5.4934    1.6132    0.0000 H   0  0  0  0  0  0  0  0  0  0  0  0
    6.8595    3.6995    0.0000 H   0  0  0  0  0  0  0  0  0  0  0  0
    7.2092    0.5096    0.0000 H   0  0  0  0  0  0  0  0  0  0  0  0
    7.6913    1.1141    0.0000 H   0  0  0  0  0  0  0  0  0  0  0  0
    4.6603    2.5738    0.0000 H   0  0  0  0  0  0  0  0  0  0  0  0
    4.4882    1.8200    0.0000 H   0  0  0  0  0  0  0  0  0  0  0  0
    5.8083    3.4753    0.0000 H   0  0  0  0  0  0  0  0  0  0  0  0
    5.1117    3.1399    0.0000 H   0  0  0  0  0  0  0  0  0  0  0  0
    3.2619    0.9889    0.0000 H   0  0  0  0  0  0  0  0  0  0  0  0
    2.9029   -1.5452    0.0000 H   0  0  0  0  0  0  0  0  0  0  0  0
    3.5840   -1.9617    0.0000 H   0  0  0  0  0  0  0  0  0  0  0  0
    5.0640   -2.4173    0.0000 H   0  0  0  0  0  0  0  0  0  0  0  0
    5.9147   -2.2052    0.0000 H   0  0  0  0  0  0  0  0  0  0  0  0
    5.7026   -1.3544    0.0000 H   0  0  0  0  0  0  0  0  0  0  0  0
    8.6904    1.8570    0.0000 H   0  0  0  0  0  0  0  0  0  0  0  0
    8.4515    2.9040    0.0000 H   0  0  0  0  0  0  0  0  0  0  0  0
    8.1637   -1.1473    0.0000 H   0  0  0  0  0  0  0  0  0  0  0  0
    3.6232   -3.4753    0.0000 H   0  0  0  0  0  0  0  0  0  0  0  0
  1 18  1  0  0  0  0
  1 45  1  0  0  0  0
  2 18  2  0  0  0  0
  3 23  1  0  0  0  0
  3 46  1  0  0  0  0
  4 22  2  0  0  0  0
  5 23  2  0  0  0  0
  6  7  1  0  0  0  0
  6  8  1  0  0  0  0
  6 10  1  6  0  0  0
  6 12  1  0  0  0  0
  7 13  1  0  0  0  0
  7 14  1  0  0  0  0
  7 25  1  1  0  0  0
  8  9  1  0  0  0  0
  8 18  1  1  0  0  0
  8 26  1  0  0  0  0
  9 13  1  0  0  0  0
  9 16  1  0  0  0  0
  9 27  1  1  0  0  0
 10 11  1  0  0  0  0
 10 28  1  0  0  0  0
 10 29  1  0  0  0  0
 11 15  1  0  0  0  0
 11 17  1  0  0  0  0
 11 30  1  6  0  0  0
 12 17  1  0  0  0  0
 12 31  1  0  0  0  0
 12 32  1  0  0  0  0
 13 19  2  0  0  0  0
 14 15  1  0  0  0  0
 14 33  1  0  0  0  0
 14 34  1  0  0  0  0
 15 35  1  0  0  0  0
 15 36  1  0  0  0  0
 16 20  1  0  0  0  0
 16 21  1  1  0  0  0
 16 23  1  0  0  0  0
 17 24  2  0  0  0  0
 19 22  1  0  0  0  0
 19 37  1  0  0  0  0
 20 22  1  0  0  0  0
 20 38  1  0  0  0  0
 20 39  1  0  0  0  0
 21 40  1  0  0  0  0
 21 41  1  0  0  0  0
 21 42  1  0  0  0  0
 24 43  1  0  0  0  0
 24 44  1  0  0  0  0
M  END
> <PUBCHEM_COMPOUND_CID>
443447

> <PUBCHEM_COMPOUND_CANONICALIZED>
1

> <PUBCHEM_CACTVS_COMPLEXITY>
719

> <PUBCHEM_CACTVS_HBOND_ACCEPTOR>
5

> <PUBCHEM_CACTVS_HBOND_DONOR>
2

> <PUBCHEM_CACTVS_ROTATABLE_BOND>
2

> <PUBCHEM_CACTVS_SUBSKEYS>
AAADceB4OAAAAAAAAAAAAAAAAAAAAYMAAAAwQAAABgAAAGDAAAAAGgAACAAADwSAgAACCAAAAgCIAqDSCAAAAAAgAAAACAEAAEgAABIAAQAAQAAEgAAIAQOL7vCPgAAAAAAAAACAAAQAACAAAQAACAAAAA==

> <PUBCHEM_IUPAC_INCHI>
InChI=1S/C19H22O5/c1-9-6-19-7-10(9)3-4-13(19)12-5-11(20)8-18(2,17(23)24)14(12)15(19)16(21)22/h5,10,13-15H,1,3-4,6-8H2,2H3,(H,21,22)(H,23,24)/t10-,13+,14-,15-,18-,19+/m1/s1

> <PUBCHEM_IUPAC_INCHIKEY>
JBJGOHHQQSPYTO-BLMVKCSQSA-N

> <PUBCHEM_XLOGP3_AA>
1.2

> <PUBCHEM_EXACT_MASS>
330.146724

> <PUBCHEM_MOLECULAR_FORMULA>
C19H22O5

> <PUBCHEM_MOLECULAR_WEIGHT>
330.37498

> <PUBCHEM_OPENEYE_CAN_SMILES>
CC1(CC(=O)C=C2C1C(C34C2CCC(C3)C(=C)C4)C(=O)O)C(=O)O

> <PUBCHEM_OPENEYE_ISO_SMILES>
C[C@]1(CC(=O)C=C2[C@@H]1[C@@H]([C@]34[C@H]2CC[C@H](C3)C(=C)C4)C(=O)O)C(=O)O

> <PUBCHEM_CACTVS_TPSA>
91.7

> <PUBCHEM_MONOISOTOPIC_WEIGHT>
330.146724

> <PUBCHEM_TOTAL_CHARGE>
0

> <PUBCHEM_HEAVY_ATOM_COUNT>
24

> <PUBCHEM_ATOM_DEF_STEREO_COUNT>
6

> <PUBCHEM_ATOM_UDEF_STEREO_COUNT>
0

> <PUBCHEM_BOND_DEF_STEREO_COUNT>
0

> <PUBCHEM_BOND_UDEF_STEREO_COUNT>
0

> <PUBCHEM_ISOTOPIC_ATOM_COUNT>
0

> <PUBCHEM_COMPONENT_COUNT>
1

> <PUBCHEM_CACTVS_TAUTO_COUNT>
8

> <PUBCHEM_COORDINATE_TYPE>
1
5
255

> <PUBCHEM_BONDANNOTATIONS>
11  30  6
16  21  5
6  10  6
7  25  5
8  18  5
9  27  5

$$$$

