4328
  -OEChem-06261200023D

 53 54  0     1  0  0  0  0  0999 V2000
   -1.4036   -1.3080    0.2940 P   0  0  2  0  0  0  0  0  0  0  0  0
   -1.2845   -2.0032    1.6304 O   0  0  0  0  0  0  0  0  0  0  0  0
    1.0762   -1.8421    2.0100 O   0  0  0  0  0  0  0  0  0  0  0  0
    3.1689   -0.4444    2.9782 O   0  0  0  0  0  0  0  0  0  0  0  0
   -0.1735   -0.2149   -0.0378 N   0  0  2  0  0  0  0  0  0  0  0  0
    2.7102   -0.2483    1.6686 N   0  0  0  0  0  0  0  0  0  0  0  0
    1.1897   -0.7318   -0.1409 C   0  0  2  0  0  0  0  0  0  0  0  0
    1.2668   -2.0010   -1.0077 C   0  0  0  0  0  0  0  0  0  0  0  0
    2.6766   -2.6004   -1.1905 C   0  0  0  0  0  0  0  0  0  0  0  0
   -0.1472    1.0069    0.7784 C   0  0  0  0  0  0  0  0  0  0  0  0
   -2.9485   -0.4682    0.0284 C   0  0  0  0  0  0  0  0  0  0  0  0
    1.6370   -1.0187    1.2893 C   0  0  0  0  0  0  0  0  0  0  0  0
   -1.2981   -2.5677   -1.0042 C   0  0  0  0  0  0  0  0  0  0  0  0
    2.6706   -3.8553   -2.0639 C   0  0  0  0  0  0  0  0  0  0  0  0
    3.6075   -1.5497   -1.8036 C   0  0  0  0  0  0  0  0  0  0  0  0
    0.7298    2.0689    0.1702 C   0  0  0  0  0  0  0  0  0  0  0  0
   -3.1753    0.1860   -1.1757 C   0  0  0  0  0  0  0  0  0  0  0  0
   -3.9130   -0.4756    1.0278 C   0  0  0  0  0  0  0  0  0  0  0  0
    1.3774    2.9763    0.9970 C   0  0  0  0  0  0  0  0  0  0  0  0
    0.8787    2.1254   -1.2086 C   0  0  0  0  0  0  0  0  0  0  0  0
   -4.3873    0.8443   -1.3838 C   0  0  0  0  0  0  0  0  0  0  0  0
   -5.1250    0.1826    0.8196 C   0  0  0  0  0  0  0  0  0  0  0  0
   -5.3621    0.8426   -0.3863 C   0  0  0  0  0  0  0  0  0  0  0  0
    2.1899    3.9603    0.4337 C   0  0  0  0  0  0  0  0  0  0  0  0
    1.6915    3.1092   -1.7718 C   0  0  0  0  0  0  0  0  0  0  0  0
    2.3471    4.0266   -0.9505 C   0  0  0  0  0  0  0  0  0  0  0  0
    1.8701   -0.0148   -0.5974 H   0  0  0  0  0  0  0  0  0  0  0  0
    0.8151   -2.8144   -0.4546 H   0  0  0  0  0  0  0  0  0  0  0  0
    0.8596   -1.8200   -2.0043 H   0  0  0  0  0  0  0  0  0  0  0  0
    3.0836   -2.8811   -0.2107 H   0  0  0  0  0  0  0  0  0  0  0  0
    0.1056    0.8125    1.8270 H   0  0  0  0  0  0  0  0  0  0  0  0
   -1.1547    1.4397    0.8048 H   0  0  0  0  0  0  0  0  0  0  0  0
   -1.0614   -2.1859   -1.9987 H   0  0  0  0  0  0  0  0  0  0  0  0
   -0.8117   -3.5116   -0.7508 H   0  0  0  0  0  0  0  0  0  0  0  0
   -2.3397   -2.9045   -1.1207 H   0  0  0  0  0  0  0  0  0  0  0  0
    2.3056   -3.6346   -3.0727 H   0  0  0  0  0  0  0  0  0  0  0  0
    2.0225   -4.6242   -1.6305 H   0  0  0  0  0  0  0  0  0  0  0  0
    3.6776   -4.2767   -2.1512 H   0  0  0  0  0  0  0  0  0  0  0  0
    3.1798   -1.1170   -2.7144 H   0  0  0  0  0  0  0  0  0  0  0  0
    3.8270   -0.7391   -1.1032 H   0  0  0  0  0  0  0  0  0  0  0  0
    4.5716   -1.9981   -2.0692 H   0  0  0  0  0  0  0  0  0  0  0  0
   -2.4220    0.1911   -1.9578 H   0  0  0  0  0  0  0  0  0  0  0  0
   -3.7384   -0.9855    1.9700 H   0  0  0  0  0  0  0  0  0  0  0  0
    3.1507    0.4881    1.1289 H   0  0  0  0  0  0  0  0  0  0  0  0
    1.2613    2.9334    2.0762 H   0  0  0  0  0  0  0  0  0  0  0  0
    0.3572    1.4511   -1.8820 H   0  0  0  0  0  0  0  0  0  0  0  0
   -4.5719    1.3580   -2.3227 H   0  0  0  0  0  0  0  0  0  0  0  0
   -5.8841    0.1816    1.5963 H   0  0  0  0  0  0  0  0  0  0  0  0
   -6.3058    1.3551   -0.5484 H   0  0  0  0  0  0  0  0  0  0  0  0
    2.7001    4.6748    1.0730 H   0  0  0  0  0  0  0  0  0  0  0  0
    1.8081    3.1661   -2.8501 H   0  0  0  0  0  0  0  0  0  0  0  0
    2.9784    4.7937   -1.3892 H   0  0  0  0  0  0  0  0  0  0  0  0
    3.3725    0.4722    3.2297 H   0  0  0  0  0  0  0  0  0  0  0  0
  1  2  2  0  0  0  0
  1  5  1  0  0  0  0
  1 11  1  0  0  0  0
  1 13  1  0  0  0  0
  3 12  2  0  0  0  0
  4  6  1  0  0  0  0
  4 53  1  0  0  0  0
  5  7  1  0  0  0  0
  5 10  1  0  0  0  0
  6 12  1  0  0  0  0
  6 44  1  0  0  0  0
  7  8  1  0  0  0  0
  7 12  1  0  0  0  0
  7 27  1  0  0  0  0
  8  9  1  0  0  0  0
  8 28  1  0  0  0  0
  8 29  1  0  0  0  0
  9 14  1  0  0  0  0
  9 15  1  0  0  0  0
  9 30  1  0  0  0  0
 10 16  1  0  0  0  0
 10 31  1  0  0  0  0
 10 32  1  0  0  0  0
 11 17  2  0  0  0  0
 11 18  1  0  0  0  0
 13 33  1  0  0  0  0
 13 34  1  0  0  0  0
 13 35  1  0  0  0  0
 14 36  1  0  0  0  0
 14 37  1  0  0  0  0
 14 38  1  0  0  0  0
 15 39  1  0  0  0  0
 15 40  1  0  0  0  0
 15 41  1  0  0  0  0
 16 19  2  0  0  0  0
 16 20  1  0  0  0  0
 17 21  1  0  0  0  0
 17 42  1  0  0  0  0
 18 22  2  0  0  0  0
 18 43  1  0  0  0  0
 19 24  1  0  0  0  0
 19 45  1  0  0  0  0
 20 25  2  0  0  0  0
 20 46  1  0  0  0  0
 21 23  2  0  0  0  0
 21 47  1  0  0  0  0
 22 23  1  0  0  0  0
 22 48  1  0  0  0  0
 23 49  1  0  0  0  0
 24 26  2  0  0  0  0
 24 50  1  0  0  0  0
 25 26  1  0  0  0  0
 25 51  1  0  0  0  0
 26 52  1  0  0  0  0
M  END
> <PUBCHEM_COMPOUND_CID>
4328

> <PUBCHEM_CONFORMER_RMSD>
1

> <PUBCHEM_CONFORMER_DIVERSEORDER>
7
13
4
8
9
6
11
5
3
10
12
2
1

> <PUBCHEM_MMFF94_PARTIAL_CHARGES>
33
1 1.11
10 0.41
11 -0.14
12 0.57
16 -0.14
17 -0.15
18 -0.15
19 -0.15
2 -0.7
20 -0.15
21 -0.15
22 -0.15
23 -0.15
24 -0.15
25 -0.15
26 -0.15
3 -0.57
4 -0.44
42 0.15
43 0.15
44 0.37
45 0.15
46 0.15
47 0.15
48 0.15
49 0.15
5 -0.81
50 0.15
51 0.15
52 0.15
53 0.4
6 -0.39
7 0.33

> <PUBCHEM_EFFECTIVE_ROTOR_COUNT>
9

> <PUBCHEM_PHARMACOPHORE_FEATURES>
6
1 2 acceptor
1 3 acceptor
1 6 donor
3 9 14 15 hydrophobe
6 11 17 18 21 22 23 rings
6 16 19 20 24 25 26 rings

> <PUBCHEM_HEAVY_ATOM_COUNT>
26

> <PUBCHEM_ATOM_DEF_STEREO_COUNT>
0

> <PUBCHEM_ATOM_UDEF_STEREO_COUNT>
2

> <PUBCHEM_BOND_DEF_STEREO_COUNT>
0

> <PUBCHEM_BOND_UDEF_STEREO_COUNT>
0

> <PUBCHEM_ISOTOPIC_ATOM_COUNT>
0

> <PUBCHEM_COMPONENT_COUNT>
1

> <PUBCHEM_CACTVS_TAUTO_COUNT>
3

> <PUBCHEM_CONFORMER_ID>
000010E800000007

> <PUBCHEM_MMFF94_ENERGY>
85.186

> <PUBCHEM_FEATURE_SELFOVERLAP>
30.478

> <PUBCHEM_SHAPE_FINGERPRINT>
10165383 225 17687431622010027377
107951 10 17270303290337346324
12160290 23 17256542231651971721
12293681 160 17915720158931447042
12422481 6 17982488986139329952
12617007 42 18263353840874444191
12788726 201 17405707459606944295
13134695 92 18040714822398499221
13140716 1 18198069083781542241
13149001 5 18200010911600386171
133893 2 17912397275350640230
13583140 156 17774460346955578107
13681431 1 18410291449344478100
14022347 108 18198339748236177323
14508225 48 18048300430496632870
14713325 29 17407101171999088244
14955137 171 18411418414550825506
15210252 30 18055904639665562828
15238133 3 17629488763796485021
15420108 30 18047493139769618256
15664445 248 18340483473846327274
1601671 61 18410018719364215760
17357779 13 18045225092052084351
17980427 23 18048349710787661594
1813 80 18263361563183437519
18785283 64 18268981012557507741
20600515 1 18268719466149773618
20739085 24 18044083773344641123
21285901 2 17972597959671041798
21524375 3 17693377737421166337
21860390 5 18410303514044704525
22149856 69 17822285749106980555
22182313 1 18046364177297496317
23175994 123 18194383701663485295
23419403 2 17266603540498149458
23557571 272 17979650248862946356
23559900 14 18261106370203339015
38695281 34 18191022301275228332
46194498 28 18411980252687894695
5265222 85 17476615605013654172
81228 2 17978512266791406008
9841814 1 18201721790358207841
9971528 1 18115033025454727249
9981440 41 17901673670047380169

> <PUBCHEM_SHAPE_MULTIPOLES>
511.35
7.71
4.87
2.13
11.96
2.5
-0.8
0.07
1.1
-6.93
2.2
-1.71
-0.67
1.04

> <PUBCHEM_SHAPE_SELFOVERLAP>
1047.576

> <PUBCHEM_SHAPE_VOLUME>
295

> <PUBCHEM_COORDINATE_TYPE>
2
5
10

$$$$

