12947
  -OEChem-06261207342D

 56 56  0     1  0  0  0  0  0999 V2000
   13.2180    9.3342    0.0000 Cl  0  0  0  0  0  0  0  0  0  0  0  0
    1.4030    4.9823    0.0000 S   0  0  0  0  0  0  0  0  0  0  0  0
    6.2238    0.3100    0.0000 O   0  0  0  0  0  0  0  0  0  0  0  0
    2.2690    5.4823    0.0000 O   0  0  0  0  0  0  0  0  0  0  0  0
    0.5369    4.4823    0.0000 O   0  0  0  0  0  0  0  0  0  0  0  0
    0.9030    5.8483    0.0000 O   0  0  0  0  0  0  0  0  0  0  0  0
    1.9030    4.1163    0.0000 O   0  0  0  0  0  0  0  0  0  0  0  0
    7.0898    2.8100    0.0000 N   0  0  3  0  0  0  0  0  0  0  0  0
    9.6878    6.3100    0.0000 N   0  0  0  0  0  0  0  0  0  0  0  0
    9.6878    9.3100    0.0000 N   0  0  0  0  0  0  0  0  0  0  0  0
    8.8218    4.8100    0.0000 C   0  0  0  0  0  0  0  0  0  0  0  0
    7.9558    4.3100    0.0000 C   0  0  0  0  0  0  0  0  0  0  0  0
    8.8218    5.8100    0.0000 C   0  0  3  0  0  0  0  0  0  0  0  0
    7.9558    3.3100    0.0000 C   0  0  0  0  0  0  0  0  0  0  0  0
    7.0898    1.8100    0.0000 C   0  0  0  0  0  0  0  0  0  0  0  0
    7.9558    6.3100    0.0000 C   0  0  0  0  0  0  0  0  0  0  0  0
    6.2238    3.3100    0.0000 C   0  0  0  0  0  0  0  0  0  0  0  0
    9.6878    7.3100    0.0000 C   0  0  0  0  0  0  0  0  0  0  0  0
    6.2238    1.3100    0.0000 C   0  0  0  0  0  0  0  0  0  0  0  0
    5.3577    2.8100    0.0000 C   0  0  0  0  0  0  0  0  0  0  0  0
   10.5539    7.8100    0.0000 C   0  0  0  0  0  0  0  0  0  0  0  0
    8.8218    7.8100    0.0000 C   0  0  0  0  0  0  0  0  0  0  0  0
   10.5539    8.8100    0.0000 C   0  0  0  0  0  0  0  0  0  0  0  0
   11.4478    7.2753    0.0000 C   0  0  0  0  0  0  0  0  0  0  0  0
    8.8218    8.8100    0.0000 C   0  0  0  0  0  0  0  0  0  0  0  0
   11.4478    9.3447    0.0000 C   0  0  0  0  0  0  0  0  0  0  0  0
   12.3539    7.7892    0.0000 C   0  0  0  0  0  0  0  0  0  0  0  0
   12.3539    8.8308    0.0000 C   0  0  0  0  0  0  0  0  0  0  0  0
    9.0339    4.2274    0.0000 H   0  0  0  0  0  0  0  0  0  0  0  0
    9.4324    4.9177    0.0000 H   0  0  0  0  0  0  0  0  0  0  0  0
    7.7438    4.8926    0.0000 H   0  0  0  0  0  0  0  0  0  0  0  0
    7.3452    4.2023    0.0000 H   0  0  0  0  0  0  0  0  0  0  0  0
    8.8218    6.4300    0.0000 H   0  0  0  0  0  0  0  0  0  0  0  0
    8.1678    2.7274    0.0000 H   0  0  0  0  0  0  0  0  0  0  0  0
    8.5664    3.4177    0.0000 H   0  0  0  0  0  0  0  0  0  0  0  0
   10.2248    6.0000    0.0000 H   0  0  0  0  0  0  0  0  0  0  0  0
    7.3018    1.2274    0.0000 H   0  0  0  0  0  0  0  0  0  0  0  0
    7.7004    1.9177    0.0000 H   0  0  0  0  0  0  0  0  0  0  0  0
    8.2658    6.8469    0.0000 H   0  0  0  0  0  0  0  0  0  0  0  0
    7.4189    6.6200    0.0000 H   0  0  0  0  0  0  0  0  0  0  0  0
    7.6458    5.7731    0.0000 H   0  0  0  0  0  0  0  0  0  0  0  0
    6.6223    3.7850    0.0000 H   0  0  0  0  0  0  0  0  0  0  0  0
    5.8252    3.7850    0.0000 H   0  0  0  0  0  0  0  0  0  0  0  0
    6.0117    1.8926    0.0000 H   0  0  0  0  0  0  0  0  0  0  0  0
    5.6132    1.2023    0.0000 H   0  0  0  0  0  0  0  0  0  0  0  0
    5.0477    3.3469    0.0000 H   0  0  0  0  0  0  0  0  0  0  0  0
    4.8208    2.5000    0.0000 H   0  0  0  0  0  0  0  0  0  0  0  0
    5.6677    2.2731    0.0000 H   0  0  0  0  0  0  0  0  0  0  0  0
    8.2849    7.5000    0.0000 H   0  0  0  0  0  0  0  0  0  0  0  0
   11.4407    6.6554    0.0000 H   0  0  0  0  0  0  0  0  0  0  0  0
    8.2849    9.1200    0.0000 H   0  0  0  0  0  0  0  0  0  0  0  0
   11.4407    9.9646    0.0000 H   0  0  0  0  0  0  0  0  0  0  0  0
    5.6868    0.0000    0.0000 H   0  0  0  0  0  0  0  0  0  0  0  0
   12.8896    7.4771    0.0000 H   0  0  0  0  0  0  0  0  0  0  0  0
    2.8059    5.1723    0.0000 H   0  0  0  0  0  0  0  0  0  0  0  0
    0.0000    4.7923    0.0000 H   0  0  0  0  0  0  0  0  0  0  0  0
  1 28  1  0  0  0  0
  2  4  1  0  0  0  0
  2  5  1  0  0  0  0
  2  6  2  0  0  0  0
  2  7  2  0  0  0  0
  3 19  1  0  0  0  0
  3 53  1  0  0  0  0
  4 55  1  0  0  0  0
  5 56  1  0  0  0  0
  8 14  1  0  0  0  0
  8 15  1  0  0  0  0
  8 17  1  0  0  0  0
  9 13  1  0  0  0  0
  9 18  1  0  0  0  0
  9 36  1  0  0  0  0
 10 23  2  0  0  0  0
 10 25  1  0  0  0  0
 11 12  1  0  0  0  0
 11 13  1  0  0  0  0
 11 29  1  0  0  0  0
 11 30  1  0  0  0  0
 12 14  1  0  0  0  0
 12 31  1  0  0  0  0
 12 32  1  0  0  0  0
 13 16  1  0  0  0  0
 13 33  1  0  0  0  0
 14 34  1  0  0  0  0
 14 35  1  0  0  0  0
 15 19  1  0  0  0  0
 15 37  1  0  0  0  0
 15 38  1  0  0  0  0
 16 39  1  0  0  0  0
 16 40  1  0  0  0  0
 16 41  1  0  0  0  0
 17 20  1  0  0  0  0
 17 42  1  0  0  0  0
 17 43  1  0  0  0  0
 18 21  2  0  0  0  0
 18 22  1  0  0  0  0
 19 44  1  0  0  0  0
 19 45  1  0  0  0  0
 20 46  1  0  0  0  0
 20 47  1  0  0  0  0
 20 48  1  0  0  0  0
 21 23  1  0  0  0  0
 21 24  1  0  0  0  0
 22 25  2  0  0  0  0
 22 49  1  0  0  0  0
 23 26  1  0  0  0  0
 24 27  2  0  0  0  0
 24 50  1  0  0  0  0
 25 51  1  0  0  0  0
 26 28  2  0  0  0  0
 26 52  1  0  0  0  0
 27 28  1  0  0  0  0
 27 54  1  0  0  0  0
M  END
> <PUBCHEM_COMPOUND_CID>
12947

> <PUBCHEM_COMPOUND_CANONICALIZED>
1

> <PUBCHEM_CACTVS_COMPLEXITY>
413

> <PUBCHEM_CACTVS_HBOND_ACCEPTOR>
8

> <PUBCHEM_CACTVS_HBOND_DONOR>
4

> <PUBCHEM_CACTVS_ROTATABLE_BOND>
9

> <PUBCHEM_CACTVS_SUBSKEYS>
AAADceB7OABEAAAAAAAAAAAAAAAAAAAAAAA8QAAAAAAAAACx8AAAHgIQCAAADCrhniY+wPPIEoCgAzRnRDCCgCAxByAI2KA4ZpgKMOLB09GEJAhgkADYyAcQgIAOBAAAAAICAAAIAAAABAQAAAAAAAAAAA==

> <PUBCHEM_IUPAC_OPENEYE_NAME>
2-[4-[(7-chloro-4-quinolyl)amino]pentyl-ethyl-amino]ethanol; sulfuric acid

> <PUBCHEM_IUPAC_CAS_NAME>
2-[4-[(7-chloro-4-quinolinyl)amino]pentyl-ethylamino]ethanol; sulfuric acid

> <PUBCHEM_IUPAC_NAME>
2-[4-[(7-chloroquinolin-4-yl)amino]pentyl-ethylamino]ethanol; sulfuric acid

> <PUBCHEM_IUPAC_SYSTEMATIC_NAME>
2-[4-[(7-chloranylquinolin-4-yl)amino]pentyl-ethyl-amino]ethanol; sulfuric acid

> <PUBCHEM_IUPAC_TRADITIONAL_NAME>
2-[4-[(7-chloro-4-quinolyl)amino]pentyl-ethyl-amino]ethanol; sulfuric acid

> <PUBCHEM_IUPAC_INCHI>
InChI=1S/C18H26ClN3O.H2O4S/c1-3-22(11-12-23)10-4-5-14(2)21-17-8-9-20-18-13-15(19)6-7-16(17)18;1-5(2,3)4/h6-9,13-14,23H,3-5,10-12H2,1-2H3,(H,20,21);(H2,1,2,3,4)

> <PUBCHEM_IUPAC_INCHIKEY>
JCBIVZZPXRZKTI-UHFFFAOYSA-N

> <PUBCHEM_EXACT_MASS>
433.14382

> <PUBCHEM_MOLECULAR_FORMULA>
C18H28ClN3O5S

> <PUBCHEM_MOLECULAR_WEIGHT>
433.95002

> <PUBCHEM_OPENEYE_CAN_SMILES>
CCN(CCCC(C)NC1=C2C=CC(=CC2=NC=C1)Cl)CCO.OS(=O)(=O)O

> <PUBCHEM_OPENEYE_ISO_SMILES>
CCN(CCCC(C)NC1=C2C=CC(=CC2=NC=C1)Cl)CCO.OS(=O)(=O)O

> <PUBCHEM_CACTVS_TPSA>
131

> <PUBCHEM_MONOISOTOPIC_WEIGHT>
433.14382

> <PUBCHEM_TOTAL_CHARGE>
0

> <PUBCHEM_HEAVY_ATOM_COUNT>
28

> <PUBCHEM_ATOM_DEF_STEREO_COUNT>
0

> <PUBCHEM_ATOM_UDEF_STEREO_COUNT>
1

> <PUBCHEM_BOND_DEF_STEREO_COUNT>
0

> <PUBCHEM_BOND_UDEF_STEREO_COUNT>
0

> <PUBCHEM_ISOTOPIC_ATOM_COUNT>
0

> <PUBCHEM_COMPONENT_COUNT>
2

> <PUBCHEM_CACTVS_TAUTO_COUNT>
3

> <PUBCHEM_COORDINATE_TYPE>
1
5
255

> <PUBCHEM_BONDANNOTATIONS>
10  23  8
10  25  8
13  16  3
18  21  8
18  22  8
21  23  8
21  24  8
22  25  8
23  26  8
24  27  8
26  28  8
27  28  8

$$$$

