26819
  -OEChem-07051213093D

 54 56  0     1  0  0  0  0  0999 V2000
    1.5714   -1.9626   -1.2189 O   0  0  0  0  0  0  0  0  0  0  0  0
    4.2378   -1.3688   -1.0682 O   0  0  0  0  0  0  0  0  0  0  0  0
    5.1335    0.5880    0.6657 O   0  0  0  0  0  0  0  0  0  0  0  0
   -4.2570   -2.9262    0.5970 O   0  0  0  0  0  0  0  0  0  0  0  0
   -4.0594   -1.3046   -1.6533 O   0  0  0  0  0  0  0  0  0  0  0  0
   -3.8112    3.8699   -0.5113 O   0  0  0  0  0  0  0  0  0  0  0  0
   -1.7106    2.8404   -0.6767 N   0  0  0  0  0  0  0  0  0  0  0  0
   -0.7943    1.8869   -0.0836 C   0  0  1  0  0  0  0  0  0  0  0  0
   -0.3663    2.4139    1.3045 C   0  0  0  0  0  0  0  0  0  0  0  0
    0.5443    1.5054    2.1409 C   0  0  0  0  0  0  0  0  0  0  0  0
   -1.3527    0.4504   -0.0958 C   0  0  0  0  0  0  0  0  0  0  0  0
    1.5300    0.7260    1.3073 C   0  0  0  0  0  0  0  0  0  0  0  0
    1.0688   -0.2812    0.4318 C   0  0  0  0  0  0  0  0  0  0  0  0
   -0.3929   -0.5776    0.3571 C   0  0  0  0  0  0  0  0  0  0  0  0
    1.9860   -0.9753   -0.3715 C   0  0  0  0  0  0  0  0  0  0  0  0
    2.9000    1.0085    1.3730 C   0  0  0  0  0  0  0  0  0  0  0  0
   -2.5745    0.1729   -0.5916 C   0  0  0  0  0  0  0  0  0  0  0  0
   -0.7199   -1.7889    0.8469 C   0  0  0  0  0  0  0  0  0  0  0  0
    3.3476   -0.6831   -0.2948 C   0  0  0  0  0  0  0  0  0  0  0  0
    3.8034    0.3041    0.5767 C   0  0  0  0  0  0  0  0  0  0  0  0
   -1.2807    3.5220   -1.8873 C   0  0  0  0  0  0  0  0  0  0  0  0
   -3.2717   -1.1298   -0.7254 C   0  0  0  0  0  0  0  0  0  0  0  0
   -2.9510    3.0933   -0.1109 C   0  0  0  0  0  0  0  0  0  0  0  0
   -2.0207   -2.3737    1.0336 C   0  0  0  0  0  0  0  0  0  0  0  0
   -3.1395   -2.1481    0.3410 C   0  0  0  0  0  0  0  0  0  0  0  0
    1.2173   -1.5693   -2.5415 C   0  0  0  0  0  0  0  0  0  0  0  0
    4.7872   -2.5630   -0.5167 C   0  0  0  0  0  0  0  0  0  0  0  0
    5.6417    1.5914   -0.2110 C   0  0  0  0  0  0  0  0  0  0  0  0
   -5.0665   -2.3210    1.5830 C   0  0  0  0  0  0  0  0  0  0  0  0
    0.0934    1.8915   -0.7323 H   0  0  0  0  0  0  0  0  0  0  0  0
   -1.2325    2.6682    1.9272 H   0  0  0  0  0  0  0  0  0  0  0  0
    0.1615    3.3654    1.1449 H   0  0  0  0  0  0  0  0  0  0  0  0
   -0.0617    0.8015    2.7262 H   0  0  0  0  0  0  0  0  0  0  0  0
    1.0695    2.1162    2.8860 H   0  0  0  0  0  0  0  0  0  0  0  0
    3.2658    1.7822    2.0440 H   0  0  0  0  0  0  0  0  0  0  0  0
   -3.1756    0.9393   -1.0674 H   0  0  0  0  0  0  0  0  0  0  0  0
    0.0703   -2.4458    1.2149 H   0  0  0  0  0  0  0  0  0  0  0  0
   -0.3669    4.0834   -1.6722 H   0  0  0  0  0  0  0  0  0  0  0  0
   -1.0844    2.7764   -2.6633 H   0  0  0  0  0  0  0  0  0  0  0  0
   -2.0487    4.2135   -2.2434 H   0  0  0  0  0  0  0  0  0  0  0  0
   -3.1253    2.5134    0.8097 H   0  0  0  0  0  0  0  0  0  0  0  0
   -2.0390   -3.1606    1.7872 H   0  0  0  0  0  0  0  0  0  0  0  0
    2.0899   -1.1708   -3.0686 H   0  0  0  0  0  0  0  0  0  0  0  0
    0.4166   -0.8236   -2.5303 H   0  0  0  0  0  0  0  0  0  0  0  0
    0.8612   -2.4535   -3.0772 H   0  0  0  0  0  0  0  0  0  0  0  0
    5.4734   -2.9946   -1.2504 H   0  0  0  0  0  0  0  0  0  0  0  0
    5.3469   -2.3432    0.3978 H   0  0  0  0  0  0  0  0  0  0  0  0
    3.9970   -3.2908   -0.3072 H   0  0  0  0  0  0  0  0  0  0  0  0
    6.7139    1.6979   -0.0250 H   0  0  0  0  0  0  0  0  0  0  0  0
    5.4951    1.3007   -1.2561 H   0  0  0  0  0  0  0  0  0  0  0  0
    5.1553    2.5526   -0.0165 H   0  0  0  0  0  0  0  0  0  0  0  0
   -4.5367   -2.2335    2.5381 H   0  0  0  0  0  0  0  0  0  0  0  0
   -5.4213   -1.3361    1.2592 H   0  0  0  0  0  0  0  0  0  0  0  0
   -5.9425   -2.9568    1.7430 H   0  0  0  0  0  0  0  0  0  0  0  0
  1 15  1  0  0  0  0
  1 26  1  0  0  0  0
  2 19  1  0  0  0  0
  2 27  1  0  0  0  0
  3 20  1  0  0  0  0
  3 28  1  0  0  0  0
  4 25  1  0  0  0  0
  4 29  1  0  0  0  0
  5 22  2  0  0  0  0
  6 23  2  0  0  0  0
  7  8  1  0  0  0  0
  7 21  1  0  0  0  0
  7 23  1  0  0  0  0
  8  9  1  0  0  0  0
  8 11  1  0  0  0  0
  8 30  1  0  0  0  0
  9 10  1  0  0  0  0
  9 31  1  0  0  0  0
  9 32  1  0  0  0  0
 10 12  1  0  0  0  0
 10 33  1  0  0  0  0
 10 34  1  0  0  0  0
 11 14  1  0  0  0  0
 11 17  2  0  0  0  0
 12 13  1  0  0  0  0
 12 16  2  0  0  0  0
 13 14  1  0  0  0  0
 13 15  2  0  0  0  0
 14 18  2  0  0  0  0
 15 19  1  0  0  0  0
 16 20  1  0  0  0  0
 16 35  1  0  0  0  0
 17 22  1  0  0  0  0
 17 36  1  0  0  0  0
 18 24  1  0  0  0  0
 18 37  1  0  0  0  0
 19 20  2  0  0  0  0
 21 38  1  0  0  0  0
 21 39  1  0  0  0  0
 21 40  1  0  0  0  0
 22 25  1  0  0  0  0
 23 41  1  0  0  0  0
 24 25  2  0  0  0  0
 24 42  1  0  0  0  0
 26 43  1  0  0  0  0
 26 44  1  0  0  0  0
 26 45  1  0  0  0  0
 27 46  1  0  0  0  0
 27 47  1  0  0  0  0
 27 48  1  0  0  0  0
 28 49  1  0  0  0  0
 28 50  1  0  0  0  0
 28 51  1  0  0  0  0
 29 52  1  0  0  0  0
 29 53  1  0  0  0  0
 29 54  1  0  0  0  0
M  END
> <PUBCHEM_COMPOUND_CID>
26819

> <PUBCHEM_CONFORMER_RMSD>
0.8

> <PUBCHEM_CONFORMER_DIVERSEORDER>
1
9
28
10
8
21
31
20
30
24
14
7
16
19
17
27
15
12
11
23
25
6
32
18
29
5
22
26
33
2
13
3
4

> <PUBCHEM_MMFF94_PARTIAL_CHARGES>
33
1 -0.36
10 0.14
11 -0.14
12 -0.14
13 0.03
14 -0.03
15 0.08
16 -0.15
17 -0.14
18 -0.15
19 0.08
2 -0.36
20 0.08
21 0.3
22 0.54
23 0.57
24 -0.15
25 0.09
26 0.28
27 0.28
28 0.28
29 0.28
3 -0.36
35 0.15
36 0.15
37 0.15
4 -0.36
41 0.06
42 0.15
5 -0.57
6 -0.57
7 -0.66
8 0.44

> <PUBCHEM_EFFECTIVE_ROTOR_COUNT>
6.6

> <PUBCHEM_PHARMACOPHORE_FEATURES>
9
1 1 acceptor
1 2 acceptor
1 3 acceptor
1 4 acceptor
1 5 acceptor
1 6 acceptor
6 12 13 15 16 19 20 rings
7 11 14 17 18 22 24 25 rings
7 8 9 10 11 12 13 14 rings

> <PUBCHEM_HEAVY_ATOM_COUNT>
29

> <PUBCHEM_ATOM_DEF_STEREO_COUNT>
1

> <PUBCHEM_ATOM_UDEF_STEREO_COUNT>
0

> <PUBCHEM_BOND_DEF_STEREO_COUNT>
0

> <PUBCHEM_BOND_UDEF_STEREO_COUNT>
0

> <PUBCHEM_ISOTOPIC_ATOM_COUNT>
0

> <PUBCHEM_COMPONENT_COUNT>
1

> <PUBCHEM_CACTVS_TAUTO_COUNT>
1

> <PUBCHEM_CONFORMER_ID>
000068C300000001

> <PUBCHEM_MMFF94_ENERGY>
145.6366

> <PUBCHEM_FEATURE_SELFOVERLAP>
45.702

> <PUBCHEM_SHAPE_FINGERPRINT>
10165383 225 17908981359159422661
10688039 33 18341325600615697155
1100329 8 17691978480332082939
11578080 2 17678148651057444221
12236239 1 15984840185333227642
12422481 6 18261658334115363571
12788726 201 18272095950494751216
13140716 1 17750784649174321498
13149001 5 17684074056647699510
13540713 4 18261114114846733146
13544653 18 18187363194791038154
140371 6 18198616631976880553
14363568 33 17762331418861253521
14840074 17 17970905557692917164
15324884 4 17831323609003580587
17357779 13 18263657190235527081
1813 80 18268696230661707459
20600515 1 18196916808517626643
20739085 24 18050560747420441409
21285901 2 18335704922786145503
21641784 216 18199453407818698412
21756936 100 16199002085739918596
22182313 1 17968679137284498592
23227448 37 18341051908136103396
23557571 272 18201159845332051530
23559900 14 18044946907695808842
2748010 2 17969242112717514616
3052486 1 18130508617060997593
3380486 145 18041001705018512831
3493558 16 16984898654378497652
4058900 60 17616527806586286697
469060 322 18058712668357250049
5104073 3 18260831535879045602
7399639 24 18118417146215108448
81228 2 18268972302511427123
9709674 26 18408326601054750154

> <PUBCHEM_SHAPE_MULTIPOLES>
556.61
9.44
4.2
1.75
5.64
2.72
-0.34
-3.68
0.05
-4.5
-0.79
-0.19
0.05
2.43

> <PUBCHEM_SHAPE_SELFOVERLAP>
1189.642

> <PUBCHEM_SHAPE_VOLUME>
305.5

> <PUBCHEM_COORDINATE_TYPE>
2
5
10

$$$$

