248989
  -OEChem-07051213072D

 33 35  0     1  0  0  0  0  0999 V2000
    2.3660    1.1830    0.0000 O   0  0  0  0  0  0  0  0  0  0  0  0
    6.8301    3.1830    0.0000 O   0  0  0  0  0  0  0  0  0  0  0  0
    2.0000   -4.1830    0.0000 O   0  5  0  0  0  0  0  0  0  0  0  0
    3.7320   -4.1830    0.0000 O   0  0  0  0  0  0  0  0  0  0  0  0
    2.8660   -3.6830    0.0000 N   0  3  0  0  0  0  0  0  0  0  0  0
    2.8660    0.3170    0.0000 C   0  0  2  0  0  0  0  0  0  0  0  0
    3.3660    1.1830    0.0000 C   0  0  2  0  0  0  0  0  0  0  0  0
    2.8660   -0.6830    0.0000 C   0  0  0  0  0  0  0  0  0  0  0  0
    4.2320    1.6830    0.0000 C   0  0  0  0  0  0  0  0  0  0  0  0
    2.0000   -1.1830    0.0000 C   0  0  0  0  0  0  0  0  0  0  0  0
    3.7320   -1.1830    0.0000 C   0  0  0  0  0  0  0  0  0  0  0  0
    5.0981    1.1830    0.0000 C   0  0  0  0  0  0  0  0  0  0  0  0
    4.2320    2.6830    0.0000 C   0  0  0  0  0  0  0  0  0  0  0  0
    2.0000   -2.1830    0.0000 C   0  0  0  0  0  0  0  0  0  0  0  0
    3.7320   -2.1830    0.0000 C   0  0  0  0  0  0  0  0  0  0  0  0
    5.9641    1.6830    0.0000 C   0  0  0  0  0  0  0  0  0  0  0  0
    5.0981    3.1830    0.0000 C   0  0  0  0  0  0  0  0  0  0  0  0
    2.8660   -2.6830    0.0000 C   0  0  0  0  0  0  0  0  0  0  0  0
    5.9641    2.6830    0.0000 C   0  0  0  0  0  0  0  0  0  0  0  0
    6.8301    4.1830    0.0000 C   0  0  0  0  0  0  0  0  0  0  0  0
    3.4649    0.1565    0.0000 H   0  0  0  0  0  0  0  0  0  0  0  0
    3.2056    1.7819    0.0000 H   0  0  0  0  0  0  0  0  0  0  0  0
    1.4631   -0.8730    0.0000 H   0  0  0  0  0  0  0  0  0  0  0  0
    4.2690   -0.8730    0.0000 H   0  0  0  0  0  0  0  0  0  0  0  0
    5.0981    0.5630    0.0000 H   0  0  0  0  0  0  0  0  0  0  0  0
    3.6951    2.9930    0.0000 H   0  0  0  0  0  0  0  0  0  0  0  0
    1.4631   -2.4930    0.0000 H   0  0  0  0  0  0  0  0  0  0  0  0
    4.2690   -2.4930    0.0000 H   0  0  0  0  0  0  0  0  0  0  0  0
    6.5010    1.3730    0.0000 H   0  0  0  0  0  0  0  0  0  0  0  0
    5.0981    3.8030    0.0000 H   0  0  0  0  0  0  0  0  0  0  0  0
    7.4501    4.1830    0.0000 H   0  0  0  0  0  0  0  0  0  0  0  0
    6.8301    4.8030    0.0000 H   0  0  0  0  0  0  0  0  0  0  0  0
    6.2101    4.1830    0.0000 H   0  0  0  0  0  0  0  0  0  0  0  0
  6  1  1  1  0  0  0
  7  1  1  1  0  0  0
  2 19  1  0  0  0  0
  2 20  1  0  0  0  0
  3  5  1  0  0  0  0
  4  5  2  0  0  0  0
  5 18  1  0  0  0  0
  6  7  1  0  0  0  0
  6  8  1  0  0  0  0
  6 21  1  0  0  0  0
  7  9  1  0  0  0  0
  7 22  1  0  0  0  0
  8 10  2  0  0  0  0
  8 11  1  0  0  0  0
  9 12  2  0  0  0  0
  9 13  1  0  0  0  0
 10 14  1  0  0  0  0
 10 23  1  0  0  0  0
 11 15  2  0  0  0  0
 11 24  1  0  0  0  0
 12 16  1  0  0  0  0
 12 25  1  0  0  0  0
 13 17  2  0  0  0  0
 13 26  1  0  0  0  0
 14 18  2  0  0  0  0
 14 27  1  0  0  0  0
 15 18  1  0  0  0  0
 15 28  1  0  0  0  0
 16 19  2  0  0  0  0
 16 29  1  0  0  0  0
 17 19  1  0  0  0  0
 17 30  1  0  0  0  0
 20 31  1  0  0  0  0
 20 32  1  0  0  0  0
 20 33  1  0  0  0  0
M  CHG  2   3  -1   5   1
M  END
> <PUBCHEM_COMPOUND_CID>
248989

> <PUBCHEM_COMPOUND_CANONICALIZED>
1

> <PUBCHEM_CACTVS_COMPLEXITY>
340

> <PUBCHEM_CACTVS_HBOND_ACCEPTOR>
4

> <PUBCHEM_CACTVS_HBOND_DONOR>
0

> <PUBCHEM_CACTVS_ROTATABLE_BOND>
3

> <PUBCHEM_CACTVS_SUBSKEYS>
AAADccByOAAAAAAAAAAAAAAAEgAAAAAAAAAwYAAAAAAAAAABQAAAHgAEAAAADByhmAIyxoAQRACBAiRCQwCCCAAgIgAoiAAGbIoMJiKEsZuCMCBkwBEI6AeQ8O0OKAAAAAAAAABQAAAAAAAAAAAAAAAAAA==

> <PUBCHEM_IUPAC_OPENEYE_NAME>
(2S,3S)-2-(4-methoxyphenyl)-3-(4-nitrophenyl)oxirane

> <PUBCHEM_IUPAC_CAS_NAME>
(2S,3S)-2-(4-methoxyphenyl)-3-(4-nitrophenyl)oxirane

> <PUBCHEM_IUPAC_NAME>
(2S,3S)-2-(4-methoxyphenyl)-3-(4-nitrophenyl)oxirane

> <PUBCHEM_IUPAC_SYSTEMATIC_NAME>
(2S,3S)-2-(4-methoxyphenyl)-3-(4-nitrophenyl)oxirane

> <PUBCHEM_IUPAC_TRADITIONAL_NAME>
(2S,3S)-2-(4-methoxyphenyl)-3-(4-nitrophenyl)oxirane

> <PUBCHEM_IUPAC_INCHI>
InChI=1S/C15H13NO4/c1-19-13-8-4-11(5-9-13)15-14(20-15)10-2-6-12(7-3-10)16(17)18/h2-9,14-15H,1H3/t14-,15-/m0/s1

> <PUBCHEM_IUPAC_INCHIKEY>
CTPLJPLKYKCNAY-GJZGRUSLSA-N

> <PUBCHEM_XLOGP3_AA>
2.7

> <PUBCHEM_EXACT_MASS>
271.084458

> <PUBCHEM_MOLECULAR_FORMULA>
C15H13NO4

> <PUBCHEM_MOLECULAR_WEIGHT>
271.26802

> <PUBCHEM_OPENEYE_CAN_SMILES>
COC1=CC=C(C=C1)C2C(O2)C3=CC=C(C=C3)[N+](=O)[O-]

> <PUBCHEM_OPENEYE_ISO_SMILES>
COC1=CC=C(C=C1)[C@H]2[C@@H](O2)C3=CC=C(C=C3)[N+](=O)[O-]

> <PUBCHEM_CACTVS_TPSA>
67.6

> <PUBCHEM_MONOISOTOPIC_WEIGHT>
271.084458

> <PUBCHEM_TOTAL_CHARGE>
0

> <PUBCHEM_HEAVY_ATOM_COUNT>
20

> <PUBCHEM_ATOM_DEF_STEREO_COUNT>
2

> <PUBCHEM_ATOM_UDEF_STEREO_COUNT>
0

> <PUBCHEM_BOND_DEF_STEREO_COUNT>
0

> <PUBCHEM_BOND_UDEF_STEREO_COUNT>
0

> <PUBCHEM_ISOTOPIC_ATOM_COUNT>
0

> <PUBCHEM_COMPONENT_COUNT>
1

> <PUBCHEM_CACTVS_TAUTO_COUNT>
1

> <PUBCHEM_COORDINATE_TYPE>
1
5
255

> <PUBCHEM_BONDANNOTATIONS>
6  1  5
7  1  5
10  14  8
11  15  8
12  16  8
13  17  8
14  18  8
15  18  8
16  19  8
17  19  8
8  10  8
8  11  8
9  12  8
9  13  8

$$$$

