3921
  -OEChem-06251223463D

 25 25  0     0  0  0  0  0  0999 V2000
   -1.7174   -3.1029    0.9590 Br  0  0  0  0  0  0  0  0  0  0  0  0
   -3.7551    2.8542   -0.9439 Br  0  0  0  0  0  0  0  0  0  0  0  0
    0.8491    1.2885    1.0762 O   0  0  0  0  0  0  0  0  0  0  0  0
    3.2649    2.0919    0.5460 O   0  0  0  0  0  0  0  0  0  0  0  0
    0.0435   -0.6652   -0.0062 N   0  0  0  0  0  0  0  0  0  0  0  0
    2.9906   -2.0144   -1.6612 N   0  0  0  0  0  0  0  0  0  0  0  0
   -1.3423   -0.4044    0.0038 C   0  0  0  0  0  0  0  0  0  0  0  0
   -2.2657   -1.3728    0.4032 C   0  0  0  0  0  0  0  0  0  0  0  0
   -1.7888    0.8562   -0.3977 C   0  0  0  0  0  0  0  0  0  0  0  0
    1.1151    0.1465    0.3233 C   0  0  0  0  0  0  0  0  0  0  0  0
   -3.1529    1.1473   -0.4000 C   0  0  0  0  0  0  0  0  0  0  0  0
   -3.6300   -1.0818    0.4009 C   0  0  0  0  0  0  0  0  0  0  0  0
   -4.0735    0.1783   -0.0008 C   0  0  0  0  0  0  0  0  0  0  0  0
    2.3853   -0.0357   -0.1040 C   0  0  0  0  0  0  0  0  0  0  0  0
    3.4816    0.9019    0.3223 C   0  0  0  0  0  0  0  0  0  0  0  0
    4.8774    0.3409    0.4419 C   0  0  0  0  0  0  0  0  0  0  0  0
    2.7180   -1.1286   -0.9628 C   0  0  0  0  0  0  0  0  0  0  0  0
    0.2833   -1.6109   -0.2882 H   0  0  0  0  0  0  0  0  0  0  0  0
   -1.0824    1.6134   -0.7308 H   0  0  0  0  0  0  0  0  0  0  0  0
   -4.3625   -1.8237    0.7087 H   0  0  0  0  0  0  0  0  0  0  0  0
   -5.1398    0.3890    0.0031 H   0  0  0  0  0  0  0  0  0  0  0  0
    5.3561    0.3277   -0.5404 H   0  0  0  0  0  0  0  0  0  0  0  0
    5.4611    0.9718    1.1191 H   0  0  0  0  0  0  0  0  0  0  0  0
    4.8545   -0.6659    0.8678 H   0  0  0  0  0  0  0  0  0  0  0  0
   -0.0184    1.1578    1.4933 H   0  0  0  0  0  0  0  0  0  0  0  0
  1  8  1  0  0  0  0
  2 11  1  0  0  0  0
  3 10  1  0  0  0  0
  3 25  1  0  0  0  0
  4 15  2  0  0  0  0
  5  7  1  0  0  0  0
  5 10  1  0  0  0  0
  5 18  1  0  0  0  0
  6 17  3  0  0  0  0
  7  8  2  0  0  0  0
  7  9  1  0  0  0  0
  8 12  1  0  0  0  0
  9 11  2  0  0  0  0
  9 19  1  0  0  0  0
 10 14  2  0  0  0  0
 11 13  1  0  0  0  0
 12 13  2  0  0  0  0
 12 20  1  0  0  0  0
 13 21  1  0  0  0  0
 14 15  1  0  0  0  0
 14 17  1  0  0  0  0
 15 16  1  0  0  0  0
 16 22  1  0  0  0  0
 16 23  1  0  0  0  0
 16 24  1  0  0  0  0
M  END
> <PUBCHEM_COMPOUND_CID>
3921

> <PUBCHEM_CONFORMER_RMSD>
0.6

> <PUBCHEM_CONFORMER_DIVERSEORDER>
3
33
11
31
24
40
41
30
18
32
42
38
8
37
43
6
20
44
35
28
4
45
34
23
15
19
22
16
17
10
7
29
26
21
39
25
9
12
27
14
13
5
1
36
2

> <PUBCHEM_MMFF94_PARTIAL_CHARGES>
22
1 -0.11
10 0.18
11 0.11
12 -0.15
13 -0.15
14 0.08
15 0.49
16 0.06
17 0.49
18 0.4
19 0.15
2 -0.11
20 0.15
21 0.15
25 0.45
3 -0.53
4 -0.57
5 -0.6
6 -0.56
7 0.1
8 0.11
9 -0.15

> <PUBCHEM_EFFECTIVE_ROTOR_COUNT>
3

> <PUBCHEM_PHARMACOPHORE_FEATURES>
8
1 1 hydrophobe
1 2 hydrophobe
1 3 donor
1 4 acceptor
1 5 cation
1 5 donor
1 6 acceptor
6 7 8 9 11 12 13 rings

> <PUBCHEM_HEAVY_ATOM_COUNT>
17

> <PUBCHEM_ATOM_DEF_STEREO_COUNT>
0

> <PUBCHEM_ATOM_UDEF_STEREO_COUNT>
0

> <PUBCHEM_BOND_DEF_STEREO_COUNT>
0

> <PUBCHEM_BOND_UDEF_STEREO_COUNT>
1

> <PUBCHEM_ISOTOPIC_ATOM_COUNT>
0

> <PUBCHEM_COMPONENT_COUNT>
1

> <PUBCHEM_CACTVS_TAUTO_COUNT>
8

> <PUBCHEM_CONFORMER_ID>
00000F5100000003

> <PUBCHEM_MMFF94_ENERGY>
49.6009

> <PUBCHEM_FEATURE_SELFOVERLAP>
40.63

> <PUBCHEM_SHAPE_FINGERPRINT>
10498660 4 18129389357390353621
10608611 8 18410014329554269749
10646746 165 18343024401888889860
10922523 26 18409163307459153013
12173636 292 18272092733912347357
12236239 1 16343986896670146255
12500047 106 18341900700794007362
13544592 145 18338508771957935822
14178342 30 17988925539607590914
14251757 17 18335699511074319019
15042514 8 18057881351889390539
15219456 202 18334009505852171110
15375358 24 18334858303301759266
1741750 31 18271812379785249369
18186145 218 18337385071137359593
19049666 15 18336260223355268147
200 152 17168144520356292235
20279233 1 18335696122445660886
20510252 161 18410855465130251537
20645477 56 18412541016181221321
20645477 70 17531241807438132342
20671657 1 17766287848724485083
20693207 138 18189875626253022206
21065198 57 18341898463596081272
22943178 12 18408037420447963023
23402539 116 18341907254908846022
23526113 38 18187085057125255715
23557571 272 18412822478046391332
23559900 14 18262800804180457726
4214541 1 18341617018320404600
6049 1 18337090316000580366
633830 44 18191032398764459949
81228 2 18127968616663215187
9709674 26 18408318861149656182

> <PUBCHEM_SHAPE_MULTIPOLES>
340.04
8.86
2.94
1.04
4.57
0.63
0.27
-3.41
0.42
-2.77
-0.09
0.69
0.23
2.05

> <PUBCHEM_SHAPE_SELFOVERLAP>
678.553

> <PUBCHEM_SHAPE_VOLUME>
204.7

> <PUBCHEM_COORDINATE_TYPE>
2
5
10

$$$$

