11627
  -OEChem-06261205553D

 26 25  0     0  0  0  0  0  0999 V2000
   -4.6212   -0.9359   -0.1523 F   0  0  0  0  0  0  0  0  0  0  0  0
    4.6389    0.9010    0.2788 F   0  0  0  0  0  0  0  0  0  0  0  0
   -0.5890    0.4578   -0.2788 C   0  0  0  0  0  0  0  0  0  0  0  0
    0.5605   -0.4362    0.1916 C   0  0  0  0  0  0  0  0  0  0  0  0
   -1.9316   -0.0332    0.2679 C   0  0  0  0  0  0  0  0  0  0  0  0
    1.9381    0.0507   -0.2671 C   0  0  0  0  0  0  0  0  0  0  0  0
   -3.0863    0.8397   -0.2267 C   0  0  0  0  0  0  0  0  0  0  0  0
    3.0849   -0.8585    0.1802 C   0  0  0  0  0  0  0  0  0  0  0  0
   -4.4253    0.3363    0.2843 C   0  0  0  0  0  0  0  0  0  0  0  0
    4.4310   -0.3216   -0.2779 C   0  0  0  0  0  0  0  0  0  0  0  0
   -0.4127    1.4878    0.0535 H   0  0  0  0  0  0  0  0  0  0  0  0
   -0.6153    0.4709   -1.3749 H   0  0  0  0  0  0  0  0  0  0  0  0
    0.3983   -1.4563   -0.1781 H   0  0  0  0  0  0  0  0  0  0  0  0
    0.5515   -0.4919    1.2873 H   0  0  0  0  0  0  0  0  0  0  0  0
   -1.9089   -0.0255    1.3644 H   0  0  0  0  0  0  0  0  0  0  0  0
   -2.0941   -1.0719   -0.0446 H   0  0  0  0  0  0  0  0  0  0  0  0
    2.1036    1.0637    0.1201 H   0  0  0  0  0  0  0  0  0  0  0  0
    1.9445    0.1260   -1.3616 H   0  0  0  0  0  0  0  0  0  0  0  0
   -2.9386    1.8770    0.0940 H   0  0  0  0  0  0  0  0  0  0  0  0
   -3.0990    0.8282   -1.3229 H   0  0  0  0  0  0  0  0  0  0  0  0
    2.9381   -1.8684   -0.2183 H   0  0  0  0  0  0  0  0  0  0  0  0
    3.0805   -0.9265    1.2742 H   0  0  0  0  0  0  0  0  0  0  0  0
   -4.4632    0.3300    1.3776 H   0  0  0  0  0  0  0  0  0  0  0  0
   -5.2451    0.9533   -0.0944 H   0  0  0  0  0  0  0  0  0  0  0  0
    5.2426   -0.9799    0.0443 H   0  0  0  0  0  0  0  0  0  0  0  0
    4.4746   -0.2128   -1.3655 H   0  0  0  0  0  0  0  0  0  0  0  0
  1  9  1  0  0  0  0
  2 10  1  0  0  0  0
  3  4  1  0  0  0  0
  3  5  1  0  0  0  0
  3 11  1  0  0  0  0
  3 12  1  0  0  0  0
  4  6  1  0  0  0  0
  4 13  1  0  0  0  0
  4 14  1  0  0  0  0
  5  7  1  0  0  0  0
  5 15  1  0  0  0  0
  5 16  1  0  0  0  0
  6  8  1  0  0  0  0
  6 17  1  0  0  0  0
  6 18  1  0  0  0  0
  7  9  1  0  0  0  0
  7 19  1  0  0  0  0
  7 20  1  0  0  0  0
  8 10  1  0  0  0  0
  8 21  1  0  0  0  0
  8 22  1  0  0  0  0
  9 23  1  0  0  0  0
  9 24  1  0  0  0  0
 10 25  1  0  0  0  0
 10 26  1  0  0  0  0
M  END
> <PUBCHEM_COMPOUND_CID>
11627

> <PUBCHEM_CONFORMER_RMSD>
0.6

> <PUBCHEM_CONFORMER_DIVERSEORDER>
1
20
136
137
72
2
77
120
186
167
8
115
93
38
24
50
30
105
11
103
160
91
157
49
40
107
127
70
41
139
138
122
174
151
130
9
39
83
126
148
13
152
179
142
146
21
36
185
5
19
65
117
189
119
55
48
25
172
147
156
184
104
171
6
63
150
187
29
177
110
169
99
17
73
118
140
178
88
85
44
81
154
86
37
108
58
57
109
163
35
60
52
149
131
53
59
170
12
33
23
129
183
14
82
4
181
113
56
15
175
34
144
121
18
164
27
125
47
116
168
94
84
145
155
158
10
45
135
166
16
106
153
76
28
162
61
3
79
173
42
89
101
133
123
46
141
71
159
22
87
102
98
74
176
112
75
7
188
97
67
134
128
62
165
54
26
68
111
132
114
143
69
92
51
100
180
66
161
80
64
78
124
182
43
31
95
90
96
32

> <PUBCHEM_MMFF94_PARTIAL_CHARGES>
4
1 -0.34
10 0.34
2 -0.34
9 0.34

> <PUBCHEM_EFFECTIVE_ROTOR_COUNT>
7

> <PUBCHEM_PHARMACOPHORE_FEATURES>
2
3 3 5 7 hydrophobe
3 4 6 8 hydrophobe

> <PUBCHEM_HEAVY_ATOM_COUNT>
10

> <PUBCHEM_ATOM_DEF_STEREO_COUNT>
0

> <PUBCHEM_ATOM_UDEF_STEREO_COUNT>
0

> <PUBCHEM_BOND_DEF_STEREO_COUNT>
0

> <PUBCHEM_BOND_UDEF_STEREO_COUNT>
0

> <PUBCHEM_ISOTOPIC_ATOM_COUNT>
0

> <PUBCHEM_COMPONENT_COUNT>
1

> <PUBCHEM_CACTVS_TAUTO_COUNT>
1

> <PUBCHEM_CONFORMER_ID>
00002D6B00000001

> <PUBCHEM_MMFF94_ENERGY>
-1.2499

> <PUBCHEM_FEATURE_SELFOVERLAP>
10.149

> <PUBCHEM_SHAPE_FINGERPRINT>
11062470 55 18410292531855324768
114248 4 18408886230555333546
14123238 8 18412262835016996422
17834072 33 18334295327430672364
17834076 25 15357697495870363597
18342897 14 17676486168164681073
190213 19 16200426992020499915
20645477 70 18336262465966922526
20719005 15 18412544323131835958
20767249 13 16415480449811808810
20828058 21 18113335331824258308
21119208 17 8646767794015373028
22485316 2 18342741844617194459
23402539 116 17775008998651335895
42788 4 18408322202707584625
449060 50 18260829297778772164

> <PUBCHEM_SHAPE_MULTIPOLES>
191.25
10.73
0.92
0.65
0.13
0.01
0
0.04
-0.19
-0.02
0
0.02
-0.01
0.05

> <PUBCHEM_SHAPE_SELFOVERLAP>
339.651

> <PUBCHEM_SHAPE_VOLUME>
124.3

> <PUBCHEM_COORDINATE_TYPE>
2
5
10

$$$$

