6419424
  -OEChem-07051212453D

 60 62  0     1  0  0  0  0  0999 V2000
   -3.9519    1.2564    2.4907 O   0  0  0  0  0  0  0  0  0  0  0  0
   -5.9448   -0.8789    0.2142 O   0  0  0  0  0  0  0  0  0  0  0  0
   -5.6149   -2.9575    1.0564 O   0  0  0  0  0  0  0  0  0  0  0  0
   -1.6530    3.3780   -1.8902 O   0  0  0  0  0  0  0  0  0  0  0  0
   -0.3185   -4.7242   -2.2465 O   0  0  0  0  0  0  0  0  0  0  0  0
    4.8441    1.1668   -0.4879 O   0  0  0  0  0  0  0  0  0  0  0  0
   -1.3951    5.7196    0.1090 O   0  0  0  0  0  0  0  0  0  0  0  0
    4.9578   -2.1769    2.6272 O   0  0  0  0  0  0  0  0  0  0  0  0
    4.0442   -3.4958    1.0248 O   0  0  0  0  0  0  0  0  0  0  0  0
   -3.5249   -0.0720    0.5953 N   0  0  0  0  0  0  0  0  0  0  0  0
   -1.9450    2.6355    0.3157 N   0  0  0  0  0  0  0  0  0  0  0  0
   -0.0939    5.2108    0.1325 N   0  0  0  0  0  0  0  0  0  0  0  0
    6.0425   -3.0233   -0.7220 N   0  0  0  0  0  0  0  0  0  0  0  0
   -3.2211    1.9236    0.1367 C   0  0  1  0  0  0  0  0  0  0  0  0
   -3.1130    0.5920   -0.6304 C   0  0  0  0  0  0  0  0  0  0  0  0
   -3.6432    1.0602    1.3376 C   0  0  0  0  0  0  0  0  0  0  0  0
   -3.7156   -1.4563    0.8888 C   0  0  2  0  0  0  0  0  0  0  0  0
   -2.8088   -2.3280    0.0524 C   0  0  0  0  0  0  0  0  0  0  0  0
   -5.1752   -1.8543    0.7551 C   0  0  0  0  0  0  0  0  0  0  0  0
   -1.3085    3.2817   -0.7233 C   0  0  0  0  0  0  0  0  0  0  0  0
   -3.2678   -2.8549   -1.1547 C   0  0  0  0  0  0  0  0  0  0  0  0
   -1.5127   -2.6063    0.4869 C   0  0  0  0  0  0  0  0  0  0  0  0
   -0.0198    3.9656   -0.2877 C   0  0  0  0  0  0  0  0  0  0  0  0
   -2.4310   -3.6600   -1.9275 C   0  0  0  0  0  0  0  0  0  0  0  0
   -0.6759   -3.4115   -0.2857 C   0  0  0  0  0  0  0  0  0  0  0  0
   -1.1350   -3.9382   -1.4930 C   0  0  0  0  0  0  0  0  0  0  0  0
    1.2399    3.2405   -0.3385 C   0  0  0  0  0  0  0  0  0  0  0  0
    2.4215    3.8660    0.0595 C   0  0  0  0  0  0  0  0  0  0  0  0
    1.2666    1.9196   -0.7860 C   0  0  0  0  0  0  0  0  0  0  0  0
    6.0687   -0.7662    0.3320 C   0  0  0  0  0  0  0  0  0  0  0  0
    3.6562    1.8497   -0.4373 C   0  0  0  0  0  0  0  0  0  0  0  0
    4.7839   -0.2398   -0.3037 C   0  0  0  0  0  0  0  0  0  0  0  0
    6.1121   -2.2879    0.5404 C   0  0  1  0  0  0  0  0  0  0  0  0
    3.6296    3.1706    0.0101 C   0  0  0  0  0  0  0  0  0  0  0  0
    2.4746    1.2242   -0.8354 C   0  0  0  0  0  0  0  0  0  0  0  0
    4.9281   -2.7289    1.3846 C   0  0  0  0  0  0  0  0  0  0  0  0
   -4.0204    2.5884   -0.2086 H   0  0  0  0  0  0  0  0  0  0  0  0
   -3.8277    0.4723   -1.4496 H   0  0  0  0  0  0  0  0  0  0  0  0
   -2.1097    0.3113   -0.9639 H   0  0  0  0  0  0  0  0  0  0  0  0
   -3.4873   -1.5860    1.9552 H   0  0  0  0  0  0  0  0  0  0  0  0
   -1.5098    2.6668    1.2348 H   0  0  0  0  0  0  0  0  0  0  0  0
   -4.2646   -2.6417   -1.5300 H   0  0  0  0  0  0  0  0  0  0  0  0
   -1.1432   -2.1996    1.4245 H   0  0  0  0  0  0  0  0  0  0  0  0
   -2.7989   -4.0610   -2.8681 H   0  0  0  0  0  0  0  0  0  0  0  0
    0.3330   -3.6237    0.0575 H   0  0  0  0  0  0  0  0  0  0  0  0
   -6.8782   -1.1626    0.1122 H   0  0  0  0  0  0  0  0  0  0  0  0
    2.4321    4.8937    0.4122 H   0  0  0  0  0  0  0  0  0  0  0  0
    0.3702    1.4008   -1.1121 H   0  0  0  0  0  0  0  0  0  0  0  0
    6.9222   -0.4560   -0.2855 H   0  0  0  0  0  0  0  0  0  0  0  0
    6.2148   -0.2548    1.2926 H   0  0  0  0  0  0  0  0  0  0  0  0
    4.6309   -0.7087   -1.2824 H   0  0  0  0  0  0  0  0  0  0  0  0
    3.9499   -0.5108    0.3553 H   0  0  0  0  0  0  0  0  0  0  0  0
    7.0330   -2.5727    1.0612 H   0  0  0  0  0  0  0  0  0  0  0  0
    4.5472    3.6626    0.3210 H   0  0  0  0  0  0  0  0  0  0  0  0
    2.4553    0.2079   -1.2178 H   0  0  0  0  0  0  0  0  0  0  0  0
   -0.7979   -5.0009   -3.0464 H   0  0  0  0  0  0  0  0  0  0  0  0
    6.8166   -2.7421   -1.3225 H   0  0  0  0  0  0  0  0  0  0  0  0
    6.1669   -4.0196   -0.5453 H   0  0  0  0  0  0  0  0  0  0  0  0
   -1.2577    6.6219    0.4434 H   0  0  0  0  0  0  0  0  0  0  0  0
    4.1952   -2.4652    3.1729 H   0  0  0  0  0  0  0  0  0  0  0  0
  1 16  2  0  0  0  0
  2 19  1  0  0  0  0
  2 46  1  0  0  0  0
  3 19  2  0  0  0  0
  4 20  2  0  0  0  0
  5 26  1  0  0  0  0
  5 56  1  0  0  0  0
  6 31  1  0  0  0  0
  6 32  1  0  0  0  0
  7 12  1  0  0  0  0
  7 59  1  0  0  0  0
  8 36  1  0  0  0  0
  8 60  1  0  0  0  0
  9 36  2  0  0  0  0
 10 15  1  0  0  0  0
 10 16  1  0  0  0  0
 10 17  1  0  0  0  0
 11 14  1  0  0  0  0
 11 20  1  0  0  0  0
 11 41  1  0  0  0  0
 12 23  2  0  0  0  0
 13 33  1  0  0  0  0
 13 57  1  0  0  0  0
 13 58  1  0  0  0  0
 14 15  1  0  0  0  0
 14 16  1  0  0  0  0
 14 37  1  0  0  0  0
 15 38  1  0  0  0  0
 15 39  1  0  0  0  0
 17 18  1  0  0  0  0
 17 19  1  0  0  0  0
 17 40  1  0  0  0  0
 18 21  2  0  0  0  0
 18 22  1  0  0  0  0
 20 23  1  0  0  0  0
 21 24  1  0  0  0  0
 21 42  1  0  0  0  0
 22 25  2  0  0  0  0
 22 43  1  0  0  0  0
 23 27  1  0  0  0  0
 24 26  2  0  0  0  0
 24 44  1  0  0  0  0
 25 26  1  0  0  0  0
 25 45  1  0  0  0  0
 27 28  2  0  0  0  0
 27 29  1  0  0  0  0
 28 34  1  0  0  0  0
 28 47  1  0  0  0  0
 29 35  2  0  0  0  0
 29 48  1  0  0  0  0
 30 32  1  0  0  0  0
 30 33  1  0  0  0  0
 30 49  1  0  0  0  0
 30 50  1  0  0  0  0
 31 34  2  0  0  0  0
 31 35  1  0  0  0  0
 32 51  1  0  0  0  0
 32 52  1  0  0  0  0
 33 36  1  0  0  0  0
 33 53  1  0  0  0  0
 34 54  1  0  0  0  0
 35 55  1  0  0  0  0
M  END
> <PUBCHEM_COMPOUND_CID>
6419424

> <PUBCHEM_CONFORMER_RMSD>
1.2

> <PUBCHEM_CONFORMER_DIVERSEORDER>
1
8
3
42
53
51
15
44
33
30
34
36
50
27
12
19
48
18
46
23
11
32
47
43
2
10
26
52
31
21
4
41
6
25
38
49
37
28
13
14
20
24
40
22
17
35
5
7
16
29
9
39
45

> <PUBCHEM_MMFF94_PARTIAL_CHARGES>
50
1 -0.57
10 -0.59
11 -0.65
12 -0.51
13 -0.99
14 0.28
15 0.22
16 0.58
17 0.5
18 -0.14
19 0.66
2 -0.65
20 0.63
21 -0.15
22 -0.15
23 0.36
24 -0.15
25 -0.15
26 0.08
27 0.09
28 -0.15
29 -0.15
3 -0.57
31 0.08
32 0.28
33 0.33
34 -0.15
35 -0.15
36 0.66
4 -0.57
41 0.37
42 0.15
43 0.15
44 0.15
45 0.15
46 0.5
47 0.15
48 0.15
5 -0.53
54 0.15
55 0.15
56 0.45
57 0.36
58 0.36
59 0.4
6 -0.36
60 0.5
7 -0.34
8 -0.65
9 -0.57

> <PUBCHEM_EFFECTIVE_ROTOR_COUNT>
12.6

> <PUBCHEM_PHARMACOPHORE_FEATURES>
18
1 1 acceptor
1 11 donor
1 12 acceptor
1 13 cation
1 13 donor
1 2 acceptor
1 3 acceptor
1 4 acceptor
1 5 donor
1 6 acceptor
1 7 anion
1 8 acceptor
1 9 acceptor
3 2 3 19 anion
3 8 9 36 anion
4 10 14 15 16 rings
6 18 21 22 24 25 26 rings
6 27 28 29 31 34 35 rings

> <PUBCHEM_HEAVY_ATOM_COUNT>
36

> <PUBCHEM_ATOM_DEF_STEREO_COUNT>
3

> <PUBCHEM_ATOM_UDEF_STEREO_COUNT>
0

> <PUBCHEM_BOND_DEF_STEREO_COUNT>
1

> <PUBCHEM_BOND_UDEF_STEREO_COUNT>
0

> <PUBCHEM_ISOTOPIC_ATOM_COUNT>
0

> <PUBCHEM_COMPONENT_COUNT>
1

> <PUBCHEM_CACTVS_TAUTO_COUNT>
10

> <PUBCHEM_CONFORMER_ID>
0061F3E000000001

> <PUBCHEM_MMFF94_ENERGY>
86.36

> <PUBCHEM_FEATURE_SELFOVERLAP>
91.458

> <PUBCHEM_SHAPE_FINGERPRINT>
10462674 296 18046356236763634542
10622 236 17971764263679972039
10928967 22 18267289946552433804
13165053 137 18410847798487827139
14117953 113 18337114574740519239
14950920 106 18040148518044686368
15001296 14 18201442514737022984
15064986 96 18050826000633145593
15250474 111 17326048448045076037
15274700 232 17040913738672306438
15320291 9 17187010791849822874
15320467 1 17835236745054117458
16628084 112 18120939409142192327
20764821 26 18336254721618226694
208703 8 18343586231040808146
21049683 118 15509904042314267651
229767 44 18334010588358431806
3246872 21 18194122906996216838
325973 47 17473827702712008902
44880168 125 17676478467573572518
50080093 196 17907028279164540290
56638632 33 18043811979356331649
7970288 3 18341328916241012712

> <PUBCHEM_SHAPE_MULTIPOLES>
668.12
13.4
8.48
1.62
10.1
4.16
0.23
-12.36
4.85
1.57
-2.02
-0.54
-1.4
-2.65

> <PUBCHEM_SHAPE_SELFOVERLAP>
1421.251

> <PUBCHEM_SHAPE_VOLUME>
368.9

> <PUBCHEM_COORDINATE_TYPE>
2
5
10

$$$$

