2396
  -OEChem-07051213012D

 55 59  0     0  0  0  0  0  0999 V2000
    7.6224    0.9978    0.0000 O   0  0  0  0  0  0  0  0  0  0  0  0
    5.5582    3.8492    0.0000 O   0  0  0  0  0  0  0  0  0  0  0  0
    5.5521   -1.2804    0.0000 N   0  0  0  0  0  0  0  0  0  0  0  0
    6.8161    2.5870    0.0000 N   0  0  0  0  0  0  0  0  0  0  0  0
    8.1305   -3.5939    0.0000 N   0  0  0  0  0  0  0  0  0  0  0  0
    2.7457    1.5940    0.0000 N   0  0  0  0  0  0  0  0  0  0  0  0
    5.5521    0.3291    0.0000 C   0  0  0  0  0  0  0  0  0  0  0  0
    4.6059   -0.9757    0.0000 C   0  0  0  0  0  0  0  0  0  0  0  0
    5.8628   -2.2309    0.0000 C   0  0  0  0  0  0  0  0  0  0  0  0
    4.6059    0.0243    0.0000 C   0  0  0  0  0  0  0  0  0  0  0  0
    5.8628    1.2796    0.0000 C   0  0  0  0  0  0  0  0  0  0  0  0
    6.1358   -0.4757    0.0000 C   0  0  0  0  0  0  0  0  0  0  0  0
    6.8413   -2.4371    0.0000 C   0  0  0  0  0  0  0  0  0  0  0  0
    5.2764    2.0896    0.0000 C   0  0  0  0  0  0  0  0  0  0  0  0
    7.1520   -3.3876    0.0000 C   0  0  0  0  0  0  0  0  0  0  0  0
    4.2764    2.0914    0.0000 C   0  0  0  0  0  0  0  0  0  0  0  0
    3.7399   -1.4756    0.0000 C   0  0  0  0  0  0  0  0  0  0  0  0
    3.7399    0.5243    0.0000 C   0  0  0  0  0  0  0  0  0  0  0  0
    6.8144    1.5870    0.0000 C   0  0  0  0  0  0  0  0  0  0  0  0
    3.6942    2.8971    0.0000 C   0  0  0  0  0  0  0  0  0  0  0  0
    5.8656    2.8976    0.0000 C   0  0  0  0  0  0  0  0  0  0  0  0
    2.7431    2.5881    0.0000 C   0  0  0  0  0  0  0  0  0  0  0  0
    3.6914    1.2876    0.0000 C   0  0  0  0  0  0  0  0  0  0  0  0
    2.8739   -0.9757    0.0000 C   0  0  0  0  0  0  0  0  0  0  0  0
    2.8739    0.0243    0.0000 C   0  0  0  0  0  0  0  0  0  0  0  0
    3.9021    3.8752    0.0000 C   0  0  0  0  0  0  0  0  0  0  0  0
    2.0000    3.2572    0.0000 C   0  0  0  0  0  0  0  0  0  0  0  0
    8.4411   -4.5444    0.0000 C   0  0  0  0  0  0  0  0  0  0  0  0
    8.7983   -2.8496    0.0000 C   0  0  0  0  0  0  0  0  0  0  0  0
    3.1590    4.5444    0.0000 C   0  0  0  0  0  0  0  0  0  0  0  0
    2.2079    4.2354    0.0000 C   0  0  0  0  0  0  0  0  0  0  0  0
    5.2490   -2.3182    0.0000 H   0  0  0  0  0  0  0  0  0  0  0  0
    5.8422   -2.8506    0.0000 H   0  0  0  0  0  0  0  0  0  0  0  0
    6.7558   -0.4757    0.0000 H   0  0  0  0  0  0  0  0  0  0  0  0
    7.4551   -2.3498    0.0000 H   0  0  0  0  0  0  0  0  0  0  0  0
    6.8619   -1.8175    0.0000 H   0  0  0  0  0  0  0  0  0  0  0  0
    6.5382   -3.4750    0.0000 H   0  0  0  0  0  0  0  0  0  0  0  0
    7.1314   -4.0073    0.0000 H   0  0  0  0  0  0  0  0  0  0  0  0
    3.7399   -2.0956    0.0000 H   0  0  0  0  0  0  0  0  0  0  0  0
    3.7399    1.1444    0.0000 H   0  0  0  0  0  0  0  0  0  0  0  0
    7.3183    2.9505    0.0000 H   0  0  0  0  0  0  0  0  0  0  0  0
    3.8830    0.6980    0.0000 H   0  0  0  0  0  0  0  0  0  0  0  0
    2.3369   -1.2856    0.0000 H   0  0  0  0  0  0  0  0  0  0  0  0
    2.3369    0.3343    0.0000 H   0  0  0  0  0  0  0  0  0  0  0  0
    2.2448    1.2287    0.0000 H   0  0  0  0  0  0  0  0  0  0  0  0
    4.4918    4.0668    0.0000 H   0  0  0  0  0  0  0  0  0  0  0  0
    1.4103    3.0656    0.0000 H   0  0  0  0  0  0  0  0  0  0  0  0
    7.8518   -4.7370    0.0000 H   0  0  0  0  0  0  0  0  0  0  0  0
    9.2598   -3.2636    0.0000 H   0  0  0  0  0  0  0  0  0  0  0  0
    9.2124   -2.3881    0.0000 H   0  0  0  0  0  0  0  0  0  0  0  0
    8.3368   -2.4355    0.0000 H   0  0  0  0  0  0  0  0  0  0  0  0
    8.6337   -5.1337    0.0000 H   0  0  0  0  0  0  0  0  0  0  0  0
    9.0305   -4.3518    0.0000 H   0  0  0  0  0  0  0  0  0  0  0  0
    3.2879    5.1508    0.0000 H   0  0  0  0  0  0  0  0  0  0  0  0
    1.7472    4.6502    0.0000 H   0  0  0  0  0  0  0  0  0  0  0  0
  1 19  2  0  0  0  0
  2 21  2  0  0  0  0
  3  8  1  0  0  0  0
  3  9  1  0  0  0  0
  3 12  1  0  0  0  0
  4 19  1  0  0  0  0
  4 21  1  0  0  0  0
  4 41  1  0  0  0  0
  5 15  1  0  0  0  0
  5 28  1  0  0  0  0
  5 29  1  0  0  0  0
  6 22  1  0  0  0  0
  6 23  1  0  0  0  0
  6 45  1  0  0  0  0
  7 10  1  0  0  0  0
  7 11  1  0  0  0  0
  7 12  2  0  0  0  0
  8 10  1  0  0  0  0
  8 17  2  0  0  0  0
  9 13  1  0  0  0  0
  9 32  1  0  0  0  0
  9 33  1  0  0  0  0
 10 18  2  0  0  0  0
 11 14  2  0  0  0  0
 11 19  1  0  0  0  0
 12 34  1  0  0  0  0
 13 15  1  0  0  0  0
 13 35  1  0  0  0  0
 13 36  1  0  0  0  0
 14 16  1  0  0  0  0
 14 21  1  0  0  0  0
 15 37  1  0  0  0  0
 15 38  1  0  0  0  0
 16 20  1  0  0  0  0
 16 23  2  0  0  0  0
 17 24  1  0  0  0  0
 17 39  1  0  0  0  0
 18 25  1  0  0  0  0
 18 40  1  0  0  0  0
 20 22  1  0  0  0  0
 20 26  2  0  0  0  0
 22 27  2  0  0  0  0
 23 42  1  0  0  0  0
 24 25  2  0  0  0  0
 24 43  1  0  0  0  0
 25 44  1  0  0  0  0
 26 30  1  0  0  0  0
 26 46  1  0  0  0  0
 27 31  1  0  0  0  0
 27 47  1  0  0  0  0
 28 48  1  0  0  0  0
 28 52  1  0  0  0  0
 28 53  1  0  0  0  0
 29 49  1  0  0  0  0
 29 50  1  0  0  0  0
 29 51  1  0  0  0  0
 30 31  2  0  0  0  0
 30 54  1  0  0  0  0
 31 55  1  0  0  0  0
M  END
> <PUBCHEM_COMPOUND_CID>
2396

> <PUBCHEM_COMPOUND_CANONICALIZED>
1

> <PUBCHEM_CACTVS_COMPLEXITY>
748

> <PUBCHEM_CACTVS_HBOND_ACCEPTOR>
3

> <PUBCHEM_CACTVS_HBOND_DONOR>
2

> <PUBCHEM_CACTVS_ROTATABLE_BOND>
6

> <PUBCHEM_CACTVS_SUBSKEYS>
AAADceB7sAAAAAAAAAAAAAAAAAAAAWLEAAAwYAAAAAAAAFgB/gAAHgAQAAAADAjBngQ+wPPNkACoAzV3VACCgCAxAiAI2aE4ZNgIIPLA1ZGEIAhglCDIyQccicCegAAAAAACAAAAAAAAAAQAAAAAAAAAAA==

> <PUBCHEM_IUPAC_OPENEYE_NAME>
3-[1-[3-(dimethylamino)propyl]indol-3-yl]-4-(1H-indol-3-yl)pyrrole-2,5-dione

> <PUBCHEM_IUPAC_CAS_NAME>
3-[1-[3-(dimethylamino)propyl]-3-indolyl]-4-(1H-indol-3-yl)pyrrole-2,5-dione

> <PUBCHEM_IUPAC_NAME>
3-[1-[3-(dimethylamino)propyl]indol-3-yl]-4-(1H-indol-3-yl)pyrrole-2,5-dione

> <PUBCHEM_IUPAC_SYSTEMATIC_NAME>
3-[1-[3-(dimethylamino)propyl]indol-3-yl]-4-(1H-indol-3-yl)pyrrole-2,5-dione

> <PUBCHEM_IUPAC_TRADITIONAL_NAME>
3-[1-[3-(dimethylamino)propyl]indol-3-yl]-4-(1H-indol-3-yl)-3-pyrroline-2,5-quinone

> <PUBCHEM_IUPAC_INCHI>
InChI=1S/C25H24N4O2/c1-28(2)12-7-13-29-15-19(17-9-4-6-11-21(17)29)23-22(24(30)27-25(23)31)18-14-26-20-10-5-3-8-16(18)20/h3-6,8-11,14-15,26H,7,12-13H2,1-2H3,(H,27,30,31)

> <PUBCHEM_IUPAC_INCHIKEY>
QMGUOJYZJKLOLH-UHFFFAOYSA-N

> <PUBCHEM_XLOGP3_AA>
3.1

> <PUBCHEM_EXACT_MASS>
412.189926

> <PUBCHEM_MOLECULAR_FORMULA>
C25H24N4O2

> <PUBCHEM_MOLECULAR_WEIGHT>
412.48366

> <PUBCHEM_OPENEYE_CAN_SMILES>
CN(C)CCCN1C=C(C2=CC=CC=C21)C3=C(C(=O)NC3=O)C4=CNC5=CC=CC=C54

> <PUBCHEM_OPENEYE_ISO_SMILES>
CN(C)CCCN1C=C(C2=CC=CC=C21)C3=C(C(=O)NC3=O)C4=CNC5=CC=CC=C54

> <PUBCHEM_CACTVS_TPSA>
70.1

> <PUBCHEM_MONOISOTOPIC_WEIGHT>
412.189926

> <PUBCHEM_TOTAL_CHARGE>
0

> <PUBCHEM_HEAVY_ATOM_COUNT>
31

> <PUBCHEM_ATOM_DEF_STEREO_COUNT>
0

> <PUBCHEM_ATOM_UDEF_STEREO_COUNT>
0

> <PUBCHEM_BOND_DEF_STEREO_COUNT>
0

> <PUBCHEM_BOND_UDEF_STEREO_COUNT>
0

> <PUBCHEM_ISOTOPIC_ATOM_COUNT>
0

> <PUBCHEM_COMPONENT_COUNT>
1

> <PUBCHEM_CACTVS_TAUTO_COUNT>
11

> <PUBCHEM_COORDINATE_TYPE>
1
5
255

> <PUBCHEM_BONDANNOTATIONS>
10  18  8
16  20  8
16  23  8
17  24  8
18  25  8
20  22  8
20  26  8
22  27  8
24  25  8
26  30  8
27  31  8
3  12  8
3  8  8
30  31  8
6  22  8
6  23  8
7  10  8
7  12  8
8  10  8
8  17  8

$$$$

