441000
  -OEChem-07051212512D

 26 25  0     0  0  0  0  0  0999 V2000
    6.8671   -1.0600    0.0000 O   0  0  0  0  0  0  0  0  0  0  0  0
   10.3312   -1.0600    0.0000 O   0  0  0  0  0  0  0  0  0  0  0  0
    3.4030   -1.0600    0.0000 O   0  0  0  0  0  0  0  0  0  0  0  0
    7.7331    0.4400    0.0000 N   0  0  0  0  0  0  0  0  0  0  0  0
    6.0010    0.4400    0.0000 N   0  0  0  0  0  0  0  0  0  0  0  0
    9.4651    0.4400    0.0000 N   0  0  0  0  0  0  0  0  0  0  0  0
    4.2690    0.4400    0.0000 N   0  0  0  0  0  0  0  0  0  0  0  0
   11.1972    0.4400    0.0000 N   0  0  0  0  0  0  0  0  0  0  0  0
    2.5369    0.4400    0.0000 N   0  0  0  0  0  0  0  0  0  0  0  0
    8.5991   -0.0600    0.0000 C   0  0  0  0  0  0  0  0  0  0  0  0
    5.1350   -0.0600    0.0000 C   0  0  0  0  0  0  0  0  0  0  0  0
    6.8671   -0.0600    0.0000 C   0  0  0  0  0  0  0  0  0  0  0  0
   10.3312   -0.0600    0.0000 C   0  0  0  0  0  0  0  0  0  0  0  0
    3.4030   -0.0600    0.0000 C   0  0  0  0  0  0  0  0  0  0  0  0
    8.2006   -0.5349    0.0000 H   0  0  0  0  0  0  0  0  0  0  0  0
    8.9976   -0.5349    0.0000 H   0  0  0  0  0  0  0  0  0  0  0  0
    4.7365   -0.5349    0.0000 H   0  0  0  0  0  0  0  0  0  0  0  0
    5.5335   -0.5349    0.0000 H   0  0  0  0  0  0  0  0  0  0  0  0
    7.7331    1.0600    0.0000 H   0  0  0  0  0  0  0  0  0  0  0  0
    6.0010    1.0600    0.0000 H   0  0  0  0  0  0  0  0  0  0  0  0
    9.4651    1.0600    0.0000 H   0  0  0  0  0  0  0  0  0  0  0  0
    4.2690    1.0600    0.0000 H   0  0  0  0  0  0  0  0  0  0  0  0
   11.7341    0.1300    0.0000 H   0  0  0  0  0  0  0  0  0  0  0  0
   11.1972    1.0600    0.0000 H   0  0  0  0  0  0  0  0  0  0  0  0
    2.0000    0.1300    0.0000 H   0  0  0  0  0  0  0  0  0  0  0  0
    2.5369    1.0600    0.0000 H   0  0  0  0  0  0  0  0  0  0  0  0
  1 12  2  0  0  0  0
  2 13  2  0  0  0  0
  3 14  2  0  0  0  0
  4 10  1  0  0  0  0
  4 12  1  0  0  0  0
  4 19  1  0  0  0  0
  5 11  1  0  0  0  0
  5 12  1  0  0  0  0
  5 20  1  0  0  0  0
  6 10  1  0  0  0  0
  6 13  1  0  0  0  0
  6 21  1  0  0  0  0
  7 11  1  0  0  0  0
  7 14  1  0  0  0  0
  7 22  1  0  0  0  0
  8 13  1  0  0  0  0
  8 23  1  0  0  0  0
  8 24  1  0  0  0  0
  9 14  1  0  0  0  0
  9 25  1  0  0  0  0
  9 26  1  0  0  0  0
 10 15  1  0  0  0  0
 10 16  1  0  0  0  0
 11 17  1  0  0  0  0
 11 18  1  0  0  0  0
M  END
> <PUBCHEM_COMPOUND_CID>
441000

> <PUBCHEM_COMPOUND_CANONICALIZED>
1

> <PUBCHEM_CACTVS_COMPLEXITY>
208

> <PUBCHEM_CACTVS_HBOND_ACCEPTOR>
3

> <PUBCHEM_CACTVS_HBOND_DONOR>
6

> <PUBCHEM_CACTVS_ROTATABLE_BOND>
4

> <PUBCHEM_CACTVS_SUBSKEYS>
AAADccBjsAAAAAAAAAAAAAAAAAAAAAAAAAAAAAAAAAAAAAAAAAAAFgAQAAAAAAAAAAQBAALAAAAIAAAAEAAAAAAAAAAAAIAIAACAAAAAAAAAAAAIAwAAAAAAAAAAAAAAAAAAAAAAAAAAAAAAAAAAAAAAAA==

> <PUBCHEM_IUPAC_OPENEYE_NAME>
1,3-bis(ureidomethyl)urea

> <PUBCHEM_IUPAC_CAS_NAME>
1,3-bis[(carbamoylamino)methyl]urea

> <PUBCHEM_IUPAC_NAME>
1,3-bis[(carbamoylamino)methyl]urea

> <PUBCHEM_IUPAC_SYSTEMATIC_NAME>
1,3-bis[(aminocarbonylamino)methyl]urea

> <PUBCHEM_IUPAC_TRADITIONAL_NAME>
1,3-bis(ureidomethyl)urea

> <PUBCHEM_IUPAC_INCHI>
InChI=1S/C5H12N6O3/c6-3(12)8-1-10-5(14)11-2-9-4(7)13/h1-2H2,(H3,6,8,12)(H3,7,9,13)(H2,10,11,14)

> <PUBCHEM_IUPAC_INCHIKEY>
OKNSZPQWMKXIEO-UHFFFAOYSA-N

> <PUBCHEM_XLOGP3_AA>
-3

> <PUBCHEM_EXACT_MASS>
204.097088

> <PUBCHEM_MOLECULAR_FORMULA>
C5H12N6O3

> <PUBCHEM_MOLECULAR_WEIGHT>
204.18718

> <PUBCHEM_OPENEYE_CAN_SMILES>
C(NC(=O)N)NC(=O)NCNC(=O)N

> <PUBCHEM_OPENEYE_ISO_SMILES>
C(NC(=O)N)NC(=O)NCNC(=O)N

> <PUBCHEM_CACTVS_TPSA>
151

> <PUBCHEM_MONOISOTOPIC_WEIGHT>
204.097088

> <PUBCHEM_TOTAL_CHARGE>
0

> <PUBCHEM_HEAVY_ATOM_COUNT>
14

> <PUBCHEM_ATOM_DEF_STEREO_COUNT>
0

> <PUBCHEM_ATOM_UDEF_STEREO_COUNT>
0

> <PUBCHEM_BOND_DEF_STEREO_COUNT>
0

> <PUBCHEM_BOND_UDEF_STEREO_COUNT>
0

> <PUBCHEM_ISOTOPIC_ATOM_COUNT>
0

> <PUBCHEM_COMPONENT_COUNT>
1

> <PUBCHEM_CACTVS_TAUTO_COUNT>
15

> <PUBCHEM_COORDINATE_TYPE>
1
5
255

$$$$

