13871
  -OEChem-06241222403D

 15 15  0     0  0  0  0  0  0999 V2000
   -2.8300    1.0515    0.0006 Cl  0  0  0  0  0  0  0  0  0  0  0  0
   -0.2210    2.8469   -0.0007 Cl  0  0  0  0  0  0  0  0  0  0  0  0
    2.7759   -1.7249   -0.0006 Cl  0  0  0  0  0  0  0  0  0  0  0  0
    2.6121    1.4595    0.0013 Cl  0  0  0  0  0  0  0  0  0  0  0  0
   -1.1523   -1.0619   -0.0001 C   0  0  0  0  0  0  0  0  0  0  0  0
   -1.2497    0.3296   -0.0005 C   0  0  0  0  0  0  0  0  0  0  0  0
    0.1014   -1.6731    0.0001 C   0  0  0  0  0  0  0  0  0  0  0  0
   -0.0934    1.1098   -0.0004 C   0  0  0  0  0  0  0  0  0  0  0  0
    1.2578   -0.8931    0.0001 C   0  0  0  0  0  0  0  0  0  0  0  0
    1.1605    0.4985   -0.0001 C   0  0  0  0  0  0  0  0  0  0  0  0
   -2.3612   -1.9427    0.0004 C   0  0  0  0  0  0  0  0  0  0  0  0
    0.1786   -2.7584    0.0002 H   0  0  0  0  0  0  0  0  0  0  0  0
   -2.9665   -1.7668    0.8958 H   0  0  0  0  0  0  0  0  0  0  0  0
   -2.9678   -1.7662   -0.8940 H   0  0  0  0  0  0  0  0  0  0  0  0
   -2.0930   -3.0052   -0.0002 H   0  0  0  0  0  0  0  0  0  0  0  0
  1  6  1  0  0  0  0
  2  8  1  0  0  0  0
  3  9  1  0  0  0  0
  4 10  1  0  0  0  0
  5  6  1  0  0  0  0
  5  7  2  0  0  0  0
  5 11  1  0  0  0  0
  6  8  2  0  0  0  0
  7  9  1  0  0  0  0
  7 12  1  0  0  0  0
  8 10  1  0  0  0  0
  9 10  2  0  0  0  0
 11 13  1  0  0  0  0
 11 14  1  0  0  0  0
 11 15  1  0  0  0  0
M  END
> <PUBCHEM_COMPOUND_CID>
13871

> <PUBCHEM_CONFORMER_RMSD>
0.4

> <PUBCHEM_CONFORMER_DIVERSEORDER>
1

> <PUBCHEM_MMFF94_PARTIAL_CHARGES>
12
1 -0.18
10 0.18
11 0.14
12 0.15
2 -0.18
3 -0.18
4 -0.18
5 -0.14
6 0.18
7 -0.15
8 0.18
9 0.18

> <PUBCHEM_EFFECTIVE_ROTOR_COUNT>
0

> <PUBCHEM_PHARMACOPHORE_FEATURES>
1
6 5 6 7 8 9 10 rings

> <PUBCHEM_HEAVY_ATOM_COUNT>
11

> <PUBCHEM_ATOM_DEF_STEREO_COUNT>
0

> <PUBCHEM_ATOM_UDEF_STEREO_COUNT>
0

> <PUBCHEM_BOND_DEF_STEREO_COUNT>
0

> <PUBCHEM_BOND_UDEF_STEREO_COUNT>
0

> <PUBCHEM_ISOTOPIC_ATOM_COUNT>
0

> <PUBCHEM_COMPONENT_COUNT>
1

> <PUBCHEM_CACTVS_TAUTO_COUNT>
1

> <PUBCHEM_CONFORMER_ID>
0000362F00000001

> <PUBCHEM_MMFF94_ENERGY>
26.9536

> <PUBCHEM_FEATURE_SELFOVERLAP>
5.074

> <PUBCHEM_SHAPE_FINGERPRINT>
10967382 1 18410856606900325541
11206711 2 18195526987249535749
12423570 1 6121060890735208803
12524768 44 18335977657425020951
13140716 1 18411138064692074626
13380535 21 18339068328770817056
16945 1 18194682798310580422
193761 8 18410855447253815910
21040471 1 18410856546818334117
21501502 16 18410294692034158998
2334 1 18338798918373272994
23402539 116 17975713988186923919
23526114 1 18409729526041201854
23552423 10 18343863299259395934
241688 4 18411138051801741970
2748010 2 18409729543057443270
5084963 1 17825677917089330785
53812653 166 18262238798449948297
66348 1 18409448068075496713

> <PUBCHEM_SHAPE_MULTIPOLES>
233.85
3.8
2.89
0.63
0.36
0.88
0
-0.66
0
-0.05
0
0.01
0.01
0

> <PUBCHEM_SHAPE_SELFOVERLAP>
451.93

> <PUBCHEM_SHAPE_VOLUME>
139.3

> <PUBCHEM_COORDINATE_TYPE>
2
5
10

$$$$

