7065
  -OEChem-06261201433D

 45 48  0     0  0  0  0  0  0999 V2000
    1.1608   -0.8392    0.0699 N   0  0  0  0  0  0  0  0  0  0  0  0
   -1.3106   -0.5800   -0.0725 N   0  0  0  0  0  0  0  0  0  0  0  0
    0.1481    1.4123   -0.0018 N   0  0  0  0  0  0  0  0  0  0  0  0
   -0.1561   -1.4823    0.0017 C   0  0  0  0  0  0  0  0  0  0  0  0
    1.2798    0.5567   -0.3548 C   0  0  0  0  0  0  0  0  0  0  0  0
   -1.1378    0.8115    0.3483 C   0  0  0  0  0  0  0  0  0  0  0  0
    2.3030   -1.6594    0.0999 C   0  0  0  0  0  0  0  0  0  0  0  0
   -2.5983   -1.1452   -0.1011 C   0  0  0  0  0  0  0  0  0  0  0  0
    0.2949    2.8044   -0.0004 C   0  0  0  0  0  0  0  0  0  0  0  0
    2.2639   -2.9488    0.6758 C   0  0  0  0  0  0  0  0  0  0  0  0
   -2.8272   -2.4178   -0.6703 C   0  0  0  0  0  0  0  0  0  0  0  0
    1.2047    3.4540   -0.8713 C   0  0  0  0  0  0  0  0  0  0  0  0
    3.5320   -1.2243   -0.4443 C   0  0  0  0  0  0  0  0  0  0  0  0
   -3.7107   -0.4614    0.4382 C   0  0  0  0  0  0  0  0  0  0  0  0
   -0.4592    3.6280    0.8719 C   0  0  0  0  0  0  0  0  0  0  0  0
    3.3967   -3.7622    0.7059 C   0  0  0  0  0  0  0  0  0  0  0  0
   -4.1043   -2.9782   -0.6988 C   0  0  0  0  0  0  0  0  0  0  0  0
    1.3512    4.8412   -0.8697 C   0  0  0  0  0  0  0  0  0  0  0  0
    4.6647   -2.0377   -0.4144 C   0  0  0  0  0  0  0  0  0  0  0  0
   -4.9877   -1.0218    0.4100 C   0  0  0  0  0  0  0  0  0  0  0  0
   -0.3128    5.0152    0.8733 C   0  0  0  0  0  0  0  0  0  0  0  0
    4.5971   -3.3066    0.1607 C   0  0  0  0  0  0  0  0  0  0  0  0
   -5.1846   -2.2803   -0.1586 C   0  0  0  0  0  0  0  0  0  0  0  0
    0.5924    5.6218    0.0024 C   0  0  0  0  0  0  0  0  0  0  0  0
   -0.1444   -2.1273   -0.8841 H   0  0  0  0  0  0  0  0  0  0  0  0
   -0.3007   -2.1041    0.8923 H   0  0  0  0  0  0  0  0  0  0  0  0
    2.1695    0.9913    0.1181 H   0  0  0  0  0  0  0  0  0  0  0  0
    1.4138    0.5798   -1.4437 H   0  0  0  0  0  0  0  0  0  0  0  0
   -1.9159    1.4203   -0.1292 H   0  0  0  0  0  0  0  0  0  0  0  0
   -1.2678    0.8649    1.4365 H   0  0  0  0  0  0  0  0  0  0  0  0
    1.3595   -3.3462    1.1266 H   0  0  0  0  0  0  0  0  0  0  0  0
   -2.0247   -2.9969   -1.1172 H   0  0  0  0  0  0  0  0  0  0  0  0
    1.8058    2.8814   -1.5736 H   0  0  0  0  0  0  0  0  0  0  0  0
    3.6365   -0.2536   -0.9211 H   0  0  0  0  0  0  0  0  0  0  0  0
   -3.6120    0.5124    0.9098 H   0  0  0  0  0  0  0  0  0  0  0  0
   -1.1668    3.1922    1.5734 H   0  0  0  0  0  0  0  0  0  0  0  0
    3.3456   -4.7492    1.1563 H   0  0  0  0  0  0  0  0  0  0  0  0
   -4.2588   -3.9567   -1.1441 H   0  0  0  0  0  0  0  0  0  0  0  0
    2.0540    5.3142   -1.5492 H   0  0  0  0  0  0  0  0  0  0  0  0
    5.5987   -1.6854   -0.8425 H   0  0  0  0  0  0  0  0  0  0  0  0
   -5.8286   -0.4808    0.8342 H   0  0  0  0  0  0  0  0  0  0  0  0
   -0.9015    5.6232    1.5540 H   0  0  0  0  0  0  0  0  0  0  0  0
    5.4790   -3.9401    0.1838 H   0  0  0  0  0  0  0  0  0  0  0  0
   -6.1788   -2.7169   -0.1804 H   0  0  0  0  0  0  0  0  0  0  0  0
    0.7064    6.7020    0.0035 H   0  0  0  0  0  0  0  0  0  0  0  0
  1  4  1  0  0  0  0
  1  5  1  0  0  0  0
  1  7  1  0  0  0  0
  2  4  1  0  0  0  0
  2  6  1  0  0  0  0
  2  8  1  0  0  0  0
  3  5  1  0  0  0  0
  3  6  1  0  0  0  0
  3  9  1  0  0  0  0
  4 25  1  0  0  0  0
  4 26  1  0  0  0  0
  5 27  1  0  0  0  0
  5 28  1  0  0  0  0
  6 29  1  0  0  0  0
  6 30  1  0  0  0  0
  7 10  2  0  0  0  0
  7 13  1  0  0  0  0
  8 11  2  0  0  0  0
  8 14  1  0  0  0  0
  9 12  2  0  0  0  0
  9 15  1  0  0  0  0
 10 16  1  0  0  0  0
 10 31  1  0  0  0  0
 11 17  1  0  0  0  0
 11 32  1  0  0  0  0
 12 18  1  0  0  0  0
 12 33  1  0  0  0  0
 13 19  2  0  0  0  0
 13 34  1  0  0  0  0
 14 20  2  0  0  0  0
 14 35  1  0  0  0  0
 15 21  2  0  0  0  0
 15 36  1  0  0  0  0
 16 22  2  0  0  0  0
 16 37  1  0  0  0  0
 17 23  2  0  0  0  0
 17 38  1  0  0  0  0
 18 24  2  0  0  0  0
 18 39  1  0  0  0  0
 19 22  1  0  0  0  0
 19 40  1  0  0  0  0
 20 23  1  0  0  0  0
 20 41  1  0  0  0  0
 21 24  1  0  0  0  0
 21 42  1  0  0  0  0
 22 43  1  0  0  0  0
 23 44  1  0  0  0  0
 24 45  1  0  0  0  0
M  END
> <PUBCHEM_COMPOUND_CID>
7065

> <PUBCHEM_CONFORMER_RMSD>
0.8

> <PUBCHEM_CONFORMER_DIVERSEORDER>
1
7
4
8
2
3
5
6

> <PUBCHEM_MMFF94_PARTIAL_CHARGES>
39
1 -0.84
10 -0.15
11 -0.15
12 -0.15
13 -0.15
14 -0.15
15 -0.15
16 -0.15
17 -0.15
18 -0.15
19 -0.15
2 -0.84
20 -0.15
21 -0.15
22 -0.15
23 -0.15
24 -0.15
3 -0.84
31 0.15
32 0.15
33 0.15
34 0.15
35 0.15
36 0.15
37 0.15
38 0.15
39 0.15
4 0.74
40 0.15
41 0.15
42 0.15
43 0.15
44 0.15
45 0.15
5 0.74
6 0.74
7 0.1
8 0.1
9 0.1

> <PUBCHEM_EFFECTIVE_ROTOR_COUNT>
4.2

> <PUBCHEM_PHARMACOPHORE_FEATURES>
7
1 1 cation
1 2 cation
1 3 cation
6 1 2 3 4 5 6 rings
6 7 10 13 16 19 22 rings
6 8 11 14 17 20 23 rings
6 9 12 15 18 21 24 rings

> <PUBCHEM_HEAVY_ATOM_COUNT>
24

> <PUBCHEM_ATOM_DEF_STEREO_COUNT>
0

> <PUBCHEM_ATOM_UDEF_STEREO_COUNT>
0

> <PUBCHEM_BOND_DEF_STEREO_COUNT>
0

> <PUBCHEM_BOND_UDEF_STEREO_COUNT>
0

> <PUBCHEM_ISOTOPIC_ATOM_COUNT>
0

> <PUBCHEM_COMPONENT_COUNT>
1

> <PUBCHEM_CACTVS_TAUTO_COUNT>
1

> <PUBCHEM_CONFORMER_ID>
00001B9900000001

> <PUBCHEM_MMFF94_ENERGY>
111.0457

> <PUBCHEM_FEATURE_SELFOVERLAP>
35.586

> <PUBCHEM_SHAPE_FINGERPRINT>
10074138 170 17764045939603343754
10411042 1 18410574015290692359
1100329 8 18266734861032485625
11045515 52 18272651293887095527
11056379 131 18049152565014886742
12107183 9 18335125532673530147
12293681 160 18055323900759194958
12553582 1 18410865385904045815
12788726 201 18055074521303389235
13004483 165 18267589189645025251
13140716 1 18338239395924858985
13590594 115 18339633547205793817
138480 1 18410856516695397860
13955234 65 18122620553319092931
15042514 8 18122060068391926115
15230672 131 17405424400564035028
15664445 248 18262219042085820262
15705408 1 18194683670157248933
15927050 60 17328864293244711548
16087824 20 18050848012451423189
17980427 26 17903362506885456149
20600515 1 18115578383074430717
21049683 271 18129367224874679607
21120745 212 18266163102005746740
21796203 349 18052217835676298627
2255824 54 18193557770419593335
23366157 5 18195531389717737611
23558518 356 17767113573146237370
23559900 14 18265343824373292499
23845131 108 17476082319913555003
255183 313 17757259758543621505
283562 15 18199186381170058450
3091708 16 9067117686405068563
4409770 3 17909554196448890437
6058803 2 17970906666654913279
6442390 28 17258496643951489469
6443956 14 18339644438747022764
653340 110 18050298247694049802
6697151 62 18196964165565985071
6700243 42 17753300327288858838
7164475 11 18196649812366521710
77188 2 18410857667741352069
7808743 9 17763457714722179810
79837 15 17474390656522067051
84936 182 17902505983328135537
9777508 108 17760939836841037682
9981440 41 17402899916948045699

> <PUBCHEM_SHAPE_MULTIPOLES>
478.97
8.5
8.48
0.86
4.96
14.68
0
-14.99
0.33
-4.92
-0.34
-0.03
0.27
-1.54

> <PUBCHEM_SHAPE_SELFOVERLAP>
1036.171

> <PUBCHEM_SHAPE_VOLUME>
256

> <PUBCHEM_COORDINATE_TYPE>
2
5
10

$$$$

