12792
  -OEChem-06261207222D

 15 15  0     0  0  0  0  0  0999 V2000
    4.5032   -0.4275    0.0000 O   0  0  0  0  0  0  0  0  0  0  0  0
    6.4712   -1.1269    0.0000 O   0  0  0  0  0  0  0  0  0  0  0  0
    2.0000    0.5204    0.0000 O   0  5  0  0  0  0  0  0  0  0  0  0
    2.5352   -1.1269    0.0000 O   0  0  0  0  0  0  0  0  0  0  0  0
    2.7431   -0.1487    0.0000 N   0  3  0  0  0  0  0  0  0  0  0  0
    7.0064    0.5204    0.0000 N   0  0  0  0  0  0  0  0  0  0  0  0
    5.3122    0.1603    0.0000 C   0  0  0  0  0  0  0  0  0  0  0  0
    3.6942    0.1603    0.0000 C   0  0  0  0  0  0  0  0  0  0  0  0
    5.0032    1.1114    0.0000 C   0  0  0  0  0  0  0  0  0  0  0  0
    4.0032    1.1114    0.0000 C   0  0  0  0  0  0  0  0  0  0  0  0
    6.2633   -0.1487    0.0000 C   0  0  0  0  0  0  0  0  0  0  0  0
    5.3676    1.6130    0.0000 H   0  0  0  0  0  0  0  0  0  0  0  0
    3.6388    1.6130    0.0000 H   0  0  0  0  0  0  0  0  0  0  0  0
    7.5961    0.3288    0.0000 H   0  0  0  0  0  0  0  0  0  0  0  0
    6.8775    1.1269    0.0000 H   0  0  0  0  0  0  0  0  0  0  0  0
  1  7  1  0  0  0  0
  1  8  1  0  0  0  0
  2 11  2  0  0  0  0
  3  5  1  0  0  0  0
  4  5  2  0  0  0  0
  5  8  1  0  0  0  0
  6 11  1  0  0  0  0
  6 14  1  0  0  0  0
  6 15  1  0  0  0  0
  7  9  2  0  0  0  0
  7 11  1  0  0  0  0
  8 10  2  0  0  0  0
  9 10  1  0  0  0  0
  9 12  1  0  0  0  0
 10 13  1  0  0  0  0
M  CHG  2   3  -1   5   1
M  END
> <PUBCHEM_COMPOUND_CID>
12792

> <PUBCHEM_COMPOUND_CANONICALIZED>
1

> <PUBCHEM_CACTVS_COMPLEXITY>
187

> <PUBCHEM_CACTVS_HBOND_ACCEPTOR>
4

> <PUBCHEM_CACTVS_HBOND_DONOR>
1

> <PUBCHEM_CACTVS_ROTATABLE_BOND>
1

> <PUBCHEM_CACTVS_SUBSKEYS>
AAADcYBjOAAAAAAAAAAAAAAAAAAAASAAAAAAAAAAAAAAAAABgAAAHgAUAAAACASBkAAwhIBQRECJAKFSUwKCCAAsIgAoiAHGbMoOJjKEtJ+LGSDkwBEI6Ya8FwAAAAAAAAAAAAAAAAAAAAAAAAAAAAAAAA==

> <PUBCHEM_IUPAC_OPENEYE_NAME>
5-nitrofuran-2-carboxamide

> <PUBCHEM_IUPAC_CAS_NAME>
5-nitro-2-furancarboxamide

> <PUBCHEM_IUPAC_NAME>
5-nitrofuran-2-carboxamide

> <PUBCHEM_IUPAC_SYSTEMATIC_NAME>
5-nitrofuran-2-carboxamide

> <PUBCHEM_IUPAC_TRADITIONAL_NAME>
5-nitro-2-furamide

> <PUBCHEM_IUPAC_INCHI>
InChI=1S/C5H4N2O4/c6-5(8)3-1-2-4(11-3)7(9)10/h1-2H,(H2,6,8)

> <PUBCHEM_IUPAC_INCHIKEY>
JMXRGHVWQMFKQW-UHFFFAOYSA-N

> <PUBCHEM_XLOGP3_AA>
0.4

> <PUBCHEM_EXACT_MASS>
156.017107

> <PUBCHEM_MOLECULAR_FORMULA>
C5H4N2O4

> <PUBCHEM_MOLECULAR_WEIGHT>
156.09626

> <PUBCHEM_OPENEYE_CAN_SMILES>
C1=C(OC(=C1)[N+](=O)[O-])C(=O)N

> <PUBCHEM_OPENEYE_ISO_SMILES>
C1=C(OC(=C1)[N+](=O)[O-])C(=O)N

> <PUBCHEM_CACTVS_TPSA>
102

> <PUBCHEM_MONOISOTOPIC_WEIGHT>
156.017107

> <PUBCHEM_TOTAL_CHARGE>
0

> <PUBCHEM_HEAVY_ATOM_COUNT>
11

> <PUBCHEM_ATOM_DEF_STEREO_COUNT>
0

> <PUBCHEM_ATOM_UDEF_STEREO_COUNT>
0

> <PUBCHEM_BOND_DEF_STEREO_COUNT>
0

> <PUBCHEM_BOND_UDEF_STEREO_COUNT>
0

> <PUBCHEM_ISOTOPIC_ATOM_COUNT>
0

> <PUBCHEM_COMPONENT_COUNT>
1

> <PUBCHEM_CACTVS_TAUTO_COUNT>
2

> <PUBCHEM_COORDINATE_TYPE>
1
5
255

> <PUBCHEM_BONDANNOTATIONS>
1  7  8
1  8  8
7  9  8
8  10  8
9  10  8

$$$$

