11017668
  -OEChem-07051213053D

 91 93  0     1  0  0  0  0  0999 V2000
   -1.6309   -4.6823   -0.2966 O   0  0  0  0  0  0  0  0  0  0  0  0
   -3.6846   -2.7197   -1.8859 O   0  0  0  0  0  0  0  0  0  0  0  0
    1.1841   -3.4268   -1.3639 O   0  0  0  0  0  0  0  0  0  0  0  0
   -4.8830   -0.4411    1.2724 O   0  0  0  0  0  0  0  0  0  0  0  0
    5.4858    0.1081    1.8056 O   0  0  0  0  0  0  0  0  0  0  0  0
    5.8115   -0.3682   -1.2784 O   0  0  0  0  0  0  0  0  0  0  0  0
    2.6029    2.4940   -3.2759 O   0  0  0  0  0  0  0  0  0  0  0  0
    2.5990    1.0041    2.5468 O   0  0  0  0  0  0  0  0  0  0  0  0
    0.6987    3.3570   -1.8380 O   0  0  0  0  0  0  0  0  0  0  0  0
   -1.5656    3.4929    2.6098 O   0  0  0  0  0  0  0  0  0  0  0  0
   -0.8207    3.4861    0.3763 N   0  0  0  0  0  0  0  0  0  0  0  0
   -2.7865   -2.6505    0.4021 C   0  0  1  0  0  0  0  0  0  0  0  0
   -1.4644   -3.2664   -0.1617 C   0  0  1  0  0  0  0  0  0  0  0  0
   -4.0056   -2.9685   -0.5191 C   0  0  1  0  0  0  0  0  0  0  0  0
   -0.1621   -3.0206    0.6694 C   0  0  1  0  0  0  0  0  0  0  0  0
   -5.3747   -2.3182   -0.1493 C   0  0  1  0  0  0  0  0  0  0  0  0
    1.0577   -3.7544    0.0211 C   0  0  2  0  0  0  0  0  0  0  0  0
   -5.4538   -0.7667   -0.0087 C   0  0  2  0  0  0  0  0  0  0  0  0
   -3.0526   -3.1339    1.8357 C   0  0  0  0  0  0  0  0  0  0  0  0
    2.4348   -3.6342    0.7393 C   0  0  1  0  0  0  0  0  0  0  0  0
    0.0702   -1.5223    0.8838 C   0  0  0  0  0  0  0  0  0  0  0  0
   -4.7465    0.1341   -1.0544 C   0  0  1  0  0  0  0  0  0  0  0  0
   -6.4733   -2.8313   -1.0974 C   0  0  0  0  0  0  0  0  0  0  0  0
    3.3859   -4.7207    0.2116 C   0  0  0  0  0  0  0  0  0  0  0  0
    3.1358   -2.2991    0.5751 C   0  0  0  0  0  0  0  0  0  0  0  0
   -5.3248    0.0201   -2.4657 C   0  0  0  0  0  0  0  0  0  0  0  0
   -4.8447    1.5945   -0.6413 C   0  0  0  0  0  0  0  0  0  0  0  0
    3.9102   -1.6725    1.4834 C   0  0  0  0  0  0  0  0  0  0  0  0
   -3.8168    2.2765   -0.1123 C   0  0  0  0  0  0  0  0  0  0  0  0
    4.5442   -0.3436    1.1617 C   0  0  0  0  0  0  0  0  0  0  0  0
    4.2610   -2.2109    2.8415 C   0  0  0  0  0  0  0  0  0  0  0  0
    4.0010    0.4700    0.0613 C   0  0  0  0  0  0  0  0  0  0  0  0
   -3.8970    3.6707    0.2710 C   0  0  0  0  0  0  0  0  0  0  0  0
    2.8517    1.2704    0.1977 C   0  0  0  0  0  0  0  0  0  0  0  0
    4.6863    0.3950   -1.1569 C   0  0  0  0  0  0  0  0  0  0  0  0
   -2.9669    4.3752    0.9407 C   0  0  0  0  0  0  0  0  0  0  0  0
    2.3646    1.9413   -0.9282 C   0  0  0  0  0  0  0  0  0  0  0  0
    4.2042    1.0882   -2.2619 C   0  0  0  0  0  0  0  0  0  0  0  0
    3.0421    1.8503   -2.1537 C   0  0  0  0  0  0  0  0  0  0  0  0
    2.1575    1.4456    1.4932 C   0  0  0  0  0  0  0  0  0  0  0  0
    1.1263    2.7453   -0.8639 C   0  0  0  0  0  0  0  0  0  0  0  0
    0.3795    2.8010    0.4245 C   0  0  0  0  0  0  0  0  0  0  0  0
   -1.7083    3.7277    1.4148 C   0  0  0  0  0  0  0  0  0  0  0  0
    0.8828    2.1942    1.5040 C   0  0  0  0  0  0  0  0  0  0  0  0
   -3.1435    5.8074    1.3389 C   0  0  0  0  0  0  0  0  0  0  0  0
    4.9285    1.0022   -3.5684 C   0  0  0  0  0  0  0  0  0  0  0  0
   -2.6573   -1.5645    0.4154 H   0  0  0  0  0  0  0  0  0  0  0  0
   -1.2984   -2.8664   -1.1682 H   0  0  0  0  0  0  0  0  0  0  0  0
   -4.1737   -4.0535   -0.4586 H   0  0  0  0  0  0  0  0  0  0  0  0
   -0.2845   -3.4800    1.6585 H   0  0  0  0  0  0  0  0  0  0  0  0
   -5.6425   -2.7209    0.8378 H   0  0  0  0  0  0  0  0  0  0  0  0
    0.7993   -4.8220    0.0421 H   0  0  0  0  0  0  0  0  0  0  0  0
   -6.5129   -0.4832    0.0568 H   0  0  0  0  0  0  0  0  0  0  0  0
   -2.2250   -2.8845    2.5054 H   0  0  0  0  0  0  0  0  0  0  0  0
   -3.9395   -2.6593    2.2631 H   0  0  0  0  0  0  0  0  0  0  0  0
   -3.2110   -4.2162    1.8750 H   0  0  0  0  0  0  0  0  0  0  0  0
    2.2490   -3.8374    1.7999 H   0  0  0  0  0  0  0  0  0  0  0  0
    0.2943   -1.0153   -0.0601 H   0  0  0  0  0  0  0  0  0  0  0  0
   -0.7964   -1.0323    1.3352 H   0  0  0  0  0  0  0  0  0  0  0  0
    0.8934   -1.3513    1.5809 H   0  0  0  0  0  0  0  0  0  0  0  0
   -3.6836   -0.1321   -1.0986 H   0  0  0  0  0  0  0  0  0  0  0  0
   -7.4544   -2.4431   -0.8037 H   0  0  0  0  0  0  0  0  0  0  0  0
   -6.2995   -2.5563   -2.1390 H   0  0  0  0  0  0  0  0  0  0  0  0
   -6.5321   -3.9247   -1.0538 H   0  0  0  0  0  0  0  0  0  0  0  0
   -1.6360   -5.0735    0.5930 H   0  0  0  0  0  0  0  0  0  0  0  0
   -3.1184   -3.4457   -2.1974 H   0  0  0  0  0  0  0  0  0  0  0  0
    2.9312   -5.7137    0.2945 H   0  0  0  0  0  0  0  0  0  0  0  0
    3.6600   -4.5582   -0.8365 H   0  0  0  0  0  0  0  0  0  0  0  0
    4.3147   -4.7410    0.7936 H   0  0  0  0  0  0  0  0  0  0  0  0
    2.9911   -1.8483   -0.4033 H   0  0  0  0  0  0  0  0  0  0  0  0
   -6.4148    0.1325   -2.4616 H   0  0  0  0  0  0  0  0  0  0  0  0
   -5.0840   -0.9385   -2.9279 H   0  0  0  0  0  0  0  0  0  0  0  0
   -4.9127    0.7932   -3.1254 H   0  0  0  0  0  0  0  0  0  0  0  0
    1.7622   -4.0880   -1.7792 H   0  0  0  0  0  0  0  0  0  0  0  0
   -5.2924    0.3851    1.5805 H   0  0  0  0  0  0  0  0  0  0  0  0
   -5.8055    2.0852   -0.7839 H   0  0  0  0  0  0  0  0  0  0  0  0
   -2.8789    1.7539    0.0479 H   0  0  0  0  0  0  0  0  0  0  0  0
    3.8700   -1.5489    3.6212 H   0  0  0  0  0  0  0  0  0  0  0  0
    3.8652   -3.2114    3.0289 H   0  0  0  0  0  0  0  0  0  0  0  0
    5.3484   -2.2763    2.9571 H   0  0  0  0  0  0  0  0  0  0  0  0
   -4.8180    4.1799   -0.0094 H   0  0  0  0  0  0  0  0  0  0  0  0
    0.3829    2.2025    2.4649 H   0  0  0  0  0  0  0  0  0  0  0  0
   -3.1095    5.9114    2.4283 H   0  0  0  0  0  0  0  0  0  0  0  0
   -4.1006    6.2135    0.9951 H   0  0  0  0  0  0  0  0  0  0  0  0
   -2.3466    6.4217    0.9072 H   0  0  0  0  0  0  0  0  0  0  0  0
   -1.0767    3.8336   -0.5459 H   0  0  0  0  0  0  0  0  0  0  0  0
    5.9695    1.3236   -3.4518 H   0  0  0  0  0  0  0  0  0  0  0  0
    4.9022   -0.0239   -3.9512 H   0  0  0  0  0  0  0  0  0  0  0  0
    4.4997    1.6405   -4.3468 H   0  0  0  0  0  0  0  0  0  0  0  0
    6.1352   -0.3928   -2.1913 H   0  0  0  0  0  0  0  0  0  0  0  0
    1.8790    3.1027   -3.0687 H   0  0  0  0  0  0  0  0  0  0  0  0
  1 13  1  0  0  0  0
  1 65  1  0  0  0  0
  2 14  1  0  0  0  0
  2 66  1  0  0  0  0
  3 17  1  0  0  0  0
  3 74  1  0  0  0  0
  4 18  1  0  0  0  0
  4 75  1  0  0  0  0
  5 30  2  0  0  0  0
  6 35  1  0  0  0  0
  6 90  1  0  0  0  0
  7 39  1  0  0  0  0
  7 91  1  0  0  0  0
  8 40  2  0  0  0  0
  9 41  2  0  0  0  0
 10 43  2  0  0  0  0
 11 42  1  0  0  0  0
 11 43  1  0  0  0  0
 11 86  1  0  0  0  0
 12 13  1  0  0  0  0
 12 14  1  0  0  0  0
 12 19  1  0  0  0  0
 12 47  1  0  0  0  0
 13 15  1  0  0  0  0
 13 48  1  0  0  0  0
 14 16  1  0  0  0  0
 14 49  1  0  0  0  0
 15 17  1  0  0  0  0
 15 21  1  0  0  0  0
 15 50  1  0  0  0  0
 16 18  1  0  0  0  0
 16 23  1  0  0  0  0
 16 51  1  0  0  0  0
 17 20  1  0  0  0  0
 17 52  1  0  0  0  0
 18 22  1  0  0  0  0
 18 53  1  0  0  0  0
 19 54  1  0  0  0  0
 19 55  1  0  0  0  0
 19 56  1  0  0  0  0
 20 24  1  0  0  0  0
 20 25  1  0  0  0  0
 20 57  1  0  0  0  0
 21 58  1  0  0  0  0
 21 59  1  0  0  0  0
 21 60  1  0  0  0  0
 22 26  1  0  0  0  0
 22 27  1  0  0  0  0
 22 61  1  0  0  0  0
 23 62  1  0  0  0  0
 23 63  1  0  0  0  0
 23 64  1  0  0  0  0
 24 67  1  0  0  0  0
 24 68  1  0  0  0  0
 24 69  1  0  0  0  0
 25 28  2  0  0  0  0
 25 70  1  0  0  0  0
 26 71  1  0  0  0  0
 26 72  1  0  0  0  0
 26 73  1  0  0  0  0
 27 29  2  0  0  0  0
 27 76  1  0  0  0  0
 28 30  1  0  0  0  0
 28 31  1  0  0  0  0
 29 33  1  0  0  0  0
 29 77  1  0  0  0  0
 30 32  1  0  0  0  0
 31 78  1  0  0  0  0
 31 79  1  0  0  0  0
 31 80  1  0  0  0  0
 32 34  2  0  0  0  0
 32 35  1  0  0  0  0
 33 36  2  0  0  0  0
 33 81  1  0  0  0  0
 34 37  1  0  0  0  0
 34 40  1  0  0  0  0
 35 38  2  0  0  0  0
 36 43  1  0  0  0  0
 36 45  1  0  0  0  0
 37 39  2  0  0  0  0
 37 41  1  0  0  0  0
 38 39  1  0  0  0  0
 38 46  1  0  0  0  0
 40 44  1  0  0  0  0
 41 42  1  0  0  0  0
 42 44  2  0  0  0  0
 44 82  1  0  0  0  0
 45 83  1  0  0  0  0
 45 84  1  0  0  0  0
 45 85  1  0  0  0  0
 46 87  1  0  0  0  0
 46 88  1  0  0  0  0
 46 89  1  0  0  0  0
M  END
> <PUBCHEM_COMPOUND_CID>
11017668

> <PUBCHEM_CONFORMER_RMSD>
0.8

> <PUBCHEM_CONFORMER_DIVERSEORDER>
1

> <PUBCHEM_MMFF94_PARTIAL_CHARGES>
50
1 -0.68
10 -0.57
11 -0.54
13 0.28
14 0.28
17 0.28
18 0.28
2 -0.68
20 0.14
22 0.14
25 -0.29
27 -0.29
28 -0.12
29 -0.15
3 -0.68
30 0.47
31 0.14
32 0.09
33 -0.15
34 0.09
35 0.08
36 -0.12
37 0.09
38 -0.14
39 0.08
4 -0.68
40 0.47
41 0.47
42 0.12
43 0.62
44 -0.14
45 0.14
46 0.14
5 -0.57
6 -0.53
65 0.4
66 0.4
7 -0.53
70 0.15
74 0.4
75 0.4
76 0.15
77 0.15
8 -0.57
81 0.15
82 0.15
86 0.37
9 -0.57
90 0.45
91 0.45

> <PUBCHEM_EFFECTIVE_ROTOR_COUNT>
2

> <PUBCHEM_PHARMACOPHORE_FEATURES>
17
1 1 acceptor
1 1 donor
1 10 acceptor
1 11 donor
1 2 acceptor
1 2 donor
1 3 acceptor
1 3 donor
1 4 acceptor
1 4 donor
1 5 acceptor
1 6 donor
1 7 donor
1 8 acceptor
1 9 acceptor
6 32 34 35 37 38 39 rings
6 34 37 40 41 42 44 rings

> <PUBCHEM_HEAVY_ATOM_COUNT>
46

> <PUBCHEM_ATOM_DEF_STEREO_COUNT>
9

> <PUBCHEM_ATOM_UDEF_STEREO_COUNT>
0

> <PUBCHEM_BOND_DEF_STEREO_COUNT>
3

> <PUBCHEM_BOND_UDEF_STEREO_COUNT>
0

> <PUBCHEM_ISOTOPIC_ATOM_COUNT>
0

> <PUBCHEM_COMPONENT_COUNT>
1

> <PUBCHEM_CACTVS_TAUTO_COUNT>
168

> <PUBCHEM_CONFORMER_ID>
00A81DC400000001

> <PUBCHEM_MMFF94_ENERGY>
157.4911

> <PUBCHEM_FEATURE_SELFOVERLAP>
86.287

> <PUBCHEM_SHAPE_FINGERPRINT>
10190206 1 18269534110557604900
10581848 31 18341621412298782271
10622 236 18201163234135315737
10675989 125 18195243313207585688
10677394 325 17917415503425562198
10928967 22 18263358084840118013
11399939 17 18267584800884969056
11513181 2 17970913494729657455
12758862 65 17168729460642795193
12788726 201 18267289959336640924
13165053 182 16407281169057236340
13347071 3 18262527020963101866
14017579 90 18201729503988298269
144659 178 18411142475660767824
14918310 93 16831491966072672305
15150950 15 17842543056225151691
15264996 142 17984125226406972426
15274700 256 18335141935602435344
15274700 259 17986696912608557325
15320291 9 18195533825149395463
15320467 1 18336557061931026899
15351339 4 18197780994449589842
15406563 228 18198900503930354084
20764821 26 18338803299646012439
21133410 38 17826524554766682721
22121540 332 17896624816238490680
22440779 20 15579720775156639036
3493558 16 18339928224526993019
354706 109 17543944611334436609
354706 35 16462507340101092207
463206 1 17903358452294345265
50080093 196 18057889232774258947
513532 50 17752203886330336198

> <PUBCHEM_SHAPE_MULTIPOLES>
882.98
13.21
7.74
2.68
6.3
0.82
1.12
-3.64
3.81
6.03
-1.99
-2.91
1.51
-4.3

> <PUBCHEM_SHAPE_SELFOVERLAP>
1856.207

> <PUBCHEM_SHAPE_VOLUME>
493.1

> <PUBCHEM_COORDINATE_TYPE>
2
5
10

$$$$

