244947
  -OEChem-07051213062D

 57 60  0     1  0  0  0  0  0999 V2000
   10.0389    2.3999    0.0000 O   0  0  0  0  0  0  0  0  0  0  0  0
    3.3889   -1.9077    0.0000 O   0  0  0  0  0  0  0  0  0  0  0  0
    2.5333   -0.3061    0.0000 O   0  0  0  0  0  0  0  0  0  0  0  0
    7.0500    0.1446    0.0000 C   0  0  1  0  0  0  0  0  0  0  0  0
    7.9160   -0.3554    0.0000 C   0  0  2  0  0  0  0  0  0  0  0  0
    6.1400   -0.3622    0.0000 C   0  0  2  0  0  0  0  0  0  0  0  0
    8.7820    0.1446    0.0000 C   0  0  1  0  0  0  0  0  0  0  0  0
    8.7820    1.1446    0.0000 C   0  0  2  0  0  0  0  0  0  0  0  0
    6.1319   -1.4038    0.0000 C   0  0  1  0  0  0  0  0  0  0  0  0
    7.0500    1.1446    0.0000 C   0  0  0  0  0  0  0  0  0  0  0  0
    7.9321   -1.3969    0.0000 C   0  0  0  0  0  0  0  0  0  0  0  0
    7.9160    1.6446    0.0000 C   0  0  0  0  0  0  0  0  0  0  0  0
    7.0340   -1.9246    0.0000 C   0  0  0  0  0  0  0  0  0  0  0  0
    9.7282   -0.1601    0.0000 C   0  0  0  0  0  0  0  0  0  0  0  0
    5.2131    0.2018    0.0000 C   0  0  0  0  0  0  0  0  0  0  0  0
    9.7282    1.4493    0.0000 C   0  0  2  0  0  0  0  0  0  0  0  0
    5.1965   -1.9536    0.0000 C   0  0  0  0  0  0  0  0  0  0  0  0
   10.3119    0.6446    0.0000 C   0  0  0  0  0  0  0  0  0  0  0  0
    4.2652   -0.3261    0.0000 C   0  0  2  0  0  0  0  0  0  0  0  0
    6.1477    0.6377    0.0000 C   0  0  0  0  0  0  0  0  0  0  0  0
    4.2569   -1.4111    0.0000 C   0  0  2  0  0  0  0  0  0  0  0  0
    8.7820    2.1446    0.0000 C   0  0  0  0  0  0  0  0  0  0  0  0
    3.4051    0.1839    0.0000 C   0  0  0  0  0  0  0  0  0  0  0  0
    7.7861    0.5696    0.0000 H   0  0  0  0  0  0  0  0  0  0  0  0
    8.6554   -0.7747    0.0000 H   0  0  0  0  0  0  0  0  0  0  0  0
    8.8720   -0.7006    0.0000 H   0  0  0  0  0  0  0  0  0  0  0  0
    6.1352   -2.2538    0.0000 H   0  0  0  0  0  0  0  0  0  0  0  0
    6.8379    1.7272    0.0000 H   0  0  0  0  0  0  0  0  0  0  0  0
    6.4394    1.0370    0.0000 H   0  0  0  0  0  0  0  0  0  0  0  0
    8.1501   -1.9773    0.0000 H   0  0  0  0  0  0  0  0  0  0  0  0
    8.5412   -1.2814    0.0000 H   0  0  0  0  0  0  0  0  0  0  0  0
    8.3145    2.1196    0.0000 H   0  0  0  0  0  0  0  0  0  0  0  0
    7.5175    2.1196    0.0000 H   0  0  0  0  0  0  0  0  0  0  0  0
    6.6367   -2.4006    0.0000 H   0  0  0  0  0  0  0  0  0  0  0  0
    7.4350   -2.3975    0.0000 H   0  0  0  0  0  0  0  0  0  0  0  0
    9.4772   -0.7270    0.0000 H   0  0  0  0  0  0  0  0  0  0  0  0
   10.2656   -0.4693    0.0000 H   0  0  0  0  0  0  0  0  0  0  0  0
    5.6213    0.6685    0.0000 H   0  0  0  0  0  0  0  0  0  0  0  0
    4.8232    0.6839    0.0000 H   0  0  0  0  0  0  0  0  0  0  0  0
    9.2908    1.8887    0.0000 H   0  0  0  0  0  0  0  0  0  0  0  0
    4.7992   -2.4295    0.0000 H   0  0  0  0  0  0  0  0  0  0  0  0
    5.5975   -2.4264    0.0000 H   0  0  0  0  0  0  0  0  0  0  0  0
   10.7727    0.2299    0.0000 H   0  0  0  0  0  0  0  0  0  0  0  0
   10.7727    1.0593    0.0000 H   0  0  0  0  0  0  0  0  0  0  0  0
    4.2736    0.2938    0.0000 H   0  0  0  0  0  0  0  0  0  0  0  0
    6.7677    0.6330    0.0000 H   0  0  0  0  0  0  0  0  0  0  0  0
    6.1525    1.2577    0.0000 H   0  0  0  0  0  0  0  0  0  0  0  0
    5.5277    0.6425    0.0000 H   0  0  0  0  0  0  0  0  0  0  0  0
    3.7218   -1.0980    0.0000 H   0  0  0  0  0  0  0  0  0  0  0  0
    9.4020    2.1446    0.0000 H   0  0  0  0  0  0  0  0  0  0  0  0
    8.7820    2.7646    0.0000 H   0  0  0  0  0  0  0  0  0  0  0  0
    8.1620    2.1446    0.0000 H   0  0  0  0  0  0  0  0  0  0  0  0
    3.8091    0.6542    0.0000 H   0  0  0  0  0  0  0  0  0  0  0  0
    3.0120    0.6634    0.0000 H   0  0  0  0  0  0  0  0  0  0  0  0
   10.6456    2.5277    0.0000 H   0  0  0  0  0  0  0  0  0  0  0  0
    3.3866   -2.5277    0.0000 H   0  0  0  0  0  0  0  0  0  0  0  0
    2.0000    0.0101    0.0000 H   0  0  0  0  0  0  0  0  0  0  0  0
 16  1  1  1  0  0  0
  1 55  1  0  0  0  0
 21  2  1  1  0  0  0
  2 56  1  0  0  0  0
  3 23  1  0  0  0  0
  3 57  1  0  0  0  0
  4  5  1  0  0  0  0
  4  6  1  0  0  0  0
  4 10  1  0  0  0  0
  4 24  1  6  0  0  0
  5  7  1  0  0  0  0
  5 11  1  0  0  0  0
  5 25  1  1  0  0  0
  6  9  1  0  0  0  0
  6 15  1  0  0  0  0
  6 20  1  1  0  0  0
  7  8  1  0  0  0  0
  7 14  1  0  0  0  0
  7 26  1  6  0  0  0
  8 12  1  0  0  0  0
  8 16  1  0  0  0  0
  8 22  1  1  0  0  0
  9 13  1  0  0  0  0
  9 17  1  0  0  0  0
  9 27  1  6  0  0  0
 10 12  1  0  0  0  0
 10 28  1  0  0  0  0
 10 29  1  0  0  0  0
 11 13  1  0  0  0  0
 11 30  1  0  0  0  0
 11 31  1  0  0  0  0
 12 32  1  0  0  0  0
 12 33  1  0  0  0  0
 13 34  1  0  0  0  0
 13 35  1  0  0  0  0
 14 18  1  0  0  0  0
 14 36  1  0  0  0  0
 14 37  1  0  0  0  0
 15 19  1  0  0  0  0
 15 38  1  0  0  0  0
 15 39  1  0  0  0  0
 16 18  1  0  0  0  0
 16 40  1  0  0  0  0
 17 21  1  0  0  0  0
 17 41  1  0  0  0  0
 17 42  1  0  0  0  0
 18 43  1  0  0  0  0
 18 44  1  0  0  0  0
 19 21  1  0  0  0  0
 19 23  1  6  0  0  0
 19 45  1  0  0  0  0
 20 46  1  0  0  0  0
 20 47  1  0  0  0  0
 20 48  1  0  0  0  0
 21 49  1  0  0  0  0
 22 50  1  0  0  0  0
 22 51  1  0  0  0  0
 22 52  1  0  0  0  0
 23 53  1  0  0  0  0
 23 54  1  0  0  0  0
M  END
> <PUBCHEM_COMPOUND_CID>
244947

> <PUBCHEM_COMPOUND_CANONICALIZED>
1

> <PUBCHEM_CACTVS_COMPLEXITY>
466

> <PUBCHEM_CACTVS_HBOND_ACCEPTOR>
3

> <PUBCHEM_CACTVS_HBOND_DONOR>
3

> <PUBCHEM_CACTVS_ROTATABLE_BOND>
1

> <PUBCHEM_CACTVS_SUBSKEYS>
AAADcfB4MAAAAAAAAAAAAAAAAAAAAYAAAAAwYMAAAAAAAGDAAAAAGgAACAAADxSggAICAAAAAgAAAAAAAAAAAAAAAAAAAAAAAAAAEAIAAAAAQAAFAAAAAAGAwPAPgAAAAAAAAADAAAYAADAAAIAADAAAAA==

> <PUBCHEM_IUPAC_OPENEYE_NAME>
(2S,3R,5S,8R,9S,10S,13S,14S,17S)-2-(hydroxymethyl)-10,13-dimethyl-2,3,4,5,6,7,8,9,11,12,14,15,16,17-tetradecahydro-1H-cyclopenta[a]phenanthrene-3,17-diol

> <PUBCHEM_IUPAC_CAS_NAME>
(2S,3R,5S,8R,9S,10S,13S,14S,17S)-2-(hydroxymethyl)-10,13-dimethyl-2,3,4,5,6,7,8,9,11,12,14,15,16,17-tetradecahydro-1H-cyclopenta[a]phenanthrene-3,17-diol

> <PUBCHEM_IUPAC_NAME>
(2S,3R,5S,8R,9S,10S,13S,14S,17S)-2-(hydroxymethyl)-10,13-dimethyl-2,3,4,5,6,7,8,9,11,12,14,15,16,17-tetradecahydro-1H-cyclopenta[a]phenanthrene-3,17-diol

> <PUBCHEM_IUPAC_SYSTEMATIC_NAME>
(2S,3R,5S,8R,9S,10S,13S,14S,17S)-2-(hydroxymethyl)-10,13-dimethyl-2,3,4,5,6,7,8,9,11,12,14,15,16,17-tetradecahydro-1H-cyclopenta[a]phenanthrene-3,17-diol

> <PUBCHEM_IUPAC_TRADITIONAL_NAME>
(2S,3R,5S,8R,9S,10S,13S,14S,17S)-10,13-dimethyl-2-methylol-2,3,4,5,6,7,8,9,11,12,14,15,16,17-tetradecahydro-1H-cyclopenta[a]phenanthrene-3,17-diol

> <PUBCHEM_IUPAC_INCHI>
InChI=1S/C20H34O3/c1-19-8-7-16-14(15(19)5-6-18(19)23)4-3-13-9-17(22)12(11-21)10-20(13,16)2/h12-18,21-23H,3-11H2,1-2H3/t12-,13-,14-,15-,16-,17+,18-,19-,20-/m0/s1

> <PUBCHEM_IUPAC_INCHIKEY>
GMNUCAFZYMWGOG-GABTWMSCSA-N

> <PUBCHEM_XLOGP3>
3.9

> <PUBCHEM_EXACT_MASS>
322.250795

> <PUBCHEM_MOLECULAR_FORMULA>
C20H34O3

> <PUBCHEM_MOLECULAR_WEIGHT>
322.48216

> <PUBCHEM_OPENEYE_CAN_SMILES>
CC12CCC3C(C1CCC2O)CCC4C3(CC(C(C4)O)CO)C

> <PUBCHEM_OPENEYE_ISO_SMILES>
C[C@]12CC[C@H]3[C@H]([C@@H]1CC[C@@H]2O)CC[C@@H]4[C@@]3(C[C@H]([C@@H](C4)O)CO)C

> <PUBCHEM_CACTVS_TPSA>
60.7

> <PUBCHEM_MONOISOTOPIC_WEIGHT>
322.250795

> <PUBCHEM_TOTAL_CHARGE>
0

> <PUBCHEM_HEAVY_ATOM_COUNT>
23

> <PUBCHEM_ATOM_DEF_STEREO_COUNT>
9

> <PUBCHEM_ATOM_UDEF_STEREO_COUNT>
0

> <PUBCHEM_BOND_DEF_STEREO_COUNT>
0

> <PUBCHEM_BOND_UDEF_STEREO_COUNT>
0

> <PUBCHEM_ISOTOPIC_ATOM_COUNT>
0

> <PUBCHEM_COMPONENT_COUNT>
1

> <PUBCHEM_CACTVS_TAUTO_COUNT>
1

> <PUBCHEM_COORDINATE_TYPE>
1
5
255

> <PUBCHEM_BONDANNOTATIONS>
16  1  5
19  23  6
21  2  5
4  24  6
5  25  5
6  20  5
7  26  6
8  22  5
9  27  6

$$$$

