443440
  -OEChem-07051213023D

 34 36  0     1  0  0  0  0  0999 V2000
   -1.2163    2.5060   -0.5999 O   0  0  0  0  0  0  0  0  0  0  0  0
   -1.6720   -2.7680   -0.3429 O   0  0  0  0  0  0  0  0  0  0  0  0
   -2.4275    0.6316    0.0195 N   0  0  0  0  0  0  0  0  0  0  0  0
   -0.3590   -0.8862   -0.6053 N   0  0  0  0  0  0  0  0  0  0  0  0
   -2.4218   -0.6881    0.6352 C   0  0  1  0  0  0  0  0  0  0  0  0
   -3.8862   -1.1089    0.6107 C   0  0  0  0  0  0  0  0  0  0  0  0
   -3.7688    1.1781   -0.0836 C   0  0  0  0  0  0  0  0  0  0  0  0
   -4.6237    0.2226    0.7373 C   0  0  0  0  0  0  0  0  0  0  0  0
   -0.0241    0.4479   -0.1146 C   0  0  2  0  0  0  0  0  0  0  0  0
   -1.2661    1.3160   -0.2999 C   0  0  0  0  0  0  0  0  0  0  0  0
   -1.4948   -1.5638   -0.1812 C   0  0  0  0  0  0  0  0  0  0  0  0
    1.1814    1.0155   -0.8466 C   0  0  0  0  0  0  0  0  0  0  0  0
    2.4755    0.4595   -0.3119 C   0  0  0  0  0  0  0  0  0  0  0  0
    3.1208    1.1125    0.7285 C   0  0  0  0  0  0  0  0  0  0  0  0
    3.0029   -0.6970   -0.8679 C   0  0  0  0  0  0  0  0  0  0  0  0
    4.3192    0.5980    1.2233 C   0  0  0  0  0  0  0  0  0  0  0  0
    4.2012   -1.2117   -0.3731 C   0  0  0  0  0  0  0  0  0  0  0  0
    4.8594   -0.5640    0.6725 C   0  0  0  0  0  0  0  0  0  0  0  0
   -2.0398   -0.5948    1.6583 H   0  0  0  0  0  0  0  0  0  0  0  0
   -4.1337   -1.8037    1.4187 H   0  0  0  0  0  0  0  0  0  0  0  0
   -4.1481   -1.5905   -0.3396 H   0  0  0  0  0  0  0  0  0  0  0  0
   -4.0513    1.1647   -1.1416 H   0  0  0  0  0  0  0  0  0  0  0  0
   -3.8004    2.2091    0.2797 H   0  0  0  0  0  0  0  0  0  0  0  0
   -5.6578    0.1737    0.3857 H   0  0  0  0  0  0  0  0  0  0  0  0
   -4.6334    0.5386    1.7875 H   0  0  0  0  0  0  0  0  0  0  0  0
    0.1611    0.3719    0.9649 H   0  0  0  0  0  0  0  0  0  0  0  0
    0.3411   -1.4219   -1.1080 H   0  0  0  0  0  0  0  0  0  0  0  0
    1.2211    2.1084   -0.7495 H   0  0  0  0  0  0  0  0  0  0  0  0
    1.1112    0.8282   -1.9268 H   0  0  0  0  0  0  0  0  0  0  0  0
    2.7073    2.0168    1.1662 H   0  0  0  0  0  0  0  0  0  0  0  0
    2.5075   -1.2059   -1.6895 H   0  0  0  0  0  0  0  0  0  0  0  0
    4.8313    1.1019    2.0378 H   0  0  0  0  0  0  0  0  0  0  0  0
    4.6233   -2.1151   -0.8034 H   0  0  0  0  0  0  0  0  0  0  0  0
    5.7926   -0.9644    1.0575 H   0  0  0  0  0  0  0  0  0  0  0  0
  1 10  2  0  0  0  0
  2 11  2  0  0  0  0
  3  5  1  0  0  0  0
  3  7  1  0  0  0  0
  3 10  1  0  0  0  0
  4  9  1  0  0  0  0
  4 11  1  0  0  0  0
  4 27  1  0  0  0  0
  5  6  1  0  0  0  0
  5 11  1  0  0  0  0
  5 19  1  0  0  0  0
  6  8  1  0  0  0  0
  6 20  1  0  0  0  0
  6 21  1  0  0  0  0
  7  8  1  0  0  0  0
  7 22  1  0  0  0  0
  7 23  1  0  0  0  0
  8 24  1  0  0  0  0
  8 25  1  0  0  0  0
  9 10  1  0  0  0  0
  9 12  1  0  0  0  0
  9 26  1  0  0  0  0
 12 13  1  0  0  0  0
 12 28  1  0  0  0  0
 12 29  1  0  0  0  0
 13 14  2  0  0  0  0
 13 15  1  0  0  0  0
 14 16  1  0  0  0  0
 14 30  1  0  0  0  0
 15 17  2  0  0  0  0
 15 31  1  0  0  0  0
 16 18  2  0  0  0  0
 16 32  1  0  0  0  0
 17 18  1  0  0  0  0
 17 33  1  0  0  0  0
 18 34  1  0  0  0  0
M  END
> <PUBCHEM_COMPOUND_CID>
443440

> <PUBCHEM_CONFORMER_RMSD>
0.6

> <PUBCHEM_CONFORMER_DIVERSEORDER>
1
4
5
3
6
2

> <PUBCHEM_MMFF94_PARTIAL_CHARGES>
22
1 -0.57
10 0.57
11 0.57
12 0.14
13 -0.14
14 -0.15
15 -0.15
16 -0.15
17 -0.15
18 -0.15
2 -0.57
27 0.37
3 -0.66
30 0.15
31 0.15
32 0.15
33 0.15
34 0.15
4 -0.73
5 0.36
7 0.3
9 0.36

> <PUBCHEM_EFFECTIVE_ROTOR_COUNT>
3

> <PUBCHEM_PHARMACOPHORE_FEATURES>
6
1 1 acceptor
1 2 acceptor
1 4 donor
5 3 5 6 7 8 rings
6 13 14 15 16 17 18 rings
6 3 4 5 9 10 11 rings

> <PUBCHEM_HEAVY_ATOM_COUNT>
18

> <PUBCHEM_ATOM_DEF_STEREO_COUNT>
2

> <PUBCHEM_ATOM_UDEF_STEREO_COUNT>
0

> <PUBCHEM_BOND_DEF_STEREO_COUNT>
0

> <PUBCHEM_BOND_UDEF_STEREO_COUNT>
0

> <PUBCHEM_ISOTOPIC_ATOM_COUNT>
0

> <PUBCHEM_COMPONENT_COUNT>
1

> <PUBCHEM_CACTVS_TAUTO_COUNT>
2

> <PUBCHEM_CONFORMER_ID>
0006C43000000001

> <PUBCHEM_MMFF94_ENERGY>
57.3506

> <PUBCHEM_FEATURE_SELFOVERLAP>
30.544

> <PUBCHEM_SHAPE_FINGERPRINT>
10366900 7 17458346325568415696
11132069 177 18407757036640670447
12119455 92 17385726915121281061
12236239 1 17131828794348250708
12251169 10 18335421244823332676
12346177 29 18337118877622938767
12507560 40 18334298686628074992
12633257 1 18260559896308558880
128620 24 7925911482571440714
13140716 1 18339358535437120155
13533116 47 17531521091797028574
13544592 145 18115295795733209478
13551218 46 18270683185295982922
13581323 91 18343020004058461820
13675066 3 18412260614545343203
13862211 1 18340767049373678339
14341114 176 18334858316814376456
14420673 8 18053383481648373850
14866123 147 16817690883399130978
15042514 8 18341044113266079771
15196674 1 18411697668886850063
15209294 21 17895460540624589833
15375358 24 18113900468069079046
15885798 251 18272930505432053517
16752209 62 18059590116958604477
17804303 29 18409724080228197548
1813 80 17275102825652818462
19049666 15 17971751327327666140
19141452 34 18334294241009895575
19784866 240 15913057555486237472
20279233 1 18186799179959735326
20361792 2 16845298220102010788
20510252 161 18260829362029767137
20645477 70 13038908863280993392
21033648 29 18189070813737916720
21065199 12 18334297548287337234
21637258 2 15841549618535985089
22182313 1 18196924685972541919
22646028 28 17847061073577115050
22854114 59 17894349982008345720
22959321 94 18272656740206248498
23366157 5 17699283266030038989
23402539 116 18334583442991221341
23559900 14 18334284375860147428
26918003 58 18113902675935405528
2748010 2 18124305266935693493
2838139 119 15213853982257392721
351380 180 17894915147959345561
42 15 18413669119300629394
4340502 62 15430028868973475983
465052 167 17702929371552609315
474 4 13840272459718782034
4990 188 10952055554473884352
5104073 3 18410852127254717960
5374978 207 18413387622886362816
5924683 9 17896329025603148951
69090 78 18260271853746811415
90316 7 18272932730373137397
9709674 26 18260827090276845718

> <PUBCHEM_SHAPE_MULTIPOLES>
348.73
9.69
1.98
0.97
3.41
0.34
-0.1
0.98
-2.96
-1.06
0.34
0.52
-0.06
0.57

> <PUBCHEM_SHAPE_SELFOVERLAP>
750.57

> <PUBCHEM_SHAPE_VOLUME>
191.5

> <PUBCHEM_COORDINATE_TYPE>
2
5
10

$$$$

