5311101
  -OEChem-07051212543D

 57 60  0     1  0  0  0  0  0999 V2000
    4.4113   -1.5210    0.5314 S   0  0  0  0  0  0  0  0  0  0  0  0
   -1.3993   -0.2731    1.2789 F   0  0  0  0  0  0  0  0  0  0  0  0
   -3.9071    2.7875   -0.5004 F   0  0  0  0  0  0  0  0  0  0  0  0
    6.4217   -3.1355    0.2209 F   0  0  0  0  0  0  0  0  0  0  0  0
    2.8696    0.5522    1.8805 O   0  0  0  0  0  0  0  0  0  0  0  0
   -0.1166   -2.0809   -1.5458 O   0  0  0  0  0  0  0  0  0  0  0  0
    5.1479    0.8347   -0.4095 O   0  0  0  0  0  0  0  0  0  0  0  0
   -6.2011   -0.9480    1.6989 O   0  0  0  0  0  0  0  0  0  0  0  0
    1.7192    0.1265   -0.2798 C   0  0  1  0  0  0  0  0  0  0  0  0
    0.6456    1.1990    0.0055 C   0  0  2  0  0  0  0  0  0  0  0  0
   -0.7152    0.9003   -0.6445 C   0  0  1  0  0  0  0  0  0  0  0  0
   -1.2583   -0.4608   -0.0893 C   0  0  1  0  0  0  0  0  0  0  0  0
    2.9209    0.7711    0.4762 C   0  0  1  0  0  0  0  0  0  0  0  0
    1.3504    2.5141   -0.3252 C   0  0  0  0  0  0  0  0  0  0  0  0
    1.2033   -1.2117    0.2889 C   0  0  0  0  0  0  0  0  0  0  0  0
    2.8264    2.2807    0.0959 C   0  0  1  0  0  0  0  0  0  0  0  0
   -0.2056   -1.6049   -0.2106 C   0  0  2  0  0  0  0  0  0  0  0  0
   -2.7119   -0.7870   -0.6160 C   0  0  1  0  0  0  0  0  0  0  0  0
   -1.7022    2.0461   -0.3632 C   0  0  0  0  0  0  0  0  0  0  0  0
    2.0479   -0.0238   -1.7902 C   0  0  0  0  0  0  0  0  0  0  0  0
   -3.1062    1.7445   -0.8677 C   0  0  1  0  0  0  0  0  0  0  0  0
   -3.5957    0.4308   -0.3109 C   0  0  0  0  0  0  0  0  0  0  0  0
    3.2698    3.2480    1.1895 C   0  0  0  0  0  0  0  0  0  0  0  0
    4.2530    0.1859    0.1187 C   0  0  0  0  0  0  0  0  0  0  0  0
   -2.7803   -1.0613   -2.1356 C   0  0  0  0  0  0  0  0  0  0  0  0
   -3.2445   -2.0396    0.0651 C   0  0  0  0  0  0  0  0  0  0  0  0
   -4.7111    0.3700    0.4337 C   0  0  0  0  0  0  0  0  0  0  0  0
   -4.3529   -2.1034    0.8088 C   0  0  0  0  0  0  0  0  0  0  0  0
   -5.1727   -0.8992    1.0325 C   0  0  0  0  0  0  0  0  0  0  0  0
    6.0937   -1.8413   -0.0366 C   0  0  0  0  0  0  0  0  0  0  0  0
    0.4676    1.2256    1.0934 H   0  0  0  0  0  0  0  0  0  0  0  0
   -0.5945    0.8320   -1.7303 H   0  0  0  0  0  0  0  0  0  0  0  0
    1.2930    2.7309   -1.3984 H   0  0  0  0  0  0  0  0  0  0  0  0
    0.8944    3.3578    0.2036 H   0  0  0  0  0  0  0  0  0  0  0  0
    1.1461   -1.1657    1.3824 H   0  0  0  0  0  0  0  0  0  0  0  0
    1.8677   -2.0370    0.0239 H   0  0  0  0  0  0  0  0  0  0  0  0
    3.4375    2.4977   -0.7900 H   0  0  0  0  0  0  0  0  0  0  0  0
   -0.5188   -2.4474    0.4183 H   0  0  0  0  0  0  0  0  0  0  0  0
   -1.3552    2.9733   -0.8351 H   0  0  0  0  0  0  0  0  0  0  0  0
   -1.7434    2.2593    0.7135 H   0  0  0  0  0  0  0  0  0  0  0  0
    2.5463    0.8582   -2.2042 H   0  0  0  0  0  0  0  0  0  0  0  0
    2.7125   -0.8762   -1.9674 H   0  0  0  0  0  0  0  0  0  0  0  0
    1.1599   -0.1866   -2.4043 H   0  0  0  0  0  0  0  0  0  0  0  0
   -3.1202    1.7160   -1.9621 H   0  0  0  0  0  0  0  0  0  0  0  0
    4.3059    3.0530    1.4842 H   0  0  0  0  0  0  0  0  0  0  0  0
    3.2100    4.2821    0.8338 H   0  0  0  0  0  0  0  0  0  0  0  0
    2.6377    3.1657    2.0798 H   0  0  0  0  0  0  0  0  0  0  0  0
   -3.8165   -1.0155   -2.4970 H   0  0  0  0  0  0  0  0  0  0  0  0
   -2.2072   -0.3360   -2.7208 H   0  0  0  0  0  0  0  0  0  0  0  0
   -2.4154   -2.0582   -2.4022 H   0  0  0  0  0  0  0  0  0  0  0  0
   -2.6942   -2.9659   -0.0843 H   0  0  0  0  0  0  0  0  0  0  0  0
    2.9536   -0.3994    2.0583 H   0  0  0  0  0  0  0  0  0  0  0  0
   -0.5819   -2.9336   -1.5858 H   0  0  0  0  0  0  0  0  0  0  0  0
   -5.3119    1.2491    0.6406 H   0  0  0  0  0  0  0  0  0  0  0  0
   -4.6808   -3.0355    1.2540 H   0  0  0  0  0  0  0  0  0  0  0  0
    6.8092   -1.2028    0.4880 H   0  0  0  0  0  0  0  0  0  0  0  0
    6.1762   -1.6804   -1.1146 H   0  0  0  0  0  0  0  0  0  0  0  0
  1 24  1  0  0  0  0
  1 30  1  0  0  0  0
  2 12  1  0  0  0  0
  3 21  1  0  0  0  0
  4 30  1  0  0  0  0
  5 13  1  0  0  0  0
  5 52  1  0  0  0  0
  6 17  1  0  0  0  0
  6 53  1  0  0  0  0
  7 24  2  0  0  0  0
  8 29  2  0  0  0  0
  9 10  1  0  0  0  0
  9 13  1  0  0  0  0
  9 15  1  0  0  0  0
  9 20  1  0  0  0  0
 10 11  1  0  0  0  0
 10 14  1  0  0  0  0
 10 31  1  0  0  0  0
 11 12  1  0  0  0  0
 11 19  1  0  0  0  0
 11 32  1  0  0  0  0
 12 17  1  0  0  0  0
 12 18  1  0  0  0  0
 13 16  1  0  0  0  0
 13 24  1  0  0  0  0
 14 16  1  0  0  0  0
 14 33  1  0  0  0  0
 14 34  1  0  0  0  0
 15 17  1  0  0  0  0
 15 35  1  0  0  0  0
 15 36  1  0  0  0  0
 16 23  1  0  0  0  0
 16 37  1  0  0  0  0
 17 38  1  0  0  0  0
 18 22  1  0  0  0  0
 18 25  1  0  0  0  0
 18 26  1  0  0  0  0
 19 21  1  0  0  0  0
 19 39  1  0  0  0  0
 19 40  1  0  0  0  0
 20 41  1  0  0  0  0
 20 42  1  0  0  0  0
 20 43  1  0  0  0  0
 21 22  1  0  0  0  0
 21 44  1  0  0  0  0
 22 27  2  0  0  0  0
 23 45  1  0  0  0  0
 23 46  1  0  0  0  0
 23 47  1  0  0  0  0
 25 48  1  0  0  0  0
 25 49  1  0  0  0  0
 25 50  1  0  0  0  0
 26 28  2  0  0  0  0
 26 51  1  0  0  0  0
 27 29  1  0  0  0  0
 27 54  1  0  0  0  0
 28 29  1  0  0  0  0
 28 55  1  0  0  0  0
 30 56  1  0  0  0  0
 30 57  1  0  0  0  0
M  END
> <PUBCHEM_COMPOUND_CID>
5311101

> <PUBCHEM_CONFORMER_RMSD>
0.8

> <PUBCHEM_CONFORMER_DIVERSEORDER>
1
3
4
2

> <PUBCHEM_MMFF94_PARTIAL_CHARGES>
25
1 -0.37
12 0.34
13 0.34
17 0.28
18 0.28
2 -0.34
21 0.48
22 -0.28
24 0.65
26 -0.29
27 -0.14
28 -0.14
29 0.54
3 -0.34
30 0.57
4 -0.34
5 -0.68
51 0.15
52 0.4
53 0.4
54 0.15
55 0.15
6 -0.68
7 -0.57
8 -0.57

> <PUBCHEM_EFFECTIVE_ROTOR_COUNT>
4.4

> <PUBCHEM_PHARMACOPHORE_FEATURES>
9
1 5 acceptor
1 5 donor
1 6 acceptor
1 6 donor
1 8 acceptor
5 9 10 13 14 16 rings
6 11 12 18 19 21 22 rings
6 18 22 26 27 28 29 rings
6 9 10 11 12 15 17 rings

> <PUBCHEM_HEAVY_ATOM_COUNT>
30

> <PUBCHEM_ATOM_DEF_STEREO_COUNT>
9

> <PUBCHEM_ATOM_UDEF_STEREO_COUNT>
0

> <PUBCHEM_BOND_DEF_STEREO_COUNT>
0

> <PUBCHEM_BOND_UDEF_STEREO_COUNT>
0

> <PUBCHEM_ISOTOPIC_ATOM_COUNT>
0

> <PUBCHEM_COMPONENT_COUNT>
1

> <PUBCHEM_CACTVS_TAUTO_COUNT>
1

> <PUBCHEM_CONFORMER_ID>
00510A7D00000001

> <PUBCHEM_MMFF94_ENERGY>
104.946

> <PUBCHEM_FEATURE_SELFOVERLAP>
45.767

> <PUBCHEM_SHAPE_FINGERPRINT>
10319926 262 18340497749842833608
10366900 7 12751235895830754797
1100329 8 16823617276209521269
11135926 11 18266470806891293444
11405975 8 18114184098860831570
12035758 1 18113625616438646186
12166972 35 17917702518303253862
12403259 226 18411423881928492740
12403259 415 18335423426298025648
12403814 3 18262521386666791535
12422481 6 18409162208527838905
12616971 3 18040718034786155791
12633257 1 17240762848112835723
12788726 201 16951947506011236313
13009979 54 17988915699758290980
13140716 1 18409449202179419713
13224815 77 18339088068741495213
13583140 156 18201737145024429487
13782708 43 18040433248643426375
14341114 176 18342453729394067569
14420673 8 18268147733157517218
14955137 171 18335699498701353778
15196674 1 18412829105465583628
15788980 27 18409735062085117974
16945 1 18341620291517793117
17349148 13 17458062651462772324
17492 89 18339367348837164102
1813 80 16988849345337493756
18393751 57 16962973215430878729
18608769 82 18128248991917054730
19591789 44 18412267224758597910
20261772 1 18335701581633605957
21033648 29 17968676972066970104
21267235 1 18343013410882911202
21279426 13 18268995448348635110
21682296 61 18337106864562676639
22182313 1 18188200026450963647
23522609 53 18124278745181220925
23559900 14 18342745100091907964
3004659 81 18200592618662387278
335352 9 18338521966018406501
3383291 50 18272656757629751082
350125 39 18410568470455965936
465052 167 18341040844094185058
5104073 3 18410860970824930640
9709674 26 18269840830645004288

> <PUBCHEM_SHAPE_MULTIPOLES>
575.94
12.31
3.09
1.36
3.14
0.82
-0.17
-5.98
3.64
2.24
0.18
-0.74
-0.18
0.99

> <PUBCHEM_SHAPE_SELFOVERLAP>
1236.887

> <PUBCHEM_SHAPE_VOLUME>
322.7

> <PUBCHEM_COORDINATE_TYPE>
2
5
10

$$$$

