235942
  -OEChem-07051213063D

 59 62  0     1  0  0  0  0  0999 V2000
   -5.7504   -0.9445   -0.2830 O   0  0  0  0  0  0  0  0  0  0  0  0
    4.1150   -0.1413   -1.7049 O   0  0  0  0  0  0  0  0  0  0  0  0
   -0.3393   -0.4818   -0.2236 C   0  0  1  0  0  0  0  0  0  0  0  0
   -1.1300    0.7683    0.2845 C   0  0  2  0  0  0  0  0  0  0  0  0
    1.1288   -0.5186    0.3440 C   0  0  2  0  0  0  0  0  0  0  0  0
   -2.5224    0.7566   -0.3547 C   0  0  1  0  0  0  0  0  0  0  0  0
   -3.3292   -0.5074    0.0017 C   0  0  2  0  0  0  0  0  0  0  0  0
    1.8162    0.8261   -0.0546 C   0  0  1  0  0  0  0  0  0  0  0  0
   -1.1387   -1.7971   -0.0232 C   0  0  0  0  0  0  0  0  0  0  0  0
   -0.3785    2.0695   -0.0297 C   0  0  0  0  0  0  0  0  0  0  0  0
   -2.5811   -1.7243   -0.5577 C   0  0  0  0  0  0  0  0  0  0  0  0
    1.0608    2.0490    0.4797 C   0  0  0  0  0  0  0  0  0  0  0  0
   -3.4914    1.8958   -0.0496 C   0  0  0  0  0  0  0  0  0  0  0  0
   -4.6484   -0.1736   -0.7212 C   0  0  2  0  0  0  0  0  0  0  0  0
    1.9394   -1.6724   -0.3095 C   0  0  0  0  0  0  0  0  0  0  0  0
    3.3050    0.8765    0.3324 C   0  0  0  0  0  0  0  0  0  0  0  0
   -4.8705    1.3221   -0.4224 C   0  0  0  0  0  0  0  0  0  0  0  0
    4.0938   -0.2928   -0.2808 C   0  0  1  0  0  0  0  0  0  0  0  0
    1.1194   -0.7355    1.8791 C   0  0  0  0  0  0  0  0  0  0  0  0
    3.4359   -1.6432    0.0308 C   0  0  0  0  0  0  0  0  0  0  0  0
   -3.5819   -0.7080    1.5176 C   0  0  0  0  0  0  0  0  0  0  0  0
    5.5439   -0.2806    0.2069 C   0  0  0  0  0  0  0  0  0  0  0  0
    6.2035    1.0570   -0.0617 C   0  0  0  0  0  0  0  0  0  0  0  0
   -0.2453   -0.3650   -1.3152 H   0  0  0  0  0  0  0  0  0  0  0  0
   -1.2423    0.7162    1.3722 H   0  0  0  0  0  0  0  0  0  0  0  0
   -2.3689    0.7745   -1.4470 H   0  0  0  0  0  0  0  0  0  0  0  0
    1.7786    0.9000   -1.1525 H   0  0  0  0  0  0  0  0  0  0  0  0
   -1.1646   -2.0711    1.0357 H   0  0  0  0  0  0  0  0  0  0  0  0
   -0.6359   -2.6209   -0.5420 H   0  0  0  0  0  0  0  0  0  0  0  0
   -0.8997    2.9232    0.4191 H   0  0  0  0  0  0  0  0  0  0  0  0
   -0.3713    2.2405   -1.1140 H   0  0  0  0  0  0  0  0  0  0  0  0
   -2.5433   -1.6712   -1.6536 H   0  0  0  0  0  0  0  0  0  0  0  0
   -3.1125   -2.6518   -0.3127 H   0  0  0  0  0  0  0  0  0  0  0  0
    1.5609    2.9684    0.1513 H   0  0  0  0  0  0  0  0  0  0  0  0
    1.0714    2.0663    1.5754 H   0  0  0  0  0  0  0  0  0  0  0  0
   -3.2640    2.7952   -0.6308 H   0  0  0  0  0  0  0  0  0  0  0  0
   -3.4664    2.1706    1.0108 H   0  0  0  0  0  0  0  0  0  0  0  0
   -4.5475   -0.3196   -1.8035 H   0  0  0  0  0  0  0  0  0  0  0  0
    1.8258   -1.6277   -1.4006 H   0  0  0  0  0  0  0  0  0  0  0  0
    1.5423   -2.6458    0.0022 H   0  0  0  0  0  0  0  0  0  0  0  0
    3.6930    1.8297   -0.0476 H   0  0  0  0  0  0  0  0  0  0  0  0
    3.4190    0.8935    1.4222 H   0  0  0  0  0  0  0  0  0  0  0  0
   -5.5908    1.4902    0.3860 H   0  0  0  0  0  0  0  0  0  0  0  0
   -5.2711    1.8237   -1.3107 H   0  0  0  0  0  0  0  0  0  0  0  0
    0.7325   -1.7268    2.1370 H   0  0  0  0  0  0  0  0  0  0  0  0
    2.1203   -0.6727    2.3151 H   0  0  0  0  0  0  0  0  0  0  0  0
    0.5063   -0.0006    2.4061 H   0  0  0  0  0  0  0  0  0  0  0  0
    3.5727   -1.8942    1.0892 H   0  0  0  0  0  0  0  0  0  0  0  0
    3.9260   -2.4409   -0.5425 H   0  0  0  0  0  0  0  0  0  0  0  0
   -4.1441   -1.6319    1.6970 H   0  0  0  0  0  0  0  0  0  0  0  0
   -2.6556   -0.7882    2.0927 H   0  0  0  0  0  0  0  0  0  0  0  0
   -4.1567    0.1120    1.9594 H   0  0  0  0  0  0  0  0  0  0  0  0
    6.1187   -1.0571   -0.3133 H   0  0  0  0  0  0  0  0  0  0  0  0
    5.5967   -0.4998    1.2800 H   0  0  0  0  0  0  0  0  0  0  0  0
   -5.9864   -0.6730    0.6195 H   0  0  0  0  0  0  0  0  0  0  0  0
    4.6219   -0.8805   -2.0817 H   0  0  0  0  0  0  0  0  0  0  0  0
    6.0991    1.3720   -1.1044 H   0  0  0  0  0  0  0  0  0  0  0  0
    5.8133    1.8467    0.5873 H   0  0  0  0  0  0  0  0  0  0  0  0
    7.2762    0.9832    0.1495 H   0  0  0  0  0  0  0  0  0  0  0  0
  1 14  1  0  0  0  0
  1 55  1  0  0  0  0
  2 18  1  0  0  0  0
  2 56  1  0  0  0  0
  3  4  1  0  0  0  0
  3  5  1  0  0  0  0
  3  9  1  0  0  0  0
  3 24  1  0  0  0  0
  4  6  1  0  0  0  0
  4 10  1  0  0  0  0
  4 25  1  0  0  0  0
  5  8  1  0  0  0  0
  5 15  1  0  0  0  0
  5 19  1  0  0  0  0
  6  7  1  0  0  0  0
  6 13  1  0  0  0  0
  6 26  1  0  0  0  0
  7 11  1  0  0  0  0
  7 14  1  0  0  0  0
  7 21  1  0  0  0  0
  8 12  1  0  0  0  0
  8 16  1  0  0  0  0
  8 27  1  0  0  0  0
  9 11  1  0  0  0  0
  9 28  1  0  0  0  0
  9 29  1  0  0  0  0
 10 12  1  0  0  0  0
 10 30  1  0  0  0  0
 10 31  1  0  0  0  0
 11 32  1  0  0  0  0
 11 33  1  0  0  0  0
 12 34  1  0  0  0  0
 12 35  1  0  0  0  0
 13 17  1  0  0  0  0
 13 36  1  0  0  0  0
 13 37  1  0  0  0  0
 14 17  1  0  0  0  0
 14 38  1  0  0  0  0
 15 20  1  0  0  0  0
 15 39  1  0  0  0  0
 15 40  1  0  0  0  0
 16 18  1  0  0  0  0
 16 41  1  0  0  0  0
 16 42  1  0  0  0  0
 17 43  1  0  0  0  0
 17 44  1  0  0  0  0
 18 20  1  0  0  0  0
 18 22  1  0  0  0  0
 19 45  1  0  0  0  0
 19 46  1  0  0  0  0
 19 47  1  0  0  0  0
 20 48  1  0  0  0  0
 20 49  1  0  0  0  0
 21 50  1  0  0  0  0
 21 51  1  0  0  0  0
 21 52  1  0  0  0  0
 22 23  1  0  0  0  0
 22 53  1  0  0  0  0
 22 54  1  0  0  0  0
 23 57  1  0  0  0  0
 23 58  1  0  0  0  0
 23 59  1  0  0  0  0
M  END
> <PUBCHEM_COMPOUND_CID>
235942

> <PUBCHEM_CONFORMER_RMSD>
0.6

> <PUBCHEM_CONFORMER_DIVERSEORDER>
1

> <PUBCHEM_MMFF94_PARTIAL_CHARGES>
6
1 -0.68
14 0.28
18 0.28
2 -0.68
55 0.4
56 0.4

> <PUBCHEM_EFFECTIVE_ROTOR_COUNT>
3.2

> <PUBCHEM_PHARMACOPHORE_FEATURES>
9
1 1 acceptor
1 1 donor
1 2 acceptor
1 2 donor
1 23 hydrophobe
5 6 7 13 14 17 rings
6 3 4 5 8 10 12 rings
6 3 4 6 7 9 11 rings
6 5 8 15 16 18 20 rings

> <PUBCHEM_HEAVY_ATOM_COUNT>
23

> <PUBCHEM_ATOM_DEF_STEREO_COUNT>
8

> <PUBCHEM_ATOM_UDEF_STEREO_COUNT>
0

> <PUBCHEM_BOND_DEF_STEREO_COUNT>
0

> <PUBCHEM_BOND_UDEF_STEREO_COUNT>
0

> <PUBCHEM_ISOTOPIC_ATOM_COUNT>
0

> <PUBCHEM_COMPONENT_COUNT>
1

> <PUBCHEM_CACTVS_TAUTO_COUNT>
1

> <PUBCHEM_CONFORMER_ID>
000399A600000001

> <PUBCHEM_MMFF94_ENERGY>
84.0084

> <PUBCHEM_FEATURE_SELFOVERLAP>
45.76

> <PUBCHEM_SHAPE_FINGERPRINT>
10 15 18341339886405099616
10366900 7 17846785092079938457
10498660 4 18340208604133899989
10906281 52 18337372899410993816
11578080 2 16663193689389087778
12011746 2 18411707590836323533
121448 382 16773790377113538003
12236239 1 17988928889924284938
12403259 415 18040727960983162705
12403814 3 17704075117975780181
12516196 113 17894915118042416952
12788726 201 17749669713744187008
128620 24 18343582958127463318
13140716 1 18192426368506157322
13224815 77 18060705000031551371
13288520 33 18260548913871532165
13533116 47 5039678027852684956
13862211 1 18409452492229402242
14790565 3 17614837848250030785
15099037 51 18408604760068788559
15196674 1 18337674216756849398
15536298 74 18261117339555048857
15788980 27 18411981368989026826
15848702 151 17458616843629730726
1601671 61 18409450301848750836
16752209 62 18337962293531031625
16945 1 18339079276695228193
17349148 13 17385443215710187623
18608769 82 18271240500848319915
19141452 34 18040435451755498599
19862831 5 18272369788813880493
200 152 17967818253733323337
21033648 29 17313683619303710585
21267235 1 18409162199447462583
21279426 13 18265051516691911468
21421861 104 17843974869203425370
221357 26 18408328787351547853
221490 88 18268425737557475115
23175994 123 16949998123476396745
23402539 116 18411143532649490398
23402655 69 18409168835335250886
23557571 272 18187361047813578020
23559900 14 18187938239435935225
3004659 81 18271243936959221934
335352 9 18409451388116943421
34797466 226 17604142641322324212
34934 24 18411142454407068042
350125 39 18409166632613568665
3545911 37 18408324371539579007
4214541 1 18409450301848848349
4325135 7 18410855439476492324
4340502 62 16630237108309735001
474 4 17561075887432119716
4921388 177 16343408541133167619
5104073 3 18339923826358858034
542803 24 17418372497686938262
633830 44 17846501392030521886
9709674 26 18335979848096193087

> <PUBCHEM_SHAPE_MULTIPOLES>
461.59
11.86
2.03
1.05
4.08
0.3
0.26
0.73
-1.84
-0.51
-0.01
0.06
-0.21
0.18

> <PUBCHEM_SHAPE_SELFOVERLAP>
974.263

> <PUBCHEM_SHAPE_VOLUME>
257

> <PUBCHEM_COORDINATE_TYPE>
2
5
10

$$$$

