441128
  -OEChem-07051212522D

 34 35  0     1  0  0  0  0  0999 V2000
    7.2192   -0.0299    0.0000 S   0  0  0  0  0  0  0  0  0  0  0  0
    3.2273    2.1482    0.0000 O   0  0  0  0  0  0  0  0  0  0  0  0
    2.9665   -1.2426    0.0000 O   0  0  0  0  0  0  0  0  0  0  0  0
    6.9186   -1.9979    0.0000 O   0  0  0  0  0  0  0  0  0  0  0  0
    5.2713   -2.5331    0.0000 O   0  0  0  0  0  0  0  0  0  0  0  0
    4.6804   -0.5299    0.0000 N   0  0  0  0  0  0  0  0  0  0  0  0
    9.2192    1.7022    0.0000 N   0  0  0  0  0  0  0  0  0  0  0  0
    4.6804    0.4701    0.0000 C   0  0  1  0  0  0  0  0  0  0  0  0
    3.6721    0.4743    0.0000 C   0  0  2  0  0  0  0  0  0  0  0  0
    5.6314    0.7791    0.0000 C   0  0  0  0  0  0  0  0  0  0  0  0
    3.6721   -0.5340    0.0000 C   0  0  0  0  0  0  0  0  0  0  0  0
    2.9665    1.1828    0.0000 C   0  0  1  0  0  0  0  0  0  0  0  0
    5.6314   -0.8389    0.0000 C   0  0  0  0  0  0  0  0  0  0  0  0
    6.2192   -0.0299    0.0000 C   0  0  0  0  0  0  0  0  0  0  0  0
    2.0000    0.9260    0.0000 C   0  0  0  0  0  0  0  0  0  0  0  0
    5.9405   -1.7900    0.0000 C   0  0  0  0  0  0  0  0  0  0  0  0
    7.7192    0.8361    0.0000 C   0  0  0  0  0  0  0  0  0  0  0  0
    8.7192    0.8361    0.0000 C   0  0  0  0  0  0  0  0  0  0  0  0
    4.5491    1.3099    0.0000 H   0  0  0  0  0  0  0  0  0  0  0  0
    2.8865    0.1498    0.0000 H   0  0  0  0  0  0  0  0  0  0  0  0
    6.1684    1.0891    0.0000 H   0  0  0  0  0  0  0  0  0  0  0  0
    5.3793    1.3455    0.0000 H   0  0  0  0  0  0  0  0  0  0  0  0
    2.5290    1.6221    0.0000 H   0  0  0  0  0  0  0  0  0  0  0  0
    1.8408    1.5252    0.0000 H   0  0  0  0  0  0  0  0  0  0  0  0
    1.4008    0.7668    0.0000 H   0  0  0  0  0  0  0  0  0  0  0  0
    2.1592    0.3268    0.0000 H   0  0  0  0  0  0  0  0  0  0  0  0
    2.7898    2.5875    0.0000 H   0  0  0  0  0  0  0  0  0  0  0  0
    7.8269    1.4467    0.0000 H   0  0  0  0  0  0  0  0  0  0  0  0
    7.1366    1.0482    0.0000 H   0  0  0  0  0  0  0  0  0  0  0  0
    8.6116    0.2256    0.0000 H   0  0  0  0  0  0  0  0  0  0  0  0
    9.3018    0.6241    0.0000 H   0  0  0  0  0  0  0  0  0  0  0  0
    7.1102   -2.5875    0.0000 H   0  0  0  0  0  0  0  0  0  0  0  0
    9.8392    1.7022    0.0000 H   0  0  0  0  0  0  0  0  0  0  0  0
    8.9092    2.2391    0.0000 H   0  0  0  0  0  0  0  0  0  0  0  0
  1 14  1  0  0  0  0
  1 17  1  0  0  0  0
 12  2  1  1  0  0  0
  2 27  1  0  0  0  0
  3 11  2  0  0  0  0
  4 16  1  0  0  0  0
  4 32  1  0  0  0  0
  5 16  2  0  0  0  0
  6  8  1  0  0  0  0
  6 11  1  0  0  0  0
  6 13  1  0  0  0  0
  7 18  1  0  0  0  0
  7 33  1  0  0  0  0
  7 34  1  0  0  0  0
  8  9  1  0  0  0  0
  8 10  1  0  0  0  0
  8 19  1  6  0  0  0
  9 11  1  0  0  0  0
  9 12  1  0  0  0  0
  9 20  1  1  0  0  0
 10 14  1  0  0  0  0
 10 21  1  0  0  0  0
 10 22  1  0  0  0  0
 12 15  1  0  0  0  0
 12 23  1  0  0  0  0
 13 14  2  0  0  0  0
 13 16  1  0  0  0  0
 15 24  1  0  0  0  0
 15 25  1  0  0  0  0
 15 26  1  0  0  0  0
 17 18  1  0  0  0  0
 17 28  1  0  0  0  0
 17 29  1  0  0  0  0
 18 30  1  0  0  0  0
 18 31  1  0  0  0  0
M  END
> <PUBCHEM_COMPOUND_CID>
441128

> <PUBCHEM_COMPOUND_CANONICALIZED>
1

> <PUBCHEM_CACTVS_COMPLEXITY>
423

> <PUBCHEM_CACTVS_HBOND_ACCEPTOR>
6

> <PUBCHEM_CACTVS_HBOND_DONOR>
3

> <PUBCHEM_CACTVS_ROTATABLE_BOND>
5

> <PUBCHEM_CACTVS_SUBSKEYS>
AAADceBzOABAAAAAAAAAAAAAAABYAQAAAAAAAAAABAAAAAAAAAAAHgQQCAAADTzlwAaCCANAAgiIAAXQWAAAAAAgABAACIGIAEgCFB4ggCAEUAAGtgC4EQOYAAAOAAAAAAAAAAAAAAAAAAAAAAAAAAAAAA==

> <PUBCHEM_IUPAC_OPENEYE_NAME>
(5R,6S)-3-(2-aminoethylsulfanyl)-6-[(1R)-1-hydroxyethyl]-7-oxo-1-azabicyclo[3.2.0]hept-2-ene-2-carboxylic acid

> <PUBCHEM_IUPAC_CAS_NAME>
(5R,6S)-3-(2-aminoethylthio)-6-[(1R)-1-hydroxyethyl]-7-oxo-1-azabicyclo[3.2.0]hept-2-ene-2-carboxylic acid

> <PUBCHEM_IUPAC_NAME>
(5R,6S)-3-(2-aminoethylsulfanyl)-6-[(1R)-1-hydroxyethyl]-7-oxo-1-azabicyclo[3.2.0]hept-2-ene-2-carboxylic acid

> <PUBCHEM_IUPAC_SYSTEMATIC_NAME>
(5R,6S)-3-(2-azanylethylsulfanyl)-6-[(1R)-1-oxidanylethyl]-7-oxidanylidene-1-azabicyclo[3.2.0]hept-2-ene-2-carboxylic acid

> <PUBCHEM_IUPAC_TRADITIONAL_NAME>
(5R,6S)-3-(2-aminoethylthio)-6-[(1R)-1-hydroxyethyl]-7-keto-1-azabicyclo[3.2.0]hept-2-ene-2-carboxylic acid

> <PUBCHEM_IUPAC_INCHI>
InChI=1S/C11H16N2O4S/c1-5(14)8-6-4-7(18-3-2-12)9(11(16)17)13(6)10(8)15/h5-6,8,14H,2-4,12H2,1H3,(H,16,17)/t5-,6-,8-/m1/s1

> <PUBCHEM_IUPAC_INCHIKEY>
WKDDRNSBRWANNC-ATRFCDNQSA-N

> <PUBCHEM_XLOGP3_AA>
-3

> <PUBCHEM_EXACT_MASS>
272.083078

> <PUBCHEM_MOLECULAR_FORMULA>
C11H16N2O4S

> <PUBCHEM_MOLECULAR_WEIGHT>
272.32074

> <PUBCHEM_OPENEYE_CAN_SMILES>
CC(C1C2CC(=C(N2C1=O)C(=O)O)SCCN)O

> <PUBCHEM_OPENEYE_ISO_SMILES>
C[C@H]([C@@H]1[C@H]2CC(=C(N2C1=O)C(=O)O)SCCN)O

> <PUBCHEM_CACTVS_TPSA>
129

> <PUBCHEM_MONOISOTOPIC_WEIGHT>
272.083078

> <PUBCHEM_TOTAL_CHARGE>
0

> <PUBCHEM_HEAVY_ATOM_COUNT>
18

> <PUBCHEM_ATOM_DEF_STEREO_COUNT>
3

> <PUBCHEM_ATOM_UDEF_STEREO_COUNT>
0

> <PUBCHEM_BOND_DEF_STEREO_COUNT>
0

> <PUBCHEM_BOND_UDEF_STEREO_COUNT>
0

> <PUBCHEM_ISOTOPIC_ATOM_COUNT>
0

> <PUBCHEM_COMPONENT_COUNT>
1

> <PUBCHEM_CACTVS_TAUTO_COUNT>
2

> <PUBCHEM_COORDINATE_TYPE>
1
5
255

> <PUBCHEM_BONDANNOTATIONS>
12  2  5
8  19  6
9  20  5

$$$$

