440776
  -OEChem-07051212502D

 92 96  0     0  0  0  0  0  0999 V2000
   15.5146    0.9561    0.0000 O   0  0  0  0  0  0  0  0  0  0  0  0
    9.9236   -6.3978    0.0000 O   0  0  0  0  0  0  0  0  0  0  0  0
    8.1224    6.3978    0.0000 O   0  0  0  0  0  0  0  0  0  0  0  0
    2.5369   -0.5174    0.0000 O   0  0  0  0  0  0  0  0  0  0  0  0
   14.4655    2.3343    0.0000 O   0  0  0  0  0  0  0  0  0  0  0  0
   11.3185   -5.3711    0.0000 O   0  0  0  0  0  0  0  0  0  0  0  0
    6.7274    5.3711    0.0000 O   0  0  0  0  0  0  0  0  0  0  0  0
    3.4030   -2.0174    0.0000 O   0  0  0  0  0  0  0  0  0  0  0  0
    7.5363   -0.0167    0.0000 N   0  0  0  0  0  0  0  0  0  0  0  0
    9.0062    1.3528    0.0000 N   0  0  0  0  0  0  0  0  0  0  0  0
    9.0397   -1.3862    0.0000 N   0  0  0  0  0  0  0  0  0  0  0  0
   10.5415   -0.0167    0.0000 N   0  0  0  0  0  0  0  0  0  0  0  0
    9.8416   -1.9873    0.0000 C   0  0  0  0  0  0  0  0  0  0  0  0
   11.1090    0.7852    0.0000 C   0  0  0  0  0  0  0  0  0  0  0  0
    6.9687   -0.7852    0.0000 C   0  0  0  0  0  0  0  0  0  0  0  0
    8.2043    1.9873    0.0000 C   0  0  0  0  0  0  0  0  0  0  0  0
   11.1425   -0.7517    0.0000 C   0  0  0  0  0  0  0  0  0  0  0  0
    9.8416    2.0208    0.0000 C   0  0  0  0  0  0  0  0  0  0  0  0
    8.2378   -2.0208    0.0000 C   0  0  0  0  0  0  0  0  0  0  0  0
    6.9687    0.7517    0.0000 C   0  0  0  0  0  0  0  0  0  0  0  0
    7.2366    1.7194    0.0000 C   0  0  0  0  0  0  0  0  0  0  0  0
    7.2701   -1.7194    0.0000 C   0  0  0  0  0  0  0  0  0  0  0  0
   10.8093    1.7194    0.0000 C   0  0  0  0  0  0  0  0  0  0  0  0
   10.8428   -1.7194    0.0000 C   0  0  0  0  0  0  0  0  0  0  0  0
   12.0784    0.5173    0.0000 C   0  0  0  0  0  0  0  0  0  0  0  0
    9.5403   -2.9550    0.0000 C   0  0  0  0  0  0  0  0  0  0  0  0
    8.5056    2.9550    0.0000 C   0  0  0  0  0  0  0  0  0  0  0  0
    6.0010   -0.5173    0.0000 C   0  0  0  0  0  0  0  0  0  0  0  0
    6.0010    0.4838    0.0000 C   0  0  0  0  0  0  0  0  0  0  0  0
    9.5068    2.9550    0.0000 C   0  0  0  0  0  0  0  0  0  0  0  0
    8.5391   -2.9550    0.0000 C   0  0  0  0  0  0  0  0  0  0  0  0
   12.0784   -0.4838    0.0000 C   0  0  0  0  0  0  0  0  0  0  0  0
   12.8741    1.1230    0.0000 C   0  0  0  0  0  0  0  0  0  0  0  0
   10.1330   -3.7604    0.0000 C   0  0  0  0  0  0  0  0  0  0  0  0
    7.9129    3.7604    0.0000 C   0  0  0  0  0  0  0  0  0  0  0  0
    5.1350   -1.0173    0.0000 C   0  0  0  0  0  0  0  0  0  0  0  0
   12.8769   -1.0858    0.0000 C   0  0  0  0  0  0  0  0  0  0  0  0
    7.8684   -3.6967    0.0000 C   0  0  0  0  0  0  0  0  0  0  0  0
   10.0824    3.7727    0.0000 C   0  0  0  0  0  0  0  0  0  0  0  0
    5.2052    1.0893    0.0000 C   0  0  0  0  0  0  0  0  0  0  0  0
    4.2690   -0.5174    0.0000 C   0  0  0  0  0  0  0  0  0  0  0  0
    8.3140    4.6764    0.0000 C   0  0  0  0  0  0  0  0  0  0  0  0
    9.7319   -4.6764    0.0000 C   0  0  0  0  0  0  0  0  0  0  0  0
   13.7965    0.7367    0.0000 C   0  0  0  0  0  0  0  0  0  0  0  0
   14.5922    1.3424    0.0000 C   0  0  0  0  0  0  0  0  0  0  0  0
   10.3247   -5.4818    0.0000 C   0  0  0  0  0  0  0  0  0  0  0  0
    7.7212    5.4818    0.0000 C   0  0  0  0  0  0  0  0  0  0  0  0
    3.4030   -1.0174    0.0000 C   0  0  0  0  0  0  0  0  0  0  0  0
   10.8888   -2.3377    0.0000 H   0  0  0  0  0  0  0  0  0  0  0  0
   11.4589   -1.7894    0.0000 H   0  0  0  0  0  0  0  0  0  0  0  0
   11.4258    1.7852    0.0000 H   0  0  0  0  0  0  0  0  0  0  0  0
   10.8699    2.3364    0.0000 H   0  0  0  0  0  0  0  0  0  0  0  0
    6.6536   -1.7859    0.0000 H   0  0  0  0  0  0  0  0  0  0  0  0
    7.2099   -2.3365    0.0000 H   0  0  0  0  0  0  0  0  0  0  0  0
    7.1809    2.3369    0.0000 H   0  0  0  0  0  0  0  0  0  0  0  0
    6.6191    1.7751    0.0000 H   0  0  0  0  0  0  0  0  0  0  0  0
    9.9218   -0.0383    0.0000 H   0  0  0  0  0  0  0  0  0  0  0  0
    9.0316   -0.7663    0.0000 H   0  0  0  0  0  0  0  0  0  0  0  0
    9.0078    0.7328    0.0000 H   0  0  0  0  0  0  0  0  0  0  0  0
    8.1563   -0.0167    0.0000 H   0  0  0  0  0  0  0  0  0  0  0  0
    7.3968    4.1039    0.0000 H   0  0  0  0  0  0  0  0  0  0  0  0
    7.4850    3.3117    0.0000 H   0  0  0  0  0  0  0  0  0  0  0  0
   10.6492   -4.1039    0.0000 H   0  0  0  0  0  0  0  0  0  0  0  0
   10.5610   -3.3117    0.0000 H   0  0  0  0  0  0  0  0  0  0  0  0
   13.2093    1.6446    0.0000 H   0  0  0  0  0  0  0  0  0  0  0  0
   12.4186    1.5436    0.0000 H   0  0  0  0  0  0  0  0  0  0  0  0
    4.7365   -1.4923    0.0000 H   0  0  0  0  0  0  0  0  0  0  0  0
    5.5336   -1.4923    0.0000 H   0  0  0  0  0  0  0  0  0  0  0  0
   10.5894    3.4158    0.0000 H   0  0  0  0  0  0  0  0  0  0  0  0
    5.5806    1.5828    0.0000 H   0  0  0  0  0  0  0  0  0  0  0  0
    4.7117    1.4647    0.0000 H   0  0  0  0  0  0  0  0  0  0  0  0
    4.8298    0.5959    0.0000 H   0  0  0  0  0  0  0  0  0  0  0  0
   12.5036   -1.5809    0.0000 H   0  0  0  0  0  0  0  0  0  0  0  0
   13.3719   -1.4591    0.0000 H   0  0  0  0  0  0  0  0  0  0  0  0
   13.2501   -0.5908    0.0000 H   0  0  0  0  0  0  0  0  0  0  0  0
    7.4085   -3.2808    0.0000 H   0  0  0  0  0  0  0  0  0  0  0  0
    7.4526   -4.1565    0.0000 H   0  0  0  0  0  0  0  0  0  0  0  0
    8.3283   -4.1125    0.0000 H   0  0  0  0  0  0  0  0  0  0  0  0
   10.4393    4.2797    0.0000 H   0  0  0  0  0  0  0  0  0  0  0  0
    9.5754    4.1296    0.0000 H   0  0  0  0  0  0  0  0  0  0  0  0
    4.6675   -0.0424    0.0000 H   0  0  0  0  0  0  0  0  0  0  0  0
    3.8704   -0.0424    0.0000 H   0  0  0  0  0  0  0  0  0  0  0  0
   13.4613    0.2151    0.0000 H   0  0  0  0  0  0  0  0  0  0  0  0
   14.2520    0.3161    0.0000 H   0  0  0  0  0  0  0  0  0  0  0  0
    9.2158   -4.3328    0.0000 H   0  0  0  0  0  0  0  0  0  0  0  0
    9.3040   -5.1250    0.0000 H   0  0  0  0  0  0  0  0  0  0  0  0
    8.8301    4.3328    0.0000 H   0  0  0  0  0  0  0  0  0  0  0  0
    8.7419    5.1250    0.0000 H   0  0  0  0  0  0  0  0  0  0  0  0
   16.0079    1.3316    0.0000 H   0  0  0  0  0  0  0  0  0  0  0  0
   10.2911   -6.8971    0.0000 H   0  0  0  0  0  0  0  0  0  0  0  0
    7.7548    6.8971    0.0000 H   0  0  0  0  0  0  0  0  0  0  0  0
    2.0000   -0.8274    0.0000 H   0  0  0  0  0  0  0  0  0  0  0  0
  1 45  1  0  0  0  0
  1 89  1  0  0  0  0
  2 46  1  0  0  0  0
  2 90  1  0  0  0  0
  3 47  1  0  0  0  0
  3 91  1  0  0  0  0
  4 48  1  0  0  0  0
  4 92  1  0  0  0  0
  5 45  2  0  0  0  0
  6 46  2  0  0  0  0
  7 47  2  0  0  0  0
  8 48  2  0  0  0  0
  9 15  1  0  0  0  0
  9 20  1  0  0  0  0
  9 60  1  0  0  0  0
 10 16  1  0  0  0  0
 10 18  1  0  0  0  0
 10 59  1  0  0  0  0
 11 13  1  0  0  0  0
 11 19  1  0  0  0  0
 11 58  1  0  0  0  0
 12 14  1  0  0  0  0
 12 17  1  0  0  0  0
 12 57  1  0  0  0  0
 13 24  1  0  0  0  0
 13 26  2  0  0  0  0
 14 23  1  0  0  0  0
 14 25  2  0  0  0  0
 15 22  1  0  0  0  0
 15 28  2  0  0  0  0
 16 21  1  0  0  0  0
 16 27  2  0  0  0  0
 17 24  1  0  0  0  0
 17 32  2  0  0  0  0
 18 23  1  0  0  0  0
 18 30  2  0  0  0  0
 19 22  1  0  0  0  0
 19 31  2  0  0  0  0
 20 21  1  0  0  0  0
 20 29  2  0  0  0  0
 21 55  1  0  0  0  0
 21 56  1  0  0  0  0
 22 53  1  0  0  0  0
 22 54  1  0  0  0  0
 23 51  1  0  0  0  0
 23 52  1  0  0  0  0
 24 49  1  0  0  0  0
 24 50  1  0  0  0  0
 25 32  1  0  0  0  0
 25 33  1  0  0  0  0
 26 31  1  0  0  0  0
 26 34  1  0  0  0  0
 27 30  1  0  0  0  0
 27 35  1  0  0  0  0
 28 29  1  0  0  0  0
 28 36  1  0  0  0  0
 29 40  1  0  0  0  0
 30 39  1  0  0  0  0
 31 38  1  0  0  0  0
 32 37  1  0  0  0  0
 33 44  1  0  0  0  0
 33 65  1  0  0  0  0
 33 66  1  0  0  0  0
 34 43  1  0  0  0  0
 34 63  1  0  0  0  0
 34 64  1  0  0  0  0
 35 42  1  0  0  0  0
 35 61  1  0  0  0  0
 35 62  1  0  0  0  0
 36 41  1  0  0  0  0
 36 67  1  0  0  0  0
 36 68  1  0  0  0  0
 37 73  1  0  0  0  0
 37 74  1  0  0  0  0
 37 75  1  0  0  0  0
 38 76  1  0  0  0  0
 38 77  1  0  0  0  0
 38 78  1  0  0  0  0
 39 69  1  0  0  0  0
 39 79  1  0  0  0  0
 39 80  1  0  0  0  0
 40 70  1  0  0  0  0
 40 71  1  0  0  0  0
 40 72  1  0  0  0  0
 41 48  1  0  0  0  0
 41 81  1  0  0  0  0
 41 82  1  0  0  0  0
 42 47  1  0  0  0  0
 42 87  1  0  0  0  0
 42 88  1  0  0  0  0
 43 46  1  0  0  0  0
 43 85  1  0  0  0  0
 43 86  1  0  0  0  0
 44 45  1  0  0  0  0
 44 83  1  0  0  0  0
 44 84  1  0  0  0  0
M  END
> <PUBCHEM_COMPOUND_CID>
440776

> <PUBCHEM_COMPOUND_CANONICALIZED>
1

> <PUBCHEM_CACTVS_COMPLEXITY>
995

> <PUBCHEM_CACTVS_HBOND_ACCEPTOR>
8

> <PUBCHEM_CACTVS_HBOND_DONOR>
8

> <PUBCHEM_CACTVS_ROTATABLE_BOND>
12

> <PUBCHEM_CACTVS_SUBSKEYS>
AAADcfB/vAAAAAAAAAAAAAAAAAAAAWLFiwAAAAAAAAAAAAAB/gAAHgAQCAAADAiBngACiJLJkgCoAwTwTACCgCAhACAAmSEwRJgIIHLA0JGEYAhkkADIyAeY2fOegAAAAAAAAAAAAAAAAAAAAAAAAAAAAA==

> <PUBCHEM_IUPAC_OPENEYE_NAME>
3-[7,12,17-tris(2-carboxyethyl)-3,8,13,18-tetramethyl-5,10,15,20,21,22,23,24-octahydroporphyrin-2-yl]propanoic acid

> <PUBCHEM_IUPAC_CAS_NAME>
3-[7,12,17-tris(2-carboxyethyl)-3,8,13,18-tetramethyl-5,10,15,20,21,22,23,24-octahydroporphyrin-2-yl]propanoic acid

> <PUBCHEM_IUPAC_NAME>
3-[7,12,17-tris(2-carboxyethyl)-3,8,13,18-tetramethyl-5,10,15,20,21,22,23,24-octahydroporphyrin-2-yl]propanoic acid

> <PUBCHEM_IUPAC_SYSTEMATIC_NAME>
3-[7,12,17-tris(3-hydroxy-3-oxopropyl)-3,8,13,18-tetramethyl-5,10,15,20,21,22,23,24-octahydroporphyrin-2-yl]propanoic acid

> <PUBCHEM_IUPAC_TRADITIONAL_NAME>
3-[7,12,17-tris(2-carboxyethyl)-3,8,13,18-tetramethyl-5,10,15,20,21,22,23,24-octahydroporphin-2-yl]propionic acid

> <PUBCHEM_IUPAC_INCHI>
InChI=1S/C36H44N4O8/c1-17-21(5-9-33(41)42)29-14-26-19(3)23(7-11-35(45)46)31(39-26)16-28-20(4)24(8-12-36(47)48)32(40-28)15-27-18(2)22(6-10-34(43)44)30(38-27)13-25(17)37-29/h37-40H,5-16H2,1-4H3,(H,41,42)(H,43,44)(H,45,46)(H,47,48)

> <PUBCHEM_IUPAC_INCHIKEY>
WIUGGJKHYQIGNH-UHFFFAOYSA-N

> <PUBCHEM_XLOGP3_AA>
3.6

> <PUBCHEM_EXACT_MASS>
660.315914

> <PUBCHEM_MOLECULAR_FORMULA>
C36H44N4O8

> <PUBCHEM_MOLECULAR_WEIGHT>
660.75656

> <PUBCHEM_OPENEYE_CAN_SMILES>
CC1=C2CC3=C(C(=C(N3)CC4=C(C(=C(N4)CC5=C(C(=C(N5)CC(=C1CCC(=O)O)N2)C)CCC(=O)O)C)CCC(=O)O)C)CCC(=O)O

> <PUBCHEM_OPENEYE_ISO_SMILES>
CC1=C2CC3=C(C(=C(N3)CC4=C(C(=C(N4)CC5=C(C(=C(N5)CC(=C1CCC(=O)O)N2)C)CCC(=O)O)C)CCC(=O)O)C)CCC(=O)O

> <PUBCHEM_CACTVS_TPSA>
212

> <PUBCHEM_MONOISOTOPIC_WEIGHT>
660.315914

> <PUBCHEM_TOTAL_CHARGE>
0

> <PUBCHEM_HEAVY_ATOM_COUNT>
48

> <PUBCHEM_ATOM_DEF_STEREO_COUNT>
0

> <PUBCHEM_ATOM_UDEF_STEREO_COUNT>
0

> <PUBCHEM_BOND_DEF_STEREO_COUNT>
0

> <PUBCHEM_BOND_UDEF_STEREO_COUNT>
0

> <PUBCHEM_ISOTOPIC_ATOM_COUNT>
0

> <PUBCHEM_COMPONENT_COUNT>
1

> <PUBCHEM_CACTVS_TAUTO_COUNT>
1

> <PUBCHEM_COORDINATE_TYPE>
1
5
255

> <PUBCHEM_BONDANNOTATIONS>
10  16  8
10  18  8
11  13  8
11  19  8
12  14  8
12  17  8
13  26  8
14  25  8
15  28  8
16  27  8
17  32  8
18  30  8
19  31  8
20  29  8
25  32  8
26  31  8
27  30  8
28  29  8
9  15  8
9  20  8

$$$$

