47205381
  -OEChem-06241222583D

 43 44  0     0  0  0  0  0  0999 V2000
   -5.2404   -1.0750    0.1285 S   0  0  0  0  0  0  0  0  0  0  0  0
   -6.0199   -1.9174   -0.7569 O   0  0  0  0  0  0  0  0  0  0  0  0
   -5.5855   -0.9429    1.5304 O   0  0  0  0  0  0  0  0  0  0  0  0
    6.6370   -1.0543    0.2357 O   0  0  0  0  0  0  0  0  0  0  0  0
   -0.3385    0.8472   -1.5379 O   0  0  0  0  0  0  0  0  0  0  0  0
   -2.7196    0.7634   -0.1533 N   0  0  0  0  0  0  0  0  0  0  0  0
    3.9640   -0.1506   -0.1383 N   0  0  0  0  0  0  0  0  0  0  0  0
    0.7318    1.6388    0.3652 N   0  0  0  0  0  0  0  0  0  0  0  0
   -4.0437    1.3807    0.0352 C   0  0  0  0  0  0  0  0  0  0  0  0
   -2.6017   -0.5147    0.5697 C   0  0  0  0  0  0  0  0  0  0  0  0
   -5.1605    0.5500   -0.5854 C   0  0  0  0  0  0  0  0  0  0  0  0
   -3.5405   -1.5791    0.0145 C   0  0  0  0  0  0  0  0  0  0  0  0
   -1.6723    1.6860    0.2932 C   0  0  0  0  0  0  0  0  0  0  0  0
    2.5860    0.0399    0.3095 C   0  0  0  0  0  0  0  0  0  0  0  0
    4.3054   -1.5793   -0.1825 C   0  0  0  0  0  0  0  0  0  0  0  0
    4.9013    0.5641    0.7391 C   0  0  0  0  0  0  0  0  0  0  0  0
    2.0912    1.4258   -0.0776 C   0  0  0  0  0  0  0  0  0  0  0  0
   -0.3777    1.3292   -0.4080 C   0  0  0  0  0  0  0  0  0  0  0  0
    6.3324    0.3408    0.2590 C   0  0  0  0  0  0  0  0  0  0  0  0
    5.7510   -1.7526   -0.6399 C   0  0  0  0  0  0  0  0  0  0  0  0
   -2.7918   -0.3707    1.6415 H   0  0  0  0  0  0  0  0  0  0  0  0
   -4.2424    1.5487    1.1017 H   0  0  0  0  0  0  0  0  0  0  0  0
   -4.0653    2.3621   -0.4549 H   0  0  0  0  0  0  0  0  0  0  0  0
   -1.5818   -0.9076    0.4776 H   0  0  0  0  0  0  0  0  0  0  0  0
   -3.3268   -1.7812   -1.0405 H   0  0  0  0  0  0  0  0  0  0  0  0
   -3.4416   -2.5150    0.5729 H   0  0  0  0  0  0  0  0  0  0  0  0
   -6.1337    1.0237   -0.4242 H   0  0  0  0  0  0  0  0  0  0  0  0
   -5.0089    0.4286   -1.6632 H   0  0  0  0  0  0  0  0  0  0  0  0
   -1.8915    2.7158   -0.0178 H   0  0  0  0  0  0  0  0  0  0  0  0
   -1.5622    1.6885    1.3841 H   0  0  0  0  0  0  0  0  0  0  0  0
    1.9299   -0.6928   -0.1799 H   0  0  0  0  0  0  0  0  0  0  0  0
    2.4795   -0.1300    1.3892 H   0  0  0  0  0  0  0  0  0  0  0  0
    4.7136    1.6419    0.7377 H   0  0  0  0  0  0  0  0  0  0  0  0
    4.8065    0.2044    1.7721 H   0  0  0  0  0  0  0  0  0  0  0  0
    4.1787   -2.0303    0.8104 H   0  0  0  0  0  0  0  0  0  0  0  0
    3.6490   -2.1081   -0.8831 H   0  0  0  0  0  0  0  0  0  0  0  0
    2.1352    1.5623   -1.1645 H   0  0  0  0  0  0  0  0  0  0  0  0
    2.6819    2.2203    0.3870 H   0  0  0  0  0  0  0  0  0  0  0  0
    7.0357    0.8225    0.9460 H   0  0  0  0  0  0  0  0  0  0  0  0
    6.4968    0.7684   -0.7376 H   0  0  0  0  0  0  0  0  0  0  0  0
    5.8958   -1.3968   -1.6673 H   0  0  0  0  0  0  0  0  0  0  0  0
    6.0252   -2.8121   -0.6149 H   0  0  0  0  0  0  0  0  0  0  0  0
    0.5985    2.0368    1.2901 H   0  0  0  0  0  0  0  0  0  0  0  0
  1  2  2  0  0  0  0
  1  3  2  0  0  0  0
  1 11  1  0  0  0  0
  1 12  1  0  0  0  0
  4 19  1  0  0  0  0
  4 20  1  0  0  0  0
  5 18  2  0  0  0  0
  6  9  1  0  0  0  0
  6 10  1  0  0  0  0
  6 13  1  0  0  0  0
  7 14  1  0  0  0  0
  7 15  1  0  0  0  0
  7 16  1  0  0  0  0
  8 17  1  0  0  0  0
  8 18  1  0  0  0  0
  8 43  1  0  0  0  0
  9 11  1  0  0  0  0
  9 22  1  0  0  0  0
  9 23  1  0  0  0  0
 10 12  1  0  0  0  0
 10 21  1  0  0  0  0
 10 24  1  0  0  0  0
 11 27  1  0  0  0  0
 11 28  1  0  0  0  0
 12 25  1  0  0  0  0
 12 26  1  0  0  0  0
 13 18  1  0  0  0  0
 13 29  1  0  0  0  0
 13 30  1  0  0  0  0
 14 17  1  0  0  0  0
 14 31  1  0  0  0  0
 14 32  1  0  0  0  0
 15 20  1  0  0  0  0
 15 35  1  0  0  0  0
 15 36  1  0  0  0  0
 16 19  1  0  0  0  0
 16 33  1  0  0  0  0
 16 34  1  0  0  0  0
 17 37  1  0  0  0  0
 17 38  1  0  0  0  0
 19 39  1  0  0  0  0
 19 40  1  0  0  0  0
 20 41  1  0  0  0  0
 20 42  1  0  0  0  0
M  END
> <PUBCHEM_COMPOUND_CID>
47205381

> <PUBCHEM_CONFORMER_RMSD>
1

> <PUBCHEM_CONFORMER_DIVERSEORDER>
1
6
54
52
9
8
73
77
49
7
84
11
67
59
45
64
71
39
68
78
36
31
16
57
44
53
10
42
43
40
58
72
27
22
24
37
41
32
3
76
28
26
47
21
65
61
17
60
2
34
69
12
75
66
35
18
81
14
51
20
33
55
56
29
63
25
13
5
70
30
79
38
80
74
50
62
19
83
15
4
46
48
23
82
85

> <PUBCHEM_MMFF94_PARTIAL_CHARGES>
21
1 1.09
10 0.27
11 0.11
12 0.11
13 0.33
14 0.27
15 0.27
16 0.27
17 0.3
18 0.57
19 0.28
2 -0.65
20 0.28
3 -0.65
4 -0.56
43 0.37
5 -0.57
6 -0.81
7 -0.81
8 -0.73
9 0.27

> <PUBCHEM_EFFECTIVE_ROTOR_COUNT>
8.2

> <PUBCHEM_PHARMACOPHORE_FEATURES>
9
1 2 acceptor
1 3 acceptor
1 4 acceptor
1 5 acceptor
1 6 cation
1 7 cation
1 8 donor
6 1 6 9 10 11 12 rings
6 4 7 15 16 19 20 rings

> <PUBCHEM_HEAVY_ATOM_COUNT>
20

> <PUBCHEM_ATOM_DEF_STEREO_COUNT>
0

> <PUBCHEM_ATOM_UDEF_STEREO_COUNT>
0

> <PUBCHEM_BOND_DEF_STEREO_COUNT>
0

> <PUBCHEM_BOND_UDEF_STEREO_COUNT>
0

> <PUBCHEM_ISOTOPIC_ATOM_COUNT>
0

> <PUBCHEM_COMPONENT_COUNT>
1

> <PUBCHEM_CACTVS_TAUTO_COUNT>
2

> <PUBCHEM_CONFORMER_ID>
02D04C0500000001

> <PUBCHEM_MMFF94_ENERGY>
24.6348

> <PUBCHEM_FEATURE_SELFOVERLAP>
45.686

> <PUBCHEM_SHAPE_FINGERPRINT>
11315181 36 18335420162481414545
12516196 113 18260831488333717816
12555020 224 18271251530445577055
12596602 18 17312819368567540074
12633257 1 14851896841526020816
12760667 363 18409446973502245715
13167372 99 9511464424903863310
13288520 33 18412263930956577213
13402501 40 18410009948920061202
13533116 47 18261955146225583432
13685833 64 18342172246117624763
14123256 34 18412818097232379770
1420 363 18335137605277972376
14251732 16 18408043992444368560
14251751 18 18335700507739002551
14251752 14 16916799516742783469
14251764 18 18186517692414750697
14341114 176 18260827103224726000
14461889 52 18336837407837591864
14848160 23 18408888446953740956
15183329 4 16271932618473571559
15352361 1 18410292514474989032
17780758 139 17894625964217770553
17834072 8 17988933262686256685
17844677 252 18334852818592066952
17857418 61 18410856551049854997
17959699 21 10375864182661586948
18222031 100 17775566446926107580
193927 3 18130499756580279049
19784866 240 18343295972597247453
20374829 77 18202285813816153832
21267235 1 18271803498114472379
21623969 137 17967250923240535566
23198884 109 13830134996754393951
23402539 116 16272208621947108556
23559900 14 18338806628161881609
239999 70 18410011053406644610
2767999 5 7781518105074046707
3004659 81 18060138734885811708
3014063 24 18187370883320750583
351380 3 18411703175040477682
4325135 7 18272649018493483996
465052 167 18040433309252347324
543368 44 10087646996750385223
559249 180 18341896312054875109
5718773 13 18262243193051084639
999808 66 17988349413205988051

> <PUBCHEM_SHAPE_MULTIPOLES>
377.02
18.18
2.01
0.92
10.19
0.27
0
9.36
-0.99
-0.64
0.16
-0.53
0.05
0.67

> <PUBCHEM_SHAPE_SELFOVERLAP>
739.452

> <PUBCHEM_SHAPE_VOLUME>
226.2

> <PUBCHEM_COORDINATE_TYPE>
2
5
10

$$$$

