24892737
  -OEChem-07051212482D

 61 63  0     1  0  0  0  0  0999 V2000
    7.9844   -2.2567    0.0000 P   0  0  3  0  0  0  0  0  0  0  0  0
    6.4021   -1.5523    0.0000 P   0  0  3  0  0  0  0  0  0  0  0  0
    9.2577   -3.9123    0.0000 O   0  0  0  0  0  0  0  0  0  0  0  0
    4.5411    0.9123    0.0000 O   0  0  0  0  0  0  0  0  0  0  0  0
   11.8268   -3.6033    0.0000 O   0  0  0  0  0  0  0  0  0  0  0  0
    8.9790   -2.1522    0.0000 O   0  0  0  0  0  0  0  0  0  0  0  0
   11.1545   -2.1522    0.0000 O   0  0  0  0  0  0  0  0  0  0  0  0
   12.4581   -4.6168    0.0000 O   0  0  0  0  0  0  0  0  0  0  0  0
    2.6443   -0.8478    0.0000 O   0  0  0  0  0  0  0  0  0  0  0  0
    5.8144   -0.7432    0.0000 O   0  0  0  0  0  0  0  0  0  0  0  0
    6.9899   -2.3613    0.0000 O   0  0  0  0  0  0  0  0  0  0  0  0
    8.0890   -3.2513    0.0000 O   0  0  0  0  0  0  0  0  0  0  0  0
    7.8799   -1.2622    0.0000 O   0  0  0  0  0  0  0  0  0  0  0  0
    7.2112   -0.9645    0.0000 O   0  0  0  0  0  0  0  0  0  0  0  0
    2.0000    2.5001    0.0000 O   0  0  0  0  0  0  0  0  0  0  0  0
    5.5931   -2.1400    0.0000 O   0  0  0  0  0  0  0  0  0  0  0  0
    3.7320    5.5001    0.0000 O   0  0  0  0  0  0  0  0  0  0  0  0
    3.7320    2.5001    0.0000 N   0  0  0  0  0  0  0  0  0  0  0  0
    2.8660    4.0001    0.0000 N   0  0  0  0  0  0  0  0  0  0  0  0
   10.8758   -3.9123    0.0000 C   0  0  1  0  0  0  0  0  0  0  0  0
   10.5668   -2.9612    0.0000 C   0  0  2  0  0  0  0  0  0  0  0  0
   10.0668   -4.5001    0.0000 C   0  0  2  0  0  0  0  0  0  0  0  0
    9.5668   -2.9612    0.0000 C   0  0  2  0  0  0  0  0  0  0  0  0
   11.4636   -4.7213    0.0000 C   0  0  0  0  0  0  0  0  0  0  0  0
    3.2320   -0.0388    0.0000 C   0  0  2  0  0  0  0  0  0  0  0  0
    4.2320   -0.0388    0.0000 C   0  0  1  0  0  0  0  0  0  0  0  0
    2.9230    0.9123    0.0000 C   0  0  0  0  0  0  0  0  0  0  0  0
    3.7320    1.5001    0.0000 C   0  0  1  0  0  0  0  0  0  0  0  0
   10.0668   -5.5001    0.0000 C   0  0  0  0  0  0  0  0  0  0  0  0
    4.8198   -0.8478    0.0000 C   0  0  0  0  0  0  0  0  0  0  0  0
    4.5981    3.0001    0.0000 C   0  0  0  0  0  0  0  0  0  0  0  0
    2.8660    3.0001    0.0000 C   0  0  0  0  0  0  0  0  0  0  0  0
    4.5981    4.0001    0.0000 C   0  0  0  0  0  0  0  0  0  0  0  0
    3.7320    4.5001    0.0000 C   0  0  0  0  0  0  0  0  0  0  0  0
    5.4641    4.5001    0.0000 C   0  0  0  0  0  0  0  0  0  0  0  0
   10.2853   -2.4088    0.0000 H   0  0  0  0  0  0  0  0  0  0  0  0
    9.5143   -4.7816    0.0000 H   0  0  0  0  0  0  0  0  0  0  0  0
    8.9544   -3.0582    0.0000 H   0  0  0  0  0  0  0  0  0  0  0  0
   10.9063   -4.9931    0.0000 H   0  0  0  0  0  0  0  0  0  0  0  0
   11.6345   -5.3173    0.0000 H   0  0  0  0  0  0  0  0  0  0  0  0
    3.5135   -0.5912    0.0000 H   0  0  0  0  0  0  0  0  0  0  0  0
    4.8444    0.0582    0.0000 H   0  0  0  0  0  0  0  0  0  0  0  0
    2.6130    1.4492    0.0000 H   0  0  0  0  0  0  0  0  0  0  0  0
    2.3566    0.6601    0.0000 H   0  0  0  0  0  0  0  0  0  0  0  0
    4.2845    1.7816    0.0000 H   0  0  0  0  0  0  0  0  0  0  0  0
    9.4468   -5.5001    0.0000 H   0  0  0  0  0  0  0  0  0  0  0  0
   10.0668   -6.1201    0.0000 H   0  0  0  0  0  0  0  0  0  0  0  0
   10.6868   -5.5001    0.0000 H   0  0  0  0  0  0  0  0  0  0  0  0
   11.9557   -2.9968    0.0000 H   0  0  0  0  0  0  0  0  0  0  0  0
    4.2626   -1.1196    0.0000 H   0  0  0  0  0  0  0  0  0  0  0  0
    4.9907   -1.4438    0.0000 H   0  0  0  0  0  0  0  0  0  0  0  0
   10.9024   -1.5858    0.0000 H   0  0  0  0  0  0  0  0  0  0  0  0
   12.8225   -5.1184    0.0000 H   0  0  0  0  0  0  0  0  0  0  0  0
    2.0277   -0.7830    0.0000 H   0  0  0  0  0  0  0  0  0  0  0  0
    5.1350    2.6901    0.0000 H   0  0  0  0  0  0  0  0  0  0  0  0
    2.3291    4.3101    0.0000 H   0  0  0  0  0  0  0  0  0  0  0  0
    7.5874   -3.6157    0.0000 H   0  0  0  0  0  0  0  0  0  0  0  0
    5.7741    3.9632    0.0000 H   0  0  0  0  0  0  0  0  0  0  0  0
    6.0010    4.8101    0.0000 H   0  0  0  0  0  0  0  0  0  0  0  0
    5.1541    5.0370    0.0000 H   0  0  0  0  0  0  0  0  0  0  0  0
    7.1464   -0.3479    0.0000 H   0  0  0  0  0  0  0  0  0  0  0  0
  1  6  1  0  0  0  0
  1 11  1  0  0  0  0
  1 12  1  0  0  0  0
  1 13  2  0  0  0  0
  2 10  1  0  0  0  0
  2 11  1  0  0  0  0
  2 14  1  0  0  0  0
  2 16  2  0  0  0  0
  3 22  1  0  0  0  0
  3 23  1  0  0  0  0
  4 26  1  0  0  0  0
  4 28  1  0  0  0  0
 20  5  1  6  0  0  0
  5 49  1  0  0  0  0
 23  6  1  6  0  0  0
 21  7  1  6  0  0  0
  7 52  1  0  0  0  0
  8 24  1  0  0  0  0
  8 53  1  0  0  0  0
 25  9  1  1  0  0  0
  9 54  1  0  0  0  0
 10 30  1  0  0  0  0
 12 57  1  0  0  0  0
 14 61  1  0  0  0  0
 15 32  2  0  0  0  0
 17 34  2  0  0  0  0
 28 18  1  6  0  0  0
 18 31  1  0  0  0  0
 18 32  1  0  0  0  0
 19 32  1  0  0  0  0
 19 34  1  0  0  0  0
 19 56  1  0  0  0  0
 20 21  1  0  0  0  0
 20 22  1  0  0  0  0
 20 24  1  0  0  0  0
 21 23  1  0  0  0  0
 21 36  1  0  0  0  0
 22 29  1  6  0  0  0
 22 37  1  0  0  0  0
 23 38  1  0  0  0  0
 24 39  1  0  0  0  0
 24 40  1  0  0  0  0
 25 26  1  0  0  0  0
 25 27  1  0  0  0  0
 25 41  1  0  0  0  0
 26 30  1  6  0  0  0
 26 42  1  0  0  0  0
 27 28  1  0  0  0  0
 27 43  1  0  0  0  0
 27 44  1  0  0  0  0
 28 45  1  0  0  0  0
 29 46  1  0  0  0  0
 29 47  1  0  0  0  0
 29 48  1  0  0  0  0
 30 50  1  0  0  0  0
 30 51  1  0  0  0  0
 31 33  2  0  0  0  0
 31 55  1  0  0  0  0
 33 34  1  0  0  0  0
 33 35  1  0  0  0  0
 35 58  1  0  0  0  0
 35 59  1  0  0  0  0
 35 60  1  0  0  0  0
M  END
> <PUBCHEM_COMPOUND_CID>
24892737

> <PUBCHEM_COMPOUND_CANONICALIZED>
1

> <PUBCHEM_CACTVS_COMPLEXITY>
977

> <PUBCHEM_CACTVS_HBOND_ACCEPTOR>
15

> <PUBCHEM_CACTVS_HBOND_DONOR>
7

> <PUBCHEM_CACTVS_ROTATABLE_BOND>
9

> <PUBCHEM_CACTVS_SUBSKEYS>
AAADceB7PAMAAAAAAAAAAAAAAAAAASJAAAAgAAAAAAAAAAAAAAAAHgAQCCAADFTxgAcDCAPABxCIQgFWUICAAAAAAAAAAAEIAECREAIAgQAOQAAPByIHAMDwMAIKAAAAAAAAAAAAAAAAAAAAAAAAAAAAAA==

> <PUBCHEM_IUPAC_OPENEYE_NAME>
[(2R,3R,4S,5S)-3,4-dihydroxy-4-(hydroxymethyl)-5-methyl-tetrahydrofuran-2-yl] [hydroxy-[[(2R,3S,5R)-3-hydroxy-5-(5-methyl-2,4-dioxo-pyrimidin-1-yl)tetrahydrofuran-2-yl]methoxy]phosphoryl] hydrogen phosphate

> <PUBCHEM_IUPAC_CAS_NAME>
[(2R,3R,4S,5S)-3,4-dihydroxy-4-(hydroxymethyl)-5-methyl-2-oxolanyl] [hydroxy-[[(2R,3S,5R)-3-hydroxy-5-(5-methyl-2,4-dioxo-1-pyrimidinyl)-2-oxolanyl]methoxy]phosphoryl] hydrogen phosphate

> <PUBCHEM_IUPAC_NAME>
[(2R,3R,4S,5S)-3,4-dihydroxy-4-(hydroxymethyl)-5-methyloxolan-2-yl] [hydroxy-[[(2R,3S,5R)-3-hydroxy-5-(5-methyl-2,4-dioxopyrimidin-1-yl)oxolan-2-yl]methoxy]phosphoryl] hydrogen phosphate

> <PUBCHEM_IUPAC_SYSTEMATIC_NAME>
[(2R,3R,4S,5S)-4-(hydroxymethyl)-5-methyl-3,4-bis(oxidanyl)oxolan-2-yl] [[(2R,3S,5R)-5-[5-methyl-2,4-bis(oxidanylidene)pyrimidin-1-yl]-3-oxidanyl-oxolan-2-yl]methoxy-oxidanyl-phosphoryl] hydrogen phosphate

> <PUBCHEM_IUPAC_TRADITIONAL_NAME>
[(2R,3R,4S,5S)-3,4-dihydroxy-5-methyl-4-methylol-tetrahydrofuran-2-yl] [[(2R,3S,5R)-5-(2,4-diketo-5-methyl-pyrimidin-1-yl)-3-hydroxy-tetrahydrofuran-2-yl]methoxy-hydroxy-phosphoryl] hydrogen phosphate

> <PUBCHEM_IUPAC_INCHI>
InChI=1S/C16H26N2O15P2/c1-7-4-18(15(23)17-13(7)22)11-3-9(20)10(31-11)5-29-34(25,26)33-35(27,28)32-14-12(21)16(24,6-19)8(2)30-14/h4,8-12,14,19-21,24H,3,5-6H2,1-2H3,(H,25,26)(H,27,28)(H,17,22,23)/t8-,9-,10+,11+,12-,14+,16+/m0/s1

> <PUBCHEM_IUPAC_INCHIKEY>
LOULRGSWJAXPFN-JHJMUWKLSA-N

> <PUBCHEM_XLOGP3_AA>
-4.5

> <PUBCHEM_EXACT_MASS>
548.080841

> <PUBCHEM_MOLECULAR_FORMULA>
C16H26N2O15P2

> <PUBCHEM_MOLECULAR_WEIGHT>
548.329564

> <PUBCHEM_OPENEYE_CAN_SMILES>
CC1C(C(C(O1)OP(=O)(O)OP(=O)(O)OCC2C(CC(O2)N3C=C(C(=O)NC3=O)C)O)O)(CO)O

> <PUBCHEM_OPENEYE_ISO_SMILES>
C[C@H]1[C@@]([C@H]([C@H](O1)OP(=O)(O)OP(=O)(O)OC[C@@H]2[C@H](C[C@@H](O2)N3C=C(C(=O)NC3=O)C)O)O)(CO)O

> <PUBCHEM_CACTVS_TPSA>
251

> <PUBCHEM_MONOISOTOPIC_WEIGHT>
548.080841

> <PUBCHEM_TOTAL_CHARGE>
0

> <PUBCHEM_HEAVY_ATOM_COUNT>
35

> <PUBCHEM_ATOM_DEF_STEREO_COUNT>
7

> <PUBCHEM_ATOM_UDEF_STEREO_COUNT>
0

> <PUBCHEM_BOND_DEF_STEREO_COUNT>
0

> <PUBCHEM_BOND_UDEF_STEREO_COUNT>
0

> <PUBCHEM_ISOTOPIC_ATOM_COUNT>
0

> <PUBCHEM_COMPONENT_COUNT>
1

> <PUBCHEM_CACTVS_TAUTO_COUNT>
3

> <PUBCHEM_COORDINATE_TYPE>
1
5
255

> <PUBCHEM_BONDANNOTATIONS>
28  18  6
18  31  8
18  32  8
19  32  8
19  34  8
22  29  6
26  30  6
31  33  8
33  34  8
20  5  6
23  6  6
21  7  6
25  9  5

$$$$

