255705
  -OEChem-07051213073D

 68 72  0     1  0  0  0  0  0999 V2000
   -3.9290   -0.2765   -0.1886 O   0  0  0  0  0  0  0  0  0  0  0  0
    6.8816    0.6668    0.9478 O   0  0  0  0  0  0  0  0  0  0  0  0
   -4.9664    1.1832    1.3691 O   0  0  0  0  0  0  0  0  0  0  0  0
    0.9051   -1.3572   -0.1924 C   0  0  2  0  0  0  0  0  0  0  0  0
    1.4717    0.0714    0.0964 C   0  0  1  0  0  0  0  0  0  0  0  0
   -0.5191   -1.4405    0.3671 C   0  0  1  0  0  0  0  0  0  0  0  0
   -1.4678   -0.4035   -0.2649 C   0  0  2  0  0  0  0  0  0  0  0  0
    2.9580    0.2279   -0.4033 C   0  0  2  0  0  0  0  0  0  0  0  0
    3.8009   -0.9024    0.2706 C   0  0  1  0  0  0  0  0  0  0  0  0
    0.5095    1.1886   -0.3901 C   0  0  0  0  0  0  0  0  0  0  0  0
   -0.9434    0.9956    0.0820 C   0  0  0  0  0  0  0  0  0  0  0  0
    1.8070   -2.4438    0.4082 C   0  0  0  0  0  0  0  0  0  0  0  0
   -2.7769   -0.7960    0.4467 C   0  0  2  0  0  0  0  0  0  0  0  0
   -1.2915   -2.7515    0.2441 C   0  0  0  0  0  0  0  0  0  0  0  0
    3.2595   -2.3027   -0.0380 C   0  0  0  0  0  0  0  0  0  0  0  0
    3.5483    1.5889    0.0715 C   0  0  0  0  0  0  0  0  0  0  0  0
   -2.7621   -2.3370    0.4330 C   0  0  0  0  0  0  0  0  0  0  0  0
   -1.6317   -0.5278   -1.8013 C   0  0  0  0  0  0  0  0  0  0  0  0
    3.0283    0.1663   -1.9495 C   0  0  0  0  0  0  0  0  0  0  0  0
    5.2941   -0.8112   -0.0511 C   0  0  0  0  0  0  0  0  0  0  0  0
    5.0518    1.7547   -0.2030 C   0  0  2  0  0  0  0  0  0  0  0  0
    5.8252    0.5538    0.3264 C   0  0  0  0  0  0  0  0  0  0  0  0
    5.5609    3.0587    0.4087 C   0  0  0  0  0  0  0  0  0  0  0  0
   -5.0029   -0.0949    0.7297 C   0  0  1  0  0  0  0  0  0  0  0  0
   -6.3344   -0.3053    0.0098 C   0  0  0  0  0  0  0  0  0  0  0  0
   -6.6325    0.8401   -0.9539 C   0  0  0  0  0  0  0  0  0  0  0  0
   -5.1505    2.2741    0.4675 C   0  0  0  0  0  0  0  0  0  0  0  0
   -6.4935    2.1801   -0.2425 C   0  0  0  0  0  0  0  0  0  0  0  0
    0.8691   -1.5279   -1.2732 H   0  0  0  0  0  0  0  0  0  0  0  0
    1.5022    0.1745    1.1930 H   0  0  0  0  0  0  0  0  0  0  0  0
   -0.4459   -1.2325    1.4480 H   0  0  0  0  0  0  0  0  0  0  0  0
    3.7127   -0.7636    1.3600 H   0  0  0  0  0  0  0  0  0  0  0  0
    0.5229    1.2557   -1.4821 H   0  0  0  0  0  0  0  0  0  0  0  0
    0.8496    2.1612   -0.0179 H   0  0  0  0  0  0  0  0  0  0  0  0
   -0.9796    1.1532    1.1677 H   0  0  0  0  0  0  0  0  0  0  0  0
   -1.5814    1.7690   -0.3623 H   0  0  0  0  0  0  0  0  0  0  0  0
    1.4440   -3.4371    0.1196 H   0  0  0  0  0  0  0  0  0  0  0  0
    1.7631   -2.3990    1.5041 H   0  0  0  0  0  0  0  0  0  0  0  0
   -2.7240   -0.4435    1.4877 H   0  0  0  0  0  0  0  0  0  0  0  0
   -0.9839   -3.4814    0.9998 H   0  0  0  0  0  0  0  0  0  0  0  0
   -1.1480   -3.2117   -0.7398 H   0  0  0  0  0  0  0  0  0  0  0  0
    3.8611   -3.0572    0.4838 H   0  0  0  0  0  0  0  0  0  0  0  0
    3.3450   -2.5250   -1.1079 H   0  0  0  0  0  0  0  0  0  0  0  0
    3.3696    1.6940    1.1507 H   0  0  0  0  0  0  0  0  0  0  0  0
    3.0194    2.4186   -0.4131 H   0  0  0  0  0  0  0  0  0  0  0  0
   -3.3882   -2.7478   -0.3672 H   0  0  0  0  0  0  0  0  0  0  0  0
   -3.1575   -2.7265    1.3777 H   0  0  0  0  0  0  0  0  0  0  0  0
   -2.0499   -1.4941   -2.1003 H   0  0  0  0  0  0  0  0  0  0  0  0
   -2.3099    0.2462   -2.1796 H   0  0  0  0  0  0  0  0  0  0  0  0
   -0.6872   -0.4115   -2.3391 H   0  0  0  0  0  0  0  0  0  0  0  0
    2.5633   -0.7350   -2.3563 H   0  0  0  0  0  0  0  0  0  0  0  0
    2.5260    1.0267   -2.4038 H   0  0  0  0  0  0  0  0  0  0  0  0
    4.0563    0.1791   -2.3219 H   0  0  0  0  0  0  0  0  0  0  0  0
    5.5080   -0.9934   -1.1085 H   0  0  0  0  0  0  0  0  0  0  0  0
    5.8438   -1.5628    0.5281 H   0  0  0  0  0  0  0  0  0  0  0  0
    5.2336    1.7993   -1.2830 H   0  0  0  0  0  0  0  0  0  0  0  0
    6.6206    3.2113    0.1768 H   0  0  0  0  0  0  0  0  0  0  0  0
    5.0056    3.9171    0.0165 H   0  0  0  0  0  0  0  0  0  0  0  0
    5.4592    3.0540    1.4997 H   0  0  0  0  0  0  0  0  0  0  0  0
   -4.9490   -0.8524    1.5219 H   0  0  0  0  0  0  0  0  0  0  0  0
   -7.1406   -0.3485    0.7525 H   0  0  0  0  0  0  0  0  0  0  0  0
   -6.3286   -1.2526   -0.5409 H   0  0  0  0  0  0  0  0  0  0  0  0
   -7.6433    0.7337   -1.3627 H   0  0  0  0  0  0  0  0  0  0  0  0
   -5.9370    0.8005   -1.8011 H   0  0  0  0  0  0  0  0  0  0  0  0
   -4.3223    2.3010   -0.2501 H   0  0  0  0  0  0  0  0  0  0  0  0
   -5.1044    3.1984    1.0524 H   0  0  0  0  0  0  0  0  0  0  0  0
   -6.6064    3.0035   -0.9553 H   0  0  0  0  0  0  0  0  0  0  0  0
   -7.2982    2.2693    0.4976 H   0  0  0  0  0  0  0  0  0  0  0  0
  1 13  1  0  0  0  0
  1 24  1  0  0  0  0
  2 22  2  0  0  0  0
  3 24  1  0  0  0  0
  3 27  1  0  0  0  0
  4  5  1  0  0  0  0
  4  6  1  0  0  0  0
  4 12  1  0  0  0  0
  4 29  1  0  0  0  0
  5  8  1  0  0  0  0
  5 10  1  0  0  0  0
  5 30  1  0  0  0  0
  6  7  1  0  0  0  0
  6 14  1  0  0  0  0
  6 31  1  0  0  0  0
  7 11  1  0  0  0  0
  7 13  1  0  0  0  0
  7 18  1  0  0  0  0
  8  9  1  0  0  0  0
  8 16  1  0  0  0  0
  8 19  1  0  0  0  0
  9 15  1  0  0  0  0
  9 20  1  0  0  0  0
  9 32  1  0  0  0  0
 10 11  1  0  0  0  0
 10 33  1  0  0  0  0
 10 34  1  0  0  0  0
 11 35  1  0  0  0  0
 11 36  1  0  0  0  0
 12 15  1  0  0  0  0
 12 37  1  0  0  0  0
 12 38  1  0  0  0  0
 13 17  1  0  0  0  0
 13 39  1  0  0  0  0
 14 17  1  0  0  0  0
 14 40  1  0  0  0  0
 14 41  1  0  0  0  0
 15 42  1  0  0  0  0
 15 43  1  0  0  0  0
 16 21  1  0  0  0  0
 16 44  1  0  0  0  0
 16 45  1  0  0  0  0
 17 46  1  0  0  0  0
 17 47  1  0  0  0  0
 18 48  1  0  0  0  0
 18 49  1  0  0  0  0
 18 50  1  0  0  0  0
 19 51  1  0  0  0  0
 19 52  1  0  0  0  0
 19 53  1  0  0  0  0
 20 22  1  0  0  0  0
 20 54  1  0  0  0  0
 20 55  1  0  0  0  0
 21 22  1  0  0  0  0
 21 23  1  0  0  0  0
 21 56  1  0  0  0  0
 23 57  1  0  0  0  0
 23 58  1  0  0  0  0
 23 59  1  0  0  0  0
 24 25  1  0  0  0  0
 24 60  1  0  0  0  0
 25 26  1  0  0  0  0
 25 61  1  0  0  0  0
 25 62  1  0  0  0  0
 26 28  1  0  0  0  0
 26 63  1  0  0  0  0
 26 64  1  0  0  0  0
 27 28  1  0  0  0  0
 27 65  1  0  0  0  0
 27 66  1  0  0  0  0
 28 67  1  0  0  0  0
 28 68  1  0  0  0  0
M  END
> <PUBCHEM_COMPOUND_CID>
255705

> <PUBCHEM_CONFORMER_RMSD>
0.8

> <PUBCHEM_CONFORMER_DIVERSEORDER>
1
8
11
2
5
6
10
9
3
7
4

> <PUBCHEM_MMFF94_PARTIAL_CHARGES>
9
1 -0.56
13 0.28
2 -0.57
20 0.06
21 0.06
22 0.45
24 0.56
27 0.28
3 -0.56

> <PUBCHEM_EFFECTIVE_ROTOR_COUNT>
5.2

> <PUBCHEM_PHARMACOPHORE_FEATURES>
8
1 1 acceptor
1 2 acceptor
1 3 acceptor
5 6 7 13 14 17 rings
6 3 24 25 26 27 28 rings
6 4 5 6 7 10 11 rings
6 4 5 8 9 12 15 rings
6 8 9 16 20 21 22 rings

> <PUBCHEM_HEAVY_ATOM_COUNT>
28

> <PUBCHEM_ATOM_DEF_STEREO_COUNT>
8

> <PUBCHEM_ATOM_UDEF_STEREO_COUNT>
1

> <PUBCHEM_BOND_DEF_STEREO_COUNT>
0

> <PUBCHEM_BOND_UDEF_STEREO_COUNT>
0

> <PUBCHEM_ISOTOPIC_ATOM_COUNT>
0

> <PUBCHEM_COMPONENT_COUNT>
1

> <PUBCHEM_CACTVS_TAUTO_COUNT>
3

> <PUBCHEM_CONFORMER_ID>
0003E6D900000001

> <PUBCHEM_MMFF94_ENERGY>
87.7237

> <PUBCHEM_FEATURE_SELFOVERLAP>
40.722

> <PUBCHEM_SHAPE_FINGERPRINT>
10 15 18059853930818927465
10280341 67 17826242796676514000
10366900 7 5039957351256715966
10411042 1 17619068773489295914
10906281 52 18261377949553956420
11089746 13 18041000639407830481
12236239 1 18113338639186732303
12422481 6 17346598573380403053
12633257 1 16343419501610332890
12788726 201 17531240716194679545
13785724 45 17762056944803165202
14394314 77 18335413626122101785
14790565 3 18338232790597609993
14856354 85 14333119781099618427
15021287 119 16917065538654042933
15131766 46 15408336453371253951
15142383 8 16917073286410995772
15183329 4 18408882957954063681
15196674 1 18339922606873300058
15238133 3 18131060516200528390
15419008 145 18128549330701872672
15840311 113 18266734865585571733
17349148 13 5473142929699026727
18222031 100 8862948251599815918
20281389 69 18341892974433048889
20511986 3 18334305257321188115
20715895 44 18411136935569174208
21033648 144 18272377494808461183
21033648 29 17203333368681891807
21150785 3 17386011654842855421
21236236 1 18338798914854149039
21279426 13 18336819870521062903
21304253 335 18343294864384584382
21421861 104 17917441972839710234
21859007 373 17631464529919310861
22182313 1 17488754495991662759
22950370 63 9655567514178282475
23559900 14 18335705992348962328
2838139 119 18409450327951097893
335352 9 18411417332883932502
3472631 163 18259983752030955214
34797466 226 17749380469334836535
34934 24 18409731737791272566
350125 39 18270960258252357710
3633792 109 18337111280353124105
3680242 22 18272092729707336890
3862424 121 13037531240026823392
4073 2 18059008385371920922
4093350 32 17603865637533286270
4169191 19 18411418405977143613
4340502 62 18342173371209347022
465052 167 10447928382185168920
5104073 3 18201721717518097322
6086070 43 17458916937279165763
6328613 192 18408322181238438937
7226269 152 18259982695574937281
7495541 125 12895067392906123118
7970288 3 9367079843230972568

> <PUBCHEM_SHAPE_MULTIPOLES>
558.62
16.96
2.84
1.06
7.94
0.03
-0.39
-11.2
1.85
-0.7
0.48
0.17
-0.08
0.28

> <PUBCHEM_SHAPE_SELFOVERLAP>
1181.588

> <PUBCHEM_SHAPE_VOLUME>
309

> <PUBCHEM_COORDINATE_TYPE>
2
5
10

$$$$

