11526601
  -OEChem-07051213102D

 68 70  0     1  0  0  0  0  0999 V2000
    5.1350   -3.9050    0.0000 O   0  0  0  0  0  0  0  0  0  0  0  0
    3.4030   -5.9050    0.0000 O   0  0  0  0  0  0  0  0  0  0  0  0
    5.1350   -6.9050    0.0000 O   0  0  0  0  0  0  0  0  0  0  0  0
    6.8671   -3.9050    0.0000 O   0  0  0  0  0  0  0  0  0  0  0  0
    6.8671   -5.9050    0.0000 O   0  0  0  0  0  0  0  0  0  0  0  0
    2.5369   -4.4050    0.0000 O   0  0  0  0  0  0  0  0  0  0  0  0
    8.5991   -2.9050    0.0000 O   0  0  0  0  0  0  0  0  0  0  0  0
    6.8671    2.0950    0.0000 O   0  0  0  0  0  0  0  0  0  0  0  0
   12.9292    4.5950    0.0000 O   0  0  0  0  0  0  0  0  0  0  0  0
   12.9292    6.5950    0.0000 O   0  0  0  0  0  0  0  0  0  0  0  0
    7.7331    3.5950    0.0000 O   0  0  0  0  0  0  0  0  0  0  0  0
    4.2690   -5.4050    0.0000 C   0  0  1  0  0  0  0  0  0  0  0  0
    5.1350   -5.9050    0.0000 C   0  0  1  0  0  0  0  0  0  0  0  0
    4.2690   -4.4050    0.0000 C   0  0  1  0  0  0  0  0  0  0  0  0
    6.0010   -5.4050    0.0000 C   0  0  2  0  0  0  0  0  0  0  0  0
    6.0010   -4.4050    0.0000 C   0  0  1  0  0  0  0  0  0  0  0  0
    3.4030   -3.9050    0.0000 C   0  0  0  0  0  0  0  0  0  0  0  0
    6.8671   -2.9050    0.0000 C   0  0  0  0  0  0  0  0  0  0  0  0
    7.7331   -2.4050    0.0000 C   0  0  0  0  0  0  0  0  0  0  0  0
    6.0010   -2.4050    0.0000 C   0  0  0  0  0  0  0  0  0  0  0  0
    7.7331   -1.4050    0.0000 C   0  0  0  0  0  0  0  0  0  0  0  0
    6.0010   -1.4050    0.0000 C   0  0  0  0  0  0  0  0  0  0  0  0
    6.8671   -0.9050    0.0000 C   0  0  0  0  0  0  0  0  0  0  0  0
    6.8671    0.0950    0.0000 C   0  0  0  0  0  0  0  0  0  0  0  0
    9.4651   -2.4050    0.0000 C   0  0  0  0  0  0  0  0  0  0  0  0
    7.7331    0.5950    0.0000 C   0  0  0  0  0  0  0  0  0  0  0  0
    7.7331    1.5950    0.0000 C   0  0  0  0  0  0  0  0  0  0  0  0
    8.5991    2.0950    0.0000 C   0  0  0  0  0  0  0  0  0  0  0  0
   10.3312    5.0950    0.0000 C   0  0  0  0  0  0  0  0  0  0  0  0
    8.5991    3.0950    0.0000 C   0  0  0  0  0  0  0  0  0  0  0  0
   11.1972    4.5950    0.0000 C   0  0  0  0  0  0  0  0  0  0  0  0
   12.0632    5.0950    0.0000 C   0  0  0  0  0  0  0  0  0  0  0  0
    9.4651    4.5950    0.0000 C   0  0  0  0  0  0  0  0  0  0  0  0
   10.3312    6.0950    0.0000 C   0  0  0  0  0  0  0  0  0  0  0  0
    9.4651    3.5950    0.0000 C   0  0  0  0  0  0  0  0  0  0  0  0
   12.0632    6.0950    0.0000 C   0  0  0  0  0  0  0  0  0  0  0  0
   11.1972    6.5950    0.0000 C   0  0  0  0  0  0  0  0  0  0  0  0
   13.7953    5.0950    0.0000 C   0  0  0  0  0  0  0  0  0  0  0  0
    4.2690   -6.0250    0.0000 H   0  0  0  0  0  0  0  0  0  0  0  0
    5.6720   -6.2150    0.0000 H   0  0  0  0  0  0  0  0  0  0  0  0
    4.2690   -3.7850    0.0000 H   0  0  0  0  0  0  0  0  0  0  0  0
    6.5380   -5.0950    0.0000 H   0  0  0  0  0  0  0  0  0  0  0  0
    6.5380   -4.7150    0.0000 H   0  0  0  0  0  0  0  0  0  0  0  0
    3.8015   -3.4300    0.0000 H   0  0  0  0  0  0  0  0  0  0  0  0
    3.0044   -3.4300    0.0000 H   0  0  0  0  0  0  0  0  0  0  0  0
    3.4030   -6.5250    0.0000 H   0  0  0  0  0  0  0  0  0  0  0  0
    4.5981   -7.2150    0.0000 H   0  0  0  0  0  0  0  0  0  0  0  0
    6.8671   -6.5250    0.0000 H   0  0  0  0  0  0  0  0  0  0  0  0
    2.0000   -4.0950    0.0000 H   0  0  0  0  0  0  0  0  0  0  0  0
    5.4641   -2.7150    0.0000 H   0  0  0  0  0  0  0  0  0  0  0  0
    8.2700   -1.0950    0.0000 H   0  0  0  0  0  0  0  0  0  0  0  0
    5.4641   -1.0950    0.0000 H   0  0  0  0  0  0  0  0  0  0  0  0
    6.3301    0.4050    0.0000 H   0  0  0  0  0  0  0  0  0  0  0  0
    9.7751   -2.9419    0.0000 H   0  0  0  0  0  0  0  0  0  0  0  0
   10.0021   -2.0950    0.0000 H   0  0  0  0  0  0  0  0  0  0  0  0
    9.1551   -1.8681    0.0000 H   0  0  0  0  0  0  0  0  0  0  0  0
    8.2700    0.2850    0.0000 H   0  0  0  0  0  0  0  0  0  0  0  0
    9.1360    1.7850    0.0000 H   0  0  0  0  0  0  0  0  0  0  0  0
   11.1972    3.9750    0.0000 H   0  0  0  0  0  0  0  0  0  0  0  0
    8.9282    4.9050    0.0000 H   0  0  0  0  0  0  0  0  0  0  0  0
    9.7942    6.4050    0.0000 H   0  0  0  0  0  0  0  0  0  0  0  0
    6.8671    2.7150    0.0000 H   0  0  0  0  0  0  0  0  0  0  0  0
   10.0021    3.2850    0.0000 H   0  0  0  0  0  0  0  0  0  0  0  0
   11.1972    7.2150    0.0000 H   0  0  0  0  0  0  0  0  0  0  0  0
   12.9292    7.2150    0.0000 H   0  0  0  0  0  0  0  0  0  0  0  0
   14.1053    4.5581    0.0000 H   0  0  0  0  0  0  0  0  0  0  0  0
   14.3322    5.4050    0.0000 H   0  0  0  0  0  0  0  0  0  0  0  0
   13.4853    5.6319    0.0000 H   0  0  0  0  0  0  0  0  0  0  0  0
  1 14  1  0  0  0  0
  1 16  1  0  0  0  0
 12  2  1  6  0  0  0
  2 46  1  0  0  0  0
 13  3  1  1  0  0  0
  3 47  1  0  0  0  0
 16  4  1  1  0  0  0
  4 18  1  0  0  0  0
 15  5  1  6  0  0  0
  5 48  1  0  0  0  0
  6 17  1  0  0  0  0
  6 49  1  0  0  0  0
  7 19  1  0  0  0  0
  7 25  1  0  0  0  0
  8 27  1  0  0  0  0
  8 62  1  0  0  0  0
  9 32  1  0  0  0  0
  9 38  1  0  0  0  0
 10 36  1  0  0  0  0
 10 65  1  0  0  0  0
 11 30  2  0  0  0  0
 12 13  1  0  0  0  0
 12 14  1  0  0  0  0
 12 39  1  0  0  0  0
 13 15  1  0  0  0  0
 13 40  1  0  0  0  0
 14 17  1  1  0  0  0
 14 41  1  0  0  0  0
 15 16  1  0  0  0  0
 15 42  1  0  0  0  0
 16 43  1  0  0  0  0
 17 44  1  0  0  0  0
 17 45  1  0  0  0  0
 18 19  2  0  0  0  0
 18 20  1  0  0  0  0
 19 21  1  0  0  0  0
 20 22  2  0  0  0  0
 20 50  1  0  0  0  0
 21 23  2  0  0  0  0
 21 51  1  0  0  0  0
 22 23  1  0  0  0  0
 22 52  1  0  0  0  0
 23 24  1  0  0  0  0
 24 26  2  0  0  0  0
 24 53  1  0  0  0  0
 25 54  1  0  0  0  0
 25 55  1  0  0  0  0
 25 56  1  0  0  0  0
 26 27  1  0  0  0  0
 26 57  1  0  0  0  0
 27 28  2  0  0  0  0
 28 30  1  0  0  0  0
 28 58  1  0  0  0  0
 29 31  2  0  0  0  0
 29 33  1  0  0  0  0
 29 34  1  0  0  0  0
 30 35  1  0  0  0  0
 31 32  1  0  0  0  0
 31 59  1  0  0  0  0
 32 36  2  0  0  0  0
 33 35  2  0  0  0  0
 33 60  1  0  0  0  0
 34 37  2  0  0  0  0
 34 61  1  0  0  0  0
 35 63  1  0  0  0  0
 36 37  1  0  0  0  0
 37 64  1  0  0  0  0
 38 66  1  0  0  0  0
 38 67  1  0  0  0  0
 38 68  1  0  0  0  0
M  END
> <PUBCHEM_COMPOUND_CID>
11526601

> <PUBCHEM_COMPOUND_CANONICALIZED>
1

> <PUBCHEM_CACTVS_COMPLEXITY>
843

> <PUBCHEM_CACTVS_HBOND_ACCEPTOR>
11

> <PUBCHEM_CACTVS_HBOND_DONOR>
6

> <PUBCHEM_CACTVS_ROTATABLE_BOND>
10

> <PUBCHEM_CACTVS_SUBSKEYS>
AAADceB4PAAAAAAAAAAAAAAAAAAAAAAAAAA0YIAAAAAAAAABQAAAGgAACAAADBSwmAMyDoAABgCIAqBSAAACCAAgIAAIiAAGiMgdNiKGMRqieCOlwBEPuYfA4BwOIAABAAAAQABAAAIAAACAAAAAAAAAAA==

> <PUBCHEM_IUPAC_OPENEYE_NAME>
(1E,4Z,6E)-5-hydroxy-1-(4-hydroxy-3-methoxy-phenyl)-7-[3-methoxy-4-[(2S,3R,4S,5S,6R)-3,4,5-trihydroxy-6-(hydroxymethyl)tetrahydropyran-2-yl]oxy-phenyl]hepta-1,4,6-trien-3-one

> <PUBCHEM_IUPAC_CAS_NAME>
(1E,4Z,6E)-5-hydroxy-1-(4-hydroxy-3-methoxyphenyl)-7-[3-methoxy-4-[[(2S,3R,4S,5S,6R)-3,4,5-trihydroxy-6-(hydroxymethyl)-2-oxanyl]oxy]phenyl]-3-hepta-1,4,6-trienone

> <PUBCHEM_IUPAC_NAME>
(1E,4Z,6E)-5-hydroxy-1-(4-hydroxy-3-methoxyphenyl)-7-[3-methoxy-4-[(2S,3R,4S,5S,6R)-3,4,5-trihydroxy-6-(hydroxymethyl)oxan-2-yl]oxyphenyl]hepta-1,4,6-trien-3-one

> <PUBCHEM_IUPAC_SYSTEMATIC_NAME>
(1E,4Z,6E)-7-[4-[(2S,3R,4S,5S,6R)-6-(hydroxymethyl)-3,4,5-tris(oxidanyl)oxan-2-yl]oxy-3-methoxy-phenyl]-1-(3-methoxy-4-oxidanyl-phenyl)-5-oxidanyl-hepta-1,4,6-trien-3-one

> <PUBCHEM_IUPAC_TRADITIONAL_NAME>
(1E,4Z,6E)-5-hydroxy-1-(4-hydroxy-3-methoxy-phenyl)-7-[3-methoxy-4-[(2S,3R,4S,5S,6R)-3,4,5-trihydroxy-6-methylol-tetrahydropyran-2-yl]oxy-phenyl]hepta-1,4,6-trien-3-one

> <PUBCHEM_IUPAC_INCHI>
InChI=1S/C27H30O11/c1-35-21-11-15(5-9-19(21)31)3-7-17(29)13-18(30)8-4-16-6-10-20(22(12-16)36-2)37-27-26(34)25(33)24(32)23(14-28)38-27/h3-13,23-28,30-34H,14H2,1-2H3/b7-3+,8-4+,18-13-/t23-,24-,25+,26-,27-/m1/s1

> <PUBCHEM_IUPAC_INCHIKEY>
UTULZZKBGPPSOF-JBNJIKQZSA-N

> <PUBCHEM_XLOGP3>
1.4

> <PUBCHEM_EXACT_MASS>
530.178812

> <PUBCHEM_MOLECULAR_FORMULA>
C27H30O11

> <PUBCHEM_MOLECULAR_WEIGHT>
530.5205

> <PUBCHEM_OPENEYE_CAN_SMILES>
COC1=C(C=CC(=C1)C=CC(=O)C=C(C=CC2=CC(=C(C=C2)OC3C(C(C(C(O3)CO)O)O)O)OC)O)O

> <PUBCHEM_OPENEYE_ISO_SMILES>
COC1=C(C=CC(=C1)/C=C/C(=O)/C=C(/C=C/C2=CC(=C(C=C2)O[C@H]3[C@@H]([C@H]([C@@H]([C@H](O3)CO)O)O)O)OC)\O)O

> <PUBCHEM_CACTVS_TPSA>
175

> <PUBCHEM_MONOISOTOPIC_WEIGHT>
530.178812

> <PUBCHEM_TOTAL_CHARGE>
0

> <PUBCHEM_HEAVY_ATOM_COUNT>
38

> <PUBCHEM_ATOM_DEF_STEREO_COUNT>
5

> <PUBCHEM_ATOM_UDEF_STEREO_COUNT>
0

> <PUBCHEM_BOND_DEF_STEREO_COUNT>
3

> <PUBCHEM_BOND_UDEF_STEREO_COUNT>
0

> <PUBCHEM_ISOTOPIC_ATOM_COUNT>
0

> <PUBCHEM_COMPONENT_COUNT>
1

> <PUBCHEM_CACTVS_TAUTO_COUNT>
17

> <PUBCHEM_COORDINATE_TYPE>
1
5
255

> <PUBCHEM_BONDANNOTATIONS>
14  17  5
18  19  8
18  20  8
19  21  8
12  2  6
20  22  8
21  23  8
22  23  8
29  31  8
29  34  8
13  3  5
31  32  8
32  36  8
34  37  8
36  37  8
16  4  5
15  5  6

$$$$

