3542
  -OEChem-06251223293D

 37 39  0     1  0  0  0  0  0999 V2000
    0.5953   -0.9602   -0.2193 S   0  0  0  0  0  0  0  0  0  0  0  0
    0.3292   -1.7722    0.9515 O   0  0  0  0  0  0  0  0  0  0  0  0
    0.5871   -1.5211   -1.5554 O   0  0  0  0  0  0  0  0  0  0  0  0
    2.0548   -0.1076    0.0260 N   0  0  2  0  0  0  0  0  0  0  0  0
    4.6999    0.8172    0.6574 N   0  0  0  0  0  0  0  0  0  0  0  0
   -4.7547   -0.7758    0.4199 N   0  0  0  0  0  0  0  0  0  0  0  0
    3.1924   -0.3988   -0.9057 C   0  0  1  0  0  0  0  0  0  0  0  0
    2.4720    0.0941    1.4416 C   0  0  0  0  0  0  0  0  0  0  0  0
    4.2640    0.6867   -0.7341 C   0  0  0  0  0  0  0  0  0  0  0  0
    3.5651    1.1551    1.5169 C   0  0  0  0  0  0  0  0  0  0  0  0
    3.7495   -1.8073   -0.7010 C   0  0  0  0  0  0  0  0  0  0  0  0
   -0.7334    0.2396   -0.2514 C   0  0  0  0  0  0  0  0  0  0  0  0
   -2.0503   -0.1313   -0.0255 C   0  0  0  0  0  0  0  0  0  0  0  0
   -0.3533    1.5410   -0.5147 C   0  0  0  0  0  0  0  0  0  0  0  0
   -3.0372    0.8751   -0.0691 C   0  0  0  0  0  0  0  0  0  0  0  0
   -1.3310    2.5323   -0.5572 C   0  0  0  0  0  0  0  0  0  0  0  0
   -2.4382   -1.4492    0.2419 C   0  0  0  0  0  0  0  0  0  0  0  0
   -2.6684    2.2041   -0.3357 C   0  0  0  0  0  0  0  0  0  0  0  0
   -4.3599    0.4909    0.1599 C   0  0  0  0  0  0  0  0  0  0  0  0
   -3.7829   -1.7124    0.4540 C   0  0  0  0  0  0  0  0  0  0  0  0
    2.8218   -0.3149   -1.9349 H   0  0  0  0  0  0  0  0  0  0  0  0
    2.8210   -0.8518    1.8702 H   0  0  0  0  0  0  0  0  0  0  0  0
    1.6138    0.4382    2.0299 H   0  0  0  0  0  0  0  0  0  0  0  0
    5.1334    0.4509   -1.3583 H   0  0  0  0  0  0  0  0  0  0  0  0
    3.8755    1.6514   -1.0858 H   0  0  0  0  0  0  0  0  0  0  0  0
    3.1618    2.1350    1.2321 H   0  0  0  0  0  0  0  0  0  0  0  0
    3.9142    1.2401    2.5516 H   0  0  0  0  0  0  0  0  0  0  0  0
    5.4014    1.5544    0.7221 H   0  0  0  0  0  0  0  0  0  0  0  0
    4.5588   -2.0034   -1.4125 H   0  0  0  0  0  0  0  0  0  0  0  0
    4.1523   -1.9529    0.3062 H   0  0  0  0  0  0  0  0  0  0  0  0
    2.9825   -2.5717   -0.8577 H   0  0  0  0  0  0  0  0  0  0  0  0
    0.6736    1.8306   -0.7082 H   0  0  0  0  0  0  0  0  0  0  0  0
   -1.0529    3.5612   -0.7666 H   0  0  0  0  0  0  0  0  0  0  0  0
   -1.7712   -2.3000    0.2436 H   0  0  0  0  0  0  0  0  0  0  0  0
   -3.4190    2.9901   -0.3734 H   0  0  0  0  0  0  0  0  0  0  0  0
   -5.1687    1.2164    0.1405 H   0  0  0  0  0  0  0  0  0  0  0  0
   -4.1252   -2.7233    0.6510 H   0  0  0  0  0  0  0  0  0  0  0  0
  1  2  2  0  0  0  0
  1  3  2  0  0  0  0
  1  4  1  0  0  0  0
  1 12  1  0  0  0  0
  4  7  1  0  0  0  0
  4  8  1  0  0  0  0
  5  9  1  0  0  0  0
  5 10  1  0  0  0  0
  5 28  1  0  0  0  0
  6 19  2  0  0  0  0
  6 20  1  0  0  0  0
  7  9  1  0  0  0  0
  7 11  1  0  0  0  0
  7 21  1  0  0  0  0
  8 10  1  0  0  0  0
  8 22  1  0  0  0  0
  8 23  1  0  0  0  0
  9 24  1  0  0  0  0
  9 25  1  0  0  0  0
 10 26  1  0  0  0  0
 10 27  1  0  0  0  0
 11 29  1  0  0  0  0
 11 30  1  0  0  0  0
 11 31  1  0  0  0  0
 12 13  1  0  0  0  0
 12 14  2  0  0  0  0
 13 15  2  0  0  0  0
 13 17  1  0  0  0  0
 14 16  1  0  0  0  0
 14 32  1  0  0  0  0
 15 18  1  0  0  0  0
 15 19  1  0  0  0  0
 16 18  2  0  0  0  0
 16 33  1  0  0  0  0
 17 20  2  0  0  0  0
 17 34  1  0  0  0  0
 18 35  1  0  0  0  0
 19 36  1  0  0  0  0
 20 37  1  0  0  0  0
M  END
> <PUBCHEM_COMPOUND_CID>
3542

> <PUBCHEM_CONFORMER_RMSD>
0.6

> <PUBCHEM_CONFORMER_DIVERSEORDER>
1
29
24
42
31
4
45
48
32
44
18
16
35
6
51
23
41
17
40
3
28
27
49
46
30
2
47
19
7
21
22
43
50
34
13
8
5
33
12
39
25
36
11
37
9
20
38
26
15
14
10

> <PUBCHEM_MMFF94_PARTIAL_CHARGES>
24
1 1.45
10 0.27
12 -0.01
14 -0.15
16 -0.15
17 -0.15
18 -0.15
19 0.16
2 -0.65
20 0.16
28 0.36
3 -0.65
32 0.15
33 0.15
34 0.15
35 0.15
36 0.15
37 0.15
4 -0.85
5 -0.9
6 -0.62
7 0.36
8 0.36
9 0.27

> <PUBCHEM_EFFECTIVE_ROTOR_COUNT>
3.2

> <PUBCHEM_PHARMACOPHORE_FEATURES>
8
1 2 acceptor
1 3 acceptor
1 5 cation
1 5 donor
1 6 acceptor
6 12 13 14 15 16 18 rings
6 4 5 7 8 9 10 rings
6 6 13 15 17 19 20 rings

> <PUBCHEM_HEAVY_ATOM_COUNT>
20

> <PUBCHEM_ATOM_DEF_STEREO_COUNT>
0

> <PUBCHEM_ATOM_UDEF_STEREO_COUNT>
1

> <PUBCHEM_BOND_DEF_STEREO_COUNT>
0

> <PUBCHEM_BOND_UDEF_STEREO_COUNT>
0

> <PUBCHEM_ISOTOPIC_ATOM_COUNT>
0

> <PUBCHEM_COMPONENT_COUNT>
1

> <PUBCHEM_CACTVS_TAUTO_COUNT>
1

> <PUBCHEM_CONFORMER_ID>
00000DD600000001

> <PUBCHEM_MMFF94_ENERGY>
50.1955

> <PUBCHEM_FEATURE_SELFOVERLAP>
40.638

> <PUBCHEM_SHAPE_FINGERPRINT>
10319926 262 18267884924582922722
10498660 4 18271810154623126388
10608611 8 18335705008769757292
10646746 165 18339927120788547324
10906281 52 18341597219248968861
11132069 177 18411981355940633621
11370993 144 17823122566583700059
11552529 35 17168710700516017231
11595378 159 17846224375045410600
12236239 1 17132116836113640024
12403259 415 18261110807189359924
12553582 1 18201435861938104907
12596602 18 16917063309476390552
12623949 98 17532352219540516319
12633257 1 18119811575528745659
13140716 1 18198055877310955873
13214271 11 18409171000251956391
13224815 77 18341615940225396004
14081887 123 18411426137060305113
14223421 5 18267869556514885551
14289901 80 18201996655337863232
14341114 328 18060420200945650928
14787075 74 17987515901201958170
14790565 3 17834953453729065277
15196674 1 18412259575258261549
15219456 202 18259986002309085366
16945 1 18343027722130594885
17349148 13 16988837289390725715
1813 80 17560796611326002381
18186145 218 16732988617678094430
19784866 170 18410289220683498451
200 152 14908188546638307988
20510252 161 18410291436617812425
20645477 56 17895768292269148448
20645477 70 17385720339916877670
21069387 34 14405187304432125553
21267235 1 18270667702550413923
22854114 59 18040154002484982609
23402539 116 18340492179550175951
23532345 42 18341050735530253817
23557571 272 18338505421877962333
23559900 14 18340484585973987878
3009799 131 18270135539265247847
3286 77 17967528017139451286
3323516 105 18113615703310865384
34934 24 18342746247549354143
350125 39 18268992158198263082
3524813 1 18187373090696420904
474 4 16557608726578460460
5104073 3 18337388352386866491
6049 1 18260269685031036936
6442390 28 18335984173392017006
7097593 13 17340146827974603042
81228 2 18199167659575952177
90316 7 17845661463821080933
9709674 26 18191581071840615439
9925002 15 17538574209817785543

> <PUBCHEM_SHAPE_MULTIPOLES>
388.76
9.14
2.24
1.14
1.76
0.43
0.16
-0.23
1.1
-1.03
-0.25
1.11
-0.04
1.16

> <PUBCHEM_SHAPE_SELFOVERLAP>
822.378

> <PUBCHEM_SHAPE_VOLUME>
218.4

> <PUBCHEM_COORDINATE_TYPE>
2
5
10

$$$$

