442418
  -OEChem-07051212582D

 47 50  0     1  0  0  0  0  0999 V2000
    2.7905   -0.3325    0.0000 O   0  0  0  0  0  0  0  0  0  0  0  0
    3.8954    2.5646    0.0000 O   0  0  0  0  0  0  0  0  0  0  0  0
    2.6166    2.4225    0.0000 O   0  0  0  0  0  0  0  0  0  0  0  0
    6.2318    1.1989    0.0000 O   0  0  0  0  0  0  0  0  0  0  0  0
    5.8268   -0.5244    0.0000 O   0  0  0  0  0  0  0  0  0  0  0  0
    7.4802   -0.0082    0.0000 O   0  0  0  0  0  0  0  0  0  0  0  0
    6.4228   -2.4335    0.0000 O   0  0  0  0  0  0  0  0  0  0  0  0
    8.3742   -2.8719    0.0000 O   0  0  0  0  0  0  0  0  0  0  0  0
    9.7295   -1.4012    0.0000 O   0  0  0  0  0  0  0  0  0  0  0  0
   10.1092    0.2887    0.0000 O   0  0  0  0  0  0  0  0  0  0  0  0
    3.7044    0.0747    0.0000 C   0  0  1  0  0  0  0  0  0  0  0  0
    2.8954    0.6625    0.0000 C   0  0  2  0  0  0  0  0  0  0  0  0
    4.5134    0.6625    0.0000 C   0  0  2  0  0  0  0  0  0  0  0  0
    4.2044    1.6135    0.0000 C   0  0  1  0  0  0  0  0  0  0  0  0
    3.2044    1.6135    0.0000 C   0  0  2  0  0  0  0  0  0  0  0  0
    5.5288    0.4302    0.0000 C   0  0  1  0  0  0  0  0  0  0  0  0
    4.5134   -0.5131    0.0000 C   0  0  0  0  0  0  0  0  0  0  0  0
    4.8894    2.3982    0.0000 C   0  0  0  0  0  0  0  0  0  0  0  0
    5.9099    2.1895    0.0000 C   0  0  0  0  0  0  0  0  0  0  0  0
    6.8025   -0.7436    0.0000 C   0  0  2  0  0  0  0  0  0  0  0  0
    7.1005   -1.6981    0.0000 C   0  0  1  0  0  0  0  0  0  0  0  0
    8.0762   -1.9173    0.0000 C   0  0  2  0  0  0  0  0  0  0  0  0
    8.4558   -0.2274    0.0000 C   0  0  1  0  0  0  0  0  0  0  0  0
    8.7538   -1.1820    0.0000 C   0  0  1  0  0  0  0  0  0  0  0  0
    9.1335    0.5079    0.0000 C   0  0  0  0  0  0  0  0  0  0  0  0
    2.0640    0.8393    0.0000 H   0  0  0  0  0  0  0  0  0  0  0  0
    4.6837   -0.1703    0.0000 H   0  0  0  0  0  0  0  0  0  0  0  0
    2.5920    1.5165    0.0000 H   0  0  0  0  0  0  0  0  0  0  0  0
    5.1078   -0.0249    0.0000 H   0  0  0  0  0  0  0  0  0  0  0  0
    4.1490   -1.0147    0.0000 H   0  0  0  0  0  0  0  0  0  0  0  0
    5.0150   -0.8775    0.0000 H   0  0  0  0  0  0  0  0  0  0  0  0
    4.8778   -0.0115    0.0000 H   0  0  0  0  0  0  0  0  0  0  0  0
    4.6910    2.9856    0.0000 H   0  0  0  0  0  0  0  0  0  0  0  0
    4.3102    3.0253    0.0000 H   0  0  0  0  0  0  0  0  0  0  0  0
    2.0000    2.3577    0.0000 H   0  0  0  0  0  0  0  0  0  0  0  0
    6.3229    2.6519    0.0000 H   0  0  0  0  0  0  0  0  0  0  0  0
    6.3823   -1.1995    0.0000 H   0  0  0  0  0  0  0  0  0  0  0  0
    6.4956   -1.5622    0.0000 H   0  0  0  0  0  0  0  0  0  0  0  0
    8.6811   -2.0532    0.0000 H   0  0  0  0  0  0  0  0  0  0  0  0
    8.2711    0.3644    0.0000 H   0  0  0  0  0  0  0  0  0  0  0  0
    9.1740   -0.7261    0.0000 H   0  0  0  0  0  0  0  0  0  0  0  0
    9.3724    1.0801    0.0000 H   0  0  0  0  0  0  0  0  0  0  0  0
    8.6116    0.8425    0.0000 H   0  0  0  0  0  0  0  0  0  0  0  0
    6.6076   -3.0253    0.0000 H   0  0  0  0  0  0  0  0  0  0  0  0
    8.9791   -3.0078    0.0000 H   0  0  0  0  0  0  0  0  0  0  0  0
    9.9143   -1.9930    0.0000 H   0  0  0  0  0  0  0  0  0  0  0  0
   10.5294    0.7447    0.0000 H   0  0  0  0  0  0  0  0  0  0  0  0
  1 11  1  0  0  0  0
  1 12  1  0  0  0  0
 14  2  1  1  0  0  0
  2 34  1  0  0  0  0
 15  3  1  1  0  0  0
  3 35  1  0  0  0  0
  4 16  1  0  0  0  0
  4 19  1  0  0  0  0
 16  5  1  1  0  0  0
 20  5  1  6  0  0  0
  6 20  1  0  0  0  0
  6 23  1  0  0  0  0
 21  7  1  1  0  0  0
  7 44  1  0  0  0  0
 22  8  1  6  0  0  0
  8 45  1  0  0  0  0
 24  9  1  1  0  0  0
  9 46  1  0  0  0  0
 10 25  1  0  0  0  0
 10 47  1  0  0  0  0
 11 12  1  0  0  0  0
 11 13  1  0  0  0  0
 11 17  1  6  0  0  0
 12 15  1  0  0  0  0
 12 26  1  6  0  0  0
 13 14  1  0  0  0  0
 13 16  1  0  0  0  0
 13 27  1  1  0  0  0
 14 15  1  0  0  0  0
 14 18  1  0  0  0  0
 15 28  1  0  0  0  0
 16 29  1  0  0  0  0
 17 30  1  0  0  0  0
 17 31  1  0  0  0  0
 17 32  1  0  0  0  0
 18 19  2  0  0  0  0
 18 33  1  0  0  0  0
 19 36  1  0  0  0  0
 20 21  1  0  0  0  0
 20 37  1  0  0  0  0
 21 22  1  0  0  0  0
 21 38  1  0  0  0  0
 22 24  1  0  0  0  0
 22 39  1  0  0  0  0
 23 24  1  0  0  0  0
 23 25  1  6  0  0  0
 23 40  1  0  0  0  0
 24 41  1  0  0  0  0
 25 42  1  0  0  0  0
 25 43  1  0  0  0  0
M  END
> <PUBCHEM_COMPOUND_CID>
442418

> <PUBCHEM_COMPOUND_CANONICALIZED>
1

> <PUBCHEM_CACTVS_COMPLEXITY>
571

> <PUBCHEM_CACTVS_HBOND_ACCEPTOR>
10

> <PUBCHEM_CACTVS_HBOND_DONOR>
6

> <PUBCHEM_CACTVS_ROTATABLE_BOND>
3

> <PUBCHEM_CACTVS_SUBSKEYS>
AAADceBwPAAAAAAAAAAAAAAAEgAAAYAAAAAkSIAAAAAAAEAAAAAAGgAACAAADVSwgAMCCAAABgCAACBCAAAACAAgIAAIAAAAAAgRFAIAAAAiQAAFwAAHEAHA4CwOgAAAAAAAAAAAAAAAAAAAAYQADCAAAA==

> <PUBCHEM_IUPAC_OPENEYE_NAME>
(2S,3R,4S,5S,6R)-2-[[(1aR,1bS,2S,5aS,6R,6aS)-5a,6-dihydroxy-1a-methyl-1b,2,6,6a-tetrahydrooxireno[1,2]cyclopenta[4,5-b]pyran-2-yl]oxy]-6-(hydroxymethyl)tetrahydropyran-3,4,5-triol

> <PUBCHEM_IUPAC_CAS_NAME>
(2S,3R,4S,5S,6R)-2-[[(1aR,1bS,2S,5aS,6R,6aS)-5a,6-dihydroxy-1a-methyl-1b,2,6,6a-tetrahydrooxireno[1,2]cyclopenta[4,5-b]pyran-2-yl]oxy]-6-(hydroxymethyl)oxane-3,4,5-triol

> <PUBCHEM_IUPAC_NAME>
(2S,3R,4S,5S,6R)-2-[[(1aR,1bS,2S,5aS,6R,6aS)-5a,6-dihydroxy-1a-methyl-1b,2,6,6a-tetrahydrooxireno[1,2]cyclopenta[4,5-b]pyran-2-yl]oxy]-6-(hydroxymethyl)oxane-3,4,5-triol

> <PUBCHEM_IUPAC_SYSTEMATIC_NAME>
(2S,3R,4S,5S,6R)-2-[[(1aR,1bS,2S,5aS,6R,6aS)-1a-methyl-5a,6-bis(oxidanyl)-1b,2,6,6a-tetrahydrooxireno[1,2]cyclopenta[4,5-b]pyran-2-yl]oxy]-6-(hydroxymethyl)oxane-3,4,5-triol

> <PUBCHEM_IUPAC_TRADITIONAL_NAME>
(2S,3R,4S,5S,6R)-2-[[(1aR,1bS,2S,5aS,6R,6aS)-5a,6-dihydroxy-1a-methyl-1b,2,6,6a-tetrahydrooxireno[1,2]cyclopenta[4,5-b]pyran-2-yl]oxy]-6-methylol-tetrahydropyran-3,4,5-triol

> <PUBCHEM_IUPAC_INCHI>
InChI=1S/C15H22O10/c1-14-9-13(22-3-2-15(9,21)10(20)11(14)25-14)24-12-8(19)7(18)6(17)5(4-16)23-12/h2-3,5-13,16-21H,4H2,1H3/t5-,6-,7+,8-,9-,10-,11+,12+,13+,14-,15+/m1/s1

> <PUBCHEM_IUPAC_INCHIKEY>
UBAIOTDKPLIEDD-RNCITLLOSA-N

> <PUBCHEM_XLOGP3_AA>
-3.2

> <PUBCHEM_EXACT_MASS>
362.121297

> <PUBCHEM_MOLECULAR_FORMULA>
C15H22O10

> <PUBCHEM_MOLECULAR_WEIGHT>
362.32918

> <PUBCHEM_OPENEYE_CAN_SMILES>
CC12C3C(OC=CC3(C(C1O2)O)O)OC4C(C(C(C(O4)CO)O)O)O

> <PUBCHEM_OPENEYE_ISO_SMILES>
C[C@@]12[C@H]3[C@@H](OC=C[C@]3([C@@H]([C@@H]1O2)O)O)O[C@H]4[C@@H]([C@H]([C@@H]([C@H](O4)CO)O)O)O

> <PUBCHEM_CACTVS_TPSA>
162

> <PUBCHEM_MONOISOTOPIC_WEIGHT>
362.121297

> <PUBCHEM_TOTAL_CHARGE>
0

> <PUBCHEM_HEAVY_ATOM_COUNT>
25

> <PUBCHEM_ATOM_DEF_STEREO_COUNT>
11

> <PUBCHEM_ATOM_UDEF_STEREO_COUNT>
0

> <PUBCHEM_BOND_DEF_STEREO_COUNT>
0

> <PUBCHEM_BOND_UDEF_STEREO_COUNT>
0

> <PUBCHEM_ISOTOPIC_ATOM_COUNT>
0

> <PUBCHEM_COMPONENT_COUNT>
1

> <PUBCHEM_CACTVS_TAUTO_COUNT>
1

> <PUBCHEM_COORDINATE_TYPE>
1
5
255

> <PUBCHEM_BONDANNOTATIONS>
11  17  6
12  26  6
13  27  5
14  2  5
23  25  6
15  3  5
16  5  5
20  5  6
21  7  5
22  8  6
24  9  5

$$$$

