5281733
  -OEChem-07051212592D

 49 51  0     1  0  0  0  0  0999 V2000
    4.2496    0.1857    0.0000 O   0  0  0  0  0  0  0  0  0  0  0  0
    6.7897   -0.3031    0.0000 O   0  0  0  0  0  0  0  0  0  0  0  0
    6.2018   -2.7355    0.0000 O   0  0  0  0  0  0  0  0  0  0  0  0
    2.5369    0.1969    0.0000 O   0  0  0  0  0  0  0  0  0  0  0  0
    7.6557   -1.7808    0.0000 O   0  0  0  0  0  0  0  0  0  0  0  0
    5.0964    2.6299    0.0000 N   0  0  3  0  0  0  0  0  0  0  0  0
    5.0964    1.6522    0.0000 C   0  0  1  0  0  0  0  0  0  0  0  0
    4.2496    1.1634    0.0000 C   0  0  1  0  0  0  0  0  0  0  0  0
    3.5551    2.0922    0.0000 C   0  0  0  0  0  0  0  0  0  0  0  0
    4.0765    2.8743    0.0000 C   0  0  0  0  0  0  0  0  0  0  0  0
    5.9430    1.1634    0.0000 C   0  0  0  0  0  0  0  0  0  0  0  0
    6.0318    2.8960    0.0000 C   0  0  0  0  0  0  0  0  0  0  0  0
    6.6401    2.0922    0.0000 C   0  0  0  0  0  0  0  0  0  0  0  0
    5.9430    0.1857    0.0000 C   0  0  0  0  0  0  0  0  0  0  0  0
    5.0964   -1.2808    0.0000 C   0  0  1  0  0  0  0  0  0  0  0  0
    5.9430   -1.7696    0.0000 C   0  0  2  0  0  0  0  0  0  0  0  0
    4.2496   -1.7696    0.0000 C   0  0  0  0  0  0  0  0  0  0  0  0
    3.4030   -0.3031    0.0000 C   0  0  0  0  0  0  0  0  0  0  0  0
    3.4030   -1.2808    0.0000 C   0  0  0  0  0  0  0  0  0  0  0  0
    6.7897   -1.2808    0.0000 C   0  0  0  0  0  0  0  0  0  0  0  0
    5.0964   -0.2808    0.0000 C   0  0  0  0  0  0  0  0  0  0  0  0
    5.2360   -2.4768    0.0000 C   0  0  0  0  0  0  0  0  0  0  0  0
    2.5369   -1.7808    0.0000 C   0  0  0  0  0  0  0  0  0  0  0  0
    2.5370   -2.7808    0.0000 C   0  0  0  0  0  0  0  0  0  0  0  0
    5.0964    0.8022    0.0000 H   0  0  0  0  0  0  0  0  0  0  0  0
    3.4430    0.8952    0.0000 H   0  0  0  0  0  0  0  0  0  0  0  0
    3.0815    2.4923    0.0000 H   0  0  0  0  0  0  0  0  0  0  0  0
    3.1038    1.6670    0.0000 H   0  0  0  0  0  0  0  0  0  0  0  0
    4.2907    3.4561    0.0000 H   0  0  0  0  0  0  0  0  0  0  0  0
    3.5238    3.1553    0.0000 H   0  0  0  0  0  0  0  0  0  0  0  0
    6.5685    3.2064    0.0000 H   0  0  0  0  0  0  0  0  0  0  0  0
    5.7900    3.4669    0.0000 H   0  0  0  0  0  0  0  0  0  0  0  0
    7.2601    2.0934    0.0000 H   0  0  0  0  0  0  0  0  0  0  0  0
    5.3324    0.2934    0.0000 H   0  0  0  0  0  0  0  0  0  0  0  0
    5.7310   -0.3969    0.0000 H   0  0  0  0  0  0  0  0  0  0  0  0
    5.6333   -0.9708    0.0000 H   0  0  0  0  0  0  0  0  0  0  0  0
    3.8511   -2.2445    0.0000 H   0  0  0  0  0  0  0  0  0  0  0  0
    4.6481   -2.2446    0.0000 H   0  0  0  0  0  0  0  0  0  0  0  0
    5.7164   -0.2808    0.0000 H   0  0  0  0  0  0  0  0  0  0  0  0
    5.0964    0.3392    0.0000 H   0  0  0  0  0  0  0  0  0  0  0  0
    4.4764   -0.2808    0.0000 H   0  0  0  0  0  0  0  0  0  0  0  0
    4.7975   -2.0384    0.0000 H   0  0  0  0  0  0  0  0  0  0  0  0
    4.7976   -2.9152    0.0000 H   0  0  0  0  0  0  0  0  0  0  0  0
    5.6744   -2.9151    0.0000 H   0  0  0  0  0  0  0  0  0  0  0  0
    6.8007   -2.8960    0.0000 H   0  0  0  0  0  0  0  0  0  0  0  0
    2.0000   -1.4708    0.0000 H   0  0  0  0  0  0  0  0  0  0  0  0
    1.9170   -2.7808    0.0000 H   0  0  0  0  0  0  0  0  0  0  0  0
    2.5370   -3.4008    0.0000 H   0  0  0  0  0  0  0  0  0  0  0  0
    3.1570   -2.7808    0.0000 H   0  0  0  0  0  0  0  0  0  0  0  0
  1  8  1  0  0  0  0
  1 18  1  0  0  0  0
  2 14  1  0  0  0  0
  2 20  1  0  0  0  0
 16  3  1  6  0  0  0
  3 45  1  0  0  0  0
  4 18  2  0  0  0  0
  5 20  2  0  0  0  0
  6  7  1  0  0  0  0
  6 10  1  0  0  0  0
  6 12  1  0  0  0  0
  7  8  1  0  0  0  0
  7 11  1  0  0  0  0
  7 25  1  1  0  0  0
  8  9  1  0  0  0  0
  8 26  1  1  0  0  0
  9 10  1  0  0  0  0
  9 27  1  0  0  0  0
  9 28  1  0  0  0  0
 10 29  1  0  0  0  0
 10 30  1  0  0  0  0
 11 13  2  0  0  0  0
 11 14  1  0  0  0  0
 12 13  1  0  0  0  0
 12 31  1  0  0  0  0
 12 32  1  0  0  0  0
 13 33  1  0  0  0  0
 14 34  1  0  0  0  0
 14 35  1  0  0  0  0
 15 16  1  0  0  0  0
 15 17  1  0  0  0  0
 15 21  1  1  0  0  0
 15 36  1  0  0  0  0
 16 20  1  0  0  0  0
 16 22  1  0  0  0  0
 17 19  1  0  0  0  0
 17 37  1  0  0  0  0
 17 38  1  0  0  0  0
 18 19  1  0  0  0  0
 19 23  2  0  0  0  0
 21 39  1  0  0  0  0
 21 40  1  0  0  0  0
 21 41  1  0  0  0  0
 22 42  1  0  0  0  0
 22 43  1  0  0  0  0
 22 44  1  0  0  0  0
 23 24  1  0  0  0  0
 23 46  1  0  0  0  0
 24 47  1  0  0  0  0
 24 48  1  0  0  0  0
 24 49  1  0  0  0  0
M  END
> <PUBCHEM_COMPOUND_CID>
5281733

> <PUBCHEM_COMPOUND_CANONICALIZED>
1

> <PUBCHEM_CACTVS_COMPLEXITY>
611

> <PUBCHEM_CACTVS_HBOND_ACCEPTOR>
6

> <PUBCHEM_CACTVS_HBOND_DONOR>
1

> <PUBCHEM_CACTVS_ROTATABLE_BOND>
0

> <PUBCHEM_CACTVS_SUBSKEYS>
AAADceB6OAAAAAAAAAAAAAAAAAAAAWIAAAAAAAAAAAAQAAAAAAAAHgAACAAADXzhgAYCCAMABgCIAiDSCAKAAAAgAAAACAFIAEgDBBIAoQAHUAAGwACbIYPYbBxOgAAAAAAAAAAAAAAAAAAAAAAAAAAAAA==

> <PUBCHEM_IUPAC_INCHI>
InChI=1S/C18H25NO5/c1-4-12-9-11(2)18(3,22)17(21)23-10-13-5-7-19-8-6-14(15(13)19)24-16(12)20/h4-5,11,14-15,22H,6-10H2,1-3H3/b12-4+/t11-,14-,15-,18-/m1/s1

> <PUBCHEM_IUPAC_INCHIKEY>
HKODIGSRFALUTA-IKZAEVNJSA-N

> <PUBCHEM_XLOGP3_AA>
1.1

> <PUBCHEM_EXACT_MASS>
335.173273

> <PUBCHEM_MOLECULAR_FORMULA>
C18H25NO5

> <PUBCHEM_MOLECULAR_WEIGHT>
335.3948

> <PUBCHEM_OPENEYE_CAN_SMILES>
CC=C1CC(C(C(=O)OCC2=CCN3C2C(CC3)OC1=O)(C)O)C

> <PUBCHEM_OPENEYE_ISO_SMILES>
C/C=C/1\C[C@H]([C@@](C(=O)OCC2=CCN3[C@H]2[C@@H](CC3)OC1=O)(C)O)C

> <PUBCHEM_CACTVS_TPSA>
76.1

> <PUBCHEM_MONOISOTOPIC_WEIGHT>
335.173273

> <PUBCHEM_TOTAL_CHARGE>
0

> <PUBCHEM_HEAVY_ATOM_COUNT>
24

> <PUBCHEM_ATOM_DEF_STEREO_COUNT>
4

> <PUBCHEM_ATOM_UDEF_STEREO_COUNT>
0

> <PUBCHEM_BOND_DEF_STEREO_COUNT>
1

> <PUBCHEM_BOND_UDEF_STEREO_COUNT>
0

> <PUBCHEM_ISOTOPIC_ATOM_COUNT>
0

> <PUBCHEM_COMPONENT_COUNT>
1

> <PUBCHEM_CACTVS_TAUTO_COUNT>
1

> <PUBCHEM_COORDINATE_TYPE>
1
5
255

> <PUBCHEM_BONDANNOTATIONS>
15  21  5
16  3  6
7  25  5
8  26  5

$$$$

