6222
  -OEChem-07051213053D

 64 66  0     1  0  0  0  0  0999 V2000
   -2.0342    0.4833    1.8777 O   0  0  0  0  0  0  0  0  0  0  0  0
    4.1832    0.7266    1.4433 O   0  0  0  0  0  0  0  0  0  0  0  0
   -7.6786    0.9539   -0.8776 O   0  0  0  0  0  0  0  0  0  0  0  0
    7.2027    0.7696   -0.6701 N   0  0  0  0  0  0  0  0  0  0  0  0
   -1.3759    0.1079    0.6371 C   0  0  1  0  0  0  0  0  0  0  0  0
   -2.0285    1.0606   -0.4456 C   0  0  0  0  0  0  0  0  0  0  0  0
    0.0909    0.2710    0.8504 C   0  0  0  0  0  0  0  0  0  0  0  0
   -1.7572   -1.3593    0.2975 C   0  0  0  0  0  0  0  0  0  0  0  0
   -3.5407    1.0318   -0.5617 C   0  0  0  0  0  0  0  0  0  0  0  0
    0.7332   -0.4443    1.8611 C   0  0  0  0  0  0  0  0  0  0  0  0
    0.8208    1.1392    0.0385 C   0  0  0  0  0  0  0  0  0  0  0  0
   -2.6351   -2.0608    1.1237 C   0  0  0  0  0  0  0  0  0  0  0  0
   -1.2218   -1.9751   -0.8338 C   0  0  0  0  0  0  0  0  0  0  0  0
    6.3650    0.4822    0.4937 C   0  0  0  0  0  0  0  0  0  0  0  0
    2.8351    0.5769    1.2480 C   0  0  0  0  0  0  0  0  0  0  0  0
    2.1052   -0.2915    2.0599 C   0  0  0  0  0  0  0  0  0  0  0  0
    2.1928    1.2922    0.2374 C   0  0  0  0  0  0  0  0  0  0  0  0
   -4.3154    1.8994    0.2083 C   0  0  0  0  0  0  0  0  0  0  0  0
   -4.1567    0.1382   -1.4379 C   0  0  0  0  0  0  0  0  0  0  0  0
    4.9653    1.0431    0.2992 C   0  0  0  0  0  0  0  0  0  0  0  0
    8.6186    0.6874   -0.3136 C   0  0  0  0  0  0  0  0  0  0  0  0
    6.8959   -0.1545   -1.7613 C   0  0  0  0  0  0  0  0  0  0  0  0
   -2.9778   -3.3781    0.8186 C   0  0  0  0  0  0  0  0  0  0  0  0
   -1.5645   -3.2923   -1.1390 C   0  0  0  0  0  0  0  0  0  0  0  0
   -5.7059    1.8734    0.1020 C   0  0  0  0  0  0  0  0  0  0  0  0
   -5.5471    0.1121   -1.5441 C   0  0  0  0  0  0  0  0  0  0  0  0
   -2.4425   -3.9938   -0.3129 C   0  0  0  0  0  0  0  0  0  0  0  0
   -6.3217    0.9798   -0.7741 C   0  0  0  0  0  0  0  0  0  0  0  0
    8.9907   -0.7150    0.1371 C   0  0  0  0  0  0  0  0  0  0  0  0
    7.7139    0.1682   -3.0003 C   0  0  0  0  0  0  0  0  0  0  0  0
   -8.4096    1.8679   -0.0616 C   0  0  0  0  0  0  0  0  0  0  0  0
   -1.7599    2.1018   -0.2140 H   0  0  0  0  0  0  0  0  0  0  0  0
   -1.6079    0.8597   -1.4407 H   0  0  0  0  0  0  0  0  0  0  0  0
    0.1818   -1.1224    2.5072 H   0  0  0  0  0  0  0  0  0  0  0  0
    0.3727    1.7167   -0.7624 H   0  0  0  0  0  0  0  0  0  0  0  0
   -1.6973    1.3564    2.1437 H   0  0  0  0  0  0  0  0  0  0  0  0
   -3.0749   -1.6171    2.0114 H   0  0  0  0  0  0  0  0  0  0  0  0
   -0.5385   -1.4436   -1.4903 H   0  0  0  0  0  0  0  0  0  0  0  0
    6.7749    0.9525    1.3980 H   0  0  0  0  0  0  0  0  0  0  0  0
    6.2967   -0.5904    0.7185 H   0  0  0  0  0  0  0  0  0  0  0  0
    2.6004   -0.8506    2.8490 H   0  0  0  0  0  0  0  0  0  0  0  0
    2.7184    1.9984   -0.3985 H   0  0  0  0  0  0  0  0  0  0  0  0
   -3.8477    2.6004    0.8947 H   0  0  0  0  0  0  0  0  0  0  0  0
   -3.5689   -0.5350   -2.0551 H   0  0  0  0  0  0  0  0  0  0  0  0
    4.5186    0.6048   -0.5994 H   0  0  0  0  0  0  0  0  0  0  0  0
    5.0069    2.1333    0.1860 H   0  0  0  0  0  0  0  0  0  0  0  0
    8.8289    1.3933    0.5006 H   0  0  0  0  0  0  0  0  0  0  0  0
    9.2692    1.0165   -1.1307 H   0  0  0  0  0  0  0  0  0  0  0  0
    5.8499   -0.0307   -2.0621 H   0  0  0  0  0  0  0  0  0  0  0  0
    7.0004   -1.2123   -1.4954 H   0  0  0  0  0  0  0  0  0  0  0  0
   -3.6621   -3.9244    1.4610 H   0  0  0  0  0  0  0  0  0  0  0  0
   -1.1485   -3.7714   -2.0204 H   0  0  0  0  0  0  0  0  0  0  0  0
   -6.2466    2.5741    0.7291 H   0  0  0  0  0  0  0  0  0  0  0  0
   -6.0211   -0.5844   -2.2302 H   0  0  0  0  0  0  0  0  0  0  0  0
   -2.7098   -5.0192   -0.5507 H   0  0  0  0  0  0  0  0  0  0  0  0
    8.4103   -1.0704    0.9929 H   0  0  0  0  0  0  0  0  0  0  0  0
    8.9377   -1.4573   -0.6640 H   0  0  0  0  0  0  0  0  0  0  0  0
   10.0369   -0.7067    0.4668 H   0  0  0  0  0  0  0  0  0  0  0  0
    7.6778    1.2358   -3.2432 H   0  0  0  0  0  0  0  0  0  0  0  0
    8.7600   -0.1382   -2.9055 H   0  0  0  0  0  0  0  0  0  0  0  0
    7.3054   -0.3742   -3.8606 H   0  0  0  0  0  0  0  0  0  0  0  0
   -8.2611    1.6634    1.0041 H   0  0  0  0  0  0  0  0  0  0  0  0
   -8.1834    2.9079   -0.3203 H   0  0  0  0  0  0  0  0  0  0  0  0
   -9.4725    1.7102   -0.2721 H   0  0  0  0  0  0  0  0  0  0  0  0
  1  5  1  0  0  0  0
  1 36  1  0  0  0  0
  2 15  1  0  0  0  0
  2 20  1  0  0  0  0
  3 28  1  0  0  0  0
  3 31  1  0  0  0  0
  4 14  1  0  0  0  0
  4 21  1  0  0  0  0
  4 22  1  0  0  0  0
  5  6  1  0  0  0  0
  5  7  1  0  0  0  0
  5  8  1  0  0  0  0
  6  9  1  0  0  0  0
  6 32  1  0  0  0  0
  6 33  1  0  0  0  0
  7 10  2  0  0  0  0
  7 11  1  0  0  0  0
  8 12  2  0  0  0  0
  8 13  1  0  0  0  0
  9 18  2  0  0  0  0
  9 19  1  0  0  0  0
 10 16  1  0  0  0  0
 10 34  1  0  0  0  0
 11 17  2  0  0  0  0
 11 35  1  0  0  0  0
 12 23  1  0  0  0  0
 12 37  1  0  0  0  0
 13 24  2  0  0  0  0
 13 38  1  0  0  0  0
 14 20  1  0  0  0  0
 14 39  1  0  0  0  0
 14 40  1  0  0  0  0
 15 16  2  0  0  0  0
 15 17  1  0  0  0  0
 16 41  1  0  0  0  0
 17 42  1  0  0  0  0
 18 25  1  0  0  0  0
 18 43  1  0  0  0  0
 19 26  2  0  0  0  0
 19 44  1  0  0  0  0
 20 45  1  0  0  0  0
 20 46  1  0  0  0  0
 21 29  1  0  0  0  0
 21 47  1  0  0  0  0
 21 48  1  0  0  0  0
 22 30  1  0  0  0  0
 22 49  1  0  0  0  0
 22 50  1  0  0  0  0
 23 27  2  0  0  0  0
 23 51  1  0  0  0  0
 24 27  1  0  0  0  0
 24 52  1  0  0  0  0
 25 28  2  0  0  0  0
 25 53  1  0  0  0  0
 26 28  1  0  0  0  0
 26 54  1  0  0  0  0
 27 55  1  0  0  0  0
 29 56  1  0  0  0  0
 29 57  1  0  0  0  0
 29 58  1  0  0  0  0
 30 59  1  0  0  0  0
 30 60  1  0  0  0  0
 30 61  1  0  0  0  0
 31 62  1  0  0  0  0
 31 63  1  0  0  0  0
 31 64  1  0  0  0  0
M  END
> <PUBCHEM_COMPOUND_CID>
6222

> <PUBCHEM_CONFORMER_RMSD>
1.2

> <PUBCHEM_CONFORMER_DIVERSEORDER>
1
41
7
34
51
47
27
11
18
46
6
31
8
35
12
43
39
37
33
5
36
28
53
29
14
10
9
38
30
20
52
15
22
13
23
32
21
2
42
3
25
45
44
17
49
40
50
19
24
26
4
16
48

> <PUBCHEM_MMFF94_PARTIAL_CHARGES>
43
1 -0.68
10 -0.15
11 -0.15
12 -0.15
13 -0.15
14 0.27
15 0.08
16 -0.15
17 -0.15
18 -0.15
19 -0.15
2 -0.36
20 0.28
21 0.27
22 0.27
23 -0.15
24 -0.15
25 -0.15
26 -0.15
27 -0.15
28 0.08
3 -0.36
31 0.28
34 0.15
35 0.15
36 0.4
37 0.15
38 0.15
4 -0.81
41 0.15
42 0.15
43 0.15
44 0.15
5 0.57
51 0.15
52 0.15
53 0.15
54 0.15
55 0.15
6 0.14
7 -0.14
8 -0.14
9 -0.14

> <PUBCHEM_EFFECTIVE_ROTOR_COUNT>
11

> <PUBCHEM_PHARMACOPHORE_FEATURES>
8
1 1 acceptor
1 1 donor
1 2 acceptor
1 3 acceptor
1 4 cation
6 7 10 11 15 16 17 rings
6 8 12 13 23 24 27 rings
6 9 18 19 25 26 28 rings

> <PUBCHEM_HEAVY_ATOM_COUNT>
31

> <PUBCHEM_ATOM_DEF_STEREO_COUNT>
0

> <PUBCHEM_ATOM_UDEF_STEREO_COUNT>
1

> <PUBCHEM_BOND_DEF_STEREO_COUNT>
0

> <PUBCHEM_BOND_UDEF_STEREO_COUNT>
0

> <PUBCHEM_ISOTOPIC_ATOM_COUNT>
0

> <PUBCHEM_COMPONENT_COUNT>
1

> <PUBCHEM_CACTVS_TAUTO_COUNT>
1

> <PUBCHEM_CONFORMER_ID>
0000184E00000001

> <PUBCHEM_MMFF94_ENERGY>
105.9774

> <PUBCHEM_FEATURE_SELFOVERLAP>
40.594

> <PUBCHEM_SHAPE_FINGERPRINT>
10 15 14476961203180289336
10119406 146 18407760330807383327
10165383 225 18409733985087731969
10369192 42 15051735296045778674
106641 1 13614236001631597001
10674148 151 17458350753526814825
10677351 14 18115587033914336620
11135609 187 18188770677301851543
11796584 16 18259984856497166874
12643181 29 18408044005492664322
12664476 115 12751234806101291830
12741549 16 6122496922685280771
13073987 5 8790621299168298296
13150687 139 17967257511894142485
13540713 4 17825964627747331056
13914758 101 15719386261148767328
15131766 46 15769484332143175252
15183329 4 18408045130584140032
15230672 131 18411141364145472658
15629462 23 16370717141581602315
15840311 113 15123500416296910444
15849732 13 17704072910478816325
16090146 7 18335688451612828913
16992610 120 18271800246338887316
17686467 74 10879693382482215580
18393751 57 13758353371260507600
18603816 31 17531544121870197278
19841028 212 15936405693824318476
20505436 4 17917720110115213563
20721686 146 17059230309615110901
21033650 10 17822569507987999825
21781055 127 18114747164994681033
22224240 67 13614239295491906713
23198884 109 18334580139497161017
23559900 14 18041852692685515264
23576562 1 18200592471568324597
249057 3 18410576167380498544
25269216 80 17915726605830534054
3610482 184 17775562023204504158
4017518 198 18187365436986033230
4258327 124 17632289064776623645
4874694 18 17967820445073953654
563151 40 18202566159211691826
6669772 16 18272092751050862995

> <PUBCHEM_SHAPE_MULTIPOLES>
615.38
24.02
2.93
1.86
37.32
4.09
0.46
-12.05
11.6
-5.52
0.18
2.39
0.19
0.46

> <PUBCHEM_SHAPE_SELFOVERLAP>
1299.464

> <PUBCHEM_SHAPE_VOLUME>
346.2

> <PUBCHEM_COORDINATE_TYPE>
2
5
10

$$$$

