163834
  -OEChem-07051213042D

 26 26  0     0  0  0  0  0  0999 V2000
    7.3343    3.1944    0.0000 Cl  0  0  0  0  0  0  0  0  0  0  0  0
    3.2395    6.1145    0.0000 S   0  0  0  0  0  0  0  0  0  0  0  0
    0.5369    3.6200    0.0000 O   0  0  0  0  0  0  0  0  0  0  0  0
    2.2690    4.6200    0.0000 N   0  0  0  0  0  0  0  0  0  0  0  0
    4.0486    4.7133    0.0000 N   0  0  0  0  0  0  0  0  0  0  0  0
    2.2690    3.6200    0.0000 C   0  0  0  0  0  0  0  0  0  0  0  0
    2.2690    1.6200    0.0000 C   0  0  0  0  0  0  0  0  0  0  0  0
    1.4030    3.1200    0.0000 C   0  0  0  0  0  0  0  0  0  0  0  0
    3.1350    3.1200    0.0000 C   0  0  0  0  0  0  0  0  0  0  0  0
    1.4030    2.1200    0.0000 C   0  0  0  0  0  0  0  0  0  0  0  0
    3.1350    2.1200    0.0000 C   0  0  0  0  0  0  0  0  0  0  0  0
    2.2690    0.6200    0.0000 C   0  0  0  0  0  0  0  0  0  0  0  0
    3.1350    5.1200    0.0000 C   0  0  0  0  0  0  0  0  0  0  0  0
    4.2177    6.3224    0.0000 C   0  0  0  0  0  0  0  0  0  0  0  0
    4.7177    5.4564    0.0000 C   0  0  0  0  0  0  0  0  0  0  0  0
    3.6720    3.4300    0.0000 H   0  0  0  0  0  0  0  0  0  0  0  0
    0.8660    1.8100    0.0000 H   0  0  0  0  0  0  0  0  0  0  0  0
    3.6720    1.8100    0.0000 H   0  0  0  0  0  0  0  0  0  0  0  0
    1.7320    4.9300    0.0000 H   0  0  0  0  0  0  0  0  0  0  0  0
    1.6490    0.6200    0.0000 H   0  0  0  0  0  0  0  0  0  0  0  0
    2.2690    0.0000    0.0000 H   0  0  0  0  0  0  0  0  0  0  0  0
    2.8890    0.6200    0.0000 H   0  0  0  0  0  0  0  0  0  0  0  0
    0.0000    3.3100    0.0000 H   0  0  0  0  0  0  0  0  0  0  0  0
    4.4699    6.8888    0.0000 H   0  0  0  0  0  0  0  0  0  0  0  0
    5.3343    5.3916    0.0000 H   0  0  0  0  0  0  0  0  0  0  0  0
    8.3343    3.1944    0.0000 H   0  0  0  0  0  0  0  0  0  0  0  0
  1 26  1  0  0  0  0
  2 13  1  0  0  0  0
  2 14  1  0  0  0  0
  3  8  1  0  0  0  0
  3 23  1  0  0  0  0
  4  6  1  0  0  0  0
  4 13  1  0  0  0  0
  4 19  1  0  0  0  0
  5 13  2  0  0  0  0
  5 15  1  0  0  0  0
  6  8  2  0  0  0  0
  6  9  1  0  0  0  0
  7 10  2  0  0  0  0
  7 11  1  0  0  0  0
  7 12  1  0  0  0  0
  8 10  1  0  0  0  0
  9 11  2  0  0  0  0
  9 16  1  0  0  0  0
 10 17  1  0  0  0  0
 11 18  1  0  0  0  0
 12 20  1  0  0  0  0
 12 21  1  0  0  0  0
 12 22  1  0  0  0  0
 14 15  2  0  0  0  0
 14 24  1  0  0  0  0
 15 25  1  0  0  0  0
M  END
> <PUBCHEM_COMPOUND_CID>
163834

> <PUBCHEM_COMPOUND_CANONICALIZED>
1

> <PUBCHEM_CACTVS_COMPLEXITY>
191

> <PUBCHEM_CACTVS_HBOND_ACCEPTOR>
4

> <PUBCHEM_CACTVS_HBOND_DONOR>
3

> <PUBCHEM_CACTVS_ROTATABLE_BOND>
2

> <PUBCHEM_CACTVS_SUBSKEYS>
AAADccBzIABEAAAAAAAAAAAAAAAAAWAAAAAwAAAAAAAAAAABwAAAHgQQCAAADAzF2gS/15LIEgikAjRnZACC8KlxKjlJyAwfbIiKJiLSmZOEcAhs0BNY2CeQwBAOCAABAAAAEAAQAAIAAAAgAAAAAAAAAA==

> <PUBCHEM_IUPAC_OPENEYE_NAME>
5-methyl-2-(thiazol-2-ylamino)phenol hydrochloride

> <PUBCHEM_IUPAC_CAS_NAME>
5-methyl-2-(2-thiazolylamino)phenol hydrochloride

> <PUBCHEM_IUPAC_NAME>
5-methyl-2-(1,3-thiazol-2-ylamino)phenol hydrochloride

> <PUBCHEM_IUPAC_SYSTEMATIC_NAME>
5-methyl-2-(1,3-thiazol-2-ylamino)phenol hydrochloride

> <PUBCHEM_IUPAC_TRADITIONAL_NAME>
5-methyl-2-(thiazol-2-ylamino)phenol hydrochloride

> <PUBCHEM_IUPAC_INCHI>
InChI=1S/C10H10N2OS.ClH/c1-7-2-3-8(9(13)6-7)12-10-11-4-5-14-10;/h2-6,13H,1H3,(H,11,12);1H

> <PUBCHEM_IUPAC_INCHIKEY>
OAQDENGCTUPZEL-UHFFFAOYSA-N

> <PUBCHEM_EXACT_MASS>
242.028062

> <PUBCHEM_MOLECULAR_FORMULA>
C10H11ClN2OS

> <PUBCHEM_MOLECULAR_WEIGHT>
242.72514

> <PUBCHEM_OPENEYE_CAN_SMILES>
CC1=CC(=C(C=C1)NC2=NC=CS2)O.Cl

> <PUBCHEM_OPENEYE_ISO_SMILES>
CC1=CC(=C(C=C1)NC2=NC=CS2)O.Cl

> <PUBCHEM_CACTVS_TPSA>
73.4

> <PUBCHEM_MONOISOTOPIC_WEIGHT>
242.028062

> <PUBCHEM_TOTAL_CHARGE>
0

> <PUBCHEM_HEAVY_ATOM_COUNT>
15

> <PUBCHEM_ATOM_DEF_STEREO_COUNT>
0

> <PUBCHEM_ATOM_UDEF_STEREO_COUNT>
0

> <PUBCHEM_BOND_DEF_STEREO_COUNT>
0

> <PUBCHEM_BOND_UDEF_STEREO_COUNT>
0

> <PUBCHEM_ISOTOPIC_ATOM_COUNT>
0

> <PUBCHEM_COMPONENT_COUNT>
2

> <PUBCHEM_CACTVS_TAUTO_COUNT>
26

> <PUBCHEM_COORDINATE_TYPE>
1
5
255

> <PUBCHEM_BONDANNOTATIONS>
14  15  8
2  13  8
2  14  8
5  13  8
5  15  8
6  8  8
6  9  8
7  10  8
7  11  8
8  10  8
9  11  8

$$$$

