10509
  -OEChem-07051213132D

 13 12  0     0  0  0  0  0  0999 V2000
    5.4641    0.0000    0.0000 O   0  5  0  0  0  0  0  0  0  0  0  0
    2.0000    0.0000    0.0000 O   0  5  0  0  0  0  0  0  0  0  0  0
    3.7320    1.7320    0.0000 O   0  5  0  0  0  0  0  0  0  0  0  0
    3.7320   -1.7320    0.0000 O   0  5  0  0  0  0  0  0  0  0  0  0
    4.5981    1.5000    0.0000 O   0  0  0  0  0  0  0  0  0  0  0  0
    2.8660   -1.5000    0.0000 O   0  0  0  0  0  0  0  0  0  0  0  0
    2.2320    0.8660    0.0000 O   0  0  0  0  0  0  0  0  0  0  0  0
    5.2320   -0.8660    0.0000 O   0  0  0  0  0  0  0  0  0  0  0  0
    4.5981    0.5000    0.0000 N   0  3  0  0  0  0  0  0  0  0  0  0
    2.8660   -0.5000    0.0000 N   0  3  0  0  0  0  0  0  0  0  0  0
    3.2320    0.8660    0.0000 N   0  3  0  0  0  0  0  0  0  0  0  0
    4.2320   -0.8660    0.0000 N   0  3  0  0  0  0  0  0  0  0  0  0
    3.7320    0.0000    0.0000 C   0  0  0  0  0  0  0  0  0  0  0  0
  1  9  1  0  0  0  0
  2 10  1  0  0  0  0
  3 11  1  0  0  0  0
  4 12  1  0  0  0  0
  5  9  2  0  0  0  0
  6 10  2  0  0  0  0
  7 11  2  0  0  0  0
  8 12  2  0  0  0  0
  9 13  1  0  0  0  0
 10 13  1  0  0  0  0
 11 13  1  0  0  0  0
 12 13  1  0  0  0  0
M  CHG  8   1  -1   2  -1   3  -1   4  -1   9   1  10   1  11   1  12   1
M  END
> <PUBCHEM_COMPOUND_CID>
10509

> <PUBCHEM_COMPOUND_CANONICALIZED>
1

> <PUBCHEM_CACTVS_COMPLEXITY>
209

> <PUBCHEM_CACTVS_HBOND_ACCEPTOR>
8

> <PUBCHEM_CACTVS_HBOND_DONOR>
0

> <PUBCHEM_CACTVS_ROTATABLE_BOND>
0

> <PUBCHEM_CACTVS_SUBSKEYS>
AAADcQADvAAAAAAAAAAAAAAAAAAAAAAAAAAAAAAAAAAAAAAAAAAABAAEAAAAAAAAAAABAAAQQAABAAAAAwAAAAAAAAAAAAAAAAAAAAAAAAAAAAAAAAAAAAAAAAAAAAAAAAAAAAAAAAAAAAAAAAAAAAAAAA==

> <PUBCHEM_IUPAC_OPENEYE_NAME>
tetranitromethane

> <PUBCHEM_IUPAC_CAS_NAME>
tetranitromethane

> <PUBCHEM_IUPAC_NAME>
tetranitromethane

> <PUBCHEM_IUPAC_SYSTEMATIC_NAME>
tetranitromethane

> <PUBCHEM_IUPAC_TRADITIONAL_NAME>
tetranitromethane

> <PUBCHEM_IUPAC_INCHI>
InChI=1S/CN4O8/c6-2(7)1(3(8)9,4(10)11)5(12)13

> <PUBCHEM_IUPAC_INCHIKEY>
NYTOUQBROMCLBJ-UHFFFAOYSA-N

> <PUBCHEM_XLOGP3_AA>
0.1

> <PUBCHEM_EXACT_MASS>
195.971613

> <PUBCHEM_MOLECULAR_FORMULA>
CN4O8

> <PUBCHEM_MOLECULAR_WEIGHT>
196.0327

> <PUBCHEM_OPENEYE_CAN_SMILES>
C([N+](=O)[O-])([N+](=O)[O-])([N+](=O)[O-])[N+](=O)[O-]

> <PUBCHEM_OPENEYE_ISO_SMILES>
C([N+](=O)[O-])([N+](=O)[O-])([N+](=O)[O-])[N+](=O)[O-]

> <PUBCHEM_CACTVS_TPSA>
183

> <PUBCHEM_MONOISOTOPIC_WEIGHT>
195.971613

> <PUBCHEM_TOTAL_CHARGE>
0

> <PUBCHEM_HEAVY_ATOM_COUNT>
13

> <PUBCHEM_ATOM_DEF_STEREO_COUNT>
0

> <PUBCHEM_ATOM_UDEF_STEREO_COUNT>
0

> <PUBCHEM_BOND_DEF_STEREO_COUNT>
0

> <PUBCHEM_BOND_UDEF_STEREO_COUNT>
0

> <PUBCHEM_ISOTOPIC_ATOM_COUNT>
0

> <PUBCHEM_COMPONENT_COUNT>
1

> <PUBCHEM_CACTVS_TAUTO_COUNT>
1

> <PUBCHEM_COORDINATE_TYPE>
1
5
255

$$$$

