5281526
  -OEChem-07051212582D

 51 52  0     1  0  0  0  0  0999 V2000
    8.1282   -0.5242    0.0000 O   0  0  0  0  0  0  0  0  0  0  0  0
    2.8660    1.5000    0.0000 O   0  0  0  0  0  0  0  0  0  0  0  0
    9.0000    0.9725    0.0000 O   0  0  0  0  0  0  0  0  0  0  0  0
    5.4641    0.0000    0.0000 C   0  0  1  0  0  0  0  0  0  0  0  0
    6.3580   -0.5347    0.0000 C   0  0  2  0  0  0  0  0  0  0  0  0
    4.5981   -0.5000    0.0000 C   0  0  0  0  0  0  0  0  0  0  0  0
    5.4641    1.0000    0.0000 C   0  0  0  0  0  0  0  0  0  0  0  0
    7.2641   -0.0208    0.0000 C   0  0  1  0  0  0  0  0  0  0  0  0
    6.3580    1.5346    0.0000 C   0  0  0  0  0  0  0  0  0  0  0  0
    7.2641    1.0208    0.0000 C   0  0  0  0  0  0  0  0  0  0  0  0
    3.7320    0.0000    0.0000 C   0  0  2  0  0  0  0  0  0  0  0  0
    5.4641   -1.0000    0.0000 C   0  0  0  0  0  0  0  0  0  0  0  0
    6.3465   -1.5346    0.0000 C   0  0  0  0  0  0  0  0  0  0  0  0
    4.5981    1.5000    0.0000 C   0  0  0  0  0  0  0  0  0  0  0  0
    3.7320    1.0000    0.0000 C   0  0  0  0  0  0  0  0  0  0  0  0
    2.8660   -0.5000    0.0000 C   0  0  0  0  0  0  0  0  0  0  0  0
    2.8660   -1.5000    0.0000 C   0  0  0  0  0  0  0  0  0  0  0  0
    8.9962   -0.0275    0.0000 C   0  0  0  0  0  0  0  0  0  0  0  0
    2.0000    0.0000    0.0000 C   0  0  0  0  0  0  0  0  0  0  0  0
    9.8602   -0.5309    0.0000 C   0  0  0  0  0  0  0  0  0  0  0  0
    9.8564   -1.5308    0.0000 C   0  0  0  0  0  0  0  0  0  0  0  0
   10.7282   -0.0342    0.0000 C   0  0  0  0  0  0  0  0  0  0  0  0
   10.7320    0.9658    0.0000 C   0  0  0  0  0  0  0  0  0  0  0  0
    6.8920   -0.8499    0.0000 H   0  0  0  0  0  0  0  0  0  0  0  0
    4.1996   -0.9750    0.0000 H   0  0  0  0  0  0  0  0  0  0  0  0
    4.9966   -0.9750    0.0000 H   0  0  0  0  0  0  0  0  0  0  0  0
    7.2605   -0.6408    0.0000 H   0  0  0  0  0  0  0  0  0  0  0  0
    6.7517    2.0136    0.0000 H   0  0  0  0  0  0  0  0  0  0  0  0
    5.9534    2.0044    0.0000 H   0  0  0  0  0  0  0  0  0  0  0  0
    7.8750    0.9147    0.0000 H   0  0  0  0  0  0  0  0  0  0  0  0
    7.4732    1.6045    0.0000 H   0  0  0  0  0  0  0  0  0  0  0  0
    3.7320   -0.6200    0.0000 H   0  0  0  0  0  0  0  0  0  0  0  0
    4.8441   -1.0000    0.0000 H   0  0  0  0  0  0  0  0  0  0  0  0
    5.4641   -1.6200    0.0000 H   0  0  0  0  0  0  0  0  0  0  0  0
    6.0841   -1.0000    0.0000 H   0  0  0  0  0  0  0  0  0  0  0  0
    5.7265   -1.5275    0.0000 H   0  0  0  0  0  0  0  0  0  0  0  0
    6.3393   -2.1546    0.0000 H   0  0  0  0  0  0  0  0  0  0  0  0
    6.9664   -1.5418    0.0000 H   0  0  0  0  0  0  0  0  0  0  0  0
    4.5981    2.1200    0.0000 H   0  0  0  0  0  0  0  0  0  0  0  0
    2.2460   -1.5000    0.0000 H   0  0  0  0  0  0  0  0  0  0  0  0
    2.8660   -2.1200    0.0000 H   0  0  0  0  0  0  0  0  0  0  0  0
    3.4860   -1.5000    0.0000 H   0  0  0  0  0  0  0  0  0  0  0  0
    2.0000    0.6200    0.0000 H   0  0  0  0  0  0  0  0  0  0  0  0
    1.4631   -0.3100    0.0000 H   0  0  0  0  0  0  0  0  0  0  0  0
    9.2364   -1.5285    0.0000 H   0  0  0  0  0  0  0  0  0  0  0  0
    9.8540   -2.1508    0.0000 H   0  0  0  0  0  0  0  0  0  0  0  0
   10.4764   -1.5332    0.0000 H   0  0  0  0  0  0  0  0  0  0  0  0
   11.2639   -0.3463    0.0000 H   0  0  0  0  0  0  0  0  0  0  0  0
   11.3520    0.9634    0.0000 H   0  0  0  0  0  0  0  0  0  0  0  0
   10.7344    1.5858    0.0000 H   0  0  0  0  0  0  0  0  0  0  0  0
   10.1120    0.9682    0.0000 H   0  0  0  0  0  0  0  0  0  0  0  0
  8  1  1  1  0  0  0
  1 18  1  0  0  0  0
  2 15  2  0  0  0  0
  3 18  2  0  0  0  0
  4  5  1  0  0  0  0
  4  6  1  0  0  0  0
  4  7  1  0  0  0  0
  4 12  1  6  0  0  0
  5  8  1  0  0  0  0
  5 13  1  6  0  0  0
  5 24  1  0  0  0  0
  6 11  1  0  0  0  0
  6 25  1  0  0  0  0
  6 26  1  0  0  0  0
  7  9  1  0  0  0  0
  7 14  2  0  0  0  0
  8 10  1  0  0  0  0
  8 27  1  0  0  0  0
  9 10  1  0  0  0  0
  9 28  1  0  0  0  0
  9 29  1  0  0  0  0
 10 30  1  0  0  0  0
 10 31  1  0  0  0  0
 11 15  1  0  0  0  0
 11 16  1  1  0  0  0
 11 32  1  0  0  0  0
 12 33  1  0  0  0  0
 12 34  1  0  0  0  0
 12 35  1  0  0  0  0
 13 36  1  0  0  0  0
 13 37  1  0  0  0  0
 13 38  1  0  0  0  0
 14 15  1  0  0  0  0
 14 39  1  0  0  0  0
 16 17  1  0  0  0  0
 16 19  2  0  0  0  0
 17 40  1  0  0  0  0
 17 41  1  0  0  0  0
 17 42  1  0  0  0  0
 18 20  1  0  0  0  0
 19 43  1  0  0  0  0
 19 44  1  0  0  0  0
 20 21  1  0  0  0  0
 20 22  2  0  0  0  0
 21 45  1  0  0  0  0
 21 46  1  0  0  0  0
 21 47  1  0  0  0  0
 22 23  1  0  0  0  0
 22 48  1  0  0  0  0
 23 49  1  0  0  0  0
 23 50  1  0  0  0  0
 23 51  1  0  0  0  0
M  END
> <PUBCHEM_COMPOUND_CID>
5281526

> <PUBCHEM_COMPOUND_CANONICALIZED>
1

> <PUBCHEM_CACTVS_COMPLEXITY>
596

> <PUBCHEM_CACTVS_HBOND_ACCEPTOR>
3

> <PUBCHEM_CACTVS_HBOND_DONOR>
0

> <PUBCHEM_CACTVS_ROTATABLE_BOND>
4

> <PUBCHEM_CACTVS_SUBSKEYS>
AAADceB4MAAAAAAAAAAAAAAAAAAAAAAAAAAwQAAAAAAAAACAAAAAGgAAAAAADxSggAICCAAABACIAqDSCAAAAAAgAAAACAEAAEgABBIAIQACEAAEgAAIIYOIyPCPgAAAAAAAAAAAAAIAADAAAAAAAAAAAA==

> <PUBCHEM_IUPAC_OPENEYE_NAME>
[(1R,2R,7S,8aR)-7-isopropenyl-1,8a-dimethyl-6-oxo-1,2,3,4,7,8-hexahydronaphthalen-2-yl] (Z)-2-methylbut-2-enoate

> <PUBCHEM_IUPAC_CAS_NAME>
(Z)-2-methyl-2-butenoic acid [(1R,2R,7S,8aR)-1,8a-dimethyl-7-(1-methylethenyl)-6-oxo-1,2,3,4,7,8-hexahydronaphthalen-2-yl] ester

> <PUBCHEM_IUPAC_NAME>
[(1R,2R,7S,8aR)-1,8a-dimethyl-6-oxo-7-prop-1-en-2-yl-1,2,3,4,7,8-hexahydronaphthalen-2-yl] (Z)-2-methylbut-2-enoate

> <PUBCHEM_IUPAC_SYSTEMATIC_NAME>
[(1R,2R,7S,8aR)-1,8a-dimethyl-6-oxidanylidene-7-prop-1-en-2-yl-1,2,3,4,7,8-hexahydronaphthalen-2-yl] (Z)-2-methylbut-2-enoate

> <PUBCHEM_IUPAC_TRADITIONAL_NAME>
(Z)-2-methylbut-2-enoic acid [(1R,2R,7S,8aR)-7-isopropenyl-6-keto-1,8a-dimethyl-1,2,3,4,7,8-hexahydronaphthalen-2-yl] ester

> <PUBCHEM_IUPAC_INCHI>
InChI=1S/C20H28O3/c1-7-13(4)19(22)23-18-9-8-15-10-17(21)16(12(2)3)11-20(15,6)14(18)5/h7,10,14,16,18H,2,8-9,11H2,1,3-6H3/b13-7-/t14-,16-,18+,20+/m0/s1

> <PUBCHEM_IUPAC_INCHIKEY>
ISTBXSFGFOYLTM-NZEDGPFZSA-N

> <PUBCHEM_XLOGP3_AA>
4.6

> <PUBCHEM_EXACT_MASS>
316.203845

> <PUBCHEM_MOLECULAR_FORMULA>
C20H28O3

> <PUBCHEM_MOLECULAR_WEIGHT>
316.43452

> <PUBCHEM_OPENEYE_CAN_SMILES>
CC=C(C)C(=O)OC1CCC2=CC(=O)C(CC2(C1C)C)C(=C)C

> <PUBCHEM_OPENEYE_ISO_SMILES>
C/C=C(/C)\C(=O)O[C@@H]1CCC2=CC(=O)[C@@H](C[C@@]2([C@H]1C)C)C(=C)C

> <PUBCHEM_CACTVS_TPSA>
43.4

> <PUBCHEM_MONOISOTOPIC_WEIGHT>
316.203845

> <PUBCHEM_TOTAL_CHARGE>
0

> <PUBCHEM_HEAVY_ATOM_COUNT>
23

> <PUBCHEM_ATOM_DEF_STEREO_COUNT>
4

> <PUBCHEM_ATOM_UDEF_STEREO_COUNT>
0

> <PUBCHEM_BOND_DEF_STEREO_COUNT>
1

> <PUBCHEM_BOND_UDEF_STEREO_COUNT>
0

> <PUBCHEM_ISOTOPIC_ATOM_COUNT>
0

> <PUBCHEM_COMPONENT_COUNT>
1

> <PUBCHEM_CACTVS_TAUTO_COUNT>
8

> <PUBCHEM_COORDINATE_TYPE>
1
5
255

> <PUBCHEM_BONDANNOTATIONS>
8  1  5
11  16  5
4  12  6
5  13  6

$$$$

