75421
  -OEChem-07051212463D

 17 18  0     0  0  0  0  0  0999 V2000
   -1.5572   -2.1537   -0.0004 O   0  0  0  0  0  0  0  0  0  0  0  0
    1.9865    0.8600   -0.0002 N   0  0  0  0  0  0  0  0  0  0  0  0
    0.2387   -0.5267    0.0001 C   0  0  0  0  0  0  0  0  0  0  0  0
    0.6103    0.8195    0.0000 C   0  0  0  0  0  0  0  0  0  0  0  0
   -1.1322   -0.8519    0.0000 C   0  0  0  0  0  0  0  0  0  0  0  0
    1.4390   -1.2911    0.0003 C   0  0  0  0  0  0  0  0  0  0  0  0
   -0.3245    1.8609   -0.0002 C   0  0  0  0  0  0  0  0  0  0  0  0
    2.4963   -0.4106    0.0000 C   0  0  0  0  0  0  0  0  0  0  0  0
   -2.0785    0.1793    0.0003 C   0  0  0  0  0  0  0  0  0  0  0  0
   -1.6785    1.5142    0.0001 C   0  0  0  0  0  0  0  0  0  0  0  0
    1.5265   -2.3689    0.0005 H   0  0  0  0  0  0  0  0  0  0  0  0
    2.5395    1.7059   -0.0005 H   0  0  0  0  0  0  0  0  0  0  0  0
   -0.0141    2.9004   -0.0004 H   0  0  0  0  0  0  0  0  0  0  0  0
    3.5645   -0.5751   -0.0001 H   0  0  0  0  0  0  0  0  0  0  0  0
   -3.1394   -0.0588    0.0003 H   0  0  0  0  0  0  0  0  0  0  0  0
   -2.4304    2.2993    0.0002 H   0  0  0  0  0  0  0  0  0  0  0  0
   -0.7799   -2.7372   -0.0005 H   0  0  0  0  0  0  0  0  0  0  0  0
  1  5  1  0  0  0  0
  1 17  1  0  0  0  0
  2  4  1  0  0  0  0
  2  8  1  0  0  0  0
  2 12  1  0  0  0  0
  3  4  2  0  0  0  0
  3  5  1  0  0  0  0
  3  6  1  0  0  0  0
  4  7  1  0  0  0  0
  5  9  2  0  0  0  0
  6  8  2  0  0  0  0
  6 11  1  0  0  0  0
  7 10  2  0  0  0  0
  7 13  1  0  0  0  0
  8 14  1  0  0  0  0
  9 10  1  0  0  0  0
  9 15  1  0  0  0  0
 10 16  1  0  0  0  0
M  END
> <PUBCHEM_COMPOUND_CID>
75421

> <PUBCHEM_CONFORMER_RMSD>
0.4

> <PUBCHEM_CONFORMER_DIVERSEORDER>
1

> <PUBCHEM_MMFF94_PARTIAL_CHARGES>
16
1 -0.53
10 -0.15
11 0.15
12 0.27
13 0.15
14 0.15
15 0.15
16 0.15
17 0.45
2 0.03
4 -0.15
5 0.08
6 -0.15
7 -0.15
8 -0.3
9 -0.15

> <PUBCHEM_EFFECTIVE_ROTOR_COUNT>
0

> <PUBCHEM_PHARMACOPHORE_FEATURES>
5
1 1 donor
1 2 cation
1 2 donor
5 2 3 4 6 8 rings
6 3 4 5 7 9 10 rings

> <PUBCHEM_HEAVY_ATOM_COUNT>
10

> <PUBCHEM_ATOM_DEF_STEREO_COUNT>
0

> <PUBCHEM_ATOM_UDEF_STEREO_COUNT>
0

> <PUBCHEM_BOND_DEF_STEREO_COUNT>
0

> <PUBCHEM_BOND_UDEF_STEREO_COUNT>
0

> <PUBCHEM_ISOTOPIC_ATOM_COUNT>
0

> <PUBCHEM_COMPONENT_COUNT>
1

> <PUBCHEM_CACTVS_TAUTO_COUNT>
9

> <PUBCHEM_CONFORMER_ID>
0001269D00000001

> <PUBCHEM_MMFF94_ENERGY>
16.2458

> <PUBCHEM_FEATURE_SELFOVERLAP>
25.463

> <PUBCHEM_SHAPE_FINGERPRINT>
12423570 1 16613090490651926433
16945 1 18410856594115708900
18185500 45 18339642226632838151
193761 8 15312097033630739940
20871998 184 18259983764573335967
21040471 1 18266740375274069252
23552423 10 18272649022081465286
241688 4 18267305330966623193
2748010 2 18193841435676150452
29004967 10 18339640019109338466
5084963 1 17898298461107053729

> <PUBCHEM_SHAPE_MULTIPOLES>
194.94
2.94
1.97
0.6
0.8
0.37
0
-0.03
0
-0.69
0
0
-0.01
0

> <PUBCHEM_SHAPE_SELFOVERLAP>
431.768

> <PUBCHEM_SHAPE_VOLUME>
106

> <PUBCHEM_COORDINATE_TYPE>
2
5
10

$$$$

