14855
  -OEChem-07051212483D

 16 16  0     0  0  0  0  0  0999 V2000
    3.2165   -0.4417    0.0004 Cl  0  0  0  0  0  0  0  0  0  0  0  0
   -2.5083    0.8697    0.0013 O   0  0  0  0  0  0  0  0  0  0  0  0
   -0.7698   -0.7808   -0.0006 C   0  0  0  0  0  0  0  0  0  0  0  0
   -1.1836    0.5513   -0.0009 C   0  0  0  0  0  0  0  0  0  0  0  0
    0.5908   -1.0886    0.0000 C   0  0  0  0  0  0  0  0  0  0  0  0
   -1.7696   -1.8897    0.0000 C   0  0  0  0  0  0  0  0  0  0  0  0
   -0.2370    1.5757   -0.0005 C   0  0  0  0  0  0  0  0  0  0  0  0
    1.5375   -0.0640    0.0003 C   0  0  0  0  0  0  0  0  0  0  0  0
    1.1235    1.2681    0.0000 C   0  0  0  0  0  0  0  0  0  0  0  0
    0.9161   -2.1265    0.0003 H   0  0  0  0  0  0  0  0  0  0  0  0
   -1.2844   -2.8721   -0.0013 H   0  0  0  0  0  0  0  0  0  0  0  0
   -2.3974   -1.8427    0.8960 H   0  0  0  0  0  0  0  0  0  0  0  0
   -2.3999   -1.8416   -0.8942 H   0  0  0  0  0  0  0  0  0  0  0  0
   -0.5528    2.6155   -0.0002 H   0  0  0  0  0  0  0  0  0  0  0  0
    1.8498    2.0767    0.0002 H   0  0  0  0  0  0  0  0  0  0  0  0
   -3.0590    0.0715    0.0015 H   0  0  0  0  0  0  0  0  0  0  0  0
  1  8  1  0  0  0  0
  2  4  1  0  0  0  0
  2 16  1  0  0  0  0
  3  4  2  0  0  0  0
  3  5  1  0  0  0  0
  3  6  1  0  0  0  0
  4  7  1  0  0  0  0
  5  8  2  0  0  0  0
  5 10  1  0  0  0  0
  6 11  1  0  0  0  0
  6 12  1  0  0  0  0
  6 13  1  0  0  0  0
  7  9  2  0  0  0  0
  7 14  1  0  0  0  0
  8  9  1  0  0  0  0
  9 15  1  0  0  0  0
M  END
> <PUBCHEM_COMPOUND_CID>
14855

> <PUBCHEM_CONFORMER_RMSD>
0.4

> <PUBCHEM_CONFORMER_DIVERSEORDER>
1

> <PUBCHEM_MMFF94_PARTIAL_CHARGES>
13
1 -0.18
10 0.15
14 0.15
15 0.15
16 0.45
2 -0.53
3 -0.14
4 0.08
5 -0.15
6 0.14
7 -0.15
8 0.18
9 -0.15

> <PUBCHEM_EFFECTIVE_ROTOR_COUNT>
0

> <PUBCHEM_PHARMACOPHORE_FEATURES>
2
1 2 donor
6 3 4 5 7 8 9 rings

> <PUBCHEM_HEAVY_ATOM_COUNT>
9

> <PUBCHEM_ATOM_DEF_STEREO_COUNT>
0

> <PUBCHEM_ATOM_UDEF_STEREO_COUNT>
0

> <PUBCHEM_BOND_DEF_STEREO_COUNT>
0

> <PUBCHEM_BOND_UDEF_STEREO_COUNT>
0

> <PUBCHEM_ISOTOPIC_ATOM_COUNT>
0

> <PUBCHEM_COMPONENT_COUNT>
1

> <PUBCHEM_CACTVS_TAUTO_COUNT>
3

> <PUBCHEM_CONFORMER_ID>
00003A0700000001

> <PUBCHEM_MMFF94_ENERGY>
20.3299

> <PUBCHEM_FEATURE_SELFOVERLAP>
10.148

> <PUBCHEM_SHAPE_FINGERPRINT>
12423570 1 10426654833447485787
14128692 85 18339918200083438412
15310529 11 16630245921635451168
16714656 1 18339078301932869700
16945 1 18338797922062114660
18185500 45 18413673512846529274
193761 8 18122624959470144069
20871998 184 18259702276817263942
21040471 1 18338797939131201061
23235685 24 18336833111852430312
23402655 69 17977966892725752013
23552423 10 18200875054840989846
2748010 2 18338239232674033604
5084963 1 18116147779478585122

> <PUBCHEM_SHAPE_MULTIPOLES>
181.22
3.43
1.8
0.61
1.65
0.06
0
0.68
0
-0.72
0
0.04
0.01
0

> <PUBCHEM_SHAPE_SELFOVERLAP>
367.309

> <PUBCHEM_SHAPE_VOLUME>
107.6

> <PUBCHEM_COORDINATE_TYPE>
2
5
10

$$$$

