5280728
  -OEChem-07051212493D

 61 62  0     1  0  0  0  0  0999 V2000
   -0.1831    3.3734    0.6421 P   0  0  0  0  0  0  0  0  0  0  0  0
    0.7977    0.2257    0.1040 O   0  0  0  0  0  0  0  0  0  0  0  0
    2.7509   -0.4080    1.2828 O   0  0  0  0  0  0  0  0  0  0  0  0
   -1.0973    2.3888   -0.2501 O   0  0  0  0  0  0  0  0  0  0  0  0
   -2.0909   -0.0221    2.3122 O   0  0  0  0  0  0  0  0  0  0  0  0
   -1.0079    0.2154   -2.2275 O   0  0  0  0  0  0  0  0  0  0  0  0
    4.3811   -2.0274   -0.5524 O   0  0  0  0  0  0  0  0  0  0  0  0
    2.4815   -0.9810   -2.2416 O   0  0  0  0  0  0  0  0  0  0  0  0
    5.2224    1.4199   -1.3209 O   0  0  0  0  0  0  0  0  0  0  0  0
    0.5344    4.2944   -0.4768 O   0  0  0  0  0  0  0  0  0  0  0  0
   -1.2493    4.3798    1.3244 O   0  0  0  0  0  0  0  0  0  0  0  0
    0.7530    2.6884    1.5945 O   0  0  0  0  0  0  0  0  0  0  0  0
   -1.9267   -2.2198    0.3677 N   0  0  0  0  0  0  0  0  0  0  0  0
   -3.9319    0.0684   -0.0229 N   0  0  0  0  0  0  0  0  0  0  0  0
   -2.1485   -4.3129    1.3178 N   0  0  0  0  0  0  0  0  0  0  0  0
   -0.1014   -3.7780    0.4703 N   0  0  0  0  0  0  0  0  0  0  0  0
   -5.0782    0.2777   -2.1234 N   0  0  0  0  0  0  0  0  0  0  0  0
   -6.1152   -0.6281   -0.3071 N   0  0  0  0  0  0  0  0  0  0  0  0
   -0.3076   -0.4129    0.7425 C   0  0  2  0  0  0  0  0  0  0  0  0
   -1.0501   -1.2530   -0.3063 C   0  0  2  0  0  0  0  0  0  0  0  0
   -1.1929    0.6390    1.4245 C   0  0  1  0  0  0  0  0  0  0  0  0
   -1.9834    1.4978    0.4269 C   0  0  2  0  0  0  0  0  0  0  0  0
   -1.8829   -0.4170   -1.2894 C   0  0  1  0  0  0  0  0  0  0  0  0
   -2.7367    0.6734   -0.6265 C   0  0  1  0  0  0  0  0  0  0  0  0
    4.2145   -0.6091   -0.5635 C   0  0  1  0  0  0  0  0  0  0  0  0
    1.9459   -0.6099    0.1077 C   0  0  2  0  0  0  0  0  0  0  0  0
    2.8304   -0.2545   -1.0793 C   0  0  2  0  0  0  0  0  0  0  0  0
    4.0999   -0.0941    0.8719 C   0  0  2  0  0  0  0  0  0  0  0  0
    5.3526    0.0089   -1.3601 C   0  0  0  0  0  0  0  0  0  0  0  0
    5.0712   -0.6992    1.8711 C   0  0  0  0  0  0  0  0  0  0  0  0
   -1.3940   -3.3537    0.6841 C   0  0  0  0  0  0  0  0  0  0  0  0
   -4.9576   -0.0702   -0.7964 C   0  0  0  0  0  0  0  0  0  0  0  0
    0.0662   -1.0699    1.5412 H   0  0  0  0  0  0  0  0  0  0  0  0
   -0.3249   -1.7649   -0.9494 H   0  0  0  0  0  0  0  0  0  0  0  0
   -0.6004    1.2251    2.1108 H   0  0  0  0  0  0  0  0  0  0  0  0
   -2.7134    2.1071    0.9750 H   0  0  0  0  0  0  0  0  0  0  0  0
   -2.5179   -1.0861   -1.8819 H   0  0  0  0  0  0  0  0  0  0  0  0
   -3.0136    1.4076   -1.3945 H   0  0  0  0  0  0  0  0  0  0  0  0
    1.6779   -1.6650    0.0673 H   0  0  0  0  0  0  0  0  0  0  0  0
    2.7368    0.8130   -1.3118 H   0  0  0  0  0  0  0  0  0  0  0  0
    4.1807    0.9990    0.9128 H   0  0  0  0  0  0  0  0  0  0  0  0
    5.3293   -0.3271   -2.4026 H   0  0  0  0  0  0  0  0  0  0  0  0
    6.3251   -0.2737   -0.9430 H   0  0  0  0  0  0  0  0  0  0  0  0
    4.9080   -0.2632    2.8629 H   0  0  0  0  0  0  0  0  0  0  0  0
    4.9168   -1.7772    1.9848 H   0  0  0  0  0  0  0  0  0  0  0  0
    6.1096   -0.5166    1.5804 H   0  0  0  0  0  0  0  0  0  0  0  0
   -2.6783   -0.5890    1.7846 H   0  0  0  0  0  0  0  0  0  0  0  0
   -0.4081    0.8000   -1.7337 H   0  0  0  0  0  0  0  0  0  0  0  0
    3.7268   -2.4223    0.0470 H   0  0  0  0  0  0  0  0  0  0  0  0
    2.5978   -1.9274   -2.0515 H   0  0  0  0  0  0  0  0  0  0  0  0
    5.9595    1.7895   -1.8360 H   0  0  0  0  0  0  0  0  0  0  0  0
   -3.1232   -4.1470    1.5439 H   0  0  0  0  0  0  0  0  0  0  0  0
   -1.7562   -5.2115    1.5764 H   0  0  0  0  0  0  0  0  0  0  0  0
    0.1945   -4.6948    0.7889 H   0  0  0  0  0  0  0  0  0  0  0  0
    0.5849   -3.2531   -0.0504 H   0  0  0  0  0  0  0  0  0  0  0  0
    1.2278    4.9286   -0.1957 H   0  0  0  0  0  0  0  0  0  0  0  0
   -0.9278    5.0458    1.9687 H   0  0  0  0  0  0  0  0  0  0  0  0
   -4.3172    0.6601   -2.6714 H   0  0  0  0  0  0  0  0  0  0  0  0
   -5.9495    0.1216   -2.6192 H   0  0  0  0  0  0  0  0  0  0  0  0
   -6.9344   -0.7494   -0.8924 H   0  0  0  0  0  0  0  0  0  0  0  0
   -6.1809   -0.9363    0.6569 H   0  0  0  0  0  0  0  0  0  0  0  0
  1  4  1  0  0  0  0
  1 10  1  0  0  0  0
  1 11  1  0  0  0  0
  1 12  2  0  0  0  0
  2 19  1  0  0  0  0
  2 26  1  0  0  0  0
  3 26  1  0  0  0  0
  3 28  1  0  0  0  0
  4 22  1  0  0  0  0
  5 21  1  0  0  0  0
  5 47  1  0  0  0  0
  6 23  1  0  0  0  0
  6 48  1  0  0  0  0
  7 25  1  0  0  0  0
  7 49  1  0  0  0  0
  8 27  1  0  0  0  0
  8 50  1  0  0  0  0
  9 29  1  0  0  0  0
  9 51  1  0  0  0  0
 10 56  1  0  0  0  0
 11 57  1  0  0  0  0
 13 20  1  0  0  0  0
 13 31  2  0  0  0  0
 14 24  1  0  0  0  0
 14 32  2  0  0  0  0
 15 31  1  0  0  0  0
 15 52  1  0  0  0  0
 15 53  1  0  0  0  0
 16 31  1  0  0  0  0
 16 54  1  0  0  0  0
 16 55  1  0  0  0  0
 17 32  1  0  0  0  0
 17 58  1  0  0  0  0
 17 59  1  0  0  0  0
 18 32  1  0  0  0  0
 18 60  1  0  0  0  0
 18 61  1  0  0  0  0
 19 20  1  0  0  0  0
 19 21  1  0  0  0  0
 19 33  1  0  0  0  0
 20 23  1  0  0  0  0
 20 34  1  0  0  0  0
 21 22  1  0  0  0  0
 21 35  1  0  0  0  0
 22 24  1  0  0  0  0
 22 36  1  0  0  0  0
 23 24  1  0  0  0  0
 23 37  1  0  0  0  0
 24 38  1  0  0  0  0
 25 27  1  0  0  0  0
 25 28  1  0  0  0  0
 25 29  1  0  0  0  0
 26 27  1  0  0  0  0
 26 39  1  0  0  0  0
 27 40  1  0  0  0  0
 28 30  1  0  0  0  0
 28 41  1  0  0  0  0
 29 42  1  0  0  0  0
 29 43  1  0  0  0  0
 30 44  1  0  0  0  0
 30 45  1  0  0  0  0
 30 46  1  0  0  0  0
M  END
> <PUBCHEM_COMPOUND_CID>
5280728

> <PUBCHEM_CONFORMER_RMSD>
1

> <PUBCHEM_CONFORMER_DIVERSEORDER>
2
37
91
63
26
9
67
58
47
84
95
55
80
68
102
53
25
98
70
105
73
16
86
49
28
30
19
81
31
69
79
106
32
71
59
97
90
18
14
56
82
101
27
52
13
75
65
92
74
29
61
34
88
35
38
39
89
20
41
51
7
5
104
36
94
99
108
57
11
72
45
46
10
50
60
83
40
77
44
62
87
109
21
85
110
107
66
17
1
42
100
24
22
6
23
96
48
103
78
43
54
33
3
93
64
8
76
15
4
12

> <PUBCHEM_MMFF94_PARTIAL_CHARGES>
46
1 1.51
10 -0.77
11 -0.77
12 -0.7
13 -0.7
14 -0.7
15 -0.85
16 -0.85
17 -0.85
18 -0.85
19 0.28
2 -0.56
20 0.25
21 0.28
22 0.28
23 0.28
24 0.25
25 0.28
26 0.56
27 0.28
28 0.28
29 0.28
3 -0.56
31 0.55
32 0.55
4 -0.55
47 0.4
48 0.4
49 0.4
5 -0.68
50 0.4
51 0.4
52 0.4
53 0.4
54 0.4
55 0.4
56 0.5
57 0.5
58 0.4
59 0.4
6 -0.68
60 0.4
61 0.4
7 -0.68
8 -0.68
9 -0.68

> <PUBCHEM_EFFECTIVE_ROTOR_COUNT>
9.2

> <PUBCHEM_PHARMACOPHORE_FEATURES>
24
1 10 acceptor
1 11 acceptor
1 12 acceptor
1 15 donor
1 16 donor
1 17 donor
1 18 donor
1 2 acceptor
1 3 acceptor
1 5 acceptor
1 5 donor
1 6 acceptor
1 6 donor
1 7 acceptor
1 7 donor
1 8 acceptor
1 8 donor
1 9 acceptor
1 9 donor
4 1 10 11 12 anion
4 13 15 16 31 cation
4 14 17 18 32 cation
5 3 25 26 27 28 rings
6 19 20 21 22 23 24 rings

> <PUBCHEM_HEAVY_ATOM_COUNT>
32

> <PUBCHEM_ATOM_DEF_STEREO_COUNT>
10

> <PUBCHEM_ATOM_UDEF_STEREO_COUNT>
0

> <PUBCHEM_BOND_DEF_STEREO_COUNT>
0

> <PUBCHEM_BOND_UDEF_STEREO_COUNT>
0

> <PUBCHEM_ISOTOPIC_ATOM_COUNT>
0

> <PUBCHEM_COMPONENT_COUNT>
1

> <PUBCHEM_CACTVS_TAUTO_COUNT>
4

> <PUBCHEM_CONFORMER_ID>
005093D800000002

> <PUBCHEM_MMFF94_ENERGY>
82.9222

> <PUBCHEM_FEATURE_SELFOVERLAP>
121.99

> <PUBCHEM_SHAPE_FINGERPRINT>
10006869 2 17613433759675406801
10366900 7 17967806163727686182
10906281 52 18187360987235863960
10930396 42 18050607060079227256
1100329 8 18339083679712011363
11578080 2 17914047595381370021
12035758 1 18337674118574255323
12058002 1 17606085504222693523
12166972 35 17847064410856667484
12553582 1 18336254678958489248
12788726 201 18335985362749519200
13149001 5 18268438940666718475
13224815 77 17385723608639943602
13911987 19 18342734122165627013
14790565 3 18338789130533799921
15775530 1 17836660621397012475
1813 80 18040154015760671213
19319366 153 17704083892789606498
20511986 3 17489319546832489216
20600515 1 18267604445637957568
20642791 239 18200301109782587364
20775438 99 17830201033465229111
21285901 2 17894908576611910356
23557571 272 18186794825227205956
23558518 356 17905322184403680851
23559900 14 18264209114844544720
283562 15 18265337385752812945
3027735 51 18193280921090524825
3178227 256 18340760482531862787
3493558 16 16981837983262784261
469060 322 18338509867327869777
5171179 24 17903919959555453691
81228 2 18115575075839122496

> <PUBCHEM_SHAPE_MULTIPOLES>
567.95
10.01
4.24
1.87
3.8
1.33
-0.19
-2.16
-3.47
-2.02
2.03
0.42
0.05
0.11

> <PUBCHEM_SHAPE_SELFOVERLAP>
1161.425

> <PUBCHEM_SHAPE_VOLUME>
330.4

> <PUBCHEM_COORDINATE_TYPE>
2
5
10

$$$$

