441741
  -OEChem-07051212552D

 97103  0     1  0  0  0  0  0999 V2000
    6.0774   -1.6218    0.0000 O   0  0  0  0  0  0  0  0  0  0  0  0
    7.5950   -2.7907    0.0000 O   0  0  0  0  0  0  0  0  0  0  0  0
    9.4176    0.9712    0.0000 O   0  0  0  0  0  0  0  0  0  0  0  0
    5.7012    0.7197    0.0000 O   0  0  0  0  0  0  0  0  0  0  0  0
    7.2924    2.2831    0.0000 O   0  0  0  0  0  0  0  0  0  0  0  0
    5.2883   -1.1805    0.0000 O   0  0  0  0  0  0  0  0  0  0  0  0
    5.3000    1.4291    0.0000 O   0  0  0  0  0  0  0  0  0  0  0  0
   11.1685   -1.2990    0.0000 O   0  0  0  0  0  0  0  0  0  0  0  0
   10.2836   -3.2640    0.0000 O   0  0  0  0  0  0  0  0  0  0  0  0
    6.2735   -3.3427    0.0000 O   0  0  0  0  0  0  0  0  0  0  0  0
    4.4734   -0.5020    0.0000 O   0  0  0  0  0  0  0  0  0  0  0  0
    1.9133    3.2987    0.0000 O   0  0  0  0  0  0  0  0  0  0  0  0
   10.6129   -0.8579    0.0000 N   0  0  3  0  0  0  0  0  0  0  0  0
    8.6663   -0.4626    0.0000 C   0  0  1  0  0  0  0  0  0  0  0  0
    8.6663   -1.3302    0.0000 C   0  0  2  0  0  0  0  0  0  0  0  0
    7.9880    0.0783    0.0000 C   0  0  1  0  0  0  0  0  0  0  0  0
    9.6682   -0.5687    0.0000 C   0  0  3  0  0  0  0  0  0  0  0  0
    7.1422   -1.6781    0.0000 C   0  0  1  0  0  0  0  0  0  0  0  0
    7.1422   -0.1148    0.0000 C   0  0  1  0  0  0  0  0  0  0  0  0
    6.7657   -0.8964    0.0000 C   0  0  1  0  0  0  0  0  0  0  0  0
    7.9880   -1.8711    0.0000 C   0  0  2  0  0  0  0  0  0  0  0  0
    9.4176   -1.7640    0.0000 C   0  0  2  0  0  0  0  0  0  0  0  0
    9.4176   -0.0288    0.0000 C   0  0  2  0  0  0  0  0  0  0  0  0
    8.0658    0.9424    0.0000 C   0  0  0  0  0  0  0  0  0  0  0  0
    7.2680    1.2834    0.0000 C   0  0  2  0  0  0  0  0  0  0  0  0
    6.6972    0.6300    0.0000 C   0  0  2  0  0  0  0  0  0  0  0  0
    6.1208   -0.6265    0.0000 C   0  0  2  0  0  0  0  0  0  0  0  0
   10.6129   -1.6098    0.0000 C   0  0  0  0  0  0  0  0  0  0  0  0
   10.1690   -1.3302    0.0000 C   0  0  1  0  0  0  0  0  0  0  0  0
    6.1208    0.8580    0.0000 C   0  0  2  0  0  0  0  0  0  0  0  0
   10.1690   -0.4626    0.0000 C   0  0  0  0  0  0  0  0  0  0  0  0
    9.4176   -2.7640    0.0000 C   0  0  0  0  0  0  0  0  0  0  0  0
   11.4169   -0.2632    0.0000 C   0  0  0  0  0  0  0  0  0  0  0  0
    5.6786   -2.5389    0.0000 C   0  0  0  0  0  0  0  0  0  0  0  0
    8.1948   -3.5908    0.0000 C   0  0  0  0  0  0  0  0  0  0  0  0
   12.3339   -0.6621    0.0000 C   0  0  0  0  0  0  0  0  0  0  0  0
   10.2836    1.4712    0.0000 C   0  0  0  0  0  0  0  0  0  0  0  0
    4.7346    0.4632    0.0000 C   0  0  0  0  0  0  0  0  0  0  0  0
    5.3841    2.4256    0.0000 C   0  0  0  0  0  0  0  0  0  0  0  0
    4.6851   -2.6521    0.0000 C   0  0  0  0  0  0  0  0  0  0  0  0
   10.2836   -4.2640    0.0000 C   0  0  0  0  0  0  0  0  0  0  0  0
    4.0293    1.1721    0.0000 C   0  0  0  0  0  0  0  0  0  0  0  0
    3.0627    0.9157    0.0000 C   0  0  0  0  0  0  0  0  0  0  0  0
    4.2905    2.1374    0.0000 C   0  0  0  0  0  0  0  0  0  0  0  0
    2.3574    1.6246    0.0000 C   0  0  0  0  0  0  0  0  0  0  0  0
    3.5852    2.8462    0.0000 C   0  0  0  0  0  0  0  0  0  0  0  0
    2.6186    2.5898    0.0000 C   0  0  0  0  0  0  0  0  0  0  0  0
    2.1745    4.2640    0.0000 C   0  0  0  0  0  0  0  0  0  0  0  0
    8.7298   -2.1778    0.0000 H   0  0  0  0  0  0  0  0  0  0  0  0
    8.7696    0.4124    0.0000 H   0  0  0  0  0  0  0  0  0  0  0  0
    9.7922    0.0388    0.0000 H   0  0  0  0  0  0  0  0  0  0  0  0
    6.6122   -2.3426    0.0000 H   0  0  0  0  0  0  0  0  0  0  0  0
    6.2930   -0.1529    0.0000 H   0  0  0  0  0  0  0  0  0  0  0  0
    8.1884   -2.4578    0.0000 H   0  0  0  0  0  0  0  0  0  0  0  0
    8.8807    0.2812    0.0000 H   0  0  0  0  0  0  0  0  0  0  0  0
    8.2485    1.5348    0.0000 H   0  0  0  0  0  0  0  0  0  0  0  0
    8.6741    0.8226    0.0000 H   0  0  0  0  0  0  0  0  0  0  0  0
    6.4664    1.2054    0.0000 H   0  0  0  0  0  0  0  0  0  0  0  0
    5.5743   -0.3337    0.0000 H   0  0  0  0  0  0  0  0  0  0  0  0
   11.2324   -1.5832    0.0000 H   0  0  0  0  0  0  0  0  0  0  0  0
   10.6659   -2.2275    0.0000 H   0  0  0  0  0  0  0  0  0  0  0  0
   10.3388   -1.9265    0.0000 H   0  0  0  0  0  0  0  0  0  0  0  0
    6.1990    1.4731    0.0000 H   0  0  0  0  0  0  0  0  0  0  0  0
   10.3810    0.1200    0.0000 H   0  0  0  0  0  0  0  0  0  0  0  0
   10.7795   -0.5703    0.0000 H   0  0  0  0  0  0  0  0  0  0  0  0
    9.2056   -3.3466    0.0000 H   0  0  0  0  0  0  0  0  0  0  0  0
    8.8070   -2.6563    0.0000 H   0  0  0  0  0  0  0  0  0  0  0  0
   10.9673    0.1637    0.0000 H   0  0  0  0  0  0  0  0  0  0  0  0
   11.7592    0.2538    0.0000 H   0  0  0  0  0  0  0  0  0  0  0  0
    6.7632    2.6061    0.0000 H   0  0  0  0  0  0  0  0  0  0  0  0
    5.3277   -1.7993    0.0000 H   0  0  0  0  0  0  0  0  0  0  0  0
   11.4951   -1.8260    0.0000 H   0  0  0  0  0  0  0  0  0  0  0  0
    8.6909   -3.2189    0.0000 H   0  0  0  0  0  0  0  0  0  0  0  0
    8.5667   -4.0869    0.0000 H   0  0  0  0  0  0  0  0  0  0  0  0
    7.6987   -3.9627    0.0000 H   0  0  0  0  0  0  0  0  0  0  0  0
   12.5812   -0.0936    0.0000 H   0  0  0  0  0  0  0  0  0  0  0  0
   12.9024   -0.9094    0.0000 H   0  0  0  0  0  0  0  0  0  0  0  0
   12.0866   -1.2306    0.0000 H   0  0  0  0  0  0  0  0  0  0  0  0
    9.9736    2.0081    0.0000 H   0  0  0  0  0  0  0  0  0  0  0  0
   10.8206    1.7812    0.0000 H   0  0  0  0  0  0  0  0  0  0  0  0
   10.5936    0.9342    0.0000 H   0  0  0  0  0  0  0  0  0  0  0  0
    4.7663    2.4778    0.0000 H   0  0  0  0  0  0  0  0  0  0  0  0
    5.4363    3.0434    0.0000 H   0  0  0  0  0  0  0  0  0  0  0  0
    6.0019    2.3734    0.0000 H   0  0  0  0  0  0  0  0  0  0  0  0
    4.7553   -3.2681    0.0000 H   0  0  0  0  0  0  0  0  0  0  0  0
    4.0691   -2.7223    0.0000 H   0  0  0  0  0  0  0  0  0  0  0  0
    4.6149   -2.0361    0.0000 H   0  0  0  0  0  0  0  0  0  0  0  0
   10.9036   -4.2640    0.0000 H   0  0  0  0  0  0  0  0  0  0  0  0
   10.2836   -4.8840    0.0000 H   0  0  0  0  0  0  0  0  0  0  0  0
    9.6636   -4.2640    0.0000 H   0  0  0  0  0  0  0  0  0  0  0  0
    2.9008    0.3172    0.0000 H   0  0  0  0  0  0  0  0  0  0  0  0
    4.8898    2.2964    0.0000 H   0  0  0  0  0  0  0  0  0  0  0  0
    1.7581    1.4656    0.0000 H   0  0  0  0  0  0  0  0  0  0  0  0
    3.7471    3.4447    0.0000 H   0  0  0  0  0  0  0  0  0  0  0  0
    1.5760    4.4260    0.0000 H   0  0  0  0  0  0  0  0  0  0  0  0
    2.3364    4.8625    0.0000 H   0  0  0  0  0  0  0  0  0  0  0  0
    2.7730    4.1020    0.0000 H   0  0  0  0  0  0  0  0  0  0  0  0
 20  1  1  6  0  0  0
  1 34  1  0  0  0  0
 21  2  1  1  0  0  0
  2 35  1  0  0  0  0
 23  3  1  1  0  0  0
  3 37  1  0  0  0  0
 26  4  1  1  0  0  0
  4 38  1  0  0  0  0
 25  5  1  6  0  0  0
  5 70  1  0  0  0  0
 27  6  1  1  0  0  0
  6 71  1  0  0  0  0
 30  7  1  6  0  0  0
  7 39  1  0  0  0  0
 29  8  1  1  0  0  0
  8 72  1  0  0  0  0
  9 32  1  0  0  0  0
  9 41  1  0  0  0  0
 10 34  2  0  0  0  0
 11 38  2  0  0  0  0
 12 47  1  0  0  0  0
 12 48  1  0  0  0  0
 13 17  1  0  0  0  0
 13 28  1  0  0  0  0
 13 33  1  0  0  0  0
 14 15  1  0  0  0  0
 14 16  1  0  0  0  0
 14 17  1  0  0  0  0
 14 23  1  6  0  0  0
 15 21  1  0  0  0  0
 15 22  1  0  0  0  0
 15 49  1  6  0  0  0
 16 19  1  0  0  0  0
 16 24  1  0  0  0  0
 16 50  1  6  0  0  0
 17 18  1  0  0  0  0
 17 51  1  0  0  0  0
 18 20  1  0  0  0  0
 18 21  1  0  0  0  0
 18 52  1  1  0  0  0
 19 20  1  0  0  0  0
 19 26  1  0  0  0  0
 19 53  1  6  0  0  0
 20 27  1  0  0  0  0
 21 54  1  0  0  0  0
 22 28  1  0  0  0  0
 22 29  1  0  0  0  0
 22 32  1  6  0  0  0
 23 31  1  0  0  0  0
 23 55  1  0  0  0  0
 24 25  1  0  0  0  0
 24 56  1  0  0  0  0
 24 57  1  0  0  0  0
 25 26  1  0  0  0  0
 25 30  1  0  0  0  0
 26 58  1  0  0  0  0
 27 30  1  0  0  0  0
 27 59  1  0  0  0  0
 28 60  1  0  0  0  0
 28 61  1  0  0  0  0
 29 31  1  0  0  0  0
 29 62  1  0  0  0  0
 30 63  1  0  0  0  0
 31 64  1  0  0  0  0
 31 65  1  0  0  0  0
 32 66  1  0  0  0  0
 32 67  1  0  0  0  0
 33 36  1  0  0  0  0
 33 68  1  0  0  0  0
 33 69  1  0  0  0  0
 34 40  1  0  0  0  0
 35 73  1  0  0  0  0
 35 74  1  0  0  0  0
 35 75  1  0  0  0  0
 36 76  1  0  0  0  0
 36 77  1  0  0  0  0
 36 78  1  0  0  0  0
 37 79  1  0  0  0  0
 37 80  1  0  0  0  0
 37 81  1  0  0  0  0
 38 42  1  0  0  0  0
 39 82  1  0  0  0  0
 39 83  1  0  0  0  0
 39 84  1  0  0  0  0
 40 85  1  0  0  0  0
 40 86  1  0  0  0  0
 40 87  1  0  0  0  0
 41 88  1  0  0  0  0
 41 89  1  0  0  0  0
 41 90  1  0  0  0  0
 42 43  2  0  0  0  0
 42 44  1  0  0  0  0
 43 45  1  0  0  0  0
 43 91  1  0  0  0  0
 44 46  2  0  0  0  0
 44 92  1  0  0  0  0
 45 47  2  0  0  0  0
 45 93  1  0  0  0  0
 46 47  1  0  0  0  0
 46 94  1  0  0  0  0
 48 95  1  0  0  0  0
 48 96  1  0  0  0  0
 48 97  1  0  0  0  0
M  END
> <PUBCHEM_COMPOUND_CID>
441741

> <PUBCHEM_COMPOUND_CANONICALIZED>
1

> <PUBCHEM_CACTVS_COMPLEXITY>
1260

> <PUBCHEM_CACTVS_HBOND_ACCEPTOR>
13

> <PUBCHEM_CACTVS_HBOND_DONOR>
3

> <PUBCHEM_CACTVS_ROTATABLE_BOND>
12

> <PUBCHEM_CACTVS_SUBSKEYS>
AAADcfB+PAAAAAAAAAAAAAAAAAAAAYMAAAA8YMGCB4gWAGABAAAAHgAACAAAD3zhmAYyDoMABgCIAiDSCAACCAAkIAAIiAEOCMgNNjKEtRqGcSAnwBGLqYf4/P/PoAAAAAAAAADSAAaUADSAAaEADSAAAA==

> <PUBCHEM_IUPAC_INCHI>
InChI=1S/C35H49NO12/c1-8-36-15-32(16-42-3)21(38)13-22(44-5)34-20-14-33(41)29(47-31(40)18-9-11-19(43-4)12-10-18)23(20)35(48-17(2)37,28(39)30(33)46-7)24(27(34)36)25(45-6)26(32)34/h9-12,20-30,38-39,41H,8,13-16H2,1-7H3/t20-,21-,22+,23-,24+,25+,26-,27?,28+,29-,30+,32+,33-,34+,35-/m1/s1

> <PUBCHEM_IUPAC_INCHIKEY>
MGTJNQWIXFSPLC-HQARQGIISA-N

> <PUBCHEM_XLOGP3_AA>
0.2

> <PUBCHEM_EXACT_MASS>
675.325476

> <PUBCHEM_MOLECULAR_FORMULA>
C35H49NO12

> <PUBCHEM_MOLECULAR_WEIGHT>
675.76306

> <PUBCHEM_OPENEYE_CAN_SMILES>
CCN1CC2(C(CC(C34C2C(C(C31)C5(C6C4CC(C6OC(=O)C7=CC=C(C=C7)OC)(C(C5O)OC)O)OC(=O)C)OC)OC)O)COC

> <PUBCHEM_OPENEYE_ISO_SMILES>
CCN1C[C@@]2([C@@H](C[C@@H]([C@@]34[C@@H]2[C@H]([C@@H](C31)[C@@]5([C@@H]6[C@H]4C[C@@]([C@@H]6OC(=O)C7=CC=C(C=C7)OC)([C@H]([C@@H]5O)OC)O)OC(=O)C)OC)OC)O)COC

> <PUBCHEM_CACTVS_TPSA>
163

> <PUBCHEM_MONOISOTOPIC_WEIGHT>
675.325476

> <PUBCHEM_TOTAL_CHARGE>
0

> <PUBCHEM_HEAVY_ATOM_COUNT>
48

> <PUBCHEM_ATOM_DEF_STEREO_COUNT>
14

> <PUBCHEM_ATOM_UDEF_STEREO_COUNT>
1

> <PUBCHEM_BOND_DEF_STEREO_COUNT>
0

> <PUBCHEM_BOND_UDEF_STEREO_COUNT>
0

> <PUBCHEM_ISOTOPIC_ATOM_COUNT>
0

> <PUBCHEM_COMPONENT_COUNT>
1

> <PUBCHEM_CACTVS_TAUTO_COUNT>
1

> <PUBCHEM_COORDINATE_TYPE>
1
5
255

> <PUBCHEM_BONDANNOTATIONS>
20  1  6
17  13  3
14  23  6
15  49  6
16  50  6
18  52  5
19  53  6
21  2  5
22  32  6
23  3  5
26  4  5
42  43  8
42  44  8
43  45  8
44  46  8
45  47  8
46  47  8
25  5  6
27  6  5
30  7  6
29  8  5

$$$$

