25200469
  -OEChem-07051212462D

 59 62  0     1  0  0  0  0  0999 V2000
    5.0474    0.8409    0.0000 P   0  0  3  0  0  0  0  0  0  0  0  0
    5.4104    2.5345    0.0000 P   0  0  3  0  0  0  0  0  0  0  0  0
    4.4026   -2.6122    0.0000 O   0  0  0  0  0  0  0  0  0  0  0  0
    4.8230    4.5387    0.0000 O   0  0  0  0  0  0  0  0  0  0  0  0
    6.7523   -1.5285    0.0000 O   0  0  0  0  0  0  0  0  0  0  0  0
    6.7485   -3.7041    0.0000 O   0  0  0  0  0  0  0  0  0  0  0  0
    5.3548   -0.1107    0.0000 O   0  0  0  0  0  0  0  0  0  0  0  0
    6.0809    3.2765    0.0000 O   0  0  0  0  0  0  0  0  0  0  0  0
    6.0870    6.7966    0.0000 O   0  0  0  0  0  0  0  0  0  0  0  0
    7.3627    5.0343    0.0000 O   0  0  0  0  0  0  0  0  0  0  0  0
    4.7400    1.7925    0.0000 O   0  0  0  0  0  0  0  0  0  0  0  0
    4.1230    7.1222    0.0000 O   0  0  0  0  0  0  0  0  0  0  0  0
    5.9990    1.1483    0.0000 O   0  0  0  0  0  0  0  0  0  0  0  0
    4.6685    3.2049    0.0000 O   0  0  0  0  0  0  0  0  0  0  0  0
    4.0958    0.5335    0.0000 O   0  0  0  0  0  0  0  0  0  0  0  0
    6.1524    1.8641    0.0000 O   0  0  0  0  0  0  0  0  0  0  0  0
    4.6783   -4.3728    0.0000 N   0  0  0  0  0  0  0  0  0  0  0  0
    4.6783   -5.9823    0.0000 N   0  0  0  0  0  0  0  0  0  0  0  0
    2.8660   -4.1775    0.0000 N   0  0  0  0  0  0  0  0  0  0  0  0
    2.0000   -5.6775    0.0000 N   0  0  0  0  0  0  0  0  0  0  0  0
    2.8660   -7.1775    0.0000 N   0  0  0  0  0  0  0  0  0  0  0  0
    5.9422   -2.1149    0.0000 C   0  0  1  0  0  0  0  0  0  0  0  0
    5.9405   -3.1149    0.0000 C   0  0  2  0  0  0  0  0  0  0  0  0
    4.9917   -1.8043    0.0000 C   0  0  1  0  0  0  0  0  0  0  0  0
    4.9889   -3.4223    0.0000 C   0  0  1  0  0  0  0  0  0  0  0  0
    5.7763    5.8461    0.0000 C   0  0  1  0  0  0  0  0  0  0  0  0
    6.3627    5.0361    0.0000 C   0  0  2  0  0  0  0  0  0  0  0  0
    4.8247    5.5387    0.0000 C   0  0  1  0  0  0  0  0  0  0  0  0
    4.6844   -0.8527    0.0000 C   0  0  0  0  0  0  0  0  0  0  0  0
    5.7735    4.2281    0.0000 C   0  0  2  0  0  0  0  0  0  0  0  0
    3.7320   -4.6775    0.0000 C   0  0  0  0  0  0  0  0  0  0  0  0
    4.0167    6.1279    0.0000 C   0  0  0  0  0  0  0  0  0  0  0  0
    5.2619   -5.1775    0.0000 C   0  0  0  0  0  0  0  0  0  0  0  0
    3.7320   -5.6775    0.0000 C   0  0  0  0  0  0  0  0  0  0  0  0
    2.8660   -6.1775    0.0000 C   0  0  0  0  0  0  0  0  0  0  0  0
    2.0000   -4.6775    0.0000 C   0  0  0  0  0  0  0  0  0  0  0  0
    5.8463   -1.5024    0.0000 H   0  0  0  0  0  0  0  0  0  0  0  0
    5.8425   -3.7271    0.0000 H   0  0  0  0  0  0  0  0  0  0  0  0
    4.3795   -1.7062    0.0000 H   0  0  0  0  0  0  0  0  0  0  0  0
    5.4266   -3.8614    0.0000 H   0  0  0  0  0  0  0  0  0  0  0  0
    6.3888    5.9420    0.0000 H   0  0  0  0  0  0  0  0  0  0  0  0
    6.6451    5.5880    0.0000 H   0  0  0  0  0  0  0  0  0  0  0  0
    4.2718    5.2582    0.0000 H   0  0  0  0  0  0  0  0  0  0  0  0
    4.3035   -0.3634    0.0000 H   0  0  0  0  0  0  0  0  0  0  0  0
    4.1364   -1.1428    0.0000 H   0  0  0  0  0  0  0  0  0  0  0  0
    6.3857    4.1300    0.0000 H   0  0  0  0  0  0  0  0  0  0  0  0
    7.3182   -1.7817    0.0000 H   0  0  0  0  0  0  0  0  0  0  0  0
    7.3154   -3.4529    0.0000 H   0  0  0  0  0  0  0  0  0  0  0  0
    3.4210    6.2998    0.0000 H   0  0  0  0  0  0  0  0  0  0  0  0
    3.7440    5.5711    0.0000 H   0  0  0  0  0  0  0  0  0  0  0  0
    5.8819   -5.1775    0.0000 H   0  0  0  0  0  0  0  0  0  0  0  0
    6.6936    6.9245    0.0000 H   0  0  0  0  0  0  0  0  0  0  0  0
    7.6736    5.5707    0.0000 H   0  0  0  0  0  0  0  0  0  0  0  0
    3.6220    7.4875    0.0000 H   0  0  0  0  0  0  0  0  0  0  0  0
    1.4631   -4.3675    0.0000 H   0  0  0  0  0  0  0  0  0  0  0  0
    6.4590    0.7326    0.0000 H   0  0  0  0  0  0  0  0  0  0  0  0
    4.0785    3.0143    0.0000 H   0  0  0  0  0  0  0  0  0  0  0  0
    2.3291   -7.4875    0.0000 H   0  0  0  0  0  0  0  0  0  0  0  0
    3.4030   -7.4875    0.0000 H   0  0  0  0  0  0  0  0  0  0  0  0
  1  7  1  0  0  0  0
  1 11  1  0  0  0  0
  1 13  1  0  0  0  0
  1 15  2  0  0  0  0
  2  8  1  0  0  0  0
  2 11  1  0  0  0  0
  2 14  1  0  0  0  0
  2 16  2  0  0  0  0
  3 24  1  0  0  0  0
  3 25  1  0  0  0  0
  4 28  1  0  0  0  0
  4 30  1  0  0  0  0
 22  5  1  1  0  0  0
  5 47  1  0  0  0  0
 23  6  1  1  0  0  0
  6 48  1  0  0  0  0
  7 29  1  0  0  0  0
 30  8  1  1  0  0  0
 26  9  1  1  0  0  0
  9 52  1  0  0  0  0
 27 10  1  1  0  0  0
 10 53  1  0  0  0  0
 12 32  1  0  0  0  0
 12 54  1  0  0  0  0
 13 56  1  0  0  0  0
 14 57  1  0  0  0  0
 25 17  1  6  0  0  0
 17 31  1  0  0  0  0
 17 33  1  0  0  0  0
 18 33  2  0  0  0  0
 18 34  1  0  0  0  0
 19 31  1  0  0  0  0
 19 36  2  0  0  0  0
 20 35  2  0  0  0  0
 20 36  1  0  0  0  0
 21 35  1  0  0  0  0
 21 58  1  0  0  0  0
 21 59  1  0  0  0  0
 22 23  1  0  0  0  0
 22 24  1  0  0  0  0
 22 37  1  0  0  0  0
 23 25  1  0  0  0  0
 23 38  1  0  0  0  0
 24 29  1  6  0  0  0
 24 39  1  0  0  0  0
 25 40  1  0  0  0  0
 26 27  1  0  0  0  0
 26 28  1  0  0  0  0
 26 41  1  0  0  0  0
 27 30  1  0  0  0  0
 27 42  1  0  0  0  0
 28 32  1  6  0  0  0
 28 43  1  0  0  0  0
 29 44  1  0  0  0  0
 29 45  1  0  0  0  0
 30 46  1  0  0  0  0
 31 34  2  0  0  0  0
 32 49  1  0  0  0  0
 32 50  1  0  0  0  0
 33 51  1  0  0  0  0
 34 35  1  0  0  0  0
 36 55  1  0  0  0  0
M  END
> <PUBCHEM_COMPOUND_CID>
25200469

> <PUBCHEM_COMPOUND_CANONICALIZED>
1

> <PUBCHEM_CACTVS_COMPLEXITY>
877

> <PUBCHEM_CACTVS_HBOND_ACCEPTOR>
18

> <PUBCHEM_CACTVS_HBOND_DONOR>
8

> <PUBCHEM_CACTVS_ROTATABLE_BOND>
9

> <PUBCHEM_CACTVS_SUBSKEYS>
AAADceBzvAMAAAAAAAAAAAAAAAAAAWJEgAAsAAAAAAAAAFgB+AAAHgAQCCAACBzxlwcF+L9MFxCgQQZhZICAgC0REKABUCAoVBCTWAJAyEAeRAgPAALXACDwMAIAAAAAAAAAAAAAAAAAAAAAAAAAAAAAAA==

> <PUBCHEM_IUPAC_OPENEYE_NAME>
[[(2R,3S,4R,5R)-5-(6-aminopurin-9-yl)-3,4-dihydroxy-tetrahydrofuran-2-yl]methoxy-hydroxy-phosphoryl] [(2R,3R,4S,5R)-3,4-dihydroxy-5-(hydroxymethyl)tetrahydrofuran-2-yl] hydrogen phosphate

> <PUBCHEM_IUPAC_CAS_NAME>
[[(2R,3S,4R,5R)-5-(6-aminopurin-9-yl)-3,4-dihydroxy-2-oxolanyl]methoxy-hydroxyphosphoryl] [(2R,3R,4S,5R)-3,4-dihydroxy-5-(hydroxymethyl)-2-oxolanyl] hydrogen phosphate

> <PUBCHEM_IUPAC_NAME>
[[(2R,3S,4R,5R)-5-(6-aminopurin-9-yl)-3,4-dihydroxyoxolan-2-yl]methoxy-hydroxyphosphoryl] [(2R,3R,4S,5R)-3,4-dihydroxy-5-(hydroxymethyl)oxolan-2-yl] hydrogen phosphate

> <PUBCHEM_IUPAC_SYSTEMATIC_NAME>
[[(2R,3S,4R,5R)-5-(6-aminopurin-9-yl)-3,4-bis(oxidanyl)oxolan-2-yl]methoxy-oxidanyl-phosphoryl] [(2R,3R,4S,5R)-5-(hydroxymethyl)-3,4-bis(oxidanyl)oxolan-2-yl] hydrogen phosphate

> <PUBCHEM_IUPAC_TRADITIONAL_NAME>
[[(2R,3S,4R,5R)-5-adenin-9-yl-3,4-dihydroxy-tetrahydrofuran-2-yl]methoxy-hydroxy-phosphoryl] [(2R,3R,4S,5R)-3,4-dihydroxy-5-methylol-tetrahydrofuran-2-yl] hydrogen phosphate

> <PUBCHEM_IUPAC_INCHI>
InChI=1S/C15H23N5O14P2/c16-12-7-13(18-3-17-12)20(4-19-7)14-10(24)9(23)6(31-14)2-30-35(26,27)34-36(28,29)33-15-11(25)8(22)5(1-21)32-15/h3-6,8-11,14-15,21-25H,1-2H2,(H,26,27)(H,28,29)(H2,16,17,18)/t5-,6-,8-,9-,10-,11-,14-,15-/m1/s1

> <PUBCHEM_IUPAC_INCHIKEY>
SDMADEZQMYCSNO-KEOHHSTQSA-N

> <PUBCHEM_XLOGP3>
-5.6

> <PUBCHEM_EXACT_MASS>
559.071674

> <PUBCHEM_MOLECULAR_FORMULA>
C15H23N5O14P2

> <PUBCHEM_MOLECULAR_WEIGHT>
559.315744

> <PUBCHEM_OPENEYE_CAN_SMILES>
C1=NC2=C(C(=N1)N)N=CN2C3C(C(C(O3)COP(=O)(O)OP(=O)(O)OC4C(C(C(O4)CO)O)O)O)O

> <PUBCHEM_OPENEYE_ISO_SMILES>
C1=NC2=C(C(=N1)N)N=CN2[C@H]3[C@@H]([C@@H]([C@H](O3)COP(=O)(O)OP(=O)(O)O[C@@H]4[C@@H]([C@@H]([C@H](O4)CO)O)O)O)O

> <PUBCHEM_CACTVS_TPSA>
292

> <PUBCHEM_MONOISOTOPIC_WEIGHT>
559.071674

> <PUBCHEM_TOTAL_CHARGE>
0

> <PUBCHEM_HEAVY_ATOM_COUNT>
36

> <PUBCHEM_ATOM_DEF_STEREO_COUNT>
8

> <PUBCHEM_ATOM_UDEF_STEREO_COUNT>
0

> <PUBCHEM_BOND_DEF_STEREO_COUNT>
0

> <PUBCHEM_BOND_UDEF_STEREO_COUNT>
0

> <PUBCHEM_ISOTOPIC_ATOM_COUNT>
0

> <PUBCHEM_COMPONENT_COUNT>
1

> <PUBCHEM_CACTVS_TAUTO_COUNT>
3

> <PUBCHEM_COORDINATE_TYPE>
1
5
255

> <PUBCHEM_BONDANNOTATIONS>
27  10  5
25  17  6
17  31  8
17  33  8
18  33  8
18  34  8
19  31  8
19  36  8
20  35  8
20  36  8
24  29  6
28  32  6
31  34  8
34  35  8
22  5  5
23  6  5
30  8  5
26  9  5

$$$$

