69254
  -OEChem-07051213022D

 16 16  0     0  0  0  0  0  0999 V2000
    2.0000   -2.0600    0.0000 Cl  0  0  0  0  0  0  0  0  0  0  0  0
    2.8660    1.4400    0.0000 O   0  0  0  0  0  0  0  0  0  0  0  0
    4.5981    1.4400    0.0000 N   0  0  0  0  0  0  0  0  0  0  0  0
    3.7320   -0.0600    0.0000 C   0  0  0  0  0  0  0  0  0  0  0  0
    2.8660   -0.5600    0.0000 C   0  0  0  0  0  0  0  0  0  0  0  0
    4.5981   -0.5600    0.0000 C   0  0  0  0  0  0  0  0  0  0  0  0
    2.8660   -1.5600    0.0000 C   0  0  0  0  0  0  0  0  0  0  0  0
    4.5981   -1.5600    0.0000 C   0  0  0  0  0  0  0  0  0  0  0  0
    3.7320   -2.0600    0.0000 C   0  0  0  0  0  0  0  0  0  0  0  0
    3.7320    0.9400    0.0000 C   0  0  0  0  0  0  0  0  0  0  0  0
    2.3291   -0.2500    0.0000 H   0  0  0  0  0  0  0  0  0  0  0  0
    5.1350   -0.2500    0.0000 H   0  0  0  0  0  0  0  0  0  0  0  0
    5.1350   -1.8700    0.0000 H   0  0  0  0  0  0  0  0  0  0  0  0
    3.7320   -2.6800    0.0000 H   0  0  0  0  0  0  0  0  0  0  0  0
    4.5981    2.0600    0.0000 H   0  0  0  0  0  0  0  0  0  0  0  0
    5.1350    1.1300    0.0000 H   0  0  0  0  0  0  0  0  0  0  0  0
  1  7  1  0  0  0  0
  2 10  2  0  0  0  0
  3 10  1  0  0  0  0
  3 15  1  0  0  0  0
  3 16  1  0  0  0  0
  4  5  2  0  0  0  0
  4  6  1  0  0  0  0
  4 10  1  0  0  0  0
  5  7  1  0  0  0  0
  5 11  1  0  0  0  0
  6  8  2  0  0  0  0
  6 12  1  0  0  0  0
  7  9  2  0  0  0  0
  8  9  1  0  0  0  0
  8 13  1  0  0  0  0
  9 14  1  0  0  0  0
M  END
> <PUBCHEM_COMPOUND_CID>
69254

> <PUBCHEM_COMPOUND_CANONICALIZED>
1

> <PUBCHEM_CACTVS_COMPLEXITY>
138

> <PUBCHEM_CACTVS_HBOND_ACCEPTOR>
1

> <PUBCHEM_CACTVS_HBOND_DONOR>
1

> <PUBCHEM_CACTVS_ROTATABLE_BOND>
1

> <PUBCHEM_CACTVS_SUBSKEYS>
AAADcYBiIAAEAAAAAAAAAAAAAAAAAAAAAAAwAAAAAAAAAAABAAAAHgIQAAAADAKBmCAwAIBAAACIAiFSEACCAAAkBQAIiAEABsgIIDKBlxGAIQBggAAIiYcYiACOAAAAIAAAAAAAAABAAAAAAAAAAAAAAA==

> <PUBCHEM_IUPAC_OPENEYE_NAME>
3-chlorobenzamide

> <PUBCHEM_IUPAC_CAS_NAME>
3-chlorobenzamide

> <PUBCHEM_IUPAC_NAME>
3-chlorobenzamide

> <PUBCHEM_IUPAC_SYSTEMATIC_NAME>
3-chloranylbenzamide

> <PUBCHEM_IUPAC_TRADITIONAL_NAME>
3-chlorobenzamide

> <PUBCHEM_IUPAC_INCHI>
InChI=1S/C7H6ClNO/c8-6-3-1-2-5(4-6)7(9)10/h1-4H,(H2,9,10)

> <PUBCHEM_IUPAC_INCHIKEY>
MJTGQALMWUUPQM-UHFFFAOYSA-N

> <PUBCHEM_XLOGP3>
1.5

> <PUBCHEM_EXACT_MASS>
155.013791

> <PUBCHEM_MOLECULAR_FORMULA>
C7H6ClNO

> <PUBCHEM_MOLECULAR_WEIGHT>
155.58164

> <PUBCHEM_OPENEYE_CAN_SMILES>
C1=CC(=CC(=C1)Cl)C(=O)N

> <PUBCHEM_OPENEYE_ISO_SMILES>
C1=CC(=CC(=C1)Cl)C(=O)N

> <PUBCHEM_CACTVS_TPSA>
43.1

> <PUBCHEM_MONOISOTOPIC_WEIGHT>
155.013791

> <PUBCHEM_TOTAL_CHARGE>
0

> <PUBCHEM_HEAVY_ATOM_COUNT>
10

> <PUBCHEM_ATOM_DEF_STEREO_COUNT>
0

> <PUBCHEM_ATOM_UDEF_STEREO_COUNT>
0

> <PUBCHEM_BOND_DEF_STEREO_COUNT>
0

> <PUBCHEM_BOND_UDEF_STEREO_COUNT>
0

> <PUBCHEM_ISOTOPIC_ATOM_COUNT>
0

> <PUBCHEM_COMPONENT_COUNT>
1

> <PUBCHEM_CACTVS_TAUTO_COUNT>
2

> <PUBCHEM_COORDINATE_TYPE>
1
5
255

> <PUBCHEM_BONDANNOTATIONS>
4  5  8
4  6  8
5  7  8
6  8  8
7  9  8
8  9  8

$$$$

