442621
  -OEChem-07051212583D

 42 44  0     0  0  0  0  0  0999 V2000
   -0.2910    0.7856   -0.2427 O   0  0  0  0  0  0  0  0  0  0  0  0
    1.0967   -2.5644    0.4195 O   0  0  0  0  0  0  0  0  0  0  0  0
   -4.6974    2.5078   -0.5444 O   0  0  0  0  0  0  0  0  0  0  0  0
   -4.1061   -2.1333    0.3582 O   0  0  0  0  0  0  0  0  0  0  0  0
   -1.6517   -2.9802    0.5130 O   0  0  0  0  0  0  0  0  0  0  0  0
   -5.7544    0.0023   -0.0452 O   0  0  0  0  0  0  0  0  0  0  0  0
    5.9876    1.2475   -0.3941 O   0  0  0  0  0  0  0  0  0  0  0  0
    4.6597    1.3513    2.0456 O   0  0  0  0  0  0  0  0  0  0  0  0
   -2.1675   -0.7227    0.0660 C   0  0  0  0  0  0  0  0  0  0  0  0
   -1.6389    0.5414   -0.1854 C   0  0  0  0  0  0  0  0  0  0  0  0
    0.5817   -0.2743   -0.0542 C   0  0  0  0  0  0  0  0  0  0  0  0
    0.2018   -1.5390    0.2042 C   0  0  0  0  0  0  0  0  0  0  0  0
   -1.2462   -1.8490    0.2811 C   0  0  0  0  0  0  0  0  0  0  0  0
    1.9977    0.1249   -0.1397 C   0  0  0  0  0  0  0  0  0  0  0  0
   -3.5509   -0.9122    0.1143 C   0  0  0  0  0  0  0  0  0  0  0  0
   -2.4918    1.6264   -0.3903 C   0  0  0  0  0  0  0  0  0  0  0  0
   -3.8736    1.4413   -0.3429 C   0  0  0  0  0  0  0  0  0  0  0  0
   -4.4019    0.1745   -0.0912 C   0  0  0  0  0  0  0  0  0  0  0  0
    2.6722    0.5550    1.0034 C   0  0  0  0  0  0  0  0  0  0  0  0
    2.6647    0.0734   -1.3641 C   0  0  0  0  0  0  0  0  0  0  0  0
    4.0124    0.9331    0.9222 C   0  0  0  0  0  0  0  0  0  0  0  0
    4.0049    0.4514   -1.4453 C   0  0  0  0  0  0  0  0  0  0  0  0
    4.6787    0.8812   -0.3021 C   0  0  0  0  0  0  0  0  0  0  0  0
    1.4300   -3.2055   -0.7969 C   0  0  0  0  0  0  0  0  0  0  0  0
   -5.0787    3.2583    0.6067 C   0  0  0  0  0  0  0  0  0  0  0  0
    6.9621    0.2251   -0.1958 C   0  0  0  0  0  0  0  0  0  0  0  0
   -2.0814    2.6137   -0.5870 H   0  0  0  0  0  0  0  0  0  0  0  0
    2.1600    0.5990    1.9621 H   0  0  0  0  0  0  0  0  0  0  0  0
    2.1513   -0.2483   -2.2669 H   0  0  0  0  0  0  0  0  0  0  0  0
    4.5168    0.4115   -2.4029 H   0  0  0  0  0  0  0  0  0  0  0  0
   -3.4191   -2.8066    0.4753 H   0  0  0  0  0  0  0  0  0  0  0  0
   -5.9382   -0.9349    0.1405 H   0  0  0  0  0  0  0  0  0  0  0  0
    1.9251   -2.5376   -1.5046 H   0  0  0  0  0  0  0  0  0  0  0  0
    0.5440   -3.6488   -1.2656 H   0  0  0  0  0  0  0  0  0  0  0  0
    2.1255   -4.0190   -0.5687 H   0  0  0  0  0  0  0  0  0  0  0  0
   -5.6184    2.6258    1.3187 H   0  0  0  0  0  0  0  0  0  0  0  0
   -5.7414    4.0664    0.2850 H   0  0  0  0  0  0  0  0  0  0  0  0
   -4.1984    3.6976    1.0866 H   0  0  0  0  0  0  0  0  0  0  0  0
    5.5648    1.6111    1.8022 H   0  0  0  0  0  0  0  0  0  0  0  0
    6.8756   -0.5401   -0.9737 H   0  0  0  0  0  0  0  0  0  0  0  0
    6.8516   -0.2313    0.7930 H   0  0  0  0  0  0  0  0  0  0  0  0
    7.9542    0.6801   -0.2618 H   0  0  0  0  0  0  0  0  0  0  0  0
  1 10  1  0  0  0  0
  1 11  1  0  0  0  0
  2 12  1  0  0  0  0
  2 24  1  0  0  0  0
  3 17  1  0  0  0  0
  3 25  1  0  0  0  0
  4 15  1  0  0  0  0
  4 31  1  0  0  0  0
  5 13  2  0  0  0  0
  6 18  1  0  0  0  0
  6 32  1  0  0  0  0
  7 23  1  0  0  0  0
  7 26  1  0  0  0  0
  8 21  1  0  0  0  0
  8 39  1  0  0  0  0
  9 10  1  0  0  0  0
  9 13  1  0  0  0  0
  9 15  2  0  0  0  0
 10 16  2  0  0  0  0
 11 12  2  0  0  0  0
 11 14  1  0  0  0  0
 12 13  1  0  0  0  0
 14 19  2  0  0  0  0
 14 20  1  0  0  0  0
 15 18  1  0  0  0  0
 16 17  1  0  0  0  0
 16 27  1  0  0  0  0
 17 18  2  0  0  0  0
 19 21  1  0  0  0  0
 19 28  1  0  0  0  0
 20 22  2  0  0  0  0
 20 29  1  0  0  0  0
 21 23  2  0  0  0  0
 22 23  1  0  0  0  0
 22 30  1  0  0  0  0
 24 33  1  0  0  0  0
 24 34  1  0  0  0  0
 24 35  1  0  0  0  0
 25 36  1  0  0  0  0
 25 37  1  0  0  0  0
 25 38  1  0  0  0  0
 26 40  1  0  0  0  0
 26 41  1  0  0  0  0
 26 42  1  0  0  0  0
M  END
> <PUBCHEM_COMPOUND_CID>
442621

> <PUBCHEM_CONFORMER_RMSD>
0.8

> <PUBCHEM_CONFORMER_DIVERSEORDER>
2
3
6
1
4
5
8
7

> <PUBCHEM_MMFF94_PARTIAL_CHARGES>
33
1 -0.16
10 0.08
11 0.05
12 0.09
13 0.47
14 0.03
15 0.08
16 -0.15
17 0.08
18 0.08
19 -0.15
2 -0.36
20 -0.15
21 0.08
22 -0.15
23 0.08
24 0.28
25 0.28
26 0.28
27 0.15
28 0.15
29 0.15
3 -0.36
30 0.15
31 0.45
32 0.45
39 0.45
4 -0.53
5 -0.57
6 -0.53
7 -0.36
8 -0.53
9 0.09

> <PUBCHEM_EFFECTIVE_ROTOR_COUNT>
4

> <PUBCHEM_PHARMACOPHORE_FEATURES>
11
1 1 acceptor
1 2 acceptor
1 3 acceptor
1 4 donor
1 5 acceptor
1 6 donor
1 7 acceptor
1 8 donor
6 1 9 10 11 12 13 rings
6 14 19 20 21 22 23 rings
6 9 10 15 16 17 18 rings

> <PUBCHEM_HEAVY_ATOM_COUNT>
26

> <PUBCHEM_ATOM_DEF_STEREO_COUNT>
0

> <PUBCHEM_ATOM_UDEF_STEREO_COUNT>
0

> <PUBCHEM_BOND_DEF_STEREO_COUNT>
0

> <PUBCHEM_BOND_UDEF_STEREO_COUNT>
0

> <PUBCHEM_ISOTOPIC_ATOM_COUNT>
0

> <PUBCHEM_COMPONENT_COUNT>
1

> <PUBCHEM_CACTVS_TAUTO_COUNT>
28

> <PUBCHEM_CONFORMER_ID>
0006C0FD00000002

> <PUBCHEM_MMFF94_ENERGY>
106.6565

> <PUBCHEM_FEATURE_SELFOVERLAP>
55.856

> <PUBCHEM_SHAPE_FINGERPRINT>
10319926 262 18337688425310440640
10411042 1 17692245240920116435
11796584 16 18409726262868558534
12107183 9 18057054720871115834
12236239 1 17489590013844950132
12390115 104 18335974359476057449
12403259 415 18187366489542572944
12422481 6 17702114749052397436
12596602 18 16988276452930466072
12633257 1 16487255452318672650
12788726 201 17198242393058507738
13140716 1 17909542862188581883
13540713 4 18269539706715712379
13540713 5 18267882747082540835
14341114 328 17489875929269394408
14790565 3 18341604902149721141
15042514 8 18053378795200860691
15196674 1 18340768234082882615
1601671 61 18272651255623091756
17980427 23 17775278335612781124
18608769 82 18338509756291410571
18681886 176 18342175506430786692
200 152 15140951860083314562
20645477 70 17022890281721784806
20691752 17 17131547353262267047
21033648 29 18114755836982414360
21279426 13 18263356048751508350
22122407 14 15841833343764472485
22149856 69 18197474382258372169
22182313 1 18265872744726055007
22393880 68 18260543458915309871
23366157 5 17916304029327994146
23402539 116 18337393747245526620
23557571 272 18335132060327747220
23559900 14 18337385054210724478
3298306 158 18259982674342973222
350125 39 18125438854775914798
469060 322 18269534093240546865
495365 180 17968388951723629942
5104073 3 18198900495635741073
5265222 85 18193827164681494254
5385378 56 18339076115836909266
7064713 232 18343866631995963805
7808743 9 18342175583123051877
9981440 41 18272364269918705467

> <PUBCHEM_SHAPE_MULTIPOLES>
488.11
13.51
2.99
1.06
7.16
1.25
-0.11
-8.9
-0.06
-3.2
-0.27
1.28
-0.26
0.72

> <PUBCHEM_SHAPE_SELFOVERLAP>
1074.582

> <PUBCHEM_SHAPE_VOLUME>
263.2

> <PUBCHEM_COORDINATE_TYPE>
2
5
10

$$$$

