5281037
  -OEChem-07051212532D

 54 56  0     0  0  0  0  0  0999 V2000
    7.8078   -1.6194    0.0000 S   0  0  0  0  0  0  0  0  0  0  0  0
    6.9635   -2.3156    0.0000 O   0  0  0  0  0  0  0  0  0  0  0  0
    5.2693   -2.6757    0.0000 O   0  0  0  0  0  0  0  0  0  0  0  0
    2.0000   -4.3345    0.0000 O   0  0  0  0  0  0  0  0  0  0  0  0
    3.7320   -4.3345    0.0000 O   0  0  0  0  0  0  0  0  0  0  0  0
    3.7320    0.6655    0.0000 N   0  0  0  0  0  0  0  0  0  0  0  0
    4.8147    1.8679    0.0000 N   0  0  0  0  0  0  0  0  0  0  0  0
    3.8366    1.6600    0.0000 C   0  0  0  0  0  0  0  0  0  0  0  0
    3.0934    2.3291    0.0000 C   0  0  0  0  0  0  0  0  0  0  0  0
    3.3014    3.3073    0.0000 C   0  0  0  0  0  0  0  0  0  0  0  0
    2.8660    0.1655    0.0000 C   0  0  0  0  0  0  0  0  0  0  0  0
    4.6456    0.2587    0.0000 C   0  0  0  0  0  0  0  0  0  0  0  0
    2.5582    3.9764    0.0000 C   0  0  0  0  0  0  0  0  0  0  0  0
    2.8660   -0.8345    0.0000 C   0  0  0  0  0  0  0  0  0  0  0  0
    5.3147    1.0019    0.0000 C   0  0  0  0  0  0  0  0  0  0  0  0
    4.8535   -0.7194    0.0000 C   0  0  0  0  0  0  0  0  0  0  0  0
    5.8046   -1.0284    0.0000 C   0  0  0  0  0  0  0  0  0  0  0  0
    2.7661    4.9545    0.0000 C   0  0  0  0  0  0  0  0  0  0  0  0
    2.0000   -1.3345    0.0000 C   0  0  0  0  0  0  0  0  0  0  0  0
    3.7320   -1.3345    0.0000 C   0  0  0  0  0  0  0  0  0  0  0  0
    6.5477   -0.3593    0.0000 C   0  0  0  0  0  0  0  0  0  0  0  0
    2.0000   -2.3345    0.0000 C   0  0  0  0  0  0  0  0  0  0  0  0
    3.7320   -2.3345    0.0000 C   0  0  0  0  0  0  0  0  0  0  0  0
    2.8660   -2.8345    0.0000 C   0  0  0  0  0  0  0  0  0  0  0  0
    7.4988   -0.6683    0.0000 C   0  0  0  0  0  0  0  0  0  0  0  0
    6.0125   -2.0066    0.0000 C   0  0  0  0  0  0  0  0  0  0  0  0
    8.3078   -0.0805    0.0000 C   0  0  0  0  0  0  0  0  0  0  0  0
    2.8660   -3.8345    0.0000 C   0  0  0  0  0  0  0  0  0  0  0  0
    9.1168   -0.6683    0.0000 C   0  0  0  0  0  0  0  0  0  0  0  0
    8.8078   -1.6194    0.0000 C   0  0  0  0  0  0  0  0  0  0  0  0
    2.5186    2.5614    0.0000 H   0  0  0  0  0  0  0  0  0  0  0  0
    2.7649    1.8033    0.0000 H   0  0  0  0  0  0  0  0  0  0  0  0
    2.6540    0.7481    0.0000 H   0  0  0  0  0  0  0  0  0  0  0  0
    2.2554    0.0578    0.0000 H   0  0  0  0  0  0  0  0  0  0  0  0
    3.8762    3.0750    0.0000 H   0  0  0  0  0  0  0  0  0  0  0  0
    3.6299    3.8330    0.0000 H   0  0  0  0  0  0  0  0  0  0  0  0
    1.9834    4.2086    0.0000 H   0  0  0  0  0  0  0  0  0  0  0  0
    2.2296    3.4506    0.0000 H   0  0  0  0  0  0  0  0  0  0  0  0
    5.9313    0.9371    0.0000 H   0  0  0  0  0  0  0  0  0  0  0  0
    4.3928   -1.1343    0.0000 H   0  0  0  0  0  0  0  0  0  0  0  0
    3.3726    4.8256    0.0000 H   0  0  0  0  0  0  0  0  0  0  0  0
    2.8950    5.5610    0.0000 H   0  0  0  0  0  0  0  0  0  0  0  0
    2.1597    5.0834    0.0000 H   0  0  0  0  0  0  0  0  0  0  0  0
    1.4631   -1.0245    0.0000 H   0  0  0  0  0  0  0  0  0  0  0  0
    4.2690   -1.0245    0.0000 H   0  0  0  0  0  0  0  0  0  0  0  0
    6.8388    0.1881    0.0000 H   0  0  0  0  0  0  0  0  0  0  0  0
    6.0591    0.0224    0.0000 H   0  0  0  0  0  0  0  0  0  0  0  0
    1.4631   -2.6445    0.0000 H   0  0  0  0  0  0  0  0  0  0  0  0
    4.2690   -2.6445    0.0000 H   0  0  0  0  0  0  0  0  0  0  0  0
    8.3078    0.5395    0.0000 H   0  0  0  0  0  0  0  0  0  0  0  0
    9.7064   -0.4767    0.0000 H   0  0  0  0  0  0  0  0  0  0  0  0
    9.1722   -2.1210    0.0000 H   0  0  0  0  0  0  0  0  0  0  0  0
    7.0924   -2.9221    0.0000 H   0  0  0  0  0  0  0  0  0  0  0  0
    2.0000   -4.9545    0.0000 H   0  0  0  0  0  0  0  0  0  0  0  0
  1 25  1  0  0  0  0
  1 30  1  0  0  0  0
  2 26  1  0  0  0  0
  2 53  1  0  0  0  0
  3 26  2  0  0  0  0
  4 28  1  0  0  0  0
  4 54  1  0  0  0  0
  5 28  2  0  0  0  0
  6  8  1  0  0  0  0
  6 11  1  0  0  0  0
  6 12  1  0  0  0  0
  7  8  2  0  0  0  0
  7 15  1  0  0  0  0
  8  9  1  0  0  0  0
  9 10  1  0  0  0  0
  9 31  1  0  0  0  0
  9 32  1  0  0  0  0
 10 13  1  0  0  0  0
 10 35  1  0  0  0  0
 10 36  1  0  0  0  0
 11 14  1  0  0  0  0
 11 33  1  0  0  0  0
 11 34  1  0  0  0  0
 12 15  2  0  0  0  0
 12 16  1  0  0  0  0
 13 18  1  0  0  0  0
 13 37  1  0  0  0  0
 13 38  1  0  0  0  0
 14 19  2  0  0  0  0
 14 20  1  0  0  0  0
 15 39  1  0  0  0  0
 16 17  2  0  0  0  0
 16 40  1  0  0  0  0
 17 21  1  0  0  0  0
 17 26  1  0  0  0  0
 18 41  1  0  0  0  0
 18 42  1  0  0  0  0
 18 43  1  0  0  0  0
 19 22  1  0  0  0  0
 19 44  1  0  0  0  0
 20 23  2  0  0  0  0
 20 45  1  0  0  0  0
 21 25  1  0  0  0  0
 21 46  1  0  0  0  0
 21 47  1  0  0  0  0
 22 24  2  0  0  0  0
 22 48  1  0  0  0  0
 23 24  1  0  0  0  0
 23 49  1  0  0  0  0
 24 28  1  0  0  0  0
 25 27  2  0  0  0  0
 27 29  1  0  0  0  0
 27 50  1  0  0  0  0
 29 30  2  0  0  0  0
 29 51  1  0  0  0  0
 30 52  1  0  0  0  0
M  END
> <PUBCHEM_COMPOUND_CID>
5281037

> <PUBCHEM_COMPOUND_CANONICALIZED>
1

> <PUBCHEM_CACTVS_COMPLEXITY>
618

> <PUBCHEM_CACTVS_HBOND_ACCEPTOR>
6

> <PUBCHEM_CACTVS_HBOND_DONOR>
2

> <PUBCHEM_CACTVS_ROTATABLE_BOND>
10

> <PUBCHEM_CACTVS_SUBSKEYS>
AAADceB7OABAAAAAAAAAAAAAAAAAAWJAAAAwAAAAAAAAAAAB8AAAHgQACAAADAjF3wS/mZcMEgisAzb3bACDgK01GrBJ2Bk4fNiIbjLgnRGUcQhswAPomaeYyDCOQAAAAAAAAACAAAAAAAAAAAAAAAAAAA==

> <PUBCHEM_IUPAC_OPENEYE_NAME>
4-[[2-butyl-5-[(E)-2-carboxy-3-(2-thienyl)prop-1-enyl]imidazol-1-yl]methyl]benzoic acid

> <PUBCHEM_IUPAC_CAS_NAME>
4-[[2-butyl-5-[(E)-2-carboxy-3-thiophen-2-ylprop-1-enyl]-1-imidazolyl]methyl]benzoic acid

> <PUBCHEM_IUPAC_NAME>
4-[[2-butyl-5-[(E)-2-carboxy-3-thiophen-2-ylprop-1-enyl]imidazol-1-yl]methyl]benzoic acid

> <PUBCHEM_IUPAC_SYSTEMATIC_NAME>
4-[[2-butyl-5-[(E)-3-oxidanyl-3-oxidanylidene-2-(thiophen-2-ylmethyl)prop-1-enyl]imidazol-1-yl]methyl]benzoic acid

> <PUBCHEM_IUPAC_TRADITIONAL_NAME>
4-[[2-butyl-5-[(E)-2-carboxy-3-(2-thienyl)prop-1-enyl]imidazol-1-yl]methyl]benzoic acid

> <PUBCHEM_IUPAC_INCHI>
InChI=1S/C23H24N2O4S/c1-2-3-6-21-24-14-19(12-18(23(28)29)13-20-5-4-11-30-20)25(21)15-16-7-9-17(10-8-16)22(26)27/h4-5,7-12,14H,2-3,6,13,15H2,1H3,(H,26,27)(H,28,29)/b18-12+

> <PUBCHEM_IUPAC_INCHIKEY>
OROAFUQRIXKEMV-LDADJPATSA-N

> <PUBCHEM_XLOGP3_AA>
4.5

> <PUBCHEM_EXACT_MASS>
424.145678

> <PUBCHEM_MOLECULAR_FORMULA>
C23H24N2O4S

> <PUBCHEM_MOLECULAR_WEIGHT>
424.51266

> <PUBCHEM_OPENEYE_CAN_SMILES>
CCCCC1=NC=C(N1CC2=CC=C(C=C2)C(=O)O)C=C(CC3=CC=CS3)C(=O)O

> <PUBCHEM_OPENEYE_ISO_SMILES>
CCCCC1=NC=C(N1CC2=CC=C(C=C2)C(=O)O)/C=C(\CC3=CC=CS3)/C(=O)O

> <PUBCHEM_CACTVS_TPSA>
121

> <PUBCHEM_MONOISOTOPIC_WEIGHT>
424.145678

> <PUBCHEM_TOTAL_CHARGE>
0

> <PUBCHEM_HEAVY_ATOM_COUNT>
30

> <PUBCHEM_ATOM_DEF_STEREO_COUNT>
0

> <PUBCHEM_ATOM_UDEF_STEREO_COUNT>
0

> <PUBCHEM_BOND_DEF_STEREO_COUNT>
1

> <PUBCHEM_BOND_UDEF_STEREO_COUNT>
0

> <PUBCHEM_ISOTOPIC_ATOM_COUNT>
0

> <PUBCHEM_COMPONENT_COUNT>
1

> <PUBCHEM_CACTVS_TAUTO_COUNT>
4

> <PUBCHEM_COORDINATE_TYPE>
1
5
255

> <PUBCHEM_BONDANNOTATIONS>
1  25  8
1  30  8
12  15  8
14  19  8
14  20  8
19  22  8
20  23  8
22  24  8
23  24  8
25  27  8
27  29  8
29  30  8
6  12  8
6  8  8
7  15  8
7  8  8

$$$$

