248015
  -OEChem-07051213062D

 53 57  0     1  0  0  0  0  0999 V2000
    5.4679   -1.2812    0.0000 O   0  0  0  0  0  0  0  0  0  0  0  0
    4.6077    0.2221    0.0000 O   0  0  0  0  0  0  0  0  0  0  0  0
   10.8610    0.7712    0.0000 C   0  0  1  0  0  0  0  0  0  0  0  0
    9.9950    0.2712    0.0000 C   0  0  1  0  0  0  0  0  0  0  0  0
   10.8610    1.7712    0.0000 C   0  0  2  0  0  0  0  0  0  0  0  0
    9.1290    0.7712    0.0000 C   0  0  2  0  0  0  0  0  0  0  0  0
    9.9950    2.2712    0.0000 C   0  0  0  0  0  0  0  0  0  0  0  0
    9.1290    1.7712    0.0000 C   0  0  0  0  0  0  0  0  0  0  0  0
   11.8072    0.4664    0.0000 C   0  0  0  0  0  0  0  0  0  0  0  0
   10.0110   -0.7704    0.0000 C   0  0  0  0  0  0  0  0  0  0  0  0
   11.8072    2.0759    0.0000 C   0  0  0  0  0  0  0  0  0  0  0  0
    8.2190    0.2643    0.0000 C   0  0  0  0  0  0  0  0  0  0  0  0
   10.8610    2.7712    0.0000 C   0  0  0  0  0  0  0  0  0  0  0  0
    9.1130   -1.2981    0.0000 C   0  0  0  0  0  0  0  0  0  0  0  0
   12.3908    1.2712    0.0000 C   0  0  0  0  0  0  0  0  0  0  0  0
    8.2109   -0.7773    0.0000 C   0  0  0  0  0  0  0  0  0  0  0  0
    7.2921    0.8284    0.0000 C   0  0  0  0  0  0  0  0  0  0  0  0
    7.2755   -1.3270    0.0000 C   0  0  0  0  0  0  0  0  0  0  0  0
    6.3442    0.3004    0.0000 C   0  0  0  0  0  0  0  0  0  0  0  0
    6.3359   -0.7845    0.0000 C   0  0  0  0  0  0  0  0  0  0  0  0
    4.6038   -0.7778    0.0000 C   0  0  0  0  0  0  0  0  0  0  0  0
    3.7359   -1.2745    0.0000 C   0  0  0  0  0  0  0  0  0  0  0  0
    2.8718   -0.7712    0.0000 C   0  0  0  0  0  0  0  0  0  0  0  0
    3.7320   -2.2745    0.0000 C   0  0  0  0  0  0  0  0  0  0  0  0
    2.0038   -1.2678    0.0000 C   0  0  0  0  0  0  0  0  0  0  0  0
    2.8641   -2.7712    0.0000 C   0  0  0  0  0  0  0  0  0  0  0  0
    2.0000   -2.2678    0.0000 C   0  0  0  0  0  0  0  0  0  0  0  0
   10.9510   -0.0741    0.0000 H   0  0  0  0  0  0  0  0  0  0  0  0
   10.7344   -0.1482    0.0000 H   0  0  0  0  0  0  0  0  0  0  0  0
    9.8651    1.1962    0.0000 H   0  0  0  0  0  0  0  0  0  0  0  0
   10.3935    2.7461    0.0000 H   0  0  0  0  0  0  0  0  0  0  0  0
    9.5965    2.7461    0.0000 H   0  0  0  0  0  0  0  0  0  0  0  0
    8.9169    2.3538    0.0000 H   0  0  0  0  0  0  0  0  0  0  0  0
    8.5184    1.6635    0.0000 H   0  0  0  0  0  0  0  0  0  0  0  0
   11.5562   -0.1005    0.0000 H   0  0  0  0  0  0  0  0  0  0  0  0
   12.3446    0.1572    0.0000 H   0  0  0  0  0  0  0  0  0  0  0  0
   10.2291   -1.3507    0.0000 H   0  0  0  0  0  0  0  0  0  0  0  0
   10.6202   -0.6549    0.0000 H   0  0  0  0  0  0  0  0  0  0  0  0
   11.9998    2.6652    0.0000 H   0  0  0  0  0  0  0  0  0  0  0  0
   11.4810    2.7712    0.0000 H   0  0  0  0  0  0  0  0  0  0  0  0
   10.8610    3.3912    0.0000 H   0  0  0  0  0  0  0  0  0  0  0  0
   10.2410    2.7712    0.0000 H   0  0  0  0  0  0  0  0  0  0  0  0
    8.7157   -1.7741    0.0000 H   0  0  0  0  0  0  0  0  0  0  0  0
    9.5140   -1.7710    0.0000 H   0  0  0  0  0  0  0  0  0  0  0  0
   13.0108    1.2712    0.0000 H   0  0  0  0  0  0  0  0  0  0  0  0
    7.3041    1.4483    0.0000 H   0  0  0  0  0  0  0  0  0  0  0  0
    7.2779   -1.9470    0.0000 H   0  0  0  0  0  0  0  0  0  0  0  0
    5.8109    0.6166    0.0000 H   0  0  0  0  0  0  0  0  0  0  0  0
    2.8742   -0.1512    0.0000 H   0  0  0  0  0  0  0  0  0  0  0  0
    4.2678   -2.5866    0.0000 H   0  0  0  0  0  0  0  0  0  0  0  0
    1.4681   -0.9558    0.0000 H   0  0  0  0  0  0  0  0  0  0  0  0
    2.8617   -3.3912    0.0000 H   0  0  0  0  0  0  0  0  0  0  0  0
    1.4619   -2.5758    0.0000 H   0  0  0  0  0  0  0  0  0  0  0  0
  1 20  1  0  0  0  0
  1 21  1  0  0  0  0
  2 21  2  0  0  0  0
  3  4  1  0  0  0  0
  3  5  1  0  0  0  0
  3  9  1  0  0  0  0
  3 28  1  6  0  0  0
  4  6  1  0  0  0  0
  4 10  1  0  0  0  0
  4 29  1  1  0  0  0
  5  7  1  0  0  0  0
  5 11  1  0  0  0  0
  5 13  1  1  0  0  0
  6  8  1  0  0  0  0
  6 12  1  0  0  0  0
  6 30  1  6  0  0  0
  7  8  1  0  0  0  0
  7 31  1  0  0  0  0
  7 32  1  0  0  0  0
  8 33  1  0  0  0  0
  8 34  1  0  0  0  0
  9 15  1  0  0  0  0
  9 35  1  0  0  0  0
  9 36  1  0  0  0  0
 10 14  1  0  0  0  0
 10 37  1  0  0  0  0
 10 38  1  0  0  0  0
 11 15  2  0  0  0  0
 11 39  1  0  0  0  0
 12 16  2  0  0  0  0
 12 17  1  0  0  0  0
 13 40  1  0  0  0  0
 13 41  1  0  0  0  0
 13 42  1  0  0  0  0
 14 16  1  0  0  0  0
 14 43  1  0  0  0  0
 14 44  1  0  0  0  0
 15 45  1  0  0  0  0
 16 18  1  0  0  0  0
 17 19  2  0  0  0  0
 17 46  1  0  0  0  0
 18 20  2  0  0  0  0
 18 47  1  0  0  0  0
 19 20  1  0  0  0  0
 19 48  1  0  0  0  0
 21 22  1  0  0  0  0
 22 23  2  0  0  0  0
 22 24  1  0  0  0  0
 23 25  1  0  0  0  0
 23 49  1  0  0  0  0
 24 26  2  0  0  0  0
 24 50  1  0  0  0  0
 25 27  2  0  0  0  0
 25 51  1  0  0  0  0
 26 27  1  0  0  0  0
 26 52  1  0  0  0  0
 27 53  1  0  0  0  0
M  END
> <PUBCHEM_COMPOUND_CID>
248015

> <PUBCHEM_COMPOUND_CANONICALIZED>
1

> <PUBCHEM_CACTVS_COMPLEXITY>
589

> <PUBCHEM_CACTVS_HBOND_ACCEPTOR>
2

> <PUBCHEM_CACTVS_HBOND_DONOR>
0

> <PUBCHEM_CACTVS_ROTATABLE_BOND>
3

> <PUBCHEM_CACTVS_SUBSKEYS>
AAADceB4MAAAAAAAAAAAAAAAAAAAAQAAAAAwYMGAAAAAAEDBQAAAGgAAAAAADwSAmAAyDoAABACIAiDSCAACCAAkIAAIiAEGCMgMJjKENRqCOyCkwBEIqYeIyPCPoAABAAAQAADAAAYAACAAAAAAAAAAAA==

> <PUBCHEM_IUPAC_OPENEYE_NAME>
[(8S,9S,13R,14S)-13-methyl-6,7,8,9,11,12,14,15-octahydrocyclopenta[a]phenanthren-3-yl] benzoate

> <PUBCHEM_IUPAC_CAS_NAME>
benzoic acid [(8S,9S,13R,14S)-13-methyl-6,7,8,9,11,12,14,15-octahydrocyclopenta[a]phenanthren-3-yl] ester

> <PUBCHEM_IUPAC_NAME>
[(8S,9S,13R,14S)-13-methyl-6,7,8,9,11,12,14,15-octahydrocyclopenta[a]phenanthren-3-yl] benzoate

> <PUBCHEM_IUPAC_SYSTEMATIC_NAME>
[(8S,9S,13R,14S)-13-methyl-6,7,8,9,11,12,14,15-octahydrocyclopenta[a]phenanthren-3-yl] benzoate

> <PUBCHEM_IUPAC_TRADITIONAL_NAME>
benzoic acid [(8S,9S,13R,14S)-13-methyl-6,7,8,9,11,12,14,15-octahydrocyclopenta[a]phenanthren-3-yl] ester

> <PUBCHEM_IUPAC_INCHI>
InChI=1S/C25H26O2/c1-25-14-5-8-23(25)22-11-9-18-16-19(10-12-20(18)21(22)13-15-25)27-24(26)17-6-3-2-4-7-17/h2-7,10,12,14,16,21-23H,8-9,11,13,15H2,1H3/t21-,22-,23+,25+/m1/s1

> <PUBCHEM_IUPAC_INCHIKEY>
KHAIFVOAJPIDQL-AHCIIZGASA-N

> <PUBCHEM_XLOGP3_AA>
6.8

> <PUBCHEM_EXACT_MASS>
358.19328

> <PUBCHEM_MOLECULAR_FORMULA>
C25H26O2

> <PUBCHEM_MOLECULAR_WEIGHT>
358.47274

> <PUBCHEM_OPENEYE_CAN_SMILES>
CC12CCC3C(C1CC=C2)CCC4=C3C=CC(=C4)OC(=O)C5=CC=CC=C5

> <PUBCHEM_OPENEYE_ISO_SMILES>
C[C@]12CC[C@H]3[C@H]([C@@H]1CC=C2)CCC4=C3C=CC(=C4)OC(=O)C5=CC=CC=C5

> <PUBCHEM_CACTVS_TPSA>
26.3

> <PUBCHEM_MONOISOTOPIC_WEIGHT>
358.19328

> <PUBCHEM_TOTAL_CHARGE>
0

> <PUBCHEM_HEAVY_ATOM_COUNT>
27

> <PUBCHEM_ATOM_DEF_STEREO_COUNT>
4

> <PUBCHEM_ATOM_UDEF_STEREO_COUNT>
0

> <PUBCHEM_BOND_DEF_STEREO_COUNT>
0

> <PUBCHEM_BOND_UDEF_STEREO_COUNT>
0

> <PUBCHEM_ISOTOPIC_ATOM_COUNT>
0

> <PUBCHEM_COMPONENT_COUNT>
1

> <PUBCHEM_CACTVS_TAUTO_COUNT>
1

> <PUBCHEM_COORDINATE_TYPE>
1
5
255

> <PUBCHEM_BONDANNOTATIONS>
12  16  8
12  17  8
16  18  8
17  19  8
18  20  8
19  20  8
22  23  8
22  24  8
23  25  8
24  26  8
25  27  8
26  27  8
3  28  6
4  29  5
5  13  5
6  30  6

$$$$

