10538
  -OEChem-06261204392D

 21 20  0     0  0  0  0  0  0999 V2000
    4.2690   -1.9993    0.0000 O   0  0  0  0  0  0  0  0  0  0  0  0
    6.0010   -0.2672    0.0000 O   0  0  0  0  0  0  0  0  0  0  0  0
    2.5369   -0.2672    0.0000 O   0  0  0  0  0  0  0  0  0  0  0  0
    3.4030   -1.7672    0.0000 O   0  0  0  0  0  0  0  0  0  0  0  0
    5.1350    1.2328    0.0000 O   0  0  0  0  0  0  0  0  0  0  0  0
    2.6556    1.9256    0.0000 O   0  0  0  0  0  0  0  0  0  0  0  0
    4.3614    2.2264    0.0000 O   0  0  0  0  0  0  0  0  0  0  0  0
    4.2690   -0.2672    0.0000 C   0  0  0  0  0  0  0  0  0  0  0  0
    3.7690    0.5988    0.0000 C   0  0  0  0  0  0  0  0  0  0  0  0
    4.7690   -1.1332    0.0000 C   0  0  0  0  0  0  0  0  0  0  0  0
    5.1350    0.2328    0.0000 C   0  0  0  0  0  0  0  0  0  0  0  0
    3.4030   -0.7672    0.0000 C   0  0  0  0  0  0  0  0  0  0  0  0
    3.5953    1.5836    0.0000 C   0  0  0  0  0  0  0  0  0  0  0  0
    3.1657    0.7418    0.0000 H   0  0  0  0  0  0  0  0  0  0  0  0
    4.3516    0.8109    0.0000 H   0  0  0  0  0  0  0  0  0  0  0  0
    5.2439   -1.5318    0.0000 H   0  0  0  0  0  0  0  0  0  0  0  0
    5.2439   -0.7347    0.0000 H   0  0  0  0  0  0  0  0  0  0  0  0
    4.5790   -2.5362    0.0000 H   0  0  0  0  0  0  0  0  0  0  0  0
    6.5380    0.0428    0.0000 H   0  0  0  0  0  0  0  0  0  0  0  0
    2.0000   -0.5772    0.0000 H   0  0  0  0  0  0  0  0  0  0  0  0
    2.5480    2.5362    0.0000 H   0  0  0  0  0  0  0  0  0  0  0  0
  1 10  1  0  0  0  0
  1 18  1  0  0  0  0
  2 11  1  0  0  0  0
  2 19  1  0  0  0  0
  3 12  1  0  0  0  0
  3 20  1  0  0  0  0
  4 12  2  0  0  0  0
  5 11  2  0  0  0  0
  6 13  1  0  0  0  0
  6 21  1  0  0  0  0
  7 13  2  0  0  0  0
  8  9  1  0  0  0  0
  8 10  1  0  0  0  0
  8 11  1  0  0  0  0
  8 12  1  0  0  0  0
  9 13  1  0  0  0  0
  9 14  1  0  0  0  0
  9 15  1  0  0  0  0
 10 16  1  0  0  0  0
 10 17  1  0  0  0  0
M  END
> <PUBCHEM_COMPOUND_CID>
10538

> <PUBCHEM_COMPOUND_CANONICALIZED>
1

> <PUBCHEM_CACTVS_COMPLEXITY>
229

> <PUBCHEM_CACTVS_HBOND_ACCEPTOR>
7

> <PUBCHEM_CACTVS_HBOND_DONOR>
4

> <PUBCHEM_CACTVS_ROTATABLE_BOND>
5

> <PUBCHEM_CACTVS_SUBSKEYS>
AAADccBgOAAAAAAAAAAAAAAAAAAAAAAAAAAAAAAAAAAAAAAAAAAAGgAACAAADgCggAIACAAAAgAIAACQCAAAAAAAAAAAAAEAAAAAEBQIAAAAQAAFIAAAAABDAAAJAAAAAAAAAAAAAAAAAAAAAAAAAAAAAA==

> <PUBCHEM_IUPAC_OPENEYE_NAME>
1-(hydroxymethyl)ethane-1,1,2-tricarboxylic acid

> <PUBCHEM_IUPAC_CAS_NAME>
1-(hydroxymethyl)ethane-1,1,2-tricarboxylic acid

> <PUBCHEM_IUPAC_NAME>
1-(hydroxymethyl)ethane-1,1,2-tricarboxylic acid

> <PUBCHEM_IUPAC_SYSTEMATIC_NAME>
1-(hydroxymethyl)ethane-1,1,2-tricarboxylic acid

> <PUBCHEM_IUPAC_TRADITIONAL_NAME>
1-methylolethane-1,1,2-tricarboxylic acid

> <PUBCHEM_IUPAC_INCHI>
InChI=1S/C6H8O7/c7-2-6(4(10)11,5(12)13)1-3(8)9/h7H,1-2H2,(H,8,9)(H,10,11)(H,12,13)

> <PUBCHEM_IUPAC_INCHIKEY>
VRMZYZHTOIKDSR-UHFFFAOYSA-N

> <PUBCHEM_XLOGP3_AA>
-1.8

> <PUBCHEM_EXACT_MASS>
192.027003

> <PUBCHEM_MOLECULAR_FORMULA>
C6H8O7

> <PUBCHEM_MOLECULAR_WEIGHT>
192.12352

> <PUBCHEM_OPENEYE_CAN_SMILES>
C(C(=O)O)C(CO)(C(=O)O)C(=O)O

> <PUBCHEM_OPENEYE_ISO_SMILES>
C(C(=O)O)C(CO)(C(=O)O)C(=O)O

> <PUBCHEM_CACTVS_TPSA>
132

> <PUBCHEM_MONOISOTOPIC_WEIGHT>
192.027003

> <PUBCHEM_TOTAL_CHARGE>
0

> <PUBCHEM_HEAVY_ATOM_COUNT>
13

> <PUBCHEM_ATOM_DEF_STEREO_COUNT>
0

> <PUBCHEM_ATOM_UDEF_STEREO_COUNT>
0

> <PUBCHEM_BOND_DEF_STEREO_COUNT>
0

> <PUBCHEM_BOND_UDEF_STEREO_COUNT>
0

> <PUBCHEM_ISOTOPIC_ATOM_COUNT>
0

> <PUBCHEM_COMPONENT_COUNT>
1

> <PUBCHEM_CACTVS_TAUTO_COUNT>
1

> <PUBCHEM_COORDINATE_TYPE>
1
5
255

$$$$

