5280372
  -OEChem-07051212453D

 46 47  0     1  0  0  0  0  0999 V2000
    1.7109    0.4954   -0.3346 O   0  0  0  0  0  0  0  0  0  0  0  0
    0.7957   -1.5833    0.1994 O   0  0  0  0  0  0  0  0  0  0  0  0
    5.4808   -0.7494    0.7167 O   0  0  0  0  0  0  0  0  0  0  0  0
    4.9172    2.0746    0.4648 O   0  0  0  0  0  0  0  0  0  0  0  0
    3.1103   -2.1897    1.7102 O   0  0  0  0  0  0  0  0  0  0  0  0
    1.0536    3.0985   -0.9244 O   0  0  0  0  0  0  0  0  0  0  0  0
   -0.5243   -1.7993   -2.2372 O   0  0  0  0  0  0  0  0  0  0  0  0
   -7.3587    0.8782    1.5877 O   0  0  0  0  0  0  0  0  0  0  0  0
    4.1936   -0.1737    0.9451 C   0  0  1  0  0  0  0  0  0  0  0  0
    4.0465    1.0365    0.0227 C   0  0  1  0  0  0  0  0  0  0  0  0
    3.1123   -1.2176    0.6652 C   0  0  2  0  0  0  0  0  0  0  0  0
    2.6047    1.5500    0.0262 C   0  0  1  0  0  0  0  0  0  0  0  0
    1.7251   -0.5783    0.6033 C   0  0  1  0  0  0  0  0  0  0  0  0
    2.4065    2.6835   -0.9751 C   0  0  0  0  0  0  0  0  0  0  0  0
   -0.5110   -1.1966    0.0800 C   0  0  0  0  0  0  0  0  0  0  0  0
   -1.1679   -1.3062   -1.1424 C   0  0  0  0  0  0  0  0  0  0  0  0
   -1.1752   -0.6912    1.1941 C   0  0  0  0  0  0  0  0  0  0  0  0
   -2.5001   -0.9070   -1.2516 C   0  0  0  0  0  0  0  0  0  0  0  0
   -2.5071   -0.2920    1.0849 C   0  0  0  0  0  0  0  0  0  0  0  0
   -3.1696   -0.3998   -0.1379 C   0  0  0  0  0  0  0  0  0  0  0  0
   -4.5588    0.0157   -0.2510 C   0  0  0  0  0  0  0  0  0  0  0  0
    0.1582   -0.8601   -3.0654 C   0  0  0  0  0  0  0  0  0  0  0  0
   -5.2075    0.8503    0.5929 C   0  0  0  0  0  0  0  0  0  0  0  0
   -6.6353    1.2615    0.4265 C   0  0  0  0  0  0  0  0  0  0  0  0
    4.1730    0.1302    1.9989 H   0  0  0  0  0  0  0  0  0  0  0  0
    4.3548    0.7601   -0.9931 H   0  0  0  0  0  0  0  0  0  0  0  0
    3.3330   -1.7530   -0.2659 H   0  0  0  0  0  0  0  0  0  0  0  0
    2.3208    1.9223    1.0200 H   0  0  0  0  0  0  0  0  0  0  0  0
    1.4488   -0.2068    1.5987 H   0  0  0  0  0  0  0  0  0  0  0  0
    2.6167    2.3553   -1.9986 H   0  0  0  0  0  0  0  0  0  0  0  0
    3.0400    3.5444   -0.7434 H   0  0  0  0  0  0  0  0  0  0  0  0
    6.1434   -0.0587    0.8896 H   0  0  0  0  0  0  0  0  0  0  0  0
    4.6466    2.3315    1.3627 H   0  0  0  0  0  0  0  0  0  0  0  0
    2.9176   -1.7332    2.5469 H   0  0  0  0  0  0  0  0  0  0  0  0
    0.5007    2.3244   -1.1274 H   0  0  0  0  0  0  0  0  0  0  0  0
   -0.6841   -0.6214    2.1603 H   0  0  0  0  0  0  0  0  0  0  0  0
   -3.0063   -0.9951   -2.2106 H   0  0  0  0  0  0  0  0  0  0  0  0
   -2.9950    0.0735    1.9838 H   0  0  0  0  0  0  0  0  0  0  0  0
   -5.1049   -0.3821   -1.1040 H   0  0  0  0  0  0  0  0  0  0  0  0
   -0.3919    0.0833   -3.1476 H   0  0  0  0  0  0  0  0  0  0  0  0
    0.2562   -1.2942   -4.0643 H   0  0  0  0  0  0  0  0  0  0  0  0
    1.1602   -0.6766   -2.6689 H   0  0  0  0  0  0  0  0  0  0  0  0
   -4.6973    1.2973    1.4413 H   0  0  0  0  0  0  0  0  0  0  0  0
   -6.7013    2.3487    0.3247 H   0  0  0  0  0  0  0  0  0  0  0  0
   -7.1090    0.8052   -0.4484 H   0  0  0  0  0  0  0  0  0  0  0  0
   -7.3352   -0.0926    1.6433 H   0  0  0  0  0  0  0  0  0  0  0  0
  1 12  1  0  0  0  0
  1 13  1  0  0  0  0
  2 13  1  0  0  0  0
  2 15  1  0  0  0  0
  3  9  1  0  0  0  0
  3 32  1  0  0  0  0
  4 10  1  0  0  0  0
  4 33  1  0  0  0  0
  5 11  1  0  0  0  0
  5 34  1  0  0  0  0
  6 14  1  0  0  0  0
  6 35  1  0  0  0  0
  7 16  1  0  0  0  0
  7 22  1  0  0  0  0
  8 24  1  0  0  0  0
  8 46  1  0  0  0  0
  9 10  1  0  0  0  0
  9 11  1  0  0  0  0
  9 25  1  0  0  0  0
 10 12  1  0  0  0  0
 10 26  1  0  0  0  0
 11 13  1  0  0  0  0
 11 27  1  0  0  0  0
 12 14  1  0  0  0  0
 12 28  1  0  0  0  0
 13 29  1  0  0  0  0
 14 30  1  0  0  0  0
 14 31  1  0  0  0  0
 15 16  2  0  0  0  0
 15 17  1  0  0  0  0
 16 18  1  0  0  0  0
 17 19  2  0  0  0  0
 17 36  1  0  0  0  0
 18 20  2  0  0  0  0
 18 37  1  0  0  0  0
 19 20  1  0  0  0  0
 19 38  1  0  0  0  0
 20 21  1  0  0  0  0
 21 23  2  0  0  0  0
 21 39  1  0  0  0  0
 22 40  1  0  0  0  0
 22 41  1  0  0  0  0
 22 42  1  0  0  0  0
 23 24  1  0  0  0  0
 23 43  1  0  0  0  0
 24 44  1  0  0  0  0
 24 45  1  0  0  0  0
M  END
> <PUBCHEM_COMPOUND_CID>
5280372

> <PUBCHEM_CONFORMER_RMSD>
0.8

> <PUBCHEM_CONFORMER_DIVERSEORDER>
1
17
82
109
40
152
148
166
145
139
155
113
143
19
70
101
163
156
42
84
150
170
133
138
89
111
176
131
79
35
105
21
88
165
119
169
142
36
128
100
130
198
153
48
146
9
112
108
61
97
189
59
39
126
162
20
129
15
85
184
151
50
90
65
102
7
168
81
202
76
52
91
200
12
193
121
178
10
73
63
96
66
77
33
11
134
95
80
43
118
8
22
55
110
196
26
117
140
94
31
45
173
158
44
72
87
68
74
64
4
14
67
116
37
147
149
135
13
191
154
53
69
175
6
30
180
123
41
164
132
51
127
160
5
183
185
92
172
124
199
98
157
29
38
197
125
58
78
2
18
161
23
71
201
83
62
27
28
16
137
186
141
25
3
57
188
195
190
34
47
86
46
60
107
187
49
159
93
194
120
54
24
104
174
103
171
75
177
181
144
179
106
167
56
192
114
122
182
136
99
32
115

> <PUBCHEM_MMFF94_PARTIAL_CHARGES>
34
1 -0.56
10 0.28
11 0.28
12 0.28
13 0.56
14 0.28
15 0.08
16 0.08
17 -0.15
18 -0.15
19 -0.15
2 -0.36
20 0.03
21 -0.18
22 0.28
23 -0.29
24 0.42
3 -0.68
32 0.4
33 0.4
34 0.4
35 0.4
36 0.15
37 0.15
38 0.15
39 0.15
4 -0.68
43 0.15
46 0.4
5 -0.68
6 -0.68
7 -0.36
8 -0.68
9 0.28

> <PUBCHEM_EFFECTIVE_ROTOR_COUNT>
7.2

> <PUBCHEM_PHARMACOPHORE_FEATURES>
15
1 1 acceptor
1 2 acceptor
1 3 acceptor
1 3 donor
1 4 acceptor
1 4 donor
1 5 acceptor
1 5 donor
1 6 acceptor
1 6 donor
1 7 acceptor
1 8 acceptor
1 8 donor
6 1 9 10 11 12 13 rings
6 15 16 17 18 19 20 rings

> <PUBCHEM_HEAVY_ATOM_COUNT>
24

> <PUBCHEM_ATOM_DEF_STEREO_COUNT>
5

> <PUBCHEM_ATOM_UDEF_STEREO_COUNT>
0

> <PUBCHEM_BOND_DEF_STEREO_COUNT>
1

> <PUBCHEM_BOND_UDEF_STEREO_COUNT>
0

> <PUBCHEM_ISOTOPIC_ATOM_COUNT>
0

> <PUBCHEM_COMPONENT_COUNT>
1

> <PUBCHEM_CACTVS_TAUTO_COUNT>
1

> <PUBCHEM_CONFORMER_ID>
0050927400000001

> <PUBCHEM_MMFF94_ENERGY>
82.7459

> <PUBCHEM_FEATURE_SELFOVERLAP>
76.181

> <PUBCHEM_SHAPE_FINGERPRINT>
10688039 33 17489308637162578909
10906281 52 17984704421050397016
11045977 3 17632290169179149169
11640471 11 18115868499493659760
11724838 91 18409167689180454011
12236239 1 18187652383560687058
12633257 1 17345769477204582296
14251764 30 14548742819535700241
14341114 176 18131067160457003705
14464042 87 18259980500820580841
15238133 3 18130780174784278804
20511986 3 18042700424555945928
20645476 183 18115315449160917975
20715895 44 18189333644989426361
21033648 29 16988576701499443197
21637258 2 10015586078001295913
21792961 116 17274276070935969482
22122407 14 18339630197036747481
2297311 6 14979679956998004442
23402539 116 16081382842269307467
23598288 3 17824272500901425127
2838139 119 18334867134145182909
3472631 163 17168152186852083448
34934 24 18261959535940473160
4325135 7 18335703820081901847
4409770 3 15811690597197924087
474 4 18271249313471831986
5104073 3 18129392509737567610
8272917 22 18410574028165077394

> <PUBCHEM_SHAPE_MULTIPOLES>
446.95
12.76
2.37
1.82
16.07
1.43
1.29
6.4
-6.53
-2.08
0.6
0.21
-0.82
-1.81

> <PUBCHEM_SHAPE_SELFOVERLAP>
927.184

> <PUBCHEM_SHAPE_VOLUME>
253.1

> <PUBCHEM_COORDINATE_TYPE>
2
5
10

$$$$

