17816
  -OEChem-07051213133D

 24 23  0     0  0  0  0  0  0999 V2000
    0.7011   -0.2071   -0.5168 O   0  0  0  0  0  0  0  0  0  0  0  0
   -0.4891   -1.8619    0.5624 O   0  0  0  0  0  0  0  0  0  0  0  0
   -2.3963    0.6934   -0.2671 C   0  0  0  0  0  0  0  0  0  0  0  0
   -1.5845   -0.3724   -1.0194 C   0  0  0  0  0  0  0  0  0  0  0  0
   -2.9568    0.1454    1.0477 C   0  0  0  0  0  0  0  0  0  0  0  0
   -1.5216    1.9167    0.0138 C   0  0  0  0  0  0  0  0  0  0  0  0
   -0.4255   -0.9172   -0.2124 C   0  0  0  0  0  0  0  0  0  0  0  0
    1.8958   -0.6321    0.1468 C   0  0  0  0  0  0  0  0  0  0  0  0
    3.0248    0.2399   -0.2926 C   0  0  0  0  0  0  0  0  0  0  0  0
    3.7521    0.9955    0.5376 C   0  0  0  0  0  0  0  0  0  0  0  0
   -3.2337    0.9993   -0.9059 H   0  0  0  0  0  0  0  0  0  0  0  0
   -1.2100    0.0220   -1.9721 H   0  0  0  0  0  0  0  0  0  0  0  0
   -2.2262   -1.2223   -1.2828 H   0  0  0  0  0  0  0  0  0  0  0  0
   -2.1681   -0.0846    1.7712 H   0  0  0  0  0  0  0  0  0  0  0  0
   -3.6224    0.8814    1.5120 H   0  0  0  0  0  0  0  0  0  0  0  0
   -3.5393   -0.7653    0.8727 H   0  0  0  0  0  0  0  0  0  0  0  0
   -0.7224    1.7006    0.7302 H   0  0  0  0  0  0  0  0  0  0  0  0
   -1.0663    2.2938   -0.9080 H   0  0  0  0  0  0  0  0  0  0  0  0
   -2.1278    2.7254    0.4371 H   0  0  0  0  0  0  0  0  0  0  0  0
    1.7475   -0.5767    1.2317 H   0  0  0  0  0  0  0  0  0  0  0  0
    2.1157   -1.6693   -0.1312 H   0  0  0  0  0  0  0  0  0  0  0  0
    3.2646    0.2510   -1.3526 H   0  0  0  0  0  0  0  0  0  0  0  0
    4.5622    1.6071    0.1559 H   0  0  0  0  0  0  0  0  0  0  0  0
    3.5550    1.0189    1.6036 H   0  0  0  0  0  0  0  0  0  0  0  0
  1  7  1  0  0  0  0
  1  8  1  0  0  0  0
  2  7  2  0  0  0  0
  3  4  1  0  0  0  0
  3  5  1  0  0  0  0
  3  6  1  0  0  0  0
  3 11  1  0  0  0  0
  4  7  1  0  0  0  0
  4 12  1  0  0  0  0
  4 13  1  0  0  0  0
  5 14  1  0  0  0  0
  5 15  1  0  0  0  0
  5 16  1  0  0  0  0
  6 17  1  0  0  0  0
  6 18  1  0  0  0  0
  6 19  1  0  0  0  0
  8  9  1  0  0  0  0
  8 20  1  0  0  0  0
  8 21  1  0  0  0  0
  9 10  2  0  0  0  0
  9 22  1  0  0  0  0
 10 23  1  0  0  0  0
 10 24  1  0  0  0  0
M  END
> <PUBCHEM_COMPOUND_CID>
17816

> <PUBCHEM_CONFORMER_RMSD>
0.6

> <PUBCHEM_CONFORMER_DIVERSEORDER>
1
32
6
22
24
29
31
7
35
8
34
28
19
23
16
17
37
5
26
38
18
9
21
30
4
36
15
27
14
10
2
12
33
20
3
25
11
13

> <PUBCHEM_MMFF94_PARTIAL_CHARGES>
10
1 -0.43
10 -0.3
2 -0.57
22 0.15
23 0.15
24 0.15
4 0.06
7 0.66
8 0.42
9 -0.29

> <PUBCHEM_EFFECTIVE_ROTOR_COUNT>
5

> <PUBCHEM_PHARMACOPHORE_FEATURES>
3
1 10 hydrophobe
1 2 acceptor
3 3 5 6 hydrophobe

> <PUBCHEM_HEAVY_ATOM_COUNT>
10

> <PUBCHEM_ATOM_DEF_STEREO_COUNT>
0

> <PUBCHEM_ATOM_UDEF_STEREO_COUNT>
0

> <PUBCHEM_BOND_DEF_STEREO_COUNT>
0

> <PUBCHEM_BOND_UDEF_STEREO_COUNT>
0

> <PUBCHEM_ISOTOPIC_ATOM_COUNT>
0

> <PUBCHEM_COMPONENT_COUNT>
1

> <PUBCHEM_CACTVS_TAUTO_COUNT>
1

> <PUBCHEM_CONFORMER_ID>
0000459800000001

> <PUBCHEM_MMFF94_ENERGY>
8.3176

> <PUBCHEM_FEATURE_SELFOVERLAP>
15.223

> <PUBCHEM_SHAPE_FINGERPRINT>
10857977 72 17632283597420210903
11127187 94 7493283343945549857
12897270 3 7420947564917733116
12932764 1 18187085074500095542
13549 16 8574435266784468331
14325111 11 18411701031951711934
14390081 3 18333736814415799116
15775835 57 18259986006546192833
18619055 16 8430303637146613226
20211469 26 12319740249880938280
20281407 28 10303812090381864924
20645464 45 18411698790153142638
20653085 51 17676757773047984958
20711983 138 11023818483553424581
20828058 19 12247672755985578057
21028194 46 18337386140621107174
23500284 214 18261388919280349264
305870 269 18199757018929777346

> <PUBCHEM_SHAPE_MULTIPOLES>
194.06
5.56
1.56
0.92
4.34
0.18
0.04
2.13
0.99
-0.37
0.16
-0.41
-0.06
0.13

> <PUBCHEM_SHAPE_SELFOVERLAP>
358.609

> <PUBCHEM_SHAPE_VOLUME>
122.7

> <PUBCHEM_COORDINATE_TYPE>
2
5
10

$$$$

