440756
  -OEChem-07051212503D

 16 15  0     1  0  0  0  0  0999 V2000
    1.1184    0.1152   -0.0872 P   0  0  0  0  0  0  0  0  0  0  0  0
   -0.8006   -1.5646   -0.0645 O   0  0  0  0  0  0  0  0  0  0  0  0
    1.9948   -0.8880    0.8288 O   0  0  0  0  0  0  0  0  0  0  0  0
    1.4075    1.5619    0.5741 O   0  0  0  0  0  0  0  0  0  0  0  0
    1.3819    0.0239   -1.5608 O   0  0  0  0  0  0  0  0  0  0  0  0
   -2.9463    0.2947    0.1314 N   0  0  0  0  0  0  0  0  0  0  0  0
   -0.5656   -0.2407    0.4021 C   0  0  2  0  0  0  0  0  0  0  0  0
   -1.5901    0.6977   -0.2239 C   0  0  0  0  0  0  0  0  0  0  0  0
   -0.6543   -0.2352    1.4941 H   0  0  0  0  0  0  0  0  0  0  0  0
   -1.5010    0.6785   -1.3155 H   0  0  0  0  0  0  0  0  0  0  0  0
   -1.4123    1.7278    0.1002 H   0  0  0  0  0  0  0  0  0  0  0  0
   -0.1509   -2.1442    0.3684 H   0  0  0  0  0  0  0  0  0  0  0  0
   -3.0495    0.3028    1.1457 H   0  0  0  0  0  0  0  0  0  0  0  0
   -3.1003   -0.6714   -0.1560 H   0  0  0  0  0  0  0  0  0  0  0  0
    2.9691   -0.9039    0.7169 H   0  0  0  0  0  0  0  0  0  0  0  0
    2.2751    1.9913    0.4157 H   0  0  0  0  0  0  0  0  0  0  0  0
  1  3  1  0  0  0  0
  1  4  1  0  0  0  0
  1  5  2  0  0  0  0
  1  7  1  0  0  0  0
  2  7  1  0  0  0  0
  2 12  1  0  0  0  0
  3 15  1  0  0  0  0
  4 16  1  0  0  0  0
  6  8  1  0  0  0  0
  6 13  1  0  0  0  0
  6 14  1  0  0  0  0
  7  8  1  0  0  0  0
  7  9  1  0  0  0  0
  8 10  1  0  0  0  0
  8 11  1  0  0  0  0
M  END
> <PUBCHEM_COMPOUND_CID>
440756

> <PUBCHEM_CONFORMER_RMSD>
0.4

> <PUBCHEM_CONFORMER_DIVERSEORDER>
3
4
2
6
1
5

> <PUBCHEM_MMFF94_PARTIAL_CHARGES>
13
1 1.24
12 0.4
13 0.36
14 0.36
15 0.5
16 0.5
2 -0.68
3 -0.77
4 -0.77
5 -0.7
6 -0.99
7 0.28
8 0.27

> <PUBCHEM_EFFECTIVE_ROTOR_COUNT>
2

> <PUBCHEM_PHARMACOPHORE_FEATURES>
8
1 2 acceptor
1 2 donor
1 3 acceptor
1 4 acceptor
1 5 acceptor
1 6 cation
1 6 donor
4 1 3 4 5 anion

> <PUBCHEM_HEAVY_ATOM_COUNT>
8

> <PUBCHEM_ATOM_DEF_STEREO_COUNT>
0

> <PUBCHEM_ATOM_UDEF_STEREO_COUNT>
1

> <PUBCHEM_BOND_DEF_STEREO_COUNT>
0

> <PUBCHEM_BOND_UDEF_STEREO_COUNT>
0

> <PUBCHEM_ISOTOPIC_ATOM_COUNT>
0

> <PUBCHEM_COMPONENT_COUNT>
1

> <PUBCHEM_CACTVS_TAUTO_COUNT>
1

> <PUBCHEM_CONFORMER_ID>
0006B9B400000003

> <PUBCHEM_MMFF94_ENERGY>
-26.5988

> <PUBCHEM_FEATURE_SELFOVERLAP>
40.636

> <PUBCHEM_SHAPE_FINGERPRINT>
137420 1 6755643176529358412
20096714 4 18411420600641589185
21040471 1 18343298150203305423
24536 1 17385990746272080306
29004967 10 15647059261139884227
5084963 1 17632015355227332577
5943 1 7561368200925098276

> <PUBCHEM_SHAPE_MULTIPOLES>
140.03
3.06
1.25
0.96
1.67
0.06
-0.31
-0.3
0.19
-0.21
0.18
-0.52
-0.03
-0.02

> <PUBCHEM_SHAPE_SELFOVERLAP>
242.506

> <PUBCHEM_SHAPE_VOLUME>
93.1

> <PUBCHEM_COORDINATE_TYPE>
2
5
10

$$$$

