441016
  -OEChem-07051212513D

 49 52  0     1  0  0  0  0  0999 V2000
    3.7873    0.7785   -1.1014 P   0  0  1  0  0  0  0  0  0  0  0  0
   -0.8366    2.6276   -0.9680 O   0  0  0  0  0  0  0  0  0  0  0  0
   -0.8019    3.9625    1.9492 O   0  0  0  0  0  0  0  0  0  0  0  0
    1.5221    2.5525    1.7412 O   0  0  0  0  0  0  0  0  0  0  0  0
    2.7528    1.9954   -0.8371 O   0  0  0  0  0  0  0  0  0  0  0  0
    2.9859   -0.5372   -0.6072 O   0  0  0  0  0  0  0  0  0  0  0  0
    3.8190    0.6264   -2.7125 O   0  0  0  0  0  0  0  0  0  0  0  0
    5.1363    0.9600   -0.4672 O   0  0  0  0  0  0  0  0  0  0  0  0
    2.8534   -0.0507    1.6218 O   0  0  0  0  0  0  0  0  0  0  0  0
   -2.6886    1.5457    0.0491 N   0  0  0  0  0  0  0  0  0  0  0  0
   -4.5972    0.4041    0.2270 N   0  0  0  0  0  0  0  0  0  0  0  0
   -1.2812   -0.1554   -0.9646 N   0  0  0  0  0  0  0  0  0  0  0  0
   -2.5126   -2.2329   -1.3162 N   0  0  0  0  0  0  0  0  0  0  0  0
   -4.8151   -2.4796   -0.7119 N   0  0  0  0  0  0  0  0  0  0  0  0
   -0.9062    2.6375    1.4309 C   0  0  2  0  0  0  0  0  0  0  0  0
    0.4378    2.1317    0.9415 C   0  0  1  0  0  0  0  0  0  0  0  0
   -1.7462    2.6611    0.1527 C   0  0  1  0  0  0  0  0  0  0  0  0
    0.5065    2.7053   -0.4631 C   0  0  1  0  0  0  0  0  0  0  0  0
    1.4459    1.9451   -1.3820 C   0  0  0  0  0  0  0  0  0  0  0  0
   -2.4364    0.3019   -0.4587 C   0  0  0  0  0  0  0  0  0  0  0  0
   -4.0001    1.5566    0.4482 C   0  0  0  0  0  0  0  0  0  0  0  0
   -3.6315   -0.3894   -0.3396 C   0  0  0  0  0  0  0  0  0  0  0  0
   -3.6452   -1.7047   -0.7926 C   0  0  0  0  0  0  0  0  0  0  0  0
   -1.4172   -1.4371   -1.3688 C   0  0  0  0  0  0  0  0  0  0  0  0
    2.6256   -0.7834    0.6730 C   0  0  0  0  0  0  0  0  0  0  0  0
    1.9059   -2.0751    0.7785 C   0  0  0  0  0  0  0  0  0  0  0  0
    0.9502   -2.2305    1.7631 C   0  0  0  0  0  0  0  0  0  0  0  0
    2.2123   -3.0861   -0.1109 C   0  0  0  0  0  0  0  0  0  0  0  0
    0.2734   -3.4462    1.8624 C   0  0  0  0  0  0  0  0  0  0  0  0
    1.5355   -4.3018   -0.0117 C   0  0  0  0  0  0  0  0  0  0  0  0
    0.5660   -4.4818    0.9751 C   0  0  0  0  0  0  0  0  0  0  0  0
   -1.3169    2.0109    2.2291 H   0  0  0  0  0  0  0  0  0  0  0  0
    0.4126    1.0374    0.9151 H   0  0  0  0  0  0  0  0  0  0  0  0
   -2.3398    3.5785    0.0619 H   0  0  0  0  0  0  0  0  0  0  0  0
    0.8094    3.7600   -0.4279 H   0  0  0  0  0  0  0  0  0  0  0  0
    1.1150    0.9115   -1.5181 H   0  0  0  0  0  0  0  0  0  0  0  0
    1.4581    2.4050   -2.3759 H   0  0  0  0  0  0  0  0  0  0  0  0
   -1.6962    4.2440    2.2074 H   0  0  0  0  0  0  0  0  0  0  0  0
    2.3394    2.2382    1.3189 H   0  0  0  0  0  0  0  0  0  0  0  0
   -4.4613    2.4282    0.8922 H   0  0  0  0  0  0  0  0  0  0  0  0
   -0.5293   -1.8915   -1.7951 H   0  0  0  0  0  0  0  0  0  0  0  0
   -4.7997   -3.4331   -1.0476 H   0  0  0  0  0  0  0  0  0  0  0  0
   -5.6614   -2.0879   -0.3215 H   0  0  0  0  0  0  0  0  0  0  0  0
    4.3638    1.2513   -3.2368 H   0  0  0  0  0  0  0  0  0  0  0  0
    0.7101   -1.4296    2.4562 H   0  0  0  0  0  0  0  0  0  0  0  0
    2.9713   -2.9760   -0.8796 H   0  0  0  0  0  0  0  0  0  0  0  0
   -0.4829   -3.5856    2.6293 H   0  0  0  0  0  0  0  0  0  0  0  0
    1.7648   -5.1092   -0.7009 H   0  0  0  0  0  0  0  0  0  0  0  0
    0.0387   -5.4281    1.0521 H   0  0  0  0  0  0  0  0  0  0  0  0
  1  5  1  0  0  0  0
  1  6  1  0  0  0  0
  1  7  1  0  0  0  0
  1  8  2  0  0  0  0
  2 17  1  0  0  0  0
  2 18  1  0  0  0  0
  3 15  1  0  0  0  0
  3 38  1  0  0  0  0
  4 16  1  0  0  0  0
  4 39  1  0  0  0  0
  5 19  1  0  0  0  0
  6 25  1  0  0  0  0
  7 44  1  0  0  0  0
  9 25  2  0  0  0  0
 10 17  1  0  0  0  0
 10 20  1  0  0  0  0
 10 21  1  0  0  0  0
 11 21  2  0  0  0  0
 11 22  1  0  0  0  0
 12 20  2  0  0  0  0
 12 24  1  0  0  0  0
 13 23  1  0  0  0  0
 13 24  2  0  0  0  0
 14 23  1  0  0  0  0
 14 42  1  0  0  0  0
 14 43  1  0  0  0  0
 15 16  1  0  0  0  0
 15 17  1  0  0  0  0
 15 32  1  0  0  0  0
 16 18  1  0  0  0  0
 16 33  1  0  0  0  0
 17 34  1  0  0  0  0
 18 19  1  0  0  0  0
 18 35  1  0  0  0  0
 19 36  1  0  0  0  0
 19 37  1  0  0  0  0
 20 22  1  0  0  0  0
 21 40  1  0  0  0  0
 22 23  2  0  0  0  0
 24 41  1  0  0  0  0
 25 26  1  0  0  0  0
 26 27  2  0  0  0  0
 26 28  1  0  0  0  0
 27 29  1  0  0  0  0
 27 45  1  0  0  0  0
 28 30  2  0  0  0  0
 28 46  1  0  0  0  0
 29 31  2  0  0  0  0
 29 47  1  0  0  0  0
 30 31  1  0  0  0  0
 30 48  1  0  0  0  0
 31 49  1  0  0  0  0
M  END
> <PUBCHEM_COMPOUND_CID>
441016

> <PUBCHEM_CONFORMER_RMSD>
1.2

> <PUBCHEM_CONFORMER_DIVERSEORDER>
1
26
293
41
295
60
198
341
195
281
294
151
68
285
39
14
224
323
86
107
309
21
89
173
135
254
102
279
191
16
312
47
202
208
164
314
307
179
201
109
77
322
217
147
213
200
66
11
119
160
54
282
259
10
130
90
65
325
98
126
263
96
22
106
95
40
169
203
210
18
188
15
193
116
288
211
85
318
101
20
117
146
93
204
122
9
340
52
209
291
23
249
35
290
73
75
301
111
78
329
7
24
30
48
331
120
63
105
113
94
212
260
299
167
321
114
238
144
28
275
182
337
170
4
148
74
226
87
123
17
333
175
181
12
272
91
315
153
32
228
29
232
136
43
67
292
278
280
236
257
79
189
129
166
8
180
27
19
320
185
82
168
304
69
197
138
159
339
137
127
59
176
284
221
72
243
308
132
155
118
64
55
255
216
334
45
234
215
152
51
97
157
139
247
261
2
266
330
25
251
319
268
253
42
31
5
76
306
3
264
256
305
196
58
300
289
205
156
199
34
237
183
190
223
56
150
311
336
163
158
220
277
244
252
143
184
112
297
154
276
128
327
80
258
140
172
38
222
230
88
33
142
229
246
70
262
207
235
245
131
103
241
108
81
171
13
44
121
124
57
99
125
174
115
100
194
302
273
219
92
36
248
265
287
324
233
110
267
225
71
335
286
283
239
250
178
84
214
134
296
162
227
313
177
46
310
6
37
141
269
61
53
328
206
317
271
298
242
218
186
49
165
338
161
187
145
50
240
192
62
133
104
303
274
149
316
83
326
270
332
231

> <PUBCHEM_MMFF94_PARTIAL_CHARGES>
43
1 1.51
10 0.05
11 -0.57
12 -0.57
13 -0.62
14 -0.9
15 0.28
16 0.28
17 0.54
18 0.28
19 0.28
2 -0.56
20 0.11
21 0.04
22 0.23
23 0.41
24 0.47
25 0.63
26 0.09
27 -0.15
28 -0.15
29 -0.15
3 -0.68
30 -0.15
31 -0.15
38 0.4
39 0.4
4 -0.68
40 0.15
41 0.15
42 0.4
43 0.4
44 0.5
45 0.15
46 0.15
47 0.15
48 0.15
49 0.15
5 -0.55
6 -0.42
7 -0.77
8 -0.7
9 -0.57

> <PUBCHEM_EFFECTIVE_ROTOR_COUNT>
8

> <PUBCHEM_PHARMACOPHORE_FEATURES>
17
1 14 cation
1 14 donor
1 2 acceptor
1 3 acceptor
1 3 donor
1 4 acceptor
1 4 donor
1 7 acceptor
1 8 acceptor
1 9 acceptor
3 10 11 21 cation
3 10 12 20 cation
3 12 13 24 cation
5 10 11 20 21 22 rings
5 2 15 16 17 18 rings
6 12 13 20 22 23 24 rings
6 26 27 28 29 30 31 rings

> <PUBCHEM_HEAVY_ATOM_COUNT>
31

> <PUBCHEM_ATOM_DEF_STEREO_COUNT>
4

> <PUBCHEM_ATOM_UDEF_STEREO_COUNT>
0

> <PUBCHEM_BOND_DEF_STEREO_COUNT>
0

> <PUBCHEM_BOND_UDEF_STEREO_COUNT>
0

> <PUBCHEM_ISOTOPIC_ATOM_COUNT>
0

> <PUBCHEM_COMPONENT_COUNT>
1

> <PUBCHEM_CACTVS_TAUTO_COUNT>
3

> <PUBCHEM_CONFORMER_ID>
0006BAB800000001

> <PUBCHEM_MMFF94_ENERGY>
56.2332

> <PUBCHEM_FEATURE_SELFOVERLAP>
86.894

> <PUBCHEM_SHAPE_FINGERPRINT>
11014199 57 18123761008469915315
12156800 1 7269245424224146075
12553582 1 18335148583040483101
13122387 1 16680635697622985419
13140716 1 18336277751375279161
14114207 22 10290020241624559600
14931854 50 18341331080767211654
17138139 8 18338514115065719366
17492 54 17845937312500838350
19319366 153 18413387661314371107
20764821 26 17333086421483677606
20775438 99 16890912310015714390
20775530 9 17907025319346374435
238 59 18129103320830956555
238918 7 16244062949357588456
35225 105 17193421098704542686
463206 1 18411697711862897057
484989 97 17697311815917089139
563151 248 17464213435720568930
6287921 2 18267308818696851858
7097593 13 18052263083077165719

> <PUBCHEM_SHAPE_MULTIPOLES>
569.96
7.37
5.72
1.81
2.28
3.23
0.1
0.46
-2.26
-1.19
1.74
-0.95
-0.44
-2.44

> <PUBCHEM_SHAPE_SELFOVERLAP>
1228.194

> <PUBCHEM_SHAPE_VOLUME>
314.8

> <PUBCHEM_COORDINATE_TYPE>
2
5
10

$$$$

