10081437
  -OEChem-07051213103D

 28 29  0     1  0  0  0  0  0999 V2000
   -1.6224   -1.5338   -0.3233 O   0  0  0  0  0  0  0  0  0  0  0  0
    2.7924   -0.7561    1.2866 O   0  0  0  0  0  0  0  0  0  0  0  0
    2.1702    1.7955    0.8340 O   0  0  0  0  0  0  0  0  0  0  0  0
   -3.4483   -0.7552    0.8241 O   0  0  0  0  0  0  0  0  0  0  0  0
   -0.6470    0.4997   -0.9062 C   0  0  1  0  0  0  0  0  0  0  0  0
   -0.3632   -0.9868   -0.7491 C   0  0  1  0  0  0  0  0  0  0  0  0
   -1.6269    0.7567    0.2362 C   0  0  2  0  0  0  0  0  0  0  0  0
    0.6983   -1.3207    0.3022 C   0  0  0  0  0  0  0  0  0  0  0  0
    0.5888    1.3910   -0.9163 C   0  0  0  0  0  0  0  0  0  0  0  0
    1.9845   -0.5141    0.1405 C   0  0  1  0  0  0  0  0  0  0  0  0
    1.6210    0.9672    0.1078 C   0  0  0  0  0  0  0  0  0  0  0  0
   -2.3655   -0.5606    0.2939 C   0  0  0  0  0  0  0  0  0  0  0  0
   -2.5628    1.9241   -0.0289 C   0  0  0  0  0  0  0  0  0  0  0  0
    2.7809   -0.9066   -1.1015 C   0  0  0  0  0  0  0  0  0  0  0  0
   -1.1836    0.6488   -1.8546 H   0  0  0  0  0  0  0  0  0  0  0  0
   -0.1005   -1.4338   -1.7141 H   0  0  0  0  0  0  0  0  0  0  0  0
   -1.1074    0.8954    1.1913 H   0  0  0  0  0  0  0  0  0  0  0  0
    0.2848   -1.1652    1.3090 H   0  0  0  0  0  0  0  0  0  0  0  0
    0.9137   -2.3974    0.2757 H   0  0  0  0  0  0  0  0  0  0  0  0
    0.3150    2.4356   -0.7340 H   0  0  0  0  0  0  0  0  0  0  0  0
    1.0716    1.3517   -1.8993 H   0  0  0  0  0  0  0  0  0  0  0  0
   -2.0066    2.8600   -0.1379 H   0  0  0  0  0  0  0  0  0  0  0  0
   -3.1538    1.7671   -0.9380 H   0  0  0  0  0  0  0  0  0  0  0  0
   -3.2694    2.0464    0.7992 H   0  0  0  0  0  0  0  0  0  0  0  0
    3.6994   -0.3119   -1.1712 H   0  0  0  0  0  0  0  0  0  0  0  0
    3.0917   -1.9560   -1.0471 H   0  0  0  0  0  0  0  0  0  0  0  0
    2.2192   -0.7599   -2.0286 H   0  0  0  0  0  0  0  0  0  0  0  0
    2.2727   -0.5406    2.0797 H   0  0  0  0  0  0  0  0  0  0  0  0
  1  6  1  0  0  0  0
  1 12  1  0  0  0  0
  2 10  1  0  0  0  0
  2 28  1  0  0  0  0
  3 11  2  0  0  0  0
  4 12  2  0  0  0  0
  5  6  1  0  0  0  0
  5  7  1  0  0  0  0
  5  9  1  0  0  0  0
  5 15  1  0  0  0  0
  6  8  1  0  0  0  0
  6 16  1  0  0  0  0
  7 12  1  0  0  0  0
  7 13  1  0  0  0  0
  7 17  1  0  0  0  0
  8 10  1  0  0  0  0
  8 18  1  0  0  0  0
  8 19  1  0  0  0  0
  9 11  1  0  0  0  0
  9 20  1  0  0  0  0
  9 21  1  0  0  0  0
 10 11  1  0  0  0  0
 10 14  1  0  0  0  0
 13 22  1  0  0  0  0
 13 23  1  0  0  0  0
 13 24  1  0  0  0  0
 14 25  1  0  0  0  0
 14 26  1  0  0  0  0
 14 27  1  0  0  0  0
M  END
> <PUBCHEM_COMPOUND_CID>
10081437

> <PUBCHEM_CONFORMER_RMSD>
0.4

> <PUBCHEM_CONFORMER_DIVERSEORDER>
1
2
6
5
4
3

> <PUBCHEM_MMFF94_PARTIAL_CHARGES>
11
1 -0.43
10 0.34
11 0.45
12 0.66
2 -0.68
28 0.4
3 -0.57
4 -0.57
6 0.28
7 0.06
9 0.06

> <PUBCHEM_EFFECTIVE_ROTOR_COUNT>
1

> <PUBCHEM_PHARMACOPHORE_FEATURES>
6
1 2 acceptor
1 2 donor
1 3 acceptor
1 4 acceptor
5 1 5 6 7 12 rings
6 5 6 8 9 10 11 rings

> <PUBCHEM_HEAVY_ATOM_COUNT>
14

> <PUBCHEM_ATOM_DEF_STEREO_COUNT>
4

> <PUBCHEM_ATOM_UDEF_STEREO_COUNT>
0

> <PUBCHEM_BOND_DEF_STEREO_COUNT>
0

> <PUBCHEM_BOND_UDEF_STEREO_COUNT>
0

> <PUBCHEM_ISOTOPIC_ATOM_COUNT>
0

> <PUBCHEM_COMPONENT_COUNT>
1

> <PUBCHEM_CACTVS_TAUTO_COUNT>
4

> <PUBCHEM_CONFORMER_ID>
0099D49D00000001

> <PUBCHEM_MMFF94_ENERGY>
24.6414

> <PUBCHEM_FEATURE_SELFOVERLAP>
30.635

> <PUBCHEM_SHAPE_FINGERPRINT>
10857977 72 18202002122826066539
12251169 10 18410301302125945362
12382932 28 18267030642059371608
12423570 1 16166972426790087887
12524768 44 18336548205196869926
12696612 119 18340775844875629440
15076042 46 18334290981024138401
15775835 57 18115300056018786185
16945 1 18335143106698750423
17804303 29 18337100267418641326
19422 9 17917136303890045462
20588541 1 17978506764938013997
20715346 28 18113902705588745662
22445834 79 18343868830960976139
2334 1 18412264999738912741
23388829 49 17468488010174581671
23552423 10 18129657478848835069
2748010 2 18411706490755249917
369184 2 18187651262816581941
5084963 1 18336250293496134397
53812653 166 18266174118169462805
7364860 26 18115018602849325172

> <PUBCHEM_SHAPE_MULTIPOLES>
264.64
4.47
1.85
1.05
0.81
0.49
0.02
-0.34
-0.92
0.3
-0.04
-0.47
-0.02
0.29

> <PUBCHEM_SHAPE_SELFOVERLAP>
558.773

> <PUBCHEM_SHAPE_VOLUME>
149.7

> <PUBCHEM_COORDINATE_TYPE>
2
5
10

$$$$

