6450812
  -OEChem-07051213102D

 39 41  0     1  0  0  0  0  0999 V2000
    4.5037   -0.8508    0.0000 C   0  0  2  0  0  0  0  0  0  0  0  0
    5.3302   -1.4146    0.0000 C   0  0  0  0  0  0  0  0  0  0  0  0
    5.4047   -0.4169    0.0000 C   0  0  2  0  0  0  0  0  0  0  0  0
    3.6027   -0.4169    0.0000 C   0  0  1  0  0  0  0  0  0  0  0  0
    3.3802    0.5580    0.0000 C   0  0  1  0  0  0  0  0  0  0  0  0
    5.6272    0.5580    0.0000 C   0  0  0  0  0  0  0  0  0  0  0  0
    4.0037    1.3398    0.0000 C   0  0  1  0  0  0  0  0  0  0  0  0
    6.3274   -1.4893    0.0000 C   0  0  0  0  0  0  0  0  0  0  0  0
    4.7668   -2.2408    0.0000 C   0  0  0  0  0  0  0  0  0  0  0  0
    5.0037    1.3398    0.0000 C   0  0  0  0  0  0  0  0  0  0  0  0
    2.7480   -0.9246    0.0000 C   0  0  0  0  0  0  0  0  0  0  0  0
    2.3899    0.6446    0.0000 C   0  0  0  0  0  0  0  0  0  0  0  0
    2.0000   -0.2699    0.0000 C   0  0  0  0  0  0  0  0  0  0  0  0
    3.5698    2.2408    0.0000 C   0  0  0  0  0  0  0  0  0  0  0  0
    2.6567   -1.9204    0.0000 C   0  0  0  0  0  0  0  0  0  0  0  0
    4.0786   -1.5869    0.0000 H   0  0  0  0  0  0  0  0  0  0  0  0
    6.2452   -0.5435    0.0000 H   0  0  0  0  0  0  0  0  0  0  0  0
    3.6398   -1.2661    0.0000 H   0  0  0  0  0  0  0  0  0  0  0  0
    3.0451    1.3392    0.0000 H   0  0  0  0  0  0  0  0  0  0  0  0
    6.1858    0.2890    0.0000 H   0  0  0  0  0  0  0  0  0  0  0  0
    6.0138    1.0428    0.0000 H   0  0  0  0  0  0  0  0  0  0  0  0
    3.3876    1.4093    0.0000 H   0  0  0  0  0  0  0  0  0  0  0  0
    5.5623    1.6089    0.0000 H   0  0  0  0  0  0  0  0  0  0  0  0
    4.8657    1.9443    0.0000 H   0  0  0  0  0  0  0  0  0  0  0  0
    6.2810   -2.1076    0.0000 H   0  0  0  0  0  0  0  0  0  0  0  0
    6.9456   -1.5356    0.0000 H   0  0  0  0  0  0  0  0  0  0  0  0
    6.3737   -0.8710    0.0000 H   0  0  0  0  0  0  0  0  0  0  0  0
    4.2546   -1.8916    0.0000 H   0  0  0  0  0  0  0  0  0  0  0  0
    4.4176   -2.7531    0.0000 H   0  0  0  0  0  0  0  0  0  0  0  0
    5.2791   -2.5901    0.0000 H   0  0  0  0  0  0  0  0  0  0  0  0
    2.5085    1.2531    0.0000 H   0  0  0  0  0  0  0  0  0  0  0  0
    1.7972    0.8264    0.0000 H   0  0  0  0  0  0  0  0  0  0  0  0
    1.4584    0.0319    0.0000 H   0  0  0  0  0  0  0  0  0  0  0  0
    1.6430   -0.7768    0.0000 H   0  0  0  0  0  0  0  0  0  0  0  0
    4.1284    2.5098    0.0000 H   0  0  0  0  0  0  0  0  0  0  0  0
    3.3008    2.7994    0.0000 H   0  0  0  0  0  0  0  0  0  0  0  0
    3.0112    1.9718    0.0000 H   0  0  0  0  0  0  0  0  0  0  0  0
    2.0937   -2.1800    0.0000 H   0  0  0  0  0  0  0  0  0  0  0  0
    3.1630   -2.2781    0.0000 H   0  0  0  0  0  0  0  0  0  0  0  0
  1  2  1  0  0  0  0
  1  3  1  0  0  0  0
  1  4  1  0  0  0  0
  1 16  1  6  0  0  0
  2  3  1  0  0  0  0
  2  8  1  0  0  0  0
  2  9  1  0  0  0  0
  3  6  1  0  0  0  0
  3 17  1  6  0  0  0
  4  5  1  0  0  0  0
  4 11  1  0  0  0  0
  4 18  1  1  0  0  0
  5  7  1  0  0  0  0
  5 12  1  0  0  0  0
  5 19  1  1  0  0  0
  6 10  1  0  0  0  0
  6 20  1  0  0  0  0
  6 21  1  0  0  0  0
  7 10  1  0  0  0  0
  7 14  1  6  0  0  0
  7 22  1  0  0  0  0
  8 25  1  0  0  0  0
  8 26  1  0  0  0  0
  8 27  1  0  0  0  0
  9 28  1  0  0  0  0
  9 29  1  0  0  0  0
  9 30  1  0  0  0  0
 10 23  1  0  0  0  0
 10 24  1  0  0  0  0
 11 13  1  0  0  0  0
 11 15  2  0  0  0  0
 12 13  1  0  0  0  0
 12 31  1  0  0  0  0
 12 32  1  0  0  0  0
 13 33  1  0  0  0  0
 13 34  1  0  0  0  0
 14 35  1  0  0  0  0
 14 36  1  0  0  0  0
 14 37  1  0  0  0  0
 15 38  1  0  0  0  0
 15 39  1  0  0  0  0
M  END
> <PUBCHEM_COMPOUND_CID>
6450812

> <PUBCHEM_COMPOUND_CANONICALIZED>
1

> <PUBCHEM_CACTVS_COMPLEXITY>
299

> <PUBCHEM_CACTVS_HBOND_ACCEPTOR>
0

> <PUBCHEM_CACTVS_HBOND_DONOR>
0

> <PUBCHEM_CACTVS_ROTATABLE_BOND>
0

> <PUBCHEM_CACTVS_SUBSKEYS>
AAADceBwAAAAAAAAAAAAAAAAGAAAAYAAAAAAAAAABgAYAADAAAAAGAAAAAAADwCAAAACAAAAAACAAgBCAAAAAAAgAAAAAAAAAAgAAAIAAQAAAAAAgAAAAAEAgMAPgAAAAAAAAAAAAAAAAAAAAAAACAAAAA==

> <PUBCHEM_IUPAC_OPENEYE_NAME>
(1aR,4R,4aR,7aR,7bR)-1,1,4-trimethyl-7-methylene-2,3,4,4a,5,6,7a,7b-octahydro-1aH-cyclopropa[e]azulene

> <PUBCHEM_IUPAC_CAS_NAME>
(1aR,4R,4aR,7aR,7bR)-1,1,4-trimethyl-7-methylene-2,3,4,4a,5,6,7a,7b-octahydro-1aH-cyclopropa[e]azulene

> <PUBCHEM_IUPAC_NAME>
(1aR,4R,4aR,7aR,7bR)-1,1,4-trimethyl-7-methylidene-2,3,4,4a,5,6,7a,7b-octahydro-1aH-cyclopropa[e]azulene

> <PUBCHEM_IUPAC_SYSTEMATIC_NAME>
(1aR,4R,4aR,7aR,7bR)-1,1,4-trimethyl-7-methylidene-2,3,4,4a,5,6,7a,7b-octahydro-1aH-cyclopropa[e]azulene

> <PUBCHEM_IUPAC_TRADITIONAL_NAME>
(1aR,4R,4aR,7aR,7bR)-1,1,4-trimethyl-7-methylene-2,3,4,4a,5,6,7a,7b-octahydro-1aH-cycloprop[e]azulene

> <PUBCHEM_IUPAC_INCHI>
InChI=1S/C15H24/c1-9-6-8-12-14(15(12,3)4)13-10(2)5-7-11(9)13/h9,11-14H,2,5-8H2,1,3-4H3/t9-,11-,12-,13-,14-/m1/s1

> <PUBCHEM_IUPAC_INCHIKEY>
IRCZVRWQUNZGSH-DKTYCGPESA-N

> <PUBCHEM_XLOGP3_AA>
4.7

> <PUBCHEM_EXACT_MASS>
204.187801

> <PUBCHEM_MOLECULAR_FORMULA>
C15H24

> <PUBCHEM_MOLECULAR_WEIGHT>
204.35106

> <PUBCHEM_OPENEYE_CAN_SMILES>
CC1CCC2C(C2(C)C)C3C1CCC3=C

> <PUBCHEM_OPENEYE_ISO_SMILES>
C[C@@H]1CC[C@@H]2[C@@H](C2(C)C)[C@H]3[C@@H]1CCC3=C

> <PUBCHEM_CACTVS_TPSA>
0

> <PUBCHEM_MONOISOTOPIC_WEIGHT>
204.187801

> <PUBCHEM_TOTAL_CHARGE>
0

> <PUBCHEM_HEAVY_ATOM_COUNT>
15

> <PUBCHEM_ATOM_DEF_STEREO_COUNT>
5

> <PUBCHEM_ATOM_UDEF_STEREO_COUNT>
0

> <PUBCHEM_BOND_DEF_STEREO_COUNT>
0

> <PUBCHEM_BOND_UDEF_STEREO_COUNT>
0

> <PUBCHEM_ISOTOPIC_ATOM_COUNT>
0

> <PUBCHEM_COMPONENT_COUNT>
1

> <PUBCHEM_CACTVS_TAUTO_COUNT>
1

> <PUBCHEM_COORDINATE_TYPE>
1
5
255

> <PUBCHEM_BONDANNOTATIONS>
1  16  6
3  17  6
4  18  5
5  19  5
7  14  6

$$$$

