17280
  -OEChem-07051213023D

 30 30  0     0  0  0  0  0  0999 V2000
    1.0363    0.0484   -0.7852 P   0  0  0  0  0  0  0  0  0  0  0  0
    1.2461   -1.1327    0.3046 O   0  0  0  0  0  0  0  0  0  0  0  0
    2.3512    0.9819   -0.6115 O   0  0  0  0  0  0  0  0  0  0  0  0
   -0.1502    0.9519   -0.1642 O   0  0  0  0  0  0  0  0  0  0  0  0
    0.8103   -0.4140   -2.1972 O   0  0  0  0  0  0  0  0  0  0  0  0
   -1.4482    0.5459   -0.0107 C   0  0  0  0  0  0  0  0  0  0  0  0
    2.3320   -2.0261    0.1303 C   0  0  0  0  0  0  0  0  0  0  0  0
    2.6940    1.4942    0.6648 C   0  0  0  0  0  0  0  0  0  0  0  0
   -1.8218   -0.7345   -0.4055 C   0  0  0  0  0  0  0  0  0  0  0  0
   -2.3830    1.4177    0.5383 C   0  0  0  0  0  0  0  0  0  0  0  0
    2.3377   -3.0244    1.2365 C   0  0  0  0  0  0  0  0  0  0  0  0
    3.9332    2.3144    0.5554 C   0  0  0  0  0  0  0  0  0  0  0  0
   -3.1448   -1.1480   -0.2497 C   0  0  0  0  0  0  0  0  0  0  0  0
   -3.7060    1.0041    0.6941 C   0  0  0  0  0  0  0  0  0  0  0  0
   -4.0868   -0.2788    0.3001 C   0  0  0  0  0  0  0  0  0  0  0  0
    2.2237   -2.5300   -0.8354 H   0  0  0  0  0  0  0  0  0  0  0  0
    3.2708   -1.4641    0.1207 H   0  0  0  0  0  0  0  0  0  0  0  0
    1.8694    2.1090    1.0385 H   0  0  0  0  0  0  0  0  0  0  0  0
    2.8502    0.6672    1.3634 H   0  0  0  0  0  0  0  0  0  0  0  0
   -1.1252   -1.4460   -0.8334 H   0  0  0  0  0  0  0  0  0  0  0  0
   -2.0906    2.4175    0.8464 H   0  0  0  0  0  0  0  0  0  0  0  0
    3.1636   -3.7330    1.1261 H   0  0  0  0  0  0  0  0  0  0  0  0
    2.4316   -2.5287    2.2086 H   0  0  0  0  0  0  0  0  0  0  0  0
    1.3976   -3.5859    1.2607 H   0  0  0  0  0  0  0  0  0  0  0  0
    4.2215    2.7276    1.5262 H   0  0  0  0  0  0  0  0  0  0  0  0
    4.7653    1.7147    0.1713 H   0  0  0  0  0  0  0  0  0  0  0  0
    3.7930    3.1425   -0.1477 H   0  0  0  0  0  0  0  0  0  0  0  0
   -3.4418   -2.1471   -0.5552 H   0  0  0  0  0  0  0  0  0  0  0  0
   -4.4397    1.6808    1.1223 H   0  0  0  0  0  0  0  0  0  0  0  0
   -5.1169   -0.6007    0.4218 H   0  0  0  0  0  0  0  0  0  0  0  0
  1  2  1  0  0  0  0
  1  3  1  0  0  0  0
  1  4  1  0  0  0  0
  1  5  2  0  0  0  0
  2  7  1  0  0  0  0
  3  8  1  0  0  0  0
  4  6  1  0  0  0  0
  6  9  2  0  0  0  0
  6 10  1  0  0  0  0
  7 11  1  0  0  0  0
  7 16  1  0  0  0  0
  7 17  1  0  0  0  0
  8 12  1  0  0  0  0
  8 18  1  0  0  0  0
  8 19  1  0  0  0  0
  9 13  1  0  0  0  0
  9 20  1  0  0  0  0
 10 14  2  0  0  0  0
 10 21  1  0  0  0  0
 11 22  1  0  0  0  0
 11 23  1  0  0  0  0
 11 24  1  0  0  0  0
 12 25  1  0  0  0  0
 12 26  1  0  0  0  0
 12 27  1  0  0  0  0
 13 15  2  0  0  0  0
 13 28  1  0  0  0  0
 14 15  1  0  0  0  0
 14 29  1  0  0  0  0
 15 30  1  0  0  0  0
M  END
> <PUBCHEM_COMPOUND_CID>
17280

> <PUBCHEM_CONFORMER_RMSD>
0.6

> <PUBCHEM_CONFORMER_DIVERSEORDER>
1
84
72
86
48
95
10
18
32
45
49
87
4
26
51
21
74
14
40
5
75
19
11
13
77
9
53
28
6
70
65
85
25
54
7
61
33
50
23
42
22
63
67
35
78
41
31
20
68
90
16
36
15
39
52
82
12
24
89
30
2
73
98
29
17
44
46
58
76
3
27
96
37
47
59
8
43
97
94
92
80
60
64
91
66
83
55
38
93
88
56
69
81
34
57
62
79
71

> <PUBCHEM_MMFF94_PARTIAL_CHARGES>
18
1 1.51
10 -0.15
13 -0.15
14 -0.15
15 -0.15
2 -0.55
20 0.15
21 0.15
28 0.15
29 0.15
3 -0.55
30 0.15
4 -0.35
5 -0.7
6 0.08
7 0.28
8 0.28
9 -0.15

> <PUBCHEM_EFFECTIVE_ROTOR_COUNT>
6

> <PUBCHEM_PHARMACOPHORE_FEATURES>
2
1 5 acceptor
6 6 9 10 13 14 15 rings

> <PUBCHEM_HEAVY_ATOM_COUNT>
15

> <PUBCHEM_ATOM_DEF_STEREO_COUNT>
0

> <PUBCHEM_ATOM_UDEF_STEREO_COUNT>
0

> <PUBCHEM_BOND_DEF_STEREO_COUNT>
0

> <PUBCHEM_BOND_UDEF_STEREO_COUNT>
0

> <PUBCHEM_ISOTOPIC_ATOM_COUNT>
0

> <PUBCHEM_COMPONENT_COUNT>
1

> <PUBCHEM_CACTVS_TAUTO_COUNT>
1

> <PUBCHEM_CONFORMER_ID>
0000438000000001

> <PUBCHEM_MMFF94_ENERGY>
23.0542

> <PUBCHEM_FEATURE_SELFOVERLAP>
10.148

> <PUBCHEM_SHAPE_FINGERPRINT>
10922049 32 18114738210367916460
11578080 2 17701828901994470796
12251169 10 18262804093460612339
12346645 44 18261111820590606208
12932764 1 18340190999268636573
13533116 47 18343017839753920331
14178342 30 18129654197705005867
14787075 74 17685499740902832909
15375462 189 18127966623429228634
15536298 74 18408321103148588058
15775835 57 18114179679535000480
15852999 172 17631737053936223907
17041 49 18047747384373662513
170605 34 18113892728522440724
201361 129 18408886226577065896
204376 136 18127130779975499196
20645477 70 18409732897944074247
21501502 16 18260552242497521289
21524375 3 18115588119829120268
22445834 79 18269552904654113547
2255824 54 18200864158551515318
23559900 14 17677321865473211511
298252 57 17241323543825767732
3248919 1 17203313499736087389
34934 24 18260832553775627509
474 4 18269551646112852556
5104073 3 18338786914862685337
633830 44 18262516983988216500
68419 9 17098940125123283046
7097593 13 18122347040700136931
7364860 26 18335419105898100646
81539 233 18409731716722449244

> <PUBCHEM_SHAPE_MULTIPOLES>
289.07
7.13
2.62
1.16
2.49
1.21
-0.44
-1.88
1.93
-3.44
1.11
-0.48
0.27
-0.59

> <PUBCHEM_SHAPE_SELFOVERLAP>
562.27

> <PUBCHEM_SHAPE_VOLUME>
174.6

> <PUBCHEM_COORDINATE_TYPE>
2
5
10

$$$$

