5280938
  -OEChem-07051212512D

 83 82  0     1  0  0  0  0  0999 V2000
    7.7331    2.1550    0.0000 S   0  0  0  0  0  0  0  0  0  0  0  0
    6.8671    4.6550    0.0000 O   0  0  0  0  0  0  0  0  0  0  0  0
    7.7331   -0.8450    0.0000 O   0  0  0  0  0  0  0  0  0  0  0  0
    2.5369    3.1550    0.0000 O   0  0  0  0  0  0  0  0  0  0  0  0
    6.8671   -1.3450    0.0000 O   0  0  0  0  0  0  0  0  0  0  0  0
    8.5991    0.6550    0.0000 O   0  0  0  0  0  0  0  0  0  0  0  0
    3.4030    4.6550    0.0000 O   0  0  0  0  0  0  0  0  0  0  0  0
    3.4030   -4.3450    0.0000 O   0  0  0  0  0  0  0  0  0  0  0  0
    5.1350   -4.3450    0.0000 O   0  0  0  0  0  0  0  0  0  0  0  0
    6.0010    0.1550    0.0000 N   0  0  0  0  0  0  0  0  0  0  0  0
    3.4030   -2.3450    0.0000 N   0  0  0  0  0  0  0  0  0  0  0  0
    6.8671    3.6550    0.0000 C   0  0  2  0  0  0  0  0  0  0  0  0
    7.7331    3.1550    0.0000 C   0  0  1  0  0  0  0  0  0  0  0  0
    6.0010    3.1550    0.0000 C   0  0  0  0  0  0  0  0  0  0  0  0
    5.1350    3.6550    0.0000 C   0  0  0  0  0  0  0  0  0  0  0  0
    6.8671    1.6550    0.0000 C   0  0  0  0  0  0  0  0  0  0  0  0
    6.8671    0.6550    0.0000 C   0  0  1  0  0  0  0  0  0  0  0  0
    4.2690    3.1550    0.0000 C   0  0  0  0  0  0  0  0  0  0  0  0
    8.5991    3.6550    0.0000 C   0  0  0  0  0  0  0  0  0  0  0  0
    5.1350   -1.3450    0.0000 C   0  0  0  0  0  0  0  0  0  0  0  0
    5.1350   -2.3450    0.0000 C   0  0  0  0  0  0  0  0  0  0  0  0
    6.0010   -0.8450    0.0000 C   0  0  0  0  0  0  0  0  0  0  0  0
    9.4651    3.1550    0.0000 C   0  0  0  0  0  0  0  0  0  0  0  0
    7.7331    0.1550    0.0000 C   0  0  0  0  0  0  0  0  0  0  0  0
    3.4030    3.6550    0.0000 C   0  0  0  0  0  0  0  0  0  0  0  0
    4.2690   -2.8450    0.0000 C   0  0  1  0  0  0  0  0  0  0  0  0
   12.9292   -0.8450    0.0000 C   0  0  0  0  0  0  0  0  0  0  0  0
   13.7953   -1.3450    0.0000 C   0  0  0  0  0  0  0  0  0  0  0  0
   12.9292    0.1550    0.0000 C   0  0  0  0  0  0  0  0  0  0  0  0
   13.7953   -2.3450    0.0000 C   0  0  0  0  0  0  0  0  0  0  0  0
   10.3312    3.6550    0.0000 C   0  0  0  0  0  0  0  0  0  0  0  0
    4.2690   -3.8450    0.0000 C   0  0  0  0  0  0  0  0  0  0  0  0
   13.7953    0.6550    0.0000 C   0  0  0  0  0  0  0  0  0  0  0  0
   14.6613   -2.8450    0.0000 C   0  0  0  0  0  0  0  0  0  0  0  0
   11.1972    3.1550    0.0000 C   0  0  0  0  0  0  0  0  0  0  0  0
   13.7953    1.6550    0.0000 C   0  0  0  0  0  0  0  0  0  0  0  0
   12.9292    2.1550    0.0000 C   0  0  0  0  0  0  0  0  0  0  0  0
   12.0632    3.6550    0.0000 C   0  0  0  0  0  0  0  0  0  0  0  0
   12.9292    3.1550    0.0000 C   0  0  0  0  0  0  0  0  0  0  0  0
    6.3301    3.9650    0.0000 H   0  0  0  0  0  0  0  0  0  0  0  0
    8.2700    2.8450    0.0000 H   0  0  0  0  0  0  0  0  0  0  0  0
    5.6025    2.6800    0.0000 H   0  0  0  0  0  0  0  0  0  0  0  0
    6.3996    2.6800    0.0000 H   0  0  0  0  0  0  0  0  0  0  0  0
    5.5335    4.1300    0.0000 H   0  0  0  0  0  0  0  0  0  0  0  0
    4.7365    4.1300    0.0000 H   0  0  0  0  0  0  0  0  0  0  0  0
    6.6550    2.2376    0.0000 H   0  0  0  0  0  0  0  0  0  0  0  0
    6.2565    1.5473    0.0000 H   0  0  0  0  0  0  0  0  0  0  0  0
    6.3301    0.9650    0.0000 H   0  0  0  0  0  0  0  0  0  0  0  0
    3.8705    2.6800    0.0000 H   0  0  0  0  0  0  0  0  0  0  0  0
    4.6675    2.6800    0.0000 H   0  0  0  0  0  0  0  0  0  0  0  0
    8.5991    4.2750    0.0000 H   0  0  0  0  0  0  0  0  0  0  0  0
    6.3301    4.9650    0.0000 H   0  0  0  0  0  0  0  0  0  0  0  0
    5.4641    0.4650    0.0000 H   0  0  0  0  0  0  0  0  0  0  0  0
    4.9230   -0.7624    0.0000 H   0  0  0  0  0  0  0  0  0  0  0  0
    4.5244   -1.4527    0.0000 H   0  0  0  0  0  0  0  0  0  0  0  0
    5.3471   -2.9276    0.0000 H   0  0  0  0  0  0  0  0  0  0  0  0
    5.7456   -2.2373    0.0000 H   0  0  0  0  0  0  0  0  0  0  0  0
    9.4651    2.5350    0.0000 H   0  0  0  0  0  0  0  0  0  0  0  0
    4.2690   -2.2250    0.0000 H   0  0  0  0  0  0  0  0  0  0  0  0
   12.3187   -0.7373    0.0000 H   0  0  0  0  0  0  0  0  0  0  0  0
   12.7172   -1.4276    0.0000 H   0  0  0  0  0  0  0  0  0  0  0  0
   14.4058   -1.4527    0.0000 H   0  0  0  0  0  0  0  0  0  0  0  0
   14.0073   -0.7624    0.0000 H   0  0  0  0  0  0  0  0  0  0  0  0
   12.7172    0.7376    0.0000 H   0  0  0  0  0  0  0  0  0  0  0  0
   12.3187    0.0473    0.0000 H   0  0  0  0  0  0  0  0  0  0  0  0
   13.1847   -2.2373    0.0000 H   0  0  0  0  0  0  0  0  0  0  0  0
   13.5832   -2.9276    0.0000 H   0  0  0  0  0  0  0  0  0  0  0  0
   10.3312    4.2750    0.0000 H   0  0  0  0  0  0  0  0  0  0  0  0
    2.8660   -2.6550    0.0000 H   0  0  0  0  0  0  0  0  0  0  0  0
    3.4030   -1.7250    0.0000 H   0  0  0  0  0  0  0  0  0  0  0  0
   14.3322    0.3450    0.0000 H   0  0  0  0  0  0  0  0  0  0  0  0
   14.3513   -3.3819    0.0000 H   0  0  0  0  0  0  0  0  0  0  0  0
   15.1982   -3.1550    0.0000 H   0  0  0  0  0  0  0  0  0  0  0  0
   14.9713   -2.3081    0.0000 H   0  0  0  0  0  0  0  0  0  0  0  0
    8.2700   -1.1550    0.0000 H   0  0  0  0  0  0  0  0  0  0  0  0
    2.0000    3.4650    0.0000 H   0  0  0  0  0  0  0  0  0  0  0  0
   11.1972    2.5350    0.0000 H   0  0  0  0  0  0  0  0  0  0  0  0
   14.3322    1.9650    0.0000 H   0  0  0  0  0  0  0  0  0  0  0  0
   12.3187    2.2627    0.0000 H   0  0  0  0  0  0  0  0  0  0  0  0
   12.7172    1.5724    0.0000 H   0  0  0  0  0  0  0  0  0  0  0  0
   12.0632    4.2750    0.0000 H   0  0  0  0  0  0  0  0  0  0  0  0
   13.4662    3.4650    0.0000 H   0  0  0  0  0  0  0  0  0  0  0  0
    3.4030   -4.9650    0.0000 H   0  0  0  0  0  0  0  0  0  0  0  0
  1 13  1  0  0  0  0
  1 16  1  0  0  0  0
 12  2  1  6  0  0  0
  2 52  1  0  0  0  0
  3 24  1  0  0  0  0
  3 75  1  0  0  0  0
  4 25  1  0  0  0  0
  4 76  1  0  0  0  0
  5 22  2  0  0  0  0
  6 24  2  0  0  0  0
  7 25  2  0  0  0  0
  8 32  1  0  0  0  0
  8 83  1  0  0  0  0
  9 32  2  0  0  0  0
 17 10  1  1  0  0  0
 10 22  1  0  0  0  0
 10 53  1  0  0  0  0
 26 11  1  1  0  0  0
 11 69  1  0  0  0  0
 11 70  1  0  0  0  0
 12 13  1  0  0  0  0
 12 14  1  0  0  0  0
 12 40  1  0  0  0  0
 13 19  1  1  0  0  0
 13 41  1  0  0  0  0
 14 15  1  0  0  0  0
 14 42  1  0  0  0  0
 14 43  1  0  0  0  0
 15 18  1  0  0  0  0
 15 44  1  0  0  0  0
 15 45  1  0  0  0  0
 16 17  1  0  0  0  0
 16 46  1  0  0  0  0
 16 47  1  0  0  0  0
 17 24  1  0  0  0  0
 17 48  1  0  0  0  0
 18 25  1  0  0  0  0
 18 49  1  0  0  0  0
 18 50  1  0  0  0  0
 19 23  2  0  0  0  0
 19 51  1  0  0  0  0
 20 21  1  0  0  0  0
 20 22  1  0  0  0  0
 20 54  1  0  0  0  0
 20 55  1  0  0  0  0
 21 26  1  0  0  0  0
 21 56  1  0  0  0  0
 21 57  1  0  0  0  0
 23 31  1  0  0  0  0
 23 58  1  0  0  0  0
 26 32  1  0  0  0  0
 26 59  1  0  0  0  0
 27 28  1  0  0  0  0
 27 29  1  0  0  0  0
 27 60  1  0  0  0  0
 27 61  1  0  0  0  0
 28 30  1  0  0  0  0
 28 62  1  0  0  0  0
 28 63  1  0  0  0  0
 29 33  1  0  0  0  0
 29 64  1  0  0  0  0
 29 65  1  0  0  0  0
 30 34  1  0  0  0  0
 30 66  1  0  0  0  0
 30 67  1  0  0  0  0
 31 35  2  0  0  0  0
 31 68  1  0  0  0  0
 33 36  2  0  0  0  0
 33 71  1  0  0  0  0
 34 72  1  0  0  0  0
 34 73  1  0  0  0  0
 34 74  1  0  0  0  0
 35 38  1  0  0  0  0
 35 77  1  0  0  0  0
 36 37  1  0  0  0  0
 36 78  1  0  0  0  0
 37 39  1  0  0  0  0
 37 79  1  0  0  0  0
 37 80  1  0  0  0  0
 38 39  2  0  0  0  0
 38 81  1  0  0  0  0
 39 82  1  0  0  0  0
M  END
> <PUBCHEM_COMPOUND_CID>
5280938

> <PUBCHEM_COMPOUND_CANONICALIZED>
1

> <PUBCHEM_CACTVS_COMPLEXITY>
857

> <PUBCHEM_CACTVS_HBOND_ACCEPTOR>
10

> <PUBCHEM_CACTVS_HBOND_DONOR>
6

> <PUBCHEM_CACTVS_ROTATABLE_BOND>
23

> <PUBCHEM_CACTVS_SUBSKEYS>
AAADcfB7PABAAAAAAAAAAAAAAAAAAAAAAAAAAAAAAAAAAAAAAAAAHgQQCAAACDzlwAaCCALAAgiIACHSGAAAAAAgABAICIGIAAgKEBIggSAEQAAE1gC4gAOc/ybAAAAAAAAAAAAAAAAAAAAAAAAAAAAAAA==

> <PUBCHEM_IUPAC_OPENEYE_NAME>
(5S,6R,7E,9E,11Z,14Z)-6-[(2R)-2-[[(4S)-4-amino-4-carboxy-butanoyl]amino]-2-carboxy-ethyl]sulfanyl-5-hydroxy-icosa-7,9,11,14-tetraenoic acid

> <PUBCHEM_IUPAC_CAS_NAME>
(5S,6R,7E,9E,11Z,14Z)-6-[[(2R)-2-[[(4S)-4-amino-4-carboxy-1-oxobutyl]amino]-2-carboxyethyl]thio]-5-hydroxyeicosa-7,9,11,14-tetraenoic acid

> <PUBCHEM_IUPAC_NAME>
(5S,6R,7E,9E,11Z,14Z)-6-[(2R)-2-[[(4S)-4-amino-4-carboxybutanoyl]amino]-2-carboxyethyl]sulfanyl-5-hydroxyicosa-7,9,11,14-tetraenoic acid

> <PUBCHEM_IUPAC_SYSTEMATIC_NAME>
(5S,6R,7E,9E,11Z,14Z)-6-[(2R)-2-[[(4S)-4-azanyl-5-oxidanyl-5-oxidanylidene-pentanoyl]amino]-3-oxidanyl-3-oxidanylidene-propyl]sulfanyl-5-oxidanyl-icosa-7,9,11,14-tetraenoic acid

> <PUBCHEM_IUPAC_TRADITIONAL_NAME>
(5S,6R,7E,9E,11Z,14Z)-6-[[(2R)-2-[[(4S)-4-amino-4-carboxy-butanoyl]amino]-2-carboxy-ethyl]thio]-5-hydroxy-eicosa-7,9,11,14-tetraenoic acid

> <PUBCHEM_IUPAC_INCHI>
InChI=1S/C28H44N2O8S/c1-2-3-4-5-6-7-8-9-10-11-12-13-16-24(23(31)15-14-17-26(33)34)39-20-22(28(37)38)30-25(32)19-18-21(29)27(35)36/h6-7,9-13,16,21-24,31H,2-5,8,14-15,17-20,29H2,1H3,(H,30,32)(H,33,34)(H,35,36)(H,37,38)/b7-6-,10-9-,12-11+,16-13+/t21-,22-,23-,24+/m0/s1

> <PUBCHEM_IUPAC_INCHIKEY>
PYSODLWHFWCFLV-VJBFNVCUSA-N

> <PUBCHEM_XLOGP3_AA>
1.3

> <PUBCHEM_EXACT_MASS>
568.281837

> <PUBCHEM_MOLECULAR_FORMULA>
C28H44N2O8S

> <PUBCHEM_MOLECULAR_WEIGHT>
568.72256

> <PUBCHEM_OPENEYE_CAN_SMILES>
CCCCCC=CCC=CC=CC=CC(C(CCCC(=O)O)O)SCC(C(=O)O)NC(=O)CCC(C(=O)O)N

> <PUBCHEM_OPENEYE_ISO_SMILES>
CCCCC/C=C\C/C=C\C=C\C=C\[C@H]([C@H](CCCC(=O)O)O)SC[C@@H](C(=O)O)NC(=O)CC[C@@H](C(=O)O)N

> <PUBCHEM_CACTVS_TPSA>
213

> <PUBCHEM_MONOISOTOPIC_WEIGHT>
568.281837

> <PUBCHEM_TOTAL_CHARGE>
0

> <PUBCHEM_HEAVY_ATOM_COUNT>
39

> <PUBCHEM_ATOM_DEF_STEREO_COUNT>
4

> <PUBCHEM_ATOM_UDEF_STEREO_COUNT>
0

> <PUBCHEM_BOND_DEF_STEREO_COUNT>
4

> <PUBCHEM_BOND_UDEF_STEREO_COUNT>
0

> <PUBCHEM_ISOTOPIC_ATOM_COUNT>
0

> <PUBCHEM_COMPONENT_COUNT>
1

> <PUBCHEM_CACTVS_TAUTO_COUNT>
2

> <PUBCHEM_COORDINATE_TYPE>
1
5
255

> <PUBCHEM_BONDANNOTATIONS>
17  10  5
26  11  5
13  19  5
12  2  6

$$$$

