440881
  -OEChem-07051212513D

 67 69  0     1  0  0  0  0  0999 V2000
   -3.9727    1.2165   -1.0755 P   0  0  1  0  0  0  0  0  0  0  0  0
   -2.2813    3.2483    0.2161 P   0  0  2  0  0  0  0  0  0  0  0  0
   -2.6880   -2.0783   -1.8592 O   0  0  0  0  0  0  0  0  0  0  0  0
    0.9165    0.3878    1.2827 O   0  0  0  0  0  0  0  0  0  0  0  0
   -1.7132   -3.0436    2.0341 O   0  0  0  0  0  0  0  0  0  0  0  0
   -2.9478    0.0085   -0.7658 O   0  0  0  0  0  0  0  0  0  0  0  0
   -3.9349   -1.2999    1.4980 O   0  0  0  0  0  0  0  0  0  0  0  0
    1.3126    0.4859    4.3168 O   0  0  0  0  0  0  0  0  0  0  0  0
   -1.1345    2.1664    0.5786 O   0  0  0  0  0  0  0  0  0  0  0  0
   -3.0626    2.5514   -1.0154 O   0  0  0  0  0  0  0  0  0  0  0  0
   -4.3116    1.0697   -2.6506 O   0  0  0  0  0  0  0  0  0  0  0  0
    0.7340   -5.1619    0.1155 O   0  0  0  0  0  0  0  0  0  0  0  0
   -5.1794    1.2536   -0.1832 O   0  0  0  0  0  0  0  0  0  0  0  0
    4.8423   -0.7759    0.7847 O   0  0  0  0  0  0  0  0  0  0  0  0
   -1.4696    4.4497   -0.5015 O   0  0  0  0  0  0  0  0  0  0  0  0
   -3.1619    3.6705    1.3557 O   0  0  0  0  0  0  0  0  0  0  0  0
    4.8039    1.3252   -3.3059 O   0  0  0  0  0  0  0  0  0  0  0  0
    0.4105   -2.8579    0.0441 N   0  0  0  0  0  0  0  0  0  0  0  0
    3.0152    0.5819    0.2667 N   0  0  0  0  0  0  0  0  0  0  0  0
    4.8106    0.2786   -1.2518 N   0  0  0  0  0  0  0  0  0  0  0  0
   -1.0036   -2.8666   -0.2595 C   0  0  1  0  0  0  0  0  0  0  0  0
   -1.7923   -2.2061    0.8791 C   0  0  1  0  0  0  0  0  0  0  0  0
   -1.2802   -2.1774   -1.6068 C   0  0  1  0  0  0  0  0  0  0  0  0
   -3.2600   -2.0423    0.4876 C   0  0  2  0  0  0  0  0  0  0  0  0
    1.3522    1.5098    3.3252 C   0  0  2  0  0  0  0  0  0  0  0  0
    0.2958    1.2428    2.2622 C   0  0  1  0  0  0  0  0  0  0  0  0
    2.6471    1.4193    2.5513 C   0  0  0  0  0  0  0  0  0  0  0  0
    2.3330    0.3596    1.5079 C   0  0  1  0  0  0  0  0  0  0  0  0
   -3.3961   -1.3419   -0.8620 C   0  0  2  0  0  0  0  0  0  0  0  0
   -0.1648    2.5096    1.5531 C   0  0  0  0  0  0  0  0  0  0  0  0
   -0.6803   -2.9516   -2.7784 C   0  0  0  0  0  0  0  0  0  0  0  0
    2.4234    1.4150   -0.6741 C   0  0  0  0  0  0  0  0  0  0  0  0
    1.1565   -4.0122    0.2052 C   0  0  0  0  0  0  0  0  0  0  0  0
    4.2599   -0.0266   -0.0022 C   0  0  0  0  0  0  0  0  0  0  0  0
    2.9531    1.7050   -1.8689 C   0  0  0  0  0  0  0  0  0  0  0  0
    2.6051   -3.7182    0.4895 C   0  0  0  0  0  0  0  0  0  0  0  0
    4.2642    1.1006   -2.2258 C   0  0  0  0  0  0  0  0  0  0  0  0
    2.2989    2.6049   -2.8675 C   0  0  0  0  0  0  0  0  0  0  0  0
   -1.3375   -3.9110   -0.3266 H   0  0  0  0  0  0  0  0  0  0  0  0
   -1.3643   -1.2362    1.1566 H   0  0  0  0  0  0  0  0  0  0  0  0
   -0.8499   -1.1673   -1.6150 H   0  0  0  0  0  0  0  0  0  0  0  0
   -3.7321   -3.0316    0.4359 H   0  0  0  0  0  0  0  0  0  0  0  0
    1.2310    2.4692    3.8369 H   0  0  0  0  0  0  0  0  0  0  0  0
   -0.5694    0.6995    2.6579 H   0  0  0  0  0  0  0  0  0  0  0  0
    3.5107    1.1379    3.1621 H   0  0  0  0  0  0  0  0  0  0  0  0
    2.8654    2.3854    2.0806 H   0  0  0  0  0  0  0  0  0  0  0  0
    2.5811   -0.6354    1.8954 H   0  0  0  0  0  0  0  0  0  0  0  0
   -4.4528   -1.3389   -1.1516 H   0  0  0  0  0  0  0  0  0  0  0  0
    0.6495    3.0491    1.0647 H   0  0  0  0  0  0  0  0  0  0  0  0
   -0.6134    3.1892    2.2867 H   0  0  0  0  0  0  0  0  0  0  0  0
    0.8692   -1.9562    0.1397 H   0  0  0  0  0  0  0  0  0  0  0  0
   -0.9343   -2.4634   -3.7259 H   0  0  0  0  0  0  0  0  0  0  0  0
    0.4093   -3.0169   -2.7076 H   0  0  0  0  0  0  0  0  0  0  0  0
   -1.0914   -3.9659   -2.8286 H   0  0  0  0  0  0  0  0  0  0  0  0
   -0.7724   -3.1324    2.2638 H   0  0  0  0  0  0  0  0  0  0  0  0
   -3.8064   -1.7692    2.3400 H   0  0  0  0  0  0  0  0  0  0  0  0
    0.4483    0.5431    4.7587 H   0  0  0  0  0  0  0  0  0  0  0  0
    1.4682    1.8493   -0.4282 H   0  0  0  0  0  0  0  0  0  0  0  0
    5.7069   -0.1489   -1.4677 H   0  0  0  0  0  0  0  0  0  0  0  0
    3.0229   -3.0968   -0.3076 H   0  0  0  0  0  0  0  0  0  0  0  0
    2.6938   -3.1955    1.4457 H   0  0  0  0  0  0  0  0  0  0  0  0
    3.1689   -4.6536    0.5417 H   0  0  0  0  0  0  0  0  0  0  0  0
    2.1043    2.0643   -3.7995 H   0  0  0  0  0  0  0  0  0  0  0  0
    2.9430    3.4618   -3.0899 H   0  0  0  0  0  0  0  0  0  0  0  0
    1.3421    2.9941   -2.5033 H   0  0  0  0  0  0  0  0  0  0  0  0
   -4.9833    0.4130   -2.9331 H   0  0  0  0  0  0  0  0  0  0  0  0
   -0.9697    5.0837    0.0555 H   0  0  0  0  0  0  0  0  0  0  0  0
  1  6  1  0  0  0  0
  1 10  1  0  0  0  0
  1 11  1  0  0  0  0
  1 13  2  0  0  0  0
  2  9  1  0  0  0  0
  2 10  1  0  0  0  0
  2 15  1  0  0  0  0
  2 16  2  0  0  0  0
  3 23  1  0  0  0  0
  3 29  1  0  0  0  0
  4 26  1  0  0  0  0
  4 28  1  0  0  0  0
  5 22  1  0  0  0  0
  5 55  1  0  0  0  0
  6 29  1  0  0  0  0
  7 24  1  0  0  0  0
  7 56  1  0  0  0  0
  8 25  1  0  0  0  0
  8 57  1  0  0  0  0
  9 30  1  0  0  0  0
 11 66  1  0  0  0  0
 12 33  2  0  0  0  0
 14 34  2  0  0  0  0
 15 67  1  0  0  0  0
 17 37  2  0  0  0  0
 18 21  1  0  0  0  0
 18 33  1  0  0  0  0
 18 51  1  0  0  0  0
 19 28  1  0  0  0  0
 19 32  1  0  0  0  0
 19 34  1  0  0  0  0
 20 34  1  0  0  0  0
 20 37  1  0  0  0  0
 20 59  1  0  0  0  0
 21 22  1  0  0  0  0
 21 23  1  0  0  0  0
 21 39  1  0  0  0  0
 22 24  1  0  0  0  0
 22 40  1  0  0  0  0
 23 31  1  0  0  0  0
 23 41  1  0  0  0  0
 24 29  1  0  0  0  0
 24 42  1  0  0  0  0
 25 26  1  0  0  0  0
 25 27  1  0  0  0  0
 25 43  1  0  0  0  0
 26 30  1  0  0  0  0
 26 44  1  0  0  0  0
 27 28  1  0  0  0  0
 27 45  1  0  0  0  0
 27 46  1  0  0  0  0
 28 47  1  0  0  0  0
 29 48  1  0  0  0  0
 30 49  1  0  0  0  0
 30 50  1  0  0  0  0
 31 52  1  0  0  0  0
 31 53  1  0  0  0  0
 31 54  1  0  0  0  0
 32 35  2  0  0  0  0
 32 58  1  0  0  0  0
 33 36  1  0  0  0  0
 35 37  1  0  0  0  0
 35 38  1  0  0  0  0
 36 60  1  0  0  0  0
 36 61  1  0  0  0  0
 36 62  1  0  0  0  0
 38 63  1  0  0  0  0
 38 64  1  0  0  0  0
 38 65  1  0  0  0  0
M  END
> <PUBCHEM_COMPOUND_CID>
440881

> <PUBCHEM_CONFORMER_RMSD>
1.6

> <PUBCHEM_CONFORMER_DIVERSEORDER>
1
22
178
78
93
54
218
96
224
182
175
37
8
166
126
75
5
121
134
165
249
174
219
242
191
106
124
147
215
180
41
220
132
109
112
64
42
2
167
172
33
29
69
50
241
91
127
30
111
82
133
162
245
80
49
250
207
51
45
52
57
177
163
125
170
76
195
100
92
59
159
148
110
95
130
15
236
229
243
193
18
223
55
25
84
233
142
228
71
102
40
123
238
113
153
231
119
196
34
204
17
186
213
120
21
98
176
118
58
235
216
144
115
73
214
143
155
234
43
226
210
128
173
10
164
168
11
135
70
99
53
108
77
181
246
88
86
146
131
107
19
9
44
152
63
66
141
14
203
187
136
197
137
47
12
114
200
27
158
61
145
65
36
74
105
129
157
217
185
209
68
87
225
97
94
23
139
230
90
81
240
227
205
39
4
101
26
188
20
116
72
201
212
189
31
122
89
35
161
156
85
239
104
154
222
199
16
247
46
169
184
56
237
194
171
232
13
179
183
150
198
60
140
149
151
28
79
192
6
160
190
138
221
83
67
24
117
7
202
211
208
103
38
62
3
248
206
244
32
48

> <PUBCHEM_MMFF94_PARTIAL_CHARGES>
44
1 1.51
10 -0.54
11 -0.77
12 -0.57
13 -0.7
14 -0.57
15 -0.77
16 -0.7
17 -0.57
18 -0.73
19 -0.47
2 1.51
20 -0.49
21 0.3
22 0.28
23 0.28
24 0.28
25 0.28
26 0.28
28 0.58
29 0.56
3 -0.56
30 0.28
32 -0.04
33 0.57
34 0.69
35 -0.12
36 0.06
37 0.62
38 0.14
4 -0.56
5 -0.68
51 0.37
55 0.4
56 0.4
57 0.4
58 0.15
59 0.37
6 -0.55
66 0.5
67 0.5
7 -0.68
8 -0.68
9 -0.55

> <PUBCHEM_EFFECTIVE_ROTOR_COUNT>
12.2

> <PUBCHEM_PHARMACOPHORE_FEATURES>
20
1 11 acceptor
1 12 acceptor
1 13 acceptor
1 14 acceptor
1 15 acceptor
1 16 acceptor
1 17 acceptor
1 18 donor
1 20 donor
1 3 acceptor
1 4 acceptor
1 5 acceptor
1 5 donor
1 7 acceptor
1 7 donor
1 8 acceptor
1 8 donor
5 4 25 26 27 28 rings
6 19 20 32 34 35 37 rings
6 3 21 22 23 24 29 rings

> <PUBCHEM_HEAVY_ATOM_COUNT>
38

> <PUBCHEM_ATOM_DEF_STEREO_COUNT>
8

> <PUBCHEM_ATOM_UDEF_STEREO_COUNT>
0

> <PUBCHEM_BOND_DEF_STEREO_COUNT>
0

> <PUBCHEM_BOND_UDEF_STEREO_COUNT>
0

> <PUBCHEM_ISOTOPIC_ATOM_COUNT>
0

> <PUBCHEM_COMPONENT_COUNT>
1

> <PUBCHEM_CACTVS_TAUTO_COUNT>
6

> <PUBCHEM_CONFORMER_ID>
0006BA3100000001

> <PUBCHEM_MMFF94_ENERGY>
43.8947

> <PUBCHEM_FEATURE_SELFOVERLAP>
101.518

> <PUBCHEM_SHAPE_FINGERPRINT>
12788726 201 18265316349155802676
13617811 41 18340215193252841381
14932701 244 17127875860635662492
15297060 5 18410287008469951112
15439362 3 17838327846134273804
15664445 248 16107550867013670154
18336668 15 17832158486179631122
20764821 26 18191047641218160709
21792965 302 17330249699228303084
25265897 201 12237917798951513281
3493558 16 18197495336196241311
35225 105 18048633466387154157
574716 61 17561085782636479652

> <PUBCHEM_SHAPE_MULTIPOLES>
686.74
8.53
5.79
3.49
1.38
3.41
-0.71
-2.79
4.56
-2.66
-0.04
2.68
-1.62
-0.73

> <PUBCHEM_SHAPE_SELFOVERLAP>
1393.937

> <PUBCHEM_SHAPE_VOLUME>
400.6

> <PUBCHEM_COORDINATE_TYPE>
2
5
10

$$$$

