441124
  -OEChem-07051212523D

 33 33  0     1  0  0  0  0  0999 V2000
   -0.9656   -1.4343    1.9670 O   0  0  0  0  0  0  0  0  0  0  0  0
   -1.2987    2.3780   -1.4492 O   0  0  0  0  0  0  0  0  0  0  0  0
   -0.8103   -2.3889   -1.7548 O   0  0  0  0  0  0  0  0  0  0  0  0
   -2.6989   -2.0225   -0.5506 O   0  0  0  0  0  0  0  0  0  0  0  0
   -1.7597    0.5378   -0.0623 N   0  0  0  0  0  0  0  0  0  0  0  0
    2.7903   -0.1927    0.5285 N   0  0  0  0  0  0  0  0  0  0  0  0
    4.7637   -0.7733   -0.5375 N   0  0  0  0  0  0  0  0  0  0  0  0
    4.0529    1.3789   -0.7777 N   0  0  0  0  0  0  0  0  0  0  0  0
   -0.8006   -0.5158   -0.2775 C   0  0  1  0  0  0  0  0  0  0  0  0
   -2.8929    0.6057    0.8319 C   0  0  0  0  0  0  0  0  0  0  0  0
   -0.0492   -0.9094    1.0017 C   0  0  1  0  0  0  0  0  0  0  0  0
   -3.1495    2.0175    0.2709 C   0  0  0  0  0  0  0  0  0  0  0  0
   -1.9126    1.7636   -0.6074 C   0  0  0  0  0  0  0  0  0  0  0  0
    0.6953    0.2506    1.6762 C   0  0  0  0  0  0  0  0  0  0  0  0
   -1.5616   -1.6927   -0.8612 C   0  0  0  0  0  0  0  0  0  0  0  0
    1.8033    0.8498    0.8199 C   0  0  0  0  0  0  0  0  0  0  0  0
    3.7939    0.1476   -0.2179 C   0  0  0  0  0  0  0  0  0  0  0  0
   -0.1027   -0.1590   -1.0435 H   0  0  0  0  0  0  0  0  0  0  0  0
   -2.6295    0.5863    1.8923 H   0  0  0  0  0  0  0  0  0  0  0  0
   -3.6928   -0.1081    0.6265 H   0  0  0  0  0  0  0  0  0  0  0  0
    0.6553   -1.7192    0.7773 H   0  0  0  0  0  0  0  0  0  0  0  0
   -3.0261    2.8360    0.9842 H   0  0  0  0  0  0  0  0  0  0  0  0
   -4.0767    2.1370   -0.2946 H   0  0  0  0  0  0  0  0  0  0  0  0
    1.1242   -0.1150    2.6192 H   0  0  0  0  0  0  0  0  0  0  0  0
   -0.0096    1.0376    1.9701 H   0  0  0  0  0  0  0  0  0  0  0  0
    2.2741    1.6633    1.3852 H   0  0  0  0  0  0  0  0  0  0  0  0
    1.3870    1.2721   -0.1009 H   0  0  0  0  0  0  0  0  0  0  0  0
   -1.3362   -2.2588    1.6099 H   0  0  0  0  0  0  0  0  0  0  0  0
   -1.2949   -3.1618   -2.1154 H   0  0  0  0  0  0  0  0  0  0  0  0
    4.7115   -1.7277   -0.1983 H   0  0  0  0  0  0  0  0  0  0  0  0
    5.5566   -0.5281   -1.1202 H   0  0  0  0  0  0  0  0  0  0  0  0
    4.8769    1.5298   -1.3498 H   0  0  0  0  0  0  0  0  0  0  0  0
    3.4408    2.1752   -0.6407 H   0  0  0  0  0  0  0  0  0  0  0  0
  1 11  1  0  0  0  0
  1 28  1  0  0  0  0
  2 13  2  0  0  0  0
  3 15  1  0  0  0  0
  3 29  1  0  0  0  0
  4 15  2  0  0  0  0
  5  9  1  0  0  0  0
  5 10  1  0  0  0  0
  5 13  1  0  0  0  0
  6 16  1  0  0  0  0
  6 17  2  0  0  0  0
  7 17  1  0  0  0  0
  7 30  1  0  0  0  0
  7 31  1  0  0  0  0
  8 17  1  0  0  0  0
  8 32  1  0  0  0  0
  8 33  1  0  0  0  0
  9 11  1  0  0  0  0
  9 15  1  0  0  0  0
  9 18  1  0  0  0  0
 10 12  1  0  0  0  0
 10 19  1  0  0  0  0
 10 20  1  0  0  0  0
 11 14  1  0  0  0  0
 11 21  1  0  0  0  0
 12 13  1  0  0  0  0
 12 22  1  0  0  0  0
 12 23  1  0  0  0  0
 14 16  1  0  0  0  0
 14 24  1  0  0  0  0
 14 25  1  0  0  0  0
 16 26  1  0  0  0  0
 16 27  1  0  0  0  0
M  END
> <PUBCHEM_COMPOUND_CID>
441124

> <PUBCHEM_CONFORMER_RMSD>
0.8

> <PUBCHEM_CONFORMER_DIVERSEORDER>
2
78
52
113
63
89
20
42
96
24
9
50
97
119
86
77
122
129
44
90
53
74
3
72
40
73
46
84
112
66
127
104
59
126
76
27
57
26
70
107
55
64
23
98
13
15
101
92
114
62
103
94
17
11
45
51
19
65
54
68
58
61
79
99
117
87
111
80
109
75
85
12
6
18
21
5
93
81
115
116
49
10
30
108
125
35
8
34
39
83
41
1
36
123
128
60
7
29
14
105
22
28
38
4
33
82
106
100
69
121
16
118
43
56
120
91
25
124
95
102
88
37
110
32
31
67
48
71
47

> <PUBCHEM_MMFF94_PARTIAL_CHARGES>
22
1 -0.68
10 0.22
11 0.28
12 0.05
13 0.58
15 0.66
16 0.25
17 0.55
2 -0.57
28 0.4
29 0.5
3 -0.65
30 0.4
31 0.4
32 0.4
33 0.4
4 -0.57
5 -0.59
6 -0.7
7 -0.85
8 -0.85
9 0.36

> <PUBCHEM_EFFECTIVE_ROTOR_COUNT>
6.6

> <PUBCHEM_PHARMACOPHORE_FEATURES>
10
1 1 acceptor
1 1 donor
1 2 acceptor
1 3 acceptor
1 4 acceptor
1 7 donor
1 8 donor
3 3 4 15 anion
4 5 10 12 13 rings
4 6 7 8 17 cation

> <PUBCHEM_HEAVY_ATOM_COUNT>
17

> <PUBCHEM_ATOM_DEF_STEREO_COUNT>
2

> <PUBCHEM_ATOM_UDEF_STEREO_COUNT>
0

> <PUBCHEM_BOND_DEF_STEREO_COUNT>
0

> <PUBCHEM_BOND_UDEF_STEREO_COUNT>
0

> <PUBCHEM_ISOTOPIC_ATOM_COUNT>
0

> <PUBCHEM_COMPONENT_COUNT>
1

> <PUBCHEM_CACTVS_TAUTO_COUNT>
2

> <PUBCHEM_CONFORMER_ID>
0006BB2400000002

> <PUBCHEM_MMFF94_ENERGY>
37.3122

> <PUBCHEM_FEATURE_SELFOVERLAP>
50.859

> <PUBCHEM_SHAPE_FINGERPRINT>
10922049 32 18337948004063840857
10922523 26 18340203089759596372
11322862 65 18113059328725761623
11759241 127 17758132401466987760
12173636 292 18113341933152556129
12186901 62 18410299111987997423
13296908 3 17168149992640473810
14251751 93 18200599223403885364
15534591 1 18202001053231465088
15775835 57 18342177829327468977
16945 1 18263384537380053627
19868273 293 18338526321331158264
19873495 37 18272092737780209059
20511035 2 17119772833585199745
20645477 56 18260836977344146304
20871999 31 18261111833797040628
21524375 3 18269000958385682273
23419403 2 17398054738619454259
23526113 38 16226919694558608779
23557571 272 18043550338469814432
23559900 14 17676493869890317026
298252 57 18262805193098704627
347723 3 15358261618756233945
4175511 318 18408320012395628460
81228 2 18047780129610586987

> <PUBCHEM_SHAPE_MULTIPOLES>
306.45
6.52
2.38
1.51
8.88
0.34
-0.28
-1.79
1.32
-2.08
1.07
-0.24
0.32
-0.17

> <PUBCHEM_SHAPE_SELFOVERLAP>
614.872

> <PUBCHEM_SHAPE_VOLUME>
177.2

> <PUBCHEM_COORDINATE_TYPE>
2
5
10

$$$$

