17396129
  -OEChem-06241222543D

 50 52  0     1  0  0  0  0  0999 V2000
   -4.0715   -0.1229   -0.9278 S   0  0  0  0  0  0  0  0  0  0  0  0
   -3.7726    0.2257   -2.3052 O   0  0  0  0  0  0  0  0  0  0  0  0
   -5.2247   -0.9469   -0.6128 O   0  0  0  0  0  0  0  0  0  0  0  0
    1.7048   -1.9577   -1.3940 O   0  0  0  0  0  0  0  0  0  0  0  0
   -4.1054    1.2852    0.0212 N   0  0  0  0  0  0  0  0  0  0  0  0
    1.4825    0.2868   -0.8560 N   0  0  0  0  0  0  0  0  0  0  0  0
   -4.2374    1.1341    1.5000 C   0  0  0  0  0  0  0  0  0  0  0  0
   -3.0865    2.3344   -0.2575 C   0  0  0  0  0  0  0  0  0  0  0  0
   -3.1647    2.0401    2.0893 C   0  0  0  0  0  0  0  0  0  0  0  0
   -3.0077    3.1232    1.0400 C   0  0  0  0  0  0  0  0  0  0  0  0
   -2.6438   -0.9258   -0.2623 C   0  0  0  0  0  0  0  0  0  0  0  0
   -1.3853   -0.6802   -0.8115 C   0  0  0  0  0  0  0  0  0  0  0  0
   -2.7764   -1.8061    0.8117 C   0  0  0  0  0  0  0  0  0  0  0  0
   -0.2594   -1.3145   -0.2865 C   0  0  0  0  0  0  0  0  0  0  0  0
   -0.3921   -2.1946    0.7877 C   0  0  0  0  0  0  0  0  0  0  0  0
   -1.6506   -2.4408    1.3367 C   0  0  0  0  0  0  0  0  0  0  0  0
    2.7389    0.7204   -1.4236 C   0  0  2  0  0  0  0  0  0  0  0  0
    1.0429   -1.0408   -0.8791 C   0  0  0  0  0  0  0  0  0  0  0  0
    0.7970   -2.8882    1.3684 C   0  0  0  0  0  0  0  0  0  0  0  0
    3.8638    0.6092   -0.4172 C   0  0  0  0  0  0  0  0  0  0  0  0
    2.6099    2.1279   -2.0026 C   0  0  0  0  0  0  0  0  0  0  0  0
    5.1470    0.2629   -0.8404 C   0  0  0  0  0  0  0  0  0  0  0  0
    3.6169    0.8528    0.9338 C   0  0  0  0  0  0  0  0  0  0  0  0
    6.1837    0.1607    0.0875 C   0  0  0  0  0  0  0  0  0  0  0  0
    4.6535    0.7504    1.8617 C   0  0  0  0  0  0  0  0  0  0  0  0
    5.9371    0.4046    1.4387 C   0  0  0  0  0  0  0  0  0  0  0  0
   -5.2329    1.5033    1.7741 H   0  0  0  0  0  0  0  0  0  0  0  0
   -4.1585    0.1172    1.8762 H   0  0  0  0  0  0  0  0  0  0  0  0
   -3.4062    2.9678   -1.0895 H   0  0  0  0  0  0  0  0  0  0  0  0
   -2.1089    1.9068   -0.4865 H   0  0  0  0  0  0  0  0  0  0  0  0
   -3.4443    2.4357    3.0696 H   0  0  0  0  0  0  0  0  0  0  0  0
   -2.2246    1.4859    2.1990 H   0  0  0  0  0  0  0  0  0  0  0  0
   -2.0698    3.6769    1.1374 H   0  0  0  0  0  0  0  0  0  0  0  0
   -3.8387    3.8357    1.1049 H   0  0  0  0  0  0  0  0  0  0  0  0
   -1.2748   -0.0036   -1.6553 H   0  0  0  0  0  0  0  0  0  0  0  0
   -3.7465   -2.0280    1.2470 H   0  0  0  0  0  0  0  0  0  0  0  0
   -1.7720   -3.1275    2.1702 H   0  0  0  0  0  0  0  0  0  0  0  0
    2.9601    0.0385   -2.2552 H   0  0  0  0  0  0  0  0  0  0  0  0
    0.9086    0.9799   -0.3829 H   0  0  0  0  0  0  0  0  0  0  0  0
    0.5533   -3.3804    2.3165 H   0  0  0  0  0  0  0  0  0  0  0  0
    1.6011   -2.1759    1.5819 H   0  0  0  0  0  0  0  0  0  0  0  0
    1.1641   -3.6573    0.6814 H   0  0  0  0  0  0  0  0  0  0  0  0
    1.8102    2.1682   -2.7503 H   0  0  0  0  0  0  0  0  0  0  0  0
    3.5419    2.4453   -2.4827 H   0  0  0  0  0  0  0  0  0  0  0  0
    2.3697    2.8598   -1.2228 H   0  0  0  0  0  0  0  0  0  0  0  0
    5.3529    0.0723   -1.8903 H   0  0  0  0  0  0  0  0  0  0  0  0
    2.6317    1.1384    1.2915 H   0  0  0  0  0  0  0  0  0  0  0  0
    7.1830   -0.1081   -0.2421 H   0  0  0  0  0  0  0  0  0  0  0  0
    4.4623    0.9433    2.9133 H   0  0  0  0  0  0  0  0  0  0  0  0
    6.7444    0.3261    2.1610 H   0  0  0  0  0  0  0  0  0  0  0  0
  1  2  2  0  0  0  0
  1  3  2  0  0  0  0
  1  5  1  0  0  0  0
  1 11  1  0  0  0  0
  4 18  2  0  0  0  0
  5  7  1  0  0  0  0
  5  8  1  0  0  0  0
  6 17  1  0  0  0  0
  6 18  1  0  0  0  0
  6 39  1  0  0  0  0
  7  9  1  0  0  0  0
  7 27  1  0  0  0  0
  7 28  1  0  0  0  0
  8 10  1  0  0  0  0
  8 29  1  0  0  0  0
  8 30  1  0  0  0  0
  9 10  1  0  0  0  0
  9 31  1  0  0  0  0
  9 32  1  0  0  0  0
 10 33  1  0  0  0  0
 10 34  1  0  0  0  0
 11 12  2  0  0  0  0
 11 13  1  0  0  0  0
 12 14  1  0  0  0  0
 12 35  1  0  0  0  0
 13 16  2  0  0  0  0
 13 36  1  0  0  0  0
 14 15  2  0  0  0  0
 14 18  1  0  0  0  0
 15 16  1  0  0  0  0
 15 19  1  0  0  0  0
 16 37  1  0  0  0  0
 17 20  1  0  0  0  0
 17 21  1  0  0  0  0
 17 38  1  0  0  0  0
 19 40  1  0  0  0  0
 19 41  1  0  0  0  0
 19 42  1  0  0  0  0
 20 22  2  0  0  0  0
 20 23  1  0  0  0  0
 21 43  1  0  0  0  0
 21 44  1  0  0  0  0
 21 45  1  0  0  0  0
 22 24  1  0  0  0  0
 22 46  1  0  0  0  0
 23 25  2  0  0  0  0
 23 47  1  0  0  0  0
 24 26  2  0  0  0  0
 24 48  1  0  0  0  0
 25 26  1  0  0  0  0
 25 49  1  0  0  0  0
 26 50  1  0  0  0  0
M  END
> <PUBCHEM_COMPOUND_CID>
17396129

> <PUBCHEM_CONFORMER_RMSD>
0.8

> <PUBCHEM_CONFORMER_DIVERSEORDER>
1
29
41
140
82
135
20
36
122
191
85
98
139
100
146
190
106
182
169
129
124
150
48
44
156
171
118
59
138
89
95
187
133
180
38
151
93
192
194
81
34
43
172
99
148
120
76
15
128
183
179
121
188
25
195
143
83
30
184
49
87
161
157
64
33
19
78
142
196
21
107
28
130
109
7
68
101
186
111
62
160
110
159
16
162
97
114
167
26
58
119
54
165
108
193
189
132
176
103
55
170
9
127
163
24
164
32
22
92
91
125
115
37
74
56
173
137
80
73
71
17
144
10
175
136
51
105
57
181
45
11
8
79
18
4
155
166
70
63
178
31
112
65
12
154
61
60
168
116
90
69
39
52
147
88
86
96
40
72
149
3
23
27
185
13
5
102
46
145
2
14
123
66
53
158
77
67
50
177
131
117
6
134
75
84
141
35
42
174
113
104
153
152
47
126
94

> <PUBCHEM_MMFF94_PARTIAL_CHARGES>
32
1 1.45
11 -0.01
12 -0.15
13 -0.15
14 0.09
15 -0.14
16 -0.15
17 0.44
18 0.54
19 0.14
2 -0.65
20 -0.14
22 -0.15
23 -0.15
24 -0.15
25 -0.15
26 -0.15
3 -0.65
35 0.15
36 0.15
37 0.15
39 0.37
4 -0.57
46 0.15
47 0.15
48 0.15
49 0.15
5 -0.85
50 0.15
6 -0.73
7 0.36
8 0.36

> <PUBCHEM_EFFECTIVE_ROTOR_COUNT>
7

> <PUBCHEM_PHARMACOPHORE_FEATURES>
7
1 2 acceptor
1 3 acceptor
1 4 acceptor
1 6 donor
5 5 7 8 9 10 rings
6 11 12 13 14 15 16 rings
6 20 22 23 24 25 26 rings

> <PUBCHEM_HEAVY_ATOM_COUNT>
26

> <PUBCHEM_ATOM_DEF_STEREO_COUNT>
0

> <PUBCHEM_ATOM_UDEF_STEREO_COUNT>
1

> <PUBCHEM_BOND_DEF_STEREO_COUNT>
0

> <PUBCHEM_BOND_UDEF_STEREO_COUNT>
0

> <PUBCHEM_ISOTOPIC_ATOM_COUNT>
0

> <PUBCHEM_COMPONENT_COUNT>
1

> <PUBCHEM_CACTVS_TAUTO_COUNT>
2

> <PUBCHEM_CONFORMER_ID>
010971A100000001

> <PUBCHEM_MMFF94_ENERGY>
57.7174

> <PUBCHEM_FEATURE_SELFOVERLAP>
35.538

> <PUBCHEM_SHAPE_FINGERPRINT>
10042902 136 10591459703606180793
10291535 26 17967530164454249241
12128747 34 18115584997819958302
12166972 35 18059018267986186973
12422481 6 18055365879706131762
12596602 18 17346311544995394472
12633257 1 17988923349495516844
12788726 201 17695618559647109386
13402501 40 17749113274739900248
13583140 156 16271921588929334461
14251757 17 16950560016926184440
14251764 38 17895194368374184080
14347329 18 18263062389321999892
14466204 15 18335143102978893632
14739800 52 18189350098217509402
14932701 244 16805318886251925219
14950920 106 16773212038498802505
15183329 4 18272088327624411642
15463212 79 17603877688657793951
17349148 13 18413390912472485836
17818456 19 18271523105221626324
19489759 90 18334861601704507458
21033648 29 17967536745008713352
21864079 5 18194954378336586969
235170 7 15936404546213974989
23559900 14 18342447163244387790
328310 1195 16443067214313275264
373842 8 18045793290947172040
392239 28 18198035042640692891
469060 322 18201986717432653361
474 4 18343294890370685255
484985 159 13973684962860203073
508706 21 18337660992653012092
6328613 192 18271237215578198676
7226269 152 18409730668840333544
79837 15 18270955756863836298
9981440 41 18409445903786961643

> <PUBCHEM_SHAPE_MULTIPOLES>
511.35
12.58
2.97
1.99
11.33
0.13
-0.08
-5.24
-1.96
-2.72
-1.09
0.07
-0.59
-1.01

> <PUBCHEM_SHAPE_SELFOVERLAP>
1073.005

> <PUBCHEM_SHAPE_VOLUME>
289.5

> <PUBCHEM_COORDINATE_TYPE>
2
5
10

$$$$

