160502
  -OEChem-07051212573D

 40 44  0     1  0  0  0  0  0999 V2000
   -0.3011    2.7563   -0.3799 O   0  0  0  0  0  0  0  0  0  0  0  0
   -2.6356    3.2861   -0.2221 O   0  0  0  0  0  0  0  0  0  0  0  0
    4.2505    1.2429    0.2773 O   0  0  0  0  0  0  0  0  0  0  0  0
    4.8134   -1.3775   -0.4452 O   0  0  0  0  0  0  0  0  0  0  0  0
   -2.2260   -3.0857   -0.0249 N   0  0  0  0  0  0  0  0  0  0  0  0
   -1.1514   -2.1215    0.2561 C   0  0  2  0  0  0  0  0  0  0  0  0
   -1.5832   -0.6672    0.1243 C   0  0  0  0  0  0  0  0  0  0  0  0
    0.0312   -2.4069   -0.6837 C   0  0  0  0  0  0  0  0  0  0  0  0
   -0.5842    0.3311   -0.0399 C   0  0  0  0  0  0  0  0  0  0  0  0
   -2.9610   -0.3367    0.2150 C   0  0  0  0  0  0  0  0  0  0  0  0
   -4.0017   -1.4209    0.3442 C   0  0  0  0  0  0  0  0  0  0  0  0
    1.1513   -1.4208   -0.4388 C   0  0  0  0  0  0  0  0  0  0  0  0
   -3.4108   -2.7639    0.7698 C   0  0  0  0  0  0  0  0  0  0  0  0
    0.8401   -0.0773   -0.1176 C   0  0  0  0  0  0  0  0  0  0  0  0
   -1.0514    1.6384   -0.1526 C   0  0  0  0  0  0  0  0  0  0  0  0
   -3.3677    0.9958    0.1082 C   0  0  0  0  0  0  0  0  0  0  0  0
   -2.3943    1.9532   -0.0766 C   0  0  0  0  0  0  0  0  0  0  0  0
    2.4838   -1.8425   -0.5626 C   0  0  0  0  0  0  0  0  0  0  0  0
    1.9148    0.7922    0.1351 C   0  0  0  0  0  0  0  0  0  0  0  0
    3.2411    0.3615    0.0269 C   0  0  0  0  0  0  0  0  0  0  0  0
    3.5255   -0.9513   -0.3301 C   0  0  0  0  0  0  0  0  0  0  0  0
   -1.3019    3.7887   -0.4046 C   0  0  0  0  0  0  0  0  0  0  0  0
    4.7186    1.3259    1.6215 C   0  0  0  0  0  0  0  0  0  0  0  0
   -0.8206   -2.2637    1.2957 H   0  0  0  0  0  0  0  0  0  0  0  0
   -0.2701   -2.3287   -1.7371 H   0  0  0  0  0  0  0  0  0  0  0  0
    0.3905   -3.4306   -0.5169 H   0  0  0  0  0  0  0  0  0  0  0  0
   -4.7629   -1.1208    1.0742 H   0  0  0  0  0  0  0  0  0  0  0  0
   -4.4963   -1.5328   -0.6291 H   0  0  0  0  0  0  0  0  0  0  0  0
   -1.9042   -4.0250    0.2075 H   0  0  0  0  0  0  0  0  0  0  0  0
   -3.1589   -2.7541    1.8380 H   0  0  0  0  0  0  0  0  0  0  0  0
   -4.1647   -3.5467    0.6304 H   0  0  0  0  0  0  0  0  0  0  0  0
   -4.4167    1.2691    0.1521 H   0  0  0  0  0  0  0  0  0  0  0  0
    2.7069   -2.8721   -0.8328 H   0  0  0  0  0  0  0  0  0  0  0  0
    1.7440    1.8213    0.4384 H   0  0  0  0  0  0  0  0  0  0  0  0
   -1.2491    4.3060   -1.3693 H   0  0  0  0  0  0  0  0  0  0  0  0
   -1.0841    4.5094    0.3920 H   0  0  0  0  0  0  0  0  0  0  0  0
    5.4048   -0.6221   -0.2845 H   0  0  0  0  0  0  0  0  0  0  0  0
    5.0850    0.3538    1.9666 H   0  0  0  0  0  0  0  0  0  0  0  0
    3.9216    1.6821    2.2820 H   0  0  0  0  0  0  0  0  0  0  0  0
    5.5446    2.0418    1.6530 H   0  0  0  0  0  0  0  0  0  0  0  0
  1 15  1  0  0  0  0
  1 22  1  0  0  0  0
  2 17  1  0  0  0  0
  2 22  1  0  0  0  0
  3 20  1  0  0  0  0
  3 23  1  0  0  0  0
  4 21  1  0  0  0  0
  4 37  1  0  0  0  0
  5  6  1  0  0  0  0
  5 13  1  0  0  0  0
  5 29  1  0  0  0  0
  6  7  1  0  0  0  0
  6  8  1  0  0  0  0
  6 24  1  0  0  0  0
  7  9  2  0  0  0  0
  7 10  1  0  0  0  0
  8 12  1  0  0  0  0
  8 25  1  0  0  0  0
  8 26  1  0  0  0  0
  9 14  1  0  0  0  0
  9 15  1  0  0  0  0
 10 11  1  0  0  0  0
 10 16  2  0  0  0  0
 11 13  1  0  0  0  0
 11 27  1  0  0  0  0
 11 28  1  0  0  0  0
 12 14  1  0  0  0  0
 12 18  2  0  0  0  0
 13 30  1  0  0  0  0
 13 31  1  0  0  0  0
 14 19  2  0  0  0  0
 15 17  2  0  0  0  0
 16 17  1  0  0  0  0
 16 32  1  0  0  0  0
 18 21  1  0  0  0  0
 18 33  1  0  0  0  0
 19 20  1  0  0  0  0
 19 34  1  0  0  0  0
 20 21  2  0  0  0  0
 22 35  1  0  0  0  0
 22 36  1  0  0  0  0
 23 38  1  0  0  0  0
 23 39  1  0  0  0  0
 23 40  1  0  0  0  0
M  END
> <PUBCHEM_COMPOUND_CID>
160502

> <PUBCHEM_CONFORMER_RMSD>
0.6

> <PUBCHEM_CONFORMER_DIVERSEORDER>
1

> <PUBCHEM_MMFF94_PARTIAL_CHARGES>
26
1 -0.36
10 -0.14
11 0.14
12 -0.14
13 0.27
15 0.08
16 -0.15
17 0.08
18 -0.15
19 -0.15
2 -0.36
20 0.08
21 0.08
22 0.56
23 0.28
29 0.36
3 -0.36
32 0.15
33 0.15
34 0.15
37 0.45
4 -0.53
5 -0.9
6 0.41
7 -0.14
8 0.14

> <PUBCHEM_EFFECTIVE_ROTOR_COUNT>
2.4

> <PUBCHEM_PHARMACOPHORE_FEATURES>
11
1 1 acceptor
1 2 acceptor
1 3 acceptor
1 4 donor
1 5 cation
1 5 donor
5 1 2 15 17 22 rings
6 12 14 18 19 20 21 rings
6 5 6 7 10 11 13 rings
6 6 7 8 9 12 14 rings
6 7 9 10 15 16 17 rings

> <PUBCHEM_HEAVY_ATOM_COUNT>
23

> <PUBCHEM_ATOM_DEF_STEREO_COUNT>
1

> <PUBCHEM_ATOM_UDEF_STEREO_COUNT>
0

> <PUBCHEM_BOND_DEF_STEREO_COUNT>
0

> <PUBCHEM_BOND_UDEF_STEREO_COUNT>
0

> <PUBCHEM_ISOTOPIC_ATOM_COUNT>
0

> <PUBCHEM_COMPONENT_COUNT>
1

> <PUBCHEM_CACTVS_TAUTO_COUNT>
9

> <PUBCHEM_CONFORMER_ID>
000272F600000001

> <PUBCHEM_MMFF94_ENERGY>
71.774

> <PUBCHEM_FEATURE_SELFOVERLAP>
56.064

> <PUBCHEM_SHAPE_FINGERPRINT>
10319926 262 18337972176889181386
10411042 1 18267578005709182279
10608611 8 18336266859406749052
10616163 171 18411412955631782134
10670039 82 18269542872349248964
10906281 52 18338503184896456565
10967382 1 17762331423313839407
1100329 8 17979916008649883739
11370993 70 18123194759880701852
11578080 2 16951716634507725947
11595378 159 18200894897769226576
12035758 1 18341605985424822675
12173636 292 18267869565157775933
12403259 226 18334858311912611074
12403259 415 18260547853231043808
12553582 1 18195794177165214447
12730499 353 17405421591343894493
12788726 201 18201436909704345194
13140716 1 18265893755673626179
138480 1 16034362601591569325
14081887 123 18410300194040155384
14178342 30 18343031008012522634
14223421 5 18336542806681512958
14420673 8 18124044687687833626
14790565 3 17043438749459671965
15042514 8 18341323453380092339
15196674 1 18409164402749939094
16945 1 18123466339574489823
17357779 13 18337687308397514215
1813 80 17560800970401082239
20510252 161 18335420187987169017
22182313 1 18334849515651050438
2334 1 18409724032989033335
23366157 5 17194325872462789045
23402539 116 18335709321354947975
23557571 272 18336533954859131908
23558518 356 18272082837801327354
23559900 14 18408886274180168254
238 59 16330783166807621021
23845131 108 17690827279274196153
2748010 2 18408595968339617303
3091708 16 9348329854414983433
3117164 225 18053123967018367474
3187 122 18197516033764908200
335352 9 18194398029178460702
34934 24 18339931428646520203
350125 39 18265887145624050768
3524813 1 17968946262405772896
3886686 26 17622472818507024306
5104073 3 18408321099091193346
7097593 13 17555188195728710482
7364860 26 17618778064373726051
81228 2 18272076206493206649
84936 182 17328028079511749872
9709674 26 18262796405696214022
9925002 15 16959017185388916814

> <PUBCHEM_SHAPE_MULTIPOLES>
444.87
7.8
4.02
0.83
7.12
1.95
0.19
-0.95
1.85
-3.32
-0.41
0.52
0.01
1.45

> <PUBCHEM_SHAPE_SELFOVERLAP>
1008.446

> <PUBCHEM_SHAPE_VOLUME>
232

> <PUBCHEM_COORDINATE_TYPE>
2
5
10

$$$$

