156778
  -OEChem-07051212593D

 52 53  0     1  0  0  0  0  0999 V2000
   -2.6283   -1.0455    0.0444 O   0  0  0  0  0  0  0  0  0  0  0  0
    0.9842    0.3956    0.4592 O   0  0  0  0  0  0  0  0  0  0  0  0
    4.1024   -1.2787    0.8980 O   0  0  0  0  0  0  0  0  0  0  0  0
    3.0299    1.7367   -0.8961 O   0  0  0  0  0  0  0  0  0  0  0  0
    2.4335   -2.7201   -0.5344 O   0  0  0  0  0  0  0  0  0  0  0  0
    2.0435   -0.5188    2.2802 O   0  0  0  0  0  0  0  0  0  0  0  0
   -4.3111   -2.5852    0.4112 O   0  0  0  0  0  0  0  0  0  0  0  0
   -3.3666    2.1230   -0.2040 N   0  0  2  0  0  0  0  0  0  0  0  0
   -2.6517    1.2969    0.8160 C   0  0  1  0  0  0  0  0  0  0  0  0
   -3.3369   -0.0746    0.8065 C   0  0  1  0  0  0  0  0  0  0  0  0
   -4.6806    0.2047    0.1502 C   0  0  0  0  0  0  0  0  0  0  0  0
   -4.3295    1.2551   -0.8918 C   0  0  0  0  0  0  0  0  0  0  0  0
   -1.1994    1.3730    0.4695 C   0  0  0  0  0  0  0  0  0  0  0  0
   -2.3316    2.6732   -1.1032 C   0  0  0  0  0  0  0  0  0  0  0  0
   -1.0263    2.1450   -0.6069 C   0  0  0  0  0  0  0  0  0  0  0  0
   -0.1476    0.7060    1.2781 C   0  0  0  0  0  0  0  0  0  0  0  0
    3.1759   -0.4974    0.1133 C   0  0  1  0  0  0  0  0  0  0  0  0
    3.9332    0.8136   -0.2831 C   0  0  0  0  0  0  0  0  0  0  0  0
    2.7340   -1.4190   -1.0589 C   0  0  2  0  0  0  0  0  0  0  0  0
    2.0221   -0.2224    1.0908 C   0  0  0  0  0  0  0  0  0  0  0  0
   -3.2342   -2.2649   -0.0732 C   0  0  0  0  0  0  0  0  0  0  0  0
    4.5424    1.5149    0.9434 C   0  0  0  0  0  0  0  0  0  0  0  0
    5.0643    0.5434   -1.2931 C   0  0  0  0  0  0  0  0  0  0  0  0
    1.5576   -0.9751   -1.9189 C   0  0  0  0  0  0  0  0  0  0  0  0
   -2.3792   -3.1795   -0.8971 C   0  0  0  0  0  0  0  0  0  0  0  0
   -2.8242    1.7803    1.7862 H   0  0  0  0  0  0  0  0  0  0  0  0
   -3.4582   -0.4508    1.8297 H   0  0  0  0  0  0  0  0  0  0  0  0
   -5.3675    0.6386    0.8885 H   0  0  0  0  0  0  0  0  0  0  0  0
   -5.1936   -0.6267   -0.3339 H   0  0  0  0  0  0  0  0  0  0  0  0
   -5.2092    1.8185   -1.2169 H   0  0  0  0  0  0  0  0  0  0  0  0
   -3.8920    0.7568   -1.7663 H   0  0  0  0  0  0  0  0  0  0  0  0
   -2.4789    2.3999   -2.1538 H   0  0  0  0  0  0  0  0  0  0  0  0
   -2.3395    3.7661   -1.0342 H   0  0  0  0  0  0  0  0  0  0  0  0
   -0.0747    2.3855   -1.0583 H   0  0  0  0  0  0  0  0  0  0  0  0
   -0.5359   -0.2314    1.6919 H   0  0  0  0  0  0  0  0  0  0  0  0
    0.1542    1.3606    2.1038 H   0  0  0  0  0  0  0  0  0  0  0  0
    3.5915   -1.5947   -1.7153 H   0  0  0  0  0  0  0  0  0  0  0  0
    3.7733    1.7761    1.6782 H   0  0  0  0  0  0  0  0  0  0  0  0
    5.3031    0.9021    1.4371 H   0  0  0  0  0  0  0  0  0  0  0  0
    5.0087    2.4636    0.6514 H   0  0  0  0  0  0  0  0  0  0  0  0
    5.6323    1.4614   -1.4874 H   0  0  0  0  0  0  0  0  0  0  0  0
    4.6676    0.2381   -2.2668 H   0  0  0  0  0  0  0  0  0  0  0  0
    5.7630   -0.2182   -0.9334 H   0  0  0  0  0  0  0  0  0  0  0  0
    1.4843   -1.6296   -2.7959 H   0  0  0  0  0  0  0  0  0  0  0  0
    0.5985   -1.0844   -1.4038 H   0  0  0  0  0  0  0  0  0  0  0  0
    1.6710    0.0488   -2.2812 H   0  0  0  0  0  0  0  0  0  0  0  0
    3.6826   -2.1329    1.0981 H   0  0  0  0  0  0  0  0  0  0  0  0
    2.3656    1.9971   -0.2360 H   0  0  0  0  0  0  0  0  0  0  0  0
   -1.4038   -3.3045   -0.4198 H   0  0  0  0  0  0  0  0  0  0  0  0
   -2.2648   -2.7708   -1.9042 H   0  0  0  0  0  0  0  0  0  0  0  0
   -2.8598   -4.1592   -0.9692 H   0  0  0  0  0  0  0  0  0  0  0  0
    1.6349   -2.6432    0.0151 H   0  0  0  0  0  0  0  0  0  0  0  0
  1 10  1  0  0  0  0
  1 21  1  0  0  0  0
  2 16  1  0  0  0  0
  2 20  1  0  0  0  0
  3 17  1  0  0  0  0
  3 47  1  0  0  0  0
  4 18  1  0  0  0  0
  4 48  1  0  0  0  0
  5 19  1  0  0  0  0
  5 52  1  0  0  0  0
  6 20  2  0  0  0  0
  7 21  2  0  0  0  0
  8  9  1  0  0  0  0
  8 12  1  0  0  0  0
  8 14  1  0  0  0  0
  9 10  1  0  0  0  0
  9 13  1  0  0  0  0
  9 26  1  0  0  0  0
 10 11  1  0  0  0  0
 10 27  1  0  0  0  0
 11 12  1  0  0  0  0
 11 28  1  0  0  0  0
 11 29  1  0  0  0  0
 12 30  1  0  0  0  0
 12 31  1  0  0  0  0
 13 15  2  0  0  0  0
 13 16  1  0  0  0  0
 14 15  1  0  0  0  0
 14 32  1  0  0  0  0
 14 33  1  0  0  0  0
 15 34  1  0  0  0  0
 16 35  1  0  0  0  0
 16 36  1  0  0  0  0
 17 18  1  0  0  0  0
 17 19  1  0  0  0  0
 17 20  1  0  0  0  0
 18 22  1  0  0  0  0
 18 23  1  0  0  0  0
 19 24  1  0  0  0  0
 19 37  1  0  0  0  0
 21 25  1  0  0  0  0
 22 38  1  0  0  0  0
 22 39  1  0  0  0  0
 22 40  1  0  0  0  0
 23 41  1  0  0  0  0
 23 42  1  0  0  0  0
 23 43  1  0  0  0  0
 24 44  1  0  0  0  0
 24 45  1  0  0  0  0
 24 46  1  0  0  0  0
 25 49  1  0  0  0  0
 25 50  1  0  0  0  0
 25 51  1  0  0  0  0
M  END
> <PUBCHEM_COMPOUND_CID>
156778

> <PUBCHEM_CONFORMER_RMSD>
1

> <PUBCHEM_CONFORMER_DIVERSEORDER>
5
159
15
157
164
102
88
59
162
194
104
78
7
229
75
36
206
80
165
161
218
125
156
143
94
216
227
187
135
235
124
93
86
211
120
66
99
238
130
196
49
148
116
29
106
138
230
38
177
131
171
39
179
191
182
146
48
28
172
22
202
4
228
232
168
133
21
53
121
224
85
13
20
72
33
76
127
205
128
180
103
112
70
61
233
236
73
174
217
27
65
137
201
158
31
62
212
84
45
213
237
68
153
19
74
160
208
35
46
101
199
119
58
30
100
221
215
184
37
223
113
16
51
47
178
189
12
117
25
89
82
220
23
10
97
167
67
50
176
181
226
11
8
144
44
175
150
185
136
24
118
52
69
188
32
109
193
200
204
122
105
3
151
225
79
190
155
114
83
154
170
132
209
95
41
111
234
173
90
96
134
98
169
26
183
198
222
197
42
17
71
207
123
145
107
1
231
9
147
34
57
92
129
142
54
195
18
141
139
149
43
214
163
203
110
55
64
40
186
63
152
14
210
6
166
126
77
60
81
87
56
219
2
115
192
108
140
91

> <PUBCHEM_MMFF94_PARTIAL_CHARGES>
25
1 -0.43
10 0.28
12 0.27
13 -0.28
14 0.41
15 -0.29
16 0.42
17 0.34
18 0.28
19 0.28
2 -0.43
20 0.66
21 0.66
25 0.06
3 -0.68
34 0.15
4 -0.68
47 0.4
48 0.4
5 -0.68
52 0.4
6 -0.57
7 -0.57
8 -0.81
9 0.41

> <PUBCHEM_EFFECTIVE_ROTOR_COUNT>
8.8

> <PUBCHEM_PHARMACOPHORE_FEATURES>
12
1 3 acceptor
1 3 donor
1 4 acceptor
1 4 donor
1 5 acceptor
1 5 donor
1 6 acceptor
1 7 acceptor
1 8 cation
3 18 22 23 hydrophobe
5 8 9 10 11 12 rings
5 8 9 13 14 15 rings

> <PUBCHEM_HEAVY_ATOM_COUNT>
25

> <PUBCHEM_ATOM_DEF_STEREO_COUNT>
4

> <PUBCHEM_ATOM_UDEF_STEREO_COUNT>
0

> <PUBCHEM_BOND_DEF_STEREO_COUNT>
0

> <PUBCHEM_BOND_UDEF_STEREO_COUNT>
0

> <PUBCHEM_ISOTOPIC_ATOM_COUNT>
0

> <PUBCHEM_COMPONENT_COUNT>
1

> <PUBCHEM_CACTVS_TAUTO_COUNT>
1

> <PUBCHEM_CONFORMER_ID>
0002646A00000005

> <PUBCHEM_MMFF94_ENERGY>
61.7972

> <PUBCHEM_FEATURE_SELFOVERLAP>
61.256

> <PUBCHEM_SHAPE_FINGERPRINT>
10366900 7 17385728010406630145
10369192 42 17100889421869936336
10498660 4 18412827992831696543
10616163 171 18336542733498341895
10759866 29 18411132559082304974
11014199 57 17396988959227451807
11370993 70 18266742557143998687
11552529 35 17822573807270978067
11759241 127 18130781235783625772
12173636 292 18192996152170102637
12553582 1 18194128404444105571
12633257 1 18113614616515588259
12670545 47 17603595114126632979
12670546 177 18411979169707503352
128620 24 18341894099603782168
13224815 77 17676211281509514324
13402501 40 18040427776939350783
14251757 5 18339920394828161555
14617045 38 18261664918231987291
15415430 112 18411981338971689761
17357779 13 18043267759892262855
17980427 23 17560796577230203156
20511986 3 17703526444536205637
22393880 68 18409158931589143926
23402539 116 17988927738952333312
23557571 272 18339069419713654868
23559900 14 18118687853408179118
339767 52 18342465790021002399
4325135 7 18272650125883090932
474 4 16845279528315102764
633830 44 16773508966904461480
9709674 26 18189052152062304047

> <PUBCHEM_SHAPE_MULTIPOLES>
468.42
10.34
3.09
1.48
2.49
1.56
-0.09
-0.11
0.67
-2.65
0.91
0.98
0
0.52

> <PUBCHEM_SHAPE_SELFOVERLAP>
967.148

> <PUBCHEM_SHAPE_VOLUME>
269.4

> <PUBCHEM_COORDINATE_TYPE>
2
5
10

$$$$

