14490
  -OEChem-07051212513D

 21 20  0     0  0  0  0  0  0999 V2000
   -4.6826    0.4175   -0.0346 O   0  0  0  0  0  0  0  0  0  0  0  0
    3.9199   -0.7040   -0.0523 O   0  0  0  0  0  0  0  0  0  0  0  0
    2.9147    1.3317    0.0039 O   0  0  0  0  0  0  0  0  0  0  0  0
   -1.0051   -0.5449    0.0048 C   0  0  0  0  0  0  0  0  0  0  0  0
    0.3184    0.2233    0.0586 C   0  0  0  0  0  0  0  0  0  0  0  0
   -2.2719    0.3185   -0.0222 C   0  0  0  0  0  0  0  0  0  0  0  0
    1.5483   -0.6836    0.0322 C   0  0  0  0  0  0  0  0  0  0  0  0
   -3.5755   -0.4700    0.0172 C   0  0  0  0  0  0  0  0  0  0  0  0
    2.8337    0.1114   -0.0076 C   0  0  0  0  0  0  0  0  0  0  0  0
   -1.0546   -1.2136    0.8735 H   0  0  0  0  0  0  0  0  0  0  0  0
   -1.0060   -1.1900   -0.8829 H   0  0  0  0  0  0  0  0  0  0  0  0
    0.3402    0.8436    0.9634 H   0  0  0  0  0  0  0  0  0  0  0  0
    0.3586    0.9166   -0.7911 H   0  0  0  0  0  0  0  0  0  0  0  0
   -2.2624    0.9519   -0.9184 H   0  0  0  0  0  0  0  0  0  0  0  0
   -2.2563    1.0152    0.8257 H   0  0  0  0  0  0  0  0  0  0  0  0
    1.5610   -1.3167    0.9258 H   0  0  0  0  0  0  0  0  0  0  0  0
    1.5176   -1.3215   -0.8579 H   0  0  0  0  0  0  0  0  0  0  0  0
   -3.6422   -1.0558    0.9395 H   0  0  0  0  0  0  0  0  0  0  0  0
   -3.6372   -1.1511   -0.8376 H   0  0  0  0  0  0  0  0  0  0  0  0
   -5.4873   -0.1277   -0.0074 H   0  0  0  0  0  0  0  0  0  0  0  0
    4.7581   -0.1949   -0.0754 H   0  0  0  0  0  0  0  0  0  0  0  0
  1  8  1  0  0  0  0
  1 20  1  0  0  0  0
  2  9  1  0  0  0  0
  2 21  1  0  0  0  0
  3  9  2  0  0  0  0
  4  5  1  0  0  0  0
  4  6  1  0  0  0  0
  4 10  1  0  0  0  0
  4 11  1  0  0  0  0
  5  7  1  0  0  0  0
  5 12  1  0  0  0  0
  5 13  1  0  0  0  0
  6  8  1  0  0  0  0
  6 14  1  0  0  0  0
  6 15  1  0  0  0  0
  7  9  1  0  0  0  0
  7 16  1  0  0  0  0
  7 17  1  0  0  0  0
  8 18  1  0  0  0  0
  8 19  1  0  0  0  0
M  END
> <PUBCHEM_COMPOUND_CID>
14490

> <PUBCHEM_CONFORMER_RMSD>
0.6

> <PUBCHEM_CONFORMER_DIVERSEORDER>
1
78
33
6
79
56
2
69
75
20
70
5
72
16
65
77
64
11
71
10
63
9
34
60
18
61
52
7
38
37
25
58
74
55
22
27
73
62
39
12
44
57
17
66
21
76
14
59
35
54
67
3
36
48
28
41
46
40
13
30
53
49
26
32
68
51
45
31
19
42
8
24
4
43
23
50
15
29
47

> <PUBCHEM_MMFF94_PARTIAL_CHARGES>
8
1 -0.68
2 -0.65
20 0.4
21 0.5
3 -0.57
7 0.06
8 0.28
9 0.66

> <PUBCHEM_EFFECTIVE_ROTOR_COUNT>
5

> <PUBCHEM_PHARMACOPHORE_FEATURES>
6
1 1 acceptor
1 1 donor
1 2 acceptor
1 3 acceptor
3 2 3 9 anion
4 4 5 6 7 hydrophobe

> <PUBCHEM_HEAVY_ATOM_COUNT>
9

> <PUBCHEM_ATOM_DEF_STEREO_COUNT>
0

> <PUBCHEM_ATOM_UDEF_STEREO_COUNT>
0

> <PUBCHEM_BOND_DEF_STEREO_COUNT>
0

> <PUBCHEM_BOND_UDEF_STEREO_COUNT>
0

> <PUBCHEM_ISOTOPIC_ATOM_COUNT>
0

> <PUBCHEM_COMPONENT_COUNT>
1

> <PUBCHEM_CACTVS_TAUTO_COUNT>
1

> <PUBCHEM_CONFORMER_ID>
0000389A00000001

> <PUBCHEM_MMFF94_ENERGY>
3.3422

> <PUBCHEM_FEATURE_SELFOVERLAP>
30.504

> <PUBCHEM_SHAPE_FINGERPRINT>
11062470 55 18411981360404276035
12932764 1 17203061711114403762
14325111 11 18410856538360261835
190213 19 17458343039622937395
20645477 70 18336829805007687727
20719005 15 18410855456302809835

> <PUBCHEM_SHAPE_MULTIPOLES>
167.61
8.22
0.94
0.58
3.82
0.11
0
0.44
0.14
-0.49
0
0.03
-0.01
0.02

> <PUBCHEM_SHAPE_SELFOVERLAP>
302.357

> <PUBCHEM_SHAPE_VOLUME>
107.5

> <PUBCHEM_COORDINATE_TYPE>
2
5
10

$$$$

