259
  -OEChem-07051212452D

  1  0  0     0  0  0  0  0  0999 V2000
    2.0000    0.0000    0.0000 Br  0  5  0  0  0  0  0  0  0  0  0  0
M  CHG  1   1  -1
M  END
> <PUBCHEM_COMPOUND_CID>
259

> <PUBCHEM_COMPOUND_CANONICALIZED>
1

> <PUBCHEM_CACTVS_COMPLEXITY>
0

> <PUBCHEM_CACTVS_HBOND_ACCEPTOR>
1

> <PUBCHEM_CACTVS_HBOND_DONOR>
0

> <PUBCHEM_CACTVS_ROTATABLE_BOND>
0

> <PUBCHEM_CACTVS_SUBSKEYS>
AAADcQAAAAAAEAAAAAAAAAAAAAAAAAAAAAAAAAAAAAAAAAAAAAAAAAAAAAAAAAAAAAAAAAAAAAAAAAAAAAAAAAAAAAAAAAAAAAAAAAAAAAAAAAAAAAAAAAAAAAAAAAAAAAAAAAAAAAAAAAAAAAAAAAAAAA==

> <PUBCHEM_IUPAC_OPENEYE_NAME>
bromide

> <PUBCHEM_IUPAC_CAS_NAME>
bromide

> <PUBCHEM_IUPAC_NAME>
bromide

> <PUBCHEM_IUPAC_SYSTEMATIC_NAME>
bromide

> <PUBCHEM_IUPAC_TRADITIONAL_NAME>
bromide

> <PUBCHEM_IUPAC_INCHI>
InChI=1S/BrH/h1H/p-1

> <PUBCHEM_IUPAC_INCHIKEY>
CPELXLSAUQHCOX-UHFFFAOYSA-M

> <PUBCHEM_XLOGP3_AA>
1

> <PUBCHEM_EXACT_MASS>
78.918337

> <PUBCHEM_MOLECULAR_FORMULA>
Br-

> <PUBCHEM_MOLECULAR_WEIGHT>
79.904

> <PUBCHEM_OPENEYE_CAN_SMILES>
[Br-]

> <PUBCHEM_OPENEYE_ISO_SMILES>
[Br-]

> <PUBCHEM_CACTVS_TPSA>
0

> <PUBCHEM_MONOISOTOPIC_WEIGHT>
78.918337

> <PUBCHEM_TOTAL_CHARGE>
-1

> <PUBCHEM_HEAVY_ATOM_COUNT>
1

> <PUBCHEM_ATOM_DEF_STEREO_COUNT>
0

> <PUBCHEM_ATOM_UDEF_STEREO_COUNT>
0

> <PUBCHEM_BOND_DEF_STEREO_COUNT>
0

> <PUBCHEM_BOND_UDEF_STEREO_COUNT>
0

> <PUBCHEM_ISOTOPIC_ATOM_COUNT>
0

> <PUBCHEM_COMPONENT_COUNT>
1

> <PUBCHEM_CACTVS_TAUTO_COUNT>
1

> <PUBCHEM_COORDINATE_TYPE>
1
5
255

$$$$

