5281624
  -OEChem-07051212582D

 38 40  0     0  0  0  0  0  0999 V2000
    4.6660    1.0000    0.0000 O   0  0  0  0  0  0  0  0  0  0  0  0
    6.4144    2.0346    0.0000 O   0  0  0  0  0  0  0  0  0  0  0  0
    4.6660   -2.0000    0.0000 O   0  0  0  0  0  0  0  0  0  0  0  0
    2.9176   -2.0346    0.0000 O   0  0  0  0  0  0  0  0  0  0  0  0
    5.5321   -0.5000    0.0000 C   0  0  0  0  0  0  0  0  0  0  0  0
    5.5321    0.5000    0.0000 C   0  0  0  0  0  0  0  0  0  0  0  0
    7.3321    0.5208    0.0000 C   0  0  0  0  0  0  0  0  0  0  0  0
    6.4260    1.0347    0.0000 C   0  0  0  0  0  0  0  0  0  0  0  0
    3.8000   -0.5000    0.0000 C   0  0  0  0  0  0  0  0  0  0  0  0
    8.1962    1.0241    0.0000 C   0  0  0  0  0  0  0  0  0  0  0  0
    4.6660   -1.0000    0.0000 C   0  0  0  0  0  0  0  0  0  0  0  0
    3.8000    0.5000    0.0000 C   0  0  0  0  0  0  0  0  0  0  0  0
    6.4260   -1.0347    0.0000 C   0  0  0  0  0  0  0  0  0  0  0  0
    7.3321   -0.5208    0.0000 C   0  0  0  0  0  0  0  0  0  0  0  0
    2.9061   -1.0347    0.0000 C   0  0  0  0  0  0  0  0  0  0  0  0
    9.0641    0.5275    0.0000 C   0  0  0  0  0  0  0  0  0  0  0  0
    2.9061    1.0347    0.0000 C   0  0  0  0  0  0  0  0  0  0  0  0
    9.9282    1.0308    0.0000 C   0  0  0  0  0  0  0  0  0  0  0  0
    2.0000   -0.5208    0.0000 C   0  0  0  0  0  0  0  0  0  0  0  0
    2.0000    0.5208    0.0000 C   0  0  0  0  0  0  0  0  0  0  0  0
   10.7961    0.5342    0.0000 C   0  0  0  0  0  0  0  0  0  0  0  0
    9.9243    2.0308    0.0000 C   0  0  0  0  0  0  0  0  0  0  0  0
    8.5929    1.5006    0.0000 H   0  0  0  0  0  0  0  0  0  0  0  0
    7.7958    1.4976    0.0000 H   0  0  0  0  0  0  0  0  0  0  0  0
    6.4188   -1.6546    0.0000 H   0  0  0  0  0  0  0  0  0  0  0  0
    7.8678   -0.8329    0.0000 H   0  0  0  0  0  0  0  0  0  0  0  0
    9.0665   -0.0925    0.0000 H   0  0  0  0  0  0  0  0  0  0  0  0
    2.9132    1.6546    0.0000 H   0  0  0  0  0  0  0  0  0  0  0  0
    1.4643   -0.8329    0.0000 H   0  0  0  0  0  0  0  0  0  0  0  0
    1.4643    0.8329    0.0000 H   0  0  0  0  0  0  0  0  0  0  0  0
    6.9478    2.3508    0.0000 H   0  0  0  0  0  0  0  0  0  0  0  0
   10.4882   -0.0040    0.0000 H   0  0  0  0  0  0  0  0  0  0  0  0
   11.3343    0.2262    0.0000 H   0  0  0  0  0  0  0  0  0  0  0  0
   10.5443    2.0332    0.0000 H   0  0  0  0  0  0  0  0  0  0  0  0
    9.9220    2.6508    0.0000 H   0  0  0  0  0  0  0  0  0  0  0  0
    9.3044    2.0284    0.0000 H   0  0  0  0  0  0  0  0  0  0  0  0
   11.1041    1.0723    0.0000 H   0  0  0  0  0  0  0  0  0  0  0  0
    2.3843   -2.3508    0.0000 H   0  0  0  0  0  0  0  0  0  0  0  0
  1  6  1  0  0  0  0
  1 12  1  0  0  0  0
  2  8  1  0  0  0  0
  2 31  1  0  0  0  0
  3 11  2  0  0  0  0
  4 15  1  0  0  0  0
  4 38  1  0  0  0  0
  5  6  2  0  0  0  0
  5 11  1  0  0  0  0
  5 13  1  0  0  0  0
  6  8  1  0  0  0  0
  7  8  2  0  0  0  0
  7 10  1  0  0  0  0
  7 14  1  0  0  0  0
  9 11  1  0  0  0  0
  9 12  1  0  0  0  0
  9 15  2  0  0  0  0
 10 16  1  0  0  0  0
 10 23  1  0  0  0  0
 10 24  1  0  0  0  0
 12 17  2  0  0  0  0
 13 14  2  0  0  0  0
 13 25  1  0  0  0  0
 14 26  1  0  0  0  0
 15 19  1  0  0  0  0
 16 18  2  0  0  0  0
 16 27  1  0  0  0  0
 17 20  1  0  0  0  0
 17 28  1  0  0  0  0
 18 21  1  0  0  0  0
 18 22  1  0  0  0  0
 19 20  2  0  0  0  0
 19 29  1  0  0  0  0
 20 30  1  0  0  0  0
 21 32  1  0  0  0  0
 21 33  1  0  0  0  0
 21 37  1  0  0  0  0
 22 34  1  0  0  0  0
 22 35  1  0  0  0  0
 22 36  1  0  0  0  0
M  END
> <PUBCHEM_COMPOUND_CID>
5281624

> <PUBCHEM_COMPOUND_CANONICALIZED>
1

> <PUBCHEM_CACTVS_COMPLEXITY>
454

> <PUBCHEM_CACTVS_HBOND_ACCEPTOR>
4

> <PUBCHEM_CACTVS_HBOND_DONOR>
2

> <PUBCHEM_CACTVS_ROTATABLE_BOND>
2

> <PUBCHEM_CACTVS_SUBSKEYS>
AAADceB4OAAAAAAAAAAAAAAAAAAAAAAAAAA0YIAAAAAAAACRQAAAGgAACAAADASAmAAyBoAABgCIAqBSAAACCAAkIAAIiAEGiMgNJzaGNRqCeWOl4BULuYeK6PyOQAABCAAIQACAAAIQABCAAAAAAAAAAA==

> <PUBCHEM_IUPAC_OPENEYE_NAME>
1,5-dihydroxy-6-(3-methylbut-2-enyl)xanthen-9-one

> <PUBCHEM_IUPAC_CAS_NAME>
1,5-dihydroxy-6-(3-methylbut-2-enyl)-9-xanthenone

> <PUBCHEM_IUPAC_NAME>
1,5-dihydroxy-6-(3-methylbut-2-enyl)xanthen-9-one

> <PUBCHEM_IUPAC_SYSTEMATIC_NAME>
6-(3-methylbut-2-enyl)-1,5-bis(oxidanyl)xanthen-9-one

> <PUBCHEM_IUPAC_TRADITIONAL_NAME>
1,5-dihydroxy-6-(3-methylbut-2-enyl)xanthone

> <PUBCHEM_IUPAC_INCHI>
InChI=1S/C18H16O4/c1-10(2)6-7-11-8-9-12-17(21)15-13(19)4-3-5-14(15)22-18(12)16(11)20/h3-6,8-9,19-20H,7H2,1-2H3

> <PUBCHEM_IUPAC_INCHIKEY>
APHJPNXEBUUMKB-UHFFFAOYSA-N

> <PUBCHEM_XLOGP3_AA>
4.7

> <PUBCHEM_EXACT_MASS>
296.104859

> <PUBCHEM_MOLECULAR_FORMULA>
C18H16O4

> <PUBCHEM_MOLECULAR_WEIGHT>
296.31724

> <PUBCHEM_OPENEYE_CAN_SMILES>
CC(=CCC1=C(C2=C(C=C1)C(=O)C3=C(O2)C=CC=C3O)O)C

> <PUBCHEM_OPENEYE_ISO_SMILES>
CC(=CCC1=C(C2=C(C=C1)C(=O)C3=C(O2)C=CC=C3O)O)C

> <PUBCHEM_CACTVS_TPSA>
66.8

> <PUBCHEM_MONOISOTOPIC_WEIGHT>
296.104859

> <PUBCHEM_TOTAL_CHARGE>
0

> <PUBCHEM_HEAVY_ATOM_COUNT>
22

> <PUBCHEM_ATOM_DEF_STEREO_COUNT>
0

> <PUBCHEM_ATOM_UDEF_STEREO_COUNT>
0

> <PUBCHEM_BOND_DEF_STEREO_COUNT>
0

> <PUBCHEM_BOND_UDEF_STEREO_COUNT>
0

> <PUBCHEM_ISOTOPIC_ATOM_COUNT>
0

> <PUBCHEM_COMPONENT_COUNT>
1

> <PUBCHEM_CACTVS_TAUTO_COUNT>
161

> <PUBCHEM_COORDINATE_TYPE>
1
5
255

> <PUBCHEM_BONDANNOTATIONS>
1  12  8
1  6  8
12  17  8
13  14  8
15  19  8
17  20  8
19  20  8
5  11  8
5  13  8
5  6  8
6  8  8
7  14  8
7  8  8
9  11  8
9  12  8
9  15  8

$$$$

