17396564
  -OEChem-06241222573D

 47 49  0     1  0  0  0  0  0999 V2000
    5.9351   -1.7898    1.2373 S   0  0  0  0  0  0  0  0  0  0  0  0
   -0.1294   -0.6224   -0.5825 O   0  0  0  0  0  0  0  0  0  0  0  0
   -3.9033   -2.5359   -0.7725 O   0  0  0  0  0  0  0  0  0  0  0  0
   -5.6304   -2.2282    0.7180 O   0  0  0  0  0  0  0  0  0  0  0  0
    2.3771    0.4634   -0.2113 N   0  0  1  0  0  0  0  0  0  0  0  0
   -1.0613    1.5040   -0.2331 N   0  0  0  0  0  0  0  0  0  0  0  0
    3.6596    0.7485   -0.9070 C   0  0  2  0  0  0  0  0  0  0  0  0
    2.4969    0.4598    1.2590 C   0  0  0  0  0  0  0  0  0  0  0  0
    4.7191   -0.1881   -0.3724 C   0  0  0  0  0  0  0  0  0  0  0  0
    3.4110   -0.6800    1.7463 C   0  0  0  0  0  0  0  0  0  0  0  0
    4.6014   -0.8084    0.8553 C   0  0  0  0  0  0  0  0  0  0  0  0
    1.2861    1.3304   -0.6473 C   0  0  0  0  0  0  0  0  0  0  0  0
    4.1378    2.2067   -0.8266 C   0  0  0  0  0  0  0  0  0  0  0  0
    5.9451   -0.5481   -1.0132 C   0  0  0  0  0  0  0  0  0  0  0  0
    6.7012   -1.4088   -0.2464 C   0  0  0  0  0  0  0  0  0  0  0  0
   -0.0351    0.5974   -0.4909 C   0  0  0  0  0  0  0  0  0  0  0  0
   -2.4325    1.2203   -0.0268 C   0  0  0  0  0  0  0  0  0  0  0  0
   -3.3450    2.2456    0.2220 C   0  0  0  0  0  0  0  0  0  0  0  0
   -2.8677   -0.1040   -0.0753 C   0  0  0  0  0  0  0  0  0  0  0  0
   -4.2154   -0.4032    0.1245 C   0  0  0  0  0  0  0  0  0  0  0  0
   -4.6926    1.9465    0.4221 C   0  0  0  0  0  0  0  0  0  0  0  0
   -2.9067    3.6730    0.2798 C   0  0  0  0  0  0  0  0  0  0  0  0
   -5.1279    0.6221    0.3732 C   0  0  0  0  0  0  0  0  0  0  0  0
   -4.6696   -1.7837    0.0755 C   0  0  0  0  0  0  0  0  0  0  0  0
   -4.2536   -3.9175   -0.9077 C   0  0  0  0  0  0  0  0  0  0  0  0
    3.5165    0.4999   -1.9675 H   0  0  0  0  0  0  0  0  0  0  0  0
    1.5180    0.3193    1.7340 H   0  0  0  0  0  0  0  0  0  0  0  0
    2.8796    1.4235    1.6184 H   0  0  0  0  0  0  0  0  0  0  0  0
    3.7127   -0.4897    2.7825 H   0  0  0  0  0  0  0  0  0  0  0  0
    2.8527   -1.6245    1.7275 H   0  0  0  0  0  0  0  0  0  0  0  0
    1.3649    1.5485   -1.7204 H   0  0  0  0  0  0  0  0  0  0  0  0
    1.2910    2.2875   -0.1124 H   0  0  0  0  0  0  0  0  0  0  0  0
    4.3339    2.5185    0.2049 H   0  0  0  0  0  0  0  0  0  0  0  0
    5.0723    2.3375   -1.3847 H   0  0  0  0  0  0  0  0  0  0  0  0
    3.4070    2.8970   -1.2594 H   0  0  0  0  0  0  0  0  0  0  0  0
    6.2602   -0.1886   -1.9845 H   0  0  0  0  0  0  0  0  0  0  0  0
    7.6660   -1.8323   -0.4874 H   0  0  0  0  0  0  0  0  0  0  0  0
   -0.8069    2.4871   -0.1941 H   0  0  0  0  0  0  0  0  0  0  0  0
   -2.2005   -0.9352   -0.2432 H   0  0  0  0  0  0  0  0  0  0  0  0
   -5.4171    2.7328    0.6164 H   0  0  0  0  0  0  0  0  0  0  0  0
   -2.1718    3.8184    1.0786 H   0  0  0  0  0  0  0  0  0  0  0  0
   -2.4743    3.9823   -0.6775 H   0  0  0  0  0  0  0  0  0  0  0  0
   -3.7453    4.3469    0.4873 H   0  0  0  0  0  0  0  0  0  0  0  0
   -6.1819    0.4066    0.5285 H   0  0  0  0  0  0  0  0  0  0  0  0
   -4.1668   -4.4244    0.0579 H   0  0  0  0  0  0  0  0  0  0  0  0
   -5.2688   -4.0118   -1.3042 H   0  0  0  0  0  0  0  0  0  0  0  0
   -3.5558   -4.3782   -1.6118 H   0  0  0  0  0  0  0  0  0  0  0  0
  1 11  1  0  0  0  0
  1 15  1  0  0  0  0
  2 16  2  0  0  0  0
  3 24  1  0  0  0  0
  3 25  1  0  0  0  0
  4 24  2  0  0  0  0
  5  7  1  0  0  0  0
  5  8  1  0  0  0  0
  5 12  1  0  0  0  0
  6 16  1  0  0  0  0
  6 17  1  0  0  0  0
  6 38  1  0  0  0  0
  7  9  1  0  0  0  0
  7 13  1  0  0  0  0
  7 26  1  0  0  0  0
  8 10  1  0  0  0  0
  8 27  1  0  0  0  0
  8 28  1  0  0  0  0
  9 11  2  0  0  0  0
  9 14  1  0  0  0  0
 10 11  1  0  0  0  0
 10 29  1  0  0  0  0
 10 30  1  0  0  0  0
 12 16  1  0  0  0  0
 12 31  1  0  0  0  0
 12 32  1  0  0  0  0
 13 33  1  0  0  0  0
 13 34  1  0  0  0  0
 13 35  1  0  0  0  0
 14 15  2  0  0  0  0
 14 36  1  0  0  0  0
 15 37  1  0  0  0  0
 17 18  2  0  0  0  0
 17 19  1  0  0  0  0
 18 21  1  0  0  0  0
 18 22  1  0  0  0  0
 19 20  2  0  0  0  0
 19 39  1  0  0  0  0
 20 23  1  0  0  0  0
 20 24  1  0  0  0  0
 21 23  2  0  0  0  0
 21 40  1  0  0  0  0
 22 41  1  0  0  0  0
 22 42  1  0  0  0  0
 22 43  1  0  0  0  0
 23 44  1  0  0  0  0
 25 45  1  0  0  0  0
 25 46  1  0  0  0  0
 25 47  1  0  0  0  0
M  END
> <PUBCHEM_COMPOUND_CID>
17396564

> <PUBCHEM_CONFORMER_RMSD>
0.8

> <PUBCHEM_CONFORMER_DIVERSEORDER>
1
292
171
247
153
338
92
325
315
311
363
337
287
282
45
301
349
235
156
281
44
285
332
297
360
216
176
150
240
321
239
52
358
373
191
298
170
304
265
172
234
344
61
254
66
146
322
155
303
47
367
60
167
138
248
300
185
118
203
53
209
54
3
314
275
55
364
289
320
362
28
242
95
96
319
158
348
246
309
255
48
195
250
326
59
369
13
257
147
330
212
244
148
78
353
356
214
62
333
105
103
177
347
192
372
258
104
266
128
160
33
131
39
57
280
274
270
268
75
354
355
361
225
115
352
174
8
210
218
201
82
63
278
119
345
241
124
277
350
67
194
102
2
76
162
90
208
366
342
284
25
273
134
10
365
149
341
133
324
226
306
346
29
22
200
152
222
4
233
271
127
73
259
307
221
77
313
51
312
245
219
207
211
101
34
251
79
65
230
137
359
70
179
40
291
205
299
224
97
335
188
80
72
351
340
36
302
151
229
161
109
83
272
215
204
12
68
49
217
31
135
198
249
263
236
27
227
318
178
288
253
87
46
327
193
84
94
110
183
316
196
7
228
357
371
86
18
142
56
368
157
252
220
283
126
58
336
334
81
85
232
168
339
140
213
122
9
238
38
262
294
296
305
130
32
24
35
166
113
323
231
91
264
279
41
237
20
187
98
169
184
175
276
69
14
23
89
136
328
182
100
144
21
129
154
329
308
43
139
286
117
181
343
64
71
99
108
199
121
30
143
50
114
293
370
6
123
88
15
186
295
5
267
132
37
164
19
331
16
145
11
165
116
111
173
112
223
190
269
163
310
26
206
42
261
125
317
197
107
260
17
120
290
93
202
106
243
189
256
180
74
159
141

> <PUBCHEM_MMFF94_PARTIAL_CHARGES>
30
1 -0.08
10 0.18
11 -0.14
12 0.33
14 -0.15
15 -0.11
16 0.57
17 0.12
18 -0.14
19 -0.15
2 -0.57
20 0.09
21 -0.15
22 0.14
23 -0.15
24 0.63
25 0.28
3 -0.43
36 0.15
37 0.15
38 0.37
39 0.15
4 -0.57
40 0.15
44 0.15
5 -0.81
6 -0.55
7 0.45
8 0.27
9 -0.18

> <PUBCHEM_EFFECTIVE_ROTOR_COUNT>
6.8

> <PUBCHEM_PHARMACOPHORE_FEATURES>
7
1 2 acceptor
1 4 acceptor
1 5 cation
1 6 donor
5 1 9 11 14 15 rings
6 17 18 19 20 21 23 rings
6 5 7 8 9 10 11 rings

> <PUBCHEM_HEAVY_ATOM_COUNT>
25

> <PUBCHEM_ATOM_DEF_STEREO_COUNT>
0

> <PUBCHEM_ATOM_UDEF_STEREO_COUNT>
1

> <PUBCHEM_BOND_DEF_STEREO_COUNT>
0

> <PUBCHEM_BOND_UDEF_STEREO_COUNT>
0

> <PUBCHEM_ISOTOPIC_ATOM_COUNT>
0

> <PUBCHEM_COMPONENT_COUNT>
1

> <PUBCHEM_CACTVS_TAUTO_COUNT>
2

> <PUBCHEM_CONFORMER_ID>
0109735400000001

> <PUBCHEM_MMFF94_ENERGY>
67.7567

> <PUBCHEM_FEATURE_SELFOVERLAP>
35.58

> <PUBCHEM_SHAPE_FINGERPRINT>
10319926 262 18260274070134526728
10462674 125 14062956360487485302
10595046 47 18342732993011818748
10622 236 18268437832565806215
11056379 131 18409447011993576893
11524674 6 17313387846602716527
11545043 162 18113623403992217600
11796584 16 18261954162983683190
12107183 9 17623012712843631768
12236239 1 18130502028729092540
12596602 18 18407761443678381112
12616971 3 18131626807237955844
12839892 36 18333449846049745479
13167823 11 18343301465723022056
13583140 156 17603596256408618117
13782708 43 17386008321294606391
14251751 18 18333453131794399442
14347332 77 18412263917565156375
14844126 61 18410291411570604443
15042514 8 18408321056621210229
15183329 4 18272086141063934970
15188451 53 18187094922918322559
15250474 111 18341901800480338762
15348495 7 17967821535104181720
15537594 2 17917149502071248002
15799311 1 18338783615705685590
15880784 105 18409163286090097656
17492 89 18266179422791547103
17834072 33 18130785676874709456
17844677 252 18409724067285753936
17857418 61 18202566198277073866
17913733 40 16153422869970415838
18927931 339 18335138696363254687
20028762 73 18411984654940513682
21033648 29 16878805926826178968
220451 1 18201150053107439740
22950370 63 18201439229134565948
23516275 137 17982709055731311130
23522609 53 17771314700060574812
23559900 14 18337117761427736057
23569914 152 13538300507297119202
338550 245 18411416224418665678
351380 3 18131914866367642474
397830 11 17896053082992091714
4214541 1 18412260679065356773
465052 167 18410570704645990790
5104073 3 18260546705979228912
5109719 28 18046059360134628768
531348 171 17774449415899741573
559249 180 18342458166912909757
7495541 125 18040997311188231184
8863177 126 18187650159105166522
9896288 288 18337099186141788291

> <PUBCHEM_SHAPE_MULTIPOLES>
490.77
17.11
3.45
1.15
9.69
1.09
-0.24
8.41
-1.01
-6.29
0.51
1.31
0.28
-2.06

> <PUBCHEM_SHAPE_SELFOVERLAP>
1032.151

> <PUBCHEM_SHAPE_VOLUME>
279.5

> <PUBCHEM_COORDINATE_TYPE>
2
5
10

$$$$

