10953718
  -OEChem-07051213133D

 27 28  0     1  0  0  0  0  0999 V2000
   -1.9278   -0.9383   -0.8016 O   0  0  0  0  0  0  0  0  0  0  0  0
   -1.9940    0.1886    0.0740 C   0  0  1  0  0  0  0  0  0  0  0  0
   -1.2885   -1.0765    0.4829 C   0  0  2  0  0  0  0  0  0  0  0  0
   -1.2125    1.3867   -0.3539 C   0  0  0  0  0  0  0  0  0  0  0  0
    0.2013   -1.1990    0.3953 C   0  0  0  0  0  0  0  0  0  0  0  0
    0.8971    0.1696    0.3238 C   0  0  2  0  0  0  0  0  0  0  0  0
    0.2341    1.0644   -0.7333 C   0  0  0  0  0  0  0  0  0  0  0  0
   -3.3659    0.4363    0.5914 C   0  0  0  0  0  0  0  0  0  0  0  0
    2.3579    0.0085    0.0348 C   0  0  0  0  0  0  0  0  0  0  0  0
    3.3001    0.5245    1.0816 C   0  0  0  0  0  0  0  0  0  0  0  0
    2.7982   -0.5648   -1.0950 C   0  0  0  0  0  0  0  0  0  0  0  0
   -1.7420   -1.7573    1.1893 H   0  0  0  0  0  0  0  0  0  0  0  0
   -1.2032    2.1127    0.4687 H   0  0  0  0  0  0  0  0  0  0  0  0
   -1.7084    1.8752   -1.2010 H   0  0  0  0  0  0  0  0  0  0  0  0
    0.4425   -1.8302   -0.4685 H   0  0  0  0  0  0  0  0  0  0  0  0
    0.5645   -1.7396    1.2788 H   0  0  0  0  0  0  0  0  0  0  0  0
    0.7735    0.6610    1.2994 H   0  0  0  0  0  0  0  0  0  0  0  0
    0.2396    0.5719   -1.7145 H   0  0  0  0  0  0  0  0  0  0  0  0
    0.7870    2.0051   -0.8491 H   0  0  0  0  0  0  0  0  0  0  0  0
   -3.9623    0.9860   -0.1444 H   0  0  0  0  0  0  0  0  0  0  0  0
   -3.8965   -0.4944    0.8203 H   0  0  0  0  0  0  0  0  0  0  0  0
   -3.3255    1.0308    1.5100 H   0  0  0  0  0  0  0  0  0  0  0  0
    3.1482    1.5980    1.2339 H   0  0  0  0  0  0  0  0  0  0  0  0
    3.1309    0.0092    2.0327 H   0  0  0  0  0  0  0  0  0  0  0  0
    4.3485    0.3731    0.8033 H   0  0  0  0  0  0  0  0  0  0  0  0
    3.8602   -0.6746   -1.2893 H   0  0  0  0  0  0  0  0  0  0  0  0
    2.1221   -0.9362   -1.8573 H   0  0  0  0  0  0  0  0  0  0  0  0
  1  2  1  0  0  0  0
  1  3  1  0  0  0  0
  2  3  1  0  0  0  0
  2  4  1  0  0  0  0
  2  8  1  0  0  0  0
  3  5  1  0  0  0  0
  3 12  1  0  0  0  0
  4  7  1  0  0  0  0
  4 13  1  0  0  0  0
  4 14  1  0  0  0  0
  5  6  1  0  0  0  0
  5 15  1  0  0  0  0
  5 16  1  0  0  0  0
  6  7  1  0  0  0  0
  6  9  1  0  0  0  0
  6 17  1  0  0  0  0
  7 18  1  0  0  0  0
  7 19  1  0  0  0  0
  8 20  1  0  0  0  0
  8 21  1  0  0  0  0
  8 22  1  0  0  0  0
  9 10  1  0  0  0  0
  9 11  2  0  0  0  0
 10 23  1  0  0  0  0
 10 24  1  0  0  0  0
 10 25  1  0  0  0  0
 11 26  1  0  0  0  0
 11 27  1  0  0  0  0
M  END
> <PUBCHEM_COMPOUND_CID>
10953718

> <PUBCHEM_CONFORMER_RMSD>
0.4

> <PUBCHEM_CONFORMER_DIVERSEORDER>
1
14
6
7
9
3
5
8
2
13
12
4
10
11

> <PUBCHEM_MMFF94_PARTIAL_CHARGES>
13
1 -0.3
10 0.14
11 -0.3
12 0.1
2 -0.04
26 0.15
27 0.15
3 -0.05
4 0.09
5 0.09
6 0.14
8 0.09
9 -0.28

> <PUBCHEM_EFFECTIVE_ROTOR_COUNT>
2

> <PUBCHEM_PHARMACOPHORE_FEATURES>
2
1 1 acceptor
7 1 2 3 4 5 6 7 rings

> <PUBCHEM_HEAVY_ATOM_COUNT>
11

> <PUBCHEM_ATOM_DEF_STEREO_COUNT>
1

> <PUBCHEM_ATOM_UDEF_STEREO_COUNT>
2

> <PUBCHEM_BOND_DEF_STEREO_COUNT>
0

> <PUBCHEM_BOND_UDEF_STEREO_COUNT>
0

> <PUBCHEM_ISOTOPIC_ATOM_COUNT>
0

> <PUBCHEM_COMPONENT_COUNT>
1

> <PUBCHEM_CACTVS_TAUTO_COUNT>
1

> <PUBCHEM_CONFORMER_ID>
00A723F600000001

> <PUBCHEM_MMFF94_ENERGY>
20.4742

> <PUBCHEM_FEATURE_SELFOVERLAP>
10.148

> <PUBCHEM_SHAPE_FINGERPRINT>
10353120 184 18060127756458663021
10857977 72 18201718444452044417
11062470 55 15647051577290274643
12932764 1 18334859450100088886
13024252 1 17989492922119735557
15219456 202 18040436603249539880
15310529 11 15195566784003607222
15775835 57 18410858776064532170
16945 1 18201720656296761781
19026448 5 16226048916062439333
20201158 50 18113616807143977174
20645464 45 18261119568885421792
20645476 183 16916770860774121674
20653085 51 17822281422750093425
20871998 184 18189612757159039895
21040471 1 18200315566404459692
23235685 24 18202843266390550427
23552423 10 17414986959524566116
2748010 2 17984135964003851181
29004967 10 17240202123311150378
3248919 1 18336267851438537036
369184 2 16877941633208133635
5084963 1 18409721893794490020
528886 8 18272365373582310067

> <PUBCHEM_SHAPE_MULTIPOLES>
220.51
4.93
1.27
1.01
0.89
0.01
-0.03
0.32
0.76
-0.36
-0.08
0.51
0
0.2

> <PUBCHEM_SHAPE_SELFOVERLAP>
447.409

> <PUBCHEM_SHAPE_VOLUME>
130.2

> <PUBCHEM_COORDINATE_TYPE>
2
5
10

$$$$

