164701
  -OEChem-07051212473D

 18 17  0     1  0  0  0  0  0999 V2000
   -2.2530    0.0060   -0.1256 S   0  0  0  0  0  0  0  0  0  0  0  0
   -0.6902   -0.0504    0.3460 O   0  0  0  0  0  0  0  0  0  0  0  0
    1.8110   -1.6436    0.8210 O   0  0  0  0  0  0  0  0  0  0  0  0
   -2.9463   -1.2196    0.6981 O   0  0  0  0  0  0  0  0  0  0  0  0
    2.7598   -0.7954   -1.0614 O   0  0  0  0  0  0  0  0  0  0  0  0
   -2.8156    1.2448    0.3789 O   0  0  0  0  0  0  0  0  0  0  0  0
   -2.3308   -0.3070   -1.5404 O   0  0  0  0  0  0  0  0  0  0  0  0
    2.5272    1.7355    0.0803 N   0  0  0  0  0  0  0  0  0  0  0  0
    1.5967    0.6886    0.4994 C   0  0  1  0  0  0  0  0  0  0  0  0
    0.2097    0.9711   -0.0710 C   0  0  0  0  0  0  0  0  0  0  0  0
    2.1316   -0.6300   -0.0253 C   0  0  0  0  0  0  0  0  0  0  0  0
    1.5694    0.6499    1.5941 H   0  0  0  0  0  0  0  0  0  0  0  0
   -0.1585    1.9397    0.2862 H   0  0  0  0  0  0  0  0  0  0  0  0
    0.2309    0.9884   -1.1675 H   0  0  0  0  0  0  0  0  0  0  0  0
    2.5869    1.7677   -0.9367 H   0  0  0  0  0  0  0  0  0  0  0  0
    3.4641    1.5252    0.4217 H   0  0  0  0  0  0  0  0  0  0  0  0
    2.1443   -2.5081    0.4986 H   0  0  0  0  0  0  0  0  0  0  0  0
   -2.4605   -2.0770    0.6659 H   0  0  0  0  0  0  0  0  0  0  0  0
  1  2  1  0  0  0  0
  1  4  1  0  0  0  0
  1  6  2  0  0  0  0
  1  7  2  0  0  0  0
  2 10  1  0  0  0  0
  3 11  1  0  0  0  0
  3 17  1  0  0  0  0
  4 18  1  0  0  0  0
  5 11  2  0  0  0  0
  8  9  1  0  0  0  0
  8 15  1  0  0  0  0
  8 16  1  0  0  0  0
  9 10  1  0  0  0  0
  9 11  1  0  0  0  0
  9 12  1  0  0  0  0
 10 13  1  0  0  0  0
 10 14  1  0  0  0  0
M  END
> <PUBCHEM_COMPOUND_CID>
164701

> <PUBCHEM_CONFORMER_RMSD>
0.6

> <PUBCHEM_CONFORMER_DIVERSEORDER>
1
7
10
4
9
3
8
6
2
5

> <PUBCHEM_MMFF94_PARTIAL_CHARGES>
15
1 1.67
10 0.28
11 0.66
15 0.36
16 0.36
17 0.5
18 0.5
2 -0.46
3 -0.65
4 -0.68
5 -0.57
6 -0.65
7 -0.65
8 -0.99
9 0.33

> <PUBCHEM_EFFECTIVE_ROTOR_COUNT>
4

> <PUBCHEM_PHARMACOPHORE_FEATURES>
9
1 3 acceptor
1 4 acceptor
1 5 acceptor
1 6 acceptor
1 7 acceptor
1 8 cation
1 8 donor
3 3 5 11 anion
4 1 4 6 7 anion

> <PUBCHEM_HEAVY_ATOM_COUNT>
11

> <PUBCHEM_ATOM_DEF_STEREO_COUNT>
1

> <PUBCHEM_ATOM_UDEF_STEREO_COUNT>
0

> <PUBCHEM_BOND_DEF_STEREO_COUNT>
0

> <PUBCHEM_BOND_UDEF_STEREO_COUNT>
0

> <PUBCHEM_ISOTOPIC_ATOM_COUNT>
0

> <PUBCHEM_COMPONENT_COUNT>
1

> <PUBCHEM_CACTVS_TAUTO_COUNT>
1

> <PUBCHEM_CONFORMER_ID>
0002835D00000001

> <PUBCHEM_MMFF94_ENERGY>
4.8489

> <PUBCHEM_FEATURE_SELFOVERLAP>
45.786

> <PUBCHEM_SHAPE_FINGERPRINT>
12897270 3 18273497874911811382
12932741 1 18202289086781459637
12932764 1 17561367304910077753
15310529 11 18260828155438952985
20279233 1 17988937647288689965
20645477 70 18334300863933836479
23552423 10 18412825780749504793
3248919 1 18339655468149062513
8030462 33 18334864891760479381

> <PUBCHEM_SHAPE_MULTIPOLES>
190.03
5.1
1.5
0.97
1.55
0.09
0.27
-0.43
0.28
-0.63
-0.25
0.21
-0.24
0.08

> <PUBCHEM_SHAPE_SELFOVERLAP>
352.364

> <PUBCHEM_SHAPE_VOLUME>
119.5

> <PUBCHEM_COORDINATE_TYPE>
2
5
10

$$$$

