73467
  -OEChem-07051212583D

 51 53  0     1  0  0  0  0  0999 V2000
   -0.8697   -0.6320    1.0377 O   0  0  0  0  0  0  0  0  0  0  0  0
    0.7950   -1.7644   -0.1479 O   0  0  0  0  0  0  0  0  0  0  0  0
   -2.4338    0.7574    0.0046 O   0  0  0  0  0  0  0  0  0  0  0  0
    3.4387    1.9841   -1.0110 O   0  0  0  0  0  0  0  0  0  0  0  0
   -2.6629   -2.8059    0.7795 O   0  0  0  0  0  0  0  0  0  0  0  0
   -5.4704   -1.9144    0.7171 O   0  0  0  0  0  0  0  0  0  0  0  0
   -5.8255    0.1749   -1.2487 O   0  0  0  0  0  0  0  0  0  0  0  0
    5.2692   -0.5254   -0.0042 O   0  0  0  0  0  0  0  0  0  0  0  0
   -2.6802    2.9856   -1.5861 O   0  0  0  0  0  0  0  0  0  0  0  0
    4.5932   -1.6859   -1.8899 O   0  0  0  0  0  0  0  0  0  0  0  0
    1.3789    0.1921    1.2581 C   0  0  2  0  0  0  0  0  0  0  0  0
    1.0082    1.6562    1.5762 C   0  0  2  0  0  0  0  0  0  0  0  0
    2.7641    0.2804    0.5921 C   0  0  2  0  0  0  0  0  0  0  0  0
    0.3547   -0.4822    0.3188 C   0  0  2  0  0  0  0  0  0  0  0  0
    1.5184    2.4523    0.3675 C   0  0  0  0  0  0  0  0  0  0  0  0
    2.6719    1.6133   -0.1304 C   0  0  0  0  0  0  0  0  0  0  0  0
    3.0227   -0.8705   -0.3133 C   0  0  0  0  0  0  0  0  0  0  0  0
    1.6575    2.1409    2.8749 C   0  0  0  0  0  0  0  0  0  0  0  0
   -1.9943   -0.5900    0.1599 C   0  0  2  0  0  0  0  0  0  0  0  0
   -3.1016   -1.4476    0.7722 C   0  0  1  0  0  0  0  0  0  0  0  0
   -4.3983   -1.3375   -0.0300 C   0  0  2  0  0  0  0  0  0  0  0  0
   -4.7514    0.1227   -0.3133 C   0  0  1  0  0  0  0  0  0  0  0  0
   -3.5456    0.8720   -0.8852 C   0  0  1  0  0  0  0  0  0  0  0  0
    2.0919   -1.7906   -0.5896 C   0  0  0  0  0  0  0  0  0  0  0  0
    4.3674   -1.0885   -0.8483 C   0  0  0  0  0  0  0  0  0  0  0  0
   -3.8382    2.3581   -1.0665 C   0  0  0  0  0  0  0  0  0  0  0  0
    6.6401   -0.6553   -0.3943 C   0  0  0  0  0  0  0  0  0  0  0  0
    1.4412   -0.4021    2.1799 H   0  0  0  0  0  0  0  0  0  0  0  0
   -0.0749    1.7864    1.6814 H   0  0  0  0  0  0  0  0  0  0  0  0
    3.5233    0.3727    1.3769 H   0  0  0  0  0  0  0  0  0  0  0  0
    0.1918    0.1561   -0.5615 H   0  0  0  0  0  0  0  0  0  0  0  0
    1.8544    3.4580    0.6313 H   0  0  0  0  0  0  0  0  0  0  0  0
    0.7602    2.5013   -0.4201 H   0  0  0  0  0  0  0  0  0  0  0  0
    2.7503    2.0931    2.8363 H   0  0  0  0  0  0  0  0  0  0  0  0
    1.3770    3.1803    3.0768 H   0  0  0  0  0  0  0  0  0  0  0  0
    1.3215    1.5339    3.7220 H   0  0  0  0  0  0  0  0  0  0  0  0
   -1.7161   -1.0044   -0.8199 H   0  0  0  0  0  0  0  0  0  0  0  0
   -3.2761   -1.1651    1.8173 H   0  0  0  0  0  0  0  0  0  0  0  0
   -4.3320   -1.9065   -0.9656 H   0  0  0  0  0  0  0  0  0  0  0  0
   -5.0988    0.5992    0.6116 H   0  0  0  0  0  0  0  0  0  0  0  0
   -3.2537    0.4628   -1.8621 H   0  0  0  0  0  0  0  0  0  0  0  0
    2.2648   -2.6908   -1.1642 H   0  0  0  0  0  0  0  0  0  0  0  0
   -4.0701    2.8298   -0.1058 H   0  0  0  0  0  0  0  0  0  0  0  0
   -4.6683    2.5226   -1.7601 H   0  0  0  0  0  0  0  0  0  0  0  0
   -2.5075   -3.0778   -0.1411 H   0  0  0  0  0  0  0  0  0  0  0  0
   -5.2234   -2.8339    0.9153 H   0  0  0  0  0  0  0  0  0  0  0  0
   -5.5229   -0.2355   -2.0768 H   0  0  0  0  0  0  0  0  0  0  0  0
   -2.8868    3.9302   -1.6883 H   0  0  0  0  0  0  0  0  0  0  0  0
    6.9203   -1.7117   -0.4475 H   0  0  0  0  0  0  0  0  0  0  0  0
    7.2571   -0.1658    0.3640 H   0  0  0  0  0  0  0  0  0  0  0  0
    6.8079   -0.1616   -1.3563 H   0  0  0  0  0  0  0  0  0  0  0  0
  1 14  1  0  0  0  0
  1 19  1  0  0  0  0
  2 14  1  0  0  0  0
  2 24  1  0  0  0  0
  3 19  1  0  0  0  0
  3 23  1  0  0  0  0
  4 16  2  0  0  0  0
  5 20  1  0  0  0  0
  5 45  1  0  0  0  0
  6 21  1  0  0  0  0
  6 46  1  0  0  0  0
  7 22  1  0  0  0  0
  7 47  1  0  0  0  0
  8 25  1  0  0  0  0
  8 27  1  0  0  0  0
  9 26  1  0  0  0  0
  9 48  1  0  0  0  0
 10 25  2  0  0  0  0
 11 12  1  0  0  0  0
 11 13  1  0  0  0  0
 11 14  1  0  0  0  0
 11 28  1  0  0  0  0
 12 15  1  0  0  0  0
 12 18  1  0  0  0  0
 12 29  1  0  0  0  0
 13 16  1  0  0  0  0
 13 17  1  0  0  0  0
 13 30  1  0  0  0  0
 14 31  1  0  0  0  0
 15 16  1  0  0  0  0
 15 32  1  0  0  0  0
 15 33  1  0  0  0  0
 17 24  2  0  0  0  0
 17 25  1  0  0  0  0
 18 34  1  0  0  0  0
 18 35  1  0  0  0  0
 18 36  1  0  0  0  0
 19 20  1  0  0  0  0
 19 37  1  0  0  0  0
 20 21  1  0  0  0  0
 20 38  1  0  0  0  0
 21 22  1  0  0  0  0
 21 39  1  0  0  0  0
 22 23  1  0  0  0  0
 22 40  1  0  0  0  0
 23 26  1  0  0  0  0
 23 41  1  0  0  0  0
 24 42  1  0  0  0  0
 26 43  1  0  0  0  0
 26 44  1  0  0  0  0
 27 49  1  0  0  0  0
 27 50  1  0  0  0  0
 27 51  1  0  0  0  0
M  END
> <PUBCHEM_COMPOUND_CID>
73467

> <PUBCHEM_CONFORMER_RMSD>
0.8

> <PUBCHEM_CONFORMER_DIVERSEORDER>
1
70
53
69
116
85
101
12
145
108
72
40
118
97
35
55
68
120
5
58
99
147
124
84
63
48
77
132
2
52
135
95
126
149
88
137
18
119
112
7
30
146
139
102
19
136
107
89
57
115
96
10
65
109
66
43
131
14
39
144
44
140
4
152
46
11
79
17
61
134
111
42
138
3
64
82
127
133
104
123
128
75
60
21
32
27
148
23
71
117
87
31
93
51
76
105
122
114
94
151
62
81
125
74
143
6
110
45
8
129
153
29
141
15
28
78
67
90
50
130
100
121
59
54
80
49
86
37
47
38
34
91
20
56
26
83
92
73
142
16
33
25
150
98
13
113
106
41
22
36
9
103
24

> <PUBCHEM_MMFF94_PARTIAL_CHARGES>
29
1 -0.56
10 -0.57
13 0.2
14 0.56
15 0.06
16 0.45
17 -0.12
19 0.56
2 -0.36
20 0.28
21 0.28
22 0.28
23 0.28
24 -0.07
25 0.71
26 0.28
27 0.28
3 -0.56
4 -0.57
42 0.15
45 0.4
46 0.4
47 0.4
48 0.4
5 -0.68
6 -0.68
7 -0.68
8 -0.43
9 -0.68

> <PUBCHEM_EFFECTIVE_ROTOR_COUNT>
7

> <PUBCHEM_PHARMACOPHORE_FEATURES>
16
1 1 acceptor
1 10 acceptor
1 2 acceptor
1 3 acceptor
1 4 acceptor
1 5 acceptor
1 5 donor
1 6 acceptor
1 6 donor
1 7 acceptor
1 7 donor
1 9 acceptor
1 9 donor
5 11 12 13 15 16 rings
6 2 11 13 14 17 24 rings
6 3 19 20 21 22 23 rings

> <PUBCHEM_HEAVY_ATOM_COUNT>
27

> <PUBCHEM_ATOM_DEF_STEREO_COUNT>
9

> <PUBCHEM_ATOM_UDEF_STEREO_COUNT>
0

> <PUBCHEM_BOND_DEF_STEREO_COUNT>
0

> <PUBCHEM_BOND_UDEF_STEREO_COUNT>
0

> <PUBCHEM_ISOTOPIC_ATOM_COUNT>
0

> <PUBCHEM_COMPONENT_COUNT>
1

> <PUBCHEM_CACTVS_TAUTO_COUNT>
3

> <PUBCHEM_CONFORMER_ID>
00011EFB00000001

> <PUBCHEM_MMFF94_ENERGY>
68.4668

> <PUBCHEM_FEATURE_SELFOVERLAP>
81.442

> <PUBCHEM_SHAPE_FINGERPRINT>
10165383 225 18198337567099763285
10366900 7 18412270553674841439
10498660 4 17917439709333792437
10670039 82 17917436453579705853
10764073 3 17258271664921798520
11595378 159 16486988310048931053
12236239 1 15357696387811356618
12596602 18 15554436401953514215
13134695 92 17458068157648224216
13402501 40 18409731759629794167
13631057 29 14332544659177290905
13911987 19 18041547067239177934
13914758 101 17632292441733871374
14251757 17 18339923830685401532
15183329 4 18202002166055255922
15961568 22 17844810278396290628
17349148 13 16008465434533776543
17357779 13 17968096494831879160
1813 80 16153415160762529616
18769570 83 17632014256185476396
21033650 10 17771884276847190486
21792961 116 18336819888408073678
221357 26 18408327704866847509
22182313 1 18261972776966087368
22393880 68 18341618130685103762
23557571 272 18129383696712517387
23559900 14 18412269415371130451
3009799 131 18412544328070407482
350125 39 18411132541812277723
46194498 28 18411976936408763076
508706 21 18342186600194019525
5281201 14 18409446973016884061
5283173 99 18341613771858002048
6287921 2 18122627146051940829
6823239 73 18342745095796973209
7471813 234 16805324387741203537
9709674 26 18339646620890862115

> <PUBCHEM_SHAPE_MULTIPOLES>
496.95
12.45
2.86
1.59
0.79
0.99
-0.5
-4.25
4.52
0.65
-0.03
-0.23
0.95
2.79

> <PUBCHEM_SHAPE_SELFOVERLAP>
1047.343

> <PUBCHEM_SHAPE_VOLUME>
275.9

> <PUBCHEM_COORDINATE_TYPE>
2
5
10

$$$$

