442475
  -OEChem-07051212582D

 44 47  0     1  0  0  0  0  0999 V2000
    6.4779    0.2328    0.0000 O   0  0  0  0  0  0  0  0  0  0  0  0
    2.0000   -0.3799    0.0000 O   0  0  0  0  0  0  0  0  0  0  0  0
    5.7007    1.1828    0.0000 N   0  0  3  0  0  0  0  0  0  0  0  0
    4.5772   -0.2260    0.0000 C   0  0  1  0  0  0  0  0  0  0  0  0
    5.4782    0.2079    0.0000 C   0  0  2  0  0  0  0  0  0  0  0  0
    4.4413   -1.2107    0.0000 C   0  0  1  0  0  0  0  0  0  0  0  0
    3.6763    0.2079    0.0000 C   0  0  1  0  0  0  0  0  0  0  0  0
    4.4534    0.1974    0.0000 C   0  0  0  0  0  0  0  0  0  0  0  0
    6.2665   -0.3910    0.0000 C   0  0  0  0  0  0  0  0  0  0  0  0
    5.2511   -1.7801    0.0000 C   0  0  0  0  0  0  0  0  0  0  0  0
    3.4630   -1.3874    0.0000 C   0  0  0  0  0  0  0  0  0  0  0  0
    6.1541   -1.3745    0.0000 C   0  0  1  0  0  0  0  0  0  0  0  0
    2.9912   -0.5124    0.0000 C   0  0  0  0  0  0  0  0  0  0  0  0
    3.4538    1.1828    0.0000 C   0  0  0  0  0  0  0  0  0  0  0  0
    4.4892    0.9966    0.0000 C   0  0  0  0  0  0  0  0  0  0  0  0
    5.2604    1.2094    0.0000 C   0  0  0  0  0  0  0  0  0  0  0  0
    5.0772    1.9646    0.0000 C   0  0  0  0  0  0  0  0  0  0  0  0
    4.0772    1.9646    0.0000 C   0  0  0  0  0  0  0  0  0  0  0  0
    6.9615   -1.9646    0.0000 C   0  0  0  0  0  0  0  0  0  0  0  0
    4.2582   -2.0408    0.0000 H   0  0  0  0  0  0  0  0  0  0  0  0
    2.9105    0.5767    0.0000 H   0  0  0  0  0  0  0  0  0  0  0  0
    3.8974    0.4718    0.0000 H   0  0  0  0  0  0  0  0  0  0  0  0
    5.0689    0.2715    0.0000 H   0  0  0  0  0  0  0  0  0  0  0  0
    6.8602   -0.5697    0.0000 H   0  0  0  0  0  0  0  0  0  0  0  0
    6.5479    0.1615    0.0000 H   0  0  0  0  0  0  0  0  0  0  0  0
    4.8101   -2.2159    0.0000 H   0  0  0  0  0  0  0  0  0  0  0  0
    5.6016   -2.2915    0.0000 H   0  0  0  0  0  0  0  0  0  0  0  0
    2.8894   -1.6227    0.0000 H   0  0  0  0  0  0  0  0  0  0  0  0
    3.6367   -1.9826    0.0000 H   0  0  0  0  0  0  0  0  0  0  0  0
    6.7220   -1.1257    0.0000 H   0  0  0  0  0  0  0  0  0  0  0  0
    3.0672    1.6675    0.0000 H   0  0  0  0  0  0  0  0  0  0  0  0
    2.8952    0.9138    0.0000 H   0  0  0  0  0  0  0  0  0  0  0  0
    4.3877    1.6082    0.0000 H   0  0  0  0  0  0  0  0  0  0  0  0
    3.8704    0.9595    0.0000 H   0  0  0  0  0  0  0  0  0  0  0  0
    5.5434    1.7610    0.0000 H   0  0  0  0  0  0  0  0  0  0  0  0
    5.3251    0.5928    0.0000 H   0  0  0  0  0  0  0  0  0  0  0  0
    5.6358    2.2336    0.0000 H   0  0  0  0  0  0  0  0  0  0  0  0
    4.9393    2.5691    0.0000 H   0  0  0  0  0  0  0  0  0  0  0  0
    4.2152    2.5691    0.0000 H   0  0  0  0  0  0  0  0  0  0  0  0
    3.5186    2.2336    0.0000 H   0  0  0  0  0  0  0  0  0  0  0  0
    6.7744    0.7773    0.0000 H   0  0  0  0  0  0  0  0  0  0  0  0
    6.5956   -2.4652    0.0000 H   0  0  0  0  0  0  0  0  0  0  0  0
    7.4620   -2.3305    0.0000 H   0  0  0  0  0  0  0  0  0  0  0  0
    7.3273   -1.4641    0.0000 H   0  0  0  0  0  0  0  0  0  0  0  0
  5  1  1  1  0  0  0
  1 41  1  0  0  0  0
  2 13  2  0  0  0  0
  3  5  1  0  0  0  0
  3 16  1  0  0  0  0
  3 17  1  0  0  0  0
  4  5  1  0  0  0  0
  4  6  1  0  0  0  0
  4  7  1  0  0  0  0
  4  8  1  6  0  0  0
  5  9  1  0  0  0  0
  6 10  1  0  0  0  0
  6 11  1  0  0  0  0
  6 20  1  6  0  0  0
  7 13  1  0  0  0  0
  7 14  1  0  0  0  0
  7 21  1  6  0  0  0
  8 15  1  0  0  0  0
  8 22  1  0  0  0  0
  8 23  1  0  0  0  0
  9 12  1  0  0  0  0
  9 24  1  0  0  0  0
  9 25  1  0  0  0  0
 10 12  1  0  0  0  0
 10 26  1  0  0  0  0
 10 27  1  0  0  0  0
 11 13  1  0  0  0  0
 11 28  1  0  0  0  0
 11 29  1  0  0  0  0
 12 19  1  6  0  0  0
 12 30  1  0  0  0  0
 14 18  1  0  0  0  0
 14 31  1  0  0  0  0
 14 32  1  0  0  0  0
 15 16  1  0  0  0  0
 15 33  1  0  0  0  0
 15 34  1  0  0  0  0
 16 35  1  0  0  0  0
 16 36  1  0  0  0  0
 17 18  1  0  0  0  0
 17 37  1  0  0  0  0
 17 38  1  0  0  0  0
 18 39  1  0  0  0  0
 18 40  1  0  0  0  0
 19 42  1  0  0  0  0
 19 43  1  0  0  0  0
 19 44  1  0  0  0  0
M  END
> <PUBCHEM_COMPOUND_CID>
442475

> <PUBCHEM_COMPOUND_CANONICALIZED>
1

> <PUBCHEM_CACTVS_COMPLEXITY>
423

> <PUBCHEM_CACTVS_HBOND_ACCEPTOR>
3

> <PUBCHEM_CACTVS_HBOND_DONOR>
1

> <PUBCHEM_CACTVS_ROTATABLE_BOND>
0

> <PUBCHEM_CACTVS_SUBSKEYS>
AAADceB6MAAAAAAAAAAAAAAAAAAAAYAAAAA8QAAABYAAAHiwAAAAHgAACAAADwzBgAQCAAMAAgAIAIAQAAAAAAAAAAAAAAEIAAAAABIAgAAEQAAEAACAAAGe3fLfgAAAAAAAAACAAAaAADQAAQAACAAAAA==

> <PUBCHEM_IUPAC_INCHI>
InChI=1S/C16H25NO2/c1-11-8-12-9-14(18)13-4-2-6-17-7-3-5-15(12,13)16(17,19)10-11/h11-13,19H,2-10H2,1H3/t11-,12+,13-,15+,16+/m1/s1

> <PUBCHEM_IUPAC_INCHIKEY>
ZLMYGBDFISIGLH-WALBABNVSA-N

> <PUBCHEM_XLOGP3_AA>
1.9

> <PUBCHEM_EXACT_MASS>
263.188529

> <PUBCHEM_MOLECULAR_FORMULA>
C16H25NO2

> <PUBCHEM_MOLECULAR_WEIGHT>
263.3752

> <PUBCHEM_OPENEYE_CAN_SMILES>
CC1CC2CC(=O)C3C24CCCN(C4(C1)O)CCC3

> <PUBCHEM_OPENEYE_ISO_SMILES>
C[C@@H]1C[C@H]2CC(=O)[C@@H]3[C@]24CCCN([C@@]4(C1)O)CCC3

> <PUBCHEM_CACTVS_TPSA>
40.5

> <PUBCHEM_MONOISOTOPIC_WEIGHT>
263.188529

> <PUBCHEM_TOTAL_CHARGE>
0

> <PUBCHEM_HEAVY_ATOM_COUNT>
19

> <PUBCHEM_ATOM_DEF_STEREO_COUNT>
5

> <PUBCHEM_ATOM_UDEF_STEREO_COUNT>
0

> <PUBCHEM_BOND_DEF_STEREO_COUNT>
0

> <PUBCHEM_BOND_UDEF_STEREO_COUNT>
0

> <PUBCHEM_ISOTOPIC_ATOM_COUNT>
0

> <PUBCHEM_COMPONENT_COUNT>
1

> <PUBCHEM_CACTVS_TAUTO_COUNT>
2

> <PUBCHEM_COORDINATE_TYPE>
1
5
255

> <PUBCHEM_BONDANNOTATIONS>
5  1  5
12  19  6
4  8  6
6  20  6
7  21  6

$$$$

