91779
  -OEChem-07051213003D

 45 46  0     0  0  0  0  0  0999 V2000
    4.9717   -0.3442   -0.5169 S   0  0  0  0  0  0  0  0  0  0  0  0
    1.9226    0.8668   -0.8248 S   0  0  0  0  0  0  0  0  0  0  0  0
    5.9310   -1.4237   -0.3270 O   0  0  0  0  0  0  0  0  0  0  0  0
    4.2949   -0.1980   -1.7991 O   0  0  0  0  0  0  0  0  0  0  0  0
    2.6672    2.1089   -1.0014 O   0  0  0  0  0  0  0  0  0  0  0  0
    1.8910   -0.1074   -1.9096 O   0  0  0  0  0  0  0  0  0  0  0  0
   -0.6710   -0.8056   -0.8432 O   0  0  0  0  0  0  0  0  0  0  0  0
   -4.8209   -2.6567   -0.7913 O   0  0  0  0  0  0  0  0  0  0  0  0
   -6.5527    1.5139    0.6502 O   0  0  0  0  0  0  0  0  0  0  0  0
    1.5413   -0.0136    1.5589 N   0  0  0  0  0  0  0  0  0  0  0  0
    0.3085    1.2527   -0.3903 N   0  0  0  0  0  0  0  0  0  0  0  0
   -1.9926    0.9865   -0.1402 N   0  0  0  0  0  0  0  0  0  0  0  0
   -3.3994   -0.8525   -0.4720 N   0  0  0  0  0  0  0  0  0  0  0  0
   -4.2798    1.2676    0.2610 N   0  0  0  0  0  0  0  0  0  0  0  0
    3.7745   -0.4582    0.7463 C   0  0  0  0  0  0  0  0  0  0  0  0
    5.8093    1.1922   -0.1965 C   0  0  0  0  0  0  0  0  0  0  0  0
    2.4955    0.0551    0.6036 C   0  0  0  0  0  0  0  0  0  0  0  0
    4.0949   -1.0825    1.9469 C   0  0  0  0  0  0  0  0  0  0  0  0
    6.8972    1.4533   -1.2142 C   0  0  0  0  0  0  0  0  0  0  0  0
    3.1401   -1.1728    2.9536 C   0  0  0  0  0  0  0  0  0  0  0  0
    1.8894   -0.6275    2.7120 C   0  0  0  0  0  0  0  0  0  0  0  0
   -0.8091    0.3585   -0.4878 C   0  0  0  0  0  0  0  0  0  0  0  0
   -3.2955    0.4370   -0.1156 C   0  0  0  0  0  0  0  0  0  0  0  0
   -4.6555   -1.3440   -0.4373 C   0  0  0  0  0  0  0  0  0  0  0  0
   -5.5089    0.7110    0.2732 C   0  0  0  0  0  0  0  0  0  0  0  0
   -5.7592   -0.6020   -0.0691 C   0  0  0  0  0  0  0  0  0  0  0  0
   -3.6486   -3.3730   -1.1618 C   0  0  0  0  0  0  0  0  0  0  0  0
   -6.2360    2.8582    0.9921 C   0  0  0  0  0  0  0  0  0  0  0  0
    6.2419    1.1263    0.8067 H   0  0  0  0  0  0  0  0  0  0  0  0
    5.0770    2.0011   -0.2096 H   0  0  0  0  0  0  0  0  0  0  0  0
    5.0825   -1.4986    2.1236 H   0  0  0  0  0  0  0  0  0  0  0  0
    6.4848    1.5202   -2.2260 H   0  0  0  0  0  0  0  0  0  0  0  0
    7.6443    0.6532   -1.2105 H   0  0  0  0  0  0  0  0  0  0  0  0
    7.4075    2.3956   -0.9923 H   0  0  0  0  0  0  0  0  0  0  0  0
    3.3678   -1.6533    3.8982 H   0  0  0  0  0  0  0  0  0  0  0  0
    0.1233    2.2241   -0.1106 H   0  0  0  0  0  0  0  0  0  0  0  0
    1.1093   -0.6712    3.4649 H   0  0  0  0  0  0  0  0  0  0  0  0
   -1.9404    1.9638    0.1339 H   0  0  0  0  0  0  0  0  0  0  0  0
   -6.7566   -1.0229   -0.0502 H   0  0  0  0  0  0  0  0  0  0  0  0
   -3.9444   -4.3956   -1.4141 H   0  0  0  0  0  0  0  0  0  0  0  0
   -2.9391   -3.4226   -0.3289 H   0  0  0  0  0  0  0  0  0  0  0  0
   -3.1802   -2.9289   -2.0466 H   0  0  0  0  0  0  0  0  0  0  0  0
   -5.8038    3.3893    0.1373 H   0  0  0  0  0  0  0  0  0  0  0  0
   -5.5632    2.8957    1.8554 H   0  0  0  0  0  0  0  0  0  0  0  0
   -7.1664    3.3636    1.2676 H   0  0  0  0  0  0  0  0  0  0  0  0
  1  3  2  0  0  0  0
  1  4  2  0  0  0  0
  1 15  1  0  0  0  0
  1 16  1  0  0  0  0
  2  5  2  0  0  0  0
  2  6  2  0  0  0  0
  2 11  1  0  0  0  0
  2 17  1  0  0  0  0
  7 22  2  0  0  0  0
  8 24  1  0  0  0  0
  8 27  1  0  0  0  0
  9 25  1  0  0  0  0
  9 28  1  0  0  0  0
 10 17  1  0  0  0  0
 10 21  2  0  0  0  0
 11 22  1  0  0  0  0
 11 36  1  0  0  0  0
 12 22  1  0  0  0  0
 12 23  1  0  0  0  0
 12 38  1  0  0  0  0
 13 23  1  0  0  0  0
 13 24  2  0  0  0  0
 14 23  2  0  0  0  0
 14 25  1  0  0  0  0
 15 17  2  0  0  0  0
 15 18  1  0  0  0  0
 16 19  1  0  0  0  0
 16 29  1  0  0  0  0
 16 30  1  0  0  0  0
 18 20  2  0  0  0  0
 18 31  1  0  0  0  0
 19 32  1  0  0  0  0
 19 33  1  0  0  0  0
 19 34  1  0  0  0  0
 20 21  1  0  0  0  0
 20 35  1  0  0  0  0
 21 37  1  0  0  0  0
 24 26  1  0  0  0  0
 25 26  2  0  0  0  0
 26 39  1  0  0  0  0
 27 40  1  0  0  0  0
 27 41  1  0  0  0  0
 27 42  1  0  0  0  0
 28 43  1  0  0  0  0
 28 44  1  0  0  0  0
 28 45  1  0  0  0  0
M  END
> <PUBCHEM_COMPOUND_CID>
91779

> <PUBCHEM_CONFORMER_RMSD>
1

> <PUBCHEM_CONFORMER_DIVERSEORDER>
1
70
89
100
33
59
87
36
30
69
96
66
78
23
102
47
35
129
60
121
114
50
81
95
93
55
118
41
67
5
126
19
58
27
53
123
56
110
94
3
85
117
92
21
74
37
125
39
82
111
77
130
98
112
84
34
15
105
113
20
131
64
103
68
57
122
72
107
119
101
86
31
115
14
52
6
108
90
9
99
48
7
29
49
12
76
11
104
128
63
42
79
43
16
26
120
46
124
62
40
80
106
132
83
18
54
44
65
4
17
61
32
2
45
28
116
25
51
91
71
88
10
8
97
24
22
38
13
75
73
109
127

> <PUBCHEM_MMFF94_PARTIAL_CHARGES>
33
1 1.2
10 -0.62
11 -0.79
12 -0.55
13 -0.62
14 -0.62
15 -0.01
16 0.11
17 0.3
18 -0.15
2 1.45
20 -0.15
21 0.16
22 0.87
23 0.74
24 0.39
25 0.39
26 -0.15
27 0.28
28 0.28
3 -0.65
31 0.15
35 0.15
36 0.42
37 0.15
38 0.37
39 0.15
4 -0.65
5 -0.65
6 -0.65
7 -0.57
8 -0.36
9 -0.36

> <PUBCHEM_EFFECTIVE_ROTOR_COUNT>
9

> <PUBCHEM_PHARMACOPHORE_FEATURES>
11
1 10 acceptor
1 11 donor
1 12 donor
1 3 acceptor
1 4 acceptor
1 5 acceptor
1 6 acceptor
1 7 acceptor
1 9 acceptor
6 10 15 17 18 20 21 rings
6 13 14 23 24 25 26 rings

> <PUBCHEM_HEAVY_ATOM_COUNT>
28

> <PUBCHEM_ATOM_DEF_STEREO_COUNT>
0

> <PUBCHEM_ATOM_UDEF_STEREO_COUNT>
0

> <PUBCHEM_BOND_DEF_STEREO_COUNT>
0

> <PUBCHEM_BOND_UDEF_STEREO_COUNT>
0

> <PUBCHEM_ISOTOPIC_ATOM_COUNT>
0

> <PUBCHEM_COMPONENT_COUNT>
1

> <PUBCHEM_CACTVS_TAUTO_COUNT>
5

> <PUBCHEM_CONFORMER_ID>
0001668300000001

> <PUBCHEM_MMFF94_ENERGY>
58.3713

> <PUBCHEM_FEATURE_SELFOVERLAP>
55.934

> <PUBCHEM_SHAPE_FINGERPRINT>
10319926 262 17967540060386141483
10673678 19 17605270680508417736
10763959 59 15574434336123904672
11045977 3 17240489100225525803
11135926 11 16917354731787425562
11545043 162 17603868875632529163
11796584 16 18040432213550805870
12236239 1 18343300379175540884
12403259 415 17095247990440865139
12596602 18 18412824677122413896
12616971 3 17846509165932098363
12788726 201 18199468934056992489
13782708 43 16878232948366961455
14840074 17 17561084726433214319
15183329 4 18343588451802046309
15348495 7 17531256019484856067
15537594 2 17918276467509729307
16994733 274 18263083224372240480
18681886 176 18261674757933484308
19319366 153 17131840854637920378
20511986 3 18131362907494052925
20554085 129 17896611764217687849
20645477 70 15841555197181609008
21033648 29 17168157731865605587
21315763 178 17918276454229273013
21521721 280 17274813628842289628
21623969 137 15410894063250837434
21792961 116 16298654089035996516
220451 1 18272370879698643905
22224240 67 17275104982328144476
23516275 137 18125416821510239594
23522609 53 18129641089317775333
23559900 14 17967813829996448065
24771293 8 18058450912003514156
314194 84 17417821676557773939
351380 3 18059862778736354835
4073 2 18200306598750116080
4340502 62 16845569812575276880
508706 21 17604160211970566847
5104073 3 18411699847131881297
5265222 85 17751075813391419774
5758199 1 17775280535353798412
602551 16 18188500085735728987

> <PUBCHEM_SHAPE_MULTIPOLES>
517.94
17.89
2.4
1.99
8.08
0.58
1.27
-3.91
-0.98
3.36
-0.33
-2.28
0.87
-4.08

> <PUBCHEM_SHAPE_SELFOVERLAP>
1063.438

> <PUBCHEM_SHAPE_VOLUME>
298.2

> <PUBCHEM_COORDINATE_TYPE>
2
5
10

$$$$

