47205093
  -OEChem-06241222582D

 29 31  0     0  0  0  0  0  0999 V2000
    4.9889    2.5350    0.0000 Cl  0  0  0  0  0  0  0  0  0  0  0  0
    4.6783   -0.0250    0.0000 S   0  0  0  0  0  0  0  0  0  0  0  0
    6.7619    1.6458    0.0000 O   0  0  0  0  0  0  0  0  0  0  0  0
    6.7619   -0.0863    0.0000 N   0  0  0  0  0  0  0  0  0  0  0  0
    7.8551   -1.8659    0.0000 N   0  0  0  0  0  0  0  0  0  0  0  0
    8.5983   -2.5350    0.0000 N   0  0  0  0  0  0  0  0  0  0  0  0
    3.7320    1.2797    0.0000 C   0  0  0  0  0  0  0  0  0  0  0  0
    3.7320    0.2797    0.0000 C   0  0  0  0  0  0  0  0  0  0  0  0
    5.2619    0.7797    0.0000 C   0  0  0  0  0  0  0  0  0  0  0  0
    4.6783    1.5845    0.0000 C   0  0  0  0  0  0  0  0  0  0  0  0
    7.7619   -0.0863    0.0000 C   0  0  0  0  0  0  0  0  0  0  0  0
    8.2619   -0.9523    0.0000 C   0  0  0  0  0  0  0  0  0  0  0  0
    6.2619    0.7797    0.0000 C   0  0  0  0  0  0  0  0  0  0  0  0
    2.8660    1.7797    0.0000 C   0  0  0  0  0  0  0  0  0  0  0  0
    2.8660   -0.2203    0.0000 C   0  0  0  0  0  0  0  0  0  0  0  0
    2.0000    1.2797    0.0000 C   0  0  0  0  0  0  0  0  0  0  0  0
    2.0000    0.2797    0.0000 C   0  0  0  0  0  0  0  0  0  0  0  0
    9.2564   -1.0568    0.0000 C   0  0  0  0  0  0  0  0  0  0  0  0
    9.4643   -2.0350    0.0000 C   0  0  0  0  0  0  0  0  0  0  0  0
    8.3445    0.1258    0.0000 H   0  0  0  0  0  0  0  0  0  0  0  0
    7.6542    0.5243    0.0000 H   0  0  0  0  0  0  0  0  0  0  0  0
    6.4519   -0.6232    0.0000 H   0  0  0  0  0  0  0  0  0  0  0  0
    2.8660    2.3997    0.0000 H   0  0  0  0  0  0  0  0  0  0  0  0
    2.8660   -0.8403    0.0000 H   0  0  0  0  0  0  0  0  0  0  0  0
    1.4631    1.5897    0.0000 H   0  0  0  0  0  0  0  0  0  0  0  0
    1.4631   -0.0303    0.0000 H   0  0  0  0  0  0  0  0  0  0  0  0
    9.6713   -0.5961    0.0000 H   0  0  0  0  0  0  0  0  0  0  0  0
    7.2487   -1.9948    0.0000 H   0  0  0  0  0  0  0  0  0  0  0  0
   10.0307   -2.2872    0.0000 H   0  0  0  0  0  0  0  0  0  0  0  0
  1 10  1  0  0  0  0
  2  8  1  0  0  0  0
  2  9  1  0  0  0  0
  3 13  2  0  0  0  0
  4 11  1  0  0  0  0
  4 13  1  0  0  0  0
  4 22  1  0  0  0  0
  5  6  1  0  0  0  0
  5 12  1  0  0  0  0
  5 28  1  0  0  0  0
  6 19  2  0  0  0  0
  7  8  1  0  0  0  0
  7 10  1  0  0  0  0
  7 14  2  0  0  0  0
  8 15  2  0  0  0  0
  9 10  2  0  0  0  0
  9 13  1  0  0  0  0
 11 12  1  0  0  0  0
 11 20  1  0  0  0  0
 11 21  1  0  0  0  0
 12 18  2  0  0  0  0
 14 16  1  0  0  0  0
 14 23  1  0  0  0  0
 15 17  1  0  0  0  0
 15 24  1  0  0  0  0
 16 17  2  0  0  0  0
 16 25  1  0  0  0  0
 17 26  1  0  0  0  0
 18 19  1  0  0  0  0
 18 27  1  0  0  0  0
 19 29  1  0  0  0  0
M  END
> <PUBCHEM_COMPOUND_CID>
47205093

> <PUBCHEM_COMPOUND_CANONICALIZED>
1

> <PUBCHEM_CACTVS_COMPLEXITY>
344

> <PUBCHEM_CACTVS_HBOND_ACCEPTOR>
3

> <PUBCHEM_CACTVS_HBOND_DONOR>
2

> <PUBCHEM_CACTVS_ROTATABLE_BOND>
3

> <PUBCHEM_CACTVS_SUBSKEYS>
AAADccBzIABEAAAAAAAAAAAAAAAAAWJAAAAwAAAAAAAAAEgB/AAAHgYYAAAADArB3iQ8gdLjAAiuAzV3UACTBIAkjhBYubk4ZtgIYLKh19GUpQhgngCozQcYiICOAAAAAAAEAAAAAAAAAAgAAAAAAAAAAA==

> <PUBCHEM_IUPAC_OPENEYE_NAME>
3-chloro-N-(1H-pyrazol-5-ylmethyl)benzothiophene-2-carboxamide

> <PUBCHEM_IUPAC_CAS_NAME>
3-chloro-N-(1H-pyrazol-5-ylmethyl)-1-benzothiophene-2-carboxamide

> <PUBCHEM_IUPAC_NAME>
3-chloro-N-(1H-pyrazol-5-ylmethyl)-1-benzothiophene-2-carboxamide

> <PUBCHEM_IUPAC_SYSTEMATIC_NAME>
3-chloranyl-N-(1H-pyrazol-5-ylmethyl)-1-benzothiophene-2-carboxamide

> <PUBCHEM_IUPAC_TRADITIONAL_NAME>
3-chloro-N-(1H-pyrazol-5-ylmethyl)benzothiophene-2-carboxamide

> <PUBCHEM_IUPAC_INCHI>
InChI=1S/C13H10ClN3OS/c14-11-9-3-1-2-4-10(9)19-12(11)13(18)15-7-8-5-6-16-17-8/h1-6H,7H2,(H,15,18)(H,16,17)

> <PUBCHEM_IUPAC_INCHIKEY>
BTFRIQBLAUYLFH-UHFFFAOYSA-N

> <PUBCHEM_XLOGP3_AA>
3

> <PUBCHEM_EXACT_MASS>
291.023311

> <PUBCHEM_MOLECULAR_FORMULA>
C13H10ClN3OS

> <PUBCHEM_MOLECULAR_WEIGHT>
291.756

> <PUBCHEM_OPENEYE_CAN_SMILES>
C1=CC=C2C(=C1)C(=C(S2)C(=O)NCC3=CC=NN3)Cl

> <PUBCHEM_OPENEYE_ISO_SMILES>
C1=CC=C2C(=C1)C(=C(S2)C(=O)NCC3=CC=NN3)Cl

> <PUBCHEM_CACTVS_TPSA>
86

> <PUBCHEM_MONOISOTOPIC_WEIGHT>
291.023311

> <PUBCHEM_TOTAL_CHARGE>
0

> <PUBCHEM_HEAVY_ATOM_COUNT>
19

> <PUBCHEM_ATOM_DEF_STEREO_COUNT>
0

> <PUBCHEM_ATOM_UDEF_STEREO_COUNT>
0

> <PUBCHEM_BOND_DEF_STEREO_COUNT>
0

> <PUBCHEM_BOND_UDEF_STEREO_COUNT>
0

> <PUBCHEM_ISOTOPIC_ATOM_COUNT>
0

> <PUBCHEM_COMPONENT_COUNT>
1

> <PUBCHEM_CACTVS_TAUTO_COUNT>
4

> <PUBCHEM_COORDINATE_TYPE>
1
5
255

> <PUBCHEM_BONDANNOTATIONS>
12  18  8
14  16  8
15  17  8
16  17  8
18  19  8
2  8  8
2  9  8
5  12  8
5  6  8
6  19  8
7  10  8
7  14  8
7  8  8
8  15  8
9  10  8

$$$$

