7847065
  -OEChem-06241222483D

 51 53  0     0  0  0  0  0  0999 V2000
   -0.3981   -0.0623    0.0025 O   0  0  0  0  0  0  0  0  0  0  0  0
   -1.0578   -0.3425   -2.1850 O   0  0  0  0  0  0  0  0  0  0  0  0
    7.4224    0.2810    0.0410 O   0  0  0  0  0  0  0  0  0  0  0  0
    1.4098    0.2939    1.9337 O   0  0  0  0  0  0  0  0  0  0  0  0
   -5.2594   -0.3653    0.6004 N   0  0  0  0  0  0  0  0  0  0  0  0
   -3.2198   -1.4728   -0.0648 C   0  0  0  0  0  0  0  0  0  0  0  0
   -2.6823   -0.2507   -0.4422 C   0  0  0  0  0  0  0  0  0  0  0  0
   -4.5017   -1.4753    0.4466 C   0  0  0  0  0  0  0  0  0  0  0  0
   -3.4332    0.9239   -0.2996 C   0  0  0  0  0  0  0  0  0  0  0  0
   -4.7351    0.8193    0.2333 C   0  0  0  0  0  0  0  0  0  0  0  0
   -5.1431   -2.7554    0.8729 C   0  0  0  0  0  0  0  0  0  0  0  0
   -2.4469   -2.7419   -0.2032 C   0  0  0  0  0  0  0  0  0  0  0  0
   -2.9176    2.1768   -0.6723 C   0  0  0  0  0  0  0  0  0  0  0  0
   -1.3246   -0.2278   -0.9863 C   0  0  0  0  0  0  0  0  0  0  0  0
   -5.4806    1.9864    0.3747 C   0  0  0  0  0  0  0  0  0  0  0  0
   -5.9102   -3.4243   -0.2636 C   0  0  0  0  0  0  0  0  0  0  0  0
   -3.6851    3.3280   -0.5199 C   0  0  0  0  0  0  0  0  0  0  0  0
   -4.9681    3.2323    0.0043 C   0  0  0  0  0  0  0  0  0  0  0  0
    0.9734   -0.0222   -0.4062 C   0  0  0  0  0  0  0  0  0  0  0  0
    3.3477    0.1953    0.6000 C   0  0  0  0  0  0  0  0  0  0  0  0
    1.8703    0.1654    0.8017 C   0  0  0  0  0  0  0  0  0  0  0  0
    3.8423    0.0511   -0.6767 C   0  0  0  0  0  0  0  0  0  0  0  0
    4.1616    0.3664    1.6972 C   0  0  0  0  0  0  0  0  0  0  0  0
    6.0744    0.2514    0.2259 C   0  0  0  0  0  0  0  0  0  0  0  0
    5.2239    0.0795   -0.8662 C   0  0  0  0  0  0  0  0  0  0  0  0
    5.5432    0.3949    1.5076 C   0  0  0  0  0  0  0  0  0  0  0  0
    7.9452   -0.4773   -1.0488 C   0  0  0  0  0  0  0  0  0  0  0  0
    9.3496   -0.9277   -0.7072 C   0  0  0  0  0  0  0  0  0  0  0  0
   -4.4194   -3.4529    1.3080 H   0  0  0  0  0  0  0  0  0  0  0  0
   -5.8506   -2.5391    1.6843 H   0  0  0  0  0  0  0  0  0  0  0  0
   -2.1226   -3.0922    0.7827 H   0  0  0  0  0  0  0  0  0  0  0  0
   -1.5496   -2.6472   -0.8209 H   0  0  0  0  0  0  0  0  0  0  0  0
   -3.0403   -3.5250   -0.6835 H   0  0  0  0  0  0  0  0  0  0  0  0
   -1.9177    2.2849   -1.0852 H   0  0  0  0  0  0  0  0  0  0  0  0
   -6.4886    1.9383    0.7829 H   0  0  0  0  0  0  0  0  0  0  0  0
   -6.7040   -2.7688   -0.6386 H   0  0  0  0  0  0  0  0  0  0  0  0
   -6.3762   -4.3494    0.0904 H   0  0  0  0  0  0  0  0  0  0  0  0
   -5.2608   -3.6734   -1.1079 H   0  0  0  0  0  0  0  0  0  0  0  0
   -3.2836    4.2944   -0.8089 H   0  0  0  0  0  0  0  0  0  0  0  0
   -5.5740    4.1253    0.1267 H   0  0  0  0  0  0  0  0  0  0  0  0
    1.1085    0.8243   -1.0876 H   0  0  0  0  0  0  0  0  0  0  0  0
    1.2143   -0.9753   -0.8885 H   0  0  0  0  0  0  0  0  0  0  0  0
    3.2181   -0.0764   -1.5537 H   0  0  0  0  0  0  0  0  0  0  0  0
    3.7685    0.4799    2.7027 H   0  0  0  0  0  0  0  0  0  0  0  0
    5.5956   -0.0072   -1.8831 H   0  0  0  0  0  0  0  0  0  0  0  0
    6.2009    0.5293    2.3621 H   0  0  0  0  0  0  0  0  0  0  0  0
    7.9652    0.1498   -1.9469 H   0  0  0  0  0  0  0  0  0  0  0  0
    7.3493   -1.3781   -1.2424 H   0  0  0  0  0  0  0  0  0  0  0  0
    9.3476   -1.5450    0.1973 H   0  0  0  0  0  0  0  0  0  0  0  0
    9.9918   -0.0649   -0.5016 H   0  0  0  0  0  0  0  0  0  0  0  0
    9.7864   -1.5045   -1.5273 H   0  0  0  0  0  0  0  0  0  0  0  0
  1 14  1  0  0  0  0
  1 19  1  0  0  0  0
  2 14  2  0  0  0  0
  3 24  1  0  0  0  0
  3 27  1  0  0  0  0
  4 21  2  0  0  0  0
  5  8  2  0  0  0  0
  5 10  1  0  0  0  0
  6  7  2  0  0  0  0
  6  8  1  0  0  0  0
  6 12  1  0  0  0  0
  7  9  1  0  0  0  0
  7 14  1  0  0  0  0
  8 11  1  0  0  0  0
  9 10  1  0  0  0  0
  9 13  2  0  0  0  0
 10 15  2  0  0  0  0
 11 16  1  0  0  0  0
 11 29  1  0  0  0  0
 11 30  1  0  0  0  0
 12 31  1  0  0  0  0
 12 32  1  0  0  0  0
 12 33  1  0  0  0  0
 13 17  1  0  0  0  0
 13 34  1  0  0  0  0
 15 18  1  0  0  0  0
 15 35  1  0  0  0  0
 16 36  1  0  0  0  0
 16 37  1  0  0  0  0
 16 38  1  0  0  0  0
 17 18  2  0  0  0  0
 17 39  1  0  0  0  0
 18 40  1  0  0  0  0
 19 21  1  0  0  0  0
 19 41  1  0  0  0  0
 19 42  1  0  0  0  0
 20 21  1  0  0  0  0
 20 22  2  0  0  0  0
 20 23  1  0  0  0  0
 22 25  1  0  0  0  0
 22 43  1  0  0  0  0
 23 26  2  0  0  0  0
 23 44  1  0  0  0  0
 24 25  2  0  0  0  0
 24 26  1  0  0  0  0
 25 45  1  0  0  0  0
 26 46  1  0  0  0  0
 27 28  1  0  0  0  0
 27 47  1  0  0  0  0
 27 48  1  0  0  0  0
 28 49  1  0  0  0  0
 28 50  1  0  0  0  0
 28 51  1  0  0  0  0
M  END
> <PUBCHEM_COMPOUND_CID>
7847065

> <PUBCHEM_CONFORMER_RMSD>
1

> <PUBCHEM_CONFORMER_DIVERSEORDER>
1
20
22
46
27
14
50
37
15
11
7
5
49
58
31
17
23
57
42
60
18
28
33
43
52
9
3
6
45
55
41
38
8
47
56
13
10
40
29
16
51
30
36
44
59
32
12
25
21
48
54
39
53
2
19
35
34
26
4
24

> <PUBCHEM_MMFF94_PARTIAL_CHARGES>
33
1 -0.43
10 0.31
11 0.14
12 0.14
13 -0.15
14 0.63
15 -0.15
17 -0.15
18 -0.15
19 0.34
2 -0.57
20 0.09
21 0.42
22 -0.15
23 -0.15
24 0.08
25 -0.15
26 -0.15
27 0.28
3 -0.36
34 0.15
35 0.15
39 0.15
4 -0.57
40 0.15
43 0.15
44 0.15
45 0.15
46 0.15
5 -0.62
6 -0.14
7 0.09
8 0.17

> <PUBCHEM_EFFECTIVE_ROTOR_COUNT>
8

> <PUBCHEM_PHARMACOPHORE_FEATURES>
8
1 16 hydrophobe
1 2 acceptor
1 3 acceptor
1 4 acceptor
1 5 acceptor
6 20 22 23 24 25 26 rings
6 5 6 7 8 9 10 rings
6 9 10 13 15 17 18 rings

> <PUBCHEM_HEAVY_ATOM_COUNT>
28

> <PUBCHEM_ATOM_DEF_STEREO_COUNT>
0

> <PUBCHEM_ATOM_UDEF_STEREO_COUNT>
0

> <PUBCHEM_BOND_DEF_STEREO_COUNT>
0

> <PUBCHEM_BOND_UDEF_STEREO_COUNT>
0

> <PUBCHEM_ISOTOPIC_ATOM_COUNT>
0

> <PUBCHEM_COMPONENT_COUNT>
1

> <PUBCHEM_CACTVS_TAUTO_COUNT>
4

> <PUBCHEM_CONFORMER_ID>
0077BC9900000001

> <PUBCHEM_MMFF94_ENERGY>
90.3774

> <PUBCHEM_FEATURE_SELFOVERLAP>
40.626

> <PUBCHEM_SHAPE_FINGERPRINT>
10165383 225 18260824956432376441
10299344 5 17989768908703397890
10319926 262 18336557070272950794
10411042 1 18123468286054797203
10595046 47 18201720622448719864
10670039 82 18342741810036026971
11089746 13 5689590602757708778
11273773 42 17345171347807159796
11273773 46 17970338429523021702
11315181 36 18060419092980933173
11545043 162 18261115149190118073
12082328 90 18412544306595649318
12236239 1 17775850116435654572
13782708 43 17895478011924159486
13885169 127 18410853270428174350
14068700 675 18128821846524094007
14856354 85 18272649030513410687
14933364 13 18409166602495952640
15183329 4 16917071049677494538
15230672 131 18337955718353605862
15419008 91 18114760287027767880
1577012 14 17560806550265200072
15876981 60 18273208682380602141
16120349 189 17912939563124691245
17844677 252 18410292467610585920
18927931 339 18410295770888731967
19377110 9 17418383505957474848
21033648 29 17676786317374514345
21756936 100 18336274517254258349
21792961 116 17895190043726445654
220451 1 17917997200467910442
2303208 19 17967526861777450550
23081809 10 17418102031349724024
23522609 53 17631715171795620180
23559900 14 18192131901617698535
397830 11 18042133059570946528
4073 2 18201995539158634674
4098825 35 18341327881944795238
4107672 100 18411979182893027276
4339292 15 18114751438603866743
4938544 92 18201725089231006501
497634 4 17775294845609536775
5028188 123 18201712956407006702
5265222 85 18263921047768417518
5758199 1 17060052662692509384
6009941 240 18261671562525087392
9896288 288 18341888602763198483

> <PUBCHEM_SHAPE_MULTIPOLES>
547.77
22.16
3.04
1.31
47.13
0.04
-0.15
3.55
1.29
-9.97
0.19
1.32
0
1.1

> <PUBCHEM_SHAPE_SELFOVERLAP>
1184.193

> <PUBCHEM_SHAPE_VOLUME>
301.9

> <PUBCHEM_COORDINATE_TYPE>
2
5
10

$$$$

