17395881
  -OEChem-06241222533D

 48 50  0     0  0  0  0  0  0999 V2000
    1.7768    1.2752   -0.7814 S   0  0  0  0  0  0  0  0  0  0  0  0
    1.1059    2.0677    0.2313 O   0  0  0  0  0  0  0  0  0  0  0  0
    2.0289    1.8330   -2.0962 O   0  0  0  0  0  0  0  0  0  0  0  0
   -3.0608    0.5879    0.5507 N   0  0  0  0  0  0  0  0  0  0  0  0
    0.9686   -0.2206   -0.9462 N   0  0  0  0  0  0  0  0  0  0  0  0
   -3.5391    1.6053    1.4972 C   0  0  0  0  0  0  0  0  0  0  0  0
   -2.7283    1.1866   -0.7496 C   0  0  0  0  0  0  0  0  0  0  0  0
   -4.7796    2.3198    0.9590 C   0  0  0  0  0  0  0  0  0  0  0  0
   -3.9425    1.8872   -1.3614 C   0  0  0  0  0  0  0  0  0  0  0  0
   -4.5158    2.9327   -0.4117 C   0  0  0  0  0  0  0  0  0  0  0  0
   -1.9035   -0.1181    1.1000 C   0  0  0  0  0  0  0  0  0  0  0  0
   -1.7319   -1.4800    0.4817 C   0  0  0  0  0  0  0  0  0  0  0  0
   -0.4773   -1.9274    0.0670 C   0  0  0  0  0  0  0  0  0  0  0  0
    0.7346   -1.0687    0.2229 C   0  0  0  0  0  0  0  0  0  0  0  0
   -2.8504   -2.2989    0.3265 C   0  0  0  0  0  0  0  0  0  0  0  0
   -0.3415   -3.1935   -0.5024 C   0  0  0  0  0  0  0  0  0  0  0  0
   -2.7145   -3.5649   -0.2431 C   0  0  0  0  0  0  0  0  0  0  0  0
   -1.4601   -4.0121   -0.6576 C   0  0  0  0  0  0  0  0  0  0  0  0
    3.3390    0.7666   -0.1291 C   0  0  0  0  0  0  0  0  0  0  0  0
    4.3883    0.4558   -0.9942 C   0  0  0  0  0  0  0  0  0  0  0  0
    3.5226    0.6757    1.2507 C   0  0  0  0  0  0  0  0  0  0  0  0
    5.6208    0.0539   -0.4795 C   0  0  0  0  0  0  0  0  0  0  0  0
    4.7553    0.2739    1.7652 C   0  0  0  0  0  0  0  0  0  0  0  0
    5.8044   -0.0370    0.9001 C   0  0  0  0  0  0  0  0  0  0  0  0
   -3.8101    1.1324    2.4491 H   0  0  0  0  0  0  0  0  0  0  0  0
   -2.7520    2.3409    1.7097 H   0  0  0  0  0  0  0  0  0  0  0  0
   -1.9059    1.9077   -0.6509 H   0  0  0  0  0  0  0  0  0  0  0  0
   -2.3978    0.4148   -1.4549 H   0  0  0  0  0  0  0  0  0  0  0  0
   -5.0895    3.1027    1.6604 H   0  0  0  0  0  0  0  0  0  0  0  0
   -5.6114    1.6075    0.8868 H   0  0  0  0  0  0  0  0  0  0  0  0
   -3.6580    2.3634   -2.3064 H   0  0  0  0  0  0  0  0  0  0  0  0
   -4.7150    1.1441   -1.5971 H   0  0  0  0  0  0  0  0  0  0  0  0
   -3.8069    3.7636   -0.3108 H   0  0  0  0  0  0  0  0  0  0  0  0
   -5.4425    3.3473   -0.8233 H   0  0  0  0  0  0  0  0  0  0  0  0
   -1.0272    0.5289    1.0299 H   0  0  0  0  0  0  0  0  0  0  0  0
   -2.0479   -0.3059    2.1735 H   0  0  0  0  0  0  0  0  0  0  0  0
    1.6105   -1.7229    0.3307 H   0  0  0  0  0  0  0  0  0  0  0  0
    0.7087   -0.4989    1.1554 H   0  0  0  0  0  0  0  0  0  0  0  0
   -3.8360   -1.9789    0.6541 H   0  0  0  0  0  0  0  0  0  0  0  0
    0.6288   -3.5552   -0.8327 H   0  0  0  0  0  0  0  0  0  0  0  0
   -3.5847   -4.2038   -0.3612 H   0  0  0  0  0  0  0  0  0  0  0  0
    1.0295   -0.7040   -1.8512 H   0  0  0  0  0  0  0  0  0  0  0  0
   -1.3545   -4.9979   -1.1010 H   0  0  0  0  0  0  0  0  0  0  0  0
    4.2653    0.5124   -2.0720 H   0  0  0  0  0  0  0  0  0  0  0  0
    2.7192    0.9107    1.9428 H   0  0  0  0  0  0  0  0  0  0  0  0
    6.4372   -0.1901   -1.1530 H   0  0  0  0  0  0  0  0  0  0  0  0
    4.8982    0.2023    2.8395 H   0  0  0  0  0  0  0  0  0  0  0  0
    6.7640   -0.3505    1.3008 H   0  0  0  0  0  0  0  0  0  0  0  0
  1  2  2  0  0  0  0
  1  3  2  0  0  0  0
  1  5  1  0  0  0  0
  1 19  1  0  0  0  0
  4  6  1  0  0  0  0
  4  7  1  0  0  0  0
  4 11  1  0  0  0  0
  5 14  1  0  0  0  0
  5 42  1  0  0  0  0
  6  8  1  0  0  0  0
  6 25  1  0  0  0  0
  6 26  1  0  0  0  0
  7  9  1  0  0  0  0
  7 27  1  0  0  0  0
  7 28  1  0  0  0  0
  8 10  1  0  0  0  0
  8 29  1  0  0  0  0
  8 30  1  0  0  0  0
  9 10  1  0  0  0  0
  9 31  1  0  0  0  0
  9 32  1  0  0  0  0
 10 33  1  0  0  0  0
 10 34  1  0  0  0  0
 11 12  1  0  0  0  0
 11 35  1  0  0  0  0
 11 36  1  0  0  0  0
 12 13  1  0  0  0  0
 12 15  2  0  0  0  0
 13 14  1  0  0  0  0
 13 16  2  0  0  0  0
 14 37  1  0  0  0  0
 14 38  1  0  0  0  0
 15 17  1  0  0  0  0
 15 39  1  0  0  0  0
 16 18  1  0  0  0  0
 16 40  1  0  0  0  0
 17 18  2  0  0  0  0
 17 41  1  0  0  0  0
 18 43  1  0  0  0  0
 19 20  2  0  0  0  0
 19 21  1  0  0  0  0
 20 22  1  0  0  0  0
 20 44  1  0  0  0  0
 21 23  2  0  0  0  0
 21 45  1  0  0  0  0
 22 24  2  0  0  0  0
 22 46  1  0  0  0  0
 23 24  1  0  0  0  0
 23 47  1  0  0  0  0
 24 48  1  0  0  0  0
M  END
> <PUBCHEM_COMPOUND_CID>
17395881

> <PUBCHEM_CONFORMER_RMSD>
0.8

> <PUBCHEM_CONFORMER_DIVERSEORDER>
2
87
150
110
174
132
13
199
88
162
111
42
105
140
148
124
210
57
179
139
178
52
127
82
121
180
183
73
99
136
129
14
27
149
131
100
18
171
39
192
195
189
43
122
187
77
156
177
193
184
176
152
204
202
191
56
201
165
29
209
119
194
31
159
112
94
108
55
96
53
135
71
21
85
61
63
188
144
35
161
74
197
102
19
66
134
64
93
59
128
23
207
51
90
147
45
36
47
72
32
160
54
198
182
118
101
30
24
133
16
70
190
34
15
169
211
155
164
11
37
4
158
104
98
78
65
186
167
196
60
41
137
206
113
97
107
12
154
89
205
157
28
68
67
80
116
5
166
125
146
79
168
81
130
200
48
83
44
109
75
151
95
22
208
49
62
175
117
69
142
40
143
86
141
76
50
103
173
212
120
9
91
126
106
8
181
33
153
115
185
46
25
17
10
3
145
163
84
6
92
114
138
123
20
7
58
172
1
203
38
170
26

> <PUBCHEM_MMFF94_PARTIAL_CHARGES>
31
1 1.45
11 0.41
12 -0.14
13 -0.14
14 0.5
15 -0.15
16 -0.15
17 -0.15
18 -0.15
19 -0.01
2 -0.65
20 -0.15
21 -0.15
22 -0.15
23 -0.15
24 -0.15
3 -0.65
39 0.15
4 -0.81
40 0.15
41 0.15
42 0.42
43 0.15
44 0.15
45 0.15
46 0.15
47 0.15
48 0.15
5 -0.91
6 0.27
7 0.27

> <PUBCHEM_EFFECTIVE_ROTOR_COUNT>
7.2

> <PUBCHEM_PHARMACOPHORE_FEATURES>
7
1 2 acceptor
1 3 acceptor
1 4 cation
1 5 donor
6 12 13 15 16 17 18 rings
6 19 20 21 22 23 24 rings
6 4 6 7 8 9 10 rings

> <PUBCHEM_HEAVY_ATOM_COUNT>
24

> <PUBCHEM_ATOM_DEF_STEREO_COUNT>
0

> <PUBCHEM_ATOM_UDEF_STEREO_COUNT>
0

> <PUBCHEM_BOND_DEF_STEREO_COUNT>
0

> <PUBCHEM_BOND_UDEF_STEREO_COUNT>
0

> <PUBCHEM_ISOTOPIC_ATOM_COUNT>
0

> <PUBCHEM_COMPONENT_COUNT>
1

> <PUBCHEM_CACTVS_TAUTO_COUNT>
1

> <PUBCHEM_CONFORMER_ID>
010970A900000002

> <PUBCHEM_MMFF94_ENERGY>
36.947

> <PUBCHEM_FEATURE_SELFOVERLAP>
35.538

> <PUBCHEM_SHAPE_FINGERPRINT>
105312 117 18409451418255287793
11646440 116 18041268942047509849
12107183 9 18340774853244625834
12346177 29 18262242114581354094
12422481 6 17844819276810872834
12633257 1 17971731321174712241
12643181 29 18336262444987906230
12788726 201 18051969225614925010
13004483 165 17976818684404929831
13583140 156 17313387765061595102
14251751 93 18342739589537935211
14294032 229 18335696144743047251
15021287 119 17203612580084503212
15042514 8 18122337983231788339
15420108 30 18267877253349591459
17818456 19 18340204090170517388
17913733 40 18117820296374684713
19078846 21 18202284663534882868
20600515 1 18187353333974063848
20642791 105 18410860915311848803
21033648 29 18260838102541201664
212916 134 18334300902303556056
21304303 282 18188795893371747927
21524375 3 18343012294729374123
22182313 1 18263060232684168135
23557571 272 18040985203332376230
23559900 14 17752467777816386886
23598288 3 18200298910621636107
312423 11 17843957049156994022
350125 39 18411412878707239363
508706 21 18336817624190169390
5385378 56 18193549197854300745
7164475 11 18050849922840841038
7226269 152 18260830436246461712
9862522 239 18130234842781164541
9981440 41 18338512058166788043

> <PUBCHEM_SHAPE_MULTIPOLES>
476.06
11.41
4.14
1.45
10.97
4.12
0
-7.47
-2.01
-6.71
0.88
0.52
-0.74
-0.36

> <PUBCHEM_SHAPE_SELFOVERLAP>
988.963

> <PUBCHEM_SHAPE_VOLUME>
270.9

> <PUBCHEM_COORDINATE_TYPE>
2
5
10

$$$$

