582725
  -OEChem-06241222432D

 29 30  0     1  0  0  0  0  0999 V2000
    4.6783   -1.6668    0.0000 N   0  0  0  0  0  0  0  0  0  0  0  0
    4.9889    0.8932    0.0000 C   0  0  0  0  0  0  0  0  0  0  0  0
    4.6783   -0.0573    0.0000 C   0  0  0  0  0  0  0  0  0  0  0  0
    5.9674    1.0994    0.0000 C   0  0  3  0  0  0  0  0  0  0  0  0
    3.7320   -0.3621    0.0000 C   0  0  0  0  0  0  0  0  0  0  0  0
    3.7320   -1.3621    0.0000 C   0  0  0  0  0  0  0  0  0  0  0  0
    5.2619   -0.8621    0.0000 C   0  0  0  0  0  0  0  0  0  0  0  0
    6.6353    0.3551    0.0000 C   0  0  0  0  0  0  0  0  0  0  0  0
    2.8660    0.1379    0.0000 C   0  0  0  0  0  0  0  0  0  0  0  0
    6.2781    2.0499    0.0000 C   0  0  0  0  0  0  0  0  0  0  0  0
    2.8660   -1.8621    0.0000 C   0  0  0  0  0  0  0  0  0  0  0  0
    2.0000   -0.3621    0.0000 C   0  0  0  0  0  0  0  0  0  0  0  0
    2.0000   -1.3621    0.0000 C   0  0  0  0  0  0  0  0  0  0  0  0
    7.2566    2.2561    0.0000 C   0  0  0  0  0  0  0  0  0  0  0  0
    4.9684    1.5128    0.0000 H   0  0  0  0  0  0  0  0  0  0  0  0
    4.3751    0.9805    0.0000 H   0  0  0  0  0  0  0  0  0  0  0  0
    5.7748    0.5101    0.0000 H   0  0  0  0  0  0  0  0  0  0  0  0
    5.8819   -0.8621    0.0000 H   0  0  0  0  0  0  0  0  0  0  0  0
    4.8709   -2.2561    0.0000 H   0  0  0  0  0  0  0  0  0  0  0  0
    6.1738   -0.0590    0.0000 H   0  0  0  0  0  0  0  0  0  0  0  0
    7.0494   -0.1064    0.0000 H   0  0  0  0  0  0  0  0  0  0  0  0
    7.0968    0.7692    0.0000 H   0  0  0  0  0  0  0  0  0  0  0  0
    2.8660    0.7579    0.0000 H   0  0  0  0  0  0  0  0  0  0  0  0
    5.8640    2.5114    0.0000 H   0  0  0  0  0  0  0  0  0  0  0  0
    2.8660   -2.4821    0.0000 H   0  0  0  0  0  0  0  0  0  0  0  0
    1.4631   -0.0521    0.0000 H   0  0  0  0  0  0  0  0  0  0  0  0
    1.4631   -1.6721    0.0000 H   0  0  0  0  0  0  0  0  0  0  0  0
    7.6707    1.7947    0.0000 H   0  0  0  0  0  0  0  0  0  0  0  0
    7.4492    2.8455    0.0000 H   0  0  0  0  0  0  0  0  0  0  0  0
  1  6  1  0  0  0  0
  1  7  1  0  0  0  0
  1 19  1  0  0  0  0
  2  3  1  0  0  0  0
  2  4  1  0  0  0  0
  2 15  1  0  0  0  0
  2 16  1  0  0  0  0
  3  5  1  0  0  0  0
  3  7  2  0  0  0  0
  4  8  1  0  0  0  0
  4 10  1  0  0  0  0
  4 17  1  0  0  0  0
  5  6  1  0  0  0  0
  5  9  2  0  0  0  0
  6 11  2  0  0  0  0
  7 18  1  0  0  0  0
  8 20  1  0  0  0  0
  8 21  1  0  0  0  0
  8 22  1  0  0  0  0
  9 12  1  0  0  0  0
  9 23  1  0  0  0  0
 10 14  2  0  0  0  0
 10 24  1  0  0  0  0
 11 13  1  0  0  0  0
 11 25  1  0  0  0  0
 12 13  2  0  0  0  0
 12 26  1  0  0  0  0
 13 27  1  0  0  0  0
 14 28  1  0  0  0  0
 14 29  1  0  0  0  0
M  END
> <PUBCHEM_COMPOUND_CID>
582725

> <PUBCHEM_COMPOUND_CANONICALIZED>
1

> <PUBCHEM_CACTVS_COMPLEXITY>
199

> <PUBCHEM_CACTVS_HBOND_ACCEPTOR>
0

> <PUBCHEM_CACTVS_HBOND_DONOR>
1

> <PUBCHEM_CACTVS_ROTATABLE_BOND>
3

> <PUBCHEM_CACTVS_SUBSKEYS>
AAADccByAAAAAAAAAAAAAAAAAAAAAWAAAAAwAAAAAAAAAFgB8AAAHAAQAAAADQjBHgQ+wPLJkACgAzRnRACCgCAxAiAI2aA4ZJgIIOLAkZGEIAhgkADIyAcQgMAOgAAAAAACAAAAAAAAAAQAAAAAAAAAAA==

> <PUBCHEM_IUPAC_OPENEYE_NAME>
3-(2-methylbut-3-enyl)-1H-indole

> <PUBCHEM_IUPAC_CAS_NAME>
3-(2-methylbut-3-enyl)-1H-indole

> <PUBCHEM_IUPAC_NAME>
3-(2-methylbut-3-enyl)-1H-indole

> <PUBCHEM_IUPAC_SYSTEMATIC_NAME>
3-(2-methylbut-3-enyl)-1H-indole

> <PUBCHEM_IUPAC_TRADITIONAL_NAME>
3-(2-methylbut-3-enyl)-1H-indole

> <PUBCHEM_IUPAC_INCHI>
InChI=1S/C13H15N/c1-3-10(2)8-11-9-14-13-7-5-4-6-12(11)13/h3-7,9-10,14H,1,8H2,2H3

> <PUBCHEM_IUPAC_INCHIKEY>
ZXVYCQHCSGCAAM-UHFFFAOYSA-N

> <PUBCHEM_XLOGP3>
3.9

> <PUBCHEM_EXACT_MASS>
185.120449

> <PUBCHEM_MOLECULAR_FORMULA>
C13H15N

> <PUBCHEM_MOLECULAR_WEIGHT>
185.2649

> <PUBCHEM_OPENEYE_CAN_SMILES>
CC(CC1=CNC2=CC=CC=C21)C=C

> <PUBCHEM_OPENEYE_ISO_SMILES>
CC(CC1=CNC2=CC=CC=C21)C=C

> <PUBCHEM_CACTVS_TPSA>
15.8

> <PUBCHEM_MONOISOTOPIC_WEIGHT>
185.120449

> <PUBCHEM_TOTAL_CHARGE>
0

> <PUBCHEM_HEAVY_ATOM_COUNT>
14

> <PUBCHEM_ATOM_DEF_STEREO_COUNT>
0

> <PUBCHEM_ATOM_UDEF_STEREO_COUNT>
1

> <PUBCHEM_BOND_DEF_STEREO_COUNT>
0

> <PUBCHEM_BOND_UDEF_STEREO_COUNT>
0

> <PUBCHEM_ISOTOPIC_ATOM_COUNT>
0

> <PUBCHEM_COMPONENT_COUNT>
1

> <PUBCHEM_CACTVS_TAUTO_COUNT>
1

> <PUBCHEM_COORDINATE_TYPE>
1
5
255

> <PUBCHEM_BONDANNOTATIONS>
1  6  8
1  7  8
11  13  8
12  13  8
3  5  8
3  7  8
4  8  3
5  6  8
5  9  8
6  11  8
9  12  8

$$$$

