54693777
  -OEChem-07051213083D

 24 25  0     0  0  0  0  0  0999 V2000
    3.7475    1.9801   -0.0005 O   0  0  0  0  0  0  0  0  0  0  0  0
   -3.7475   -1.9800   -0.0005 O   0  0  0  0  0  0  0  0  0  0  0  0
    0.4984   -2.4681   -0.0021 O   0  0  0  0  0  0  0  0  0  0  0  0
   -0.4984    2.4682   -0.0021 O   0  0  0  0  0  0  0  0  0  0  0  0
    4.7263   -0.6224    0.0047 O   0  0  0  0  0  0  0  0  0  0  0  0
   -4.7263    0.6224    0.0047 O   0  0  0  0  0  0  0  0  0  0  0  0
    2.6033   -1.5283    0.0005 N   0  0  0  0  0  0  0  0  0  0  0  0
   -2.6032    1.5283    0.0005 N   0  0  0  0  0  0  0  0  0  0  0  0
   -0.6656    0.0798   -0.0014 C   0  0  0  0  0  0  0  0  0  0  0  0
    0.6656   -0.0798   -0.0014 C   0  0  0  0  0  0  0  0  0  0  0  0
    1.5778    1.0383   -0.0014 C   0  0  0  0  0  0  0  0  0  0  0  0
   -1.5779   -1.0382   -0.0014 C   0  0  0  0  0  0  0  0  0  0  0  0
   -1.2119    1.4686   -0.0012 C   0  0  0  0  0  0  0  0  0  0  0  0
    1.2120   -1.4686   -0.0013 C   0  0  0  0  0  0  0  0  0  0  0  0
   -2.9067   -0.8878   -0.0004 C   0  0  0  0  0  0  0  0  0  0  0  0
    2.9067    0.8878   -0.0004 C   0  0  0  0  0  0  0  0  0  0  0  0
    3.5068   -0.4722    0.0018 C   0  0  0  0  0  0  0  0  0  0  0  0
   -3.5068    0.4722    0.0018 C   0  0  0  0  0  0  0  0  0  0  0  0
    1.3500    2.0848   -0.0030 H   0  0  0  0  0  0  0  0  0  0  0  0
   -1.3500   -2.0848   -0.0032 H   0  0  0  0  0  0  0  0  0  0  0  0
    3.0082   -2.4607    0.0014 H   0  0  0  0  0  0  0  0  0  0  0  0
   -3.0082    2.4606    0.0014 H   0  0  0  0  0  0  0  0  0  0  0  0
    4.6605    1.6441    0.0007 H   0  0  0  0  0  0  0  0  0  0  0  0
   -4.6605   -1.6440    0.0007 H   0  0  0  0  0  0  0  0  0  0  0  0
  1 16  1  0  0  0  0
  1 23  1  0  0  0  0
  2 15  1  0  0  0  0
  2 24  1  0  0  0  0
  3 14  2  0  0  0  0
  4 13  2  0  0  0  0
  5 17  2  0  0  0  0
  6 18  2  0  0  0  0
  7 14  1  0  0  0  0
  7 17  1  0  0  0  0
  7 21  1  0  0  0  0
  8 13  1  0  0  0  0
  8 18  1  0  0  0  0
  8 22  1  0  0  0  0
  9 10  2  0  0  0  0
  9 12  1  0  0  0  0
  9 13  1  0  0  0  0
 10 11  1  0  0  0  0
 10 14  1  0  0  0  0
 11 16  2  0  0  0  0
 11 19  1  0  0  0  0
 12 15  2  0  0  0  0
 12 20  1  0  0  0  0
 15 18  1  0  0  0  0
 16 17  1  0  0  0  0
M  END
> <PUBCHEM_COMPOUND_CID>
54693777

> <PUBCHEM_CONFORMER_RMSD>
0.6

> <PUBCHEM_CONFORMER_DIVERSEORDER>
1

> <PUBCHEM_MMFF94_PARTIAL_CHARGES>
24
1 -0.53
10 0.01
11 -0.15
12 -0.15
13 0.62
14 0.62
15 0.09
16 0.09
17 0.62
18 0.62
19 0.15
2 -0.53
20 0.15
21 0.37
22 0.37
23 0.45
24 0.45
3 -0.57
4 -0.57
5 -0.57
6 -0.57
7 -0.49
8 -0.49
9 0.01

> <PUBCHEM_EFFECTIVE_ROTOR_COUNT>
0.4

> <PUBCHEM_PHARMACOPHORE_FEATURES>
10
1 1 donor
1 2 donor
1 3 acceptor
1 4 acceptor
1 5 acceptor
1 6 acceptor
1 7 donor
1 8 donor
6 7 10 11 14 16 17 rings
6 8 9 12 13 15 18 rings

> <PUBCHEM_HEAVY_ATOM_COUNT>
18

> <PUBCHEM_ATOM_DEF_STEREO_COUNT>
0

> <PUBCHEM_ATOM_UDEF_STEREO_COUNT>
0

> <PUBCHEM_BOND_DEF_STEREO_COUNT>
1

> <PUBCHEM_BOND_UDEF_STEREO_COUNT>
0

> <PUBCHEM_ISOTOPIC_ATOM_COUNT>
0

> <PUBCHEM_COMPONENT_COUNT>
1

> <PUBCHEM_CACTVS_TAUTO_COUNT>
69

> <PUBCHEM_CONFORMER_ID>
03428F9100000001

> <PUBCHEM_MMFF94_ENERGY>
72.598

> <PUBCHEM_FEATURE_SELFOVERLAP>
50.743

> <PUBCHEM_SHAPE_FINGERPRINT>
10062212 137 18411145718503267155
10411042 1 16249127287821532782
10608611 8 18411704321759906869
10616163 171 18408884048939196759
10967382 1 18410574019511202502
11132069 177 18411706473612212929
11471102 20 18410578396141042445
11806522 49 18267026042487286919
12032990 46 18410570656599399451
13140716 1 18410855477308031377
13380535 76 18411698824249240755
14178342 30 18049452731757360936
14325111 11 18410856538381373824
15196674 1 18410855425768423429
15442244 35 18050287269308819210
15536298 74 18335138678898574524
16945 1 18194401327591718918
17802600 8 18410859897225225352
18186145 218 17917437514035609982
19050596 39 18411419522515081610
19591789 44 18337391543579702350
200 152 18041003955338704853
20510252 161 18334293132676211992
20645477 70 18334295391786792183
21267235 1 18410565210633771527
21501502 16 18338516442658412144
221490 88 18411410718207041442
2334 1 18410575041713405959
23402539 116 18408611348580522582
23463225 33 18412545418100550620
23559900 14 18264211477414290974
2748010 2 18410573963676614767
2871803 45 18340775862140037703
3312278 4 18410292532061118187
335352 9 18338516451243065782
34934 24 18411425042086159551
350125 39 18411418423647428244
5104073 3 18410575058893276112
69090 78 18408045130220129975
7364860 26 18191303982115164878
8809292 202 18272084994012345987
9709674 26 18336261365975051959

> <PUBCHEM_SHAPE_MULTIPOLES>
325.25
7.72
2.28
0.57
0
0
0
0
-0.01
0
0
0
0
0

> <PUBCHEM_SHAPE_SELFOVERLAP>
715.213

> <PUBCHEM_SHAPE_VOLUME>
170.8

> <PUBCHEM_COORDINATE_TYPE>
2
5
10

$$$$

