136152
  -OEChem-07051213053D

 15 14  0     1  0  0  0  0  0999 V2000
    1.7034   -1.9104    0.1349 Cl  0  0  0  0  0  0  0  0  0  0  0  0
    0.3090    0.4976    1.3763 F   0  0  0  0  0  0  0  0  0  0  0  0
    0.1102    1.6243   -0.4887 F   0  0  0  0  0  0  0  0  0  0  0  0
    2.5487    0.4849   -0.1818 F   0  0  0  0  0  0  0  0  0  0  0  0
   -0.9357   -0.3700   -0.3145 O   0  0  0  0  0  0  0  0  0  0  0  0
    0.2263    0.3754    0.0297 C   0  0  0  0  0  0  0  0  0  0  0  0
   -2.1284    0.2144    0.1893 C   0  0  0  0  0  0  0  0  0  0  0  0
    1.4747   -0.2760   -0.5229 C   0  0  2  0  0  0  0  0  0  0  0  0
   -3.3083   -0.6401   -0.2223 C   0  0  0  0  0  0  0  0  0  0  0  0
   -2.0823    0.2727    1.2822 H   0  0  0  0  0  0  0  0  0  0  0  0
   -2.2487    1.2250   -0.2157 H   0  0  0  0  0  0  0  0  0  0  0  0
    1.4393   -0.3501   -1.6135 H   0  0  0  0  0  0  0  0  0  0  0  0
   -4.2458   -0.2181    0.1505 H   0  0  0  0  0  0  0  0  0  0  0  0
   -3.3654   -0.7191   -1.3130 H   0  0  0  0  0  0  0  0  0  0  0  0
   -3.2004   -1.6586    0.1652 H   0  0  0  0  0  0  0  0  0  0  0  0
  1  8  1  0  0  0  0
  2  6  1  0  0  0  0
  3  6  1  0  0  0  0
  4  8  1  0  0  0  0
  5  6  1  0  0  0  0
  5  7  1  0  0  0  0
  6  8  1  0  0  0  0
  7  9  1  0  0  0  0
  7 10  1  0  0  0  0
  7 11  1  0  0  0  0
  8 12  1  0  0  0  0
  9 13  1  0  0  0  0
  9 14  1  0  0  0  0
  9 15  1  0  0  0  0
M  END
> <PUBCHEM_COMPOUND_CID>
136152

> <PUBCHEM_CONFORMER_RMSD>
0.6

> <PUBCHEM_CONFORMER_DIVERSEORDER>
1
17
13
9
16
18
11
6
2
20
3
19
8
7
21
15
4
5
14
12
10

> <PUBCHEM_MMFF94_PARTIAL_CHARGES>
8
1 -0.29
2 -0.34
3 -0.34
4 -0.34
5 -0.56
6 0.96
7 0.28
8 0.63

> <PUBCHEM_EFFECTIVE_ROTOR_COUNT>
3

> <PUBCHEM_PHARMACOPHORE_FEATURES>
1
1 5 acceptor

> <PUBCHEM_HEAVY_ATOM_COUNT>
9

> <PUBCHEM_ATOM_DEF_STEREO_COUNT>
0

> <PUBCHEM_ATOM_UDEF_STEREO_COUNT>
1

> <PUBCHEM_BOND_DEF_STEREO_COUNT>
0

> <PUBCHEM_BOND_UDEF_STEREO_COUNT>
0

> <PUBCHEM_ISOTOPIC_ATOM_COUNT>
0

> <PUBCHEM_COMPONENT_COUNT>
1

> <PUBCHEM_CACTVS_TAUTO_COUNT>
1

> <PUBCHEM_CONFORMER_ID>
000213D800000001

> <PUBCHEM_MMFF94_ENERGY>
3.9522

> <PUBCHEM_FEATURE_SELFOVERLAP>
5.074

> <PUBCHEM_SHAPE_FINGERPRINT>
12932764 1 17822298968081815951
14128692 85 18266174122549131510
20653091 64 17822008662341180107
23552333 60 18334291011141650634
23552423 10 18129092505886923206
23552449 11 17603879891996608275
29004967 10 18272079500543192528
5460574 1 10591768670847524063

> <PUBCHEM_SHAPE_MULTIPOLES>
159.4
3.9
1.42
0.81
2.57
0.32
0.18
1.26
-0.34
-0.69
-0.04
-0.07
-0.08
-0.15

> <PUBCHEM_SHAPE_SELFOVERLAP>
291.13

> <PUBCHEM_SHAPE_VOLUME>
103.2

> <PUBCHEM_COORDINATE_TYPE>
2
5
10

$$$$

