443113
  -OEChem-07051213012D

 77 80  0     1  0  0  0  0  0999 V2000
    2.8641   -3.6030    0.0000 S   0  0  0  0  0  0  0  0  0  0  0  0
    3.7282   -4.1063    0.0000 O   0  0  0  0  0  0  0  0  0  0  0  0
    2.0000   -3.0996    0.0000 O   0  5  0  0  0  0  0  0  0  0  0  0
    2.3608   -4.4671    0.0000 O   0  0  0  0  0  0  0  0  0  0  0  0
    3.3674   -2.7389    0.0000 O   0  0  0  0  0  0  0  0  0  0  0  0
   13.3137    0.8199    0.0000 O   0  0  0  0  0  0  0  0  0  0  0  0
   15.2242    3.8777    0.0000 O   0  0  0  0  0  0  0  0  0  0  0  0
   13.5778    4.4158    0.0000 O   0  0  0  0  0  0  0  0  0  0  0  0
   12.9565    2.5148    0.0000 N   0  0  0  0  0  0  0  0  0  0  0  0
    9.1213   -1.0540    0.0000 C   0  0  1  0  0  0  0  0  0  0  0  0
    9.1213   -2.0540    0.0000 C   0  0  2  0  0  0  0  0  0  0  0  0
    8.2552   -2.5540    0.0000 C   0  0  1  0  0  0  0  0  0  0  0  0
    7.3892   -2.0540    0.0000 C   0  0  1  0  0  0  0  0  0  0  0  0
    6.4792   -2.5608    0.0000 C   0  0  2  0  0  0  0  0  0  0  0  0
   10.0675   -0.7492    0.0000 C   0  0  2  0  0  0  0  0  0  0  0  0
    6.4712   -3.6024    0.0000 C   0  0  2  0  0  0  0  0  0  0  0  0
    8.2552   -0.5540    0.0000 C   0  0  0  0  0  0  0  0  0  0  0  0
    7.3892   -1.0540    0.0000 C   0  0  0  0  0  0  0  0  0  0  0  0
   10.0675   -2.3587    0.0000 C   0  0  0  0  0  0  0  0  0  0  0  0
    8.2713   -3.5955    0.0000 C   0  0  0  0  0  0  0  0  0  0  0  0
   10.6511   -1.5540    0.0000 C   0  0  0  0  0  0  0  0  0  0  0  0
    7.3733   -4.1232    0.0000 C   0  0  0  0  0  0  0  0  0  0  0  0
    5.5524   -1.9967    0.0000 C   0  0  0  0  0  0  0  0  0  0  0  0
    9.1213   -0.0540    0.0000 C   0  0  0  0  0  0  0  0  0  0  0  0
   10.3781    0.2013    0.0000 C   0  0  1  0  0  0  0  0  0  0  0  0
    5.5358   -4.1521    0.0000 C   0  0  0  0  0  0  0  0  0  0  0  0
    6.4869   -1.5608    0.0000 C   0  0  0  0  0  0  0  0  0  0  0  0
    4.6045   -2.5247    0.0000 C   0  0  0  0  0  0  0  0  0  0  0  0
    4.5961   -3.6096    0.0000 C   0  0  1  0  0  0  0  0  0  0  0  0
   11.3567    0.4075    0.0000 C   0  0  0  0  0  0  0  0  0  0  0  0
    9.7103    0.9456    0.0000 C   0  0  0  0  0  0  0  0  0  0  0  0
   11.6673    1.3580    0.0000 C   0  0  0  0  0  0  0  0  0  0  0  0
   12.6458    1.5642    0.0000 C   0  0  0  0  0  0  0  0  0  0  0  0
   13.9350    2.7210    0.0000 C   0  0  0  0  0  0  0  0  0  0  0  0
   14.2457    3.6715    0.0000 C   0  0  0  0  0  0  0  0  0  0  0  0
    9.2112   -2.8992    0.0000 H   0  0  0  0  0  0  0  0  0  0  0  0
    8.9946   -2.9733    0.0000 H   0  0  0  0  0  0  0  0  0  0  0  0
    8.1253   -1.6290    0.0000 H   0  0  0  0  0  0  0  0  0  0  0  0
   10.9072   -0.6173    0.0000 H   0  0  0  0  0  0  0  0  0  0  0  0
    6.4745   -4.4524    0.0000 H   0  0  0  0  0  0  0  0  0  0  0  0
    8.6538   -0.0790    0.0000 H   0  0  0  0  0  0  0  0  0  0  0  0
    7.8567   -0.0790    0.0000 H   0  0  0  0  0  0  0  0  0  0  0  0
    7.1772   -0.4714    0.0000 H   0  0  0  0  0  0  0  0  0  0  0  0
    6.7786   -1.1616    0.0000 H   0  0  0  0  0  0  0  0  0  0  0  0
    9.8164   -2.9256    0.0000 H   0  0  0  0  0  0  0  0  0  0  0  0
   10.6049   -2.6679    0.0000 H   0  0  0  0  0  0  0  0  0  0  0  0
    8.4893   -4.1759    0.0000 H   0  0  0  0  0  0  0  0  0  0  0  0
    8.8804   -3.4800    0.0000 H   0  0  0  0  0  0  0  0  0  0  0  0
   11.1120   -1.9687    0.0000 H   0  0  0  0  0  0  0  0  0  0  0  0
   11.1120   -1.1392    0.0000 H   0  0  0  0  0  0  0  0  0  0  0  0
    6.9760   -4.5992    0.0000 H   0  0  0  0  0  0  0  0  0  0  0  0
    7.7742   -4.5961    0.0000 H   0  0  0  0  0  0  0  0  0  0  0  0
    5.9606   -1.5301    0.0000 H   0  0  0  0  0  0  0  0  0  0  0  0
    5.1625   -1.5147    0.0000 H   0  0  0  0  0  0  0  0  0  0  0  0
    9.7413   -0.0540    0.0000 H   0  0  0  0  0  0  0  0  0  0  0  0
    9.1213    0.5660    0.0000 H   0  0  0  0  0  0  0  0  0  0  0  0
    8.5013   -0.0540    0.0000 H   0  0  0  0  0  0  0  0  0  0  0  0
   10.5708    0.7906    0.0000 H   0  0  0  0  0  0  0  0  0  0  0  0
    5.1385   -4.6281    0.0000 H   0  0  0  0  0  0  0  0  0  0  0  0
    5.9367   -4.6250    0.0000 H   0  0  0  0  0  0  0  0  0  0  0  0
    7.1069   -1.5656    0.0000 H   0  0  0  0  0  0  0  0  0  0  0  0
    6.4917   -0.9409    0.0000 H   0  0  0  0  0  0  0  0  0  0  0  0
    5.8669   -1.5561    0.0000 H   0  0  0  0  0  0  0  0  0  0  0  0
    4.3999   -1.9394    0.0000 H   0  0  0  0  0  0  0  0  0  0  0  0
    3.9928   -2.6261    0.0000 H   0  0  0  0  0  0  0  0  0  0  0  0
    4.5949   -4.2296    0.0000 H   0  0  0  0  0  0  0  0  0  0  0  0
   11.3772   -0.2121    0.0000 H   0  0  0  0  0  0  0  0  0  0  0  0
   11.9705    0.3202    0.0000 H   0  0  0  0  0  0  0  0  0  0  0  0
   10.1718    1.3597    0.0000 H   0  0  0  0  0  0  0  0  0  0  0  0
    9.2962    1.4071    0.0000 H   0  0  0  0  0  0  0  0  0  0  0  0
    9.2488    0.5315    0.0000 H   0  0  0  0  0  0  0  0  0  0  0  0
   11.6468    1.9777    0.0000 H   0  0  0  0  0  0  0  0  0  0  0  0
   11.0535    1.4454    0.0000 H   0  0  0  0  0  0  0  0  0  0  0  0
   12.5424    2.9762    0.0000 H   0  0  0  0  0  0  0  0  0  0  0  0
   13.9556    2.1013    0.0000 H   0  0  0  0  0  0  0  0  0  0  0  0
   14.5488    2.6336    0.0000 H   0  0  0  0  0  0  0  0  0  0  0  0
   15.4168    4.4671    0.0000 H   0  0  0  0  0  0  0  0  0  0  0  0
  1  2  1  0  0  0  0
  1  3  1  0  0  0  0
  1  4  2  0  0  0  0
  1  5  2  0  0  0  0
 29  2  1  6  0  0  0
  6 33  2  0  0  0  0
  7 35  1  0  0  0  0
  7 77  1  0  0  0  0
  8 35  2  0  0  0  0
  9 33  1  0  0  0  0
  9 34  1  0  0  0  0
  9 74  1  0  0  0  0
 10 11  1  0  0  0  0
 10 15  1  0  0  0  0
 10 17  1  0  0  0  0
 10 24  1  1  0  0  0
 11 12  1  0  0  0  0
 11 19  1  0  0  0  0
 11 36  1  6  0  0  0
 12 13  1  0  0  0  0
 12 20  1  0  0  0  0
 12 37  1  1  0  0  0
 13 14  1  0  0  0  0
 13 18  1  0  0  0  0
 13 38  1  6  0  0  0
 14 16  1  0  0  0  0
 14 23  1  0  0  0  0
 14 27  1  1  0  0  0
 15 21  1  0  0  0  0
 15 25  1  0  0  0  0
 15 39  1  6  0  0  0
 16 22  1  0  0  0  0
 16 26  1  0  0  0  0
 16 40  1  1  0  0  0
 17 18  1  0  0  0  0
 17 41  1  0  0  0  0
 17 42  1  0  0  0  0
 18 43  1  0  0  0  0
 18 44  1  0  0  0  0
 19 21  1  0  0  0  0
 19 45  1  0  0  0  0
 19 46  1  0  0  0  0
 20 22  1  0  0  0  0
 20 47  1  0  0  0  0
 20 48  1  0  0  0  0
 21 49  1  0  0  0  0
 21 50  1  0  0  0  0
 22 51  1  0  0  0  0
 22 52  1  0  0  0  0
 23 28  1  0  0  0  0
 23 53  1  0  0  0  0
 23 54  1  0  0  0  0
 24 55  1  0  0  0  0
 24 56  1  0  0  0  0
 24 57  1  0  0  0  0
 25 30  1  0  0  0  0
 25 31  1  6  0  0  0
 25 58  1  0  0  0  0
 26 29  1  0  0  0  0
 26 59  1  0  0  0  0
 26 60  1  0  0  0  0
 27 61  1  0  0  0  0
 27 62  1  0  0  0  0
 27 63  1  0  0  0  0
 28 29  1  0  0  0  0
 28 64  1  0  0  0  0
 28 65  1  0  0  0  0
 29 66  1  0  0  0  0
 30 32  1  0  0  0  0
 30 67  1  0  0  0  0
 30 68  1  0  0  0  0
 31 69  1  0  0  0  0
 31 70  1  0  0  0  0
 31 71  1  0  0  0  0
 32 33  1  0  0  0  0
 32 72  1  0  0  0  0
 32 73  1  0  0  0  0
 34 35  1  0  0  0  0
 34 75  1  0  0  0  0
 34 76  1  0  0  0  0
M  CHG  1   3  -1
M  END
> <PUBCHEM_COMPOUND_CID>
443113

> <PUBCHEM_COMPOUND_CANONICALIZED>
1

> <PUBCHEM_CACTVS_COMPLEXITY>
904

> <PUBCHEM_CACTVS_HBOND_ACCEPTOR>
7

> <PUBCHEM_CACTVS_HBOND_DONOR>
2

> <PUBCHEM_CACTVS_ROTATABLE_BOND>
7

> <PUBCHEM_CACTVS_SUBSKEYS>
AAADcfB6OABAAAAAAAAAAAAAAAAAAYAAAAAwYMAAAAAAAGDAAAAAHgAQCAAADxThgAYCCALAAgAIAAGQGDAAAAAAAAAAAIGIAAACABIAgCAEAAAEFgCQAAGYyPCPgAAAAAAAAADAAAYAACAAAQAACAAAAA==

> <PUBCHEM_IUPAC_OPENEYE_NAME>
[(3R,5R,8R,9S,10S,13R,14S,17R)-17-[(1R)-4-(carboxymethylamino)-1-methyl-4-oxo-butyl]-10,13-dimethyl-2,3,4,5,6,7,8,9,11,12,14,15,16,17-tetradecahydro-1H-cyclopenta[a]phenanthren-3-yl] sulfate

> <PUBCHEM_IUPAC_CAS_NAME>
[(3R,5R,8R,9S,10S,13R,14S,17R)-17-[(2R)-5-(carboxymethylamino)-5-oxopentan-2-yl]-10,13-dimethyl-2,3,4,5,6,7,8,9,11,12,14,15,16,17-tetradecahydro-1H-cyclopenta[a]phenanthren-3-yl] sulfate

> <PUBCHEM_IUPAC_NAME>
[(3R,5R,8R,9S,10S,13R,14S,17R)-17-[(2R)-5-(carboxymethylamino)-5-oxopentan-2-yl]-10,13-dimethyl-2,3,4,5,6,7,8,9,11,12,14,15,16,17-tetradecahydro-1H-cyclopenta[a]phenanthren-3-yl] sulfate

> <PUBCHEM_IUPAC_SYSTEMATIC_NAME>
[(3R,5R,8R,9S,10S,13R,14S,17R)-17-[(2R)-5-(2-hydroxy-2-oxoethylamino)-5-oxidanylidene-pentan-2-yl]-10,13-dimethyl-2,3,4,5,6,7,8,9,11,12,14,15,16,17-tetradecahydro-1H-cyclopenta[a]phenanthren-3-yl] sulfate

> <PUBCHEM_IUPAC_TRADITIONAL_NAME>
[(3R,5R,8R,9S,10S,13R,14S,17R)-17-[(1R)-4-(carboxymethylamino)-4-keto-1-methyl-butyl]-10,13-dimethyl-2,3,4,5,6,7,8,9,11,12,14,15,16,17-tetradecahydro-1H-cyclopenta[a]phenanthren-3-yl] sulfate

> <PUBCHEM_IUPAC_INCHI>
InChI=1S/C26H43NO7S/c1-16(4-9-23(28)27-15-24(29)30)20-7-8-21-19-6-5-17-14-18(34-35(31,32)33)10-12-25(17,2)22(19)11-13-26(20,21)3/h16-22H,4-15H2,1-3H3,(H,27,28)(H,29,30)(H,31,32,33)/p-1/t16-,17-,18-,19+,20-,21+,22+,25+,26-/m1/s1

> <PUBCHEM_IUPAC_INCHIKEY>
FHXBAFXQVZOILS-OETIFKLTSA-M

> <PUBCHEM_XLOGP3_AA>
5.1

> <PUBCHEM_EXACT_MASS>
512.268199

> <PUBCHEM_MOLECULAR_FORMULA>
C26H42NO7S-

> <PUBCHEM_MOLECULAR_WEIGHT>
512.67918

> <PUBCHEM_OPENEYE_CAN_SMILES>
CC(CCC(=O)NCC(=O)O)C1CCC2C1(CCC3C2CCC4C3(CCC(C4)OS(=O)(=O)[O-])C)C

> <PUBCHEM_OPENEYE_ISO_SMILES>
C[C@H](CCC(=O)NCC(=O)O)[C@H]1CC[C@@H]2[C@@]1(CC[C@H]3[C@H]2CC[C@H]4[C@@]3(CC[C@H](C4)OS(=O)(=O)[O-])C)C

> <PUBCHEM_CACTVS_TPSA>
141

> <PUBCHEM_MONOISOTOPIC_WEIGHT>
512.268199

> <PUBCHEM_TOTAL_CHARGE>
-1

> <PUBCHEM_HEAVY_ATOM_COUNT>
35

> <PUBCHEM_ATOM_DEF_STEREO_COUNT>
9

> <PUBCHEM_ATOM_UDEF_STEREO_COUNT>
0

> <PUBCHEM_BOND_DEF_STEREO_COUNT>
0

> <PUBCHEM_BOND_UDEF_STEREO_COUNT>
0

> <PUBCHEM_ISOTOPIC_ATOM_COUNT>
0

> <PUBCHEM_COMPONENT_COUNT>
1

> <PUBCHEM_CACTVS_TAUTO_COUNT>
2

> <PUBCHEM_COORDINATE_TYPE>
1
5
255

> <PUBCHEM_BONDANNOTATIONS>
10  24  5
11  36  6
12  37  5
13  38  6
14  27  5
15  39  6
16  40  5
29  2  6
25  31  6

$$$$

