10516
  -OEChem-06261204382D

 59 64  0     1  0  0  0  0  0999 V2000
    5.9422    2.2171    0.0000 O   0  0  0  0  0  0  0  0  0  0  0  0
    6.9727    4.1542    0.0000 O   0  0  0  0  0  0  0  0  0  0  0  0
    5.6636   -0.3257    0.0000 O   0  0  0  0  0  0  0  0  0  0  0  0
    5.5927   -4.9077    0.0000 O   0  0  0  0  0  0  0  0  0  0  0  0
    2.9945    2.9859    0.0000 N   0  0  3  0  0  0  0  0  0  0  0  0
    6.0010   -2.9498    0.0000 N   0  0  0  0  0  0  0  0  0  0  0  0
    4.5497    3.0242    0.0000 C   0  0  1  0  0  0  0  0  0  0  0  0
    3.8066    3.6933    0.0000 C   0  0  3  0  0  0  0  0  0  0  0  0
    2.8555    3.3843    0.0000 C   0  0  2  0  0  0  0  0  0  0  0  0
    5.5386    3.1256    0.0000 C   0  0  2  0  0  0  0  0  0  0  0  0
    4.2607    2.7168    0.0000 C   0  0  0  0  0  0  0  0  0  0  0  0
    4.3418    2.0461    0.0000 C   0  0  0  0  0  0  0  0  0  0  0  0
    2.6476    2.4062    0.0000 C   0  0  0  0  0  0  0  0  0  0  0  0
    3.5298    2.3914    0.0000 C   0  0  0  0  0  0  0  0  0  0  0  0
    3.3907    1.7371    0.0000 C   0  0  0  0  0  0  0  0  0  0  0  0
    5.9767    4.0638    0.0000 C   0  0  2  0  0  0  0  0  0  0  0  0
    4.3467    4.8021    0.0000 C   0  0  0  0  0  0  0  0  0  0  0  0
    5.1265    1.3611    0.0000 C   0  0  0  0  0  0  0  0  0  0  0  0
    5.3768    4.9077    0.0000 C   0  0  0  0  0  0  0  0  0  0  0  0
    3.1585    0.7216    0.0000 C   0  0  0  0  0  0  0  0  0  0  0  0
    2.0000    2.8813    0.0000 C   0  0  0  0  0  0  0  0  0  0  0  0
    4.9178    0.3406    0.0000 C   0  0  0  0  0  0  0  0  0  0  0  0
    3.9272    0.0187    0.0000 C   0  0  0  0  0  0  0  0  0  0  0  0
    5.4594   -1.3046    0.0000 C   0  0  0  0  0  0  0  0  0  0  0  0
    6.2051   -1.9709    0.0000 C   0  0  0  0  0  0  0  0  0  0  0  0
    5.0511   -3.2625    0.0000 C   0  0  0  0  0  0  0  0  0  0  0  0
    6.7467   -3.6161    0.0000 C   0  0  0  0  0  0  0  0  0  0  0  0
    4.8470   -4.2414    0.0000 C   0  0  0  0  0  0  0  0  0  0  0  0
    6.5426   -4.5950    0.0000 C   0  0  0  0  0  0  0  0  0  0  0  0
    3.3997    4.1612    0.0000 H   0  0  0  0  0  0  0  0  0  0  0  0
    2.0730    3.5507    0.0000 H   0  0  0  0  0  0  0  0  0  0  0  0
    6.3386    3.1180    0.0000 H   0  0  0  0  0  0  0  0  0  0  0  0
    4.2779    2.0970    0.0000 H   0  0  0  0  0  0  0  0  0  0  0  0
    3.9016    3.2222    0.0000 H   0  0  0  0  0  0  0  0  0  0  0  0
    2.0728    2.6384    0.0000 H   0  0  0  0  0  0  0  0  0  0  0  0
    2.3191    1.8804    0.0000 H   0  0  0  0  0  0  0  0  0  0  0  0
    3.0282    2.0269    0.0000 H   0  0  0  0  0  0  0  0  0  0  0  0
    3.8398    1.8544    0.0000 H   0  0  0  0  0  0  0  0  0  0  0  0
    6.3331    3.5564    0.0000 H   0  0  0  0  0  0  0  0  0  0  0  0
    3.9916    5.3104    0.0000 H   0  0  0  0  0  0  0  0  0  0  0  0
    5.6326    5.4725    0.0000 H   0  0  0  0  0  0  0  0  0  0  0  0
    2.5667    0.5369    0.0000 H   0  0  0  0  0  0  0  0  0  0  0  0
    1.9352    3.4980    0.0000 H   0  0  0  0  0  0  0  0  0  0  0  0
    1.3834    2.8165    0.0000 H   0  0  0  0  0  0  0  0  0  0  0  0
    2.0648    2.2647    0.0000 H   0  0  0  0  0  0  0  0  0  0  0  0
    3.7959   -0.5872    0.0000 H   0  0  0  0  0  0  0  0  0  0  0  0
    7.2328    4.7170    0.0000 H   0  0  0  0  0  0  0  0  0  0  0  0
    4.8837   -1.0746    0.0000 H   0  0  0  0  0  0  0  0  0  0  0  0
    5.1329   -1.8317    0.0000 H   0  0  0  0  0  0  0  0  0  0  0  0
    6.7809   -2.2009    0.0000 H   0  0  0  0  0  0  0  0  0  0  0  0
    6.5317   -1.4438    0.0000 H   0  0  0  0  0  0  0  0  0  0  0  0
    4.9625   -2.6489    0.0000 H   0  0  0  0  0  0  0  0  0  0  0  0
    4.4314   -3.2432    0.0000 H   0  0  0  0  0  0  0  0  0  0  0  0
    7.3225   -3.8461    0.0000 H   0  0  0  0  0  0  0  0  0  0  0  0
    7.0732   -3.0890    0.0000 H   0  0  0  0  0  0  0  0  0  0  0  0
    4.2712   -4.0114    0.0000 H   0  0  0  0  0  0  0  0  0  0  0  0
    4.5205   -4.7685    0.0000 H   0  0  0  0  0  0  0  0  0  0  0  0
    6.6312   -5.2086    0.0000 H   0  0  0  0  0  0  0  0  0  0  0  0
    7.1623   -4.6143    0.0000 H   0  0  0  0  0  0  0  0  0  0  0  0
  1 10  1  0  0  0  0
  1 18  1  0  0  0  0
  2 16  1  0  0  0  0
  2 47  1  0  0  0  0
  3 22  1  0  0  0  0
  3 24  1  0  0  0  0
  4 28  1  0  0  0  0
  4 29  1  0  0  0  0
  5  9  1  0  0  0  0
  5 14  1  0  0  0  0
  5 21  1  0  0  0  0
  6 25  1  0  0  0  0
  6 26  1  0  0  0  0
  6 27  1  0  0  0  0
  7  8  1  0  0  0  0
  7 10  1  0  0  0  0
  7 11  1  0  0  0  0
  7 12  1  0  0  0  0
  8  9  1  0  0  0  0
  8 17  1  0  0  0  0
  8 30  1  0  0  0  0
  9 13  1  0  0  0  0
  9 31  1  0  0  0  0
 10 16  1  0  0  0  0
 10 32  1  0  0  0  0
 11 14  1  0  0  0  0
 11 33  1  0  0  0  0
 11 34  1  0  0  0  0
 12 15  2  0  0  0  0
 12 18  1  0  0  0  0
 13 15  1  0  0  0  0
 13 35  1  0  0  0  0
 13 36  1  0  0  0  0
 14 37  1  0  0  0  0
 14 38  1  0  0  0  0
 15 20  1  0  0  0  0
 16 19  1  0  0  0  0
 16 39  1  0  0  0  0
 17 19  2  0  0  0  0
 17 40  1  0  0  0  0
 18 22  2  0  0  0  0
 19 41  1  0  0  0  0
 20 23  2  0  0  0  0
 20 42  1  0  0  0  0
 21 43  1  0  0  0  0
 21 44  1  0  0  0  0
 21 45  1  0  0  0  0
 22 23  1  0  0  0  0
 23 46  1  0  0  0  0
 24 25  1  0  0  0  0
 24 48  1  0  0  0  0
 24 49  1  0  0  0  0
 25 50  1  0  0  0  0
 25 51  1  0  0  0  0
 26 28  1  0  0  0  0
 26 52  1  0  0  0  0
 26 53  1  0  0  0  0
 27 29  1  0  0  0  0
 27 54  1  0  0  0  0
 27 55  1  0  0  0  0
 28 56  1  0  0  0  0
 28 57  1  0  0  0  0
 29 58  1  0  0  0  0
 29 59  1  0  0  0  0
M  END
> <PUBCHEM_COMPOUND_CID>
10516

> <PUBCHEM_COMPOUND_CANONICALIZED>
1

> <PUBCHEM_CACTVS_COMPLEXITY>
653

> <PUBCHEM_CACTVS_HBOND_ACCEPTOR>
6

> <PUBCHEM_CACTVS_HBOND_DONOR>
1

> <PUBCHEM_CACTVS_ROTATABLE_BOND>
4

> <PUBCHEM_CACTVS_SUBSKEYS>
AAADceB7OAAAAAAAAAAAAAAAAAAAASAAAAA8eIECAAAWAEjBAAAAHgAACAAADzzhmAYyBoMABgCAAiBCAAACCAAgIAAIiAAOiIgPNiKEsRuHeCKkwBGbuAew8P8PoAABAAAYQADQAAaAADSAAAAAAAAAAA==

> <PUBCHEM_IUPAC_OPENEYE_NAME>
(4S,7S,7aR,12bS)-3-methyl-9-(2-morpholinoethoxy)-2,4,4a,7,7a,13-hexahydro-1H-4,12-methanobenzofuro[3,2-e]isoquinoline-7-ol

> <PUBCHEM_IUPAC_CAS_NAME>
(4S,7S,7aR,12bS)-3-methyl-9-[2-(4-morpholinyl)ethoxy]-2,4,4a,7,7a,13-hexahydro-1H-4,12-methanobenzofuro[3,2-e]isoquinoline-7-ol

> <PUBCHEM_IUPAC_NAME>
(4S,7S,7aR,12bS)-3-methyl-9-(2-morpholin-4-ylethoxy)-2,4,4a,7,7a,13-hexahydro-1H-4,12-methanobenzofuro[3,2-e]isoquinoline-7-ol

> <PUBCHEM_IUPAC_SYSTEMATIC_NAME>
(4S,7S,7aR,12bS)-3-methyl-9-(2-morpholin-4-ylethoxy)-2,4,4a,7,7a,13-hexahydro-1H-4,12-methanobenzofuro[3,2-e]isoquinoline-7-ol

> <PUBCHEM_IUPAC_TRADITIONAL_NAME>
(4S,7S,7aR,12bS)-3-methyl-9-(2-morpholinoethoxy)-2,4,4a,7,7a,13-hexahydro-1H-4,12-methanobenzofuro[3,2-e]isoquinoline-7-ol

> <PUBCHEM_IUPAC_INCHI>
InChI=1S/C23H30N2O4/c1-24-7-6-23-16-3-4-18(26)22(23)29-21-19(5-2-15(20(21)23)14-17(16)24)28-13-10-25-8-11-27-12-9-25/h2-5,16-18,22,26H,6-14H2,1H3/t16?,17-,18-,22-,23-/m0/s1

> <PUBCHEM_IUPAC_INCHIKEY>
GPFAJKDEDBRFOS-RMXJUCIPSA-N

> <PUBCHEM_XLOGP3>
0.8

> <PUBCHEM_EXACT_MASS>
398.220557

> <PUBCHEM_MOLECULAR_FORMULA>
C23H30N2O4

> <PUBCHEM_MOLECULAR_WEIGHT>
398.4953

> <PUBCHEM_OPENEYE_CAN_SMILES>
CN1CCC23C4C1CC5=C2C(=C(C=C5)OCCN6CCOCC6)OC3C(C=C4)O

> <PUBCHEM_OPENEYE_ISO_SMILES>
CN1CC[C@]23[C@@H]4[C@H](C=CC2[C@@H]1CC5=C3C(=C(C=C5)OCCN6CCOCC6)O4)O

> <PUBCHEM_CACTVS_TPSA>
54.4

> <PUBCHEM_MONOISOTOPIC_WEIGHT>
398.220557

> <PUBCHEM_TOTAL_CHARGE>
0

> <PUBCHEM_HEAVY_ATOM_COUNT>
29

> <PUBCHEM_ATOM_DEF_STEREO_COUNT>
4

> <PUBCHEM_ATOM_UDEF_STEREO_COUNT>
1

> <PUBCHEM_BOND_DEF_STEREO_COUNT>
0

> <PUBCHEM_BOND_UDEF_STEREO_COUNT>
0

> <PUBCHEM_ISOTOPIC_ATOM_COUNT>
0

> <PUBCHEM_COMPONENT_COUNT>
1

> <PUBCHEM_CACTVS_TAUTO_COUNT>
1

> <PUBCHEM_COORDINATE_TYPE>
1
5
255

> <PUBCHEM_BONDANNOTATIONS>
10  32  3
12  15  8
12  18  8
15  20  8
18  22  8
16  2  3
20  23  8
22  23  8
7  11  3
8  30  3
9  31  3

$$$$

