53297393
  -OEChem-07051213122D

 74 78  0     1  0  0  0  0  0999 V2000
    5.9812    0.8347    0.0000 O   0  0  0  0  0  0  0  0  0  0  0  0
    4.0636   -1.7246    0.0000 O   0  0  0  0  0  0  0  0  0  0  0  0
    4.2493    0.8547    0.0000 O   0  0  0  0  0  0  0  0  0  0  0  0
    2.5405    2.8746    0.0000 O   0  0  0  0  0  0  0  0  0  0  0  0
    7.7296   -3.1999    0.0000 O   0  0  0  0  0  0  0  0  0  0  0  0
    7.7296    0.8001    0.0000 O   0  0  0  0  0  0  0  0  0  0  0  0
    5.1210   -3.7445    0.0000 O   0  0  0  0  0  0  0  0  0  0  0  0
    6.8530   -3.7245    0.0000 O   0  0  0  0  0  0  0  0  0  0  0  0
    9.4780    0.8347    0.0000 O   0  0  0  0  0  0  0  0  0  0  0  0
    9.4780   -3.2345    0.0000 O   0  0  0  0  0  0  0  0  0  0  0  0
   11.3153    0.8777    0.0000 O   0  0  0  0  0  0  0  0  0  0  0  0
    4.2840    3.8545    0.0000 N   0  0  0  0  0  0  0  0  0  0  0  0
    5.0636   -1.7208    0.0000 C   0  0  2  0  0  0  0  0  0  0  0  0
    5.0636   -0.6791    0.0000 C   0  0  0  0  0  0  0  0  0  0  0  0
    5.9697   -2.2346    0.0000 C   0  0  1  0  0  0  0  0  0  0  0  0
    5.9697   -0.1653    0.0000 C   0  0  1  0  0  0  0  0  0  0  0  0
    6.8636   -1.6999    0.0000 C   0  0  0  0  0  0  0  0  0  0  0  0
    6.8636   -0.6999    0.0000 C   0  0  0  0  0  0  0  0  0  0  0  0
    4.5669   -2.5887    0.0000 C   0  0  0  0  0  0  0  0  0  0  0  0
    5.1210    1.3446    0.0000 C   0  0  2  0  0  0  0  0  0  0  0  0
    4.2724    2.8546    0.0000 C   0  0  1  0  0  0  0  0  0  0  0  0
    5.1326    2.3446    0.0000 C   0  0  0  0  0  0  0  0  0  0  0  0
    3.4007    2.3646    0.0000 C   0  0  1  0  0  0  0  0  0  0  0  0
    3.3891    1.3647    0.0000 C   0  0  2  0  0  0  0  0  0  0  0  0
    7.7296   -2.1999    0.0000 C   0  0  0  0  0  0  0  0  0  0  0  0
    7.7296   -0.1999    0.0000 C   0  0  0  0  0  0  0  0  0  0  0  0
    5.9812   -3.2345    0.0000 C   0  0  0  0  0  0  0  0  0  0  0  0
    8.5957   -0.6999    0.0000 C   0  0  0  0  0  0  0  0  0  0  0  0
    8.5957   -1.6999    0.0000 C   0  0  0  0  0  0  0  0  0  0  0  0
    3.5670   -2.5926    0.0000 C   0  0  0  0  0  0  0  0  0  0  0  0
    2.5174    0.8747    0.0000 C   0  0  0  0  0  0  0  0  0  0  0  0
    9.4896   -0.1653    0.0000 C   0  0  0  0  0  0  0  0  0  0  0  0
    9.4896   -2.2346    0.0000 C   0  0  0  0  0  0  0  0  0  0  0  0
    5.1557    4.3444    0.0000 C   0  0  0  0  0  0  0  0  0  0  0  0
    3.4238    4.3645    0.0000 C   0  0  0  0  0  0  0  0  0  0  0  0
   10.3957   -0.6791    0.0000 C   0  0  0  0  0  0  0  0  0  0  0  0
   10.3957   -1.7208    0.0000 C   0  0  0  0  0  0  0  0  0  0  0  0
   11.3268   -0.1222    0.0000 C   0  0  0  0  0  0  0  0  0  0  0  0
   11.3268   -2.2777    0.0000 C   0  0  0  0  0  0  0  0  0  0  0  0
   12.2706   -0.6574    0.0000 C   0  0  0  0  0  0  0  0  0  0  0  0
   12.2706   -1.7424    0.0000 C   0  0  0  0  0  0  0  0  0  0  0  0
    4.8545   -0.0954    0.0000 H   0  0  0  0  0  0  0  0  0  0  0  0
    4.4527   -0.7852    0.0000 H   0  0  0  0  0  0  0  0  0  0  0  0
    5.4357   -2.5498    0.0000 H   0  0  0  0  0  0  0  0  0  0  0  0
    5.4357    0.1499    0.0000 H   0  0  0  0  0  0  0  0  0  0  0  0
    4.4616   -3.1997    0.0000 H   0  0  0  0  0  0  0  0  0  0  0  0
    5.1504   -2.7985    0.0000 H   0  0  0  0  0  0  0  0  0  0  0  0
    5.6615    1.6484    0.0000 H   0  0  0  0  0  0  0  0  0  0  0  0
    3.7391    3.1707    0.0000 H   0  0  0  0  0  0  0  0  0  0  0  0
    5.7419    2.2299    0.0000 H   0  0  0  0  0  0  0  0  0  0  0  0
    5.3514    2.9247    0.0000 H   0  0  0  0  0  0  0  0  0  0  0  0
    2.8602    2.0608    0.0000 H   0  0  0  0  0  0  0  0  0  0  0  0
    3.3819    0.7447    0.0000 H   0  0  0  0  0  0  0  0  0  0  0  0
    3.7515   -1.1889    0.0000 H   0  0  0  0  0  0  0  0  0  0  0  0
    3.5646   -1.9726    0.0000 H   0  0  0  0  0  0  0  0  0  0  0  0
    2.9470   -2.5949    0.0000 H   0  0  0  0  0  0  0  0  0  0  0  0
    3.5693   -3.2125    0.0000 H   0  0  0  0  0  0  0  0  0  0  0  0
    2.2136    1.4152    0.0000 H   0  0  0  0  0  0  0  0  0  0  0  0
    1.9769    0.5709    0.0000 H   0  0  0  0  0  0  0  0  0  0  0  0
    2.8211    0.3342    0.0000 H   0  0  0  0  0  0  0  0  0  0  0  0
    2.0000    2.5708    0.0000 H   0  0  0  0  0  0  0  0  0  0  0  0
    5.4595    3.8040    0.0000 H   0  0  0  0  0  0  0  0  0  0  0  0
    5.6962    4.6482    0.0000 H   0  0  0  0  0  0  0  0  0  0  0  0
    4.8520    4.8849    0.0000 H   0  0  0  0  0  0  0  0  0  0  0  0
    3.7400    4.8978    0.0000 H   0  0  0  0  0  0  0  0  0  0  0  0
    2.8905    4.6807    0.0000 H   0  0  0  0  0  0  0  0  0  0  0  0
    3.1076    3.8312    0.0000 H   0  0  0  0  0  0  0  0  0  0  0  0
    8.2666   -3.5099    0.0000 H   0  0  0  0  0  0  0  0  0  0  0  0
    8.2666    1.1101    0.0000 H   0  0  0  0  0  0  0  0  0  0  0  0
    5.1282   -4.3645    0.0000 H   0  0  0  0  0  0  0  0  0  0  0  0
   11.3197   -2.8976    0.0000 H   0  0  0  0  0  0  0  0  0  0  0  0
   12.8063   -0.3454    0.0000 H   0  0  0  0  0  0  0  0  0  0  0  0
   12.8063   -2.0545    0.0000 H   0  0  0  0  0  0  0  0  0  0  0  0
   11.8486    1.1939    0.0000 H   0  0  0  0  0  0  0  0  0  0  0  0
 16  1  1  6  0  0  0
 20  1  1  6  0  0  0
 13  2  1  6  0  0  0
  2 54  1  0  0  0  0
  3 20  1  0  0  0  0
  3 24  1  0  0  0  0
 23  4  1  1  0  0  0
  4 61  1  0  0  0  0
  5 25  1  0  0  0  0
  5 68  1  0  0  0  0
  6 26  1  0  0  0  0
  6 69  1  0  0  0  0
  7 27  1  0  0  0  0
  7 70  1  0  0  0  0
  8 27  2  0  0  0  0
  9 32  2  0  0  0  0
 10 33  2  0  0  0  0
 11 38  1  0  0  0  0
 11 74  1  0  0  0  0
 21 12  1  1  0  0  0
 12 34  1  0  0  0  0
 12 35  1  0  0  0  0
 13 14  1  0  0  0  0
 13 15  1  0  0  0  0
 13 19  1  0  0  0  0
 14 16  1  0  0  0  0
 14 42  1  0  0  0  0
 14 43  1  0  0  0  0
 15 17  1  0  0  0  0
 15 27  1  1  0  0  0
 15 44  1  0  0  0  0
 16 18  1  0  0  0  0
 16 45  1  0  0  0  0
 17 18  2  0  0  0  0
 17 25  1  0  0  0  0
 18 26  1  0  0  0  0
 19 30  1  0  0  0  0
 19 46  1  0  0  0  0
 19 47  1  0  0  0  0
 20 22  1  0  0  0  0
 20 48  1  0  0  0  0
 21 22  1  0  0  0  0
 21 23  1  0  0  0  0
 21 49  1  0  0  0  0
 22 50  1  0  0  0  0
 22 51  1  0  0  0  0
 23 24  1  0  0  0  0
 23 52  1  0  0  0  0
 24 31  1  1  0  0  0
 24 53  1  0  0  0  0
 25 29  2  0  0  0  0
 26 28  2  0  0  0  0
 28 29  1  0  0  0  0
 28 32  1  0  0  0  0
 29 33  1  0  0  0  0
 30 55  1  0  0  0  0
 30 56  1  0  0  0  0
 30 57  1  0  0  0  0
 31 58  1  0  0  0  0
 31 59  1  0  0  0  0
 31 60  1  0  0  0  0
 32 36  1  0  0  0  0
 33 37  1  0  0  0  0
 34 62  1  0  0  0  0
 34 63  1  0  0  0  0
 34 64  1  0  0  0  0
 35 65  1  0  0  0  0
 35 66  1  0  0  0  0
 35 67  1  0  0  0  0
 36 37  2  0  0  0  0
 36 38  1  0  0  0  0
 37 39  1  0  0  0  0
 38 40  2  0  0  0  0
 39 41  2  0  0  0  0
 39 71  1  0  0  0  0
 40 41  1  0  0  0  0
 40 72  1  0  0  0  0
 41 73  1  0  0  0  0
M  END
> <PUBCHEM_COMPOUND_CID>
53297393

> <PUBCHEM_COMPOUND_CANONICALIZED>
1

> <PUBCHEM_CACTVS_COMPLEXITY>
1040

> <PUBCHEM_CACTVS_HBOND_ACCEPTOR>
12

> <PUBCHEM_CACTVS_HBOND_DONOR>
6

> <PUBCHEM_CACTVS_ROTATABLE_BOND>
5

> <PUBCHEM_CACTVS_SUBSKEYS>
AAADcfB6PAAAAAAAAAAAAAAAAAAAAAAAAAA0YMGCAAAAAADBQAAAHgAACAAADXzxmAcyDoMABgCIAqDSCAACAAAkIAAIiAEOCMgbNzaCtRqmcUAn4BEfuYfL7PzOwQADAAAYAADCAAYQADAAAAAAAAAAAA==

> <PUBCHEM_IUPAC_OPENEYE_NAME>
(1R,2R,4S)-4-[(2R,4S,5S,6S)-4-(dimethylamino)-5-hydroxy-6-methyl-tetrahydropyran-2-yl]oxy-2-ethyl-2,5,7,12-tetrahydroxy-6,11-dioxo-3,4-dihydro-1H-tetracene-1-carboxylic acid

> <PUBCHEM_IUPAC_CAS_NAME>
(1R,2R,4S)-4-[[(2R,4S,5S,6S)-4-(dimethylamino)-5-hydroxy-6-methyl-2-oxanyl]oxy]-2-ethyl-2,5,7,12-tetrahydroxy-6,11-dioxo-3,4-dihydro-1H-tetracene-1-carboxylic acid

> <PUBCHEM_IUPAC_NAME>
(1R,2R,4S)-4-[(2R,4S,5S,6S)-4-(dimethylamino)-5-hydroxy-6-methyloxan-2-yl]oxy-2-ethyl-2,5,7,12-tetrahydroxy-6,11-dioxo-3,4-dihydro-1H-tetracene-1-carboxylic acid

> <PUBCHEM_IUPAC_SYSTEMATIC_NAME>
(1R,2R,4S)-4-[(2R,4S,5S,6S)-4-(dimethylamino)-6-methyl-5-oxidanyl-oxan-2-yl]oxy-2-ethyl-2,5,7,12-tetrakis(oxidanyl)-6,11-bis(oxidanylidene)-3,4-dihydro-1H-tetracene-1-carboxylic acid

> <PUBCHEM_IUPAC_TRADITIONAL_NAME>
(1R,2R,4S)-4-[(2R,4S,5S,6S)-4-(dimethylamino)-5-hydroxy-6-methyl-tetrahydropyran-2-yl]oxy-2-ethyl-2,5,7,12-tetrahydroxy-6,11-diketo-3,4-dihydro-1H-tetracene-1-carboxylic acid

> <PUBCHEM_IUPAC_INCHI>
InChI=1S/C29H33NO11/c1-5-29(39)10-15(41-16-9-13(30(3)4)23(32)11(2)40-16)18-19(22(29)28(37)38)27(36)20-21(26(18)35)25(34)17-12(24(20)33)7-6-8-14(17)31/h6-8,11,13,15-16,22-23,31-32,35-36,39H,5,9-10H2,1-4H3,(H,37,38)/t11-,13-,15-,16-,22-,23+,29+/m0/s1

> <PUBCHEM_IUPAC_INCHIKEY>
SDXUZQDREOXYJX-FUXNZPHBSA-N

> <PUBCHEM_XLOGP3_AA>
0.6

> <PUBCHEM_EXACT_MASS>
571.205361

> <PUBCHEM_MOLECULAR_FORMULA>
C29H33NO11

> <PUBCHEM_MOLECULAR_WEIGHT>
571.57242

> <PUBCHEM_OPENEYE_CAN_SMILES>
CCC1(CC(C2=C(C3=C(C(=C2C1C(=O)O)O)C(=O)C4=C(C3=O)C(=CC=C4)O)O)OC5CC(C(C(O5)C)O)N(C)C)O

> <PUBCHEM_OPENEYE_ISO_SMILES>
CC[C@]1(C[C@@H](C2=C(C3=C(C(=C2[C@H]1C(=O)O)O)C(=O)C4=C(C3=O)C(=CC=C4)O)O)O[C@H]5C[C@@H]([C@@H]([C@@H](O5)C)O)N(C)C)O

> <PUBCHEM_CACTVS_TPSA>
194

> <PUBCHEM_MONOISOTOPIC_WEIGHT>
571.205361

> <PUBCHEM_TOTAL_CHARGE>
0

> <PUBCHEM_HEAVY_ATOM_COUNT>
41

> <PUBCHEM_ATOM_DEF_STEREO_COUNT>
7

> <PUBCHEM_ATOM_UDEF_STEREO_COUNT>
0

> <PUBCHEM_BOND_DEF_STEREO_COUNT>
0

> <PUBCHEM_BOND_UDEF_STEREO_COUNT>
0

> <PUBCHEM_ISOTOPIC_ATOM_COUNT>
0

> <PUBCHEM_COMPONENT_COUNT>
1

> <PUBCHEM_CACTVS_TAUTO_COUNT>
263

> <PUBCHEM_COORDINATE_TYPE>
1
5
255

> <PUBCHEM_BONDANNOTATIONS>
16  1  6
20  1  6
21  12  5
15  27  5
17  18  8
17  25  8
18  26  8
13  2  6
24  31  5
25  29  8
26  28  8
28  29  8
36  37  8
36  38  8
37  39  8
38  40  8
39  41  8
23  4  5
40  41  8

$$$$

