443248
  -OEChem-07051213013D

 41 42  0     1  0  0  0  0  0999 V2000
   -1.9189    1.3113    0.0368 O   0  0  0  0  0  0  0  0  0  0  0  0
    0.4491   -0.1112    0.2798 O   0  0  0  0  0  0  0  0  0  0  0  0
    2.3423    1.1026    0.9080 O   0  0  0  0  0  0  0  0  0  0  0  0
   -2.1737   -1.9219    1.7382 O   0  0  0  0  0  0  0  0  0  0  0  0
   -4.0890   -2.1460   -0.4152 O   0  0  0  0  0  0  0  0  0  0  0  0
   -5.3287    0.4686   -0.9695 O   0  0  0  0  0  0  0  0  0  0  0  0
    2.1357   -1.9863   -1.0544 O   0  0  0  0  0  0  0  0  0  0  0  0
   -3.3927    2.5016   -1.3253 O   0  0  0  0  0  0  0  0  0  0  0  0
    4.6062   -0.7914   -1.9526 O   0  0  0  0  0  0  0  0  0  0  0  0
    5.9053    0.6645    0.2582 O   0  0  0  0  0  0  0  0  0  0  0  0
   -1.7478    0.3617    1.0904 C   0  0  1  0  0  0  0  0  0  0  0  0
   -2.2738   -1.0067    0.6504 C   0  0  2  0  0  0  0  0  0  0  0  0
   -3.7329   -0.9092    0.2043 C   0  0  1  0  0  0  0  0  0  0  0  0
   -3.9321    0.2343   -0.7905 C   0  0  2  0  0  0  0  0  0  0  0  0
   -0.2613    0.3130    1.4289 C   0  0  0  0  0  0  0  0  0  0  0  0
    2.5303   -0.6447   -0.7683 C   0  0  1  0  0  0  0  0  0  0  0  0
   -3.2903    1.5273   -0.2873 C   0  0  1  0  0  0  0  0  0  0  0  0
    1.8535   -0.1807    0.5225 C   0  0  2  0  0  0  0  0  0  0  0  0
    4.0537   -0.6061   -0.6487 C   0  0  2  0  0  0  0  0  0  0  0  0
    4.5247    0.7319   -0.0805 C   0  0  1  0  0  0  0  0  0  0  0  0
    3.7404    1.0874    1.1747 C   0  0  0  0  0  0  0  0  0  0  0  0
   -2.2830    0.7099    1.9839 H   0  0  0  0  0  0  0  0  0  0  0  0
   -1.6862   -1.4135   -0.1825 H   0  0  0  0  0  0  0  0  0  0  0  0
   -4.3979   -0.7925    1.0689 H   0  0  0  0  0  0  0  0  0  0  0  0
   -3.5287   -0.0415   -1.7721 H   0  0  0  0  0  0  0  0  0  0  0  0
   -0.0668   -0.3602    2.2708 H   0  0  0  0  0  0  0  0  0  0  0  0
    0.0623    1.3230    1.7069 H   0  0  0  0  0  0  0  0  0  0  0  0
    2.2004   -0.0317   -1.6159 H   0  0  0  0  0  0  0  0  0  0  0  0
    2.0254   -0.9053    1.3301 H   0  0  0  0  0  0  0  0  0  0  0  0
   -3.8251    1.9213    0.5862 H   0  0  0  0  0  0  0  0  0  0  0  0
    4.4163   -1.4413   -0.0369 H   0  0  0  0  0  0  0  0  0  0  0  0
    4.4066    1.5162   -0.8373 H   0  0  0  0  0  0  0  0  0  0  0  0
    3.9555    0.3962    1.9996 H   0  0  0  0  0  0  0  0  0  0  0  0
    4.0318    2.0832    1.5263 H   0  0  0  0  0  0  0  0  0  0  0  0
   -1.2365   -2.1566    1.8439 H   0  0  0  0  0  0  0  0  0  0  0  0
   -3.9371   -2.8523    0.2360 H   0  0  0  0  0  0  0  0  0  0  0  0
   -5.7064    0.7123   -0.1072 H   0  0  0  0  0  0  0  0  0  0  0  0
    2.3954   -2.5437   -0.3011 H   0  0  0  0  0  0  0  0  0  0  0  0
   -3.3545    3.3754   -0.9008 H   0  0  0  0  0  0  0  0  0  0  0  0
    5.5734   -0.7341   -1.8683 H   0  0  0  0  0  0  0  0  0  0  0  0
    6.0199   -0.0404    0.9183 H   0  0  0  0  0  0  0  0  0  0  0  0
  1 11  1  0  0  0  0
  1 17  1  0  0  0  0
  2 15  1  0  0  0  0
  2 18  1  0  0  0  0
  3 18  1  0  0  0  0
  3 21  1  0  0  0  0
  4 12  1  0  0  0  0
  4 35  1  0  0  0  0
  5 13  1  0  0  0  0
  5 36  1  0  0  0  0
  6 14  1  0  0  0  0
  6 37  1  0  0  0  0
  7 16  1  0  0  0  0
  7 38  1  0  0  0  0
  8 17  1  0  0  0  0
  8 39  1  0  0  0  0
  9 19  1  0  0  0  0
  9 40  1  0  0  0  0
 10 20  1  0  0  0  0
 10 41  1  0  0  0  0
 11 12  1  0  0  0  0
 11 15  1  0  0  0  0
 11 22  1  0  0  0  0
 12 13  1  0  0  0  0
 12 23  1  0  0  0  0
 13 14  1  0  0  0  0
 13 24  1  0  0  0  0
 14 17  1  0  0  0  0
 14 25  1  0  0  0  0
 15 26  1  0  0  0  0
 15 27  1  0  0  0  0
 16 18  1  0  0  0  0
 16 19  1  0  0  0  0
 16 28  1  0  0  0  0
 17 30  1  0  0  0  0
 18 29  1  0  0  0  0
 19 20  1  0  0  0  0
 19 31  1  0  0  0  0
 20 21  1  0  0  0  0
 20 32  1  0  0  0  0
 21 33  1  0  0  0  0
 21 34  1  0  0  0  0
M  END
> <PUBCHEM_COMPOUND_CID>
443248

> <PUBCHEM_CONFORMER_RMSD>
0.8

> <PUBCHEM_CONFORMER_DIVERSEORDER>
5
33
63
4
9
6
31
44
17
68
41
38
12
65
28
52
18
22
32
60
40
48
35
20
61
11
47
27
46
59
24
36
37
62
21
53
30
69
67
7
57
1
56
45
54
23
58
55
34
42
3
16
26
51
50
10
25
14
49
39
2
15
64
13
66
29
43
8
19

> <PUBCHEM_MMFF94_PARTIAL_CHARGES>
28
1 -0.56
10 -0.68
11 0.28
12 0.28
13 0.28
14 0.28
15 0.28
16 0.28
17 0.56
18 0.56
19 0.28
2 -0.56
20 0.28
21 0.28
3 -0.56
35 0.4
36 0.4
37 0.4
38 0.4
39 0.4
4 -0.68
40 0.4
41 0.4
5 -0.68
6 -0.68
7 -0.68
8 -0.68
9 -0.68

> <PUBCHEM_EFFECTIVE_ROTOR_COUNT>
5.4

> <PUBCHEM_PHARMACOPHORE_FEATURES>
19
1 1 acceptor
1 10 acceptor
1 10 donor
1 2 acceptor
1 3 acceptor
1 4 acceptor
1 4 donor
1 5 acceptor
1 5 donor
1 6 acceptor
1 6 donor
1 7 acceptor
1 7 donor
1 8 acceptor
1 8 donor
1 9 acceptor
1 9 donor
6 1 11 12 13 14 17 rings
6 3 16 18 19 20 21 rings

> <PUBCHEM_HEAVY_ATOM_COUNT>
21

> <PUBCHEM_ATOM_DEF_STEREO_COUNT>
9

> <PUBCHEM_ATOM_UDEF_STEREO_COUNT>
0

> <PUBCHEM_BOND_DEF_STEREO_COUNT>
0

> <PUBCHEM_BOND_UDEF_STEREO_COUNT>
0

> <PUBCHEM_ISOTOPIC_ATOM_COUNT>
0

> <PUBCHEM_COMPONENT_COUNT>
1

> <PUBCHEM_CACTVS_TAUTO_COUNT>
1

> <PUBCHEM_CONFORMER_ID>
0006C37000000005

> <PUBCHEM_MMFF94_ENERGY>
55.7492

> <PUBCHEM_FEATURE_SELFOVERLAP>
96.532

> <PUBCHEM_SHAPE_FINGERPRINT>
10498660 4 18129950099361254541
11046707 91 4750868235133023529
11089746 13 16630528402130446516
11615757 297 16660360376878517162
12236239 1 16272211868899920136
12390115 104 18267303330414728933
12670546 177 18409732850356412485
128620 24 17240202131911718976
14004511 7 15123509198692796498
14123260 362 16845568733990015161
14251764 38 17988357058010995660
15209289 33 5256403902864346229
15375358 24 18410575084763468266
15788980 27 17561079220310982074
15961568 22 17987520295513763188
17870717 6 18409160022220784143
18186145 218 18335416897904920920
19433438 15 16272206358261875698
19433438 38 18408323276301787162
19489759 90 18273218586215944280
200 152 17022621983235206865
20279233 1 18410007741221942626
20645477 56 18343864441979244145
20645477 70 17676766565384116902
20871999 31 18412826906479374713
21033650 10 17845077653438057300
21065201 7 18343866619305851026
22393880 68 18336262444196479174
22646028 1 15719110275282510040
22646028 28 15430037673071083972
23402539 116 18059863834997427670
235170 7 18335138712931213812
23557571 272 18412546500464445072
23559900 14 18335145271404420368
23596394 208 18260829336607713486
2838139 119 14260533343502174159
2871803 45 18040713684237485794
3268164 11 18130795546709276621
3472631 163 17561082501286383277
351380 3 14851608769099904260
4028521 119 18272093828971011709
474 4 15698002958927403344
4921388 177 18201711839172313883
5104073 3 17313375777729037338
5281201 14 18335696139905137516
5283173 99 18339367460411420393
542803 24 16056879121995856474
9709674 26 18338235960009252427

> <PUBCHEM_SHAPE_MULTIPOLES>
373.48
11.76
1.85
1.42
5.02
0.12
0
-0.89
3.62
-1.47
0.31
0.09
0.11
1.95

> <PUBCHEM_SHAPE_SELFOVERLAP>
764.069

> <PUBCHEM_SHAPE_VOLUME>
210.8

> <PUBCHEM_COORDINATE_TYPE>
2
5
10

$$$$

