12833
  -OEChem-06261207263D

 27 28  0     1  0  0  0  0  0999 V2000
   -3.2833   -2.6288   -0.0594 Cl  0  0  0  0  0  0  0  0  0  0  0  0
   -0.2496    2.3634    0.0232 N   0  0  0  0  0  0  0  0  0  0  0  0
    3.9252   -1.7831    0.1177 N   0  0  0  0  0  0  0  0  0  0  0  0
    2.0563   -0.3386    0.8694 C   0  0  0  0  0  0  0  0  0  0  0  0
    0.9308    0.5474    0.5089 C   0  0  0  0  0  0  0  0  0  0  0  0
    2.8558   -0.8906   -0.3396 C   0  0  1  0  0  0  0  0  0  0  0  0
   -0.4115    0.1502    0.2536 C   0  0  0  0  0  0  0  0  0  0  0  0
   -1.1311    1.3083   -0.0484 C   0  0  0  0  0  0  0  0  0  0  0  0
    0.9990    1.9134    0.3593 C   0  0  0  0  0  0  0  0  0  0  0  0
    3.4854    0.2231   -1.1763 C   0  0  0  0  0  0  0  0  0  0  0  0
   -1.0854   -1.0873    0.2505 C   0  0  0  0  0  0  0  0  0  0  0  0
   -2.4966    1.2907   -0.3543 C   0  0  0  0  0  0  0  0  0  0  0  0
   -2.4511   -1.1201   -0.0538 C   0  0  0  0  0  0  0  0  0  0  0  0
   -3.1439    0.0519   -0.3509 C   0  0  0  0  0  0  0  0  0  0  0  0
    2.7405    0.2036    1.5373 H   0  0  0  0  0  0  0  0  0  0  0  0
    1.6771   -1.1818    1.4623 H   0  0  0  0  0  0  0  0  0  0  0  0
    2.1795   -1.4673   -0.9827 H   0  0  0  0  0  0  0  0  0  0  0  0
    1.8219    2.6071    0.4618 H   0  0  0  0  0  0  0  0  0  0  0  0
   -0.4903    3.3300   -0.1477 H   0  0  0  0  0  0  0  0  0  0  0  0
    4.1118   -0.1923   -1.9745 H   0  0  0  0  0  0  0  0  0  0  0  0
    4.1140    0.8800   -0.5647 H   0  0  0  0  0  0  0  0  0  0  0  0
    2.7219    0.8354   -1.6658 H   0  0  0  0  0  0  0  0  0  0  0  0
   -0.5468   -2.0027    0.4807 H   0  0  0  0  0  0  0  0  0  0  0  0
   -3.0367    2.2026   -0.5860 H   0  0  0  0  0  0  0  0  0  0  0  0
    4.3984   -2.1928   -0.6866 H   0  0  0  0  0  0  0  0  0  0  0  0
    3.5211   -2.5599    0.6394 H   0  0  0  0  0  0  0  0  0  0  0  0
   -4.2056    0.0192   -0.5864 H   0  0  0  0  0  0  0  0  0  0  0  0
  1 13  1  0  0  0  0
  2  8  1  0  0  0  0
  2  9  1  0  0  0  0
  2 19  1  0  0  0  0
  3  6  1  0  0  0  0
  3 25  1  0  0  0  0
  3 26  1  0  0  0  0
  4  5  1  0  0  0  0
  4  6  1  0  0  0  0
  4 15  1  0  0  0  0
  4 16  1  0  0  0  0
  5  7  1  0  0  0  0
  5  9  2  0  0  0  0
  6 10  1  0  0  0  0
  6 17  1  0  0  0  0
  7  8  2  0  0  0  0
  7 11  1  0  0  0  0
  8 12  1  0  0  0  0
  9 18  1  0  0  0  0
 10 20  1  0  0  0  0
 10 21  1  0  0  0  0
 10 22  1  0  0  0  0
 11 13  2  0  0  0  0
 11 23  1  0  0  0  0
 12 14  2  0  0  0  0
 12 24  1  0  0  0  0
 13 14  1  0  0  0  0
 14 27  1  0  0  0  0
M  END
> <PUBCHEM_COMPOUND_CID>
12833

> <PUBCHEM_CONFORMER_RMSD>
0.6

> <PUBCHEM_CONFORMER_DIVERSEORDER>
1
10
11
9
4
5
8
7
3
6
2

> <PUBCHEM_MMFF94_PARTIAL_CHARGES>
19
1 -0.18
11 -0.15
12 -0.15
13 0.18
14 -0.15
18 0.15
19 0.27
2 0.03
23 0.15
24 0.15
25 0.36
26 0.36
27 0.15
3 -0.99
4 0.18
5 -0.18
6 0.27
8 -0.15
9 -0.3

> <PUBCHEM_EFFECTIVE_ROTOR_COUNT>
2

> <PUBCHEM_PHARMACOPHORE_FEATURES>
6
1 2 cation
1 2 donor
1 3 cation
1 3 donor
5 2 5 7 8 9 rings
6 7 8 11 12 13 14 rings

> <PUBCHEM_HEAVY_ATOM_COUNT>
14

> <PUBCHEM_ATOM_DEF_STEREO_COUNT>
0

> <PUBCHEM_ATOM_UDEF_STEREO_COUNT>
1

> <PUBCHEM_BOND_DEF_STEREO_COUNT>
0

> <PUBCHEM_BOND_UDEF_STEREO_COUNT>
0

> <PUBCHEM_ISOTOPIC_ATOM_COUNT>
0

> <PUBCHEM_COMPONENT_COUNT>
1

> <PUBCHEM_CACTVS_TAUTO_COUNT>
1

> <PUBCHEM_CONFORMER_ID>
0000322100000001

> <PUBCHEM_MMFF94_ENERGY>
13.7929

> <PUBCHEM_FEATURE_SELFOVERLAP>
30.538

> <PUBCHEM_SHAPE_FINGERPRINT>
10465860 71 18337658776697710172
11127187 94 18412828018622521727
11206711 2 18272099287821483293
11769659 78 18334860472181012039
12032990 46 18410575059294383771
13296908 3 18335425633915925386
13571099 52 11959737023312149302
14115302 16 18270961361795286772
14252887 29 17979917103824151659
14911166 2 18339935917013679005
161256 15 18194685864970061817
16945 1 18340218487006641865
17990270 104 18266747870023591001
18186145 218 15770051740093177574
20281407 28 18334574642165466170
20281475 54 18409162203679067962
20645476 183 17773318044056721019
20645477 70 17907029382987186919
20711983 138 18113623416745179105
20871998 22 18337394816339026651
20871999 31 18342174449319907031
21501502 16 18338230458272223021
22213442 358 18337108969159454996
22721475 48 18260264174408453110
23382010 3 17203042963756158754
23552423 10 18200879448492534185
23557571 272 18042124431192638480
23559900 14 18263934405237838938
2748010 2 18267319646361814649
5902787 121 18410865351743864906
6333272 397 9223228554993393447
7364860 26 18046347422609358961
81228 2 17461150234775153768
8809292 202 18412263947588002227

> <PUBCHEM_SHAPE_MULTIPOLES>
280.02
6.1
2.43
0.83
2.16
0.14
0.06
3.97
1.26
-0.96
-0.05
0.45
0
0.11

> <PUBCHEM_SHAPE_SELFOVERLAP>
588.902

> <PUBCHEM_SHAPE_VOLUME>
160.2

> <PUBCHEM_COORDINATE_TYPE>
2
5
10

$$$$

