582788
  -OEChem-06241222442D

 56 58  0     1  0  0  0  0  0999 V2000
    7.2566    0.3722    0.0000 O   0  0  0  0  0  0  0  0  0  0  0  0
    8.2816   -2.0670    0.0000 O   0  0  0  0  0  0  0  0  0  0  0  0
    5.5637    3.5556    0.0000 O   0  0  0  0  0  0  0  0  0  0  0  0
    7.9244   -0.3722    0.0000 O   0  0  0  0  0  0  0  0  0  0  0  0
    4.2746    2.3988    0.0000 O   0  0  0  0  0  0  0  0  0  0  0  0
    4.6783   -3.5508    0.0000 N   0  0  0  0  0  0  0  0  0  0  0  0
    6.6353   -1.5289    0.0000 N   0  0  0  0  0  0  0  0  0  0  0  0
    5.6103    0.9102    0.0000 N   0  0  0  0  0  0  0  0  0  0  0  0
    4.9889   -0.9908    0.0000 C   0  0  0  0  0  0  0  0  0  0  0  0
    5.9674   -0.7846    0.0000 C   0  0  3  0  0  0  0  0  0  0  0  0
    4.6783   -1.9413    0.0000 C   0  0  0  0  0  0  0  0  0  0  0  0
    3.7320   -2.2461    0.0000 C   0  0  0  0  0  0  0  0  0  0  0  0
    3.7320   -3.2461    0.0000 C   0  0  0  0  0  0  0  0  0  0  0  0
    5.2619   -2.7461    0.0000 C   0  0  0  0  0  0  0  0  0  0  0  0
    6.2781    0.1659    0.0000 C   0  0  0  0  0  0  0  0  0  0  0  0
    2.8660   -1.7461    0.0000 C   0  0  0  0  0  0  0  0  0  0  0  0
    5.9209    1.8608    0.0000 C   0  0  3  0  0  0  0  0  0  0  0  0
    2.8660   -3.7461    0.0000 C   0  0  0  0  0  0  0  0  0  0  0  0
    2.0000   -2.2461    0.0000 C   0  0  0  0  0  0  0  0  0  0  0  0
    2.0000   -3.2461    0.0000 C   0  0  0  0  0  0  0  0  0  0  0  0
    7.6138   -1.3227    0.0000 C   0  0  0  0  0  0  0  0  0  0  0  0
    6.8994    2.0670    0.0000 C   0  0  0  0  0  0  0  0  0  0  0  0
    5.2531    2.6051    0.0000 C   0  0  0  0  0  0  0  0  0  0  0  0
    9.2601   -1.8608    0.0000 C   0  0  0  0  0  0  0  0  0  0  0  0
    9.9280   -2.6051    0.0000 C   0  0  0  0  0  0  0  0  0  0  0  0
    9.6173   -3.5556    0.0000 C   0  0  0  0  0  0  0  0  0  0  0  0
   10.9065   -2.3988    0.0000 C   0  0  0  0  0  0  0  0  0  0  0  0
    4.8959    4.2999    0.0000 C   0  0  0  0  0  0  0  0  0  0  0  0
   10.2852   -4.2999    0.0000 C   0  0  0  0  0  0  0  0  0  0  0  0
   11.5743   -3.1431    0.0000 C   0  0  0  0  0  0  0  0  0  0  0  0
   11.2637   -4.0937    0.0000 C   0  0  0  0  0  0  0  0  0  0  0  0
    4.9684   -0.3711    0.0000 H   0  0  0  0  0  0  0  0  0  0  0  0
    4.3751   -0.9035    0.0000 H   0  0  0  0  0  0  0  0  0  0  0  0
    5.7748   -1.3739    0.0000 H   0  0  0  0  0  0  0  0  0  0  0  0
    5.8819   -2.7461    0.0000 H   0  0  0  0  0  0  0  0  0  0  0  0
    4.8709   -4.1401    0.0000 H   0  0  0  0  0  0  0  0  0  0  0  0
    6.4427   -2.1182    0.0000 H   0  0  0  0  0  0  0  0  0  0  0  0
    2.8660   -1.1261    0.0000 H   0  0  0  0  0  0  0  0  0  0  0  0
    5.0036    0.7824    0.0000 H   0  0  0  0  0  0  0  0  0  0  0  0
    5.3142    1.7329    0.0000 H   0  0  0  0  0  0  0  0  0  0  0  0
    2.8660   -4.3661    0.0000 H   0  0  0  0  0  0  0  0  0  0  0  0
    1.4631   -1.9361    0.0000 H   0  0  0  0  0  0  0  0  0  0  0  0
    1.4631   -3.5561    0.0000 H   0  0  0  0  0  0  0  0  0  0  0  0
    7.0273    1.4603    0.0000 H   0  0  0  0  0  0  0  0  0  0  0  0
    7.5061    2.1948    0.0000 H   0  0  0  0  0  0  0  0  0  0  0  0
    6.7716    2.6736    0.0000 H   0  0  0  0  0  0  0  0  0  0  0  0
    9.7865   -1.5331    0.0000 H   0  0  0  0  0  0  0  0  0  0  0  0
    9.0289   -1.2855    0.0000 H   0  0  0  0  0  0  0  0  0  0  0  0
    9.0106   -3.6834    0.0000 H   0  0  0  0  0  0  0  0  0  0  0  0
   11.0991   -1.8095    0.0000 H   0  0  0  0  0  0  0  0  0  0  0  0
    5.3574    4.7139    0.0000 H   0  0  0  0  0  0  0  0  0  0  0  0
    4.4818    4.7613    0.0000 H   0  0  0  0  0  0  0  0  0  0  0  0
    4.4344    3.8858    0.0000 H   0  0  0  0  0  0  0  0  0  0  0  0
   10.0926   -4.8892    0.0000 H   0  0  0  0  0  0  0  0  0  0  0  0
   12.1810   -3.0153    0.0000 H   0  0  0  0  0  0  0  0  0  0  0  0
   11.6777   -4.5551    0.0000 H   0  0  0  0  0  0  0  0  0  0  0  0
  1 15  2  0  0  0  0
  2 21  1  0  0  0  0
  2 24  1  0  0  0  0
  3 23  1  0  0  0  0
  3 28  1  0  0  0  0
  4 21  2  0  0  0  0
  5 23  2  0  0  0  0
  6 13  1  0  0  0  0
  6 14  1  0  0  0  0
  6 36  1  0  0  0  0
  7 10  1  0  0  0  0
  7 21  1  0  0  0  0
  7 37  1  0  0  0  0
  8 15  1  0  0  0  0
  8 17  1  0  0  0  0
  8 39  1  0  0  0  0
  9 10  1  0  0  0  0
  9 11  1  0  0  0  0
  9 32  1  0  0  0  0
  9 33  1  0  0  0  0
 10 15  1  0  0  0  0
 10 34  1  0  0  0  0
 11 12  1  0  0  0  0
 11 14  2  0  0  0  0
 12 13  1  0  0  0  0
 12 16  2  0  0  0  0
 13 18  2  0  0  0  0
 14 35  1  0  0  0  0
 16 19  1  0  0  0  0
 16 38  1  0  0  0  0
 17 22  1  0  0  0  0
 17 23  1  0  0  0  0
 17 40  1  0  0  0  0
 18 20  1  0  0  0  0
 18 41  1  0  0  0  0
 19 20  2  0  0  0  0
 19 42  1  0  0  0  0
 20 43  1  0  0  0  0
 22 44  1  0  0  0  0
 22 45  1  0  0  0  0
 22 46  1  0  0  0  0
 24 25  1  0  0  0  0
 24 47  1  0  0  0  0
 24 48  1  0  0  0  0
 25 26  2  0  0  0  0
 25 27  1  0  0  0  0
 26 29  1  0  0  0  0
 26 49  1  0  0  0  0
 27 30  2  0  0  0  0
 27 50  1  0  0  0  0
 28 51  1  0  0  0  0
 28 52  1  0  0  0  0
 28 53  1  0  0  0  0
 29 31  2  0  0  0  0
 29 54  1  0  0  0  0
 30 31  1  0  0  0  0
 30 55  1  0  0  0  0
 31 56  1  0  0  0  0
M  END
> <PUBCHEM_COMPOUND_CID>
582788

> <PUBCHEM_COMPOUND_CANONICALIZED>
1

> <PUBCHEM_CACTVS_COMPLEXITY>
622

> <PUBCHEM_CACTVS_HBOND_ACCEPTOR>
5

> <PUBCHEM_CACTVS_HBOND_DONOR>
3

> <PUBCHEM_CACTVS_ROTATABLE_BOND>
10

> <PUBCHEM_CACTVS_SUBSKEYS>
AAADceB7OAAAAAAAAAAAAAAAAAAAAWAAAAAwYAAAAAAAAFgB9AAAHgAQAAAADCjhngY+yPLJlACoAzX3XACCgCAxAiAI2aG4bJkKZvLAsbmdMAhk1gHY6AeYyeCOgAAAAAACAAAAAAAAAAQAAAAAAAAAAA==

> <PUBCHEM_IUPAC_OPENEYE_NAME>
methyl 2-[[2-(benzyloxycarbonylamino)-3-(1H-indol-3-yl)propanoyl]amino]propanoate

> <PUBCHEM_IUPAC_CAS_NAME>
2-[[3-(1H-indol-3-yl)-1-oxo-2-(phenylmethoxycarbonylamino)propyl]amino]propanoic acid methyl ester

> <PUBCHEM_IUPAC_NAME>
methyl 2-[[3-(1H-indol-3-yl)-2-(phenylmethoxycarbonylamino)propanoyl]amino]propanoate

> <PUBCHEM_IUPAC_SYSTEMATIC_NAME>
methyl 2-[[3-(1H-indol-3-yl)-2-(phenylmethoxycarbonylamino)propanoyl]amino]propanoate

> <PUBCHEM_IUPAC_TRADITIONAL_NAME>
2-[[2-(benzyloxycarbonylamino)-3-(1H-indol-3-yl)propanoyl]amino]propionic acid methyl ester

> <PUBCHEM_IUPAC_INCHI>
InChI=1S/C23H25N3O5/c1-15(22(28)30-2)25-21(27)20(12-17-13-24-19-11-7-6-10-18(17)19)26-23(29)31-14-16-8-4-3-5-9-16/h3-11,13,15,20,24H,12,14H2,1-2H3,(H,25,27)(H,26,29)

> <PUBCHEM_IUPAC_INCHIKEY>
AHYPDFXHKZEJDR-UHFFFAOYSA-N

> <PUBCHEM_XLOGP3>
2.4

> <PUBCHEM_EXACT_MASS>
423.179421

> <PUBCHEM_MOLECULAR_FORMULA>
C23H25N3O5

> <PUBCHEM_MOLECULAR_WEIGHT>
423.4617

> <PUBCHEM_OPENEYE_CAN_SMILES>
CC(C(=O)OC)NC(=O)C(CC1=CNC2=CC=CC=C21)NC(=O)OCC3=CC=CC=C3

> <PUBCHEM_OPENEYE_ISO_SMILES>
CC(C(=O)OC)NC(=O)C(CC1=CNC2=CC=CC=C21)NC(=O)OCC3=CC=CC=C3

> <PUBCHEM_CACTVS_TPSA>
110

> <PUBCHEM_MONOISOTOPIC_WEIGHT>
423.179421

> <PUBCHEM_TOTAL_CHARGE>
0

> <PUBCHEM_HEAVY_ATOM_COUNT>
31

> <PUBCHEM_ATOM_DEF_STEREO_COUNT>
0

> <PUBCHEM_ATOM_UDEF_STEREO_COUNT>
2

> <PUBCHEM_BOND_DEF_STEREO_COUNT>
0

> <PUBCHEM_BOND_UDEF_STEREO_COUNT>
0

> <PUBCHEM_ISOTOPIC_ATOM_COUNT>
0

> <PUBCHEM_COMPONENT_COUNT>
1

> <PUBCHEM_CACTVS_TAUTO_COUNT>
4

> <PUBCHEM_COORDINATE_TYPE>
1
5
255

> <PUBCHEM_BONDANNOTATIONS>
11  12  8
11  14  8
12  13  8
12  16  8
13  18  8
16  19  8
17  22  3
18  20  8
19  20  8
25  26  8
25  27  8
26  29  8
27  30  8
29  31  8
30  31  8
6  13  8
6  14  8
10  9  3

$$$$

