11953853
  -OEChem-07051212503D

 39 42  0     1  0  0  0  0  0999 V2000
   -0.0372    1.3805    0.3982 N   0  3  1  0  0  0  0  0  0  0  0  0
    0.3961   -0.0632    0.7474 C   0  0  1  0  0  0  0  0  0  0  0  0
    0.2864    1.6693   -1.0726 C   0  0  0  0  0  0  0  0  0  0  0  0
   -1.5460    1.5675    0.6768 C   0  0  0  0  0  0  0  0  0  0  0  0
   -0.4899   -1.1064    0.0241 C   0  0  0  0  0  0  0  0  0  0  0  0
    1.8409   -0.3492    0.3856 C   0  0  0  0  0  0  0  0  0  0  0  0
    1.7786    1.4968   -1.3669 C   0  0  0  0  0  0  0  0  0  0  0  0
    0.6849    2.3972    1.3075 C   0  0  0  0  0  0  0  0  0  0  0  0
   -2.4557    0.4669    0.2222 C   0  0  0  0  0  0  0  0  0  0  0  0
    2.4641    0.3523   -0.6622 C   0  0  0  0  0  0  0  0  0  0  0  0
   -1.9623   -0.8164   -0.0265 C   0  0  0  0  0  0  0  0  0  0  0  0
    2.5428   -1.3616    1.0571 C   0  0  0  0  0  0  0  0  0  0  0  0
   -3.8339    0.7101    0.1227 C   0  0  0  0  0  0  0  0  0  0  0  0
    3.7846    0.0323   -1.0108 C   0  0  0  0  0  0  0  0  0  0  0  0
   -2.8511   -1.8349   -0.4048 C   0  0  0  0  0  0  0  0  0  0  0  0
    3.8532   -1.6719    0.6968 C   0  0  0  0  0  0  0  0  0  0  0  0
    4.4731   -0.9767   -0.3376 C   0  0  0  0  0  0  0  0  0  0  0  0
   -4.7104   -0.3094   -0.2461 C   0  0  0  0  0  0  0  0  0  0  0  0
   -4.2183   -1.5834   -0.5110 C   0  0  0  0  0  0  0  0  0  0  0  0
    0.2553   -0.1493    1.8334 H   0  0  0  0  0  0  0  0  0  0  0  0
   -0.0383    2.6921   -1.2965 H   0  0  0  0  0  0  0  0  0  0  0  0
   -0.3090    0.9854   -1.6862 H   0  0  0  0  0  0  0  0  0  0  0  0
   -1.8295    2.5230    0.2192 H   0  0  0  0  0  0  0  0  0  0  0  0
   -1.6564    1.6555    1.7651 H   0  0  0  0  0  0  0  0  0  0  0  0
   -0.3434   -2.0773    0.5178 H   0  0  0  0  0  0  0  0  0  0  0  0
   -0.1518   -1.2406   -1.0132 H   0  0  0  0  0  0  0  0  0  0  0  0
    2.3024    2.4216   -1.0925 H   0  0  0  0  0  0  0  0  0  0  0  0
    1.9012    1.3791   -2.4508 H   0  0  0  0  0  0  0  0  0  0  0  0
    0.3476    3.3999    1.0287 H   0  0  0  0  0  0  0  0  0  0  0  0
    0.4215    2.1779    2.3467 H   0  0  0  0  0  0  0  0  0  0  0  0
    1.7656    2.3118    1.1817 H   0  0  0  0  0  0  0  0  0  0  0  0
    2.0669   -1.9185    1.8604 H   0  0  0  0  0  0  0  0  0  0  0  0
   -4.2318    1.6993    0.3364 H   0  0  0  0  0  0  0  0  0  0  0  0
    4.2872    0.5760   -1.8073 H   0  0  0  0  0  0  0  0  0  0  0  0
   -2.4780   -2.8328   -0.6231 H   0  0  0  0  0  0  0  0  0  0  0  0
    4.3889   -2.4576    1.2214 H   0  0  0  0  0  0  0  0  0  0  0  0
    5.4948   -1.2161   -0.6174 H   0  0  0  0  0  0  0  0  0  0  0  0
   -5.7750   -0.1096   -0.3238 H   0  0  0  0  0  0  0  0  0  0  0  0
   -4.8968   -2.3798   -0.8016 H   0  0  0  0  0  0  0  0  0  0  0  0
  1  2  1  0  0  0  0
  1  3  1  0  0  0  0
  1  4  1  0  0  0  0
  1  8  1  0  0  0  0
  2  5  1  0  0  0  0
  2  6  1  0  0  0  0
  2 20  1  0  0  0  0
  3  7  1  0  0  0  0
  3 21  1  0  0  0  0
  3 22  1  0  0  0  0
  4  9  1  0  0  0  0
  4 23  1  0  0  0  0
  4 24  1  0  0  0  0
  5 11  1  0  0  0  0
  5 25  1  0  0  0  0
  5 26  1  0  0  0  0
  6 10  1  0  0  0  0
  6 12  2  0  0  0  0
  7 10  1  0  0  0  0
  7 27  1  0  0  0  0
  7 28  1  0  0  0  0
  8 29  1  0  0  0  0
  8 30  1  0  0  0  0
  8 31  1  0  0  0  0
  9 11  1  0  0  0  0
  9 13  2  0  0  0  0
 10 14  2  0  0  0  0
 11 15  2  0  0  0  0
 12 16  1  0  0  0  0
 12 32  1  0  0  0  0
 13 18  1  0  0  0  0
 13 33  1  0  0  0  0
 14 17  1  0  0  0  0
 14 34  1  0  0  0  0
 15 19  1  0  0  0  0
 15 35  1  0  0  0  0
 16 17  2  0  0  0  0
 16 36  1  0  0  0  0
 17 37  1  0  0  0  0
 18 19  2  0  0  0  0
 18 38  1  0  0  0  0
 19 39  1  0  0  0  0
M  CHG  1   1   1
M  END
> <PUBCHEM_COMPOUND_CID>
11953853

> <PUBCHEM_CONFORMER_RMSD>
0.6

> <PUBCHEM_CONFORMER_DIVERSEORDER>
2
1
3

> <PUBCHEM_MMFF94_PARTIAL_CHARGES>
27
1 -1.01
10 -0.14
11 -0.14
12 -0.15
13 -0.15
14 -0.15
15 -0.15
16 -0.15
17 -0.15
18 -0.15
19 -0.15
2 0.65
3 0.5
32 0.15
33 0.15
34 0.15
35 0.15
36 0.15
37 0.15
38 0.15
39 0.15
4 0.65
5 0.14
6 -0.14
7 0.14
8 0.5
9 -0.14

> <PUBCHEM_EFFECTIVE_ROTOR_COUNT>
0.8

> <PUBCHEM_PHARMACOPHORE_FEATURES>
5
1 1 cation
6 1 2 3 6 7 10 rings
6 1 2 4 5 9 11 rings
6 6 10 12 14 16 17 rings
6 9 11 13 15 18 19 rings

> <PUBCHEM_HEAVY_ATOM_COUNT>
19

> <PUBCHEM_ATOM_DEF_STEREO_COUNT>
2

> <PUBCHEM_ATOM_UDEF_STEREO_COUNT>
0

> <PUBCHEM_BOND_DEF_STEREO_COUNT>
0

> <PUBCHEM_BOND_UDEF_STEREO_COUNT>
0

> <PUBCHEM_ISOTOPIC_ATOM_COUNT>
0

> <PUBCHEM_COMPONENT_COUNT>
1

> <PUBCHEM_CACTVS_TAUTO_COUNT>
1

> <PUBCHEM_CONFORMER_ID>
00B666BD00000002

> <PUBCHEM_MMFF94_ENERGY>
64.7997

> <PUBCHEM_FEATURE_SELFOVERLAP>
25.467

> <PUBCHEM_SHAPE_FINGERPRINT>
10062212 137 18408886231098951351
10948715 1 9511455632784119796
11046707 91 18335421291698727283
11471102 20 17775564234822478870
11578080 2 18198366059422630036
11806522 49 18411139108717150368
12236239 1 18343299301555403018
12553582 1 18407762538588969123
12788726 201 18262785380446638760
13140716 1 18261109630763635369
13288520 33 18188206606567726798
13583140 156 16516543259707128658
14115302 16 18412822465234985077
14289901 80 15574716897695373731
14576447 43 18343582919541621766
14787075 74 18263363586704222096
15196674 1 18409730638622113831
15375462 189 18412536622002306009
15536298 74 18262522489634915440
16752209 62 18336273439396704515
16945 1 18189052156293993752
17804303 29 18333453140568742307
1798214 20 18343585144139437350
1813 80 18129935801488686990
18186145 218 15554444097933638825
18915474 69 18412543193323646958
19862831 5 18131913758213436315
200 152 18201437008388502178
20291156 8 18411982468168364774
20369508 70 18188215299402107801
21033648 29 15719400584965108387
21250096 35 18335140899038048366
21267235 1 18412535531123245739
21634736 98 18341046311650512158
22112679 90 18263061331968780240
221490 88 18127403454416501563
2255824 54 18201436909482811740
22646028 28 18410856564003614511
22854114 59 5328741859535215310
232386 152 18260548913618331077
23366157 5 18196660596417498352
23402539 116 18335987553098333782
23557571 272 17531518909990351056
23559900 14 18114180848151038392
2637199 183 8790883021247016546
296302 2 6699807583842713271
3004659 81 18342457075553795558
3286 77 18261398797842292949
335352 9 18334859450611811573
350125 39 18412262870374163013
465052 167 18189610554310568911
474 4 17630318645735497836
5104073 3 18260827047690903803
633830 44 15985101907855336997
7364860 26 18043816385539011960
77492 1 18271234019404553120
9709674 26 18119537527041418051
9981440 41 17333929755429378312

> <PUBCHEM_SHAPE_MULTIPOLES>
386.03
8.3
2.16
1.13
2.18
0.48
0.03
-4.24
1.25
-0.02
-0.26
-0.67
0.36
-0.95

> <PUBCHEM_SHAPE_SELFOVERLAP>
846.32

> <PUBCHEM_SHAPE_VOLUME>
207.4

> <PUBCHEM_COORDINATE_TYPE>
2
5
10

$$$$

