443726
  -OEChem-07051213033D

 45 48  0     1  0  0  0  0  0999 V2000
    1.2282   -0.6248    2.1659 O   0  0  0  0  0  0  0  0  0  0  0  0
    3.4316   -1.2236   -0.6306 O   0  0  0  0  0  0  0  0  0  0  0  0
   -5.0812   -0.4165    0.1730 O   0  0  0  0  0  0  0  0  0  0  0  0
   -3.4580   -2.6562    0.3988 O   0  0  0  0  0  0  0  0  0  0  0  0
    3.2230   -3.2534    0.4524 O   0  0  0  0  0  0  0  0  0  0  0  0
    0.2422    2.5003   -0.5539 N   0  0  2  0  0  0  0  0  0  0  0  0
    0.9292    1.5734    0.3419 C   0  0  1  0  0  0  0  0  0  0  0  0
    0.5824    0.1373   -0.0477 C   0  0  1  0  0  0  0  0  0  0  0  0
    2.3624    1.9051    0.1499 C   0  0  0  0  0  0  0  0  0  0  0  0
    1.5006   -0.7991    0.7747 C   0  0  1  0  0  0  0  0  0  0  0  0
    0.9665    3.7631   -0.3754 C   0  0  0  0  0  0  0  0  0  0  0  0
    2.4491    3.3346   -0.2943 C   0  0  0  0  0  0  0  0  0  0  0  0
   -0.9280   -0.0263    0.0572 C   0  0  0  0  0  0  0  0  0  0  0  0
   -1.1828    2.5215   -0.2310 C   0  0  0  0  0  0  0  0  0  0  0  0
    3.0019   -0.4793    0.5113 C   0  0  2  0  0  0  0  0  0  0  0  0
    3.3190    0.9719    0.2209 C   0  0  0  0  0  0  0  0  0  0  0  0
   -1.7636    1.1161   -0.0875 C   0  0  0  0  0  0  0  0  0  0  0  0
   -1.5200   -1.2872    0.2054 C   0  0  0  0  0  0  0  0  0  0  0  0
   -3.1566    0.9670   -0.0358 C   0  0  0  0  0  0  0  0  0  0  0  0
   -2.9094   -1.4177    0.2474 C   0  0  0  0  0  0  0  0  0  0  0  0
   -3.7249   -0.2946    0.1301 C   0  0  0  0  0  0  0  0  0  0  0  0
    3.2300   -2.5709   -0.5631 C   0  0  0  0  0  0  0  0  0  0  0  0
    3.0112   -3.1156   -1.9420 C   0  0  0  0  0  0  0  0  0  0  0  0
   -5.7526   -0.6253   -1.0678 C   0  0  0  0  0  0  0  0  0  0  0  0
    0.6666    1.7849    1.3912 H   0  0  0  0  0  0  0  0  0  0  0  0
    0.8195   -0.0290   -1.1107 H   0  0  0  0  0  0  0  0  0  0  0  0
    1.2490   -1.8357    0.5470 H   0  0  0  0  0  0  0  0  0  0  0  0
    0.6792    4.2673    0.5567 H   0  0  0  0  0  0  0  0  0  0  0  0
    0.7950    4.4522   -1.2082 H   0  0  0  0  0  0  0  0  0  0  0  0
    2.9951    3.9543    0.4227 H   0  0  0  0  0  0  0  0  0  0  0  0
    2.9221    3.3982   -1.2801 H   0  0  0  0  0  0  0  0  0  0  0  0
   -1.7163    3.0494   -1.0299 H   0  0  0  0  0  0  0  0  0  0  0  0
   -1.3651    3.0525    0.7125 H   0  0  0  0  0  0  0  0  0  0  0  0
    3.6083   -0.7806    1.3755 H   0  0  0  0  0  0  0  0  0  0  0  0
    4.3513    1.2381    0.0136 H   0  0  0  0  0  0  0  0  0  0  0  0
   -0.9025   -2.1777    0.2790 H   0  0  0  0  0  0  0  0  0  0  0  0
   -3.7991    1.8403   -0.1235 H   0  0  0  0  0  0  0  0  0  0  0  0
    0.3048   -0.8818    2.3258 H   0  0  0  0  0  0  0  0  0  0  0  0
   -2.7449   -3.3145    0.4631 H   0  0  0  0  0  0  0  0  0  0  0  0
    3.8923   -2.9258   -2.5601 H   0  0  0  0  0  0  0  0  0  0  0  0
    2.1234   -2.6562   -2.3843 H   0  0  0  0  0  0  0  0  0  0  0  0
    2.8521   -4.1962   -1.8840 H   0  0  0  0  0  0  0  0  0  0  0  0
   -5.5895    0.2236   -1.7394 H   0  0  0  0  0  0  0  0  0  0  0  0
   -6.8241   -0.7116   -0.8673 H   0  0  0  0  0  0  0  0  0  0  0  0
   -5.4095   -1.5506   -1.5414 H   0  0  0  0  0  0  0  0  0  0  0  0
  1 10  1  0  0  0  0
  1 38  1  0  0  0  0
  2 15  1  0  0  0  0
  2 22  1  0  0  0  0
  3 21  1  0  0  0  0
  3 24  1  0  0  0  0
  4 20  1  0  0  0  0
  4 39  1  0  0  0  0
  5 22  2  0  0  0  0
  6  7  1  0  0  0  0
  6 11  1  0  0  0  0
  6 14  1  0  0  0  0
  7  8  1  0  0  0  0
  7  9  1  0  0  0  0
  7 25  1  0  0  0  0
  8 10  1  0  0  0  0
  8 13  1  0  0  0  0
  8 26  1  0  0  0  0
  9 12  1  0  0  0  0
  9 16  2  0  0  0  0
 10 15  1  0  0  0  0
 10 27  1  0  0  0  0
 11 12  1  0  0  0  0
 11 28  1  0  0  0  0
 11 29  1  0  0  0  0
 12 30  1  0  0  0  0
 12 31  1  0  0  0  0
 13 17  1  0  0  0  0
 13 18  2  0  0  0  0
 14 17  1  0  0  0  0
 14 32  1  0  0  0  0
 14 33  1  0  0  0  0
 15 16  1  0  0  0  0
 15 34  1  0  0  0  0
 16 35  1  0  0  0  0
 17 19  2  0  0  0  0
 18 20  1  0  0  0  0
 18 36  1  0  0  0  0
 19 21  1  0  0  0  0
 19 37  1  0  0  0  0
 20 21  2  0  0  0  0
 22 23  1  0  0  0  0
 23 40  1  0  0  0  0
 23 41  1  0  0  0  0
 23 42  1  0  0  0  0
 24 43  1  0  0  0  0
 24 44  1  0  0  0  0
 24 45  1  0  0  0  0
M  END
> <PUBCHEM_COMPOUND_CID>
443726

> <PUBCHEM_CONFORMER_RMSD>
0.8

> <PUBCHEM_CONFORMER_DIVERSEORDER>
1
2
3

> <PUBCHEM_MMFF94_PARTIAL_CHARGES>
29
1 -0.68
10 0.28
11 0.27
12 0.14
13 -0.14
14 0.41
15 0.42
16 -0.29
17 -0.14
18 -0.15
19 -0.15
2 -0.43
20 0.08
21 0.08
22 0.66
23 0.06
24 0.28
3 -0.36
35 0.15
36 0.15
37 0.15
38 0.4
39 0.45
4 -0.53
5 -0.57
6 -0.81
7 0.41
8 0.14
9 -0.28

> <PUBCHEM_EFFECTIVE_ROTOR_COUNT>
4

> <PUBCHEM_PHARMACOPHORE_FEATURES>
10
1 1 acceptor
1 1 donor
1 3 acceptor
1 4 donor
1 5 acceptor
1 6 cation
5 6 7 9 11 12 rings
6 13 17 18 19 20 21 rings
6 6 7 8 13 14 17 rings
6 7 8 9 10 15 16 rings

> <PUBCHEM_HEAVY_ATOM_COUNT>
24

> <PUBCHEM_ATOM_DEF_STEREO_COUNT>
4

> <PUBCHEM_ATOM_UDEF_STEREO_COUNT>
0

> <PUBCHEM_BOND_DEF_STEREO_COUNT>
0

> <PUBCHEM_BOND_UDEF_STEREO_COUNT>
0

> <PUBCHEM_ISOTOPIC_ATOM_COUNT>
0

> <PUBCHEM_COMPONENT_COUNT>
1

> <PUBCHEM_CACTVS_TAUTO_COUNT>
9

> <PUBCHEM_CONFORMER_ID>
0006C54E00000001

> <PUBCHEM_MMFF94_ENERGY>
77.5492

> <PUBCHEM_FEATURE_SELFOVERLAP>
50.961

> <PUBCHEM_SHAPE_FINGERPRINT>
10411042 1 18267869565110445730
10616163 171 17907575831185211203
10906281 52 18200298932518816712
10967382 1 18340770329879340496
116883 192 18337670931196668660
12553582 1 18197216060216263171
12788726 201 17910378813101051770
13009979 54 17823402963249488545
13140716 1 18050577244110419288
13533116 47 18187646869608402707
138480 1 18411699885412143908
14223421 5 18341615850205383485
14790565 3 17692805995681064893
14863182 85 17838606769382984597
14866123 147 17543346511268223161
15196674 1 18126287433103296609
15420108 30 17831038831366454384
15442244 35 18410008870851452705
15475509 8 18119519093279017589
15536298 74 18339081467350478545
15635459 17 18413108350874096248
15848702 151 18408885148635012029
16945 1 18411413982271611480
17492 89 18338515214847242579
17818456 19 17604979494188164489
1813 80 18263074577621365366
18681886 176 17836368142657009048
19591789 44 16824173629088005160
20600515 1 17765188293825926416
20645477 70 18341337674042910229
21267235 1 18341326708748810513
21279426 13 18269281321651789245
21285901 2 18130517370141303869
221490 88 18270674255989844003
22182313 1 18270419268193044461
23557571 272 18046913951114413762
23559900 14 18338239262770368785
23566358 2 18342747337653837924
2748010 2 18195825161117563244
3060560 45 18263075514641459444
314173 41 18411411838929839494
335352 9 18342182120247672157
34934 24 18194972842084884109
38695281 34 18049159960890262260
4280585 95 18339643468517151430
5104073 3 18126568916849310297
6443956 14 18413387626896220756
7364860 26 18338515227341325568
8272917 22 18338231549030262621
9709674 26 18412262809775044595

> <PUBCHEM_SHAPE_MULTIPOLES>
459.58
8.32
4.22
1.08
10.2
0.8
0
-5.02
1.5
-4.38
1.21
-0.54
-0.66
0.74

> <PUBCHEM_SHAPE_SELFOVERLAP>
1004.173

> <PUBCHEM_SHAPE_VOLUME>
250.2

> <PUBCHEM_COORDINATE_TYPE>
2
5
10

$$$$

