171161
  -OEChem-07051212503D

 35 35  0     0  0  0  0  0  0999 V2000
   -3.0315    2.7214   -0.2238 O   0  0  0  0  0  0  0  0  0  0  0  0
    1.0067   -0.9926    1.9449 O   0  0  0  0  0  0  0  0  0  0  0  0
    4.1368    1.6442   -1.3044 O   0  0  0  0  0  0  0  0  0  0  0  0
   -2.2115   -3.7313   -0.7761 O   0  0  0  0  0  0  0  0  0  0  0  0
    3.5080   -0.0247    0.1933 N   0  0  0  0  0  0  0  0  0  0  0  0
   -0.6620   -2.2724    0.2584 N   0  0  0  0  0  0  0  0  0  0  0  0
    1.6685    1.2205    1.2452 C   0  0  0  0  0  0  0  0  0  0  0  0
   -0.6071    0.1252    0.6530 C   0  0  0  0  0  0  0  0  0  0  0  0
    3.1398    0.8228    1.2954 C   0  0  0  0  0  0  0  0  0  0  0  0
    0.6883    0.0344    1.3151 C   0  0  0  0  0  0  0  0  0  0  0  0
   -1.2447   -1.0071    0.1461 C   0  0  0  0  0  0  0  0  0  0  0  0
   -1.2076    1.3781    0.5289 C   0  0  0  0  0  0  0  0  0  0  0  0
   -2.4456    1.4987   -0.1021 C   0  0  0  0  0  0  0  0  0  0  0  0
   -2.4828   -0.8866   -0.4849 C   0  0  0  0  0  0  0  0  0  0  0  0
   -3.0832    0.3664   -0.6091 C   0  0  0  0  0  0  0  0  0  0  0  0
    3.9777    0.4600   -1.0197 C   0  0  0  0  0  0  0  0  0  0  0  0
    4.3128   -0.6418   -1.9890 C   0  0  0  0  0  0  0  0  0  0  0  0
   -1.1657   -3.4877   -0.1909 C   0  0  0  0  0  0  0  0  0  0  0  0
   -4.2971    2.7723   -0.8804 C   0  0  0  0  0  0  0  0  0  0  0  0
    1.4424    1.8842    2.0873 H   0  0  0  0  0  0  0  0  0  0  0  0
    1.4932    1.7713    0.3135 H   0  0  0  0  0  0  0  0  0  0  0  0
    3.3596    0.2699    2.2146 H   0  0  0  0  0  0  0  0  0  0  0  0
    3.7661    1.7214    1.2821 H   0  0  0  0  0  0  0  0  0  0  0  0
   -0.7419    2.2744    0.9300 H   0  0  0  0  0  0  0  0  0  0  0  0
   -3.0379   -1.7149   -0.9023 H   0  0  0  0  0  0  0  0  0  0  0  0
    3.4142   -1.0286    0.3188 H   0  0  0  0  0  0  0  0  0  0  0  0
   -4.0450    0.3897   -1.1102 H   0  0  0  0  0  0  0  0  0  0  0  0
    0.2424   -2.3176    0.7195 H   0  0  0  0  0  0  0  0  0  0  0  0
    4.4558   -0.2220   -2.9885 H   0  0  0  0  0  0  0  0  0  0  0  0
    5.2333   -1.1388   -1.6711 H   0  0  0  0  0  0  0  0  0  0  0  0
    3.4994   -1.3720   -2.0298 H   0  0  0  0  0  0  0  0  0  0  0  0
   -0.4550   -4.2948    0.0568 H   0  0  0  0  0  0  0  0  0  0  0  0
   -5.0593    2.2110   -0.3293 H   0  0  0  0  0  0  0  0  0  0  0  0
   -4.2213    2.4537   -1.9256 H   0  0  0  0  0  0  0  0  0  0  0  0
   -4.6152    3.8200   -0.8882 H   0  0  0  0  0  0  0  0  0  0  0  0
  1 13  1  0  0  0  0
  1 19  1  0  0  0  0
  2 10  2  0  0  0  0
  3 16  2  0  0  0  0
  4 18  2  0  0  0  0
  5  9  1  0  0  0  0
  5 16  1  0  0  0  0
  5 26  1  0  0  0  0
  6 11  1  0  0  0  0
  6 18  1  0  0  0  0
  6 28  1  0  0  0  0
  7  9  1  0  0  0  0
  7 10  1  0  0  0  0
  7 20  1  0  0  0  0
  7 21  1  0  0  0  0
  8 10  1  0  0  0  0
  8 11  2  0  0  0  0
  8 12  1  0  0  0  0
  9 22  1  0  0  0  0
  9 23  1  0  0  0  0
 11 14  1  0  0  0  0
 12 13  2  0  0  0  0
 12 24  1  0  0  0  0
 13 15  1  0  0  0  0
 14 15  2  0  0  0  0
 14 25  1  0  0  0  0
 15 27  1  0  0  0  0
 16 17  1  0  0  0  0
 17 29  1  0  0  0  0
 17 30  1  0  0  0  0
 17 31  1  0  0  0  0
 18 32  1  0  0  0  0
 19 33  1  0  0  0  0
 19 34  1  0  0  0  0
 19 35  1  0  0  0  0
M  END
> <PUBCHEM_COMPOUND_CID>
171161

> <PUBCHEM_CONFORMER_RMSD>
0.8

> <PUBCHEM_CONFORMER_DIVERSEORDER>
1
74
160
53
234
181
114
152
212
237
216
200
195
61
101
97
231
98
141
86
203
133
210
120
169
77
144
180
25
248
124
221
137
230
246
168
201
94
175
236
81
191
134
179
249
131
227
202
232
173
104
165
24
170
75
138
166
162
158
72
245
244
125
96
80
76
218
111
220
183
95
207
8
100
213
67
130
235
90
177
157
190
197
117
28
209
115
215
224
62
105
204
159
70
239
178
154
146
193
126
205
112
187
238
184
132
22
240
87
102
242
186
83
7
139
85
150
19
156
208
64
34
143
161
63
135
163
147
59
229
185
71
13
123
91
164
171
107
194
247
36
151
66
233
192
128
118
65
199
89
241
3
69
217
108
198
226
129
6
73
222
243
46
58
49
84
106
26
50
223
122
127
33
148
121
99
4
153
9
41
119
5
167
10
219
23
56
21
142
37
82
172
155
228
20
88
149
176
14
214
145
68
38
18
174
109
55
189
79
42
16
188
116
48
110
113
211
182
43
40
196
2
30
225
140
32
54
206
31
92
103
93
17
78
60
11
136
47
51
12
35
44
57
27
52
15
39
45
29

> <PUBCHEM_MMFF94_PARTIAL_CHARGES>
25
1 -0.36
10 0.42
11 0.12
12 -0.15
13 0.08
14 -0.15
15 -0.15
16 0.57
17 0.06
18 0.57
19 0.28
2 -0.57
24 0.15
25 0.15
26 0.37
27 0.15
28 0.37
3 -0.57
32 0.06
4 -0.57
5 -0.73
6 -0.55
7 0.06
8 0.09
9 0.3

> <PUBCHEM_EFFECTIVE_ROTOR_COUNT>
8

> <PUBCHEM_PHARMACOPHORE_FEATURES>
7
1 1 acceptor
1 2 acceptor
1 3 acceptor
1 4 acceptor
1 5 donor
1 6 donor
6 8 11 12 13 14 15 rings

> <PUBCHEM_HEAVY_ATOM_COUNT>
19

> <PUBCHEM_ATOM_DEF_STEREO_COUNT>
0

> <PUBCHEM_ATOM_UDEF_STEREO_COUNT>
0

> <PUBCHEM_BOND_DEF_STEREO_COUNT>
0

> <PUBCHEM_BOND_UDEF_STEREO_COUNT>
0

> <PUBCHEM_ISOTOPIC_ATOM_COUNT>
0

> <PUBCHEM_COMPONENT_COUNT>
1

> <PUBCHEM_CACTVS_TAUTO_COUNT>
14

> <PUBCHEM_CONFORMER_ID>
00029C9900000001

> <PUBCHEM_MMFF94_ENERGY>
55.3875

> <PUBCHEM_FEATURE_SELFOVERLAP>
35.52

> <PUBCHEM_SHAPE_FINGERPRINT>
10764073 3 16740241047825556795
107951 10 18335414707788416663
10803635 8 18337940282187617334
12173636 292 18338814384845970173
12186901 62 18410849967118340793
12788726 201 18056763117739437882
14251764 38 17769084654351539924
15342168 16 16415185819297938860
15475509 35 6192262090392449373
15475509 8 18045500821022722071
15502708 8 18338234838927875010
15664445 248 17185866195549317093
16752209 62 18338533966557593987
16945 1 18122091761176948483
1813 80 17761485898751514011
18186145 218 18041000669398989264
20626108 58 5689010025662665481
20645476 183 18343023319388137907
20645477 70 16443345343478663916
20693207 138 17823409410311812868
20871999 31 18335137561859119460
21285901 2 17825673248544815591
21524375 3 18128550429738259449
21756936 100 17274524474242416516
22620623 9 18188772730206723815
22802520 49 17969789566259866994
22907989 373 18264201418189187317
23366157 5 17695356158930922547
23526113 38 17386578959407948306
23557571 272 18047761390552210680
23559900 14 18113620097658748848
312425 83 18269252639744057988
33382 64 14636303442206354813
3729539 64 17829028146378940694
458136 41 18119808273353360305
49207404 50 12463570673425583268
5161694 15 18187641436111010284
6049 1 17896878760041927192
7399639 24 17320714764261912984
81228 2 18050296864487292099
88987 49 18338814324869279232
9709674 26 18041569022753240096

> <PUBCHEM_SHAPE_MULTIPOLES>
357.57
7.79
3.49
1.54
5.63
3.22
0
-4.88
4.59
-4.35
0.83
1.82
-0.14
0.47

> <PUBCHEM_SHAPE_SELFOVERLAP>
733.069

> <PUBCHEM_SHAPE_VOLUME>
203.6

> <PUBCHEM_COORDINATE_TYPE>
2
5
10

$$$$

