442209
  -OEChem-07051212573D

 37 39  0     1  0  0  0  0  0999 V2000
    2.1474    1.4053   -0.4411 O   0  0  0  0  0  0  0  0  0  0  0  0
    3.9959    0.4356   -1.4146 O   0  0  0  0  0  0  0  0  0  0  0  0
   -1.2161   -0.5019    0.3452 C   0  0  1  0  0  0  0  0  0  0  0  0
   -2.2057   -0.9541   -0.7923 C   0  0  2  0  0  0  0  0  0  0  0  0
    0.1992   -1.0625    0.0059 C   0  0  0  0  0  0  0  0  0  0  0  0
   -1.1734    1.0292    0.4144 C   0  0  0  0  0  0  0  0  0  0  0  0
    1.3243   -0.4160    0.8234 C   0  0  2  0  0  0  0  0  0  0  0  0
   -3.5608   -0.2246   -0.7397 C   0  0  0  0  0  0  0  0  0  0  0  0
    1.3239    1.0989    0.6985 C   0  0  2  0  0  0  0  0  0  0  0  0
   -2.4968    1.7554    0.3857 C   0  0  0  0  0  0  0  0  0  0  0  0
   -3.3761    1.2877   -0.7648 C   0  0  0  0  0  0  0  0  0  0  0  0
   -1.6502   -1.0329    1.7299 C   0  0  0  0  0  0  0  0  0  0  0  0
   -0.0248    1.7209    0.5265 C   0  0  0  0  0  0  0  0  0  0  0  0
   -2.4559   -2.4675   -0.8430 C   0  0  0  0  0  0  0  0  0  0  0  0
    2.6629   -0.7117    0.2421 C   0  0  0  0  0  0  0  0  0  0  0  0
    3.0583    0.4064   -0.6387 C   0  0  0  0  0  0  0  0  0  0  0  0
    3.4480   -1.7681    0.4626 C   0  0  0  0  0  0  0  0  0  0  0  0
   -1.7484   -0.6820   -1.7556 H   0  0  0  0  0  0  0  0  0  0  0  0
    0.3977   -0.9133   -1.0658 H   0  0  0  0  0  0  0  0  0  0  0  0
    0.2288   -2.1480    0.1657 H   0  0  0  0  0  0  0  0  0  0  0  0
    1.2550   -0.7186    1.8743 H   0  0  0  0  0  0  0  0  0  0  0  0
   -4.1213   -0.5158    0.1566 H   0  0  0  0  0  0  0  0  0  0  0  0
   -4.1742   -0.5188   -1.6003 H   0  0  0  0  0  0  0  0  0  0  0  0
    1.8037    1.5540    1.5757 H   0  0  0  0  0  0  0  0  0  0  0  0
   -3.0160    1.5833    1.3366 H   0  0  0  0  0  0  0  0  0  0  0  0
   -2.3555    2.8399    0.3034 H   0  0  0  0  0  0  0  0  0  0  0  0
   -4.3544    1.7778   -0.7025 H   0  0  0  0  0  0  0  0  0  0  0  0
   -2.9294    1.5885   -1.7210 H   0  0  0  0  0  0  0  0  0  0  0  0
   -1.5580   -2.1227    1.7894 H   0  0  0  0  0  0  0  0  0  0  0  0
   -1.0329   -0.6153    2.5339 H   0  0  0  0  0  0  0  0  0  0  0  0
   -2.6894   -0.7775    1.9615 H   0  0  0  0  0  0  0  0  0  0  0  0
   -0.0550    2.8075    0.5600 H   0  0  0  0  0  0  0  0  0  0  0  0
   -1.5237   -3.0296   -0.9461 H   0  0  0  0  0  0  0  0  0  0  0  0
   -2.9777   -2.8232    0.0509 H   0  0  0  0  0  0  0  0  0  0  0  0
   -3.0801   -2.7210   -1.7074 H   0  0  0  0  0  0  0  0  0  0  0  0
    3.1299   -2.5633    1.1285 H   0  0  0  0  0  0  0  0  0  0  0  0
    4.4189   -1.8673   -0.0105 H   0  0  0  0  0  0  0  0  0  0  0  0
  1  9  1  0  0  0  0
  1 16  1  0  0  0  0
  2 16  2  0  0  0  0
  3  4  1  0  0  0  0
  3  5  1  0  0  0  0
  3  6  1  0  0  0  0
  3 12  1  0  0  0  0
  4  8  1  0  0  0  0
  4 14  1  0  0  0  0
  4 18  1  0  0  0  0
  5  7  1  0  0  0  0
  5 19  1  0  0  0  0
  5 20  1  0  0  0  0
  6 10  1  0  0  0  0
  6 13  2  0  0  0  0
  7  9  1  0  0  0  0
  7 15  1  0  0  0  0
  7 21  1  0  0  0  0
  8 11  1  0  0  0  0
  8 22  1  0  0  0  0
  8 23  1  0  0  0  0
  9 13  1  0  0  0  0
  9 24  1  0  0  0  0
 10 11  1  0  0  0  0
 10 25  1  0  0  0  0
 10 26  1  0  0  0  0
 11 27  1  0  0  0  0
 11 28  1  0  0  0  0
 12 29  1  0  0  0  0
 12 30  1  0  0  0  0
 12 31  1  0  0  0  0
 13 32  1  0  0  0  0
 14 33  1  0  0  0  0
 14 34  1  0  0  0  0
 14 35  1  0  0  0  0
 15 16  1  0  0  0  0
 15 17  2  0  0  0  0
 17 36  1  0  0  0  0
 17 37  1  0  0  0  0
M  END
> <PUBCHEM_COMPOUND_CID>
442209

> <PUBCHEM_CONFORMER_RMSD>
0.6

> <PUBCHEM_CONFORMER_DIVERSEORDER>
2
1

> <PUBCHEM_MMFF94_PARTIAL_CHARGES>
14
1 -0.43
10 0.14
13 -0.29
15 -0.12
16 0.71
17 -0.3
2 -0.57
3 0.14
32 0.15
36 0.15
37 0.15
6 -0.28
7 0.14
9 0.42

> <PUBCHEM_EFFECTIVE_ROTOR_COUNT>
1.2

> <PUBCHEM_PHARMACOPHORE_FEATURES>
4
1 2 acceptor
5 1 7 9 15 16 rings
6 3 4 6 8 10 11 rings
6 3 5 6 7 9 13 rings

> <PUBCHEM_HEAVY_ATOM_COUNT>
17

> <PUBCHEM_ATOM_DEF_STEREO_COUNT>
4

> <PUBCHEM_ATOM_UDEF_STEREO_COUNT>
0

> <PUBCHEM_BOND_DEF_STEREO_COUNT>
0

> <PUBCHEM_BOND_UDEF_STEREO_COUNT>
0

> <PUBCHEM_ISOTOPIC_ATOM_COUNT>
0

> <PUBCHEM_COMPONENT_COUNT>
1

> <PUBCHEM_CACTVS_TAUTO_COUNT>
1

> <PUBCHEM_CONFORMER_ID>
0006BF6100000002

> <PUBCHEM_MMFF94_ENERGY>
35.3641

> <PUBCHEM_FEATURE_SELFOVERLAP>
20.463

> <PUBCHEM_SHAPE_FINGERPRINT>
10062212 137 18266472068772791235
10465860 71 18187076252558297780
11127187 94 18334010579889335901
11206711 2 18411137991809382117
12173636 292 17275382118770350399
12491281 212 18336542824014317649
12592029 89 18261387918843424619
12932764 1 18261949665736160594
13296908 3 18041285357005585307
13693222 15 5978383919623937138
14115302 16 18337396049058015372
15775835 57 18272930556913580605
16752209 62 18189351211167880717
16945 1 18261966214472037801
18186145 218 17632306717150180359
19862831 5 18201721764577815074
19868273 293 18410576205791968133
20645476 183 18272645740499799423
20871999 31 18335135354298404223
21486144 27 16415474969507548014
21501502 16 18412265046951534050
21524375 3 18125723641394301113
21634736 98 18337112259088826548
22802520 49 18271805687909645785
2334 1 18337394824839309969
23402539 116 17970646283317873501
23402655 69 18342459282839905764
23419403 2 13967729844470091225
23463225 33 18266182910073129730
23557571 272 17749115486979782152
23559900 14 18114187467064724968
25 1 17987803032877405593
2748010 2 17043447536576786952
296302 2 16371022792485980032
298252 57 18191877936191036433
3082319 5 18342738516033202046
74978 22 18334298655940733897
8030462 33 18413386519037218952
81228 2 16516517966370585840
90525 40 18261108599428431487
9981440 41 17911244910504634224

> <PUBCHEM_SHAPE_MULTIPOLES>
338.11
6.28
2.12
1.19
2.39
0.38
-0.13
0.48
2.15
-0.87
0.06
-0.03
0.15
-0.57

> <PUBCHEM_SHAPE_SELFOVERLAP>
723.39

> <PUBCHEM_SHAPE_VOLUME>
187

> <PUBCHEM_COORDINATE_TYPE>
2
5
10

$$$$

