17396023
  -OEChem-06241222532D

 59 61  0     0  0  0  0  0  0999 V2000
    5.1906   -0.5617    0.0000 O   0  0  0  0  0  0  0  0  0  0  0  0
    7.1906   -0.5617    0.0000 O   0  0  0  0  0  0  0  0  0  0  0  0
   11.1906   -2.2938    0.0000 O   0  0  0  0  0  0  0  0  0  0  0  0
    5.1906    1.1703    0.0000 N   0  0  0  0  0  0  0  0  0  0  0  0
   11.1906   -0.5617    0.0000 N   0  0  0  0  0  0  0  0  0  0  0  0
    4.1906    1.1703    0.0000 C   0  0  0  0  0  0  0  0  0  0  0  0
    3.7568    0.2693    0.0000 C   0  0  0  0  0  0  0  0  0  0  0  0
    3.7568    2.0713    0.0000 C   0  0  0  0  0  0  0  0  0  0  0  0
    2.7818    2.2938    0.0000 C   0  0  0  0  0  0  0  0  0  0  0  0
    2.7818    0.0468    0.0000 C   0  0  0  0  0  0  0  0  0  0  0  0
    2.0000    0.6703    0.0000 C   0  0  0  0  0  0  0  0  0  0  0  0
    2.0000    1.6703    0.0000 C   0  0  0  0  0  0  0  0  0  0  0  0
    5.6906    0.3043    0.0000 C   0  0  0  0  0  0  0  0  0  0  0  0
    6.6906    0.3043    0.0000 C   0  0  0  0  0  0  0  0  0  0  0  0
    8.1906   -0.5617    0.0000 C   0  0  0  0  0  0  0  0  0  0  0  0
   10.1906   -0.5617    0.0000 C   0  0  0  0  0  0  0  0  0  0  0  0
    8.6906   -1.4278    0.0000 C   0  0  0  0  0  0  0  0  0  0  0  0
    8.6906    0.3043    0.0000 C   0  0  0  0  0  0  0  0  0  0  0  0
    9.6906   -1.4278    0.0000 C   0  0  0  0  0  0  0  0  0  0  0  0
    9.6906    0.3043    0.0000 C   0  0  0  0  0  0  0  0  0  0  0  0
   11.6906   -1.4278    0.0000 C   0  0  0  0  0  0  0  0  0  0  0  0
   12.6906   -1.4278    0.0000 C   0  0  0  0  0  0  0  0  0  0  0  0
   11.6906    0.3043    0.0000 C   0  0  0  0  0  0  0  0  0  0  0  0
   13.1906   -2.2938    0.0000 C   0  0  0  0  0  0  0  0  0  0  0  0
   13.1906   -0.5617    0.0000 C   0  0  0  0  0  0  0  0  0  0  0  0
   14.6906   -1.4278    0.0000 C   0  0  0  0  0  0  0  0  0  0  0  0
   14.1906   -2.2938    0.0000 C   0  0  0  0  0  0  0  0  0  0  0  0
   14.1906   -0.5617    0.0000 C   0  0  0  0  0  0  0  0  0  0  0  0
   15.6906   -1.4278    0.0000 C   0  0  0  0  0  0  0  0  0  0  0  0
    4.5205    0.6453    0.0000 H   0  0  0  0  0  0  0  0  0  0  0  0
    3.7568   -0.3507    0.0000 H   0  0  0  0  0  0  0  0  0  0  0  0
    4.3612    0.1314    0.0000 H   0  0  0  0  0  0  0  0  0  0  0  0
    4.3612    2.2092    0.0000 H   0  0  0  0  0  0  0  0  0  0  0  0
    3.7568    2.6913    0.0000 H   0  0  0  0  0  0  0  0  0  0  0  0
    2.2971   -0.3397    0.0000 H   0  0  0  0  0  0  0  0  0  0  0  0
    3.0508   -0.5118    0.0000 H   0  0  0  0  0  0  0  0  0  0  0  0
    3.0508    2.8524    0.0000 H   0  0  0  0  0  0  0  0  0  0  0  0
    2.2971    2.6804    0.0000 H   0  0  0  0  0  0  0  0  0  0  0  0
    1.3955    0.8083    0.0000 H   0  0  0  0  0  0  0  0  0  0  0  0
    1.7310    0.1117    0.0000 H   0  0  0  0  0  0  0  0  0  0  0  0
    1.7310    2.2289    0.0000 H   0  0  0  0  0  0  0  0  0  0  0  0
    1.3955    1.5323    0.0000 H   0  0  0  0  0  0  0  0  0  0  0  0
    5.5006    1.7072    0.0000 H   0  0  0  0  0  0  0  0  0  0  0  0
    7.2732    0.5163    0.0000 H   0  0  0  0  0  0  0  0  0  0  0  0
    6.5830    0.9149    0.0000 H   0  0  0  0  0  0  0  0  0  0  0  0
    8.3806   -1.9647    0.0000 H   0  0  0  0  0  0  0  0  0  0  0  0
    8.3806    0.8412    0.0000 H   0  0  0  0  0  0  0  0  0  0  0  0
   10.0006   -1.9647    0.0000 H   0  0  0  0  0  0  0  0  0  0  0  0
   10.0006    0.8412    0.0000 H   0  0  0  0  0  0  0  0  0  0  0  0
   12.2276   -0.0057    0.0000 H   0  0  0  0  0  0  0  0  0  0  0  0
   12.0006    0.8412    0.0000 H   0  0  0  0  0  0  0  0  0  0  0  0
   11.1537    0.6143    0.0000 H   0  0  0  0  0  0  0  0  0  0  0  0
   12.8806   -2.8307    0.0000 H   0  0  0  0  0  0  0  0  0  0  0  0
   12.8806   -0.0248    0.0000 H   0  0  0  0  0  0  0  0  0  0  0  0
   14.5006   -2.8307    0.0000 H   0  0  0  0  0  0  0  0  0  0  0  0
   14.5006   -0.0248    0.0000 H   0  0  0  0  0  0  0  0  0  0  0  0
   15.6906   -2.0478    0.0000 H   0  0  0  0  0  0  0  0  0  0  0  0
   16.3106   -1.4278    0.0000 H   0  0  0  0  0  0  0  0  0  0  0  0
   15.6906   -0.8078    0.0000 H   0  0  0  0  0  0  0  0  0  0  0  0
  1 13  2  0  0  0  0
  2 14  1  0  0  0  0
  2 15  1  0  0  0  0
  3 21  2  0  0  0  0
  4  6  1  0  0  0  0
  4 13  1  0  0  0  0
  4 43  1  0  0  0  0
  5 16  1  0  0  0  0
  5 21  1  0  0  0  0
  5 23  1  0  0  0  0
  6  7  1  0  0  0  0
  6  8  1  0  0  0  0
  6 30  1  0  0  0  0
  7 10  1  0  0  0  0
  7 31  1  0  0  0  0
  7 32  1  0  0  0  0
  8  9  1  0  0  0  0
  8 33  1  0  0  0  0
  8 34  1  0  0  0  0
  9 12  1  0  0  0  0
  9 37  1  0  0  0  0
  9 38  1  0  0  0  0
 10 11  1  0  0  0  0
 10 35  1  0  0  0  0
 10 36  1  0  0  0  0
 11 12  1  0  0  0  0
 11 39  1  0  0  0  0
 11 40  1  0  0  0  0
 12 41  1  0  0  0  0
 12 42  1  0  0  0  0
 13 14  1  0  0  0  0
 14 44  1  0  0  0  0
 14 45  1  0  0  0  0
 15 17  2  0  0  0  0
 15 18  1  0  0  0  0
 16 19  2  0  0  0  0
 16 20  1  0  0  0  0
 17 19  1  0  0  0  0
 17 46  1  0  0  0  0
 18 20  2  0  0  0  0
 18 47  1  0  0  0  0
 19 48  1  0  0  0  0
 20 49  1  0  0  0  0
 21 22  1  0  0  0  0
 22 24  2  0  0  0  0
 22 25  1  0  0  0  0
 23 50  1  0  0  0  0
 23 51  1  0  0  0  0
 23 52  1  0  0  0  0
 24 27  1  0  0  0  0
 24 53  1  0  0  0  0
 25 28  2  0  0  0  0
 25 54  1  0  0  0  0
 26 27  2  0  0  0  0
 26 28  1  0  0  0  0
 26 29  1  0  0  0  0
 27 55  1  0  0  0  0
 28 56  1  0  0  0  0
 29 57  1  0  0  0  0
 29 58  1  0  0  0  0
 29 59  1  0  0  0  0
M  END
> <PUBCHEM_COMPOUND_CID>
17396023

> <PUBCHEM_COMPOUND_CANONICALIZED>
1

> <PUBCHEM_CACTVS_COMPLEXITY>
514

> <PUBCHEM_CACTVS_HBOND_ACCEPTOR>
3

> <PUBCHEM_CACTVS_HBOND_DONOR>
1

> <PUBCHEM_CACTVS_ROTATABLE_BOND>
6

> <PUBCHEM_CACTVS_SUBSKEYS>
AAADceB7MAAAAAAAAAAAAAAAAAAAAAAAAAAwYAAABgAAAAABQAAAHgAQAAAADCzhmAYyxoPABACIAiVSUAKCCAAlIgAIiIFObMgOJjLEtZ+HOSjk1hHY6Ye4yACOQEAAAAAAAACAgAAAAAAAAAAAAAAAAA==

> <PUBCHEM_IUPAC_OPENEYE_NAME>
N-[4-[2-(cycloheptylamino)-2-oxo-ethoxy]phenyl]-N,4-dimethyl-benzamide

> <PUBCHEM_IUPAC_CAS_NAME>
N-[4-[2-(cycloheptylamino)-2-oxoethoxy]phenyl]-N,4-dimethylbenzamide

> <PUBCHEM_IUPAC_NAME>
N-[4-[2-(cycloheptylamino)-2-oxoethoxy]phenyl]-N,4-dimethylbenzamide

> <PUBCHEM_IUPAC_SYSTEMATIC_NAME>
N-[4-[2-(cycloheptylamino)-2-oxidanylidene-ethoxy]phenyl]-N,4-dimethyl-benzamide

> <PUBCHEM_IUPAC_TRADITIONAL_NAME>
N-[4-[2-(cycloheptylamino)-2-keto-ethoxy]phenyl]-N,4-dimethyl-benzamide

> <PUBCHEM_IUPAC_INCHI>
InChI=1S/C24H30N2O3/c1-18-9-11-19(12-10-18)24(28)26(2)21-13-15-22(16-14-21)29-17-23(27)25-20-7-5-3-4-6-8-20/h9-16,20H,3-8,17H2,1-2H3,(H,25,27)

> <PUBCHEM_IUPAC_INCHIKEY>
LOLUKECBHOOECI-UHFFFAOYSA-N

> <PUBCHEM_XLOGP3_AA>
5

> <PUBCHEM_EXACT_MASS>
394.225643

> <PUBCHEM_MOLECULAR_FORMULA>
C24H30N2O3

> <PUBCHEM_MOLECULAR_WEIGHT>
394.5066

> <PUBCHEM_OPENEYE_CAN_SMILES>
CC1=CC=C(C=C1)C(=O)N(C)C2=CC=C(C=C2)OCC(=O)NC3CCCCCC3

> <PUBCHEM_OPENEYE_ISO_SMILES>
CC1=CC=C(C=C1)C(=O)N(C)C2=CC=C(C=C2)OCC(=O)NC3CCCCCC3

> <PUBCHEM_CACTVS_TPSA>
58.6

> <PUBCHEM_MONOISOTOPIC_WEIGHT>
394.225643

> <PUBCHEM_TOTAL_CHARGE>
0

> <PUBCHEM_HEAVY_ATOM_COUNT>
29

> <PUBCHEM_ATOM_DEF_STEREO_COUNT>
0

> <PUBCHEM_ATOM_UDEF_STEREO_COUNT>
0

> <PUBCHEM_BOND_DEF_STEREO_COUNT>
0

> <PUBCHEM_BOND_UDEF_STEREO_COUNT>
0

> <PUBCHEM_ISOTOPIC_ATOM_COUNT>
0

> <PUBCHEM_COMPONENT_COUNT>
1

> <PUBCHEM_CACTVS_TAUTO_COUNT>
6

> <PUBCHEM_COORDINATE_TYPE>
1
5
255

> <PUBCHEM_BONDANNOTATIONS>
15  17  8
15  18  8
16  19  8
16  20  8
17  19  8
18  20  8
22  24  8
22  25  8
24  27  8
25  28  8
26  27  8
26  28  8

$$$$

