443816
  -OEChem-07051213032D

 95101  0     1  0  0  0  0  0999 V2000
    5.4896    1.6610    0.0000 O   0  0  0  0  0  0  0  0  0  0  0  0
    6.3498    3.1643    0.0000 O   0  0  0  0  0  0  0  0  0  0  0  0
    8.0934    0.1710    0.0000 O   0  0  0  0  0  0  0  0  0  0  0  0
    5.4742    5.6609    0.0000 O   0  0  0  0  0  0  0  0  0  0  0  0
    3.7421    5.6542    0.0000 O   0  0  0  0  0  0  0  0  0  0  0  0
    7.2178    2.6676    0.0000 O   0  0  0  0  0  0  0  0  0  0  0  0
    3.7306    8.6542    0.0000 O   0  0  0  0  0  0  0  0  0  0  0  0
    2.0024    7.6476    0.0000 O   0  0  0  0  0  0  0  0  0  0  0  0
    5.4634   -1.3702    0.0000 O   0  0  0  0  0  0  0  0  0  0  0  0
    6.9038   -8.9624    0.0000 O   0  0  0  0  0  0  0  0  0  0  0  0
    8.1754   -5.9472    0.0000 O   0  0  0  0  0  0  0  0  0  0  0  0
    3.6992   -6.4467    0.0000 O   0  0  0  0  0  0  0  0  0  0  0  0
    8.0833   -4.9016    0.0000 O   0  0  0  0  0  0  0  0  0  0  0  0
    4.6192   -2.9016    0.0000 O   0  0  0  0  0  0  0  0  0  0  0  0
    6.3575    1.1643    0.0000 C   0  0  1  0  0  0  0  0  0  0  0  0
    7.2216    1.6676    0.0000 C   0  0  1  0  0  0  0  0  0  0  0  0
    6.3614    0.1643    0.0000 C   0  0  0  0  0  0  0  0  0  0  0  0
    5.4780    4.6609    0.0000 C   0  0  1  0  0  0  0  0  0  0  0  0
    5.4857    2.6609    0.0000 C   0  0  2  0  0  0  0  0  0  0  0  0
    7.2293   -0.3324    0.0000 C   0  0  2  0  0  0  0  0  0  0  0  0
    4.6139    4.1576    0.0000 C   0  0  0  0  0  0  0  0  0  0  0  0
    8.0896    1.1710    0.0000 C   0  0  1  0  0  0  0  0  0  0  0  0
    4.6178    3.1576    0.0000 C   0  0  0  0  0  0  0  0  0  0  0  0
    6.3460    4.1643    0.0000 C   0  0  2  0  0  0  0  0  0  0  0  0
    4.6062    6.1576    0.0000 C   0  0  2  0  0  0  0  0  0  0  0  0
    7.2332   -1.3324    0.0000 C   0  0  0  0  0  0  0  0  0  0  0  0
    4.6024    7.1576    0.0000 C   0  0  0  0  0  0  0  0  0  0  0  0
    3.7344    7.6542    0.0000 C   0  0  2  0  0  0  0  0  0  0  0  0
    2.8703    7.1509    0.0000 C   0  0  1  0  0  0  0  0  0  0  0  0
    2.8742    6.1509    0.0000 C   0  0  1  0  0  0  0  0  0  0  0  0
    8.9537    1.6743    0.0000 C   0  0  0  0  0  0  0  0  0  0  0  0
    7.2101    4.6676    0.0000 C   0  0  0  0  0  0  0  0  0  0  0  0
    6.3352   -1.8601    0.0000 C   0  0  0  0  0  0  0  0  0  0  0  0
    6.4005   -8.0983    0.0000 C   0  0  2  0  0  0  0  0  0  0  0  0
    8.1353   -1.8532    0.0000 C   0  0  0  0  0  0  0  0  0  0  0  0
    6.3512   -2.9016    0.0000 C   0  0  0  0  0  0  0  0  0  0  0  0
    5.4609   -7.5558    0.0000 C   0  0  0  0  0  0  0  0  0  0  0  0
    6.3673   -5.9431    0.0000 C   0  0  0  0  0  0  0  0  0  0  0  0
    5.4692   -6.4709    0.0000 C   0  0  0  0  0  0  0  0  0  0  0  0
    7.2172   -3.4016    0.0000 C   0  0  0  0  0  0  0  0  0  0  0  0
    6.3512   -4.9016    0.0000 C   0  0  0  0  0  0  0  0  0  0  0  0
    7.3359   -7.5486    0.0000 C   0  0  0  0  0  0  0  0  0  0  0  0
    2.0101    5.6476    0.0000 C   0  0  0  0  0  0  0  0  0  0  0  0
    5.4852   -4.4016    0.0000 C   0  0  0  0  0  0  0  0  0  0  0  0
    8.1272   -2.8948    0.0000 C   0  0  0  0  0  0  0  0  0  0  0  0
    7.3192   -6.4638    0.0000 C   0  0  0  0  0  0  0  0  0  0  0  0
    7.2172   -4.4016    0.0000 C   0  0  0  0  0  0  0  0  0  0  0  0
    5.4852   -3.4016    0.0000 C   0  0  0  0  0  0  0  0  0  0  0  0
    4.5672   -5.9501    0.0000 C   0  0  0  0  0  0  0  0  0  0  0  0
    5.9038   -8.9663    0.0000 C   0  0  0  0  0  0  0  0  0  0  0  0
    4.5752   -4.9085    0.0000 C   0  0  0  0  0  0  0  0  0  0  0  0
    6.3552    1.7843    0.0000 H   0  0  0  0  0  0  0  0  0  0  0  0
    6.6835    1.9756    0.0000 H   0  0  0  0  0  0  0  0  0  0  0  0
    5.7504    0.2696    0.0000 H   0  0  0  0  0  0  0  0  0  0  0  0
    6.1516   -0.4191    0.0000 H   0  0  0  0  0  0  0  0  0  0  0  0
    6.0138    4.9730    0.0000 H   0  0  0  0  0  0  0  0  0  0  0  0
    4.9500    2.3489    0.0000 H   0  0  0  0  0  0  0  0  0  0  0  0
    6.4949   -0.7602    0.0000 H   0  0  0  0  0  0  0  0  0  0  0  0
    4.3996    4.7394    0.0000 H   0  0  0  0  0  0  0  0  0  0  0  0
    4.0038    4.0476    0.0000 H   0  0  0  0  0  0  0  0  0  0  0  0
    8.6277    0.8630    0.0000 H   0  0  0  0  0  0  0  0  0  0  0  0
    4.0068    3.2629    0.0000 H   0  0  0  0  0  0  0  0  0  0  0  0
    4.4080    2.5742    0.0000 H   0  0  0  0  0  0  0  0  0  0  0  0
    6.8841    3.8563    0.0000 H   0  0  0  0  0  0  0  0  0  0  0  0
    4.6086    5.5376    0.0000 H   0  0  0  0  0  0  0  0  0  0  0  0
    5.2134    7.0523    0.0000 H   0  0  0  0  0  0  0  0  0  0  0  0
    4.8122    7.7410    0.0000 H   0  0  0  0  0  0  0  0  0  0  0  0
    3.1963    7.9622    0.0000 H   0  0  0  0  0  0  0  0  0  0  0  0
    2.8680    7.7709    0.0000 H   0  0  0  0  0  0  0  0  0  0  0  0
    2.8766    5.5309    0.0000 H   0  0  0  0  0  0  0  0  0  0  0  0
    9.2657    1.1386    0.0000 H   0  0  0  0  0  0  0  0  0  0  0  0
    9.4894    1.9864    0.0000 H   0  0  0  0  0  0  0  0  0  0  0  0
    8.6416    2.2100    0.0000 H   0  0  0  0  0  0  0  0  0  0  0  0
    7.5221    4.1319    0.0000 H   0  0  0  0  0  0  0  0  0  0  0  0
    7.7458    4.9797    0.0000 H   0  0  0  0  0  0  0  0  0  0  0  0
    6.8980    5.2033    0.0000 H   0  0  0  0  0  0  0  0  0  0  0  0
    7.7535    2.9797    0.0000 H   0  0  0  0  0  0  0  0  0  0  0  0
    8.6734   -1.5452    0.0000 H   0  0  0  0  0  0  0  0  0  0  0  0
    4.8509   -7.4450    0.0000 H   0  0  0  0  0  0  0  0  0  0  0  0
    5.2473   -8.1379    0.0000 H   0  0  0  0  0  0  0  0  0  0  0  0
    7.5540   -8.1290    0.0000 H   0  0  0  0  0  0  0  0  0  0  0  0
    7.9451   -7.4331    0.0000 H   0  0  0  0  0  0  0  0  0  0  0  0
    1.6980    6.1833    0.0000 H   0  0  0  0  0  0  0  0  0  0  0  0
    1.4744    5.3355    0.0000 H   0  0  0  0  0  0  0  0  0  0  0  0
    2.3222    5.1118    0.0000 H   0  0  0  0  0  0  0  0  0  0  0  0
    8.6606   -3.2110    0.0000 H   0  0  0  0  0  0  0  0  0  0  0  0
    4.2663    8.9663    0.0000 H   0  0  0  0  0  0  0  0  0  0  0  0
    5.3657   -8.6584    0.0000 H   0  0  0  0  0  0  0  0  0  0  0  0
    5.5959   -9.5044    0.0000 H   0  0  0  0  0  0  0  0  0  0  0  0
    6.4420   -9.2742    0.0000 H   0  0  0  0  0  0  0  0  0  0  0  0
    2.0000    8.2675    0.0000 H   0  0  0  0  0  0  0  0  0  0  0  0
    4.0419   -4.5923    0.0000 H   0  0  0  0  0  0  0  0  0  0  0  0
    4.9301   -1.6864    0.0000 H   0  0  0  0  0  0  0  0  0  0  0  0
    7.5238   -8.9600    0.0000 H   0  0  0  0  0  0  0  0  0  0  0  0
    3.1635   -6.1346    0.0000 H   0  0  0  0  0  0  0  0  0  0  0  0
 15  1  1  1  0  0  0
 19  1  1  1  0  0  0
  2 19  1  0  0  0  0
  2 24  1  0  0  0  0
  3 20  1  0  0  0  0
  3 22  1  0  0  0  0
 18  4  1  6  0  0  0
 25  4  1  6  0  0  0
  5 25  1  0  0  0  0
  5 30  1  0  0  0  0
 16  6  1  6  0  0  0
  6 77  1  0  0  0  0
 28  7  1  6  0  0  0
  7 87  1  0  0  0  0
 29  8  1  1  0  0  0
  8 91  1  0  0  0  0
  9 33  1  0  0  0  0
  9 93  1  0  0  0  0
 34 10  1  6  0  0  0
 10 94  1  0  0  0  0
 11 46  2  0  0  0  0
 12 49  1  0  0  0  0
 12 95  1  0  0  0  0
 13 47  2  0  0  0  0
 14 48  2  0  0  0  0
 15 16  1  0  0  0  0
 15 17  1  0  0  0  0
 15 52  1  0  0  0  0
 16 22  1  0  0  0  0
 16 53  1  0  0  0  0
 17 20  1  0  0  0  0
 17 54  1  0  0  0  0
 17 55  1  0  0  0  0
 18 21  1  0  0  0  0
 18 24  1  0  0  0  0
 18 56  1  0  0  0  0
 19 23  1  0  0  0  0
 19 57  1  0  0  0  0
 20 26  1  0  0  0  0
 20 58  1  6  0  0  0
 21 23  1  0  0  0  0
 21 59  1  0  0  0  0
 21 60  1  0  0  0  0
 22 31  1  1  0  0  0
 22 61  1  0  0  0  0
 23 62  1  0  0  0  0
 23 63  1  0  0  0  0
 24 32  1  6  0  0  0
 24 64  1  0  0  0  0
 25 27  1  0  0  0  0
 25 65  1  0  0  0  0
 26 33  2  0  0  0  0
 26 35  1  0  0  0  0
 27 28  1  0  0  0  0
 27 66  1  0  0  0  0
 27 67  1  0  0  0  0
 28 29  1  0  0  0  0
 28 68  1  0  0  0  0
 29 30  1  0  0  0  0
 29 69  1  0  0  0  0
 30 43  1  6  0  0  0
 30 70  1  0  0  0  0
 31 71  1  0  0  0  0
 31 72  1  0  0  0  0
 31 73  1  0  0  0  0
 32 74  1  0  0  0  0
 32 75  1  0  0  0  0
 32 76  1  0  0  0  0
 33 36  1  0  0  0  0
 34 37  1  0  0  0  0
 34 42  1  0  0  0  0
 34 50  1  0  0  0  0
 35 45  2  0  0  0  0
 35 78  1  0  0  0  0
 36 40  2  0  0  0  0
 36 48  1  0  0  0  0
 37 39  1  0  0  0  0
 37 79  1  0  0  0  0
 37 80  1  0  0  0  0
 38 39  1  0  0  0  0
 38 41  2  0  0  0  0
 38 46  1  0  0  0  0
 39 49  2  0  0  0  0
 40 45  1  0  0  0  0
 40 47  1  0  0  0  0
 41 44  1  0  0  0  0
 41 47  1  0  0  0  0
 42 46  1  0  0  0  0
 42 81  1  0  0  0  0
 42 82  1  0  0  0  0
 43 83  1  0  0  0  0
 43 84  1  0  0  0  0
 43 85  1  0  0  0  0
 44 48  1  0  0  0  0
 44 51  2  0  0  0  0
 45 86  1  0  0  0  0
 49 51  1  0  0  0  0
 50 88  1  0  0  0  0
 50 89  1  0  0  0  0
 50 90  1  0  0  0  0
 51 92  1  0  0  0  0
M  END
> <PUBCHEM_COMPOUND_CID>
443816

> <PUBCHEM_COMPOUND_CANONICALIZED>
1

> <PUBCHEM_CACTVS_COMPLEXITY>
1330

> <PUBCHEM_CACTVS_HBOND_ACCEPTOR>
14

> <PUBCHEM_CACTVS_HBOND_DONOR>
6

> <PUBCHEM_CACTVS_ROTATABLE_BOND>
5

> <PUBCHEM_CACTVS_SUBSKEYS>
AAADcfB8PAAAAAAAAAAAAAAAAAAAAAAAAAA0aNGCAAAAAADBQAAAGgAACAAADFSwmAMyDoAABgCIAqBSAAACAAAkIAAIiAEGCMgZNzaCNRqicUAl4BEPuYfL7vzu4AADAAAYAADAAAYAADAAAAAAAAAAAA==

> <PUBCHEM_IUPAC_OPENEYE_NAME>
(3R)-9-[(2R,4R,5R,6R)-4-[(2S,5S,6S)-5-[(2S,4R,5S,6R)-4,5-dihydroxy-6-methyl-tetrahydropyran-2-yl]oxy-6-methyl-tetrahydropyran-2-yl]oxy-5-hydroxy-6-methyl-tetrahydropyran-2-yl]-3,5,8-trihydroxy-3-methyl-2,4-dihydrobenzo[a]anthracene-1,7,12-trione

> <PUBCHEM_IUPAC_CAS_NAME>
(3R)-9-[(2R,4R,5R,6R)-4-[[(2S,5S,6S)-5-[[(2S,4R,5S,6R)-4,5-dihydroxy-6-methyl-2-oxanyl]oxy]-6-methyl-2-oxanyl]oxy]-5-hydroxy-6-methyl-2-oxanyl]-3,5,8-trihydroxy-3-methyl-2,4-dihydrobenzo[a]anthracene-1,7,12-trione

> <PUBCHEM_IUPAC_NAME>
(3R)-9-[(2R,4R,5R,6R)-4-[(2S,5S,6S)-5-[(2S,4R,5S,6R)-4,5-dihydroxy-6-methyloxan-2-yl]oxy-6-methyloxan-2-yl]oxy-5-hydroxy-6-methyloxan-2-yl]-3,5,8-trihydroxy-3-methyl-2,4-dihydrobenzo[a]anthracene-1,7,12-trione

> <PUBCHEM_IUPAC_SYSTEMATIC_NAME>
(3R)-3-methyl-9-[(2R,4R,5R,6R)-6-methyl-4-[(2S,5S,6S)-6-methyl-5-[(2S,4R,5S,6R)-6-methyl-4,5-bis(oxidanyl)oxan-2-yl]oxy-oxan-2-yl]oxy-5-oxidanyl-oxan-2-yl]-3,5,8-tris(oxidanyl)-2,4-dihydrobenzo[a]anthracene-1,7,12-trione

> <PUBCHEM_IUPAC_TRADITIONAL_NAME>
(3R)-9-[(2R,4R,5R,6R)-4-[(2S,5S,6S)-5-[(2S,4R,5S,6R)-4,5-dihydroxy-6-methyl-tetrahydropyran-2-yl]oxy-6-methyl-tetrahydropyran-2-yl]oxy-5-hydroxy-6-methyl-tetrahydropyran-2-yl]-3,5,8-trihydroxy-3-methyl-2,4-dihydrobenz[a]anthracene-1,7,12-trione

> <PUBCHEM_IUPAC_INCHI>
InChI=1S/C37H44O14/c1-14-24(50-28-10-22(39)32(41)15(2)49-28)7-8-27(48-14)51-26-11-25(47-16(3)33(26)42)17-5-6-18-31(34(17)43)36(45)19-9-21(38)20-12-37(4,46)13-23(40)29(20)30(19)35(18)44/h5-6,9,14-16,22,24-28,32-33,38-39,41-43,46H,7-8,10-13H2,1-4H3/t14-,15+,16+,22+,24-,25+,26+,27-,28-,32+,33+,37+/m0/s1

> <PUBCHEM_IUPAC_INCHIKEY>
LQZSLYLITYAWSH-PYRLTDJXSA-N

> <PUBCHEM_XLOGP3_AA>
1.8

> <PUBCHEM_EXACT_MASS>
712.273106

> <PUBCHEM_MOLECULAR_FORMULA>
C37H44O14

> <PUBCHEM_MOLECULAR_WEIGHT>
712.73686

> <PUBCHEM_OPENEYE_CAN_SMILES>
CC1C(CCC(O1)OC2CC(OC(C2O)C)C3=C(C4=C(C=C3)C(=O)C5=C6C(=C(C=C5C4=O)O)CC(CC6=O)(C)O)O)OC7CC(C(C(O7)C)O)O

> <PUBCHEM_OPENEYE_ISO_SMILES>
C[C@H]1[C@H](CC[C@@H](O1)O[C@@H]2C[C@@H](O[C@@H]([C@H]2O)C)C3=C(C4=C(C=C3)C(=O)C5=C6C(=C(C=C5C4=O)O)C[C@@](CC6=O)(C)O)O)O[C@H]7C[C@H]([C@@H]([C@H](O7)C)O)O

> <PUBCHEM_CACTVS_TPSA>
219

> <PUBCHEM_MONOISOTOPIC_WEIGHT>
712.273106

> <PUBCHEM_TOTAL_CHARGE>
0

> <PUBCHEM_HEAVY_ATOM_COUNT>
51

> <PUBCHEM_ATOM_DEF_STEREO_COUNT>
12

> <PUBCHEM_ATOM_UDEF_STEREO_COUNT>
0

> <PUBCHEM_BOND_DEF_STEREO_COUNT>
0

> <PUBCHEM_BOND_UDEF_STEREO_COUNT>
0

> <PUBCHEM_ISOTOPIC_ATOM_COUNT>
0

> <PUBCHEM_COMPONENT_COUNT>
1

> <PUBCHEM_CACTVS_TAUTO_COUNT>
192

> <PUBCHEM_COORDINATE_TYPE>
1
5
255

> <PUBCHEM_BONDANNOTATIONS>
15  1  5
19  1  5
34  10  6
20  58  6
22  31  5
24  32  6
26  33  8
26  35  8
30  43  6
33  36  8
35  45  8
36  40  8
38  39  8
38  41  8
39  49  8
18  4  6
25  4  6
40  45  8
41  44  8
44  51  8
49  51  8
16  6  6
28  7  6
29  8  5

$$$$

