8588
  -OEChem-06261202563D

 30 32  0     0  0  0  0  0  0999 V2000
   -0.5627    1.2287    0.2486 N   0  0  0  0  0  0  0  0  0  0  0  0
    4.2534   -1.4589   -0.1678 N   0  0  0  0  0  0  0  0  0  0  0  0
    0.7217    0.7450    0.1659 C   0  0  0  0  0  0  0  0  0  0  0  0
   -1.4774    0.2078    0.1412 C   0  0  0  0  0  0  0  0  0  0  0  0
    0.6326   -0.6373   -0.0001 C   0  0  0  0  0  0  0  0  0  0  0  0
   -0.7576   -0.9769   -0.0157 C   0  0  0  0  0  0  0  0  0  0  0  0
   -0.9055    2.6259    0.4244 C   0  0  0  0  0  0  0  0  0  0  0  0
    1.8257   -1.3815   -0.1127 C   0  0  0  0  0  0  0  0  0  0  0  0
    1.9447    1.4229    0.2253 C   0  0  0  0  0  0  0  0  0  0  0  0
   -2.8761    0.2455    0.1714 C   0  0  0  0  0  0  0  0  0  0  0  0
   -1.4709   -2.1866   -0.1496 C   0  0  0  0  0  0  0  0  0  0  0  0
    3.0564   -0.7175   -0.0555 C   0  0  0  0  0  0  0  0  0  0  0  0
    3.1126    0.6641    0.1109 C   0  0  0  0  0  0  0  0  0  0  0  0
   -1.0669    3.3496   -0.9015 C   0  0  0  0  0  0  0  0  0  0  0  0
   -3.5601   -0.9657    0.0367 C   0  0  0  0  0  0  0  0  0  0  0  0
   -2.8699   -2.1650   -0.1215 C   0  0  0  0  0  0  0  0  0  0  0  0
   -1.8282    2.6866    1.0107 H   0  0  0  0  0  0  0  0  0  0  0  0
   -0.1274    3.1016    1.0303 H   0  0  0  0  0  0  0  0  0  0  0  0
    1.7845   -2.4599   -0.2427 H   0  0  0  0  0  0  0  0  0  0  0  0
    2.0020    2.4988    0.3500 H   0  0  0  0  0  0  0  0  0  0  0  0
   -3.4256    1.1732    0.2893 H   0  0  0  0  0  0  0  0  0  0  0  0
   -0.9469   -3.1301   -0.2738 H   0  0  0  0  0  0  0  0  0  0  0  0
    4.0729    1.1736    0.1534 H   0  0  0  0  0  0  0  0  0  0  0  0
   -0.1417    3.3169   -1.4865 H   0  0  0  0  0  0  0  0  0  0  0  0
   -1.3250    4.3993   -0.7313 H   0  0  0  0  0  0  0  0  0  0  0  0
   -1.8600    2.8975   -1.5062 H   0  0  0  0  0  0  0  0  0  0  0  0
   -4.6470   -0.9704    0.0547 H   0  0  0  0  0  0  0  0  0  0  0  0
   -3.4222   -3.0952   -0.2248 H   0  0  0  0  0  0  0  0  0  0  0  0
    5.1467   -0.9866   -0.1282 H   0  0  0  0  0  0  0  0  0  0  0  0
    4.2174   -2.4623   -0.2894 H   0  0  0  0  0  0  0  0  0  0  0  0
  1  3  1  0  0  0  0
  1  4  1  0  0  0  0
  1  7  1  0  0  0  0
  2 12  1  0  0  0  0
  2 29  1  0  0  0  0
  2 30  1  0  0  0  0
  3  5  2  0  0  0  0
  3  9  1  0  0  0  0
  4  6  1  0  0  0  0
  4 10  2  0  0  0  0
  5  6  1  0  0  0  0
  5  8  1  0  0  0  0
  6 11  2  0  0  0  0
  7 14  1  0  0  0  0
  7 17  1  0  0  0  0
  7 18  1  0  0  0  0
  8 12  2  0  0  0  0
  8 19  1  0  0  0  0
  9 13  2  0  0  0  0
  9 20  1  0  0  0  0
 10 15  1  0  0  0  0
 10 21  1  0  0  0  0
 11 16  1  0  0  0  0
 11 22  1  0  0  0  0
 12 13  1  0  0  0  0
 13 23  1  0  0  0  0
 14 24  1  0  0  0  0
 14 25  1  0  0  0  0
 14 26  1  0  0  0  0
 15 16  2  0  0  0  0
 15 27  1  0  0  0  0
 16 28  1  0  0  0  0
M  END
> <PUBCHEM_COMPOUND_CID>
8588

> <PUBCHEM_CONFORMER_RMSD>
0.6

> <PUBCHEM_CONFORMER_DIVERSEORDER>
1

> <PUBCHEM_MMFF94_PARTIAL_CHARGES>
22
1 0.05
10 -0.15
11 -0.15
12 0.1
13 -0.15
15 -0.15
16 -0.15
19 0.15
2 -0.9
20 0.15
21 0.15
22 0.15
23 0.15
27 0.15
28 0.15
29 0.4
3 -0.15
30 0.4
4 -0.15
7 0.26
8 -0.15
9 -0.15

> <PUBCHEM_EFFECTIVE_ROTOR_COUNT>
1

> <PUBCHEM_PHARMACOPHORE_FEATURES>
6
1 1 cation
1 2 cation
1 2 donor
5 1 3 4 5 6 rings
6 3 5 8 9 12 13 rings
6 4 6 10 11 15 16 rings

> <PUBCHEM_HEAVY_ATOM_COUNT>
16

> <PUBCHEM_ATOM_DEF_STEREO_COUNT>
0

> <PUBCHEM_ATOM_UDEF_STEREO_COUNT>
0

> <PUBCHEM_BOND_DEF_STEREO_COUNT>
0

> <PUBCHEM_BOND_UDEF_STEREO_COUNT>
0

> <PUBCHEM_ISOTOPIC_ATOM_COUNT>
0

> <PUBCHEM_COMPONENT_COUNT>
1

> <PUBCHEM_CACTVS_TAUTO_COUNT>
1

> <PUBCHEM_CONFORMER_ID>
0000218C00000001

> <PUBCHEM_MMFF94_ENERGY>
43.5776

> <PUBCHEM_FEATURE_SELFOVERLAP>
30.625

> <PUBCHEM_SHAPE_FINGERPRINT>
10618630 7 18410011009602429326
10967382 1 18121500146158171003
11132069 177 18334018280517790770
12032990 46 18338794520495729459
13132413 78 18192990422530307445
13140716 1 18409163286042631299
13583140 156 14057008264326073655
14648413 74 17765717914895712899
15196674 1 18408603626039446067
15442244 35 18335698317205402939
15536298 74 18188489077971490946
16752209 62 18196668490630048587
16945 1 18338521944590717506
17804303 29 18334288808023796734
193761 8 17833831951472191795
19591789 44 17255669219429683859
19868273 325 18339925913644319753
20510252 161 18261677081399944016
20711985 365 18411419552616931812
21029758 27 18270105830364518171
21267235 1 18337099086276754707
21501502 16 18408877456269665064
21524375 3 17624974228565479617
221490 88 17836645223918644443
2334 1 18193276299568759027
23402539 116 18261119594982429247
23463225 33 18337107860963064006
23552423 10 17689435988641563447
23559900 14 18335145310744655184
238 59 16116021062249173965
2748010 2 18264774267989406375
3071541 158 18126009260940521533
3091708 16 9351980275584238241
335352 9 18337107994085808607
34934 24 18265062348604842715
427121 178 15724406717625758099
5104073 3 18335981991147594562
559249 180 17839463629088119818
6992083 37 18262501633816804849
7364860 26 17760366595998418209
81228 2 18412537734509891241
8809292 202 18413385423604858882

> <PUBCHEM_SHAPE_MULTIPOLES>
319.31
5.58
3.06
0.69
2.31
2.26
-0.04
-3.19
-0.06
-1.18
-0.52
-0.07
0.21
0.17

> <PUBCHEM_SHAPE_SELFOVERLAP>
710.829

> <PUBCHEM_SHAPE_VOLUME>
172.7

> <PUBCHEM_COORDINATE_TYPE>
2
5
10

$$$$

