17396173
  -OEChem-06241222552D

 47 49  0     0  0  0  0  0  0999 V2000
    4.1254   -0.2712    0.0000 S   0  0  0  0  0  0  0  0  0  0  0  0
    4.4042   -2.0313    0.0000 O   0  0  0  0  0  0  0  0  0  0  0  0
    2.9499    1.3468    0.0000 O   0  0  0  0  0  0  0  0  0  0  0  0
    4.3511    2.3649    0.0000 N   0  0  0  0  0  0  0  0  0  0  0  0
    6.0223   -2.0313    0.0000 N   0  0  0  0  0  0  0  0  0  0  0  0
    5.7132   -1.0802    0.0000 N   0  0  0  0  0  0  0  0  0  0  0  0
    4.1701    4.0875    0.0000 C   0  0  0  0  0  0  0  0  0  0  0  0
    3.7634    3.1739    0.0000 C   0  0  0  0  0  0  0  0  0  0  0  0
    3.5823    4.8965    0.0000 C   0  0  0  0  0  0  0  0  0  0  0  0
    4.3472   -5.1190    0.0000 C   0  0  0  0  0  0  0  0  0  0  0  0
    5.2132   -5.6190    0.0000 C   0  0  0  0  0  0  0  0  0  0  0  0
    5.2132   -3.6190    0.0000 C   0  0  0  0  0  0  0  0  0  0  0  0
    4.3472   -4.1190    0.0000 C   0  0  0  0  0  0  0  0  0  0  0  0
    6.0793   -5.1190    0.0000 C   0  0  0  0  0  0  0  0  0  0  0  0
    6.0793   -4.1190    0.0000 C   0  0  0  0  0  0  0  0  0  0  0  0
    3.9890    5.8100    0.0000 C   0  0  0  0  0  0  0  0  0  0  0  0
    2.5878    4.7920    0.0000 C   0  0  0  0  0  0  0  0  0  0  0  0
    3.4812   -5.6190    0.0000 C   0  0  0  0  0  0  0  0  0  0  0  0
    5.2132   -2.6190    0.0000 C   0  0  0  0  0  0  0  0  0  0  0  0
    5.2132   -6.6190    0.0000 C   0  0  0  0  0  0  0  0  0  0  0  0
    3.9444    1.4514    0.0000 C   0  0  0  0  0  0  0  0  0  0  0  0
    4.5322    0.6424    0.0000 C   0  0  0  0  0  0  0  0  0  0  0  0
    3.4013    6.6190    0.0000 C   0  0  0  0  0  0  0  0  0  0  0  0
    2.0000    5.6010    0.0000 C   0  0  0  0  0  0  0  0  0  0  0  0
    2.4067    6.5145    0.0000 C   0  0  0  0  0  0  0  0  0  0  0  0
    4.7132   -1.0802    0.0000 C   0  0  0  0  0  0  0  0  0  0  0  0
    4.6841    3.7408    0.0000 H   0  0  0  0  0  0  0  0  0  0  0  0
    4.6008    4.5335    0.0000 H   0  0  0  0  0  0  0  0  0  0  0  0
    3.2494    3.5206    0.0000 H   0  0  0  0  0  0  0  0  0  0  0  0
    3.3327    2.7279    0.0000 H   0  0  0  0  0  0  0  0  0  0  0  0
    3.8103   -3.8090    0.0000 H   0  0  0  0  0  0  0  0  0  0  0  0
    4.9677    2.4297    0.0000 H   0  0  0  0  0  0  0  0  0  0  0  0
    6.6162   -5.4290    0.0000 H   0  0  0  0  0  0  0  0  0  0  0  0
    6.6162   -3.8090    0.0000 H   0  0  0  0  0  0  0  0  0  0  0  0
    4.6056    5.8748    0.0000 H   0  0  0  0  0  0  0  0  0  0  0  0
    2.3356    4.2256    0.0000 H   0  0  0  0  0  0  0  0  0  0  0  0
    3.1712   -5.0821    0.0000 H   0  0  0  0  0  0  0  0  0  0  0  0
    2.9442   -5.9290    0.0000 H   0  0  0  0  0  0  0  0  0  0  0  0
    3.7912   -6.1560    0.0000 H   0  0  0  0  0  0  0  0  0  0  0  0
    4.5932   -6.6190    0.0000 H   0  0  0  0  0  0  0  0  0  0  0  0
    5.2132   -7.2390    0.0000 H   0  0  0  0  0  0  0  0  0  0  0  0
    5.8332   -6.6190    0.0000 H   0  0  0  0  0  0  0  0  0  0  0  0
    5.0462    0.2957    0.0000 H   0  0  0  0  0  0  0  0  0  0  0  0
    4.9629    1.0883    0.0000 H   0  0  0  0  0  0  0  0  0  0  0  0
    3.6534    7.1854    0.0000 H   0  0  0  0  0  0  0  0  0  0  0  0
    1.3834    5.5362    0.0000 H   0  0  0  0  0  0  0  0  0  0  0  0
    2.0423    7.0161    0.0000 H   0  0  0  0  0  0  0  0  0  0  0  0
  1 22  1  0  0  0  0
  1 26  1  0  0  0  0
  2 19  1  0  0  0  0
  2 26  1  0  0  0  0
  3 21  2  0  0  0  0
  4  8  1  0  0  0  0
  4 21  1  0  0  0  0
  4 32  1  0  0  0  0
  5  6  1  0  0  0  0
  5 19  2  0  0  0  0
  6 26  2  0  0  0  0
  7  8  1  0  0  0  0
  7  9  1  0  0  0  0
  7 27  1  0  0  0  0
  7 28  1  0  0  0  0
  8 29  1  0  0  0  0
  8 30  1  0  0  0  0
  9 16  2  0  0  0  0
  9 17  1  0  0  0  0
 10 11  2  0  0  0  0
 10 13  1  0  0  0  0
 10 18  1  0  0  0  0
 11 14  1  0  0  0  0
 11 20  1  0  0  0  0
 12 13  2  0  0  0  0
 12 15  1  0  0  0  0
 12 19  1  0  0  0  0
 13 31  1  0  0  0  0
 14 15  2  0  0  0  0
 14 33  1  0  0  0  0
 15 34  1  0  0  0  0
 16 23  1  0  0  0  0
 16 35  1  0  0  0  0
 17 24  2  0  0  0  0
 17 36  1  0  0  0  0
 18 37  1  0  0  0  0
 18 38  1  0  0  0  0
 18 39  1  0  0  0  0
 20 40  1  0  0  0  0
 20 41  1  0  0  0  0
 20 42  1  0  0  0  0
 21 22  1  0  0  0  0
 22 43  1  0  0  0  0
 22 44  1  0  0  0  0
 23 25  2  0  0  0  0
 23 45  1  0  0  0  0
 24 25  1  0  0  0  0
 24 46  1  0  0  0  0
 25 47  1  0  0  0  0
M  END
> <PUBCHEM_COMPOUND_CID>
17396173

> <PUBCHEM_COMPOUND_CANONICALIZED>
1

> <PUBCHEM_CACTVS_COMPLEXITY>
445

> <PUBCHEM_CACTVS_HBOND_ACCEPTOR>
5

> <PUBCHEM_CACTVS_HBOND_DONOR>
1

> <PUBCHEM_CACTVS_ROTATABLE_BOND>
7

> <PUBCHEM_CACTVS_SUBSKEYS>
AAADceB7MABAAAAAAAAAAAAAAAAAAWAAAAAwYAAAAAAAAAAB0AAAHgQYAAAADADF2gSyAILABEiqAiFyEACSAABsABAaiKEoDNgIJrKAtRmMMQBk3gGIqYeYyPCOwAACAAAQAACAAAQAACAAAAAAAAAAAA==

> <PUBCHEM_IUPAC_OPENEYE_NAME>
2-[[5-(3,4-dimethylphenyl)-1,3,4-oxadiazol-2-yl]sulfanyl]-N-(2-phenylethyl)acetamide

> <PUBCHEM_IUPAC_CAS_NAME>
2-[[5-(3,4-dimethylphenyl)-1,3,4-oxadiazol-2-yl]thio]-N-(2-phenylethyl)acetamide

> <PUBCHEM_IUPAC_NAME>
2-[[5-(3,4-dimethylphenyl)-1,3,4-oxadiazol-2-yl]sulfanyl]-N-(2-phenylethyl)acetamide

> <PUBCHEM_IUPAC_SYSTEMATIC_NAME>
2-[[5-(3,4-dimethylphenyl)-1,3,4-oxadiazol-2-yl]sulfanyl]-N-(2-phenylethyl)ethanamide

> <PUBCHEM_IUPAC_TRADITIONAL_NAME>
2-[[5-(3,4-dimethylphenyl)-1,3,4-oxadiazol-2-yl]thio]-N-phenethyl-acetamide

> <PUBCHEM_IUPAC_INCHI>
InChI=1S/C20H21N3O2S/c1-14-8-9-17(12-15(14)2)19-22-23-20(25-19)26-13-18(24)21-11-10-16-6-4-3-5-7-16/h3-9,12H,10-11,13H2,1-2H3,(H,21,24)

> <PUBCHEM_IUPAC_INCHIKEY>
ZTUHWAWISMOJGH-UHFFFAOYSA-N

> <PUBCHEM_XLOGP3_AA>
4.3

> <PUBCHEM_EXACT_MASS>
367.135448

> <PUBCHEM_MOLECULAR_FORMULA>
C20H21N3O2S

> <PUBCHEM_MOLECULAR_WEIGHT>
367.46464

> <PUBCHEM_OPENEYE_CAN_SMILES>
CC1=C(C=C(C=C1)C2=NN=C(O2)SCC(=O)NCCC3=CC=CC=C3)C

> <PUBCHEM_OPENEYE_ISO_SMILES>
CC1=C(C=C(C=C1)C2=NN=C(O2)SCC(=O)NCCC3=CC=CC=C3)C

> <PUBCHEM_CACTVS_TPSA>
93.3

> <PUBCHEM_MONOISOTOPIC_WEIGHT>
367.135448

> <PUBCHEM_TOTAL_CHARGE>
0

> <PUBCHEM_HEAVY_ATOM_COUNT>
26

> <PUBCHEM_ATOM_DEF_STEREO_COUNT>
0

> <PUBCHEM_ATOM_UDEF_STEREO_COUNT>
0

> <PUBCHEM_BOND_DEF_STEREO_COUNT>
0

> <PUBCHEM_BOND_UDEF_STEREO_COUNT>
0

> <PUBCHEM_ISOTOPIC_ATOM_COUNT>
0

> <PUBCHEM_COMPONENT_COUNT>
1

> <PUBCHEM_CACTVS_TAUTO_COUNT>
2

> <PUBCHEM_COORDINATE_TYPE>
1
5
255

> <PUBCHEM_BONDANNOTATIONS>
10  11  8
10  13  8
11  14  8
12  13  8
12  15  8
14  15  8
16  23  8
17  24  8
2  19  8
2  26  8
23  25  8
24  25  8
5  19  8
5  6  8
6  26  8
9  16  8
9  17  8

$$$$

