189003
  -OEChem-07051212523D

 18 18  0     0  0  0  0  0  0999 V2000
    2.3347   -0.0849   -0.0887 S   0  0  0  0  0  0  0  0  0  0  0  0
    2.7959   -0.1492    1.4786 O   0  0  0  0  0  0  0  0  0  0  0  0
   -2.4300   -1.9148    0.0028 O   0  0  0  0  0  0  0  0  0  0  0  0
   -3.5168    0.6434    0.0469 O   0  0  0  0  0  0  0  0  0  0  0  0
    2.6149   -1.3909   -0.6675 O   0  0  0  0  0  0  0  0  0  0  0  0
    2.8956    1.1222   -0.6753 O   0  0  0  0  0  0  0  0  0  0  0  0
    0.6019    0.1265   -0.0483 C   0  0  0  0  0  0  0  0  0  0  0  0
   -0.2370   -0.9881   -0.0385 C   0  0  0  0  0  0  0  0  0  0  0  0
    0.0563    1.4101   -0.0260 C   0  0  0  0  0  0  0  0  0  0  0  0
   -1.6212   -0.8188   -0.0063 C   0  0  0  0  0  0  0  0  0  0  0  0
   -2.1665    0.4649    0.0161 C   0  0  0  0  0  0  0  0  0  0  0  0
   -1.3278    1.5794    0.0062 C   0  0  0  0  0  0  0  0  0  0  0  0
    0.1795   -1.9920   -0.0484 H   0  0  0  0  0  0  0  0  0  0  0  0
    0.6893    2.2929   -0.0252 H   0  0  0  0  0  0  0  0  0  0  0  0
   -1.7465    2.5819    0.0252 H   0  0  0  0  0  0  0  0  0  0  0  0
    2.4199   -0.8974    1.9995 H   0  0  0  0  0  0  0  0  0  0  0  0
   -1.8793   -2.7162   -0.0163 H   0  0  0  0  0  0  0  0  0  0  0  0
   -3.9409   -0.2322    0.0494 H   0  0  0  0  0  0  0  0  0  0  0  0
  1  2  1  0  0  0  0
  1  5  2  0  0  0  0
  1  6  2  0  0  0  0
  1  7  1  0  0  0  0
  2 16  1  0  0  0  0
  3 10  1  0  0  0  0
  3 17  1  0  0  0  0
  4 11  1  0  0  0  0
  4 18  1  0  0  0  0
  7  8  2  0  0  0  0
  7  9  1  0  0  0  0
  8 10  1  0  0  0  0
  8 13  1  0  0  0  0
  9 12  2  0  0  0  0
  9 14  1  0  0  0  0
 10 11  2  0  0  0  0
 11 12  1  0  0  0  0
 12 15  1  0  0  0  0
M  END
> <PUBCHEM_COMPOUND_CID>
189003

> <PUBCHEM_CONFORMER_RMSD>
0.4

> <PUBCHEM_CONFORMER_DIVERSEORDER>
1
2

> <PUBCHEM_MMFF94_PARTIAL_CHARGES>
18
1 1.49
10 0.08
11 0.08
12 -0.15
13 0.15
14 0.15
15 0.15
16 0.5
17 0.45
18 0.45
2 -0.68
3 -0.53
4 -0.53
5 -0.65
6 -0.65
7 -0.01
8 -0.15
9 -0.15

> <PUBCHEM_EFFECTIVE_ROTOR_COUNT>
1

> <PUBCHEM_PHARMACOPHORE_FEATURES>
7
1 2 acceptor
1 3 donor
1 4 donor
1 5 acceptor
1 6 acceptor
4 1 2 5 6 anion
6 7 8 9 10 11 12 rings

> <PUBCHEM_HEAVY_ATOM_COUNT>
12

> <PUBCHEM_ATOM_DEF_STEREO_COUNT>
0

> <PUBCHEM_ATOM_UDEF_STEREO_COUNT>
0

> <PUBCHEM_BOND_DEF_STEREO_COUNT>
0

> <PUBCHEM_BOND_UDEF_STEREO_COUNT>
0

> <PUBCHEM_ISOTOPIC_ATOM_COUNT>
0

> <PUBCHEM_COMPONENT_COUNT>
1

> <PUBCHEM_CACTVS_TAUTO_COUNT>
8

> <PUBCHEM_CONFORMER_ID>
0002E24B00000001

> <PUBCHEM_MMFF94_ENERGY>
19.0651

> <PUBCHEM_FEATURE_SELFOVERLAP>
35.581

> <PUBCHEM_SHAPE_FINGERPRINT>
10857977 72 18262245425626307128
12032990 46 18411128152424435235
12716758 59 18336265763920926851
12897270 3 18409158892570486756
12932764 1 17418095437931320100
14325111 11 18410852187526833501
15775835 57 17989202651029085684
16945 1 18340771545465582173
19973954 147 18409161138796203908
20201158 50 18187925135659195222
20645464 45 17749122083817427026
20871998 184 18187359888040760471
21040471 1 18194120939294676553
23402655 69 18049741886758667349
23463225 33 18341896332933762058
23552423 10 18272085006902463926
2748010 2 18193843647948454141
3248919 1 18409174311270860278
369184 2 17203611492666427561
5084963 1 18189612928925719208
7364860 26 18335419076223648308

> <PUBCHEM_SHAPE_MULTIPOLES>
221.46
4.81
1.66
0.79
0.56
0.16
-0.18
0.24
-0.1
-0.55
0.14
0.58
0.01
-0.03

> <PUBCHEM_SHAPE_SELFOVERLAP>
453.554

> <PUBCHEM_SHAPE_VOLUME>
128.3

> <PUBCHEM_COORDINATE_TYPE>
2
5
10

$$$$

