17396185
  -OEChem-06241222553D

 42 43  0     1  0  0  0  0  0999 V2000
    1.9721   -1.0853   -0.6609 O   0  0  0  0  0  0  0  0  0  0  0  0
    0.0111   -1.7102    1.0591 O   0  0  0  0  0  0  0  0  0  0  0  0
   -5.6360    1.6655    0.3763 O   0  0  0  0  0  0  0  0  0  0  0  0
    5.8365    0.9077    0.8213 O   0  0  0  0  0  0  0  0  0  0  0  0
    1.8767    1.2049   -0.7023 O   0  0  0  0  0  0  0  0  0  0  0  0
   -2.0601    0.1020   -1.2918 N   0  0  0  0  0  0  0  0  0  0  0  0
   -1.6498   -0.5180   -0.1406 C   0  0  0  0  0  0  0  0  0  0  0  0
   -2.6688   -0.4154    0.7803 C   0  0  0  0  0  0  0  0  0  0  0  0
   -3.7295    0.2909    0.1609 C   0  0  0  0  0  0  0  0  0  0  0  0
   -3.3262    0.5982   -1.1198 C   0  0  0  0  0  0  0  0  0  0  0  0
   -0.3314   -1.1604    0.0087 C   0  0  0  0  0  0  0  0  0  0  0  0
    0.6445   -1.1457   -1.1703 C   0  0  2  0  0  0  0  0  0  0  0  0
   -2.6593   -0.9438    2.1609 C   0  0  0  0  0  0  0  0  0  0  0  0
   -4.0134    1.3171   -2.2104 C   0  0  0  0  0  0  0  0  0  0  0  0
   -5.0032    0.6433    0.7219 C   0  0  0  0  0  0  0  0  0  0  0  0
    0.5324   -2.4206   -1.9908 C   0  0  0  0  0  0  0  0  0  0  0  0
   -5.6562   -0.2334    1.7900 C   0  0  0  0  0  0  0  0  0  0  0  0
    2.4911    0.1702   -0.4643 C   0  0  0  0  0  0  0  0  0  0  0  0
    3.8590    0.1577    0.0611 C   0  0  0  0  0  0  0  0  0  0  0  0
    4.6146    1.2700    0.3504 C   0  0  0  0  0  0  0  0  0  0  0  0
    4.6687   -0.9601    0.3743 C   0  0  0  0  0  0  0  0  0  0  0  0
    4.3657    2.7165    0.2532 C   0  0  0  0  0  0  0  0  0  0  0  0
    5.8614   -0.4511    0.8328 C   0  0  0  0  0  0  0  0  0  0  0  0
   -1.5291    0.1779   -2.1478 H   0  0  0  0  0  0  0  0  0  0  0  0
    0.4609   -0.2933   -1.8303 H   0  0  0  0  0  0  0  0  0  0  0  0
   -3.1823   -0.2745    2.8490 H   0  0  0  0  0  0  0  0  0  0  0  0
   -1.6506   -1.0308    2.5713 H   0  0  0  0  0  0  0  0  0  0  0  0
   -3.1265   -1.9324    2.2009 H   0  0  0  0  0  0  0  0  0  0  0  0
   -4.0917    2.3835   -1.9758 H   0  0  0  0  0  0  0  0  0  0  0  0
   -3.4787    1.2215   -3.1613 H   0  0  0  0  0  0  0  0  0  0  0  0
   -5.0235    0.9219   -2.3594 H   0  0  0  0  0  0  0  0  0  0  0  0
    0.7419   -3.3032   -1.3757 H   0  0  0  0  0  0  0  0  0  0  0  0
   -0.4698   -2.5334   -2.4157 H   0  0  0  0  0  0  0  0  0  0  0  0
    1.2637   -2.4201   -2.8061 H   0  0  0  0  0  0  0  0  0  0  0  0
   -5.3568    0.1027    2.7846 H   0  0  0  0  0  0  0  0  0  0  0  0
   -5.4041   -1.2856    1.6383 H   0  0  0  0  0  0  0  0  0  0  0  0
   -6.7439   -0.1432    1.7025 H   0  0  0  0  0  0  0  0  0  0  0  0
    4.4223   -2.0083    0.2812 H   0  0  0  0  0  0  0  0  0  0  0  0
    3.5125    3.0033    0.8758 H   0  0  0  0  0  0  0  0  0  0  0  0
    5.2326    3.2960    0.5864 H   0  0  0  0  0  0  0  0  0  0  0  0
    4.1503    3.0017   -0.7812 H   0  0  0  0  0  0  0  0  0  0  0  0
    6.7786   -0.8986    1.1867 H   0  0  0  0  0  0  0  0  0  0  0  0
  1 12  1  0  0  0  0
  1 18  1  0  0  0  0
  2 11  2  0  0  0  0
  3 15  2  0  0  0  0
  4 20  1  0  0  0  0
  4 23  1  0  0  0  0
  5 18  2  0  0  0  0
  6  7  1  0  0  0  0
  6 10  1  0  0  0  0
  6 24  1  0  0  0  0
  7  8  2  0  0  0  0
  7 11  1  0  0  0  0
  8  9  1  0  0  0  0
  8 13  1  0  0  0  0
  9 10  2  0  0  0  0
  9 15  1  0  0  0  0
 10 14  1  0  0  0  0
 11 12  1  0  0  0  0
 12 16  1  0  0  0  0
 12 25  1  0  0  0  0
 13 26  1  0  0  0  0
 13 27  1  0  0  0  0
 13 28  1  0  0  0  0
 14 29  1  0  0  0  0
 14 30  1  0  0  0  0
 14 31  1  0  0  0  0
 15 17  1  0  0  0  0
 16 32  1  0  0  0  0
 16 33  1  0  0  0  0
 16 34  1  0  0  0  0
 17 35  1  0  0  0  0
 17 36  1  0  0  0  0
 17 37  1  0  0  0  0
 18 19  1  0  0  0  0
 19 20  2  0  0  0  0
 19 21  1  0  0  0  0
 20 22  1  0  0  0  0
 21 23  2  0  0  0  0
 21 38  1  0  0  0  0
 22 39  1  0  0  0  0
 22 40  1  0  0  0  0
 22 41  1  0  0  0  0
 23 42  1  0  0  0  0
M  END
> <PUBCHEM_COMPOUND_CID>
17396185

> <PUBCHEM_CONFORMER_RMSD>
1.2

> <PUBCHEM_CONFORMER_DIVERSEORDER>
1
14
88
9
72
79
18
35
13
76
70
92
73
2
49
34
12
56
29
42
74
45
21
38
20
61
25
48
89
102
71
6
62
15
52
19
8
37
16
26
86
41
91
58
57
83
11
59
31
82
84
54
50
17
87
78
60
90
93
4
63
24
23
43
100
46
36
98
5
95
7
80
65
27
69
30
68
40
44
51
96
33
39
3
94
55
99
64
97
75
32
85
101
67
81
28
66
47
22
53
10
77

> <PUBCHEM_MMFF94_PARTIAL_CHARGES>
25
1 -0.43
10 -0.33
11 0.59
12 0.34
13 0.18
14 0.18
15 0.6
17 0.06
18 0.81
19 -0.09
2 -0.57
20 -0.04
21 -0.15
22 0.18
23 -0.01
24 0.27
3 -0.57
38 0.15
4 -0.28
42 0.15
5 -0.57
6 0.03
7 -0.24
8 -0.18
9 -0.09

> <PUBCHEM_EFFECTIVE_ROTOR_COUNT>
6

> <PUBCHEM_PHARMACOPHORE_FEATURES>
8
1 2 acceptor
1 3 acceptor
1 4 acceptor
1 5 acceptor
1 6 cation
1 6 donor
5 4 19 20 21 23 rings
5 6 7 8 9 10 rings

> <PUBCHEM_HEAVY_ATOM_COUNT>
23

> <PUBCHEM_ATOM_DEF_STEREO_COUNT>
0

> <PUBCHEM_ATOM_UDEF_STEREO_COUNT>
1

> <PUBCHEM_BOND_DEF_STEREO_COUNT>
0

> <PUBCHEM_BOND_UDEF_STEREO_COUNT>
0

> <PUBCHEM_ISOTOPIC_ATOM_COUNT>
0

> <PUBCHEM_COMPONENT_COUNT>
1

> <PUBCHEM_CACTVS_TAUTO_COUNT>
52

> <PUBCHEM_CONFORMER_ID>
010971D900000001

> <PUBCHEM_MMFF94_ENERGY>
32.9474

> <PUBCHEM_FEATURE_SELFOVERLAP>
40.594

> <PUBCHEM_SHAPE_FINGERPRINT>
10319926 262 17632854239549335153
11089746 13 17168152196438822504
12236239 1 16660644085180316343
12403259 415 18131069359121472396
12516196 113 12175619568668660966
12596602 18 15554446288652284036
12633257 1 17560793308300907629
12760667 363 10591779691791972260
12892183 10 17132125657807634934
13544653 18 10087644822884873942
13583140 156 18272938189445083354
13631057 29 17313961710400651775
13675066 3 17988927751984798358
13685833 64 10087631616113698205
14251764 30 14045467782218205104
14341114 176 17346594166928787484
15183329 4 6050454673805663563
15188451 53 16056876893382635811
15342168 16 18040709251546283117
15348495 7 18060136497044346712
16988056 13 13710432544254093857
1813 80 13183019661594628902
18222031 100 13542464233050165806
19784866 240 12391505387196037371
204376 136 18113335293254390678
20871999 31 5256407193078488791
21033648 29 18129679537975544480
21033650 10 15286175326073680506
21150785 3 17022911177302512869
21637258 2 13686302344216830208
22849339 104 14057011494727244869
22950370 63 12463573997651038662
23402539 116 16805329885573505268
235170 7 6338967654589807840
23559900 14 17344905449875484262
2767999 5 17458347446259454944
2838139 119 18040723566878385680
2871803 45 7204781380053181028
3004659 81 14563079395063830620
351380 180 18410015437930028352
351380 3 13326856630252039352
3737641 26 13685475606347418568
4259306 186 9943532907632100272
4325135 7 18334016069432812871
465052 167 12967121722800567762
474 4 17894624863936158342
5104073 3 18267314144888393890
5924683 9 17988078868652364419
7970288 3 12175623970894634304

> <PUBCHEM_SHAPE_MULTIPOLES>
439
14.14
1.96
1.77
4.73
0.24
-0.21
6.72
5.16
1.51
-0.53
-2.33
-0.39
0.99

> <PUBCHEM_SHAPE_SELFOVERLAP>
933.753

> <PUBCHEM_SHAPE_VOLUME>
247.3

> <PUBCHEM_COORDINATE_TYPE>
2
5
10

$$$$

