583075
  -OEChem-06241222443D

 55 56  0     0  0  0  0  0  0999 V2000
   -5.7065    0.8267    0.3012 C   0  0  0  0  0  0  0  0  0  0  0  0
   -6.5036    2.0645    0.5669 C   0  0  0  0  0  0  0  0  0  0  0  0
   -7.8888    1.6416    0.0549 C   0  0  0  0  0  0  0  0  0  0  0  0
   -7.6532    0.6122   -1.0606 C   0  0  0  0  0  0  0  0  0  0  0  0
   -6.3592    0.0022   -0.6229 C   0  0  0  0  0  0  0  0  0  0  0  0
    1.1779   -0.4685   -0.1300 C   0  0  0  0  0  0  0  0  0  0  0  0
    2.5648   -0.7394    0.4664 C   0  0  0  0  0  0  0  0  0  0  0  0
   -0.0118   -0.9582    0.7019 C   0  0  0  0  0  0  0  0  0  0  0  0
   -1.3724   -0.6080    0.0904 C   0  0  0  0  0  0  0  0  0  0  0  0
    3.7525   -0.1909   -0.3316 C   0  0  0  0  0  0  0  0  0  0  0  0
   -2.5481   -1.1203    0.9324 C   0  0  0  0  0  0  0  0  0  0  0  0
    5.1022   -0.4068    0.3569 C   0  0  0  0  0  0  0  0  0  0  0  0
   -3.8861   -0.7149    0.3941 C   0  0  0  0  0  0  0  0  0  0  0  0
   -4.4668    0.4841    0.8134 C   0  0  0  0  0  0  0  0  0  0  0  0
    6.2740    0.2149   -0.4119 C   0  0  0  0  0  0  0  0  0  0  0  0
   -5.7854   -1.1819   -1.0537 C   0  0  0  0  0  0  0  0  0  0  0  0
    7.6265   -0.0197    0.2689 C   0  0  0  0  0  0  0  0  0  0  0  0
   -4.5406   -1.5418   -0.5328 C   0  0  0  0  0  0  0  0  0  0  0  0
    8.7966    0.6494   -0.4578 C   0  0  0  0  0  0  0  0  0  0  0  0
   10.1486    0.3904    0.2080 C   0  0  0  0  0  0  0  0  0  0  0  0
   11.2794    1.0645   -0.5542 C   0  0  0  0  0  0  0  0  0  0  0  0
   -6.5332    2.3248    1.6285 H   0  0  0  0  0  0  0  0  0  0  0  0
   -6.1051    2.9016   -0.0153 H   0  0  0  0  0  0  0  0  0  0  0  0
   -8.4875    2.4935   -0.2823 H   0  0  0  0  0  0  0  0  0  0  0  0
   -8.4430    1.1622    0.8741 H   0  0  0  0  0  0  0  0  0  0  0  0
   -7.5294    1.1024   -2.0317 H   0  0  0  0  0  0  0  0  0  0  0  0
   -8.4663   -0.1174   -1.1084 H   0  0  0  0  0  0  0  0  0  0  0  0
    1.0737    0.6130   -0.2846 H   0  0  0  0  0  0  0  0  0  0  0  0
    1.1285   -0.9287   -1.1249 H   0  0  0  0  0  0  0  0  0  0  0  0
    2.5941   -0.3098    1.4759 H   0  0  0  0  0  0  0  0  0  0  0  0
    2.6898   -1.8226    0.5884 H   0  0  0  0  0  0  0  0  0  0  0  0
    0.0624   -2.0459    0.8231 H   0  0  0  0  0  0  0  0  0  0  0  0
    0.0525   -0.5227    1.7066 H   0  0  0  0  0  0  0  0  0  0  0  0
   -1.4358   -1.0280   -0.9214 H   0  0  0  0  0  0  0  0  0  0  0  0
   -1.4454    0.4815   -0.0194 H   0  0  0  0  0  0  0  0  0  0  0  0
    3.6023    0.8835   -0.4946 H   0  0  0  0  0  0  0  0  0  0  0  0
    3.7684   -0.6615   -1.3222 H   0  0  0  0  0  0  0  0  0  0  0  0
   -2.4984   -2.2146    1.0061 H   0  0  0  0  0  0  0  0  0  0  0  0
   -2.4484   -0.7555    1.9633 H   0  0  0  0  0  0  0  0  0  0  0  0
    5.2766   -1.4830    0.4775 H   0  0  0  0  0  0  0  0  0  0  0  0
    5.0674    0.0245    1.3649 H   0  0  0  0  0  0  0  0  0  0  0  0
    6.3041   -0.2010   -1.4263 H   0  0  0  0  0  0  0  0  0  0  0  0
    6.1038    1.2936   -0.5148 H   0  0  0  0  0  0  0  0  0  0  0  0
   -3.9630    1.1366    1.5195 H   0  0  0  0  0  0  0  0  0  0  0  0
    7.8117   -1.0988    0.3355 H   0  0  0  0  0  0  0  0  0  0  0  0
    7.5825    0.3582    1.2979 H   0  0  0  0  0  0  0  0  0  0  0  0
   -6.2840   -1.8165   -1.7784 H   0  0  0  0  0  0  0  0  0  0  0  0
   -4.0794   -2.4702   -0.8611 H   0  0  0  0  0  0  0  0  0  0  0  0
    8.8283    0.2868   -1.4928 H   0  0  0  0  0  0  0  0  0  0  0  0
    8.6172    1.7306   -0.5066 H   0  0  0  0  0  0  0  0  0  0  0  0
   10.3382   -0.6881    0.2564 H   0  0  0  0  0  0  0  0  0  0  0  0
   10.1327    0.7644    1.2381 H   0  0  0  0  0  0  0  0  0  0  0  0
   11.1340    2.1488   -0.5940 H   0  0  0  0  0  0  0  0  0  0  0  0
   11.3406    0.6875   -1.5801 H   0  0  0  0  0  0  0  0  0  0  0  0
   12.2373    0.8680   -0.0625 H   0  0  0  0  0  0  0  0  0  0  0  0
  1  2  1  0  0  0  0
  1  5  2  0  0  0  0
  1 14  1  0  0  0  0
  2  3  1  0  0  0  0
  2 22  1  0  0  0  0
  2 23  1  0  0  0  0
  3  4  1  0  0  0  0
  3 24  1  0  0  0  0
  3 25  1  0  0  0  0
  4  5  1  0  0  0  0
  4 26  1  0  0  0  0
  4 27  1  0  0  0  0
  5 16  1  0  0  0  0
  6  7  1  0  0  0  0
  6  8  1  0  0  0  0
  6 28  1  0  0  0  0
  6 29  1  0  0  0  0
  7 10  1  0  0  0  0
  7 30  1  0  0  0  0
  7 31  1  0  0  0  0
  8  9  1  0  0  0  0
  8 32  1  0  0  0  0
  8 33  1  0  0  0  0
  9 11  1  0  0  0  0
  9 34  1  0  0  0  0
  9 35  1  0  0  0  0
 10 12  1  0  0  0  0
 10 36  1  0  0  0  0
 10 37  1  0  0  0  0
 11 13  1  0  0  0  0
 11 38  1  0  0  0  0
 11 39  1  0  0  0  0
 12 15  1  0  0  0  0
 12 40  1  0  0  0  0
 12 41  1  0  0  0  0
 13 14  2  0  0  0  0
 13 18  1  0  0  0  0
 14 44  1  0  0  0  0
 15 17  1  0  0  0  0
 15 42  1  0  0  0  0
 15 43  1  0  0  0  0
 16 18  2  0  0  0  0
 16 47  1  0  0  0  0
 17 19  1  0  0  0  0
 17 45  1  0  0  0  0
 17 46  1  0  0  0  0
 18 48  1  0  0  0  0
 19 20  1  0  0  0  0
 19 49  1  0  0  0  0
 19 50  1  0  0  0  0
 20 21  1  0  0  0  0
 20 51  1  0  0  0  0
 20 52  1  0  0  0  0
 21 53  1  0  0  0  0
 21 54  1  0  0  0  0
 21 55  1  0  0  0  0
M  END
> <PUBCHEM_COMPOUND_CID>
583075

> <PUBCHEM_CONFORMER_RMSD>
1.2

> <PUBCHEM_CONFORMER_DIVERSEORDER>
1
6
81
147
101
51
97
5
76
162
122
2
165
77
128
19
117
17
61
114
74
94
68
48
151
41
130
89
115
30
9
43
42
174
56
108
60
171
8
31
173
164
24
62
86
99
4
7
15
172
28
111
158
63
155
166
156
33
73
54
57
23
157
102
118
160
39
131
175
148
36
78
98
82
143
34
14
107
137
55
18
32
45
37
12
121
10
72
71
69
26
161
21
123
112
11
141
85
46
49
95
170
129
168
138
149
159
163
88
132
100
126
134
27
65
35
44
13
83
20
127
38
29
47
125
109
124
105
16
142
22
144
3
52
96
177
25
133
87
50
106
91
79
90
145
120
59
40
80
167
92
70
75
150
116
169
58
67
119
110
64
152
93
66
113
53
176
154
153
104
139
103
136
146
135
84
140

> <PUBCHEM_MMFF94_PARTIAL_CHARGES>
12
1 -0.14
11 0.14
13 -0.14
14 -0.15
16 -0.15
18 -0.15
2 0.14
4 0.14
44 0.15
47 0.15
48 0.15
5 -0.14

> <PUBCHEM_EFFECTIVE_ROTOR_COUNT>
11.6

> <PUBCHEM_PHARMACOPHORE_FEATURES>
3
1 21 hydrophobe
5 1 2 3 4 5 rings
6 1 5 13 14 16 18 rings

> <PUBCHEM_HEAVY_ATOM_COUNT>
21

> <PUBCHEM_ATOM_DEF_STEREO_COUNT>
0

> <PUBCHEM_ATOM_UDEF_STEREO_COUNT>
0

> <PUBCHEM_BOND_DEF_STEREO_COUNT>
0

> <PUBCHEM_BOND_UDEF_STEREO_COUNT>
0

> <PUBCHEM_ISOTOPIC_ATOM_COUNT>
0

> <PUBCHEM_COMPONENT_COUNT>
1

> <PUBCHEM_CACTVS_TAUTO_COUNT>
1

> <PUBCHEM_CONFORMER_ID>
0008E5A300000001

> <PUBCHEM_MMFF94_ENERGY>
24.0773

> <PUBCHEM_FEATURE_SELFOVERLAP>
15.306

> <PUBCHEM_SHAPE_FINGERPRINT>
11315181 36 17603301549339444643
12089408 11 18060703867305144250
12091667 2 18408039598592708499
12498461 61 9943805565600783944
13553643 46 17418096495422502844
14202775 3 8070036580245638092
14251764 46 15430034353520222190
14344974 52 18114468868172494657
14428016 248 17988638580838358172
14617042 71 17059485225078792756
14729087 3 18343584048848631513
15061470 23 18409449156358910520
15152005 1 15434011132797190823
15183329 4 18113338643523865563
15274700 256 18059850651040928289
15461852 350 17895196571264619022
155225 1 18343021116571373701
15690457 1 7204775883112135984
17093844 174 17918270940082180451
1754911 235 18186519896028366276
1818759 1 9583522027932964304
195137 175 18410290324326595904
21095086 128 7565345328157154084
21095123 145 12463565180067460082
21150785 3 16515405174592932442
21267235 1 7997969072726312882
21360442 43 18263085422847383247
21360443 89 14764335004783076889
21362267 2 17168721735363499448
21362267 313 18340492266509455146
232437 2 8862947178738992100
23528940 14 10951758665066205985
23559900 14 17313117345599723851
246663 6 8358259250650007114
4073 2 18343298180459046427
5758199 1 18060421326343172610
636775 72 18341893013019689333
636775 8 14851610951676351701
67123 10 17240201015884756206
9953998 17 12967127225349947237
9980921 7 18130510847252234261

> <PUBCHEM_SHAPE_MULTIPOLES>
432.17
38.08
1.46
0.94
92.58
0.33
-0.05
18.37
-6.93
-2.88
0.06
-0.87
-0.06
-1.14

> <PUBCHEM_SHAPE_SELFOVERLAP>
855.581

> <PUBCHEM_SHAPE_VOLUME>
250.6

> <PUBCHEM_COORDINATE_TYPE>
2
5
10

$$$$

