10924
  -OEChem-06261205073D

 17 16  0     0  0  0  0  0  0999 V2000
    3.2735   -0.2732   -0.2211 I   0  0  0  0  0  0  0  0  0  0  0  0
   -1.1671   -0.0331    0.3272 C   0  0  0  0  0  0  0  0  0  0  0  0
    0.2460   -0.5006   -0.0714 C   0  0  0  0  0  0  0  0  0  0  0  0
   -1.4455    1.3475   -0.2726 C   0  0  0  0  0  0  0  0  0  0  0  0
   -2.2535   -1.0152   -0.1135 C   0  0  0  0  0  0  0  0  0  0  0  0
    1.3466    0.4746    0.3514 C   0  0  0  0  0  0  0  0  0  0  0  0
   -1.2139    0.0512    1.4204 H   0  0  0  0  0  0  0  0  0  0  0  0
    0.4300   -1.4825    0.3839 H   0  0  0  0  0  0  0  0  0  0  0  0
    0.2844   -0.6528   -1.1582 H   0  0  0  0  0  0  0  0  0  0  0  0
   -0.8309    2.1238    0.1925 H   0  0  0  0  0  0  0  0  0  0  0  0
   -2.4893    1.6366   -0.1056 H   0  0  0  0  0  0  0  0  0  0  0  0
   -1.2652    1.3600   -1.3529 H   0  0  0  0  0  0  0  0  0  0  0  0
   -2.0766   -2.0049    0.3202 H   0  0  0  0  0  0  0  0  0  0  0  0
   -2.2728   -1.1217   -1.2034 H   0  0  0  0  0  0  0  0  0  0  0  0
   -3.2426   -0.6778    0.2136 H   0  0  0  0  0  0  0  0  0  0  0  0
    1.2203    1.4490   -0.1290 H   0  0  0  0  0  0  0  0  0  0  0  0
    1.3198    0.6293    1.4354 H   0  0  0  0  0  0  0  0  0  0  0  0
  1  6  1  0  0  0  0
  2  3  1  0  0  0  0
  2  4  1  0  0  0  0
  2  5  1  0  0  0  0
  2  7  1  0  0  0  0
  3  6  1  0  0  0  0
  3  8  1  0  0  0  0
  3  9  1  0  0  0  0
  4 10  1  0  0  0  0
  4 11  1  0  0  0  0
  4 12  1  0  0  0  0
  5 13  1  0  0  0  0
  5 14  1  0  0  0  0
  5 15  1  0  0  0  0
  6 16  1  0  0  0  0
  6 17  1  0  0  0  0
M  END
> <PUBCHEM_COMPOUND_CID>
10924

> <PUBCHEM_CONFORMER_RMSD>
0.4

> <PUBCHEM_CONFORMER_DIVERSEORDER>
1
2

> <PUBCHEM_MMFF94_PARTIAL_CHARGES>
2
1 -0.19
6 0.19

> <PUBCHEM_EFFECTIVE_ROTOR_COUNT>
2

> <PUBCHEM_PHARMACOPHORE_FEATURES>
2
1 1 hydrophobe
3 2 4 5 hydrophobe

> <PUBCHEM_HEAVY_ATOM_COUNT>
6

> <PUBCHEM_ATOM_DEF_STEREO_COUNT>
0

> <PUBCHEM_ATOM_UDEF_STEREO_COUNT>
0

> <PUBCHEM_BOND_DEF_STEREO_COUNT>
0

> <PUBCHEM_BOND_UDEF_STEREO_COUNT>
0

> <PUBCHEM_ISOTOPIC_ATOM_COUNT>
0

> <PUBCHEM_COMPONENT_COUNT>
1

> <PUBCHEM_CACTVS_TAUTO_COUNT>
1

> <PUBCHEM_CONFORMER_ID>
00002AAC00000001

> <PUBCHEM_MMFF94_ENERGY>
4.3445

> <PUBCHEM_FEATURE_SELFOVERLAP>
10.149

> <PUBCHEM_SHAPE_FINGERPRINT>
12932741 1 18040729073126374080
12932764 1 18408601474693146154
14325111 11 18410855482167455214
14390081 3 18342177782504665768
16714656 1 18410854339168168798
21040471 1 18124041388281946377
23552423 10 18201435947579293186
29004967 10 16660357087086574898
3248919 1 17132110247786788882
5460574 1 9799695891829601010

> <PUBCHEM_SHAPE_MULTIPOLES>
135.41
4.74
1.19
0.73
3.35
0.16
-0.02
-0.72
-0.43
-0.67
-0.09
0.15
0.01
0.11

> <PUBCHEM_SHAPE_SELFOVERLAP>
214.693

> <PUBCHEM_SHAPE_VOLUME>
99.1

> <PUBCHEM_COORDINATE_TYPE>
2
5
10

$$$$

