5281610
  -OEChem-07051212583D

 31 33  0     0  0  0  0  0  0999 V2000
    0.0377    0.9295   -0.1184 O   0  0  0  0  0  0  0  0  0  0  0  0
    1.2809   -2.5406   -0.0922 O   0  0  0  0  0  0  0  0  0  0  0  0
   -3.9093   -1.8788    0.0333 O   0  0  0  0  0  0  0  0  0  0  0  0
   -1.4822   -2.8500   -0.0189 O   0  0  0  0  0  0  0  0  0  0  0  0
   -4.3006    2.8530   -0.0147 O   0  0  0  0  0  0  0  0  0  0  0  0
    2.4407    0.2358    2.2141 O   0  0  0  0  0  0  0  0  0  0  0  0
   -1.9009   -0.5292   -0.0437 C   0  0  0  0  0  0  0  0  0  0  0  0
   -1.3189    0.7360   -0.0769 C   0  0  0  0  0  0  0  0  0  0  0  0
    0.8641   -0.1830   -0.1400 C   0  0  0  0  0  0  0  0  0  0  0  0
    2.2954    0.1650   -0.1837 C   0  0  0  0  0  0  0  0  0  0  0  0
   -1.0289   -1.7138   -0.0526 C   0  0  0  0  0  0  0  0  0  0  0  0
    0.4305   -1.4562   -0.1028 C   0  0  0  0  0  0  0  0  0  0  0  0
   -3.2907   -0.6658   -0.0007 C   0  0  0  0  0  0  0  0  0  0  0  0
   -2.1243    1.8751   -0.0668 C   0  0  0  0  0  0  0  0  0  0  0  0
   -3.5123    1.7431   -0.0243 C   0  0  0  0  0  0  0  0  0  0  0  0
   -4.0941    0.4751    0.0086 C   0  0  0  0  0  0  0  0  0  0  0  0
    3.0272    0.3606    0.9894 C   0  0  0  0  0  0  0  0  0  0  0  0
    2.9227    0.3000   -1.4237 C   0  0  0  0  0  0  0  0  0  0  0  0
    4.3810    0.6902    0.9224 C   0  0  0  0  0  0  0  0  0  0  0  0
    4.2764    0.6295   -1.4906 C   0  0  0  0  0  0  0  0  0  0  0  0
    5.0055    0.8247   -0.3176 C   0  0  0  0  0  0  0  0  0  0  0  0
   -1.6733    2.8640   -0.0922 H   0  0  0  0  0  0  0  0  0  0  0  0
   -5.1761    0.3704    0.0419 H   0  0  0  0  0  0  0  0  0  0  0  0
    2.3689    0.1521   -2.3478 H   0  0  0  0  0  0  0  0  0  0  0  0
    4.9619    0.8452    1.8277 H   0  0  0  0  0  0  0  0  0  0  0  0
    4.7629    0.7342   -2.4559 H   0  0  0  0  0  0  0  0  0  0  0  0
    6.0595    1.0813   -0.3700 H   0  0  0  0  0  0  0  0  0  0  0  0
    2.2024   -2.2374   -0.1240 H   0  0  0  0  0  0  0  0  0  0  0  0
   -3.2560   -2.5947    0.0187 H   0  0  0  0  0  0  0  0  0  0  0  0
   -5.2329    2.5775    0.0161 H   0  0  0  0  0  0  0  0  0  0  0  0
    3.1042    0.4074    2.9041 H   0  0  0  0  0  0  0  0  0  0  0  0
  1  8  1  0  0  0  0
  1  9  1  0  0  0  0
  2 12  1  0  0  0  0
  2 28  1  0  0  0  0
  3 13  1  0  0  0  0
  3 29  1  0  0  0  0
  4 11  2  0  0  0  0
  5 15  1  0  0  0  0
  5 30  1  0  0  0  0
  6 17  1  0  0  0  0
  6 31  1  0  0  0  0
  7  8  1  0  0  0  0
  7 11  1  0  0  0  0
  7 13  2  0  0  0  0
  8 14  2  0  0  0  0
  9 10  1  0  0  0  0
  9 12  2  0  0  0  0
 10 17  1  0  0  0  0
 10 18  2  0  0  0  0
 11 12  1  0  0  0  0
 13 16  1  0  0  0  0
 14 15  1  0  0  0  0
 14 22  1  0  0  0  0
 15 16  2  0  0  0  0
 16 23  1  0  0  0  0
 17 19  2  0  0  0  0
 18 20  1  0  0  0  0
 18 24  1  0  0  0  0
 19 21  1  0  0  0  0
 19 25  1  0  0  0  0
 20 21  2  0  0  0  0
 20 26  1  0  0  0  0
 21 27  1  0  0  0  0
M  END
> <PUBCHEM_COMPOUND_CID>
5281610

> <PUBCHEM_CONFORMER_RMSD>
0.6

> <PUBCHEM_CONFORMER_DIVERSEORDER>
1
3
4
2

> <PUBCHEM_MMFF94_PARTIAL_CHARGES>
31
1 -0.16
10 0.03
11 0.47
12 0.09
13 0.08
14 -0.15
15 0.08
16 -0.15
17 0.08
18 -0.15
19 -0.15
2 -0.53
20 -0.15
21 -0.15
22 0.15
23 0.15
24 0.15
25 0.15
26 0.15
27 0.15
28 0.45
29 0.45
3 -0.53
30 0.45
31 0.45
4 -0.57
5 -0.53
6 -0.53
7 0.09
8 0.08
9 0.05

> <PUBCHEM_EFFECTIVE_ROTOR_COUNT>
1

> <PUBCHEM_PHARMACOPHORE_FEATURES>
9
1 1 acceptor
1 2 donor
1 3 donor
1 4 acceptor
1 5 donor
1 6 donor
6 1 7 8 9 11 12 rings
6 10 17 18 19 20 21 rings
6 7 8 13 14 15 16 rings

> <PUBCHEM_HEAVY_ATOM_COUNT>
21

> <PUBCHEM_ATOM_DEF_STEREO_COUNT>
0

> <PUBCHEM_ATOM_UDEF_STEREO_COUNT>
0

> <PUBCHEM_BOND_DEF_STEREO_COUNT>
0

> <PUBCHEM_BOND_UDEF_STEREO_COUNT>
0

> <PUBCHEM_ISOTOPIC_ATOM_COUNT>
0

> <PUBCHEM_COMPONENT_COUNT>
1

> <PUBCHEM_CACTVS_TAUTO_COUNT>
162

> <PUBCHEM_CONFORMER_ID>
0050974A00000001

> <PUBCHEM_MMFF94_ENERGY>
64.319

> <PUBCHEM_FEATURE_SELFOVERLAP>
45.697

> <PUBCHEM_SHAPE_FINGERPRINT>
10319926 262 18263101958966039624
10411042 1 17690277114826737951
10498660 4 18408603694680100352
10646746 165 18335422365757094856
12173636 292 18337956800273102653
12236239 1 17775288227676726556
12390115 104 18189319308098364129
12403259 415 18040716939722567216
12403814 3 17418097620059764301
12788726 201 17771900528487097843
13140716 1 17979914913343351211
13538477 17 17987801791806105650
13965767 371 17916310617981763276
14341114 328 17418371398159863048
15042514 8 18195522589377890011
15196674 1 18410854399297853903
15536298 74 18336262465323051966
16752209 62 18339929220711290827
16945 1 18338238167812411399
1813 80 17130442396422978074
18186145 218 17676485055483119865
200 152 15913337853029972285
20510252 161 18333447625530242497
20645477 70 16515671257140058532
20691752 17 17417525933916359886
21033648 29 17603876588992899160
21065201 7 18334294232588778974
22182313 1 18264186132770274471
2334 1 17618222802343491695
23366157 5 17986952058154549290
23402539 116 18336834103973876542
23493267 7 18059282210663568170
23557571 272 18187917352983139756
23559900 14 18261104223420941180
2748010 2 18266732657613672343
3268164 11 18261682488874344709
350125 39 18051690237629604404
4028521 119 18040714787759361233
469060 322 18268408188985788049
474 4 17489863830567924340
495365 180 17458918140292196246
4990 188 17821723953454575076
5104073 3 18339358668576053155
5265222 85 18263354799696669198
633830 44 18040723575420957924
7097593 13 17772775967655233386
7364860 26 18045503268446847910
77492 1 17632020745764593542
7808743 9 18411980226633688860
9981440 41 18342455945698030315

> <PUBCHEM_SHAPE_MULTIPOLES>
396.95
9.31
2.37
1.09
2.85
0.71
-0.23
-4.24
0.4
-2.96
0.07
1.59
-0.18
-0.03

> <PUBCHEM_SHAPE_SELFOVERLAP>
890.744

> <PUBCHEM_SHAPE_VOLUME>
208.2

> <PUBCHEM_COORDINATE_TYPE>
2
5
10

$$$$

