3769
  -OEChem-06251223393D

 24 24  0     0  0  0  0  0  0999 V2000
   -4.0956   -0.1034    0.0679 S   0  0  0  0  0  0  0  0  0  0  0  0
   -4.7038   -1.4302    0.7940 O   0  0  0  0  0  0  0  0  0  0  0  0
   -4.5478   -0.0772   -1.3080 O   0  0  0  0  0  0  0  0  0  0  0  0
   -4.2654    1.0301    0.9538 O   0  0  0  0  0  0  0  0  0  0  0  0
    0.5175    1.8719    0.3775 O   0  0  0  0  0  0  0  0  0  0  0  0
   -1.5213    0.3103   -0.6480 N   0  0  0  0  0  0  0  0  0  0  0  0
   -0.2024   -0.1127   -0.5845 N   0  0  0  0  0  0  0  0  0  0  0  0
    4.7131   -0.7691    0.1002 N   0  0  0  0  0  0  0  0  0  0  0  0
   -2.3787   -0.6029    0.1011 C   0  0  0  0  0  0  0  0  0  0  0  0
    2.1336    0.2146    0.0007 C   0  0  0  0  0  0  0  0  0  0  0  0
    0.7456    0.7439   -0.0531 C   0  0  0  0  0  0  0  0  0  0  0  0
    3.1849    1.0991   -0.0353 C   0  0  0  0  0  0  0  0  0  0  0  0
    2.3248   -1.1438    0.0846 C   0  0  0  0  0  0  0  0  0  0  0  0
    4.4585    0.5560    0.0173 C   0  0  0  0  0  0  0  0  0  0  0  0
    3.6370   -1.5865    0.1316 C   0  0  0  0  0  0  0  0  0  0  0  0
   -2.0842   -0.6449    1.1554 H   0  0  0  0  0  0  0  0  0  0  0  0
   -2.3339   -1.6098   -0.3292 H   0  0  0  0  0  0  0  0  0  0  0  0
   -1.7892    0.2961   -1.6316 H   0  0  0  0  0  0  0  0  0  0  0  0
    0.0176   -1.0140   -0.9957 H   0  0  0  0  0  0  0  0  0  0  0  0
    3.0512    2.1723   -0.1063 H   0  0  0  0  0  0  0  0  0  0  0  0
    1.5239   -1.8702    0.1451 H   0  0  0  0  0  0  0  0  0  0  0  0
    5.3359    1.1938   -0.0080 H   0  0  0  0  0  0  0  0  0  0  0  0
    3.8639   -2.6450    0.2057 H   0  0  0  0  0  0  0  0  0  0  0  0
   -4.7043   -2.2510    0.2475 H   0  0  0  0  0  0  0  0  0  0  0  0
  1  2  1  0  0  0  0
  1  3  2  0  0  0  0
  1  4  2  0  0  0  0
  1  9  1  0  0  0  0
  2 24  1  0  0  0  0
  5 11  2  0  0  0  0
  6  7  1  0  0  0  0
  6  9  1  0  0  0  0
  6 18  1  0  0  0  0
  7 11  1  0  0  0  0
  7 19  1  0  0  0  0
  8 14  2  0  0  0  0
  8 15  1  0  0  0  0
  9 16  1  0  0  0  0
  9 17  1  0  0  0  0
 10 11  1  0  0  0  0
 10 12  2  0  0  0  0
 10 13  1  0  0  0  0
 12 14  1  0  0  0  0
 12 20  1  0  0  0  0
 13 15  2  0  0  0  0
 13 21  1  0  0  0  0
 14 22  1  0  0  0  0
 15 23  1  0  0  0  0
M  END
> <PUBCHEM_COMPOUND_CID>
3769

> <PUBCHEM_CONFORMER_RMSD>
0.6

> <PUBCHEM_CONFORMER_DIVERSEORDER>
1
14
15
4
11
12
6
3
7
5
2
13
9
10
8

> <PUBCHEM_MMFF94_PARTIAL_CHARGES>
22
1 1.38
10 0.09
11 0.54
12 -0.15
13 -0.15
14 0.16
15 0.16
18 0.36
19 0.37
2 -0.68
20 0.15
21 0.15
22 0.15
23 0.15
24 0.5
3 -0.65
4 -0.65
5 -0.57
6 -0.64
7 -0.42
8 -0.62
9 0.38

> <PUBCHEM_EFFECTIVE_ROTOR_COUNT>
5

> <PUBCHEM_PHARMACOPHORE_FEATURES>
9
1 2 acceptor
1 3 acceptor
1 4 acceptor
1 5 acceptor
1 6 donor
1 7 donor
1 8 acceptor
4 1 2 3 4 anion
6 8 10 12 13 14 15 rings

> <PUBCHEM_HEAVY_ATOM_COUNT>
15

> <PUBCHEM_ATOM_DEF_STEREO_COUNT>
0

> <PUBCHEM_ATOM_UDEF_STEREO_COUNT>
0

> <PUBCHEM_BOND_DEF_STEREO_COUNT>
0

> <PUBCHEM_BOND_UDEF_STEREO_COUNT>
0

> <PUBCHEM_ISOTOPIC_ATOM_COUNT>
0

> <PUBCHEM_COMPONENT_COUNT>
1

> <PUBCHEM_CACTVS_TAUTO_COUNT>
3

> <PUBCHEM_CONFORMER_ID>
00000EB900000001

> <PUBCHEM_MMFF94_ENERGY>
28.865

> <PUBCHEM_FEATURE_SELFOVERLAP>
47.208

> <PUBCHEM_SHAPE_FINGERPRINT>
10680689 15 16988843882740278077
11287383 113 17060335193603232428
11471102 20 18411704275026599284
124424 183 18410014338639927181
13167823 11 18333452019392809271
13675066 3 18113057142407877721
14123238 8 18410012126135566831
14252887 29 18040990765589383358
15375462 189 18334864909045759098
17834072 33 18335423422107981815
17834074 16 18273214183811409083
200 152 18333450949681792729
20281475 54 18412262796562763935
20432913 95 18343860022072599411
20645477 70 18411984688883131046
22485316 2 18131636685720570419
23402539 116 17603590738051051389
23402655 69 18409730647270168310
23557571 272 16773808038303895740
26918003 58 18343587347610413698
2871803 45 18201442523163530854
33824 294 18342460352882997786
42 15 18411696599545462381
4214541 1 18412544331932929521
5104073 3 18408886252061916817
77779 3 18413387644097188757

> <PUBCHEM_SHAPE_MULTIPOLES>
274.12
11.19
1.45
0.81
6.94
0.04
-0.07
2.16
0.7
-0.67
0.24
0.81
-0.02
0.01

> <PUBCHEM_SHAPE_SELFOVERLAP>
550.377

> <PUBCHEM_SHAPE_VOLUME>
161.6

> <PUBCHEM_COORDINATE_TYPE>
2
5
10

$$$$

