5281170
  -OEChem-07051212553D

 35 35  0     1  0  0  0  0  0999 V2000
    0.9579   -0.4236   -0.3699 O   0  0  0  0  0  0  0  0  0  0  0  0
   -4.0056    1.4460   -0.3809 O   0  0  0  0  0  0  0  0  0  0  0  0
    0.2011   -1.4735    1.5448 O   0  0  0  0  0  0  0  0  0  0  0  0
    1.5658    0.6593    0.3787 C   0  0  1  0  0  0  0  0  0  0  0  0
    2.9497    0.9054   -0.2062 C   0  0  0  0  0  0  0  0  0  0  0  0
    0.6718    1.9085    0.2339 C   0  0  0  0  0  0  0  0  0  0  0  0
   -3.1331   -0.7930   -0.5871 C   0  0  0  0  0  0  0  0  0  0  0  0
   -2.2454   -1.9356   -0.0596 C   0  0  0  0  0  0  0  0  0  0  0  0
   -2.9688    0.5828    0.0871 C   0  0  1  0  0  0  0  0  0  0  0  0
   -0.8068   -1.9749   -0.5948 C   0  0  0  0  0  0  0  0  0  0  0  0
    3.8284   -0.3386   -0.1015 C   0  0  0  0  0  0  0  0  0  0  0  0
   -0.7390    1.5833    0.6429 C   0  0  0  0  0  0  0  0  0  0  0  0
   -1.6677    1.2327   -0.2607 C   0  0  0  0  0  0  0  0  0  0  0  0
    0.1724   -1.2946    0.3337 C   0  0  0  0  0  0  0  0  0  0  0  0
    5.2192   -0.0842   -0.6604 C   0  0  0  0  0  0  0  0  0  0  0  0
    1.6654    0.3937    1.4389 H   0  0  0  0  0  0  0  0  0  0  0  0
    3.4276    1.7451    0.3125 H   0  0  0  0  0  0  0  0  0  0  0  0
    2.8622    1.1803   -1.2651 H   0  0  0  0  0  0  0  0  0  0  0  0
    0.6827    2.2545   -0.8078 H   0  0  0  0  0  0  0  0  0  0  0  0
    1.0547    2.7304    0.8488 H   0  0  0  0  0  0  0  0  0  0  0  0
   -3.0181   -0.6988   -1.6752 H   0  0  0  0  0  0  0  0  0  0  0  0
   -4.1783   -1.1022   -0.4454 H   0  0  0  0  0  0  0  0  0  0  0  0
   -2.7238   -2.8701   -0.3825 H   0  0  0  0  0  0  0  0  0  0  0  0
   -2.2704   -1.9453    1.0361 H   0  0  0  0  0  0  0  0  0  0  0  0
   -3.0873    0.4834    1.1722 H   0  0  0  0  0  0  0  0  0  0  0  0
   -0.7554   -1.5375   -1.5977 H   0  0  0  0  0  0  0  0  0  0  0  0
   -0.4708   -3.0152   -0.6807 H   0  0  0  0  0  0  0  0  0  0  0  0
    3.3797   -1.1748   -0.6494 H   0  0  0  0  0  0  0  0  0  0  0  0
    3.9146   -0.6469    0.9470 H   0  0  0  0  0  0  0  0  0  0  0  0
   -0.9409    1.4761    1.7049 H   0  0  0  0  0  0  0  0  0  0  0  0
   -1.4299    1.3080   -1.3200 H   0  0  0  0  0  0  0  0  0  0  0  0
    5.1724    0.1943   -1.7181 H   0  0  0  0  0  0  0  0  0  0  0  0
    5.7205    0.7213   -0.1143 H   0  0  0  0  0  0  0  0  0  0  0  0
    5.8333   -0.9861   -0.5737 H   0  0  0  0  0  0  0  0  0  0  0  0
   -4.8555    1.0536   -0.1173 H   0  0  0  0  0  0  0  0  0  0  0  0
  1  4  1  0  0  0  0
  1 14  1  0  0  0  0
  2  9  1  0  0  0  0
  2 35  1  0  0  0  0
  3 14  2  0  0  0  0
  4  5  1  0  0  0  0
  4  6  1  0  0  0  0
  4 16  1  0  0  0  0
  5 11  1  0  0  0  0
  5 17  1  0  0  0  0
  5 18  1  0  0  0  0
  6 12  1  0  0  0  0
  6 19  1  0  0  0  0
  6 20  1  0  0  0  0
  7  8  1  0  0  0  0
  7  9  1  0  0  0  0
  7 21  1  0  0  0  0
  7 22  1  0  0  0  0
  8 10  1  0  0  0  0
  8 23  1  0  0  0  0
  8 24  1  0  0  0  0
  9 13  1  0  0  0  0
  9 25  1  0  0  0  0
 10 14  1  0  0  0  0
 10 26  1  0  0  0  0
 10 27  1  0  0  0  0
 11 15  1  0  0  0  0
 11 28  1  0  0  0  0
 11 29  1  0  0  0  0
 12 13  2  0  0  0  0
 12 30  1  0  0  0  0
 13 31  1  0  0  0  0
 15 32  1  0  0  0  0
 15 33  1  0  0  0  0
 15 34  1  0  0  0  0
M  END
> <PUBCHEM_COMPOUND_CID>
5281170

> <PUBCHEM_CONFORMER_RMSD>
0.6

> <PUBCHEM_CONFORMER_DIVERSEORDER>
1
6
2
4
3
5

> <PUBCHEM_MMFF94_PARTIAL_CHARGES>
13
1 -0.43
10 0.06
12 -0.29
13 -0.29
14 0.66
2 -0.68
3 -0.57
30 0.15
31 0.15
35 0.4
4 0.28
6 0.14
9 0.42

> <PUBCHEM_EFFECTIVE_ROTOR_COUNT>
3.4

> <PUBCHEM_PHARMACOPHORE_FEATURES>
4
1 15 hydrophobe
1 2 acceptor
1 2 donor
1 3 acceptor

> <PUBCHEM_HEAVY_ATOM_COUNT>
15

> <PUBCHEM_ATOM_DEF_STEREO_COUNT>
1

> <PUBCHEM_ATOM_UDEF_STEREO_COUNT>
1

> <PUBCHEM_BOND_DEF_STEREO_COUNT>
1

> <PUBCHEM_BOND_UDEF_STEREO_COUNT>
0

> <PUBCHEM_ISOTOPIC_ATOM_COUNT>
0

> <PUBCHEM_COMPONENT_COUNT>
1

> <PUBCHEM_CACTVS_TAUTO_COUNT>
1

> <PUBCHEM_CONFORMER_ID>
0050959200000001

> <PUBCHEM_MMFF94_ENERGY>
22.7061

> <PUBCHEM_FEATURE_SELFOVERLAP>
20.297

> <PUBCHEM_SHAPE_FINGERPRINT>
10062212 137 18411145735677900594
10756046 5 18197486343151928236
11132069 177 18408892823562481904
11458722 379 18410854373818129014
11680986 33 18117844304804454072
12119455 92 14405188357094686928
12715332 25 18187079529407276471
14911166 2 18408045125661626525
14993402 34 18060698394852164436
15196674 1 18336547118549018845
15219456 202 17968947366523870344
15775835 57 18272090530283011157
16945 1 18120381964592447851
17834072 14 18114748136121558136
18186145 218 18202010893302395916
18511873 20 18341613698463451244
200 152 15936405659084816350
20645476 183 17704349953006936482
20871999 31 18342171125405538572
21501502 16 18192990418193090020
22802520 49 18122059797571499403
23402539 116 18260554437178434524
23419403 2 16951702280610763834
23559900 14 18333453128190632352
2748010 2 18121229683799581537
69090 78 18261114080022706014
8809292 202 18410291372034800354

> <PUBCHEM_SHAPE_MULTIPOLES>
291.09
7.2
2.19
0.87
6.69
0.18
-0.18
-0.3
2.07
-1.39
-0.11
0.04
0.19
0.03

> <PUBCHEM_SHAPE_SELFOVERLAP>
566.714

> <PUBCHEM_SHAPE_VOLUME>
173.6

> <PUBCHEM_COORDINATE_TYPE>
2
5
10

$$$$

