17395420
  -OEChem-06241222503D

 32 33  0     0  0  0  0  0  0999 V2000
    4.6929   -2.0045   -0.8884 Br  0  0  0  0  0  0  0  0  0  0  0  0
    4.9482    1.0322   -0.2162 O   0  0  0  0  0  0  0  0  0  0  0  0
   -0.5633   -1.9598    0.4443 O   0  0  0  0  0  0  0  0  0  0  0  0
   -1.3285    0.2160   -0.0112 N   0  0  0  0  0  0  0  0  0  0  0  0
   -3.1818   -1.2000    0.2957 N   0  0  0  0  0  0  0  0  0  0  0  0
    1.0289   -0.3055    0.0898 C   0  0  0  0  0  0  0  0  0  0  0  0
   -2.7151    0.0364    0.0109 C   0  0  0  0  0  0  0  0  0  0  0  0
   -3.5249    1.1279   -0.2590 C   0  0  0  0  0  0  0  0  0  0  0  0
   -0.3476   -0.7618    0.2003 C   0  0  0  0  0  0  0  0  0  0  0  0
    2.0336   -1.2000   -0.2790 C   0  0  0  0  0  0  0  0  0  0  0  0
    1.3441    1.0277    0.3529 C   0  0  0  0  0  0  0  0  0  0  0  0
    3.6686    0.5718   -0.1219 C   0  0  0  0  0  0  0  0  0  0  0  0
    3.3536   -0.7615   -0.3848 C   0  0  0  0  0  0  0  0  0  0  0  0
    2.6639    1.4663    0.2471 C   0  0  0  0  0  0  0  0  0  0  0  0
   -4.9021    0.9384   -0.2350 C   0  0  0  0  0  0  0  0  0  0  0  0
   -2.9734    2.4776   -0.5704 C   0  0  0  0  0  0  0  0  0  0  0  0
   -5.4203   -0.3192    0.0539 C   0  0  0  0  0  0  0  0  0  0  0  0
   -4.5258   -1.3460    0.3097 C   0  0  0  0  0  0  0  0  0  0  0  0
    5.7490    0.9640    0.9615 C   0  0  0  0  0  0  0  0  0  0  0  0
   -1.0159    1.1460   -0.2656 H   0  0  0  0  0  0  0  0  0  0  0  0
    1.7912   -2.2392   -0.4904 H   0  0  0  0  0  0  0  0  0  0  0  0
    0.6063    1.7527    0.6834 H   0  0  0  0  0  0  0  0  0  0  0  0
    2.9032    2.5045    0.4615 H   0  0  0  0  0  0  0  0  0  0  0  0
   -5.5847    1.7588   -0.4392 H   0  0  0  0  0  0  0  0  0  0  0  0
   -2.3692    2.8521    0.2627 H   0  0  0  0  0  0  0  0  0  0  0  0
   -2.3665    2.4476   -1.4815 H   0  0  0  0  0  0  0  0  0  0  0  0
   -3.7710    3.2095   -0.7407 H   0  0  0  0  0  0  0  0  0  0  0  0
   -6.4904   -0.4904    0.0780 H   0  0  0  0  0  0  0  0  0  0  0  0
   -4.8789   -2.3457    0.5402 H   0  0  0  0  0  0  0  0  0  0  0  0
    6.7751    1.2304    0.6936 H   0  0  0  0  0  0  0  0  0  0  0  0
    5.7495   -0.0438    1.3880 H   0  0  0  0  0  0  0  0  0  0  0  0
    5.3853    1.6808    1.7044 H   0  0  0  0  0  0  0  0  0  0  0  0
  1 13  1  0  0  0  0
  2 12  1  0  0  0  0
  2 19  1  0  0  0  0
  3  9  2  0  0  0  0
  4  7  1  0  0  0  0
  4  9  1  0  0  0  0
  4 20  1  0  0  0  0
  5  7  1  0  0  0  0
  5 18  2  0  0  0  0
  6  9  1  0  0  0  0
  6 10  2  0  0  0  0
  6 11  1  0  0  0  0
  7  8  2  0  0  0  0
  8 15  1  0  0  0  0
  8 16  1  0  0  0  0
 10 13  1  0  0  0  0
 10 21  1  0  0  0  0
 11 14  2  0  0  0  0
 11 22  1  0  0  0  0
 12 13  2  0  0  0  0
 12 14  1  0  0  0  0
 14 23  1  0  0  0  0
 15 17  2  0  0  0  0
 15 24  1  0  0  0  0
 16 25  1  0  0  0  0
 16 26  1  0  0  0  0
 16 27  1  0  0  0  0
 17 18  1  0  0  0  0
 17 28  1  0  0  0  0
 18 29  1  0  0  0  0
 19 30  1  0  0  0  0
 19 31  1  0  0  0  0
 19 32  1  0  0  0  0
M  END
> <PUBCHEM_COMPOUND_CID>
17395420

> <PUBCHEM_CONFORMER_RMSD>
0.6

> <PUBCHEM_CONFORMER_DIVERSEORDER>
1
30
37
32
27
14
10
24
29
19
31
21
3
13
28
15
36
17
9
18
35
8
16
34
26
33
22
2
25
12
6
23
20
4
7
11
5

> <PUBCHEM_MMFF94_PARTIAL_CHARGES>
26
1 -0.11
10 -0.15
11 -0.15
12 0.08
13 0.11
14 -0.15
15 -0.15
16 0.14
17 -0.15
18 0.16
19 0.28
2 -0.36
20 0.37
21 0.15
22 0.15
23 0.15
24 0.15
28 0.15
29 0.15
3 -0.57
4 -0.55
5 -0.62
6 0.09
7 0.43
8 -0.14
9 0.54

> <PUBCHEM_EFFECTIVE_ROTOR_COUNT>
4

> <PUBCHEM_PHARMACOPHORE_FEATURES>
7
1 1 hydrophobe
1 2 acceptor
1 3 acceptor
1 4 donor
1 5 acceptor
6 5 7 8 15 17 18 rings
6 6 10 11 12 13 14 rings

> <PUBCHEM_HEAVY_ATOM_COUNT>
19

> <PUBCHEM_ATOM_DEF_STEREO_COUNT>
0

> <PUBCHEM_ATOM_UDEF_STEREO_COUNT>
0

> <PUBCHEM_BOND_DEF_STEREO_COUNT>
0

> <PUBCHEM_BOND_UDEF_STEREO_COUNT>
0

> <PUBCHEM_ISOTOPIC_ATOM_COUNT>
0

> <PUBCHEM_COMPONENT_COUNT>
1

> <PUBCHEM_CACTVS_TAUTO_COUNT>
3

> <PUBCHEM_CONFORMER_ID>
01096EDC00000001

> <PUBCHEM_MMFF94_ENERGY>
66.5533

> <PUBCHEM_FEATURE_SELFOVERLAP>
35.526

> <PUBCHEM_SHAPE_FINGERPRINT>
10 15 18340215068740435808
10498660 4 18131075982367699021
11128504 68 14779548955033148984
11471102 20 18334574655292948054
12107183 9 17552935326198636481
12236239 1 14707202210442453688
12403259 415 18341049713169860029
12507560 40 18408041831447818004
12916748 109 18343579646512499305
13073987 5 18113613516803383440
13081056 2 18411135852973664997
13533116 47 17603583063071327714
14251764 18 17988932146200624496
14341114 176 18411130359879356853
14573314 32 18412822508200528022
15196674 1 18410009970062140108
15788980 27 17749393697401695446
15961568 22 17988355980153526804
17844677 252 18336256937763243972
18186145 218 18335977666041348763
200 152 17748826319653359971
20645477 56 18336550430016081960
20645477 70 17967807293330589070
21267235 1 18337662100738795719
21279426 13 18265331896932041916
221357 26 18335421296305125917
22393880 68 18269837695134287950
23402539 116 18341057319757219367
23402655 69 18187364332930712077
23557571 272 18411128173524881677
23559900 14 18410857676336567835
2916195 48 18335991878362775864
3004659 81 18342452686614164278
34934 24 18260554386108357486
351380 180 18412263926139227525
3545911 37 18333730196039910018
4028521 119 18201445809187993981
4072396 5 18334305262607835090
4214541 1 18410854408246432613
495365 180 17603877667820662706
4990 188 18336260236372136438
5104073 3 18410009982962763162
5281201 14 18409442605051156892
542803 24 14405183980317277399
633830 44 18413112779054333791
77779 3 18410008849370899599
90127 26 18200864162672136536
9709674 26 18339636750523577739

> <PUBCHEM_SHAPE_MULTIPOLES>
375.25
13.2
2.09
0.78
0.15
0.07
0.02
0.68
0.14
-0.4
0.2
-0.41
-0.01
1.52

> <PUBCHEM_SHAPE_SELFOVERLAP>
787.577

> <PUBCHEM_SHAPE_VOLUME>
217.5

> <PUBCHEM_COORDINATE_TYPE>
2
5
10

$$$$

