73620
  -OEChem-07051212553D

 41 45  0     1  0  0  0  0  0999 V2000
   -1.9768    0.4780   -2.5561 O   0  0  0  0  0  0  0  0  0  0  0  0
   -4.6228   -1.3342    0.5191 O   0  0  0  0  0  0  0  0  0  0  0  0
    4.0163   -1.8395   -0.3416 O   0  0  0  0  0  0  0  0  0  0  0  0
    4.8266    0.1744    0.7029 O   0  0  0  0  0  0  0  0  0  0  0  0
   -1.0788    2.0455    0.3742 N   0  0  2  0  0  0  0  0  0  0  0  0
   -0.7079   -0.1101   -0.5030 C   0  0  1  0  0  0  0  0  0  0  0  0
   -1.4402    0.6365    0.6438 C   0  0  2  0  0  0  0  0  0  0  0  0
   -0.8855    0.8443   -1.7176 C   0  0  2  0  0  0  0  0  0  0  0  0
   -1.2070    2.2068   -1.0913 C   0  0  0  0  0  0  0  0  0  0  0  0
   -2.9520    0.3912    0.6736 C   0  0  0  0  0  0  0  0  0  0  0  0
    0.7940   -0.0721   -0.1449 C   0  0  0  0  0  0  0  0  0  0  0  0
    0.3260    2.2511    0.8090 C   0  0  0  0  0  0  0  0  0  0  0  0
   -1.2828   -1.4898   -0.7280 C   0  0  0  0  0  0  0  0  0  0  0  0
    1.2865    1.1257    0.4615 C   0  0  0  0  0  0  0  0  0  0  0  0
   -3.2421   -1.1083    0.7917 C   0  0  2  0  0  0  0  0  0  0  0  0
   -2.4015   -1.9373   -0.1367 C   0  0  0  0  0  0  0  0  0  0  0  0
    1.6904   -1.1090   -0.4467 C   0  0  0  0  0  0  0  0  0  0  0  0
    2.6459    1.2632    0.7776 C   0  0  0  0  0  0  0  0  0  0  0  0
    3.0220   -0.9350   -0.1217 C   0  0  0  0  0  0  0  0  0  0  0  0
    3.4858    0.2146    0.4723 C   0  0  0  0  0  0  0  0  0  0  0  0
   -5.4523   -0.5664    1.3782 C   0  0  0  0  0  0  0  0  0  0  0  0
    5.1563   -1.1297    0.1838 C   0  0  0  0  0  0  0  0  0  0  0  0
   -1.0671    0.3274    1.6332 H   0  0  0  0  0  0  0  0  0  0  0  0
    0.0082    0.8965   -2.3500 H   0  0  0  0  0  0  0  0  0  0  0  0
   -0.5444    2.9905   -1.4776 H   0  0  0  0  0  0  0  0  0  0  0  0
   -2.2276    2.5312   -1.3277 H   0  0  0  0  0  0  0  0  0  0  0  0
   -3.4651    0.8160   -0.1955 H   0  0  0  0  0  0  0  0  0  0  0  0
   -3.3619    0.9295    1.5384 H   0  0  0  0  0  0  0  0  0  0  0  0
    0.3189    2.3544    1.9021 H   0  0  0  0  0  0  0  0  0  0  0  0
    0.7045    3.2008    0.4108 H   0  0  0  0  0  0  0  0  0  0  0  0
   -0.7837   -2.1533   -1.4291 H   0  0  0  0  0  0  0  0  0  0  0  0
   -3.0318   -1.4525    1.8130 H   0  0  0  0  0  0  0  0  0  0  0  0
   -2.7314   -2.9519   -0.3439 H   0  0  0  0  0  0  0  0  0  0  0  0
    1.3754   -2.0266   -0.9287 H   0  0  0  0  0  0  0  0  0  0  0  0
   -2.7908    0.4400   -2.0313 H   0  0  0  0  0  0  0  0  0  0  0  0
    3.0248    2.1640    1.2483 H   0  0  0  0  0  0  0  0  0  0  0  0
   -6.4605   -0.9891    1.3285 H   0  0  0  0  0  0  0  0  0  0  0  0
   -5.5242    0.4708    1.0387 H   0  0  0  0  0  0  0  0  0  0  0  0
   -5.1199   -0.6171    2.4202 H   0  0  0  0  0  0  0  0  0  0  0  0
    5.8960   -1.0123   -0.6165 H   0  0  0  0  0  0  0  0  0  0  0  0
    5.6005   -1.7261    0.9890 H   0  0  0  0  0  0  0  0  0  0  0  0
  1  8  1  0  0  0  0
  1 35  1  0  0  0  0
  2 15  1  0  0  0  0
  2 21  1  0  0  0  0
  3 19  1  0  0  0  0
  3 22  1  0  0  0  0
  4 20  1  0  0  0  0
  4 22  1  0  0  0  0
  5  7  1  0  0  0  0
  5  9  1  0  0  0  0
  5 12  1  0  0  0  0
  6  7  1  0  0  0  0
  6  8  1  0  0  0  0
  6 11  1  0  0  0  0
  6 13  1  0  0  0  0
  7 10  1  0  0  0  0
  7 23  1  0  0  0  0
  8  9  1  0  0  0  0
  8 24  1  0  0  0  0
  9 25  1  0  0  0  0
  9 26  1  0  0  0  0
 10 15  1  0  0  0  0
 10 27  1  0  0  0  0
 10 28  1  0  0  0  0
 11 14  1  0  0  0  0
 11 17  2  0  0  0  0
 12 14  1  0  0  0  0
 12 29  1  0  0  0  0
 12 30  1  0  0  0  0
 13 16  2  0  0  0  0
 13 31  1  0  0  0  0
 14 18  2  0  0  0  0
 15 16  1  0  0  0  0
 15 32  1  0  0  0  0
 16 33  1  0  0  0  0
 17 19  1  0  0  0  0
 17 34  1  0  0  0  0
 18 20  1  0  0  0  0
 18 36  1  0  0  0  0
 19 20  2  0  0  0  0
 21 37  1  0  0  0  0
 21 38  1  0  0  0  0
 21 39  1  0  0  0  0
 22 40  1  0  0  0  0
 22 41  1  0  0  0  0
M  END
> <PUBCHEM_COMPOUND_CID>
73620

> <PUBCHEM_CONFORMER_RMSD>
0.6

> <PUBCHEM_CONFORMER_DIVERSEORDER>
1

> <PUBCHEM_MMFF94_PARTIAL_CHARGES>
26
1 -0.68
11 -0.14
12 0.41
13 -0.29
14 -0.14
15 0.42
16 -0.29
17 -0.15
18 -0.15
19 0.08
2 -0.56
20 0.08
21 0.28
22 0.56
3 -0.36
31 0.15
33 0.15
34 0.15
35 0.4
36 0.15
4 -0.36
5 -0.81
6 0.28
7 0.27
8 0.28
9 0.27

> <PUBCHEM_EFFECTIVE_ROTOR_COUNT>
2.6

> <PUBCHEM_PHARMACOPHORE_FEATURES>
10
1 1 acceptor
1 1 donor
1 2 acceptor
1 3 acceptor
1 4 acceptor
1 5 cation
5 3 4 19 20 22 rings
6 11 14 17 18 19 20 rings
6 6 7 10 13 15 16 rings
8 5 6 7 8 9 11 12 14 rings

> <PUBCHEM_HEAVY_ATOM_COUNT>
22

> <PUBCHEM_ATOM_DEF_STEREO_COUNT>
4

> <PUBCHEM_ATOM_UDEF_STEREO_COUNT>
0

> <PUBCHEM_BOND_DEF_STEREO_COUNT>
0

> <PUBCHEM_BOND_UDEF_STEREO_COUNT>
0

> <PUBCHEM_ISOTOPIC_ATOM_COUNT>
0

> <PUBCHEM_COMPONENT_COUNT>
1

> <PUBCHEM_CACTVS_TAUTO_COUNT>
1

> <PUBCHEM_CONFORMER_ID>
00011F9400000001

> <PUBCHEM_MMFF94_ENERGY>
75.8524

> <PUBCHEM_FEATURE_SELFOVERLAP>
50.936

> <PUBCHEM_SHAPE_FINGERPRINT>
10764073 3 17682096009902728925
11578080 2 18059306378334403548
12011746 2 18335985341659518677
12236239 1 14476968895181431370
12251169 10 18113614556248817771
12403814 3 18202845448065248876
12553582 1 18187654608954905582
12592029 89 9727366709455566821
12633257 1 18041269998313662187
12714826 92 17988652899404481543
12788726 201 15841563997965432205
13140716 1 18189898612886347826
13544653 18 18342170034188452699
14223421 5 18264203793496245894
14251764 30 16916777445317625027
14790565 3 17472696932006875832
15209289 33 18343579642365654250
15375462 478 17675918777299367737
15527383 91 18334009458633774841
15885798 251 18412822469493022739
16752209 62 16200163092234580897
16945 1 18115869599037260833
17357779 13 18200050459901568575
17980427 23 17240751896769573713
1813 80 17775563104940131573
19141452 34 18260547788558932651
200 152 17677069987158342069
21267235 1 18334847343035895290
21330990 113 18271519905491979311
21521721 280 10519979366806478863
21637258 2 16988844930522752051
22182313 1 18127715784301421996
2297311 6 18262222413814241918
23184049 59 18261104145879700123
23227448 37 6843621513948382419
23402539 116 17894632556997785699
23419403 2 18270696263798395021
23557571 272 17703517618615867364
23559900 14 18118412980629678250
23845131 108 17399502919972040985
2748010 2 18261693518540517684
350125 39 18409444770136874832
3759504 43 17982178017242291605
4325135 7 18201149971940885220
465052 167 18337379453542059483
5104073 3 18189060957573449626
6786 2 16765654257599178197
83771 10 18341611503529389200
9709674 26 17970353826800981222

> <PUBCHEM_SHAPE_MULTIPOLES>
424.29
8.77
2.15
1.36
2.14
0.51
-0.72
-4.8
3.56
-0.19
-0.07
-1.11
0.36
0.79

> <PUBCHEM_SHAPE_SELFOVERLAP>
954.042

> <PUBCHEM_SHAPE_VOLUME>
224

> <PUBCHEM_COORDINATE_TYPE>
2
5
10

$$$$

