3157
  -OEChem-07051212523D

 58 62  0     1  0  0  0  0  0999 V2000
   -5.6026    0.7423   -0.3960 O   0  0  0  0  0  0  0  0  0  0  0  0
   -5.5986   -1.6991    1.1399 O   0  0  0  0  0  0  0  0  0  0  0  0
   -4.1539    2.4656    0.8658 O   0  0  0  0  0  0  0  0  0  0  0  0
    6.6164   -2.8595    0.3965 O   0  0  0  0  0  0  0  0  0  0  0  0
    8.1007   -0.6681   -0.4494 O   0  0  0  0  0  0  0  0  0  0  0  0
   -2.2207    1.2290    0.5006 N   0  0  0  0  0  0  0  0  0  0  0  0
    0.6514    1.0362    0.1966 N   0  0  0  0  0  0  0  0  0  0  0  0
    2.6320   -0.2548    0.2616 N   0  0  0  0  0  0  0  0  0  0  0  0
    2.6931    2.0605   -0.4035 N   0  0  0  0  0  0  0  0  0  0  0  0
    4.7252    3.0847   -1.0017 N   0  0  0  0  0  0  0  0  0  0  0  0
   -1.5690   -0.0311    0.1365 C   0  0  0  0  0  0  0  0  0  0  0  0
   -1.3383    2.3522    0.8054 C   0  0  0  0  0  0  0  0  0  0  0  0
   -0.1290   -0.1206    0.6425 C   0  0  0  0  0  0  0  0  0  0  0  0
   -0.0507    2.3053   -0.0143 C   0  0  0  0  0  0  0  0  0  0  0  0
   -3.6037    1.4053    0.5594 C   0  0  0  0  0  0  0  0  0  0  0  0
   -4.4353    0.2108    0.2295 C   0  0  1  0  0  0  0  0  0  0  0  0
    2.0293    0.9470    0.0129 C   0  0  0  0  0  0  0  0  0  0  0  0
   -4.8085   -0.5571    1.4831 C   0  0  0  0  0  0  0  0  0  0  0  0
   -6.5990   -0.1951   -0.4876 C   0  0  0  0  0  0  0  0  0  0  0  0
    3.9620   -0.3482    0.0868 C   0  0  0  0  0  0  0  0  0  0  0  0
   -6.5912   -1.3833    0.2485 C   0  0  0  0  0  0  0  0  0  0  0  0
    4.7242    0.7515   -0.3402 C   0  0  0  0  0  0  0  0  0  0  0  0
    4.0231    1.9323   -0.5686 C   0  0  0  0  0  0  0  0  0  0  0  0
    4.6285   -1.5476    0.3257 C   0  0  0  0  0  0  0  0  0  0  0  0
   -7.6561    0.0833   -1.3543 C   0  0  0  0  0  0  0  0  0  0  0  0
    6.1142    0.6420   -0.5197 C   0  0  0  0  0  0  0  0  0  0  0  0
   -7.6183   -2.3128    0.0851 C   0  0  0  0  0  0  0  0  0  0  0  0
    6.0105   -1.6644    0.1495 C   0  0  0  0  0  0  0  0  0  0  0  0
    6.7544   -0.5686   -0.2735 C   0  0  0  0  0  0  0  0  0  0  0  0
   -8.6898   -0.8411   -1.5065 C   0  0  0  0  0  0  0  0  0  0  0  0
   -8.6681   -2.0396   -0.7921 C   0  0  0  0  0  0  0  0  0  0  0  0
    6.7311   -3.7771   -0.6719 C   0  0  0  0  0  0  0  0  0  0  0  0
    8.9368   -0.3800    0.6533 C   0  0  0  0  0  0  0  0  0  0  0  0
   -1.5889   -0.0920   -0.9585 H   0  0  0  0  0  0  0  0  0  0  0  0
   -2.1305   -0.8820    0.5302 H   0  0  0  0  0  0  0  0  0  0  0  0
   -1.1127    2.2965    1.8775 H   0  0  0  0  0  0  0  0  0  0  0  0
   -1.8603    3.2990    0.6307 H   0  0  0  0  0  0  0  0  0  0  0  0
   -0.1134   -0.1599    1.7384 H   0  0  0  0  0  0  0  0  0  0  0  0
    0.2949   -1.0601    0.2691 H   0  0  0  0  0  0  0  0  0  0  0  0
   -0.2753    2.4164   -1.0820 H   0  0  0  0  0  0  0  0  0  0  0  0
    0.5676    3.1577    0.2910 H   0  0  0  0  0  0  0  0  0  0  0  0
   -3.9546   -0.4300   -0.5170 H   0  0  0  0  0  0  0  0  0  0  0  0
   -3.9210   -0.9147    2.0147 H   0  0  0  0  0  0  0  0  0  0  0  0
   -5.3812    0.0618    2.1869 H   0  0  0  0  0  0  0  0  0  0  0  0
    4.0621   -2.4162    0.6585 H   0  0  0  0  0  0  0  0  0  0  0  0
   -7.6764    1.0102   -1.9210 H   0  0  0  0  0  0  0  0  0  0  0  0
    6.7189    1.4789   -0.8584 H   0  0  0  0  0  0  0  0  0  0  0  0
   -7.6141   -3.2447    0.6439 H   0  0  0  0  0  0  0  0  0  0  0  0
   -9.5107   -0.6297   -2.1856 H   0  0  0  0  0  0  0  0  0  0  0  0
   -9.4724   -2.7590   -0.9160 H   0  0  0  0  0  0  0  0  0  0  0  0
    4.1563    3.9050   -1.1774 H   0  0  0  0  0  0  0  0  0  0  0  0
    5.6526    3.2518   -0.6323 H   0  0  0  0  0  0  0  0  0  0  0  0
    7.2422   -4.6726   -0.3076 H   0  0  0  0  0  0  0  0  0  0  0  0
    7.3208   -3.3507   -1.4898 H   0  0  0  0  0  0  0  0  0  0  0  0
    5.7422   -4.0684   -1.0402 H   0  0  0  0  0  0  0  0  0  0  0  0
    8.7325   -1.0617    1.4852 H   0  0  0  0  0  0  0  0  0  0  0  0
    8.8024    0.6560    0.9807 H   0  0  0  0  0  0  0  0  0  0  0  0
    9.9774   -0.5133    0.3445 H   0  0  0  0  0  0  0  0  0  0  0  0
  1 16  1  0  0  0  0
  1 19  1  0  0  0  0
  2 18  1  0  0  0  0
  2 21  1  0  0  0  0
  3 15  2  0  0  0  0
  4 28  1  0  0  0  0
  4 32  1  0  0  0  0
  5 29  1  0  0  0  0
  5 33  1  0  0  0  0
  6 11  1  0  0  0  0
  6 12  1  0  0  0  0
  6 15  1  0  0  0  0
  7 13  1  0  0  0  0
  7 14  1  0  0  0  0
  7 17  1  0  0  0  0
  8 17  2  0  0  0  0
  8 20  1  0  0  0  0
  9 17  1  0  0  0  0
  9 23  2  0  0  0  0
 10 23  1  0  0  0  0
 10 51  1  0  0  0  0
 10 52  1  0  0  0  0
 11 13  1  0  0  0  0
 11 34  1  0  0  0  0
 11 35  1  0  0  0  0
 12 14  1  0  0  0  0
 12 36  1  0  0  0  0
 12 37  1  0  0  0  0
 13 38  1  0  0  0  0
 13 39  1  0  0  0  0
 14 40  1  0  0  0  0
 14 41  1  0  0  0  0
 15 16  1  0  0  0  0
 16 18  1  0  0  0  0
 16 42  1  0  0  0  0
 18 43  1  0  0  0  0
 18 44  1  0  0  0  0
 19 21  1  0  0  0  0
 19 25  2  0  0  0  0
 20 22  1  0  0  0  0
 20 24  2  0  0  0  0
 21 27  2  0  0  0  0
 22 23  1  0  0  0  0
 22 26  2  0  0  0  0
 24 28  1  0  0  0  0
 24 45  1  0  0  0  0
 25 30  1  0  0  0  0
 25 46  1  0  0  0  0
 26 29  1  0  0  0  0
 26 47  1  0  0  0  0
 27 31  1  0  0  0  0
 27 48  1  0  0  0  0
 28 29  2  0  0  0  0
 30 31  2  0  0  0  0
 30 49  1  0  0  0  0
 31 50  1  0  0  0  0
 32 53  1  0  0  0  0
 32 54  1  0  0  0  0
 32 55  1  0  0  0  0
 33 56  1  0  0  0  0
 33 57  1  0  0  0  0
 33 58  1  0  0  0  0
M  END
> <PUBCHEM_COMPOUND_CID>
3157

> <PUBCHEM_CONFORMER_RMSD>
1

> <PUBCHEM_CONFORMER_DIVERSEORDER>
1
27
99
111
113
120
93
100
30
91
10
38
36
23
37
48
34
25
84
92
5
52
6
62
110
53
39
83
117
115
101
69
89
95
12
79
107
65
61
18
80
15
66
94
3
17
119
54
59
21
31
112
104
64
88
118
60
73
22
50
40
56
96
32
76
42
35
20
97
26
77
19
2
106
78
108
13
70
41
109
90
75
9
24
86
103
114
98
74
47
14
43
71
85
45
87
16
67
58
4
68
82
8
105
102
29
116
63
72
11
55
46
44
28
57
49
33
81
51
7

> <PUBCHEM_MMFF94_PARTIAL_CHARGES>
40
1 -0.36
10 -0.9
11 0.3
12 0.3
13 0.37
14 0.37
15 0.57
16 0.34
17 0.72
18 0.28
19 0.08
2 -0.36
20 0.31
21 0.08
23 0.41
24 -0.15
25 -0.15
26 -0.15
27 -0.15
28 0.08
29 0.08
3 -0.57
30 -0.15
31 -0.15
32 0.28
33 0.28
4 -0.36
45 0.15
46 0.15
47 0.15
48 0.15
49 0.15
5 -0.36
50 0.15
51 0.4
52 0.4
6 -0.66
7 -0.84
8 -0.62
9 -0.62

> <PUBCHEM_EFFECTIVE_ROTOR_COUNT>
7

> <PUBCHEM_PHARMACOPHORE_FEATURES>
12
1 1 acceptor
1 10 donor
1 2 acceptor
1 3 acceptor
1 4 acceptor
1 5 acceptor
4 7 8 9 17 cation
6 1 2 16 18 19 21 rings
6 19 21 25 27 30 31 rings
6 20 22 24 26 28 29 rings
6 6 7 11 12 13 14 rings
6 8 9 17 20 22 23 rings

> <PUBCHEM_HEAVY_ATOM_COUNT>
33

> <PUBCHEM_ATOM_DEF_STEREO_COUNT>
0

> <PUBCHEM_ATOM_UDEF_STEREO_COUNT>
1

> <PUBCHEM_BOND_DEF_STEREO_COUNT>
0

> <PUBCHEM_BOND_UDEF_STEREO_COUNT>
0

> <PUBCHEM_ISOTOPIC_ATOM_COUNT>
0

> <PUBCHEM_COMPONENT_COUNT>
1

> <PUBCHEM_CACTVS_TAUTO_COUNT>
3

> <PUBCHEM_CONFORMER_ID>
00000C5500000001

> <PUBCHEM_MMFF94_ENERGY>
139.7442

> <PUBCHEM_FEATURE_SELFOVERLAP>
60.983

> <PUBCHEM_SHAPE_FINGERPRINT>
10 15 7637405138266357477
10066227 49 18410857672522174799
10162869 55 18343584028323399964
10391435 84 18271528585088239155
10930396 42 4678820554887534275
11135609 99 18335702702319578670
11135926 11 18272087223833628235
11386260 185 17346594136932946556
11410812 94 16916516950728660636
11456790 92 6627478363636744382
11672396 167 18268152135742108554
12082328 90 18410298038578645645
12124843 1 18130516232824159935
12539765 74 11743840287168142504
13008946 170 18267583508058472876
13782708 43 18260264174345305648
13811026 1 18342459231268305169
14178184 131 17968662593324299263
14931854 50 17917714613005376427
150020 25 17918278632479351103
15064986 266 18059850667867752289
15183329 4 17632583751547575041
15198563 99 16773521078575282317
15320294 125 17604154748734743581
15519825 34 14996296773612975285
1577012 14 18336535088377862544
15979999 66 18131350786785998061
16126227 98 9943803396652127913
18603816 31 17458353992818581039
19301676 85 18343580733562141363
19841028 212 18340772654021442770
20028762 73 18337107964501760762
2026 5 18336264639004414783
21130935 74 18115587201127930530
21197605 99 18260828241945668798
212700 22 18411423907656494699
21585482 111 8430052948886741187
21585483 132 18199476622096185194
21792961 116 18059856148187532291
22149856 69 16588568894856555339
22956985 138 17098597257847465390
23081809 10 18261101968342162217
23389318 12 18342451526830355356
23522609 53 17972564811319783873
23559900 14 18198628740492397761
23576562 1 15553590787391619527
249057 25 18337095830807887896
25025965 108 17968393320428778343
3004659 81 18131635568928957377
335352 9 18271802416151920468
3383291 50 18334294249394608675
3504750 166 18190735543352009553
3633792 109 17989207049002049021
3918712 181 11455304191799167182
397830 11 6843923897548589317
406291 66 18334858350335740871
42767 28 17918274238490210379
439807 62 18408602548556464841
44880568 143 17203895150009232933
4516262 110 18127405654084018108
4756088 132 17476926126437923218
504579 68 17704076196445042443
54039377 194 18334012800160717710
5470011 282 18130505241454093317
5718773 13 18408604790001801131
6081469 158 17704356575714521447
6201320 82 14475866142215156991
6328613 192 10159696889452840215
9555976 147 17750219477927087369
9689198 14 8646772213869238069
9953998 17 5833992772427613447
9962374 69 18335430028131621366

> <PUBCHEM_SHAPE_MULTIPOLES>
624.87
30.41
3.1
1.03
12.28
0.74
-0.04
21.81
-6.55
-3.21
-0.23
1.38
0.02
-1.03

> <PUBCHEM_SHAPE_SELFOVERLAP>
1370.598

> <PUBCHEM_SHAPE_VOLUME>
334.4

> <PUBCHEM_COORDINATE_TYPE>
2
5
10

$$$$

