3003768
  -OEChem-07051213063D

 36 38  0     0  0  0  0  0  0999 V2000
   -0.3495    1.8178   -1.1955 N   0  0  0  0  0  0  0  0  0  0  0  0
    0.9465   -3.5060   -0.0030 N   0  0  0  0  0  0  0  0  0  0  0  0
    0.5739   -0.0165    0.0076 C   0  0  0  0  0  0  0  0  0  0  0  0
    2.0569   -0.0945    0.0051 C   0  0  0  0  0  0  0  0  0  0  0  0
   -0.1857   -1.1602    0.0026 C   0  0  0  0  0  0  0  0  0  0  0  0
   -0.0962    1.3089    0.0162 C   0  0  0  0  0  0  0  0  0  0  0  0
   -1.6402   -1.1427    0.0014 C   0  0  0  0  0  0  0  0  0  0  0  0
    2.7246   -0.1366    1.2119 C   0  0  0  0  0  0  0  0  0  0  0  0
    2.7213   -0.1231   -1.2039 C   0  0  0  0  0  0  0  0  0  0  0  0
   -0.3928    1.8917    1.2206 C   0  0  0  0  0  0  0  0  0  0  0  0
   -2.3386   -1.1381    1.2088 C   0  0  0  0  0  0  0  0  0  0  0  0
   -2.3366   -1.1302   -1.2071 C   0  0  0  0  0  0  0  0  0  0  0  0
    4.1175   -0.2104    1.2098 C   0  0  0  0  0  0  0  0  0  0  0  0
    4.1142   -0.1970   -1.2061 C   0  0  0  0  0  0  0  0  0  0  0  0
    4.8123   -0.2406    0.0007 C   0  0  0  0  0  0  0  0  0  0  0  0
   -3.7334   -1.1209    1.2078 C   0  0  0  0  0  0  0  0  0  0  0  0
   -3.7314   -1.1128   -1.2082 C   0  0  0  0  0  0  0  0  0  0  0  0
   -1.0183    3.1328    1.1786 C   0  0  0  0  0  0  0  0  0  0  0  0
   -4.4297   -1.1082   -0.0007 C   0  0  0  0  0  0  0  0  0  0  0  0
   -0.9580    3.0250   -1.1966 C   0  0  0  0  0  0  0  0  0  0  0  0
    0.4531   -2.4555   -0.0008 C   0  0  0  0  0  0  0  0  0  0  0  0
   -1.3099    3.7171   -0.0490 C   0  0  0  0  0  0  0  0  0  0  0  0
    2.1942   -0.1153    2.1599 H   0  0  0  0  0  0  0  0  0  0  0  0
    2.1879   -0.0896   -2.1498 H   0  0  0  0  0  0  0  0  0  0  0  0
   -0.1611    1.4271    2.1724 H   0  0  0  0  0  0  0  0  0  0  0  0
   -1.8112   -1.1482    2.1598 H   0  0  0  0  0  0  0  0  0  0  0  0
   -1.8074   -1.1329   -2.1571 H   0  0  0  0  0  0  0  0  0  0  0  0
    4.6611   -0.2449    2.1495 H   0  0  0  0  0  0  0  0  0  0  0  0
    4.6554   -0.2206   -2.1476 H   0  0  0  0  0  0  0  0  0  0  0  0
    5.8968   -0.2982   -0.0011 H   0  0  0  0  0  0  0  0  0  0  0  0
   -4.2772   -1.1170    2.1479 H   0  0  0  0  0  0  0  0  0  0  0  0
   -4.2737   -1.1025   -2.1491 H   0  0  0  0  0  0  0  0  0  0  0  0
   -1.2784    3.6435    2.1009 H   0  0  0  0  0  0  0  0  0  0  0  0
   -5.5157   -1.0945   -0.0015 H   0  0  0  0  0  0  0  0  0  0  0  0
   -1.1638    3.4372   -2.1790 H   0  0  0  0  0  0  0  0  0  0  0  0
   -1.7973    4.6836   -0.1057 H   0  0  0  0  0  0  0  0  0  0  0  0
  1  6  1  0  0  0  0
  1 20  2  0  0  0  0
  2 21  3  0  0  0  0
  3  4  1  0  0  0  0
  3  5  2  0  0  0  0
  3  6  1  0  0  0  0
  4  8  2  0  0  0  0
  4  9  1  0  0  0  0
  5  7  1  0  0  0  0
  5 21  1  0  0  0  0
  6 10  2  0  0  0  0
  7 11  2  0  0  0  0
  7 12  1  0  0  0  0
  8 13  1  0  0  0  0
  8 23  1  0  0  0  0
  9 14  2  0  0  0  0
  9 24  1  0  0  0  0
 10 18  1  0  0  0  0
 10 25  1  0  0  0  0
 11 16  1  0  0  0  0
 11 26  1  0  0  0  0
 12 17  2  0  0  0  0
 12 27  1  0  0  0  0
 13 15  2  0  0  0  0
 13 28  1  0  0  0  0
 14 15  1  0  0  0  0
 14 29  1  0  0  0  0
 15 30  1  0  0  0  0
 16 19  2  0  0  0  0
 16 31  1  0  0  0  0
 17 19  1  0  0  0  0
 17 32  1  0  0  0  0
 18 22  2  0  0  0  0
 18 33  1  0  0  0  0
 19 34  1  0  0  0  0
 20 22  1  0  0  0  0
 20 35  1  0  0  0  0
 22 36  1  0  0  0  0
M  END
> <PUBCHEM_COMPOUND_CID>
3003768

> <PUBCHEM_CONFORMER_RMSD>
0.6

> <PUBCHEM_CONFORMER_DIVERSEORDER>
1
3
2

> <PUBCHEM_MMFF94_PARTIAL_CHARGES>
36
1 -0.62
10 -0.15
11 -0.15
12 -0.15
13 -0.15
14 -0.15
15 -0.15
16 -0.15
17 -0.15
18 -0.15
19 -0.15
2 -0.56
20 0.16
21 0.49
22 -0.15
23 0.15
24 0.15
25 0.15
26 0.15
27 0.15
28 0.15
29 0.15
3 -0.06
30 0.15
31 0.15
32 0.15
33 0.15
34 0.15
35 0.15
36 0.15
4 0.03
5 0.04
6 0.34
7 0.03
8 -0.15
9 -0.15

> <PUBCHEM_EFFECTIVE_ROTOR_COUNT>
3

> <PUBCHEM_PHARMACOPHORE_FEATURES>
5
1 1 acceptor
1 2 acceptor
6 1 6 10 18 20 22 rings
6 4 8 9 13 14 15 rings
6 7 11 12 16 17 19 rings

> <PUBCHEM_HEAVY_ATOM_COUNT>
22

> <PUBCHEM_ATOM_DEF_STEREO_COUNT>
0

> <PUBCHEM_ATOM_UDEF_STEREO_COUNT>
0

> <PUBCHEM_BOND_DEF_STEREO_COUNT>
1

> <PUBCHEM_BOND_UDEF_STEREO_COUNT>
0

> <PUBCHEM_ISOTOPIC_ATOM_COUNT>
0

> <PUBCHEM_COMPONENT_COUNT>
1

> <PUBCHEM_CACTVS_TAUTO_COUNT>
1

> <PUBCHEM_CONFORMER_ID>
002DD57800000001

> <PUBCHEM_MMFF94_ENERGY>
77.2669

> <PUBCHEM_FEATURE_SELFOVERLAP>
25.371

> <PUBCHEM_SHAPE_FINGERPRINT>
10165383 225 17687996006503981624
104564 63 18411135883122896961
11578080 2 17388570316810651995
12553582 1 18411133602226425867
12788726 201 18411129230440264060
13134695 92 18192153698698135221
13140716 1 18195530281911815090
13149001 5 17981047414182501863
133893 2 17620496613584877581
13681431 1 18122343480267291325
13911987 19 18270955735399062254
13965767 371 17174010540072400651
14178342 30 18194406812945555024
14181834 199 17902238814634176093
14790565 3 18338786836715185081
14955137 171 18265315228080063779
15238133 3 18271508863452983557
15848700 24 18334581191768962110
1601671 61 18410574007264539137
16752209 62 18341056289213137390
16945 1 18409448072381117499
17357779 13 18261968383267167389
1813 80 18335130947619844869
20028762 73 17827070711003370879
20510252 161 18407762547337113832
20600515 1 18190448377426976032
20739085 24 18196350573109539513
21041028 32 18338786820104690441
21285901 2 18114168753058987926
21330990 113 18335418001864685233
229495 10 14057550358039449520
23175994 123 18271804580140275655
23402539 116 18334577915036268230
23419403 2 17459496392892710665
23558518 356 17983860261284247851
266924 87 18338802337346686462
283562 15 18410575110702031658
3027735 51 18339080513667291891
350125 39 18121773095999702770
469060 322 18341880914143815609
484985 159 15368045184841934190
5171179 24 17969523531791617921
589210 1 17979356683078985499
68521 5 18411701001824007581
6992083 37 17822851957885064119
7164475 11 18341897450020768102
7495541 125 17701813289999404371
81228 2 18339070583676438728

> <PUBCHEM_SHAPE_MULTIPOLES>
442.79
7.23
3.63
1.4
3.51
2.99
0
-3.62
-0.03
-2.19
0
-0.06
0.27
0

> <PUBCHEM_SHAPE_SELFOVERLAP>
976.318

> <PUBCHEM_SHAPE_VOLUME>
233

> <PUBCHEM_COORDINATE_TYPE>
2
5
10

$$$$

