12851065
  -OEChem-07051213112D

 49 50  0     1  0  0  0  0  0999 V2000
    6.8671    0.8450    0.0000 O   0  0  0  0  0  0  0  0  0  0  0  0
    5.1350    0.8450    0.0000 O   0  0  0  0  0  0  0  0  0  0  0  0
    5.1350   -0.1550    0.0000 O   0  0  0  0  0  0  0  0  0  0  0  0
    6.8671   -3.1550    0.0000 O   0  0  0  0  0  0  0  0  0  0  0  0
    5.1350   -2.1550    0.0000 N   0  0  0  0  0  0  0  0  0  0  0  0
    8.5991   -0.1550    0.0000 N   0  0  0  0  0  0  0  0  0  0  0  0
    6.8671    2.8450    0.0000 N   0  0  0  0  0  0  0  0  0  0  0  0
    2.5369    1.3450    0.0000 N   0  0  0  0  0  0  0  0  0  0  0  0
    6.8671   -0.1550    0.0000 C   0  0  1  0  0  0  0  0  0  0  0  0
    6.0010   -0.6550    0.0000 C   0  0  1  0  0  0  0  0  0  0  0  0
    6.0010   -1.6550    0.0000 C   0  0  2  0  0  0  0  0  0  0  0  0
    7.7331   -0.6550    0.0000 C   0  0  2  0  0  0  0  0  0  0  0  0
    6.8671   -2.1550    0.0000 C   0  0  1  0  0  0  0  0  0  0  0  0
    7.7331   -1.6550    0.0000 C   0  0  0  0  0  0  0  0  0  0  0  0
    6.0010    1.3450    0.0000 C   0  0  1  0  0  0  0  0  0  0  0  0
    6.0010    2.3450    0.0000 C   0  0  1  0  0  0  0  0  0  0  0  0
    5.1350    2.8450    0.0000 C   0  0  0  0  0  0  0  0  0  0  0  0
    4.2690    1.3450    0.0000 C   0  0  1  0  0  0  0  0  0  0  0  0
    4.2690    2.3450    0.0000 C   0  0  0  0  0  0  0  0  0  0  0  0
    3.4030    0.8450    0.0000 C   0  0  0  0  0  0  0  0  0  0  0  0
    5.1350   -3.1550    0.0000 C   0  0  0  0  0  0  0  0  0  0  0  0
    6.3301    0.1550    0.0000 H   0  0  0  0  0  0  0  0  0  0  0  0
    5.4641   -0.9650    0.0000 H   0  0  0  0  0  0  0  0  0  0  0  0
    5.4641   -1.3450    0.0000 H   0  0  0  0  0  0  0  0  0  0  0  0
    7.7331   -0.0350    0.0000 H   0  0  0  0  0  0  0  0  0  0  0  0
    6.3301   -2.4650    0.0000 H   0  0  0  0  0  0  0  0  0  0  0  0
    7.9451   -2.2376    0.0000 H   0  0  0  0  0  0  0  0  0  0  0  0
    8.3437   -1.5473    0.0000 H   0  0  0  0  0  0  0  0  0  0  0  0
    6.5380    1.6550    0.0000 H   0  0  0  0  0  0  0  0  0  0  0  0
    6.5380    2.0350    0.0000 H   0  0  0  0  0  0  0  0  0  0  0  0
    5.5335    3.3200    0.0000 H   0  0  0  0  0  0  0  0  0  0  0  0
    4.7365    3.3200    0.0000 H   0  0  0  0  0  0  0  0  0  0  0  0
    4.2690    0.7250    0.0000 H   0  0  0  0  0  0  0  0  0  0  0  0
    4.5981   -1.8450    0.0000 H   0  0  0  0  0  0  0  0  0  0  0  0
    4.0569    2.9276    0.0000 H   0  0  0  0  0  0  0  0  0  0  0  0
    3.6584    2.2373    0.0000 H   0  0  0  0  0  0  0  0  0  0  0  0
    9.1360   -0.4650    0.0000 H   0  0  0  0  0  0  0  0  0  0  0  0
    8.5991    0.4650    0.0000 H   0  0  0  0  0  0  0  0  0  0  0  0
    4.5981   -0.4650    0.0000 H   0  0  0  0  0  0  0  0  0  0  0  0
    7.4040   -3.4650    0.0000 H   0  0  0  0  0  0  0  0  0  0  0  0
    3.0044    0.3701    0.0000 H   0  0  0  0  0  0  0  0  0  0  0  0
    3.8015    0.3701    0.0000 H   0  0  0  0  0  0  0  0  0  0  0  0
    6.8671    3.4650    0.0000 H   0  0  0  0  0  0  0  0  0  0  0  0
    7.4040    2.5350    0.0000 H   0  0  0  0  0  0  0  0  0  0  0  0
    4.5150   -3.1550    0.0000 H   0  0  0  0  0  0  0  0  0  0  0  0
    5.1350   -3.7750    0.0000 H   0  0  0  0  0  0  0  0  0  0  0  0
    5.7550   -3.1550    0.0000 H   0  0  0  0  0  0  0  0  0  0  0  0
    2.0000    1.0350    0.0000 H   0  0  0  0  0  0  0  0  0  0  0  0
    2.5369    1.9650    0.0000 H   0  0  0  0  0  0  0  0  0  0  0  0
  9  1  1  6  0  0  0
 15  1  1  1  0  0  0
  2 15  1  0  0  0  0
  2 18  1  0  0  0  0
 10  3  1  1  0  0  0
  3 39  1  0  0  0  0
 13  4  1  1  0  0  0
  4 40  1  0  0  0  0
 11  5  1  6  0  0  0
  5 21  1  0  0  0  0
  5 34  1  0  0  0  0
 12  6  1  1  0  0  0
  6 37  1  0  0  0  0
  6 38  1  0  0  0  0
 16  7  1  1  0  0  0
  7 43  1  0  0  0  0
  7 44  1  0  0  0  0
  8 20  1  0  0  0  0
  8 48  1  0  0  0  0
  8 49  1  0  0  0  0
  9 10  1  0  0  0  0
  9 12  1  0  0  0  0
  9 22  1  0  0  0  0
 10 11  1  0  0  0  0
 10 23  1  0  0  0  0
 11 13  1  0  0  0  0
 11 24  1  0  0  0  0
 12 14  1  0  0  0  0
 12 25  1  0  0  0  0
 13 14  1  0  0  0  0
 13 26  1  0  0  0  0
 14 27  1  0  0  0  0
 14 28  1  0  0  0  0
 15 16  1  0  0  0  0
 15 29  1  0  0  0  0
 16 17  1  0  0  0  0
 16 30  1  0  0  0  0
 17 19  1  0  0  0  0
 17 31  1  0  0  0  0
 17 32  1  0  0  0  0
 18 19  1  0  0  0  0
 18 20  1  6  0  0  0
 18 33  1  0  0  0  0
 19 35  1  0  0  0  0
 19 36  1  0  0  0  0
 20 41  1  0  0  0  0
 20 42  1  0  0  0  0
 21 45  1  0  0  0  0
 21 46  1  0  0  0  0
 21 47  1  0  0  0  0
M  END
> <PUBCHEM_COMPOUND_CID>
12851065

> <PUBCHEM_COMPOUND_CANONICALIZED>
1

> <PUBCHEM_CACTVS_COMPLEXITY>
335

> <PUBCHEM_CACTVS_HBOND_ACCEPTOR>
8

> <PUBCHEM_CACTVS_HBOND_DONOR>
6

> <PUBCHEM_CACTVS_ROTATABLE_BOND>
4

> <PUBCHEM_CACTVS_SUBSKEYS>
AAADceBzuAAAAAAAAAAAAAAAAAAAAAAAAAA0QAAAAAAAAAAAAAAAHgAQCAAACDzxgAcCCALABgAAAAAAAAAAAAAAAAAAAIAIAAATEAIAgAAnQAAHEAAXAAHwcA8AAAAAAAAAAAACAQAUAACgAAAAAAAAAA==

> <PUBCHEM_IUPAC_OPENEYE_NAME>
(1R,2S,3R,4R,5S)-5-amino-4-[(2R,3R,6S)-3-amino-6-(aminomethyl)tetrahydropyran-2-yl]oxy-2-(methylamino)cyclohexane-1,3-diol

> <PUBCHEM_IUPAC_CAS_NAME>
(1R,2S,3R,4R,5S)-5-amino-4-[[(2R,3R,6S)-3-amino-6-(aminomethyl)-2-oxanyl]oxy]-2-(methylamino)cyclohexane-1,3-diol

> <PUBCHEM_IUPAC_NAME>
(1R,2S,3R,4R,5S)-5-amino-4-[(2R,3R,6S)-3-amino-6-(aminomethyl)oxan-2-yl]oxy-2-(methylamino)cyclohexane-1,3-diol

> <PUBCHEM_IUPAC_SYSTEMATIC_NAME>
(1R,2S,3R,4R,5S)-4-[(2R,3R,6S)-6-(aminomethyl)-3-azanyl-oxan-2-yl]oxy-5-azanyl-2-(methylamino)cyclohexane-1,3-diol

> <PUBCHEM_IUPAC_TRADITIONAL_NAME>
(1R,2S,3R,4R,5S)-5-amino-4-[(2R,3R,6S)-3-amino-6-(aminomethyl)tetrahydropyran-2-yl]oxy-2-(methylamino)cyclohexane-1,3-diol

> <PUBCHEM_IUPAC_INCHI>
InChI=1S/C13H28N4O4/c1-17-10-9(18)4-8(16)12(11(10)19)21-13-7(15)3-2-6(5-14)20-13/h6-13,17-19H,2-5,14-16H2,1H3/t6-,7+,8-,9+,10-,11+,12+,13+/m0/s1

> <PUBCHEM_IUPAC_INCHIKEY>
CPVYVUXPFHPEFB-LJKYVLQWSA-N

> <PUBCHEM_XLOGP3_AA>
-3.4

> <PUBCHEM_EXACT_MASS>
304.211055

> <PUBCHEM_MOLECULAR_FORMULA>
C13H28N4O4

> <PUBCHEM_MOLECULAR_WEIGHT>
304.38582

> <PUBCHEM_OPENEYE_CAN_SMILES>
CNC1C(CC(C(C1O)OC2C(CCC(O2)CN)N)N)O

> <PUBCHEM_OPENEYE_ISO_SMILES>
CN[C@H]1[C@@H](C[C@@H]([C@H]([C@@H]1O)O[C@@H]2[C@@H](CC[C@H](O2)CN)N)N)O

> <PUBCHEM_CACTVS_TPSA>
149

> <PUBCHEM_MONOISOTOPIC_WEIGHT>
304.211055

> <PUBCHEM_TOTAL_CHARGE>
0

> <PUBCHEM_HEAVY_ATOM_COUNT>
21

> <PUBCHEM_ATOM_DEF_STEREO_COUNT>
8

> <PUBCHEM_ATOM_UDEF_STEREO_COUNT>
0

> <PUBCHEM_BOND_DEF_STEREO_COUNT>
0

> <PUBCHEM_BOND_UDEF_STEREO_COUNT>
0

> <PUBCHEM_ISOTOPIC_ATOM_COUNT>
0

> <PUBCHEM_COMPONENT_COUNT>
1

> <PUBCHEM_CACTVS_TAUTO_COUNT>
1

> <PUBCHEM_COORDINATE_TYPE>
1
5
255

> <PUBCHEM_BONDANNOTATIONS>
15  1  5
9  1  6
18  20  6
10  3  5
13  4  5
11  5  6
12  6  5
16  7  5

$$$$

