9901
  -OEChem-06261204103D

 51 54  0     1  0  0  0  0  0999 V2000
   -4.4881    1.2238    0.3115 O   0  0  0  0  0  0  0  0  0  0  0  0
    5.8435   -0.2454   -1.3357 O   0  0  0  0  0  0  0  0  0  0  0  0
   -1.5800    1.1101    0.1821 C   0  0  1  0  0  0  0  0  0  0  0  0
   -2.4555   -0.1324    0.4820 C   0  0  2  0  0  0  0  0  0  0  0  0
   -0.1001    0.9671    0.6015 C   0  0  1  0  0  0  0  0  0  0  0  0
    0.5601   -0.3375    0.0868 C   0  0  1  0  0  0  0  0  0  0  0  0
    2.0762   -0.4773    0.5117 C   0  0  2  0  0  0  0  0  0  0  0  0
   -1.7448   -1.4211   -0.0105 C   0  0  0  0  0  0  0  0  0  0  0  0
   -3.7357    0.1988   -0.3458 C   0  0  2  0  0  0  0  0  0  0  0  0
   -0.3024   -1.5529    0.4807 C   0  0  0  0  0  0  0  0  0  0  0  0
   -1.8247    1.3907   -1.3126 C   0  0  0  0  0  0  0  0  0  0  0  0
    0.7183    2.1937    0.1722 C   0  0  0  0  0  0  0  0  0  0  0  0
   -3.1919    0.7846   -1.6564 C   0  0  0  0  0  0  0  0  0  0  0  0
    2.8219    0.8295    0.2162 C   0  0  0  0  0  0  0  0  0  0  0  0
   -2.7573   -0.2464    1.9897 C   0  0  0  0  0  0  0  0  0  0  0  0
    2.1536    2.1044    0.6711 C   0  0  0  0  0  0  0  0  0  0  0  0
    2.7032   -1.6434   -0.3085 C   0  0  0  0  0  0  0  0  0  0  0  0
    2.2322   -0.7866    2.0185 C   0  0  0  0  0  0  0  0  0  0  0  0
    4.2236   -1.6589   -0.2828 C   0  0  0  0  0  0  0  0  0  0  0  0
   -4.6122   -0.9573   -0.5754 C   0  0  0  0  0  0  0  0  0  0  0  0
    4.0195    0.8924   -0.3895 C   0  0  0  0  0  0  0  0  0  0  0  0
    4.7698   -0.3339   -0.7437 C   0  0  0  0  0  0  0  0  0  0  0  0
   -5.3290   -1.9019   -0.7629 C   0  0  0  0  0  0  0  0  0  0  0  0
   -1.9877    1.9697    0.7356 H   0  0  0  0  0  0  0  0  0  0  0  0
   -0.0918    0.9387    1.6994 H   0  0  0  0  0  0  0  0  0  0  0  0
    0.5498   -0.2865   -1.0118 H   0  0  0  0  0  0  0  0  0  0  0  0
   -1.7297   -1.4634   -1.1065 H   0  0  0  0  0  0  0  0  0  0  0  0
   -2.3043   -2.3064    0.3174 H   0  0  0  0  0  0  0  0  0  0  0  0
   -0.3017   -1.6921    1.5664 H   0  0  0  0  0  0  0  0  0  0  0  0
    0.1137   -2.4697    0.0499 H   0  0  0  0  0  0  0  0  0  0  0  0
   -1.0596    0.9428   -1.9545 H   0  0  0  0  0  0  0  0  0  0  0  0
   -1.8164    2.4688   -1.5088 H   0  0  0  0  0  0  0  0  0  0  0  0
    0.2574    3.1061    0.5696 H   0  0  0  0  0  0  0  0  0  0  0  0
    0.7246    2.2902   -0.9206 H   0  0  0  0  0  0  0  0  0  0  0  0
   -3.8531    1.5512   -2.0770 H   0  0  0  0  0  0  0  0  0  0  0  0
   -3.0573    0.0145   -2.4262 H   0  0  0  0  0  0  0  0  0  0  0  0
   -3.2125    0.6680    2.3851 H   0  0  0  0  0  0  0  0  0  0  0  0
   -3.4477   -1.0734    2.1885 H   0  0  0  0  0  0  0  0  0  0  0  0
   -1.8525   -0.4238    2.5785 H   0  0  0  0  0  0  0  0  0  0  0  0
    2.1674    2.1456    1.7670 H   0  0  0  0  0  0  0  0  0  0  0  0
    2.7021    2.9886    0.3241 H   0  0  0  0  0  0  0  0  0  0  0  0
    2.3839   -1.5660   -1.3574 H   0  0  0  0  0  0  0  0  0  0  0  0
    2.3409   -2.6126    0.0541 H   0  0  0  0  0  0  0  0  0  0  0  0
    1.6830   -0.0776    2.6458 H   0  0  0  0  0  0  0  0  0  0  0  0
    1.8702   -1.7909    2.2633 H   0  0  0  0  0  0  0  0  0  0  0  0
    3.2815   -0.7418    2.3327 H   0  0  0  0  0  0  0  0  0  0  0  0
    4.5859   -2.4392   -0.9613 H   0  0  0  0  0  0  0  0  0  0  0  0
    4.6121   -1.8711    0.7182 H   0  0  0  0  0  0  0  0  0  0  0  0
    4.5101    1.8386   -0.5923 H   0  0  0  0  0  0  0  0  0  0  0  0
   -5.2291    1.4748   -0.2665 H   0  0  0  0  0  0  0  0  0  0  0  0
   -5.9643   -2.7402   -0.9291 H   0  0  0  0  0  0  0  0  0  0  0  0
  1  9  1  0  0  0  0
  1 50  1  0  0  0  0
  2 22  2  0  0  0  0
  3  4  1  0  0  0  0
  3  5  1  0  0  0  0
  3 11  1  0  0  0  0
  3 24  1  0  0  0  0
  4  8  1  0  0  0  0
  4  9  1  0  0  0  0
  4 15  1  0  0  0  0
  5  6  1  0  0  0  0
  5 12  1  0  0  0  0
  5 25  1  0  0  0  0
  6  7  1  0  0  0  0
  6 10  1  0  0  0  0
  6 26  1  0  0  0  0
  7 14  1  0  0  0  0
  7 17  1  0  0  0  0
  7 18  1  0  0  0  0
  8 10  1  0  0  0  0
  8 27  1  0  0  0  0
  8 28  1  0  0  0  0
  9 13  1  0  0  0  0
  9 20  1  0  0  0  0
 10 29  1  0  0  0  0
 10 30  1  0  0  0  0
 11 13  1  0  0  0  0
 11 31  1  0  0  0  0
 11 32  1  0  0  0  0
 12 16  1  0  0  0  0
 12 33  1  0  0  0  0
 12 34  1  0  0  0  0
 13 35  1  0  0  0  0
 13 36  1  0  0  0  0
 14 16  1  0  0  0  0
 14 21  2  0  0  0  0
 15 37  1  0  0  0  0
 15 38  1  0  0  0  0
 15 39  1  0  0  0  0
 16 40  1  0  0  0  0
 16 41  1  0  0  0  0
 17 19  1  0  0  0  0
 17 42  1  0  0  0  0
 17 43  1  0  0  0  0
 18 44  1  0  0  0  0
 18 45  1  0  0  0  0
 18 46  1  0  0  0  0
 19 22  1  0  0  0  0
 19 47  1  0  0  0  0
 19 48  1  0  0  0  0
 20 23  3  0  0  0  0
 21 22  1  0  0  0  0
 21 49  1  0  0  0  0
 23 51  1  0  0  0  0
M  END
> <PUBCHEM_COMPOUND_CID>
9901

> <PUBCHEM_CONFORMER_RMSD>
0.6

> <PUBCHEM_CONFORMER_DIVERSEORDER>
1
51
48
46
25
17
6
49
50
43
16
52
53
39
35
15
47
18
38
30
28
54
13
33
12
36
37
20
19
24
8
41
21
56
11
7
32
34
40
9
27
57
45
55
14
23
2
42
29
3
44
26
31
22
4
10
5

> <PUBCHEM_MMFF94_PARTIAL_CHARGES>
14
1 -0.68
14 -0.28
16 0.14
19 0.06
2 -0.57
20 -0.2
21 -0.14
22 0.49
23 -0.18
49 0.15
50 0.4
51 0.18
7 0.14
9 0.48

> <PUBCHEM_EFFECTIVE_ROTOR_COUNT>
1.8

> <PUBCHEM_PHARMACOPHORE_FEATURES>
8
1 1 acceptor
1 1 donor
1 2 acceptor
1 23 hydrophobe
5 3 4 9 11 13 rings
6 3 4 5 6 8 10 rings
6 5 6 7 12 14 16 rings
6 7 14 17 19 21 22 rings

> <PUBCHEM_HEAVY_ATOM_COUNT>
23

> <PUBCHEM_ATOM_DEF_STEREO_COUNT>
1

> <PUBCHEM_ATOM_UDEF_STEREO_COUNT>
5

> <PUBCHEM_BOND_DEF_STEREO_COUNT>
0

> <PUBCHEM_BOND_UDEF_STEREO_COUNT>
0

> <PUBCHEM_ISOTOPIC_ATOM_COUNT>
0

> <PUBCHEM_COMPONENT_COUNT>
1

> <PUBCHEM_CACTVS_TAUTO_COUNT>
5

> <PUBCHEM_CONFORMER_ID>
000026AD00000001

> <PUBCHEM_MMFF94_ENERGY>
69.1533

> <PUBCHEM_FEATURE_SELFOVERLAP>
40.793

> <PUBCHEM_SHAPE_FINGERPRINT>
10366900 7 17846782884102796897
10498660 4 17489317420169882004
10759866 29 17489593419532489466
11089746 13 13686302339800894662
11615757 297 18260547809869777881
11961588 58 17203046279697628086
12011746 2 18202004309143736103
12236239 1 17312817169475523937
12403259 415 18343591728735856301
12553582 1 18334292106627245640
12670546 177 18342177764860709758
12788726 201 18195529418027738081
12916754 54 18334861597847422531
13224815 77 18131075934864049859
13288520 33 18113051636544647479
13533116 47 17822856347267722553
13862211 1 18408603686912780170
13944108 23 16255065328684536229
14576447 43 18334857225591944238
15163728 17 15409234982494815471
15196674 1 18408887334404217481
15635459 17 18412547600160214882
15848702 151 18040711489329810839
16752209 62 18266186200018189152
16945 1 18334868228823396608
17349148 13 17748826293699108775
1813 80 17385992997368180556
18186145 218 18340498832385802577
19784866 240 17967245382437051453
19862831 5 18342739645694094240
200 152 17967251996349077009
20645477 70 18338241466278820332
20871999 31 18343017791749565994
21267235 1 18335133155708022351
221357 26 18410579478704883805
221490 88 18266175037181856866
22182313 1 18269858444211407269
22393880 68 18342187673587417461
22950370 63 18261107495463424797
23402539 116 18186799231647126796
23493267 7 17346878961662010640
23559900 14 18260556588661839009
2871803 45 18201444644476273146
296302 2 14836403627247065160
3004659 81 18200872993879693142
312423 11 17023177193641944784
3323516 105 18410862040044537077
46194498 28 18129945568154686620
465052 167 17822569408934408167
474 4 12679452089194763310
5104073 3 18335143089808798499
6786 2 7010943235395974232
9709674 26 18339928091382747003

> <PUBCHEM_SHAPE_MULTIPOLES>
461.59
10.51
2.04
1.38
0.89
0.22
0.32
-3.17
-3.88
0.05
-0.07
-0.19
-0.03
0.17

> <PUBCHEM_SHAPE_SELFOVERLAP>
992.806

> <PUBCHEM_SHAPE_VOLUME>
251.4

> <PUBCHEM_COORDINATE_TYPE>
2
5
10

$$$$

