5280675
  -OEChem-07051212492D

 76 79  0     1  0  0  0  0  0999 V2000
    5.2710   -3.7737    0.0000 O   0  0  0  0  0  0  0  0  0  0  0  0
    2.5357   -3.2776    0.0000 O   0  0  0  0  0  0  0  0  0  0  0  0
    7.9288   -0.2252    0.0000 C   0  0  1  0  0  0  0  0  0  0  0  0
    7.9288   -1.2252    0.0000 C   0  0  2  0  0  0  0  0  0  0  0  0
    6.1968   -1.2252    0.0000 C   0  0  2  0  0  0  0  0  0  0  0  0
    5.2868   -1.7321    0.0000 C   0  0  2  0  0  0  0  0  0  0  0  0
    8.8750    0.0795    0.0000 C   0  0  2  0  0  0  0  0  0  0  0  0
    7.0628   -1.7252    0.0000 C   0  0  0  0  0  0  0  0  0  0  0  0
    5.2787   -2.7737    0.0000 C   0  0  2  0  0  0  0  0  0  0  0  0
    7.0628    0.2748    0.0000 C   0  0  0  0  0  0  0  0  0  0  0  0
    6.1968   -0.2252    0.0000 C   0  0  0  0  0  0  0  0  0  0  0  0
    8.8750   -1.5300    0.0000 C   0  0  0  0  0  0  0  0  0  0  0  0
    9.4586   -0.7252    0.0000 C   0  0  0  0  0  0  0  0  0  0  0  0
    4.3599   -1.1680    0.0000 C   0  0  0  0  0  0  0  0  0  0  0  0
    6.1808   -3.2945    0.0000 C   0  0  0  0  0  0  0  0  0  0  0  0
    7.9288    0.7748    0.0000 C   0  0  0  0  0  0  0  0  0  0  0  0
    7.0789   -2.7668    0.0000 C   0  0  0  0  0  0  0  0  0  0  0  0
    4.3433   -3.3234    0.0000 C   0  0  0  0  0  0  0  0  0  0  0  0
    9.1857    1.0300    0.0000 C   0  0  2  0  0  0  0  0  0  0  0  0
    5.2945   -0.7321    0.0000 C   0  0  0  0  0  0  0  0  0  0  0  0
    3.4120   -1.6960    0.0000 C   0  0  0  0  0  0  0  0  0  0  0  0
    3.4037   -2.7809    0.0000 C   0  0  2  0  0  0  0  0  0  0  0  0
    8.5179    1.7743    0.0000 C   0  0  0  0  0  0  0  0  0  0  0  0
   10.1642    1.2362    0.0000 C   0  0  0  0  0  0  0  0  0  0  0  0
   10.4749    2.1868    0.0000 C   0  0  0  0  0  0  0  0  0  0  0  0
   11.4534    2.3930    0.0000 C   0  0  1  0  0  0  0  0  0  0  0  0
   11.7640    3.3435    0.0000 C   0  0  0  0  0  0  0  0  0  0  0  0
   12.1212    1.6487    0.0000 C   0  0  0  0  0  0  0  0  0  0  0  0
   12.7425    3.5497    0.0000 C   0  0  0  0  0  0  0  0  0  0  0  0
   11.0962    4.0878    0.0000 C   0  0  0  0  0  0  0  0  0  0  0  0
    8.0188   -2.0705    0.0000 H   0  0  0  0  0  0  0  0  0  0  0  0
    6.9329   -0.8002    0.0000 H   0  0  0  0  0  0  0  0  0  0  0  0
    9.7148    0.2114    0.0000 H   0  0  0  0  0  0  0  0  0  0  0  0
    7.4613    0.7497    0.0000 H   0  0  0  0  0  0  0  0  0  0  0  0
    6.6643    0.7497    0.0000 H   0  0  0  0  0  0  0  0  0  0  0  0
    5.9847    0.3574    0.0000 H   0  0  0  0  0  0  0  0  0  0  0  0
    5.5862   -0.3329    0.0000 H   0  0  0  0  0  0  0  0  0  0  0  0
    8.6240   -2.0969    0.0000 H   0  0  0  0  0  0  0  0  0  0  0  0
    9.4124   -1.8392    0.0000 H   0  0  0  0  0  0  0  0  0  0  0  0
    9.9195   -1.1400    0.0000 H   0  0  0  0  0  0  0  0  0  0  0  0
    9.9195   -0.3105    0.0000 H   0  0  0  0  0  0  0  0  0  0  0  0
    4.7681   -0.7014    0.0000 H   0  0  0  0  0  0  0  0  0  0  0  0
    3.9700   -0.6860    0.0000 H   0  0  0  0  0  0  0  0  0  0  0  0
    5.7835   -3.7705    0.0000 H   0  0  0  0  0  0  0  0  0  0  0  0
    6.5818   -3.7674    0.0000 H   0  0  0  0  0  0  0  0  0  0  0  0
    8.5488    0.7748    0.0000 H   0  0  0  0  0  0  0  0  0  0  0  0
    7.9288    1.3948    0.0000 H   0  0  0  0  0  0  0  0  0  0  0  0
    7.3088    0.7748    0.0000 H   0  0  0  0  0  0  0  0  0  0  0  0
    7.6193   -3.0705    0.0000 H   0  0  0  0  0  0  0  0  0  0  0  0
    3.9460   -3.7994    0.0000 H   0  0  0  0  0  0  0  0  0  0  0  0
    4.7443   -3.7963    0.0000 H   0  0  0  0  0  0  0  0  0  0  0  0
    9.3783    1.6193    0.0000 H   0  0  0  0  0  0  0  0  0  0  0  0
    5.9145   -0.7369    0.0000 H   0  0  0  0  0  0  0  0  0  0  0  0
    5.2993   -0.1121    0.0000 H   0  0  0  0  0  0  0  0  0  0  0  0
    4.6745   -0.7273    0.0000 H   0  0  0  0  0  0  0  0  0  0  0  0
    3.2075   -1.1107    0.0000 H   0  0  0  0  0  0  0  0  0  0  0  0
    2.8004   -1.7973    0.0000 H   0  0  0  0  0  0  0  0  0  0  0  0
    3.4025   -3.4009    0.0000 H   0  0  0  0  0  0  0  0  0  0  0  0
    5.8056   -4.0878    0.0000 H   0  0  0  0  0  0  0  0  0  0  0  0
    8.9793    2.1884    0.0000 H   0  0  0  0  0  0  0  0  0  0  0  0
    8.1038    2.2358    0.0000 H   0  0  0  0  0  0  0  0  0  0  0  0
    8.0564    1.3602    0.0000 H   0  0  0  0  0  0  0  0  0  0  0  0
   10.5783    0.7748    0.0000 H   0  0  0  0  0  0  0  0  0  0  0  0
    2.0000   -2.9655    0.0000 H   0  0  0  0  0  0  0  0  0  0  0  0
   10.0608    2.6482    0.0000 H   0  0  0  0  0  0  0  0  0  0  0  0
   12.0601    2.5208    0.0000 H   0  0  0  0  0  0  0  0  0  0  0  0
   12.1781    2.8820    0.0000 H   0  0  0  0  0  0  0  0  0  0  0  0
   11.6598    1.2346    0.0000 H   0  0  0  0  0  0  0  0  0  0  0  0
   12.5353    1.1872    0.0000 H   0  0  0  0  0  0  0  0  0  0  0  0
   12.5827    2.0627    0.0000 H   0  0  0  0  0  0  0  0  0  0  0  0
   12.8704    2.9430    0.0000 H   0  0  0  0  0  0  0  0  0  0  0  0
   13.3492    3.6776    0.0000 H   0  0  0  0  0  0  0  0  0  0  0  0
   12.6147    4.1564    0.0000 H   0  0  0  0  0  0  0  0  0  0  0  0
   11.5577    4.5018    0.0000 H   0  0  0  0  0  0  0  0  0  0  0  0
   10.6821    4.5493    0.0000 H   0  0  0  0  0  0  0  0  0  0  0  0
   10.6347    3.6737    0.0000 H   0  0  0  0  0  0  0  0  0  0  0  0
  9  1  1  6  0  0  0
  1 59  1  0  0  0  0
 22  2  1  1  0  0  0
  2 64  1  0  0  0  0
  3  4  1  0  0  0  0
  3  7  1  0  0  0  0
  3 10  1  0  0  0  0
  3 16  1  1  0  0  0
  4  8  1  0  0  0  0
  4 12  1  0  0  0  0
  4 31  1  6  0  0  0
  5  6  1  0  0  0  0
  5  8  1  0  0  0  0
  5 11  1  0  0  0  0
  5 32  1  6  0  0  0
  6  9  1  0  0  0  0
  6 14  1  0  0  0  0
  6 20  1  1  0  0  0
  7 13  1  0  0  0  0
  7 19  1  0  0  0  0
  7 33  1  6  0  0  0
  8 17  2  0  0  0  0
  9 15  1  0  0  0  0
  9 18  1  0  0  0  0
 10 11  1  0  0  0  0
 10 34  1  0  0  0  0
 10 35  1  0  0  0  0
 11 36  1  0  0  0  0
 11 37  1  0  0  0  0
 12 13  1  0  0  0  0
 12 38  1  0  0  0  0
 12 39  1  0  0  0  0
 13 40  1  0  0  0  0
 13 41  1  0  0  0  0
 14 21  1  0  0  0  0
 14 42  1  0  0  0  0
 14 43  1  0  0  0  0
 15 17  1  0  0  0  0
 15 44  1  0  0  0  0
 15 45  1  0  0  0  0
 16 46  1  0  0  0  0
 16 47  1  0  0  0  0
 16 48  1  0  0  0  0
 17 49  1  0  0  0  0
 18 22  1  0  0  0  0
 18 50  1  0  0  0  0
 18 51  1  0  0  0  0
 19 23  1  6  0  0  0
 19 24  1  0  0  0  0
 19 52  1  0  0  0  0
 20 53  1  0  0  0  0
 20 54  1  0  0  0  0
 20 55  1  0  0  0  0
 21 22  1  0  0  0  0
 21 56  1  0  0  0  0
 21 57  1  0  0  0  0
 22 58  1  0  0  0  0
 23 60  1  0  0  0  0
 23 61  1  0  0  0  0
 23 62  1  0  0  0  0
 24 25  2  0  0  0  0
 24 63  1  0  0  0  0
 25 26  1  0  0  0  0
 25 65  1  0  0  0  0
 26 27  1  0  0  0  0
 26 28  1  1  0  0  0
 26 66  1  0  0  0  0
 27 29  1  0  0  0  0
 27 30  1  0  0  0  0
 27 67  1  0  0  0  0
 28 68  1  0  0  0  0
 28 69  1  0  0  0  0
 28 70  1  0  0  0  0
 29 71  1  0  0  0  0
 29 72  1  0  0  0  0
 29 73  1  0  0  0  0
 30 74  1  0  0  0  0
 30 75  1  0  0  0  0
 30 76  1  0  0  0  0
M  END
> <PUBCHEM_COMPOUND_CID>
5280675

> <PUBCHEM_COMPOUND_CANONICALIZED>
1

> <PUBCHEM_CACTVS_COMPLEXITY>
707

> <PUBCHEM_CACTVS_HBOND_ACCEPTOR>
2

> <PUBCHEM_CACTVS_HBOND_DONOR>
2

> <PUBCHEM_CACTVS_ROTATABLE_BOND>
4

> <PUBCHEM_CACTVS_SUBSKEYS>
AAADcfB4MAAAAAAAAAAAAAAAAAAAAYAAAAAwYIAAAAAAAGCAAAAAGgAACAAAD1SggAICAAAAAgCAAiBCAAAAAAAgAAAICAAAAAgAEAIAAQAAQAAFwAAIAAOA4PQPgAAAAAAAAADAAAYQADAAAQAACAAAAA==

> <PUBCHEM_IUPAC_OPENEYE_NAME>
(3S,5R,9S,10R,13R,14R,17R)-10,13-dimethyl-17-[(E,1R,4R)-1,4,5-trimethylhex-2-enyl]-1,2,3,4,6,9,11,12,14,15,16,17-dodecahydrocyclopenta[a]phenanthrene-3,5-diol

> <PUBCHEM_IUPAC_CAS_NAME>
(3S,5R,9S,10R,13R,14R,17R)-17-[(E,2R,5R)-5,6-dimethylhept-3-en-2-yl]-10,13-dimethyl-1,2,3,4,6,9,11,12,14,15,16,17-dodecahydrocyclopenta[a]phenanthrene-3,5-diol

> <PUBCHEM_IUPAC_NAME>
(3S,5R,9S,10R,13R,14R,17R)-17-[(E,2R,5R)-5,6-dimethylhept-3-en-2-yl]-10,13-dimethyl-1,2,3,4,6,9,11,12,14,15,16,17-dodecahydrocyclopenta[a]phenanthrene-3,5-diol

> <PUBCHEM_IUPAC_SYSTEMATIC_NAME>
(3S,5R,9S,10R,13R,14R,17R)-17-[(E,2R,5R)-5,6-dimethylhept-3-en-2-yl]-10,13-dimethyl-1,2,3,4,6,9,11,12,14,15,16,17-dodecahydrocyclopenta[a]phenanthrene-3,5-diol

> <PUBCHEM_IUPAC_TRADITIONAL_NAME>
(3S,5R,9S,10R,13R,14R,17R)-10,13-dimethyl-17-[(E,1R,4R)-1,4,5-trimethylhex-2-enyl]-1,2,3,4,6,9,11,12,14,15,16,17-dodecahydrocyclopenta[a]phenanthrene-3,5-diol

> <PUBCHEM_IUPAC_INCHI>
InChI=1S/C28H46O2/c1-18(2)19(3)7-8-20(4)23-9-10-24-22-12-16-28(30)17-21(29)11-15-27(28,6)25(22)13-14-26(23,24)5/h7-8,12,18-21,23-25,29-30H,9-11,13-17H2,1-6H3/b8-7+/t19-,20+,21-,23+,24-,25-,26+,27+,28+/m0/s1

> <PUBCHEM_IUPAC_INCHIKEY>
KKCUYJKFHVZXJO-AWKCEKCTSA-N

> <PUBCHEM_XLOGP3_AA>
6.7

> <PUBCHEM_EXACT_MASS>
414.349781

> <PUBCHEM_MOLECULAR_FORMULA>
C28H46O2

> <PUBCHEM_MOLECULAR_WEIGHT>
414.66364

> <PUBCHEM_OPENEYE_CAN_SMILES>
CC(C)C(C)C=CC(C)C1CCC2C1(CCC3C2=CCC4(C3(CCC(C4)O)C)O)C

> <PUBCHEM_OPENEYE_ISO_SMILES>
C[C@H](/C=C/[C@H](C)C(C)C)[C@H]1CC[C@@H]2[C@@]1(CC[C@H]3C2=CC[C@@]4([C@@]3(CC[C@@H](C4)O)C)O)C

> <PUBCHEM_CACTVS_TPSA>
40.5

> <PUBCHEM_MONOISOTOPIC_WEIGHT>
414.349781

> <PUBCHEM_TOTAL_CHARGE>
0

> <PUBCHEM_HEAVY_ATOM_COUNT>
30

> <PUBCHEM_ATOM_DEF_STEREO_COUNT>
9

> <PUBCHEM_ATOM_UDEF_STEREO_COUNT>
0

> <PUBCHEM_BOND_DEF_STEREO_COUNT>
1

> <PUBCHEM_BOND_UDEF_STEREO_COUNT>
0

> <PUBCHEM_ISOTOPIC_ATOM_COUNT>
0

> <PUBCHEM_COMPONENT_COUNT>
1

> <PUBCHEM_CACTVS_TAUTO_COUNT>
1

> <PUBCHEM_COORDINATE_TYPE>
1
5
255

> <PUBCHEM_BONDANNOTATIONS>
9  1  6
19  23  6
22  2  5
26  28  5
3  16  5
4  31  6
5  32  6
6  20  5
7  33  6

$$$$

