6599
  -OEChem-06261201242D

 13 12  0     0  0  0  0  0  0999 V2000
    2.5369    0.2500    0.0000 S   0  0  0  0  0  0  0  0  0  0  0  0
    3.4030   -1.2500    0.0000 S   0  0  0  0  0  0  0  0  0  0  0  0
    4.2690    0.2500    0.0000 N   0  0  0  0  0  0  0  0  0  0  0  0
    5.1350   -0.2500    0.0000 C   0  0  0  0  0  0  0  0  0  0  0  0
    4.2690    1.2500    0.0000 C   0  0  0  0  0  0  0  0  0  0  0  0
    3.4030   -0.2500    0.0000 C   0  0  0  0  0  0  0  0  0  0  0  0
    4.8250   -0.7869    0.0000 H   0  0  0  0  0  0  0  0  0  0  0  0
    5.6720   -0.5600    0.0000 H   0  0  0  0  0  0  0  0  0  0  0  0
    5.4450    0.2869    0.0000 H   0  0  0  0  0  0  0  0  0  0  0  0
    4.8890    1.2500    0.0000 H   0  0  0  0  0  0  0  0  0  0  0  0
    4.2690    1.8700    0.0000 H   0  0  0  0  0  0  0  0  0  0  0  0
    3.6490    1.2500    0.0000 H   0  0  0  0  0  0  0  0  0  0  0  0
    2.0000   -0.0600    0.0000 H   0  0  0  0  0  0  0  0  0  0  0  0
  1  6  1  0  0  0  0
  1 13  1  0  0  0  0
  2  6  2  0  0  0  0
  3  4  1  0  0  0  0
  3  5  1  0  0  0  0
  3  6  1  0  0  0  0
  4  7  1  0  0  0  0
  4  8  1  0  0  0  0
  4  9  1  0  0  0  0
  5 10  1  0  0  0  0
  5 11  1  0  0  0  0
  5 12  1  0  0  0  0
M  END
> <PUBCHEM_COMPOUND_CID>
6599

> <PUBCHEM_COMPOUND_CANONICALIZED>
1

> <PUBCHEM_CACTVS_COMPLEXITY>
59.8

> <PUBCHEM_CACTVS_HBOND_ACCEPTOR>
2

> <PUBCHEM_CACTVS_HBOND_DONOR>
1

> <PUBCHEM_CACTVS_ROTATABLE_BOND>
0

> <PUBCHEM_CACTVS_SUBSKEYS>
AAADcYBCAABgAAAAAAAAAAAAAAAAAAAAAAAAAAAAAAAAAAAAAAAAFAQAAAAAAAAAAAQCAAMAAAQEAAAAAAAAAAAAAAgAAAAIAAAAAAAAAAAAAAAAAAAAAAAAAAAAAAAAAAAAAAAAAAAAAAAAAAAAAAAAAA==

> <PUBCHEM_IUPAC_OPENEYE_NAME>
dimethylcarbamodithioic acid

> <PUBCHEM_IUPAC_CAS_NAME>
dimethylcarbamodithioic acid

> <PUBCHEM_IUPAC_NAME>
dimethylcarbamodithioic acid

> <PUBCHEM_IUPAC_SYSTEMATIC_NAME>
dimethylcarbamodithioic acid

> <PUBCHEM_IUPAC_TRADITIONAL_NAME>
dimethylcarbamodithioic acid

> <PUBCHEM_IUPAC_INCHI>
InChI=1S/C3H7NS2/c1-4(2)3(5)6/h1-2H3,(H,5,6)

> <PUBCHEM_IUPAC_INCHIKEY>
MZGNSEAPZQGJRB-UHFFFAOYSA-N

> <PUBCHEM_XLOGP3_AA>
0.9

> <PUBCHEM_EXACT_MASS>
121.001991

> <PUBCHEM_MOLECULAR_FORMULA>
C3H7NS2

> <PUBCHEM_MOLECULAR_WEIGHT>
121.22438

> <PUBCHEM_OPENEYE_CAN_SMILES>
CN(C)C(=S)S

> <PUBCHEM_OPENEYE_ISO_SMILES>
CN(C)C(=S)S

> <PUBCHEM_CACTVS_TPSA>
36.3

> <PUBCHEM_MONOISOTOPIC_WEIGHT>
121.001991

> <PUBCHEM_TOTAL_CHARGE>
0

> <PUBCHEM_HEAVY_ATOM_COUNT>
6

> <PUBCHEM_ATOM_DEF_STEREO_COUNT>
0

> <PUBCHEM_ATOM_UDEF_STEREO_COUNT>
0

> <PUBCHEM_BOND_DEF_STEREO_COUNT>
0

> <PUBCHEM_BOND_UDEF_STEREO_COUNT>
0

> <PUBCHEM_ISOTOPIC_ATOM_COUNT>
0

> <PUBCHEM_COMPONENT_COUNT>
1

> <PUBCHEM_CACTVS_TAUTO_COUNT>
1

> <PUBCHEM_COORDINATE_TYPE>
1
5
255

$$$$

