49859612
  -OEChem-07051213132D

 27 26  0     1  0  0  0  0  0999 V2000
    3.4030   -0.7220    0.0000 P   0  0  0  0  0  0  0  0  0  0  0  0
    4.2690   -0.2220    0.0000 O   0  0  0  0  0  0  0  0  0  0  0  0
    6.8671    1.2780    0.0000 O   0  0  0  0  0  0  0  0  0  0  0  0
    8.5991    0.2780    0.0000 O   0  0  0  0  0  0  0  0  0  0  0  0
    7.7331   -1.2220    0.0000 O   0  0  0  0  0  0  0  0  0  0  0  0
    2.5369   -1.2220    0.0000 O   0  0  0  0  0  0  0  0  0  0  0  0
    2.9030    0.1440    0.0000 O   0  0  0  0  0  0  0  0  0  0  0  0
    3.9030   -1.5880    0.0000 O   0  0  0  0  0  0  0  0  0  0  0  0
    6.0010   -0.2220    0.0000 C   0  0  0  0  0  0  0  0  0  0  0  0
    6.8671    0.2780    0.0000 C   0  0  2  0  0  0  0  0  0  0  0  0
    5.1350   -0.7220    0.0000 C   0  0  0  0  0  0  0  0  0  0  0  0
    5.5010    0.6440    0.0000 C   0  0  0  0  0  0  0  0  0  0  0  0
    6.5010   -1.0880    0.0000 C   0  0  0  0  0  0  0  0  0  0  0  0
    7.7331   -0.2220    0.0000 C   0  0  0  0  0  0  0  0  0  0  0  0
    6.3301    0.5880    0.0000 H   0  0  0  0  0  0  0  0  0  0  0  0
    4.7365   -1.1969    0.0000 H   0  0  0  0  0  0  0  0  0  0  0  0
    5.5335   -1.1969    0.0000 H   0  0  0  0  0  0  0  0  0  0  0  0
    5.9641   -1.3980    0.0000 H   0  0  0  0  0  0  0  0  0  0  0  0
    6.8110   -1.6249    0.0000 H   0  0  0  0  0  0  0  0  0  0  0  0
    7.0380   -0.7780    0.0000 H   0  0  0  0  0  0  0  0  0  0  0  0
    6.0380    0.9540    0.0000 H   0  0  0  0  0  0  0  0  0  0  0  0
    5.1910    1.1810    0.0000 H   0  0  0  0  0  0  0  0  0  0  0  0
    4.9641    0.3340    0.0000 H   0  0  0  0  0  0  0  0  0  0  0  0
    7.4040    1.5880    0.0000 H   0  0  0  0  0  0  0  0  0  0  0  0
    9.1360   -0.0320    0.0000 H   0  0  0  0  0  0  0  0  0  0  0  0
    2.0000   -0.9120    0.0000 H   0  0  0  0  0  0  0  0  0  0  0  0
    3.2130    0.6810    0.0000 H   0  0  0  0  0  0  0  0  0  0  0  0
  1  2  1  0  0  0  0
  1  6  1  0  0  0  0
  1  7  1  0  0  0  0
  1  8  2  0  0  0  0
  2 11  1  0  0  0  0
 10  3  1  1  0  0  0
  3 24  1  0  0  0  0
  4 14  1  0  0  0  0
  4 25  1  0  0  0  0
  5 14  2  0  0  0  0
  6 26  1  0  0  0  0
  7 27  1  0  0  0  0
  9 10  1  0  0  0  0
  9 11  1  0  0  0  0
  9 12  1  0  0  0  0
  9 13  1  0  0  0  0
 10 14  1  0  0  0  0
 10 15  1  0  0  0  0
 11 16  1  0  0  0  0
 11 17  1  0  0  0  0
 12 21  1  0  0  0  0
 12 22  1  0  0  0  0
 12 23  1  0  0  0  0
 13 18  1  0  0  0  0
 13 19  1  0  0  0  0
 13 20  1  0  0  0  0
M  END
> <PUBCHEM_COMPOUND_CID>
49859612

> <PUBCHEM_COMPOUND_CANONICALIZED>
1

> <PUBCHEM_CACTVS_COMPLEXITY>
255

> <PUBCHEM_CACTVS_HBOND_ACCEPTOR>
7

> <PUBCHEM_CACTVS_HBOND_DONOR>
4

> <PUBCHEM_CACTVS_ROTATABLE_BOND>
5

> <PUBCHEM_CACTVS_SUBSKEYS>
AAADccBgOAIAAAAAAAAAAAAAAAAAAAAAAAAAAAAAAAAAAAAAAAAAGgAACCAADhSggAICCAAAAxAIQACQCIIAAAAAAAAAAAFAAAABEBAAAAAAQAAFAAABAABCAAAJAAAAAAAAAAAAAAAAAAAAAAAAAAAAAA==

> <PUBCHEM_IUPAC_OPENEYE_NAME>
(2R)-2-hydroxy-3,3-dimethyl-4-phosphonooxy-butanoic acid

> <PUBCHEM_IUPAC_CAS_NAME>
(2R)-2-hydroxy-3,3-dimethyl-4-phosphonooxybutanoic acid

> <PUBCHEM_IUPAC_NAME>
(2R)-2-hydroxy-3,3-dimethyl-4-phosphonooxybutanoic acid

> <PUBCHEM_IUPAC_SYSTEMATIC_NAME>
(2R)-3,3-dimethyl-2-oxidanyl-4-phosphonooxy-butanoic acid

> <PUBCHEM_IUPAC_TRADITIONAL_NAME>
(2R)-2-hydroxy-3,3-dimethyl-4-phosphonooxy-butyric acid

> <PUBCHEM_IUPAC_INCHI>
InChI=1S/C6H13O7P/c1-6(2,4(7)5(8)9)3-13-14(10,11)12/h4,7H,3H2,1-2H3,(H,8,9)(H2,10,11,12)/t4-/m0/s1

> <PUBCHEM_IUPAC_INCHIKEY>
SVZWVVFMSSSVKX-BYPYZUCNSA-N

> <PUBCHEM_XLOGP3_AA>
-1.4

> <PUBCHEM_EXACT_MASS>
228.039889

> <PUBCHEM_MOLECULAR_FORMULA>
C6H13O7P

> <PUBCHEM_MOLECULAR_WEIGHT>
228.136982

> <PUBCHEM_OPENEYE_CAN_SMILES>
CC(C)(COP(=O)(O)O)C(C(=O)O)O

> <PUBCHEM_OPENEYE_ISO_SMILES>
CC(C)(COP(=O)(O)O)[C@H](C(=O)O)O

> <PUBCHEM_CACTVS_TPSA>
124

> <PUBCHEM_MONOISOTOPIC_WEIGHT>
228.039889

> <PUBCHEM_TOTAL_CHARGE>
0

> <PUBCHEM_HEAVY_ATOM_COUNT>
14

> <PUBCHEM_ATOM_DEF_STEREO_COUNT>
1

> <PUBCHEM_ATOM_UDEF_STEREO_COUNT>
0

> <PUBCHEM_BOND_DEF_STEREO_COUNT>
0

> <PUBCHEM_BOND_UDEF_STEREO_COUNT>
0

> <PUBCHEM_ISOTOPIC_ATOM_COUNT>
0

> <PUBCHEM_COMPONENT_COUNT>
1

> <PUBCHEM_CACTVS_TAUTO_COUNT>
1

> <PUBCHEM_COORDINATE_TYPE>
1
5
255

> <PUBCHEM_BONDANNOTATIONS>
10  3  5

$$$$

