10509499
  -OEChem-07051213072D

111114  0     1  0  0  0  0  0999 V2000
   10.8829   -0.7752    0.0000 O   0  0  0  0  0  0  0  0  0  0  0  0
    8.5268   -3.7297    0.0000 O   0  0  0  0  0  0  0  0  0  0  0  0
   11.4138    1.4202    0.0000 O   0  0  0  0  0  0  0  0  0  0  0  0
   10.0420    2.9089    0.0000 O   0  0  0  0  0  0  0  0  0  0  0  0
    6.6374    4.5485    0.0000 O   0  0  0  0  0  0  0  0  0  0  0  0
    2.3918   -0.7752    0.0000 O   0  0  0  0  0  0  0  0  0  0  0  0
    3.2327    2.9089    0.0000 O   0  0  0  0  0  0  0  0  0  0  0  0
    4.7643    6.2662    0.0000 O   0  0  0  0  0  0  0  0  0  0  0  0
    2.8660   -5.9836    0.0000 O   0  0  0  0  0  0  0  0  0  0  0  0
    9.5426   -1.4836    0.0000 N   0  0  0  0  0  0  0  0  0  0  0  0
    7.1374   -3.1235    0.0000 N   0  0  0  0  0  0  0  0  0  0  0  0
    9.7602    1.4194    0.0000 N   0  0  0  0  0  0  0  0  0  0  0  0
    7.6262    3.3995    0.0000 N   0  0  0  0  0  0  0  0  0  0  0  0
    4.3555   -2.2654    0.0000 N   0  0  0  0  0  0  0  0  0  0  0  0
    4.7476    2.9656    0.0000 N   0  0  0  0  0  0  0  0  0  0  0  0
    3.2920    0.4445    0.0000 N   0  0  0  0  0  0  0  0  0  0  0  0
    3.1092    5.7557    0.0000 N   0  0  0  0  0  0  0  0  0  0  0  0
   10.4270   -2.8283    0.0000 C   0  0  1  0  0  0  0  0  0  0  0  0
    8.9192   -2.2654    0.0000 C   0  0  1  0  0  0  0  0  0  0  0  0
    9.4690   -3.0936    0.0000 C   0  0  0  0  0  0  0  0  0  0  0  0
   10.4724   -1.8353    0.0000 C   0  0  0  0  0  0  0  0  0  0  0  0
   11.2088   -3.4518    0.0000 C   0  0  0  0  0  0  0  0  0  0  0  0
    9.9080   -0.5527    0.0000 C   0  0  0  0  0  0  0  0  0  0  0  0
    8.0929   -2.8287    0.0000 C   0  0  0  0  0  0  0  0  0  0  0  0
    9.9827    0.4445    0.0000 C   0  0  2  0  0  0  0  0  0  0  0  0
    6.1374   -3.1235    0.0000 C   0  0  1  0  0  0  0  0  0  0  0  0
   10.9799    0.5192    0.0000 C   0  0  0  0  0  0  0  0  0  0  0  0
    8.5272    2.9656    0.0000 C   0  0  2  0  0  0  0  0  0  0  0  0
    9.2602    2.2854    0.0000 C   0  0  0  0  0  0  0  0  0  0  0  0
    9.0905    3.7918    0.0000 C   0  0  2  0  0  0  0  0  0  0  0  0
    5.9883   -4.1123    0.0000 C   0  0  0  0  0  0  0  0  0  0  0  0
    5.1818   -2.8287    0.0000 C   0  0  0  0  0  0  0  0  0  0  0  0
    8.6566    4.6928    0.0000 C   0  0  0  0  0  0  0  0  0  0  0  0
   10.0877    3.7171    0.0000 C   0  0  0  0  0  0  0  0  0  0  0  0
    6.7701   -4.7358    0.0000 C   0  0  0  0  0  0  0  0  0  0  0  0
    6.6374    3.5485    0.0000 C   0  0  0  0  0  0  0  0  0  0  0  0
    5.6485    3.3995    0.0000 C   0  0  1  0  0  0  0  0  0  0  0  0
    9.2199    5.5191    0.0000 C   0  0  0  0  0  0  0  0  0  0  0  0
    3.7320   -1.4836    0.0000 C   0  0  1  0  0  0  0  0  0  0  0  0
    5.3538    4.3551    0.0000 C   0  0  0  0  0  0  0  0  0  0  0  0
    6.6211   -5.7246    0.0000 C   0  0  0  0  0  0  0  0  0  0  0  0
    7.7010   -4.3705    0.0000 C   0  0  0  0  0  0  0  0  0  0  0  0
    2.8660   -1.9836    0.0000 C   0  0  0  0  0  0  0  0  0  0  0  0
    4.3788    4.5776    0.0000 C   0  0  0  0  0  0  0  0  0  0  0  0
    3.3667   -0.5527    0.0000 C   0  0  0  0  0  0  0  0  0  0  0  0
    7.4029   -6.3481    0.0000 C   0  0  0  0  0  0  0  0  0  0  0  0
    8.4828   -4.9940    0.0000 C   0  0  0  0  0  0  0  0  0  0  0  0
    4.0145    2.2854    0.0000 C   0  0  0  0  0  0  0  0  0  0  0  0
    3.5145    1.4194    0.0000 C   0  0  0  0  0  0  0  0  0  0  0  0
    8.3338   -5.9828    0.0000 C   0  0  0  0  0  0  0  0  0  0  0  0
    2.8660   -2.9836    0.0000 C   0  0  0  0  0  0  0  0  0  0  0  0
    4.0841    5.5332    0.0000 C   0  0  0  0  0  0  0  0  0  0  0  0
    2.0000   -3.4836    0.0000 C   0  0  0  0  0  0  0  0  0  0  0  0
    3.7320   -3.4836    0.0000 C   0  0  0  0  0  0  0  0  0  0  0  0
    2.0000   -4.4836    0.0000 C   0  0  0  0  0  0  0  0  0  0  0  0
    3.7320   -4.4836    0.0000 C   0  0  0  0  0  0  0  0  0  0  0  0
    2.8660   -4.9836    0.0000 C   0  0  0  0  0  0  0  0  0  0  0  0
   10.3029   -3.4358    0.0000 H   0  0  0  0  0  0  0  0  0  0  0  0
    8.3410   -1.6423    0.0000 H   0  0  0  0  0  0  0  0  0  0  0  0
    8.9192   -3.3803    0.0000 H   0  0  0  0  0  0  0  0  0  0  0  0
    9.6963   -3.6704    0.0000 H   0  0  0  0  0  0  0  0  0  0  0  0
   11.0854   -1.9286    0.0000 H   0  0  0  0  0  0  0  0  0  0  0  0
   10.6296   -1.2356    0.0000 H   0  0  0  0  0  0  0  0  0  0  0  0
   10.8222   -3.9366    0.0000 H   0  0  0  0  0  0  0  0  0  0  0  0
   11.6935   -3.8384    0.0000 H   0  0  0  0  0  0  0  0  0  0  0  0
   11.5954   -2.9671    0.0000 H   0  0  0  0  0  0  0  0  0  0  0  0
   10.3509    0.9433    0.0000 H   0  0  0  0  0  0  0  0  0  0  0  0
    7.2298   -3.7366    0.0000 H   0  0  0  0  0  0  0  0  0  0  0  0
    6.5418   -3.5934    0.0000 H   0  0  0  0  0  0  0  0  0  0  0  0
   10.9182   -0.0977    0.0000 H   0  0  0  0  0  0  0  0  0  0  0  0
   11.5768    0.3513    0.0000 H   0  0  0  0  0  0  0  0  0  0  0  0
   10.3373    1.6459    0.0000 H   0  0  0  0  0  0  0  0  0  0  0  0
    8.3072    3.7866    0.0000 H   0  0  0  0  0  0  0  0  0  0  0  0
    9.3595    3.2332    0.0000 H   0  0  0  0  0  0  0  0  0  0  0  0
    5.4006   -3.9149    0.0000 H   0  0  0  0  0  0  0  0  0  0  0  0
    5.6918   -4.6568    0.0000 H   0  0  0  0  0  0  0  0  0  0  0  0
    4.9128   -3.3873    0.0000 H   0  0  0  0  0  0  0  0  0  0  0  0
    8.2128    5.1257    0.0000 H   0  0  0  0  0  0  0  0  0  0  0  0
    8.1532    4.3309    0.0000 H   0  0  0  0  0  0  0  0  0  0  0  0
    7.8089    3.9920    0.0000 H   0  0  0  0  0  0  0  0  0  0  0  0
   10.0413    3.0989    0.0000 H   0  0  0  0  0  0  0  0  0  0  0  0
   10.7059    3.6708    0.0000 H   0  0  0  0  0  0  0  0  0  0  0  0
   10.1340    4.3354    0.0000 H   0  0  0  0  0  0  0  0  0  0  0  0
   12.0321    1.4665    0.0000 H   0  0  0  0  0  0  0  0  0  0  0  0
    5.0803    3.6474    0.0000 H   0  0  0  0  0  0  0  0  0  0  0  0
    9.7322    5.1698    0.0000 H   0  0  0  0  0  0  0  0  0  0  0  0
    9.5692    6.0313    0.0000 H   0  0  0  0  0  0  0  0  0  0  0  0
    8.7076    5.8683    0.0000 H   0  0  0  0  0  0  0  0  0  0  0  0
    3.6168   -2.0928    0.0000 H   0  0  0  0  0  0  0  0  0  0  0  0
    5.9690    4.4322    0.0000 H   0  0  0  0  0  0  0  0  0  0  0  0
    5.3847    4.9743    0.0000 H   0  0  0  0  0  0  0  0  0  0  0  0
    6.0440   -5.9512    0.0000 H   0  0  0  0  0  0  0  0  0  0  0  0
    7.7934   -3.7574    0.0000 H   0  0  0  0  0  0  0  0  0  0  0  0
    4.3983    3.4779    0.0000 H   0  0  0  0  0  0  0  0  0  0  0  0
    2.6540   -1.4010    0.0000 H   0  0  0  0  0  0  0  0  0  0  0  0
    2.2554   -2.0912    0.0000 H   0  0  0  0  0  0  0  0  0  0  0  0
    3.7636    4.5005    0.0000 H   0  0  0  0  0  0  0  0  0  0  0  0
    4.3479    3.9584    0.0000 H   0  0  0  0  0  0  0  0  0  0  0  0
    7.3105   -6.9612    0.0000 H   0  0  0  0  0  0  0  0  0  0  0  0
    9.0600   -4.7675    0.0000 H   0  0  0  0  0  0  0  0  0  0  0  0
    3.1526    1.9228    0.0000 H   0  0  0  0  0  0  0  0  0  0  0  0
    4.0916    1.1929    0.0000 H   0  0  0  0  0  0  0  0  0  0  0  0
    8.8185   -6.3694    0.0000 H   0  0  0  0  0  0  0  0  0  0  0  0
    2.6737    0.4908    0.0000 H   0  0  0  0  0  0  0  0  0  0  0  0
    1.4631   -3.1736    0.0000 H   0  0  0  0  0  0  0  0  0  0  0  0
    4.2690   -3.1736    0.0000 H   0  0  0  0  0  0  0  0  0  0  0  0
    2.9264    6.3481    0.0000 H   0  0  0  0  0  0  0  0  0  0  0  0
    2.6874    5.3012    0.0000 H   0  0  0  0  0  0  0  0  0  0  0  0
    1.4631   -4.7936    0.0000 H   0  0  0  0  0  0  0  0  0  0  0  0
    4.2690   -4.7936    0.0000 H   0  0  0  0  0  0  0  0  0  0  0  0
    2.3291   -6.2936    0.0000 H   0  0  0  0  0  0  0  0  0  0  0  0
  1 23  2  0  0  0  0
  2 24  2  0  0  0  0
  3 27  1  0  0  0  0
  3 84  1  0  0  0  0
  4 29  2  0  0  0  0
  5 36  2  0  0  0  0
  6 45  2  0  0  0  0
  7 48  2  0  0  0  0
  8 52  2  0  0  0  0
  9 57  1  0  0  0  0
  9111  1  0  0  0  0
 10 19  1  0  0  0  0
 10 21  1  0  0  0  0
 10 23  1  0  0  0  0
 11 24  1  0  0  0  0
 11 26  1  0  0  0  0
 11 68  1  0  0  0  0
 12 25  1  0  0  0  0
 12 29  1  0  0  0  0
 12 72  1  0  0  0  0
 13 28  1  0  0  0  0
 13 36  1  0  0  0  0
 13 80  1  0  0  0  0
 14 32  2  0  0  0  0
 14 39  1  0  0  0  0
 15 37  1  0  0  0  0
 15 48  1  0  0  0  0
 15 94  1  0  0  0  0
 16 45  1  0  0  0  0
 16 49  1  0  0  0  0
 16104  1  0  0  0  0
 17 52  1  0  0  0  0
 17107  1  0  0  0  0
 17108  1  0  0  0  0
 18 20  1  0  0  0  0
 18 21  1  0  0  0  0
 18 22  1  1  0  0  0
 18 58  1  0  0  0  0
 19 20  1  0  0  0  0
 19 24  1  0  0  0  0
 19 59  1  6  0  0  0
 20 60  1  0  0  0  0
 20 61  1  0  0  0  0
 21 62  1  0  0  0  0
 21 63  1  0  0  0  0
 22 64  1  0  0  0  0
 22 65  1  0  0  0  0
 22 66  1  0  0  0  0
 23 25  1  0  0  0  0
 25 27  1  1  0  0  0
 25 67  1  0  0  0  0
 26 31  1  1  0  0  0
 26 32  1  0  0  0  0
 26 69  1  0  0  0  0
 27 70  1  0  0  0  0
 27 71  1  0  0  0  0
 28 29  1  0  0  0  0
 28 30  1  0  0  0  0
 28 73  1  6  0  0  0
 30 33  1  0  0  0  0
 30 34  1  6  0  0  0
 30 74  1  0  0  0  0
 31 35  1  0  0  0  0
 31 75  1  0  0  0  0
 31 76  1  0  0  0  0
 32 77  1  0  0  0  0
 33 38  1  0  0  0  0
 33 78  1  0  0  0  0
 33 79  1  0  0  0  0
 34 81  1  0  0  0  0
 34 82  1  0  0  0  0
 34 83  1  0  0  0  0
 35 41  2  0  0  0  0
 35 42  1  0  0  0  0
 36 37  1  0  0  0  0
 37 40  1  6  0  0  0
 37 85  1  0  0  0  0
 38 86  1  0  0  0  0
 38 87  1  0  0  0  0
 38 88  1  0  0  0  0
 39 43  1  1  0  0  0
 39 45  1  0  0  0  0
 39 89  1  0  0  0  0
 40 44  1  0  0  0  0
 40 90  1  0  0  0  0
 40 91  1  0  0  0  0
 41 46  1  0  0  0  0
 41 92  1  0  0  0  0
 42 47  2  0  0  0  0
 42 93  1  0  0  0  0
 43 51  1  0  0  0  0
 43 95  1  0  0  0  0
 43 96  1  0  0  0  0
 44 52  1  0  0  0  0
 44 97  1  0  0  0  0
 44 98  1  0  0  0  0
 46 50  2  0  0  0  0
 46 99  1  0  0  0  0
 47 50  1  0  0  0  0
 47100  1  0  0  0  0
 48 49  1  0  0  0  0
 49101  1  0  0  0  0
 49102  1  0  0  0  0
 50103  1  0  0  0  0
 51 53  2  0  0  0  0
 51 54  1  0  0  0  0
 53 55  1  0  0  0  0
 53105  1  0  0  0  0
 54 56  2  0  0  0  0
 54106  1  0  0  0  0
 55 57  2  0  0  0  0
 55109  1  0  0  0  0
 56 57  1  0  0  0  0
 56110  1  0  0  0  0
M  END
> <PUBCHEM_COMPOUND_CID>
10509499

> <PUBCHEM_COMPOUND_CANONICALIZED>
1

> <PUBCHEM_CACTVS_COMPLEXITY>
1450

> <PUBCHEM_CACTVS_HBOND_ACCEPTOR>
10

> <PUBCHEM_CACTVS_HBOND_DONOR>
8

> <PUBCHEM_CACTVS_ROTATABLE_BOND>
10

> <PUBCHEM_CACTVS_SUBSKEYS>
AAADcfB//AAAAAAAAAAAAAAAAAAAAWAAAAAwYAAAAAAAAAABQAAAHgAQCAAADSzhmAYyBoPAAgCoAjFzFAACAAAgIAAIiIG+CIgKdjaCkTOUcAAm9hGYmAecy6COIAAAAAAAAABAAAAAAAAAAAAAAAAAAA==

> <PUBCHEM_IUPAC_OPENEYE_NAME>
3-[(3S,6S,9R,15S,18S,21S,23S)-18-benzyl-3-(hydroxymethyl)-15-[(4-hydroxyphenyl)methyl]-23-methyl-6-[(1S)-1-methylpropyl]-2,5,8,11,14,20-hexaoxo-1,4,7,10,13,16,19-heptazabicyclo[19.3.0]tetracos-16-en-9-yl]propanamide

> <PUBCHEM_IUPAC_CAS_NAME>
3-[(3S,6S,9R,15S,18S,21S,23S)-6-[(2S)-butan-2-yl]-3-(hydroxymethyl)-15-[(4-hydroxyphenyl)methyl]-23-methyl-2,5,8,11,14,20-hexaoxo-18-(phenylmethyl)-1,4,7,10,13,16,19-heptazabicyclo[19.3.0]tetracos-16-en-9-yl]propanamide

> <PUBCHEM_IUPAC_NAME>
3-[(3S,6S,9R,15S,18S,21S,23S)-18-benzyl-6-[(2S)-butan-2-yl]-3-(hydroxymethyl)-15-[(4-hydroxyphenyl)methyl]-23-methyl-2,5,8,11,14,20-hexaoxo-1,4,7,10,13,16,19-heptazabicyclo[19.3.0]tetracos-16-en-9-yl]propanamide

> <PUBCHEM_IUPAC_SYSTEMATIC_NAME>
3-[(3S,6S,9R,15S,18S,21S,23S)-6-[(2S)-butan-2-yl]-3-(hydroxymethyl)-15-[(4-hydroxyphenyl)methyl]-23-methyl-2,5,8,11,14,20-hexakis(oxidanylidene)-18-(phenylmethyl)-1,4,7,10,13,16,19-heptazabicyclo[19.3.0]tetracos-16-en-9-yl]propanamide

> <PUBCHEM_IUPAC_TRADITIONAL_NAME>
3-[(3S,6S,9R,15S,18S,21S,23S)-18-benzyl-15-(4-hydroxybenzyl)-2,5,8,11,14,20-hexaketo-23-methyl-3-methylol-6-[(1S)-1-methylpropyl]-1,4,7,10,13,16,19-heptazabicyclo[19.3.0]tetracos-16-en-9-yl]propionamide

> <PUBCHEM_IUPAC_INCHI>
InChI=1S/C40H54N8O9/c1-4-24(3)35-39(56)46-31(22-49)40(57)48-21-23(2)16-32(48)38(55)44-27(17-25-8-6-5-7-9-25)19-42-30(18-26-10-12-28(50)13-11-26)36(53)43-20-34(52)45-29(37(54)47-35)14-15-33(41)51/h5-13,19,23-24,27,29-32,35,49-50H,4,14-18,20-22H2,1-3H3,(H2,41,51)(H,43,53)(H,44,55)(H,45,52)(H,46,56)(H,47,54)/t23-,24-,27-,29+,30-,31-,32-,35-/m0/s1

> <PUBCHEM_IUPAC_INCHIKEY>
OYHPNVXZUBWKJE-BZDICHPASA-N

> <PUBCHEM_XLOGP3_AA>
1.3

> <PUBCHEM_EXACT_MASS>
790.401375

> <PUBCHEM_MOLECULAR_FORMULA>
C40H54N8O9

> <PUBCHEM_MOLECULAR_WEIGHT>
790.90496

> <PUBCHEM_OPENEYE_CAN_SMILES>
CCC(C)C1C(=O)NC(C(=O)N2CC(CC2C(=O)NC(C=NC(C(=O)NCC(=O)NC(C(=O)N1)CCC(=O)N)CC3=CC=C(C=C3)O)CC4=CC=CC=C4)C)CO

> <PUBCHEM_OPENEYE_ISO_SMILES>
CC[C@H](C)[C@H]1C(=O)N[C@H](C(=O)N2C[C@H](C[C@H]2C(=O)N[C@H](C=N[C@H](C(=O)NCC(=O)N[C@@H](C(=O)N1)CCC(=O)N)CC3=CC=C(C=C3)O)CC4=CC=CC=C4)C)CO

> <PUBCHEM_CACTVS_TPSA>
262

> <PUBCHEM_MONOISOTOPIC_WEIGHT>
790.401375

> <PUBCHEM_TOTAL_CHARGE>
0

> <PUBCHEM_HEAVY_ATOM_COUNT>
57

> <PUBCHEM_ATOM_DEF_STEREO_COUNT>
8

> <PUBCHEM_ATOM_UDEF_STEREO_COUNT>
0

> <PUBCHEM_BOND_DEF_STEREO_COUNT>
0

> <PUBCHEM_BOND_UDEF_STEREO_COUNT>
0

> <PUBCHEM_ISOTOPIC_ATOM_COUNT>
0

> <PUBCHEM_COMPONENT_COUNT>
1

> <PUBCHEM_CACTVS_TAUTO_COUNT>
1001

> <PUBCHEM_COORDINATE_TYPE>
1
5
255

> <PUBCHEM_BONDANNOTATIONS>
18  22  5
19  59  6
25  27  5
26  31  5
28  73  6
30  34  6
35  41  8
35  42  8
37  40  6
39  43  5
41  46  8
42  47  8
46  50  8
47  50  8
51  53  8
51  54  8
53  55  8
54  56  8
55  57  8
56  57  8

$$$$

