6824
  -OEChem-07051213143D

 32 34  0     0  0  0  0  0  0999 V2000
    0.5387   -0.3949   -0.5143 N   0  0  0  0  0  0  0  0  0  0  0  0
   -0.2275   -3.0713   -0.2451 N   0  0  0  0  0  0  0  0  0  0  0  0
    1.1438   -0.2449    0.5701 N   0  0  0  0  0  0  0  0  0  0  0  0
   -1.7660    0.3251   -0.1508 C   0  0  0  0  0  0  0  0  0  0  0  0
   -3.1172   -0.0132    0.1004 C   0  0  0  0  0  0  0  0  0  0  0  0
   -0.8114   -0.6986   -0.2644 C   0  0  0  0  0  0  0  0  0  0  0  0
   -1.1834   -2.0368   -0.1325 C   0  0  0  0  0  0  0  0  0  0  0  0
   -3.4737   -1.3654    0.2304 C   0  0  0  0  0  0  0  0  0  0  0  0
   -1.4095    1.6772   -0.2809 C   0  0  0  0  0  0  0  0  0  0  0  0
   -4.0719    1.0105    0.2138 C   0  0  0  0  0  0  0  0  0  0  0  0
   -2.5121   -2.3695    0.1143 C   0  0  0  0  0  0  0  0  0  0  0  0
   -2.3711    2.6814   -0.1654 C   0  0  0  0  0  0  0  0  0  0  0  0
   -3.6998    2.3486    0.0815 C   0  0  0  0  0  0  0  0  0  0  0  0
    2.4932    0.0584    0.3209 C   0  0  0  0  0  0  0  0  0  0  0  0
    2.8886    1.3856    0.1848 C   0  0  0  0  0  0  0  0  0  0  0  0
    3.4238   -0.9703    0.2114 C   0  0  0  0  0  0  0  0  0  0  0  0
    4.2277    1.6870   -0.0634 C   0  0  0  0  0  0  0  0  0  0  0  0
    4.7629   -0.6688   -0.0366 C   0  0  0  0  0  0  0  0  0  0  0  0
    5.1648    0.6599   -0.1741 C   0  0  0  0  0  0  0  0  0  0  0  0
   -4.5063   -1.6485    0.4236 H   0  0  0  0  0  0  0  0  0  0  0  0
   -0.3851    1.9816   -0.4804 H   0  0  0  0  0  0  0  0  0  0  0  0
   -5.1162    0.7737    0.4064 H   0  0  0  0  0  0  0  0  0  0  0  0
   -2.8153   -3.4082    0.2194 H   0  0  0  0  0  0  0  0  0  0  0  0
   -2.0827    3.7234   -0.2697 H   0  0  0  0  0  0  0  0  0  0  0  0
   -4.4480    3.1308    0.1709 H   0  0  0  0  0  0  0  0  0  0  0  0
   -0.5103   -4.0374   -0.1486 H   0  0  0  0  0  0  0  0  0  0  0  0
    0.7407   -2.8423   -0.4267 H   0  0  0  0  0  0  0  0  0  0  0  0
    2.1661    2.1925    0.2712 H   0  0  0  0  0  0  0  0  0  0  0  0
    3.1197   -2.0080    0.3181 H   0  0  0  0  0  0  0  0  0  0  0  0
    4.5408    2.7215   -0.1700 H   0  0  0  0  0  0  0  0  0  0  0  0
    5.4927   -1.4685   -0.1225 H   0  0  0  0  0  0  0  0  0  0  0  0
    6.2075    0.8946   -0.3671 H   0  0  0  0  0  0  0  0  0  0  0  0
  1  3  2  0  0  0  0
  1  6  1  0  0  0  0
  2  7  1  0  0  0  0
  2 26  1  0  0  0  0
  2 27  1  0  0  0  0
  3 14  1  0  0  0  0
  4  5  1  0  0  0  0
  4  6  1  0  0  0  0
  4  9  2  0  0  0  0
  5  8  1  0  0  0  0
  5 10  2  0  0  0  0
  6  7  2  0  0  0  0
  7 11  1  0  0  0  0
  8 11  2  0  0  0  0
  8 20  1  0  0  0  0
  9 12  1  0  0  0  0
  9 21  1  0  0  0  0
 10 13  1  0  0  0  0
 10 22  1  0  0  0  0
 11 23  1  0  0  0  0
 12 13  2  0  0  0  0
 12 24  1  0  0  0  0
 13 25  1  0  0  0  0
 14 15  2  0  0  0  0
 14 16  1  0  0  0  0
 15 17  1  0  0  0  0
 15 28  1  0  0  0  0
 16 18  2  0  0  0  0
 16 29  1  0  0  0  0
 17 19  2  0  0  0  0
 17 30  1  0  0  0  0
 18 19  1  0  0  0  0
 18 31  1  0  0  0  0
 19 32  1  0  0  0  0
M  END
> <PUBCHEM_COMPOUND_CID>
6824

> <PUBCHEM_CONFORMER_RMSD>
0.6

> <PUBCHEM_CONFORMER_DIVERSEORDER>
1
2
3

> <PUBCHEM_MMFF94_PARTIAL_CHARGES>
30
1 -0.18
10 -0.15
11 -0.15
12 -0.15
13 -0.15
14 0.18
15 -0.15
16 -0.15
17 -0.15
18 -0.15
19 -0.15
2 -0.9
20 0.15
21 0.15
22 0.15
23 0.15
24 0.15
25 0.15
26 0.4
27 0.4
28 0.15
29 0.15
3 -0.18
30 0.15
31 0.15
32 0.15
6 0.18
7 0.1
8 -0.15
9 -0.15

> <PUBCHEM_EFFECTIVE_ROTOR_COUNT>
2

> <PUBCHEM_PHARMACOPHORE_FEATURES>
5
1 2 cation
1 2 donor
6 14 15 16 17 18 19 rings
6 4 5 6 7 8 11 rings
6 4 5 9 10 12 13 rings

> <PUBCHEM_HEAVY_ATOM_COUNT>
19

> <PUBCHEM_ATOM_DEF_STEREO_COUNT>
0

> <PUBCHEM_ATOM_UDEF_STEREO_COUNT>
0

> <PUBCHEM_BOND_DEF_STEREO_COUNT>
0

> <PUBCHEM_BOND_UDEF_STEREO_COUNT>
0

> <PUBCHEM_ISOTOPIC_ATOM_COUNT>
0

> <PUBCHEM_COMPONENT_COUNT>
1

> <PUBCHEM_CACTVS_TAUTO_COUNT>
1

> <PUBCHEM_CONFORMER_ID>
00001AA800000001

> <PUBCHEM_MMFF94_ENERGY>
68.3592

> <PUBCHEM_FEATURE_SELFOVERLAP>
25.398

> <PUBCHEM_SHAPE_FINGERPRINT>
10319926 262 18336842931102464850
10411042 1 17906452121997279639
10493431 412 18263634216988821745
10608611 8 18335704918754733616
10616163 171 18410573959677488238
11405975 8 18413112775386808722
12107183 9 17909838961391538882
12173636 292 18410300194003141166
12236239 1 17775567524329545127
12390115 104 18188755280071338705
13140716 1 17764018461199051593
138480 1 17329711431898433223
14251751 93 18412267267650183770
14420673 8 18197216073850764418
14790565 3 18264762336924764609
15042514 8 18267861680041334531
15196674 1 18410856551424693688
15442244 35 18340773732089200106
17834072 32 18338797939263459633
20510252 161 18335136471227226003
20645477 56 18411133658092499812
20645477 70 16805593811841476406
21065198 57 18410012122426207366
21267235 1 18341041913541061186
21524375 3 18261116330517016823
21652331 79 18412262796526087344
2297311 6 18337377245823049558
2306618 200 18187075140293494403
23175994 123 17095234804981002608
23366157 5 17985262134267689651
23402539 116 18262243214330514911
23557571 272 18262226730066424796
23559900 14 18188206628343523142
245318 6 16409557158100696220
2748010 2 17981029028286831159
3298306 158 18114173181677094598
335352 9 18266178516696087150
3545911 37 18409165524174233744
4214541 1 18410856568704633760
5104073 3 18411984650576092016
559249 180 18339647845262893002
7097593 13 17914353504421909050
7364860 26 17831862721999603343
77779 3 18411418389171164594
9709674 26 18335415768735236510

> <PUBCHEM_SHAPE_MULTIPOLES>
376.07
9.68
2.94
0.66
9.93
0.41
0
-3.19
-0.36
-2.58
0.14
0.01
0
0.02

> <PUBCHEM_SHAPE_SELFOVERLAP>
834.604

> <PUBCHEM_SHAPE_VOLUME>
199.9

> <PUBCHEM_COORDINATE_TYPE>
2
5
10

$$$$

