9276
  -OEChem-06261203343D

 43 47  0     1  0  0  0  0  0999 V2000
    0.9547   -2.6071    0.2649 O   0  0  0  0  0  0  0  0  0  0  0  0
   -1.0219   -3.9655    0.2215 O   0  0  0  0  0  0  0  0  0  0  0  0
    2.5170   -1.1720   -0.9185 O   0  0  0  0  0  0  0  0  0  0  0  0
    4.5811    0.5107   -0.6350 O   0  0  0  0  0  0  0  0  0  0  0  0
   -3.0471    2.1104    0.1579 N   0  0  2  0  0  0  0  0  0  0  0  0
   -1.6799    1.6310   -0.1720 C   0  0  2  0  0  0  0  0  0  0  0  0
   -1.5329    0.1072   -0.0637 C   0  0  0  0  0  0  0  0  0  0  0  0
   -0.6162    2.2891    0.7369 C   0  0  0  0  0  0  0  0  0  0  0  0
   -2.6882   -0.7164   -0.0886 C   0  0  0  0  0  0  0  0  0  0  0  0
   -0.2285   -0.4580    0.0121 C   0  0  0  0  0  0  0  0  0  0  0  0
   -4.0438    1.3445   -0.6066 C   0  0  0  0  0  0  0  0  0  0  0  0
   -4.0617   -0.1056   -0.1349 C   0  0  0  0  0  0  0  0  0  0  0  0
    0.7707    1.7900    0.3963 C   0  0  0  0  0  0  0  0  0  0  0  0
    0.9503    0.4385    0.0269 C   0  0  0  0  0  0  0  0  0  0  0  0
   -0.1696   -1.8470    0.1119 C   0  0  0  0  0  0  0  0  0  0  0  0
   -2.5660   -2.1066    0.0012 C   0  0  0  0  0  0  0  0  0  0  0  0
   -1.3003   -2.6376    0.1026 C   0  0  0  0  0  0  0  0  0  0  0  0
   -3.2189    3.5382   -0.1317 C   0  0  0  0  0  0  0  0  0  0  0  0
    2.2477    0.0303   -0.3273 C   0  0  0  0  0  0  0  0  0  0  0  0
    1.8637    2.6673    0.4717 C   0  0  0  0  0  0  0  0  0  0  0  0
    3.3307    0.9134   -0.2685 C   0  0  0  0  0  0  0  0  0  0  0  0
    3.1407    2.2279    0.1404 C   0  0  0  0  0  0  0  0  0  0  0  0
    0.4117   -3.9378    0.3165 C   0  0  0  0  0  0  0  0  0  0  0  0
    5.4066   -0.0451    0.3858 C   0  0  0  0  0  0  0  0  0  0  0  0
   -1.4586    1.8818   -1.2211 H   0  0  0  0  0  0  0  0  0  0  0  0
   -0.8135    2.0726    1.7952 H   0  0  0  0  0  0  0  0  0  0  0  0
   -0.6299    3.3771    0.6123 H   0  0  0  0  0  0  0  0  0  0  0  0
   -3.8348    1.3960   -1.6839 H   0  0  0  0  0  0  0  0  0  0  0  0
   -5.0494    1.7561   -0.4536 H   0  0  0  0  0  0  0  0  0  0  0  0
   -4.7050   -0.6865   -0.8068 H   0  0  0  0  0  0  0  0  0  0  0  0
   -4.4953   -0.1604    0.8719 H   0  0  0  0  0  0  0  0  0  0  0  0
   -3.4407   -2.7487    0.0064 H   0  0  0  0  0  0  0  0  0  0  0  0
   -2.9748    3.7817   -1.1719 H   0  0  0  0  0  0  0  0  0  0  0  0
   -2.6061    4.1582    0.5288 H   0  0  0  0  0  0  0  0  0  0  0  0
   -4.2537    3.8478    0.0567 H   0  0  0  0  0  0  0  0  0  0  0  0
    1.7206    3.7005    0.7776 H   0  0  0  0  0  0  0  0  0  0  0  0
    3.9778    2.9188    0.1884 H   0  0  0  0  0  0  0  0  0  0  0  0
    0.7114   -4.4031    1.2624 H   0  0  0  0  0  0  0  0  0  0  0  0
    0.8318   -4.5216   -0.5104 H   0  0  0  0  0  0  0  0  0  0  0  0
    3.4584   -1.2165   -1.1574 H   0  0  0  0  0  0  0  0  0  0  0  0
    6.3540   -0.3494   -0.0672 H   0  0  0  0  0  0  0  0  0  0  0  0
    4.9332   -0.9258    0.8315 H   0  0  0  0  0  0  0  0  0  0  0  0
    5.6123    0.7017    1.1592 H   0  0  0  0  0  0  0  0  0  0  0  0
  1 15  1  0  0  0  0
  1 23  1  0  0  0  0
  2 17  1  0  0  0  0
  2 23  1  0  0  0  0
  3 19  1  0  0  0  0
  3 40  1  0  0  0  0
  4 21  1  0  0  0  0
  4 24  1  0  0  0  0
  5  6  1  0  0  0  0
  5 11  1  0  0  0  0
  5 18  1  0  0  0  0
  6  7  1  0  0  0  0
  6  8  1  0  0  0  0
  6 25  1  0  0  0  0
  7  9  1  0  0  0  0
  7 10  2  0  0  0  0
  8 13  1  0  0  0  0
  8 26  1  0  0  0  0
  8 27  1  0  0  0  0
  9 12  1  0  0  0  0
  9 16  2  0  0  0  0
 10 14  1  0  0  0  0
 10 15  1  0  0  0  0
 11 12  1  0  0  0  0
 11 28  1  0  0  0  0
 11 29  1  0  0  0  0
 12 30  1  0  0  0  0
 12 31  1  0  0  0  0
 13 14  2  0  0  0  0
 13 20  1  0  0  0  0
 14 19  1  0  0  0  0
 15 17  2  0  0  0  0
 16 17  1  0  0  0  0
 16 32  1  0  0  0  0
 18 33  1  0  0  0  0
 18 34  1  0  0  0  0
 18 35  1  0  0  0  0
 19 21  2  0  0  0  0
 20 22  2  0  0  0  0
 20 36  1  0  0  0  0
 21 22  1  0  0  0  0
 22 37  1  0  0  0  0
 23 38  1  0  0  0  0
 23 39  1  0  0  0  0
 24 41  1  0  0  0  0
 24 42  1  0  0  0  0
 24 43  1  0  0  0  0
M  END
> <PUBCHEM_COMPOUND_CID>
9276

> <PUBCHEM_CONFORMER_RMSD>
0.6

> <PUBCHEM_CONFORMER_DIVERSEORDER>
2
1

> <PUBCHEM_MMFF94_PARTIAL_CHARGES>
26
1 -0.36
11 0.27
12 0.14
13 -0.14
15 0.08
16 -0.15
17 0.08
18 0.27
19 0.08
2 -0.36
20 -0.15
21 0.08
22 -0.15
23 0.56
24 0.28
3 -0.53
32 0.15
36 0.15
37 0.15
4 -0.36
40 0.45
5 -0.81
6 0.41
7 -0.14
8 0.14
9 -0.14

> <PUBCHEM_EFFECTIVE_ROTOR_COUNT>
2.4

> <PUBCHEM_PHARMACOPHORE_FEATURES>
10
1 1 acceptor
1 2 acceptor
1 3 donor
1 4 acceptor
1 5 cation
5 1 2 15 17 23 rings
6 13 14 19 20 21 22 rings
6 5 6 7 9 11 12 rings
6 6 7 8 10 13 14 rings
6 7 9 10 15 16 17 rings

> <PUBCHEM_HEAVY_ATOM_COUNT>
24

> <PUBCHEM_ATOM_DEF_STEREO_COUNT>
0

> <PUBCHEM_ATOM_UDEF_STEREO_COUNT>
1

> <PUBCHEM_BOND_DEF_STEREO_COUNT>
0

> <PUBCHEM_BOND_UDEF_STEREO_COUNT>
0

> <PUBCHEM_ISOTOPIC_ATOM_COUNT>
0

> <PUBCHEM_COMPONENT_COUNT>
1

> <PUBCHEM_CACTVS_TAUTO_COUNT>
9

> <PUBCHEM_CONFORMER_ID>
0000243C00000002

> <PUBCHEM_MMFF94_ENERGY>
86.4371

> <PUBCHEM_FEATURE_SELFOVERLAP>
50.987

> <PUBCHEM_SHAPE_FINGERPRINT>
10319926 262 18118988909995524008
10411042 1 17618502082534534866
10693767 8 17608955092085523791
10906281 52 18115849872511102116
10967382 1 17833831947161101403
1100329 8 18409449141838238120
11370993 70 18411705399801875605
12173636 292 18411985724017579501
12403259 226 18046347422614165979
12553582 1 17187279067843231331
12730499 353 18269274728982666429
12788726 201 17767973030476969984
13140716 1 18194958544043719579
13583140 156 17131833174766954633
138480 1 17546447142616895731
14223421 5 17688029713069372872
14466204 15 18338525247821800400
14790565 3 18338792441869059000
14955137 171 16605162999252525939
15042514 8 18197213642461100195
15196674 1 18265333910950118888
16752209 62 18411145705644388432
16945 1 18338518525791410137
19591789 44 18410853265711090521
20510252 161 18263923242106081833
20775438 99 16456617316430914383
21279426 13 18192145108895003118
21796203 349 16461036807227930274
23184049 29 17906735804443943674
2334 1 18409448055369871481
23366157 5 17770494541056821819
23402539 116 18335147470738749836
23558518 356 18127691522299763312
23559900 14 18262800658383834184
23566358 2 18262514930692687965
238 59 17552397609695128597
2748010 2 17254000744915676473
3084891 72 18408042913932615658
3091708 16 9195502148922151651
335352 9 18410011013934352732
3380486 145 17763169255390148691
350125 39 18411697695068448297
352729 6 18338510850616280369
484989 97 18197222443350223703
5104073 3 18264205803667372936
6138700 20 18265613380820843118
7226269 152 18186524332471425976
7364860 26 18122908904327226631
81228 2 17766846026541992377
8809292 202 18265612091839640960
9709674 26 18119247260045008948
9981440 41 18341613767172599915

> <PUBCHEM_SHAPE_MULTIPOLES>
465.45
7.35
4.58
0.72
5.27
2.69
0.01
-3.46
0.84
-2.26
-0.63
0.12
-0.07
0.31

> <PUBCHEM_SHAPE_SELFOVERLAP>
1051.58

> <PUBCHEM_SHAPE_VOLUME>
243.6

> <PUBCHEM_COORDINATE_TYPE>
2
5
10

$$$$

