128828
  -OEChem-07051213072D

 38 40  0     0  0  0  0  0  0999 V2000
    7.9939    0.3660    0.0000 S   0  0  0  0  0  0  0  0  0  0  0  0
    2.0000    1.8660    0.0000 F   0  0  0  0  0  0  0  0  0  0  0  0
    2.3660    0.5000    0.0000 F   0  0  0  0  0  0  0  0  0  0  0  0
    3.3660    2.2320    0.0000 F   0  0  0  0  0  0  0  0  0  0  0  0
   11.4939   -2.2320    0.0000 O   0  0  0  0  0  0  0  0  0  0  0  0
    6.4103    1.1708    0.0000 N   0  0  0  0  0  0  0  0  0  0  0  0
    6.4103   -0.4387    0.0000 N   0  0  0  0  0  0  0  0  0  0  0  0
    9.9939    0.3660    0.0000 N   0  0  0  0  0  0  0  0  0  0  0  0
    5.4641    0.8660    0.0000 C   0  0  0  0  0  0  0  0  0  0  0  0
    5.4641   -0.1340    0.0000 C   0  0  0  0  0  0  0  0  0  0  0  0
    6.9939    0.3660    0.0000 C   0  0  0  0  0  0  0  0  0  0  0  0
    4.5981    1.3660    0.0000 C   0  0  0  0  0  0  0  0  0  0  0  0
    3.7320    0.8660    0.0000 C   0  0  0  0  0  0  0  0  0  0  0  0
    9.4939   -0.5000    0.0000 C   0  0  0  0  0  0  0  0  0  0  0  0
    8.4939   -0.5000    0.0000 C   0  0  0  0  0  0  0  0  0  0  0  0
    9.9939   -1.3660    0.0000 C   0  0  0  0  0  0  0  0  0  0  0  0
    4.5981   -0.6340    0.0000 C   0  0  0  0  0  0  0  0  0  0  0  0
    3.7320   -0.1340    0.0000 C   0  0  0  0  0  0  0  0  0  0  0  0
   10.9939   -1.3660    0.0000 C   0  0  0  0  0  0  0  0  0  0  0  0
    2.8660    1.3660    0.0000 C   0  0  0  0  0  0  0  0  0  0  0  0
    9.4939   -2.2320    0.0000 C   0  0  0  0  0  0  0  0  0  0  0  0
   11.4939   -0.5000    0.0000 C   0  0  0  0  0  0  0  0  0  0  0  0
   10.9939    0.3660    0.0000 C   0  0  0  0  0  0  0  0  0  0  0  0
   12.4939   -2.2320    0.0000 C   0  0  0  0  0  0  0  0  0  0  0  0
    6.6029    1.7601    0.0000 H   0  0  0  0  0  0  0  0  0  0  0  0
    4.5981    1.9860    0.0000 H   0  0  0  0  0  0  0  0  0  0  0  0
    7.9113   -0.7121    0.0000 H   0  0  0  0  0  0  0  0  0  0  0  0
    8.6016   -1.1106    0.0000 H   0  0  0  0  0  0  0  0  0  0  0  0
    4.5981   -1.2540    0.0000 H   0  0  0  0  0  0  0  0  0  0  0  0
    3.1951   -0.4440    0.0000 H   0  0  0  0  0  0  0  0  0  0  0  0
    8.9570   -1.9220    0.0000 H   0  0  0  0  0  0  0  0  0  0  0  0
    9.1839   -2.7690    0.0000 H   0  0  0  0  0  0  0  0  0  0  0  0
   10.0309   -2.5420    0.0000 H   0  0  0  0  0  0  0  0  0  0  0  0
   12.1139   -0.5000    0.0000 H   0  0  0  0  0  0  0  0  0  0  0  0
   11.3039    0.9030    0.0000 H   0  0  0  0  0  0  0  0  0  0  0  0
   12.4939   -2.8521    0.0000 H   0  0  0  0  0  0  0  0  0  0  0  0
   13.1139   -2.2320    0.0000 H   0  0  0  0  0  0  0  0  0  0  0  0
   12.4939   -1.6120    0.0000 H   0  0  0  0  0  0  0  0  0  0  0  0
  1 11  1  0  0  0  0
  1 15  1  0  0  0  0
  2 20  1  0  0  0  0
  3 20  1  0  0  0  0
  4 20  1  0  0  0  0
  5 19  1  0  0  0  0
  5 24  1  0  0  0  0
  6  9  1  0  0  0  0
  6 11  1  0  0  0  0
  6 25  1  0  0  0  0
  7 10  1  0  0  0  0
  7 11  2  0  0  0  0
  8 14  2  0  0  0  0
  8 23  1  0  0  0  0
  9 10  2  0  0  0  0
  9 12  1  0  0  0  0
 10 17  1  0  0  0  0
 12 13  2  0  0  0  0
 12 26  1  0  0  0  0
 13 18  1  0  0  0  0
 13 20  1  0  0  0  0
 14 15  1  0  0  0  0
 14 16  1  0  0  0  0
 15 27  1  0  0  0  0
 15 28  1  0  0  0  0
 16 19  2  0  0  0  0
 16 21  1  0  0  0  0
 17 18  2  0  0  0  0
 17 29  1  0  0  0  0
 18 30  1  0  0  0  0
 19 22  1  0  0  0  0
 21 31  1  0  0  0  0
 21 32  1  0  0  0  0
 21 33  1  0  0  0  0
 22 23  2  0  0  0  0
 22 34  1  0  0  0  0
 23 35  1  0  0  0  0
 24 36  1  0  0  0  0
 24 37  1  0  0  0  0
 24 38  1  0  0  0  0
M  END
> <PUBCHEM_COMPOUND_CID>
128828

> <PUBCHEM_COMPOUND_CANONICALIZED>
1

> <PUBCHEM_CACTVS_COMPLEXITY>
426

> <PUBCHEM_CACTVS_HBOND_ACCEPTOR>
7

> <PUBCHEM_CACTVS_HBOND_DONOR>
1

> <PUBCHEM_CACTVS_ROTATABLE_BOND>
4

> <PUBCHEM_CACTVS_SUBSKEYS>
AAADccB7IYBAAAAAAAAAAAAAAAAAAWAAAAA8QAAAAAAAAFgB/AAAHwQQAAAADAzF3ha/1rbJlAigAzRnZACC2i3xMrAJ2SA+fJiMbuLkuZuUMChukBrI6CcQgAAOCAAAQAAAACAQAACAAAAAQAAAAAAAAA==

> <PUBCHEM_IUPAC_OPENEYE_NAME>
2-[(4-methoxy-3-methyl-2-pyridyl)methylsulfanyl]-6-(trifluoromethyl)-1H-benzimidazole

> <PUBCHEM_IUPAC_CAS_NAME>
2-[(4-methoxy-3-methyl-2-pyridinyl)methylthio]-6-(trifluoromethyl)-1H-benzimidazole

> <PUBCHEM_IUPAC_NAME>
2-[(4-methoxy-3-methylpyridin-2-yl)methylsulfanyl]-6-(trifluoromethyl)-1H-benzimidazole

> <PUBCHEM_IUPAC_SYSTEMATIC_NAME>
2-[(4-methoxy-3-methyl-pyridin-2-yl)methylsulfanyl]-6-(trifluoromethyl)-1H-benzimidazole

> <PUBCHEM_IUPAC_TRADITIONAL_NAME>
2-[(4-methoxy-3-methyl-2-pyridyl)methylthio]-6-(trifluoromethyl)-1H-benzimidazole

> <PUBCHEM_IUPAC_INCHI>
InChI=1S/C16H14F3N3OS/c1-9-13(20-6-5-14(9)23-2)8-24-15-21-11-4-3-10(16(17,18)19)7-12(11)22-15/h3-7H,8H2,1-2H3,(H,21,22)

> <PUBCHEM_IUPAC_INCHIKEY>
CEXGUUCQSXKHRS-UHFFFAOYSA-N

> <PUBCHEM_XLOGP3_AA>
4

> <PUBCHEM_EXACT_MASS>
353.080968

> <PUBCHEM_MOLECULAR_FORMULA>
C16H14F3N3OS

> <PUBCHEM_MOLECULAR_WEIGHT>
353.36207

> <PUBCHEM_OPENEYE_CAN_SMILES>
CC1=C(C=CN=C1CSC2=NC3=C(N2)C=C(C=C3)C(F)(F)F)OC

> <PUBCHEM_OPENEYE_ISO_SMILES>
CC1=C(C=CN=C1CSC2=NC3=C(N2)C=C(C=C3)C(F)(F)F)OC

> <PUBCHEM_CACTVS_TPSA>
76.1

> <PUBCHEM_MONOISOTOPIC_WEIGHT>
353.080968

> <PUBCHEM_TOTAL_CHARGE>
0

> <PUBCHEM_HEAVY_ATOM_COUNT>
24

> <PUBCHEM_ATOM_DEF_STEREO_COUNT>
0

> <PUBCHEM_ATOM_UDEF_STEREO_COUNT>
0

> <PUBCHEM_BOND_DEF_STEREO_COUNT>
0

> <PUBCHEM_BOND_UDEF_STEREO_COUNT>
0

> <PUBCHEM_ISOTOPIC_ATOM_COUNT>
0

> <PUBCHEM_COMPONENT_COUNT>
1

> <PUBCHEM_CACTVS_TAUTO_COUNT>
2

> <PUBCHEM_COORDINATE_TYPE>
1
5
255

> <PUBCHEM_BONDANNOTATIONS>
10  17  8
12  13  8
13  18  8
14  16  8
16  19  8
17  18  8
19  22  8
22  23  8
6  11  8
6  9  8
7  10  8
7  11  8
8  14  8
8  23  8
9  10  8
9  12  8

$$$$

