12631
  -OEChem-06261207103D

 47 48  0     0  0  0  0  0  0999 V2000
   -0.9361   -0.1777   -0.0134 O   0  0  0  0  0  0  0  0  0  0  0  0
    0.0883   -1.9489    0.9955 O   0  0  0  0  0  0  0  0  0  0  0  0
   -4.5937   -0.5620   -0.2602 N   0  0  0  0  0  0  0  0  0  0  0  0
    1.3856   -0.1609    0.2095 N   0  0  0  0  0  0  0  0  0  0  0  0
   -3.2825    0.0691   -0.4072 C   0  0  0  0  0  0  0  0  0  0  0  0
   -4.8823   -0.8182    1.1503 C   0  0  0  0  0  0  0  0  0  0  0  0
   -5.6345    0.2789   -0.8504 C   0  0  0  0  0  0  0  0  0  0  0  0
   -2.1911   -0.8207    0.1660 C   0  0  0  0  0  0  0  0  0  0  0  0
   -6.2144   -1.5294    1.3178 C   0  0  0  0  0  0  0  0  0  0  0  0
   -5.3507    0.5556   -2.3171 C   0  0  0  0  0  0  0  0  0  0  0  0
    0.1746   -0.8484    0.4517 C   0  0  0  0  0  0  0  0  0  0  0  0
    1.4539    1.2767    0.1800 C   0  0  0  0  0  0  0  0  0  0  0  0
    2.5898   -0.9231   -0.0149 C   0  0  0  0  0  0  0  0  0  0  0  0
    2.3962    1.8694   -0.6245 C   0  0  0  0  0  0  0  0  0  0  0  0
    3.7879   -0.3714    0.3622 C   0  0  0  0  0  0  0  0  0  0  0  0
    0.5734    1.9889    0.9568 C   0  0  0  0  0  0  0  0  0  0  0  0
    2.4770   -2.1618   -0.5936 C   0  0  0  0  0  0  0  0  0  0  0  0
    2.4623    3.2623   -0.6537 C   0  0  0  0  0  0  0  0  0  0  0  0
    4.9523   -1.1083    0.1458 C   0  0  0  0  0  0  0  0  0  0  0  0
    0.6396    3.3819    0.9276 C   0  0  0  0  0  0  0  0  0  0  0  0
    3.6414   -2.8987   -0.8100 C   0  0  0  0  0  0  0  0  0  0  0  0
    1.5841    4.0186    0.1222 C   0  0  0  0  0  0  0  0  0  0  0  0
    4.8790   -2.3718   -0.4403 C   0  0  0  0  0  0  0  0  0  0  0  0
   -3.0192    0.2260   -1.4589 H   0  0  0  0  0  0  0  0  0  0  0  0
   -3.2468    1.0573    0.0712 H   0  0  0  0  0  0  0  0  0  0  0  0
   -4.1554   -1.5080    1.5868 H   0  0  0  0  0  0  0  0  0  0  0  0
   -4.8717    0.1016    1.7483 H   0  0  0  0  0  0  0  0  0  0  0  0
   -6.6021   -0.2331   -0.8280 H   0  0  0  0  0  0  0  0  0  0  0  0
   -5.7492    1.2285   -0.3125 H   0  0  0  0  0  0  0  0  0  0  0  0
   -2.1801   -1.7928   -0.3418 H   0  0  0  0  0  0  0  0  0  0  0  0
   -2.3019   -0.9707    1.2428 H   0  0  0  0  0  0  0  0  0  0  0  0
   -7.0675   -0.8614    1.1642 H   0  0  0  0  0  0  0  0  0  0  0  0
   -6.3061   -2.3860    0.6411 H   0  0  0  0  0  0  0  0  0  0  0  0
   -6.3004   -1.9123    2.3412 H   0  0  0  0  0  0  0  0  0  0  0  0
   -4.5585    1.2972   -2.4586 H   0  0  0  0  0  0  0  0  0  0  0  0
   -5.0883   -0.3581   -2.8615 H   0  0  0  0  0  0  0  0  0  0  0  0
   -6.2485    0.9687   -2.7910 H   0  0  0  0  0  0  0  0  0  0  0  0
    3.0414    1.3324   -1.3121 H   0  0  0  0  0  0  0  0  0  0  0  0
    3.8915    0.5651    0.9001 H   0  0  0  0  0  0  0  0  0  0  0  0
   -0.1457    1.5236    1.6231 H   0  0  0  0  0  0  0  0  0  0  0  0
    1.5358   -2.5851   -0.9278 H   0  0  0  0  0  0  0  0  0  0  0  0
    3.1843    3.7591   -1.2954 H   0  0  0  0  0  0  0  0  0  0  0  0
    5.9143   -0.7072    0.4513 H   0  0  0  0  0  0  0  0  0  0  0  0
   -0.0389    3.9711    1.5376 H   0  0  0  0  0  0  0  0  0  0  0  0
    3.5859   -3.8794   -1.2735 H   0  0  0  0  0  0  0  0  0  0  0  0
    1.6337    5.1032    0.0974 H   0  0  0  0  0  0  0  0  0  0  0  0
    5.7854   -2.9467   -0.6063 H   0  0  0  0  0  0  0  0  0  0  0  0
  1  8  1  0  0  0  0
  1 11  1  0  0  0  0
  2 11  2  0  0  0  0
  3  5  1  0  0  0  0
  3  6  1  0  0  0  0
  3  7  1  0  0  0  0
  4 11  1  0  0  0  0
  4 12  1  0  0  0  0
  4 13  1  0  0  0  0
  5  8  1  0  0  0  0
  5 24  1  0  0  0  0
  5 25  1  0  0  0  0
  6  9  1  0  0  0  0
  6 26  1  0  0  0  0
  6 27  1  0  0  0  0
  7 10  1  0  0  0  0
  7 28  1  0  0  0  0
  7 29  1  0  0  0  0
  8 30  1  0  0  0  0
  8 31  1  0  0  0  0
  9 32  1  0  0  0  0
  9 33  1  0  0  0  0
  9 34  1  0  0  0  0
 10 35  1  0  0  0  0
 10 36  1  0  0  0  0
 10 37  1  0  0  0  0
 12 14  2  0  0  0  0
 12 16  1  0  0  0  0
 13 15  2  0  0  0  0
 13 17  1  0  0  0  0
 14 18  1  0  0  0  0
 14 38  1  0  0  0  0
 15 19  1  0  0  0  0
 15 39  1  0  0  0  0
 16 20  2  0  0  0  0
 16 40  1  0  0  0  0
 17 21  2  0  0  0  0
 17 41  1  0  0  0  0
 18 22  2  0  0  0  0
 18 42  1  0  0  0  0
 19 23  2  0  0  0  0
 19 43  1  0  0  0  0
 20 22  1  0  0  0  0
 20 44  1  0  0  0  0
 21 23  1  0  0  0  0
 21 45  1  0  0  0  0
 22 46  1  0  0  0  0
 23 47  1  0  0  0  0
M  END
> <PUBCHEM_COMPOUND_CID>
12631

> <PUBCHEM_CONFORMER_RMSD>
1

> <PUBCHEM_CONFORMER_DIVERSEORDER>
1
2
14
29
9
27
33
31
25
35
38
16
15
41
37
21
6
18
36
7
23
26
8
22
40
39
24
11
30
12
19
13
5
4
3
32
20
10
17
34
28

> <PUBCHEM_MMFF94_PARTIAL_CHARGES>
31
1 -0.43
11 0.78
12 0.12
13 0.12
14 -0.15
15 -0.15
16 -0.15
17 -0.15
18 -0.15
19 -0.15
2 -0.57
20 -0.15
21 -0.15
22 -0.15
23 -0.15
3 -0.81
38 0.15
39 0.15
4 -0.29
40 0.15
41 0.15
42 0.15
43 0.15
44 0.15
45 0.15
46 0.15
47 0.15
5 0.27
6 0.27
7 0.27
8 0.28

> <PUBCHEM_EFFECTIVE_ROTOR_COUNT>
9

> <PUBCHEM_PHARMACOPHORE_FEATURES>
4
1 2 acceptor
1 3 cation
6 12 14 16 18 20 22 rings
6 13 15 17 19 21 23 rings

> <PUBCHEM_HEAVY_ATOM_COUNT>
23

> <PUBCHEM_ATOM_DEF_STEREO_COUNT>
0

> <PUBCHEM_ATOM_UDEF_STEREO_COUNT>
0

> <PUBCHEM_BOND_DEF_STEREO_COUNT>
0

> <PUBCHEM_BOND_UDEF_STEREO_COUNT>
0

> <PUBCHEM_ISOTOPIC_ATOM_COUNT>
0

> <PUBCHEM_COMPONENT_COUNT>
1

> <PUBCHEM_CACTVS_TAUTO_COUNT>
1

> <PUBCHEM_CONFORMER_ID>
0000315700000001

> <PUBCHEM_MMFF94_ENERGY>
90.2576

> <PUBCHEM_FEATURE_SELFOVERLAP>
20.297

> <PUBCHEM_SHAPE_FINGERPRINT>
10411042 1 18338227293208594418
10673678 19 17701802312184166276
11265709 11 18335696195876498506
11421498 54 13758084050851171740
11545043 162 17847061082583884843
11578080 2 14547295802968908428
12166972 35 17917418870041839134
12403259 415 17917714574555969663
12616971 3 17967809423876713651
12730499 353 18123456186266287225
13004483 165 18264219182728278702
13009979 54 17750497632808883017
13134695 92 18186810170523037504
13590594 115 18336262444096382337
13757389 114 15964243828457450980
13782708 43 17989481897319216659
13955234 65 18264766567086892289
14170010 4 18336268963729656224
14178000 15 18335700563700379288
14508225 48 18265892639472733100
15081414 286 18408882928073895976
17844677 252 18410848863918238227
1813 80 18041544957777388710
18785283 64 18198340663227533428
20642791 13 18191586557109405312
20645477 70 18412543176349265795
21041028 32 18335700580511113269
21049683 271 18271229535580399124
21478907 32 18121499322004731930
21641784 216 18127108966147924628
22033318 11 17682639091627298545
221357 26 18340216288194435285
22289505 5 18341058496541367900
22393880 68 17988651787694124451
23536364 44 18053673756405587877
23559900 14 18410864252506699571
283562 15 18123185968784234618
340366 18 18114185215674265583
4015057 19 18336551517476556643
46194498 28 18060137604797873053
5281201 14 18342175549242796509
5969126 39 18118408573634380814
6443956 14 18410575098017459876
6823239 73 17275111621846424917
7164475 11 18049717714270729190
7399639 24 17402887826430744339
7471813 234 18041286529674536737
7495541 125 18201996612351669651
81228 2 18196079170294854928
9777508 108 9870019543029755556
9841814 1 18272663345797339626
9971528 1 18260558830687196648
9981440 41 17543082181632465504

> <PUBCHEM_SHAPE_MULTIPOLES>
451.63
12.56
4.06
1.25
19.64
4.02
0.37
-8.18
1.86
-5.67
-0.11
2
0.06
1.59

> <PUBCHEM_SHAPE_SELFOVERLAP>
942.662

> <PUBCHEM_SHAPE_VOLUME>
257.6

> <PUBCHEM_COORDINATE_TYPE>
2
5
10

$$$$

