115098
  -OEChem-07051212482D

 95 95  0     1  0  0  0  0  0999 V2000
    5.4641    0.2500    0.0000 S   0  0  0  0  0  0  0  0  0  0  0  0
    4.5981   -0.2500    0.0000 S   0  0  0  0  0  0  0  0  0  0  0  0
    7.1962    0.2500    0.0000 O   0  0  0  0  0  0  0  0  0  0  0  0
    6.3301   -0.2500    0.0000 O   0  0  0  0  0  0  0  0  0  0  0  0
    4.5981    2.7500    0.0000 O   0  0  0  0  0  0  0  0  0  0  0  0
    3.7320   -2.7500    0.0000 O   0  0  0  0  0  0  0  0  0  0  0  0
    9.7942    2.7500    0.0000 O   0  0  0  0  0  0  0  0  0  0  0  0
    8.9282   -2.7500    0.0000 O   0  0  0  0  0  0  0  0  0  0  0  0
    3.7320    7.2500    0.0000 O   0  0  0  0  0  0  0  0  0  0  0  0
    2.8660   -7.2500    0.0000 O   0  0  0  0  0  0  0  0  0  0  0  0
    2.8660    5.7500    0.0000 O   0  0  0  0  0  0  0  0  0  0  0  0
    2.0000   -5.7500    0.0000 O   0  0  0  0  0  0  0  0  0  0  0  0
   13.2583   -1.2500    0.0000 N   0  0  0  0  0  0  0  0  0  0  0  0
   10.6603    1.2500    0.0000 N   0  0  0  0  0  0  0  0  0  0  0  0
    6.3301    2.7500    0.0000 N   0  0  0  0  0  0  0  0  0  0  0  0
    5.4641   -2.7500    0.0000 N   0  0  0  0  0  0  0  0  0  0  0  0
    9.7942   -1.2500    0.0000 N   0  0  0  0  0  0  0  0  0  0  0  0
    8.0622    1.7500    0.0000 N   0  0  0  0  0  0  0  0  0  0  0  0
    7.1962   -1.7500    0.0000 N   0  0  0  0  0  0  0  0  0  0  0  0
    5.4641    6.2500    0.0000 N   0  0  0  0  0  0  0  0  0  0  0  0
    4.5981   -6.2500    0.0000 N   0  0  0  0  0  0  0  0  0  0  0  0
   12.3923    0.2500    0.0000 C   0  0  0  0  0  0  0  0  0  0  0  0
   13.2583   -0.2500    0.0000 C   0  0  0  0  0  0  0  0  0  0  0  0
   12.3923    1.2500    0.0000 C   0  0  0  0  0  0  0  0  0  0  0  0
   12.3923   -1.7500    0.0000 C   0  0  0  0  0  0  0  0  0  0  0  0
   11.5263   -1.2500    0.0000 C   0  0  0  0  0  0  0  0  0  0  0  0
   11.5263    1.7500    0.0000 C   0  0  0  0  0  0  0  0  0  0  0  0
    6.3301    1.7500    0.0000 C   0  0  1  0  0  0  0  0  0  0  0  0
    5.4641   -1.7500    0.0000 C   0  0  1  0  0  0  0  0  0  0  0  0
   10.6603   -1.7500    0.0000 C   0  0  0  0  0  0  0  0  0  0  0  0
    5.4641    1.2500    0.0000 C   0  0  0  0  0  0  0  0  0  0  0  0
    4.5981   -1.2500    0.0000 C   0  0  0  0  0  0  0  0  0  0  0  0
    5.4641    4.2500    0.0000 C   0  0  0  0  0  0  0  0  0  0  0  0
    4.5981    4.7500    0.0000 C   0  0  0  0  0  0  0  0  0  0  0  0
    4.5981   -4.2500    0.0000 C   0  0  0  0  0  0  0  0  0  0  0  0
    3.7320   -4.7500    0.0000 C   0  0  0  0  0  0  0  0  0  0  0  0
    7.1962    1.2500    0.0000 C   0  0  0  0  0  0  0  0  0  0  0  0
    6.3301   -1.2500    0.0000 C   0  0  0  0  0  0  0  0  0  0  0  0
    5.4641    3.2500    0.0000 C   0  0  0  0  0  0  0  0  0  0  0  0
    4.5981    5.7500    0.0000 C   0  0  1  0  0  0  0  0  0  0  0  0
    4.5981   -3.2500    0.0000 C   0  0  0  0  0  0  0  0  0  0  0  0
    3.7320   -5.7500    0.0000 C   0  0  1  0  0  0  0  0  0  0  0  0
    8.9282    1.2500    0.0000 C   0  0  0  0  0  0  0  0  0  0  0  0
    9.7942    1.7500    0.0000 C   0  0  0  0  0  0  0  0  0  0  0  0
    8.0622   -1.2500    0.0000 C   0  0  0  0  0  0  0  0  0  0  0  0
    8.9282   -1.7500    0.0000 C   0  0  0  0  0  0  0  0  0  0  0  0
    3.7320    6.2500    0.0000 C   0  0  0  0  0  0  0  0  0  0  0  0
    2.8660   -6.2500    0.0000 C   0  0  0  0  0  0  0  0  0  0  0  0
   11.7817    0.3577    0.0000 H   0  0  0  0  0  0  0  0  0  0  0  0
   12.1803   -0.3326    0.0000 H   0  0  0  0  0  0  0  0  0  0  0  0
   13.8689   -0.3577    0.0000 H   0  0  0  0  0  0  0  0  0  0  0  0
   13.4704    0.3326    0.0000 H   0  0  0  0  0  0  0  0  0  0  0  0
   13.0029    1.1423    0.0000 H   0  0  0  0  0  0  0  0  0  0  0  0
   12.6044    1.8326    0.0000 H   0  0  0  0  0  0  0  0  0  0  0  0
   11.9938   -2.2250    0.0000 H   0  0  0  0  0  0  0  0  0  0  0  0
   12.7908   -2.2250    0.0000 H   0  0  0  0  0  0  0  0  0  0  0  0
   11.9248   -0.7751    0.0000 H   0  0  0  0  0  0  0  0  0  0  0  0
   11.1278   -0.7751    0.0000 H   0  0  0  0  0  0  0  0  0  0  0  0
   13.7953   -1.5600    0.0000 H   0  0  0  0  0  0  0  0  0  0  0  0
   11.9248    2.2250    0.0000 H   0  0  0  0  0  0  0  0  0  0  0  0
   11.1278    2.2250    0.0000 H   0  0  0  0  0  0  0  0  0  0  0  0
    6.8671    2.0600    0.0000 H   0  0  0  0  0  0  0  0  0  0  0  0
    6.0010   -2.0600    0.0000 H   0  0  0  0  0  0  0  0  0  0  0  0
   10.2617   -2.2250    0.0000 H   0  0  0  0  0  0  0  0  0  0  0  0
   11.0588   -2.2250    0.0000 H   0  0  0  0  0  0  0  0  0  0  0  0
    5.2520    1.8326    0.0000 H   0  0  0  0  0  0  0  0  0  0  0  0
    4.8535    1.1423    0.0000 H   0  0  0  0  0  0  0  0  0  0  0  0
    3.9875   -1.1423    0.0000 H   0  0  0  0  0  0  0  0  0  0  0  0
    4.3860   -1.8326    0.0000 H   0  0  0  0  0  0  0  0  0  0  0  0
    6.0747    4.1423    0.0000 H   0  0  0  0  0  0  0  0  0  0  0  0
    5.6762    4.8326    0.0000 H   0  0  0  0  0  0  0  0  0  0  0  0
    3.9875    4.8577    0.0000 H   0  0  0  0  0  0  0  0  0  0  0  0
    4.3860    4.1674    0.0000 H   0  0  0  0  0  0  0  0  0  0  0  0
    4.8101   -4.8326    0.0000 H   0  0  0  0  0  0  0  0  0  0  0  0
    5.2087   -4.1423    0.0000 H   0  0  0  0  0  0  0  0  0  0  0  0
    3.5200   -4.1674    0.0000 H   0  0  0  0  0  0  0  0  0  0  0  0
    3.1215   -4.8577    0.0000 H   0  0  0  0  0  0  0  0  0  0  0  0
   10.6603    0.6300    0.0000 H   0  0  0  0  0  0  0  0  0  0  0  0
    6.8671    3.0600    0.0000 H   0  0  0  0  0  0  0  0  0  0  0  0
    6.0010   -3.0600    0.0000 H   0  0  0  0  0  0  0  0  0  0  0  0
    4.5981    6.3700    0.0000 H   0  0  0  0  0  0  0  0  0  0  0  0
    3.7320   -6.3700    0.0000 H   0  0  0  0  0  0  0  0  0  0  0  0
    9.7942   -0.6300    0.0000 H   0  0  0  0  0  0  0  0  0  0  0  0
    8.5297    0.7751    0.0000 H   0  0  0  0  0  0  0  0  0  0  0  0
    9.3267    0.7751    0.0000 H   0  0  0  0  0  0  0  0  0  0  0  0
    8.4607   -0.7751    0.0000 H   0  0  0  0  0  0  0  0  0  0  0  0
    7.6636   -0.7751    0.0000 H   0  0  0  0  0  0  0  0  0  0  0  0
    8.0622    2.3700    0.0000 H   0  0  0  0  0  0  0  0  0  0  0  0
    7.1962   -2.3700    0.0000 H   0  0  0  0  0  0  0  0  0  0  0  0
    5.4641    6.8700    0.0000 H   0  0  0  0  0  0  0  0  0  0  0  0
    6.0010    5.9400    0.0000 H   0  0  0  0  0  0  0  0  0  0  0  0
    4.5981   -6.8700    0.0000 H   0  0  0  0  0  0  0  0  0  0  0  0
    5.1350   -5.9400    0.0000 H   0  0  0  0  0  0  0  0  0  0  0  0
    3.1951    7.5600    0.0000 H   0  0  0  0  0  0  0  0  0  0  0  0
    2.3291   -7.5600    0.0000 H   0  0  0  0  0  0  0  0  0  0  0  0
  1  2  1  0  0  0  0
  1 31  1  0  0  0  0
  2 32  1  0  0  0  0
  3 37  2  0  0  0  0
  4 38  2  0  0  0  0
  5 39  2  0  0  0  0
  6 41  2  0  0  0  0
  7 44  2  0  0  0  0
  8 46  2  0  0  0  0
  9 47  1  0  0  0  0
  9 94  1  0  0  0  0
 10 48  1  0  0  0  0
 10 95  1  0  0  0  0
 11 47  2  0  0  0  0
 12 48  2  0  0  0  0
 13 23  1  0  0  0  0
 13 25  1  0  0  0  0
 13 59  1  0  0  0  0
 14 27  1  0  0  0  0
 14 44  1  0  0  0  0
 14 78  1  0  0  0  0
 28 15  1  6  0  0  0
 15 39  1  0  0  0  0
 15 79  1  0  0  0  0
 29 16  1  1  0  0  0
 16 41  1  0  0  0  0
 16 80  1  0  0  0  0
 17 30  1  0  0  0  0
 17 46  1  0  0  0  0
 17 83  1  0  0  0  0
 18 37  1  0  0  0  0
 18 43  1  0  0  0  0
 18 88  1  0  0  0  0
 19 38  1  0  0  0  0
 19 45  1  0  0  0  0
 19 89  1  0  0  0  0
 40 20  1  1  0  0  0
 20 90  1  0  0  0  0
 20 91  1  0  0  0  0
 42 21  1  6  0  0  0
 21 92  1  0  0  0  0
 21 93  1  0  0  0  0
 22 23  1  0  0  0  0
 22 24  1  0  0  0  0
 22 49  1  0  0  0  0
 22 50  1  0  0  0  0
 23 51  1  0  0  0  0
 23 52  1  0  0  0  0
 24 27  1  0  0  0  0
 24 53  1  0  0  0  0
 24 54  1  0  0  0  0
 25 26  1  0  0  0  0
 25 55  1  0  0  0  0
 25 56  1  0  0  0  0
 26 30  1  0  0  0  0
 26 57  1  0  0  0  0
 26 58  1  0  0  0  0
 27 60  1  0  0  0  0
 27 61  1  0  0  0  0
 28 31  1  0  0  0  0
 28 37  1  0  0  0  0
 28 62  1  0  0  0  0
 29 32  1  0  0  0  0
 29 38  1  0  0  0  0
 29 63  1  0  0  0  0
 30 64  1  0  0  0  0
 30 65  1  0  0  0  0
 31 66  1  0  0  0  0
 31 67  1  0  0  0  0
 32 68  1  0  0  0  0
 32 69  1  0  0  0  0
 33 34  1  0  0  0  0
 33 39  1  0  0  0  0
 33 70  1  0  0  0  0
 33 71  1  0  0  0  0
 34 40  1  0  0  0  0
 34 72  1  0  0  0  0
 34 73  1  0  0  0  0
 35 36  1  0  0  0  0
 35 41  1  0  0  0  0
 35 74  1  0  0  0  0
 35 75  1  0  0  0  0
 36 42  1  0  0  0  0
 36 76  1  0  0  0  0
 36 77  1  0  0  0  0
 40 47  1  0  0  0  0
 40 81  1  0  0  0  0
 42 48  1  0  0  0  0
 42 82  1  0  0  0  0
 43 44  1  0  0  0  0
 43 84  1  0  0  0  0
 43 85  1  0  0  0  0
 45 46  1  0  0  0  0
 45 86  1  0  0  0  0
 45 87  1  0  0  0  0
M  END
> <PUBCHEM_COMPOUND_CID>
115098

> <PUBCHEM_COMPOUND_CANONICALIZED>
1

> <PUBCHEM_CACTVS_COMPLEXITY>
1120

> <PUBCHEM_CACTVS_HBOND_ACCEPTOR>
15

> <PUBCHEM_CACTVS_HBOND_DONOR>
11

> <PUBCHEM_CACTVS_ROTATABLE_BOND>
10

> <PUBCHEM_CACTVS_SUBSKEYS>
AAADcfB7/ABgAAAAAAAAAAAAAAAAAAAAAAAAAAAAAAAAAAAAAAAAHgQQCAAACCjFwASACALAAgAIAAGQGAAAAAAAAAAAAIGIAAACQBIAwCAUQAAEFgCAAACcFwIAAAAAAAAAAAAAAAAAAAAAAAAAAAAAAA==

> <PUBCHEM_IUPAC_OPENEYE_NAME>
(2S)-2-amino-5-[[(4R,23R)-4-[[(4S)-4-amino-4-carboxy-butanoyl]amino]-5,8,19,22-tetraoxo-1,2-dithia-6,9,13,18,21-pentazacyclotetracos-23-yl]amino]-5-oxo-pentanoic acid

> <PUBCHEM_IUPAC_CAS_NAME>
(2S)-2-amino-5-[[(4R,23R)-4-[[(4S)-4-amino-4-carboxy-1-oxobutyl]amino]-5,8,19,22-tetraoxo-1,2-dithia-6,9,13,18,21-pentazacyclotetracos-23-yl]amino]-5-oxopentanoic acid

> <PUBCHEM_IUPAC_NAME>
(2S)-2-amino-5-[[(4R,23R)-4-[[(4S)-4-amino-4-carboxybutanoyl]amino]-5,8,19,22-tetraoxo-1,2-dithia-6,9,13,18,21-pentazacyclotetracos-23-yl]amino]-5-oxopentanoic acid

> <PUBCHEM_IUPAC_SYSTEMATIC_NAME>
(2S)-2-azanyl-5-[[(4R,23R)-4-[[(4S)-4-azanyl-5-oxidanyl-5-oxidanylidene-pentanoyl]amino]-5,8,19,22-tetrakis(oxidanylidene)-1,2-dithia-6,9,13,18,21-pentazacyclotetracos-23-yl]amino]-5-oxidanylidene-pentanoic acid

> <PUBCHEM_IUPAC_TRADITIONAL_NAME>
(2S)-2-amino-5-[[(4R,23R)-4-[[(4S)-4-amino-4-carboxy-butanoyl]amino]-5,8,19,22-tetraketo-1,2-dithia-6,9,13,18,21-pentazacyclotetracos-23-yl]amino]-5-keto-valeric acid

> <PUBCHEM_IUPAC_INCHI>
InChI=1S/C27H47N9O10S2/c28-16(26(43)44)4-6-20(37)35-18-14-47-48-15-19(36-21(38)7-5-17(29)27(45)46)25(42)34-13-23(40)32-11-3-9-30-8-1-2-10-31-22(39)12-33-24(18)41/h16-19,30H,1-15,28-29H2,(H,31,39)(H,32,40)(H,33,41)(H,34,42)(H,35,37)(H,36,38)(H,43,44)(H,45,46)/t16-,17-,18-,19-/m0/s1

> <PUBCHEM_IUPAC_INCHIKEY>
LZMSXDHGHZKXJD-VJANTYMQSA-N

> <PUBCHEM_XLOGP3_AA>
-9.2

> <PUBCHEM_EXACT_MASS>
721.288731

> <PUBCHEM_MOLECULAR_FORMULA>
C27H47N9O10S2

> <PUBCHEM_MOLECULAR_WEIGHT>
721.84638

> <PUBCHEM_OPENEYE_CAN_SMILES>
C1CCNC(=O)CNC(=O)C(CSSCC(C(=O)NCC(=O)NCCCNC1)NC(=O)CCC(C(=O)O)N)NC(=O)CCC(C(=O)O)N

> <PUBCHEM_OPENEYE_ISO_SMILES>
C1CCNC(=O)CNC(=O)[C@H](CSSC[C@@H](C(=O)NCC(=O)NCCCNC1)NC(=O)CC[C@@H](C(=O)O)N)NC(=O)CC[C@@H](C(=O)O)N

> <PUBCHEM_CACTVS_TPSA>
364

> <PUBCHEM_MONOISOTOPIC_WEIGHT>
721.288731

> <PUBCHEM_TOTAL_CHARGE>
0

> <PUBCHEM_HEAVY_ATOM_COUNT>
48

> <PUBCHEM_ATOM_DEF_STEREO_COUNT>
4

> <PUBCHEM_ATOM_UDEF_STEREO_COUNT>
0

> <PUBCHEM_BOND_DEF_STEREO_COUNT>
0

> <PUBCHEM_BOND_UDEF_STEREO_COUNT>
0

> <PUBCHEM_ISOTOPIC_ATOM_COUNT>
0

> <PUBCHEM_COMPONENT_COUNT>
1

> <PUBCHEM_CACTVS_TAUTO_COUNT>
324

> <PUBCHEM_COORDINATE_TYPE>
1
5
255

> <PUBCHEM_BONDANNOTATIONS>
28  15  6
29  16  5
40  20  5
42  21  6

$$$$

