854093
  -OEChem-06241222472D

 33 34  0     0  0  0  0  0  0999 V2000
    6.7619   -2.4632    0.0000 O   0  0  0  0  0  0  0  0  0  0  0  0
    6.7619   -0.7312    0.0000 O   0  0  0  0  0  0  0  0  0  0  0  0
    4.6783   -0.7925    0.0000 N   0  0  0  0  0  0  0  0  0  0  0  0
    4.6318    1.8529    0.0000 N   0  0  0  0  0  0  0  0  0  0  0  0
    4.9889    0.1581    0.0000 C   0  0  0  0  0  0  0  0  0  0  0  0
    3.7320   -1.0972    0.0000 C   0  0  0  0  0  0  0  0  0  0  0  0
    4.3211    0.9024    0.0000 C   0  0  0  0  0  0  0  0  0  0  0  0
    5.2619   -1.5972    0.0000 C   0  0  0  0  0  0  0  0  0  0  0  0
    3.7320   -2.0972    0.0000 C   0  0  0  0  0  0  0  0  0  0  0  0
    4.6783   -2.4019    0.0000 C   0  0  0  0  0  0  0  0  0  0  0  0
    2.8660   -0.5972    0.0000 C   0  0  0  0  0  0  0  0  0  0  0  0
    2.8660   -2.5972    0.0000 C   0  0  0  0  0  0  0  0  0  0  0  0
    2.0000   -1.0972    0.0000 C   0  0  0  0  0  0  0  0  0  0  0  0
    6.2619   -1.5972    0.0000 C   0  0  0  0  0  0  0  0  0  0  0  0
    3.9639    2.5972    0.0000 C   0  0  0  0  0  0  0  0  0  0  0  0
    5.6103    2.0591    0.0000 C   0  0  0  0  0  0  0  0  0  0  0  0
    2.0000   -2.0972    0.0000 C   0  0  0  0  0  0  0  0  0  0  0  0
    5.5359   -0.1340    0.0000 H   0  0  0  0  0  0  0  0  0  0  0  0
    5.3715    0.6460    0.0000 H   0  0  0  0  0  0  0  0  0  0  0  0
    3.7742    1.1944    0.0000 H   0  0  0  0  0  0  0  0  0  0  0  0
    3.9385    0.4145    0.0000 H   0  0  0  0  0  0  0  0  0  0  0  0
    4.8709   -2.9912    0.0000 H   0  0  0  0  0  0  0  0  0  0  0  0
    2.8660    0.0228    0.0000 H   0  0  0  0  0  0  0  0  0  0  0  0
    2.8660   -3.2172    0.0000 H   0  0  0  0  0  0  0  0  0  0  0  0
    1.4631   -0.7872    0.0000 H   0  0  0  0  0  0  0  0  0  0  0  0
    5.7381    1.4524    0.0000 H   0  0  0  0  0  0  0  0  0  0  0  0
    6.2169    2.1870    0.0000 H   0  0  0  0  0  0  0  0  0  0  0  0
    4.4254    3.0112    0.0000 H   0  0  0  0  0  0  0  0  0  0  0  0
    3.5498    3.0587    0.0000 H   0  0  0  0  0  0  0  0  0  0  0  0
    3.5024    2.1831    0.0000 H   0  0  0  0  0  0  0  0  0  0  0  0
    5.4824    2.6658    0.0000 H   0  0  0  0  0  0  0  0  0  0  0  0
    1.4631   -2.4072    0.0000 H   0  0  0  0  0  0  0  0  0  0  0  0
    7.3819   -2.4632    0.0000 H   0  0  0  0  0  0  0  0  0  0  0  0
  1 14  1  0  0  0  0
  1 33  1  0  0  0  0
  2 14  2  0  0  0  0
  3  5  1  0  0  0  0
  3  6  1  0  0  0  0
  3  8  1  0  0  0  0
  4  7  1  0  0  0  0
  4 15  1  0  0  0  0
  4 16  1  0  0  0  0
  5  7  1  0  0  0  0
  5 18  1  0  0  0  0
  5 19  1  0  0  0  0
  6  9  1  0  0  0  0
  6 11  2  0  0  0  0
  7 20  1  0  0  0  0
  7 21  1  0  0  0  0
  8 10  2  0  0  0  0
  8 14  1  0  0  0  0
  9 10  1  0  0  0  0
  9 12  2  0  0  0  0
 10 22  1  0  0  0  0
 11 13  1  0  0  0  0
 11 23  1  0  0  0  0
 12 17  1  0  0  0  0
 12 24  1  0  0  0  0
 13 17  2  0  0  0  0
 13 25  1  0  0  0  0
 15 28  1  0  0  0  0
 15 29  1  0  0  0  0
 15 30  1  0  0  0  0
 16 26  1  0  0  0  0
 16 27  1  0  0  0  0
 16 31  1  0  0  0  0
 17 32  1  0  0  0  0
M  END
> <PUBCHEM_COMPOUND_CID>
854093

> <PUBCHEM_COMPOUND_CANONICALIZED>
1

> <PUBCHEM_CACTVS_COMPLEXITY>
281

> <PUBCHEM_CACTVS_HBOND_ACCEPTOR>
3

> <PUBCHEM_CACTVS_HBOND_DONOR>
1

> <PUBCHEM_CACTVS_ROTATABLE_BOND>
4

> <PUBCHEM_CACTVS_SUBSKEYS>
AAADceBzMAAAAAAAAAAAAAAAAAAAAWAAAAAwAAAAAAAAAFgB8AAAHgAACAAADAjBngQyyPMMEgCoAyTyTASCgCAnAiAI2CG4bNgKZvLAlbGUcQhkwAHY2YeY2aOeAAAAAAACAAAAAAAAAAQAAAAAAAAAAA==

> <PUBCHEM_IUPAC_OPENEYE_NAME>
1-[2-(dimethylamino)ethyl]indole-2-carboxylic acid

> <PUBCHEM_IUPAC_CAS_NAME>
1-[2-(dimethylamino)ethyl]-2-indolecarboxylic acid

> <PUBCHEM_IUPAC_NAME>
1-[2-(dimethylamino)ethyl]indole-2-carboxylic acid

> <PUBCHEM_IUPAC_SYSTEMATIC_NAME>
1-[2-(dimethylamino)ethyl]indole-2-carboxylic acid

> <PUBCHEM_IUPAC_TRADITIONAL_NAME>
1-[2-(dimethylamino)ethyl]indole-2-carboxylic acid

> <PUBCHEM_IUPAC_INCHI>
InChI=1S/C13H16N2O2/c1-14(2)7-8-15-11-6-4-3-5-10(11)9-12(15)13(16)17/h3-6,9H,7-8H2,1-2H3,(H,16,17)

> <PUBCHEM_IUPAC_INCHIKEY>
NAESQRUAIUTMJO-UHFFFAOYSA-N

> <PUBCHEM_XLOGP3>
-0.3

> <PUBCHEM_EXACT_MASS>
232.121178

> <PUBCHEM_MOLECULAR_FORMULA>
C13H16N2O2

> <PUBCHEM_MOLECULAR_WEIGHT>
232.27834

> <PUBCHEM_OPENEYE_CAN_SMILES>
CN(C)CCN1C2=CC=CC=C2C=C1C(=O)O

> <PUBCHEM_OPENEYE_ISO_SMILES>
CN(C)CCN1C2=CC=CC=C2C=C1C(=O)O

> <PUBCHEM_CACTVS_TPSA>
45.5

> <PUBCHEM_MONOISOTOPIC_WEIGHT>
232.121178

> <PUBCHEM_TOTAL_CHARGE>
0

> <PUBCHEM_HEAVY_ATOM_COUNT>
17

> <PUBCHEM_ATOM_DEF_STEREO_COUNT>
0

> <PUBCHEM_ATOM_UDEF_STEREO_COUNT>
0

> <PUBCHEM_BOND_DEF_STEREO_COUNT>
0

> <PUBCHEM_BOND_UDEF_STEREO_COUNT>
0

> <PUBCHEM_ISOTOPIC_ATOM_COUNT>
0

> <PUBCHEM_COMPONENT_COUNT>
1

> <PUBCHEM_CACTVS_TAUTO_COUNT>
1

> <PUBCHEM_COORDINATE_TYPE>
1
5
255

> <PUBCHEM_BONDANNOTATIONS>
11  13  8
12  17  8
13  17  8
3  6  8
3  8  8
6  11  8
6  9  8
8  10  8
9  10  8
9  12  8

$$$$

