440179
  -OEChem-07051212493D

 21 21  0     1  0  0  0  0  0999 V2000
   -3.5208   -0.2996    0.1746 O   0  0  0  0  0  0  0  0  0  0  0  0
   -1.9807   -1.8987   -0.3704 O   0  0  0  0  0  0  0  0  0  0  0  0
    3.0004   -0.5276    1.1336 O   0  0  0  0  0  0  0  0  0  0  0  0
    2.7232   -1.1708   -1.0566 O   0  0  0  0  0  0  0  0  0  0  0  0
    0.0509   -0.5033    0.3648 N   0  0  0  0  0  0  0  0  0  0  0  0
   -1.3047    1.4560   -0.3763 C   0  0  0  0  0  0  0  0  0  0  0  0
   -0.1248    2.3526   -0.0448 C   0  0  0  0  0  0  0  0  0  0  0  0
   -1.2254    0.1996    0.4785 C   0  0  1  0  0  0  0  0  0  0  0  0
    1.1705    1.6182   -0.3369 C   0  0  0  0  0  0  0  0  0  0  0  0
    1.0995    0.1614    0.0329 C   0  0  0  0  0  0  0  0  0  0  0  0
   -2.2627   -0.7856    0.0463 C   0  0  0  0  0  0  0  0  0  0  0  0
    2.3747   -0.6022   -0.0457 C   0  0  0  0  0  0  0  0  0  0  0  0
   -2.2408    1.9938   -0.1850 H   0  0  0  0  0  0  0  0  0  0  0  0
   -1.2969    1.2043   -1.4449 H   0  0  0  0  0  0  0  0  0  0  0  0
   -0.1614    2.6321    1.0155 H   0  0  0  0  0  0  0  0  0  0  0  0
   -0.1706    3.2813   -0.6238 H   0  0  0  0  0  0  0  0  0  0  0  0
   -1.3994    0.4291    1.5367 H   0  0  0  0  0  0  0  0  0  0  0  0
    2.0037    2.0921    0.1924 H   0  0  0  0  0  0  0  0  0  0  0  0
    1.3897    1.6688   -1.4103 H   0  0  0  0  0  0  0  0  0  0  0  0
   -4.1964   -0.9512   -0.1105 H   0  0  0  0  0  0  0  0  0  0  0  0
    3.8520   -1.0144    1.1350 H   0  0  0  0  0  0  0  0  0  0  0  0
  1 11  1  0  0  0  0
  1 20  1  0  0  0  0
  2 11  2  0  0  0  0
  3 12  1  0  0  0  0
  3 21  1  0  0  0  0
  4 12  2  0  0  0  0
  5  8  1  0  0  0  0
  5 10  2  0  0  0  0
  6  7  1  0  0  0  0
  6  8  1  0  0  0  0
  6 13  1  0  0  0  0
  6 14  1  0  0  0  0
  7  9  1  0  0  0  0
  7 15  1  0  0  0  0
  7 16  1  0  0  0  0
  8 11  1  0  0  0  0
  8 17  1  0  0  0  0
  9 10  1  0  0  0  0
  9 18  1  0  0  0  0
  9 19  1  0  0  0  0
 10 12  1  0  0  0  0
M  END
> <PUBCHEM_COMPOUND_CID>
440179

> <PUBCHEM_CONFORMER_RMSD>
0.6

> <PUBCHEM_CONFORMER_DIVERSEORDER>
1
4
5
3
2
6

> <PUBCHEM_MMFF94_PARTIAL_CHARGES>
12
1 -0.65
10 0.39
11 0.66
12 0.72
2 -0.57
20 0.5
21 0.5
3 -0.65
4 -0.57
5 -0.7
8 0.31
9 0.06

> <PUBCHEM_EFFECTIVE_ROTOR_COUNT>
2.8

> <PUBCHEM_PHARMACOPHORE_FEATURES>
8
1 1 acceptor
1 2 acceptor
1 3 acceptor
1 4 acceptor
1 5 acceptor
3 1 2 11 anion
3 3 4 12 anion
6 5 6 7 8 9 10 rings

> <PUBCHEM_HEAVY_ATOM_COUNT>
12

> <PUBCHEM_ATOM_DEF_STEREO_COUNT>
1

> <PUBCHEM_ATOM_UDEF_STEREO_COUNT>
0

> <PUBCHEM_BOND_DEF_STEREO_COUNT>
0

> <PUBCHEM_BOND_UDEF_STEREO_COUNT>
0

> <PUBCHEM_ISOTOPIC_ATOM_COUNT>
0

> <PUBCHEM_COMPONENT_COUNT>
1

> <PUBCHEM_CACTVS_TAUTO_COUNT>
1

> <PUBCHEM_CONFORMER_ID>
0006B77300000001

> <PUBCHEM_MMFF94_ENERGY>
20.4795

> <PUBCHEM_FEATURE_SELFOVERLAP>
40.715

> <PUBCHEM_SHAPE_FINGERPRINT>
10130415 120 18343301457481149865
10353120 184 18201716275588388375
12716758 59 17977104883533916304
14128692 85 18410848833120400108
161256 15 18341049618686146436
16945 1 18268430315977080501
17990270 104 18193271897311702671
20645477 70 18122910828916245711
20653085 51 13614243723634271871
20871998 184 18262523722343095052
20871998 22 18408879642117822838
21040471 1 17692815208664683864
21524375 3 9079124344753693384
23552423 10 18055349146023065773
2748010 2 18412833473141699901
7364860 26 18117836594905471920
81228 2 18268706289074441432

> <PUBCHEM_SHAPE_MULTIPOLES>
218.5
4.34
2.01
0.8
0.15
0.91
-0.02
-2.26
-0.13
0.27
0.3
-0.41
-0.12
0.01

> <PUBCHEM_SHAPE_SELFOVERLAP>
447.197

> <PUBCHEM_SHAPE_VOLUME>
124.7

> <PUBCHEM_COORDINATE_TYPE>
2
5
10

$$$$

