5280862
  -OEChem-07051212502D

 34 36  0     0  0  0  0  0  0999 V2000
    6.3301    0.6154    0.0000 O   0  0  0  0  0  0  0  0  0  0  0  0
    4.5981   -1.3846    0.0000 O   0  0  0  0  0  0  0  0  0  0  0  0
    8.0785   -2.4192    0.0000 O   0  0  0  0  0  0  0  0  0  0  0  0
    6.3301   -2.3846    0.0000 O   0  0  0  0  0  0  0  0  0  0  0  0
    9.8602    0.6395    0.0000 O   0  0  0  0  0  0  0  0  0  0  0  0
    2.0000    2.1154    0.0000 O   0  0  0  0  0  0  0  0  0  0  0  0
    7.1962   -0.8846    0.0000 C   0  0  0  0  0  0  0  0  0  0  0  0
    7.1962    0.1154    0.0000 C   0  0  0  0  0  0  0  0  0  0  0  0
    5.4641    0.1154    0.0000 C   0  0  0  0  0  0  0  0  0  0  0  0
    5.4641   -0.8846    0.0000 C   0  0  0  0  0  0  0  0  0  0  0  0
    6.3301   -1.3846    0.0000 C   0  0  0  0  0  0  0  0  0  0  0  0
    4.5981    0.6154    0.0000 C   0  0  0  0  0  0  0  0  0  0  0  0
    8.0901   -1.4193    0.0000 C   0  0  0  0  0  0  0  0  0  0  0  0
    8.0901    0.6501    0.0000 C   0  0  0  0  0  0  0  0  0  0  0  0
    8.9962   -0.9054    0.0000 C   0  0  0  0  0  0  0  0  0  0  0  0
    8.9962    0.1362    0.0000 C   0  0  0  0  0  0  0  0  0  0  0  0
    3.7320    0.1154    0.0000 C   0  0  0  0  0  0  0  0  0  0  0  0
    4.5981    1.6154    0.0000 C   0  0  0  0  0  0  0  0  0  0  0  0
    2.8660    0.6154    0.0000 C   0  0  0  0  0  0  0  0  0  0  0  0
    3.7320    2.1154    0.0000 C   0  0  0  0  0  0  0  0  0  0  0  0
    2.8660    1.6154    0.0000 C   0  0  0  0  0  0  0  0  0  0  0  0
    4.5981   -2.3846    0.0000 C   0  0  0  0  0  0  0  0  0  0  0  0
    8.0829    1.2700    0.0000 H   0  0  0  0  0  0  0  0  0  0  0  0
    9.5319   -1.2175    0.0000 H   0  0  0  0  0  0  0  0  0  0  0  0
    3.7320   -0.5046    0.0000 H   0  0  0  0  0  0  0  0  0  0  0  0
    5.1350    1.9254    0.0000 H   0  0  0  0  0  0  0  0  0  0  0  0
    2.3291    0.3054    0.0000 H   0  0  0  0  0  0  0  0  0  0  0  0
    3.7320    2.7354    0.0000 H   0  0  0  0  0  0  0  0  0  0  0  0
    8.6118   -2.7354    0.0000 H   0  0  0  0  0  0  0  0  0  0  0  0
    3.9781   -2.3846    0.0000 H   0  0  0  0  0  0  0  0  0  0  0  0
    4.5981   -3.0046    0.0000 H   0  0  0  0  0  0  0  0  0  0  0  0
    5.2181   -2.3846    0.0000 H   0  0  0  0  0  0  0  0  0  0  0  0
   10.3984    0.3316    0.0000 H   0  0  0  0  0  0  0  0  0  0  0  0
    2.0000    2.7354    0.0000 H   0  0  0  0  0  0  0  0  0  0  0  0
  1  8  1  0  0  0  0
  1  9  1  0  0  0  0
  2 10  1  0  0  0  0
  2 22  1  0  0  0  0
  3 13  1  0  0  0  0
  3 29  1  0  0  0  0
  4 11  2  0  0  0  0
  5 16  1  0  0  0  0
  5 33  1  0  0  0  0
  6 21  1  0  0  0  0
  6 34  1  0  0  0  0
  7  8  1  0  0  0  0
  7 11  1  0  0  0  0
  7 13  2  0  0  0  0
  8 14  2  0  0  0  0
  9 10  2  0  0  0  0
  9 12  1  0  0  0  0
 10 11  1  0  0  0  0
 12 17  2  0  0  0  0
 12 18  1  0  0  0  0
 13 15  1  0  0  0  0
 14 16  1  0  0  0  0
 14 23  1  0  0  0  0
 15 16  2  0  0  0  0
 15 24  1  0  0  0  0
 17 19  1  0  0  0  0
 17 25  1  0  0  0  0
 18 20  2  0  0  0  0
 18 26  1  0  0  0  0
 19 21  2  0  0  0  0
 19 27  1  0  0  0  0
 20 21  1  0  0  0  0
 20 28  1  0  0  0  0
 22 30  1  0  0  0  0
 22 31  1  0  0  0  0
 22 32  1  0  0  0  0
M  END
> <PUBCHEM_COMPOUND_CID>
5280862

> <PUBCHEM_COMPOUND_CANONICALIZED>
1

> <PUBCHEM_CACTVS_COMPLEXITY>
465

> <PUBCHEM_CACTVS_HBOND_ACCEPTOR>
6

> <PUBCHEM_CACTVS_HBOND_DONOR>
3

> <PUBCHEM_CACTVS_ROTATABLE_BOND>
2

> <PUBCHEM_CACTVS_SUBSKEYS>
AAADccB4OAAAAAAAAAAAAAAAAAAAAAAAAAAwYIAAAAAAAACBQAAAGgAACAAADASAmAIyBoAABgCIAqBSAAICCAAkIAAIiAFGCMgMJzaGNR6CeWCl4BUIuQfI7KzOIAAACAAIAABAAAAQABAAAAAAAAAAAA==

> <PUBCHEM_IUPAC_OPENEYE_NAME>
5,7-dihydroxy-2-(4-hydroxyphenyl)-3-methoxy-chromen-4-one

> <PUBCHEM_IUPAC_CAS_NAME>
5,7-dihydroxy-2-(4-hydroxyphenyl)-3-methoxy-1-benzopyran-4-one

> <PUBCHEM_IUPAC_NAME>
5,7-dihydroxy-2-(4-hydroxyphenyl)-3-methoxychromen-4-one

> <PUBCHEM_IUPAC_SYSTEMATIC_NAME>
2-(4-hydroxyphenyl)-3-methoxy-5,7-bis(oxidanyl)chromen-4-one

> <PUBCHEM_IUPAC_TRADITIONAL_NAME>
5,7-dihydroxy-2-(4-hydroxyphenyl)-3-methoxy-chromone

> <PUBCHEM_IUPAC_INCHI>
InChI=1S/C16H12O6/c1-21-16-14(20)13-11(19)6-10(18)7-12(13)22-15(16)8-2-4-9(17)5-3-8/h2-7,17-19H,1H3

> <PUBCHEM_IUPAC_INCHIKEY>
VJJZJBUCDWKPLC-UHFFFAOYSA-N

> <PUBCHEM_XLOGP3>
2.2

> <PUBCHEM_EXACT_MASS>
300.063388

> <PUBCHEM_MOLECULAR_FORMULA>
C16H12O6

> <PUBCHEM_MOLECULAR_WEIGHT>
300.26288

> <PUBCHEM_OPENEYE_CAN_SMILES>
COC1=C(OC2=CC(=CC(=C2C1=O)O)O)C3=CC=C(C=C3)O

> <PUBCHEM_OPENEYE_ISO_SMILES>
COC1=C(OC2=CC(=CC(=C2C1=O)O)O)C3=CC=C(C=C3)O

> <PUBCHEM_CACTVS_TPSA>
96.2

> <PUBCHEM_MONOISOTOPIC_WEIGHT>
300.063388

> <PUBCHEM_TOTAL_CHARGE>
0

> <PUBCHEM_HEAVY_ATOM_COUNT>
22

> <PUBCHEM_ATOM_DEF_STEREO_COUNT>
0

> <PUBCHEM_ATOM_UDEF_STEREO_COUNT>
0

> <PUBCHEM_BOND_DEF_STEREO_COUNT>
0

> <PUBCHEM_BOND_UDEF_STEREO_COUNT>
0

> <PUBCHEM_ISOTOPIC_ATOM_COUNT>
0

> <PUBCHEM_COMPONENT_COUNT>
1

> <PUBCHEM_CACTVS_TAUTO_COUNT>
57

> <PUBCHEM_COORDINATE_TYPE>
1
5
255

> <PUBCHEM_BONDANNOTATIONS>
1  8  8
1  9  8
10  11  8
12  17  8
12  18  8
13  15  8
14  16  8
15  16  8
17  19  8
18  20  8
19  21  8
20  21  8
7  11  8
7  13  8
7  8  8
8  14  8
9  10  8

$$$$

