582723
  -OEChem-06241222433D

 42 44  0     1  0  0  0  0  0999 V2000
   -0.5560    2.5582   -1.3474 O   0  0  0  0  0  0  0  0  0  0  0  0
    5.1726   -0.2704   -0.2245 O   0  0  0  0  0  0  0  0  0  0  0  0
   -2.7007   -1.9259    1.5989 N   0  0  0  0  0  0  0  0  0  0  0  0
   -2.6646    3.7087   -0.0797 N   0  0  0  0  0  0  0  0  0  0  0  0
   -0.0487    1.3944    0.6261 N   0  0  0  0  0  0  0  0  0  0  0  0
   -3.2417    1.2810   -0.0615 C   0  0  0  0  0  0  0  0  0  0  0  0
   -2.8712   -0.0792    0.3791 C   0  0  0  0  0  0  0  0  0  0  0  0
   -2.2395    2.3817    0.3716 C   0  0  1  0  0  0  0  0  0  0  0  0
   -2.0708   -1.0128   -0.3368 C   0  0  0  0  0  0  0  0  0  0  0  0
   -1.9794   -2.1627    0.4504 C   0  0  0  0  0  0  0  0  0  0  0  0
   -3.2434   -0.6693    1.5650 C   0  0  0  0  0  0  0  0  0  0  0  0
   -0.8597    2.1230   -0.2396 C   0  0  0  0  0  0  0  0  0  0  0  0
   -1.4134   -0.9900   -1.5828 C   0  0  0  0  0  0  0  0  0  0  0  0
   -1.2605   -3.2953    0.0524 C   0  0  0  0  0  0  0  0  0  0  0  0
   -0.6907   -2.1157   -1.9941 C   0  0  0  0  0  0  0  0  0  0  0  0
   -0.6166   -3.2496   -1.1875 C   0  0  0  0  0  0  0  0  0  0  0  0
    1.2832    0.9690    0.4092 C   0  0  0  0  0  0  0  0  0  0  0  0
    1.9337    0.2470    1.3961 C   0  0  0  0  0  0  0  0  0  0  0  0
    1.9092    1.2851   -0.7854 C   0  0  0  0  0  0  0  0  0  0  0  0
    3.2472   -0.1708    1.1825 C   0  0  0  0  0  0  0  0  0  0  0  0
    3.2227    0.8672   -0.9991 C   0  0  0  0  0  0  0  0  0  0  0  0
    3.8918    0.1391   -0.0152 C   0  0  0  0  0  0  0  0  0  0  0  0
    5.7966   -1.0126    0.8224 C   0  0  0  0  0  0  0  0  0  0  0  0
   -4.2355    1.5300    0.3350 H   0  0  0  0  0  0  0  0  0  0  0  0
   -3.3472    1.2900   -1.1550 H   0  0  0  0  0  0  0  0  0  0  0  0
   -2.1593    2.4065    1.4648 H   0  0  0  0  0  0  0  0  0  0  0  0
   -3.8441   -0.3093    2.3886 H   0  0  0  0  0  0  0  0  0  0  0  0
   -2.8125   -2.5847    2.3571 H   0  0  0  0  0  0  0  0  0  0  0  0
   -1.4634   -0.1182   -2.2284 H   0  0  0  0  0  0  0  0  0  0  0  0
   -1.2021   -4.1784    0.6798 H   0  0  0  0  0  0  0  0  0  0  0  0
   -3.5780    3.9228    0.3195 H   0  0  0  0  0  0  0  0  0  0  0  0
   -2.8016    3.6995   -1.0903 H   0  0  0  0  0  0  0  0  0  0  0  0
   -0.1819   -2.1038   -2.9544 H   0  0  0  0  0  0  0  0  0  0  0  0
   -0.4439    1.1201    1.5228 H   0  0  0  0  0  0  0  0  0  0  0  0
   -0.0494   -4.1127   -1.5265 H   0  0  0  0  0  0  0  0  0  0  0  0
    1.4393    0.0000    2.3316 H   0  0  0  0  0  0  0  0  0  0  0  0
    1.4599    1.8400   -1.5953 H   0  0  0  0  0  0  0  0  0  0  0  0
    3.7073   -0.7329    1.9880 H   0  0  0  0  0  0  0  0  0  0  0  0
    3.7204    1.1098   -1.9342 H   0  0  0  0  0  0  0  0  0  0  0  0
    5.2826   -1.9627    1.0036 H   0  0  0  0  0  0  0  0  0  0  0  0
    5.8975   -0.4147    1.7345 H   0  0  0  0  0  0  0  0  0  0  0  0
    6.8098   -1.2564    0.4862 H   0  0  0  0  0  0  0  0  0  0  0  0
  1 12  2  0  0  0  0
  2 22  1  0  0  0  0
  2 23  1  0  0  0  0
  3 10  1  0  0  0  0
  3 11  1  0  0  0  0
  3 28  1  0  0  0  0
  4  8  1  0  0  0  0
  4 31  1  0  0  0  0
  4 32  1  0  0  0  0
  5 12  1  0  0  0  0
  5 17  1  0  0  0  0
  5 34  1  0  0  0  0
  6  7  1  0  0  0  0
  6  8  1  0  0  0  0
  6 24  1  0  0  0  0
  6 25  1  0  0  0  0
  7  9  1  0  0  0  0
  7 11  2  0  0  0  0
  8 12  1  0  0  0  0
  8 26  1  0  0  0  0
  9 10  1  0  0  0  0
  9 13  2  0  0  0  0
 10 14  2  0  0  0  0
 11 27  1  0  0  0  0
 13 15  1  0  0  0  0
 13 29  1  0  0  0  0
 14 16  1  0  0  0  0
 14 30  1  0  0  0  0
 15 16  2  0  0  0  0
 15 33  1  0  0  0  0
 16 35  1  0  0  0  0
 17 18  2  0  0  0  0
 17 19  1  0  0  0  0
 18 20  1  0  0  0  0
 18 36  1  0  0  0  0
 19 21  2  0  0  0  0
 19 37  1  0  0  0  0
 20 22  2  0  0  0  0
 20 38  1  0  0  0  0
 21 22  1  0  0  0  0
 21 39  1  0  0  0  0
 23 40  1  0  0  0  0
 23 41  1  0  0  0  0
 23 42  1  0  0  0  0
M  END
> <PUBCHEM_COMPOUND_CID>
582723

> <PUBCHEM_CONFORMER_RMSD>
0.8

> <PUBCHEM_CONFORMER_DIVERSEORDER>
1
76
75
9
66
18
50
52
22
60
49
37
26
42
3
54
30
79
67
69
58
73
40
51
38
2
84
16
17
4
55
70
27
77
14
35
10
6
78
36
59
61
23
8
19
44
34
72
7
5
20
74
53
57
28
83
39
56
21
29
43
45
71
68
65
64
33
24
31
48
13
80
82
11
47
46
81
62
41
15
63
32
12
25

> <PUBCHEM_MMFF94_PARTIAL_CHARGES>
35
1 -0.57
10 -0.15
11 -0.3
12 0.57
13 -0.15
14 -0.15
15 -0.15
16 -0.15
17 0.12
18 -0.15
19 -0.15
2 -0.36
20 -0.15
21 -0.15
22 0.08
23 0.28
27 0.15
28 0.27
29 0.15
3 0.03
30 0.15
31 0.36
32 0.36
33 0.15
34 0.37
35 0.15
36 0.15
37 0.15
38 0.15
39 0.15
4 -0.99
5 -0.55
6 0.18
7 -0.18
8 0.33

> <PUBCHEM_EFFECTIVE_ROTOR_COUNT>
6

> <PUBCHEM_PHARMACOPHORE_FEATURES>
10
1 1 acceptor
1 2 acceptor
1 3 cation
1 3 donor
1 4 cation
1 4 donor
1 5 donor
5 3 7 9 10 11 rings
6 17 18 19 20 21 22 rings
6 9 10 13 14 15 16 rings

> <PUBCHEM_HEAVY_ATOM_COUNT>
23

> <PUBCHEM_ATOM_DEF_STEREO_COUNT>
0

> <PUBCHEM_ATOM_UDEF_STEREO_COUNT>
1

> <PUBCHEM_BOND_DEF_STEREO_COUNT>
0

> <PUBCHEM_BOND_UDEF_STEREO_COUNT>
0

> <PUBCHEM_ISOTOPIC_ATOM_COUNT>
0

> <PUBCHEM_COMPONENT_COUNT>
1

> <PUBCHEM_CACTVS_TAUTO_COUNT>
2

> <PUBCHEM_CONFORMER_ID>
0008E44300000001

> <PUBCHEM_MMFF94_ENERGY>
59.9588

> <PUBCHEM_FEATURE_SELFOVERLAP>
50.835

> <PUBCHEM_SHAPE_FINGERPRINT>
107951 10 18057598965788509435
11014199 57 17904487299087043454
11370993 144 17458057145573233602
11524674 6 17896331392425203390
12156800 1 16408946103779517723
12422481 6 18048849034995509155
12553582 1 18122621648023835750
12633257 1 17313654950170169152
133893 2 17043199597079815613
13726171 33 17905284582161002148
14251751 93 18341331188589597810
15163728 17 17056417831569380941
16752209 62 18337686277178107737
19777482 4 17245850151397868439
20291156 8 18127125282079464480
20554085 129 17610651938599730217
21634736 98 18058162835191972820
21731516 1 17979921510117374159
23419403 2 17319258250630730013
23559900 14 18187368787956516848
23598288 3 18343017770248278045
23728640 28 18335990817336924979
2818148 4 17764855910290379011
3027735 51 18041581203159601743
3411729 13 17686618352957907193
465052 167 18055051187542564147
5265222 85 18334568037423747574
602551 16 18334299773417974088
7097593 13 17616519671658842295
90525 40 18341051912314447681
9862522 239 18334582390212718982
9953998 17 18264226811154063088

> <PUBCHEM_SHAPE_MULTIPOLES>
446.65
7.82
3.76
1.53
13.01
0.06
0.13
0.67
-2.35
-3.87
0.97
-0.29
0.62
-0.16

> <PUBCHEM_SHAPE_SELFOVERLAP>
970.58

> <PUBCHEM_SHAPE_VOLUME>
243.2

> <PUBCHEM_COORDINATE_TYPE>
2
5
10

$$$$

