17395534
  -OEChem-06241222503D

 41 43  0     0  0  0  0  0  0999 V2000
    3.3099    3.0824   -0.5522 S   0  0  0  0  0  0  0  0  0  0  0  0
   -3.3980    1.6094   -1.3678 O   0  0  0  0  0  0  0  0  0  0  0  0
   -0.5279    0.7379    0.6652 O   0  0  0  0  0  0  0  0  0  0  0  0
   -2.7671    2.2003    0.7868 N   0  0  0  0  0  0  0  0  0  0  0  0
    0.7834    2.5948    0.0547 N   0  0  0  0  0  0  0  0  0  0  0  0
    2.3748    0.7527    0.0649 N   0  0  0  0  0  0  0  0  0  0  0  0
    6.3820   -1.9303    0.3874 N   0  0  0  0  0  0  0  0  0  0  0  0
   -4.8011    0.9358    0.4872 C   0  0  0  0  0  0  0  0  0  0  0  0
   -4.8855   -0.5300    0.2246 C   0  0  0  0  0  0  0  0  0  0  0  0
   -1.5549    2.8982    0.4273 C   0  0  0  0  0  0  0  0  0  0  0  0
   -3.5958    1.6076   -0.1555 C   0  0  0  0  0  0  0  0  0  0  0  0
   -5.5751   -0.9997   -0.8933 C   0  0  0  0  0  0  0  0  0  0  0  0
   -4.2743   -1.4313    1.0964 C   0  0  0  0  0  0  0  0  0  0  0  0
   -0.3850    1.9306    0.4170 C   0  0  0  0  0  0  0  0  0  0  0  0
    3.7256    0.6081   -0.1845 C   0  0  0  0  0  0  0  0  0  0  0  0
    2.0452    2.0147   -0.0987 C   0  0  0  0  0  0  0  0  0  0  0  0
    4.3756   -0.6668   -0.0846 C   0  0  0  0  0  0  0  0  0  0  0  0
   -5.6539   -2.3704   -1.1392 C   0  0  0  0  0  0  0  0  0  0  0  0
   -4.3530   -2.8020    0.8503 C   0  0  0  0  0  0  0  0  0  0  0  0
    4.4007    1.7591   -0.5328 C   0  0  0  0  0  0  0  0  0  0  0  0
   -5.0429   -3.2715   -0.2675 C   0  0  0  0  0  0  0  0  0  0  0  0
    3.6858   -1.8455   -0.3460 C   0  0  0  0  0  0  0  0  0  0  0  0
    5.7102   -0.7624    0.2751 C   0  0  0  0  0  0  0  0  0  0  0  0
    4.3426   -3.0666   -0.2409 C   0  0  0  0  0  0  0  0  0  0  0  0
    5.6788   -3.0549    0.1258 C   0  0  0  0  0  0  0  0  0  0  0  0
   -5.6948    1.4422    0.0996 H   0  0  0  0  0  0  0  0  0  0  0  0
   -4.8218    1.1160    1.5692 H   0  0  0  0  0  0  0  0  0  0  0  0
   -1.6655    3.3539   -0.5618 H   0  0  0  0  0  0  0  0  0  0  0  0
   -1.3803    3.6766    1.1761 H   0  0  0  0  0  0  0  0  0  0  0  0
   -2.9935    2.1311    1.7744 H   0  0  0  0  0  0  0  0  0  0  0  0
   -6.0541   -0.3081   -1.5813 H   0  0  0  0  0  0  0  0  0  0  0  0
   -3.7320   -1.0775    1.9693 H   0  0  0  0  0  0  0  0  0  0  0  0
    0.7482    3.5951   -0.1243 H   0  0  0  0  0  0  0  0  0  0  0  0
   -6.1905   -2.7360   -2.0098 H   0  0  0  0  0  0  0  0  0  0  0  0
   -3.8766   -3.5039    1.5286 H   0  0  0  0  0  0  0  0  0  0  0  0
    5.4422    1.9058   -0.7836 H   0  0  0  0  0  0  0  0  0  0  0  0
   -5.1039   -4.3388   -0.4592 H   0  0  0  0  0  0  0  0  0  0  0  0
    2.6383   -1.8361   -0.6367 H   0  0  0  0  0  0  0  0  0  0  0  0
    6.3161    0.1073    0.5111 H   0  0  0  0  0  0  0  0  0  0  0  0
    3.8256   -3.9981   -0.4409 H   0  0  0  0  0  0  0  0  0  0  0  0
    6.2365   -3.9808    0.2213 H   0  0  0  0  0  0  0  0  0  0  0  0
  1 16  1  0  0  0  0
  1 20  1  0  0  0  0
  2 11  2  0  0  0  0
  3 14  2  0  0  0  0
  4 10  1  0  0  0  0
  4 11  1  0  0  0  0
  4 30  1  0  0  0  0
  5 14  1  0  0  0  0
  5 16  1  0  0  0  0
  5 33  1  0  0  0  0
  6 15  1  0  0  0  0
  6 16  2  0  0  0  0
  7 23  1  0  0  0  0
  7 25  2  0  0  0  0
  8  9  1  0  0  0  0
  8 11  1  0  0  0  0
  8 26  1  0  0  0  0
  8 27  1  0  0  0  0
  9 12  2  0  0  0  0
  9 13  1  0  0  0  0
 10 14  1  0  0  0  0
 10 28  1  0  0  0  0
 10 29  1  0  0  0  0
 12 18  1  0  0  0  0
 12 31  1  0  0  0  0
 13 19  2  0  0  0  0
 13 32  1  0  0  0  0
 15 17  1  0  0  0  0
 15 20  2  0  0  0  0
 17 22  1  0  0  0  0
 17 23  2  0  0  0  0
 18 21  2  0  0  0  0
 18 34  1  0  0  0  0
 19 21  1  0  0  0  0
 19 35  1  0  0  0  0
 20 36  1  0  0  0  0
 21 37  1  0  0  0  0
 22 24  2  0  0  0  0
 22 38  1  0  0  0  0
 23 39  1  0  0  0  0
 24 25  1  0  0  0  0
 24 40  1  0  0  0  0
 25 41  1  0  0  0  0
M  END
> <PUBCHEM_COMPOUND_CID>
17395534

> <PUBCHEM_CONFORMER_RMSD>
1

> <PUBCHEM_CONFORMER_DIVERSEORDER>
1
88
186
207
79
153
82
202
34
183
96
143
204
115
199
164
135
66
200
146
2
144
100
150
21
209
74
58
181
123
69
39
184
189
197
160
5
55
112
203
78
196
109
68
73
188
6
83
198
145
51
10
201
190
102
20
176
31
179
30
25
118
95
52
133
110
12
182
116
210
85
62
192
99
7
29
161
130
132
70
174
187
40
177
61
87
32
65
103
8
111
17
23
98
94
205
97
117
152
36
126
33
44
93
208
147
41
157
22
167
171
107
139
42
77
75
191
165
195
141
13
45
91
76
9
89
168
84
81
50
90
127
172
18
124
185
19
131
57
27
67
154
206
114
129
140
92
170
26
71
53
38
24
163
49
178
101
48
158
106
113
142
37
128
11
46
15
122
105
59
151
28
16
137
47
175
14
169
119
193
104
121
54
43
125
60
64
80
194
56
63
148
3
108
156
136
159
86
35
134
138
72
162
4
149
166
120
155
180
173

> <PUBCHEM_MMFF94_PARTIAL_CHARGES>
37
1 -0.08
10 0.36
11 0.57
12 -0.15
13 -0.15
14 0.57
15 0.17
16 0.44
17 0.05
18 -0.15
19 -0.15
2 -0.57
20 -0.11
21 -0.15
22 -0.15
23 0.16
24 -0.15
25 0.16
3 -0.57
30 0.37
31 0.15
32 0.15
33 0.37
34 0.15
35 0.15
36 0.15
37 0.15
38 0.15
39 0.15
4 -0.73
40 0.15
41 0.15
5 -0.49
6 -0.57
7 -0.62
8 0.2
9 -0.14

> <PUBCHEM_EFFECTIVE_ROTOR_COUNT>
8

> <PUBCHEM_PHARMACOPHORE_FEATURES>
8
1 2 acceptor
1 3 acceptor
1 4 donor
1 5 donor
1 7 acceptor
5 1 6 15 16 20 rings
6 7 17 22 23 24 25 rings
6 9 12 13 18 19 21 rings

> <PUBCHEM_HEAVY_ATOM_COUNT>
25

> <PUBCHEM_ATOM_DEF_STEREO_COUNT>
0

> <PUBCHEM_ATOM_UDEF_STEREO_COUNT>
0

> <PUBCHEM_BOND_DEF_STEREO_COUNT>
0

> <PUBCHEM_BOND_UDEF_STEREO_COUNT>
0

> <PUBCHEM_ISOTOPIC_ATOM_COUNT>
0

> <PUBCHEM_COMPONENT_COUNT>
1

> <PUBCHEM_CACTVS_TAUTO_COUNT>
6

> <PUBCHEM_CONFORMER_ID>
01096F4E00000001

> <PUBCHEM_MMFF94_ENERGY>
55.2824

> <PUBCHEM_FEATURE_SELFOVERLAP>
40.594

> <PUBCHEM_SHAPE_FINGERPRINT>
10074138 170 16879892278980382193
10169797 241 18262781992292221158
10838868 158 17555998204901439435
10928967 22 17970344819911358687
11135609 99 18409168844558435358
11136131 41 18198350563870761410
11197282 1 18410291410785042655
11315621 136 18342176657143905130
11443803 9 17841997690316914760
12107183 9 18263634229652093281
12422481 6 17095516335623444463
14211702 104 18335416885347319694
14251751 18 18335139808332600810
14347332 77 18411138043644518581
14866123 147 18335133225081653249
15019793 15 18120096082901053871
15250474 111 18408599275316456209
15728490 51 18335423487534817462
15728490 83 18340757230741155019
17492 89 18410855456076079964
17857418 61 18409164415571264787
17909252 39 18335984151452554896
18393751 57 8574440859460252365
19319366 153 17758959225252207372
19958102 18 18130792239452908015
20028762 73 18334859441785149678
20567600 247 18334859381137895712
20567600 70 18411419557528889322
21315764 119 18131360700445450253
22393880 68 17917439764746568833
23559900 14 18411144649083083393
25122255 55 18336823181982916110
25222932 49 18188769427635310628
2838139 119 9727629497277252008
314194 84 18264480685911722017
316301 35 18408888447133251728
329604 57 18410009910006373151
437795 163 18412258416524316598
439807 62 18411417289823275111
44062 13 18341613754546257733
444735 86 18270410394753590315
50009960 94 18199772356822838722
5104073 3 18040148517928531441
5365585 94 18200867375724594059
6431902 208 18409731755108356783
6437827 68 18410292523281630187
7970288 3 18408888425447145575

> <PUBCHEM_SHAPE_MULTIPOLES>
486.68
17.73
4.79
0.94
0.59
1.03
-0.08
15.72
-1.24
-1.36
-0.11
1.01
0.08
-0.95

> <PUBCHEM_SHAPE_SELFOVERLAP>
1033.223

> <PUBCHEM_SHAPE_VOLUME>
272.1

> <PUBCHEM_COORDINATE_TYPE>
2
5
10

$$$$

