17395783
  -OEChem-06241222523D

 49 52  0     1  0  0  0  0  0999 V2000
    2.0241   -0.2183    0.9273 S   0  0  0  0  0  0  0  0  0  0  0  0
    5.2725   -1.2622    0.9869 O   0  0  0  0  0  0  0  0  0  0  0  0
   -0.7152   -0.2514    0.5224 N   0  0  0  0  0  0  0  0  0  0  0  0
   -0.9913   -2.3945    0.1480 N   0  0  0  0  0  0  0  0  0  0  0  0
    0.3596   -2.2470    0.3900 N   0  0  0  0  0  0  0  0  0  0  0  0
   -5.1357   -1.7199   -0.5739 N   0  0  0  0  0  0  0  0  0  0  0  0
    4.8546    0.0225   -0.9044 N   0  0  0  0  0  0  0  0  0  0  0  0
   -0.8960    1.1928    0.5451 C   0  0  0  0  0  0  0  0  0  0  0  0
    0.2665    2.1276    0.3816 C   0  0  0  0  0  0  0  0  0  0  0  0
   -0.7640    2.0147   -0.7033 C   0  0  0  0  0  0  0  0  0  0  0  0
   -1.6803   -1.1924    0.1962 C   0  0  0  0  0  0  0  0  0  0  0  0
    0.4817   -0.9462    0.5986 C   0  0  0  0  0  0  0  0  0  0  0  0
   -2.9816   -1.0337   -0.0385 C   0  0  0  0  0  0  0  0  0  0  0  0
   -3.8128    0.1551   -0.0207 C   0  0  0  0  0  0  0  0  0  0  0  0
   -3.9109   -2.1297   -0.3928 C   0  0  0  0  0  0  0  0  0  0  0  0
    3.0874   -1.3499    0.0044 C   0  0  0  0  0  0  0  0  0  0  0  0
   -5.0963   -0.3189   -0.3496 C   0  0  0  0  0  0  0  0  0  0  0  0
   -3.5687    1.4907    0.2341 C   0  0  0  0  0  0  0  0  0  0  0  0
    6.1698    0.6078   -1.0318 C   0  0  1  0  0  0  0  0  0  0  0  0
    4.5159   -0.8685    0.1008 C   0  0  0  0  0  0  0  0  0  0  0  0
   -6.1679    0.5550   -0.4285 C   0  0  0  0  0  0  0  0  0  0  0  0
    6.5379    1.4314    0.2091 C   0  0  0  0  0  0  0  0  0  0  0  0
   -4.6487    2.3726    0.1550 C   0  0  0  0  0  0  0  0  0  0  0  0
   -5.9358    1.9098   -0.1730 C   0  0  0  0  0  0  0  0  0  0  0  0
    7.1995   -0.4898   -1.2788 C   0  0  0  0  0  0  0  0  0  0  0  0
    5.5358    2.5423    0.4959 C   0  0  0  0  0  0  0  0  0  0  0  0
   -1.3279    1.4664    1.5060 H   0  0  0  0  0  0  0  0  0  0  0  0
    0.2567    3.0374    0.9778 H   0  0  0  0  0  0  0  0  0  0  0  0
    1.2466    1.9465   -0.0309 H   0  0  0  0  0  0  0  0  0  0  0  0
   -0.4846    1.5053   -1.6189 H   0  0  0  0  0  0  0  0  0  0  0  0
   -1.3811    2.8895   -0.8659 H   0  0  0  0  0  0  0  0  0  0  0  0
   -1.4188   -3.2818   -0.0762 H   0  0  0  0  0  0  0  0  0  0  0  0
   -3.5720   -3.1697   -0.4859 H   0  0  0  0  0  0  0  0  0  0  0  0
    3.0395   -2.3586    0.4273 H   0  0  0  0  0  0  0  0  0  0  0  0
    2.7741   -1.4007   -1.0436 H   0  0  0  0  0  0  0  0  0  0  0  0
   -2.7431    2.0292    0.6021 H   0  0  0  0  0  0  0  0  0  0  0  0
    6.1336    1.2642   -1.9093 H   0  0  0  0  0  0  0  0  0  0  0  0
    4.1507    0.2909   -1.5859 H   0  0  0  0  0  0  0  0  0  0  0  0
   -7.1631    0.2044   -0.6797 H   0  0  0  0  0  0  0  0  0  0  0  0
    7.5226    1.8886    0.0492 H   0  0  0  0  0  0  0  0  0  0  0  0
    6.6352    0.8031    1.1009 H   0  0  0  0  0  0  0  0  0  0  0  0
   -4.5061    3.4287    0.3722 H   0  0  0  0  0  0  0  0  0  0  0  0
    6.9068   -1.1158   -2.1291 H   0  0  0  0  0  0  0  0  0  0  0  0
    7.3363   -1.1465   -0.4143 H   0  0  0  0  0  0  0  0  0  0  0  0
    8.1756   -0.0493   -1.5100 H   0  0  0  0  0  0  0  0  0  0  0  0
   -6.7611    2.6153   -0.2225 H   0  0  0  0  0  0  0  0  0  0  0  0
    5.4152    3.1960   -0.3738 H   0  0  0  0  0  0  0  0  0  0  0  0
    5.8861    3.1554    1.3324 H   0  0  0  0  0  0  0  0  0  0  0  0
    4.5542    2.1429    0.7669 H   0  0  0  0  0  0  0  0  0  0  0  0
  1 12  1  0  0  0  0
  1 16  1  0  0  0  0
  2 20  2  0  0  0  0
  3  8  1  0  0  0  0
  3 11  1  0  0  0  0
  3 12  1  0  0  0  0
  4  5  1  0  0  0  0
  4 11  1  0  0  0  0
  4 32  1  0  0  0  0
  5 12  2  0  0  0  0
  6 15  2  0  0  0  0
  6 17  1  0  0  0  0
  7 19  1  0  0  0  0
  7 20  1  0  0  0  0
  7 38  1  0  0  0  0
  8  9  1  0  0  0  0
  8 10  1  0  0  0  0
  8 27  1  0  0  0  0
  9 10  1  0  0  0  0
  9 28  1  0  0  0  0
  9 29  1  0  0  0  0
 10 30  1  0  0  0  0
 10 31  1  0  0  0  0
 11 13  2  0  0  0  0
 13 14  1  0  0  0  0
 13 15  1  0  0  0  0
 14 17  1  0  0  0  0
 14 18  2  0  0  0  0
 15 33  1  0  0  0  0
 16 20  1  0  0  0  0
 16 34  1  0  0  0  0
 16 35  1  0  0  0  0
 17 21  2  0  0  0  0
 18 23  1  0  0  0  0
 18 36  1  0  0  0  0
 19 22  1  0  0  0  0
 19 25  1  0  0  0  0
 19 37  1  0  0  0  0
 21 24  1  0  0  0  0
 21 39  1  0  0  0  0
 22 26  1  0  0  0  0
 22 40  1  0  0  0  0
 22 41  1  0  0  0  0
 23 24  2  0  0  0  0
 23 42  1  0  0  0  0
 24 46  1  0  0  0  0
 25 43  1  0  0  0  0
 25 44  1  0  0  0  0
 25 45  1  0  0  0  0
 26 47  1  0  0  0  0
 26 48  1  0  0  0  0
 26 49  1  0  0  0  0
M  END
> <PUBCHEM_COMPOUND_CID>
17395783

> <PUBCHEM_CONFORMER_RMSD>
0.8

> <PUBCHEM_CONFORMER_DIVERSEORDER>
51
125
218
202
153
196
76
107
148
73
4
210
66
177
140
101
35
106
160
124
33
186
181
120
53
138
62
74
44
32
168
175
10
192
216
119
83
55
223
156
82
79
144
198
113
117
6
219
64
112
90
49
16
172
158
63
157
52
152
46
122
222
166
41
184
54
92
109
151
127
1
183
146
25
123
110
193
87
89
38
58
96
139
104
88
105
163
179
93
136
111
225
115
100
18
94
11
180
189
116
129
17
103
209
161
143
30
203
208
5
167
15
86
188
207
135
13
68
201
133
169
81
60
28
102
182
213
149
3
42
154
220
47
99
159
126
200
9
45
211
21
65
171
121
77
142
39
205
173
176
14
190
34
187
206
70
162
165
61
170
91
7
130
185
137
191
118
215
48
80
95
132
78
155
67
36
134
145
98
24
22
23
29
197
43
12
71
178
128
199
50
214
69
147
37
72
217
27
40
31
84
164
59
204
8
212
97
221
114
85
150
75
20
131
19
108
2
57
194
141
224
56
195
26
174

> <PUBCHEM_MMFF94_PARTIAL_CHARGES>
35
1 -0.37
10 -0.2
11 0.2
12 0.64
13 -0.01
14 0.03
15 0.38
16 0.29
17 0.18
18 -0.15
19 0.3
2 -0.57
20 0.57
21 -0.15
23 -0.15
24 -0.15
27 0.1
28 0.1
29 0.1
3 -0.32
30 0.1
31 0.1
32 0.4
33 0.06
36 0.15
38 0.37
39 0.15
4 -0.46
42 0.15
46 0.15
5 -0.49
6 -0.63
7 -0.73
8 0.07
9 -0.2

> <PUBCHEM_EFFECTIVE_ROTOR_COUNT>
8

> <PUBCHEM_PHARMACOPHORE_FEATURES>
9
1 2 acceptor
1 26 hydrophobe
1 4 donor
1 6 acceptor
1 7 donor
3 3 5 12 cation
5 3 4 5 11 12 rings
5 6 13 14 15 17 rings
6 14 17 18 21 23 24 rings

> <PUBCHEM_HEAVY_ATOM_COUNT>
26

> <PUBCHEM_ATOM_DEF_STEREO_COUNT>
0

> <PUBCHEM_ATOM_UDEF_STEREO_COUNT>
1

> <PUBCHEM_BOND_DEF_STEREO_COUNT>
1

> <PUBCHEM_BOND_UDEF_STEREO_COUNT>
0

> <PUBCHEM_ISOTOPIC_ATOM_COUNT>
0

> <PUBCHEM_COMPONENT_COUNT>
1

> <PUBCHEM_CACTVS_TAUTO_COUNT>
6

> <PUBCHEM_CONFORMER_ID>
0109704700000033

> <PUBCHEM_MMFF94_ENERGY>
133.4232

> <PUBCHEM_FEATURE_SELFOVERLAP>
45.766

> <PUBCHEM_SHAPE_FINGERPRINT>
10411042 1 17907015072325461771
10906281 52 18340192081342068739
10940486 97 18339924788674417535
11578080 2 4749777451205925753
12236239 1 17988925595336521202
13533116 47 17631740477911518858
14528608 73 18410292502165093658
14556957 393 16298652924361511736
14790565 3 18339361967179410265
14840074 17 17847057804848858516
15183329 4 18408885152645318208
15196674 1 18410578378971657897
15575132 122 17917151709658317813
1601671 61 18337958990780204851
16067689 134 18045206391628587984
18608769 82 18341045217320627443
20511986 3 18201167614838271247
21236236 1 18410012135152775809
21267235 1 18409448047719154515
21279426 13 18334859402834817376
21298829 104 18130499744165382716
23559900 14 18114469954852533689
3004659 81 18412262844456360928
335352 9 18409172121908580573
34797466 226 17821721715713375252
350125 39 18410856556384071969
4073 2 18059288773890788698
4325135 7 18342455967552252284
513202 73 14129324252307412746
5283173 99 18408603656383915512
53794403 172 18128529363536433924
6328613 192 18409731785537150809

> <PUBCHEM_SHAPE_MULTIPOLES>
508.14
18.17
2.75
0.92
18.01
0.47
-0.07
4.88
-4.61
-1.16
0.17
0.96
-0.01
-0.08

> <PUBCHEM_SHAPE_SELFOVERLAP>
1076.87

> <PUBCHEM_SHAPE_VOLUME>
286.4

> <PUBCHEM_COORDINATE_TYPE>
2
5
10

$$$$

