440136
  -OEChem-07051212483D

 50 53  0     1  0  0  0  0  0999 V2000
    3.8814    0.1773    1.8881 O   0  0  0  0  0  0  0  0  0  0  0  0
   -2.2115    0.7126    0.5662 C   0  0  1  0  0  0  0  0  0  0  0  0
   -2.9056   -0.6631    0.5495 C   0  0  2  0  0  0  0  0  0  0  0  0
   -0.6725    0.6450    0.4342 C   0  0  1  0  0  0  0  0  0  0  0  0
   -0.1820   -0.2677   -0.7138 C   0  0  1  0  0  0  0  0  0  0  0  0
    1.4012   -0.3612   -0.7808 C   0  0  1  0  0  0  0  0  0  0  0  0
   -2.4005   -1.5269   -0.6255 C   0  0  0  0  0  0  0  0  0  0  0  0
   -0.8783   -1.6442   -0.6574 C   0  0  0  0  0  0  0  0  0  0  0  0
   -2.9417    1.4984   -0.5365 C   0  0  0  0  0  0  0  0  0  0  0  0
   -4.3800   -0.2743    0.3438 C   0  0  0  0  0  0  0  0  0  0  0  0
   -0.0720    2.0522    0.2848 C   0  0  0  0  0  0  0  0  0  0  0  0
   -4.3593    0.9291   -0.5951 C   0  0  0  0  0  0  0  0  0  0  0  0
    2.0796    0.9529   -0.3759 C   0  0  0  0  0  0  0  0  0  0  0  0
    1.9718   -1.4585    0.1619 C   0  0  0  0  0  0  0  0  0  0  0  0
   -2.7379   -1.4088    1.8814 C   0  0  0  0  0  0  0  0  0  0  0  0
    1.4045    2.0250    0.0707 C   0  0  0  0  0  0  0  0  0  0  0  0
    1.7657   -0.7000   -2.2507 C   0  0  0  0  0  0  0  0  0  0  0  0
    3.5933    0.9643   -0.3819 C   0  0  0  0  0  0  0  0  0  0  0  0
    3.5081   -1.5060    0.2162 C   0  0  0  0  0  0  0  0  0  0  0  0
    4.1357   -0.1464    0.5208 C   0  0  2  0  0  0  0  0  0  0  0  0
   -2.4401    1.2138    1.5190 H   0  0  0  0  0  0  0  0  0  0  0  0
   -0.2933    0.2200    1.3749 H   0  0  0  0  0  0  0  0  0  0  0  0
   -0.5118    0.2084   -1.6494 H   0  0  0  0  0  0  0  0  0  0  0  0
   -2.7336   -1.1136   -1.5858 H   0  0  0  0  0  0  0  0  0  0  0  0
   -2.8387   -2.5313   -0.5658 H   0  0  0  0  0  0  0  0  0  0  0  0
   -0.5558   -2.2052    0.2253 H   0  0  0  0  0  0  0  0  0  0  0  0
   -0.5976   -2.2448   -1.5294 H   0  0  0  0  0  0  0  0  0  0  0  0
   -2.4621    1.3788   -1.5138 H   0  0  0  0  0  0  0  0  0  0  0  0
   -2.9600    2.5710   -0.3149 H   0  0  0  0  0  0  0  0  0  0  0  0
   -4.8378    0.0287    1.2942 H   0  0  0  0  0  0  0  0  0  0  0  0
   -4.9838   -1.0941   -0.0598 H   0  0  0  0  0  0  0  0  0  0  0  0
   -0.2859    2.6253    1.1953 H   0  0  0  0  0  0  0  0  0  0  0  0
   -0.5206    2.5997   -0.5513 H   0  0  0  0  0  0  0  0  0  0  0  0
   -5.1034    1.6731   -0.2914 H   0  0  0  0  0  0  0  0  0  0  0  0
   -4.6019    0.6273   -1.6202 H   0  0  0  0  0  0  0  0  0  0  0  0
    1.6319   -2.4506   -0.1594 H   0  0  0  0  0  0  0  0  0  0  0  0
    1.5860   -1.3131    1.1790 H   0  0  0  0  0  0  0  0  0  0  0  0
   -1.6897   -1.6321    2.1009 H   0  0  0  0  0  0  0  0  0  0  0  0
   -3.1221   -0.8155    2.7190 H   0  0  0  0  0  0  0  0  0  0  0  0
   -3.2881   -2.3562    1.8699 H   0  0  0  0  0  0  0  0  0  0  0  0
    1.9440    2.9272    0.3476 H   0  0  0  0  0  0  0  0  0  0  0  0
    2.8426   -0.7980   -2.4155 H   0  0  0  0  0  0  0  0  0  0  0  0
    1.3156   -1.6471   -2.5655 H   0  0  0  0  0  0  0  0  0  0  0  0
    1.4103    0.0811   -2.9335 H   0  0  0  0  0  0  0  0  0  0  0  0
    3.9626    0.8398   -1.4053 H   0  0  0  0  0  0  0  0  0  0  0  0
    3.9740    1.9301   -0.0267 H   0  0  0  0  0  0  0  0  0  0  0  0
    3.8018   -2.2298    0.9863 H   0  0  0  0  0  0  0  0  0  0  0  0
    3.8972   -1.8821   -0.7368 H   0  0  0  0  0  0  0  0  0  0  0  0
    5.2233   -0.2113    0.4100 H   0  0  0  0  0  0  0  0  0  0  0  0
    2.9234    0.2709    2.0171 H   0  0  0  0  0  0  0  0  0  0  0  0
  1 20  1  0  0  0  0
  1 50  1  0  0  0  0
  2  3  1  0  0  0  0
  2  4  1  0  0  0  0
  2  9  1  0  0  0  0
  2 21  1  0  0  0  0
  3  7  1  0  0  0  0
  3 10  1  0  0  0  0
  3 15  1  0  0  0  0
  4  5  1  0  0  0  0
  4 11  1  0  0  0  0
  4 22  1  0  0  0  0
  5  6  1  0  0  0  0
  5  8  1  0  0  0  0
  5 23  1  0  0  0  0
  6 13  1  0  0  0  0
  6 14  1  0  0  0  0
  6 17  1  0  0  0  0
  7  8  1  0  0  0  0
  7 24  1  0  0  0  0
  7 25  1  0  0  0  0
  8 26  1  0  0  0  0
  8 27  1  0  0  0  0
  9 12  1  0  0  0  0
  9 28  1  0  0  0  0
  9 29  1  0  0  0  0
 10 12  1  0  0  0  0
 10 30  1  0  0  0  0
 10 31  1  0  0  0  0
 11 16  1  0  0  0  0
 11 32  1  0  0  0  0
 11 33  1  0  0  0  0
 12 34  1  0  0  0  0
 12 35  1  0  0  0  0
 13 16  2  0  0  0  0
 13 18  1  0  0  0  0
 14 19  1  0  0  0  0
 14 36  1  0  0  0  0
 14 37  1  0  0  0  0
 15 38  1  0  0  0  0
 15 39  1  0  0  0  0
 15 40  1  0  0  0  0
 16 41  1  0  0  0  0
 17 42  1  0  0  0  0
 17 43  1  0  0  0  0
 17 44  1  0  0  0  0
 18 20  1  0  0  0  0
 18 45  1  0  0  0  0
 18 46  1  0  0  0  0
 19 20  1  0  0  0  0
 19 47  1  0  0  0  0
 19 48  1  0  0  0  0
 20 49  1  0  0  0  0
M  END
> <PUBCHEM_COMPOUND_CID>
440136

> <PUBCHEM_CONFORMER_RMSD>
0.6

> <PUBCHEM_CONFORMER_DIVERSEORDER>
2
31
29
34
23
26
21
33
35
12
19
9
22
15
24
36
25
11
17
4
32
7
6
28
14
5
13
30
3
20
1
8
10
16
27
18

> <PUBCHEM_MMFF94_PARTIAL_CHARGES>
9
1 -0.68
11 0.14
13 -0.28
16 -0.29
18 0.14
20 0.28
41 0.15
50 0.4
6 0.14

> <PUBCHEM_EFFECTIVE_ROTOR_COUNT>
2

> <PUBCHEM_PHARMACOPHORE_FEATURES>
6
1 1 acceptor
1 1 donor
5 2 3 9 10 12 rings
6 2 3 4 5 7 8 rings
6 4 5 6 11 13 16 rings
6 6 13 14 18 19 20 rings

> <PUBCHEM_HEAVY_ATOM_COUNT>
20

> <PUBCHEM_ATOM_DEF_STEREO_COUNT>
1

> <PUBCHEM_ATOM_UDEF_STEREO_COUNT>
5

> <PUBCHEM_BOND_DEF_STEREO_COUNT>
0

> <PUBCHEM_BOND_UDEF_STEREO_COUNT>
0

> <PUBCHEM_ISOTOPIC_ATOM_COUNT>
0

> <PUBCHEM_COMPONENT_COUNT>
1

> <PUBCHEM_CACTVS_TAUTO_COUNT>
1

> <PUBCHEM_CONFORMER_ID>
0006B74800000002

> <PUBCHEM_MMFF94_ENERGY>
58.8933

> <PUBCHEM_FEATURE_SELFOVERLAP>
30.657

> <PUBCHEM_SHAPE_FINGERPRINT>
10366900 7 18200867362422921395
10759866 29 18200864098506324036
11132069 177 18041000622270009878
11370993 70 17846780719471240179
12011746 2 18260548961221687044
12077114 3 18410294713777858591
12251169 10 18334579023100536846
12382932 28 18113898238901911510
12403814 3 18413389822220607973
124424 183 18342178868867537229
12500047 106 17917994979653404379
12553582 1 18115010944537774385
12633257 1 18198602416125547019
12670546 56 17417820542923881493
128620 24 6050439314717769863
13132413 78 18410858741762965452
13140716 1 17970913262737905272
13224815 77 17530683190811040262
13296908 3 18336535092651094127
13583140 156 18200871777570082929
13675066 3 18342739615302366594
13760787 19 17704065175411241596
14115302 16 17560791143631933587
14223421 5 18270390573368352955
15196674 1 18409729564532130277
15238133 3 18129934697566047301
15309172 13 17603298254598381631
15375358 24 18259987097657640661
15653759 3 18273210868270534953
16945 1 17822559547504821261
17349148 13 17748831816963533653
17834072 14 18411985792451952929
1813 80 17274258487144693830
18186145 218 18115573967832200271
200 152 17894354371802597509
20645477 70 18260824869588628725
21033648 29 17895774987616865192
21267235 1 18410002256570038278
21501502 16 18190744120327164357
22854114 59 16660647362240200682
23402539 116 18261122893538535085
23419403 2 14888838516643028157
23463225 33 18409446973085657188
23503958 8 17060052597645267747
23557571 272 18337664334074466540
23559900 14 18340768273059400134
26918003 58 18131917061364891202
2748010 2 18116416232077433813
296302 2 17988922249757178284
3472631 163 14635133673534757803
34934 24 18335426755060664628
351380 180 18412549821053958877
474 4 15575008221337978264
4921388 177 16056588812577393241
4990 188 12319733687134090856
5104073 3 18341610399833921945
69090 78 18335424573507409247
81228 2 18048015656642575745
9709674 26 18342451552088780771

> <PUBCHEM_SHAPE_MULTIPOLES>
405.72
7.87
1.97
1.39
0.59
0.28
0.01
-0.23
-1.46
0.09
-0.04
-0.39
-0.42
0.48

> <PUBCHEM_SHAPE_SELFOVERLAP>
864.861

> <PUBCHEM_SHAPE_VOLUME>
224.3

> <PUBCHEM_COORDINATE_TYPE>
2
5
10

$$$$

