157454
  -OEChem-07051213072D

101105  0     1  0  0  0  0  0999 V2000
    7.3063   -2.6179    0.0000 S   0  0  0  0  0  0  0  0  0  0  0  0
    6.5644   -0.1272    0.0000 S   0  0  0  0  0  0  0  0  0  0  0  0
    9.4787    1.0874    0.0000 O   0  0  0  0  0  0  0  0  0  0  0  0
    4.0845   -1.6561    0.0000 O   0  0  0  0  0  0  0  0  0  0  0  0
   10.7112   -0.8583    0.0000 O   0  0  0  0  0  0  0  0  0  0  0  0
    2.2402    0.9422    0.0000 O   0  0  0  0  0  0  0  0  0  0  0  0
    6.2524    3.1564    0.0000 O   0  0  0  0  0  0  0  0  0  0  0  0
    4.4697   -1.0652    0.0000 O   0  0  0  0  0  0  0  0  0  0  0  0
    9.2250    0.4799    0.0000 N   0  0  0  0  0  0  0  0  0  0  0  0
    7.9466    2.7963    0.0000 N   0  0  0  0  0  0  0  0  0  0  0  0
    9.5523   -2.1455    0.0000 N   0  0  0  0  0  0  0  0  0  0  0  0
    5.0049   -2.7124    0.0000 N   0  0  0  0  0  0  0  0  0  0  0  0
    2.4664   -1.6561    0.0000 N   0  0  0  0  0  0  0  0  0  0  0  0
    3.9344    0.5821    0.0000 N   0  0  0  0  0  0  0  0  0  0  0  0
    6.9070   -2.0944    0.0000 N   0  0  0  0  0  0  0  0  0  0  0  0
    5.8365    1.2002    0.0000 N   0  0  0  0  0  0  0  0  0  0  0  0
    8.6897    2.1272    0.0000 C   0  0  1  0  0  0  0  0  0  0  0  0
    9.2915    2.9258    0.0000 C   0  0  2  0  0  0  0  0  0  0  0  0
    9.0170   -0.4982    0.0000 C   0  0  1  0  0  0  0  0  0  0  0  0
    9.7873    0.1376    0.0000 C   0  0  1  0  0  0  0  0  0  0  0  0
    8.4818    1.1490    0.0000 C   0  0  0  0  0  0  0  0  0  0  0  0
    4.0186   -2.9130    0.0000 C   0  0  1  0  0  0  0  0  0  0  0  0
    3.5093   -3.7736    0.0000 C   0  0  2  0  0  0  0  0  0  0  0  0
    8.9008    3.8463    0.0000 C   0  0  0  0  0  0  0  0  0  0  0  0
    8.6012   -2.4545    0.0000 C   0  0  2  0  0  0  0  0  0  0  0  0
   10.2841    2.8040    0.0000 C   0  0  0  0  0  0  0  0  0  0  0  0
    9.7602   -1.1674    0.0000 C   0  0  0  0  0  0  0  0  0  0  0  0
    8.9919   -3.3750    0.0000 C   0  0  0  0  0  0  0  0  0  0  0  0
    3.2755   -2.2439    0.0000 C   0  0  0  0  0  0  0  0  0  0  0  0
    2.5093   -3.7628    0.0000 C   0  0  0  0  0  0  0  0  0  0  0  0
    2.7755   -0.7051    0.0000 C   0  0  1  0  0  0  0  0  0  0  0  0
   10.7474   -0.1420    0.0000 C   0  0  0  0  0  0  0  0  0  0  0  0
    4.6776   -0.0870    0.0000 C   0  0  2  0  0  0  0  0  0  0  0  0
    5.2222   -0.9257    0.0000 C   0  0  0  0  0  0  0  0  0  0  0  0
    3.9999   -4.6450    0.0000 C   0  0  0  0  0  0  0  0  0  0  0  0
    3.7755   -0.7051    0.0000 C   0  0  0  0  0  0  0  0  0  0  0  0
    9.5026    4.6450    0.0000 C   0  0  0  0  0  0  0  0  0  0  0  0
    7.8581   -1.7854    0.0000 C   0  0  0  0  0  0  0  0  0  0  0  0
    2.9834    0.2731    0.0000 C   0  0  0  0  0  0  0  0  0  0  0  0
    6.9955    2.4873    0.0000 C   0  0  0  0  0  0  0  0  0  0  0  0
    5.6286    0.2220    0.0000 C   0  0  0  0  0  0  0  0  0  0  0  0
    9.9845   -3.4969    0.0000 C   0  0  0  0  0  0  0  0  0  0  0  0
    8.3902   -4.1737    0.0000 C   0  0  0  0  0  0  0  0  0  0  0  0
    2.0000   -4.6234    0.0000 C   0  0  0  0  0  0  0  0  0  0  0  0
    5.2128   -1.7343    0.0000 C   0  0  0  0  0  0  0  0  0  0  0  0
    6.7876    1.5092    0.0000 C   0  0  0  0  0  0  0  0  0  0  0  0
    6.1639   -1.4253    0.0000 C   0  0  0  0  0  0  0  0  0  0  0  0
    6.1966   -0.7007    0.0000 C   0  0  0  0  0  0  0  0  0  0  0  0
    4.6206   -1.7244    0.0000 C   0  0  0  0  0  0  0  0  0  0  0  0
    6.3293   -2.4102    0.0000 C   0  0  0  0  0  0  0  0  0  0  0  0
    7.2327    0.6151    0.0000 C   0  0  0  0  0  0  0  0  0  0  0  0
    9.5386    2.1717    0.0000 H   0  0  0  0  0  0  0  0  0  0  0  0
    9.6646    3.4210    0.0000 H   0  0  0  0  0  0  0  0  0  0  0  0
    8.2086   -0.7609    0.0000 H   0  0  0  0  0  0  0  0  0  0  0  0
   10.2189    0.5827    0.0000 H   0  0  0  0  0  0  0  0  0  0  0  0
    4.4357   -3.6536    0.0000 H   0  0  0  0  0  0  0  0  0  0  0  0
    3.1935   -4.3072    0.0000 H   0  0  0  0  0  0  0  0  0  0  0  0
    8.4780    4.2998    0.0000 H   0  0  0  0  0  0  0  0  0  0  0  0
    8.3808    3.5087    0.0000 H   0  0  0  0  0  0  0  0  0  0  0  0
    8.3197   -3.0069    0.0000 H   0  0  0  0  0  0  0  0  0  0  0  0
   10.2085    2.1886    0.0000 H   0  0  0  0  0  0  0  0  0  0  0  0
   10.8995    2.7284    0.0000 H   0  0  0  0  0  0  0  0  0  0  0  0
   10.3596    3.4193    0.0000 H   0  0  0  0  0  0  0  0  0  0  0  0
    8.0755    3.4028    0.0000 H   0  0  0  0  0  0  0  0  0  0  0  0
    8.3766   -3.2995    0.0000 H   0  0  0  0  0  0  0  0  0  0  0  0
    2.6236   -3.1534    0.0000 H   0  0  0  0  0  0  0  0  0  0  0  0
    1.9290   -3.5444    0.0000 H   0  0  0  0  0  0  0  0  0  0  0  0
    1.9544   -0.4851    0.0000 H   0  0  0  0  0  0  0  0  0  0  0  0
   10.0130   -2.5604    0.0000 H   0  0  0  0  0  0  0  0  0  0  0  0
   10.5741   -0.7372    0.0000 H   0  0  0  0  0  0  0  0  0  0  0  0
   11.3427   -0.3153    0.0000 H   0  0  0  0  0  0  0  0  0  0  0  0
   10.9207    0.4533    0.0000 H   0  0  0  0  0  0  0  0  0  0  0  0
    4.0584   -0.1195    0.0000 H   0  0  0  0  0  0  0  0  0  0  0  0
    5.5599   -1.4456    0.0000 H   0  0  0  0  0  0  0  0  0  0  0  0
    3.4596   -4.9492    0.0000 H   0  0  0  0  0  0  0  0  0  0  0  0
    4.3041   -5.1852    0.0000 H   0  0  0  0  0  0  0  0  0  0  0  0
    4.5401   -4.3408    0.0000 H   0  0  0  0  0  0  0  0  0  0  0  0
    4.3819   -0.5761    0.0000 H   0  0  0  0  0  0  0  0  0  0  0  0
    3.7106   -0.0884    0.0000 H   0  0  0  0  0  0  0  0  0  0  0  0
    5.4435   -3.1506    0.0000 H   0  0  0  0  0  0  0  0  0  0  0  0
    9.9978    4.2718    0.0000 H   0  0  0  0  0  0  0  0  0  0  0  0
    9.8757    5.1401    0.0000 H   0  0  0  0  0  0  0  0  0  0  0  0
    9.0075    5.0181    0.0000 H   0  0  0  0  0  0  0  0  0  0  0  0
    4.0633    1.1886    0.0000 H   0  0  0  0  0  0  0  0  0  0  0  0
    9.9089   -4.1123    0.0000 H   0  0  0  0  0  0  0  0  0  0  0  0
   10.5999   -3.5725    0.0000 H   0  0  0  0  0  0  0  0  0  0  0  0
   10.0600   -2.8815    0.0000 H   0  0  0  0  0  0  0  0  0  0  0  0
    7.8950   -3.8006    0.0000 H   0  0  0  0  0  0  0  0  0  0  0  0
    8.0171   -4.6688    0.0000 H   0  0  0  0  0  0  0  0  0  0  0  0
    8.8853   -4.5468    0.0000 H   0  0  0  0  0  0  0  0  0  0  0  0
    1.4664   -4.3076    0.0000 H   0  0  0  0  0  0  0  0  0  0  0  0
    1.6842   -5.1569    0.0000 H   0  0  0  0  0  0  0  0  0  0  0  0
    2.5336   -4.9391    0.0000 H   0  0  0  0  0  0  0  0  0  0  0  0
    6.3360   -1.3048    0.0000 H   0  0  0  0  0  0  0  0  0  0  0  0
    6.8007   -0.5613    0.0000 H   0  0  0  0  0  0  0  0  0  0  0  0
    6.0571   -0.0966    0.0000 H   0  0  0  0  0  0  0  0  0  0  0  0
    4.1254   -1.3513    0.0000 H   0  0  0  0  0  0  0  0  0  0  0  0
    4.2475   -2.2196    0.0000 H   0  0  0  0  0  0  0  0  0  0  0  0
    5.1158   -2.0974    0.0000 H   0  0  0  0  0  0  0  0  0  0  0  0
    5.8816   -2.8391    0.0000 H   0  0  0  0  0  0  0  0  0  0  0  0
    7.8470    0.5312    0.0000 H   0  0  0  0  0  0  0  0  0  0  0  0
  1 38  1  0  0  0  0
  1 50  1  0  0  0  0
  2 41  1  0  0  0  0
  2 51  1  0  0  0  0
  3 20  1  0  0  0  0
  3 21  1  0  0  0  0
  4 29  1  0  0  0  0
  4 36  1  0  0  0  0
  5 27  2  0  0  0  0
  6 39  2  0  0  0  0
  7 40  2  0  0  0  0
  8 45  2  0  0  0  0
  9 19  1  0  0  0  0
  9 21  2  0  0  0  0
 10 17  1  0  0  0  0
 10 40  1  0  0  0  0
 10 64  1  0  0  0  0
 11 25  1  0  0  0  0
 11 27  1  0  0  0  0
 11 69  1  0  0  0  0
 12 22  1  0  0  0  0
 12 45  1  0  0  0  0
 12 80  1  0  0  0  0
 13 29  2  0  0  0  0
 13 31  1  0  0  0  0
 14 33  1  0  0  0  0
 14 39  1  0  0  0  0
 14 84  1  0  0  0  0
 15 38  2  0  0  0  0
 15 47  1  0  0  0  0
 16 41  2  0  0  0  0
 16 46  1  0  0  0  0
 17 18  1  0  0  0  0
 17 21  1  0  0  0  0
 17 52  1  6  0  0  0
 18 24  1  0  0  0  0
 18 26  1  6  0  0  0
 18 53  1  0  0  0  0
 19 20  1  0  0  0  0
 19 27  1  0  0  0  0
 19 54  1  6  0  0  0
 20 32  1  6  0  0  0
 20 55  1  0  0  0  0
 22 23  1  0  0  0  0
 22 29  1  0  0  0  0
 22 56  1  6  0  0  0
 23 30  1  0  0  0  0
 23 35  1  1  0  0  0
 23 57  1  0  0  0  0
 24 37  1  0  0  0  0
 24 58  1  0  0  0  0
 24 59  1  0  0  0  0
 25 28  1  6  0  0  0
 25 38  1  0  0  0  0
 25 60  1  0  0  0  0
 26 61  1  0  0  0  0
 26 62  1  0  0  0  0
 26 63  1  0  0  0  0
 28 42  1  0  0  0  0
 28 43  1  0  0  0  0
 28 65  1  0  0  0  0
 30 44  1  0  0  0  0
 30 66  1  0  0  0  0
 30 67  1  0  0  0  0
 31 36  1  0  0  0  0
 31 39  1  0  0  0  0
 31 68  1  1  0  0  0
 32 70  1  0  0  0  0
 32 71  1  0  0  0  0
 32 72  1  0  0  0  0
 33 34  1  1  0  0  0
 33 41  1  0  0  0  0
 33 73  1  0  0  0  0
 34 48  1  0  0  0  0
 34 49  1  0  0  0  0
 34 74  1  0  0  0  0
 35 75  1  0  0  0  0
 35 76  1  0  0  0  0
 35 77  1  0  0  0  0
 36 78  1  0  0  0  0
 36 79  1  0  0  0  0
 37 81  1  0  0  0  0
 37 82  1  0  0  0  0
 37 83  1  0  0  0  0
 40 46  1  0  0  0  0
 42 85  1  0  0  0  0
 42 86  1  0  0  0  0
 42 87  1  0  0  0  0
 43 88  1  0  0  0  0
 43 89  1  0  0  0  0
 43 90  1  0  0  0  0
 44 91  1  0  0  0  0
 44 92  1  0  0  0  0
 44 93  1  0  0  0  0
 45 47  1  0  0  0  0
 46 51  2  0  0  0  0
 47 50  2  0  0  0  0
 48 94  1  0  0  0  0
 48 95  1  0  0  0  0
 48 96  1  0  0  0  0
 49 97  1  0  0  0  0
 49 98  1  0  0  0  0
 49 99  1  0  0  0  0
 50100  1  0  0  0  0
 51101  1  0  0  0  0
M  END
> <PUBCHEM_COMPOUND_CID>
157454

> <PUBCHEM_COMPOUND_CANONICALIZED>
1

> <PUBCHEM_CACTVS_COMPLEXITY>
1370

> <PUBCHEM_CACTVS_HBOND_ACCEPTOR>
12

> <PUBCHEM_CACTVS_HBOND_DONOR>
4

> <PUBCHEM_CACTVS_ROTATABLE_BOND>
6

> <PUBCHEM_CACTVS_SUBSKEYS>
AAADcfB/+ABgAAAAAAAAAAAAAAAAAWLECAAAAAAAAAAAAAAB4AAAHgQQAAAADTzl1gaigRLIFAisAQVyVACA8KBHCjgAAJW4JEACQBYggCAXAAgGNgCwAICAAAAKAAAAAAAAAAAAAAAAAAAAAAAAAAAAAA==

> <PUBCHEM_IUPAC_INCHI>
InChI=1S/C35H50N8O6S2/c1-10-17(7)25-32-36-20(12-48-32)28(44)39-23(15(3)4)34-37-22(14-50-34)30(46)42-26(18(8)11-2)33-43-27(19(9)49-33)31(47)40-24(16(5)6)35-38-21(13-51-35)29(45)41-25/h13-20,23-27H,10-12H2,1-9H3,(H,39,44)(H,40,47)(H,41,45)(H,42,46)/t17-,18-,19+,20-,23+,24+,25-,26-,27-/m0/s1

> <PUBCHEM_IUPAC_INCHIKEY>
ZGJIVWQOEHQWLW-SWTUTNCKSA-N

> <PUBCHEM_XLOGP3_AA>
5.3

> <PUBCHEM_EXACT_MASS>
742.329473

> <PUBCHEM_MOLECULAR_FORMULA>
C35H50N8O6S2

> <PUBCHEM_MOLECULAR_WEIGHT>
742.9515

> <PUBCHEM_OPENEYE_CAN_SMILES>
CCC(C)C1C2=NC(CO2)C(=O)NC(C3=NC(=CS3)C(=O)NC(C4=NC(C(O4)C)C(=O)NC(C5=NC(=CS5)C(=O)N1)C(C)C)C(C)CC)C(C)C

> <PUBCHEM_OPENEYE_ISO_SMILES>
CC[C@H](C)[C@H]1C2=N[C@@H](CO2)C(=O)N[C@@H](C3=NC(=CS3)C(=O)N[C@H](C4=N[C@@H]([C@H](O4)C)C(=O)N[C@@H](C5=NC(=CS5)C(=O)N1)C(C)C)[C@@H](C)CC)C(C)C

> <PUBCHEM_CACTVS_TPSA>
242

> <PUBCHEM_MONOISOTOPIC_WEIGHT>
742.329473

> <PUBCHEM_TOTAL_CHARGE>
0

> <PUBCHEM_HEAVY_ATOM_COUNT>
51

> <PUBCHEM_ATOM_DEF_STEREO_COUNT>
9

> <PUBCHEM_ATOM_UDEF_STEREO_COUNT>
0

> <PUBCHEM_BOND_DEF_STEREO_COUNT>
0

> <PUBCHEM_BOND_UDEF_STEREO_COUNT>
0

> <PUBCHEM_ISOTOPIC_ATOM_COUNT>
0

> <PUBCHEM_COMPONENT_COUNT>
1

> <PUBCHEM_CACTVS_TAUTO_COUNT>
16

> <PUBCHEM_COORDINATE_TYPE>
1
5
255

> <PUBCHEM_BONDANNOTATIONS>
1  38  8
1  50  8
15  38  8
15  47  8
16  41  8
16  46  8
17  52  6
18  26  6
19  54  6
2  41  8
2  51  8
20  32  6
22  56  6
23  35  5
25  28  6
31  68  5
33  34  5
46  51  8
47  50  8

$$$$

