164663
  -OEChem-07051212593D

 23 24  0     1  0  0  0  0  0999 V2000
    2.9360    0.8708   -0.5691 O   0  0  0  0  0  0  0  0  0  0  0  0
   -1.1911   -0.6024   -0.6124 N   0  0  2  0  0  0  0  0  0  0  0  0
   -0.0719    0.3813   -0.4963 C   0  0  1  0  0  0  0  0  0  0  0  0
   -0.6490    1.5982    0.2261 C   0  0  0  0  0  0  0  0  0  0  0  0
   -2.2729   -0.1171    0.2568 C   0  0  0  0  0  0  0  0  0  0  0  0
   -2.1504    1.3897    0.1511 C   0  0  0  0  0  0  0  0  0  0  0  0
    1.0338   -0.3341    0.2156 C   0  0  0  0  0  0  0  0  0  0  0  0
   -0.6484   -1.9017   -0.1590 C   0  0  0  0  0  0  0  0  0  0  0  0
    0.7046   -1.6154    0.4018 C   0  0  0  0  0  0  0  0  0  0  0  0
    2.3092    0.3305    0.5854 C   0  0  0  0  0  0  0  0  0  0  0  0
    0.2494    0.6572   -1.5080 H   0  0  0  0  0  0  0  0  0  0  0  0
   -0.3527    2.5386   -0.2495 H   0  0  0  0  0  0  0  0  0  0  0  0
   -0.3356    1.6360    1.2765 H   0  0  0  0  0  0  0  0  0  0  0  0
   -2.1349   -0.4184    1.3036 H   0  0  0  0  0  0  0  0  0  0  0  0
   -3.2492   -0.4740   -0.0841 H   0  0  0  0  0  0  0  0  0  0  0  0
   -2.6816    1.9120    0.9520 H   0  0  0  0  0  0  0  0  0  0  0  0
   -2.5384    1.7452   -0.8112 H   0  0  0  0  0  0  0  0  0  0  0  0
   -0.5524   -2.5717   -1.0204 H   0  0  0  0  0  0  0  0  0  0  0  0
   -1.2866   -2.3975    0.5807 H   0  0  0  0  0  0  0  0  0  0  0  0
    1.3351   -2.3584    0.8681 H   0  0  0  0  0  0  0  0  0  0  0  0
    3.0035   -0.3770    1.0510 H   0  0  0  0  0  0  0  0  0  0  0  0
    2.1248    1.1430    1.2953 H   0  0  0  0  0  0  0  0  0  0  0  0
    3.7566    1.3010   -0.2740 H   0  0  0  0  0  0  0  0  0  0  0  0
  1 10  1  0  0  0  0
  1 23  1  0  0  0  0
  2  3  1  0  0  0  0
  2  5  1  0  0  0  0
  2  8  1  0  0  0  0
  3  4  1  0  0  0  0
  3  7  1  0  0  0  0
  3 11  1  0  0  0  0
  4  6  1  0  0  0  0
  4 12  1  0  0  0  0
  4 13  1  0  0  0  0
  5  6  1  0  0  0  0
  5 14  1  0  0  0  0
  5 15  1  0  0  0  0
  6 16  1  0  0  0  0
  6 17  1  0  0  0  0
  7  9  2  0  0  0  0
  7 10  1  0  0  0  0
  8  9  1  0  0  0  0
  8 18  1  0  0  0  0
  8 19  1  0  0  0  0
  9 20  1  0  0  0  0
 10 21  1  0  0  0  0
 10 22  1  0  0  0  0
M  END
> <PUBCHEM_COMPOUND_CID>
164663

> <PUBCHEM_CONFORMER_RMSD>
0.4

> <PUBCHEM_CONFORMER_DIVERSEORDER>
1
4
2
6
3
5

> <PUBCHEM_MMFF94_PARTIAL_CHARGES>
10
1 -0.68
10 0.42
2 -0.81
20 0.15
23 0.4
3 0.41
5 0.27
7 -0.28
8 0.41
9 -0.29

> <PUBCHEM_EFFECTIVE_ROTOR_COUNT>
1.8

> <PUBCHEM_PHARMACOPHORE_FEATURES>
5
1 1 acceptor
1 1 donor
1 2 cation
5 2 3 4 5 6 rings
5 2 3 7 8 9 rings

> <PUBCHEM_HEAVY_ATOM_COUNT>
10

> <PUBCHEM_ATOM_DEF_STEREO_COUNT>
1

> <PUBCHEM_ATOM_UDEF_STEREO_COUNT>
0

> <PUBCHEM_BOND_DEF_STEREO_COUNT>
0

> <PUBCHEM_BOND_UDEF_STEREO_COUNT>
0

> <PUBCHEM_ISOTOPIC_ATOM_COUNT>
0

> <PUBCHEM_COMPONENT_COUNT>
1

> <PUBCHEM_CACTVS_TAUTO_COUNT>
1

> <PUBCHEM_CONFORMER_ID>
0002833700000001

> <PUBCHEM_MMFF94_ENERGY>
13.5669

> <PUBCHEM_FEATURE_SELFOVERLAP>
25.735

> <PUBCHEM_SHAPE_FINGERPRINT>
12423570 1 8356244863385139031
13024252 1 11959466564768336238
16945 1 18335709286456833835
18185500 45 18340216193245990935
20645464 45 17822306638788015824
20871998 184 18044087964837232646
21040471 1 18408891762536579234
23235685 24 18412266137847002857
23552423 10 18268432523595571407
241688 4 16030140476719357195
2748010 2 18266458883196506927
29004967 10 15841552993763139556
369184 2 18341059531649591392
5084963 1 17897455122856427699

> <PUBCHEM_SHAPE_MULTIPOLES>
194.94
3.22
1.85
0.75
1.02
0.46
0
-1.3
-0.09
-0.24
-0.04
0.1
-0.01
-0.25

> <PUBCHEM_SHAPE_SELFOVERLAP>
403.919

> <PUBCHEM_SHAPE_VOLUME>
115

> <PUBCHEM_COORDINATE_TYPE>
2
5
10

$$$$

