17396404
  -OEChem-06241222562D

 35 37  0     0  0  0  0  0  0999 V2000
    4.6783    1.6038    0.0000 S   0  0  0  0  0  0  0  0  0  0  0  0
    8.2619    0.7990    0.0000 O   0  0  0  0  0  0  0  0  0  0  0  0
    6.7619   -0.0670    0.0000 N   0  0  0  0  0  0  0  0  0  0  0  0
    4.6783   -0.0057    0.0000 N   0  0  0  0  0  0  0  0  0  0  0  0
    8.2619   -0.9330    0.0000 N   0  0  0  0  0  0  0  0  0  0  0  0
   10.7619   -0.0670    0.0000 N   0  0  0  0  0  0  0  0  0  0  0  0
    6.2619    0.7990    0.0000 C   0  0  0  0  0  0  0  0  0  0  0  0
    5.2619    0.7990    0.0000 C   0  0  0  0  0  0  0  0  0  0  0  0
    3.7320    1.2990    0.0000 C   0  0  0  0  0  0  0  0  0  0  0  0
    3.7320    0.2990    0.0000 C   0  0  0  0  0  0  0  0  0  0  0  0
    7.7619   -0.0670    0.0000 C   0  0  0  0  0  0  0  0  0  0  0  0
    6.2619   -0.9330    0.0000 C   0  0  0  0  0  0  0  0  0  0  0  0
    2.8660    1.7990    0.0000 C   0  0  0  0  0  0  0  0  0  0  0  0
    2.8660   -0.2010    0.0000 C   0  0  0  0  0  0  0  0  0  0  0  0
    2.0000    1.2990    0.0000 C   0  0  0  0  0  0  0  0  0  0  0  0
    2.0000    0.2990    0.0000 C   0  0  0  0  0  0  0  0  0  0  0  0
    9.2619   -0.9330    0.0000 C   0  0  0  0  0  0  0  0  0  0  0  0
    9.7619   -1.7990    0.0000 C   0  0  0  0  0  0  0  0  0  0  0  0
    9.7619   -0.0670    0.0000 C   0  0  0  0  0  0  0  0  0  0  0  0
   10.7619   -1.7990    0.0000 C   0  0  0  0  0  0  0  0  0  0  0  0
   11.2619   -0.9330    0.0000 C   0  0  0  0  0  0  0  0  0  0  0  0
    6.8445    1.0111    0.0000 H   0  0  0  0  0  0  0  0  0  0  0  0
    6.1542    1.4096    0.0000 H   0  0  0  0  0  0  0  0  0  0  0  0
    5.7249   -0.6230    0.0000 H   0  0  0  0  0  0  0  0  0  0  0  0
    5.9519   -1.4700    0.0000 H   0  0  0  0  0  0  0  0  0  0  0  0
    6.7988   -1.2430    0.0000 H   0  0  0  0  0  0  0  0  0  0  0  0
    2.8660    2.4190    0.0000 H   0  0  0  0  0  0  0  0  0  0  0  0
    2.8660   -0.8210    0.0000 H   0  0  0  0  0  0  0  0  0  0  0  0
    7.9519   -1.4700    0.0000 H   0  0  0  0  0  0  0  0  0  0  0  0
    1.4631    1.6090    0.0000 H   0  0  0  0  0  0  0  0  0  0  0  0
    1.4631   -0.0110    0.0000 H   0  0  0  0  0  0  0  0  0  0  0  0
    9.4519   -2.3360    0.0000 H   0  0  0  0  0  0  0  0  0  0  0  0
    9.4519    0.4699    0.0000 H   0  0  0  0  0  0  0  0  0  0  0  0
   11.0719   -2.3360    0.0000 H   0  0  0  0  0  0  0  0  0  0  0  0
   11.8819   -0.9330    0.0000 H   0  0  0  0  0  0  0  0  0  0  0  0
  1  8  1  0  0  0  0
  1  9  1  0  0  0  0
  2 11  2  0  0  0  0
  3  7  1  0  0  0  0
  3 11  1  0  0  0  0
  3 12  1  0  0  0  0
  4  8  2  0  0  0  0
  4 10  1  0  0  0  0
  5 11  1  0  0  0  0
  5 17  1  0  0  0  0
  5 29  1  0  0  0  0
  6 19  1  0  0  0  0
  6 21  2  0  0  0  0
  7  8  1  0  0  0  0
  7 22  1  0  0  0  0
  7 23  1  0  0  0  0
  9 10  1  0  0  0  0
  9 13  2  0  0  0  0
 10 14  2  0  0  0  0
 12 24  1  0  0  0  0
 12 25  1  0  0  0  0
 12 26  1  0  0  0  0
 13 15  1  0  0  0  0
 13 27  1  0  0  0  0
 14 16  1  0  0  0  0
 14 28  1  0  0  0  0
 15 16  2  0  0  0  0
 15 30  1  0  0  0  0
 16 31  1  0  0  0  0
 17 18  1  0  0  0  0
 17 19  2  0  0  0  0
 18 20  2  0  0  0  0
 18 32  1  0  0  0  0
 19 33  1  0  0  0  0
 20 21  1  0  0  0  0
 20 34  1  0  0  0  0
 21 35  1  0  0  0  0
M  END
> <PUBCHEM_COMPOUND_CID>
17396404

> <PUBCHEM_COMPOUND_CANONICALIZED>
1

> <PUBCHEM_CACTVS_COMPLEXITY>
368

> <PUBCHEM_CACTVS_HBOND_ACCEPTOR>
4

> <PUBCHEM_CACTVS_HBOND_DONOR>
1

> <PUBCHEM_CACTVS_ROTATABLE_BOND>
3

> <PUBCHEM_CACTVS_SUBSKEYS>
AAADccBzoABAAAAAAAAAAAAAAAAAAWAAAAA8QAAAAAAAAFgB/AAAHgQQAAAACAjBVgQ/wbPIEAisATRnVACD8KBxGjhI2Dw4dJiIYOLgkZGUIAholgLoyCcQAAAAAAAAAAAAAQAAAAAAAAACAAAAAAAAAA==

> <PUBCHEM_IUPAC_OPENEYE_NAME>
1-(1,3-benzothiazol-2-ylmethyl)-1-methyl-3-(3-pyridyl)urea

> <PUBCHEM_IUPAC_CAS_NAME>
1-(1,3-benzothiazol-2-ylmethyl)-1-methyl-3-(3-pyridinyl)urea

> <PUBCHEM_IUPAC_NAME>
1-(1,3-benzothiazol-2-ylmethyl)-1-methyl-3-pyridin-3-ylurea

> <PUBCHEM_IUPAC_SYSTEMATIC_NAME>
1-(1,3-benzothiazol-2-ylmethyl)-1-methyl-3-pyridin-3-yl-urea

> <PUBCHEM_IUPAC_TRADITIONAL_NAME>
1-(1,3-benzothiazol-2-ylmethyl)-1-methyl-3-(3-pyridyl)urea

> <PUBCHEM_IUPAC_INCHI>
InChI=1S/C15H14N4OS/c1-19(15(20)17-11-5-4-8-16-9-11)10-14-18-12-6-2-3-7-13(12)21-14/h2-9H,10H2,1H3,(H,17,20)

> <PUBCHEM_IUPAC_INCHIKEY>
FYBHNYNKOUCPRF-UHFFFAOYSA-N

> <PUBCHEM_XLOGP3_AA>
2

> <PUBCHEM_EXACT_MASS>
298.088832

> <PUBCHEM_MOLECULAR_FORMULA>
C15H14N4OS

> <PUBCHEM_MOLECULAR_WEIGHT>
298.36286

> <PUBCHEM_OPENEYE_CAN_SMILES>
CN(CC1=NC2=CC=CC=C2S1)C(=O)NC3=CN=CC=C3

> <PUBCHEM_OPENEYE_ISO_SMILES>
CN(CC1=NC2=CC=CC=C2S1)C(=O)NC3=CN=CC=C3

> <PUBCHEM_CACTVS_TPSA>
86.4

> <PUBCHEM_MONOISOTOPIC_WEIGHT>
298.088832

> <PUBCHEM_TOTAL_CHARGE>
0

> <PUBCHEM_HEAVY_ATOM_COUNT>
21

> <PUBCHEM_ATOM_DEF_STEREO_COUNT>
0

> <PUBCHEM_ATOM_UDEF_STEREO_COUNT>
0

> <PUBCHEM_BOND_DEF_STEREO_COUNT>
0

> <PUBCHEM_BOND_UDEF_STEREO_COUNT>
0

> <PUBCHEM_ISOTOPIC_ATOM_COUNT>
0

> <PUBCHEM_COMPONENT_COUNT>
1

> <PUBCHEM_CACTVS_TAUTO_COUNT>
2

> <PUBCHEM_COORDINATE_TYPE>
1
5
255

> <PUBCHEM_BONDANNOTATIONS>
1  8  8
1  9  8
10  14  8
13  15  8
14  16  8
15  16  8
17  18  8
17  19  8
18  20  8
20  21  8
4  10  8
4  8  8
6  19  8
6  21  8
9  10  8
9  13  8

$$$$

