163893
  -OEChem-07051213132D

 39 41  0     1  0  0  0  0  0999 V2000
    3.4403   -0.7491    0.0000 Cl  0  0  0  0  0  0  0  0  0  0  0  0
    5.1724   -3.7492    0.0000 Cl  0  0  0  0  0  0  0  0  0  0  0  0
    9.5424    3.1071    0.0000 F   0  0  0  0  0  0  0  0  0  0  0  0
    8.2824    3.7492    0.0000 F   0  0  0  0  0  0  0  0  0  0  0  0
    8.9004    1.8470    0.0000 F   0  0  0  0  0  0  0  0  0  0  0  0
    6.1724    0.2509    0.0000 O   0  0  0  0  0  0  0  0  0  0  0  0
    7.4324    1.5109    0.0000 O   0  0  0  0  0  0  0  0  0  0  0  0
    3.4782    0.6110    0.0000 N   0  0  0  0  0  0  0  0  0  0  0  0
    3.5827    1.6055    0.0000 N   0  0  0  0  0  0  0  0  0  0  0  0
    2.0000    1.2691    0.0000 N   0  0  0  0  0  0  0  0  0  0  0  0
    5.1724    0.2509    0.0000 C   0  0  1  0  0  0  0  0  0  0  0  0
    4.8633    1.2019    0.0000 C   0  0  0  0  0  0  0  0  0  0  0  0
    5.6724    1.7897    0.0000 C   0  0  0  0  0  0  0  0  0  0  0  0
    6.4814    1.2019    0.0000 C   0  0  1  0  0  0  0  0  0  0  0  0
    4.2213   -0.0582    0.0000 C   0  0  0  0  0  0  0  0  0  0  0  0
    5.1724   -0.7491    0.0000 C   0  0  0  0  0  0  0  0  0  0  0  0
    4.3063   -1.2492    0.0000 C   0  0  0  0  0  0  0  0  0  0  0  0
    6.0384   -1.2492    0.0000 C   0  0  0  0  0  0  0  0  0  0  0  0
    7.6403    2.4891    0.0000 C   0  0  0  0  0  0  0  0  0  0  0  0
    4.3063   -2.2492    0.0000 C   0  0  0  0  0  0  0  0  0  0  0  0
    6.0384   -2.2492    0.0000 C   0  0  0  0  0  0  0  0  0  0  0  0
    2.5000    0.4031    0.0000 C   0  0  0  0  0  0  0  0  0  0  0  0
    5.1724   -2.7492    0.0000 C   0  0  0  0  0  0  0  0  0  0  0  0
    8.5914    2.7981    0.0000 C   0  0  0  0  0  0  0  0  0  0  0  0
    2.6691    2.0122    0.0000 C   0  0  0  0  0  0  0  0  0  0  0  0
    4.5533    1.7388    0.0000 H   0  0  0  0  0  0  0  0  0  0  0  0
    4.2969    0.9497    0.0000 H   0  0  0  0  0  0  0  0  0  0  0  0
    6.0872    2.2504    0.0000 H   0  0  0  0  0  0  0  0  0  0  0  0
    5.2575    2.2504    0.0000 H   0  0  0  0  0  0  0  0  0  0  0  0
    6.5784    1.8143    0.0000 H   0  0  0  0  0  0  0  0  0  0  0  0
    3.7327   -0.4399    0.0000 H   0  0  0  0  0  0  0  0  0  0  0  0
    4.5124   -0.6056    0.0000 H   0  0  0  0  0  0  0  0  0  0  0  0
    6.5753   -0.9391    0.0000 H   0  0  0  0  0  0  0  0  0  0  0  0
    7.5540    3.1030    0.0000 H   0  0  0  0  0  0  0  0  0  0  0  0
    7.0207    2.5107    0.0000 H   0  0  0  0  0  0  0  0  0  0  0  0
    3.7694   -2.5591    0.0000 H   0  0  0  0  0  0  0  0  0  0  0  0
    6.5753   -2.5591    0.0000 H   0  0  0  0  0  0  0  0  0  0  0  0
    2.2478   -0.1633    0.0000 H   0  0  0  0  0  0  0  0  0  0  0  0
    2.5402    2.6187    0.0000 H   0  0  0  0  0  0  0  0  0  0  0  0
  1 17  1  0  0  0  0
  2 23  1  0  0  0  0
  3 24  1  0  0  0  0
  4 24  1  0  0  0  0
  5 24  1  0  0  0  0
  6 11  1  0  0  0  0
  6 14  1  0  0  0  0
 14  7  1  6  0  0  0
  7 19  1  0  0  0  0
  8  9  1  0  0  0  0
  8 15  1  0  0  0  0
  8 22  1  0  0  0  0
  9 25  2  0  0  0  0
 10 22  2  0  0  0  0
 10 25  1  0  0  0  0
 11 12  1  0  0  0  0
 11 15  1  6  0  0  0
 11 16  1  0  0  0  0
 12 13  1  0  0  0  0
 12 26  1  0  0  0  0
 12 27  1  0  0  0  0
 13 14  1  0  0  0  0
 13 28  1  0  0  0  0
 13 29  1  0  0  0  0
 14 30  1  0  0  0  0
 15 31  1  0  0  0  0
 15 32  1  0  0  0  0
 16 17  2  0  0  0  0
 16 18  1  0  0  0  0
 17 20  1  0  0  0  0
 18 21  2  0  0  0  0
 18 33  1  0  0  0  0
 19 24  1  0  0  0  0
 19 34  1  0  0  0  0
 19 35  1  0  0  0  0
 20 23  2  0  0  0  0
 20 36  1  0  0  0  0
 21 23  1  0  0  0  0
 21 37  1  0  0  0  0
 22 38  1  0  0  0  0
 25 39  1  0  0  0  0
M  END
> <PUBCHEM_COMPOUND_CID>
163893

> <PUBCHEM_COMPOUND_CANONICALIZED>
1

> <PUBCHEM_CACTVS_COMPLEXITY>
460

> <PUBCHEM_CACTVS_HBOND_ACCEPTOR>
7

> <PUBCHEM_CACTVS_HBOND_DONOR>
0

> <PUBCHEM_CACTVS_ROTATABLE_BOND>
5

> <PUBCHEM_CACTVS_SUBSKEYS>
AAADccBzMYAGAAAAAAAAAAAAAAAAAWJAAAAwAAAAAAAAAAABwAAAHwIIAAAADEbxmDc1GIYIFACiAiBDJAASAAswhYAdyAAICoiaLiKBuxmnMAAswAMcqAfQ0PIOhAAAAACBAAAIAAAAAQIAAAAAAAAAAA==

> <PUBCHEM_IUPAC_OPENEYE_NAME>
1-[[(2R,5R)-2-(2,4-dichlorophenyl)-5-(2,2,2-trifluoroethoxy)tetrahydrofuran-2-yl]methyl]-1,2,4-triazole

> <PUBCHEM_IUPAC_CAS_NAME>
1-[[(2R,5R)-2-(2,4-dichlorophenyl)-5-(2,2,2-trifluoroethoxy)-2-oxolanyl]methyl]-1,2,4-triazole

> <PUBCHEM_IUPAC_NAME>
1-[[(2R,5R)-2-(2,4-dichlorophenyl)-5-(2,2,2-trifluoroethoxy)oxolan-2-yl]methyl]-1,2,4-triazole

> <PUBCHEM_IUPAC_SYSTEMATIC_NAME>
1-[[(2R,5R)-2-(2,4-dichlorophenyl)-5-[2,2,2-tris(fluoranyl)ethoxy]oxolan-2-yl]methyl]-1,2,4-triazole

> <PUBCHEM_IUPAC_TRADITIONAL_NAME>
1-[[(2R,5R)-2-(2,4-dichlorophenyl)-5-(2,2,2-trifluoroethoxy)tetrahydrofuran-2-yl]methyl]-1,2,4-triazole

> <PUBCHEM_IUPAC_INCHI>
InChI=1S/C15H14Cl2F3N3O2/c16-10-1-2-11(12(17)5-10)14(6-23-9-21-8-22-23)4-3-13(25-14)24-7-15(18,19)20/h1-2,5,8-9,13H,3-4,6-7H2/t13-,14+/m1/s1

> <PUBCHEM_IUPAC_INCHIKEY>
ULCWZQJLFZEXCS-KGLIPLIRSA-N

> <PUBCHEM_XLOGP3>
4.2

> <PUBCHEM_EXACT_MASS>
395.041517

> <PUBCHEM_MOLECULAR_FORMULA>
C15H14Cl2F3N3O2

> <PUBCHEM_MOLECULAR_WEIGHT>
396.19177

> <PUBCHEM_OPENEYE_CAN_SMILES>
C1CC(OC1OCC(F)(F)F)(CN2C=NC=N2)C3=C(C=C(C=C3)Cl)Cl

> <PUBCHEM_OPENEYE_ISO_SMILES>
C1C[C@](O[C@H]1OCC(F)(F)F)(CN2C=NC=N2)C3=C(C=C(C=C3)Cl)Cl

> <PUBCHEM_CACTVS_TPSA>
49.2

> <PUBCHEM_MONOISOTOPIC_WEIGHT>
395.041517

> <PUBCHEM_TOTAL_CHARGE>
0

> <PUBCHEM_HEAVY_ATOM_COUNT>
25

> <PUBCHEM_ATOM_DEF_STEREO_COUNT>
2

> <PUBCHEM_ATOM_UDEF_STEREO_COUNT>
0

> <PUBCHEM_BOND_DEF_STEREO_COUNT>
0

> <PUBCHEM_BOND_UDEF_STEREO_COUNT>
0

> <PUBCHEM_ISOTOPIC_ATOM_COUNT>
0

> <PUBCHEM_COMPONENT_COUNT>
1

> <PUBCHEM_CACTVS_TAUTO_COUNT>
1

> <PUBCHEM_COORDINATE_TYPE>
1
5
255

> <PUBCHEM_BONDANNOTATIONS>
10  22  8
10  25  8
11  15  6
16  17  8
16  18  8
17  20  8
18  21  8
20  23  8
21  23  8
14  7  6
8  22  8
8  9  8
9  25  8

$$$$

