13934
  -OEChem-06241222412D

 43 44  0     0  0  0  0  0  0999 V2000
    4.6760    0.0670    0.0000 O   0  0  0  0  0  0  0  0  0  0  0  0
    2.9440    0.0670    0.0000 O   0  0  0  0  0  0  0  0  0  0  0  0
    2.3100    2.4330    0.0000 O   0  0  0  0  0  0  0  0  0  0  0  0
    5.3100    2.4330    0.0000 N   0  3  0  0  0  0  0  0  0  0  0  0
    3.8100    1.5670    0.0000 C   0  0  0  0  0  0  0  0  0  0  0  0
    4.3100    2.4330    0.0000 C   0  0  0  0  0  0  0  0  0  0  0  0
    4.6760    1.0670    0.0000 C   0  0  0  0  0  0  0  0  0  0  0  0
    2.9440    1.0670    0.0000 C   0  0  0  0  0  0  0  0  0  0  0  0
    3.3100    2.4330    0.0000 C   0  0  0  0  0  0  0  0  0  0  0  0
    6.3100    2.4330    0.0000 C   0  0  0  0  0  0  0  0  0  0  0  0
    5.3100    3.4330    0.0000 C   0  0  0  0  0  0  0  0  0  0  0  0
    5.3100    1.4330    0.0000 C   0  0  0  0  0  0  0  0  0  0  0  0
    3.8100   -0.4330    0.0000 C   0  0  0  0  0  0  0  0  0  0  0  0
    3.8100   -1.4330    0.0000 C   0  0  0  0  0  0  0  0  0  0  0  0
    2.9440   -1.9330    0.0000 C   0  0  0  0  0  0  0  0  0  0  0  0
    4.6760   -1.9330    0.0000 C   0  0  0  0  0  0  0  0  0  0  0  0
    2.9440   -2.9330    0.0000 C   0  0  0  0  0  0  0  0  0  0  0  0
    4.6760   -2.9330    0.0000 C   0  0  0  0  0  0  0  0  0  0  0  0
    3.8100   -3.4330    0.0000 C   0  0  0  0  0  0  0  0  0  0  0  0
    4.4177    3.0436    0.0000 H   0  0  0  0  0  0  0  0  0  0  0  0
    3.7274    2.6451    0.0000 H   0  0  0  0  0  0  0  0  0  0  0  0
    5.2866    0.9593    0.0000 H   0  0  0  0  0  0  0  0  0  0  0  0
    4.8881    1.6496    0.0000 H   0  0  0  0  0  0  0  0  0  0  0  0
    2.7319    1.6496    0.0000 H   0  0  0  0  0  0  0  0  0  0  0  0
    2.3334    0.9593    0.0000 H   0  0  0  0  0  0  0  0  0  0  0  0
    3.8926    2.6451    0.0000 H   0  0  0  0  0  0  0  0  0  0  0  0
    3.2023    3.0436    0.0000 H   0  0  0  0  0  0  0  0  0  0  0  0
    4.6900    1.4330    0.0000 H   0  0  0  0  0  0  0  0  0  0  0  0
    5.3100    0.8130    0.0000 H   0  0  0  0  0  0  0  0  0  0  0  0
    5.9300    1.4330    0.0000 H   0  0  0  0  0  0  0  0  0  0  0  0
    5.9300    3.4330    0.0000 H   0  0  0  0  0  0  0  0  0  0  0  0
    5.3100    4.0530    0.0000 H   0  0  0  0  0  0  0  0  0  0  0  0
    4.6900    3.4330    0.0000 H   0  0  0  0  0  0  0  0  0  0  0  0
    6.3100    1.8130    0.0000 H   0  0  0  0  0  0  0  0  0  0  0  0
    6.9300    2.4330    0.0000 H   0  0  0  0  0  0  0  0  0  0  0  0
    6.3100    3.0530    0.0000 H   0  0  0  0  0  0  0  0  0  0  0  0
    4.3469   -0.7430    0.0000 H   0  0  0  0  0  0  0  0  0  0  0  0
    2.0000    2.9700    0.0000 H   0  0  0  0  0  0  0  0  0  0  0  0
    2.4070   -1.6230    0.0000 H   0  0  0  0  0  0  0  0  0  0  0  0
    5.2130   -1.6230    0.0000 H   0  0  0  0  0  0  0  0  0  0  0  0
    2.4070   -3.2430    0.0000 H   0  0  0  0  0  0  0  0  0  0  0  0
    5.2130   -3.2430    0.0000 H   0  0  0  0  0  0  0  0  0  0  0  0
    3.8100   -4.0530    0.0000 H   0  0  0  0  0  0  0  0  0  0  0  0
  1  7  1  0  0  0  0
  1 13  1  0  0  0  0
  2  8  1  0  0  0  0
  2 13  1  0  0  0  0
  3  9  1  0  0  0  0
  3 38  1  0  0  0  0
  4  6  1  0  0  0  0
  4 10  1  0  0  0  0
  4 11  1  0  0  0  0
  4 12  1  0  0  0  0
  5  6  1  0  0  0  0
  5  7  1  0  0  0  0
  5  8  1  0  0  0  0
  5  9  1  0  0  0  0
  6 20  1  0  0  0  0
  6 21  1  0  0  0  0
  7 22  1  0  0  0  0
  7 23  1  0  0  0  0
  8 24  1  0  0  0  0
  8 25  1  0  0  0  0
  9 26  1  0  0  0  0
  9 27  1  0  0  0  0
 10 34  1  0  0  0  0
 10 35  1  0  0  0  0
 10 36  1  0  0  0  0
 11 31  1  0  0  0  0
 11 32  1  0  0  0  0
 11 33  1  0  0  0  0
 12 28  1  0  0  0  0
 12 29  1  0  0  0  0
 12 30  1  0  0  0  0
 13 14  1  0  0  0  0
 13 37  1  0  0  0  0
 14 15  2  0  0  0  0
 14 16  1  0  0  0  0
 15 17  1  0  0  0  0
 15 39  1  0  0  0  0
 16 18  2  0  0  0  0
 16 40  1  0  0  0  0
 17 19  2  0  0  0  0
 17 41  1  0  0  0  0
 18 19  1  0  0  0  0
 18 42  1  0  0  0  0
 19 43  1  0  0  0  0
M  CHG  1   4   1
M  END
> <PUBCHEM_COMPOUND_CID>
13934

> <PUBCHEM_COMPOUND_CANONICALIZED>
1

> <PUBCHEM_CACTVS_COMPLEXITY>
274

> <PUBCHEM_CACTVS_HBOND_ACCEPTOR>
3

> <PUBCHEM_CACTVS_HBOND_DONOR>
1

> <PUBCHEM_CACTVS_ROTATABLE_BOND>
4

> <PUBCHEM_CACTVS_SUBSKEYS>
AAADceByMAAAAAAAAAAAAAAAAAAAAAAAAAA0QAAAAAAAAAABAAAAHgAACAAADgDxmAcyCIMABgCAAiBCAAACAAAgAAAIiAAICIgYNiKAMRimcAAnwAEMqAeAwCAOAAAAAAAAAAAAAAAAAAAAAAAAAAAAAA==

> <PUBCHEM_IUPAC_OPENEYE_NAME>
[5-(hydroxymethyl)-2-phenyl-1,3-dioxan-5-yl]methyl-trimethyl-ammonium

> <PUBCHEM_IUPAC_CAS_NAME>
[5-(hydroxymethyl)-2-phenyl-1,3-dioxan-5-yl]methyl-trimethylammonium

> <PUBCHEM_IUPAC_NAME>
[5-(hydroxymethyl)-2-phenyl-1,3-dioxan-5-yl]methyl-trimethylazanium

> <PUBCHEM_IUPAC_SYSTEMATIC_NAME>
[5-(hydroxymethyl)-2-phenyl-1,3-dioxan-5-yl]methyl-trimethyl-azanium

> <PUBCHEM_IUPAC_TRADITIONAL_NAME>
trimethyl-[(5-methylol-2-phenyl-1,3-dioxan-5-yl)methyl]ammonium

> <PUBCHEM_IUPAC_INCHI>
InChI=1S/C15H24NO3/c1-16(2,3)9-15(10-17)11-18-14(19-12-15)13-7-5-4-6-8-13/h4-8,14,17H,9-12H2,1-3H3/q+1

> <PUBCHEM_IUPAC_INCHIKEY>
KNKUCWKUJVVFEO-UHFFFAOYSA-N

> <PUBCHEM_XLOGP3_AA>
0.8

> <PUBCHEM_EXACT_MASS>
266.175619

> <PUBCHEM_MOLECULAR_FORMULA>
C15H24NO3+

> <PUBCHEM_MOLECULAR_WEIGHT>
266.35596

> <PUBCHEM_OPENEYE_CAN_SMILES>
C[N+](C)(C)CC1(COC(OC1)C2=CC=CC=C2)CO

> <PUBCHEM_OPENEYE_ISO_SMILES>
C[N+](C)(C)CC1(COC(OC1)C2=CC=CC=C2)CO

> <PUBCHEM_CACTVS_TPSA>
38.7

> <PUBCHEM_MONOISOTOPIC_WEIGHT>
266.175619

> <PUBCHEM_TOTAL_CHARGE>
1

> <PUBCHEM_HEAVY_ATOM_COUNT>
19

> <PUBCHEM_ATOM_DEF_STEREO_COUNT>
0

> <PUBCHEM_ATOM_UDEF_STEREO_COUNT>
0

> <PUBCHEM_BOND_DEF_STEREO_COUNT>
0

> <PUBCHEM_BOND_UDEF_STEREO_COUNT>
0

> <PUBCHEM_ISOTOPIC_ATOM_COUNT>
0

> <PUBCHEM_COMPONENT_COUNT>
1

> <PUBCHEM_CACTVS_TAUTO_COUNT>
1

> <PUBCHEM_COORDINATE_TYPE>
1
5
255

> <PUBCHEM_BONDANNOTATIONS>
14  15  8
14  16  8
15  17  8
16  18  8
17  19  8
18  19  8

$$$$

