440315
  -OEChem-07051212493D

 37 39  0     1  0  0  0  0  0999 V2000
    4.5967    1.2958    0.0983 P   0  0  0  0  0  0  0  0  0  0  0  0
    0.8618   -0.6586    1.0254 O   0  0  0  0  0  0  0  0  0  0  0  0
   -1.0895   -2.5822   -1.3012 O   0  0  0  0  0  0  0  0  0  0  0  0
    0.7684   -3.6370    0.3784 O   0  0  0  0  0  0  0  0  0  0  0  0
    3.4863    0.2547    0.6505 O   0  0  0  0  0  0  0  0  0  0  0  0
    3.8570    2.0234   -1.1422 O   0  0  0  0  0  0  0  0  0  0  0  0
    5.6713    0.3281   -0.6253 O   0  0  0  0  0  0  0  0  0  0  0  0
    5.1706    2.2184    1.1335 O   0  0  0  0  0  0  0  0  0  0  0  0
   -1.1283    0.2639    0.1205 N   0  0  0  0  0  0  0  0  0  0  0  0
   -1.4704    2.4175   -0.3553 N   0  0  0  0  0  0  0  0  0  0  0  0
   -3.8989    2.3456   -0.2672 N   0  0  0  0  0  0  0  0  0  0  0  0
   -4.8028    0.1411    0.2568 N   0  0  0  0  0  0  0  0  0  0  0  0
   -3.4033   -1.7583    0.6440 N   0  0  0  0  0  0  0  0  0  0  0  0
   -0.0291   -1.7494   -0.8786 C   0  0  2  0  0  0  0  0  0  0  0  0
    1.1873   -2.5262   -0.4145 C   0  0  1  0  0  0  0  0  0  0  0  0
   -0.3866   -0.9686    0.3768 C   0  0  1  0  0  0  0  0  0  0  0  0
    1.8932   -1.5174    0.4860 C   0  0  1  0  0  0  0  0  0  0  0  0
    2.8952   -0.6513   -0.2644 C   0  0  0  0  0  0  0  0  0  0  0  0
   -2.4850    0.4364    0.1216 C   0  0  0  0  0  0  0  0  0  0  0  0
   -0.5652    1.4804   -0.1705 C   0  0  0  0  0  0  0  0  0  0  0  0
   -2.6714    1.7796   -0.1760 C   0  0  0  0  0  0  0  0  0  0  0  0
   -3.5649   -0.3959    0.3414 C   0  0  0  0  0  0  0  0  0  0  0  0
   -4.8923    1.4600   -0.0381 C   0  0  0  0  0  0  0  0  0  0  0  0
    0.2382   -1.0770   -1.7019 H   0  0  0  0  0  0  0  0  0  0  0  0
    1.7959   -2.9124   -1.2370 H   0  0  0  0  0  0  0  0  0  0  0  0
   -0.9367   -1.5485    1.1174 H   0  0  0  0  0  0  0  0  0  0  0  0
    2.3824   -1.9949    1.3425 H   0  0  0  0  0  0  0  0  0  0  0  0
    2.3979   -0.0765   -1.0517 H   0  0  0  0  0  0  0  0  0  0  0  0
    3.6717   -1.2774   -0.7143 H   0  0  0  0  0  0  0  0  0  0  0  0
   -1.1754   -3.3084   -0.6604 H   0  0  0  0  0  0  0  0  0  0  0  0
    1.5708   -4.0843    0.6973 H   0  0  0  0  0  0  0  0  0  0  0  0
    0.5040    1.6271   -0.2408 H   0  0  0  0  0  0  0  0  0  0  0  0
   -4.2428   -2.3042    0.7921 H   0  0  0  0  0  0  0  0  0  0  0  0
   -2.5369   -2.2493    0.5126 H   0  0  0  0  0  0  0  0  0  0  0  0
   -5.8995    1.8581   -0.0981 H   0  0  0  0  0  0  0  0  0  0  0  0
    4.3150    2.7582   -1.6030 H   0  0  0  0  0  0  0  0  0  0  0  0
    6.5035    0.7166   -0.9696 H   0  0  0  0  0  0  0  0  0  0  0  0
  1  5  1  0  0  0  0
  1  6  1  0  0  0  0
  1  7  1  0  0  0  0
  1  8  2  0  0  0  0
  2 16  1  0  0  0  0
  2 17  1  0  0  0  0
  3 14  1  0  0  0  0
  3 30  1  0  0  0  0
  4 15  1  0  0  0  0
  4 31  1  0  0  0  0
  5 18  1  0  0  0  0
  6 36  1  0  0  0  0
  7 37  1  0  0  0  0
  9 16  1  0  0  0  0
  9 19  1  0  0  0  0
  9 20  1  0  0  0  0
 10 20  2  0  0  0  0
 10 21  1  0  0  0  0
 11 21  2  0  0  0  0
 11 23  1  0  0  0  0
 12 22  1  0  0  0  0
 12 23  2  0  0  0  0
 13 22  1  0  0  0  0
 13 33  1  0  0  0  0
 13 34  1  0  0  0  0
 14 15  1  0  0  0  0
 14 16  1  0  0  0  0
 14 24  1  0  0  0  0
 15 17  1  0  0  0  0
 15 25  1  0  0  0  0
 16 26  1  0  0  0  0
 17 18  1  0  0  0  0
 17 27  1  0  0  0  0
 18 28  1  0  0  0  0
 18 29  1  0  0  0  0
 19 21  1  0  0  0  0
 19 22  2  0  0  0  0
 20 32  1  0  0  0  0
 23 35  1  0  0  0  0
M  END
> <PUBCHEM_COMPOUND_CID>
440315

> <PUBCHEM_CONFORMER_RMSD>
0.8

> <PUBCHEM_CONFORMER_DIVERSEORDER>
24
14
9
20
19
21
11
18
3
25
26
22
4
10
23
15
1
16
17
2
7
13
5
8
6
12

> <PUBCHEM_MMFF94_PARTIAL_CHARGES>
31
1 1.51
10 -0.57
11 -0.57
12 -0.62
13 -0.9
14 0.28
15 0.28
16 0.54
17 0.28
18 0.28
19 -0.15
2 -0.56
20 0.04
21 0.48
22 0.41
23 0.47
3 -0.68
30 0.4
31 0.4
32 0.15
33 0.4
34 0.4
35 0.15
36 0.5
37 0.5
4 -0.68
5 -0.55
6 -0.77
7 -0.77
8 -0.7
9 0.05

> <PUBCHEM_EFFECTIVE_ROTOR_COUNT>
5

> <PUBCHEM_PHARMACOPHORE_FEATURES>
17
1 13 cation
1 13 donor
1 2 acceptor
1 3 acceptor
1 3 donor
1 4 acceptor
1 4 donor
1 6 acceptor
1 7 acceptor
1 8 acceptor
3 10 11 21 cation
3 11 12 23 cation
3 9 10 20 cation
4 1 6 7 8 anion
5 2 14 15 16 17 rings
5 9 10 19 20 21 rings
6 11 12 19 21 22 23 rings

> <PUBCHEM_HEAVY_ATOM_COUNT>
23

> <PUBCHEM_ATOM_DEF_STEREO_COUNT>
4

> <PUBCHEM_ATOM_UDEF_STEREO_COUNT>
0

> <PUBCHEM_BOND_DEF_STEREO_COUNT>
0

> <PUBCHEM_BOND_UDEF_STEREO_COUNT>
0

> <PUBCHEM_ISOTOPIC_ATOM_COUNT>
0

> <PUBCHEM_COMPONENT_COUNT>
1

> <PUBCHEM_CACTVS_TAUTO_COUNT>
3

> <PUBCHEM_CONFORMER_ID>
0006B7FB00000018

> <PUBCHEM_MMFF94_ENERGY>
23.4684

> <PUBCHEM_FEATURE_SELFOVERLAP>
86.97

> <PUBCHEM_SHAPE_FINGERPRINT>
10090160 65 18272374174170837495
10411042 1 17474107601119860306
10498660 4 18410291445207870188
10871710 139 18263934232769468199
10906281 52 18339349860542464745
12173636 292 18337678499409222334
12788726 201 17339543913988957762
13583140 156 17201100302756376682
14341114 328 17632579340310265552
14528608 73 18335706061042110581
1454969 45 18336829693897323911
14787075 74 18261397719636598923
14790565 3 18409162186578956721
15196674 1 18411699915128346096
17980427 23 17632285744845921727
19591789 44 18194118521397075929
19784866 170 18412822499631815659
20645477 56 18189054201494849352
21524375 3 18408601474751454194
21756936 100 18338243657170914802
22620623 9 16879080641355567342
23227448 37 18189901911690035684
23558518 356 17614844441282617601
23559900 14 17978235185824929131
34934 24 18341617048933613379
350125 39 18339924922071539202
474 4 18060695100511917556
5104073 3 18199463449673386561
6442390 28 18410012117936412130
7288768 16 16627705818475464684
7808743 9 18194686969531290944
9709674 26 18049439542045065999
9981440 41 18272367564021322219

> <PUBCHEM_SHAPE_MULTIPOLES>
411.19
10.21
3.32
0.9
5.24
1.39
0.06
-7.68
-0.57
0.62
0.34
0.46
0.1
0.38

> <PUBCHEM_SHAPE_SELFOVERLAP>
871.309

> <PUBCHEM_SHAPE_VOLUME>
233.2

> <PUBCHEM_COORDINATE_TYPE>
2
5
10

$$$$

