73360
  -OEChem-07051212552D

 45 49  0     1  0  0  0  0  0999 V2000
    7.1256   -1.7651    0.0000 O   0  0  0  0  0  0  0  0  0  0  0  0
    4.8449    2.7305    0.0000 O   0  0  0  0  0  0  0  0  0  0  0  0
    6.2596   -3.2651    0.0000 O   0  0  0  0  0  0  0  0  0  0  0  0
    2.6079   -0.4269    0.0000 O   0  0  0  0  0  0  0  0  0  0  0  0
    2.6079   -2.1033    0.0000 O   0  0  0  0  0  0  0  0  0  0  0  0
    7.4575    0.8098    0.0000 N   0  0  3  0  0  0  0  0  0  0  0  0
    6.2596   -0.2651    0.0000 C   0  0  1  0  0  0  0  0  0  0  0  0
    6.4688    0.7067    0.0000 C   0  0  2  0  0  0  0  0  0  0  0  0
    7.1256   -0.7651    0.0000 C   0  0  2  0  0  0  0  0  0  0  0  0
    7.8626   -0.0980    0.0000 C   0  0  0  0  0  0  0  0  0  0  0  0
    6.1666    1.6971    0.0000 C   0  0  0  0  0  0  0  0  0  0  0  0
    5.3935   -0.7651    0.0000 C   0  0  0  0  0  0  0  0  0  0  0  0
    5.2440   -0.0628    0.0000 C   0  0  0  0  0  0  0  0  0  0  0  0
    5.3086    1.8445    0.0000 C   0  0  1  0  0  0  0  0  0  0  0  0
    5.3935   -1.7651    0.0000 C   0  0  0  0  0  0  0  0  0  0  0  0
    4.7664    0.9986    0.0000 C   0  0  0  0  0  0  0  0  0  0  0  0
    6.2596   -2.2651    0.0000 C   0  0  1  0  0  0  0  0  0  0  0  0
    7.9575    1.6758    0.0000 C   0  0  0  0  0  0  0  0  0  0  0  0
    4.4996   -0.2304    0.0000 C   0  0  0  0  0  0  0  0  0  0  0  0
    4.4996   -2.2998    0.0000 C   0  0  0  0  0  0  0  0  0  0  0  0
    3.5935   -0.7443    0.0000 C   0  0  0  0  0  0  0  0  0  0  0  0
    3.5935   -1.7859    0.0000 C   0  0  0  0  0  0  0  0  0  0  0  0
    5.3802    3.5751    0.0000 C   0  0  0  0  0  0  0  0  0  0  0  0
    2.0000   -1.2651    0.0000 C   0  0  0  0  0  0  0  0  0  0  0  0
    6.9384    1.4152    0.0000 H   0  0  0  0  0  0  0  0  0  0  0  0
    7.9025   -1.1098    0.0000 H   0  0  0  0  0  0  0  0  0  0  0  0
    8.2280   -0.5989    0.0000 H   0  0  0  0  0  0  0  0  0  0  0  0
    8.3991    0.2127    0.0000 H   0  0  0  0  0  0  0  0  0  0  0  0
    6.7804    1.7840    0.0000 H   0  0  0  0  0  0  0  0  0  0  0  0
    6.1757    2.3170    0.0000 H   0  0  0  0  0  0  0  0  0  0  0  0
    4.8579   -0.5479    0.0000 H   0  0  0  0  0  0  0  0  0  0  0  0
    5.6736    2.3457    0.0000 H   0  0  0  0  0  0  0  0  0  0  0  0
    4.1481    1.0442    0.0000 H   0  0  0  0  0  0  0  0  0  0  0  0
    5.7226   -2.5751    0.0000 H   0  0  0  0  0  0  0  0  0  0  0  0
    8.4944    1.3658    0.0000 H   0  0  0  0  0  0  0  0  0  0  0  0
    8.2675    2.2127    0.0000 H   0  0  0  0  0  0  0  0  0  0  0  0
    7.4205    1.9858    0.0000 H   0  0  0  0  0  0  0  0  0  0  0  0
    4.5068    0.3895    0.0000 H   0  0  0  0  0  0  0  0  0  0  0  0
    4.5068   -2.9197    0.0000 H   0  0  0  0  0  0  0  0  0  0  0  0
    6.7965   -3.5751    0.0000 H   0  0  0  0  0  0  0  0  0  0  0  0
    5.9039    3.2432    0.0000 H   0  0  0  0  0  0  0  0  0  0  0  0
    5.7122    4.0988    0.0000 H   0  0  0  0  0  0  0  0  0  0  0  0
    4.8566    3.9070    0.0000 H   0  0  0  0  0  0  0  0  0  0  0  0
    1.5391   -0.8504    0.0000 H   0  0  0  0  0  0  0  0  0  0  0  0
    1.5391   -1.6798    0.0000 H   0  0  0  0  0  0  0  0  0  0  0  0
  1  9  1  0  0  0  0
  1 17  1  0  0  0  0
 14  2  1  1  0  0  0
  2 23  1  0  0  0  0
 17  3  1  1  0  0  0
  3 40  1  0  0  0  0
  4 21  1  0  0  0  0
  4 24  1  0  0  0  0
  5 22  1  0  0  0  0
  5 24  1  0  0  0  0
  6  8  1  0  0  0  0
  6 10  1  0  0  0  0
  6 18  1  0  0  0  0
  7  8  1  0  0  0  0
  7  9  1  0  0  0  0
  7 12  1  0  0  0  0
  7 13  1  6  0  0  0
  8 11  1  0  0  0  0
  8 25  1  1  0  0  0
  9 10  1  0  0  0  0
  9 26  1  1  0  0  0
 10 27  1  0  0  0  0
 10 28  1  0  0  0  0
 11 14  1  0  0  0  0
 11 29  1  0  0  0  0
 11 30  1  0  0  0  0
 12 15  1  0  0  0  0
 12 19  2  0  0  0  0
 13 16  2  0  0  0  0
 13 31  1  0  0  0  0
 14 16  1  0  0  0  0
 14 32  1  0  0  0  0
 15 17  1  0  0  0  0
 15 20  2  0  0  0  0
 16 33  1  0  0  0  0
 17 34  1  0  0  0  0
 18 35  1  0  0  0  0
 18 36  1  0  0  0  0
 18 37  1  0  0  0  0
 19 21  1  0  0  0  0
 19 38  1  0  0  0  0
 20 22  1  0  0  0  0
 20 39  1  0  0  0  0
 21 22  2  0  0  0  0
 23 41  1  0  0  0  0
 23 42  1  0  0  0  0
 23 43  1  0  0  0  0
 24 44  1  0  0  0  0
 24 45  1  0  0  0  0
M  END
> <PUBCHEM_COMPOUND_CID>
73360

> <PUBCHEM_COMPOUND_CANONICALIZED>
1

> <PUBCHEM_CACTVS_COMPLEXITY>
542

> <PUBCHEM_CACTVS_HBOND_ACCEPTOR>
6

> <PUBCHEM_CACTVS_HBOND_DONOR>
1

> <PUBCHEM_CACTVS_ROTATABLE_BOND>
1

> <PUBCHEM_CACTVS_SUBSKEYS>
AAADceB6OAAAAAAAAAAAAAAAAAAAAWJAAAA0QIAAAAAAAFiRAAAAHgAACAAADjzxmAcyDoMABgCAAiBCAAACCAAgIAAIiAAOiIgfNiKEsRuncCImwBGeuAfQ8P8PoAABAAAQQABAAAIAACCAAAAAAAAAAA==

> <PUBCHEM_IUPAC_INCHI>
InChI=1S/C18H21NO5/c1-19-8-16-18(4-3-10(21-2)5-15(18)19)12-7-14-13(22-9-23-14)6-11(12)17(20)24-16/h3-4,6-7,10,15-17,20H,5,8-9H2,1-2H3/t10-,15+,16+,17-,18+/m1/s1

> <PUBCHEM_IUPAC_INCHIKEY>
KLJOYDMUWKSYBP-YNBLHMCPSA-N

> <PUBCHEM_XLOGP3_AA>
1.3

> <PUBCHEM_EXACT_MASS>
331.141973

> <PUBCHEM_MOLECULAR_FORMULA>
C18H21NO5

> <PUBCHEM_MOLECULAR_WEIGHT>
331.36304

> <PUBCHEM_OPENEYE_CAN_SMILES>
CN1CC2C3(C1CC(C=C3)OC)C4=CC5=C(C=C4C(O2)O)OCO5

> <PUBCHEM_OPENEYE_ISO_SMILES>
CN1C[C@H]2[C@]3([C@@H]1C[C@@H](C=C3)OC)C4=CC5=C(C=C4[C@@H](O2)O)OCO5

> <PUBCHEM_CACTVS_TPSA>
60.4

> <PUBCHEM_MONOISOTOPIC_WEIGHT>
331.141973

> <PUBCHEM_TOTAL_CHARGE>
0

> <PUBCHEM_HEAVY_ATOM_COUNT>
24

> <PUBCHEM_ATOM_DEF_STEREO_COUNT>
5

> <PUBCHEM_ATOM_UDEF_STEREO_COUNT>
0

> <PUBCHEM_BOND_DEF_STEREO_COUNT>
0

> <PUBCHEM_BOND_UDEF_STEREO_COUNT>
0

> <PUBCHEM_ISOTOPIC_ATOM_COUNT>
0

> <PUBCHEM_COMPONENT_COUNT>
1

> <PUBCHEM_CACTVS_TAUTO_COUNT>
1

> <PUBCHEM_COORDINATE_TYPE>
1
5
255

> <PUBCHEM_BONDANNOTATIONS>
12  15  8
12  19  8
15  20  8
19  21  8
14  2  5
20  22  8
21  22  8
17  3  5
7  13  6
8  25  5
9  26  5

$$$$

