17396295
  -OEChem-06241222553D

 37 39  0     1  0  0  0  0  0999 V2000
   -1.9487    2.5493   -1.2028 S   0  0  0  0  0  0  0  0  0  0  0  0
   -2.7022   -3.1898   -0.2909 S   0  0  0  0  0  0  0  0  0  0  0  0
    0.4687    1.5490   -0.3530 O   0  0  0  0  0  0  0  0  0  0  0  0
   -3.8873    0.5062    0.2079 O   0  0  0  0  0  0  0  0  0  0  0  0
   -2.0038    0.0379    1.4803 N   0  0  0  0  0  0  0  0  0  0  0  0
   -0.0411    1.0890   -2.4821 N   0  0  0  0  0  0  0  0  0  0  0  0
    1.1904    0.5246   -2.2062 N   0  0  0  0  0  0  0  0  0  0  0  0
    4.7332   -0.5843    0.0772 N   0  0  0  0  0  0  0  0  0  0  0  0
   -2.2669    2.2646    0.5696 C   0  0  2  0  0  0  0  0  0  0  0  0
   -2.3161   -1.3467    1.7479 C   0  0  0  0  0  0  0  0  0  0  0  0
   -2.8276    0.8582    0.7224 C   0  0  0  0  0  0  0  0  0  0  0  0
   -3.2352    3.3169    1.0939 C   0  0  0  0  0  0  0  0  0  0  0  0
   -1.6975   -2.2133    0.6937 C   0  0  0  0  0  0  0  0  0  0  0  0
   -0.3651   -2.3556    0.3743 C   0  0  0  0  0  0  0  0  0  0  0  0
   -0.4242    1.6760   -1.3723 C   0  0  0  0  0  0  0  0  0  0  0  0
    1.4477    0.8184   -0.9531 C   0  0  0  0  0  0  0  0  0  0  0  0
   -0.1664   -3.2785   -0.6929 C   0  0  0  0  0  0  0  0  0  0  0  0
    2.5800    0.4943   -0.1349 C   0  0  0  0  0  0  0  0  0  0  0  0
   -1.3545   -3.8064   -1.1484 C   0  0  0  0  0  0  0  0  0  0  0  0
    2.6507    0.9125    1.1893 C   0  0  0  0  0  0  0  0  0  0  0  0
    3.6378   -0.2451   -0.6388 C   0  0  0  0  0  0  0  0  0  0  0  0
    3.7616    0.5832    1.9581 C   0  0  0  0  0  0  0  0  0  0  0  0
    4.7666   -0.1602    1.3606 C   0  0  0  0  0  0  0  0  0  0  0  0
   -1.3348    2.3779    1.1327 H   0  0  0  0  0  0  0  0  0  0  0  0
   -3.4029   -1.4696    1.8055 H   0  0  0  0  0  0  0  0  0  0  0  0
   -1.8939   -1.5947    2.7276 H   0  0  0  0  0  0  0  0  0  0  0  0
   -1.1321    0.4039    1.8516 H   0  0  0  0  0  0  0  0  0  0  0  0
   -4.2001    3.2822    0.5749 H   0  0  0  0  0  0  0  0  0  0  0  0
   -3.4398    3.1454    2.1569 H   0  0  0  0  0  0  0  0  0  0  0  0
   -2.8232    4.3270    0.9938 H   0  0  0  0  0  0  0  0  0  0  0  0
    0.4325   -1.8284    0.8817 H   0  0  0  0  0  0  0  0  0  0  0  0
    0.7991   -3.5415   -1.1052 H   0  0  0  0  0  0  0  0  0  0  0  0
   -1.4953   -4.5244   -1.9439 H   0  0  0  0  0  0  0  0  0  0  0  0
    1.8588    1.4943    1.6539 H   0  0  0  0  0  0  0  0  0  0  0  0
    3.6483   -0.6046   -1.6638 H   0  0  0  0  0  0  0  0  0  0  0  0
    3.8383    0.8978    2.9926 H   0  0  0  0  0  0  0  0  0  0  0  0
    5.6538   -0.4433    1.9173 H   0  0  0  0  0  0  0  0  0  0  0  0
  1  9  1  0  0  0  0
  1 15  1  0  0  0  0
  2 13  1  0  0  0  0
  2 19  1  0  0  0  0
  3 15  1  0  0  0  0
  3 16  1  0  0  0  0
  4 11  2  0  0  0  0
  5 10  1  0  0  0  0
  5 11  1  0  0  0  0
  5 27  1  0  0  0  0
  6  7  1  0  0  0  0
  6 15  2  0  0  0  0
  7 16  2  0  0  0  0
  8 21  1  0  0  0  0
  8 23  2  0  0  0  0
  9 11  1  0  0  0  0
  9 12  1  0  0  0  0
  9 24  1  0  0  0  0
 10 13  1  0  0  0  0
 10 25  1  0  0  0  0
 10 26  1  0  0  0  0
 12 28  1  0  0  0  0
 12 29  1  0  0  0  0
 12 30  1  0  0  0  0
 13 14  2  0  0  0  0
 14 17  1  0  0  0  0
 14 31  1  0  0  0  0
 16 18  1  0  0  0  0
 17 19  2  0  0  0  0
 17 32  1  0  0  0  0
 18 20  1  0  0  0  0
 18 21  2  0  0  0  0
 19 33  1  0  0  0  0
 20 22  2  0  0  0  0
 20 34  1  0  0  0  0
 21 35  1  0  0  0  0
 22 23  1  0  0  0  0
 22 36  1  0  0  0  0
 23 37  1  0  0  0  0
M  END
> <PUBCHEM_COMPOUND_CID>
17396295

> <PUBCHEM_CONFORMER_RMSD>
1

> <PUBCHEM_CONFORMER_DIVERSEORDER>
1
214
72
259
81
457
31
349
258
39
133
262
17
166
30
384
398
143
89
368
97
134
237
189
288
100
438
224
131
299
231
383
28
336
458
427
326
20
403
469
363
77
57
99
244
90
276
301
251
93
220
51
470
62
130
415
316
456
27
255
318
217
317
25
192
355
421
109
186
174
68
98
160
152
331
359
2
257
238
127
12
256
34
248
306
385
235
356
44
197
119
274
440
448
279
401
374
209
55
229
48
21
433
13
397
319
287
343
70
239
447
225
411
391
19
406
140
115
329
413
3
32
56
260
471
280
177
9
261
332
117
4
324
459
443
26
138
156
449
65
314
341
5
179
445
446
16
253
91
300
245
362
23
399
181
334
294
121
158
141
10
247
223
61
328
147
348
18
88
417
382
112
265
95
63
159
242
104
298
419
460
35
462
400
208
165
37
303
315
233
222
202
360
144
58
455
369
290
227
6
428
50
423
178
367
372
136
437
246
157
200
24
365
252
390
59
272
414
33
347
370
307
7
191
38
163
15
195
285
358
418
164
412
29
304
264
234
36
321
8
466
409
346
416
80
150
53
161
168
203
337
155
49
311
54
350
118
236
167
266
22
408
323
451
69
454
278
320
132
270
364
124
85
345
463
122
173
111
213
240
201
14
204
125
175
180
129
325
435
422
296
302
183
151
148
64
277
228
354
86
431
193
60
188
338
221
42
74
387
425
289
271
46
205
113
273
342
453
145
196
75
432
79
267
467
396
232
182
11
106
292
45
216
211
426
185
380
254
120
461
352
116
371
219
154
67
335
297
377
92
275
218
327
281
139
128
47
392
424
66
439
404
444
305
212
310
373
73
243
353
269
389
340
142
366
187
210
263
105
206
172
293
312
94
184
52
430
322
43
207
126
241
361
176
107
114
249
41
82
468
313
149
226
282
375
291
268
170
393
410
40
137
87
283
83
381
103
198
190
108
386
194
450
309
101
441
395
162
146
215
286
102
420
452
407
199
405
344
434
250
308
135
153
333
394
169
84
378
429
351
230
339
123
284
295
402
71
376
96
110
436
379
465
464
388
442
78
330
357
76
171

> <PUBCHEM_MMFF94_PARTIAL_CHARGES>
30
1 -0.29
10 0.48
11 0.57
13 -0.14
14 -0.15
15 0.53
16 0.43
17 -0.15
18 0.05
19 -0.11
2 -0.08
20 -0.15
21 0.16
22 -0.15
23 0.16
27 0.37
3 -0.28
31 0.15
32 0.15
33 0.15
34 0.15
35 0.15
36 0.15
37 0.15
4 -0.57
5 -0.73
6 -0.34
7 -0.34
8 -0.62
9 0.29

> <PUBCHEM_EFFECTIVE_ROTOR_COUNT>
7

> <PUBCHEM_PHARMACOPHORE_FEATURES>
7
1 12 hydrophobe
1 4 acceptor
1 5 donor
1 8 acceptor
5 2 13 14 17 19 rings
5 3 6 7 15 16 rings
6 8 18 20 21 22 23 rings

> <PUBCHEM_HEAVY_ATOM_COUNT>
23

> <PUBCHEM_ATOM_DEF_STEREO_COUNT>
0

> <PUBCHEM_ATOM_UDEF_STEREO_COUNT>
1

> <PUBCHEM_BOND_DEF_STEREO_COUNT>
0

> <PUBCHEM_BOND_UDEF_STEREO_COUNT>
0

> <PUBCHEM_ISOTOPIC_ATOM_COUNT>
0

> <PUBCHEM_COMPONENT_COUNT>
1

> <PUBCHEM_CACTVS_TAUTO_COUNT>
2

> <PUBCHEM_CONFORMER_ID>
0109724700000001

> <PUBCHEM_MMFF94_ENERGY>
31.8874

> <PUBCHEM_FEATURE_SELFOVERLAP>
35.52

> <PUBCHEM_SHAPE_FINGERPRINT>
10064457 181 18264205979782026216
11370993 70 18261957460954044970
11552529 35 18336835195381048112
11582403 64 17387707230020927085
12422481 6 18268404929195703459
12553582 1 17762038961558013159
12633257 1 18041830723447507952
12788726 201 18196081140951769731
13004483 165 18121792629310290595
13583140 156 17313673642353358946
14081887 123 18119527631104731696
14178342 30 18194669583218976245
19777482 4 17773612515498876983
20600515 1 17680984094335750675
22182313 1 16982355879511222549
23419403 2 16754150703018804117
23728640 28 18411978048947834299
3459 110 18122368804090944512
35225 105 18192180189560239563
394222 165 4821836144407178663
484985 159 18057072209846666830
602551 16 18411138048192492152
6287921 2 17903635525578131163
6438718 38 18273208712144114450
81228 2 18129679495215268878
9862522 239 18341898544847194475

> <PUBCHEM_SHAPE_MULTIPOLES>
449.37
7.25
4.37
1.96
8.4
2.67
0.38
-1
-3.47
-5.85
0.78
0.39
-0.58
-0.3

> <PUBCHEM_SHAPE_SELFOVERLAP>
933.622

> <PUBCHEM_SHAPE_VOLUME>
258.9

> <PUBCHEM_COORDINATE_TYPE>
2
5
10

$$$$

