12427
  -OEChem-06261206552D

 48 47  0     1  0  0  0  0  0999 V2000
    7.3890    3.7615    0.0000 Cl  0  5  0  0  0  0  0  0  0  0  0  0
    2.2690    4.1200    0.0000 O   0  0  0  0  0  0  0  0  0  0  0  0
    0.5369    4.1200    0.0000 O   0  0  0  0  0  0  0  0  0  0  0  0
    3.1350    6.6200    0.0000 N   0  3  0  0  0  0  0  0  0  0  0  0
    3.7690    4.2540    0.0000 N   0  0  0  0  0  0  0  0  0  0  0  0
    2.2690    5.1200    0.0000 C   0  0  3  0  0  0  0  0  0  0  0  0
    2.2690    6.1200    0.0000 C   0  0  0  0  0  0  0  0  0  0  0  0
    3.2690    5.1200    0.0000 C   0  0  0  0  0  0  0  0  0  0  0  0
    1.2690    5.1200    0.0000 C   0  0  0  0  0  0  0  0  0  0  0  0
    4.0010    7.1200    0.0000 C   0  0  0  0  0  0  0  0  0  0  0  0
    2.6350    7.4860    0.0000 C   0  0  0  0  0  0  0  0  0  0  0  0
    0.7690    5.9860    0.0000 C   0  0  0  0  0  0  0  0  0  0  0  0
    4.7690    4.2540    0.0000 C   0  0  0  0  0  0  0  0  0  0  0  0
    3.2690    3.3880    0.0000 C   0  0  0  0  0  0  0  0  0  0  0  0
    1.4030    3.6200    0.0000 C   0  0  0  0  0  0  0  0  0  0  0  0
    1.4030    2.6200    0.0000 C   0  0  0  0  0  0  0  0  0  0  0  0
    0.5369    2.1200    0.0000 C   0  0  0  0  0  0  0  0  0  0  0  0
    2.2690    2.1200    0.0000 C   0  0  0  0  0  0  0  0  0  0  0  0
    0.5369    1.1200    0.0000 C   0  0  0  0  0  0  0  0  0  0  0  0
    2.2690    1.1200    0.0000 C   0  0  0  0  0  0  0  0  0  0  0  0
    1.4030    0.6200    0.0000 C   0  0  0  0  0  0  0  0  0  0  0  0
    2.0569    6.7026    0.0000 H   0  0  0  0  0  0  0  0  0  0  0  0
    1.6584    6.0123    0.0000 H   0  0  0  0  0  0  0  0  0  0  0  0
    3.8516    5.3320    0.0000 H   0  0  0  0  0  0  0  0  0  0  0  0
    3.1613    5.7306    0.0000 H   0  0  0  0  0  0  0  0  0  0  0  0
    3.4450    6.0831    0.0000 H   0  0  0  0  0  0  0  0  0  0  0  0
    0.6864    4.9079    0.0000 H   0  0  0  0  0  0  0  0  0  0  0  0
    1.3766    4.5094    0.0000 H   0  0  0  0  0  0  0  0  0  0  0  0
    4.3110    6.5831    0.0000 H   0  0  0  0  0  0  0  0  0  0  0  0
    4.5380    7.4300    0.0000 H   0  0  0  0  0  0  0  0  0  0  0  0
    3.6910    7.6569    0.0000 H   0  0  0  0  0  0  0  0  0  0  0  0
    3.1720    7.7960    0.0000 H   0  0  0  0  0  0  0  0  0  0  0  0
    2.3250    8.0230    0.0000 H   0  0  0  0  0  0  0  0  0  0  0  0
    2.0981    7.1760    0.0000 H   0  0  0  0  0  0  0  0  0  0  0  0
    1.3059    6.2960    0.0000 H   0  0  0  0  0  0  0  0  0  0  0  0
    0.4590    6.5230    0.0000 H   0  0  0  0  0  0  0  0  0  0  0  0
    0.2321    5.6760    0.0000 H   0  0  0  0  0  0  0  0  0  0  0  0
    4.7690    3.6340    0.0000 H   0  0  0  0  0  0  0  0  0  0  0  0
    5.3890    4.2540    0.0000 H   0  0  0  0  0  0  0  0  0  0  0  0
    4.7690    4.8740    0.0000 H   0  0  0  0  0  0  0  0  0  0  0  0
    2.7320    3.6980    0.0000 H   0  0  0  0  0  0  0  0  0  0  0  0
    2.9590    2.8510    0.0000 H   0  0  0  0  0  0  0  0  0  0  0  0
    3.8059    3.0780    0.0000 H   0  0  0  0  0  0  0  0  0  0  0  0
    0.0000    2.4300    0.0000 H   0  0  0  0  0  0  0  0  0  0  0  0
    2.8059    2.4300    0.0000 H   0  0  0  0  0  0  0  0  0  0  0  0
    0.0000    0.8100    0.0000 H   0  0  0  0  0  0  0  0  0  0  0  0
    2.8059    0.8100    0.0000 H   0  0  0  0  0  0  0  0  0  0  0  0
    1.4030    0.0000    0.0000 H   0  0  0  0  0  0  0  0  0  0  0  0
  2  6  1  0  0  0  0
  2 15  1  0  0  0  0
  3 15  2  0  0  0  0
  4  7  1  0  0  0  0
  4 10  1  0  0  0  0
  4 11  1  0  0  0  0
  4 26  1  0  0  0  0
  5  8  1  0  0  0  0
  5 13  1  0  0  0  0
  5 14  1  0  0  0  0
  6  7  1  0  0  0  0
  6  8  1  0  0  0  0
  6  9  1  0  0  0  0
  7 22  1  0  0  0  0
  7 23  1  0  0  0  0
  8 24  1  0  0  0  0
  8 25  1  0  0  0  0
  9 12  1  0  0  0  0
  9 27  1  0  0  0  0
  9 28  1  0  0  0  0
 10 29  1  0  0  0  0
 10 30  1  0  0  0  0
 10 31  1  0  0  0  0
 11 32  1  0  0  0  0
 11 33  1  0  0  0  0
 11 34  1  0  0  0  0
 12 35  1  0  0  0  0
 12 36  1  0  0  0  0
 12 37  1  0  0  0  0
 13 38  1  0  0  0  0
 13 39  1  0  0  0  0
 13 40  1  0  0  0  0
 14 41  1  0  0  0  0
 14 42  1  0  0  0  0
 14 43  1  0  0  0  0
 15 16  1  0  0  0  0
 16 17  2  0  0  0  0
 16 18  1  0  0  0  0
 17 19  1  0  0  0  0
 17 44  1  0  0  0  0
 18 20  2  0  0  0  0
 18 45  1  0  0  0  0
 19 21  2  0  0  0  0
 19 46  1  0  0  0  0
 20 21  1  0  0  0  0
 20 47  1  0  0  0  0
 21 48  1  0  0  0  0
M  CHG  2   1  -1   4   1
M  END
> <PUBCHEM_COMPOUND_CID>
12427

> <PUBCHEM_COMPOUND_CANONICALIZED>
1

> <PUBCHEM_CACTVS_COMPLEXITY>
299

> <PUBCHEM_CACTVS_HBOND_ACCEPTOR>
4

> <PUBCHEM_CACTVS_HBOND_DONOR>
1

> <PUBCHEM_CACTVS_ROTATABLE_BOND>
8

> <PUBCHEM_CACTVS_SUBSKEYS>
AAADceB7MAAEAAAAAAAAAAAAAAAAAAAAAAAwAAAAAAAAAAABAAAAHgAQAAAADETBmAQyCIPABACIAiDSCAACAAAkAAAIiIEICMgKJjKA9RiHMQAkwAEYqYeIyCCOAAAAAAAAAAAAAAAAAAAAAAAAAAAAAA==

> <PUBCHEM_IUPAC_OPENEYE_NAME>
[2-benzoyloxy-2-[(dimethylamino)methyl]butyl]-dimethyl-ammonium chloride

> <PUBCHEM_IUPAC_CAS_NAME>
[2-benzoyloxy-2-[(dimethylamino)methyl]butyl]-dimethylammonium chloride

> <PUBCHEM_IUPAC_NAME>
[2-benzoyloxy-2-[(dimethylamino)methyl]butyl]-dimethylazanium chloride

> <PUBCHEM_IUPAC_SYSTEMATIC_NAME>
[2-[(dimethylamino)methyl]-2-(phenylcarbonyloxy)butyl]-dimethyl-azanium chloride

> <PUBCHEM_IUPAC_TRADITIONAL_NAME>
[2-benzoyloxy-2-[(dimethylamino)methyl]butyl]-dimethyl-ammonium chloride

> <PUBCHEM_IUPAC_INCHI>
InChI=1S/C16H26N2O2.ClH/c1-6-16(12-17(2)3,13-18(4)5)20-15(19)14-10-8-7-9-11-14;/h7-11H,6,12-13H2,1-5H3;1H

> <PUBCHEM_IUPAC_INCHIKEY>
FHHDPMSYDYZLAP-UHFFFAOYSA-N

> <PUBCHEM_EXACT_MASS>
314.176106

> <PUBCHEM_MOLECULAR_FORMULA>
C16H27ClN2O2

> <PUBCHEM_MOLECULAR_WEIGHT>
314.85078

> <PUBCHEM_OPENEYE_CAN_SMILES>
CCC(C[NH+](C)C)(CN(C)C)OC(=O)C1=CC=CC=C1.[Cl-]

> <PUBCHEM_OPENEYE_ISO_SMILES>
CCC(C[NH+](C)C)(CN(C)C)OC(=O)C1=CC=CC=C1.[Cl-]

> <PUBCHEM_CACTVS_TPSA>
34

> <PUBCHEM_MONOISOTOPIC_WEIGHT>
314.176106

> <PUBCHEM_TOTAL_CHARGE>
0

> <PUBCHEM_HEAVY_ATOM_COUNT>
21

> <PUBCHEM_ATOM_DEF_STEREO_COUNT>
0

> <PUBCHEM_ATOM_UDEF_STEREO_COUNT>
1

> <PUBCHEM_BOND_DEF_STEREO_COUNT>
0

> <PUBCHEM_BOND_UDEF_STEREO_COUNT>
0

> <PUBCHEM_ISOTOPIC_ATOM_COUNT>
0

> <PUBCHEM_COMPONENT_COUNT>
2

> <PUBCHEM_CACTVS_TAUTO_COUNT>
1

> <PUBCHEM_COORDINATE_TYPE>
1
5
255

> <PUBCHEM_BONDANNOTATIONS>
16  17  8
16  18  8
17  19  8
18  20  8
19  21  8
20  21  8
6  9  3

$$$$

