12722
  -OEChem-06261207172D

 11 10  0     0  0  0  0  0  0999 V2000
    2.0000   -0.5000    0.0000 F   0  0  0  0  0  0  0  0  0  0  0  0
    2.3660    0.8660    0.0000 F   0  0  0  0  0  0  0  0  0  0  0  0
    3.3660   -0.8660    0.0000 F   0  0  0  0  0  0  0  0  0  0  0  0
    5.4641   -0.5000    0.0000 F   0  0  0  0  0  0  0  0  0  0  0  0
    5.0981    0.8660    0.0000 F   0  0  0  0  0  0  0  0  0  0  0  0
    4.0981   -0.8660    0.0000 F   0  0  0  0  0  0  0  0  0  0  0  0
    3.7320    0.5000    0.0000 C   0  0  0  0  0  0  0  0  0  0  0  0
    2.8660    0.0000    0.0000 C   0  0  0  0  0  0  0  0  0  0  0  0
    4.5981    0.0000    0.0000 C   0  0  0  0  0  0  0  0  0  0  0  0
    4.1306    0.9749    0.0000 H   0  0  0  0  0  0  0  0  0  0  0  0
    3.3335    0.9749    0.0000 H   0  0  0  0  0  0  0  0  0  0  0  0
  1  8  1  0  0  0  0
  2  8  1  0  0  0  0
  3  8  1  0  0  0  0
  4  9  1  0  0  0  0
  5  9  1  0  0  0  0
  6  9  1  0  0  0  0
  7  8  1  0  0  0  0
  7  9  1  0  0  0  0
  7 10  1  0  0  0  0
  7 11  1  0  0  0  0
M  END
> <PUBCHEM_COMPOUND_CID>
12722

> <PUBCHEM_COMPOUND_CANONICALIZED>
1

> <PUBCHEM_CACTVS_COMPLEXITY>
73.5

> <PUBCHEM_CACTVS_HBOND_ACCEPTOR>
6

> <PUBCHEM_CACTVS_HBOND_DONOR>
0

> <PUBCHEM_CACTVS_ROTATABLE_BOND>
0

> <PUBCHEM_CACTVS_SUBSKEYS>
AAADcQBAAcAAAAAAAAAAAAAAAAAAAAAAAAAAAAAAAAAAAAAAAAAAGQAAAAAACACAABAAAAAAAAAAAAAAAAAAAAAAAAAAAAAAAAAAAAAAAAAAAAAAAAAAAAAAAAAAAAAAAAAAAAAAAAAAAAAAAAAAAAAAAA==

> <PUBCHEM_IUPAC_OPENEYE_NAME>
1,1,1,3,3,3-hexafluoropropane

> <PUBCHEM_IUPAC_CAS_NAME>
1,1,1,3,3,3-hexafluoropropane

> <PUBCHEM_IUPAC_NAME>
1,1,1,3,3,3-hexafluoropropane

> <PUBCHEM_IUPAC_SYSTEMATIC_NAME>
1,1,1,3,3,3-hexakis(fluoranyl)propane

> <PUBCHEM_IUPAC_TRADITIONAL_NAME>
1,1,1,3,3,3-hexafluoropropane

> <PUBCHEM_IUPAC_INCHI>
InChI=1S/C3H2F6/c4-2(5,6)1-3(7,8)9/h1H2

> <PUBCHEM_IUPAC_INCHIKEY>
NSGXIBWMJZWTPY-UHFFFAOYSA-N

> <PUBCHEM_XLOGP3_AA>
2.8

> <PUBCHEM_EXACT_MASS>
152.006069

> <PUBCHEM_MOLECULAR_FORMULA>
C3H2F6

> <PUBCHEM_MOLECULAR_WEIGHT>
152.038399

> <PUBCHEM_OPENEYE_CAN_SMILES>
C(C(F)(F)F)C(F)(F)F

> <PUBCHEM_OPENEYE_ISO_SMILES>
C(C(F)(F)F)C(F)(F)F

> <PUBCHEM_CACTVS_TPSA>
0

> <PUBCHEM_MONOISOTOPIC_WEIGHT>
152.006069

> <PUBCHEM_TOTAL_CHARGE>
0

> <PUBCHEM_HEAVY_ATOM_COUNT>
9

> <PUBCHEM_ATOM_DEF_STEREO_COUNT>
0

> <PUBCHEM_ATOM_UDEF_STEREO_COUNT>
0

> <PUBCHEM_BOND_DEF_STEREO_COUNT>
0

> <PUBCHEM_BOND_UDEF_STEREO_COUNT>
0

> <PUBCHEM_ISOTOPIC_ATOM_COUNT>
0

> <PUBCHEM_COMPONENT_COUNT>
1

> <PUBCHEM_CACTVS_TAUTO_COUNT>
1

> <PUBCHEM_COORDINATE_TYPE>
1
5
255

$$$$

