8339
  -OEChem-07051212513D

 38 40  0     1  0  0  0  0  0999 V2000
    3.7465    1.8349    0.6971 P   0  0  0  0  0  0  0  0  0  0  0  0
    0.9550   -1.8232   -1.0015 O   0  0  0  0  0  0  0  0  0  0  0  0
    3.6052    0.3918   -0.0118 O   0  0  0  0  0  0  0  0  0  0  0  0
    1.6642    1.2177   -1.7388 O   0  0  0  0  0  0  0  0  0  0  0  0
    2.8957   -3.8699   -0.8583 O   0  0  0  0  0  0  0  0  0  0  0  0
    5.3236    2.1716    0.5777 O   0  0  0  0  0  0  0  0  0  0  0  0
    3.5600    1.4775    2.2632 O   0  0  0  0  0  0  0  0  0  0  0  0
    2.8225    2.8958    0.1747 O   0  0  0  0  0  0  0  0  0  0  0  0
   -4.9293   -0.3735    1.9732 O   0  0  0  0  0  0  0  0  0  0  0  0
   -0.9160   -0.6851   -0.0857 N   0  0  0  0  0  0  0  0  0  0  0  0
   -2.5853    0.7249   -1.1545 N   0  0  0  0  0  0  0  0  0  0  0  0
   -2.1575   -1.3320    1.6696 N   0  0  0  0  0  0  0  0  0  0  0  0
   -4.6839    0.8309    0.0082 N   0  0  0  0  0  0  0  0  0  0  0  0
   -4.3112    2.0101   -1.9984 N   0  0  0  0  0  0  0  0  0  0  0  0
    2.3577   -0.2649    0.0571 C   0  0  1  0  0  0  0  0  0  0  0  0
    1.2244    0.5228   -0.5731 C   0  0  2  0  0  0  0  0  0  0  0  0
    0.2363   -0.5712   -0.9813 C   0  0  1  0  0  0  0  0  0  0  0  0
    2.3434   -1.5520   -0.7491 C   0  0  1  0  0  0  0  0  0  0  0  0
    2.9732   -2.7275   -0.0237 C   0  0  0  0  0  0  0  0  0  0  0  0
   -2.1293   -0.0967   -0.2055 C   0  0  0  0  0  0  0  0  0  0  0  0
   -0.9817   -1.4282    1.0723 C   0  0  0  0  0  0  0  0  0  0  0  0
   -2.8768   -0.4947    0.8641 C   0  0  0  0  0  0  0  0  0  0  0  0
   -4.2400   -0.0282    1.0212 C   0  0  0  0  0  0  0  0  0  0  0  0
   -3.8967    1.1691   -0.9967 C   0  0  0  0  0  0  0  0  0  0  0  0
    2.1137   -0.4814    1.1047 H   0  0  0  0  0  0  0  0  0  0  0  0
    0.7949    1.2624    0.1099 H   0  0  0  0  0  0  0  0  0  0  0  0
   -0.1624   -0.4164   -1.9902 H   0  0  0  0  0  0  0  0  0  0  0  0
    2.8341   -1.4204   -1.7222 H   0  0  0  0  0  0  0  0  0  0  0  0
    2.4438   -2.9581    0.9066 H   0  0  0  0  0  0  0  0  0  0  0  0
    4.0253   -2.5359    0.2061 H   0  0  0  0  0  0  0  0  0  0  0  0
    0.8895    1.6673   -2.1176 H   0  0  0  0  0  0  0  0  0  0  0  0
   -0.1469   -2.0135    1.4335 H   0  0  0  0  0  0  0  0  0  0  0  0
   -2.0313    1.0266   -1.9494 H   0  0  0  0  0  0  0  0  0  0  0  0
    1.9565   -4.0255   -1.0565 H   0  0  0  0  0  0  0  0  0  0  0  0
    5.6483    3.0414    0.8942 H   0  0  0  0  0  0  0  0  0  0  0  0
    3.5093    2.2095    2.9142 H   0  0  0  0  0  0  0  0  0  0  0  0
   -3.6976    2.2624   -2.7654 H   0  0  0  0  0  0  0  0  0  0  0  0
   -5.2461    2.4030   -2.0003 H   0  0  0  0  0  0  0  0  0  0  0  0
  1  3  1  0  0  0  0
  1  6  1  0  0  0  0
  1  7  1  0  0  0  0
  1  8  2  0  0  0  0
  2 17  1  0  0  0  0
  2 18  1  0  0  0  0
  3 15  1  0  0  0  0
  4 16  1  0  0  0  0
  4 31  1  0  0  0  0
  5 19  1  0  0  0  0
  5 34  1  0  0  0  0
  6 35  1  0  0  0  0
  7 36  1  0  0  0  0
  9 23  2  0  0  0  0
 10 17  1  0  0  0  0
 10 20  1  0  0  0  0
 10 21  1  0  0  0  0
 11 20  1  0  0  0  0
 11 24  1  0  0  0  0
 11 33  1  0  0  0  0
 12 21  2  0  0  0  0
 12 22  1  0  0  0  0
 13 23  1  0  0  0  0
 13 24  2  0  0  0  0
 14 24  1  0  0  0  0
 14 37  1  0  0  0  0
 14 38  1  0  0  0  0
 15 16  1  0  0  0  0
 15 18  1  0  0  0  0
 15 25  1  0  0  0  0
 16 17  1  0  0  0  0
 16 26  1  0  0  0  0
 17 27  1  0  0  0  0
 18 19  1  0  0  0  0
 18 28  1  0  0  0  0
 19 29  1  0  0  0  0
 19 30  1  0  0  0  0
 20 22  2  0  0  0  0
 21 32  1  0  0  0  0
 22 23  1  0  0  0  0
M  END
> <PUBCHEM_COMPOUND_CID>
8339

> <PUBCHEM_CONFORMER_RMSD>
0.8

> <PUBCHEM_CONFORMER_DIVERSEORDER>
1
7
6
11
10
5
3
2
4
9
8

> <PUBCHEM_MMFF94_PARTIAL_CHARGES>
32
1 1.51
10 0.05
11 -0.53
12 -0.57
13 -0.66
14 -0.85
15 0.28
16 0.28
17 0.54
18 0.28
19 0.28
2 -0.56
20 -0.07
21 0.04
22 0.14
23 0.87
24 0.55
3 -0.55
31 0.4
32 0.15
33 0.4
34 0.4
35 0.5
36 0.5
37 0.4
38 0.4
4 -0.68
5 -0.68
6 -0.77
7 -0.77
8 -0.7
9 -0.57

> <PUBCHEM_EFFECTIVE_ROTOR_COUNT>
5

> <PUBCHEM_PHARMACOPHORE_FEATURES>
17
1 11 donor
1 13 donor
1 14 donor
1 2 acceptor
1 4 acceptor
1 4 donor
1 5 acceptor
1 5 donor
1 6 acceptor
1 7 acceptor
1 8 acceptor
1 9 acceptor
3 10 12 21 cation
4 1 6 7 8 anion
5 10 12 20 21 22 rings
5 2 15 16 17 18 rings
6 11 13 20 22 23 24 rings

> <PUBCHEM_HEAVY_ATOM_COUNT>
24

> <PUBCHEM_ATOM_DEF_STEREO_COUNT>
4

> <PUBCHEM_ATOM_UDEF_STEREO_COUNT>
0

> <PUBCHEM_BOND_DEF_STEREO_COUNT>
0

> <PUBCHEM_BOND_UDEF_STEREO_COUNT>
0

> <PUBCHEM_ISOTOPIC_ATOM_COUNT>
0

> <PUBCHEM_COMPONENT_COUNT>
1

> <PUBCHEM_CACTVS_TAUTO_COUNT>
6

> <PUBCHEM_CONFORMER_ID>
0000209300000001

> <PUBCHEM_MMFF94_ENERGY>
31.1926

> <PUBCHEM_FEATURE_SELFOVERLAP>
86.55

> <PUBCHEM_SHAPE_FINGERPRINT>
10319926 262 17775293772157668448
1100329 8 14956001505646630583
11595378 159 16343985801543390933
11640471 11 17530970142055630742
12403259 415 18272363222304763669
12507560 40 18273495680125572294
12633257 1 17488746662055593208
12670546 177 5761660325424714720
12892183 10 17274833410707183784
13134695 92 18190460661044141958
13583140 156 18334016055978159759
13675066 3 18201716275783645151
14178342 30 17418092061945140331
14251764 38 18265062507572114433
19049666 15 18200591522269106271
19784866 170 18342739581528301164
20645477 56 18343297055276899315
20832881 197 17910956073310405882
21033648 29 18202282532830463277
21065201 7 17346308362704235003
21120745 212 16538193318210750428
22182313 1 18131066069572194999
22943178 12 18201431519462677807
23175994 123 18120927567115230903
23557571 272 17917981789655779711
23559900 14 17916578881427847582
268830 7 18114170995448426827
283562 15 17466243937255488598
2838139 119 15864919699656811408
474 4 18115305570846620936
495365 180 18335432295610843302
5104073 3 18272363226668355425
633830 44 17313649538717286223
7615 1 17095522954315850363
9709674 26 17988346114523690387

> <PUBCHEM_SHAPE_MULTIPOLES>
425.9
10
2.94
1.66
3.96
1.2
0.29
-4.92
2.23
-4.46
-0.45
0.97
-0.36
2.79

> <PUBCHEM_SHAPE_SELFOVERLAP>
905.57

> <PUBCHEM_SHAPE_VOLUME>
239.9

> <PUBCHEM_COORDINATE_TYPE>
2
5
10

$$$$

