5281657
  -OEChem-07051212582D

 29 31  0     0  0  0  0  0  0999 V2000
    6.0682   -1.6581    0.0000 O   0  0  0  0  0  0  0  0  0  0  0  0
    6.0682    1.3419    0.0000 O   0  0  0  0  0  0  0  0  0  0  0  0
    7.8167    1.3765    0.0000 O   0  0  0  0  0  0  0  0  0  0  0  0
    2.5381   -1.6822    0.0000 O   0  0  0  0  0  0  0  0  0  0  0  0
    9.5984   -1.6822    0.0000 O   0  0  0  0  0  0  0  0  0  0  0  0
    5.2022   -0.1581    0.0000 C   0  0  0  0  0  0  0  0  0  0  0  0
    6.9343   -0.1581    0.0000 C   0  0  0  0  0  0  0  0  0  0  0  0
    5.2022   -1.1581    0.0000 C   0  0  0  0  0  0  0  0  0  0  0  0
    4.3083    0.3766    0.0000 C   0  0  0  0  0  0  0  0  0  0  0  0
    6.0682    0.3419    0.0000 C   0  0  0  0  0  0  0  0  0  0  0  0
    6.9343   -1.1581    0.0000 C   0  0  0  0  0  0  0  0  0  0  0  0
    4.3083   -1.6927    0.0000 C   0  0  0  0  0  0  0  0  0  0  0  0
    7.8282    0.3766    0.0000 C   0  0  0  0  0  0  0  0  0  0  0  0
    3.4022   -0.1372    0.0000 C   0  0  0  0  0  0  0  0  0  0  0  0
    7.8282   -1.6927    0.0000 C   0  0  0  0  0  0  0  0  0  0  0  0
    3.4022   -1.1789    0.0000 C   0  0  0  0  0  0  0  0  0  0  0  0
    4.3198    1.3765    0.0000 C   0  0  0  0  0  0  0  0  0  0  0  0
    8.7343   -0.1372    0.0000 C   0  0  0  0  0  0  0  0  0  0  0  0
    8.7343   -1.1789    0.0000 C   0  0  0  0  0  0  0  0  0  0  0  0
    4.3154   -2.3127    0.0000 H   0  0  0  0  0  0  0  0  0  0  0  0
    2.8665    0.1748    0.0000 H   0  0  0  0  0  0  0  0  0  0  0  0
    7.8210   -2.3127    0.0000 H   0  0  0  0  0  0  0  0  0  0  0  0
    4.9398    1.3694    0.0000 H   0  0  0  0  0  0  0  0  0  0  0  0
    4.3270    1.9965    0.0000 H   0  0  0  0  0  0  0  0  0  0  0  0
    3.6999    1.3837    0.0000 H   0  0  0  0  0  0  0  0  0  0  0  0
    9.2700    0.1748    0.0000 H   0  0  0  0  0  0  0  0  0  0  0  0
    8.3500    1.6927    0.0000 H   0  0  0  0  0  0  0  0  0  0  0  0
    2.0000   -1.3743    0.0000 H   0  0  0  0  0  0  0  0  0  0  0  0
   10.1365   -1.3743    0.0000 H   0  0  0  0  0  0  0  0  0  0  0  0
  1  8  1  0  0  0  0
  1 11  1  0  0  0  0
  2 10  2  0  0  0  0
  3 13  1  0  0  0  0
  3 27  1  0  0  0  0
  4 16  1  0  0  0  0
  4 28  1  0  0  0  0
  5 19  1  0  0  0  0
  5 29  1  0  0  0  0
  6  8  2  0  0  0  0
  6  9  1  0  0  0  0
  6 10  1  0  0  0  0
  7 10  1  0  0  0  0
  7 11  1  0  0  0  0
  7 13  2  0  0  0  0
  8 12  1  0  0  0  0
  9 14  2  0  0  0  0
  9 17  1  0  0  0  0
 11 15  2  0  0  0  0
 12 16  2  0  0  0  0
 12 20  1  0  0  0  0
 13 18  1  0  0  0  0
 14 16  1  0  0  0  0
 14 21  1  0  0  0  0
 15 19  1  0  0  0  0
 15 22  1  0  0  0  0
 17 23  1  0  0  0  0
 17 24  1  0  0  0  0
 17 25  1  0  0  0  0
 18 19  2  0  0  0  0
 18 26  1  0  0  0  0
M  END
> <PUBCHEM_COMPOUND_CID>
5281657

> <PUBCHEM_COMPOUND_CANONICALIZED>
1

> <PUBCHEM_CACTVS_COMPLEXITY>
371

> <PUBCHEM_CACTVS_HBOND_ACCEPTOR>
5

> <PUBCHEM_CACTVS_HBOND_DONOR>
3

> <PUBCHEM_CACTVS_ROTATABLE_BOND>
0

> <PUBCHEM_CACTVS_SUBSKEYS>
AAADccBwOAAAAAAAAAAAAAAAAAAAAAAAAAA0YIAAAAAAAACRQAAAGgAACAAADASAmAAyBoAABgCIAqBSAAACCAAkIAAAiAEGCMgMJzaGNRqCeWCl4BUIuQeI7PzOoAABCAAYAABAAAIQADAAAAAAAAAAAA==

> <PUBCHEM_IUPAC_OPENEYE_NAME>
1,3,6-trihydroxy-8-methyl-xanthen-9-one

> <PUBCHEM_IUPAC_CAS_NAME>
1,3,6-trihydroxy-8-methyl-9-xanthenone

> <PUBCHEM_IUPAC_NAME>
1,3,6-trihydroxy-8-methylxanthen-9-one

> <PUBCHEM_IUPAC_SYSTEMATIC_NAME>
1-methyl-3,6,8-tris(oxidanyl)xanthen-9-one

> <PUBCHEM_IUPAC_TRADITIONAL_NAME>
1,3,6-trihydroxy-8-methyl-xanthone

> <PUBCHEM_IUPAC_INCHI>
InChI=1S/C14H10O5/c1-6-2-7(15)4-10-12(6)14(18)13-9(17)3-8(16)5-11(13)19-10/h2-5,15-17H,1H3

> <PUBCHEM_IUPAC_INCHIKEY>
AQZHBCDRWFMXIN-UHFFFAOYSA-N

> <PUBCHEM_XLOGP3_AA>
2.8

> <PUBCHEM_EXACT_MASS>
258.052823

> <PUBCHEM_MOLECULAR_FORMULA>
C14H10O5

> <PUBCHEM_MOLECULAR_WEIGHT>
258.2262

> <PUBCHEM_OPENEYE_CAN_SMILES>
CC1=CC(=CC2=C1C(=O)C3=C(C=C(C=C3O2)O)O)O

> <PUBCHEM_OPENEYE_ISO_SMILES>
CC1=CC(=CC2=C1C(=O)C3=C(C=C(C=C3O2)O)O)O

> <PUBCHEM_CACTVS_TPSA>
87

> <PUBCHEM_MONOISOTOPIC_WEIGHT>
258.052823

> <PUBCHEM_TOTAL_CHARGE>
0

> <PUBCHEM_HEAVY_ATOM_COUNT>
19

> <PUBCHEM_ATOM_DEF_STEREO_COUNT>
0

> <PUBCHEM_ATOM_UDEF_STEREO_COUNT>
0

> <PUBCHEM_BOND_DEF_STEREO_COUNT>
0

> <PUBCHEM_BOND_UDEF_STEREO_COUNT>
0

> <PUBCHEM_ISOTOPIC_ATOM_COUNT>
0

> <PUBCHEM_COMPONENT_COUNT>
1

> <PUBCHEM_CACTVS_TAUTO_COUNT>
135

> <PUBCHEM_COORDINATE_TYPE>
1
5
255

> <PUBCHEM_BONDANNOTATIONS>
1  11  8
1  8  8
11  15  8
12  16  8
13  18  8
14  16  8
15  19  8
18  19  8
6  10  8
6  8  8
6  9  8
7  10  8
7  11  8
7  13  8
8  12  8
9  14  8

$$$$

