11347
  -OEChem-06261205342D

 31 32  0     0  0  0  0  0  0999 V2000
    7.1279    0.0000    0.0000 O   0  0  0  0  0  0  0  0  0  0  0  0
    3.7320    2.0000    0.0000 O   0  0  0  0  0  0  0  0  0  0  0  0
    2.0000   -1.0000    0.0000 O   0  0  0  0  0  0  0  0  0  0  0  0
    5.5443    0.8047    0.0000 N   0  0  0  0  0  0  0  0  0  0  0  0
    3.7320   -1.0000    0.0000 N   0  0  0  0  0  0  0  0  0  0  0  0
    2.8660    0.5000    0.0000 N   0  0  0  0  0  0  0  0  0  0  0  0
    5.5443   -0.8047    0.0000 N   0  0  0  0  0  0  0  0  0  0  0  0
    4.5981    0.5000    0.0000 C   0  0  0  0  0  0  0  0  0  0  0  0
    4.5981   -0.5000    0.0000 C   0  0  0  0  0  0  0  0  0  0  0  0
    3.7320    1.0000    0.0000 C   0  0  0  0  0  0  0  0  0  0  0  0
    6.1279    0.0000    0.0000 C   0  0  0  0  0  0  0  0  0  0  0  0
    2.8660   -0.5000    0.0000 C   0  0  0  0  0  0  0  0  0  0  0  0
    5.8550    1.7552    0.0000 C   0  0  0  0  0  0  0  0  0  0  0  0
    3.7320   -2.0000    0.0000 C   0  0  0  0  0  0  0  0  0  0  0  0
    2.0000    1.0000    0.0000 C   0  0  0  0  0  0  0  0  0  0  0  0
    7.6279   -0.8660    0.0000 C   0  0  0  0  0  0  0  0  0  0  0  0
    8.6279   -0.8660    0.0000 C   0  0  0  0  0  0  0  0  0  0  0  0
    6.4443    1.5626    0.0000 H   0  0  0  0  0  0  0  0  0  0  0  0
    6.0476    2.3446    0.0000 H   0  0  0  0  0  0  0  0  0  0  0  0
    5.2656    1.9479    0.0000 H   0  0  0  0  0  0  0  0  0  0  0  0
    3.1120   -2.0000    0.0000 H   0  0  0  0  0  0  0  0  0  0  0  0
    3.7320   -2.6200    0.0000 H   0  0  0  0  0  0  0  0  0  0  0  0
    4.3520   -2.0000    0.0000 H   0  0  0  0  0  0  0  0  0  0  0  0
    2.3100    1.5369    0.0000 H   0  0  0  0  0  0  0  0  0  0  0  0
    1.4631    1.3100    0.0000 H   0  0  0  0  0  0  0  0  0  0  0  0
    1.6900    0.4631    0.0000 H   0  0  0  0  0  0  0  0  0  0  0  0
    7.0453   -1.0781    0.0000 H   0  0  0  0  0  0  0  0  0  0  0  0
    7.7356   -1.4766    0.0000 H   0  0  0  0  0  0  0  0  0  0  0  0
    8.6279   -1.4860    0.0000 H   0  0  0  0  0  0  0  0  0  0  0  0
    9.2479   -0.8660    0.0000 H   0  0  0  0  0  0  0  0  0  0  0  0
    8.6279   -0.2460    0.0000 H   0  0  0  0  0  0  0  0  0  0  0  0
  1 11  1  0  0  0  0
  1 16  1  0  0  0  0
  2 10  2  0  0  0  0
  3 12  2  0  0  0  0
  4  8  1  0  0  0  0
  4 11  1  0  0  0  0
  4 13  1  0  0  0  0
  5  9  1  0  0  0  0
  5 12  1  0  0  0  0
  5 14  1  0  0  0  0
  6 10  1  0  0  0  0
  6 12  1  0  0  0  0
  6 15  1  0  0  0  0
  7  9  1  0  0  0  0
  7 11  2  0  0  0  0
  8  9  2  0  0  0  0
  8 10  1  0  0  0  0
 13 18  1  0  0  0  0
 13 19  1  0  0  0  0
 13 20  1  0  0  0  0
 14 21  1  0  0  0  0
 14 22  1  0  0  0  0
 14 23  1  0  0  0  0
 15 24  1  0  0  0  0
 15 25  1  0  0  0  0
 15 26  1  0  0  0  0
 16 17  1  0  0  0  0
 16 27  1  0  0  0  0
 16 28  1  0  0  0  0
 17 29  1  0  0  0  0
 17 30  1  0  0  0  0
 17 31  1  0  0  0  0
M  END
> <PUBCHEM_COMPOUND_CID>
11347

> <PUBCHEM_COMPOUND_CANONICALIZED>
1

> <PUBCHEM_CACTVS_COMPLEXITY>
348

> <PUBCHEM_CACTVS_HBOND_ACCEPTOR>
4

> <PUBCHEM_CACTVS_HBOND_DONOR>
0

> <PUBCHEM_CACTVS_ROTATABLE_BOND>
2

> <PUBCHEM_CACTVS_SUBSKEYS>
AAADccBzsAAAAAAAAAAAAAAAAAAAAWAAAAAsAAAAAAAAAFgBgAAAHgAAAAAACAihlgYDsBcMFACoAQdwdACAgC0HEKABUAGoVECASAhASCAcAIgIByJAAGAAAAAAAAAAAAAAAAAAAAAAAAAAAAAAAAAAAA==

> <PUBCHEM_IUPAC_OPENEYE_NAME>
8-ethoxy-1,3,7-trimethyl-purine-2,6-dione

> <PUBCHEM_IUPAC_CAS_NAME>
8-ethoxy-1,3,7-trimethylpurine-2,6-dione

> <PUBCHEM_IUPAC_NAME>
8-ethoxy-1,3,7-trimethylpurine-2,6-dione

> <PUBCHEM_IUPAC_SYSTEMATIC_NAME>
8-ethoxy-1,3,7-trimethyl-purine-2,6-dione

> <PUBCHEM_IUPAC_TRADITIONAL_NAME>
8-ethoxy-1,3,7-trimethyl-xanthine

> <PUBCHEM_IUPAC_INCHI>
InChI=1S/C10H14N4O3/c1-5-17-9-11-7-6(12(9)2)8(15)14(4)10(16)13(7)3/h5H2,1-4H3

> <PUBCHEM_IUPAC_INCHIKEY>
LCYXNYNRVOBSHK-UHFFFAOYSA-N

> <PUBCHEM_XLOGP3>
0.6

> <PUBCHEM_EXACT_MASS>
238.10659

> <PUBCHEM_MOLECULAR_FORMULA>
C10H14N4O3

> <PUBCHEM_MOLECULAR_WEIGHT>
238.24316

> <PUBCHEM_OPENEYE_CAN_SMILES>
CCOC1=NC2=C(N1C)C(=O)N(C(=O)N2C)C

> <PUBCHEM_OPENEYE_ISO_SMILES>
CCOC1=NC2=C(N1C)C(=O)N(C(=O)N2C)C

> <PUBCHEM_CACTVS_TPSA>
67.7

> <PUBCHEM_MONOISOTOPIC_WEIGHT>
238.10659

> <PUBCHEM_TOTAL_CHARGE>
0

> <PUBCHEM_HEAVY_ATOM_COUNT>
17

> <PUBCHEM_ATOM_DEF_STEREO_COUNT>
0

> <PUBCHEM_ATOM_UDEF_STEREO_COUNT>
0

> <PUBCHEM_BOND_DEF_STEREO_COUNT>
0

> <PUBCHEM_BOND_UDEF_STEREO_COUNT>
0

> <PUBCHEM_ISOTOPIC_ATOM_COUNT>
0

> <PUBCHEM_COMPONENT_COUNT>
1

> <PUBCHEM_CACTVS_TAUTO_COUNT>
1

> <PUBCHEM_COORDINATE_TYPE>
1
5
255

> <PUBCHEM_BONDANNOTATIONS>
4  11  8
4  8  8
5  12  8
5  9  8
6  10  8
6  12  8
7  11  8
7  9  8
8  10  8
8  9  8

$$$$

