11954135
  -OEChem-07051213073D

 23 24  0     0  0  0  0  0  0999 V2000
   -0.9291    0.1023   -2.8418 Cl  0  0  0  0  0  0  0  0  0  0  0  0
    3.1782   -2.7258    0.1484 Cl  0  0  0  0  0  0  0  0  0  0  0  0
    3.1769    2.7086    0.3418 Cl  0  0  0  0  0  0  0  0  0  0  0  0
   -4.2736   -0.0868    2.4225 Cl  0  0  0  0  0  0  0  0  0  0  0  0
    4.4017   -0.0120    0.3523 O   0  0  0  0  0  0  0  0  0  0  0  0
    0.2613   -0.0003    0.0022 C   0  0  0  0  0  0  0  0  0  0  0  0
   -1.1806    0.0039   -0.1177 C   0  0  0  0  0  0  0  0  0  0  0  0
    0.9562    1.2048    0.1033 C   0  0  0  0  0  0  0  0  0  0  0  0
    0.9563   -1.2095    0.0182 C   0  0  0  0  0  0  0  0  0  0  0  0
   -1.8189    0.0487   -1.3596 C   0  0  0  0  0  0  0  0  0  0  0  0
   -1.9433   -0.0380    1.0517 C   0  0  0  0  0  0  0  0  0  0  0  0
    2.3464   -1.2137    0.1352 C   0  0  0  0  0  0  0  0  0  0  0  0
    2.3462    1.2008    0.2203 C   0  0  0  0  0  0  0  0  0  0  0  0
    3.0414   -0.0084    0.2362 C   0  0  0  0  0  0  0  0  0  0  0  0
   -3.3364   -0.0352    0.9798 C   0  0  0  0  0  0  0  0  0  0  0  0
   -3.2120    0.0513   -1.4313 C   0  0  0  0  0  0  0  0  0  0  0  0
   -3.9707    0.0094   -0.2615 C   0  0  0  0  0  0  0  0  0  0  0  0
    0.4147    2.1490    0.0907 H   0  0  0  0  0  0  0  0  0  0  0  0
    0.4149   -2.1505   -0.0611 H   0  0  0  0  0  0  0  0  0  0  0  0
   -1.4538   -0.0730    2.0236 H   0  0  0  0  0  0  0  0  0  0  0  0
   -3.7225    0.0859   -2.3904 H   0  0  0  0  0  0  0  0  0  0  0  0
   -5.0554    0.0121   -0.3326 H   0  0  0  0  0  0  0  0  0  0  0  0
    4.7088   -0.9351    0.3459 H   0  0  0  0  0  0  0  0  0  0  0  0
  1 10  1  0  0  0  0
  2 12  1  0  0  0  0
  3 13  1  0  0  0  0
  4 15  1  0  0  0  0
  5 14  1  0  0  0  0
  5 23  1  0  0  0  0
  6  7  1  0  0  0  0
  6  8  2  0  0  0  0
  6  9  1  0  0  0  0
  7 10  2  0  0  0  0
  7 11  1  0  0  0  0
  8 13  1  0  0  0  0
  8 18  1  0  0  0  0
  9 12  2  0  0  0  0
  9 19  1  0  0  0  0
 10 16  1  0  0  0  0
 11 15  2  0  0  0  0
 11 20  1  0  0  0  0
 12 14  1  0  0  0  0
 13 14  2  0  0  0  0
 15 17  1  0  0  0  0
 16 17  2  0  0  0  0
 16 21  1  0  0  0  0
 17 22  1  0  0  0  0
M  END
> <PUBCHEM_COMPOUND_CID>
11954135

> <PUBCHEM_CONFORMER_RMSD>
0.6

> <PUBCHEM_CONFORMER_DIVERSEORDER>
1
2
3

> <PUBCHEM_MMFF94_PARTIAL_CHARGES>
21
1 -0.18
10 0.18
11 -0.15
12 0.18
13 0.18
14 0.08
15 0.18
16 -0.15
17 -0.15
18 0.15
19 0.15
2 -0.18
20 0.15
21 0.15
22 0.15
23 0.45
3 -0.18
4 -0.18
5 -0.53
8 -0.15
9 -0.15

> <PUBCHEM_EFFECTIVE_ROTOR_COUNT>
1

> <PUBCHEM_PHARMACOPHORE_FEATURES>
3
1 5 donor
6 6 8 9 12 13 14 rings
6 7 10 11 15 16 17 rings

> <PUBCHEM_HEAVY_ATOM_COUNT>
17

> <PUBCHEM_ATOM_DEF_STEREO_COUNT>
0

> <PUBCHEM_ATOM_UDEF_STEREO_COUNT>
0

> <PUBCHEM_BOND_DEF_STEREO_COUNT>
0

> <PUBCHEM_BOND_UDEF_STEREO_COUNT>
0

> <PUBCHEM_ISOTOPIC_ATOM_COUNT>
0

> <PUBCHEM_COMPONENT_COUNT>
1

> <PUBCHEM_CACTVS_TAUTO_COUNT>
2

> <PUBCHEM_CONFORMER_ID>
00B667D700000001

> <PUBCHEM_MMFF94_ENERGY>
45.8872

> <PUBCHEM_FEATURE_SELFOVERLAP>
15.223

> <PUBCHEM_SHAPE_FINGERPRINT>
11471102 20 18410862057757130128
11582403 64 16045137381509855156
11640471 11 17604429587528233136
11796584 16 16486140655271965498
12236239 1 17603871095892899959
12390115 104 17760919654990803752
12553582 1 18118966034430187262
13140716 1 18266186024493852618
13296908 3 17489867146177266403
13538477 17 17023765423788545015
13583140 156 18261392218110560161
14289901 80 18411142415905206881
15219456 202 18060706065236344053
15309172 13 18411139117059327435
15342168 16 18125440804549370180
15653759 3 17203333311897997465
15669948 3 16443638882633270597
15842332 3 17676777495611661471
16752209 62 15864359025792859141
16945 1 18410019836166242066
17357990 137 17313094254979801201
17844478 74 17917994992227109101
1813 80 17897154939630241846
18175812 5 17775289339429600229
18186145 218 18334854961991367252
19049666 15 17630624515667084661
19422 9 17748829587843981983
19784866 34 18118126870755702864
200 152 18261685821932457279
20279233 1 17775007898923605499
204376 136 18195813960085416040
20600515 1 16271940302323227589
20645476 183 17604158029883879287
20645477 70 18340499965988455399
20715346 28 17846781797502359971
21041028 32 18191300692444159160
21065201 7 16343709862626309963
212916 134 15140964031904898819
21486144 27 18343025449760397492
21639500 275 18264786388661675668
21756936 100 17679851623049908400
22112679 90 17240773864677829624
2255824 54 18333733516139606030
22943178 12 17846782922773326571
23402539 116 14707211049585557833
23526113 38 17915758654475109010
23557571 272 17060345140673559325
23559900 14 16558199318614188050
23598291 2 17749112145068328028
31174 14 18342734130850578258
458136 41 18269825437798804364
474 4 18044105561761505568
602551 16 16343697699373919168
6049 1 17846497075314167437
621550 5 17773015665479533814
7615 1 17603598425583451873
77492 1 17603873294873951061
81228 2 16970574676685122314
8272917 22 18261389000884792711
9981440 41 16234524789445740248

> <PUBCHEM_SHAPE_MULTIPOLES>
351.46
7.91
1.91
1.89
1.44
0.02
-0.82
0.08
3.09
-3.62
0.31
2.79
-0.04
0.17

> <PUBCHEM_SHAPE_SELFOVERLAP>
728.125

> <PUBCHEM_SHAPE_VOLUME>
205.2

> <PUBCHEM_COORDINATE_TYPE>
2
5
10

$$$$

