440071
  -OEChem-07051212482D

 82 85  0     1  0  0  0  0  0999 V2000
    3.4022   -3.7976    0.0000 S   0  0  0  0  0  0  0  0  0  0  0  0
   15.7623    3.6831    0.0000 S   0  0  0  0  0  0  0  0  0  0  0  0
    4.2663   -4.3009    0.0000 O   0  0  0  0  0  0  0  0  0  0  0  0
    2.5381   -3.2942    0.0000 O   0  0  0  0  0  0  0  0  0  0  0  0
    2.8989   -4.6616    0.0000 O   0  0  0  0  0  0  0  0  0  0  0  0
    3.9056   -2.9335    0.0000 O   0  0  0  0  0  0  0  0  0  0  0  0
   13.8518    0.6254    0.0000 O   0  0  0  0  0  0  0  0  0  0  0  0
   16.7408    3.8894    0.0000 O   0  0  0  0  0  0  0  0  0  0  0  0
   15.5561    4.6616    0.0000 O   0  0  0  0  0  0  0  0  0  0  0  0
   15.9685    2.7046    0.0000 O   0  0  0  0  0  0  0  0  0  0  0  0
   13.4946    2.3202    0.0000 N   0  0  0  0  0  0  0  0  0  0  0  0
    9.6594   -1.2486    0.0000 C   0  0  1  0  0  0  0  0  0  0  0  0
    9.6594   -2.2486    0.0000 C   0  0  2  0  0  0  0  0  0  0  0  0
    8.7934   -2.7486    0.0000 C   0  0  1  0  0  0  0  0  0  0  0  0
    7.9273   -2.2486    0.0000 C   0  0  1  0  0  0  0  0  0  0  0  0
    7.0173   -2.7554    0.0000 C   0  0  2  0  0  0  0  0  0  0  0  0
   10.6056   -0.9438    0.0000 C   0  0  2  0  0  0  0  0  0  0  0  0
    7.0093   -3.7970    0.0000 C   0  0  2  0  0  0  0  0  0  0  0  0
    8.7934   -0.7486    0.0000 C   0  0  0  0  0  0  0  0  0  0  0  0
    7.9273   -1.2486    0.0000 C   0  0  0  0  0  0  0  0  0  0  0  0
   10.6056   -2.5533    0.0000 C   0  0  0  0  0  0  0  0  0  0  0  0
    8.8094   -3.7901    0.0000 C   0  0  0  0  0  0  0  0  0  0  0  0
   11.1892   -1.7486    0.0000 C   0  0  0  0  0  0  0  0  0  0  0  0
    7.9114   -4.3178    0.0000 C   0  0  0  0  0  0  0  0  0  0  0  0
    6.0905   -2.1913    0.0000 C   0  0  0  0  0  0  0  0  0  0  0  0
    9.6594   -0.2486    0.0000 C   0  0  0  0  0  0  0  0  0  0  0  0
   10.9163    0.0067    0.0000 C   0  0  1  0  0  0  0  0  0  0  0  0
    6.0739   -4.3467    0.0000 C   0  0  0  0  0  0  0  0  0  0  0  0
    7.0250   -1.7554    0.0000 C   0  0  0  0  0  0  0  0  0  0  0  0
    5.1426   -2.7193    0.0000 C   0  0  0  0  0  0  0  0  0  0  0  0
    5.1343   -3.8042    0.0000 C   0  0  1  0  0  0  0  0  0  0  0  0
   11.8948    0.2129    0.0000 C   0  0  0  0  0  0  0  0  0  0  0  0
   10.2484    0.7510    0.0000 C   0  0  0  0  0  0  0  0  0  0  0  0
   12.2054    1.1634    0.0000 C   0  0  0  0  0  0  0  0  0  0  0  0
   13.1840    1.3697    0.0000 C   0  0  0  0  0  0  0  0  0  0  0  0
   14.4731    2.5264    0.0000 C   0  0  0  0  0  0  0  0  0  0  0  0
   14.7838    3.4769    0.0000 C   0  0  0  0  0  0  0  0  0  0  0  0
    9.7493   -3.0938    0.0000 H   0  0  0  0  0  0  0  0  0  0  0  0
    9.5328   -3.1679    0.0000 H   0  0  0  0  0  0  0  0  0  0  0  0
    8.6635   -1.8236    0.0000 H   0  0  0  0  0  0  0  0  0  0  0  0
   11.4453   -0.8119    0.0000 H   0  0  0  0  0  0  0  0  0  0  0  0
    7.0126   -4.6470    0.0000 H   0  0  0  0  0  0  0  0  0  0  0  0
    9.1919   -0.2736    0.0000 H   0  0  0  0  0  0  0  0  0  0  0  0
    8.3948   -0.2736    0.0000 H   0  0  0  0  0  0  0  0  0  0  0  0
    7.7153   -0.6659    0.0000 H   0  0  0  0  0  0  0  0  0  0  0  0
    7.3168   -1.3562    0.0000 H   0  0  0  0  0  0  0  0  0  0  0  0
   10.3546   -3.1202    0.0000 H   0  0  0  0  0  0  0  0  0  0  0  0
   11.1430   -2.8625    0.0000 H   0  0  0  0  0  0  0  0  0  0  0  0
    9.0275   -4.3705    0.0000 H   0  0  0  0  0  0  0  0  0  0  0  0
    9.4186   -3.6746    0.0000 H   0  0  0  0  0  0  0  0  0  0  0  0
   11.6501   -2.1633    0.0000 H   0  0  0  0  0  0  0  0  0  0  0  0
   11.6501   -1.3338    0.0000 H   0  0  0  0  0  0  0  0  0  0  0  0
    7.5141   -4.7938    0.0000 H   0  0  0  0  0  0  0  0  0  0  0  0
    8.3124   -4.7907    0.0000 H   0  0  0  0  0  0  0  0  0  0  0  0
    6.4987   -1.7247    0.0000 H   0  0  0  0  0  0  0  0  0  0  0  0
    5.7006   -1.7093    0.0000 H   0  0  0  0  0  0  0  0  0  0  0  0
   10.2794   -0.2486    0.0000 H   0  0  0  0  0  0  0  0  0  0  0  0
    9.6594    0.3714    0.0000 H   0  0  0  0  0  0  0  0  0  0  0  0
    9.0394   -0.2486    0.0000 H   0  0  0  0  0  0  0  0  0  0  0  0
   10.3096   -0.1212    0.0000 H   0  0  0  0  0  0  0  0  0  0  0  0
    5.6766   -4.8227    0.0000 H   0  0  0  0  0  0  0  0  0  0  0  0
    6.4748   -4.8196    0.0000 H   0  0  0  0  0  0  0  0  0  0  0  0
    7.6450   -1.7602    0.0000 H   0  0  0  0  0  0  0  0  0  0  0  0
    7.0298   -1.1354    0.0000 H   0  0  0  0  0  0  0  0  0  0  0  0
    6.4051   -1.7506    0.0000 H   0  0  0  0  0  0  0  0  0  0  0  0
    4.9381   -2.1340    0.0000 H   0  0  0  0  0  0  0  0  0  0  0  0
    4.5310   -2.8206    0.0000 H   0  0  0  0  0  0  0  0  0  0  0  0
    4.5991   -3.4911    0.0000 H   0  0  0  0  0  0  0  0  0  0  0  0
   11.9153   -0.4067    0.0000 H   0  0  0  0  0  0  0  0  0  0  0  0
   12.5086    0.1256    0.0000 H   0  0  0  0  0  0  0  0  0  0  0  0
   10.7099    1.1651    0.0000 H   0  0  0  0  0  0  0  0  0  0  0  0
    9.8344    1.2125    0.0000 H   0  0  0  0  0  0  0  0  0  0  0  0
    9.7870    0.3369    0.0000 H   0  0  0  0  0  0  0  0  0  0  0  0
   12.1849    1.7831    0.0000 H   0  0  0  0  0  0  0  0  0  0  0  0
   11.5916    1.2508    0.0000 H   0  0  0  0  0  0  0  0  0  0  0  0
   13.0806    2.7816    0.0000 H   0  0  0  0  0  0  0  0  0  0  0  0
    2.0000   -3.6021    0.0000 H   0  0  0  0  0  0  0  0  0  0  0  0
   14.4937    1.9067    0.0000 H   0  0  0  0  0  0  0  0  0  0  0  0
   15.0869    2.4390    0.0000 H   0  0  0  0  0  0  0  0  0  0  0  0
   14.7632    4.0966    0.0000 H   0  0  0  0  0  0  0  0  0  0  0  0
   14.1700    3.5643    0.0000 H   0  0  0  0  0  0  0  0  0  0  0  0
   16.9334    4.4787    0.0000 H   0  0  0  0  0  0  0  0  0  0  0  0
  1  3  1  0  0  0  0
  1  4  1  0  0  0  0
  1  5  2  0  0  0  0
  1  6  2  0  0  0  0
  2  8  1  0  0  0  0
  2  9  2  0  0  0  0
  2 10  2  0  0  0  0
  2 37  1  0  0  0  0
 31  3  1  6  0  0  0
  4 77  1  0  0  0  0
  7 35  2  0  0  0  0
  8 82  1  0  0  0  0
 11 35  1  0  0  0  0
 11 36  1  0  0  0  0
 11 76  1  0  0  0  0
 12 13  1  0  0  0  0
 12 17  1  0  0  0  0
 12 19  1  0  0  0  0
 12 26  1  1  0  0  0
 13 14  1  0  0  0  0
 13 21  1  0  0  0  0
 13 38  1  6  0  0  0
 14 15  1  0  0  0  0
 14 22  1  0  0  0  0
 14 39  1  1  0  0  0
 15 16  1  0  0  0  0
 15 20  1  0  0  0  0
 15 40  1  6  0  0  0
 16 18  1  0  0  0  0
 16 25  1  0  0  0  0
 16 29  1  1  0  0  0
 17 23  1  0  0  0  0
 17 27  1  0  0  0  0
 17 41  1  6  0  0  0
 18 24  1  0  0  0  0
 18 28  1  0  0  0  0
 18 42  1  1  0  0  0
 19 20  1  0  0  0  0
 19 43  1  0  0  0  0
 19 44  1  0  0  0  0
 20 45  1  0  0  0  0
 20 46  1  0  0  0  0
 21 23  1  0  0  0  0
 21 47  1  0  0  0  0
 21 48  1  0  0  0  0
 22 24  1  0  0  0  0
 22 49  1  0  0  0  0
 22 50  1  0  0  0  0
 23 51  1  0  0  0  0
 23 52  1  0  0  0  0
 24 53  1  0  0  0  0
 24 54  1  0  0  0  0
 25 30  1  0  0  0  0
 25 55  1  0  0  0  0
 25 56  1  0  0  0  0
 26 57  1  0  0  0  0
 26 58  1  0  0  0  0
 26 59  1  0  0  0  0
 27 32  1  0  0  0  0
 27 33  1  6  0  0  0
 27 60  1  0  0  0  0
 28 31  1  0  0  0  0
 28 61  1  0  0  0  0
 28 62  1  0  0  0  0
 29 63  1  0  0  0  0
 29 64  1  0  0  0  0
 29 65  1  0  0  0  0
 30 31  1  0  0  0  0
 30 66  1  0  0  0  0
 30 67  1  0  0  0  0
 31 68  1  0  0  0  0
 32 34  1  0  0  0  0
 32 69  1  0  0  0  0
 32 70  1  0  0  0  0
 33 71  1  0  0  0  0
 33 72  1  0  0  0  0
 33 73  1  0  0  0  0
 34 35  1  0  0  0  0
 34 74  1  0  0  0  0
 34 75  1  0  0  0  0
 36 37  1  0  0  0  0
 36 78  1  0  0  0  0
 36 79  1  0  0  0  0
 37 80  1  0  0  0  0
 37 81  1  0  0  0  0
M  END
> <PUBCHEM_COMPOUND_CID>
440071

> <PUBCHEM_COMPOUND_CANONICALIZED>
1

> <PUBCHEM_CACTVS_COMPLEXITY>
1050

> <PUBCHEM_CACTVS_HBOND_ACCEPTOR>
8

> <PUBCHEM_CACTVS_HBOND_DONOR>
3

> <PUBCHEM_CACTVS_ROTATABLE_BOND>
9

> <PUBCHEM_CACTVS_SUBSKEYS>
AAADcfB6PABgAAAAAAAAAAAAAAAAAYAAAAAwYMAAAAAAAGDAAAAAHgQQCAAADxTlwAaCAALAAIIIAAEQEHBAAAAAAAAAAIEIAAAAABIAgAAEAAAEFgCAAAGYyPCPgAAAAAAAAADAAAYAACAAAQAACAAAAA==

> <PUBCHEM_IUPAC_OPENEYE_NAME>
2-[[(4R)-4-[(3R,5R,8R,9S,10S,13R,14S,17R)-10,13-dimethyl-3-sulfooxy-2,3,4,5,6,7,8,9,11,12,14,15,16,17-tetradecahydro-1H-cyclopenta[a]phenanthren-17-yl]pentanoyl]amino]ethanesulfonic acid

> <PUBCHEM_IUPAC_CAS_NAME>
2-[[(4R)-4-[(3R,5R,8R,9S,10S,13R,14S,17R)-10,13-dimethyl-3-sulfooxy-2,3,4,5,6,7,8,9,11,12,14,15,16,17-tetradecahydro-1H-cyclopenta[a]phenanthren-17-yl]-1-oxopentyl]amino]ethanesulfonic acid

> <PUBCHEM_IUPAC_NAME>
2-[[(4R)-4-[(3R,5R,8R,9S,10S,13R,14S,17R)-10,13-dimethyl-3-sulfooxy-2,3,4,5,6,7,8,9,11,12,14,15,16,17-tetradecahydro-1H-cyclopenta[a]phenanthren-17-yl]pentanoyl]amino]ethanesulfonic acid

> <PUBCHEM_IUPAC_SYSTEMATIC_NAME>
2-[[(4R)-4-[(3R,5R,8R,9S,10S,13R,14S,17R)-10,13-dimethyl-3-sulfooxy-2,3,4,5,6,7,8,9,11,12,14,15,16,17-tetradecahydro-1H-cyclopenta[a]phenanthren-17-yl]pentanoyl]amino]ethanesulfonic acid

> <PUBCHEM_IUPAC_TRADITIONAL_NAME>
2-[[(4R)-4-[(3R,5R,8R,9S,10S,13R,14S,17R)-10,13-dimethyl-3-sulfoxy-2,3,4,5,6,7,8,9,11,12,14,15,16,17-tetradecahydro-1H-cyclopenta[a]phenanthren-17-yl]pentanoyl]amino]ethanesulfonic acid

> <PUBCHEM_IUPAC_INCHI>
InChI=1S/C26H45NO8S2/c1-17(4-9-24(28)27-14-15-36(29,30)31)21-7-8-22-20-6-5-18-16-19(35-37(32,33)34)10-12-25(18,2)23(20)11-13-26(21,22)3/h17-23H,4-16H2,1-3H3,(H,27,28)(H,29,30,31)(H,32,33,34)/t17-,18-,19-,20+,21-,22+,23+,25+,26-/m1/s1

> <PUBCHEM_IUPAC_INCHIKEY>
HSNPMXROZIQAQD-GBURMNQMSA-N

> <PUBCHEM_XLOGP3_AA>
4.5

> <PUBCHEM_EXACT_MASS>
563.258659

> <PUBCHEM_MOLECULAR_FORMULA>
C26H45NO8S2

> <PUBCHEM_MOLECULAR_WEIGHT>
563.7674

> <PUBCHEM_OPENEYE_CAN_SMILES>
CC(CCC(=O)NCCS(=O)(=O)O)C1CCC2C1(CCC3C2CCC4C3(CCC(C4)OS(=O)(=O)O)C)C

> <PUBCHEM_OPENEYE_ISO_SMILES>
C[C@H](CCC(=O)NCCS(=O)(=O)O)[C@H]1CC[C@@H]2[C@@]1(CC[C@H]3[C@H]2CC[C@H]4[C@@]3(CC[C@H](C4)OS(=O)(=O)O)C)C

> <PUBCHEM_CACTVS_TPSA>
164

> <PUBCHEM_MONOISOTOPIC_WEIGHT>
563.258659

> <PUBCHEM_TOTAL_CHARGE>
0

> <PUBCHEM_HEAVY_ATOM_COUNT>
37

> <PUBCHEM_ATOM_DEF_STEREO_COUNT>
9

> <PUBCHEM_ATOM_UDEF_STEREO_COUNT>
0

> <PUBCHEM_BOND_DEF_STEREO_COUNT>
0

> <PUBCHEM_BOND_UDEF_STEREO_COUNT>
0

> <PUBCHEM_ISOTOPIC_ATOM_COUNT>
0

> <PUBCHEM_COMPONENT_COUNT>
1

> <PUBCHEM_CACTVS_TAUTO_COUNT>
2

> <PUBCHEM_COORDINATE_TYPE>
1
5
255

> <PUBCHEM_BONDANNOTATIONS>
12  26  5
13  38  6
14  39  5
15  40  6
16  29  5
17  41  6
18  42  5
27  33  6
31  3  6

$$$$

