94744
  -OEChem-07051212482D

 19 18  0     1  0  0  0  0  0999 V2000
    5.2320   -0.1900    0.0000 O   0  0  0  0  0  0  0  0  0  0  0  0
    4.3660    1.3100    0.0000 O   0  0  0  0  0  0  0  0  0  0  0  0
    2.6340   -0.6900    0.0000 N   0  0  0  0  0  0  0  0  0  0  0  0
    3.5000   -0.1900    0.0000 C   0  0  3  0  0  0  0  0  0  0  0  0
    3.0000    0.6760    0.0000 C   0  0  0  0  0  0  0  0  0  0  0  0
    4.0000   -1.0560    0.0000 C   0  0  0  0  0  0  0  0  0  0  0  0
    2.0000    0.6760    0.0000 C   0  0  0  0  0  0  0  0  0  0  0  0
    4.3660    0.3100    0.0000 C   0  0  0  0  0  0  0  0  0  0  0  0
    3.5826    0.8881    0.0000 H   0  0  0  0  0  0  0  0  0  0  0  0
    2.8923    1.2866    0.0000 H   0  0  0  0  0  0  0  0  0  0  0  0
    3.4631   -1.3660    0.0000 H   0  0  0  0  0  0  0  0  0  0  0  0
    4.3100   -1.5930    0.0000 H   0  0  0  0  0  0  0  0  0  0  0  0
    4.5369   -0.7460    0.0000 H   0  0  0  0  0  0  0  0  0  0  0  0
    2.0000    1.2960    0.0000 H   0  0  0  0  0  0  0  0  0  0  0  0
    1.3800    0.6760    0.0000 H   0  0  0  0  0  0  0  0  0  0  0  0
    2.0000    0.0560    0.0000 H   0  0  0  0  0  0  0  0  0  0  0  0
    2.0970   -0.3800    0.0000 H   0  0  0  0  0  0  0  0  0  0  0  0
    2.6340   -1.3100    0.0000 H   0  0  0  0  0  0  0  0  0  0  0  0
    5.7690    0.1200    0.0000 H   0  0  0  0  0  0  0  0  0  0  0  0
  1  8  1  0  0  0  0
  1 19  1  0  0  0  0
  2  8  2  0  0  0  0
  3  4  1  0  0  0  0
  3 17  1  0  0  0  0
  3 18  1  0  0  0  0
  4  5  1  0  0  0  0
  4  6  1  0  0  0  0
  4  8  1  0  0  0  0
  5  7  1  0  0  0  0
  5  9  1  0  0  0  0
  5 10  1  0  0  0  0
  6 11  1  0  0  0  0
  6 12  1  0  0  0  0
  6 13  1  0  0  0  0
  7 14  1  0  0  0  0
  7 15  1  0  0  0  0
  7 16  1  0  0  0  0
M  END
> <PUBCHEM_COMPOUND_CID>
94744

> <PUBCHEM_COMPOUND_CANONICALIZED>
1

> <PUBCHEM_CACTVS_COMPLEXITY>
103

> <PUBCHEM_CACTVS_HBOND_ACCEPTOR>
3

> <PUBCHEM_CACTVS_HBOND_DONOR>
2

> <PUBCHEM_CACTVS_ROTATABLE_BOND>
2

> <PUBCHEM_CACTVS_SUBSKEYS>
AAADccBiMAAAAAAAAAAAAAAAAAAAAAAAAAAAAAAAAAAAAAAAAAAAHgAQCAAADIiBgAACCABAAgAIAACQCAAAAAAAAAAAAAGAAAACABAAAAAAQAAEEAAAAAAAAAAIAAAAAAAAAAAAAAAAAAAAAAAAAAAAAA==

> <PUBCHEM_IUPAC_OPENEYE_NAME>
2-amino-2-methyl-butanoic acid

> <PUBCHEM_IUPAC_CAS_NAME>
2-amino-2-methylbutanoic acid

> <PUBCHEM_IUPAC_NAME>
2-amino-2-methylbutanoic acid

> <PUBCHEM_IUPAC_SYSTEMATIC_NAME>
2-azanyl-2-methyl-butanoic acid

> <PUBCHEM_IUPAC_TRADITIONAL_NAME>
2-amino-2-methyl-butyric acid

> <PUBCHEM_IUPAC_INCHI>
InChI=1S/C5H11NO2/c1-3-5(2,6)4(7)8/h3,6H2,1-2H3,(H,7,8)

> <PUBCHEM_IUPAC_INCHIKEY>
GCHPUFAZSONQIV-UHFFFAOYSA-N

> <PUBCHEM_XLOGP3_AA>
-2.3

> <PUBCHEM_EXACT_MASS>
117.078979

> <PUBCHEM_MOLECULAR_FORMULA>
C5H11NO2

> <PUBCHEM_MOLECULAR_WEIGHT>
117.14634

> <PUBCHEM_OPENEYE_CAN_SMILES>
CCC(C)(C(=O)O)N

> <PUBCHEM_OPENEYE_ISO_SMILES>
CCC(C)(C(=O)O)N

> <PUBCHEM_CACTVS_TPSA>
63.3

> <PUBCHEM_MONOISOTOPIC_WEIGHT>
117.078979

> <PUBCHEM_TOTAL_CHARGE>
0

> <PUBCHEM_HEAVY_ATOM_COUNT>
8

> <PUBCHEM_ATOM_DEF_STEREO_COUNT>
0

> <PUBCHEM_ATOM_UDEF_STEREO_COUNT>
1

> <PUBCHEM_BOND_DEF_STEREO_COUNT>
0

> <PUBCHEM_BOND_UDEF_STEREO_COUNT>
0

> <PUBCHEM_ISOTOPIC_ATOM_COUNT>
0

> <PUBCHEM_COMPONENT_COUNT>
1

> <PUBCHEM_CACTVS_TAUTO_COUNT>
1

> <PUBCHEM_COORDINATE_TYPE>
1
5
255

> <PUBCHEM_BONDANNOTATIONS>
4  3  3

$$$$

