157225
  -OEChem-07051212533D

 49 52  0     1  0  0  0  0  0999 V2000
    4.5151   -1.4227    1.3856 O   0  0  0  0  0  0  0  0  0  0  0  0
    0.2128    1.1766   -2.6638 O   0  0  0  0  0  0  0  0  0  0  0  0
   -3.8195   -2.6549   -0.3715 O   0  0  0  0  0  0  0  0  0  0  0  0
    1.3922   -0.1196    0.6379 N   0  0  2  0  0  0  0  0  0  0  0  0
   -2.8063    2.6162    0.9524 N   0  0  0  0  0  0  0  0  0  0  0  0
    3.3438   -1.1463   -0.7307 C   0  0  2  0  0  0  0  0  0  0  0  0
    1.4557    0.5122   -0.7074 C   0  0  1  0  0  0  0  0  0  0  0  0
    3.8814   -0.4495    0.5484 C   0  0  1  0  0  0  0  0  0  0  0  0
    2.5377   -0.1511   -1.5874 C   0  0  0  0  0  0  0  0  0  0  0  0
    2.3375   -2.2349   -0.3006 C   0  0  0  0  0  0  0  0  0  0  0  0
    2.6815    0.1433    1.3322 C   0  0  0  0  0  0  0  0  0  0  0  0
    1.2189   -1.5853    0.5278 C   0  0  0  0  0  0  0  0  0  0  0  0
    0.0919    0.5278   -1.4018 C   0  0  1  0  0  0  0  0  0  0  0  0
    4.9101    0.5972    0.2309 C   0  0  0  0  0  0  0  0  0  0  0  0
   -0.9518    1.2325   -0.5724 C   0  0  0  0  0  0  0  0  0  0  0  0
    6.1804    0.5483    0.6458 C   0  0  0  0  0  0  0  0  0  0  0  0
   -2.1180    0.5898   -0.1556 C   0  0  0  0  0  0  0  0  0  0  0  0
   -0.7060    2.5505   -0.2364 C   0  0  0  0  0  0  0  0  0  0  0  0
   -3.0343    1.3318    0.6189 C   0  0  0  0  0  0  0  0  0  0  0  0
   -2.3880   -0.7493   -0.4849 C   0  0  0  0  0  0  0  0  0  0  0  0
   -1.6609    3.1945    0.5239 C   0  0  0  0  0  0  0  0  0  0  0  0
   -4.2004    0.6978    1.0394 C   0  0  0  0  0  0  0  0  0  0  0  0
   -3.5620   -1.3584   -0.0510 C   0  0  0  0  0  0  0  0  0  0  0  0
   -4.4692   -0.6335    0.7120 C   0  0  0  0  0  0  0  0  0  0  0  0
   -5.0424   -3.2127    0.1081 C   0  0  0  0  0  0  0  0  0  0  0  0
    4.1524   -1.6057   -1.3107 H   0  0  0  0  0  0  0  0  0  0  0  0
    1.7796    1.5543   -0.5786 H   0  0  0  0  0  0  0  0  0  0  0  0
    3.1949    0.6121   -2.0192 H   0  0  0  0  0  0  0  0  0  0  0  0
    2.1030   -0.6999   -2.4314 H   0  0  0  0  0  0  0  0  0  0  0  0
    2.8286   -3.0304    0.2701 H   0  0  0  0  0  0  0  0  0  0  0  0
    1.9069   -2.7132   -1.1894 H   0  0  0  0  0  0  0  0  0  0  0  0
    2.6242   -0.2605    2.3516 H   0  0  0  0  0  0  0  0  0  0  0  0
    2.7848    1.2286    1.4647 H   0  0  0  0  0  0  0  0  0  0  0  0
    0.2446   -1.8394    0.1029 H   0  0  0  0  0  0  0  0  0  0  0  0
    1.2054   -2.0241    1.5339 H   0  0  0  0  0  0  0  0  0  0  0  0
   -0.1737   -0.4953   -1.6557 H   0  0  0  0  0  0  0  0  0  0  0  0
    4.6017    1.4583   -0.3565 H   0  0  0  0  0  0  0  0  0  0  0  0
    3.8348   -1.9618    1.8214 H   0  0  0  0  0  0  0  0  0  0  0  0
    0.6640    0.5764   -3.2799 H   0  0  0  0  0  0  0  0  0  0  0  0
    6.8617    1.3512    0.3816 H   0  0  0  0  0  0  0  0  0  0  0  0
    6.5879   -0.2598    1.2410 H   0  0  0  0  0  0  0  0  0  0  0  0
    0.1782    3.0886   -0.5568 H   0  0  0  0  0  0  0  0  0  0  0  0
   -1.7341   -1.3688   -1.0852 H   0  0  0  0  0  0  0  0  0  0  0  0
   -1.5317    4.2309    0.8179 H   0  0  0  0  0  0  0  0  0  0  0  0
   -4.9264    1.2449    1.6384 H   0  0  0  0  0  0  0  0  0  0  0  0
   -5.4036   -1.0380    1.0862 H   0  0  0  0  0  0  0  0  0  0  0  0
   -5.0832   -4.2501   -0.2400 H   0  0  0  0  0  0  0  0  0  0  0  0
   -5.9121   -2.6985   -0.3148 H   0  0  0  0  0  0  0  0  0  0  0  0
   -5.0693   -3.2411    1.2027 H   0  0  0  0  0  0  0  0  0  0  0  0
  1  8  1  0  0  0  0
  1 38  1  0  0  0  0
  2 13  1  0  0  0  0
  2 39  1  0  0  0  0
  3 23  1  0  0  0  0
  3 25  1  0  0  0  0
  4  7  1  0  0  0  0
  4 11  1  0  0  0  0
  4 12  1  0  0  0  0
  5 19  2  0  0  0  0
  5 21  1  0  0  0  0
  6  8  1  0  0  0  0
  6  9  1  0  0  0  0
  6 10  1  0  0  0  0
  6 26  1  0  0  0  0
  7  9  1  0  0  0  0
  7 13  1  0  0  0  0
  7 27  1  0  0  0  0
  8 11  1  0  0  0  0
  8 14  1  0  0  0  0
  9 28  1  0  0  0  0
  9 29  1  0  0  0  0
 10 12  1  0  0  0  0
 10 30  1  0  0  0  0
 10 31  1  0  0  0  0
 11 32  1  0  0  0  0
 11 33  1  0  0  0  0
 12 34  1  0  0  0  0
 12 35  1  0  0  0  0
 13 15  1  0  0  0  0
 13 36  1  0  0  0  0
 14 16  2  0  0  0  0
 14 37  1  0  0  0  0
 15 17  2  0  0  0  0
 15 18  1  0  0  0  0
 16 40  1  0  0  0  0
 16 41  1  0  0  0  0
 17 19  1  0  0  0  0
 17 20  1  0  0  0  0
 18 21  2  0  0  0  0
 18 42  1  0  0  0  0
 19 22  1  0  0  0  0
 20 23  2  0  0  0  0
 20 43  1  0  0  0  0
 21 44  1  0  0  0  0
 22 24  2  0  0  0  0
 22 45  1  0  0  0  0
 23 24  1  0  0  0  0
 24 46  1  0  0  0  0
 25 47  1  0  0  0  0
 25 48  1  0  0  0  0
 25 49  1  0  0  0  0
M  END
> <PUBCHEM_COMPOUND_CID>
157225

> <PUBCHEM_CONFORMER_RMSD>
0.8

> <PUBCHEM_CONFORMER_DIVERSEORDER>
1
5
2
4
6
3

> <PUBCHEM_MMFF94_PARTIAL_CHARGES>
31
1 -0.68
11 0.27
12 0.27
13 0.42
14 -0.29
15 -0.14
16 -0.3
18 -0.15
19 0.31
2 -0.68
20 -0.15
21 0.16
22 -0.15
23 0.08
24 -0.15
25 0.28
3 -0.36
37 0.15
38 0.4
39 0.4
4 -0.81
40 0.15
41 0.15
42 0.15
43 0.15
44 0.15
45 0.15
46 0.15
5 -0.62
7 0.27
8 0.42

> <PUBCHEM_EFFECTIVE_ROTOR_COUNT>
5.2

> <PUBCHEM_PHARMACOPHORE_FEATURES>
11
1 1 acceptor
1 1 donor
1 16 hydrophobe
1 2 acceptor
1 2 donor
1 3 acceptor
1 4 cation
1 5 acceptor
6 17 19 20 22 23 24 rings
6 5 15 17 18 19 21 rings
8 4 6 7 8 9 10 11 12 rings

> <PUBCHEM_HEAVY_ATOM_COUNT>
25

> <PUBCHEM_ATOM_DEF_STEREO_COUNT>
4

> <PUBCHEM_ATOM_UDEF_STEREO_COUNT>
0

> <PUBCHEM_BOND_DEF_STEREO_COUNT>
0

> <PUBCHEM_BOND_UDEF_STEREO_COUNT>
0

> <PUBCHEM_ISOTOPIC_ATOM_COUNT>
0

> <PUBCHEM_COMPONENT_COUNT>
1

> <PUBCHEM_CACTVS_TAUTO_COUNT>
1

> <PUBCHEM_CONFORMER_ID>
0002662900000001

> <PUBCHEM_MMFF94_ENERGY>
98.051

> <PUBCHEM_FEATURE_SELFOVERLAP>
55.849

> <PUBCHEM_SHAPE_FINGERPRINT>
10319926 262 18189344644363592498
10366900 7 17968112931160018137
10369192 42 17822295635746974180
11265709 11 18337391522721648047
11370993 144 17168693271416871395
11552529 35 18335988669773960977
11578080 2 18060151911735499573
12166972 35 17844815789297883455
12236239 1 17989201564275739681
12553582 1 18338219485000053535
12633257 1 17679858486301678275
128238 76 18338233748475550364
13224815 77 17917425479721836880
13544653 18 18131352994519441167
13583140 156 17822021942221894408
13911987 19 15265903655661887558
14081887 123 18335424603245041833
14178342 30 18268711791180339260
14223421 5 18263364861734106156
14289901 80 18337669823401081072
14341114 176 18261105322442244168
14341114 328 18409163320845598000
14787075 74 18271243807693276824
15183329 4 9151180852750458088
15415430 10 18343023246600638055
15788980 27 16487254408720760526
15927050 60 17109877847452918596
17349148 13 17418088832603934730
1813 80 17703778258526390101
19377110 9 18271817821946494944
19862831 5 7060082325322324968
200 152 15985104136880040196
20511986 3 17774451593458917777
20567600 70 18124878958703074803
20626108 58 17702957920015583239
21033648 29 16515693289736854352
21421861 104 18047737210434791283
21673915 165 18411136952359042994
21756936 100 17968394377084735920
21796203 349 17836051534863037979
22122407 14 15285352925625307155
23366157 5 17908975518689721693
23402539 116 17489591177301058952
23557571 272 18114456842174330049
23559900 14 17898545799652314493
339767 52 18342178852014865071
392239 28 18410008806421539048
463206 1 18051972524746401067
5104073 3 18262245529402011042
5312544 6 18055064368496872244
602551 16 18335415798551775626
6287921 2 18340474677700590542
6442390 28 18333733494839083166

> <PUBCHEM_SHAPE_MULTIPOLES>
486.92
10.87
3
1.4
4.89
0.03
-0.59
-4.64
3.77
-4.05
0.26
0.68
0.29
-0.54

> <PUBCHEM_SHAPE_SELFOVERLAP>
1066.395

> <PUBCHEM_SHAPE_VOLUME>
259.1

> <PUBCHEM_COORDINATE_TYPE>
2
5
10

$$$$

