439736
  -OEChem-07051212473D

 21 20  0     1  0  0  0  0  0999 V2000
    0.3274   -0.6465    1.4532 O   0  0  0  0  0  0  0  0  0  0  0  0
    1.8036    1.3651   -1.1100 O   0  0  0  0  0  0  0  0  0  0  0  0
    2.5335    0.7428    0.9487 O   0  0  0  0  0  0  0  0  0  0  0  0
   -2.8893    0.5497   -1.0207 O   0  0  0  0  0  0  0  0  0  0  0  0
   -2.5440   -0.4302    1.0052 O   0  0  0  0  0  0  0  0  0  0  0  0
    0.3647   -0.0578    0.1541 C   0  0  1  0  0  0  0  0  0  0  0  0
    0.3063   -1.1834   -0.8955 C   0  0  0  0  0  0  0  0  0  0  0  0
   -0.8002    0.9366    0.0168 C   0  0  0  0  0  0  0  0  0  0  0  0
    1.3725   -2.2599   -0.7092 C   0  0  0  0  0  0  0  0  0  0  0  0
    1.6810    0.7080    0.0716 C   0  0  0  0  0  0  0  0  0  0  0  0
   -2.1554    0.2755    0.0856 C   0  0  0  0  0  0  0  0  0  0  0  0
    0.3925   -0.7672   -1.9064 H   0  0  0  0  0  0  0  0  0  0  0  0
   -0.6625   -1.6941   -0.8409 H   0  0  0  0  0  0  0  0  0  0  0  0
   -0.7260    1.4862   -0.9298 H   0  0  0  0  0  0  0  0  0  0  0  0
   -0.7746    1.6879    0.8162 H   0  0  0  0  0  0  0  0  0  0  0  0
    1.2790   -2.7528    0.2633 H   0  0  0  0  0  0  0  0  0  0  0  0
    1.2664   -3.0274   -1.4829 H   0  0  0  0  0  0  0  0  0  0  0  0
    2.3803   -1.8420   -0.7907 H   0  0  0  0  0  0  0  0  0  0  0  0
    0.2731    0.0691    2.1096 H   0  0  0  0  0  0  0  0  0  0  0  0
    2.6486    1.8600   -1.1673 H   0  0  0  0  0  0  0  0  0  0  0  0
   -3.7696    0.1178   -0.9925 H   0  0  0  0  0  0  0  0  0  0  0  0
  1  6  1  0  0  0  0
  1 19  1  0  0  0  0
  2 10  1  0  0  0  0
  2 20  1  0  0  0  0
  3 10  2  0  0  0  0
  4 11  1  0  0  0  0
  4 21  1  0  0  0  0
  5 11  2  0  0  0  0
  6  7  1  0  0  0  0
  6  8  1  0  0  0  0
  6 10  1  0  0  0  0
  7  9  1  0  0  0  0
  7 12  1  0  0  0  0
  7 13  1  0  0  0  0
  8 11  1  0  0  0  0
  8 14  1  0  0  0  0
  8 15  1  0  0  0  0
  9 16  1  0  0  0  0
  9 17  1  0  0  0  0
  9 18  1  0  0  0  0
M  END
> <PUBCHEM_COMPOUND_CID>
439736

> <PUBCHEM_CONFORMER_RMSD>
0.6

> <PUBCHEM_CONFORMER_DIVERSEORDER>
1
40
28
10
18
36
26
22
5
33
23
37
32
15
25
44
41
27
6
3
43
16
34
17
38
35
24
19
20
39
13
12
42
2
31
21
30
9
29
14
11
4
8
7

> <PUBCHEM_MMFF94_PARTIAL_CHARGES>
12
1 -0.68
10 0.66
11 0.66
19 0.4
2 -0.65
20 0.5
21 0.5
3 -0.57
4 -0.65
5 -0.57
6 0.34
8 0.06

> <PUBCHEM_EFFECTIVE_ROTOR_COUNT>
4

> <PUBCHEM_PHARMACOPHORE_FEATURES>
9
1 1 acceptor
1 1 donor
1 2 acceptor
1 3 acceptor
1 4 acceptor
1 5 acceptor
1 9 hydrophobe
3 2 3 10 anion
3 4 5 11 anion

> <PUBCHEM_HEAVY_ATOM_COUNT>
11

> <PUBCHEM_ATOM_DEF_STEREO_COUNT>
0

> <PUBCHEM_ATOM_UDEF_STEREO_COUNT>
1

> <PUBCHEM_BOND_DEF_STEREO_COUNT>
0

> <PUBCHEM_BOND_UDEF_STEREO_COUNT>
0

> <PUBCHEM_ISOTOPIC_ATOM_COUNT>
0

> <PUBCHEM_COMPONENT_COUNT>
1

> <PUBCHEM_CACTVS_TAUTO_COUNT>
1

> <PUBCHEM_CONFORMER_ID>
0006B5B800000001

> <PUBCHEM_MMFF94_ENERGY>
11.9904

> <PUBCHEM_FEATURE_SELFOVERLAP>
45.795

> <PUBCHEM_SHAPE_FINGERPRINT>
12423570 1 13817197420986575158
12897270 3 18260547818533695285
12932764 1 17385999602964318473
14128692 85 17605270894343691998
16945 1 18407755928312397620
21040471 1 18189050902432354188
23211744 41 18059572434472738817
23552423 10 18263639744115339583
29004967 10 18335975432842997249
5084963 1 18273213075657079784
528862 383 18188783858514531854

> <PUBCHEM_SHAPE_MULTIPOLES>
197.03
3.48
1.65
1.17
2.01
0.96
0.12
-0.62
-0.12
-1.27
-0.35
0.04
-0.06
0.22

> <PUBCHEM_SHAPE_SELFOVERLAP>
382.583

> <PUBCHEM_SHAPE_VOLUME>
118.7

> <PUBCHEM_COORDINATE_TYPE>
2
5
10

$$$$

