47205229
  -OEChem-06241222583D

 32 34  0     0  0  0  0  0  0999 V2000
    2.0116   -2.3505   -0.2345 O   0  0  0  0  0  0  0  0  0  0  0  0
    1.8094   -0.1950   -1.0653 N   0  0  0  0  0  0  0  0  0  0  0  0
   -2.0532   -0.7079    0.1403 N   0  0  0  0  0  0  0  0  0  0  0  0
    4.0560    1.7777   -0.0254 N   0  0  0  0  0  0  0  0  0  0  0  0
   -0.8737   -0.2829   -0.3404 N   0  0  0  0  0  0  0  0  0  0  0  0
   -2.1218   -1.9376    0.6750 N   0  0  0  0  0  0  0  0  0  0  0  0
    4.9149    2.0598    0.9690 N   0  0  0  0  0  0  0  0  0  0  0  0
    3.1802   -0.0540   -1.5012 C   0  0  0  0  0  0  0  0  0  0  0  0
    4.0667    0.4684   -0.4080 C   0  0  0  0  0  0  0  0  0  0  0  0
   -0.1018   -1.3446   -0.0918 C   0  0  0  0  0  0  0  0  0  0  0  0
   -3.1717    0.1037    0.0862 C   0  0  0  0  0  0  0  0  0  0  0  0
    1.2855   -1.3485   -0.4463 C   0  0  0  0  0  0  0  0  0  0  0  0
    4.9976   -0.1486    0.3915 C   0  0  0  0  0  0  0  0  0  0  0  0
   -0.8599   -2.3497    0.5249 C   0  0  0  0  0  0  0  0  0  0  0  0
   -4.3896   -0.3526    0.5906 C   0  0  0  0  0  0  0  0  0  0  0  0
   -3.0821    1.3787   -0.4723 C   0  0  0  0  0  0  0  0  0  0  0  0
    5.4871    0.8792    1.2195 C   0  0  0  0  0  0  0  0  0  0  0  0
   -5.5176    0.4661    0.5366 C   0  0  0  0  0  0  0  0  0  0  0  0
   -4.2101    2.1974   -0.5263 C   0  0  0  0  0  0  0  0  0  0  0  0
   -5.4279    1.7410   -0.0219 C   0  0  0  0  0  0  0  0  0  0  0  0
    3.1862    0.6332   -2.3540 H   0  0  0  0  0  0  0  0  0  0  0  0
    3.5465   -1.0266   -1.8477 H   0  0  0  0  0  0  0  0  0  0  0  0
    1.1885    0.5962   -1.2109 H   0  0  0  0  0  0  0  0  0  0  0  0
    5.2806   -1.1910    0.3787 H   0  0  0  0  0  0  0  0  0  0  0  0
    3.4899    2.5304   -0.3969 H   0  0  0  0  0  0  0  0  0  0  0  0
   -0.5719   -3.3336    0.8646 H   0  0  0  0  0  0  0  0  0  0  0  0
   -4.5039   -1.3383    1.0340 H   0  0  0  0  0  0  0  0  0  0  0  0
   -2.1536    1.7737   -0.8766 H   0  0  0  0  0  0  0  0  0  0  0  0
    6.2368    0.8169    1.9951 H   0  0  0  0  0  0  0  0  0  0  0  0
   -6.4661    0.1113    0.9292 H   0  0  0  0  0  0  0  0  0  0  0  0
   -4.1409    3.1904   -0.9610 H   0  0  0  0  0  0  0  0  0  0  0  0
   -6.3062    2.3785   -0.0640 H   0  0  0  0  0  0  0  0  0  0  0  0
  1 12  2  0  0  0  0
  2  8  1  0  0  0  0
  2 12  1  0  0  0  0
  2 23  1  0  0  0  0
  3  5  1  0  0  0  0
  3  6  1  0  0  0  0
  3 11  1  0  0  0  0
  4  7  1  0  0  0  0
  4  9  1  0  0  0  0
  4 25  1  0  0  0  0
  5 10  2  0  0  0  0
  6 14  2  0  0  0  0
  7 17  2  0  0  0  0
  8  9  1  0  0  0  0
  8 21  1  0  0  0  0
  8 22  1  0  0  0  0
  9 13  2  0  0  0  0
 10 12  1  0  0  0  0
 10 14  1  0  0  0  0
 11 15  2  0  0  0  0
 11 16  1  0  0  0  0
 13 17  1  0  0  0  0
 13 24  1  0  0  0  0
 14 26  1  0  0  0  0
 15 18  1  0  0  0  0
 15 27  1  0  0  0  0
 16 19  2  0  0  0  0
 16 28  1  0  0  0  0
 17 29  1  0  0  0  0
 18 20  2  0  0  0  0
 18 30  1  0  0  0  0
 19 20  1  0  0  0  0
 19 31  1  0  0  0  0
 20 32  1  0  0  0  0
M  END
> <PUBCHEM_COMPOUND_CID>
47205229

> <PUBCHEM_CONFORMER_RMSD>
0.8

> <PUBCHEM_CONFORMER_DIVERSEORDER>
1
7
15
16
5
8
13
17
3
6
12
20
2
14
21
11
9
19
10
22
4
23
18

> <PUBCHEM_MMFF94_PARTIAL_CHARGES>
30
1 -0.57
10 0.2
11 -0.02
12 0.72
13 -0.15
14 0.14
15 -0.15
16 -0.15
17 0.14
18 -0.15
19 -0.15
2 -0.73
20 -0.15
23 0.37
24 0.15
25 0.27
26 0.15
27 0.15
28 0.15
29 0.15
3 0.86
30 0.15
31 0.15
32 0.15
4 0.3
5 -0.71
6 -0.71
7 -0.71
8 0.48
9 -0.33

> <PUBCHEM_EFFECTIVE_ROTOR_COUNT>
5

> <PUBCHEM_PHARMACOPHORE_FEATURES>
9
1 1 acceptor
1 2 donor
1 4 donor
1 5 acceptor
1 6 acceptor
1 7 acceptor
5 3 5 6 10 14 rings
5 4 7 9 13 17 rings
6 11 15 16 18 19 20 rings

> <PUBCHEM_HEAVY_ATOM_COUNT>
20

> <PUBCHEM_ATOM_DEF_STEREO_COUNT>
0

> <PUBCHEM_ATOM_UDEF_STEREO_COUNT>
0

> <PUBCHEM_BOND_DEF_STEREO_COUNT>
0

> <PUBCHEM_BOND_UDEF_STEREO_COUNT>
0

> <PUBCHEM_ISOTOPIC_ATOM_COUNT>
0

> <PUBCHEM_COMPONENT_COUNT>
1

> <PUBCHEM_CACTVS_TAUTO_COUNT>
4

> <PUBCHEM_CONFORMER_ID>
02D04B6D00000001

> <PUBCHEM_MMFF94_ENERGY>
32.0758

> <PUBCHEM_FEATURE_SELFOVERLAP>
45.719

> <PUBCHEM_SHAPE_FINGERPRINT>
10042902 136 10015279339732084297
10319926 262 18131064939959340746
10692045 39 18270408320748694866
11128504 68 15140680288926746012
11595378 159 17274552021598300093
12107183 9 18271820059629906386
12403259 415 18335126567212197230
12596602 18 16415473814045697144
12633257 1 16200432438403054226
12670546 177 5978389426151754082
12769317 202 18040722467530028544
12788726 201 16768977681528102466
12969540 114 17530687614769786511
13103583 49 14764342781966704949
13402501 40 18334580135408181960
13685833 64 9295279556689058405
13914758 101 14979969073243306591
13955234 65 18192704764134709267
14123256 34 9367339371035394985
14178342 30 17988354867319094306
14251764 38 18192155888846742964
14366163 111 15791731922922374386
14739800 52 18339937003139180465
14951699 99 18198343958148555156
15209294 21 18344146990196508423
15342816 4 6843932633427283550
15537594 2 6411301226035654349
193927 3 9295282854933531629
20388580 30 9007054686738401474
20567600 254 18271815648218269669
20645477 56 18411129238703190063
20715895 44 18408324406089695912
21150785 3 17312832585041765717
212916 134 18343867701558637514
21307412 95 9223234035983944297
21315764 268 18343026570773937300
21452121 103 18341051925252239954
21475661 188 18188217494431414568
21859007 373 16986327229257060215
22765269 38 17313394383621977528
22950370 63 9727639427125569830
23016692 55 9151173177110818923
23227448 37 18334575690248133029
23559900 14 18268976730623216318
2838139 119 18186528721310810548
2916195 48 18335422365693862865
3014063 24 12031488957961727841
341906 21 18340763754722000444
34797466 226 17603580859636651549
3680242 22 18341327885522766912
4371632 12 14926501862208308530
465052 167 11815894574429008928
495365 180 18040996276238438478
5104073 3 18128527344811049401
5352402 22 13614247000973880712
543368 44 17313105254992576273
5969126 39 18045227042479712751
7064713 232 18202275939966149717
79837 15 17845649244586617266
960060 61 4967611659365297628
9981440 41 18131345341547486795

> <PUBCHEM_SHAPE_MULTIPOLES>
375.84
13.94
2.4
1.01
2.48
0.31
0.07
-9.55
-3.11
-0.32
-0.24
0.93
-0.12
1.36

> <PUBCHEM_SHAPE_SELFOVERLAP>
817.791

> <PUBCHEM_SHAPE_VOLUME>
205.1

> <PUBCHEM_COORDINATE_TYPE>
2
5
10

$$$$

