9527
  -OEChem-06261203462D

 32 31  0     0  0  0  0  0  0999 V2000
    2.0000   -0.8170    0.0000 F   0  0  0  0  0  0  0  0  0  0  0  0
    9.7942   -0.3170    0.0000 O   0  0  0  0  0  0  0  0  0  0  0  0
    8.9282    1.1830    0.0000 O   0  0  0  0  0  0  0  0  0  0  0  0
    6.3301   -0.3170    0.0000 C   0  0  0  0  0  0  0  0  0  0  0  0
    5.4641   -0.8170    0.0000 C   0  0  0  0  0  0  0  0  0  0  0  0
    7.1962    0.1830    0.0000 C   0  0  0  0  0  0  0  0  0  0  0  0
    4.5981   -0.3170    0.0000 C   0  0  0  0  0  0  0  0  0  0  0  0
    5.8301    0.5490    0.0000 C   0  0  0  0  0  0  0  0  0  0  0  0
    6.8301   -1.1830    0.0000 C   0  0  0  0  0  0  0  0  0  0  0  0
    8.0622   -0.3170    0.0000 C   0  0  0  0  0  0  0  0  0  0  0  0
    3.7320   -0.8170    0.0000 C   0  0  0  0  0  0  0  0  0  0  0  0
    2.8660   -0.3170    0.0000 C   0  0  0  0  0  0  0  0  0  0  0  0
    8.9282    0.1830    0.0000 C   0  0  0  0  0  0  0  0  0  0  0  0
    5.0656   -1.2919    0.0000 H   0  0  0  0  0  0  0  0  0  0  0  0
    5.8626   -1.2919    0.0000 H   0  0  0  0  0  0  0  0  0  0  0  0
    7.5947    0.6580    0.0000 H   0  0  0  0  0  0  0  0  0  0  0  0
    6.7976    0.6580    0.0000 H   0  0  0  0  0  0  0  0  0  0  0  0
    4.9966    0.1580    0.0000 H   0  0  0  0  0  0  0  0  0  0  0  0
    4.1996    0.1580    0.0000 H   0  0  0  0  0  0  0  0  0  0  0  0
    6.3671    0.8590    0.0000 H   0  0  0  0  0  0  0  0  0  0  0  0
    5.5201    1.0860    0.0000 H   0  0  0  0  0  0  0  0  0  0  0  0
    5.2932    0.2390    0.0000 H   0  0  0  0  0  0  0  0  0  0  0  0
    6.2932   -1.4930    0.0000 H   0  0  0  0  0  0  0  0  0  0  0  0
    7.1401   -1.7200    0.0000 H   0  0  0  0  0  0  0  0  0  0  0  0
    7.3671   -0.8730    0.0000 H   0  0  0  0  0  0  0  0  0  0  0  0
    7.6636   -0.7919    0.0000 H   0  0  0  0  0  0  0  0  0  0  0  0
    8.4607   -0.7919    0.0000 H   0  0  0  0  0  0  0  0  0  0  0  0
    3.3335   -1.2919    0.0000 H   0  0  0  0  0  0  0  0  0  0  0  0
    4.1306   -1.2919    0.0000 H   0  0  0  0  0  0  0  0  0  0  0  0
    3.2646    0.1580    0.0000 H   0  0  0  0  0  0  0  0  0  0  0  0
    2.4675    0.1580    0.0000 H   0  0  0  0  0  0  0  0  0  0  0  0
   10.3312   -0.0070    0.0000 H   0  0  0  0  0  0  0  0  0  0  0  0
  1 12  1  0  0  0  0
  2 13  1  0  0  0  0
  2 32  1  0  0  0  0
  3 13  2  0  0  0  0
  4  5  1  0  0  0  0
  4  6  1  0  0  0  0
  4  8  1  0  0  0  0
  4  9  1  0  0  0  0
  5  7  1  0  0  0  0
  5 14  1  0  0  0  0
  5 15  1  0  0  0  0
  6 10  1  0  0  0  0
  6 16  1  0  0  0  0
  6 17  1  0  0  0  0
  7 11  1  0  0  0  0
  7 18  1  0  0  0  0
  7 19  1  0  0  0  0
  8 20  1  0  0  0  0
  8 21  1  0  0  0  0
  8 22  1  0  0  0  0
  9 23  1  0  0  0  0
  9 24  1  0  0  0  0
  9 25  1  0  0  0  0
 10 13  1  0  0  0  0
 10 26  1  0  0  0  0
 10 27  1  0  0  0  0
 11 12  1  0  0  0  0
 11 28  1  0  0  0  0
 11 29  1  0  0  0  0
 12 30  1  0  0  0  0
 12 31  1  0  0  0  0
M  END
> <PUBCHEM_COMPOUND_CID>
9527

> <PUBCHEM_COMPOUND_CANONICALIZED>
1

> <PUBCHEM_CACTVS_COMPLEXITY>
155

> <PUBCHEM_CACTVS_HBOND_ACCEPTOR>
3

> <PUBCHEM_CACTVS_HBOND_DONOR>
1

> <PUBCHEM_CACTVS_ROTATABLE_BOND>
7

> <PUBCHEM_CACTVS_SUBSKEYS>
AAADceBwMQAAAAAAAAAAAAAAAAAAAAAAAAAAAAAAAAAAAAAAAAAAGwAACAAADgCAgAACCAAAAgAIAACQCAAAAAAAAAAAAAEAAAAAABIAAAAAQAAEAAAAAAGIyKCPAAAAAAAAAAAAAAAAAAAAAAAAAAAAAA==

> <PUBCHEM_IUPAC_OPENEYE_NAME>
8-fluoro-4,4-dimethyl-octanoic acid

> <PUBCHEM_IUPAC_CAS_NAME>
8-fluoro-4,4-dimethyloctanoic acid

> <PUBCHEM_IUPAC_NAME>
8-fluoro-4,4-dimethyloctanoic acid

> <PUBCHEM_IUPAC_SYSTEMATIC_NAME>
8-fluoranyl-4,4-dimethyl-octanoic acid

> <PUBCHEM_IUPAC_TRADITIONAL_NAME>
8-fluoro-4,4-dimethyl-caprylic acid

> <PUBCHEM_IUPAC_INCHI>
InChI=1S/C10H19FO2/c1-10(2,6-3-4-8-11)7-5-9(12)13/h3-8H2,1-2H3,(H,12,13)

> <PUBCHEM_IUPAC_INCHIKEY>
LLJMYCREEQNSLU-UHFFFAOYSA-N

> <PUBCHEM_XLOGP3_AA>
2.9

> <PUBCHEM_EXACT_MASS>
190.136908

> <PUBCHEM_MOLECULAR_FORMULA>
C10H19FO2

> <PUBCHEM_MOLECULAR_WEIGHT>
190.255063

> <PUBCHEM_OPENEYE_CAN_SMILES>
CC(C)(CCCCF)CCC(=O)O

> <PUBCHEM_OPENEYE_ISO_SMILES>
CC(C)(CCCCF)CCC(=O)O

> <PUBCHEM_CACTVS_TPSA>
37.3

> <PUBCHEM_MONOISOTOPIC_WEIGHT>
190.136908

> <PUBCHEM_TOTAL_CHARGE>
0

> <PUBCHEM_HEAVY_ATOM_COUNT>
13

> <PUBCHEM_ATOM_DEF_STEREO_COUNT>
0

> <PUBCHEM_ATOM_UDEF_STEREO_COUNT>
0

> <PUBCHEM_BOND_DEF_STEREO_COUNT>
0

> <PUBCHEM_BOND_UDEF_STEREO_COUNT>
0

> <PUBCHEM_ISOTOPIC_ATOM_COUNT>
0

> <PUBCHEM_COMPONENT_COUNT>
1

> <PUBCHEM_CACTVS_TAUTO_COUNT>
1

> <PUBCHEM_COORDINATE_TYPE>
1
5
255

$$$$

