65252
  -OEChem-07051212463D

 81 84  0     1  0  0  0  0  0999 V2000
   -7.8169    0.9907   -0.7918 O   0  0  0  0  0  0  0  0  0  0  0  0
    0.6814    0.1471    0.6177 C   0  0  1  0  0  0  0  0  0  0  0  0
   -0.0825   -0.9988   -0.1324 C   0  0  2  0  0  0  0  0  0  0  0  0
    2.1555   -0.2740    0.4053 C   0  0  2  0  0  0  0  0  0  0  0  0
   -1.5845   -0.8318    0.0595 C   0  0  0  0  0  0  0  0  0  0  0  0
   -3.6534    0.6239    0.2370 C   0  0  2  0  0  0  0  0  0  0  0  0
    0.6347   -2.2343    0.4495 C   0  0  0  0  0  0  0  0  0  0  0  0
    0.2773    1.4833   -0.0066 C   0  0  0  0  0  0  0  0  0  0  0  0
   -2.1285    0.4128    0.0846 C   0  0  0  0  0  0  0  0  0  0  0  0
    2.1158   -1.8123    0.5726 C   0  0  0  0  0  0  0  0  0  0  0  0
   -4.4246   -0.6445   -0.2784 C   0  0  1  0  0  0  0  0  0  0  0  0
   -1.2546    1.6732    0.0252 C   0  0  0  0  0  0  0  0  0  0  0  0
   -2.4016   -2.0964    0.1486 C   0  0  0  0  0  0  0  0  0  0  0  0
    3.1988    0.3887    1.2972 C   0  0  1  0  0  0  0  0  0  0  0  0
   -3.8934   -1.9029    0.4181 C   0  0  0  0  0  0  0  0  0  0  0  0
    0.3726    0.2100    2.1486 C   0  0  0  0  0  0  0  0  0  0  0  0
    0.1258   -1.0366   -1.6785 C   0  0  0  0  0  0  0  0  0  0  0  0
   -5.9716   -0.4926   -0.1964 C   0  0  1  0  0  0  0  0  0  0  0  0
   -4.1552    1.8352   -0.5934 C   0  0  0  0  0  0  0  0  0  0  0  0
   -3.9098    0.8961    1.7418 C   0  0  0  0  0  0  0  0  0  0  0  0
   -6.4205    0.7638   -0.9737 C   0  0  2  0  0  0  0  0  0  0  0  0
   -5.6680    2.0165   -0.5418 C   0  0  0  0  0  0  0  0  0  0  0  0
    4.6299   -0.1081    1.0052 C   0  0  0  0  0  0  0  0  0  0  0  0
    3.1379    1.9107    1.1287 C   0  0  0  0  0  0  0  0  0  0  0  0
   -6.7143   -1.7225   -0.7428 C   0  0  0  0  0  0  0  0  0  0  0  0
    5.0917    0.1856   -0.4282 C   0  0  0  0  0  0  0  0  0  0  0  0
    6.5116   -0.2863   -0.6811 C   0  0  0  0  0  0  0  0  0  0  0  0
    7.6188    0.7412   -0.4727 C   0  0  0  0  0  0  0  0  0  0  0  0
    6.7294   -1.5510   -1.0813 C   0  0  0  0  0  0  0  0  0  0  0  0
    7.8452    1.5552   -1.7505 C   0  0  0  0  0  0  0  0  0  0  0  0
    8.9530    0.1580    0.0099 C   0  0  0  0  0  0  0  0  0  0  0  0
    2.4102   -0.0491   -0.6361 H   0  0  0  0  0  0  0  0  0  0  0  0
    0.5300   -3.1269   -0.1774 H   0  0  0  0  0  0  0  0  0  0  0  0
    0.2459   -2.4968    1.4404 H   0  0  0  0  0  0  0  0  0  0  0  0
    0.6282    1.5496   -1.0435 H   0  0  0  0  0  0  0  0  0  0  0  0
    0.7094    2.3481    0.4991 H   0  0  0  0  0  0  0  0  0  0  0  0
    2.5064   -2.1408    1.5423 H   0  0  0  0  0  0  0  0  0  0  0  0
    2.7207   -2.2927   -0.2048 H   0  0  0  0  0  0  0  0  0  0  0  0
   -4.1867   -0.7589   -1.3489 H   0  0  0  0  0  0  0  0  0  0  0  0
   -1.5265    2.2662   -0.8556 H   0  0  0  0  0  0  0  0  0  0  0  0
   -1.4901    2.2869    0.9037 H   0  0  0  0  0  0  0  0  0  0  0  0
   -2.2918   -2.6397   -0.7985 H   0  0  0  0  0  0  0  0  0  0  0  0
   -2.0053   -2.7491    0.9341 H   0  0  0  0  0  0  0  0  0  0  0  0
    3.0073    0.1558    2.3518 H   0  0  0  0  0  0  0  0  0  0  0  0
   -4.4079   -2.8027    0.0658 H   0  0  0  0  0  0  0  0  0  0  0  0
   -4.0783   -1.8525    1.4973 H   0  0  0  0  0  0  0  0  0  0  0  0
    0.8028    1.1015    2.6140 H   0  0  0  0  0  0  0  0  0  0  0  0
   -0.6985    0.2452    2.3659 H   0  0  0  0  0  0  0  0  0  0  0  0
    0.7669   -0.6556    2.6907 H   0  0  0  0  0  0  0  0  0  0  0  0
   -0.2816   -0.1518   -2.1797 H   0  0  0  0  0  0  0  0  0  0  0  0
    1.1755   -1.1239   -1.9726 H   0  0  0  0  0  0  0  0  0  0  0  0
   -0.3842   -1.9056   -2.1138 H   0  0  0  0  0  0  0  0  0  0  0  0
   -6.2839   -0.3904    0.8501 H   0  0  0  0  0  0  0  0  0  0  0  0
   -3.8495    1.7161   -1.6417 H   0  0  0  0  0  0  0  0  0  0  0  0
   -3.6983    2.7675   -0.2391 H   0  0  0  0  0  0  0  0  0  0  0  0
   -3.4826    1.8582    2.0484 H   0  0  0  0  0  0  0  0  0  0  0  0
   -4.9736    0.9326    1.9902 H   0  0  0  0  0  0  0  0  0  0  0  0
   -3.4554    0.1310    2.3813 H   0  0  0  0  0  0  0  0  0  0  0  0
   -6.2568    0.5994   -2.0466 H   0  0  0  0  0  0  0  0  0  0  0  0
   -5.9872    2.3167    0.4638 H   0  0  0  0  0  0  0  0  0  0  0  0
   -5.9555    2.8541   -1.1903 H   0  0  0  0  0  0  0  0  0  0  0  0
    4.6968   -1.1849    1.2026 H   0  0  0  0  0  0  0  0  0  0  0  0
    5.3218    0.3672    1.7134 H   0  0  0  0  0  0  0  0  0  0  0  0
    2.3476    2.3563    1.7354 H   0  0  0  0  0  0  0  0  0  0  0  0
    3.0148    2.2166    0.0850 H   0  0  0  0  0  0  0  0  0  0  0  0
    4.0639    2.3732    1.4919 H   0  0  0  0  0  0  0  0  0  0  0  0
   -7.7960   -1.5545   -0.7731 H   0  0  0  0  0  0  0  0  0  0  0  0
   -6.3826   -1.9663   -1.7576 H   0  0  0  0  0  0  0  0  0  0  0  0
   -6.5548   -2.5989   -0.1079 H   0  0  0  0  0  0  0  0  0  0  0  0
    5.0255    1.2551   -0.6555 H   0  0  0  0  0  0  0  0  0  0  0  0
    4.4357   -0.3140   -1.1502 H   0  0  0  0  0  0  0  0  0  0  0  0
   -8.0605    1.7671   -1.3242 H   0  0  0  0  0  0  0  0  0  0  0  0
    7.2866    1.4305    0.3153 H   0  0  0  0  0  0  0  0  0  0  0  0
    7.7241   -1.9271   -1.2894 H   0  0  0  0  0  0  0  0  0  0  0  0
    5.9058   -2.2449   -1.2178 H   0  0  0  0  0  0  0  0  0  0  0  0
    6.9218    2.0446   -2.0788 H   0  0  0  0  0  0  0  0  0  0  0  0
    8.5925    2.3385   -1.5833 H   0  0  0  0  0  0  0  0  0  0  0  0
    8.1997    0.9214   -2.5711 H   0  0  0  0  0  0  0  0  0  0  0  0
    9.4387   -0.4500   -0.7609 H   0  0  0  0  0  0  0  0  0  0  0  0
    9.6467    0.9634    0.2758 H   0  0  0  0  0  0  0  0  0  0  0  0
    8.8108   -0.4635    0.9006 H   0  0  0  0  0  0  0  0  0  0  0  0
  1 21  1  0  0  0  0
  1 72  1  0  0  0  0
  2  3  1  0  0  0  0
  2  4  1  0  0  0  0
  2  8  1  0  0  0  0
  2 16  1  0  0  0  0
  3  5  1  0  0  0  0
  3  7  1  0  0  0  0
  3 17  1  0  0  0  0
  4 10  1  0  0  0  0
  4 14  1  0  0  0  0
  4 32  1  0  0  0  0
  5  9  2  0  0  0  0
  5 13  1  0  0  0  0
  6  9  1  0  0  0  0
  6 11  1  0  0  0  0
  6 19  1  0  0  0  0
  6 20  1  0  0  0  0
  7 10  1  0  0  0  0
  7 33  1  0  0  0  0
  7 34  1  0  0  0  0
  8 12  1  0  0  0  0
  8 35  1  0  0  0  0
  8 36  1  0  0  0  0
  9 12  1  0  0  0  0
 10 37  1  0  0  0  0
 10 38  1  0  0  0  0
 11 15  1  0  0  0  0
 11 18  1  0  0  0  0
 11 39  1  0  0  0  0
 12 40  1  0  0  0  0
 12 41  1  0  0  0  0
 13 15  1  0  0  0  0
 13 42  1  0  0  0  0
 13 43  1  0  0  0  0
 14 23  1  0  0  0  0
 14 24  1  0  0  0  0
 14 44  1  0  0  0  0
 15 45  1  0  0  0  0
 15 46  1  0  0  0  0
 16 47  1  0  0  0  0
 16 48  1  0  0  0  0
 16 49  1  0  0  0  0
 17 50  1  0  0  0  0
 17 51  1  0  0  0  0
 17 52  1  0  0  0  0
 18 21  1  0  0  0  0
 18 25  1  0  0  0  0
 18 53  1  0  0  0  0
 19 22  1  0  0  0  0
 19 54  1  0  0  0  0
 19 55  1  0  0  0  0
 20 56  1  0  0  0  0
 20 57  1  0  0  0  0
 20 58  1  0  0  0  0
 21 22  1  0  0  0  0
 21 59  1  0  0  0  0
 22 60  1  0  0  0  0
 22 61  1  0  0  0  0
 23 26  1  0  0  0  0
 23 62  1  0  0  0  0
 23 63  1  0  0  0  0
 24 64  1  0  0  0  0
 24 65  1  0  0  0  0
 24 66  1  0  0  0  0
 25 67  1  0  0  0  0
 25 68  1  0  0  0  0
 25 69  1  0  0  0  0
 26 27  1  0  0  0  0
 26 70  1  0  0  0  0
 26 71  1  0  0  0  0
 27 28  1  0  0  0  0
 27 29  2  0  0  0  0
 28 30  1  0  0  0  0
 28 31  1  0  0  0  0
 28 73  1  0  0  0  0
 29 74  1  0  0  0  0
 29 75  1  0  0  0  0
 30 76  1  0  0  0  0
 30 77  1  0  0  0  0
 30 78  1  0  0  0  0
 31 79  1  0  0  0  0
 31 80  1  0  0  0  0
 31 81  1  0  0  0  0
M  END
> <PUBCHEM_COMPOUND_CID>
65252

> <PUBCHEM_CONFORMER_RMSD>
1

> <PUBCHEM_CONFORMER_DIVERSEORDER>
2
3
6
1
5
4

> <PUBCHEM_MMFF94_PARTIAL_CHARGES>
15
1 -0.68
12 0.14
13 0.14
21 0.28
26 0.14
27 -0.28
28 0.14
29 -0.3
3 0.14
5 -0.28
6 0.14
72 0.4
74 0.15
75 0.15
9 -0.28

> <PUBCHEM_EFFECTIVE_ROTOR_COUNT>
7.2

> <PUBCHEM_PHARMACOPHORE_FEATURES>
10
1 1 acceptor
1 1 donor
1 24 hydrophobe
1 29 hydrophobe
3 28 30 31 hydrophobe
5 14 23 26 27 28 hydrophobe
5 2 3 4 7 10 rings
6 2 3 5 8 9 12 rings
6 5 6 9 11 13 15 rings
6 6 11 18 19 21 22 rings

> <PUBCHEM_HEAVY_ATOM_COUNT>
31

> <PUBCHEM_ATOM_DEF_STEREO_COUNT>
8

> <PUBCHEM_ATOM_UDEF_STEREO_COUNT>
0

> <PUBCHEM_BOND_DEF_STEREO_COUNT>
0

> <PUBCHEM_BOND_UDEF_STEREO_COUNT>
0

> <PUBCHEM_ISOTOPIC_ATOM_COUNT>
0

> <PUBCHEM_COMPONENT_COUNT>
1

> <PUBCHEM_CACTVS_TAUTO_COUNT>
1

> <PUBCHEM_CONFORMER_ID>
0000FEE400000002

> <PUBCHEM_MMFF94_ENERGY>
104.0443

> <PUBCHEM_FEATURE_SELFOVERLAP>
50.864

> <PUBCHEM_SHAPE_FINGERPRINT>
10 15 17846779628929023705
10076449 9 18113896027289315811
10670039 82 17822290223106941456
10835480 77 18187083902834263360
11007060 377 18270960137861392248
11135609 127 18337392622930264428
11135609 187 18411696549003004138
11315181 36 18113615681989152865
11456790 92 12823304468849648684
11578080 2 17415856931173311359
11991303 11 17604158034010626823
12011746 2 18261116279140978539
12166972 35 18260549991824473473
12236239 1 17418099831962627267
13782708 43 17313106336606929455
13811026 1 18187643639914568990
14840074 17 16056885736245849659
14849402 71 8862355649240467546
14856354 85 18201997694715284759
15021287 119 14129059196832562483
15183329 4 18260261963228250536
15198563 99 17168416168802291512
15461852 350 18335702706973430551
1577012 14 17917717928176413233
15849732 13 18410856547345881388
16994733 274 16988848297582173500
18681886 176 18337398153497233569
19611394 137 17631153205267812297
21150785 3 18413388726666259348
21267235 1 18336544928833135723
21344244 246 15864343692764914030
21792961 116 18187077374061804626
22224240 67 14908179746408704448
23559900 14 18261118439035093465
23576562 1 18128252294409438564
335352 9 18411706474572062069
4073 2 17989203768053373387
4093350 32 15410623613871725736
4325135 7 17989771102867118876
4616759 239 11527951166712638253
484989 97 17969224447596225115
5265222 85 18338234860540010934
5758199 1 16415761929378951096
6328613 192 18272929423327031420

> <PUBCHEM_SHAPE_MULTIPOLES>
632.1
22.03
2.15
1.38
24.16
0.26
-0.2
-4.26
9.34
-1.43
0.15
0.74
-0.23
0.08

> <PUBCHEM_SHAPE_SELFOVERLAP>
1315.513

> <PUBCHEM_SHAPE_VOLUME>
360

> <PUBCHEM_COORDINATE_TYPE>
2
5
10

$$$$

