9356
  -OEChem-06261203382D

 50 49  0     1  0  0  0  0  0999 V2000
    8.5991   -0.3450    0.0000 O   0  0  0  0  0  0  0  0  0  0  0  0
    6.0010    1.1550    0.0000 O   0  0  0  0  0  0  0  0  0  0  0  0
    6.8671   -1.3450    0.0000 O   0  0  0  0  0  0  0  0  0  0  0  0
    5.1350   -1.3450    0.0000 O   0  0  0  0  0  0  0  0  0  0  0  0
    4.2690    1.1550    0.0000 O   0  0  0  0  0  0  0  0  0  0  0  0
    9.4651    1.1550    0.0000 O   0  0  0  0  0  0  0  0  0  0  0  0
    2.5369    0.1550    0.0000 O   0  0  0  0  0  0  0  0  0  0  0  0
    3.4030   -1.3450    0.0000 O   0  0  0  0  0  0  0  0  0  0  0  0
   11.1972    0.1550    0.0000 N   0  0  0  0  0  0  0  0  0  0  0  0
   12.0632   -0.3450    0.0000 C   0  0  0  0  0  0  0  0  0  0  0  0
   11.1972    1.1550    0.0000 C   0  0  0  0  0  0  0  0  0  0  0  0
    6.0010    0.1550    0.0000 C   0  0  3  0  0  0  0  0  0  0  0  0
    6.8671   -0.3450    0.0000 C   0  0  3  0  0  0  0  0  0  0  0  0
    5.1350   -0.3450    0.0000 C   0  0  3  0  0  0  0  0  0  0  0  0
   10.3312   -0.3450    0.0000 C   0  0  0  0  0  0  0  0  0  0  0  0
    7.7331    0.1550    0.0000 C   0  0  0  0  0  0  0  0  0  0  0  0
    4.2690    0.1550    0.0000 C   0  0  3  0  0  0  0  0  0  0  0  0
   12.9292    0.1550    0.0000 C   0  0  0  0  0  0  0  0  0  0  0  0
   12.0632   -1.3450    0.0000 C   0  0  0  0  0  0  0  0  0  0  0  0
   12.0632    1.6550    0.0000 C   0  0  0  0  0  0  0  0  0  0  0  0
   10.3312    1.6550    0.0000 C   0  0  0  0  0  0  0  0  0  0  0  0
    9.4651    0.1550    0.0000 C   0  0  0  0  0  0  0  0  0  0  0  0
    3.4030   -0.3450    0.0000 C   0  0  0  0  0  0  0  0  0  0  0  0
   10.6603    0.8450    0.0000 H   0  0  0  0  0  0  0  0  0  0  0  0
   12.0632    0.2750    0.0000 H   0  0  0  0  0  0  0  0  0  0  0  0
    6.5380    0.4650    0.0000 H   0  0  0  0  0  0  0  0  0  0  0  0
    6.3301   -0.6550    0.0000 H   0  0  0  0  0  0  0  0  0  0  0  0
    5.6720   -0.6550    0.0000 H   0  0  0  0  0  0  0  0  0  0  0  0
    9.9326   -0.8199    0.0000 H   0  0  0  0  0  0  0  0  0  0  0  0
   10.7297   -0.8199    0.0000 H   0  0  0  0  0  0  0  0  0  0  0  0
    8.1316    0.6299    0.0000 H   0  0  0  0  0  0  0  0  0  0  0  0
    7.3346    0.6299    0.0000 H   0  0  0  0  0  0  0  0  0  0  0  0
    4.8059    0.4650    0.0000 H   0  0  0  0  0  0  0  0  0  0  0  0
   13.2392   -0.3819    0.0000 H   0  0  0  0  0  0  0  0  0  0  0  0
   13.4662    0.4650    0.0000 H   0  0  0  0  0  0  0  0  0  0  0  0
   12.6192    0.6919    0.0000 H   0  0  0  0  0  0  0  0  0  0  0  0
   11.4432   -1.3450    0.0000 H   0  0  0  0  0  0  0  0  0  0  0  0
   12.0632   -1.9650    0.0000 H   0  0  0  0  0  0  0  0  0  0  0  0
   12.6832   -1.3450    0.0000 H   0  0  0  0  0  0  0  0  0  0  0  0
   12.3732    1.1181    0.0000 H   0  0  0  0  0  0  0  0  0  0  0  0
   12.6002    1.9650    0.0000 H   0  0  0  0  0  0  0  0  0  0  0  0
   11.7532    2.1919    0.0000 H   0  0  0  0  0  0  0  0  0  0  0  0
   10.6412    2.1919    0.0000 H   0  0  0  0  0  0  0  0  0  0  0  0
    9.7942    1.9650    0.0000 H   0  0  0  0  0  0  0  0  0  0  0  0
   10.0212    1.1181    0.0000 H   0  0  0  0  0  0  0  0  0  0  0  0
    6.5380    1.4650    0.0000 H   0  0  0  0  0  0  0  0  0  0  0  0
    7.4040   -1.6550    0.0000 H   0  0  0  0  0  0  0  0  0  0  0  0
    4.5981   -1.6550    0.0000 H   0  0  0  0  0  0  0  0  0  0  0  0
    3.7320    1.4650    0.0000 H   0  0  0  0  0  0  0  0  0  0  0  0
    2.0000   -0.1550    0.0000 H   0  0  0  0  0  0  0  0  0  0  0  0
  1 16  1  0  0  0  0
  1 22  1  0  0  0  0
  2 12  1  0  0  0  0
  2 46  1  0  0  0  0
  3 13  1  0  0  0  0
  3 47  1  0  0  0  0
  4 14  1  0  0  0  0
  4 48  1  0  0  0  0
  5 17  1  0  0  0  0
  5 49  1  0  0  0  0
  6 22  2  0  0  0  0
  7 23  1  0  0  0  0
  7 50  1  0  0  0  0
  8 23  2  0  0  0  0
  9 10  1  0  0  0  0
  9 11  1  0  0  0  0
  9 15  1  0  0  0  0
 10 18  1  0  0  0  0
 10 19  1  0  0  0  0
 10 25  1  0  0  0  0
 11 20  1  0  0  0  0
 11 21  1  0  0  0  0
 11 24  1  0  0  0  0
 12 13  1  0  0  0  0
 12 14  1  0  0  0  0
 12 26  1  0  0  0  0
 13 16  1  0  0  0  0
 13 27  1  0  0  0  0
 14 17  1  0  0  0  0
 14 28  1  0  0  0  0
 15 22  1  0  0  0  0
 15 29  1  0  0  0  0
 15 30  1  0  0  0  0
 16 31  1  0  0  0  0
 16 32  1  0  0  0  0
 17 23  1  0  0  0  0
 17 33  1  0  0  0  0
 18 34  1  0  0  0  0
 18 35  1  0  0  0  0
 18 36  1  0  0  0  0
 19 37  1  0  0  0  0
 19 38  1  0  0  0  0
 19 39  1  0  0  0  0
 20 40  1  0  0  0  0
 20 41  1  0  0  0  0
 20 42  1  0  0  0  0
 21 43  1  0  0  0  0
 21 44  1  0  0  0  0
 21 45  1  0  0  0  0
M  END
> <PUBCHEM_COMPOUND_CID>
9356

> <PUBCHEM_COMPOUND_CANONICALIZED>
1

> <PUBCHEM_CACTVS_COMPLEXITY>
379

> <PUBCHEM_CACTVS_HBOND_ACCEPTOR>
9

> <PUBCHEM_CACTVS_HBOND_DONOR>
5

> <PUBCHEM_CACTVS_ROTATABLE_BOND>
11

> <PUBCHEM_CACTVS_SUBSKEYS>
AAADceByPAAAAAAAAAAAAAAAAAAAAAAAAAAAAAAAAAAAAAAAAAAAHgAACAAACDzhgAYCCAMABgAIAACQCAIAAAAAAAAAAAHIAAADEBYAACADQAAFIACTAAHKbAxAAAAAAAAAAAAAAAAAAAAAAAAAAAAAAA==

> <PUBCHEM_IUPAC_OPENEYE_NAME>
6-[2-(diisopropylamino)acetyl]oxy-2,3,4,5-tetrahydroxy-hexanoic acid

> <PUBCHEM_IUPAC_CAS_NAME>
6-[2-[di(propan-2-yl)amino]-1-oxoethoxy]-2,3,4,5-tetrahydroxyhexanoic acid

> <PUBCHEM_IUPAC_NAME>
6-[2-[di(propan-2-yl)amino]acetyl]oxy-2,3,4,5-tetrahydroxyhexanoic acid

> <PUBCHEM_IUPAC_SYSTEMATIC_NAME>
6-[2-[di(propan-2-yl)amino]ethanoyloxy]-2,3,4,5-tetrakis(oxidanyl)hexanoic acid

> <PUBCHEM_IUPAC_TRADITIONAL_NAME>
6-[2-(diisopropylamino)acetyl]oxy-2,3,4,5-tetrahydroxy-hexanoic acid

> <PUBCHEM_IUPAC_INCHI>
InChI=1S/C14H27NO8/c1-7(2)15(8(3)4)5-10(17)23-6-9(16)11(18)12(19)13(20)14(21)22/h7-9,11-13,16,18-20H,5-6H2,1-4H3,(H,21,22)

> <PUBCHEM_IUPAC_INCHIKEY>
CUEHNLMLFJFMER-UHFFFAOYSA-N

> <PUBCHEM_XLOGP3_AA>
-3.4

> <PUBCHEM_EXACT_MASS>
337.173667

> <PUBCHEM_MOLECULAR_FORMULA>
C14H27NO8

> <PUBCHEM_MOLECULAR_WEIGHT>
337.36608

> <PUBCHEM_OPENEYE_CAN_SMILES>
CC(C)N(CC(=O)OCC(C(C(C(C(=O)O)O)O)O)O)C(C)C

> <PUBCHEM_OPENEYE_ISO_SMILES>
CC(C)N(CC(=O)OCC(C(C(C(C(=O)O)O)O)O)O)C(C)C

> <PUBCHEM_CACTVS_TPSA>
148

> <PUBCHEM_MONOISOTOPIC_WEIGHT>
337.173667

> <PUBCHEM_TOTAL_CHARGE>
0

> <PUBCHEM_HEAVY_ATOM_COUNT>
23

> <PUBCHEM_ATOM_DEF_STEREO_COUNT>
0

> <PUBCHEM_ATOM_UDEF_STEREO_COUNT>
4

> <PUBCHEM_BOND_DEF_STEREO_COUNT>
0

> <PUBCHEM_BOND_UDEF_STEREO_COUNT>
0

> <PUBCHEM_ISOTOPIC_ATOM_COUNT>
0

> <PUBCHEM_COMPONENT_COUNT>
1

> <PUBCHEM_CACTVS_TAUTO_COUNT>
1

> <PUBCHEM_COORDINATE_TYPE>
1
5
255

> <PUBCHEM_BONDANNOTATIONS>
12  2  3
13  3  3
14  4  3
17  5  3

$$$$

