12058
  -OEChem-06261206273D

 22 22  0     0  0  0  0  0  0999 V2000
   -2.2941   -1.1618    0.2079 O   0  0  0  0  0  0  0  0  0  0  0  0
   -0.3371   -0.0157   -0.2965 N   0  0  0  0  0  0  0  0  0  0  0  0
    2.5220    0.0341    0.1327 C   0  0  0  0  0  0  0  0  0  0  0  0
    1.7013   -1.2342    0.3612 C   0  0  0  0  0  0  0  0  0  0  0  0
    1.6635    1.2828    0.3284 C   0  0  0  0  0  0  0  0  0  0  0  0
    0.4415   -1.2392   -0.5003 C   0  0  0  0  0  0  0  0  0  0  0  0
    0.4029    1.2305   -0.5321 C   0  0  0  0  0  0  0  0  0  0  0  0
   -1.6846   -0.1005    0.0521 C   0  0  0  0  0  0  0  0  0  0  0  0
   -2.4154    1.2041    0.2465 C   0  0  0  0  0  0  0  0  0  0  0  0
    3.3731    0.0558    0.8223 H   0  0  0  0  0  0  0  0  0  0  0  0
    2.9312    0.0269   -0.8850 H   0  0  0  0  0  0  0  0  0  0  0  0
    2.3097   -2.1174    0.1380 H   0  0  0  0  0  0  0  0  0  0  0  0
    1.4187   -1.2929    1.4197 H   0  0  0  0  0  0  0  0  0  0  0  0
    1.3790    1.3609    1.3851 H   0  0  0  0  0  0  0  0  0  0  0  0
    2.2461    2.1772    0.0819 H   0  0  0  0  0  0  0  0  0  0  0  0
    0.7042   -1.2860   -1.5638 H   0  0  0  0  0  0  0  0  0  0  0  0
   -0.1579   -2.1261   -0.2720 H   0  0  0  0  0  0  0  0  0  0  0  0
   -0.2073    2.1133   -0.3341 H   0  0  0  0  0  0  0  0  0  0  0  0
    0.6672    1.2521   -1.5962 H   0  0  0  0  0  0  0  0  0  0  0  0
   -3.4544    1.0012    0.5243 H   0  0  0  0  0  0  0  0  0  0  0  0
   -2.4176    1.7787   -0.6834 H   0  0  0  0  0  0  0  0  0  0  0  0
   -1.9538    1.7795    1.0533 H   0  0  0  0  0  0  0  0  0  0  0  0
  1  8  2  0  0  0  0
  2  6  1  0  0  0  0
  2  7  1  0  0  0  0
  2  8  1  0  0  0  0
  3  4  1  0  0  0  0
  3  5  1  0  0  0  0
  3 10  1  0  0  0  0
  3 11  1  0  0  0  0
  4  6  1  0  0  0  0
  4 12  1  0  0  0  0
  4 13  1  0  0  0  0
  5  7  1  0  0  0  0
  5 14  1  0  0  0  0
  5 15  1  0  0  0  0
  6 16  1  0  0  0  0
  6 17  1  0  0  0  0
  7 18  1  0  0  0  0
  7 19  1  0  0  0  0
  8  9  1  0  0  0  0
  9 20  1  0  0  0  0
  9 21  1  0  0  0  0
  9 22  1  0  0  0  0
M  END
> <PUBCHEM_COMPOUND_CID>
12058

> <PUBCHEM_CONFORMER_RMSD>
0.4

> <PUBCHEM_CONFORMER_DIVERSEORDER>
1
4
3
2

> <PUBCHEM_MMFF94_PARTIAL_CHARGES>
6
1 -0.57
2 -0.66
6 0.3
7 0.3
8 0.57
9 0.06

> <PUBCHEM_EFFECTIVE_ROTOR_COUNT>
2.2

> <PUBCHEM_PHARMACOPHORE_FEATURES>
2
1 1 acceptor
6 2 3 4 5 6 7 rings

> <PUBCHEM_HEAVY_ATOM_COUNT>
9

> <PUBCHEM_ATOM_DEF_STEREO_COUNT>
0

> <PUBCHEM_ATOM_UDEF_STEREO_COUNT>
0

> <PUBCHEM_BOND_DEF_STEREO_COUNT>
0

> <PUBCHEM_BOND_UDEF_STEREO_COUNT>
0

> <PUBCHEM_ISOTOPIC_ATOM_COUNT>
0

> <PUBCHEM_COMPONENT_COUNT>
1

> <PUBCHEM_CACTVS_TAUTO_COUNT>
1

> <PUBCHEM_CONFORMER_ID>
00002F1A00000001

> <PUBCHEM_MMFF94_ENERGY>
9.0433

> <PUBCHEM_FEATURE_SELFOVERLAP>
10.148

> <PUBCHEM_SHAPE_FINGERPRINT>
10857977 72 18342185431487842898
14325111 11 18409166576177392720
14390081 3 18186805781155904585
16945 1 18268433606032617180
19973954 147 18409727361388169145
20653091 64 18201715124431703664
21040471 1 18265051336619834716
23552423 10 18272929405830488693
29004967 10 18131631196826082832
5084963 1 18188202087813563136

> <PUBCHEM_SHAPE_MULTIPOLES>
174.37
3.53
1.61
0.71
0.91
0.02
0.02
0.17
-0.59
-0.07
0
-0.06
0.02
-0.02

> <PUBCHEM_SHAPE_SELFOVERLAP>
336.247

> <PUBCHEM_SHAPE_VOLUME>
105.3

> <PUBCHEM_COORDINATE_TYPE>
2
5
10

$$$$

