91744
  -OEChem-07051213122D

 35 35  0     1  0  0  0  0  0999 V2000
    2.0280    1.7694    0.0000 Cl  0  0  0  0  0  0  0  0  0  0  0  0
    4.2601   -2.7694    0.0000 S   0  0  0  0  0  0  0  0  0  0  0  0
    5.4921    1.7694    0.0000 O   0  0  0  0  0  0  0  0  0  0  0  0
    2.0280   -0.2306    0.0000 O   0  0  0  0  0  0  0  0  0  0  0  0
    3.7601   -0.2306    0.0000 N   0  0  0  0  0  0  0  0  0  0  0  0
    4.6261    0.2694    0.0000 C   0  0  3  0  0  0  0  0  0  0  0  0
    3.7601   -1.2306    0.0000 C   0  0  0  0  0  0  0  0  0  0  0  0
    4.6261    1.2694    0.0000 C   0  0  0  0  0  0  0  0  0  0  0  0
    5.4921   -0.2306    0.0000 C   0  0  0  0  0  0  0  0  0  0  0  0
    2.9511   -1.8184    0.0000 C   0  0  0  0  0  0  0  0  0  0  0  0
    4.5691   -1.8184    0.0000 C   0  0  0  0  0  0  0  0  0  0  0  0
    2.8940    0.2694    0.0000 C   0  0  0  0  0  0  0  0  0  0  0  0
    3.2601   -2.7694    0.0000 C   0  0  0  0  0  0  0  0  0  0  0  0
    2.0000   -1.5094    0.0000 C   0  0  0  0  0  0  0  0  0  0  0  0
    5.5202   -1.5094    0.0000 C   0  0  0  0  0  0  0  0  0  0  0  0
    2.8940    1.2694    0.0000 C   0  0  0  0  0  0  0  0  0  0  0  0
    5.4921    2.7694    0.0000 C   0  0  0  0  0  0  0  0  0  0  0  0
    4.6261   -0.3506    0.0000 H   0  0  0  0  0  0  0  0  0  0  0  0
    4.4140    1.8520    0.0000 H   0  0  0  0  0  0  0  0  0  0  0  0
    4.0155    1.1618    0.0000 H   0  0  0  0  0  0  0  0  0  0  0  0
    5.1821   -0.7675    0.0000 H   0  0  0  0  0  0  0  0  0  0  0  0
    6.0291   -0.5406    0.0000 H   0  0  0  0  0  0  0  0  0  0  0  0
    5.8021    0.3064    0.0000 H   0  0  0  0  0  0  0  0  0  0  0  0
    2.8956   -3.2710    0.0000 H   0  0  0  0  0  0  0  0  0  0  0  0
    2.1916   -0.9197    0.0000 H   0  0  0  0  0  0  0  0  0  0  0  0
    1.4103   -1.3178    0.0000 H   0  0  0  0  0  0  0  0  0  0  0  0
    1.8084   -2.0990    0.0000 H   0  0  0  0  0  0  0  0  0  0  0  0
    5.7117   -2.0990    0.0000 H   0  0  0  0  0  0  0  0  0  0  0  0
    6.1098   -1.3178    0.0000 H   0  0  0  0  0  0  0  0  0  0  0  0
    5.3286   -0.9197    0.0000 H   0  0  0  0  0  0  0  0  0  0  0  0
    3.5046    1.1618    0.0000 H   0  0  0  0  0  0  0  0  0  0  0  0
    3.1061    1.8520    0.0000 H   0  0  0  0  0  0  0  0  0  0  0  0
    6.1121    2.7694    0.0000 H   0  0  0  0  0  0  0  0  0  0  0  0
    5.4921    3.3894    0.0000 H   0  0  0  0  0  0  0  0  0  0  0  0
    4.8721    2.7694    0.0000 H   0  0  0  0  0  0  0  0  0  0  0  0
  1 16  1  0  0  0  0
  2 11  1  0  0  0  0
  2 13  1  0  0  0  0
  3  8  1  0  0  0  0
  3 17  1  0  0  0  0
  4 12  2  0  0  0  0
  5  6  1  0  0  0  0
  5  7  1  0  0  0  0
  5 12  1  0  0  0  0
  6  8  1  0  0  0  0
  6  9  1  0  0  0  0
  6 18  1  0  0  0  0
  7 10  1  0  0  0  0
  7 11  2  0  0  0  0
  8 19  1  0  0  0  0
  8 20  1  0  0  0  0
  9 21  1  0  0  0  0
  9 22  1  0  0  0  0
  9 23  1  0  0  0  0
 10 13  2  0  0  0  0
 10 14  1  0  0  0  0
 11 15  1  0  0  0  0
 12 16  1  0  0  0  0
 13 24  1  0  0  0  0
 14 25  1  0  0  0  0
 14 26  1  0  0  0  0
 14 27  1  0  0  0  0
 15 28  1  0  0  0  0
 15 29  1  0  0  0  0
 15 30  1  0  0  0  0
 16 31  1  0  0  0  0
 16 32  1  0  0  0  0
 17 33  1  0  0  0  0
 17 34  1  0  0  0  0
 17 35  1  0  0  0  0
M  END
> <PUBCHEM_COMPOUND_CID>
91744

> <PUBCHEM_COMPOUND_CANONICALIZED>
1

> <PUBCHEM_CACTVS_COMPLEXITY>
265

> <PUBCHEM_CACTVS_HBOND_ACCEPTOR>
3

> <PUBCHEM_CACTVS_HBOND_DONOR>
0

> <PUBCHEM_CACTVS_ROTATABLE_BOND>
5

> <PUBCHEM_CACTVS_SUBSKEYS>
AAADceByMABEAAAAAAAAAAAAAAAAASAAAAAAAAAAAAAAAAABgAAAHgYAAAAADCvl2EaiwYMABAiMAgVSUACDAIAhCBAAiBQIRIhKICLgERDFAAwghgD4iAYAAAAMAAAAAAAAAAAAAAAAAAAAAAAAAAAAAA==

> <PUBCHEM_IUPAC_OPENEYE_NAME>
2-chloro-N-(2,4-dimethyl-3-thienyl)-N-(2-methoxy-1-methyl-ethyl)acetamide

> <PUBCHEM_IUPAC_CAS_NAME>
2-chloro-N-(2,4-dimethyl-3-thiophenyl)-N-(1-methoxypropan-2-yl)acetamide

> <PUBCHEM_IUPAC_NAME>
2-chloro-N-(2,4-dimethylthiophen-3-yl)-N-(1-methoxypropan-2-yl)acetamide

> <PUBCHEM_IUPAC_SYSTEMATIC_NAME>
2-chloranyl-N-(2,4-dimethylthiophen-3-yl)-N-(1-methoxypropan-2-yl)ethanamide

> <PUBCHEM_IUPAC_TRADITIONAL_NAME>
2-chloro-N-(2,4-dimethyl-3-thienyl)-N-(2-methoxy-1-methyl-ethyl)acetamide

> <PUBCHEM_IUPAC_INCHI>
InChI=1S/C12H18ClNO2S/c1-8-7-17-10(3)12(8)14(11(15)5-13)9(2)6-16-4/h7,9H,5-6H2,1-4H3

> <PUBCHEM_IUPAC_INCHIKEY>
JLYFCTQDENRSOL-UHFFFAOYSA-N

> <PUBCHEM_XLOGP3_AA>
2.6

> <PUBCHEM_EXACT_MASS>
275.074678

> <PUBCHEM_MOLECULAR_FORMULA>
C12H18ClNO2S

> <PUBCHEM_MOLECULAR_WEIGHT>
275.79482

> <PUBCHEM_OPENEYE_CAN_SMILES>
CC1=CSC(=C1N(C(C)COC)C(=O)CCl)C

> <PUBCHEM_OPENEYE_ISO_SMILES>
CC1=CSC(=C1N(C(C)COC)C(=O)CCl)C

> <PUBCHEM_CACTVS_TPSA>
57.8

> <PUBCHEM_MONOISOTOPIC_WEIGHT>
275.074678

> <PUBCHEM_TOTAL_CHARGE>
0

> <PUBCHEM_HEAVY_ATOM_COUNT>
17

> <PUBCHEM_ATOM_DEF_STEREO_COUNT>
0

> <PUBCHEM_ATOM_UDEF_STEREO_COUNT>
1

> <PUBCHEM_BOND_DEF_STEREO_COUNT>
0

> <PUBCHEM_BOND_UDEF_STEREO_COUNT>
0

> <PUBCHEM_ISOTOPIC_ATOM_COUNT>
0

> <PUBCHEM_COMPONENT_COUNT>
1

> <PUBCHEM_CACTVS_TAUTO_COUNT>
1

> <PUBCHEM_COORDINATE_TYPE>
1
5
255

> <PUBCHEM_BONDANNOTATIONS>
10  13  8
2  11  8
2  13  8
6  9  3
7  10  8
7  11  8

$$$$

