441734
  -OEChem-07051212552D

 58 63  0     1  0  0  0  0  0999 V2000
    2.6903   -1.7437    0.0000 O   0  0  0  0  0  0  0  0  0  0  0  0
    8.9453   -0.2085    0.0000 O   0  0  0  0  0  0  0  0  0  0  0  0
    3.6198   -0.2625    0.0000 N   0  0  3  0  0  0  0  0  0  0  0  0
    5.4919   -0.1584    0.0000 C   0  0  2  0  0  0  0  0  0  0  0  0
    6.3615    0.4150    0.0000 C   0  0  1  0  0  0  0  0  0  0  0  0
    7.2625   -0.0189    0.0000 C   0  0  1  0  0  0  0  0  0  0  0  0
    5.5618   -1.1977    0.0000 C   0  0  1  0  0  0  0  0  0  0  0  0
    4.6700   -1.8158    0.0000 C   0  0  2  0  0  0  0  0  0  0  0  0
    7.3563   -1.0562    0.0000 C   0  0  0  0  0  0  0  0  0  0  0  0
    6.5002   -1.6496    0.0000 C   0  0  0  0  0  0  0  0  0  0  0  0
    4.5255    0.3348    0.0000 C   0  0  0  0  0  0  0  0  0  0  0  0
    6.9725   -0.5188    0.0000 C   0  0  0  0  0  0  0  0  0  0  0  0
    7.1556    1.1579    0.0000 C   0  0  0  0  0  0  0  0  0  0  0  0
    6.1390    1.3900    0.0000 C   0  0  0  0  0  0  0  0  0  0  0  0
    8.1634    0.4150    0.0000 C   0  0  2  0  0  0  0  0  0  0  0  0
    3.6925   -1.3450    0.0000 C   0  0  3  0  0  0  0  0  0  0  0  0
    7.7625    2.1718    0.0000 C   0  0  2  0  0  0  0  0  0  0  0  0
    5.8531   -2.7762    0.0000 C   0  0  0  0  0  0  0  0  0  0  0  0
    7.1808   -2.0284    0.0000 C   0  0  0  0  0  0  0  0  0  0  0  0
    6.7625    2.1718    0.0000 C   0  0  0  0  0  0  0  0  0  0  0  0
    8.3860    1.3900    0.0000 C   0  0  0  0  0  0  0  0  0  0  0  0
    4.1343   -2.6602    0.0000 C   0  0  0  0  0  0  0  0  0  0  0  0
    2.5732   -0.0014    0.0000 C   0  0  0  0  0  0  0  0  0  0  0  0
    2.0000   -0.9150    0.0000 C   0  0  0  0  0  0  0  0  0  0  0  0
    9.3609    1.6125    0.0000 C   0  0  0  0  0  0  0  0  0  0  0  0
    5.5957    0.7838    0.0000 H   0  0  0  0  0  0  0  0  0  0  0  0
    5.6188   -2.0458    0.0000 H   0  0  0  0  0  0  0  0  0  0  0  0
    7.6171   -1.6187    0.0000 H   0  0  0  0  0  0  0  0  0  0  0  0
    7.9551   -0.8956    0.0000 H   0  0  0  0  0  0  0  0  0  0  0  0
    6.1396   -2.1540    0.0000 H   0  0  0  0  0  0  0  0  0  0  0  0
    6.9354   -2.0912    0.0000 H   0  0  0  0  0  0  0  0  0  0  0  0
    4.8977    0.8307    0.0000 H   0  0  0  0  0  0  0  0  0  0  0  0
    4.1007    0.7864    0.0000 H   0  0  0  0  0  0  0  0  0  0  0  0
    7.5925   -0.5115    0.0000 H   0  0  0  0  0  0  0  0  0  0  0  0
    7.0427    0.0972    0.0000 H   0  0  0  0  0  0  0  0  0  0  0  0
    6.7478    1.6249    0.0000 H   0  0  0  0  0  0  0  0  0  0  0  0
    6.5856    0.9141    0.0000 H   0  0  0  0  0  0  0  0  0  0  0  0
    5.7524    1.8747    0.0000 H   0  0  0  0  0  0  0  0  0  0  0  0
    5.5804    1.1209    0.0000 H   0  0  0  0  0  0  0  0  0  0  0  0
    8.7487    0.6198    0.0000 H   0  0  0  0  0  0  0  0  0  0  0  0
    3.6708   -1.9646    0.0000 H   0  0  0  0  0  0  0  0  0  0  0  0
    7.9516    3.0005    0.0000 H   0  0  0  0  0  0  0  0  0  0  0  0
    5.4052   -3.2050    0.0000 H   0  0  0  0  0  0  0  0  0  0  0  0
    6.2225   -3.2742    0.0000 H   0  0  0  0  0  0  0  0  0  0  0  0
    7.4152   -2.6024    0.0000 H   0  0  0  0  0  0  0  0  0  0  0  0
    7.7796   -1.8676    0.0000 H   0  0  0  0  0  0  0  0  0  0  0  0
    6.9004    2.7762    0.0000 H   0  0  0  0  0  0  0  0  0  0  0  0
    6.2039    2.4408    0.0000 H   0  0  0  0  0  0  0  0  0  0  0  0
    3.6108   -2.3280    0.0000 H   0  0  0  0  0  0  0  0  0  0  0  0
    3.8022   -3.1837    0.0000 H   0  0  0  0  0  0  0  0  0  0  0  0
    4.6578   -2.9923    0.0000 H   0  0  0  0  0  0  0  0  0  0  0  0
    2.7857    0.5811    0.0000 H   0  0  0  0  0  0  0  0  0  0  0  0
    2.0164    0.2711    0.0000 H   0  0  0  0  0  0  0  0  0  0  0  0
    1.5124   -0.5321    0.0000 H   0  0  0  0  0  0  0  0  0  0  0  0
    1.5680   -1.3597    0.0000 H   0  0  0  0  0  0  0  0  0  0  0  0
    9.5224    0.0180    0.0000 H   0  0  0  0  0  0  0  0  0  0  0  0
    9.7826    1.1580    0.0000 H   0  0  0  0  0  0  0  0  0  0  0  0
    9.5436    2.2049    0.0000 H   0  0  0  0  0  0  0  0  0  0  0  0
  1 16  1  0  0  0  0
  1 24  1  0  0  0  0
 15  2  1  6  0  0  0
  2 56  1  0  0  0  0
  3 11  1  0  0  0  0
  3 16  1  0  0  0  0
  3 23  1  0  0  0  0
  4  5  1  0  0  0  0
  4  7  1  0  0  0  0
  4 11  1  0  0  0  0
  4 12  1  1  0  0  0
  5  6  1  0  0  0  0
  5 14  1  0  0  0  0
  5 26  1  1  0  0  0
  6  9  1  6  0  0  0
  6 13  1  0  0  0  0
  6 15  1  0  0  0  0
  7  8  1  0  0  0  0
  7 10  1  0  0  0  0
  7 27  1  1  0  0  0
  8 16  1  0  0  0  0
  8 18  1  0  0  0  0
  8 22  1  6  0  0  0
  9 10  1  0  0  0  0
  9 28  1  0  0  0  0
  9 29  1  0  0  0  0
 10 30  1  0  0  0  0
 10 31  1  0  0  0  0
 11 32  1  0  0  0  0
 11 33  1  0  0  0  0
 12 19  1  0  0  0  0
 12 34  1  0  0  0  0
 12 35  1  0  0  0  0
 13 17  1  0  0  0  0
 13 36  1  0  0  0  0
 13 37  1  0  0  0  0
 14 20  1  0  0  0  0
 14 38  1  0  0  0  0
 14 39  1  0  0  0  0
 15 21  1  0  0  0  0
 15 40  1  0  0  0  0
 16 41  1  0  0  0  0
 17 20  1  0  0  0  0
 17 21  1  0  0  0  0
 17 42  1  1  0  0  0
 18 19  1  0  0  0  0
 18 43  1  0  0  0  0
 18 44  1  0  0  0  0
 19 45  1  0  0  0  0
 19 46  1  0  0  0  0
 20 47  1  0  0  0  0
 20 48  1  0  0  0  0
 21 25  2  0  0  0  0
 22 49  1  0  0  0  0
 22 50  1  0  0  0  0
 22 51  1  0  0  0  0
 23 24  1  0  0  0  0
 23 52  1  0  0  0  0
 23 53  1  0  0  0  0
 24 54  1  0  0  0  0
 24 55  1  0  0  0  0
 25 57  1  0  0  0  0
 25 58  1  0  0  0  0
M  END
> <PUBCHEM_COMPOUND_CID>
441734

> <PUBCHEM_COMPOUND_CANONICALIZED>
1

> <PUBCHEM_CACTVS_COMPLEXITY>
634

> <PUBCHEM_CACTVS_HBOND_ACCEPTOR>
3

> <PUBCHEM_CACTVS_HBOND_DONOR>
1

> <PUBCHEM_CACTVS_ROTATABLE_BOND>
0

> <PUBCHEM_CACTVS_SUBSKEYS>
AAADcfB6MAAAAAAAAAAAAAAAAAAAAeIAAAA8YMEABgAWAFjwAAAAHgAACAAADxThgAYCAAMABgCAAgBCAAAAAAAgAAAAAAAIAAgCFAIAgQAPQAAEgACQEAGQ0PIPgAAAAAAAAACAAAQAACAAAYAABAAAAA==

> <PUBCHEM_IUPAC_INCHI>
InChI=1S/C22H33NO2/c1-14-15-4-5-17-21(12-15,18(14)24)9-6-16-20(2)7-3-8-22(16,17)13-23-10-11-25-19(20)23/h15-19,24H,1,3-13H2,2H3/t15-,16+,17+,18-,19?,20+,21+,22-/m0/s1

> <PUBCHEM_IUPAC_INCHIKEY>
IVNWJNHFVISYHC-ASBMQCJXSA-N

> <PUBCHEM_XLOGP3_AA>
3.6

> <PUBCHEM_EXACT_MASS>
343.251129

> <PUBCHEM_MOLECULAR_FORMULA>
C22H33NO2

> <PUBCHEM_MOLECULAR_WEIGHT>
343.50292

> <PUBCHEM_OPENEYE_CAN_SMILES>
CC12CCCC3(C1CCC45C3CCC(C4)C(=C)C5O)CN6C2OCC6

> <PUBCHEM_OPENEYE_ISO_SMILES>
C[C@@]12CCC[C@@]3([C@@H]1CC[C@]45[C@H]3CC[C@@H](C4)C(=C)[C@@H]5O)CN6C2OCC6

> <PUBCHEM_CACTVS_TPSA>
32.7

> <PUBCHEM_MONOISOTOPIC_WEIGHT>
343.251129

> <PUBCHEM_TOTAL_CHARGE>
0

> <PUBCHEM_HEAVY_ATOM_COUNT>
25

> <PUBCHEM_ATOM_DEF_STEREO_COUNT>
7

> <PUBCHEM_ATOM_UDEF_STEREO_COUNT>
1

> <PUBCHEM_BOND_DEF_STEREO_COUNT>
0

> <PUBCHEM_BOND_UDEF_STEREO_COUNT>
0

> <PUBCHEM_ISOTOPIC_ATOM_COUNT>
0

> <PUBCHEM_COMPONENT_COUNT>
1

> <PUBCHEM_CACTVS_TAUTO_COUNT>
1

> <PUBCHEM_COORDINATE_TYPE>
1
5
255

> <PUBCHEM_BONDANNOTATIONS>
16  1  3
17  42  5
15  2  6
4  12  5
5  26  5
6  9  6
7  27  5
8  22  6

$$$$

