11630
  -OEChem-06261205553D

 28 27  0     0  0  0  0  0  0999 V2000
    3.1337    2.1801    0.0790 F   0  0  0  0  0  0  0  0  0  0  0  0
   -0.6061   -0.7041    0.2123 O   0  0  0  0  0  0  0  0  0  0  0  0
    2.1418   -0.3752   -0.2006 O   0  0  0  0  0  0  0  0  0  0  0  0
   -2.7533    0.3555    0.1873 C   0  0  0  0  0  0  0  0  0  0  0  0
   -1.9326   -0.8386   -0.2790 C   0  0  0  0  0  0  0  0  0  0  0  0
   -4.1991    0.2679   -0.2932 C   0  0  0  0  0  0  0  0  0  0  0  0
    0.2130   -1.7932   -0.1911 C   0  0  0  0  0  0  0  0  0  0  0  0
    1.6168   -1.5807    0.3421 C   0  0  0  0  0  0  0  0  0  0  0  0
   -5.0256    1.4401    0.2107 C   0  0  0  0  0  0  0  0  0  0  0  0
    3.4600   -0.1248    0.2666 C   0  0  0  0  0  0  0  0  0  0  0  0
    3.9513    1.1730   -0.3341 C   0  0  0  0  0  0  0  0  0  0  0  0
   -2.2879    1.2813   -0.1736 H   0  0  0  0  0  0  0  0  0  0  0  0
   -2.7202    0.4111    1.2827 H   0  0  0  0  0  0  0  0  0  0  0  0
   -2.3715   -1.7682    0.1019 H   0  0  0  0  0  0  0  0  0  0  0  0
   -1.9170   -0.8778   -1.3745 H   0  0  0  0  0  0  0  0  0  0  0  0
   -4.6527   -0.6664    0.0575 H   0  0  0  0  0  0  0  0  0  0  0  0
   -4.2268    0.2508   -1.3889 H   0  0  0  0  0  0  0  0  0  0  0  0
   -0.1963   -2.7316    0.1988 H   0  0  0  0  0  0  0  0  0  0  0  0
    0.2367   -1.8344   -1.2864 H   0  0  0  0  0  0  0  0  0  0  0  0
    2.2547   -2.4254    0.0597 H   0  0  0  0  0  0  0  0  0  0  0  0
    1.5885   -1.4956    1.4346 H   0  0  0  0  0  0  0  0  0  0  0  0
   -5.0458    1.4645    1.3049 H   0  0  0  0  0  0  0  0  0  0  0  0
   -4.6168    2.3906   -0.1470 H   0  0  0  0  0  0  0  0  0  0  0  0
   -6.0569    1.3580   -0.1464 H   0  0  0  0  0  0  0  0  0  0  0  0
    4.1222   -0.9468   -0.0259 H   0  0  0  0  0  0  0  0  0  0  0  0
    3.4447   -0.0393    1.3587 H   0  0  0  0  0  0  0  0  0  0  0  0
    4.9694    1.4050   -0.0111 H   0  0  0  0  0  0  0  0  0  0  0  0
    3.9091    1.1487   -1.4267 H   0  0  0  0  0  0  0  0  0  0  0  0
  1 11  1  0  0  0  0
  2  5  1  0  0  0  0
  2  7  1  0  0  0  0
  3  8  1  0  0  0  0
  3 10  1  0  0  0  0
  4  5  1  0  0  0  0
  4  6  1  0  0  0  0
  4 12  1  0  0  0  0
  4 13  1  0  0  0  0
  5 14  1  0  0  0  0
  5 15  1  0  0  0  0
  6  9  1  0  0  0  0
  6 16  1  0  0  0  0
  6 17  1  0  0  0  0
  7  8  1  0  0  0  0
  7 18  1  0  0  0  0
  7 19  1  0  0  0  0
  8 20  1  0  0  0  0
  8 21  1  0  0  0  0
  9 22  1  0  0  0  0
  9 23  1  0  0  0  0
  9 24  1  0  0  0  0
 10 11  1  0  0  0  0
 10 25  1  0  0  0  0
 10 26  1  0  0  0  0
 11 27  1  0  0  0  0
 11 28  1  0  0  0  0
M  END
> <PUBCHEM_COMPOUND_CID>
11630

> <PUBCHEM_CONFORMER_RMSD>
0.8

> <PUBCHEM_CONFORMER_DIVERSEORDER>
1
100
79
89
26
126
55
2
53
119
86
124
7
80
95
73
68
122
115
78
17
59
105
27
110
107
85
121
16
120
129
72
70
18
91
10
12
31
123
43
97
87
98
37
127
23
96
93
92
50
49
29
34
56
82
83
21
13
42
75
60
116
30
111
106
112
117
8
6
46
77
108
24
41
58
114
40
66
113
101
5
118
90
99
69
84
15
51
63
28
25
81
48
19
14
36
45
128
38
102
3
71
109
22
9
4
104
54
64
35
74
52
67
57
33
103
88
11
39
94
20
32
44
76
125
47
65
61
62

> <PUBCHEM_MMFF94_PARTIAL_CHARGES>
8
1 -0.34
10 0.28
11 0.34
2 -0.56
3 -0.56
5 0.28
7 0.28
8 0.28

> <PUBCHEM_EFFECTIVE_ROTOR_COUNT>
8

> <PUBCHEM_PHARMACOPHORE_FEATURES>
3
1 2 acceptor
1 3 acceptor
1 9 hydrophobe

> <PUBCHEM_HEAVY_ATOM_COUNT>
11

> <PUBCHEM_ATOM_DEF_STEREO_COUNT>
0

> <PUBCHEM_ATOM_UDEF_STEREO_COUNT>
0

> <PUBCHEM_BOND_DEF_STEREO_COUNT>
0

> <PUBCHEM_BOND_UDEF_STEREO_COUNT>
0

> <PUBCHEM_ISOTOPIC_ATOM_COUNT>
0

> <PUBCHEM_COMPONENT_COUNT>
1

> <PUBCHEM_CACTVS_TAUTO_COUNT>
1

> <PUBCHEM_CONFORMER_ID>
00002D6E00000001

> <PUBCHEM_MMFF94_ENERGY>
8.2067

> <PUBCHEM_FEATURE_SELFOVERLAP>
15.227

> <PUBCHEM_SHAPE_FINGERPRINT>
100836 57 18343294856163986100
11159736 12 11455591159774603033
11987891 38 8502365642448341349
122479 349 18343017744584118634
13237642 15 17989194946385082867
14123255 52 18410012121967368991
14123260 362 17749661970097207889
1420 369 10159701300052112593
14251710 61 9511191749872238264
14252887 29 12535350129634035816
14415576 193 18261955257810083527
170605 34 18412544340064266083
177051 138 9871750195463715722
17834072 32 18410571747478953069
17834072 33 18334583434575262543
20432913 95 9655574127932026949
20621476 66 18199182890000041148
20767249 142 9007050267048092837
212847 35 18343580750946822396
21354914 76 9799692601446886809
21499 59 18409172121117595015
22959321 54 18409445920776556209
22959321 60 18130498661305609347
23402655 69 18259703380813418652
23500284 214 18202280269008054642
23532345 1 18340203093954590419
449060 50 18412259571554163791
449060 62 18410855485919110059
8199 26 18409728434961259464
94968 8 8358259246123041692

> <PUBCHEM_SHAPE_MULTIPOLES>
207.36
9.93
1.93
0.65
5.87
0.32
0
6.64
-0.01
-1.27
-0.01
0.03
-0.02
-0.38

> <PUBCHEM_SHAPE_SELFOVERLAP>
369.76

> <PUBCHEM_SHAPE_VOLUME>
135

> <PUBCHEM_COORDINATE_TYPE>
2
5
10

$$$$

