99291
  -OEChem-07051213123D

 20 20  0     1  0  0  0  0  0999 V2000
    3.3891    0.3786    0.0035 O   0  0  0  0  0  0  0  0  0  0  0  0
    1.6156    1.2276    1.1210 O   0  0  0  0  0  0  0  0  0  0  0  0
    1.5830   -1.7745   -0.5611 N   0  0  0  0  0  0  0  0  0  0  0  0
    1.1613   -0.3650   -0.6397 C   0  0  1  0  0  0  0  0  0  0  0  0
   -0.2838   -0.1713   -0.3248 C   0  0  0  0  0  0  0  0  0  0  0  0
   -0.9077   -0.9881    0.6181 C   0  0  0  0  0  0  0  0  0  0  0  0
   -1.0112    0.8264   -0.9735 C   0  0  0  0  0  0  0  0  0  0  0  0
    2.0621    0.4760    0.2599 C   0  0  0  0  0  0  0  0  0  0  0  0
   -2.2592   -0.8074    0.9123 C   0  0  0  0  0  0  0  0  0  0  0  0
   -2.3627    1.0073   -0.6793 C   0  0  0  0  0  0  0  0  0  0  0  0
   -2.9866    0.1904    0.2636 C   0  0  0  0  0  0  0  0  0  0  0  0
    1.3451   -0.0269   -1.6680 H   0  0  0  0  0  0  0  0  0  0  0  0
   -0.3646   -1.7627    1.1525 H   0  0  0  0  0  0  0  0  0  0  0  0
   -0.5374    1.4715   -1.7086 H   0  0  0  0  0  0  0  0  0  0  0  0
   -2.7444   -1.4406    1.6493 H   0  0  0  0  0  0  0  0  0  0  0  0
   -2.9291    1.7847   -1.1837 H   0  0  0  0  0  0  0  0  0  0  0  0
    2.5603   -1.8496   -0.8425 H   0  0  0  0  0  0  0  0  0  0  0  0
    1.0557   -2.3223   -1.2408 H   0  0  0  0  0  0  0  0  0  0  0  0
   -4.0386    0.3321    0.4936 H   0  0  0  0  0  0  0  0  0  0  0  0
    3.9195    0.9578    0.5913 H   0  0  0  0  0  0  0  0  0  0  0  0
  1  8  1  0  0  0  0
  1 20  1  0  0  0  0
  2  8  2  0  0  0  0
  3  4  1  0  0  0  0
  3 17  1  0  0  0  0
  3 18  1  0  0  0  0
  4  5  1  0  0  0  0
  4  8  1  0  0  0  0
  4 12  1  0  0  0  0
  5  6  2  0  0  0  0
  5  7  1  0  0  0  0
  6  9  1  0  0  0  0
  6 13  1  0  0  0  0
  7 10  2  0  0  0  0
  7 14  1  0  0  0  0
  9 11  2  0  0  0  0
  9 15  1  0  0  0  0
 10 11  1  0  0  0  0
 10 16  1  0  0  0  0
 11 19  1  0  0  0  0
M  END
> <PUBCHEM_COMPOUND_CID>
99291

> <PUBCHEM_CONFORMER_RMSD>
0.4

> <PUBCHEM_CONFORMER_DIVERSEORDER>
1
6
7
4
3
5
2
8
9

> <PUBCHEM_MMFF94_PARTIAL_CHARGES>
19
1 -0.65
10 -0.15
11 -0.15
13 0.15
14 0.15
15 0.15
16 0.15
17 0.36
18 0.36
19 0.15
2 -0.57
20 0.5
3 -0.99
4 0.47
5 -0.14
6 -0.15
7 -0.15
8 0.66
9 -0.15

> <PUBCHEM_EFFECTIVE_ROTOR_COUNT>
2

> <PUBCHEM_PHARMACOPHORE_FEATURES>
6
1 1 acceptor
1 2 acceptor
1 3 cation
1 3 donor
3 1 2 8 anion
6 5 6 7 9 10 11 rings

> <PUBCHEM_HEAVY_ATOM_COUNT>
11

> <PUBCHEM_ATOM_DEF_STEREO_COUNT>
1

> <PUBCHEM_ATOM_UDEF_STEREO_COUNT>
0

> <PUBCHEM_BOND_DEF_STEREO_COUNT>
0

> <PUBCHEM_BOND_UDEF_STEREO_COUNT>
0

> <PUBCHEM_ISOTOPIC_ATOM_COUNT>
0

> <PUBCHEM_COMPONENT_COUNT>
1

> <PUBCHEM_CACTVS_TAUTO_COUNT>
1

> <PUBCHEM_CONFORMER_ID>
000183DB00000001

> <PUBCHEM_MMFF94_ENERGY>
25.3195

> <PUBCHEM_FEATURE_SELFOVERLAP>
30.506

> <PUBCHEM_SHAPE_FINGERPRINT>
10857977 72 18059852831671016977
11031198 65 18260261958379427916
12138202 97 18129958831129578383
12326174 3 17604701295960238174
12932764 1 18260261958374205063
13839132 238 18200599227514424933
15219456 202 18340484564335594806
15310529 11 17386007308087914727
15775835 57 16153704314882140537
16945 1 18408880711722896149
20201158 50 18410012156195050099
20645464 45 18343021116217549555
20871998 184 18200302204956790011
21040471 1 17559677437395661903
23235685 24 18341900692278198780
23552423 10 17346305033867262179
2748010 2 17773311451614380615
29004967 10 18333725836152303859
369184 2 18259985985419262495
5084963 1 18129932507290676327
8030462 33 4678816099903525045

> <PUBCHEM_SHAPE_MULTIPOLES>
209.66
4.4
1.32
1.01
0.94
0.23
-0.08
-0.55
-0.57
-0.15
0.09
0.14
-0.05
0.77

> <PUBCHEM_SHAPE_SELFOVERLAP>
434.484

> <PUBCHEM_SHAPE_VOLUME>
119.3

> <PUBCHEM_COORDINATE_TYPE>
2
5
10

$$$$

