3574
  -OEChem-06251223312D

192193  0     1  0  0  0  0  0999 V2000
   30.5788   -1.7500    0.0000 O   0  0  0  0  0  0  0  0  0  0  0  0
    8.9282    1.7500    0.0000 O   0  0  0  0  0  0  0  0  0  0  0  0
   29.7128   -3.2500    0.0000 O   0  0  0  0  0  0  0  0  0  0  0  0
    9.7942    3.2500    0.0000 O   0  0  0  0  0  0  0  0  0  0  0  0
   28.8468    0.2500    0.0000 C   0  0  0  0  0  0  0  0  0  0  0  0
   27.9808   -0.2500    0.0000 C   0  0  3  0  0  0  0  0  0  0  0  0
   29.7128   -0.2500    0.0000 C   0  0  0  0  0  0  0  0  0  0  0  0
   29.7128   -1.2500    0.0000 C   0  0  3  0  0  0  0  0  0  0  0  0
   27.9808   -1.2500    0.0000 C   0  0  0  0  0  0  0  0  0  0  0  0
   29.3468    1.1160    0.0000 C   0  0  0  0  0  0  0  0  0  0  0  0
   28.3468    1.1160    0.0000 C   0  0  0  0  0  0  0  0  0  0  0  0
   28.8468   -1.7500    0.0000 C   0  0  0  0  0  0  0  0  0  0  0  0
   27.1147    0.2500    0.0000 C   0  0  0  0  0  0  0  0  0  0  0  0
   10.6603   -0.2500    0.0000 C   0  0  0  0  0  0  0  0  0  0  0  0
    9.7942    0.2500    0.0000 C   0  0  0  0  0  0  0  0  0  0  0  0
   27.1147   -1.7500    0.0000 C   0  0  0  0  0  0  0  0  0  0  0  0
    9.7942    1.2500    0.0000 C   0  0  3  0  0  0  0  0  0  0  0  0
   11.5263    0.2500    0.0000 C   0  0  0  0  0  0  0  0  0  0  0  0
   10.6603    1.7500    0.0000 C   0  0  0  0  0  0  0  0  0  0  0  0
   11.5263    1.2500    0.0000 C   0  0  0  0  0  0  0  0  0  0  0  0
   10.1603   -1.1160    0.0000 C   0  0  0  0  0  0  0  0  0  0  0  0
   11.1603   -1.1160    0.0000 C   0  0  0  0  0  0  0  0  0  0  0  0
   26.2487   -0.2500    0.0000 C   0  0  0  0  0  0  0  0  0  0  0  0
   30.5788   -2.7500    0.0000 C   0  0  0  0  0  0  0  0  0  0  0  0
   12.3923   -0.2500    0.0000 C   0  0  0  0  0  0  0  0  0  0  0  0
   12.3923    1.7500    0.0000 C   0  0  0  0  0  0  0  0  0  0  0  0
   25.3827    0.2500    0.0000 C   0  0  0  0  0  0  0  0  0  0  0  0
   31.4449   -3.2500    0.0000 C   0  0  0  0  0  0  0  0  0  0  0  0
   31.4449   -4.2500    0.0000 C   0  0  0  0  0  0  0  0  0  0  0  0
    8.9282    2.7500    0.0000 C   0  0  0  0  0  0  0  0  0  0  0  0
   13.2583    0.2500    0.0000 C   0  0  0  0  0  0  0  0  0  0  0  0
   25.3827    1.2500    0.0000 C   0  0  0  0  0  0  0  0  0  0  0  0
   32.3109   -4.7500    0.0000 C   0  0  0  0  0  0  0  0  0  0  0  0
    8.0622    3.2500    0.0000 C   0  0  0  0  0  0  0  0  0  0  0  0
   24.5167   -0.2500    0.0000 C   0  0  0  0  0  0  0  0  0  0  0  0
    8.0622    4.2500    0.0000 C   0  0  0  0  0  0  0  0  0  0  0  0
   32.3109   -5.7500    0.0000 C   0  0  0  0  0  0  0  0  0  0  0  0
   14.1244   -0.2500    0.0000 C   0  0  0  0  0  0  0  0  0  0  0  0
    7.1962    4.7500    0.0000 C   0  0  0  0  0  0  0  0  0  0  0  0
   33.1769   -6.2500    0.0000 C   0  0  0  0  0  0  0  0  0  0  0  0
    7.1962    5.7500    0.0000 C   0  0  0  0  0  0  0  0  0  0  0  0
   23.6506    0.2500    0.0000 C   0  0  0  0  0  0  0  0  0  0  0  0
   33.1769   -7.2500    0.0000 C   0  0  0  0  0  0  0  0  0  0  0  0
    6.3301    6.2500    0.0000 C   0  0  0  0  0  0  0  0  0  0  0  0
   14.1244   -1.2500    0.0000 C   0  0  0  0  0  0  0  0  0  0  0  0
   34.0429   -7.7500    0.0000 C   0  0  0  0  0  0  0  0  0  0  0  0
   14.9904    0.2500    0.0000 C   0  0  0  0  0  0  0  0  0  0  0  0
    6.3301    7.2500    0.0000 C   0  0  0  0  0  0  0  0  0  0  0  0
   34.0429   -8.7500    0.0000 C   0  0  0  0  0  0  0  0  0  0  0  0
    5.4641    7.7500    0.0000 C   0  0  0  0  0  0  0  0  0  0  0  0
   22.7846   -0.2500    0.0000 C   0  0  0  0  0  0  0  0  0  0  0  0
   34.9090   -9.2500    0.0000 C   0  0  0  0  0  0  0  0  0  0  0  0
    5.4641    8.7500    0.0000 C   0  0  0  0  0  0  0  0  0  0  0  0
    4.5981    9.2500    0.0000 C   0  0  0  0  0  0  0  0  0  0  0  0
   34.9090  -10.2500    0.0000 C   0  0  0  0  0  0  0  0  0  0  0  0
   15.8564   -0.2500    0.0000 C   0  0  0  0  0  0  0  0  0  0  0  0
    4.5981   10.2500    0.0000 C   0  0  0  0  0  0  0  0  0  0  0  0
   35.7750  -10.7500    0.0000 C   0  0  0  0  0  0  0  0  0  0  0  0
   21.9186    0.2500    0.0000 C   0  0  0  0  0  0  0  0  0  0  0  0
    3.7320   10.7500    0.0000 C   0  0  0  0  0  0  0  0  0  0  0  0
   35.7750  -11.7500    0.0000 C   0  0  0  0  0  0  0  0  0  0  0  0
    3.7320   11.7500    0.0000 C   0  0  0  0  0  0  0  0  0  0  0  0
   16.7224    0.2500    0.0000 C   0  0  0  0  0  0  0  0  0  0  0  0
   36.6410  -12.2500    0.0000 C   0  0  0  0  0  0  0  0  0  0  0  0
   21.9186    1.2500    0.0000 C   0  0  0  0  0  0  0  0  0  0  0  0
    2.8660   12.2500    0.0000 C   0  0  0  0  0  0  0  0  0  0  0  0
   21.0526   -0.2500    0.0000 C   0  0  0  0  0  0  0  0  0  0  0  0
   17.5885   -0.2500    0.0000 C   0  0  0  0  0  0  0  0  0  0  0  0
   36.6410  -13.2500    0.0000 C   0  0  0  0  0  0  0  0  0  0  0  0
    2.8660   13.2500    0.0000 C   0  0  0  0  0  0  0  0  0  0  0  0
   20.1865    0.2500    0.0000 C   0  0  0  0  0  0  0  0  0  0  0  0
   18.4545    0.2500    0.0000 C   0  0  0  0  0  0  0  0  0  0  0  0
   17.5885   -1.2500    0.0000 C   0  0  0  0  0  0  0  0  0  0  0  0
   37.5070  -13.7500    0.0000 C   0  0  0  0  0  0  0  0  0  0  0  0
   19.3205   -0.2500    0.0000 C   0  0  0  0  0  0  0  0  0  0  0  0
    2.0000   13.7500    0.0000 C   0  0  0  0  0  0  0  0  0  0  0  0
   27.9808    0.6000    0.0000 H   0  0  0  0  0  0  0  0  0  0  0  0
   30.3234   -0.3577    0.0000 H   0  0  0  0  0  0  0  0  0  0  0  0
   29.9249    0.3326    0.0000 H   0  0  0  0  0  0  0  0  0  0  0  0
   30.4489   -0.8250    0.0000 H   0  0  0  0  0  0  0  0  0  0  0  0
   28.8837    1.4260    0.0000 H   0  0  0  0  0  0  0  0  0  0  0  0
   28.0368    1.6530    0.0000 H   0  0  0  0  0  0  0  0  0  0  0  0
   27.8099    0.8060    0.0000 H   0  0  0  0  0  0  0  0  0  0  0  0
   29.8837    0.8060    0.0000 H   0  0  0  0  0  0  0  0  0  0  0  0
   29.6568    1.6530    0.0000 H   0  0  0  0  0  0  0  0  0  0  0  0
   28.8099    1.4260    0.0000 H   0  0  0  0  0  0  0  0  0  0  0  0
   28.8468   -2.3700    0.0000 H   0  0  0  0  0  0  0  0  0  0  0  0
   27.1147    0.8700    0.0000 H   0  0  0  0  0  0  0  0  0  0  0  0
    9.1836    0.3577    0.0000 H   0  0  0  0  0  0  0  0  0  0  0  0
    9.5822   -0.3326    0.0000 H   0  0  0  0  0  0  0  0  0  0  0  0
   26.8047   -1.2131    0.0000 H   0  0  0  0  0  0  0  0  0  0  0  0
   26.5778   -2.0600    0.0000 H   0  0  0  0  0  0  0  0  0  0  0  0
   27.4247   -2.2869    0.0000 H   0  0  0  0  0  0  0  0  0  0  0  0
    9.0581    0.8250    0.0000 H   0  0  0  0  0  0  0  0  0  0  0  0
   11.0588    2.2250    0.0000 H   0  0  0  0  0  0  0  0  0  0  0  0
   10.2617    2.2250    0.0000 H   0  0  0  0  0  0  0  0  0  0  0  0
   10.6233   -1.4260    0.0000 H   0  0  0  0  0  0  0  0  0  0  0  0
   11.4703   -1.6530    0.0000 H   0  0  0  0  0  0  0  0  0  0  0  0
   11.6972   -0.8060    0.0000 H   0  0  0  0  0  0  0  0  0  0  0  0
    9.6233   -0.8060    0.0000 H   0  0  0  0  0  0  0  0  0  0  0  0
    9.8503   -1.6530    0.0000 H   0  0  0  0  0  0  0  0  0  0  0  0
   10.6972   -1.4260    0.0000 H   0  0  0  0  0  0  0  0  0  0  0  0
   26.2487   -0.8700    0.0000 H   0  0  0  0  0  0  0  0  0  0  0  0
   12.3923   -0.8700    0.0000 H   0  0  0  0  0  0  0  0  0  0  0  0
   12.7023    1.2131    0.0000 H   0  0  0  0  0  0  0  0  0  0  0  0
   12.9292    2.0600    0.0000 H   0  0  0  0  0  0  0  0  0  0  0  0
   12.0823    2.2869    0.0000 H   0  0  0  0  0  0  0  0  0  0  0  0
   32.0554   -3.3577    0.0000 H   0  0  0  0  0  0  0  0  0  0  0  0
   31.6569   -2.6674    0.0000 H   0  0  0  0  0  0  0  0  0  0  0  0
   30.8343   -4.1423    0.0000 H   0  0  0  0  0  0  0  0  0  0  0  0
   31.2328   -4.8326    0.0000 H   0  0  0  0  0  0  0  0  0  0  0  0
   13.2583    0.8700    0.0000 H   0  0  0  0  0  0  0  0  0  0  0  0
   26.0027    1.2500    0.0000 H   0  0  0  0  0  0  0  0  0  0  0  0
   25.3827    1.8700    0.0000 H   0  0  0  0  0  0  0  0  0  0  0  0
   24.7627    1.2500    0.0000 H   0  0  0  0  0  0  0  0  0  0  0  0
    7.4516    3.3577    0.0000 H   0  0  0  0  0  0  0  0  0  0  0  0
    7.8501    2.6674    0.0000 H   0  0  0  0  0  0  0  0  0  0  0  0
   32.9215   -4.8577    0.0000 H   0  0  0  0  0  0  0  0  0  0  0  0
   32.5229   -4.1674    0.0000 H   0  0  0  0  0  0  0  0  0  0  0  0
   24.5167   -0.8700    0.0000 H   0  0  0  0  0  0  0  0  0  0  0  0
    8.6728    4.1423    0.0000 H   0  0  0  0  0  0  0  0  0  0  0  0
    8.2742    4.8326    0.0000 H   0  0  0  0  0  0  0  0  0  0  0  0
   31.7003   -5.6423    0.0000 H   0  0  0  0  0  0  0  0  0  0  0  0
   32.0988   -6.3326    0.0000 H   0  0  0  0  0  0  0  0  0  0  0  0
    6.5856    4.8577    0.0000 H   0  0  0  0  0  0  0  0  0  0  0  0
    6.9841    4.1674    0.0000 H   0  0  0  0  0  0  0  0  0  0  0  0
   33.7875   -6.3577    0.0000 H   0  0  0  0  0  0  0  0  0  0  0  0
   33.3890   -5.6674    0.0000 H   0  0  0  0  0  0  0  0  0  0  0  0
    7.8067    5.6423    0.0000 H   0  0  0  0  0  0  0  0  0  0  0  0
    7.4082    6.3326    0.0000 H   0  0  0  0  0  0  0  0  0  0  0  0
   23.6506    0.8700    0.0000 H   0  0  0  0  0  0  0  0  0  0  0  0
   32.5663   -7.1423    0.0000 H   0  0  0  0  0  0  0  0  0  0  0  0
   32.9649   -7.8326    0.0000 H   0  0  0  0  0  0  0  0  0  0  0  0
    5.7196    6.3577    0.0000 H   0  0  0  0  0  0  0  0  0  0  0  0
    6.1181    5.6674    0.0000 H   0  0  0  0  0  0  0  0  0  0  0  0
   13.5044   -1.2500    0.0000 H   0  0  0  0  0  0  0  0  0  0  0  0
   14.1244   -1.8700    0.0000 H   0  0  0  0  0  0  0  0  0  0  0  0
   14.7444   -1.2500    0.0000 H   0  0  0  0  0  0  0  0  0  0  0  0
   34.6535   -7.8577    0.0000 H   0  0  0  0  0  0  0  0  0  0  0  0
   34.2550   -7.1674    0.0000 H   0  0  0  0  0  0  0  0  0  0  0  0
   14.9904    0.8700    0.0000 H   0  0  0  0  0  0  0  0  0  0  0  0
    6.9407    7.1423    0.0000 H   0  0  0  0  0  0  0  0  0  0  0  0
    6.5422    7.8326    0.0000 H   0  0  0  0  0  0  0  0  0  0  0  0
   33.4324   -8.6423    0.0000 H   0  0  0  0  0  0  0  0  0  0  0  0
   33.8309   -9.3326    0.0000 H   0  0  0  0  0  0  0  0  0  0  0  0
    4.8535    7.8577    0.0000 H   0  0  0  0  0  0  0  0  0  0  0  0
    5.2520    7.1674    0.0000 H   0  0  0  0  0  0  0  0  0  0  0  0
   22.7846   -0.8700    0.0000 H   0  0  0  0  0  0  0  0  0  0  0  0
   35.5195   -9.3577    0.0000 H   0  0  0  0  0  0  0  0  0  0  0  0
   35.1210   -8.6674    0.0000 H   0  0  0  0  0  0  0  0  0  0  0  0
    6.0747    8.6423    0.0000 H   0  0  0  0  0  0  0  0  0  0  0  0
    5.6762    9.3326    0.0000 H   0  0  0  0  0  0  0  0  0  0  0  0
    3.9875    9.3577    0.0000 H   0  0  0  0  0  0  0  0  0  0  0  0
    4.3860    8.6674    0.0000 H   0  0  0  0  0  0  0  0  0  0  0  0
   34.2984  -10.1423    0.0000 H   0  0  0  0  0  0  0  0  0  0  0  0
   34.6969  -10.8326    0.0000 H   0  0  0  0  0  0  0  0  0  0  0  0
   15.8564   -0.8700    0.0000 H   0  0  0  0  0  0  0  0  0  0  0  0
    5.2087   10.1423    0.0000 H   0  0  0  0  0  0  0  0  0  0  0  0
    4.8101   10.8326    0.0000 H   0  0  0  0  0  0  0  0  0  0  0  0
   36.3856  -10.8577    0.0000 H   0  0  0  0  0  0  0  0  0  0  0  0
   35.9870  -10.1674    0.0000 H   0  0  0  0  0  0  0  0  0  0  0  0
    3.1215   10.8577    0.0000 H   0  0  0  0  0  0  0  0  0  0  0  0
    3.5200   10.1674    0.0000 H   0  0  0  0  0  0  0  0  0  0  0  0
   35.1644  -11.6423    0.0000 H   0  0  0  0  0  0  0  0  0  0  0  0
   35.5629  -12.3326    0.0000 H   0  0  0  0  0  0  0  0  0  0  0  0
    4.3426   11.6423    0.0000 H   0  0  0  0  0  0  0  0  0  0  0  0
    3.9441   12.3326    0.0000 H   0  0  0  0  0  0  0  0  0  0  0  0
   16.7224    0.8700    0.0000 H   0  0  0  0  0  0  0  0  0  0  0  0
   37.2516  -12.3577    0.0000 H   0  0  0  0  0  0  0  0  0  0  0  0
   36.8531  -11.6674    0.0000 H   0  0  0  0  0  0  0  0  0  0  0  0
    2.2554   12.3577    0.0000 H   0  0  0  0  0  0  0  0  0  0  0  0
    2.6540   11.6674    0.0000 H   0  0  0  0  0  0  0  0  0  0  0  0
   22.5386    1.2500    0.0000 H   0  0  0  0  0  0  0  0  0  0  0  0
   21.9186    1.8700    0.0000 H   0  0  0  0  0  0  0  0  0  0  0  0
   21.2986    1.2500    0.0000 H   0  0  0  0  0  0  0  0  0  0  0  0
   21.0526   -0.8700    0.0000 H   0  0  0  0  0  0  0  0  0  0  0  0
   36.0304  -13.1423    0.0000 H   0  0  0  0  0  0  0  0  0  0  0  0
   36.4290  -13.8326    0.0000 H   0  0  0  0  0  0  0  0  0  0  0  0
    3.4766   13.1423    0.0000 H   0  0  0  0  0  0  0  0  0  0  0  0
    3.0781   13.8326    0.0000 H   0  0  0  0  0  0  0  0  0  0  0  0
   20.1865    0.8700    0.0000 H   0  0  0  0  0  0  0  0  0  0  0  0
   18.4545    0.8700    0.0000 H   0  0  0  0  0  0  0  0  0  0  0  0
   37.1970  -14.2869    0.0000 H   0  0  0  0  0  0  0  0  0  0  0  0
   38.0440  -14.0600    0.0000 H   0  0  0  0  0  0  0  0  0  0  0  0
   37.8170  -13.2131    0.0000 H   0  0  0  0  0  0  0  0  0  0  0  0
   16.9685   -1.2500    0.0000 H   0  0  0  0  0  0  0  0  0  0  0  0
   17.5885   -1.8700    0.0000 H   0  0  0  0  0  0  0  0  0  0  0  0
   18.2085   -1.2500    0.0000 H   0  0  0  0  0  0  0  0  0  0  0  0
   19.3205   -0.8700    0.0000 H   0  0  0  0  0  0  0  0  0  0  0  0
    2.3100   14.2869    0.0000 H   0  0  0  0  0  0  0  0  0  0  0  0
    1.4631   14.0600    0.0000 H   0  0  0  0  0  0  0  0  0  0  0  0
    1.6900   13.2131    0.0000 H   0  0  0  0  0  0  0  0  0  0  0  0
  1  8  1  0  0  0  0
  1 24  1  0  0  0  0
  2 17  1  0  0  0  0
  2 30  1  0  0  0  0
  3 24  2  0  0  0  0
  4 30  2  0  0  0  0
  5  6  1  0  0  0  0
  5  7  1  0  0  0  0
  5 10  1  0  0  0  0
  5 11  1  0  0  0  0
  6  9  1  0  0  0  0
  6 13  1  0  0  0  0
  6 77  1  0  0  0  0
  7  8  1  0  0  0  0
  7 78  1  0  0  0  0
  7 79  1  0  0  0  0
  8 12  1  0  0  0  0
  8 80  1  0  0  0  0
  9 12  2  0  0  0  0
  9 16  1  0  0  0  0
 10 84  1  0  0  0  0
 10 85  1  0  0  0  0
 10 86  1  0  0  0  0
 11 81  1  0  0  0  0
 11 82  1  0  0  0  0
 11 83  1  0  0  0  0
 12 87  1  0  0  0  0
 13 23  2  3  0  0  0
 13 88  1  0  0  0  0
 14 15  1  0  0  0  0
 14 18  1  0  0  0  0
 14 21  1  0  0  0  0
 14 22  1  0  0  0  0
 15 17  1  0  0  0  0
 15 89  1  0  0  0  0
 15 90  1  0  0  0  0
 16 91  1  0  0  0  0
 16 92  1  0  0  0  0
 16 93  1  0  0  0  0
 17 19  1  0  0  0  0
 17 94  1  0  0  0  0
 18 20  2  0  0  0  0
 18 25  1  0  0  0  0
 19 20  1  0  0  0  0
 19 95  1  0  0  0  0
 19 96  1  0  0  0  0
 20 26  1  0  0  0  0
 21100  1  0  0  0  0
 21101  1  0  0  0  0
 21102  1  0  0  0  0
 22 97  1  0  0  0  0
 22 98  1  0  0  0  0
 22 99  1  0  0  0  0
 23 27  1  0  0  0  0
 23103  1  0  0  0  0
 24 28  1  0  0  0  0
 25 31  2  3  0  0  0
 25104  1  0  0  0  0
 26105  1  0  0  0  0
 26106  1  0  0  0  0
 26107  1  0  0  0  0
 27 32  1  0  0  0  0
 27 35  2  3  0  0  0
 28 29  1  0  0  0  0
 28108  1  0  0  0  0
 28109  1  0  0  0  0
 29 33  1  0  0  0  0
 29110  1  0  0  0  0
 29111  1  0  0  0  0
 30 34  1  0  0  0  0
 31 38  1  0  0  0  0
 31112  1  0  0  0  0
 32113  1  0  0  0  0
 32114  1  0  0  0  0
 32115  1  0  0  0  0
 33 37  1  0  0  0  0
 33118  1  0  0  0  0
 33119  1  0  0  0  0
 34 36  1  0  0  0  0
 34116  1  0  0  0  0
 34117  1  0  0  0  0
 35 42  1  0  0  0  0
 35120  1  0  0  0  0
 36 39  1  0  0  0  0
 36121  1  0  0  0  0
 36122  1  0  0  0  0
 37 40  1  0  0  0  0
 37123  1  0  0  0  0
 37124  1  0  0  0  0
 38 45  1  0  0  0  0
 38 47  2  3  0  0  0
 39 41  1  0  0  0  0
 39125  1  0  0  0  0
 39126  1  0  0  0  0
 40 43  1  0  0  0  0
 40127  1  0  0  0  0
 40128  1  0  0  0  0
 41 44  1  0  0  0  0
 41129  1  0  0  0  0
 41130  1  0  0  0  0
 42 51  2  3  0  0  0
 42131  1  0  0  0  0
 43 46  1  0  0  0  0
 43132  1  0  0  0  0
 43133  1  0  0  0  0
 44 48  1  0  0  0  0
 44134  1  0  0  0  0
 44135  1  0  0  0  0
 45136  1  0  0  0  0
 45137  1  0  0  0  0
 45138  1  0  0  0  0
 46 49  1  0  0  0  0
 46139  1  0  0  0  0
 46140  1  0  0  0  0
 47 56  1  0  0  0  0
 47141  1  0  0  0  0
 48 50  1  0  0  0  0
 48142  1  0  0  0  0
 48143  1  0  0  0  0
 49 52  1  0  0  0  0
 49144  1  0  0  0  0
 49145  1  0  0  0  0
 50 53  1  0  0  0  0
 50146  1  0  0  0  0
 50147  1  0  0  0  0
 51 59  1  0  0  0  0
 51148  1  0  0  0  0
 52 55  1  0  0  0  0
 52149  1  0  0  0  0
 52150  1  0  0  0  0
 53 54  1  0  0  0  0
 53151  1  0  0  0  0
 53152  1  0  0  0  0
 54 57  1  0  0  0  0
 54153  1  0  0  0  0
 54154  1  0  0  0  0
 55 58  1  0  0  0  0
 55155  1  0  0  0  0
 55156  1  0  0  0  0
 56 63  2  3  0  0  0
 56157  1  0  0  0  0
 57 60  1  0  0  0  0
 57158  1  0  0  0  0
 57159  1  0  0  0  0
 58 61  1  0  0  0  0
 58160  1  0  0  0  0
 58161  1  0  0  0  0
 59 65  1  0  0  0  0
 59 67  2  3  0  0  0
 60 62  1  0  0  0  0
 60162  1  0  0  0  0
 60163  1  0  0  0  0
 61 64  1  0  0  0  0
 61164  1  0  0  0  0
 61165  1  0  0  0  0
 62 66  1  0  0  0  0
 62166  1  0  0  0  0
 62167  1  0  0  0  0
 63 68  1  0  0  0  0
 63168  1  0  0  0  0
 64 69  1  0  0  0  0
 64169  1  0  0  0  0
 64170  1  0  0  0  0
 65173  1  0  0  0  0
 65174  1  0  0  0  0
 65175  1  0  0  0  0
 66 70  1  0  0  0  0
 66171  1  0  0  0  0
 66172  1  0  0  0  0
 67 71  1  0  0  0  0
 67176  1  0  0  0  0
 68 72  2  3  0  0  0
 68 73  1  0  0  0  0
 69 74  1  0  0  0  0
 69177  1  0  0  0  0
 69178  1  0  0  0  0
 70 76  1  0  0  0  0
 70179  1  0  0  0  0
 70180  1  0  0  0  0
 71 75  2  3  0  0  0
 71181  1  0  0  0  0
 72 75  1  0  0  0  0
 72182  1  0  0  0  0
 73186  1  0  0  0  0
 73187  1  0  0  0  0
 73188  1  0  0  0  0
 74183  1  0  0  0  0
 74184  1  0  0  0  0
 74185  1  0  0  0  0
 75189  1  0  0  0  0
 76190  1  0  0  0  0
 76191  1  0  0  0  0
 76192  1  0  0  0  0
M  END
> <PUBCHEM_COMPOUND_CID>
3574

> <PUBCHEM_COMPOUND_CANONICALIZED>
1

> <PUBCHEM_CACTVS_COMPLEXITY>
1980

> <PUBCHEM_CACTVS_HBOND_ACCEPTOR>
4

> <PUBCHEM_CACTVS_HBOND_DONOR>
0

> <PUBCHEM_CACTVS_ROTATABLE_BOND>
42

> <PUBCHEM_CACTVS_SUBSKEYS>
AAADcfB8OAAAAAAAAAAAAAAAAAAAAAAAAAAgQAAAAAAAAAAAAAAAGgAAAAAADxSggAICCAAABACIAiDSCAAAAAAgAAAICAEAAAgIBBIAIQACEAAEwAAIoAOIyOCPgAAAAAAAAAAAAAAAAAAAAAAAAAAAAA==

> <PUBCHEM_IUPAC_OPENEYE_NAME>
[4-[18-(4-hexadecanoyloxy-2,6,6-trimethyl-cyclohex-2-en-1-yl)-3,7,12,16-tetramethyl-octadeca-1,3,5,7,9,11,13,15,17-nonaenyl]-3,5,5-trimethyl-cyclohex-3-en-1-yl] hexadecanoate

> <PUBCHEM_IUPAC_CAS_NAME>
hexadecanoic acid [3,5,5-trimethyl-4-[3,7,12,16-tetramethyl-18-[2,6,6-trimethyl-4-(1-oxohexadecoxy)-1-cyclohex-2-enyl]octadeca-1,3,5,7,9,11,13,15,17-nonaenyl]-1-cyclohex-3-enyl] ester

> <PUBCHEM_IUPAC_NAME>
[4-[18-(4-hexadecanoyloxy-2,6,6-trimethylcyclohex-2-en-1-yl)-3,7,12,16-tetramethyloctadeca-1,3,5,7,9,11,13,15,17-nonaenyl]-3,5,5-trimethylcyclohex-3-en-1-yl] hexadecanoate

> <PUBCHEM_IUPAC_SYSTEMATIC_NAME>
[4-[18-(4-hexadecanoyloxy-2,6,6-trimethyl-cyclohex-2-en-1-yl)-3,7,12,16-tetramethyl-octadeca-1,3,5,7,9,11,13,15,17-nonaenyl]-3,5,5-trimethyl-cyclohex-3-en-1-yl] hexadecanoate

> <PUBCHEM_IUPAC_TRADITIONAL_NAME>
palmitic acid [4-[18-(4-hexadecanoyloxy-2,6,6-trimethyl-cyclohex-2-en-1-yl)-3,7,12,16-tetramethyl-octadeca-1,3,5,7,9,11,13,15,17-nonaenyl]-3,5,5-trimethyl-cyclohex-3-en-1-yl] ester

> <PUBCHEM_IUPAC_INCHI>
InChI=1S/C72H116O4/c1-13-15-17-19-21-23-25-27-29-31-33-35-37-49-69(73)75-65-55-63(7)67(71(9,10)57-65)53-51-61(5)47-41-45-59(3)43-39-40-44-60(4)46-42-48-62(6)52-54-68-64(8)56-66(58-72(68,11)12)76-70(74)50-38-36-34-32-30-28-26-24-22-20-18-16-14-2/h39-48,51-55,65-67H,13-38,49-50,56-58H2,1-12H3

> <PUBCHEM_IUPAC_INCHIKEY>
YHGJHDJZIOYZIR-UHFFFAOYSA-N

> <PUBCHEM_XLOGP3_AA>
26.8

> <PUBCHEM_EXACT_MASS>
1044.887362

> <PUBCHEM_MOLECULAR_FORMULA>
C72H116O4

> <PUBCHEM_MOLECULAR_WEIGHT>
1045.68904

> <PUBCHEM_OPENEYE_CAN_SMILES>
CCCCCCCCCCCCCCCC(=O)OC1CC(=C(C(C1)(C)C)C=CC(=CC=CC(=CC=CC=C(C)C=CC=C(C)C=CC2C(=CC(CC2(C)C)OC(=O)CCCCCCCCCCCCCCC)C)C)C)C

> <PUBCHEM_OPENEYE_ISO_SMILES>
CCCCCCCCCCCCCCCC(=O)OC1CC(=C(C(C1)(C)C)C=CC(=CC=CC(=CC=CC=C(C)C=CC=C(C)C=CC2C(=CC(CC2(C)C)OC(=O)CCCCCCCCCCCCCCC)C)C)C)C

> <PUBCHEM_CACTVS_TPSA>
52.6

> <PUBCHEM_MONOISOTOPIC_WEIGHT>
1044.887362

> <PUBCHEM_TOTAL_CHARGE>
0

> <PUBCHEM_HEAVY_ATOM_COUNT>
76

> <PUBCHEM_ATOM_DEF_STEREO_COUNT>
0

> <PUBCHEM_ATOM_UDEF_STEREO_COUNT>
3

> <PUBCHEM_BOND_DEF_STEREO_COUNT>
0

> <PUBCHEM_BOND_UDEF_STEREO_COUNT>
9

> <PUBCHEM_ISOTOPIC_ATOM_COUNT>
0

> <PUBCHEM_COMPONENT_COUNT>
1

> <PUBCHEM_CACTVS_TAUTO_COUNT>
1

> <PUBCHEM_COORDINATE_TYPE>
1
5
255

> <PUBCHEM_BONDANNOTATIONS>
13  23  1
17  94  3
25  31  1
27  35  1
38  47  1
42  51  1
56  63  1
59  67  1
6  77  3
68  72  1
71  75  1
8  80  3

$$$$

