10274
  -OEChem-06261204253D

 32 34  0     0  0  0  0  0  0999 V2000
    0.7191   -0.7891    0.0054 O   0  0  0  0  0  0  0  0  0  0  0  0
   -0.2588    2.7666    0.0411 O   0  0  0  0  0  0  0  0  0  0  0  0
    2.3898    3.0369   -0.0055 O   0  0  0  0  0  0  0  0  0  0  0  0
   -4.2225   -0.5118    2.3909 O   0  0  0  0  0  0  0  0  0  0  0  0
   -4.2239   -0.4836   -2.3984 O   0  0  0  0  0  0  0  0  0  0  0  0
   -5.5866   -0.7771   -0.0051 O   0  0  0  0  0  0  0  0  0  0  0  0
    5.0670   -2.6551   -0.0003 O   0  0  0  0  0  0  0  0  0  0  0  0
   -0.0752    0.3527    0.0001 C   0  0  0  0  0  0  0  0  0  0  0  0
    2.7052    0.6646   -0.0034 C   0  0  0  0  0  0  0  0  0  0  0  0
   -1.5150    0.0577   -0.0013 C   0  0  0  0  0  0  0  0  0  0  0  0
    2.1057   -0.6720    0.0021 C   0  0  0  0  0  0  0  0  0  0  0  0
    0.4564    1.5910    0.0075 C   0  0  0  0  0  0  0  0  0  0  0  0
    1.8986    1.7457   -0.0013 C   0  0  0  0  0  0  0  0  0  0  0  0
   -2.2016   -0.0756   -1.2098 C   0  0  0  0  0  0  0  0  0  0  0  0
   -2.2009   -0.0904    1.2061 C   0  0  0  0  0  0  0  0  0  0  0  0
    4.1566    0.7893   -0.0103 C   0  0  0  0  0  0  0  0  0  0  0  0
    2.8724   -1.7711    0.0033 C   0  0  0  0  0  0  0  0  0  0  0  0
   -3.5674   -0.3705    1.2049 C   0  0  0  0  0  0  0  0  0  0  0  0
   -3.5681   -0.3555   -1.2111 C   0  0  0  0  0  0  0  0  0  0  0  0
   -4.2511   -0.5032   -0.0037 C   0  0  0  0  0  0  0  0  0  0  0  0
    4.9455   -0.2928   -0.0094 C   0  0  0  0  0  0  0  0  0  0  0  0
    4.3548   -1.6567   -0.0018 C   0  0  0  0  0  0  0  0  0  0  0  0
   -1.6701    0.0384   -2.1525 H   0  0  0  0  0  0  0  0  0  0  0  0
   -1.6688    0.0124    2.1496 H   0  0  0  0  0  0  0  0  0  0  0  0
    4.6504    1.7524   -0.0153 H   0  0  0  0  0  0  0  0  0  0  0  0
    2.4442   -2.7673    0.0073 H   0  0  0  0  0  0  0  0  0  0  0  0
    6.0261   -0.2072   -0.0139 H   0  0  0  0  0  0  0  0  0  0  0  0
    0.3657    3.5121    0.0471 H   0  0  0  0  0  0  0  0  0  0  0  0
    3.3555    3.0578   -0.0200 H   0  0  0  0  0  0  0  0  0  0  0  0
   -3.5906   -0.3866    3.1196 H   0  0  0  0  0  0  0  0  0  0  0  0
   -3.5924   -0.3496   -3.1259 H   0  0  0  0  0  0  0  0  0  0  0  0
   -5.8876   -0.8330   -0.9286 H   0  0  0  0  0  0  0  0  0  0  0  0
  1  8  1  0  0  0  0
  1 11  1  0  0  0  0
  2 12  1  0  0  0  0
  2 28  1  0  0  0  0
  3 13  1  0  0  0  0
  3 29  1  0  0  0  0
  4 18  1  0  0  0  0
  4 30  1  0  0  0  0
  5 19  1  0  0  0  0
  5 31  1  0  0  0  0
  6 20  1  0  0  0  0
  6 32  1  0  0  0  0
  7 22  2  0  0  0  0
  8 10  1  0  0  0  0
  8 12  2  0  0  0  0
  9 11  1  0  0  0  0
  9 13  2  0  0  0  0
  9 16  1  0  0  0  0
 10 14  2  0  0  0  0
 10 15  1  0  0  0  0
 11 17  2  0  0  0  0
 12 13  1  0  0  0  0
 14 19  1  0  0  0  0
 14 23  1  0  0  0  0
 15 18  2  0  0  0  0
 15 24  1  0  0  0  0
 16 21  2  0  0  0  0
 16 25  1  0  0  0  0
 17 22  1  0  0  0  0
 17 26  1  0  0  0  0
 18 20  1  0  0  0  0
 19 20  2  0  0  0  0
 21 22  1  0  0  0  0
 21 27  1  0  0  0  0
M  END
> <PUBCHEM_COMPOUND_CID>
10274

> <PUBCHEM_CONFORMER_RMSD>
0.6

> <PUBCHEM_CONFORMER_DIVERSEORDER>
1
2
3

> <PUBCHEM_MMFF94_PARTIAL_CHARGES>
31
1 -0.15
10 0.03
11 0.08
12 0.08
13 0.08
14 -0.15
15 -0.15
16 -0.15
17 -0.14
18 0.08
19 0.08
2 -0.53
20 0.08
21 -0.14
22 0.54
23 0.15
24 0.15
25 0.15
26 0.15
27 0.15
28 0.45
29 0.45
3 -0.53
30 0.45
31 0.45
32 0.45
4 -0.53
5 -0.53
6 -0.53
7 -0.57
8 0.05

> <PUBCHEM_EFFECTIVE_ROTOR_COUNT>
1

> <PUBCHEM_PHARMACOPHORE_FEATURES>
10
1 1 acceptor
1 2 donor
1 3 donor
1 4 donor
1 5 donor
1 6 donor
1 7 acceptor
6 1 8 9 11 12 13 rings
6 10 14 15 18 19 20 rings
6 9 11 16 17 21 22 rings

> <PUBCHEM_HEAVY_ATOM_COUNT>
22

> <PUBCHEM_ATOM_DEF_STEREO_COUNT>
0

> <PUBCHEM_ATOM_UDEF_STEREO_COUNT>
0

> <PUBCHEM_BOND_DEF_STEREO_COUNT>
0

> <PUBCHEM_BOND_UDEF_STEREO_COUNT>
0

> <PUBCHEM_ISOTOPIC_ATOM_COUNT>
0

> <PUBCHEM_COMPONENT_COUNT>
1

> <PUBCHEM_CACTVS_TAUTO_COUNT>
267

> <PUBCHEM_CONFORMER_ID>
0000282200000001

> <PUBCHEM_MMFF94_ENERGY>
67.0703

> <PUBCHEM_FEATURE_SELFOVERLAP>
50.789

> <PUBCHEM_SHAPE_FINGERPRINT>
10622 236 17751953296042303703
10912923 1 17458346325331051698
11471102 20 18412263904949325132
11796584 16 16702031915158935162
12236239 1 17749106669401353995
12553582 1 18408598184774707622
12596602 18 17022910008111176258
12623949 98 17482514566099844867
13134695 92 18410014312437996668
13140716 1 18121501246466592000
13533116 47 18261393287409697851
13544653 18 18341328976575847828
13760787 5 18409165511130797166
13782708 43 17775280518158125251
13862211 1 18410857694255467466
14386348 63 17846497015437871755
14739800 52 16154285883940783968
15196674 1 18338797922457818496
15788980 27 18408606976140083487
15961568 22 15625652779275346172
17349148 13 17822293465775367119
17357779 13 18272941539234776860
1813 80 18188475978236790548
18186145 218 17561367287835833465
18222031 100 18261401074196195086
200 152 18334017198402166777
20645477 70 18343025449802653936
21033648 29 17917442994693675621
21033650 10 15697719332341012284
21065201 7 16415203360112752113
21267235 1 18336822083178384518
21641784 216 18058430137109326444
221357 26 18271537454791947085
221490 88 18197496229654875346
22182313 1 18269578125124432756
23175994 123 18202560679218049685
23402539 116 18335703896246685490
23557571 272 17060626577032669541
23559900 14 17275105020080503838
2871803 45 18201720695473901882
314194 84 18408887351985364102
345986 75 18041000704206724658
34797466 226 16773787087316619846
46194498 28 17417529103527910853
465052 167 18334851710379514022
474 4 17826240588065719736
5104073 3 18265055928604396312
5281201 14 17703790310125611900
573450 72 16877941629208578439
602551 16 15213308473659575846
7064713 232 16877946070057459622
77492 1 17676482805347686785
7970288 3 18338236080401166666

> <PUBCHEM_SHAPE_MULTIPOLES>
411.66
11.11
2.19
1.29
1.97
1.07
0.01
-5.75
0.04
-3.23
-0.01
2.6
-0.27
0.01

> <PUBCHEM_SHAPE_SELFOVERLAP>
918.777

> <PUBCHEM_SHAPE_VOLUME>
217.7

> <PUBCHEM_COORDINATE_TYPE>
2
5
10

$$$$

