5959
  -OEChem-07051212453D

 32 32  0     1  0  0  0  0  0999 V2000
   -5.6487    1.8392    0.5707 Cl  0  0  0  0  0  0  0  0  0  0  0  0
   -6.1225   -0.7375   -0.7207 Cl  0  0  0  0  0  0  0  0  0  0  0  0
   -0.6465    0.9864    1.8314 O   0  0  0  0  0  0  0  0  0  0  0  0
   -1.2419   -2.7009   -0.3042 O   0  0  0  0  0  0  0  0  0  0  0  0
   -3.5739    0.8392   -1.5011 O   0  0  0  0  0  0  0  0  0  0  0  0
    5.9774   -0.5362   -0.0210 O   0  5  0  0  0  0  0  0  0  0  0  0
    5.4962    1.2406   -1.2171 O   0  0  0  0  0  0  0  0  0  0  0  0
   -2.6655   -0.2485    0.3337 N   0  0  0  0  0  0  0  0  0  0  0  0
    5.1525    0.3025   -0.4580 N   0  3  0  0  0  0  0  0  0  0  0  0
   -1.2974   -0.2614   -0.1484 C   0  0  1  0  0  0  0  0  0  0  0  0
   -0.3259   -0.1677    1.0478 C   0  0  1  0  0  0  0  0  0  0  0  0
    1.1271   -0.0428    0.6493 C   0  0  0  0  0  0  0  0  0  0  0  0
   -1.0827   -1.4926   -1.0366 C   0  0  0  0  0  0  0  0  0  0  0  0
    2.0423   -0.9644    1.1287 C   0  0  0  0  0  0  0  0  0  0  0  0
    1.5126    0.9908   -0.1878 C   0  0  0  0  0  0  0  0  0  0  0  0
   -3.6981    0.3097   -0.3977 C   0  0  0  0  0  0  0  0  0  0  0  0
    3.3828   -0.8493    0.7604 C   0  0  0  0  0  0  0  0  0  0  0  0
    2.8530    1.1061   -0.5562 C   0  0  0  0  0  0  0  0  0  0  0  0
    3.7882    0.1858   -0.0822 C   0  0  0  0  0  0  0  0  0  0  0  0
   -5.0290    0.2009    0.3090 C   0  0  0  0  0  0  0  0  0  0  0  0
   -1.1860    0.6296   -0.7784 H   0  0  0  0  0  0  0  0  0  0  0  0
   -0.4648   -1.0347    1.7060 H   0  0  0  0  0  0  0  0  0  0  0  0
   -0.0800   -1.4876   -1.4756 H   0  0  0  0  0  0  0  0  0  0  0  0
   -1.8072   -1.5032   -1.8586 H   0  0  0  0  0  0  0  0  0  0  0  0
   -2.8695   -0.7328    1.2030 H   0  0  0  0  0  0  0  0  0  0  0  0
    1.7383   -1.7751    1.7844 H   0  0  0  0  0  0  0  0  0  0  0  0
    0.8019    1.7242   -0.5564 H   0  0  0  0  0  0  0  0  0  0  0  0
   -1.5825    0.9159    2.0855 H   0  0  0  0  0  0  0  0  0  0  0  0
    4.0832   -1.5844    1.1486 H   0  0  0  0  0  0  0  0  0  0  0  0
    3.1331    1.9267   -1.2118 H   0  0  0  0  0  0  0  0  0  0  0  0
   -1.0910   -3.4334   -0.9256 H   0  0  0  0  0  0  0  0  0  0  0  0
   -4.9533   -0.2982    1.2783 H   0  0  0  0  0  0  0  0  0  0  0  0
  1 20  1  0  0  0  0
  2 20  1  0  0  0  0
  3 11  1  0  0  0  0
  3 28  1  0  0  0  0
  4 13  1  0  0  0  0
  4 31  1  0  0  0  0
  5 16  2  0  0  0  0
  6  9  1  0  0  0  0
  7  9  2  0  0  0  0
  8 10  1  0  0  0  0
  8 16  1  0  0  0  0
  8 25  1  0  0  0  0
  9 19  1  0  0  0  0
 10 11  1  0  0  0  0
 10 13  1  0  0  0  0
 10 21  1  0  0  0  0
 11 12  1  0  0  0  0
 11 22  1  0  0  0  0
 12 14  2  0  0  0  0
 12 15  1  0  0  0  0
 13 23  1  0  0  0  0
 13 24  1  0  0  0  0
 14 17  1  0  0  0  0
 14 26  1  0  0  0  0
 15 18  2  0  0  0  0
 15 27  1  0  0  0  0
 16 20  1  0  0  0  0
 17 19  2  0  0  0  0
 17 29  1  0  0  0  0
 18 19  1  0  0  0  0
 18 30  1  0  0  0  0
 20 32  1  0  0  0  0
M  CHG  2   6  -1   9   1
M  END
> <PUBCHEM_COMPOUND_CID>
5959

> <PUBCHEM_CONFORMER_RMSD>
0.8

> <PUBCHEM_CONFORMER_DIVERSEORDER>
1
21
18
2
9
15
11
14
13
19
20
17
16
5
6
7
3
4
8
12
10

> <PUBCHEM_MMFF94_PARTIAL_CHARGES>
27
1 -0.29
10 0.3
11 0.42
12 -0.14
13 0.28
14 -0.15
15 -0.15
16 0.57
17 -0.15
18 -0.15
19 0.13
2 -0.29
20 0.64
25 0.37
26 0.15
27 0.15
28 0.4
29 0.15
3 -0.68
30 0.15
31 0.4
4 -0.68
5 -0.57
6 -0.52
7 -0.52
8 -0.73
9 0.91

> <PUBCHEM_EFFECTIVE_ROTOR_COUNT>
7

> <PUBCHEM_PHARMACOPHORE_FEATURES>
10
1 3 acceptor
1 3 donor
1 4 acceptor
1 4 donor
1 5 acceptor
1 6 acceptor
1 6 anion
1 7 acceptor
1 8 donor
6 12 14 15 17 18 19 rings

> <PUBCHEM_HEAVY_ATOM_COUNT>
20

> <PUBCHEM_ATOM_DEF_STEREO_COUNT>
2

> <PUBCHEM_ATOM_UDEF_STEREO_COUNT>
0

> <PUBCHEM_BOND_DEF_STEREO_COUNT>
0

> <PUBCHEM_BOND_UDEF_STEREO_COUNT>
0

> <PUBCHEM_ISOTOPIC_ATOM_COUNT>
0

> <PUBCHEM_COMPONENT_COUNT>
1

> <PUBCHEM_CACTVS_TAUTO_COUNT>
2

> <PUBCHEM_CONFORMER_ID>
0000174700000001

> <PUBCHEM_MMFF94_ENERGY>
45.9179

> <PUBCHEM_FEATURE_SELFOVERLAP>
50.831

> <PUBCHEM_SHAPE_FINGERPRINT>
11132069 177 13398630580270350139
11796584 16 16877663461541588622
12236239 1 18409448098293118848
12670543 26 17385719244262301853
12730499 353 17060334145657488994
12788726 201 17749666406276321936
12815109 37 14923944552638452708
12916748 109 15985101941882804517
13533116 47 17604147138221862838
14115302 16 18187365389761666258
14251752 14 17749106746262554309
14341114 176 17346595322412062025
14911166 2 17894349964517266363
15048467 5 17989486324881365245
15099037 51 18334574637638273262
15183329 4 18411134762157382564
16752209 62 17895477028333872800
17834072 33 18131356284733629559
18186145 218 17895209783058690569
187816 3 17676204671660262883
20374829 77 16008751316051792188
20645476 183 18411141303234890271
20645477 70 18130792321337069674
20681677 155 18335986385146972946
20871999 31 18263368005566147583
22079108 93 16128373748858354432
221357 26 17988650700402819141
22224240 67 14908178638739782081
22854114 59 15267064761409996881
23402539 116 17749391481219857817
23402655 69 18343863299475387920
23536379 177 18410011056683526328
23559900 14 17749395815574771168
26918003 58 6916260754148193949
29717793 49 18187638142261211620
3004659 81 18334293219314347734
347723 3 18187364350094789640
3545911 37 17703789219156348009
3759504 43 18413388709450116483
439807 62 7564471229525821445
542803 24 18409730672987250489
633830 44 17386304133409857089
69474 34 13183017397877663791
8272917 22 18200592626070816659

> <PUBCHEM_SHAPE_MULTIPOLES>
376.02
13.82
1.6
1.21
2.41
0.48
0.1
-3.24
-2.94
0.96
-0.13
0
-0.14
-1.25

> <PUBCHEM_SHAPE_SELFOVERLAP>
754.646

> <PUBCHEM_SHAPE_VOLUME>
221.6

> <PUBCHEM_COORDINATE_TYPE>
2
5
10

$$$$

