442489
  -OEChem-07051212582D

 45 48  0     1  0  0  0  0  0999 V2000
    2.4600   -0.2292    0.0000 O   0  0  0  0  0  0  0  0  0  0  0  0
    6.6207   -0.0518    0.0000 O   0  0  0  0  0  0  0  0  0  0  0  0
    5.5442    2.8009    0.0000 N   0  0  3  0  0  0  0  0  0  0  0  0
    5.0234   -0.5379    0.0000 C   0  0  1  0  0  0  0  0  0  0  0  0
    4.2143    0.0498    0.0000 C   0  0  1  0  0  0  0  0  0  0  0  0
    4.5234    1.0009    0.0000 C   0  0  2  0  0  0  0  0  0  0  0  0
    5.5234    1.0009    0.0000 C   0  0  2  0  0  0  0  0  0  0  0  0
    4.7137   -1.4826    0.0000 C   0  0  2  0  0  0  0  0  0  0  0  0
    5.8324    0.0498    0.0000 C   0  0  0  0  0  0  0  0  0  0  0  0
    3.4116   -0.5365    0.0000 C   0  0  2  0  0  0  0  0  0  0  0  0
    3.7196   -1.4817    0.0000 C   0  0  0  0  0  0  0  0  0  0  0  0
    3.9887    1.8948    0.0000 C   0  0  0  0  0  0  0  0  0  0  0  0
    6.0122   -0.8453    0.0000 C   0  0  0  0  0  0  0  0  0  0  0  0
    6.0580    1.8948    0.0000 C   0  0  0  0  0  0  0  0  0  0  0  0
    4.9107   -2.4991    0.0000 C   0  0  0  0  0  0  0  0  0  0  0  0
    4.5025    2.8009    0.0000 C   0  0  0  0  0  0  0  0  0  0  0  0
    5.7485   -2.7354    0.0000 C   0  0  0  0  0  0  0  0  0  0  0  0
    6.3762   -1.9508    0.0000 C   0  0  0  0  0  0  0  0  0  0  0  0
    6.0475    3.6650    0.0000 C   0  0  0  0  0  0  0  0  0  0  0  0
    6.1172   -3.6650    0.0000 C   0  0  0  0  0  0  0  0  0  0  0  0
    3.5260    0.5486    0.0000 H   0  0  0  0  0  0  0  0  0  0  0  0
    3.6787    0.9055    0.0000 H   0  0  0  0  0  0  0  0  0  0  0  0
    6.3680    0.9055    0.0000 H   0  0  0  0  0  0  0  0  0  0  0  0
    4.1726   -2.1381    0.0000 H   0  0  0  0  0  0  0  0  0  0  0  0
    6.1424   -0.4871    0.0000 H   0  0  0  0  0  0  0  0  0  0  0  0
    6.3988    0.3020    0.0000 H   0  0  0  0  0  0  0  0  0  0  0  0
    3.3133    0.0756    0.0000 H   0  0  0  0  0  0  0  0  0  0  0  0
    3.1132   -1.6108    0.0000 H   0  0  0  0  0  0  0  0  0  0  0  0
    3.7843   -2.0983    0.0000 H   0  0  0  0  0  0  0  0  0  0  0  0
    3.5097    2.2885    0.0000 H   0  0  0  0  0  0  0  0  0  0  0  0
    3.5189    1.4902    0.0000 H   0  0  0  0  0  0  0  0  0  0  0  0
    6.5278    1.4902    0.0000 H   0  0  0  0  0  0  0  0  0  0  0  0
    6.5370    2.2885    0.0000 H   0  0  0  0  0  0  0  0  0  0  0  0
    4.2911   -2.5214    0.0000 H   0  0  0  0  0  0  0  0  0  0  0  0
    4.8368   -3.1147    0.0000 H   0  0  0  0  0  0  0  0  0  0  0  0
    4.6086    3.4118    0.0000 H   0  0  0  0  0  0  0  0  0  0  0  0
    3.9188    3.0100    0.0000 H   0  0  0  0  0  0  0  0  0  0  0  0
    6.9864   -2.0607    0.0000 H   0  0  0  0  0  0  0  0  0  0  0  0
    2.0000   -0.6448    0.0000 H   0  0  0  0  0  0  0  0  0  0  0  0
    6.5832    3.3529    0.0000 H   0  0  0  0  0  0  0  0  0  0  0  0
    6.3596    4.2007    0.0000 H   0  0  0  0  0  0  0  0  0  0  0  0
    5.5118    3.9771    0.0000 H   0  0  0  0  0  0  0  0  0  0  0  0
    5.5408   -3.8936    0.0000 H   0  0  0  0  0  0  0  0  0  0  0  0
    6.3457   -4.2414    0.0000 H   0  0  0  0  0  0  0  0  0  0  0  0
    6.6935   -3.4365    0.0000 H   0  0  0  0  0  0  0  0  0  0  0  0
 10  1  1  6  0  0  0
  1 39  1  0  0  0  0
  2 13  2  0  0  0  0
  3 14  1  0  0  0  0
  3 16  1  0  0  0  0
  3 19  1  0  0  0  0
  4  5  1  0  0  0  0
  4  8  1  0  0  0  0
  4  9  1  6  0  0  0
  4 13  1  0  0  0  0
  5  6  1  0  0  0  0
  5 10  1  0  0  0  0
  5 21  1  1  0  0  0
  6  7  1  0  0  0  0
  6 12  1  0  0  0  0
  6 22  1  6  0  0  0
  7  9  1  0  0  0  0
  7 14  1  0  0  0  0
  7 23  1  6  0  0  0
  8 11  1  0  0  0  0
  8 15  1  0  0  0  0
  8 24  1  6  0  0  0
  9 25  1  0  0  0  0
  9 26  1  0  0  0  0
 10 11  1  0  0  0  0
 10 27  1  0  0  0  0
 11 28  1  0  0  0  0
 11 29  1  0  0  0  0
 12 16  1  0  0  0  0
 12 30  1  0  0  0  0
 12 31  1  0  0  0  0
 13 18  1  0  0  0  0
 14 32  1  0  0  0  0
 14 33  1  0  0  0  0
 15 17  1  0  0  0  0
 15 34  1  0  0  0  0
 15 35  1  0  0  0  0
 16 36  1  0  0  0  0
 16 37  1  0  0  0  0
 17 18  2  0  0  0  0
 17 20  1  0  0  0  0
 18 38  1  0  0  0  0
 19 40  1  0  0  0  0
 19 41  1  0  0  0  0
 19 42  1  0  0  0  0
 20 43  1  0  0  0  0
 20 44  1  0  0  0  0
 20 45  1  0  0  0  0
M  END
> <PUBCHEM_COMPOUND_CID>
442489

> <PUBCHEM_COMPOUND_CANONICALIZED>
1

> <PUBCHEM_CACTVS_COMPLEXITY>
485

> <PUBCHEM_CACTVS_HBOND_ACCEPTOR>
3

> <PUBCHEM_CACTVS_HBOND_DONOR>
1

> <PUBCHEM_CACTVS_ROTATABLE_BOND>
0

> <PUBCHEM_CACTVS_SUBSKEYS>
AAADceB6MAAAAAAAAAAAAAAAAAAAAYMAAAAsQAAAAAAYAFgAAAAAHgAACAAADxThgAYCAAMAAgCIAqBSAAAAAAAgAAAACAEIAEgAEBIAgQAEQAAEgACIAQOa3fLPgAAAAAAAAAAAAAAAAAAAAYAADAAAAA==

> <PUBCHEM_IUPAC_INCHI>
InChI=1S/C17H25NO2/c1-10-5-12-7-14(19)16-13-3-4-18(2)9-11(13)8-17(12,16)15(20)6-10/h6,11-14,16,19H,3-5,7-9H2,1-2H3/t11-,12+,13+,14+,16+,17-/m1/s1

> <PUBCHEM_IUPAC_INCHIKEY>
ADRPSBGLUHNVOU-INSRFAMQSA-N

> <PUBCHEM_XLOGP3_AA>
1.2

> <PUBCHEM_EXACT_MASS>
275.188529

> <PUBCHEM_MOLECULAR_FORMULA>
C17H25NO2

> <PUBCHEM_MOLECULAR_WEIGHT>
275.3859

> <PUBCHEM_OPENEYE_CAN_SMILES>
CC1=CC(=O)C23CC4CN(CCC4C2C(CC3C1)O)C

> <PUBCHEM_OPENEYE_ISO_SMILES>
CC1=CC(=O)[C@]23C[C@@H]4CN(CC[C@@H]4[C@H]2[C@H](C[C@@H]3C1)O)C

> <PUBCHEM_CACTVS_TPSA>
40.5

> <PUBCHEM_MONOISOTOPIC_WEIGHT>
275.188529

> <PUBCHEM_TOTAL_CHARGE>
0

> <PUBCHEM_HEAVY_ATOM_COUNT>
20

> <PUBCHEM_ATOM_DEF_STEREO_COUNT>
6

> <PUBCHEM_ATOM_UDEF_STEREO_COUNT>
0

> <PUBCHEM_BOND_DEF_STEREO_COUNT>
0

> <PUBCHEM_BOND_UDEF_STEREO_COUNT>
0

> <PUBCHEM_ISOTOPIC_ATOM_COUNT>
0

> <PUBCHEM_COMPONENT_COUNT>
1

> <PUBCHEM_CACTVS_TAUTO_COUNT>
5

> <PUBCHEM_COORDINATE_TYPE>
1
5
255

> <PUBCHEM_BONDANNOTATIONS>
10  1  6
4  9  6
5  21  5
6  22  6
7  23  6
8  24  6

$$$$

