442471
  -OEChem-07051212583D

 24 25  0     1  0  0  0  0  0999 V2000
    0.9939    1.9815   -0.1146 O   0  0  0  0  0  0  0  0  0  0  0  0
    0.0381   -2.5160   -0.0704 O   0  0  0  0  0  0  0  0  0  0  0  0
   -2.3308    0.3125   -0.1229 C   0  0  1  0  0  0  0  0  0  0  0  0
   -1.3759    1.4669   -0.5174 C   0  0  0  0  0  0  0  0  0  0  0  0
   -1.8166   -1.0666   -0.6091 C   0  0  0  0  0  0  0  0  0  0  0  0
    0.0180    1.0533   -0.2532 C   0  0  0  0  0  0  0  0  0  0  0  0
    0.5116   -0.2215   -0.1128 C   0  0  0  0  0  0  0  0  0  0  0  0
   -0.3650   -1.3664   -0.2203 C   0  0  0  0  0  0  0  0  0  0  0  0
   -2.5896    0.2954    1.3893 C   0  0  0  0  0  0  0  0  0  0  0  0
    1.8930   -0.0769    0.1384 C   0  0  0  0  0  0  0  0  0  0  0  0
    2.1387    1.2809    0.1248 C   0  0  0  0  0  0  0  0  0  0  0  0
    2.8845   -1.1432    0.3683 C   0  0  0  0  0  0  0  0  0  0  0  0
   -3.2991    0.5011   -0.6051 H   0  0  0  0  0  0  0  0  0  0  0  0
   -1.6258    2.3855    0.0240 H   0  0  0  0  0  0  0  0  0  0  0  0
   -1.4831    1.6745   -1.5888 H   0  0  0  0  0  0  0  0  0  0  0  0
   -1.8691   -1.1086   -1.7040 H   0  0  0  0  0  0  0  0  0  0  0  0
   -2.4529   -1.8663   -0.2133 H   0  0  0  0  0  0  0  0  0  0  0  0
   -1.6765    0.1096    1.9634 H   0  0  0  0  0  0  0  0  0  0  0  0
   -3.0056    1.2532    1.7196 H   0  0  0  0  0  0  0  0  0  0  0  0
   -3.3127   -0.4858    1.6470 H   0  0  0  0  0  0  0  0  0  0  0  0
    3.0267    1.8810    0.2630 H   0  0  0  0  0  0  0  0  0  0  0  0
    2.9324   -1.8172   -0.4931 H   0  0  0  0  0  0  0  0  0  0  0  0
    3.8868   -0.7322    0.5280 H   0  0  0  0  0  0  0  0  0  0  0  0
    2.6190   -1.7319    1.2523 H   0  0  0  0  0  0  0  0  0  0  0  0
  1  6  1  0  0  0  0
  1 11  1  0  0  0  0
  2  8  2  0  0  0  0
  3  4  1  0  0  0  0
  3  5  1  0  0  0  0
  3  9  1  0  0  0  0
  3 13  1  0  0  0  0
  4  6  1  0  0  0  0
  4 14  1  0  0  0  0
  4 15  1  0  0  0  0
  5  8  1  0  0  0  0
  5 16  1  0  0  0  0
  5 17  1  0  0  0  0
  6  7  2  0  0  0  0
  7  8  1  0  0  0  0
  7 10  1  0  0  0  0
  9 18  1  0  0  0  0
  9 19  1  0  0  0  0
  9 20  1  0  0  0  0
 10 11  2  0  0  0  0
 10 12  1  0  0  0  0
 11 21  1  0  0  0  0
 12 22  1  0  0  0  0
 12 23  1  0  0  0  0
 12 24  1  0  0  0  0
M  END
> <PUBCHEM_COMPOUND_CID>
442471

> <PUBCHEM_CONFORMER_RMSD>
0.4

> <PUBCHEM_CONFORMER_DIVERSEORDER>
2
1

> <PUBCHEM_MMFF94_PARTIAL_CHARGES>
11
1 -0.28
10 -0.18
11 -0.01
12 0.18
2 -0.57
21 0.15
4 0.18
5 0.06
6 -0.04
7 -0.09
8 0.6

> <PUBCHEM_EFFECTIVE_ROTOR_COUNT>
0.6

> <PUBCHEM_PHARMACOPHORE_FEATURES>
4
1 1 acceptor
1 2 acceptor
5 1 6 7 10 11 rings
6 3 4 5 6 7 8 rings

> <PUBCHEM_HEAVY_ATOM_COUNT>
12

> <PUBCHEM_ATOM_DEF_STEREO_COUNT>
1

> <PUBCHEM_ATOM_UDEF_STEREO_COUNT>
0

> <PUBCHEM_BOND_DEF_STEREO_COUNT>
0

> <PUBCHEM_BOND_UDEF_STEREO_COUNT>
0

> <PUBCHEM_ISOTOPIC_ATOM_COUNT>
0

> <PUBCHEM_COMPONENT_COUNT>
1

> <PUBCHEM_CACTVS_TAUTO_COUNT>
2

> <PUBCHEM_CONFORMER_ID>
0006C06700000002

> <PUBCHEM_MMFF94_ENERGY>
13.2117

> <PUBCHEM_FEATURE_SELFOVERLAP>
20.391

> <PUBCHEM_SHAPE_FINGERPRINT>
11471102 22 18200013089169521425
12202030 40 15769508563836930338
12423570 1 15951926669843433725
12524768 44 18340491049757135414
13172582 1 18408603694774519794
13380535 21 18267289938157294404
14617773 55 17896044243590829735
15775835 57 18336822009488596753
16945 1 18336547238802633551
18185500 45 17691129231820724703
193761 8 18123193394339252670
21040471 1 18338237042261876612
21501502 16 18263928743879923606
2334 1 18338521819952204983
23419403 2 11801017472997706645
23463225 33 18197784503817880194
23552423 10 18126851495268280620
23559900 14 18190727654388656532
241688 4 18339654334314431241
2748010 2 18341060717129448868
369184 2 18260556597320169681
5084963 1 18187657889777046327
66348 1 17978233755341941006

> <PUBCHEM_SHAPE_MULTIPOLES>
235.22
3.66
2.07
0.85
0.45
0.41
-0.21
0.03
-0.84
0.4
0.22
-0.5
-0.03
-0.17

> <PUBCHEM_SHAPE_SELFOVERLAP>
502.561

> <PUBCHEM_SHAPE_VOLUME>
133

> <PUBCHEM_COORDINATE_TYPE>
2
5
10

$$$$

