8791
  -OEChem-06261203063D

 51 51  0     0  0  0  0  0  0999 V2000
   -3.6257   -0.3486   -0.0160 O   0  0  0  0  0  0  0  0  0  0  0  0
   -2.4017   -2.2980    0.1322 O   0  0  0  0  0  0  0  0  0  0  0  0
    5.0884   -0.4354   -0.0701 C   0  0  0  0  0  0  0  0  0  0  0  0
    3.7582    0.3177   -0.1314 C   0  0  0  0  0  0  0  0  0  0  0  0
    6.3135    0.4828   -0.1194 C   0  0  0  0  0  0  0  0  0  0  0  0
    2.5728   -0.6390    0.0152 C   0  0  0  0  0  0  0  0  0  0  0  0
    7.6758   -0.2046    0.0261 C   0  0  0  0  0  0  0  0  0  0  0  0
    1.2404    0.1074   -0.0787 C   0  0  0  0  0  0  0  0  0  0  0  0
    8.8535    0.7731    0.0293 C   0  0  0  0  0  0  0  0  0  0  0  0
    0.0555   -0.8570    0.0341 C   0  0  0  0  0  0  0  0  0  0  0  0
   10.2167    0.0783    0.0845 C   0  0  0  0  0  0  0  0  0  0  0  0
   -1.2914   -0.1440   -0.0841 C   0  0  0  0  0  0  0  0  0  0  0  0
   11.3936    1.0412    0.0594 C   0  0  0  0  0  0  0  0  0  0  0  0
   -2.4738   -1.0823    0.0156 C   0  0  0  0  0  0  0  0  0  0  0  0
   -4.8383   -1.1000    0.0998 C   0  0  0  0  0  0  0  0  0  0  0  0
   -6.0051   -0.1580    0.0483 C   0  0  0  0  0  0  0  0  0  0  0  0
   -6.5052    0.3979    1.2260 C   0  0  0  0  0  0  0  0  0  0  0  0
   -6.5896    0.1623   -1.1771 C   0  0  0  0  0  0  0  0  0  0  0  0
   -7.5897    1.2738    1.1782 C   0  0  0  0  0  0  0  0  0  0  0  0
   -7.6741    1.0382   -1.2248 C   0  0  0  0  0  0  0  0  0  0  0  0
   -8.1740    1.5941   -0.0471 C   0  0  0  0  0  0  0  0  0  0  0  0
    5.1432   -1.1509   -0.8996 H   0  0  0  0  0  0  0  0  0  0  0  0
    5.1274   -1.0222    0.8562 H   0  0  0  0  0  0  0  0  0  0  0  0
    3.7228    1.0679    0.6677 H   0  0  0  0  0  0  0  0  0  0  0  0
    3.6880    0.8560   -1.0842 H   0  0  0  0  0  0  0  0  0  0  0  0
    6.2976    1.0385   -1.0656 H   0  0  0  0  0  0  0  0  0  0  0  0
    6.2187    1.2311    0.6781 H   0  0  0  0  0  0  0  0  0  0  0  0
    2.6356   -1.1598    0.9784 H   0  0  0  0  0  0  0  0  0  0  0  0
    2.6209   -1.4035   -0.7698 H   0  0  0  0  0  0  0  0  0  0  0  0
    7.6887   -0.7853    0.9565 H   0  0  0  0  0  0  0  0  0  0  0  0
    7.7991   -0.9206   -0.7956 H   0  0  0  0  0  0  0  0  0  0  0  0
    1.1801    0.8584    0.7181 H   0  0  0  0  0  0  0  0  0  0  0  0
    1.1850    0.6428   -1.0342 H   0  0  0  0  0  0  0  0  0  0  0  0
    8.7576    1.4522    0.8854 H   0  0  0  0  0  0  0  0  0  0  0  0
    8.8069    1.3940   -0.8739 H   0  0  0  0  0  0  0  0  0  0  0  0
    0.1043   -1.3879    0.9932 H   0  0  0  0  0  0  0  0  0  0  0  0
    0.1304   -1.6221   -0.7491 H   0  0  0  0  0  0  0  0  0  0  0  0
   10.3075   -0.6101   -0.7642 H   0  0  0  0  0  0  0  0  0  0  0  0
   10.2760   -0.5305    0.9945 H   0  0  0  0  0  0  0  0  0  0  0  0
   -1.3509    0.3704   -1.0499 H   0  0  0  0  0  0  0  0  0  0  0  0
   -1.3787    0.5983    0.7177 H   0  0  0  0  0  0  0  0  0  0  0  0
   11.3576    1.7230    0.9149 H   0  0  0  0  0  0  0  0  0  0  0  0
   11.3886    1.6396   -0.8570 H   0  0  0  0  0  0  0  0  0  0  0  0
   12.3379    0.4896    0.1018 H   0  0  0  0  0  0  0  0  0  0  0  0
   -4.8415   -1.6547    1.0464 H   0  0  0  0  0  0  0  0  0  0  0  0
   -4.9031   -1.8276   -0.7189 H   0  0  0  0  0  0  0  0  0  0  0  0
   -6.0571    0.1578    2.1865 H   0  0  0  0  0  0  0  0  0  0  0  0
   -6.2077   -0.2626   -2.1016 H   0  0  0  0  0  0  0  0  0  0  0  0
   -7.9787    1.7071    2.0950 H   0  0  0  0  0  0  0  0  0  0  0  0
   -8.1289    1.2882   -2.1789 H   0  0  0  0  0  0  0  0  0  0  0  0
   -9.0182    2.2764   -0.0843 H   0  0  0  0  0  0  0  0  0  0  0  0
  1 14  1  0  0  0  0
  1 15  1  0  0  0  0
  2 14  2  0  0  0  0
  3  4  1  0  0  0  0
  3  5  1  0  0  0  0
  3 22  1  0  0  0  0
  3 23  1  0  0  0  0
  4  6  1  0  0  0  0
  4 24  1  0  0  0  0
  4 25  1  0  0  0  0
  5  7  1  0  0  0  0
  5 26  1  0  0  0  0
  5 27  1  0  0  0  0
  6  8  1  0  0  0  0
  6 28  1  0  0  0  0
  6 29  1  0  0  0  0
  7  9  1  0  0  0  0
  7 30  1  0  0  0  0
  7 31  1  0  0  0  0
  8 10  1  0  0  0  0
  8 32  1  0  0  0  0
  8 33  1  0  0  0  0
  9 11  1  0  0  0  0
  9 34  1  0  0  0  0
  9 35  1  0  0  0  0
 10 12  1  0  0  0  0
 10 36  1  0  0  0  0
 10 37  1  0  0  0  0
 11 13  1  0  0  0  0
 11 38  1  0  0  0  0
 11 39  1  0  0  0  0
 12 14  1  0  0  0  0
 12 40  1  0  0  0  0
 12 41  1  0  0  0  0
 13 42  1  0  0  0  0
 13 43  1  0  0  0  0
 13 44  1  0  0  0  0
 15 16  1  0  0  0  0
 15 45  1  0  0  0  0
 15 46  1  0  0  0  0
 16 17  2  0  0  0  0
 16 18  1  0  0  0  0
 17 19  1  0  0  0  0
 17 47  1  0  0  0  0
 18 20  2  0  0  0  0
 18 48  1  0  0  0  0
 19 21  2  0  0  0  0
 19 49  1  0  0  0  0
 20 21  1  0  0  0  0
 20 50  1  0  0  0  0
 21 51  1  0  0  0  0
M  END
> <PUBCHEM_COMPOUND_CID>
8791

> <PUBCHEM_CONFORMER_RMSD>
1.2

> <PUBCHEM_CONFORMER_DIVERSEORDER>
1
81
123
180
48
152
36
172
86
90
74
37
80
53
117
41
59
39
5
43
50
157
9
162
165
92
164
32
149
16
19
78
138
121
122
77
151
139
141
67
65
10
129
178
100
130
137
42
155
84
57
169
176
11
179
177
25
161
163
134
166
8
105
167
146
171
34
31
3
115
4
29
101
68
15
38
51
153
150
7
140
83
114
82
40
124
18
12
173
23
72
30
64
127
87
17
88
143
156
46
106
20
69
118
111
62
52
132
175
170
112
94
102
47
95
60
103
35
79
144
109
108
27
99
136
66
73
55
133
91
45
110
13
119
131
147
71
14
142
44
93
116
28
26
33
75
128
2
120
145
104
6
58
24
174
148
125
85
96
160
126
76
159
49
70
168
158
54
154
21
113
107
56
97
135
61
89
22
63
98

> <PUBCHEM_MMFF94_PARTIAL_CHARGES>
16
1 -0.43
12 0.06
14 0.66
15 0.42
16 -0.14
17 -0.15
18 -0.15
19 -0.15
2 -0.57
20 -0.15
21 -0.15
47 0.15
48 0.15
49 0.15
50 0.15
51 0.15

> <PUBCHEM_EFFECTIVE_ROTOR_COUNT>
13

> <PUBCHEM_PHARMACOPHORE_FEATURES>
3
1 13 hydrophobe
1 2 acceptor
6 16 17 18 19 20 21 rings

> <PUBCHEM_HEAVY_ATOM_COUNT>
21

> <PUBCHEM_ATOM_DEF_STEREO_COUNT>
0

> <PUBCHEM_ATOM_UDEF_STEREO_COUNT>
0

> <PUBCHEM_BOND_DEF_STEREO_COUNT>
0

> <PUBCHEM_BOND_UDEF_STEREO_COUNT>
0

> <PUBCHEM_ISOTOPIC_ATOM_COUNT>
0

> <PUBCHEM_COMPONENT_COUNT>
1

> <PUBCHEM_CACTVS_TAUTO_COUNT>
1

> <PUBCHEM_CONFORMER_ID>
0000225700000001

> <PUBCHEM_MMFF94_ENERGY>
18.6781

> <PUBCHEM_FEATURE_SELFOVERLAP>
15.223

> <PUBCHEM_SHAPE_FINGERPRINT>
10162869 55 5328742977360693202
11315181 36 17603580807559331011
11638347 137 13254804543153553672
12089408 11 18131634448949983494
12091667 2 17346599669425432643
12522641 33 17821726148879774294
14251764 18 17967814972410074778
14251764 46 18261110773282951374
14428016 248 16917061158330687500
14729087 3 18409167718970814473
15061470 23 18261394418046847952
15461852 350 16081091459029872517
155225 1 18408322211714608017
15690457 1 8574713494929537088
15716309 27 11455884768307899687
16120349 18 5472851581399865050
17093844 174 18341330020738587451
1754911 235 17240203227466035004
1818759 1 12031791375177523640
18335252 98 11167947970287591376
21095086 128 9007062362234901156
21095123 145 15626215806501436315
21150785 3 14779547889733468683
21267235 1 9943806690370200894
21360442 43 17604158017543180495
21362267 2 17168722843285687752
21362267 20 12319732545227900400
21362267 313 18340210795648428650
23528940 14 13973671803635095209
246663 6 10952050061152599370
33684 2 17530683209014263126
636775 8 6050438237377545157
67123 10 8718827592305226362
8209 1 14779264207697533774

> <PUBCHEM_SHAPE_MULTIPOLES>
420.43
40.22
1.35
0.89
76.06
0.22
0
-19.04
-0.35
-1.84
-0.07
-1.99
-0.2
-0.07

> <PUBCHEM_SHAPE_SELFOVERLAP>
814.69

> <PUBCHEM_SHAPE_VOLUME>
254.8

> <PUBCHEM_COORDINATE_TYPE>
2
5
10

$$$$

