6521
  -OEChem-06261201222D

 39 40  0     0  0  0  0  0  0999 V2000
    4.3100    0.0000    0.0000 O   0  0  0  0  0  0  0  0  0  0  0  0
    5.3100    0.0000    0.0000 O   0  0  0  0  0  0  0  0  0  0  0  0
    3.3100    0.0000    0.0000 O   0  0  0  0  0  0  0  0  0  0  0  0
    6.3100    0.0000    0.0000 O   0  0  0  0  0  0  0  0  0  0  0  0
    2.3100    0.0000    0.0000 O   0  0  0  0  0  0  0  0  0  0  0  0
    3.8100   -0.8660    0.0000 C   0  0  0  0  0  0  0  0  0  0  0  0
    5.8100    0.8660    0.0000 C   0  0  0  0  0  0  0  0  0  0  0  0
    2.9440   -1.3660    0.0000 C   0  0  0  0  0  0  0  0  0  0  0  0
    4.6760   -1.3660    0.0000 C   0  0  0  0  0  0  0  0  0  0  0  0
    6.6760    1.3660    0.0000 C   0  0  0  0  0  0  0  0  0  0  0  0
    4.9440    1.3660    0.0000 C   0  0  0  0  0  0  0  0  0  0  0  0
    2.9440   -2.3660    0.0000 C   0  0  0  0  0  0  0  0  0  0  0  0
    4.6760   -2.3660    0.0000 C   0  0  0  0  0  0  0  0  0  0  0  0
    6.6760    2.3660    0.0000 C   0  0  0  0  0  0  0  0  0  0  0  0
    4.9440    2.3660    0.0000 C   0  0  0  0  0  0  0  0  0  0  0  0
    3.8100   -2.8660    0.0000 C   0  0  0  0  0  0  0  0  0  0  0  0
    5.8100    2.8660    0.0000 C   0  0  0  0  0  0  0  0  0  0  0  0
    5.2866   -1.4737    0.0000 H   0  0  0  0  0  0  0  0  0  0  0  0
    4.8881   -0.7834    0.0000 H   0  0  0  0  0  0  0  0  0  0  0  0
    2.7319   -0.7834    0.0000 H   0  0  0  0  0  0  0  0  0  0  0  0
    2.3334   -1.4737    0.0000 H   0  0  0  0  0  0  0  0  0  0  0  0
    4.3334    1.4737    0.0000 H   0  0  0  0  0  0  0  0  0  0  0  0
    4.7319    0.7834    0.0000 H   0  0  0  0  0  0  0  0  0  0  0  0
    6.8881    0.7834    0.0000 H   0  0  0  0  0  0  0  0  0  0  0  0
    7.2866    1.4737    0.0000 H   0  0  0  0  0  0  0  0  0  0  0  0
    4.8881   -2.9486    0.0000 H   0  0  0  0  0  0  0  0  0  0  0  0
    5.2866   -2.2584    0.0000 H   0  0  0  0  0  0  0  0  0  0  0  0
    2.3334   -2.2584    0.0000 H   0  0  0  0  0  0  0  0  0  0  0  0
    2.7319   -2.9486    0.0000 H   0  0  0  0  0  0  0  0  0  0  0  0
    7.2866    2.2584    0.0000 H   0  0  0  0  0  0  0  0  0  0  0  0
    6.8881    2.9486    0.0000 H   0  0  0  0  0  0  0  0  0  0  0  0
    4.7319    2.9486    0.0000 H   0  0  0  0  0  0  0  0  0  0  0  0
    4.3334    2.2584    0.0000 H   0  0  0  0  0  0  0  0  0  0  0  0
    3.4115   -3.3410    0.0000 H   0  0  0  0  0  0  0  0  0  0  0  0
    4.2085   -3.3410    0.0000 H   0  0  0  0  0  0  0  0  0  0  0  0
    6.2085    3.3410    0.0000 H   0  0  0  0  0  0  0  0  0  0  0  0
    5.4115    3.3410    0.0000 H   0  0  0  0  0  0  0  0  0  0  0  0
    6.9300    0.0000    0.0000 H   0  0  0  0  0  0  0  0  0  0  0  0
    2.0000    0.5369    0.0000 H   0  0  0  0  0  0  0  0  0  0  0  0
  1  2  1  0  0  0  0
  1  6  1  0  0  0  0
  2  7  1  0  0  0  0
  3  5  1  0  0  0  0
  3  6  1  0  0  0  0
  4  7  1  0  0  0  0
  4 38  1  0  0  0  0
  5 39  1  0  0  0  0
  6  8  1  0  0  0  0
  6  9  1  0  0  0  0
  7 10  1  0  0  0  0
  7 11  1  0  0  0  0
  8 12  1  0  0  0  0
  8 20  1  0  0  0  0
  8 21  1  0  0  0  0
  9 13  1  0  0  0  0
  9 18  1  0  0  0  0
  9 19  1  0  0  0  0
 10 14  1  0  0  0  0
 10 24  1  0  0  0  0
 10 25  1  0  0  0  0
 11 15  1  0  0  0  0
 11 22  1  0  0  0  0
 11 23  1  0  0  0  0
 12 16  1  0  0  0  0
 12 28  1  0  0  0  0
 12 29  1  0  0  0  0
 13 16  1  0  0  0  0
 13 26  1  0  0  0  0
 13 27  1  0  0  0  0
 14 17  1  0  0  0  0
 14 30  1  0  0  0  0
 14 31  1  0  0  0  0
 15 17  1  0  0  0  0
 15 32  1  0  0  0  0
 15 33  1  0  0  0  0
 16 34  1  0  0  0  0
 16 35  1  0  0  0  0
 17 36  1  0  0  0  0
 17 37  1  0  0  0  0
M  END
> <PUBCHEM_COMPOUND_CID>
6521

> <PUBCHEM_COMPOUND_CANONICALIZED>
1

> <PUBCHEM_CACTVS_COMPLEXITY>
231

> <PUBCHEM_CACTVS_HBOND_ACCEPTOR>
5

> <PUBCHEM_CACTVS_HBOND_DONOR>
2

> <PUBCHEM_CACTVS_ROTATABLE_BOND>
4

> <PUBCHEM_CACTVS_SUBSKEYS>
AAADceBwOAAAAAAAAAAAAAAAAAAAAAAAAAAwYAAAAAAAAAAAAAAAGgAADAAACASAgAAACAAAAgAAAAAAAAAAAAAAAAAAAAAAAAAAAAIAAAAAQAAEAAAAAAGAQAAAAAAAAAAAAAAAAAAAAAAAAAAAAAAAAA==

> <PUBCHEM_IUPAC_OPENEYE_NAME>
1-(1-hydroperoxycyclohexyl)peroxycyclohexanol

> <PUBCHEM_IUPAC_CAS_NAME>
1-(1-hydroperoxycyclohexyl)dioxy-1-cyclohexanol

> <PUBCHEM_IUPAC_NAME>
1-(1-hydroperoxycyclohexyl)peroxycyclohexan-1-ol

> <PUBCHEM_IUPAC_SYSTEMATIC_NAME>
1-[1-(dioxidanyl)cyclohexyl]peroxycyclohexan-1-ol

> <PUBCHEM_IUPAC_TRADITIONAL_NAME>
1-(1-hydroperoxycyclohexyl)peroxycyclohexanol

> <PUBCHEM_IUPAC_INCHI>
InChI=1S/C12H22O5/c13-11(7-3-1-4-8-11)16-17-12(15-14)9-5-2-6-10-12/h13-14H,1-10H2

> <PUBCHEM_IUPAC_INCHIKEY>
UICXTANXZJJIBC-UHFFFAOYSA-N

> <PUBCHEM_XLOGP3_AA>
2.3

> <PUBCHEM_EXACT_MASS>
246.146724

> <PUBCHEM_MOLECULAR_FORMULA>
C12H22O5

> <PUBCHEM_MOLECULAR_WEIGHT>
246.30008

> <PUBCHEM_OPENEYE_CAN_SMILES>
C1CCC(CC1)(O)OOC2(CCCCC2)OO

> <PUBCHEM_OPENEYE_ISO_SMILES>
C1CCC(CC1)(O)OOC2(CCCCC2)OO

> <PUBCHEM_CACTVS_TPSA>
68.2

> <PUBCHEM_MONOISOTOPIC_WEIGHT>
246.146724

> <PUBCHEM_TOTAL_CHARGE>
0

> <PUBCHEM_HEAVY_ATOM_COUNT>
17

> <PUBCHEM_ATOM_DEF_STEREO_COUNT>
0

> <PUBCHEM_ATOM_UDEF_STEREO_COUNT>
0

> <PUBCHEM_BOND_DEF_STEREO_COUNT>
0

> <PUBCHEM_BOND_UDEF_STEREO_COUNT>
0

> <PUBCHEM_ISOTOPIC_ATOM_COUNT>
0

> <PUBCHEM_COMPONENT_COUNT>
1

> <PUBCHEM_CACTVS_TAUTO_COUNT>
1

> <PUBCHEM_COORDINATE_TYPE>
1
5
255

$$$$

