5282037
  -OEChem-07051213022D

 84 85  0     1  0  0  0  0  0999 V2000
    6.0000   -2.1651    0.0000 O   0  0  0  0  0  0  0  0  0  0  0  0
    4.5000   -1.2990    0.0000 O   0  0  0  0  0  0  0  0  0  0  0  0
    5.0000   -3.8971    0.0000 O   0  0  0  0  0  0  0  0  0  0  0  0
    7.5000    0.4330    0.0000 O   0  0  0  0  0  0  0  0  0  0  0  0
    7.5000    2.1651    0.0000 O   0  0  0  0  0  0  0  0  0  0  0  0
   10.5000    0.4330    0.0000 O   0  0  0  0  0  0  0  0  0  0  0  0
    9.7071    3.7382    0.0000 O   0  0  0  0  0  0  0  0  0  0  0  0
    6.0000    3.0311    0.0000 O   0  0  0  0  0  0  0  0  0  0  0  0
    3.0000   -3.8971    0.0000 N   0  0  0  0  0  0  0  0  0  0  0  0
    6.5000   -1.2990    0.0000 C   0  0  1  0  0  0  0  0  0  0  0  0
    3.5000   -3.0311    0.0000 C   0  0  2  0  0  0  0  0  0  0  0  0
    4.5000   -3.0311    0.0000 C   0  0  2  0  0  0  0  0  0  0  0  0
    7.5000   -1.2990    0.0000 C   0  0  2  0  0  0  0  0  0  0  0  0
    5.0000   -2.1651    0.0000 C   0  0  2  0  0  0  0  0  0  0  0  0
    3.0000   -2.1651    0.0000 C   0  0  0  0  0  0  0  0  0  0  0  0
    6.0000   -0.4330    0.0000 C   0  0  2  0  0  0  0  0  0  0  0  0
    3.5000   -1.2990    0.0000 C   0  0  1  0  0  0  0  0  0  0  0  0
    8.0000   -0.4330    0.0000 C   0  0  0  0  0  0  0  0  0  0  0  0
    9.0000   -0.4330    0.0000 C   0  0  1  0  0  0  0  0  0  0  0  0
    8.0000   -2.1651    0.0000 C   0  0  0  0  0  0  0  0  0  0  0  0
    6.5000    0.4330    0.0000 C   0  0  0  0  0  0  0  0  0  0  0  0
    5.0000   -0.4330    0.0000 C   0  0  0  0  0  0  0  0  0  0  0  0
    3.0000   -0.4330    0.0000 C   0  0  0  0  0  0  0  0  0  0  0  0
    6.0000    1.2990    0.0000 C   0  0  2  0  0  0  0  0  0  0  0  0
    2.0000   -3.8971    0.0000 C   0  0  0  0  0  0  0  0  0  0  0  0
    3.5000   -4.7631    0.0000 C   0  0  0  0  0  0  0  0  0  0  0  0
    9.5000   -1.2990    0.0000 C   0  0  0  0  0  0  0  0  0  0  0  0
    9.5000    0.4330    0.0000 C   0  0  0  0  0  0  0  0  0  0  0  0
    9.0000    3.0311    0.0000 C   0  0  2  0  0  0  0  0  0  0  0  0
    8.0000    3.0311    0.0000 C   0  0  1  0  0  0  0  0  0  0  0  0
    6.5000    2.1651    0.0000 C   0  0  0  0  0  0  0  0  0  0  0  0
    5.0000    1.2990    0.0000 C   0  0  0  0  0  0  0  0  0  0  0  0
    9.0000    1.2990    0.0000 C   0  0  0  0  0  0  0  0  0  0  0  0
    9.5000    2.1651    0.0000 C   0  0  0  0  0  0  0  0  0  0  0  0
    7.5000    3.8971    0.0000 C   0  0  0  0  0  0  0  0  0  0  0  0
    8.9128    4.0273    0.0000 C   0  0  0  0  0  0  0  0  0  0  0  0
    8.0000    4.7631    0.0000 C   0  0  0  0  0  0  0  0  0  0  0  0
    5.8800   -1.2990    0.0000 H   0  0  0  0  0  0  0  0  0  0  0  0
    3.8100   -3.5680    0.0000 H   0  0  0  0  0  0  0  0  0  0  0  0
    4.1900   -3.5680    0.0000 H   0  0  0  0  0  0  0  0  0  0  0  0
    8.1200   -1.2990    0.0000 H   0  0  0  0  0  0  0  0  0  0  0  0
    5.3100   -2.7020    0.0000 H   0  0  0  0  0  0  0  0  0  0  0  0
    2.5250   -1.7665    0.0000 H   0  0  0  0  0  0  0  0  0  0  0  0
    2.5250   -2.5636    0.0000 H   0  0  0  0  0  0  0  0  0  0  0  0
    5.6900   -0.9699    0.0000 H   0  0  0  0  0  0  0  0  0  0  0  0
    3.8100   -0.7621    0.0000 H   0  0  0  0  0  0  0  0  0  0  0  0
    8.1077    0.1776    0.0000 H   0  0  0  0  0  0  0  0  0  0  0  0
    7.4174   -0.2210    0.0000 H   0  0  0  0  0  0  0  0  0  0  0  0
    8.6900   -0.9699    0.0000 H   0  0  0  0  0  0  0  0  0  0  0  0
    7.4631   -2.4751    0.0000 H   0  0  0  0  0  0  0  0  0  0  0  0
    8.3100   -2.7020    0.0000 H   0  0  0  0  0  0  0  0  0  0  0  0
    8.5369   -1.8551    0.0000 H   0  0  0  0  0  0  0  0  0  0  0  0
    5.0000    0.1870    0.0000 H   0  0  0  0  0  0  0  0  0  0  0  0
    4.3800   -0.4330    0.0000 H   0  0  0  0  0  0  0  0  0  0  0  0
    5.0000   -1.0530    0.0000 H   0  0  0  0  0  0  0  0  0  0  0  0
    3.5369   -0.1230    0.0000 H   0  0  0  0  0  0  0  0  0  0  0  0
    2.6900    0.1039    0.0000 H   0  0  0  0  0  0  0  0  0  0  0  0
    2.4631   -0.7430    0.0000 H   0  0  0  0  0  0  0  0  0  0  0  0
    5.6900    0.7621    0.0000 H   0  0  0  0  0  0  0  0  0  0  0  0
    4.6900   -4.4340    0.0000 H   0  0  0  0  0  0  0  0  0  0  0  0
    2.0000   -3.2771    0.0000 H   0  0  0  0  0  0  0  0  0  0  0  0
    1.3800   -3.8971    0.0000 H   0  0  0  0  0  0  0  0  0  0  0  0
    2.0000   -4.5171    0.0000 H   0  0  0  0  0  0  0  0  0  0  0  0
    2.9631   -5.0731    0.0000 H   0  0  0  0  0  0  0  0  0  0  0  0
    3.8100   -5.3001    0.0000 H   0  0  0  0  0  0  0  0  0  0  0  0
    4.0369   -4.4531    0.0000 H   0  0  0  0  0  0  0  0  0  0  0  0
    8.9631   -1.6090    0.0000 H   0  0  0  0  0  0  0  0  0  0  0  0
    9.8100   -1.8360    0.0000 H   0  0  0  0  0  0  0  0  0  0  0  0
   10.0369   -0.9890    0.0000 H   0  0  0  0  0  0  0  0  0  0  0  0
    7.3800    3.0311    0.0000 H   0  0  0  0  0  0  0  0  0  0  0  0
    5.0000    1.9190    0.0000 H   0  0  0  0  0  0  0  0  0  0  0  0
    4.3800    1.2990    0.0000 H   0  0  0  0  0  0  0  0  0  0  0  0
    5.0000    0.6790    0.0000 H   0  0  0  0  0  0  0  0  0  0  0  0
    8.3800    1.2990    0.0000 H   0  0  0  0  0  0  0  0  0  0  0  0
   10.1200    2.1651    0.0000 H   0  0  0  0  0  0  0  0  0  0  0  0
    7.0250    4.2956    0.0000 H   0  0  0  0  0  0  0  0  0  0  0  0
    7.0250    3.4986    0.0000 H   0  0  0  0  0  0  0  0  0  0  0  0
    9.5305    4.0813    0.0000 H   0  0  0  0  0  0  0  0  0  0  0  0
    8.8588    4.6449    0.0000 H   0  0  0  0  0  0  0  0  0  0  0  0
    8.2952    3.9732    0.0000 H   0  0  0  0  0  0  0  0  0  0  0  0
   10.3060    3.5777    0.0000 H   0  0  0  0  0  0  0  0  0  0  0  0
    8.5369    4.4531    0.0000 H   0  0  0  0  0  0  0  0  0  0  0  0
    8.3100    5.3001    0.0000 H   0  0  0  0  0  0  0  0  0  0  0  0
    7.4631    5.0731    0.0000 H   0  0  0  0  0  0  0  0  0  0  0  0
 10  1  1  6  0  0  0
 14  1  1  1  0  0  0
  2 14  1  0  0  0  0
  2 17  1  0  0  0  0
 12  3  1  6  0  0  0
  3 60  1  0  0  0  0
  4 21  2  0  0  0  0
  5 30  1  0  0  0  0
  5 31  1  0  0  0  0
  6 28  2  0  0  0  0
 29  7  1  1  0  0  0
  7 81  1  0  0  0  0
  8 31  2  0  0  0  0
 11  9  1  1  0  0  0
  9 25  1  0  0  0  0
  9 26  1  0  0  0  0
 10 13  1  0  0  0  0
 10 16  1  0  0  0  0
 10 38  1  0  0  0  0
 11 12  1  0  0  0  0
 11 15  1  0  0  0  0
 11 39  1  0  0  0  0
 12 14  1  0  0  0  0
 12 40  1  0  0  0  0
 13 18  1  0  0  0  0
 13 20  1  6  0  0  0
 13 41  1  0  0  0  0
 14 42  1  0  0  0  0
 15 17  1  0  0  0  0
 15 43  1  0  0  0  0
 15 44  1  0  0  0  0
 16 21  1  0  0  0  0
 16 22  1  1  0  0  0
 16 45  1  0  0  0  0
 17 23  1  1  0  0  0
 17 46  1  0  0  0  0
 18 19  1  0  0  0  0
 18 47  1  0  0  0  0
 18 48  1  0  0  0  0
 19 27  1  6  0  0  0
 19 28  1  0  0  0  0
 19 49  1  0  0  0  0
 20 50  1  0  0  0  0
 20 51  1  0  0  0  0
 20 52  1  0  0  0  0
 21 24  1  0  0  0  0
 22 53  1  0  0  0  0
 22 54  1  0  0  0  0
 22 55  1  0  0  0  0
 23 56  1  0  0  0  0
 23 57  1  0  0  0  0
 23 58  1  0  0  0  0
 24 31  1  0  0  0  0
 24 32  1  1  0  0  0
 24 59  1  0  0  0  0
 25 61  1  0  0  0  0
 25 62  1  0  0  0  0
 25 63  1  0  0  0  0
 26 64  1  0  0  0  0
 26 65  1  0  0  0  0
 26 66  1  0  0  0  0
 27 67  1  0  0  0  0
 27 68  1  0  0  0  0
 27 69  1  0  0  0  0
 28 33  1  0  0  0  0
 29 30  1  0  0  0  0
 29 34  1  0  0  0  0
 29 36  1  0  0  0  0
 30 35  1  6  0  0  0
 30 70  1  0  0  0  0
 32 71  1  0  0  0  0
 32 72  1  0  0  0  0
 32 73  1  0  0  0  0
 33 34  2  0  0  0  0
 33 74  1  0  0  0  0
 34 75  1  0  0  0  0
 35 37  1  0  0  0  0
 35 76  1  0  0  0  0
 35 77  1  0  0  0  0
 36 78  1  0  0  0  0
 36 79  1  0  0  0  0
 36 80  1  0  0  0  0
 37 82  1  0  0  0  0
 37 83  1  0  0  0  0
 37 84  1  0  0  0  0
M  END
> <PUBCHEM_COMPOUND_CID>
5282037

> <PUBCHEM_COMPOUND_CANONICALIZED>
1

> <PUBCHEM_CACTVS_COMPLEXITY>
844

> <PUBCHEM_CACTVS_HBOND_ACCEPTOR>
9

> <PUBCHEM_CACTVS_HBOND_DONOR>
2

> <PUBCHEM_CACTVS_ROTATABLE_BOND>
4

> <PUBCHEM_CACTVS_SUBSKEYS>
AAADcfB6PAAAAAAAAAAAAAAAAAAAAAAAAAAkAAAAAAAAAAAAAAAAHgAACAAADXzxgAcCCAMABgCIAKDSCAAAAAAgAAAICAEIAEgTFBYIgAAmUAAG4AAfEYPI7OzOAAAAAAAAAAAAAAAAAAAAAAAAAAAAAA==

> <PUBCHEM_IUPAC_OPENEYE_NAME>
(3R,5R,6S,7S,9R,11E,13S,14R)-6-[(2S,3R,4S,6R)-4-(dimethylamino)-3-hydroxy-6-methyl-tetrahydropyran-2-yl]oxy-14-ethyl-13-hydroxy-3,5,7,9,13-pentamethyl-1-oxacyclotetradec-11-ene-2,4,10-trione

> <PUBCHEM_IUPAC_CAS_NAME>
(3R,5R,6S,7S,9R,11E,13S,14R)-6-[[(2S,3R,4S,6R)-4-(dimethylamino)-3-hydroxy-6-methyl-2-oxanyl]oxy]-14-ethyl-13-hydroxy-3,5,7,9,13-pentamethyl-1-oxacyclotetradec-11-ene-2,4,10-trione

> <PUBCHEM_IUPAC_NAME>
(3R,5R,6S,7S,9R,11E,13S,14R)-6-[(2S,3R,4S,6R)-4-(dimethylamino)-3-hydroxy-6-methyloxan-2-yl]oxy-14-ethyl-13-hydroxy-3,5,7,9,13-pentamethyl-1-oxacyclotetradec-11-ene-2,4,10-trione

> <PUBCHEM_IUPAC_SYSTEMATIC_NAME>
(3R,5R,6S,7S,9R,11E,13S,14R)-6-[(2S,3R,4S,6R)-4-(dimethylamino)-6-methyl-3-oxidanyl-oxan-2-yl]oxy-14-ethyl-3,5,7,9,13-pentamethyl-13-oxidanyl-1-oxacyclotetradec-11-ene-2,4,10-trione

> <PUBCHEM_IUPAC_TRADITIONAL_NAME>
(3R,5R,6S,7S,9R,11E,13S,14R)-6-[(2S,3R,4S,6R)-4-(dimethylamino)-3-hydroxy-6-methyl-tetrahydropyran-2-yl]oxy-14-ethyl-13-hydroxy-3,5,7,9,13-pentamethyl-1-oxacyclotetradec-11-ene-2,4,10-trione

> <PUBCHEM_IUPAC_INCHI>
InChI=1S/C28H47NO8/c1-10-22-28(7,34)12-11-21(30)15(2)13-16(3)25(18(5)23(31)19(6)26(33)36-22)37-27-24(32)20(29(8)9)14-17(4)35-27/h11-12,15-20,22,24-25,27,32,34H,10,13-14H2,1-9H3/b12-11+/t15-,16+,17-,18+,19-,20+,22-,24-,25+,27+,28+/m1/s1

> <PUBCHEM_IUPAC_INCHIKEY>
UZQBOFAUUTZOQE-VSLWXVDYSA-N

> <PUBCHEM_XLOGP3_AA>
3.2

> <PUBCHEM_EXACT_MASS>
525.330167

> <PUBCHEM_MOLECULAR_FORMULA>
C28H47NO8

> <PUBCHEM_MOLECULAR_WEIGHT>
525.67468

> <PUBCHEM_OPENEYE_CAN_SMILES>
CCC1C(C=CC(=O)C(CC(C(C(C(=O)C(C(=O)O1)C)C)OC2C(C(CC(O2)C)N(C)C)O)C)C)(C)O

> <PUBCHEM_OPENEYE_ISO_SMILES>
CC[C@@H]1[C@@](/C=C/C(=O)[C@@H](C[C@@H]([C@@H]([C@H](C(=O)[C@H](C(=O)O1)C)C)O[C@H]2[C@@H]([C@H](C[C@H](O2)C)N(C)C)O)C)C)(C)O

> <PUBCHEM_CACTVS_TPSA>
123

> <PUBCHEM_MONOISOTOPIC_WEIGHT>
525.330167

> <PUBCHEM_TOTAL_CHARGE>
0

> <PUBCHEM_HEAVY_ATOM_COUNT>
37

> <PUBCHEM_ATOM_DEF_STEREO_COUNT>
11

> <PUBCHEM_ATOM_UDEF_STEREO_COUNT>
0

> <PUBCHEM_BOND_DEF_STEREO_COUNT>
1

> <PUBCHEM_BOND_UDEF_STEREO_COUNT>
0

> <PUBCHEM_ISOTOPIC_ATOM_COUNT>
0

> <PUBCHEM_COMPONENT_COUNT>
1

> <PUBCHEM_CACTVS_TAUTO_COUNT>
10

> <PUBCHEM_COORDINATE_TYPE>
1
5
255

> <PUBCHEM_BONDANNOTATIONS>
10  1  6
14  1  5
13  20  6
16  22  5
17  23  5
19  27  6
24  32  5
12  3  6
30  35  6
29  7  5
11  9  5

$$$$

