9828359
  -OEChem-07051213133D

 40 41  0     1  0  0  0  0  0999 V2000
    2.9809   -3.1665    0.1432 Cl  0  0  0  0  0  0  0  0  0  0  0  0
    2.9132    2.2434    0.6614 Cl  0  0  0  0  0  0  0  0  0  0  0  0
    7.0726   -0.2920   -1.6372 F   0  0  0  0  0  0  0  0  0  0  0  0
    4.6149   -1.3463   -1.5808 F   0  0  0  0  0  0  0  0  0  0  0  0
    4.6052    0.8404   -1.3467 F   0  0  0  0  0  0  0  0  0  0  0  0
    8.2236    0.8141    0.5533 F   0  0  0  0  0  0  0  0  0  0  0  0
    6.3272    0.7799    1.6227 F   0  0  0  0  0  0  0  0  0  0  0  0
    6.5435    2.0067   -0.1687 F   0  0  0  0  0  0  0  0  0  0  0  0
    0.0693   -2.8371    0.0212 F   0  0  0  0  0  0  0  0  0  0  0  0
   -5.1747   -1.6413    0.9952 F   0  0  0  0  0  0  0  0  0  0  0  0
   -6.9357    2.2663   -1.0522 F   0  0  0  0  0  0  0  0  0  0  0  0
    4.1710   -0.4549    0.4675 O   0  0  0  0  0  0  0  0  0  0  0  0
   -1.9385    1.7896    0.3646 O   0  0  0  0  0  0  0  0  0  0  0  0
   -4.6826    2.2301    0.2661 O   0  0  0  0  0  0  0  0  0  0  0  0
   -1.3907   -0.4864    0.1710 N   0  0  0  0  0  0  0  0  0  0  0  0
   -3.5935    0.1767    0.1194 N   0  0  0  0  0  0  0  0  0  0  0  0
    6.4119   -0.3407   -0.4455 C   0  0  2  0  0  0  0  0  0  0  0  0
    4.9222   -0.3302   -0.7383 C   0  0  0  0  0  0  0  0  0  0  0  0
    2.8075   -0.4639    0.3942 C   0  0  0  0  0  0  0  0  0  0  0  0
    0.0218   -0.4809    0.2457 C   0  0  0  0  0  0  0  0  0  0  0  0
    6.8835    0.8271    0.3917 C   0  0  0  0  0  0  0  0  0  0  0  0
    2.1245   -1.6706    0.2418 C   0  0  0  0  0  0  0  0  0  0  0  0
    2.0975    0.7342    0.4723 C   0  0  0  0  0  0  0  0  0  0  0  0
    0.7317   -1.6791    0.1674 C   0  0  0  0  0  0  0  0  0  0  0  0
    0.7047    0.7258    0.3981 C   0  0  0  0  0  0  0  0  0  0  0  0
   -2.2566    0.6107    0.2316 C   0  0  0  0  0  0  0  0  0  0  0  0
   -6.0222    0.3295   -0.0243 C   0  0  0  0  0  0  0  0  0  0  0  0
   -4.7391    0.9946    0.1411 C   0  0  0  0  0  0  0  0  0  0  0  0
   -6.1896   -0.9832    0.4167 C   0  0  0  0  0  0  0  0  0  0  0  0
   -7.0852    1.0043   -0.6245 C   0  0  0  0  0  0  0  0  0  0  0  0
   -7.4199   -1.6209    0.2579 C   0  0  0  0  0  0  0  0  0  0  0  0
   -8.3155    0.3666   -0.7834 C   0  0  0  0  0  0  0  0  0  0  0  0
   -8.4829   -0.9460   -0.3422 C   0  0  0  0  0  0  0  0  0  0  0  0
    6.6921   -1.2801    0.0419 H   0  0  0  0  0  0  0  0  0  0  0  0
    0.2113    1.6852    0.4644 H   0  0  0  0  0  0  0  0  0  0  0  0
   -1.8156   -1.4036    0.0602 H   0  0  0  0  0  0  0  0  0  0  0  0
   -3.7234   -0.8223   -0.0127 H   0  0  0  0  0  0  0  0  0  0  0  0
   -7.5498   -2.6429    0.6015 H   0  0  0  0  0  0  0  0  0  0  0  0
   -9.1430    0.8923   -1.2507 H   0  0  0  0  0  0  0  0  0  0  0  0
   -9.4409   -1.4425   -0.4660 H   0  0  0  0  0  0  0  0  0  0  0  0
  1 22  1  0  0  0  0
  2 23  1  0  0  0  0
  3 17  1  0  0  0  0
  4 18  1  0  0  0  0
  5 18  1  0  0  0  0
  6 21  1  0  0  0  0
  7 21  1  0  0  0  0
  8 21  1  0  0  0  0
  9 24  1  0  0  0  0
 10 29  1  0  0  0  0
 11 30  1  0  0  0  0
 12 18  1  0  0  0  0
 12 19  1  0  0  0  0
 13 26  2  0  0  0  0
 14 28  2  0  0  0  0
 15 20  1  0  0  0  0
 15 26  1  0  0  0  0
 15 36  1  0  0  0  0
 16 26  1  0  0  0  0
 16 28  1  0  0  0  0
 16 37  1  0  0  0  0
 17 18  1  0  0  0  0
 17 21  1  0  0  0  0
 17 34  1  0  0  0  0
 19 22  1  0  0  0  0
 19 23  2  0  0  0  0
 20 24  1  0  0  0  0
 20 25  2  0  0  0  0
 22 24  2  0  0  0  0
 23 25  1  0  0  0  0
 25 35  1  0  0  0  0
 27 28  1  0  0  0  0
 27 29  2  0  0  0  0
 27 30  1  0  0  0  0
 29 31  1  0  0  0  0
 30 32  2  0  0  0  0
 31 33  2  0  0  0  0
 31 38  1  0  0  0  0
 32 33  1  0  0  0  0
 32 39  1  0  0  0  0
 33 40  1  0  0  0  0
M  END
> <PUBCHEM_COMPOUND_CID>
9828359

> <PUBCHEM_CONFORMER_RMSD>
1

> <PUBCHEM_CONFORMER_DIVERSEORDER>
1
145
206
202
212
165
155
47
41
194
5
218
147
122
81
197
150
221
99
203
70
62
108
187
139
73
21
180
123
113
208
214
94
186
223
141
27
181
215
112
133
225
16
230
142
177
199
195
63
36
216
211
43
176
111
146
138
169
217
35
219
86
58
152
51
213
162
158
178
144
135
60
205
104
38
188
136
209
143
66
83
204
88
179
198
151
227
200
64
210
59
23
119
172
116
77
137
125
61
120
93
37
222
75
33
207
50
189
182
183
184
193
192
42
128
166
229
156
74
25
107
95
79
127
56
65
154
134
78
149
164
201
129
82
71
40
103
115
159
68
12
191
28
109
7
196
114
167
57
102
163
69
92
76
124
110
157
126
32
98
190
117
224
30
118
39
80
10
220
96
226
97
121
185
132
105
91
14
31
90
173
46
26
174
72
87
106
89
84
140
170
17
9
19
130
153
228
52
67
161
168
44
34
55
160
22
100
20
24
13
101
18
53
29
45
131
11
48
171
85
8
6
148
3
4
54
175
49
2
15

> <PUBCHEM_MMFF94_PARTIAL_CHARGES>
39
1 -0.18
10 -0.19
11 -0.19
12 -0.36
13 -0.57
14 -0.57
15 -0.55
16 -0.49
17 0.34
18 0.96
19 0.08
2 -0.18
20 0.12
21 1.02
22 0.18
23 0.18
24 0.19
25 -0.15
26 0.69
27 0.09
28 0.54
29 0.19
3 -0.34
30 0.19
31 -0.15
32 -0.15
33 -0.15
35 0.15
36 0.37
37 0.37
38 0.15
39 0.15
4 -0.34
40 0.15
5 -0.34
6 -0.34
7 -0.34
8 -0.34
9 -0.19

> <PUBCHEM_EFFECTIVE_ROTOR_COUNT>
9

> <PUBCHEM_PHARMACOPHORE_FEATURES>
7
1 12 acceptor
1 13 acceptor
1 14 acceptor
1 15 donor
1 16 donor
6 19 20 22 23 24 25 rings
6 27 29 30 31 32 33 rings

> <PUBCHEM_HEAVY_ATOM_COUNT>
33

> <PUBCHEM_ATOM_DEF_STEREO_COUNT>
0

> <PUBCHEM_ATOM_UDEF_STEREO_COUNT>
1

> <PUBCHEM_BOND_DEF_STEREO_COUNT>
0

> <PUBCHEM_BOND_UDEF_STEREO_COUNT>
0

> <PUBCHEM_ISOTOPIC_ATOM_COUNT>
0

> <PUBCHEM_COMPONENT_COUNT>
1

> <PUBCHEM_CACTVS_TAUTO_COUNT>
5

> <PUBCHEM_CONFORMER_ID>
0095F80700000001

> <PUBCHEM_MMFF94_ENERGY>
81.6712

> <PUBCHEM_FEATURE_SELFOVERLAP>
35.575

> <PUBCHEM_SHAPE_FINGERPRINT>
10050765 1 18122908895510549249
10595046 47 18339643455631736523
10835480 77 18341338894362508453
11136131 41 18272092763614518515
11315181 36 18259984882462130217
11719270 70 18411704304944281738
12373685 5 16917354727376401251
12838862 33 18337406975307026041
14118638 360 17822290227517478745
14123256 10 18411982460184935659
14170010 4 17967816025030730752
14251764 18 17775005686825388137
14461889 52 18342457028045593618
1454969 45 18342737412205566461
150020 25 18335136505323226751
15131766 46 15695440943028409142
15183329 4 18272928345190078233
1577012 14 18189052148495317753
15840311 113 17917992747077941668
15849732 13 18408885122422292044
18608769 82 18409168779638124923
18681886 176 18410579457457056673
19611394 137 17844514519264811913
20105231 36 18040990739904417783
21150785 3 17603587430393210621
21267235 1 18260263045480900777
21344244 181 17313092086654905182
21360443 126 18343018857065271562
21774942 28 14835852828189018407
22224240 67 18131634482302172906
23559900 14 18411706483257215009
23569917 315 18336540625350764906
23576562 1 18056465176163680236
24771293 8 18201432597241441996
249057 3 17458347398840715237
3004659 81 18272373066575768449
335352 9 18410004447973680062
335507 130 18343017762671102407
34797466 226 16008745797884279104
4073 2 18202559610272541715
4325135 7 18272650143479496815
437795 51 17894917308396266032
45377200 153 16515976861438912647
5109719 28 18334857161025413568
6201320 215 15050911809708937239

> <PUBCHEM_SHAPE_MULTIPOLES>
589.83
26.54
2.42
0.98
18.36
0.78
-0.18
-4.17
-4.42
-0.23
0.17
-0.97
-0.05
1.37

> <PUBCHEM_SHAPE_SELFOVERLAP>
1262.71

> <PUBCHEM_SHAPE_VOLUME>
326.8

> <PUBCHEM_COORDINATE_TYPE>
2
5
10

$$$$

