91650
  -OEChem-07051213013D

 28 29  0     0  0  0  0  0  0999 V2000
   -0.4292    1.1420   -0.2531 N   0  0  0  0  0  0  0  0  0  0  0  0
    0.8483   -0.8057    0.0312 N   0  0  0  0  0  0  0  0  0  0  0  0
    1.9053    1.3524   -0.1477 N   0  0  0  0  0  0  0  0  0  0  0  0
    0.7982    0.5516   -0.1205 C   0  0  0  0  0  0  0  0  0  0  0  0
   -1.7200    0.5865   -0.1322 C   0  0  0  0  0  0  0  0  0  0  0  0
    2.0743   -1.3544    0.1590 C   0  0  0  0  0  0  0  0  0  0  0  0
    3.0988    0.7376   -0.0144 C   0  0  0  0  0  0  0  0  0  0  0  0
    3.2458   -0.6254    0.1437 C   0  0  0  0  0  0  0  0  0  0  0  0
   -2.7500    1.3342    0.4387 C   0  0  0  0  0  0  0  0  0  0  0  0
   -1.9671   -0.7097   -0.5842 C   0  0  0  0  0  0  0  0  0  0  0  0
    2.1317   -2.8356    0.3262 C   0  0  0  0  0  0  0  0  0  0  0  0
    4.3088    1.6097   -0.0440 C   0  0  0  0  0  0  0  0  0  0  0  0
   -4.0269    0.7855    0.5574 C   0  0  0  0  0  0  0  0  0  0  0  0
   -3.2440   -1.2582   -0.4654 C   0  0  0  0  0  0  0  0  0  0  0  0
   -4.2740   -0.5106    0.1054 C   0  0  0  0  0  0  0  0  0  0  0  0
   -0.4056    2.1565   -0.2496 H   0  0  0  0  0  0  0  0  0  0  0  0
    4.2174   -1.0925    0.2487 H   0  0  0  0  0  0  0  0  0  0  0  0
   -2.5704    2.3452    0.7953 H   0  0  0  0  0  0  0  0  0  0  0  0
   -1.2111   -1.3088   -1.0811 H   0  0  0  0  0  0  0  0  0  0  0  0
    2.7050   -3.2891   -0.4887 H   0  0  0  0  0  0  0  0  0  0  0  0
    2.6012   -3.0933    1.2809 H   0  0  0  0  0  0  0  0  0  0  0  0
    1.1273   -3.2717    0.3153 H   0  0  0  0  0  0  0  0  0  0  0  0
    4.9621    1.3265   -0.8754 H   0  0  0  0  0  0  0  0  0  0  0  0
    4.0329    2.6613   -0.1745 H   0  0  0  0  0  0  0  0  0  0  0  0
    4.8652    1.5209    0.8945 H   0  0  0  0  0  0  0  0  0  0  0  0
   -4.8291    1.3678    1.0014 H   0  0  0  0  0  0  0  0  0  0  0  0
   -3.4399   -2.2632   -0.8281 H   0  0  0  0  0  0  0  0  0  0  0  0
   -5.2689   -0.9367    0.1953 H   0  0  0  0  0  0  0  0  0  0  0  0
  1  4  1  0  0  0  0
  1  5  1  0  0  0  0
  1 16  1  0  0  0  0
  2  4  1  0  0  0  0
  2  6  2  0  0  0  0
  3  4  2  0  0  0  0
  3  7  1  0  0  0  0
  5  9  2  0  0  0  0
  5 10  1  0  0  0  0
  6  8  1  0  0  0  0
  6 11  1  0  0  0  0
  7  8  2  0  0  0  0
  7 12  1  0  0  0  0
  8 17  1  0  0  0  0
  9 13  1  0  0  0  0
  9 18  1  0  0  0  0
 10 14  2  0  0  0  0
 10 19  1  0  0  0  0
 11 20  1  0  0  0  0
 11 21  1  0  0  0  0
 11 22  1  0  0  0  0
 12 23  1  0  0  0  0
 12 24  1  0  0  0  0
 12 25  1  0  0  0  0
 13 15  2  0  0  0  0
 13 26  1  0  0  0  0
 14 15  1  0  0  0  0
 14 27  1  0  0  0  0
 15 28  1  0  0  0  0
M  END
> <PUBCHEM_COMPOUND_CID>
91650

> <PUBCHEM_CONFORMER_RMSD>
0.6

> <PUBCHEM_CONFORMER_DIVERSEORDER>
1
3
2

> <PUBCHEM_MMFF94_PARTIAL_CHARGES>
22
1 -0.6
10 -0.15
11 0.14
12 0.14
13 -0.15
14 -0.15
15 -0.15
16 0.4
17 0.15
18 0.15
19 0.15
2 -0.62
26 0.15
27 0.15
28 0.15
3 -0.62
4 0.72
5 0.1
6 0.17
7 0.17
8 -0.15
9 -0.15

> <PUBCHEM_EFFECTIVE_ROTOR_COUNT>
2

> <PUBCHEM_PHARMACOPHORE_FEATURES>
5
1 1 donor
1 2 acceptor
4 1 2 3 4 cation
6 2 3 4 6 7 8 rings
6 5 9 10 13 14 15 rings

> <PUBCHEM_HEAVY_ATOM_COUNT>
15

> <PUBCHEM_ATOM_DEF_STEREO_COUNT>
0

> <PUBCHEM_ATOM_UDEF_STEREO_COUNT>
0

> <PUBCHEM_BOND_DEF_STEREO_COUNT>
0

> <PUBCHEM_BOND_UDEF_STEREO_COUNT>
0

> <PUBCHEM_ISOTOPIC_ATOM_COUNT>
0

> <PUBCHEM_COMPONENT_COUNT>
1

> <PUBCHEM_CACTVS_TAUTO_COUNT>
2

> <PUBCHEM_CONFORMER_ID>
0001660200000001

> <PUBCHEM_MMFF94_ENERGY>
48.819

> <PUBCHEM_FEATURE_SELFOVERLAP>
25.371

> <PUBCHEM_SHAPE_FINGERPRINT>
10616163 171 18336263436270828767
10980938 120 18411419527063204434
11471102 20 18412549807599331780
12107183 9 17687740954049531945
12251169 10 18335139834165525983
12346645 44 18335702711014929884
13296908 3 18059016201964109045
13380535 76 18272651199703951954
13675066 3 17988352771944220361
13760787 19 18260827094497563421
14144814 61 18408886260878606377
14251717 144 18413110550071587518
14252887 29 18059847389726011129
14289901 80 18409167735728846841
14445660 50 18334007315793435497
15196674 1 18409729564526861967
15279307 12 18335139765187969895
15375358 24 18060702775512772651
15375462 189 18333732420574545771
15442244 35 18120935263453616371
15536298 74 18334856142906738214
15669948 3 17821737108965880527
15775835 57 18333447625350770645
18186145 218 18202002161348994478
19050596 39 18409451400975185496
19422 9 18335420205267225707
200 152 18261684684003494445
201361 129 18408320003800406192
20279233 1 16415763020284800401
20281475 54 18408610279096703431
20442098 301 18260272970623054607
20645477 70 18341059617744454151
21065198 48 18334292093731664257
21267235 1 18409439310679560127
21501502 16 18408888472596950699
221490 88 18341041999741340930
22445834 79 18408886256652288791
22485316 2 18412546522345080029
2255824 54 18343015567367846588
22854114 111 18411417310775839560
23402539 116 17060350590797361453
23402655 69 18409731776609365733
23463225 33 18336827593114802239
23559900 14 18191594253205730426
2871803 45 18341619208711527647
3312278 4 18335419032925633857
33824 294 18343022189912251794
474 4 18200591389362847732
4990 188 17968363599043235636
5104073 3 18410292531871156489
581208 293 18342459235827055488
603831 33 18187942629076796879
633830 44 18334573495720649292
7364860 26 18335701693419138030
77779 3 18408038524370485569
9709674 26 18412258441529800843

> <PUBCHEM_SHAPE_MULTIPOLES>
293.75
8.38
2.12
0.69
2.1
1.11
0
-1.22
0.58
-1.64
0.17
0.2
0.03
-0.64

> <PUBCHEM_SHAPE_SELFOVERLAP>
623.903

> <PUBCHEM_SHAPE_VOLUME>
161.2

> <PUBCHEM_COORDINATE_TYPE>
2
5
10

$$$$

