24892744
  -OEChem-07051212493D

 45 46  0     1  0  0  0  0  0999 V2000
   -1.8082   -0.0441    1.2746 O   0  0  0  0  0  0  0  0  0  0  0  0
   -0.2437    0.8002   -0.2587 O   0  0  0  0  0  0  0  0  0  0  0  0
    1.2180   -0.9068    0.4999 O   0  0  0  0  0  0  0  0  0  0  0  0
   -2.2768    1.5684   -1.9158 O   0  0  0  0  0  0  0  0  0  0  0  0
   -4.0094   -0.9379   -1.3815 O   0  0  0  0  0  0  0  0  0  0  0  0
    2.5927    1.2250    1.9889 O   0  0  0  0  0  0  0  0  0  0  0  0
    2.2485    1.8108   -1.5953 O   0  0  0  0  0  0  0  0  0  0  0  0
    4.1364   -0.6100    0.3429 O   0  0  0  0  0  0  0  0  0  0  0  0
   -1.2897    3.3908    0.1381 O   0  0  0  0  0  0  0  0  0  0  0  0
   -1.8626   -2.7272    2.1018 O   0  0  0  0  0  0  0  0  0  0  0  0
    1.2047   -3.2505   -1.2798 O   0  0  0  0  0  0  0  0  0  0  0  0
   -1.5149    1.0227    0.3535 C   0  0  1  0  0  0  0  0  0  0  0  0
   -2.6123    0.9269   -0.7015 C   0  0  2  0  0  0  0  0  0  0  0  0
   -2.7481   -0.5732   -0.8524 C   0  0  1  0  0  0  0  0  0  0  0  0
   -2.6117   -1.0306    0.5954 C   0  0  1  0  0  0  0  0  0  0  0  0
    0.7387    0.4262    0.7030 C   0  0  1  0  0  0  0  0  0  0  0  0
    1.8880    1.4392    0.7671 C   0  0  2  0  0  0  0  0  0  0  0  0
    2.8567    1.2936   -0.4142 C   0  0  1  0  0  0  0  0  0  0  0  0
    3.2307   -0.1705   -0.6673 C   0  0  2  0  0  0  0  0  0  0  0  0
    1.9851   -1.0687   -0.6975 C   0  0  1  0  0  0  0  0  0  0  0  0
   -1.5079    2.3571    1.0828 C   0  0  0  0  0  0  0  0  0  0  0  0
   -1.9549   -2.3941    0.7264 C   0  0  0  0  0  0  0  0  0  0  0  0
    2.3409   -2.5473   -0.8104 C   0  0  0  0  0  0  0  0  0  0  0  0
   -3.5539    1.3575   -0.3370 H   0  0  0  0  0  0  0  0  0  0  0  0
   -1.9695   -0.9829   -1.5058 H   0  0  0  0  0  0  0  0  0  0  0  0
   -3.5809   -1.0479    1.1091 H   0  0  0  0  0  0  0  0  0  0  0  0
    0.3212    0.3921    1.7153 H   0  0  0  0  0  0  0  0  0  0  0  0
    1.4911    2.4607    0.7789 H   0  0  0  0  0  0  0  0  0  0  0  0
    3.7599    1.8816   -0.2111 H   0  0  0  0  0  0  0  0  0  0  0  0
    3.7498   -0.2652   -1.6290 H   0  0  0  0  0  0  0  0  0  0  0  0
    1.3478   -0.7912   -1.5474 H   0  0  0  0  0  0  0  0  0  0  0  0
   -0.7284    2.4126    1.8483 H   0  0  0  0  0  0  0  0  0  0  0  0
   -2.4659    2.5296    1.5859 H   0  0  0  0  0  0  0  0  0  0  0  0
   -0.9428   -2.3885    0.3156 H   0  0  0  0  0  0  0  0  0  0  0  0
   -2.5445   -3.1625    0.2167 H   0  0  0  0  0  0  0  0  0  0  0  0
    2.6302   -2.9690    0.1577 H   0  0  0  0  0  0  0  0  0  0  0  0
    3.1474   -2.7033   -1.5338 H   0  0  0  0  0  0  0  0  0  0  0  0
   -2.9732    1.3548   -2.5600 H   0  0  0  0  0  0  0  0  0  0  0  0
   -4.7023   -0.5546   -0.8175 H   0  0  0  0  0  0  0  0  0  0  0  0
    1.9859    1.4318    2.7200 H   0  0  0  0  0  0  0  0  0  0  0  0
    2.9023    1.7525   -2.3127 H   0  0  0  0  0  0  0  0  0  0  0  0
    4.9236   -0.0408    0.2994 H   0  0  0  0  0  0  0  0  0  0  0  0
   -1.2986    4.2316    0.6264 H   0  0  0  0  0  0  0  0  0  0  0  0
   -1.4405   -3.6015    2.1569 H   0  0  0  0  0  0  0  0  0  0  0  0
    1.4537   -4.1882   -1.3447 H   0  0  0  0  0  0  0  0  0  0  0  0
  1 12  1  0  0  0  0
  1 15  1  0  0  0  0
  2 12  1  0  0  0  0
  2 16  1  0  0  0  0
  3 16  1  0  0  0  0
  3 20  1  0  0  0  0
  4 13  1  0  0  0  0
  4 38  1  0  0  0  0
  5 14  1  0  0  0  0
  5 39  1  0  0  0  0
  6 17  1  0  0  0  0
  6 40  1  0  0  0  0
  7 18  1  0  0  0  0
  7 41  1  0  0  0  0
  8 19  1  0  0  0  0
  8 42  1  0  0  0  0
  9 21  1  0  0  0  0
  9 43  1  0  0  0  0
 10 22  1  0  0  0  0
 10 44  1  0  0  0  0
 11 23  1  0  0  0  0
 11 45  1  0  0  0  0
 12 13  1  0  0  0  0
 12 21  1  0  0  0  0
 13 14  1  0  0  0  0
 13 24  1  0  0  0  0
 14 15  1  0  0  0  0
 14 25  1  0  0  0  0
 15 22  1  0  0  0  0
 15 26  1  0  0  0  0
 16 17  1  0  0  0  0
 16 27  1  0  0  0  0
 17 18  1  0  0  0  0
 17 28  1  0  0  0  0
 18 19  1  0  0  0  0
 18 29  1  0  0  0  0
 19 20  1  0  0  0  0
 19 30  1  0  0  0  0
 20 23  1  0  0  0  0
 20 31  1  0  0  0  0
 21 32  1  0  0  0  0
 21 33  1  0  0  0  0
 22 34  1  0  0  0  0
 22 35  1  0  0  0  0
 23 36  1  0  0  0  0
 23 37  1  0  0  0  0
M  END
> <PUBCHEM_COMPOUND_CID>
24892744

> <PUBCHEM_CONFORMER_RMSD>
0.8

> <PUBCHEM_CONFORMER_DIVERSEORDER>
1
41
191
170
125
20
75
169
182
124
111
33
143
141
135
6
194
114
22
174
138
189
123
200
26
195
163
167
149
35
201
180
110
154
11
113
185
128
117
197
36
77
142
85
121
156
14
199
62
76
187
91
176
145
73
148
48
53
43
78
175
153
160
151
70
34
102
179
173
106
83
120
81
131
9
166
152
177
178
97
45
196
144
172
109
94
107
60
21
147
99
51
95
46
198
28
118
25
17
161
104
139
171
181
127
140
157
103
192
38
3
56
193
16
137
18
93
71
30
49
119
24
19
155
88
63
12
67
58
158
100
90
129
42
50
15
80
162
190
122
40
87
86
23
115
72
13
168
79
84
57
52
183
59
112
74
10
101
31
55
164
108
184
68
105
61
130
2
29
65
134
89
150
5
27
188
82
126
66
146
116
159
64
133
186
44
96
136
132
92
8
69
98
7
32
37
47
4
165
39
54

> <PUBCHEM_MMFF94_PARTIAL_CHARGES>
31
1 -0.56
10 -0.68
11 -0.68
12 0.56
13 0.28
14 0.28
15 0.28
16 0.56
17 0.28
18 0.28
19 0.28
2 -0.56
20 0.28
21 0.28
22 0.28
23 0.28
3 -0.56
38 0.4
39 0.4
4 -0.68
40 0.4
41 0.4
42 0.4
43 0.4
44 0.4
45 0.4
5 -0.68
6 -0.68
7 -0.68
8 -0.68
9 -0.68

> <PUBCHEM_EFFECTIVE_ROTOR_COUNT>
7.2

> <PUBCHEM_PHARMACOPHORE_FEATURES>
21
1 1 acceptor
1 10 acceptor
1 10 donor
1 11 acceptor
1 11 donor
1 2 acceptor
1 3 acceptor
1 4 acceptor
1 4 donor
1 5 acceptor
1 5 donor
1 6 acceptor
1 6 donor
1 7 acceptor
1 7 donor
1 8 acceptor
1 8 donor
1 9 acceptor
1 9 donor
5 1 12 13 14 15 rings
6 3 16 17 18 19 20 rings

> <PUBCHEM_HEAVY_ATOM_COUNT>
23

> <PUBCHEM_ATOM_DEF_STEREO_COUNT>
6

> <PUBCHEM_ATOM_UDEF_STEREO_COUNT>
3

> <PUBCHEM_BOND_DEF_STEREO_COUNT>
0

> <PUBCHEM_BOND_UDEF_STEREO_COUNT>
0

> <PUBCHEM_ISOTOPIC_ATOM_COUNT>
0

> <PUBCHEM_COMPONENT_COUNT>
1

> <PUBCHEM_CACTVS_TAUTO_COUNT>
1

> <PUBCHEM_CONFORMER_ID>
017BD54800000001

> <PUBCHEM_MMFF94_ENERGY>
73.9555

> <PUBCHEM_FEATURE_SELFOVERLAP>
106.671

> <PUBCHEM_SHAPE_FINGERPRINT>
10366900 7 18334293154298487846
11578080 2 15721401666532277857
11640471 11 15698009526043038263
12553582 1 18337095787831074657
13140716 1 18338227151073591538
14178342 30 18190746534199005024
15852999 172 18269017382113541256
16945 1 18338498846599497436
17492 54 16907198289035190679
18981168 100 13469820595125115972
20600515 1 17772498753138601041
21285901 2 18200887192925341551
21524375 3 17758103079730727825
2334 1 18047750395356908682
23419403 2 14807513061869496193
23557571 272 17987786402621850899
23558518 356 18265612276586648801
23559900 14 18342182133163981896
238 59 18187092744974472742
2748010 2 18191587441271327154
5262128 65 18130494288981715124
81228 2 18409168822656785873
8809292 202 18342173358276991970
9709674 26 18336822086734977534

> <PUBCHEM_SHAPE_MULTIPOLES>
408.77
5.89
3.31
1.61
1.2
0.78
-0.14
0.93
1.1
-0.39
-0.13
-0.48
0.1
0.95

> <PUBCHEM_SHAPE_SELFOVERLAP>
843.045

> <PUBCHEM_SHAPE_VOLUME>
232.5

> <PUBCHEM_COORDINATE_TYPE>
2
5
10

$$$$

