11501
  -OEChem-06261205453D

 26 27  0     0  0  0  0  0  0999 V2000
    5.4888   -0.4593    0.0045 O   0  0  0  0  0  0  0  0  0  0  0  0
    0.0556    0.6695   -0.0062 N   0  0  0  0  0  0  0  0  0  0  0  0
   -2.2017   -0.2129    0.0016 C   0  0  0  0  0  0  0  0  0  0  0  0
    1.4315    0.3837   -0.0035 C   0  0  0  0  0  0  0  0  0  0  0  0
    2.1078    0.2333   -1.2101 C   0  0  0  0  0  0  0  0  0  0  0  0
    2.1075    0.2536    1.2059 C   0  0  0  0  0  0  0  0  0  0  0  0
   -3.0130   -1.3475    0.0093 C   0  0  0  0  0  0  0  0  0  0  0  0
   -2.7787    1.0570   -0.0069 C   0  0  0  0  0  0  0  0  0  0  0  0
   -0.7543   -0.3536    0.0020 C   0  0  0  0  0  0  0  0  0  0  0  0
    4.1564   -0.1815    0.0017 C   0  0  0  0  0  0  0  0  0  0  0  0
    3.4736   -0.0501   -1.2075 C   0  0  0  0  0  0  0  0  0  0  0  0
    3.4733   -0.0296    1.2083 C   0  0  0  0  0  0  0  0  0  0  0  0
   -4.4013   -1.2123    0.0085 C   0  0  0  0  0  0  0  0  0  0  0  0
   -4.1670    1.1922   -0.0077 C   0  0  0  0  0  0  0  0  0  0  0  0
   -4.9783    0.0575    0.0000 C   0  0  0  0  0  0  0  0  0  0  0  0
    1.5836    0.3348   -2.1567 H   0  0  0  0  0  0  0  0  0  0  0  0
    1.5832    0.3710    2.1505 H   0  0  0  0  0  0  0  0  0  0  0  0
   -2.5782   -2.3437    0.0159 H   0  0  0  0  0  0  0  0  0  0  0  0
   -2.1719    1.9586   -0.0131 H   0  0  0  0  0  0  0  0  0  0  0  0
   -0.3530   -1.3848    0.0102 H   0  0  0  0  0  0  0  0  0  0  0  0
    3.9941   -0.1662   -2.1544 H   0  0  0  0  0  0  0  0  0  0  0  0
    3.9997   -0.1310    2.1535 H   0  0  0  0  0  0  0  0  0  0  0  0
   -5.0331   -2.0957    0.0144 H   0  0  0  0  0  0  0  0  0  0  0  0
   -4.6168    2.1809   -0.0143 H   0  0  0  0  0  0  0  0  0  0  0  0
   -6.0593    0.1628   -0.0006 H   0  0  0  0  0  0  0  0  0  0  0  0
    5.7975   -0.5314   -0.9151 H   0  0  0  0  0  0  0  0  0  0  0  0
  1 10  1  0  0  0  0
  1 26  1  0  0  0  0
  2  4  1  0  0  0  0
  2  9  2  0  0  0  0
  3  7  2  0  0  0  0
  3  8  1  0  0  0  0
  3  9  1  0  0  0  0
  4  5  2  0  0  0  0
  4  6  1  0  0  0  0
  5 11  1  0  0  0  0
  5 16  1  0  0  0  0
  6 12  2  0  0  0  0
  6 17  1  0  0  0  0
  7 13  1  0  0  0  0
  7 18  1  0  0  0  0
  8 14  2  0  0  0  0
  8 19  1  0  0  0  0
  9 20  1  0  0  0  0
 10 11  2  0  0  0  0
 10 12  1  0  0  0  0
 11 21  1  0  0  0  0
 12 22  1  0  0  0  0
 13 15  2  0  0  0  0
 13 23  1  0  0  0  0
 14 15  1  0  0  0  0
 14 24  1  0  0  0  0
 15 25  1  0  0  0  0
M  END
> <PUBCHEM_COMPOUND_CID>
11501

> <PUBCHEM_CONFORMER_RMSD>
0.6

> <PUBCHEM_CONFORMER_DIVERSEORDER>
1
2

> <PUBCHEM_MMFF94_PARTIAL_CHARGES>
26
1 -0.53
10 0.08
11 -0.15
12 -0.15
13 -0.15
14 -0.15
15 -0.15
16 0.15
17 0.15
18 0.15
19 0.15
2 -0.63
20 0.06
21 0.15
22 0.15
23 0.15
24 0.15
25 0.15
26 0.45
3 0.09
4 0.18
5 -0.15
6 -0.15
7 -0.15
8 -0.15
9 0.3

> <PUBCHEM_EFFECTIVE_ROTOR_COUNT>
2

> <PUBCHEM_PHARMACOPHORE_FEATURES>
4
1 1 donor
1 2 acceptor
6 3 7 8 13 14 15 rings
6 4 5 6 10 11 12 rings

> <PUBCHEM_HEAVY_ATOM_COUNT>
15

> <PUBCHEM_ATOM_DEF_STEREO_COUNT>
0

> <PUBCHEM_ATOM_UDEF_STEREO_COUNT>
0

> <PUBCHEM_BOND_DEF_STEREO_COUNT>
0

> <PUBCHEM_BOND_UDEF_STEREO_COUNT>
0

> <PUBCHEM_ISOTOPIC_ATOM_COUNT>
0

> <PUBCHEM_COMPONENT_COUNT>
1

> <PUBCHEM_CACTVS_TAUTO_COUNT>
2

> <PUBCHEM_CONFORMER_ID>
00002CED00000001

> <PUBCHEM_MMFF94_ENERGY>
41.1278

> <PUBCHEM_FEATURE_SELFOVERLAP>
20.297

> <PUBCHEM_SHAPE_FINGERPRINT>
10912923 1 17847061077513594097
11471102 20 15864072070448440880
11615757 297 16271925999997592165
12107183 9 17339296922623938136
12236239 1 17775566450688019348
13167823 11 18060701680143397715
13675066 3 17822014181279170619
13760787 5 16845572015228796533
14123238 8 16950564371985767525
14252887 29 16081078303903598182
14386348 63 17749105595163729383
15242439 84 17968097538208186721
15375358 24 17530682112805988479
17804303 29 18409167680316290777
17834072 33 17917707972458051820
18186145 218 15769775732335619096
19489759 90 18333453157843576369
1986462 14 18408885135787046477
200 152 16558754515982672613
20279233 1 17603300449294871895
20281475 54 17632585941395340163
20645477 56 18335700594261003073
20645477 70 16371000862456859060
21065201 7 18335422382783989875
22485316 2 18333169470542178390
22646028 1 17917714591081769547
22854114 59 16153426146908707268
2297311 6 18335130999465504773
23402539 116 18272374182597196621
23402655 69 15554454002244287558
23557571 272 18260827145858297101
23559900 14 18187080680811725324
26918003 58 16660644046483522899
29717793 49 17988645211408020086
300161 21 17775292650717607397
33824 294 16660358212610788710
42 15 18408323293502755218
4214541 1 18410855473366725413
474 4 16843591670502750508
522135 26 16271930415292427192
542803 24 17918272051866611061
573450 72 18272377485743389313
69090 78 16660368060648986423
9971528 1 17418093200775819588

> <PUBCHEM_SHAPE_MULTIPOLES>
297.84
11.48
1.07
1.01
0.3
0.06
0
1.2
-0.01
-1.34
0
1.13
-0.04
0.02

> <PUBCHEM_SHAPE_SELFOVERLAP>
640.937

> <PUBCHEM_SHAPE_VOLUME>
163.9

> <PUBCHEM_COORDINATE_TYPE>
2
5
10

$$$$

