22094
  -OEChem-07051213132D

 38 39  0     0  0  0  0  0  0999 V2000
    3.3100    4.0000    0.0000 Cl  0  0  0  0  0  0  0  0  0  0  0  0
    3.3100   -4.0000    0.0000 Cl  0  0  0  0  0  0  0  0  0  0  0  0
    4.8100    0.8660    0.0000 O   0  0  0  0  0  0  0  0  0  0  0  0
    2.3100    0.0000    0.0000 O   0  0  0  0  0  0  0  0  0  0  0  0
    4.8100   -0.8660    0.0000 O   0  0  0  0  0  0  0  0  0  0  0  0
    3.3100    0.0000    0.0000 C   0  0  0  0  0  0  0  0  0  0  0  0
    3.3100   -1.0000    0.0000 C   0  0  0  0  0  0  0  0  0  0  0  0
    3.3100    1.0000    0.0000 C   0  0  0  0  0  0  0  0  0  0  0  0
    4.3100    0.0000    0.0000 C   0  0  0  0  0  0  0  0  0  0  0  0
    5.8100    0.8660    0.0000 C   0  0  0  0  0  0  0  0  0  0  0  0
    4.1760    1.5000    0.0000 C   0  0  0  0  0  0  0  0  0  0  0  0
    2.4440   -1.5000    0.0000 C   0  0  0  0  0  0  0  0  0  0  0  0
    2.4440    1.5000    0.0000 C   0  0  0  0  0  0  0  0  0  0  0  0
    4.1760   -1.5000    0.0000 C   0  0  0  0  0  0  0  0  0  0  0  0
    2.4440   -2.5000    0.0000 C   0  0  0  0  0  0  0  0  0  0  0  0
    4.1760    2.5000    0.0000 C   0  0  0  0  0  0  0  0  0  0  0  0
    2.4440    2.5000    0.0000 C   0  0  0  0  0  0  0  0  0  0  0  0
    4.1760   -2.5000    0.0000 C   0  0  0  0  0  0  0  0  0  0  0  0
    6.3100    1.7320    0.0000 C   0  0  0  0  0  0  0  0  0  0  0  0
    6.3100    0.0000    0.0000 C   0  0  0  0  0  0  0  0  0  0  0  0
    3.3100   -3.0000    0.0000 C   0  0  0  0  0  0  0  0  0  0  0  0
    3.3100    3.0000    0.0000 C   0  0  0  0  0  0  0  0  0  0  0  0
    5.5000    0.3291    0.0000 H   0  0  0  0  0  0  0  0  0  0  0  0
    1.9070   -1.1900    0.0000 H   0  0  0  0  0  0  0  0  0  0  0  0
    4.7130    1.1900    0.0000 H   0  0  0  0  0  0  0  0  0  0  0  0
    4.7130   -1.1900    0.0000 H   0  0  0  0  0  0  0  0  0  0  0  0
    1.9070    1.1900    0.0000 H   0  0  0  0  0  0  0  0  0  0  0  0
    2.0000    0.5369    0.0000 H   0  0  0  0  0  0  0  0  0  0  0  0
    1.9070   -2.8100    0.0000 H   0  0  0  0  0  0  0  0  0  0  0  0
    4.7130    2.8100    0.0000 H   0  0  0  0  0  0  0  0  0  0  0  0
    4.7130   -2.8100    0.0000 H   0  0  0  0  0  0  0  0  0  0  0  0
    1.9070    2.8100    0.0000 H   0  0  0  0  0  0  0  0  0  0  0  0
    5.7731   -0.3100    0.0000 H   0  0  0  0  0  0  0  0  0  0  0  0
    6.6200   -0.5369    0.0000 H   0  0  0  0  0  0  0  0  0  0  0  0
    6.8469    1.4220    0.0000 H   0  0  0  0  0  0  0  0  0  0  0  0
    6.6200    2.2690    0.0000 H   0  0  0  0  0  0  0  0  0  0  0  0
    5.7731    2.0420    0.0000 H   0  0  0  0  0  0  0  0  0  0  0  0
    6.8469    0.3100    0.0000 H   0  0  0  0  0  0  0  0  0  0  0  0
  1 22  1  0  0  0  0
  2 21  1  0  0  0  0
  3  9  1  0  0  0  0
  3 10  1  0  0  0  0
  4  6  1  0  0  0  0
  4 28  1  0  0  0  0
  5  9  2  0  0  0  0
  6  7  1  0  0  0  0
  6  8  1  0  0  0  0
  6  9  1  0  0  0  0
  7 12  2  0  0  0  0
  7 14  1  0  0  0  0
  8 11  2  0  0  0  0
  8 13  1  0  0  0  0
 10 19  1  0  0  0  0
 10 20  1  0  0  0  0
 10 23  1  0  0  0  0
 11 16  1  0  0  0  0
 11 25  1  0  0  0  0
 12 15  1  0  0  0  0
 12 24  1  0  0  0  0
 13 17  2  0  0  0  0
 13 27  1  0  0  0  0
 14 18  2  0  0  0  0
 14 26  1  0  0  0  0
 15 21  2  0  0  0  0
 15 29  1  0  0  0  0
 16 22  2  0  0  0  0
 16 30  1  0  0  0  0
 17 22  1  0  0  0  0
 17 32  1  0  0  0  0
 18 21  1  0  0  0  0
 18 31  1  0  0  0  0
 19 35  1  0  0  0  0
 19 36  1  0  0  0  0
 19 37  1  0  0  0  0
 20 33  1  0  0  0  0
 20 34  1  0  0  0  0
 20 38  1  0  0  0  0
M  END
> <PUBCHEM_COMPOUND_CID>
22094

> <PUBCHEM_COMPOUND_CANONICALIZED>
1

> <PUBCHEM_CACTVS_COMPLEXITY>
348

> <PUBCHEM_CACTVS_HBOND_ACCEPTOR>
3

> <PUBCHEM_CACTVS_HBOND_DONOR>
1

> <PUBCHEM_CACTVS_ROTATABLE_BOND>
5

> <PUBCHEM_CACTVS_SUBSKEYS>
AAADceB4MAAGAAAAAAAAAAAAAAAAAAAAAAAwYAAAAAAAAAABQAAAGgIACAAADFagmCIyCIAABgCIAiDSCAICAAAgBQAIiAFACogJJjKBFxCCcAAkwAELmAeIyOCOhAAAAAAAAAAIAAAAAAAAAAAAAAAAAA==

> <PUBCHEM_IUPAC_OPENEYE_NAME>
isopropyl 2,2-bis(4-chlorophenyl)-2-hydroxy-acetate

> <PUBCHEM_IUPAC_CAS_NAME>
2,2-bis(4-chlorophenyl)-2-hydroxyacetic acid propan-2-yl ester

> <PUBCHEM_IUPAC_NAME>
propan-2-yl 2,2-bis(4-chlorophenyl)-2-hydroxyacetate

> <PUBCHEM_IUPAC_SYSTEMATIC_NAME>
propan-2-yl 2,2-bis(4-chlorophenyl)-2-oxidanyl-ethanoate

> <PUBCHEM_IUPAC_TRADITIONAL_NAME>
2,2-bis(4-chlorophenyl)-2-hydroxy-acetic acid isopropyl ester

> <PUBCHEM_IUPAC_INCHI>
InChI=1S/C17H16Cl2O3/c1-11(2)22-16(20)17(21,12-3-7-14(18)8-4-12)13-5-9-15(19)10-6-13/h3-11,21H,1-2H3

> <PUBCHEM_IUPAC_INCHIKEY>
AXGUBXVWZBFQGA-UHFFFAOYSA-N

> <PUBCHEM_XLOGP3_AA>
4.7

> <PUBCHEM_EXACT_MASS>
338.04765

> <PUBCHEM_MOLECULAR_FORMULA>
C17H16Cl2O3

> <PUBCHEM_MOLECULAR_WEIGHT>
339.21314

> <PUBCHEM_OPENEYE_CAN_SMILES>
CC(C)OC(=O)C(C1=CC=C(C=C1)Cl)(C2=CC=C(C=C2)Cl)O

> <PUBCHEM_OPENEYE_ISO_SMILES>
CC(C)OC(=O)C(C1=CC=C(C=C1)Cl)(C2=CC=C(C=C2)Cl)O

> <PUBCHEM_CACTVS_TPSA>
46.5

> <PUBCHEM_MONOISOTOPIC_WEIGHT>
338.04765

> <PUBCHEM_TOTAL_CHARGE>
0

> <PUBCHEM_HEAVY_ATOM_COUNT>
22

> <PUBCHEM_ATOM_DEF_STEREO_COUNT>
0

> <PUBCHEM_ATOM_UDEF_STEREO_COUNT>
0

> <PUBCHEM_BOND_DEF_STEREO_COUNT>
0

> <PUBCHEM_BOND_UDEF_STEREO_COUNT>
0

> <PUBCHEM_ISOTOPIC_ATOM_COUNT>
0

> <PUBCHEM_COMPONENT_COUNT>
1

> <PUBCHEM_CACTVS_TAUTO_COUNT>
1

> <PUBCHEM_COORDINATE_TYPE>
1
5
255

> <PUBCHEM_BONDANNOTATIONS>
11  16  8
12  15  8
13  17  8
14  18  8
15  21  8
16  22  8
17  22  8
18  21  8
7  12  8
7  14  8
8  11  8
8  13  8

$$$$

