442545
  -OEChem-07051212583D

 24 25  0     1  0  0  0  0  0999 V2000
   -0.8235   -3.0057   -0.4568 O   0  0  0  0  0  0  0  0  0  0  0  0
   -3.2851    1.0865   -0.0882 O   0  0  0  0  0  0  0  0  0  0  0  0
   -0.9304    2.3644   -0.1225 O   0  0  0  0  0  0  0  0  0  0  0  0
    1.6162    2.4762   -0.1637 O   0  0  0  0  0  0  0  0  0  0  0  0
   -0.9064   -1.7888    0.2818 C   0  0  2  0  0  0  0  0  0  0  0  0
   -2.1128   -1.0063   -0.2291 C   0  0  0  0  0  0  0  0  0  0  0  0
   -2.1688    0.3692    0.4087 C   0  0  1  0  0  0  0  0  0  0  0  0
    0.3757   -0.9993    0.1458 C   0  0  0  0  0  0  0  0  0  0  0  0
    0.3691    0.4039    0.0515 C   0  0  0  0  0  0  0  0  0  0  0  0
   -0.9145    1.1541    0.0802 C   0  0  0  0  0  0  0  0  0  0  0  0
    1.6148   -1.6608    0.1657 C   0  0  0  0  0  0  0  0  0  0  0  0
    1.5694    1.1170   -0.0639 C   0  0  0  0  0  0  0  0  0  0  0  0
    2.8099   -0.9485    0.0553 C   0  0  0  0  0  0  0  0  0  0  0  0
    2.7865    0.4380   -0.0647 C   0  0  0  0  0  0  0  0  0  0  0  0
   -1.0412   -2.0426    1.3403 H   0  0  0  0  0  0  0  0  0  0  0  0
   -2.0722   -0.9197   -1.3246 H   0  0  0  0  0  0  0  0  0  0  0  0
   -3.0391   -1.5596   -0.0291 H   0  0  0  0  0  0  0  0  0  0  0  0
   -2.2636    0.3046    1.4979 H   0  0  0  0  0  0  0  0  0  0  0  0
    1.6609   -2.7425    0.2676 H   0  0  0  0  0  0  0  0  0  0  0  0
    3.7588   -1.4769    0.0655 H   0  0  0  0  0  0  0  0  0  0  0  0
   -1.6493   -3.4968   -0.3066 H   0  0  0  0  0  0  0  0  0  0  0  0
    3.7221    0.9842   -0.1495 H   0  0  0  0  0  0  0  0  0  0  0  0
   -3.2362    1.0892   -1.0594 H   0  0  0  0  0  0  0  0  0  0  0  0
    0.7339    2.8613   -0.0582 H   0  0  0  0  0  0  0  0  0  0  0  0
  1  5  1  0  0  0  0
  1 21  1  0  0  0  0
  2  7  1  0  0  0  0
  2 23  1  0  0  0  0
  3 10  2  0  0  0  0
  4 12  1  0  0  0  0
  4 24  1  0  0  0  0
  5  6  1  0  0  0  0
  5  8  1  0  0  0  0
  5 15  1  0  0  0  0
  6  7  1  0  0  0  0
  6 16  1  0  0  0  0
  6 17  1  0  0  0  0
  7 10  1  0  0  0  0
  7 18  1  0  0  0  0
  8  9  2  0  0  0  0
  8 11  1  0  0  0  0
  9 10  1  0  0  0  0
  9 12  1  0  0  0  0
 11 13  2  0  0  0  0
 11 19  1  0  0  0  0
 12 14  2  0  0  0  0
 13 14  1  0  0  0  0
 13 20  1  0  0  0  0
 14 22  1  0  0  0  0
M  END
> <PUBCHEM_COMPOUND_CID>
442545

> <PUBCHEM_CONFORMER_RMSD>
0.4

> <PUBCHEM_CONFORMER_DIVERSEORDER>
2
1

> <PUBCHEM_MMFF94_PARTIAL_CHARGES>
19
1 -0.68
10 0.42
11 -0.15
12 0.08
13 -0.15
14 -0.15
19 0.15
2 -0.68
20 0.15
21 0.4
22 0.15
23 0.4
24 0.45
3 -0.57
4 -0.53
5 0.42
7 0.34
8 -0.14
9 0.09

> <PUBCHEM_EFFECTIVE_ROTOR_COUNT>
0.6

> <PUBCHEM_PHARMACOPHORE_FEATURES>
8
1 1 acceptor
1 1 donor
1 2 acceptor
1 2 donor
1 3 acceptor
1 4 donor
6 5 6 7 8 9 10 rings
6 8 9 11 12 13 14 rings

> <PUBCHEM_HEAVY_ATOM_COUNT>
14

> <PUBCHEM_ATOM_DEF_STEREO_COUNT>
0

> <PUBCHEM_ATOM_UDEF_STEREO_COUNT>
2

> <PUBCHEM_BOND_DEF_STEREO_COUNT>
0

> <PUBCHEM_BOND_UDEF_STEREO_COUNT>
0

> <PUBCHEM_ISOTOPIC_ATOM_COUNT>
0

> <PUBCHEM_COMPONENT_COUNT>
1

> <PUBCHEM_CACTVS_TAUTO_COUNT>
33

> <PUBCHEM_CONFORMER_ID>
0006C0B100000002

> <PUBCHEM_MMFF94_ENERGY>
32.2413

> <PUBCHEM_FEATURE_SELFOVERLAP>
40.623

> <PUBCHEM_SHAPE_FINGERPRINT>
10967382 1 18339079414081427555
11471102 20 18267871768882141365
12382932 28 18409170974197368048
12423570 1 13156797816514964038
12524768 44 18411415072976559090
13140716 1 18267303132080478856
15775835 57 18341886415817261428
16945 1 18411136931052615234
193761 8 18194682562050293523
20645476 183 17702641324928107326
21501502 16 18339361834246296940
2334 1 17979071583376301592
23402539 116 18190758598635792238
23419403 2 16387416459200500290
23463225 33 18053946431184511370
23552423 10 18198341749869823742
23559900 14 18334285454408881900
241688 4 16464735611567224835
25 1 17911812580442276325
2748010 2 18122622756315230710
2897 32 18412544344474771182
5084963 1 18042410286186502731
528886 8 18410579517143272603
66348 1 18411698824243595722

> <PUBCHEM_SHAPE_MULTIPOLES>
264.64
3.89
2.73
0.63
0.1
0.29
0.02
-0.51
-0.04
0.23
-0.26
0.02
0.07
-0.16

> <PUBCHEM_SHAPE_SELFOVERLAP>
574.924

> <PUBCHEM_SHAPE_VOLUME>
143.5

> <PUBCHEM_COORDINATE_TYPE>
2
5
10

$$$$

