5284371
  -OEChem-07051212513D

 43 47  0     1  0  0  0  0  0999 V2000
   -1.5926   -1.0371    1.1890 O   0  0  0  0  0  0  0  0  0  0  0  0
   -1.8298   -3.2224   -0.2208 O   0  0  0  0  0  0  0  0  0  0  0  0
   -3.7490    0.7880    0.5181 O   0  0  0  0  0  0  0  0  0  0  0  0
    3.2987    0.7132    0.4612 N   0  0  2  0  0  0  0  0  0  0  0  0
    0.7585   -0.6767    0.6654 C   0  0  1  0  0  0  0  0  0  0  0  0
    1.8071   -1.0215   -0.4031 C   0  0  2  0  0  0  0  0  0  0  0  0
    2.5499    0.3087   -0.7532 C   0  0  1  0  0  0  0  0  0  0  0  0
   -0.3170   -1.7404    0.9876 C   0  0  2  0  0  0  0  0  0  0  0  0
    1.4691   -0.1453    1.9259 C   0  0  0  0  0  0  0  0  0  0  0  0
   -0.1533    0.3674    0.1106 C   0  0  0  0  0  0  0  0  0  0  0  0
    1.5897    1.4045   -1.3316 C   0  0  0  0  0  0  0  0  0  0  0  0
    2.4454    1.0021    1.6181 C   0  0  0  0  0  0  0  0  0  0  0  0
    0.1967    1.3820   -0.7621 C   0  0  0  0  0  0  0  0  0  0  0  0
   -0.4599   -2.8532   -0.0835 C   0  0  2  0  0  0  0  0  0  0  0  0
    1.1865   -1.7246   -1.5833 C   0  0  0  0  0  0  0  0  0  0  0  0
   -1.4545    0.1347    0.4954 C   0  0  0  0  0  0  0  0  0  0  0  0
    0.1370   -2.5460   -1.4311 C   0  0  0  0  0  0  0  0  0  0  0  0
    4.2548    1.7894    0.2223 C   0  0  0  0  0  0  0  0  0  0  0  0
   -0.8133    2.2630   -1.1520 C   0  0  0  0  0  0  0  0  0  0  0  0
   -2.4665    0.9951    0.1305 C   0  0  0  0  0  0  0  0  0  0  0  0
   -2.1323    2.0799   -0.6902 C   0  0  0  0  0  0  0  0  0  0  0  0
   -4.7250    1.7390    0.0868 C   0  0  0  0  0  0  0  0  0  0  0  0
    2.5432   -1.7265    0.0124 H   0  0  0  0  0  0  0  0  0  0  0  0
    3.2945    0.0818   -1.5287 H   0  0  0  0  0  0  0  0  0  0  0  0
   -0.0988   -2.2310    1.9450 H   0  0  0  0  0  0  0  0  0  0  0  0
    2.0307   -0.9692    2.3866 H   0  0  0  0  0  0  0  0  0  0  0  0
    0.7460    0.1975    2.6771 H   0  0  0  0  0  0  0  0  0  0  0  0
    1.4978    1.2209   -2.4108 H   0  0  0  0  0  0  0  0  0  0  0  0
    2.0137    2.4078   -1.2265 H   0  0  0  0  0  0  0  0  0  0  0  0
    1.8878    1.9354    1.4711 H   0  0  0  0  0  0  0  0  0  0  0  0
    3.0705    1.1554    2.5067 H   0  0  0  0  0  0  0  0  0  0  0  0
    0.0666   -3.7461    0.2781 H   0  0  0  0  0  0  0  0  0  0  0  0
    1.6268   -1.5936   -2.5669 H   0  0  0  0  0  0  0  0  0  0  0  0
   -0.2529   -3.0700   -2.2991 H   0  0  0  0  0  0  0  0  0  0  0  0
    3.7733    2.7539    0.0327 H   0  0  0  0  0  0  0  0  0  0  0  0
    4.9052    1.5529   -0.6269 H   0  0  0  0  0  0  0  0  0  0  0  0
    4.9119    1.9100    1.0911 H   0  0  0  0  0  0  0  0  0  0  0  0
   -0.5953    3.0800   -1.8348 H   0  0  0  0  0  0  0  0  0  0  0  0
   -2.8599    2.8061   -1.0394 H   0  0  0  0  0  0  0  0  0  0  0  0
   -2.1650   -3.4351    0.6669 H   0  0  0  0  0  0  0  0  0  0  0  0
   -4.5125    2.7381    0.4819 H   0  0  0  0  0  0  0  0  0  0  0  0
   -5.6882    1.4255    0.5022 H   0  0  0  0  0  0  0  0  0  0  0  0
   -4.8280    1.7389   -1.0034 H   0  0  0  0  0  0  0  0  0  0  0  0
  1  8  1  0  0  0  0
  1 16  1  0  0  0  0
  2 14  1  0  0  0  0
  2 40  1  0  0  0  0
  3 20  1  0  0  0  0
  3 22  1  0  0  0  0
  4  7  1  0  0  0  0
  4 12  1  0  0  0  0
  4 18  1  0  0  0  0
  5  6  1  0  0  0  0
  5  8  1  0  0  0  0
  5  9  1  0  0  0  0
  5 10  1  0  0  0  0
  6  7  1  0  0  0  0
  6 15  1  0  0  0  0
  6 23  1  0  0  0  0
  7 11  1  0  0  0  0
  7 24  1  0  0  0  0
  8 14  1  0  0  0  0
  8 25  1  0  0  0  0
  9 12  1  0  0  0  0
  9 26  1  0  0  0  0
  9 27  1  0  0  0  0
 10 13  2  0  0  0  0
 10 16  1  0  0  0  0
 11 13  1  0  0  0  0
 11 28  1  0  0  0  0
 11 29  1  0  0  0  0
 12 30  1  0  0  0  0
 12 31  1  0  0  0  0
 13 19  1  0  0  0  0
 14 17  1  0  0  0  0
 14 32  1  0  0  0  0
 15 17  2  0  0  0  0
 15 33  1  0  0  0  0
 16 20  2  0  0  0  0
 17 34  1  0  0  0  0
 18 35  1  0  0  0  0
 18 36  1  0  0  0  0
 18 37  1  0  0  0  0
 19 21  2  0  0  0  0
 19 38  1  0  0  0  0
 20 21  1  0  0  0  0
 21 39  1  0  0  0  0
 22 41  1  0  0  0  0
 22 42  1  0  0  0  0
 22 43  1  0  0  0  0
M  END
> <PUBCHEM_COMPOUND_CID>
5284371

> <PUBCHEM_CONFORMER_RMSD>
0.6

> <PUBCHEM_CONFORMER_DIVERSEORDER>
1

> <PUBCHEM_MMFF94_PARTIAL_CHARGES>
26
1 -0.36
10 -0.14
11 0.14
12 0.27
13 -0.14
14 0.42
15 -0.29
16 0.08
17 -0.29
18 0.27
19 -0.15
2 -0.68
20 0.08
21 -0.15
22 0.28
3 -0.36
33 0.15
34 0.15
38 0.15
39 0.15
4 -0.81
40 0.4
5 0.14
6 0.14
7 0.27
8 0.28

> <PUBCHEM_EFFECTIVE_ROTOR_COUNT>
2.2

> <PUBCHEM_PHARMACOPHORE_FEATURES>
10
1 1 acceptor
1 2 acceptor
1 2 donor
1 3 acceptor
1 4 cation
5 1 5 8 10 16 rings
6 10 13 16 19 20 21 rings
6 4 5 6 7 9 12 rings
6 5 6 7 10 11 13 rings
6 5 6 8 14 15 17 rings

> <PUBCHEM_HEAVY_ATOM_COUNT>
22

> <PUBCHEM_ATOM_DEF_STEREO_COUNT>
5

> <PUBCHEM_ATOM_UDEF_STEREO_COUNT>
0

> <PUBCHEM_BOND_DEF_STEREO_COUNT>
0

> <PUBCHEM_BOND_UDEF_STEREO_COUNT>
0

> <PUBCHEM_ISOTOPIC_ATOM_COUNT>
0

> <PUBCHEM_COMPONENT_COUNT>
1

> <PUBCHEM_CACTVS_TAUTO_COUNT>
1

> <PUBCHEM_CONFORMER_ID>
0050A21300000001

> <PUBCHEM_MMFF94_ENERGY>
86.8514

> <PUBCHEM_FEATURE_SELFOVERLAP>
52.875

> <PUBCHEM_SHAPE_FINGERPRINT>
10165383 225 18261384546914393424
104564 63 18119535327511766967
10863032 1 17967816037382564174
10871710 139 17549529718160875340
10948715 1 18335140899169839244
11578080 2 17824265891474049992
12035758 1 18265054824392203618
12423570 1 17905852969473701114
12716301 132 18043265556252286578
13140716 1 18269267023209639171
13172582 1 18201718448720826169
13681431 1 17250063892029558606
141345 1 11664949280087419966
14142880 1 18049464555612701648
144361 1 17398909862180945958
14817 1 14295887301572607350
15852999 172 18333446551624959354
16945 1 17911500022607675154
17357779 13 17535484616398257479
20905425 154 17480584175477877838
21524375 3 18411143566703195864
22112679 90 17762609590986513894
22182313 1 18195499615592120211
23388829 49 17403179192701286996
23419403 2 17755818139601025310
23557571 272 18191296079591221800
238 59 17905349646598645461
2748010 2 18197471065573161899
3060560 45 18270394035560354191
34934 24 18060139791210630116
427121 178 18334017215381758097
4340502 62 18040716982983261889
495365 180 17975718378134448325
5845 1 16817466067250830286
5939293 188 18131622379316902773
7364860 26 17906175401189714613
81228 2 17977695033330737066
84936 31 17535204550228569055

> <PUBCHEM_SHAPE_MULTIPOLES>
430.16
5.34
3.13
1.5
2.68
2.14
0.13
-4.47
0.91
0.8
-0.96
-0.71
0.14
0.53

> <PUBCHEM_SHAPE_SELFOVERLAP>
969.267

> <PUBCHEM_SHAPE_VOLUME>
224.4

> <PUBCHEM_COORDINATE_TYPE>
2
5
10

$$$$

