442944
  -OEChem-07051213002D

 46 48  0     1  0  0  0  0  0999 V2000
    8.9942    1.2142    0.0000 O   0  0  0  0  0  0  0  0  0  0  0  0
    4.5981    2.6900    0.0000 O   0  0  0  0  0  0  0  0  0  0  0  0
    2.8660   -3.3100    0.0000 O   0  0  0  0  0  0  0  0  0  0  0  0
    6.3301   -0.3100    0.0000 N   0  0  3  0  0  0  0  0  0  0  0  0
    3.7320   -1.8100    0.0000 N   0  0  0  0  0  0  0  0  0  0  0  0
    6.3301    0.6900    0.0000 C   0  0  3  0  0  0  0  0  0  0  0  0
    4.5981   -0.3100    0.0000 C   0  0  3  0  0  0  0  0  0  0  0  0
    5.4641    1.1900    0.0000 C   0  0  3  0  0  0  0  0  0  0  0  0
    4.5981    0.6900    0.0000 C   0  0  0  0  0  0  0  0  0  0  0  0
    5.4641   -0.8100    0.0000 C   0  0  0  0  0  0  0  0  0  0  0  0
    7.2241    1.2247    0.0000 C   0  0  0  0  0  0  0  0  0  0  0  0
    3.7320   -0.8100    0.0000 C   0  0  3  0  0  0  0  0  0  0  0  0
    7.2241   -0.8447    0.0000 C   0  0  0  0  0  0  0  0  0  0  0  0
    8.1301    0.7108    0.0000 C   0  0  3  0  0  0  0  0  0  0  0  0
    8.1301   -0.3308    0.0000 C   0  0  0  0  0  0  0  0  0  0  0  0
    5.4641    2.1900    0.0000 C   0  0  0  0  0  0  0  0  0  0  0  0
    2.8660   -0.3100    0.0000 C   0  0  0  0  0  0  0  0  0  0  0  0
    2.0000   -0.8100    0.0000 C   0  0  0  0  0  0  0  0  0  0  0  0
    2.0000   -1.8100    0.0000 C   0  0  0  0  0  0  0  0  0  0  0  0
    2.8660   -2.3100    0.0000 C   0  0  0  0  0  0  0  0  0  0  0  0
    6.3254    1.3100    0.0000 H   0  0  0  0  0  0  0  0  0  0  0  0
    4.5981   -0.9300    0.0000 H   0  0  0  0  0  0  0  0  0  0  0  0
    6.0010    1.5000    0.0000 H   0  0  0  0  0  0  0  0  0  0  0  0
    4.3860    1.2726    0.0000 H   0  0  0  0  0  0  0  0  0  0  0  0
    3.9875    0.5823    0.0000 H   0  0  0  0  0  0  0  0  0  0  0  0
    5.0656   -1.2850    0.0000 H   0  0  0  0  0  0  0  0  0  0  0  0
    5.8626   -1.2850    0.0000 H   0  0  0  0  0  0  0  0  0  0  0  0
    7.6177    1.7037    0.0000 H   0  0  0  0  0  0  0  0  0  0  0  0
    6.8195    1.6944    0.0000 H   0  0  0  0  0  0  0  0  0  0  0  0
    3.7320   -0.1900    0.0000 H   0  0  0  0  0  0  0  0  0  0  0  0
    6.8195   -1.3144    0.0000 H   0  0  0  0  0  0  0  0  0  0  0  0
    7.6177   -1.3237    0.0000 H   0  0  0  0  0  0  0  0  0  0  0  0
    8.6677    0.4019    0.0000 H   0  0  0  0  0  0  0  0  0  0  0  0
    8.3392   -0.9145    0.0000 H   0  0  0  0  0  0  0  0  0  0  0  0
    8.7410   -0.2247    0.0000 H   0  0  0  0  0  0  0  0  0  0  0  0
    6.0747    2.0823    0.0000 H   0  0  0  0  0  0  0  0  0  0  0  0
    5.6762    2.7726    0.0000 H   0  0  0  0  0  0  0  0  0  0  0  0
    3.2646    0.1649    0.0000 H   0  0  0  0  0  0  0  0  0  0  0  0
    2.4675    0.1649    0.0000 H   0  0  0  0  0  0  0  0  0  0  0  0
    4.2690   -2.1200    0.0000 H   0  0  0  0  0  0  0  0  0  0  0  0
    1.7880   -0.2274    0.0000 H   0  0  0  0  0  0  0  0  0  0  0  0
    1.3894   -0.9177    0.0000 H   0  0  0  0  0  0  0  0  0  0  0  0
    1.3894   -1.7023    0.0000 H   0  0  0  0  0  0  0  0  0  0  0  0
    1.7880   -2.3926    0.0000 H   0  0  0  0  0  0  0  0  0  0  0  0
    9.5323    0.9062    0.0000 H   0  0  0  0  0  0  0  0  0  0  0  0
    4.5981    3.3100    0.0000 H   0  0  0  0  0  0  0  0  0  0  0  0
  1 14  1  0  0  0  0
  1 45  1  0  0  0  0
  2 16  1  0  0  0  0
  2 46  1  0  0  0  0
  3 20  2  0  0  0  0
  4  6  1  0  0  0  0
  4 10  1  0  0  0  0
  4 13  1  0  0  0  0
  5 12  1  0  0  0  0
  5 20  1  0  0  0  0
  5 40  1  0  0  0  0
  6  8  1  0  0  0  0
  6 11  1  0  0  0  0
  6 21  1  0  0  0  0
  7  9  1  0  0  0  0
  7 10  1  0  0  0  0
  7 12  1  0  0  0  0
  7 22  1  0  0  0  0
  8  9  1  0  0  0  0
  8 16  1  0  0  0  0
  8 23  1  0  0  0  0
  9 24  1  0  0  0  0
  9 25  1  0  0  0  0
 10 26  1  0  0  0  0
 10 27  1  0  0  0  0
 11 14  1  0  0  0  0
 11 28  1  0  0  0  0
 11 29  1  0  0  0  0
 12 17  1  0  0  0  0
 12 30  1  0  0  0  0
 13 15  1  0  0  0  0
 13 31  1  0  0  0  0
 13 32  1  0  0  0  0
 14 15  1  0  0  0  0
 14 33  1  0  0  0  0
 15 34  1  0  0  0  0
 15 35  1  0  0  0  0
 16 36  1  0  0  0  0
 16 37  1  0  0  0  0
 17 18  1  0  0  0  0
 17 38  1  0  0  0  0
 17 39  1  0  0  0  0
 18 19  1  0  0  0  0
 18 41  1  0  0  0  0
 18 42  1  0  0  0  0
 19 20  1  0  0  0  0
 19 43  1  0  0  0  0
 19 44  1  0  0  0  0
M  END
> <PUBCHEM_COMPOUND_CID>
442944

> <PUBCHEM_COMPOUND_CANONICALIZED>
1

> <PUBCHEM_CACTVS_COMPLEXITY>
363

> <PUBCHEM_CACTVS_HBOND_ACCEPTOR>
4

> <PUBCHEM_CACTVS_HBOND_DONOR>
3

> <PUBCHEM_CACTVS_ROTATABLE_BOND>
2

> <PUBCHEM_CACTVS_SUBSKEYS>
AAADceBzMAAAAAAAAAAAAAAAAAAAAAAAAAAsWLAAAAAAAACwAAAAHgAQCAAADTzhgAYAAAPAAgAIAAEQEAAAAAAAAAAAAIEIAAAAEBIAwAAEQAAGFgCAAAGY+eeeAAAAAAAAAAAAAAAAAAAAAAAAAAAAAA==

> <PUBCHEM_IUPAC_OPENEYE_NAME>
6-[8-hydroxy-1-(hydroxymethyl)-2,3,4,6,7,8,9,9a-octahydro-1H-quinolizin-3-yl]piperidin-2-one

> <PUBCHEM_IUPAC_CAS_NAME>
6-[8-hydroxy-1-(hydroxymethyl)-2,3,4,6,7,8,9,9a-octahydro-1H-quinolizin-3-yl]-2-piperidinone

> <PUBCHEM_IUPAC_NAME>
6-[8-hydroxy-1-(hydroxymethyl)-2,3,4,6,7,8,9,9a-octahydro-1H-quinolizin-3-yl]piperidin-2-one

> <PUBCHEM_IUPAC_SYSTEMATIC_NAME>
6-[1-(hydroxymethyl)-8-oxidanyl-2,3,4,6,7,8,9,9a-octahydro-1H-quinolizin-3-yl]piperidin-2-one

> <PUBCHEM_IUPAC_TRADITIONAL_NAME>
6-(8-hydroxy-1-methylol-quinolizidin-3-yl)-2-piperidone

> <PUBCHEM_IUPAC_INCHI>
InChI=1S/C15H26N2O3/c18-9-11-6-10(13-2-1-3-15(20)16-13)8-17-5-4-12(19)7-14(11)17/h10-14,18-19H,1-9H2,(H,16,20)

> <PUBCHEM_IUPAC_INCHIKEY>
XFWSJSOEWSRENH-UHFFFAOYSA-N

> <PUBCHEM_XLOGP3_AA>
0

> <PUBCHEM_EXACT_MASS>
282.194343

> <PUBCHEM_MOLECULAR_FORMULA>
C15H26N2O3

> <PUBCHEM_MOLECULAR_WEIGHT>
282.37854

> <PUBCHEM_OPENEYE_CAN_SMILES>
C1CC(NC(=O)C1)C2CC(C3CC(CCN3C2)O)CO

> <PUBCHEM_OPENEYE_ISO_SMILES>
C1CC(NC(=O)C1)C2CC(C3CC(CCN3C2)O)CO

> <PUBCHEM_CACTVS_TPSA>
72.8

> <PUBCHEM_MONOISOTOPIC_WEIGHT>
282.194343

> <PUBCHEM_TOTAL_CHARGE>
0

> <PUBCHEM_HEAVY_ATOM_COUNT>
20

> <PUBCHEM_ATOM_DEF_STEREO_COUNT>
0

> <PUBCHEM_ATOM_UDEF_STEREO_COUNT>
5

> <PUBCHEM_BOND_DEF_STEREO_COUNT>
0

> <PUBCHEM_BOND_UDEF_STEREO_COUNT>
0

> <PUBCHEM_ISOTOPIC_ATOM_COUNT>
0

> <PUBCHEM_COMPONENT_COUNT>
1

> <PUBCHEM_CACTVS_TAUTO_COUNT>
3

> <PUBCHEM_COORDINATE_TYPE>
1
5
255

> <PUBCHEM_BONDANNOTATIONS>
14  1  3
12  17  3
6  11  3
7  9  3
8  16  3

$$$$

