5748355
  -OEChem-07051213112D

  9  8  0     1  0  0  0  0  0999 V2000
    2.0000    0.4400    0.0000 O   0  5  0  0  0  0  0  0  0  0  0  0
    2.8660   -1.0600    0.0000 O   0  0  0  0  0  0  0  0  0  0  0  0
    2.8660   -0.0600    0.0000 N   0  3  0  0  0  0  0  0  0  0  0  0
    4.5981   -0.0600    0.0000 C   0  0  0  0  0  0  0  0  0  0  0  0
    3.7320    0.4400    0.0000 C   0  5  3  0  0  0  0  0  0  0  0  0
    3.7320    1.0600    0.0000 H   0  0  0  0  0  0  0  0  0  0  0  0
    4.2881   -0.5969    0.0000 H   0  0  0  0  0  0  0  0  0  0  0  0
    5.1350   -0.3700    0.0000 H   0  0  0  0  0  0  0  0  0  0  0  0
    4.9081    0.4769    0.0000 H   0  0  0  0  0  0  0  0  0  0  0  0
  1  3  1  0  0  0  0
  2  3  2  0  0  0  0
  3  5  1  0  0  0  0
  4  5  1  0  0  0  0
  4  7  1  0  0  0  0
  4  8  1  0  0  0  0
  4  9  1  0  0  0  0
  5  6  1  0  0  0  0
M  CHG  3   1  -1   3   1   5  -1
M  END
> <PUBCHEM_COMPOUND_CID>
5748355

> <PUBCHEM_COMPOUND_CANONICALIZED>
1

> <PUBCHEM_CACTVS_COMPLEXITY>
37.4

> <PUBCHEM_CACTVS_HBOND_ACCEPTOR>
3

> <PUBCHEM_CACTVS_HBOND_DONOR>
0

> <PUBCHEM_CACTVS_ROTATABLE_BOND>
0

> <PUBCHEM_CACTVS_SUBSKEYS>
AAADcYBCMAAAAAAAAAAAAAAAAAAAAAAAAAAAAAAAAAAAAAAAAAAAHAAEAAAAAADBAAQCAAAQQAABAAAAAwAAAAAAAAAgAAAQAAAAAAAAAAAAAAAAAAAAAAAAAAAAAAAAAAAAAAAAAAAAAAAAAAAAAAAAAA==

> <PUBCHEM_IUPAC_OPENEYE_NAME>
1-nitroethane

> <PUBCHEM_IUPAC_CAS_NAME>
1-nitroethane

> <PUBCHEM_IUPAC_NAME>
1-nitroethane

> <PUBCHEM_IUPAC_SYSTEMATIC_NAME>
1-nitroethane

> <PUBCHEM_IUPAC_TRADITIONAL_NAME>
1-nitroethane

> <PUBCHEM_IUPAC_INCHI>
InChI=1S/C2H4NO2/c1-2-3(4)5/h2H,1H3/q-1

> <PUBCHEM_IUPAC_INCHIKEY>
YERBBVNYIKLXDM-UHFFFAOYSA-N

> <PUBCHEM_XLOGP3>
0.2

> <PUBCHEM_EXACT_MASS>
74.024203

> <PUBCHEM_MOLECULAR_FORMULA>
C2H4NO2-

> <PUBCHEM_MOLECULAR_WEIGHT>
74.05866

> <PUBCHEM_OPENEYE_CAN_SMILES>
C[CH-][N+](=O)[O-]

> <PUBCHEM_OPENEYE_ISO_SMILES>
C[CH-][N+](=O)[O-]

> <PUBCHEM_CACTVS_TPSA>
45.8

> <PUBCHEM_MONOISOTOPIC_WEIGHT>
74.024203

> <PUBCHEM_TOTAL_CHARGE>
-1

> <PUBCHEM_HEAVY_ATOM_COUNT>
5

> <PUBCHEM_ATOM_DEF_STEREO_COUNT>
0

> <PUBCHEM_ATOM_UDEF_STEREO_COUNT>
0

> <PUBCHEM_BOND_DEF_STEREO_COUNT>
0

> <PUBCHEM_BOND_UDEF_STEREO_COUNT>
0

> <PUBCHEM_ISOTOPIC_ATOM_COUNT>
0

> <PUBCHEM_COMPONENT_COUNT>
1

> <PUBCHEM_CACTVS_TAUTO_COUNT>
3

> <PUBCHEM_COORDINATE_TYPE>
1
5
255

$$$$

