586117
  -OEChem-06241222453D

 43 44  0     1  0  0  0  0  0999 V2000
    0.3938    3.2809   -0.8528 O   0  0  0  0  0  0  0  0  0  0  0  0
   -3.1552    1.2492   -1.1231 O   0  0  0  0  0  0  0  0  0  0  0  0
    5.1329   -1.2249   -0.3823 O   0  0  0  0  0  0  0  0  0  0  0  0
    0.2073    1.2780    0.4256 N   0  0  0  0  0  0  0  0  0  0  0  0
   -3.3529   -0.4624    0.4437 N   0  0  0  0  0  0  0  0  0  0  0  0
   -2.0653    1.4929    0.9897 C   0  0  1  0  0  0  0  0  0  0  0  0
   -0.7943    0.7347    1.3246 C   0  0  0  0  0  0  0  0  0  0  0  0
   -1.5758    2.8210    0.4382 C   0  0  0  0  0  0  0  0  0  0  0  0
   -0.2019    2.5101   -0.1136 C   0  0  0  0  0  0  0  0  0  0  0  0
   -2.9032    0.7654   -0.0226 C   0  0  0  0  0  0  0  0  0  0  0  0
    1.4665    0.6377    0.2187 C   0  0  0  0  0  0  0  0  0  0  0  0
   -4.1912   -1.3424   -0.3245 C   0  0  0  0  0  0  0  0  0  0  0  0
   -3.5364   -2.7067   -0.5679 C   0  0  0  0  0  0  0  0  0  0  0  0
    2.4360    1.2387   -0.5887 C   0  0  0  0  0  0  0  0  0  0  0  0
    1.7366   -0.5935    0.8223 C   0  0  0  0  0  0  0  0  0  0  0  0
   -3.2650   -3.4033    0.7660 C   0  0  0  0  0  0  0  0  0  0  0  0
   -2.2349   -2.5746   -1.3620 C   0  0  0  0  0  0  0  0  0  0  0  0
    3.6664    0.6132   -0.7908 C   0  0  0  0  0  0  0  0  0  0  0  0
    2.9670   -1.2188    0.6203 C   0  0  0  0  0  0  0  0  0  0  0  0
    3.9318   -0.6155   -0.1863 C   0  0  0  0  0  0  0  0  0  0  0  0
    5.3379   -2.4796    0.2656 C   0  0  0  0  0  0  0  0  0  0  0  0
   -2.6901    1.6410    1.8785 H   0  0  0  0  0  0  0  0  0  0  0  0
   -0.4737    0.9451    2.3514 H   0  0  0  0  0  0  0  0  0  0  0  0
   -0.9045   -0.3432    1.1856 H   0  0  0  0  0  0  0  0  0  0  0  0
   -1.4443    3.5461    1.2498 H   0  0  0  0  0  0  0  0  0  0  0  0
   -2.2082    3.2701   -0.3315 H   0  0  0  0  0  0  0  0  0  0  0  0
   -3.1543   -0.7218    1.4054 H   0  0  0  0  0  0  0  0  0  0  0  0
   -4.4475   -0.8750   -1.2816 H   0  0  0  0  0  0  0  0  0  0  0  0
   -5.1239   -1.4655    0.2374 H   0  0  0  0  0  0  0  0  0  0  0  0
   -4.2359   -3.3228   -1.1459 H   0  0  0  0  0  0  0  0  0  0  0  0
    2.2994    2.1883   -1.0875 H   0  0  0  0  0  0  0  0  0  0  0  0
    1.0256   -1.0980    1.4683 H   0  0  0  0  0  0  0  0  0  0  0  0
   -2.9089   -4.4252    0.5939 H   0  0  0  0  0  0  0  0  0  0  0  0
   -4.1778   -3.4694    1.3675 H   0  0  0  0  0  0  0  0  0  0  0  0
   -2.5006   -2.8876    1.3565 H   0  0  0  0  0  0  0  0  0  0  0  0
   -1.4697   -2.0202   -0.8086 H   0  0  0  0  0  0  0  0  0  0  0  0
   -2.4111   -2.0567   -2.3105 H   0  0  0  0  0  0  0  0  0  0  0  0
   -1.8255   -3.5639   -1.5931 H   0  0  0  0  0  0  0  0  0  0  0  0
    4.4151    1.0873   -1.4198 H   0  0  0  0  0  0  0  0  0  0  0  0
    3.1088   -2.1701    1.1217 H   0  0  0  0  0  0  0  0  0  0  0  0
    4.6368   -3.2390   -0.0968 H   0  0  0  0  0  0  0  0  0  0  0  0
    5.3131   -2.3781    1.3559 H   0  0  0  0  0  0  0  0  0  0  0  0
    6.3438   -2.8203   -0.0008 H   0  0  0  0  0  0  0  0  0  0  0  0
  1  9  2  0  0  0  0
  2 10  2  0  0  0  0
  3 20  1  0  0  0  0
  3 21  1  0  0  0  0
  4  7  1  0  0  0  0
  4  9  1  0  0  0  0
  4 11  1  0  0  0  0
  5 10  1  0  0  0  0
  5 12  1  0  0  0  0
  5 27  1  0  0  0  0
  6  7  1  0  0  0  0
  6  8  1  0  0  0  0
  6 10  1  0  0  0  0
  6 22  1  0  0  0  0
  7 23  1  0  0  0  0
  7 24  1  0  0  0  0
  8  9  1  0  0  0  0
  8 25  1  0  0  0  0
  8 26  1  0  0  0  0
 11 14  2  0  0  0  0
 11 15  1  0  0  0  0
 12 13  1  0  0  0  0
 12 28  1  0  0  0  0
 12 29  1  0  0  0  0
 13 16  1  0  0  0  0
 13 17  1  0  0  0  0
 13 30  1  0  0  0  0
 14 18  1  0  0  0  0
 14 31  1  0  0  0  0
 15 19  2  0  0  0  0
 15 32  1  0  0  0  0
 16 33  1  0  0  0  0
 16 34  1  0  0  0  0
 16 35  1  0  0  0  0
 17 36  1  0  0  0  0
 17 37  1  0  0  0  0
 17 38  1  0  0  0  0
 18 20  2  0  0  0  0
 18 39  1  0  0  0  0
 19 20  1  0  0  0  0
 19 40  1  0  0  0  0
 21 41  1  0  0  0  0
 21 42  1  0  0  0  0
 21 43  1  0  0  0  0
M  END
> <PUBCHEM_COMPOUND_CID>
586117

> <PUBCHEM_CONFORMER_RMSD>
0.8

> <PUBCHEM_CONFORMER_DIVERSEORDER>
2
29
41
7
42
48
32
12
56
21
51
31
28
53
40
17
55
24
3
5
57
47
16
34
39
13
43
23
15
22
46
10
26
54
6
9
19
25
49
52
33
8
20
1
37
27
14
18
44
11
30
4
35
36
50
38
45

> <PUBCHEM_MMFF94_PARTIAL_CHARGES>
23
1 -0.57
10 0.57
11 0.12
12 0.3
14 -0.15
15 -0.15
18 -0.15
19 -0.15
2 -0.57
20 0.08
21 0.28
27 0.37
3 -0.36
31 0.15
32 0.15
39 0.15
4 -0.48
40 0.15
5 -0.73
6 0.06
7 0.3
8 0.06
9 0.57

> <PUBCHEM_EFFECTIVE_ROTOR_COUNT>
6.8

> <PUBCHEM_PHARMACOPHORE_FEATURES>
7
1 1 acceptor
1 2 acceptor
1 3 acceptor
1 5 donor
3 13 16 17 hydrophobe
5 4 6 7 8 9 rings
6 11 14 15 18 19 20 rings

> <PUBCHEM_HEAVY_ATOM_COUNT>
21

> <PUBCHEM_ATOM_DEF_STEREO_COUNT>
0

> <PUBCHEM_ATOM_UDEF_STEREO_COUNT>
1

> <PUBCHEM_BOND_DEF_STEREO_COUNT>
0

> <PUBCHEM_BOND_UDEF_STEREO_COUNT>
0

> <PUBCHEM_ISOTOPIC_ATOM_COUNT>
0

> <PUBCHEM_COMPONENT_COUNT>
1

> <PUBCHEM_CACTVS_TAUTO_COUNT>
4

> <PUBCHEM_CONFORMER_ID>
0008F18500000002

> <PUBCHEM_MMFF94_ENERGY>
58.9655

> <PUBCHEM_FEATURE_SELFOVERLAP>
35.52

> <PUBCHEM_SHAPE_FINGERPRINT>
10616163 171 18335980960329263670
12553582 1 18411989031369094779
12596602 18 5761644872021399767
12633257 1 15502378876647578054
12969540 37 18048886190646881164
14576447 43 18339074870422870372
14866123 147 18335415786579588107
15352361 1 18337110068708402271
17349148 13 17704080603282071976
18915474 69 18412542076816538894
19141452 34 18264762349503133176
200 152 18059851826701748584
20291156 8 18336547097385282279
20775438 99 17036444790339654159
20775530 9 17899134906352551039
21634736 98 18266739082378039436
221490 88 18125436410818217187
23379529 103 18334847334203666766
23402539 116 17916861452122072952
23559900 14 18335431174835642456
46194498 28 17415008946126806143
463206 1 18343297050597148267
7970288 3 18336829671806101303
88748 71 18196086651885823747

> <PUBCHEM_SHAPE_MULTIPOLES>
404.6
9.42
3.99
1.09
7.27
0.57
0.02
8.92
0.99
-2.59
0.29
-0.37
0.07
-0.82

> <PUBCHEM_SHAPE_SELFOVERLAP>
840.503

> <PUBCHEM_SHAPE_VOLUME>
231.8

> <PUBCHEM_COORDINATE_TYPE>
2
5
10

$$$$

