6011
  -OEChem-06261201033D

 54 57  0     1  0  0  0  0  0999 V2000
    5.3351   -1.3307    0.2026 O   0  0  0  0  0  0  0  0  0  0  0  0
   -5.4076    0.4855    0.7915 O   0  0  0  0  0  0  0  0  0  0  0  0
    0.0071   -0.3393    0.2026 C   0  0  1  0  0  0  0  0  0  0  0  0
    0.9145    0.8658   -0.2095 C   0  0  2  0  0  0  0  0  0  0  0  0
    2.2979    0.6742    0.4210 C   0  0  1  0  0  0  0  0  0  0  0  0
   -1.4563   -0.1959   -0.3641 C   0  0  2  0  0  0  0  0  0  0  0  0
    2.9832   -0.6292   -0.0338 C   0  0  2  0  0  0  0  0  0  0  0  0
   -2.0175    1.1771    0.1281 C   0  0  1  0  0  0  0  0  0  0  0  0
    0.6814   -1.7051   -0.0981 C   0  0  0  0  0  0  0  0  0  0  0  0
    2.1223   -1.8088    0.4351 C   0  0  0  0  0  0  0  0  0  0  0  0
    0.2876    2.2017    0.2115 C   0  0  0  0  0  0  0  0  0  0  0  0
    3.3710    1.7370    0.1987 C   0  0  0  0  0  0  0  0  0  0  0  0
    4.3260   -0.4769    0.7063 C   0  0  2  0  0  0  0  0  0  0  0  0
   -1.1408    2.3586   -0.3019 C   0  0  0  0  0  0  0  0  0  0  0  0
   -2.3756   -1.3075    0.2235 C   0  0  0  0  0  0  0  0  0  0  0  0
    4.6890    1.0092    0.5198 C   0  0  0  0  0  0  0  0  0  0  0  0
   -3.4769    1.4069   -0.2698 C   0  0  0  0  0  0  0  0  0  0  0  0
   -1.4620   -0.3093   -1.9089 C   0  0  0  0  0  0  0  0  0  0  0  0
    3.2196   -0.7371   -1.5620 C   0  0  0  0  0  0  0  0  0  0  0  0
   -3.8649   -1.1413   -0.1198 C   0  0  2  0  0  0  0  0  0  0  0  0
   -4.3370    0.2655    0.2253 C   0  0  0  0  0  0  0  0  0  0  0  0
   -4.6960   -2.2005    0.6022 C   0  0  0  0  0  0  0  0  0  0  0  0
   -0.0813   -0.2967    1.3001 H   0  0  0  0  0  0  0  0  0  0  0  0
    1.0241    0.8891   -1.2986 H   0  0  0  0  0  0  0  0  0  0  0  0
    2.1437    0.6232    1.5122 H   0  0  0  0  0  0  0  0  0  0  0  0
   -1.9994    1.1559    1.2295 H   0  0  0  0  0  0  0  0  0  0  0  0
    0.6854   -1.9004   -1.1747 H   0  0  0  0  0  0  0  0  0  0  0  0
    0.1025   -2.5150    0.3593 H   0  0  0  0  0  0  0  0  0  0  0  0
    2.0862   -1.8352    1.5320 H   0  0  0  0  0  0  0  0  0  0  0  0
    2.5637   -2.7614    0.1186 H   0  0  0  0  0  0  0  0  0  0  0  0
    0.8911    3.0363   -0.1639 H   0  0  0  0  0  0  0  0  0  0  0  0
    0.2856    2.2824    1.3062 H   0  0  0  0  0  0  0  0  0  0  0  0
    3.2282    2.6064    0.8484 H   0  0  0  0  0  0  0  0  0  0  0  0
    3.3745    2.0938   -0.8372 H   0  0  0  0  0  0  0  0  0  0  0  0
    4.2109   -0.6854    1.7775 H   0  0  0  0  0  0  0  0  0  0  0  0
   -1.5553    3.2932    0.0957 H   0  0  0  0  0  0  0  0  0  0  0  0
   -1.1364    2.4618   -1.3932 H   0  0  0  0  0  0  0  0  0  0  0  0
   -2.2613   -1.3190    1.3164 H   0  0  0  0  0  0  0  0  0  0  0  0
   -2.0511   -2.2925   -0.1333 H   0  0  0  0  0  0  0  0  0  0  0  0
    5.4214    1.1570   -0.2816 H   0  0  0  0  0  0  0  0  0  0  0  0
    5.1383    1.4041    1.4380 H   0  0  0  0  0  0  0  0  0  0  0  0
   -3.6072    1.5039   -1.3517 H   0  0  0  0  0  0  0  0  0  0  0  0
   -3.8436    2.3333    0.1883 H   0  0  0  0  0  0  0  0  0  0  0  0
   -0.7785    0.3977   -2.3854 H   0  0  0  0  0  0  0  0  0  0  0  0
   -1.1716   -1.3139   -2.2337 H   0  0  0  0  0  0  0  0  0  0  0  0
   -2.4500   -0.1215   -2.3382 H   0  0  0  0  0  0  0  0  0  0  0  0
    3.8725    0.0554   -1.9410 H   0  0  0  0  0  0  0  0  0  0  0  0
    3.6954   -1.6925   -1.8124 H   0  0  0  0  0  0  0  0  0  0  0  0
    2.2922   -0.6857   -2.1384 H   0  0  0  0  0  0  0  0  0  0  0  0
   -4.0189   -1.2732   -1.1969 H   0  0  0  0  0  0  0  0  0  0  0  0
    5.0262   -2.2458    0.3145 H   0  0  0  0  0  0  0  0  0  0  0  0
   -5.7532   -2.1224    0.3260 H   0  0  0  0  0  0  0  0  0  0  0  0
   -4.3558   -3.2081    0.3420 H   0  0  0  0  0  0  0  0  0  0  0  0
   -4.6296   -2.0863    1.6899 H   0  0  0  0  0  0  0  0  0  0  0  0
  1 13  1  0  0  0  0
  1 51  1  0  0  0  0
  2 21  2  0  0  0  0
  3  4  1  0  0  0  0
  3  6  1  0  0  0  0
  3  9  1  0  0  0  0
  3 23  1  0  0  0  0
  4  5  1  0  0  0  0
  4 11  1  0  0  0  0
  4 24  1  0  0  0  0
  5  7  1  0  0  0  0
  5 12  1  0  0  0  0
  5 25  1  0  0  0  0
  6  8  1  0  0  0  0
  6 15  1  0  0  0  0
  6 18  1  0  0  0  0
  7 10  1  0  0  0  0
  7 13  1  0  0  0  0
  7 19  1  0  0  0  0
  8 14  1  0  0  0  0
  8 17  1  0  0  0  0
  8 26  1  0  0  0  0
  9 10  1  0  0  0  0
  9 27  1  0  0  0  0
  9 28  1  0  0  0  0
 10 29  1  0  0  0  0
 10 30  1  0  0  0  0
 11 14  1  0  0  0  0
 11 31  1  0  0  0  0
 11 32  1  0  0  0  0
 12 16  1  0  0  0  0
 12 33  1  0  0  0  0
 12 34  1  0  0  0  0
 13 16  1  0  0  0  0
 13 35  1  0  0  0  0
 14 36  1  0  0  0  0
 14 37  1  0  0  0  0
 15 20  1  0  0  0  0
 15 38  1  0  0  0  0
 15 39  1  0  0  0  0
 16 40  1  0  0  0  0
 16 41  1  0  0  0  0
 17 21  1  0  0  0  0
 17 42  1  0  0  0  0
 17 43  1  0  0  0  0
 18 44  1  0  0  0  0
 18 45  1  0  0  0  0
 18 46  1  0  0  0  0
 19 47  1  0  0  0  0
 19 48  1  0  0  0  0
 19 49  1  0  0  0  0
 20 21  1  0  0  0  0
 20 22  1  0  0  0  0
 20 50  1  0  0  0  0
 22 52  1  0  0  0  0
 22 53  1  0  0  0  0
 22 54  1  0  0  0  0
M  END
> <PUBCHEM_COMPOUND_CID>
6011

> <PUBCHEM_CONFORMER_RMSD>
0.6

> <PUBCHEM_CONFORMER_DIVERSEORDER>
1

> <PUBCHEM_MMFF94_PARTIAL_CHARGES>
7
1 -0.68
13 0.28
17 0.06
2 -0.57
20 0.06
21 0.45
51 0.4

> <PUBCHEM_EFFECTIVE_ROTOR_COUNT>
2

> <PUBCHEM_PHARMACOPHORE_FEATURES>
7
1 1 acceptor
1 1 donor
1 2 acceptor
5 5 7 12 13 16 rings
6 3 4 5 7 9 10 rings
6 3 4 6 8 11 14 rings
6 6 8 15 17 20 21 rings

> <PUBCHEM_HEAVY_ATOM_COUNT>
22

> <PUBCHEM_ATOM_DEF_STEREO_COUNT>
8

> <PUBCHEM_ATOM_UDEF_STEREO_COUNT>
0

> <PUBCHEM_BOND_DEF_STEREO_COUNT>
0

> <PUBCHEM_BOND_UDEF_STEREO_COUNT>
0

> <PUBCHEM_ISOTOPIC_ATOM_COUNT>
0

> <PUBCHEM_COMPONENT_COUNT>
1

> <PUBCHEM_CACTVS_TAUTO_COUNT>
3

> <PUBCHEM_CONFORMER_ID>
0000177B00000001

> <PUBCHEM_MMFF94_ENERGY>
76.0091

> <PUBCHEM_FEATURE_SELFOVERLAP>
35.612

> <PUBCHEM_SHAPE_FINGERPRINT>
10366900 7 13614236014516024884
10616163 171 18410294743721466115
10967382 1 18410857659183117864
11132069 177 18411417319492335741
11578080 2 16770996689861139967
12011746 2 18411707612480017045
12107183 9 17762056940369859539
12166972 35 17632573860311492292
12236239 1 17821731628503077963
12403259 226 18341057406110635480
12403259 415 18273224105602594484
12403814 3 18041287616438062093
12596599 1 18041823065426041907
12633257 1 18411975875921040939
128620 24 18131633382811488054
13140716 1 18409449142023172721
13214271 11 18408328787145611767
13224815 77 18410859858190510172
13544653 18 18201715111979467795
13675066 3 18114185215599853136
14178342 30 18122072163399783128
14223421 5 18338799047232653198
14341114 176 18412259549372341832
14787075 74 18341612547174930041
14790565 3 18051123692610182604
15196674 1 18411139112679743360
15209289 33 18201440238235739411
15536298 74 18334012787296849344
15788980 27 16271932609957691239
16945 1 18193274323999860436
17349148 13 17418373601483094258
17492 89 18340773757617190514
17804303 29 18410570661390251893
1813 80 17274819143115697669
18186145 218 18202292411376238636
19050596 39 18413109467655491395
19141452 34 17967535657780906183
19591789 44 18410577240800231419
200 152 18260271828309128499
20028762 73 18044936771204621839
20261772 1 18113903719190731518
21033648 29 17023478537401013555
21267235 1 18411411830218286867
21421861 104 18058174014553962794
221490 88 18410291445608550002
22182313 1 17896314890691191604
23184049 59 18113616781142058437
23402539 116 18409738352046014319
23557571 272 18261953063171485492
23559900 14 18265055919445144854
2871803 45 18342464746117115466
3286 77 18201159858169513214
335352 9 18410856594474528837
34934 24 18410581716625411841
350125 39 18410293610483336680
4214541 1 18411702114399768441
5104073 3 18409169900233985529
542803 24 5184347425576002306
7097593 13 17481721061895694699
9709674 26 18264207074656003430

> <PUBCHEM_SHAPE_MULTIPOLES>
441.01
10.27
2.28
1.01
0.74
0.34
0.45
-2.25
-2.19
0.47
-0.19
-0.07
-0.16
0.42

> <PUBCHEM_SHAPE_SELFOVERLAP>
936.392

> <PUBCHEM_SHAPE_VOLUME>
244.2

> <PUBCHEM_COORDINATE_TYPE>
2
5
10

$$$$

