443033
  -OEChem-07051213003D

 46 47  0     0  0  0  0  0  0999 V2000
   -5.6059    0.7750   -0.4197 F   0  0  0  0  0  0  0  0  0  0  0  0
   -4.5238    2.3758    0.5655 F   0  0  0  0  0  0  0  0  0  0  0  0
   -4.2358    2.0201   -1.5604 F   0  0  0  0  0  0  0  0  0  0  0  0
    0.1793   -2.4435    1.9609 O   0  0  0  0  0  0  0  0  0  0  0  0
    3.3066    1.2002   -1.7998 O   0  0  0  0  0  0  0  0  0  0  0  0
    4.2987    2.0855    0.6406 O   0  0  0  0  0  0  0  0  0  0  0  0
    0.5484   -2.8999   -0.3019 N   0  0  0  0  0  0  0  0  0  0  0  0
   -0.9044    0.0479    0.2951 C   0  0  0  0  0  0  0  0  0  0  0  0
   -1.1659   -1.3114    0.4809 C   0  0  0  0  0  0  0  0  0  0  0  0
    0.4407    0.5735    0.3812 C   0  0  0  0  0  0  0  0  0  0  0  0
   -1.9558    0.9249    0.0200 C   0  0  0  0  0  0  0  0  0  0  0  0
   -0.0996   -2.2637    0.7700 C   0  0  0  0  0  0  0  0  0  0  0  0
   -3.2626    0.4449   -0.0687 C   0  0  0  0  0  0  0  0  0  0  0  0
   -2.4724   -1.7913    0.3922 C   0  0  0  0  0  0  0  0  0  0  0  0
   -3.5208   -0.9132    0.1172 C   0  0  0  0  0  0  0  0  0  0  0  0
    1.6363   -3.8540   -0.0976 C   0  0  0  0  0  0  0  0  0  0  0  0
    1.2392    0.6365   -0.7607 C   0  0  0  0  0  0  0  0  0  0  0  0
    0.9389    1.0177    1.6061 C   0  0  0  0  0  0  0  0  0  0  0  0
    2.5360    1.1439   -0.6778 C   0  0  0  0  0  0  0  0  0  0  0  0
   -4.3840    1.3831   -0.3624 C   0  0  0  0  0  0  0  0  0  0  0  0
    3.0340    1.5882    0.5470 C   0  0  0  0  0  0  0  0  0  0  0  0
    2.2355    1.5250    1.6890 C   0  0  0  0  0  0  0  0  0  0  0  0
    0.1796   -2.6515   -1.6885 C   0  0  0  0  0  0  0  0  0  0  0  0
    2.9842   -3.1630   -0.0800 C   0  0  0  0  0  0  0  0  0  0  0  0
    4.1138    0.0607   -2.0896 C   0  0  0  0  0  0  0  0  0  0  0  0
    4.4599    3.4886    0.4412 C   0  0  0  0  0  0  0  0  0  0  0  0
   -1.7641    1.9862   -0.1268 H   0  0  0  0  0  0  0  0  0  0  0  0
   -2.6870   -2.8475    0.5348 H   0  0  0  0  0  0  0  0  0  0  0  0
   -4.5317   -1.3061    0.0518 H   0  0  0  0  0  0  0  0  0  0  0  0
    1.4819   -4.3507    0.8668 H   0  0  0  0  0  0  0  0  0  0  0  0
    1.5973   -4.6232   -0.8762 H   0  0  0  0  0  0  0  0  0  0  0  0
    0.8583    0.3017   -1.7229 H   0  0  0  0  0  0  0  0  0  0  0  0
    0.3299    0.9747    2.5061 H   0  0  0  0  0  0  0  0  0  0  0  0
    2.6175    1.8682    2.6467 H   0  0  0  0  0  0  0  0  0  0  0  0
    1.0652   -2.3122   -2.2339 H   0  0  0  0  0  0  0  0  0  0  0  0
   -0.6076   -1.9095   -1.8181 H   0  0  0  0  0  0  0  0  0  0  0  0
   -0.1670   -3.5932   -2.1258 H   0  0  0  0  0  0  0  0  0  0  0  0
    3.1996   -2.6993   -1.0465 H   0  0  0  0  0  0  0  0  0  0  0  0
    3.0193   -2.3785    0.6831 H   0  0  0  0  0  0  0  0  0  0  0  0
    3.7793   -3.8842    0.1329 H   0  0  0  0  0  0  0  0  0  0  0  0
    3.4846   -0.7567   -2.4535 H   0  0  0  0  0  0  0  0  0  0  0  0
    4.6791   -0.2599   -1.2086 H   0  0  0  0  0  0  0  0  0  0  0  0
    4.8205    0.3337   -2.8780 H   0  0  0  0  0  0  0  0  0  0  0  0
    3.9019    4.0498    1.1973 H   0  0  0  0  0  0  0  0  0  0  0  0
    4.1282    3.7760   -0.5615 H   0  0  0  0  0  0  0  0  0  0  0  0
    5.5220    3.7288    0.5403 H   0  0  0  0  0  0  0  0  0  0  0  0
  1 20  1  0  0  0  0
  2 20  1  0  0  0  0
  3 20  1  0  0  0  0
  4 12  2  0  0  0  0
  5 19  1  0  0  0  0
  5 25  1  0  0  0  0
  6 21  1  0  0  0  0
  6 26  1  0  0  0  0
  7 12  1  0  0  0  0
  7 16  1  0  0  0  0
  7 23  1  0  0  0  0
  8  9  2  0  0  0  0
  8 10  1  0  0  0  0
  8 11  1  0  0  0  0
  9 12  1  0  0  0  0
  9 14  1  0  0  0  0
 10 17  2  0  0  0  0
 10 18  1  0  0  0  0
 11 13  2  0  0  0  0
 11 27  1  0  0  0  0
 13 15  1  0  0  0  0
 13 20  1  0  0  0  0
 14 15  2  0  0  0  0
 14 28  1  0  0  0  0
 15 29  1  0  0  0  0
 16 24  1  0  0  0  0
 16 30  1  0  0  0  0
 16 31  1  0  0  0  0
 17 19  1  0  0  0  0
 17 32  1  0  0  0  0
 18 22  2  0  0  0  0
 18 33  1  0  0  0  0
 19 21  2  0  0  0  0
 21 22  1  0  0  0  0
 22 34  1  0  0  0  0
 23 35  1  0  0  0  0
 23 36  1  0  0  0  0
 23 37  1  0  0  0  0
 24 38  1  0  0  0  0
 24 39  1  0  0  0  0
 24 40  1  0  0  0  0
 25 41  1  0  0  0  0
 25 42  1  0  0  0  0
 25 43  1  0  0  0  0
 26 44  1  0  0  0  0
 26 45  1  0  0  0  0
 26 46  1  0  0  0  0
M  END
> <PUBCHEM_COMPOUND_CID>
443033

> <PUBCHEM_CONFORMER_RMSD>
0.8

> <PUBCHEM_CONFORMER_DIVERSEORDER>
1
19
22
32
17
21
27
18
26
29
15
25
16
30
20
24
31
23
28
11
10
12
2
6
8
7
3
4
9
5
13
14

> <PUBCHEM_MMFF94_PARTIAL_CHARGES>
29
1 -0.34
11 -0.15
12 0.54
13 -0.14
14 -0.15
15 -0.15
16 0.3
17 -0.15
18 -0.15
19 0.08
2 -0.34
20 1.16
21 0.08
22 -0.15
23 0.3
25 0.28
26 0.28
27 0.15
28 0.15
29 0.15
3 -0.34
32 0.15
33 0.15
34 0.15
4 -0.57
5 -0.36
6 -0.36
7 -0.66
9 0.09

> <PUBCHEM_EFFECTIVE_ROTOR_COUNT>
7

> <PUBCHEM_PHARMACOPHORE_FEATURES>
5
1 4 acceptor
1 5 acceptor
1 6 acceptor
6 10 17 18 19 21 22 rings
6 8 9 11 13 14 15 rings

> <PUBCHEM_HEAVY_ATOM_COUNT>
26

> <PUBCHEM_ATOM_DEF_STEREO_COUNT>
0

> <PUBCHEM_ATOM_UDEF_STEREO_COUNT>
0

> <PUBCHEM_BOND_DEF_STEREO_COUNT>
0

> <PUBCHEM_BOND_UDEF_STEREO_COUNT>
0

> <PUBCHEM_ISOTOPIC_ATOM_COUNT>
0

> <PUBCHEM_COMPONENT_COUNT>
1

> <PUBCHEM_CACTVS_TAUTO_COUNT>
1

> <PUBCHEM_CONFORMER_ID>
0006C29900000001

> <PUBCHEM_MMFF94_ENERGY>
92.2617

> <PUBCHEM_FEATURE_SELFOVERLAP>
25.376

> <PUBCHEM_SHAPE_FINGERPRINT>
10675989 125 18335137631011652440
107951 10 17774705477655584778
1100329 8 17399229141222796185
11370993 70 18338515223415214276
11578080 2 17555410181307790465
11582403 64 16230034546812758026
12173636 292 18124314908810283708
12236239 1 17273992249904821377
12403259 415 18263629702160158517
12422481 6 17986137255966467808
12633257 1 14548748274091775824
12730499 353 18335413570091165305
12788726 201 17338424589217823426
13140716 1 18343024423342673347
133893 2 18124862706266654537
13464514 151 18264196066955205119
14955137 171 17326023644497678475
15163728 17 17701789194594213607
16752209 62 18198065768161709059
167882 2 18409733984412518378
17492 54 18055895827047097670
18186145 218 18187915153954791217
20554085 129 18042992932939520241
20600515 1 16833211580508883154
20691752 17 17274821402384948707
21033648 29 18117004273299039584
21756936 100 16414334673298032756
22149856 69 18200294625542137121
22393880 68 18260261936783545343
23366157 5 18059019509216086507
23419403 2 17763775447174643046
23526113 38 17750786658580601898
23557571 272 18122337987400070480
23559900 14 18334289856333667412
238 59 18187075174379088230
3298306 158 18408319969604451526
350125 39 17907293605080269409
469060 322 18126548056546386545
495365 180 18187655703807439424
5265222 85 18123460576535467724
5895379 119 16664578297041433961
633830 44 18186236238554661261
6443956 14 18049446134523933658
7364860 26 18262808496081743723
81228 2 17180248803438643131
9925002 15 17179948048643176640
9981440 41 18339928086766020427

> <PUBCHEM_SHAPE_MULTIPOLES>
490.66
8.66
4.24
1.55
4.73
3.15
-0.24
-8.48
-2.26
-2.7
0.27
-1.1
0.02
1.19

> <PUBCHEM_SHAPE_SELFOVERLAP>
1045.231

> <PUBCHEM_SHAPE_VOLUME>
277.7

> <PUBCHEM_COORDINATE_TYPE>
2
5
10

$$$$

