2286
  -OEChem-07051213053D

 49 52  0     1  0  0  0  0  0999 V2000
   -5.8028   -3.2233    1.1223 O   0  0  0  0  0  0  0  0  0  0  0  0
    5.7772   -3.2456   -1.1192 O   0  0  0  0  0  0  0  0  0  0  0  0
   -4.6287   -0.5741   -0.8047 O   0  0  0  0  0  0  0  0  0  0  0  0
    4.6123   -0.5890    0.8032 O   0  0  0  0  0  0  0  0  0  0  0  0
   -0.0027    2.5547   -0.0035 C   0  0  0  0  0  0  0  0  0  0  0  0
   -6.0628   -2.2360    0.1215 C   0  0  2  0  0  0  0  0  0  0  0  0
    6.0406   -2.2575   -0.1201 C   0  0  2  0  0  0  0  0  0  0  0  0
   -1.2252    1.7273   -0.2151 C   0  0  0  0  0  0  0  0  0  0  0  0
    1.2773    1.6822    0.2201 C   0  0  0  0  0  0  0  0  0  0  0  0
   -5.2768   -3.4712   -0.1879 C   0  0  0  0  0  0  0  0  0  0  0  0
    5.2502   -3.4893    0.1914 C   0  0  0  0  0  0  0  0  0  0  0  0
    0.1597    3.5259   -1.2253 C   0  0  0  0  0  0  0  0  0  0  0  0
   -0.0430    3.5247    1.2372 C   0  0  0  0  0  0  0  0  0  0  0  0
   -5.3794   -0.9326    0.3546 C   0  0  0  0  0  0  0  0  0  0  0  0
    5.3618   -0.9521   -0.3554 C   0  0  0  0  0  0  0  0  0  0  0  0
   -1.2880    0.8367   -1.2866 C   0  0  0  0  0  0  0  0  0  0  0  0
    1.2766    0.8345    1.2826 C   0  0  0  0  0  0  0  0  0  0  0  0
   -2.3063    1.8451    0.6585 C   0  0  0  0  0  0  0  0  0  0  0  0
    2.2984    1.8359   -0.6642 C   0  0  0  0  0  0  0  0  0  0  0  0
   -3.5133    0.1813   -0.6111 C   0  0  0  0  0  0  0  0  0  0  0  0
    3.4995    0.1700    0.6084 C   0  0  0  0  0  0  0  0  0  0  0  0
   -2.4321    0.0637   -1.4846 C   0  0  0  0  0  0  0  0  0  0  0  0
    2.4180    0.0577    1.4820 C   0  0  0  0  0  0  0  0  0  0  0  0
   -3.4503    1.0719    0.4604 C   0  0  0  0  0  0  0  0  0  0  0  0
    3.4397    1.0590   -0.4647 C   0  0  0  0  0  0  0  0  0  0  0  0
   -7.0628   -2.1456   -0.2786 H   0  0  0  0  0  0  0  0  0  0  0  0
    7.0409   -2.1699    0.2799 H   0  0  0  0  0  0  0  0  0  0  0  0
   -4.2051   -3.3945   -0.3179 H   0  0  0  0  0  0  0  0  0  0  0  0
   -5.7516   -4.2445   -0.7777 H   0  0  0  0  0  0  0  0  0  0  0  0
    4.1788   -3.4086    0.3212 H   0  0  0  0  0  0  0  0  0  0  0  0
    5.7222   -4.2633    0.7826 H   0  0  0  0  0  0  0  0  0  0  0  0
    0.2895    2.9982   -2.1775 H   0  0  0  0  0  0  0  0  0  0  0  0
    0.9970    4.2227   -1.0963 H   0  0  0  0  0  0  0  0  0  0  0  0
   -0.7427    4.1417   -1.3389 H   0  0  0  0  0  0  0  0  0  0  0  0
    0.8974    4.0830    1.3311 H   0  0  0  0  0  0  0  0  0  0  0  0
   -0.1948    2.9957    2.1851 H   0  0  0  0  0  0  0  0  0  0  0  0
   -0.8472    4.2642    1.1377 H   0  0  0  0  0  0  0  0  0  0  0  0
   -6.1296   -0.1580    0.5501 H   0  0  0  0  0  0  0  0  0  0  0  0
   -4.7333   -1.0304    1.2371 H   0  0  0  0  0  0  0  0  0  0  0  0
    6.1148   -0.1804   -0.5521 H   0  0  0  0  0  0  0  0  0  0  0  0
    4.7154   -1.0491   -1.2378 H   0  0  0  0  0  0  0  0  0  0  0  0
   -0.4576    0.7244   -1.9783 H   0  0  0  0  0  0  0  0  0  0  0  0
    0.4406    0.7331    1.9654 H   0  0  0  0  0  0  0  0  0  0  0  0
   -2.3120    2.5268    1.5017 H   0  0  0  0  0  0  0  0  0  0  0  0
    2.3124    2.5077   -1.5107 H   0  0  0  0  0  0  0  0  0  0  0  0
   -2.4751   -0.6296   -2.3202 H   0  0  0  0  0  0  0  0  0  0  0  0
    2.4582   -0.6346    2.3186 H   0  0  0  0  0  0  0  0  0  0  0  0
   -4.2805    1.2151    1.1458 H   0  0  0  0  0  0  0  0  0  0  0  0
    4.2702    1.1972   -1.1508 H   0  0  0  0  0  0  0  0  0  0  0  0
  1  6  1  0  0  0  0
  1 10  1  0  0  0  0
  2  7  1  0  0  0  0
  2 11  1  0  0  0  0
  3 14  1  0  0  0  0
  3 20  1  0  0  0  0
  4 15  1  0  0  0  0
  4 21  1  0  0  0  0
  5  8  1  0  0  0  0
  5  9  1  0  0  0  0
  5 12  1  0  0  0  0
  5 13  1  0  0  0  0
  6 10  1  0  0  0  0
  6 14  1  0  0  0  0
  6 26  1  0  0  0  0
  7 11  1  0  0  0  0
  7 15  1  0  0  0  0
  7 27  1  0  0  0  0
  8 16  2  0  0  0  0
  8 18  1  0  0  0  0
  9 17  2  0  0  0  0
  9 19  1  0  0  0  0
 10 28  1  0  0  0  0
 10 29  1  0  0  0  0
 11 30  1  0  0  0  0
 11 31  1  0  0  0  0
 12 32  1  0  0  0  0
 12 33  1  0  0  0  0
 12 34  1  0  0  0  0
 13 35  1  0  0  0  0
 13 36  1  0  0  0  0
 13 37  1  0  0  0  0
 14 38  1  0  0  0  0
 14 39  1  0  0  0  0
 15 40  1  0  0  0  0
 15 41  1  0  0  0  0
 16 22  1  0  0  0  0
 16 42  1  0  0  0  0
 17 23  1  0  0  0  0
 17 43  1  0  0  0  0
 18 24  2  0  0  0  0
 18 44  1  0  0  0  0
 19 25  2  0  0  0  0
 19 45  1  0  0  0  0
 20 22  2  0  0  0  0
 20 24  1  0  0  0  0
 21 23  2  0  0  0  0
 21 25  1  0  0  0  0
 22 46  1  0  0  0  0
 23 47  1  0  0  0  0
 24 48  1  0  0  0  0
 25 49  1  0  0  0  0
M  END
> <PUBCHEM_COMPOUND_CID>
2286

> <PUBCHEM_CONFORMER_RMSD>
1

> <PUBCHEM_CONFORMER_DIVERSEORDER>
1
21
17
18
20
4
28
27
7
2
24
11
6
32
12
19
10
13
29
22
3
5
16
26
9
31
14
30
8
25
23
15

> <PUBCHEM_MMFF94_PARTIAL_CHARGES>
37
1 -0.3
10 -0.05
11 -0.05
14 0.38
15 0.38
16 -0.15
17 -0.15
18 -0.15
19 -0.15
2 -0.3
20 0.08
21 0.08
22 -0.15
23 -0.15
24 -0.15
25 -0.15
26 0.1
27 0.1
28 0.1
29 0.1
3 -0.36
30 0.1
31 0.1
4 -0.36
42 0.15
43 0.15
44 0.15
45 0.15
46 0.15
47 0.15
48 0.15
49 0.15
5 0.29
6 -0.05
7 -0.05
8 -0.14
9 -0.14

> <PUBCHEM_EFFECTIVE_ROTOR_COUNT>
9.2

> <PUBCHEM_PHARMACOPHORE_FEATURES>
7
1 1 acceptor
1 2 acceptor
1 3 acceptor
1 4 acceptor
3 5 12 13 hydrophobe
6 8 16 18 20 22 24 rings
6 9 17 19 21 23 25 rings

> <PUBCHEM_HEAVY_ATOM_COUNT>
25

> <PUBCHEM_ATOM_DEF_STEREO_COUNT>
0

> <PUBCHEM_ATOM_UDEF_STEREO_COUNT>
2

> <PUBCHEM_BOND_DEF_STEREO_COUNT>
0

> <PUBCHEM_BOND_UDEF_STEREO_COUNT>
0

> <PUBCHEM_ISOTOPIC_ATOM_COUNT>
0

> <PUBCHEM_COMPONENT_COUNT>
1

> <PUBCHEM_CACTVS_TAUTO_COUNT>
1

> <PUBCHEM_CONFORMER_ID>
000008EE00000001

> <PUBCHEM_MMFF94_ENERGY>
99.2891

> <PUBCHEM_FEATURE_SELFOVERLAP>
35.52

> <PUBCHEM_SHAPE_FINGERPRINT>
10042902 136 18339640139605773462
11197282 1 18410572898567852222
11497681 19 18410849993768898676
11578080 2 7530578773928808968
117089 54 18410283714172499999
11756154 5 18409738378375565402
11796584 16 18130243626131936709
11809386 21 18051984902841342730
12107183 9 18335690668691809377
12403259 118 6194546853567764753
12422481 6 17240483640932027902
12623949 98 18187641406293886526
12633257 1 15647344000044014857
13009979 54 18333725827568397849
13383661 66 18058151848560688075
13533116 47 18051412869332517433
1361 4 18266176313737378550
1361 87 17702661039366469515
13690498 29 17917993910391294405
13911852 28 18336550434791285767
13955234 65 17900265203910532384
13965767 371 6266906748958241888
14251740 57 18411422765431739528
14251764 30 18410854364911813135
14251764 75 10303825310397223615
14420673 8 18409728500066270423
14951699 99 6988021489090998074
14955137 171 18334296435896263933
15061688 2 9367345950577301704
15209294 21 8285610102429998896
15475509 35 18119528735211357585
17492 89 18410012121830485277
20058555 10 9007061262091069707
20398071 356 18411976945294570595
20775438 99 17764321543582047115
20775530 9 18338531792882727095
21033648 29 15285625630310628985
21304253 335 7637409552901920595
21307412 95 18341060721883001821
21344244 246 18129935677720950508
21682296 61 18409168780034049711
22950370 63 18410571790434186596
23379529 103 18412262830980907722
23559900 14 18199478658537891069
2838139 119 9439410116046470465
3459 39 9222943704452060814
3472631 163 10519985971675006313
4394409 98 15822983694649906462
465052 167 18264766563419431837
474113 269 18041851619539913775
484985 159 18194122047744665001
5104073 3 17894627045927543801
56633871 153 18187088321501218199
7918774 8 18410571790428885858
7970288 3 18410856563940564295
9981440 41 7493001899250057637
999808 66 18187364359033422990

> <PUBCHEM_SHAPE_MULTIPOLES>
491.01
14.93
4.75
1.27
0.44
2.18
0
23.34
0.01
-0.11
0
0
-0.34
1.02

> <PUBCHEM_SHAPE_SELFOVERLAP>
1047.446

> <PUBCHEM_SHAPE_VOLUME>
276.2

> <PUBCHEM_COORDINATE_TYPE>
2
5
10

$$$$

