17395678
  -OEChem-06241222513D

 37 39  0     0  0  0  0  0  0999 V2000
    7.1980   -2.0552    0.3084 Cl  0  0  0  0  0  0  0  0  0  0  0  0
   -2.9009   -3.8502    0.5540 S   0  0  0  0  0  0  0  0  0  0  0  0
    2.5498    1.4851   -0.2685 O   0  0  0  0  0  0  0  0  0  0  0  0
    0.2983    2.6505    0.6017 O   0  0  0  0  0  0  0  0  0  0  0  0
   -3.4802    0.8337   -0.5023 N   0  0  0  0  0  0  0  0  0  0  0  0
   -1.0592    1.0399   -0.4532 N   0  0  0  0  0  0  0  0  0  0  0  0
   -4.6095    1.4136   -0.0609 N   0  0  0  0  0  0  0  0  0  0  0  0
   -3.5736   -0.3570   -1.3156 C   0  0  0  0  0  0  0  0  0  0  0  0
   -2.3417    1.4727   -0.1072 C   0  0  0  0  0  0  0  0  0  0  0  0
   -3.5644   -1.5882   -0.4674 C   0  0  0  0  0  0  0  0  0  0  0  0
   -2.7550    2.5455    0.6444 C   0  0  0  0  0  0  0  0  0  0  0  0
   -4.1600    2.4588    0.6390 C   0  0  0  0  0  0  0  0  0  0  0  0
   -4.5337   -1.8670    0.5390 C   0  0  0  0  0  0  0  0  0  0  0  0
   -2.6184   -2.5848   -0.5646 C   0  0  0  0  0  0  0  0  0  0  0  0
    0.1359    1.6458   -0.0826 C   0  0  0  0  0  0  0  0  0  0  0  0
    1.3162    0.8801   -0.6534 C   0  0  0  0  0  0  0  0  0  0  0  0
   -4.2919   -3.0660    1.1723 C   0  0  0  0  0  0  0  0  0  0  0  0
    3.6269    0.6642   -0.1338 C   0  0  0  0  0  0  0  0  0  0  0  0
    3.7250   -0.4905   -0.9101 C   0  0  0  0  0  0  0  0  0  0  0  0
    4.6336    0.9786    0.7791 C   0  0  0  0  0  0  0  0  0  0  0  0
    4.8298   -1.3310   -0.7735 C   0  0  0  0  0  0  0  0  0  0  0  0
    5.7384    0.1381    0.9157 C   0  0  0  0  0  0  0  0  0  0  0  0
    5.8365   -1.0166    0.1394 C   0  0  0  0  0  0  0  0  0  0  0  0
   -4.5103   -0.3019   -1.8841 H   0  0  0  0  0  0  0  0  0  0  0  0
   -2.7616   -0.3512   -2.0498 H   0  0  0  0  0  0  0  0  0  0  0  0
   -2.1458    3.2913    1.1329 H   0  0  0  0  0  0  0  0  0  0  0  0
   -1.0094    0.1993   -1.0219 H   0  0  0  0  0  0  0  0  0  0  0  0
   -4.8751    3.1134    1.1159 H   0  0  0  0  0  0  0  0  0  0  0  0
   -5.3737   -1.2324    0.7906 H   0  0  0  0  0  0  0  0  0  0  0  0
   -1.7724   -2.6345   -1.2360 H   0  0  0  0  0  0  0  0  0  0  0  0
    1.2318   -0.1457   -0.2699 H   0  0  0  0  0  0  0  0  0  0  0  0
    1.2403    0.8835   -1.7468 H   0  0  0  0  0  0  0  0  0  0  0  0
   -4.8664   -3.5198    1.9676 H   0  0  0  0  0  0  0  0  0  0  0  0
    2.9778   -0.7567   -1.6520 H   0  0  0  0  0  0  0  0  0  0  0  0
    4.5625    1.8769    1.3863 H   0  0  0  0  0  0  0  0  0  0  0  0
    4.8962   -2.2245   -1.3890 H   0  0  0  0  0  0  0  0  0  0  0  0
    6.5151    0.3955    1.6312 H   0  0  0  0  0  0  0  0  0  0  0  0
  1 23  1  0  0  0  0
  2 14  1  0  0  0  0
  2 17  1  0  0  0  0
  3 16  1  0  0  0  0
  3 18  1  0  0  0  0
  4 15  2  0  0  0  0
  5  7  1  0  0  0  0
  5  8  1  0  0  0  0
  5  9  1  0  0  0  0
  6  9  1  0  0  0  0
  6 15  1  0  0  0  0
  6 27  1  0  0  0  0
  7 12  2  0  0  0  0
  8 10  1  0  0  0  0
  8 24  1  0  0  0  0
  8 25  1  0  0  0  0
  9 11  2  0  0  0  0
 10 13  1  0  0  0  0
 10 14  2  0  0  0  0
 11 12  1  0  0  0  0
 11 26  1  0  0  0  0
 12 28  1  0  0  0  0
 13 17  2  0  0  0  0
 13 29  1  0  0  0  0
 14 30  1  0  0  0  0
 15 16  1  0  0  0  0
 16 31  1  0  0  0  0
 16 32  1  0  0  0  0
 17 33  1  0  0  0  0
 18 19  2  0  0  0  0
 18 20  1  0  0  0  0
 19 21  1  0  0  0  0
 19 34  1  0  0  0  0
 20 22  2  0  0  0  0
 20 35  1  0  0  0  0
 21 23  2  0  0  0  0
 21 36  1  0  0  0  0
 22 23  1  0  0  0  0
 22 37  1  0  0  0  0
M  END
> <PUBCHEM_COMPOUND_CID>
17395678

> <PUBCHEM_CONFORMER_RMSD>
1.2

> <PUBCHEM_CONFORMER_DIVERSEORDER>
1
10
34
66
13
76
19
16
49
40
82
17
5
56
28
73
29
12
26
24
41
81
35
15
38
83
39
43
4
65
62
55
23
69
37
20
31
59
68
80
25
30
33
47
57
27
71
79
18
52
54
53
60
8
3
74
61
2
14
67
36
7
63
58
9
45
22
21
70
11
72
51
42
32
77
48
46
64
6
78
75
50
44

> <PUBCHEM_MMFF94_PARTIAL_CHARGES>
33
1 -0.18
10 -0.18
11 -0.15
12 0.14
13 -0.15
14 -0.11
15 0.57
16 0.34
17 -0.11
18 0.08
19 -0.15
2 -0.08
20 -0.15
21 -0.15
22 -0.15
23 0.18
26 0.15
27 0.37
28 0.15
29 0.15
3 -0.36
30 0.15
33 0.15
34 0.15
35 0.15
36 0.15
37 0.15
4 -0.57
5 0.31
6 -0.49
7 -0.71
8 0.44
9 -0.09

> <PUBCHEM_EFFECTIVE_ROTOR_COUNT>
7

> <PUBCHEM_PHARMACOPHORE_FEATURES>
7
1 3 acceptor
1 4 acceptor
1 6 donor
1 7 acceptor
5 2 10 13 14 17 rings
5 5 7 9 11 12 rings
6 18 19 20 21 22 23 rings

> <PUBCHEM_HEAVY_ATOM_COUNT>
23

> <PUBCHEM_ATOM_DEF_STEREO_COUNT>
0

> <PUBCHEM_ATOM_UDEF_STEREO_COUNT>
0

> <PUBCHEM_BOND_DEF_STEREO_COUNT>
0

> <PUBCHEM_BOND_UDEF_STEREO_COUNT>
0

> <PUBCHEM_ISOTOPIC_ATOM_COUNT>
0

> <PUBCHEM_COMPONENT_COUNT>
1

> <PUBCHEM_CACTVS_TAUTO_COUNT>
4

> <PUBCHEM_CONFORMER_ID>
01096FDE00000001

> <PUBCHEM_MMFF94_ENERGY>
47.8818

> <PUBCHEM_FEATURE_SELFOVERLAP>
35.528

> <PUBCHEM_SHAPE_FINGERPRINT>
11036077 4 18335132125063382817
11036077 51 18335696204688414673
11045977 3 18041006163084205592
11135609 12 18268710511417618753
12616971 3 17704064118976310020
12643181 29 18341336694864498986
12760667 363 18337955576582190223
12990986 174 18411136892181579799
13911852 28 17907011782390744251
14211702 104 18411981343525438138
14251740 79 18060420175297277115
14251751 18 18410009914691678778
14420673 8 18337388361356874902
14461889 52 18262531299767978328
14844126 61 18261397719847913863
14866123 147 18410285892669738139
15042514 8 18411414004020540145
15348495 7 18259991478941293728
15537594 2 17703508904179503730
15728490 83 18272082782131231875
17492 89 18268427932222466207
17627616 140 17986682669041847251
17780758 139 18409451392385510629
21315759 227 18199757946495377622
21403212 168 18261661672017180577
22122407 14 15863791707425545592
23424784 1240 18261945319746897390
23428019 142 17274824610435629362
23466295 7 18129092339053248379
23559900 14 18336558118008340953
25122255 55 18411132533249106478
312425 54 18335146444526539400
3383291 50 18409168793019392651
4015057 19 17604452737803437537
4073 2 18408323298483349498
44062 13 18342738520196371949
484985 159 18342175545222668403
5104073 3 18260268547265702064
531348 171 17345488161094104212
5364581 5 18042984085718710880
5365585 94 18129375995472685203
54583773 228 18341886365833836222
5486654 36 18412258424439264753
559249 180 18411984697683672437
6431902 208 18337958878874113590
7970288 3 17979354158050224427
9981440 41 17095800048853291069

> <PUBCHEM_SHAPE_MULTIPOLES>
452.37
16.05
4.07
1.02
23.84
2.18
0.02
8.38
-2.31
-6.01
-1.16
-0.19
0.2
0.56

> <PUBCHEM_SHAPE_SELFOVERLAP>
949.158

> <PUBCHEM_SHAPE_VOLUME>
257.2

> <PUBCHEM_COORDINATE_TYPE>
2
5
10

$$$$

