12265
  -OEChem-06261206443D

 16 16  0     0  0  0  0  0  0999 V2000
   -0.0001   -0.8854    0.0001 N   0  0  0  0  0  0  0  0  0  0  0  0
   -1.1197   -0.0952    0.0001 C   0  0  0  0  0  0  0  0  0  0  0  0
    1.1197   -0.0951   -0.0001 C   0  0  0  0  0  0  0  0  0  0  0  0
   -0.7083    1.2194    0.0001 C   0  0  0  0  0  0  0  0  0  0  0  0
    0.7084    1.2195   -0.0001 C   0  0  0  0  0  0  0  0  0  0  0  0
   -2.4725   -0.6816   -0.0001 C   0  0  0  0  0  0  0  0  0  0  0  0
    2.4725   -0.6817    0.0000 C   0  0  0  0  0  0  0  0  0  0  0  0
    0.0000   -1.8965    0.0001 H   0  0  0  0  0  0  0  0  0  0  0  0
   -1.3558    2.0854    0.0000 H   0  0  0  0  0  0  0  0  0  0  0  0
    1.3558    2.0855    0.0000 H   0  0  0  0  0  0  0  0  0  0  0  0
   -3.2412    0.0980    0.0007 H   0  0  0  0  0  0  0  0  0  0  0  0
   -2.6251   -1.3032   -0.8883 H   0  0  0  0  0  0  0  0  0  0  0  0
   -2.6248   -1.3046    0.8871 H   0  0  0  0  0  0  0  0  0  0  0  0
    2.6251   -1.3033    0.8883 H   0  0  0  0  0  0  0  0  0  0  0  0
    2.6246   -1.3048   -0.8872 H   0  0  0  0  0  0  0  0  0  0  0  0
    3.2412    0.0978   -0.0008 H   0  0  0  0  0  0  0  0  0  0  0  0
  1  2  1  0  0  0  0
  1  3  1  0  0  0  0
  1  8  1  0  0  0  0
  2  4  2  0  0  0  0
  2  6  1  0  0  0  0
  3  5  2  0  0  0  0
  3  7  1  0  0  0  0
  4  5  1  0  0  0  0
  4  9  1  0  0  0  0
  5 10  1  0  0  0  0
  6 11  1  0  0  0  0
  6 12  1  0  0  0  0
  6 13  1  0  0  0  0
  7 14  1  0  0  0  0
  7 15  1  0  0  0  0
  7 16  1  0  0  0  0
M  END
> <PUBCHEM_COMPOUND_CID>
12265

> <PUBCHEM_CONFORMER_RMSD>
0.4

> <PUBCHEM_CONFORMER_DIVERSEORDER>
1

> <PUBCHEM_MMFF94_PARTIAL_CHARGES>
10
1 0.03
10 0.15
2 -0.33
3 -0.33
4 -0.15
5 -0.15
6 0.18
7 0.18
8 0.27
9 0.15

> <PUBCHEM_EFFECTIVE_ROTOR_COUNT>
0

> <PUBCHEM_PHARMACOPHORE_FEATURES>
3
1 1 cation
1 1 donor
5 1 2 3 4 5 rings

> <PUBCHEM_HEAVY_ATOM_COUNT>
7

> <PUBCHEM_ATOM_DEF_STEREO_COUNT>
0

> <PUBCHEM_ATOM_UDEF_STEREO_COUNT>
0

> <PUBCHEM_BOND_DEF_STEREO_COUNT>
0

> <PUBCHEM_BOND_UDEF_STEREO_COUNT>
0

> <PUBCHEM_ISOTOPIC_ATOM_COUNT>
0

> <PUBCHEM_COMPONENT_COUNT>
1

> <PUBCHEM_CACTVS_TAUTO_COUNT>
1

> <PUBCHEM_CONFORMER_ID>
00002FE900000001

> <PUBCHEM_MMFF94_ENERGY>
2.3385

> <PUBCHEM_FEATURE_SELFOVERLAP>
15.223

> <PUBCHEM_SHAPE_FINGERPRINT>
10857977 72 18336561464024487970
16714656 1 18409164454373767374
21040471 1 17906452121585004481
23552423 10 18056469780442740070
29004967 10 18411980230479782739

> <PUBCHEM_SHAPE_MULTIPOLES>
139.08
2.93
1.27
0.6
0
0.33
0
-1.15
0
0
0
0
0.01
0

> <PUBCHEM_SHAPE_SELFOVERLAP>
281.763

> <PUBCHEM_SHAPE_VOLUME>
83.9

> <PUBCHEM_COORDINATE_TYPE>
2
5
10

$$$$

