443453
  -OEChem-07051213022D

 53 56  0     1  0  0  0  0  0999 V2000
    2.2943    1.3030    0.0000 O   0  0  0  0  0  0  0  0  0  0  0  0
    6.9005   -0.7181    0.0000 O   0  0  0  0  0  0  0  0  0  0  0  0
    5.7014   -1.9679    0.0000 O   0  0  0  0  0  0  0  0  0  0  0  0
    2.8183   -2.8554    0.0000 O   0  0  0  0  0  0  0  0  0  0  0  0
    4.5500   -2.8857    0.0000 O   0  0  0  0  0  0  0  0  0  0  0  0
    5.3546    0.6802    0.0000 C   0  0  1  0  0  0  0  0  0  0  0  0
    4.4536    1.1141    0.0000 C   0  0  2  0  0  0  0  0  0  0  0  0
    3.7685    0.3938    0.0000 C   0  0  1  0  0  0  0  0  0  0  0  0
    4.2403   -0.4812    0.0000 C   0  0  2  0  0  0  0  0  0  0  0  0
    5.2186   -0.3045    0.0000 C   0  0  2  0  0  0  0  0  0  0  0  0
    5.2477    1.8570    0.0000 C   0  0  0  0  0  0  0  0  0  0  0  0
    6.2555    1.1141    0.0000 C   0  0  0  0  0  0  0  0  0  0  0  0
    3.7104   -1.3708    0.0000 C   0  0  2  0  0  0  0  0  0  0  0  0
    5.8546    2.8708    0.0000 C   0  0  1  0  0  0  0  0  0  0  0  0
    4.2311    2.0890    0.0000 C   0  0  0  0  0  0  0  0  0  0  0  0
    2.7340    0.4398    0.0000 C   0  0  0  0  0  0  0  0  0  0  0  0
    4.8546    2.8708    0.0000 C   0  0  0  0  0  0  0  0  0  0  0  0
    6.4780    2.0890    0.0000 C   0  0  0  0  0  0  0  0  0  0  0  0
    3.2938    1.2740    0.0000 C   0  0  0  0  0  0  0  0  0  0  0  0
    2.6752   -1.3487    0.0000 C   0  0  0  0  0  0  0  0  0  0  0  0
    2.1837   -0.4373    0.0000 C   0  0  0  0  0  0  0  0  0  0  0  0
    5.9402   -0.9968    0.0000 C   0  0  0  0  0  0  0  0  0  0  0  0
    4.5675   -1.8858    0.0000 C   0  0  0  0  0  0  0  0  0  0  0  0
    3.6929   -2.3706    0.0000 C   0  0  0  0  0  0  0  0  0  0  0  0
    7.4530    2.3115    0.0000 C   0  0  0  0  0  0  0  0  0  0  0  0
    3.6878    1.4829    0.0000 H   0  0  0  0  0  0  0  0  0  0  0  0
    4.7245   -1.1798    0.0000 H   0  0  0  0  0  0  0  0  0  0  0  0
    5.8042   -0.1010    0.0000 H   0  0  0  0  0  0  0  0  0  0  0  0
    4.8399    2.3240    0.0000 H   0  0  0  0  0  0  0  0  0  0  0  0
    4.6777    1.6132    0.0000 H   0  0  0  0  0  0  0  0  0  0  0  0
    6.3935    0.5096    0.0000 H   0  0  0  0  0  0  0  0  0  0  0  0
    6.8755    1.1141    0.0000 H   0  0  0  0  0  0  0  0  0  0  0  0
    6.0437    3.6995    0.0000 H   0  0  0  0  0  0  0  0  0  0  0  0
    3.8445    2.5738    0.0000 H   0  0  0  0  0  0  0  0  0  0  0  0
    3.6725    1.8200    0.0000 H   0  0  0  0  0  0  0  0  0  0  0  0
    2.8672    1.0454    0.0000 H   0  0  0  0  0  0  0  0  0  0  0  0
    2.1602    0.6746    0.0000 H   0  0  0  0  0  0  0  0  0  0  0  0
    4.9925    3.4753    0.0000 H   0  0  0  0  0  0  0  0  0  0  0  0
    4.2960    3.1399    0.0000 H   0  0  0  0  0  0  0  0  0  0  0  0
    3.8824    1.4690    0.0000 H   0  0  0  0  0  0  0  0  0  0  0  0
    3.2040    1.8874    0.0000 H   0  0  0  0  0  0  0  0  0  0  0  0
    2.0871   -1.5452    0.0000 H   0  0  0  0  0  0  0  0  0  0  0  0
    2.7682   -1.9617    0.0000 H   0  0  0  0  0  0  0  0  0  0  0  0
    1.7226   -0.0227    0.0000 H   0  0  0  0  0  0  0  0  0  0  0  0
    1.6964   -0.8206    0.0000 H   0  0  0  0  0  0  0  0  0  0  0  0
    4.2482   -2.4173    0.0000 H   0  0  0  0  0  0  0  0  0  0  0  0
    5.0990   -2.2052    0.0000 H   0  0  0  0  0  0  0  0  0  0  0  0
    4.8869   -1.3544    0.0000 H   0  0  0  0  0  0  0  0  0  0  0  0
    7.8747    1.8570    0.0000 H   0  0  0  0  0  0  0  0  0  0  0  0
    7.6357    2.9040    0.0000 H   0  0  0  0  0  0  0  0  0  0  0  0
    2.0000    1.8487    0.0000 H   0  0  0  0  0  0  0  0  0  0  0  0
    7.3479   -1.1473    0.0000 H   0  0  0  0  0  0  0  0  0  0  0  0
    2.8074   -3.4753    0.0000 H   0  0  0  0  0  0  0  0  0  0  0  0
  1 19  1  0  0  0  0
  1 51  1  0  0  0  0
  2 22  1  0  0  0  0
  2 52  1  0  0  0  0
  3 22  2  0  0  0  0
  4 24  1  0  0  0  0
  4 53  1  0  0  0  0
  5 24  2  0  0  0  0
  6  7  1  0  0  0  0
  6 10  1  0  0  0  0
  6 11  1  6  0  0  0
  6 12  1  0  0  0  0
  7  8  1  0  0  0  0
  7 15  1  0  0  0  0
  7 26  1  1  0  0  0
  8  9  1  0  0  0  0
  8 16  1  0  0  0  0
  8 19  1  6  0  0  0
  9 10  1  0  0  0  0
  9 13  1  0  0  0  0
  9 27  1  1  0  0  0
 10 22  1  1  0  0  0
 10 28  1  0  0  0  0
 11 14  1  0  0  0  0
 11 29  1  0  0  0  0
 11 30  1  0  0  0  0
 12 18  1  0  0  0  0
 12 31  1  0  0  0  0
 12 32  1  0  0  0  0
 13 20  1  0  0  0  0
 13 23  1  1  0  0  0
 13 24  1  0  0  0  0
 14 17  1  0  0  0  0
 14 18  1  0  0  0  0
 14 33  1  6  0  0  0
 15 17  1  0  0  0  0
 15 34  1  0  0  0  0
 15 35  1  0  0  0  0
 16 21  1  0  0  0  0
 16 36  1  0  0  0  0
 16 37  1  0  0  0  0
 17 38  1  0  0  0  0
 17 39  1  0  0  0  0
 18 25  2  0  0  0  0
 19 40  1  0  0  0  0
 19 41  1  0  0  0  0
 20 21  1  0  0  0  0
 20 42  1  0  0  0  0
 20 43  1  0  0  0  0
 21 44  1  0  0  0  0
 21 45  1  0  0  0  0
 23 46  1  0  0  0  0
 23 47  1  0  0  0  0
 23 48  1  0  0  0  0
 25 49  1  0  0  0  0
 25 50  1  0  0  0  0
M  END
> <PUBCHEM_COMPOUND_CID>
443453

> <PUBCHEM_COMPOUND_CANONICALIZED>
1

> <PUBCHEM_CACTVS_COMPLEXITY>
657

> <PUBCHEM_CACTVS_HBOND_ACCEPTOR>
5

> <PUBCHEM_CACTVS_HBOND_DONOR>
3

> <PUBCHEM_CACTVS_ROTATABLE_BOND>
3

> <PUBCHEM_CACTVS_SUBSKEYS>
AAADceB4OAAAAAAAAAAAAAAAAAAAAYMAAAAwYAAABgAAAGDAAAAAGgAACAAADwCggAICCAAAAgCIAgDSCAAAAAAgAAAAAAEAAAgAEBIAAQAAQAAEgAAAAAGI7vCPgAAAAAAAAACAAAQAACAAAQAACAAAAA==

> <PUBCHEM_IUPAC_INCHI>
InChI=1S/C20H28O5/c1-11-8-20-9-12(11)4-5-13(20)19(10-21)7-3-6-18(2,17(24)25)15(19)14(20)16(22)23/h12-15,21H,1,3-10H2,2H3,(H,22,23)(H,24,25)/t12-,13+,14-,15-,18-,19-,20+/m1/s1

> <PUBCHEM_IUPAC_INCHIKEY>
TZGXVFYTKTWKCU-CXXOJBQZSA-N

> <PUBCHEM_XLOGP3_AA>
2.5

> <PUBCHEM_EXACT_MASS>
348.193674

> <PUBCHEM_MOLECULAR_FORMULA>
C20H28O5

> <PUBCHEM_MOLECULAR_WEIGHT>
348.43332

> <PUBCHEM_OPENEYE_CAN_SMILES>
CC1(CCCC2(C1C(C34C2CCC(C3)C(=C)C4)C(=O)O)CO)C(=O)O

> <PUBCHEM_OPENEYE_ISO_SMILES>
C[C@]1(CCC[C@@]2([C@@H]1[C@@H]([C@]34[C@H]2CC[C@H](C3)C(=C)C4)C(=O)O)CO)C(=O)O

> <PUBCHEM_CACTVS_TPSA>
94.8

> <PUBCHEM_MONOISOTOPIC_WEIGHT>
348.193674

> <PUBCHEM_TOTAL_CHARGE>
0

> <PUBCHEM_HEAVY_ATOM_COUNT>
25

> <PUBCHEM_ATOM_DEF_STEREO_COUNT>
7

> <PUBCHEM_ATOM_UDEF_STEREO_COUNT>
0

> <PUBCHEM_BOND_DEF_STEREO_COUNT>
0

> <PUBCHEM_BOND_UDEF_STEREO_COUNT>
0

> <PUBCHEM_ISOTOPIC_ATOM_COUNT>
0

> <PUBCHEM_COMPONENT_COUNT>
1

> <PUBCHEM_CACTVS_TAUTO_COUNT>
1

> <PUBCHEM_COORDINATE_TYPE>
1
5
255

> <PUBCHEM_BONDANNOTATIONS>
10  22  5
13  23  5
14  33  6
6  11  6
7  26  5
8  19  6
9  27  5

$$$$

