14365
  -OEChem-06241222433D

 21 21  0     0  0  0  0  0  0999 V2000
    2.6081   -2.8585   -1.2197 Cl  0  0  0  0  0  0  0  0  0  0  0  0
    2.9688    1.6029   -1.2969 Cl  0  0  0  0  0  0  0  0  0  0  0  0
    1.0010    3.5296   -0.4468 Cl  0  0  0  0  0  0  0  0  0  0  0  0
    2.6383    2.2301    1.5426 Cl  0  0  0  0  0  0  0  0  0  0  0  0
   -3.6946   -0.2057    1.3476 Cl  0  0  0  0  0  0  0  0  0  0  0  0
   -3.2467    1.8837   -0.5863 Cl  0  0  0  0  0  0  0  0  0  0  0  0
   -3.3542   -0.8562   -1.4854 Cl  0  0  0  0  0  0  0  0  0  0  0  0
   -0.9062   -1.2529    0.4013 N   0  0  0  0  0  0  0  0  0  0  0  0
    1.3308   -0.3874    0.4706 N   0  0  0  0  0  0  0  0  0  0  0  0
   -0.5010    1.0642   -0.0726 N   0  0  0  0  0  0  0  0  0  0  0  0
    0.9312   -2.7189    0.9483 C   0  0  0  0  0  0  0  0  0  0  0  0
    0.4194   -1.3670    0.5835 C   0  0  0  0  0  0  0  0  0  0  0  0
   -1.2939   -0.0094    0.0754 C   0  0  0  0  0  0  0  0  0  0  0  0
    0.7982    0.8001    0.1402 C   0  0  0  0  0  0  0  0  0  0  0  0
    1.3082   -3.5972   -0.2516 C   0  0  0  0  0  0  0  0  0  0  0  0
    1.7459    1.9417   -0.0053 C   0  0  0  0  0  0  0  0  0  0  0  0
   -2.7533    0.2008   -0.1448 C   0  0  0  0  0  0  0  0  0  0  0  0
    1.7997   -2.6096    1.6102 H   0  0  0  0  0  0  0  0  0  0  0  0
    0.1669   -3.2416    1.5369 H   0  0  0  0  0  0  0  0  0  0  0  0
    1.6611   -4.5754    0.0881 H   0  0  0  0  0  0  0  0  0  0  0  0
    0.4499   -3.7466   -0.9141 H   0  0  0  0  0  0  0  0  0  0  0  0
  1 15  1  0  0  0  0
  2 16  1  0  0  0  0
  3 16  1  0  0  0  0
  4 16  1  0  0  0  0
  5 17  1  0  0  0  0
  6 17  1  0  0  0  0
  7 17  1  0  0  0  0
  8 12  2  0  0  0  0
  8 13  1  0  0  0  0
  9 12  1  0  0  0  0
  9 14  2  0  0  0  0
 10 13  2  0  0  0  0
 10 14  1  0  0  0  0
 11 12  1  0  0  0  0
 11 15  1  0  0  0  0
 11 18  1  0  0  0  0
 11 19  1  0  0  0  0
 13 17  1  0  0  0  0
 14 16  1  0  0  0  0
 15 20  1  0  0  0  0
 15 21  1  0  0  0  0
M  END
> <PUBCHEM_COMPOUND_CID>
14365

> <PUBCHEM_CONFORMER_RMSD>
0.6

> <PUBCHEM_CONFORMER_DIVERSEORDER>
1
12
6
7
3
10
5
8
11
2
9
4

> <PUBCHEM_MMFF94_PARTIAL_CHARGES>
17
1 -0.29
10 -0.62
11 0.14
12 0.48
13 0.48
14 0.48
15 0.29
16 1.01
17 1.01
2 -0.29
3 -0.29
4 -0.29
5 -0.29
6 -0.29
7 -0.29
8 -0.62
9 -0.62

> <PUBCHEM_EFFECTIVE_ROTOR_COUNT>
4

> <PUBCHEM_PHARMACOPHORE_FEATURES>
4
3 8 10 13 cation
3 8 9 12 cation
3 9 10 14 cation
6 8 9 10 12 13 14 rings

> <PUBCHEM_HEAVY_ATOM_COUNT>
17

> <PUBCHEM_ATOM_DEF_STEREO_COUNT>
0

> <PUBCHEM_ATOM_UDEF_STEREO_COUNT>
0

> <PUBCHEM_BOND_DEF_STEREO_COUNT>
0

> <PUBCHEM_BOND_UDEF_STEREO_COUNT>
0

> <PUBCHEM_ISOTOPIC_ATOM_COUNT>
0

> <PUBCHEM_COMPONENT_COUNT>
1

> <PUBCHEM_CACTVS_TAUTO_COUNT>
3

> <PUBCHEM_CONFORMER_ID>
0000381D00000001

> <PUBCHEM_MMFF94_ENERGY>
25.964

> <PUBCHEM_FEATURE_SELFOVERLAP>
23.07

> <PUBCHEM_SHAPE_FINGERPRINT>
12553582 1 17977950412371565215
14022347 108 17478329094625845803
14181834 199 18269017395056725278
14648413 74 18271532021563248393
15309172 13 18198340641974184809
15490181 8 18268714917747823211
16945 1 18198628726636648953
1813 80 17899684954092274807
18186145 218 18190736444983684041
20600515 1 17553501561996945010
20645476 183 16843049589805566400
20645477 70 18339654403582807255
20671657 1 18263084482301480281
20711985 344 17185882134035964715
21041028 32 18049985973110694289
21421566 26 17611459031921830870
21524375 3 18056208976752864808
2334 1 18124317099238381730
23419403 2 17052116408631306658
23526113 38 17897701216462591172
23557571 272 17399527109354185538
23566358 27 18336815421515530759
23598288 3 17264137155718305802
23598291 2 18114742741516027463
2748010 2 18198335156894850298
3060560 45 18197232363896177780
3071541 250 18193822963153932454
352729 6 17980765934978882555
458136 41 18268124514516309889
6049 1 18058720438063688795
633830 44 18116704124125999301
7364860 26 18335146430945252802
81228 2 17186725459385663458

> <PUBCHEM_SHAPE_MULTIPOLES>
348
5.48
4.42
1.37
4.44
1.62
0
-1.35
-0.77
-4.34
-0.53
-0.06
0.01
0.59

> <PUBCHEM_SHAPE_SELFOVERLAP>
642.344

> <PUBCHEM_SHAPE_VOLUME>
215.2

> <PUBCHEM_COORDINATE_TYPE>
2
5
10

$$$$

