46173908
  -OEChem-07051213103D

 87 90  0     1  0  0  0  0  0999 V2000
    3.2731    1.2586    0.0909 O   0  0  0  0  0  0  0  0  0  0  0  0
    5.2725   -3.5734   -2.1908 O   0  0  0  0  0  0  0  0  0  0  0  0
    5.5504    0.9882    0.4435 O   0  0  0  0  0  0  0  0  0  0  0  0
    7.0410   -1.3791    1.1728 O   0  0  0  0  0  0  0  0  0  0  0  0
    0.0746   -2.0788    0.2131 O   0  0  0  0  0  0  0  0  0  0  0  0
   -2.2099   -1.6779    0.4475 O   0  0  0  0  0  0  0  0  0  0  0  0
   -4.1713    0.1543   -0.1077 O   0  0  0  0  0  0  0  0  0  0  0  0
   -0.4582   -4.8790    0.0991 O   0  0  0  0  0  0  0  0  0  0  0  0
   -2.8990   -5.5854    1.5172 O   0  0  0  0  0  0  0  0  0  0  0  0
   -5.0946   -3.9410    0.6677 O   0  0  0  0  0  0  0  0  0  0  0  0
   -6.2752    1.1141   -0.4021 O   0  0  0  0  0  0  0  0  0  0  0  0
    5.6884    2.6801   -1.1179 O   0  0  0  0  0  0  0  0  0  0  0  0
   -3.1252    2.7229    0.5597 O   0  0  0  0  0  0  0  0  0  0  0  0
   -4.6437    4.8758   -0.6757 O   0  0  0  0  0  0  0  0  0  0  0  0
   -7.4525    4.5845   -0.1532 O   0  0  0  0  0  0  0  0  0  0  0  0
   -8.9585    0.5902   -0.2067 O   0  0  0  0  0  0  0  0  0  0  0  0
    4.2322   -1.0153    0.1964 C   0  0  1  0  0  0  0  0  0  0  0  0
    2.9347   -1.5984   -0.3957 C   0  0  2  0  0  0  0  0  0  0  0  0
    5.2807   -2.0239   -0.3074 C   0  0  1  0  0  0  0  0  0  0  0  0
    4.8573   -2.2890   -1.7563 C   0  0  2  0  0  0  0  0  0  0  0  0
    3.3313   -2.1575   -1.7739 C   0  0  0  0  0  0  0  0  0  0  0  0
    4.4145    0.4519   -0.2324 C   0  0  1  0  0  0  0  0  0  0  0  0
    1.8199   -0.5951   -0.4488 C   0  0  0  0  0  0  0  0  0  0  0  0
    6.7423   -1.6181   -0.1916 C   0  0  0  0  0  0  0  0  0  0  0  0
    2.0577    0.6976   -0.1851 C   0  0  0  0  0  0  0  0  0  0  0  0
    0.4436   -1.1072   -0.7481 C   0  0  0  0  0  0  0  0  0  0  0  0
   -1.2290   -2.5946   -0.0322 C   0  0  2  0  0  0  0  0  0  0  0  0
   -1.3466   -3.9344    0.6945 C   0  0  1  0  0  0  0  0  0  0  0  0
   -3.5445   -2.1291    0.2092 C   0  0  1  0  0  0  0  0  0  0  0  0
   -2.7680   -4.4908    0.6085 C   0  0  2  0  0  0  0  0  0  0  0  0
    6.0937    2.1144   -0.1118 C   0  0  0  0  0  0  0  0  0  0  0  0
   -3.8020   -3.4271    0.9781 C   0  0  2  0  0  0  0  0  0  0  0  0
   -4.4830   -1.0064    0.6408 C   0  0  0  0  0  0  0  0  0  0  0  0
    7.3050    2.5318    0.6947 C   0  0  0  0  0  0  0  0  0  0  0  0
   -5.0108    1.2488    0.2427 C   0  0  2  0  0  0  0  0  0  0  0  0
   -4.3152    2.5343   -0.2047 C   0  0  1  0  0  0  0  0  0  0  0  0
   -5.2152    3.7533   -0.0016 C   0  0  2  0  0  0  0  0  0  0  0  0
   -6.6144    3.5086   -0.5671 C   0  0  1  0  0  0  0  0  0  0  0  0
   -7.1748    2.1736   -0.0710 C   0  0  1  0  0  0  0  0  0  0  0  0
    7.6037    4.0362    0.6009 C   0  0  0  0  0  0  0  0  0  0  0  0
   -8.5193    1.8387   -0.7095 C   0  0  0  0  0  0  0  0  0  0  0  0
    6.4293    4.8730    1.1146 C   0  0  0  0  0  0  0  0  0  0  0  0
    8.8652    4.3707    1.3991 C   0  0  0  0  0  0  0  0  0  0  0  0
    4.1879   -1.0504    1.2937 H   0  0  0  0  0  0  0  0  0  0  0  0
    2.6340   -2.4403    0.2434 H   0  0  0  0  0  0  0  0  0  0  0  0
    5.1567   -2.9500    0.2743 H   0  0  0  0  0  0  0  0  0  0  0  0
    5.3005   -1.5483   -2.4328 H   0  0  0  0  0  0  0  0  0  0  0  0
    3.0343   -1.4827   -2.5862 H   0  0  0  0  0  0  0  0  0  0  0  0
    2.8342   -3.1170   -1.9582 H   0  0  0  0  0  0  0  0  0  0  0  0
    4.5717    0.5044   -1.3184 H   0  0  0  0  0  0  0  0  0  0  0  0
    7.3884   -2.4288   -0.5454 H   0  0  0  0  0  0  0  0  0  0  0  0
    6.9763   -0.7258   -0.7794 H   0  0  0  0  0  0  0  0  0  0  0  0
    1.2830    1.4513   -0.1390 H   0  0  0  0  0  0  0  0  0  0  0  0
    0.4391   -1.5527   -1.7504 H   0  0  0  0  0  0  0  0  0  0  0  0
   -0.2868   -0.2887   -0.7419 H   0  0  0  0  0  0  0  0  0  0  0  0
    4.9294   -3.7015   -3.0916 H   0  0  0  0  0  0  0  0  0  0  0  0
    7.9770   -1.1201    1.2198 H   0  0  0  0  0  0  0  0  0  0  0  0
   -1.3600   -2.7480   -1.1126 H   0  0  0  0  0  0  0  0  0  0  0  0
   -1.0393   -3.8292    1.7419 H   0  0  0  0  0  0  0  0  0  0  0  0
   -3.6737   -2.2805   -0.8712 H   0  0  0  0  0  0  0  0  0  0  0  0
   -2.9679   -4.8987   -0.3895 H   0  0  0  0  0  0  0  0  0  0  0  0
   -3.7730   -3.2444    2.0592 H   0  0  0  0  0  0  0  0  0  0  0  0
   -4.3364   -0.7926    1.7067 H   0  0  0  0  0  0  0  0  0  0  0  0
   -5.5273   -1.2921    0.4718 H   0  0  0  0  0  0  0  0  0  0  0  0
    7.1351    2.2630    1.7449 H   0  0  0  0  0  0  0  0  0  0  0  0
    8.1584    1.9490    0.3297 H   0  0  0  0  0  0  0  0  0  0  0  0
   -5.1493    1.2644    1.3330 H   0  0  0  0  0  0  0  0  0  0  0  0
   -4.0068    2.4565   -1.2541 H   0  0  0  0  0  0  0  0  0  0  0  0
   -5.2659    4.0290    1.0586 H   0  0  0  0  0  0  0  0  0  0  0  0
   -6.5775    3.5249   -1.6631 H   0  0  0  0  0  0  0  0  0  0  0  0
   -7.3123    2.1862    1.0189 H   0  0  0  0  0  0  0  0  0  0  0  0
    7.7793    4.3026   -0.4490 H   0  0  0  0  0  0  0  0  0  0  0  0
   -0.6944   -4.9644   -0.8404 H   0  0  0  0  0  0  0  0  0  0  0  0
   -2.7191   -5.2563    2.4144 H   0  0  0  0  0  0  0  0  0  0  0  0
   -5.1446   -4.0670   -0.2953 H   0  0  0  0  0  0  0  0  0  0  0  0
   -9.2723    2.5978   -0.4768 H   0  0  0  0  0  0  0  0  0  0  0  0
   -8.4226    1.7457   -1.7964 H   0  0  0  0  0  0  0  0  0  0  0  0
    6.6733    5.9405    1.0804 H   0  0  0  0  0  0  0  0  0  0  0  0
    6.1850    4.6181    2.1516 H   0  0  0  0  0  0  0  0  0  0  0  0
    5.5293    4.7279    0.5101 H   0  0  0  0  0  0  0  0  0  0  0  0
    8.7393    4.1355    2.4615 H   0  0  0  0  0  0  0  0  0  0  0  0
    9.7230    3.8017    1.0252 H   0  0  0  0  0  0  0  0  0  0  0  0
    9.1085    5.4351    1.3142 H   0  0  0  0  0  0  0  0  0  0  0  0
   -3.3736    2.7655    1.4989 H   0  0  0  0  0  0  0  0  0  0  0  0
   -4.5778    4.6587   -1.6213 H   0  0  0  0  0  0  0  0  0  0  0  0
   -7.5250    4.5532    0.8161 H   0  0  0  0  0  0  0  0  0  0  0  0
   -9.8129    0.3955   -0.6281 H   0  0  0  0  0  0  0  0  0  0  0  0
  1 22  1  0  0  0  0
  1 25  1  0  0  0  0
  2 20  1  0  0  0  0
  2 56  1  0  0  0  0
  3 22  1  0  0  0  0
  3 31  1  0  0  0  0
  4 24  1  0  0  0  0
  4 57  1  0  0  0  0
  5 26  1  0  0  0  0
  5 27  1  0  0  0  0
  6 27  1  0  0  0  0
  6 29  1  0  0  0  0
  7 33  1  0  0  0  0
  7 35  1  0  0  0  0
  8 28  1  0  0  0  0
  8 73  1  0  0  0  0
  9 30  1  0  0  0  0
  9 74  1  0  0  0  0
 10 32  1  0  0  0  0
 10 75  1  0  0  0  0
 11 35  1  0  0  0  0
 11 39  1  0  0  0  0
 12 31  2  0  0  0  0
 13 36  1  0  0  0  0
 13 84  1  0  0  0  0
 14 37  1  0  0  0  0
 14 85  1  0  0  0  0
 15 38  1  0  0  0  0
 15 86  1  0  0  0  0
 16 41  1  0  0  0  0
 16 87  1  0  0  0  0
 17 18  1  0  0  0  0
 17 19  1  0  0  0  0
 17 22  1  0  0  0  0
 17 44  1  0  0  0  0
 18 21  1  0  0  0  0
 18 23  1  0  0  0  0
 18 45  1  0  0  0  0
 19 20  1  0  0  0  0
 19 24  1  0  0  0  0
 19 46  1  0  0  0  0
 20 21  1  0  0  0  0
 20 47  1  0  0  0  0
 21 48  1  0  0  0  0
 21 49  1  0  0  0  0
 22 50  1  0  0  0  0
 23 25  2  0  0  0  0
 23 26  1  0  0  0  0
 24 51  1  0  0  0  0
 24 52  1  0  0  0  0
 25 53  1  0  0  0  0
 26 54  1  0  0  0  0
 26 55  1  0  0  0  0
 27 28  1  0  0  0  0
 27 58  1  0  0  0  0
 28 30  1  0  0  0  0
 28 59  1  0  0  0  0
 29 32  1  0  0  0  0
 29 33  1  0  0  0  0
 29 60  1  0  0  0  0
 30 32  1  0  0  0  0
 30 61  1  0  0  0  0
 31 34  1  0  0  0  0
 32 62  1  0  0  0  0
 33 63  1  0  0  0  0
 33 64  1  0  0  0  0
 34 40  1  0  0  0  0
 34 65  1  0  0  0  0
 34 66  1  0  0  0  0
 35 36  1  0  0  0  0
 35 67  1  0  0  0  0
 36 37  1  0  0  0  0
 36 68  1  0  0  0  0
 37 38  1  0  0  0  0
 37 69  1  0  0  0  0
 38 39  1  0  0  0  0
 38 70  1  0  0  0  0
 39 41  1  0  0  0  0
 39 71  1  0  0  0  0
 40 42  1  0  0  0  0
 40 43  1  0  0  0  0
 40 72  1  0  0  0  0
 41 76  1  0  0  0  0
 41 77  1  0  0  0  0
 42 78  1  0  0  0  0
 42 79  1  0  0  0  0
 42 80  1  0  0  0  0
 43 81  1  0  0  0  0
 43 82  1  0  0  0  0
 43 83  1  0  0  0  0
M  END
> <PUBCHEM_COMPOUND_CID>
46173908

> <PUBCHEM_CONFORMER_RMSD>
1.4

> <PUBCHEM_CONFORMER_DIVERSEORDER>
1
14
10
8
7
5
15
11
22
23
24
4
12
18
2
25
16
19
26
27
17
6
9
13
20
21
3

> <PUBCHEM_MMFF94_PARTIAL_CHARGES>
47
1 -0.36
10 -0.68
11 -0.56
12 -0.57
13 -0.68
14 -0.68
15 -0.68
16 -0.68
18 0.14
2 -0.68
20 0.28
22 0.56
23 -0.28
24 0.28
25 -0.07
26 0.42
27 0.56
28 0.28
29 0.28
3 -0.43
30 0.28
31 0.66
32 0.28
33 0.28
34 0.06
35 0.56
36 0.28
37 0.28
38 0.28
39 0.28
4 -0.68
41 0.28
5 -0.56
53 0.15
56 0.4
57 0.4
6 -0.56
7 -0.56
73 0.4
74 0.4
75 0.4
8 -0.68
84 0.4
85 0.4
86 0.4
87 0.4
9 -0.68

> <PUBCHEM_EFFECTIVE_ROTOR_COUNT>
15.4

> <PUBCHEM_PHARMACOPHORE_FEATURES>
29
1 1 acceptor
1 10 acceptor
1 10 donor
1 11 acceptor
1 12 acceptor
1 13 acceptor
1 13 donor
1 14 acceptor
1 14 donor
1 15 acceptor
1 15 donor
1 16 acceptor
1 16 donor
1 2 acceptor
1 2 donor
1 4 acceptor
1 4 donor
1 5 acceptor
1 6 acceptor
1 7 acceptor
1 8 acceptor
1 8 donor
1 9 acceptor
1 9 donor
3 40 42 43 hydrophobe
5 17 18 19 20 21 rings
6 1 17 18 22 23 25 rings
6 11 35 36 37 38 39 rings
6 6 27 28 29 30 32 rings

> <PUBCHEM_HEAVY_ATOM_COUNT>
43

> <PUBCHEM_ATOM_DEF_STEREO_COUNT>
15

> <PUBCHEM_ATOM_UDEF_STEREO_COUNT>
0

> <PUBCHEM_BOND_DEF_STEREO_COUNT>
0

> <PUBCHEM_BOND_UDEF_STEREO_COUNT>
0

> <PUBCHEM_ISOTOPIC_ATOM_COUNT>
0

> <PUBCHEM_COMPONENT_COUNT>
1

> <PUBCHEM_CACTVS_TAUTO_COUNT>
1

> <PUBCHEM_CONFORMER_ID>
02C08ED400000001

> <PUBCHEM_MMFF94_ENERGY>
113.0474

> <PUBCHEM_FEATURE_SELFOVERLAP>
147.43

> <PUBCHEM_SHAPE_FINGERPRINT>
10050765 1 18411418380924348866
11136131 41 17699568358176484123
11204353 107 18043533803120524680
11297010 23 18045218490519611327
11411753 3 18264751226002391566
11621639 183 18200030626011984368
12107183 9 18200602522066071386
13008946 113 18411421675460144816
14190465 44 18411140242245521120
15347591 1 18410857634163004626
15400415 2 18269552913592799085
15773879 134 18265340684656578781
16664035 1 18049725423790695262
16758388 162 18199759214080293242
19053607 189 18261125053807098832
19304144 158 18190740835146889194
20691028 202 18342172289025405301
23522609 53 17417236617020184828
3918712 181 18269281317320177549
4073 2 18411982442456479338
4144715 1 18270390591071065834
4874694 18 18410017611120767696
5265222 85 18411141342633596201
6371380 46 18267575995791127758
6376802 90 18339636746461056978

> <PUBCHEM_SHAPE_MULTIPOLES>
791.01
27.19
8.54
1.18
0.48
0.75
-0.26
35.58
1.54
-3.09
1.87
1.5
-0.7
6.88

> <PUBCHEM_SHAPE_SELFOVERLAP>
1638.141

> <PUBCHEM_SHAPE_VOLUME>
445.2

> <PUBCHEM_COORDINATE_TYPE>
2
5
10

$$$$

