62134
  -OEChem-07051213132D

 28 31  0     0  0  0  0  0  0999 V2000
    2.0000    0.5000    0.0000 O   0  5  0  0  0  0  0  0  0  0  0  0
    2.8660    2.0000    0.0000 O   0  0  0  0  0  0  0  0  0  0  0  0
    2.8660    1.0000    0.0000 N   0  3  0  0  0  0  0  0  0  0  0  0
    5.4641    0.5000    0.0000 C   0  0  0  0  0  0  0  0  0  0  0  0
    5.4641   -0.5000    0.0000 C   0  0  0  0  0  0  0  0  0  0  0  0
    4.5981    1.0000    0.0000 C   0  0  0  0  0  0  0  0  0  0  0  0
    4.5981   -1.0000    0.0000 C   0  0  0  0  0  0  0  0  0  0  0  0
    6.3580    1.0347    0.0000 C   0  0  0  0  0  0  0  0  0  0  0  0
    6.3580   -1.0347    0.0000 C   0  0  0  0  0  0  0  0  0  0  0  0
    3.7320    0.5000    0.0000 C   0  0  0  0  0  0  0  0  0  0  0  0
    3.7320   -0.5000    0.0000 C   0  0  0  0  0  0  0  0  0  0  0  0
    7.2641    0.5208    0.0000 C   0  0  0  0  0  0  0  0  0  0  0  0
    7.2641   -0.5208    0.0000 C   0  0  0  0  0  0  0  0  0  0  0  0
    4.5968    1.9917    0.0000 C   0  0  0  0  0  0  0  0  0  0  0  0
    4.5968   -1.9917    0.0000 C   0  0  0  0  0  0  0  0  0  0  0  0
    6.3202    2.0256    0.0000 C   0  0  0  0  0  0  0  0  0  0  0  0
    6.3202   -2.0256    0.0000 C   0  0  0  0  0  0  0  0  0  0  0  0
    5.4489    2.4991    0.0000 C   0  0  0  0  0  0  0  0  0  0  0  0
    5.4489   -2.4991    0.0000 C   0  0  0  0  0  0  0  0  0  0  0  0
    3.1951   -0.8100    0.0000 H   0  0  0  0  0  0  0  0  0  0  0  0
    7.7998    0.8329    0.0000 H   0  0  0  0  0  0  0  0  0  0  0  0
    7.7998   -0.8329    0.0000 H   0  0  0  0  0  0  0  0  0  0  0  0
    4.0576    2.2977    0.0000 H   0  0  0  0  0  0  0  0  0  0  0  0
    4.0576   -2.2977    0.0000 H   0  0  0  0  0  0  0  0  0  0  0  0
    6.8470    2.3527    0.0000 H   0  0  0  0  0  0  0  0  0  0  0  0
    6.8470   -2.3527    0.0000 H   0  0  0  0  0  0  0  0  0  0  0  0
    5.4367    3.1190    0.0000 H   0  0  0  0  0  0  0  0  0  0  0  0
    5.4367   -3.1190    0.0000 H   0  0  0  0  0  0  0  0  0  0  0  0
  1  3  1  0  0  0  0
  2  3  2  0  0  0  0
  3 10  1  0  0  0  0
  4  5  1  0  0  0  0
  4  6  1  0  0  0  0
  4  8  2  0  0  0  0
  5  7  1  0  0  0  0
  5  9  2  0  0  0  0
  6 10  1  0  0  0  0
  6 14  2  0  0  0  0
  7 11  1  0  0  0  0
  7 15  2  0  0  0  0
  8 12  1  0  0  0  0
  8 16  1  0  0  0  0
  9 13  1  0  0  0  0
  9 17  1  0  0  0  0
 10 11  2  0  0  0  0
 11 20  1  0  0  0  0
 12 13  2  0  0  0  0
 12 21  1  0  0  0  0
 13 22  1  0  0  0  0
 14 18  1  0  0  0  0
 14 23  1  0  0  0  0
 15 19  1  0  0  0  0
 15 24  1  0  0  0  0
 16 18  2  0  0  0  0
 16 25  1  0  0  0  0
 17 19  2  0  0  0  0
 17 26  1  0  0  0  0
 18 27  1  0  0  0  0
 19 28  1  0  0  0  0
M  CHG  2   1  -1   3   1
M  END
> <PUBCHEM_COMPOUND_CID>
62134

> <PUBCHEM_COMPOUND_CANONICALIZED>
1

> <PUBCHEM_CACTVS_COMPLEXITY>
377

> <PUBCHEM_CACTVS_HBOND_ACCEPTOR>
2

> <PUBCHEM_CACTVS_HBOND_DONOR>
0

> <PUBCHEM_CACTVS_ROTATABLE_BOND>
0

> <PUBCHEM_CACTVS_SUBSKEYS>
AAADccB6MAAAAAAAAAAAAAAAAAAAAAAAAAAwYMGAAAAAAADBVAAAHAAEAAAADAiBGAAwwMAQQACBAiRCQwCCAAAgAgAoiAAAZIoIICKAkZGAIABggAAIyAcQgMAOyAACQAASAACQAASAACQAAAAAAAAAAA==

> <PUBCHEM_IUPAC_OPENEYE_NAME>
4-nitropyrene

> <PUBCHEM_IUPAC_CAS_NAME>
4-nitropyrene

> <PUBCHEM_IUPAC_NAME>
4-nitropyrene

> <PUBCHEM_IUPAC_SYSTEMATIC_NAME>
4-nitropyrene

> <PUBCHEM_IUPAC_TRADITIONAL_NAME>
4-nitropyrene

> <PUBCHEM_IUPAC_INCHI>
InChI=1S/C16H9NO2/c18-17(19)14-9-12-5-1-3-10-7-8-11-4-2-6-13(14)16(11)15(10)12/h1-9H

> <PUBCHEM_IUPAC_INCHIKEY>
UISKIUIWPSPSAV-UHFFFAOYSA-N

> <PUBCHEM_XLOGP3_AA>
4.9

> <PUBCHEM_EXACT_MASS>
247.063329

> <PUBCHEM_MOLECULAR_FORMULA>
C16H9NO2

> <PUBCHEM_MOLECULAR_WEIGHT>
247.24816

> <PUBCHEM_OPENEYE_CAN_SMILES>
C1=CC2=C3C(=C1)C=C(C4=CC=CC(=C43)C=C2)[N+](=O)[O-]

> <PUBCHEM_OPENEYE_ISO_SMILES>
C1=CC2=C3C(=C1)C=C(C4=CC=CC(=C43)C=C2)[N+](=O)[O-]

> <PUBCHEM_CACTVS_TPSA>
45.8

> <PUBCHEM_MONOISOTOPIC_WEIGHT>
247.063329

> <PUBCHEM_TOTAL_CHARGE>
0

> <PUBCHEM_HEAVY_ATOM_COUNT>
19

> <PUBCHEM_ATOM_DEF_STEREO_COUNT>
0

> <PUBCHEM_ATOM_UDEF_STEREO_COUNT>
0

> <PUBCHEM_BOND_DEF_STEREO_COUNT>
0

> <PUBCHEM_BOND_UDEF_STEREO_COUNT>
0

> <PUBCHEM_ISOTOPIC_ATOM_COUNT>
0

> <PUBCHEM_COMPONENT_COUNT>
1

> <PUBCHEM_CACTVS_TAUTO_COUNT>
1

> <PUBCHEM_COORDINATE_TYPE>
1
5
255

> <PUBCHEM_BONDANNOTATIONS>
10  11  8
12  13  8
14  18  8
15  19  8
16  18  8
17  19  8
4  5  8
4  6  8
4  8  8
5  7  8
5  9  8
6  10  8
6  14  8
7  11  8
7  15  8
8  12  8
8  16  8
9  13  8
9  17  8

$$$$

