854292
  -OEChem-06241222473D

 28 28  0     1  0  0  0  0  0999 V2000
   -1.6453    0.0540   -1.3451 S   0  0  0  0  0  0  0  0  0  0  0  0
   -4.6672    0.8182    1.1217 O   0  0  0  0  0  0  0  0  0  0  0  0
   -4.5388    0.3288   -1.0866 O   0  0  0  0  0  0  0  0  0  0  0  0
    4.7709   -1.0255    0.1070 O   0  0  0  0  0  0  0  0  0  0  0  0
    4.7021    1.0993    0.9111 O   0  0  0  0  0  0  0  0  0  0  0  0
   -2.4924    0.3448    0.2415 C   0  0  2  0  0  0  0  0  0  0  0  0
   -2.1435   -0.7053    1.3097 C   0  0  0  0  0  0  0  0  0  0  0  0
    0.0683    0.0811   -0.8351 C   0  0  0  0  0  0  0  0  0  0  0  0
   -2.5325   -2.1487    1.0040 C   0  0  0  0  0  0  0  0  0  0  0  0
   -3.9857    0.4757   -0.0048 C   0  0  0  0  0  0  0  0  0  0  0  0
    0.5942    1.2232   -0.2380 C   0  0  0  0  0  0  0  0  0  0  0  0
    0.8680   -1.0400   -1.0376 C   0  0  0  0  0  0  0  0  0  0  0  0
    2.7362    0.1235   -0.0412 C   0  0  0  0  0  0  0  0  0  0  0  0
    1.9310    1.2445    0.1598 C   0  0  0  0  0  0  0  0  0  0  0  0
    2.2048   -1.0189   -0.6398 C   0  0  0  0  0  0  0  0  0  0  0  0
    4.1298    0.1455    0.3736 C   0  0  0  0  0  0  0  0  0  0  0  0
   -2.1709    1.3302    0.5992 H   0  0  0  0  0  0  0  0  0  0  0  0
   -2.6500   -0.4263    2.2433 H   0  0  0  0  0  0  0  0  0  0  0  0
   -1.0740   -0.6720    1.5471 H   0  0  0  0  0  0  0  0  0  0  0  0
   -1.9869   -2.5405    0.1410 H   0  0  0  0  0  0  0  0  0  0  0  0
   -3.6049   -2.2359    0.8045 H   0  0  0  0  0  0  0  0  0  0  0  0
   -2.2982   -2.7881    1.8615 H   0  0  0  0  0  0  0  0  0  0  0  0
   -0.0111    2.1119   -0.0805 H   0  0  0  0  0  0  0  0  0  0  0  0
    0.4694   -1.9387   -1.5017 H   0  0  0  0  0  0  0  0  0  0  0  0
    2.3266    2.1449    0.6225 H   0  0  0  0  0  0  0  0  0  0  0  0
    2.7957   -1.9135   -0.8148 H   0  0  0  0  0  0  0  0  0  0  0  0
   -5.6284    0.9154    0.9512 H   0  0  0  0  0  0  0  0  0  0  0  0
    5.7095   -1.0006    0.3909 H   0  0  0  0  0  0  0  0  0  0  0  0
  1  6  1  0  0  0  0
  1  8  1  0  0  0  0
  2 10  1  0  0  0  0
  2 27  1  0  0  0  0
  3 10  2  0  0  0  0
  4 16  1  0  0  0  0
  4 28  1  0  0  0  0
  5 16  2  0  0  0  0
  6  7  1  0  0  0  0
  6 10  1  0  0  0  0
  6 17  1  0  0  0  0
  7  9  1  0  0  0  0
  7 18  1  0  0  0  0
  7 19  1  0  0  0  0
  8 11  2  0  0  0  0
  8 12  1  0  0  0  0
  9 20  1  0  0  0  0
  9 21  1  0  0  0  0
  9 22  1  0  0  0  0
 11 14  1  0  0  0  0
 11 23  1  0  0  0  0
 12 15  2  0  0  0  0
 12 24  1  0  0  0  0
 13 14  2  0  0  0  0
 13 15  1  0  0  0  0
 13 16  1  0  0  0  0
 14 25  1  0  0  0  0
 15 26  1  0  0  0  0
M  END
> <PUBCHEM_COMPOUND_CID>
854292

> <PUBCHEM_CONFORMER_RMSD>
0.6

> <PUBCHEM_CONFORMER_DIVERSEORDER>
1
12
10
20
8
3
15
7
25
22
23
16
4
9
24
21
13
26
6
19
5
11
17
18
14
2

> <PUBCHEM_MMFF94_PARTIAL_CHARGES>
20
1 -0.33
10 0.66
11 -0.15
12 -0.15
13 0.09
14 -0.15
15 -0.15
16 0.63
2 -0.65
23 0.15
24 0.15
25 0.15
26 0.15
27 0.5
28 0.5
3 -0.57
4 -0.65
5 -0.57
6 0.29
8 0.1

> <PUBCHEM_EFFECTIVE_ROTOR_COUNT>
5

> <PUBCHEM_PHARMACOPHORE_FEATURES>
8
1 2 acceptor
1 3 acceptor
1 4 acceptor
1 5 acceptor
1 9 hydrophobe
3 2 3 10 anion
3 4 5 16 anion
6 8 11 12 13 14 15 rings

> <PUBCHEM_HEAVY_ATOM_COUNT>
16

> <PUBCHEM_ATOM_DEF_STEREO_COUNT>
1

> <PUBCHEM_ATOM_UDEF_STEREO_COUNT>
0

> <PUBCHEM_BOND_DEF_STEREO_COUNT>
0

> <PUBCHEM_BOND_UDEF_STEREO_COUNT>
0

> <PUBCHEM_ISOTOPIC_ATOM_COUNT>
0

> <PUBCHEM_COMPONENT_COUNT>
1

> <PUBCHEM_CACTVS_TAUTO_COUNT>
1

> <PUBCHEM_CONFORMER_ID>
000D091400000001

> <PUBCHEM_MMFF94_ENERGY>
37.752

> <PUBCHEM_FEATURE_SELFOVERLAP>
40.712

> <PUBCHEM_SHAPE_FINGERPRINT>
10498660 4 5400535528007209371
11132069 177 18131351899276601742
12119455 92 18259708912414947302
12236239 1 16950568791491336581
12251169 10 18273211989014347741
12346177 29 17989208097401246203
124424 183 18342739611154994845
12500047 106 17988929963718979815
12633257 1 18271517637538614401
12916748 109 5761649300306728542
13675066 3 18333450924281318892
14115302 16 17632849837023221062
14350574 20 10952044572126457276
15375358 24 18411982472463195623
15375462 189 16487263153221629288
15775835 57 16877660175606490493
19422 9 13901894606029858269
200 152 17749115465541894743
20112054 13 18187086131014577460
20279233 1 18341607122768424183
20300324 65 6338957758826687507
20600515 1 18131339830687902821
20645477 70 17967533527693483454
20871999 31 7637130225599196939
21501502 16 17844234130229102237
22169311 14 18343017765990097433
22485316 2 17775006778042428416
22854114 59 18113620088277458180
23048698 100 16877940568161843430
232386 152 16773788173784953375
23402539 116 18412552020204042501
23559900 14 18201714068560936190
26918003 58 18413393137766477512
296302 2 17748824133441153201
351380 180 18335424573386271713
4028521 119 5184068098409837913
5281201 14 8935005880134801234
69090 78 18342455929203605323

> <PUBCHEM_SHAPE_MULTIPOLES>
309.64
9.43
1.45
1.24
1.42
0.61
0.1
-0.77
-2.45
-0.34
-0.27
-0.6
0.08
0.8

> <PUBCHEM_SHAPE_SELFOVERLAP>
623.342

> <PUBCHEM_SHAPE_VOLUME>
182.3

> <PUBCHEM_COORDINATE_TYPE>
2
5
10

$$$$

