8341
  -OEChem-07051213053D

 26 28  0     0  0  0  0  0  0999 V2000
   -0.0719    2.6052   -0.0012 O   0  0  0  0  0  0  0  0  0  0  0  0
   -0.5186   -2.7208   -0.0012 O   0  0  0  0  0  0  0  0  0  0  0  0
    4.7213    0.9259    0.0003 N   0  0  0  0  0  0  0  0  0  0  0  0
    1.0320    0.5313   -0.0002 C   0  0  0  0  0  0  0  0  0  0  0  0
    0.9150   -0.8602   -0.0003 C   0  0  0  0  0  0  0  0  0  0  0  0
   -1.5051    0.7445   -0.0003 C   0  0  0  0  0  0  0  0  0  0  0  0
   -1.6221   -0.6470   -0.0001 C   0  0  0  0  0  0  0  0  0  0  0  0
   -0.1738    1.3846   -0.0005 C   0  0  0  0  0  0  0  0  0  0  0  0
   -0.4163   -1.5003    0.0000 C   0  0  0  0  0  0  0  0  0  0  0  0
    2.2997    1.1254    0.0004 C   0  0  0  0  0  0  0  0  0  0  0  0
    2.0658   -1.6577   -0.0001 C   0  0  0  0  0  0  0  0  0  0  0  0
   -2.6559    1.5419    0.0000 C   0  0  0  0  0  0  0  0  0  0  0  0
   -2.8898   -1.2411    0.0004 C   0  0  0  0  0  0  0  0  0  0  0  0
    3.4439    0.3270    0.0008 C   0  0  0  0  0  0  0  0  0  0  0  0
    3.3271   -1.0616    0.0005 C   0  0  0  0  0  0  0  0  0  0  0  0
   -3.9173    0.9458    0.0007 C   0  0  0  0  0  0  0  0  0  0  0  0
   -4.0340   -0.4428    0.0009 C   0  0  0  0  0  0  0  0  0  0  0  0
    2.4044    2.2079    0.0005 H   0  0  0  0  0  0  0  0  0  0  0  0
    2.0014   -2.7424   -0.0002 H   0  0  0  0  0  0  0  0  0  0  0  0
   -2.5919    2.6267   -0.0001 H   0  0  0  0  0  0  0  0  0  0  0  0
   -3.0076   -2.3215    0.0006 H   0  0  0  0  0  0  0  0  0  0  0  0
    4.2125   -1.6924    0.0005 H   0  0  0  0  0  0  0  0  0  0  0  0
   -4.8097    1.5651    0.0010 H   0  0  0  0  0  0  0  0  0  0  0  0
   -5.0172   -0.9045    0.0014 H   0  0  0  0  0  0  0  0  0  0  0  0
    5.5512    0.3480    0.0022 H   0  0  0  0  0  0  0  0  0  0  0  0
    4.8081    1.9335    0.0022 H   0  0  0  0  0  0  0  0  0  0  0  0
  1  8  2  0  0  0  0
  2  9  2  0  0  0  0
  3 14  1  0  0  0  0
  3 25  1  0  0  0  0
  3 26  1  0  0  0  0
  4  5  2  0  0  0  0
  4  8  1  0  0  0  0
  4 10  1  0  0  0  0
  5  9  1  0  0  0  0
  5 11  1  0  0  0  0
  6  7  1  0  0  0  0
  6  8  1  0  0  0  0
  6 12  2  0  0  0  0
  7  9  1  0  0  0  0
  7 13  2  0  0  0  0
 10 14  2  0  0  0  0
 10 18  1  0  0  0  0
 11 15  2  0  0  0  0
 11 19  1  0  0  0  0
 12 16  1  0  0  0  0
 12 20  1  0  0  0  0
 13 17  1  0  0  0  0
 13 21  1  0  0  0  0
 14 15  1  0  0  0  0
 15 22  1  0  0  0  0
 16 17  2  0  0  0  0
 16 23  1  0  0  0  0
 17 24  1  0  0  0  0
M  END
> <PUBCHEM_COMPOUND_CID>
8341

> <PUBCHEM_CONFORMER_RMSD>
0.4

> <PUBCHEM_CONFORMER_DIVERSEORDER>
1

> <PUBCHEM_MMFF94_PARTIAL_CHARGES>
26
1 -0.57
10 -0.15
11 -0.15
12 -0.15
13 -0.15
14 0.1
15 -0.15
16 -0.15
17 -0.15
18 0.15
19 0.15
2 -0.57
20 0.15
21 0.15
22 0.15
23 0.15
24 0.15
25 0.4
26 0.4
3 -0.9
4 0.09
5 0.09
6 0.09
7 0.09
8 0.4
9 0.4

> <PUBCHEM_EFFECTIVE_ROTOR_COUNT>
0

> <PUBCHEM_PHARMACOPHORE_FEATURES>
7
1 1 acceptor
1 2 acceptor
1 3 cation
1 3 donor
6 4 5 10 11 14 15 rings
6 4 5 6 7 8 9 rings
6 6 7 12 13 16 17 rings

> <PUBCHEM_HEAVY_ATOM_COUNT>
17

> <PUBCHEM_ATOM_DEF_STEREO_COUNT>
0

> <PUBCHEM_ATOM_UDEF_STEREO_COUNT>
0

> <PUBCHEM_BOND_DEF_STEREO_COUNT>
0

> <PUBCHEM_BOND_UDEF_STEREO_COUNT>
0

> <PUBCHEM_ISOTOPIC_ATOM_COUNT>
0

> <PUBCHEM_COMPONENT_COUNT>
1

> <PUBCHEM_CACTVS_TAUTO_COUNT>
5

> <PUBCHEM_CONFORMER_ID>
0000209500000001

> <PUBCHEM_MMFF94_ENERGY>
60.7057

> <PUBCHEM_FEATURE_SELFOVERLAP>
35.562

> <PUBCHEM_SHAPE_FINGERPRINT>
10411042 1 15960896894510778022
10608611 8 18410577313767215637
10967382 1 18410856593999592902
11132069 177 18409453604293453729
11471102 20 18410860983466673614
11680986 33 17977950081442338113
11806522 49 18410296870125851711
12032990 46 18410568504942155399
12403814 3 17561369465146837165
13132413 78 18409448059527942317
13140716 1 18267018547484259211
13221675 6 18410856546791947382
13380535 76 18410011026756191086
14144814 61 18410855473028927059
15196674 1 18410855485913861287
15309172 13 18409440401875371739
15442244 35 18122626321212238346
15536298 74 18334575780447870022
15775835 57 18410008853365231979
16945 1 18194401091558506151
18186145 218 18337105782167088492
193761 8 17834394518978072065
19591789 44 18410855481661670151
200 152 18113909247536100669
20510252 161 18261109711698497144
21029758 11 18334299734362796417
21029758 27 18201430325256080245
21249577 43 18411136948158579399
21267235 1 18410846664040778126
21501502 16 18265615557577568626
2334 1 18410575084853047939
23402539 116 18334022674327363366
23402655 69 18334582377533493653
23463225 33 18412825815029913973
23559900 14 18334576880492260758
2748010 2 18410572915905132583
335352 9 17906453577610430367
34934 24 18410863161009824263
43471831 8 18342177829290747155
474 4 17130699471416166916
5104073 3 18411418444473022938
528886 8 18410298029249953043
537710 114 18411414007761528620
53812653 166 18334860502145576024
54173680 148 18124031222121016427
69090 78 18335706030882393839
7364860 26 18191870019970840849
8809292 202 18343858931219685819
9709674 26 18409161104352472326

> <PUBCHEM_SHAPE_MULTIPOLES>
333.13
7
2.28
0.6
1.28
0.21
0
-0.93
0
-0.14
0
-0.02
0
0

> <PUBCHEM_SHAPE_SELFOVERLAP>
754.95

> <PUBCHEM_SHAPE_VOLUME>
173.1

> <PUBCHEM_COORDINATE_TYPE>
2
5
10

$$$$

