585173
  -OEChem-06241222452D

 47 50  0     1  0  0  0  0  0999 V2000
    5.6489   -2.5346    0.0000 O   0  0  0  0  0  0  0  0  0  0  0  0
    2.0000   -1.5177    0.0000 O   0  0  0  0  0  0  0  0  0  0  0  0
    7.3931    0.5346    0.0000 C   0  0  3  0  0  0  0  0  0  0  0  0
    7.3931    1.5346    0.0000 C   0  0  3  0  0  0  0  0  0  0  0  0
    6.5271    0.0346    0.0000 C   0  0  3  0  0  0  0  0  0  0  0  0
    5.6610    0.5346    0.0000 C   0  0  3  0  0  0  0  0  0  0  0  0
    4.7510    0.0278    0.0000 C   0  0  3  0  0  0  0  0  0  0  0  0
    6.5271    2.0346    0.0000 C   0  0  0  0  0  0  0  0  0  0  0  0
    5.6610    1.5346    0.0000 C   0  0  0  0  0  0  0  0  0  0  0  0
    8.3393    0.2299    0.0000 C   0  0  0  0  0  0  0  0  0  0  0  0
    8.3393    1.8394    0.0000 C   0  0  0  0  0  0  0  0  0  0  0  0
    8.9229    1.0346    0.0000 C   0  0  0  0  0  0  0  0  0  0  0  0
    6.5431   -1.0069    0.0000 C   0  0  0  0  0  0  0  0  0  0  0  0
    7.3931    2.5346    0.0000 C   0  0  0  0  0  0  0  0  0  0  0  0
    4.7430   -1.0138    0.0000 C   0  0  0  0  0  0  0  0  0  0  0  0
    3.8242    0.5919    0.0000 C   0  0  0  0  0  0  0  0  0  0  0  0
    5.6451   -1.5346    0.0000 C   0  0  0  0  0  0  0  0  0  0  0  0
    4.7587    1.0278    0.0000 C   0  0  0  0  0  0  0  0  0  0  0  0
    2.8763    0.0639    0.0000 C   0  0  0  0  0  0  0  0  0  0  0  0
    3.8076   -1.5635    0.0000 C   0  0  0  0  0  0  0  0  0  0  0  0
    2.8680   -1.0210    0.0000 C   0  0  0  0  0  0  0  0  0  0  0  0
    7.4830   -0.3106    0.0000 H   0  0  0  0  0  0  0  0  0  0  0  0
    7.2664   -0.3847    0.0000 H   0  0  0  0  0  0  0  0  0  0  0  0
    6.3972    0.9596    0.0000 H   0  0  0  0  0  0  0  0  0  0  0  0
    6.9256    2.5096    0.0000 H   0  0  0  0  0  0  0  0  0  0  0  0
    6.1285    2.5096    0.0000 H   0  0  0  0  0  0  0  0  0  0  0  0
    5.4490    2.1172    0.0000 H   0  0  0  0  0  0  0  0  0  0  0  0
    5.0504    1.4270    0.0000 H   0  0  0  0  0  0  0  0  0  0  0  0
    8.0883   -0.3370    0.0000 H   0  0  0  0  0  0  0  0  0  0  0  0
    8.8767   -0.0793    0.0000 H   0  0  0  0  0  0  0  0  0  0  0  0
    8.8767    2.1486    0.0000 H   0  0  0  0  0  0  0  0  0  0  0  0
    8.0883    2.4063    0.0000 H   0  0  0  0  0  0  0  0  0  0  0  0
    9.3838    0.6199    0.0000 H   0  0  0  0  0  0  0  0  0  0  0  0
    9.3838    1.4494    0.0000 H   0  0  0  0  0  0  0  0  0  0  0  0
    6.7612   -1.5873    0.0000 H   0  0  0  0  0  0  0  0  0  0  0  0
    7.1523   -0.8914    0.0000 H   0  0  0  0  0  0  0  0  0  0  0  0
    8.0131    2.5346    0.0000 H   0  0  0  0  0  0  0  0  0  0  0  0
    7.3931    3.1546    0.0000 H   0  0  0  0  0  0  0  0  0  0  0  0
    6.7731    2.5346    0.0000 H   0  0  0  0  0  0  0  0  0  0  0  0
    4.2324    1.0585    0.0000 H   0  0  0  0  0  0  0  0  0  0  0  0
    3.4343    1.0739    0.0000 H   0  0  0  0  0  0  0  0  0  0  0  0
    5.3787    1.0230    0.0000 H   0  0  0  0  0  0  0  0  0  0  0  0
    4.7635    1.6477    0.0000 H   0  0  0  0  0  0  0  0  0  0  0  0
    4.1388    1.0325    0.0000 H   0  0  0  0  0  0  0  0  0  0  0  0
    2.6718    0.6492    0.0000 H   0  0  0  0  0  0  0  0  0  0  0  0
    2.2647   -0.0375    0.0000 H   0  0  0  0  0  0  0  0  0  0  0  0
    3.8100   -2.1835    0.0000 H   0  0  0  0  0  0  0  0  0  0  0  0
  1 17  2  0  0  0  0
  2 21  2  0  0  0  0
  3  4  1  0  0  0  0
  3  5  1  0  0  0  0
  3 10  1  0  0  0  0
  3 22  1  0  0  0  0
  4  8  1  0  0  0  0
  4 11  1  0  0  0  0
  4 14  1  0  0  0  0
  5  6  1  0  0  0  0
  5 13  1  0  0  0  0
  5 23  1  0  0  0  0
  6  7  1  0  0  0  0
  6  9  1  0  0  0  0
  6 24  1  0  0  0  0
  7 15  1  0  0  0  0
  7 16  1  0  0  0  0
  7 18  1  0  0  0  0
  8  9  1  0  0  0  0
  8 25  1  0  0  0  0
  8 26  1  0  0  0  0
  9 27  1  0  0  0  0
  9 28  1  0  0  0  0
 10 12  1  0  0  0  0
 10 29  1  0  0  0  0
 10 30  1  0  0  0  0
 11 12  1  0  0  0  0
 11 31  1  0  0  0  0
 11 32  1  0  0  0  0
 12 33  1  0  0  0  0
 12 34  1  0  0  0  0
 13 17  1  0  0  0  0
 13 35  1  0  0  0  0
 13 36  1  0  0  0  0
 14 37  1  0  0  0  0
 14 38  1  0  0  0  0
 14 39  1  0  0  0  0
 15 17  1  0  0  0  0
 15 20  2  0  0  0  0
 16 19  1  0  0  0  0
 16 40  1  0  0  0  0
 16 41  1  0  0  0  0
 18 42  1  0  0  0  0
 18 43  1  0  0  0  0
 18 44  1  0  0  0  0
 19 21  1  0  0  0  0
 19 45  1  0  0  0  0
 19 46  1  0  0  0  0
 20 21  1  0  0  0  0
 20 47  1  0  0  0  0
M  END
> <PUBCHEM_COMPOUND_CID>
585173

> <PUBCHEM_COMPOUND_CANONICALIZED>
1

> <PUBCHEM_CACTVS_COMPLEXITY>
546

> <PUBCHEM_CACTVS_HBOND_ACCEPTOR>
2

> <PUBCHEM_CACTVS_HBOND_DONOR>
0

> <PUBCHEM_CACTVS_ROTATABLE_BOND>
0

> <PUBCHEM_CACTVS_SUBSKEYS>
AAADceB4MAAAAAAAAAAAAAAAAAAAAYAAAAAwYIAAAAAAAGDAAAAAGgAAAAAADwSAgAACAAAAAACIAqBSAAAAAAAgAAAACAEAAEgAABIAAAAAAAAAgAAIAYMIiMCPgAAAAAAAAACAAAQAACAAAAAACAAAAA==

> <PUBCHEM_IUPAC_OPENEYE_NAME>
10,13-dimethyl-2,7,8,9,11,12,14,15,16,17-decahydro-1H-cyclopenta[a]phenanthrene-3,6-dione

> <PUBCHEM_IUPAC_CAS_NAME>
10,13-dimethyl-2,7,8,9,11,12,14,15,16,17-decahydro-1H-cyclopenta[a]phenanthrene-3,6-dione

> <PUBCHEM_IUPAC_NAME>
10,13-dimethyl-2,7,8,9,11,12,14,15,16,17-decahydro-1H-cyclopenta[a]phenanthrene-3,6-dione

> <PUBCHEM_IUPAC_SYSTEMATIC_NAME>
10,13-dimethyl-2,7,8,9,11,12,14,15,16,17-decahydro-1H-cyclopenta[a]phenanthrene-3,6-dione

> <PUBCHEM_IUPAC_TRADITIONAL_NAME>
10,13-dimethyl-2,7,8,9,11,12,14,15,16,17-decahydro-1H-cyclopenta[a]phenanthrene-3,6-quinone

> <PUBCHEM_IUPAC_INCHI>
InChI=1S/C19H26O2/c1-18-7-3-4-14(18)13-11-17(21)16-10-12(20)5-9-19(16,2)15(13)6-8-18/h10,13-15H,3-9,11H2,1-2H3

> <PUBCHEM_IUPAC_INCHIKEY>
AGHRVPJHGYJPGR-UHFFFAOYSA-N

> <PUBCHEM_XLOGP3_AA>
4.1

> <PUBCHEM_EXACT_MASS>
286.19328

> <PUBCHEM_MOLECULAR_FORMULA>
C19H26O2

> <PUBCHEM_MOLECULAR_WEIGHT>
286.40854

> <PUBCHEM_OPENEYE_CAN_SMILES>
CC12CCCC1C3CC(=O)C4=CC(=O)CCC4(C3CC2)C

> <PUBCHEM_OPENEYE_ISO_SMILES>
CC12CCCC1C3CC(=O)C4=CC(=O)CCC4(C3CC2)C

> <PUBCHEM_CACTVS_TPSA>
34.1

> <PUBCHEM_MONOISOTOPIC_WEIGHT>
286.19328

> <PUBCHEM_TOTAL_CHARGE>
0

> <PUBCHEM_HEAVY_ATOM_COUNT>
21

> <PUBCHEM_ATOM_DEF_STEREO_COUNT>
0

> <PUBCHEM_ATOM_UDEF_STEREO_COUNT>
5

> <PUBCHEM_BOND_DEF_STEREO_COUNT>
0

> <PUBCHEM_BOND_UDEF_STEREO_COUNT>
0

> <PUBCHEM_ISOTOPIC_ATOM_COUNT>
0

> <PUBCHEM_COMPONENT_COUNT>
1

> <PUBCHEM_CACTVS_TAUTO_COUNT>
34

> <PUBCHEM_COORDINATE_TYPE>
1
5
255

> <PUBCHEM_BONDANNOTATIONS>
3  22  3
4  14  3
5  23  3
6  24  3
7  18  3

$$$$

