5281117
  -OEChem-07051212552D

 53 52  0     1  0  0  0  0  0999 V2000
    5.1350   -1.2500    0.0000 O   0  0  0  0  0  0  0  0  0  0  0  0
   12.0632   -2.2500    0.0000 O   0  0  0  0  0  0  0  0  0  0  0  0
   11.1972   -3.7500    0.0000 O   0  0  0  0  0  0  0  0  0  0  0  0
    7.7331   -2.7500    0.0000 C   0  0  0  0  0  0  0  0  0  0  0  0
    6.8671   -2.2500    0.0000 C   0  0  0  0  0  0  0  0  0  0  0  0
    8.5991   -2.2500    0.0000 C   0  0  0  0  0  0  0  0  0  0  0  0
    6.0010   -2.7500    0.0000 C   0  0  0  0  0  0  0  0  0  0  0  0
    9.4651   -2.7500    0.0000 C   0  0  0  0  0  0  0  0  0  0  0  0
    5.1350   -2.2500    0.0000 C   0  0  2  0  0  0  0  0  0  0  0  0
   10.3312   -2.2500    0.0000 C   0  0  0  0  0  0  0  0  0  0  0  0
    4.2690   -2.7500    0.0000 C   0  0  0  0  0  0  0  0  0  0  0  0
    3.4030    1.7500    0.0000 C   0  0  0  0  0  0  0  0  0  0  0  0
    4.2690    2.2500    0.0000 C   0  0  0  0  0  0  0  0  0  0  0  0
    3.4030    0.7500    0.0000 C   0  0  0  0  0  0  0  0  0  0  0  0
    4.2690    3.2500    0.0000 C   0  0  0  0  0  0  0  0  0  0  0  0
    3.4030   -2.2500    0.0000 C   0  0  0  0  0  0  0  0  0  0  0  0
    3.4030   -1.2500    0.0000 C   0  0  0  0  0  0  0  0  0  0  0  0
    2.5369    0.2500    0.0000 C   0  0  0  0  0  0  0  0  0  0  0  0
   11.1972   -2.7500    0.0000 C   0  0  0  0  0  0  0  0  0  0  0  0
    2.5369   -0.7500    0.0000 C   0  0  0  0  0  0  0  0  0  0  0  0
    5.1350    3.7500    0.0000 C   0  0  0  0  0  0  0  0  0  0  0  0
    7.3346   -3.2250    0.0000 H   0  0  0  0  0  0  0  0  0  0  0  0
    8.1316   -3.2250    0.0000 H   0  0  0  0  0  0  0  0  0  0  0  0
    7.2656   -1.7750    0.0000 H   0  0  0  0  0  0  0  0  0  0  0  0
    6.4685   -1.7750    0.0000 H   0  0  0  0  0  0  0  0  0  0  0  0
    8.9976   -1.7750    0.0000 H   0  0  0  0  0  0  0  0  0  0  0  0
    8.2006   -1.7750    0.0000 H   0  0  0  0  0  0  0  0  0  0  0  0
    5.6025   -3.2250    0.0000 H   0  0  0  0  0  0  0  0  0  0  0  0
    6.3996   -3.2250    0.0000 H   0  0  0  0  0  0  0  0  0  0  0  0
    9.0666   -3.2250    0.0000 H   0  0  0  0  0  0  0  0  0  0  0  0
    9.8637   -3.2250    0.0000 H   0  0  0  0  0  0  0  0  0  0  0  0
    5.6720   -1.9400    0.0000 H   0  0  0  0  0  0  0  0  0  0  0  0
   10.7297   -1.7750    0.0000 H   0  0  0  0  0  0  0  0  0  0  0  0
    9.9326   -1.7750    0.0000 H   0  0  0  0  0  0  0  0  0  0  0  0
    4.2690   -3.3700    0.0000 H   0  0  0  0  0  0  0  0  0  0  0  0
    3.1909    2.3326    0.0000 H   0  0  0  0  0  0  0  0  0  0  0  0
    2.7924    1.6423    0.0000 H   0  0  0  0  0  0  0  0  0  0  0  0
    4.4810    1.6674    0.0000 H   0  0  0  0  0  0  0  0  0  0  0  0
    4.8796    2.3577    0.0000 H   0  0  0  0  0  0  0  0  0  0  0  0
    3.6150    0.1674    0.0000 H   0  0  0  0  0  0  0  0  0  0  0  0
    4.0135    0.8577    0.0000 H   0  0  0  0  0  0  0  0  0  0  0  0
    4.0569    3.8326    0.0000 H   0  0  0  0  0  0  0  0  0  0  0  0
    3.6584    3.1423    0.0000 H   0  0  0  0  0  0  0  0  0  0  0  0
    2.8660   -2.5600    0.0000 H   0  0  0  0  0  0  0  0  0  0  0  0
    4.0135   -1.3577    0.0000 H   0  0  0  0  0  0  0  0  0  0  0  0
    3.6150   -0.6674    0.0000 H   0  0  0  0  0  0  0  0  0  0  0  0
    5.6720   -0.9400    0.0000 H   0  0  0  0  0  0  0  0  0  0  0  0
    2.0000    0.5600    0.0000 H   0  0  0  0  0  0  0  0  0  0  0  0
    2.0000   -1.0600    0.0000 H   0  0  0  0  0  0  0  0  0  0  0  0
    5.4450    3.2131    0.0000 H   0  0  0  0  0  0  0  0  0  0  0  0
    5.6720    4.0600    0.0000 H   0  0  0  0  0  0  0  0  0  0  0  0
    4.8250    4.2869    0.0000 H   0  0  0  0  0  0  0  0  0  0  0  0
   12.6002   -2.5600    0.0000 H   0  0  0  0  0  0  0  0  0  0  0  0
  9  1  1  6  0  0  0
  1 47  1  0  0  0  0
  2 19  1  0  0  0  0
  2 53  1  0  0  0  0
  3 19  2  0  0  0  0
  4  5  1  0  0  0  0
  4  6  1  0  0  0  0
  4 22  1  0  0  0  0
  4 23  1  0  0  0  0
  5  7  1  0  0  0  0
  5 24  1  0  0  0  0
  5 25  1  0  0  0  0
  6  8  1  0  0  0  0
  6 26  1  0  0  0  0
  6 27  1  0  0  0  0
  7  9  1  0  0  0  0
  7 28  1  0  0  0  0
  7 29  1  0  0  0  0
  8 10  1  0  0  0  0
  8 30  1  0  0  0  0
  8 31  1  0  0  0  0
  9 11  1  0  0  0  0
  9 32  1  0  0  0  0
 10 19  1  0  0  0  0
 10 33  1  0  0  0  0
 10 34  1  0  0  0  0
 11 16  2  0  0  0  0
 11 35  1  0  0  0  0
 12 13  1  0  0  0  0
 12 14  1  0  0  0  0
 12 36  1  0  0  0  0
 12 37  1  0  0  0  0
 13 15  1  0  0  0  0
 13 38  1  0  0  0  0
 13 39  1  0  0  0  0
 14 18  1  0  0  0  0
 14 40  1  0  0  0  0
 14 41  1  0  0  0  0
 15 21  1  0  0  0  0
 15 42  1  0  0  0  0
 15 43  1  0  0  0  0
 16 17  1  0  0  0  0
 16 44  1  0  0  0  0
 17 20  1  0  0  0  0
 17 45  1  0  0  0  0
 17 46  1  0  0  0  0
 18 20  2  0  0  0  0
 18 48  1  0  0  0  0
 20 49  1  0  0  0  0
 21 50  1  0  0  0  0
 21 51  1  0  0  0  0
 21 52  1  0  0  0  0
M  END
> <PUBCHEM_COMPOUND_CID>
5281117

> <PUBCHEM_COMPOUND_CANONICALIZED>
1

> <PUBCHEM_CACTVS_COMPLEXITY>
295

> <PUBCHEM_CACTVS_HBOND_ACCEPTOR>
3

> <PUBCHEM_CACTVS_HBOND_DONOR>
2

> <PUBCHEM_CACTVS_ROTATABLE_BOND>
14

> <PUBCHEM_CACTVS_SUBSKEYS>
AAADcfB4MAAAAAAAAAAAAAAAAAAAAAAAAAAAAAAAAAAAAAAAAAAAGgAACAAACBSggAICCAAAAgCIACDSCAAAAAAgAAAICAEAAAgAFBIAAQAAUAAEgAAIEAOIyKCAAAAAAAAAAAAAAAAAAAAAAAAAAAAAAA==

> <PUBCHEM_IUPAC_OPENEYE_NAME>
(8R,9Z,12Z)-8-hydroxyoctadeca-9,12-dienoic acid

> <PUBCHEM_IUPAC_CAS_NAME>
(8R,9Z,12Z)-8-hydroxyoctadeca-9,12-dienoic acid

> <PUBCHEM_IUPAC_NAME>
(8R,9Z,12Z)-8-hydroxyoctadeca-9,12-dienoic acid

> <PUBCHEM_IUPAC_SYSTEMATIC_NAME>
(8R,9Z,12Z)-8-oxidanyloctadeca-9,12-dienoic acid

> <PUBCHEM_IUPAC_TRADITIONAL_NAME>
(8R,9Z,12Z)-8-hydroxyoctadeca-9,12-dienoic acid

> <PUBCHEM_IUPAC_INCHI>
InChI=1S/C18H32O3/c1-2-3-4-5-6-7-8-11-14-17(19)15-12-9-10-13-16-18(20)21/h6-7,11,14,17,19H,2-5,8-10,12-13,15-16H2,1H3,(H,20,21)/b7-6-,14-11-/t17-/m0/s1

> <PUBCHEM_IUPAC_INCHIKEY>
UKRXAPMQXXXXTD-QMEIEYGNSA-N

> <PUBCHEM_XLOGP3_AA>
5.1

> <PUBCHEM_EXACT_MASS>
296.235145

> <PUBCHEM_MOLECULAR_FORMULA>
C18H32O3

> <PUBCHEM_MOLECULAR_WEIGHT>
296.44488

> <PUBCHEM_OPENEYE_CAN_SMILES>
CCCCCC=CCC=CC(CCCCCCC(=O)O)O

> <PUBCHEM_OPENEYE_ISO_SMILES>
CCCCC/C=C\C/C=C\[C@@H](CCCCCCC(=O)O)O

> <PUBCHEM_CACTVS_TPSA>
57.5

> <PUBCHEM_MONOISOTOPIC_WEIGHT>
296.235145

> <PUBCHEM_TOTAL_CHARGE>
0

> <PUBCHEM_HEAVY_ATOM_COUNT>
21

> <PUBCHEM_ATOM_DEF_STEREO_COUNT>
1

> <PUBCHEM_ATOM_UDEF_STEREO_COUNT>
0

> <PUBCHEM_BOND_DEF_STEREO_COUNT>
2

> <PUBCHEM_BOND_UDEF_STEREO_COUNT>
0

> <PUBCHEM_ISOTOPIC_ATOM_COUNT>
0

> <PUBCHEM_COMPONENT_COUNT>
1

> <PUBCHEM_CACTVS_TAUTO_COUNT>
1

> <PUBCHEM_COORDINATE_TYPE>
1
5
255

> <PUBCHEM_BONDANNOTATIONS>
9  1  6

$$$$

