56928101
  -OEChem-07051213153D

 74 78  0     1  0  0  0  0  0999 V2000
    2.8138    1.8719    0.6559 O   0  0  0  0  0  0  0  0  0  0  0  0
   -7.4255   -0.3850   -0.0835 O   0  0  0  0  0  0  0  0  0  0  0  0
    7.2162   -1.9483   -0.2982 O   0  0  0  0  0  0  0  0  0  0  0  0
   -0.6050    0.9158    0.5465 C   0  0  2  0  0  0  0  0  0  0  0  0
    0.3144   -0.3269    0.5582 C   0  0  1  0  0  0  0  0  0  0  0  0
   -1.7791    0.7784   -0.4288 C   0  0  1  0  0  0  0  0  0  0  0  0
   -2.6398   -0.4551   -0.0018 C   0  0  1  0  0  0  0  0  0  0  0  0
   -3.8998   -0.6435   -0.9286 C   0  0  2  0  0  0  0  0  0  0  0  0
    1.3842    0.1543    1.5751 C   0  0  2  0  0  0  0  0  0  0  0  0
   -0.5221   -1.5208    1.0402 C   0  0  0  0  0  0  0  0  0  0  0  0
    0.3760    2.0732    0.3759 C   0  0  0  0  0  0  0  0  0  0  0  0
   -1.7744   -1.7337    0.1691 C   0  0  0  0  0  0  0  0  0  0  0  0
   -4.7271    0.6856   -0.9606 C   0  0  2  0  0  0  0  0  0  0  0  0
    1.5426    1.6655    1.2898 C   0  0  2  0  0  0  0  0  0  0  0  0
   -2.6229    2.0586   -0.4724 C   0  0  0  0  0  0  0  0  0  0  0  0
   -3.8645    1.9001   -1.3448 C   0  0  0  0  0  0  0  0  0  0  0  0
   -4.8293   -1.7930   -0.4425 C   0  0  0  0  0  0  0  0  0  0  0  0
    0.9325   -0.6575   -0.8266 C   0  0  0  0  0  0  0  0  0  0  0  0
   -5.4697    0.9610    0.3691 C   0  0  0  0  0  0  0  0  0  0  0  0
    2.7938   -0.3014    1.4439 C   0  0  0  0  0  0  0  0  0  0  0  0
   -3.4760   -1.0178   -2.3731 C   0  0  0  0  0  0  0  0  0  0  0  0
   -5.5351   -1.5070    0.8817 C   0  0  0  0  0  0  0  0  0  0  0  0
   -6.3364   -0.2119    0.8208 C   0  0  2  0  0  0  0  0  0  0  0  0
    3.5218    0.6998    0.9381 C   0  0  0  0  0  0  0  0  0  0  0  0
    3.2019   -1.6685    1.8596 C   0  0  0  0  0  0  0  0  0  0  0  0
    4.9700    0.7290    0.6019 C   0  0  0  0  0  0  0  0  0  0  0  0
    5.2337    0.2598   -0.8331 C   0  0  0  0  0  0  0  0  0  0  0  0
    6.7285    0.2529   -1.2149 C   0  0  1  0  0  0  0  0  0  0  0  0
    7.5976   -0.5803   -0.2634 C   0  0  0  0  0  0  0  0  0  0  0  0
    6.8797   -0.2549   -2.6535 C   0  0  0  0  0  0  0  0  0  0  0  0
   -1.0437    1.0335    1.5521 H   0  0  0  0  0  0  0  0  0  0  0  0
   -1.3834    0.6211   -1.4372 H   0  0  0  0  0  0  0  0  0  0  0  0
   -3.0097   -0.2298    1.0080 H   0  0  0  0  0  0  0  0  0  0  0  0
    1.0237    0.0224    2.6036 H   0  0  0  0  0  0  0  0  0  0  0  0
    0.0797   -2.4372    1.0459 H   0  0  0  0  0  0  0  0  0  0  0  0
   -0.8459   -1.3587    2.0767 H   0  0  0  0  0  0  0  0  0  0  0  0
    0.6941    2.2024   -0.6641 H   0  0  0  0  0  0  0  0  0  0  0  0
   -0.0613    3.0216    0.7052 H   0  0  0  0  0  0  0  0  0  0  0  0
   -1.4692   -2.1227   -0.8068 H   0  0  0  0  0  0  0  0  0  0  0  0
   -2.3676   -2.5236    0.6425 H   0  0  0  0  0  0  0  0  0  0  0  0
   -5.5002    0.5881   -1.7364 H   0  0  0  0  0  0  0  0  0  0  0  0
    1.5254    2.2440    2.2227 H   0  0  0  0  0  0  0  0  0  0  0  0
   -2.0231    2.8863   -0.8694 H   0  0  0  0  0  0  0  0  0  0  0  0
   -2.9156    2.3521    0.5426 H   0  0  0  0  0  0  0  0  0  0  0  0
   -4.4637    2.8172   -1.2887 H   0  0  0  0  0  0  0  0  0  0  0  0
   -3.5542    1.8113   -2.3929 H   0  0  0  0  0  0  0  0  0  0  0  0
   -4.2790   -2.7368   -0.3622 H   0  0  0  0  0  0  0  0  0  0  0  0
   -5.6000   -1.9760   -1.2046 H   0  0  0  0  0  0  0  0  0  0  0  0
    1.5699   -1.5465   -0.7656 H   0  0  0  0  0  0  0  0  0  0  0  0
    0.1777   -0.8721   -1.5876 H   0  0  0  0  0  0  0  0  0  0  0  0
    1.5464    0.1576   -1.2209 H   0  0  0  0  0  0  0  0  0  0  0  0
   -4.7608    1.1987    1.1692 H   0  0  0  0  0  0  0  0  0  0  0  0
   -6.1038    1.8468    0.2361 H   0  0  0  0  0  0  0  0  0  0  0  0
   -2.7752   -0.3040   -2.8122 H   0  0  0  0  0  0  0  0  0  0  0  0
   -4.3484   -1.0565   -3.0365 H   0  0  0  0  0  0  0  0  0  0  0  0
   -3.0066   -2.0063   -2.4109 H   0  0  0  0  0  0  0  0  0  0  0  0
   -6.2078   -2.3449    1.1019 H   0  0  0  0  0  0  0  0  0  0  0  0
   -4.8042   -1.4589    1.6962 H   0  0  0  0  0  0  0  0  0  0  0  0
   -6.7644   -0.0013    1.8072 H   0  0  0  0  0  0  0  0  0  0  0  0
    2.9983   -1.8171    2.9246 H   0  0  0  0  0  0  0  0  0  0  0  0
    4.2683   -1.8478    1.6946 H   0  0  0  0  0  0  0  0  0  0  0  0
    2.6496   -2.4251    1.2947 H   0  0  0  0  0  0  0  0  0  0  0  0
    5.5035    0.0981    1.3196 H   0  0  0  0  0  0  0  0  0  0  0  0
    5.3618    1.7440    0.7403 H   0  0  0  0  0  0  0  0  0  0  0  0
   -7.9307    0.4457   -0.0967 H   0  0  0  0  0  0  0  0  0  0  0  0
    4.6910    0.9112   -1.5312 H   0  0  0  0  0  0  0  0  0  0  0  0
    4.8187   -0.7483   -0.9670 H   0  0  0  0  0  0  0  0  0  0  0  0
    7.0939    1.2874   -1.1795 H   0  0  0  0  0  0  0  0  0  0  0  0
    8.6468   -0.5191   -0.5745 H   0  0  0  0  0  0  0  0  0  0  0  0
    7.5459   -0.2190    0.7671 H   0  0  0  0  0  0  0  0  0  0  0  0
    6.4970   -1.2747   -2.7672 H   0  0  0  0  0  0  0  0  0  0  0  0
    7.9314   -0.2500   -2.9587 H   0  0  0  0  0  0  0  0  0  0  0  0
    6.3298    0.3885   -3.3488 H   0  0  0  0  0  0  0  0  0  0  0  0
    7.8062   -2.4251    0.3100 H   0  0  0  0  0  0  0  0  0  0  0  0
  1 14  1  0  0  0  0
  1 24  1  0  0  0  0
  2 23  1  0  0  0  0
  2 65  1  0  0  0  0
  3 29  1  0  0  0  0
  3 74  1  0  0  0  0
  4  5  1  0  0  0  0
  4  6  1  0  0  0  0
  4 11  1  0  0  0  0
  4 31  1  0  0  0  0
  5  9  1  0  0  0  0
  5 10  1  0  0  0  0
  5 18  1  0  0  0  0
  6  7  1  0  0  0  0
  6 15  1  0  0  0  0
  6 32  1  0  0  0  0
  7  8  1  0  0  0  0
  7 12  1  0  0  0  0
  7 33  1  0  0  0  0
  8 13  1  0  0  0  0
  8 17  1  0  0  0  0
  8 21  1  0  0  0  0
  9 14  1  0  0  0  0
  9 20  1  0  0  0  0
  9 34  1  0  0  0  0
 10 12  1  0  0  0  0
 10 35  1  0  0  0  0
 10 36  1  0  0  0  0
 11 14  1  0  0  0  0
 11 37  1  0  0  0  0
 11 38  1  0  0  0  0
 12 39  1  0  0  0  0
 12 40  1  0  0  0  0
 13 16  1  0  0  0  0
 13 19  1  0  0  0  0
 13 41  1  0  0  0  0
 14 42  1  0  0  0  0
 15 16  1  0  0  0  0
 15 43  1  0  0  0  0
 15 44  1  0  0  0  0
 16 45  1  0  0  0  0
 16 46  1  0  0  0  0
 17 22  1  0  0  0  0
 17 47  1  0  0  0  0
 17 48  1  0  0  0  0
 18 49  1  0  0  0  0
 18 50  1  0  0  0  0
 18 51  1  0  0  0  0
 19 23  1  0  0  0  0
 19 52  1  0  0  0  0
 19 53  1  0  0  0  0
 20 24  2  0  0  0  0
 20 25  1  0  0  0  0
 21 54  1  0  0  0  0
 21 55  1  0  0  0  0
 21 56  1  0  0  0  0
 22 23  1  0  0  0  0
 22 57  1  0  0  0  0
 22 58  1  0  0  0  0
 23 59  1  0  0  0  0
 24 26  1  0  0  0  0
 25 60  1  0  0  0  0
 25 61  1  0  0  0  0
 25 62  1  0  0  0  0
 26 27  1  0  0  0  0
 26 63  1  0  0  0  0
 26 64  1  0  0  0  0
 27 28  1  0  0  0  0
 27 66  1  0  0  0  0
 27 67  1  0  0  0  0
 28 29  1  0  0  0  0
 28 30  1  0  0  0  0
 28 68  1  0  0  0  0
 29 69  1  0  0  0  0
 29 70  1  0  0  0  0
 30 71  1  0  0  0  0
 30 72  1  0  0  0  0
 30 73  1  0  0  0  0
M  END
> <PUBCHEM_COMPOUND_CID>
56928101

> <PUBCHEM_CONFORMER_RMSD>
0.8

> <PUBCHEM_CONFORMER_DIVERSEORDER>
1
15
31
35
27
30
18
21
3
14
36
23
6
13
29
9
19
12
20
26
10
24
5
17
2
25
28
32
8
22
11
7
34
4
33
16

> <PUBCHEM_MMFF94_PARTIAL_CHARGES>
13
1 -0.36
14 0.28
2 -0.68
20 -0.28
23 0.28
24 -0.06
25 0.14
26 0.14
29 0.28
3 -0.68
65 0.4
74 0.4
9 0.14

> <PUBCHEM_EFFECTIVE_ROTOR_COUNT>
6

> <PUBCHEM_PHARMACOPHORE_FEATURES>
11
1 1 acceptor
1 2 acceptor
1 2 donor
1 3 acceptor
1 3 donor
1 30 hydrophobe
5 1 9 14 20 24 rings
5 4 5 9 11 14 rings
6 4 5 6 7 10 12 rings
6 6 7 8 13 15 16 rings
6 8 13 17 19 22 23 rings

> <PUBCHEM_HEAVY_ATOM_COUNT>
30

> <PUBCHEM_ATOM_DEF_STEREO_COUNT>
9

> <PUBCHEM_ATOM_UDEF_STEREO_COUNT>
1

> <PUBCHEM_BOND_DEF_STEREO_COUNT>
0

> <PUBCHEM_BOND_UDEF_STEREO_COUNT>
0

> <PUBCHEM_ISOTOPIC_ATOM_COUNT>
0

> <PUBCHEM_COMPONENT_COUNT>
1

> <PUBCHEM_CACTVS_TAUTO_COUNT>
1

> <PUBCHEM_CONFORMER_ID>
0364A76500000001

> <PUBCHEM_MMFF94_ENERGY>
94.2558

> <PUBCHEM_FEATURE_SELFOVERLAP>
56.295

> <PUBCHEM_SHAPE_FINGERPRINT>
10591671 39 17489584545755528882
10670039 82 17917716829029217892
10674148 151 18187641423273386696
10930396 42 7925346243833676038
11524674 6 16732985306200651687
11578080 2 17057827349767844911
11719270 70 8574715710995947368
11796584 16 15791730759228765700
11991303 11 16701733857261208586
12166972 35 17917707981386188196
12236239 1 16917355847977599664
12403259 415 18339657663210069545
12596602 18 15267069163572497485
12788726 201 18189620603980004624
13224815 77 17845950584461375433
13540713 5 17984987257241246760
13685833 64 17313100857009036904
13690498 29 18412831299761680429
13782708 43 17749956548618705614
13914758 101 14201390608141980011
14444916 359 18335974325079869783
14767858 380 17632293467392512476
14840074 17 15769771347707007374
14856354 85 18059851741082022887
14955137 171 18261109626110653817
15183329 4 18334297586994887586
15352257 5 17967530168686309318
15461852 350 11671771672143685089
15475509 8 18260539035309978184
15537594 2 18410865347370055507
15788980 27 14273741703286534961
18335252 98 16988838380771283971
18603816 31 16298395642835307094
18608769 82 18059287678289129771
18927931 339 18341900658688496343
20105231 36 18412254022145668547
20511986 3 9799426494390928953
21150785 3 16917347022094021986
21267235 1 18411981339235557297
21859007 373 5544931095647982363
23198884 109 17775282764087916532
23522609 53 18058150886145114616
23559900 14 16950855704060155048
23569943 247 17968658336368162550
2838139 119 15051737465621305318
3004659 81 18272656792468802738
34797466 226 18336264544868133132
350125 39 18272657844308574001
4093350 32 17313393271589497136
4098825 35 18060136591681397738
4258327 124 14907598066461808894
4325135 7 17275103925349029573
44317340 157 18335140843879252388
474113 269 4678261920315962060
504579 68 18059586788311497271
5104073 3 18198645356950603545
5265222 85 18269830930977735934
6086070 43 14057295250209757033
9896288 288 17750223872422072321

> <PUBCHEM_SHAPE_MULTIPOLES>
599.78
18.79
2
1.79
15.71
0.18
-0.73
-4.05
-6.99
-0.87
0.24
1.67
-0.19
0.32

> <PUBCHEM_SHAPE_SELFOVERLAP>
1268.845

> <PUBCHEM_SHAPE_VOLUME>
335.7

> <PUBCHEM_COORDINATE_TYPE>
2
5
10

$$$$

