443466
  -OEChem-07051213023D

 51 54  0     1  0  0  0  0  0999 V2000
   -4.0602   -0.4931    1.6114 O   0  0  0  0  0  0  0  0  0  0  0  0
    1.5882    0.8496   -0.1067 C   0  0  2  0  0  0  0  0  0  0  0  0
    0.8774   -0.4573   -0.6262 C   0  0  2  0  0  0  0  0  0  0  0  0
   -0.6336   -0.6578   -0.1633 C   0  0  1  0  0  0  0  0  0  0  0  0
   -1.4053    0.6926   -0.4033 C   0  0  2  0  0  0  0  0  0  0  0  0
    2.1720    0.6641    1.3045 C   0  0  0  0  0  0  0  0  0  0  0  0
    0.6826    2.0813   -0.2091 C   0  0  0  0  0  0  0  0  0  0  0  0
    3.3076   -0.3226    1.0480 C   0  0  1  0  0  0  0  0  0  0  0  0
   -0.7252    1.8612    0.3313 C   0  0  0  0  0  0  0  0  0  0  0  0
    1.7795   -1.7147   -0.4612 C   0  0  0  0  0  0  0  0  0  0  0  0
    2.9030    1.1073   -0.9096 C   0  0  0  0  0  0  0  0  0  0  0  0
   -2.9550    0.6178   -0.2221 C   0  0  2  0  0  0  0  0  0  0  0  0
   -1.3014   -1.7420   -1.0669 C   0  0  0  0  0  0  0  0  0  0  0  0
    2.7143   -1.7033    0.7572 C   0  0  0  0  0  0  0  0  0  0  0  0
    3.9300    0.2735   -0.1887 C   0  0  0  0  0  0  0  0  0  0  0  0
   -0.7207   -1.1490    1.2997 C   0  0  0  0  0  0  0  0  0  0  0  0
   -3.5288   -0.5313   -1.0790 C   0  0  0  0  0  0  0  0  0  0  0  0
   -2.8141   -1.8626   -0.8876 C   0  0  0  0  0  0  0  0  0  0  0  0
   -3.6446    1.9218   -0.6767 C   0  0  0  0  0  0  0  0  0  0  0  0
   -3.3687    0.4401    1.2170 C   0  0  0  0  0  0  0  0  0  0  0  0
    5.2030    0.1242   -0.5686 C   0  0  0  0  0  0  0  0  0  0  0  0
    0.7962   -0.3159   -1.7164 H   0  0  0  0  0  0  0  0  0  0  0  0
   -1.2739    0.9141   -1.4762 H   0  0  0  0  0  0  0  0  0  0  0  0
    1.4644    0.2950    2.0455 H   0  0  0  0  0  0  0  0  0  0  0  0
    2.5710    1.6112    1.6941 H   0  0  0  0  0  0  0  0  0  0  0  0
    0.6049    2.3832   -1.2627 H   0  0  0  0  0  0  0  0  0  0  0  0
    1.1346    2.9336    0.3140 H   0  0  0  0  0  0  0  0  0  0  0  0
    4.0001   -0.3605    1.8948 H   0  0  0  0  0  0  0  0  0  0  0  0
   -0.6960    1.6990    1.4128 H   0  0  0  0  0  0  0  0  0  0  0  0
   -1.2776    2.7929    0.1755 H   0  0  0  0  0  0  0  0  0  0  0  0
    2.4105   -1.7841   -1.3588 H   0  0  0  0  0  0  0  0  0  0  0  0
    1.2051   -2.6447   -0.4600 H   0  0  0  0  0  0  0  0  0  0  0  0
    3.1945    2.1636   -0.8546 H   0  0  0  0  0  0  0  0  0  0  0  0
    2.8055    0.8242   -1.9627 H   0  0  0  0  0  0  0  0  0  0  0  0
   -0.8648   -2.7290   -0.8805 H   0  0  0  0  0  0  0  0  0  0  0  0
   -1.1012   -1.5116   -2.1219 H   0  0  0  0  0  0  0  0  0  0  0  0
    2.1705   -2.0509    1.6429 H   0  0  0  0  0  0  0  0  0  0  0  0
    3.5198   -2.4297    0.5909 H   0  0  0  0  0  0  0  0  0  0  0  0
   -1.7161   -1.4994    1.5739 H   0  0  0  0  0  0  0  0  0  0  0  0
   -0.0663   -2.0067    1.4747 H   0  0  0  0  0  0  0  0  0  0  0  0
   -0.4637   -0.3765    2.0240 H   0  0  0  0  0  0  0  0  0  0  0  0
   -3.4504   -0.2576   -2.1405 H   0  0  0  0  0  0  0  0  0  0  0  0
   -4.6001   -0.6724   -0.8850 H   0  0  0  0  0  0  0  0  0  0  0  0
   -3.0537   -2.2956    0.0881 H   0  0  0  0  0  0  0  0  0  0  0  0
   -3.1988   -2.5773   -1.6259 H   0  0  0  0  0  0  0  0  0  0  0  0
   -3.3293    2.2071   -1.6865 H   0  0  0  0  0  0  0  0  0  0  0  0
   -4.7354    1.8048   -0.6904 H   0  0  0  0  0  0  0  0  0  0  0  0
   -3.4359    2.7606   -0.0041 H   0  0  0  0  0  0  0  0  0  0  0  0
   -3.0241    1.2135    1.9248 H   0  0  0  0  0  0  0  0  0  0  0  0
    5.8920   -0.4803    0.0110 H   0  0  0  0  0  0  0  0  0  0  0  0
    5.5775    0.6028   -1.4669 H   0  0  0  0  0  0  0  0  0  0  0  0
  1 20  2  0  0  0  0
  2  3  1  0  0  0  0
  2  6  1  0  0  0  0
  2  7  1  0  0  0  0
  2 11  1  0  0  0  0
  3  4  1  0  0  0  0
  3 10  1  0  0  0  0
  3 22  1  0  0  0  0
  4  5  1  0  0  0  0
  4 13  1  0  0  0  0
  4 16  1  0  0  0  0
  5  9  1  0  0  0  0
  5 12  1  0  0  0  0
  5 23  1  0  0  0  0
  6  8  1  0  0  0  0
  6 24  1  0  0  0  0
  6 25  1  0  0  0  0
  7  9  1  0  0  0  0
  7 26  1  0  0  0  0
  7 27  1  0  0  0  0
  8 14  1  0  0  0  0
  8 15  1  0  0  0  0
  8 28  1  0  0  0  0
  9 29  1  0  0  0  0
  9 30  1  0  0  0  0
 10 14  1  0  0  0  0
 10 31  1  0  0  0  0
 10 32  1  0  0  0  0
 11 15  1  0  0  0  0
 11 33  1  0  0  0  0
 11 34  1  0  0  0  0
 12 17  1  0  0  0  0
 12 19  1  0  0  0  0
 12 20  1  0  0  0  0
 13 18  1  0  0  0  0
 13 35  1  0  0  0  0
 13 36  1  0  0  0  0
 14 37  1  0  0  0  0
 14 38  1  0  0  0  0
 15 21  2  0  0  0  0
 16 39  1  0  0  0  0
 16 40  1  0  0  0  0
 16 41  1  0  0  0  0
 17 18  1  0  0  0  0
 17 42  1  0  0  0  0
 17 43  1  0  0  0  0
 18 44  1  0  0  0  0
 18 45  1  0  0  0  0
 19 46  1  0  0  0  0
 19 47  1  0  0  0  0
 19 48  1  0  0  0  0
 20 49  1  0  0  0  0
 21 50  1  0  0  0  0
 21 51  1  0  0  0  0
M  END
> <PUBCHEM_COMPOUND_CID>
443466

> <PUBCHEM_CONFORMER_RMSD>
0.6

> <PUBCHEM_CONFORMER_DIVERSEORDER>
2
1

> <PUBCHEM_MMFF94_PARTIAL_CHARGES>
10
1 -0.57
11 0.14
12 0.06
15 -0.28
20 0.45
21 -0.3
49 0.06
50 0.15
51 0.15
8 0.14

> <PUBCHEM_EFFECTIVE_ROTOR_COUNT>
3

> <PUBCHEM_PHARMACOPHORE_FEATURES>
4
1 1 acceptor
6 2 3 4 5 7 9 rings
6 4 5 12 13 17 18 rings
8 2 3 6 8 10 11 14 15 rings

> <PUBCHEM_HEAVY_ATOM_COUNT>
21

> <PUBCHEM_ATOM_DEF_STEREO_COUNT>
6

> <PUBCHEM_ATOM_UDEF_STEREO_COUNT>
0

> <PUBCHEM_BOND_DEF_STEREO_COUNT>
0

> <PUBCHEM_BOND_UDEF_STEREO_COUNT>
0

> <PUBCHEM_ISOTOPIC_ATOM_COUNT>
0

> <PUBCHEM_COMPONENT_COUNT>
1

> <PUBCHEM_CACTVS_TAUTO_COUNT>
1

> <PUBCHEM_CONFORMER_ID>
0006C44A00000002

> <PUBCHEM_MMFF94_ENERGY>
83.8644

> <PUBCHEM_FEATURE_SELFOVERLAP>
20.328

> <PUBCHEM_SHAPE_FINGERPRINT>
10062212 137 18411430509141794503
10366900 7 18202000976154344347
10498660 4 18334864921904443292
10616163 171 18408606946107201454
10646746 165 18040440962493671800
10759866 29 18200593713240374006
10863032 1 18260276277636888150
10948715 1 17988918955796843536
10967382 1 18263650730309295527
11132069 177 18335432269851439656
11578080 2 7636825600453790707
12011746 2 18261114114271993068
12077114 3 18341899636117073221
12236239 1 18272373065847586364
12382932 28 18259992577925010535
12403814 3 18131356327736115493
12491281 212 18259701211807513379
12553582 1 18410859845400859168
12633257 1 17676494981326751050
13140716 1 18191020110298601480
13172582 1 18335137600840625777
13221675 6 18412262831028036108
13224815 77 18411141307392174770
13581323 91 16702301230666349274
13583140 156 17560804333666455789
13675066 3 18343304785769723752
14004511 7 18040152911647717843
14144814 61 18335428949715099871
14289901 80 18273218590511067451
14787075 74 17987788614672284211
15196674 1 18410298046656701502
15309172 13 18333728031102196663
15375462 189 18412543197734444472
15788980 27 18341896307469718604
1601671 61 18261110786051880268
16752209 62 18339094764537461461
16945 1 18260834808084942037
17349148 13 17968675864339641983
17804303 29 18113339687032086972
18186145 218 17385729101196266153
19862831 5 16877938343505972906
200 152 18408612443575403127
20261772 1 18335132077364964235
20600515 1 17458613493909343336
21267235 1 18408881806707734150
2334 1 17903925456675625548
23402539 116 18342744026713769084
23419403 2 12231949082652238220
23463225 33 18411426128369942244
23493267 7 18060137664980071369
23557571 272 16588306038737269879
23559900 14 17967818245824033096
2748010 2 18048033270334728597
296302 2 15769773563646121076
3286 77 17023474036085467048
34934 24 18339930406080001604
465052 167 18127955444103864259
5104073 3 18411705421366175674
633830 44 17845938544866431599
74978 22 18262805051248829908
90525 40 18260553329008469359

> <PUBCHEM_SHAPE_MULTIPOLES>
426.3
7.93
2.06
1.29
2.22
0.03
0.34
0.37
-0.17
-0.68
-0.31
-0.47
-0.21
-0.37

> <PUBCHEM_SHAPE_SELFOVERLAP>
914.867

> <PUBCHEM_SHAPE_VOLUME>
234.3

> <PUBCHEM_COORDINATE_TYPE>
2
5
10

$$$$

