7279
  -OEChem-06261201583D

 11 10  0     0  0  0  0  0  0999 V2000
   -0.0003   -1.7496    0.3023 Br  0  0  0  0  0  0  0  0  0  0  0  0
    2.8688   -0.0162   -0.3781 Br  0  0  0  0  0  0  0  0  0  0  0  0
   -2.8686   -0.0161   -0.3782 Br  0  0  0  0  0  0  0  0  0  0  0  0
    0.0001    0.1523   -0.2213 C   0  0  0  0  0  0  0  0  0  0  0  0
    1.2524    0.8147    0.3377 C   0  0  0  0  0  0  0  0  0  0  0  0
   -1.2523    0.8150    0.3377 C   0  0  0  0  0  0  0  0  0  0  0  0
    0.0001    0.1470   -1.3167 H   0  0  0  0  0  0  0  0  0  0  0  0
    1.3257    0.7288    1.4264 H   0  0  0  0  0  0  0  0  0  0  0  0
    1.3073    1.8704    0.0567 H   0  0  0  0  0  0  0  0  0  0  0  0
   -1.3256    0.7293    1.4263 H   0  0  0  0  0  0  0  0  0  0  0  0
   -1.3071    1.8707    0.0564 H   0  0  0  0  0  0  0  0  0  0  0  0
  1  4  1  0  0  0  0
  2  5  1  0  0  0  0
  3  6  1  0  0  0  0
  4  5  1  0  0  0  0
  4  6  1  0  0  0  0
  4  7  1  0  0  0  0
  5  8  1  0  0  0  0
  5  9  1  0  0  0  0
  6 10  1  0  0  0  0
  6 11  1  0  0  0  0
M  END
> <PUBCHEM_COMPOUND_CID>
7279

> <PUBCHEM_CONFORMER_RMSD>
0.4

> <PUBCHEM_CONFORMER_DIVERSEORDER>
1
7
3
4
6
5
2

> <PUBCHEM_MMFF94_PARTIAL_CHARGES>
6
1 -0.23
2 -0.23
3 -0.23
4 0.23
5 0.23
6 0.23

> <PUBCHEM_EFFECTIVE_ROTOR_COUNT>
2

> <PUBCHEM_PHARMACOPHORE_FEATURES>
3
1 1 hydrophobe
1 2 hydrophobe
1 3 hydrophobe

> <PUBCHEM_HEAVY_ATOM_COUNT>
6

> <PUBCHEM_ATOM_DEF_STEREO_COUNT>
0

> <PUBCHEM_ATOM_UDEF_STEREO_COUNT>
0

> <PUBCHEM_BOND_DEF_STEREO_COUNT>
0

> <PUBCHEM_BOND_UDEF_STEREO_COUNT>
0

> <PUBCHEM_ISOTOPIC_ATOM_COUNT>
0

> <PUBCHEM_COMPONENT_COUNT>
1

> <PUBCHEM_CACTVS_TAUTO_COUNT>
1

> <PUBCHEM_CONFORMER_ID>
00001C6F00000001

> <PUBCHEM_MMFF94_ENERGY>
8.3301

> <PUBCHEM_FEATURE_SELFOVERLAP>
15.223

> <PUBCHEM_SHAPE_FINGERPRINT>
14325111 11 18411418410102844556
16714656 1 18272367555525884164
21040471 1 18341054029632922434
21293036 1 18342737390583062972
23235685 24 18343303664994073997
23552423 10 18052817236779231215
5084963 1 18333168366556345593
528862 383 17774171235136800674
5460574 1 10879992458398324724

> <PUBCHEM_SHAPE_MULTIPOLES>
141.3
4.23
1.45
0.79
0
0.8
0.03
-0.59
0.93
0
-0.21
0
0.01
0

> <PUBCHEM_SHAPE_SELFOVERLAP>
210.967

> <PUBCHEM_SHAPE_VOLUME>
106.5

> <PUBCHEM_COORDINATE_TYPE>
2
5
10

$$$$

