5459823
  -OEChem-07051212463D

 38 42  0     1  0  0  0  0  0999 V2000
    1.9702    0.4143    1.2692 O   0  0  0  0  0  0  0  0  0  0  0  0
    2.6247    2.7402   -0.1555 O   0  0  0  0  0  0  0  0  0  0  0  0
    3.5992   -1.9058    0.5558 O   0  0  0  0  0  0  0  0  0  0  0  0
   -3.1496   -0.0663    0.4839 N   0  0  2  0  0  0  0  0  0  0  0  0
   -0.3565    0.6904    0.6822 C   0  0  2  0  0  0  0  0  0  0  0  0
   -1.3198    1.3448   -0.3098 C   0  0  2  0  0  0  0  0  0  0  0  0
   -2.3472    0.2424   -0.7256 C   0  0  1  0  0  0  0  0  0  0  0  0
   -1.1484    0.2957    1.9453 C   0  0  0  0  0  0  0  0  0  0  0  0
    0.9519    1.4275    0.9832 C   0  0  2  0  0  0  0  0  0  0  0  0
    0.2608   -0.5248    0.0815 C   0  0  0  0  0  0  0  0  0  0  0  0
   -1.6669   -0.9965   -1.4080 C   0  0  0  0  0  0  0  0  0  0  0  0
   -2.3691   -0.5827    1.6139 C   0  0  0  0  0  0  0  0  0  0  0  0
   -0.3253   -1.3702   -0.8387 C   0  0  0  0  0  0  0  0  0  0  0  0
   -0.6123    2.0235   -1.4490 C   0  0  0  0  0  0  0  0  0  0  0  0
    1.5645   -0.6622    0.5142 C   0  0  0  0  0  0  0  0  0  0  0  0
    1.4934    2.2550   -0.1847 C   0  0  0  0  0  0  0  0  0  0  0  0
    0.6541    2.4521   -1.3952 C   0  0  0  0  0  0  0  0  0  0  0  0
   -4.3129   -0.9041    0.2126 C   0  0  0  0  0  0  0  0  0  0  0  0
    0.4298   -2.4676   -1.2524 C   0  0  0  0  0  0  0  0  0  0  0  0
    2.3227   -1.7442    0.1309 C   0  0  0  0  0  0  0  0  0  0  0  0
    1.7366   -2.6614   -0.7536 C   0  0  0  0  0  0  0  0  0  0  0  0
   -1.8727    2.1517    0.1959 H   0  0  0  0  0  0  0  0  0  0  0  0
   -3.0345    0.6836   -1.4606 H   0  0  0  0  0  0  0  0  0  0  0  0
   -1.4945    1.2090    2.4477 H   0  0  0  0  0  0  0  0  0  0  0  0
   -0.5160   -0.2355    2.6684 H   0  0  0  0  0  0  0  0  0  0  0  0
    0.8570    2.0923    1.8494 H   0  0  0  0  0  0  0  0  0  0  0  0
   -1.5067   -0.7414   -2.4643 H   0  0  0  0  0  0  0  0  0  0  0  0
   -2.3274   -1.8691   -1.3991 H   0  0  0  0  0  0  0  0  0  0  0  0
   -2.0420   -1.6124    1.4228 H   0  0  0  0  0  0  0  0  0  0  0  0
   -3.0032   -0.6239    2.5085 H   0  0  0  0  0  0  0  0  0  0  0  0
   -1.1881    2.2245   -2.3487 H   0  0  0  0  0  0  0  0  0  0  0  0
    1.1028    2.9688   -2.2363 H   0  0  0  0  0  0  0  0  0  0  0  0
   -4.0458   -1.9375   -0.0298 H   0  0  0  0  0  0  0  0  0  0  0  0
   -4.9052   -0.4952   -0.6133 H   0  0  0  0  0  0  0  0  0  0  0  0
   -4.9739   -0.9266    1.0864 H   0  0  0  0  0  0  0  0  0  0  0  0
    0.0267   -3.1703   -1.9767 H   0  0  0  0  0  0  0  0  0  0  0  0
    2.3014   -3.5256   -1.0969 H   0  0  0  0  0  0  0  0  0  0  0  0
    3.9588   -2.7211    0.1658 H   0  0  0  0  0  0  0  0  0  0  0  0
  1  9  1  0  0  0  0
  1 15  1  0  0  0  0
  2 16  2  0  0  0  0
  3 20  1  0  0  0  0
  3 38  1  0  0  0  0
  4  7  1  0  0  0  0
  4 12  1  0  0  0  0
  4 18  1  0  0  0  0
  5  6  1  0  0  0  0
  5  8  1  0  0  0  0
  5  9  1  0  0  0  0
  5 10  1  0  0  0  0
  6  7  1  0  0  0  0
  6 14  1  0  0  0  0
  6 22  1  0  0  0  0
  7 11  1  0  0  0  0
  7 23  1  0  0  0  0
  8 12  1  0  0  0  0
  8 24  1  0  0  0  0
  8 25  1  0  0  0  0
  9 16  1  0  0  0  0
  9 26  1  0  0  0  0
 10 13  2  0  0  0  0
 10 15  1  0  0  0  0
 11 13  1  0  0  0  0
 11 27  1  0  0  0  0
 11 28  1  0  0  0  0
 12 29  1  0  0  0  0
 12 30  1  0  0  0  0
 13 19  1  0  0  0  0
 14 17  2  0  0  0  0
 14 31  1  0  0  0  0
 15 20  2  0  0  0  0
 16 17  1  0  0  0  0
 17 32  1  0  0  0  0
 18 33  1  0  0  0  0
 18 34  1  0  0  0  0
 18 35  1  0  0  0  0
 19 21  2  0  0  0  0
 19 36  1  0  0  0  0
 20 21  1  0  0  0  0
 21 37  1  0  0  0  0
M  END
> <PUBCHEM_COMPOUND_CID>
5459823

> <PUBCHEM_CONFORMER_RMSD>
0.6

> <PUBCHEM_CONFORMER_DIVERSEORDER>
1

> <PUBCHEM_MMFF94_PARTIAL_CHARGES>
25
1 -0.36
10 -0.14
11 0.14
12 0.27
13 -0.14
14 -0.29
15 0.08
16 0.49
17 -0.14
18 0.27
19 -0.15
2 -0.57
20 0.08
21 -0.15
3 -0.53
31 0.15
32 0.15
36 0.15
37 0.15
38 0.45
4 -0.81
5 0.14
6 0.14
7 0.27
9 0.34

> <PUBCHEM_EFFECTIVE_ROTOR_COUNT>
1

> <PUBCHEM_PHARMACOPHORE_FEATURES>
9
1 1 acceptor
1 2 acceptor
1 3 donor
1 4 cation
5 1 5 9 10 15 rings
6 10 13 15 19 20 21 rings
6 4 5 6 7 8 12 rings
6 5 6 7 10 11 13 rings
6 5 6 9 14 16 17 rings

> <PUBCHEM_HEAVY_ATOM_COUNT>
21

> <PUBCHEM_ATOM_DEF_STEREO_COUNT>
4

> <PUBCHEM_ATOM_UDEF_STEREO_COUNT>
0

> <PUBCHEM_BOND_DEF_STEREO_COUNT>
0

> <PUBCHEM_BOND_UDEF_STEREO_COUNT>
0

> <PUBCHEM_ISOTOPIC_ATOM_COUNT>
0

> <PUBCHEM_COMPONENT_COUNT>
1

> <PUBCHEM_CACTVS_TAUTO_COUNT>
15

> <PUBCHEM_CONFORMER_ID>
00534F6F00000001

> <PUBCHEM_MMFF94_ENERGY>
70.05

> <PUBCHEM_FEATURE_SELFOVERLAP>
47.801

> <PUBCHEM_SHAPE_FINGERPRINT>
10863032 1 18267581304412078275
10948715 1 18048870797716291845
11578080 2 17389424564489563473
12035758 1 17979357787318286081
12403814 3 18265909114672037130
12423570 1 10753128294176946729
12592029 89 18197769999349220749
13140716 1 18188222987172580378
13172582 1 18187935022505261234
13299463 15 16962130396970729100
133893 2 17983259760542436257
13681431 1 18198598069080702693
141345 1 17543870595925361237
14142880 1 17682686473136911616
14181834 199 18337380574280201135
144361 1 18121252902128818793
14817 1 14945978482233336363
15881359 60 18118996742971008795
16945 1 18188511089309559249
17357779 13 18120109504757334407
17492 54 18125407909742334798
1813 80 18191568938436593894
19868273 325 18052533558542092742
21029758 27 18338797922341923526
22182313 1 18193582136206549552
2334 1 17973743388561979366
23419403 2 17916604114207438797
23557571 272 17907573980370850470
23559900 14 17060336327638219914
2748010 2 17974309890685086166
576247 118 17982703527875486035
5845 1 11594970544425193401
7364860 26 18410569552771822285
81228 2 17548957306029899632
8272917 22 18337379462458671379
84936 31 18337377254244100973
90525 40 17693089669611393877

> <PUBCHEM_SHAPE_MULTIPOLES>
409.58
4.38
3.05
1.56
2.21
0.49
-0.17
-1.75
-0.97
-2.54
1.26
0.44
0.14
0.07

> <PUBCHEM_SHAPE_SELFOVERLAP>
936.578

> <PUBCHEM_SHAPE_VOLUME>
209.8

> <PUBCHEM_COORDINATE_TYPE>
2
5
10

$$$$

