17396391
  -OEChem-06241222562D

 40 41  0     0  0  0  0  0  0999 V2000
    3.4782   -2.8933    0.0000 S   0  0  0  0  0  0  0  0  0  0  0  0
    7.9128   -0.3988    0.0000 O   0  0  0  0  0  0  0  0  0  0  0  0
    7.0468    1.1012    0.0000 N   0  0  0  0  0  0  0  0  0  0  0  0
    5.3147   -1.8988    0.0000 N   0  0  0  0  0  0  0  0  0  0  0  0
    7.9128    1.6012    0.0000 C   0  0  0  0  0  0  0  0  0  0  0  0
    7.9128    2.6012    0.0000 C   0  0  0  0  0  0  0  0  0  0  0  0
    8.7788    1.1012    0.0000 C   0  0  0  0  0  0  0  0  0  0  0  0
    8.7788    3.1012    0.0000 C   0  0  0  0  0  0  0  0  0  0  0  0
    9.6448    1.6012    0.0000 C   0  0  0  0  0  0  0  0  0  0  0  0
    7.0468    0.1012    0.0000 C   0  0  0  0  0  0  0  0  0  0  0  0
    6.1808   -0.3988    0.0000 C   0  0  0  0  0  0  0  0  0  0  0  0
    6.1808   -1.3988    0.0000 C   0  0  0  0  0  0  0  0  0  0  0  0
    5.3147    0.1012    0.0000 C   0  0  0  0  0  0  0  0  0  0  0  0
    4.4487   -1.3988    0.0000 C   0  0  0  0  0  0  0  0  0  0  0  0
    4.4487   -0.3988    0.0000 C   0  0  0  0  0  0  0  0  0  0  0  0
    7.0468   -1.8988    0.0000 C   0  0  0  0  0  0  0  0  0  0  0  0
    3.5827   -1.8988    0.0000 C   0  0  0  0  0  0  0  0  0  0  0  0
    2.6691   -1.4921    0.0000 C   0  0  0  0  0  0  0  0  0  0  0  0
    2.0000   -2.2352    0.0000 C   0  0  0  0  0  0  0  0  0  0  0  0
    2.5000   -3.1012    0.0000 C   0  0  0  0  0  0  0  0  0  0  0  0
    7.9128    0.9812    0.0000 H   0  0  0  0  0  0  0  0  0  0  0  0
    8.3803    0.6263    0.0000 H   0  0  0  0  0  0  0  0  0  0  0  0
    9.1774    0.6263    0.0000 H   0  0  0  0  0  0  0  0  0  0  0  0
    7.7008    3.1838    0.0000 H   0  0  0  0  0  0  0  0  0  0  0  0
    7.3022    2.4936    0.0000 H   0  0  0  0  0  0  0  0  0  0  0  0
    6.5098    1.4112    0.0000 H   0  0  0  0  0  0  0  0  0  0  0  0
    9.0888    2.5643    0.0000 H   0  0  0  0  0  0  0  0  0  0  0  0
    9.9548    1.0643    0.0000 H   0  0  0  0  0  0  0  0  0  0  0  0
   10.1818    1.9112    0.0000 H   0  0  0  0  0  0  0  0  0  0  0  0
    9.3348    2.1382    0.0000 H   0  0  0  0  0  0  0  0  0  0  0  0
    9.3158    3.4112    0.0000 H   0  0  0  0  0  0  0  0  0  0  0  0
    8.4688    3.6382    0.0000 H   0  0  0  0  0  0  0  0  0  0  0  0
    5.3147    0.7212    0.0000 H   0  0  0  0  0  0  0  0  0  0  0  0
    3.9118   -0.0888    0.0000 H   0  0  0  0  0  0  0  0  0  0  0  0
    6.7368   -2.4357    0.0000 H   0  0  0  0  0  0  0  0  0  0  0  0
    7.5837   -2.2088    0.0000 H   0  0  0  0  0  0  0  0  0  0  0  0
    7.3568   -1.3618    0.0000 H   0  0  0  0  0  0  0  0  0  0  0  0
    2.5402   -0.8856    0.0000 H   0  0  0  0  0  0  0  0  0  0  0  0
    1.3834   -2.1704    0.0000 H   0  0  0  0  0  0  0  0  0  0  0  0
    2.2478   -3.6676    0.0000 H   0  0  0  0  0  0  0  0  0  0  0  0
  1 17  1  0  0  0  0
  1 20  1  0  0  0  0
  2 10  2  0  0  0  0
  3  5  1  0  0  0  0
  3 10  1  0  0  0  0
  3 26  1  0  0  0  0
  4 12  1  0  0  0  0
  4 14  2  0  0  0  0
  5  6  1  0  0  0  0
  5  7  1  0  0  0  0
  5 21  1  0  0  0  0
  6  8  1  0  0  0  0
  6 24  1  0  0  0  0
  6 25  1  0  0  0  0
  7  9  1  0  0  0  0
  7 22  1  0  0  0  0
  7 23  1  0  0  0  0
  8 27  1  0  0  0  0
  8 31  1  0  0  0  0
  8 32  1  0  0  0  0
  9 28  1  0  0  0  0
  9 29  1  0  0  0  0
  9 30  1  0  0  0  0
 10 11  1  0  0  0  0
 11 12  2  0  0  0  0
 11 13  1  0  0  0  0
 12 16  1  0  0  0  0
 13 15  2  0  0  0  0
 13 33  1  0  0  0  0
 14 15  1  0  0  0  0
 14 17  1  0  0  0  0
 15 34  1  0  0  0  0
 16 35  1  0  0  0  0
 16 36  1  0  0  0  0
 16 37  1  0  0  0  0
 17 18  2  0  0  0  0
 18 19  1  0  0  0  0
 18 38  1  0  0  0  0
 19 20  2  0  0  0  0
 19 39  1  0  0  0  0
 20 40  1  0  0  0  0
M  END
> <PUBCHEM_COMPOUND_CID>
17396391

> <PUBCHEM_COMPOUND_CANONICALIZED>
1

> <PUBCHEM_CACTVS_COMPLEXITY>
320

> <PUBCHEM_CACTVS_HBOND_ACCEPTOR>
3

> <PUBCHEM_CACTVS_HBOND_DONOR>
1

> <PUBCHEM_CACTVS_ROTATABLE_BOND>
5

> <PUBCHEM_CACTVS_SUBSKEYS>
AAADceB7IABAAAAAAAAAAAAAAAAAASAAAAAsAAAAAAAAAAAB4AAAHgQQAAAADCjF3gSygZLIEAisAyVyVACDgKAlCjBImLk4ZNgIIPrg1ZGEIYhglgDoyccYicCeAAAAAAAAAAAAAAAAAAAAAAAAAAAAAA==

> <PUBCHEM_IUPAC_OPENEYE_NAME>
N-(1-ethylpropyl)-2-methyl-6-(2-thienyl)pyridine-3-carboxamide

> <PUBCHEM_IUPAC_CAS_NAME>
2-methyl-N-pentan-3-yl-6-thiophen-2-yl-3-pyridinecarboxamide

> <PUBCHEM_IUPAC_NAME>
2-methyl-N-pentan-3-yl-6-thiophen-2-ylpyridine-3-carboxamide

> <PUBCHEM_IUPAC_SYSTEMATIC_NAME>
2-methyl-N-pentan-3-yl-6-thiophen-2-yl-pyridine-3-carboxamide

> <PUBCHEM_IUPAC_TRADITIONAL_NAME>
N-(1-ethylpropyl)-2-methyl-6-(2-thienyl)nicotinamide

> <PUBCHEM_IUPAC_INCHI>
InChI=1S/C16H20N2OS/c1-4-12(5-2)18-16(19)13-8-9-14(17-11(13)3)15-7-6-10-20-15/h6-10,12H,4-5H2,1-3H3,(H,18,19)

> <PUBCHEM_IUPAC_INCHIKEY>
LSLLILJYDBZXOB-UHFFFAOYSA-N

> <PUBCHEM_XLOGP3_AA>
3.8

> <PUBCHEM_EXACT_MASS>
288.129634

> <PUBCHEM_MOLECULAR_FORMULA>
C16H20N2OS

> <PUBCHEM_MOLECULAR_WEIGHT>
288.4078

> <PUBCHEM_OPENEYE_CAN_SMILES>
CCC(CC)NC(=O)C1=C(N=C(C=C1)C2=CC=CS2)C

> <PUBCHEM_OPENEYE_ISO_SMILES>
CCC(CC)NC(=O)C1=C(N=C(C=C1)C2=CC=CS2)C

> <PUBCHEM_CACTVS_TPSA>
70.2

> <PUBCHEM_MONOISOTOPIC_WEIGHT>
288.129634

> <PUBCHEM_TOTAL_CHARGE>
0

> <PUBCHEM_HEAVY_ATOM_COUNT>
20

> <PUBCHEM_ATOM_DEF_STEREO_COUNT>
0

> <PUBCHEM_ATOM_UDEF_STEREO_COUNT>
0

> <PUBCHEM_BOND_DEF_STEREO_COUNT>
0

> <PUBCHEM_BOND_UDEF_STEREO_COUNT>
0

> <PUBCHEM_ISOTOPIC_ATOM_COUNT>
0

> <PUBCHEM_COMPONENT_COUNT>
1

> <PUBCHEM_CACTVS_TAUTO_COUNT>
2

> <PUBCHEM_COORDINATE_TYPE>
1
5
255

> <PUBCHEM_BONDANNOTATIONS>
1  17  8
1  20  8
11  12  8
11  13  8
13  15  8
14  15  8
17  18  8
18  19  8
19  20  8
4  12  8
4  14  8

$$$$

