92803
  -OEChem-07051213153D

 66 69  0     1  0  0  0  0  0999 V2000
   -7.0797    1.2002   -0.8133 O   0  0  0  0  0  0  0  0  0  0  0  0
   -6.1029   -0.8424   -0.9872 O   0  0  0  0  0  0  0  0  0  0  0  0
   -0.7738    0.0498   -0.1150 C   0  0  1  0  0  0  0  0  0  0  0  0
    0.2047   -1.0522    0.3450 C   0  0  2  0  0  0  0  0  0  0  0  0
    1.5545   -0.9919   -0.3788 C   0  0  1  0  0  0  0  0  0  0  0  0
    2.2138    0.3968   -0.0939 C   0  0  1  0  0  0  0  0  0  0  0  0
    3.6312    0.5257   -0.7690 C   0  0  2  0  0  0  0  0  0  0  0  0
   -2.0016   -0.3354    0.7461 C   0  0  2  0  0  0  0  0  0  0  0  0
   -0.1460    1.4070    0.2297 C   0  0  0  0  0  0  0  0  0  0  0  0
    1.2460    1.5699   -0.4086 C   0  0  0  0  0  0  0  0  0  0  0  0
    4.5331   -0.6736   -0.3218 C   0  0  2  0  0  0  0  0  0  0  0  0
   -0.6268   -2.3289    0.2605 C   0  0  0  0  0  0  0  0  0  0  0  0
    2.4723   -2.1430    0.0520 C   0  0  0  0  0  0  0  0  0  0  0  0
   -2.0477   -1.8783    0.6474 C   0  0  0  0  0  0  0  0  0  0  0  0
    3.8611   -2.0345   -0.5704 C   0  0  0  0  0  0  0  0  0  0  0  0
    4.3517    1.8526   -0.3909 C   0  0  0  0  0  0  0  0  0  0  0  0
   -1.1161    0.0037   -1.6254 C   0  0  0  0  0  0  0  0  0  0  0  0
   -3.3248    0.3210    0.3795 C   0  0  1  0  0  0  0  0  0  0  0  0
    4.9865   -0.5655    1.1510 C   0  0  0  0  0  0  0  0  0  0  0  0
    3.5121    0.5286   -2.3155 C   0  0  0  0  0  0  0  0  0  0  0  0
    4.7657    1.9408    1.0738 C   0  0  0  0  0  0  0  0  0  0  0  0
    5.6562    0.7681    1.4569 C   0  0  0  0  0  0  0  0  0  0  0  0
   -4.4490   -0.1995    1.2987 C   0  0  0  0  0  0  0  0  0  0  0  0
   -3.1901    1.8460    0.4437 C   0  0  0  0  0  0  0  0  0  0  0  0
   -5.8058    0.4617    1.0481 C   0  0  0  0  0  0  0  0  0  0  0  0
   -6.3246    0.1732   -0.3427 C   0  0  0  0  0  0  0  0  0  0  0  0
    0.4179   -0.9018    1.4169 H   0  0  0  0  0  0  0  0  0  0  0  0
    1.3829   -1.1045   -1.4540 H   0  0  0  0  0  0  0  0  0  0  0  0
    2.3658    0.4411    0.9934 H   0  0  0  0  0  0  0  0  0  0  0  0
   -1.7769   -0.0874    1.7953 H   0  0  0  0  0  0  0  0  0  0  0  0
   -0.0457    1.5116    1.3177 H   0  0  0  0  0  0  0  0  0  0  0  0
   -0.7344    2.2572   -0.1124 H   0  0  0  0  0  0  0  0  0  0  0  0
    1.1314    1.6905   -1.4902 H   0  0  0  0  0  0  0  0  0  0  0  0
    1.6675    2.5096   -0.0356 H   0  0  0  0  0  0  0  0  0  0  0  0
    5.4504   -0.6547   -0.9285 H   0  0  0  0  0  0  0  0  0  0  0  0
   -0.2575   -3.1038    0.9399 H   0  0  0  0  0  0  0  0  0  0  0  0
   -0.6207   -2.7458   -0.7528 H   0  0  0  0  0  0  0  0  0  0  0  0
    2.0320   -3.1022   -0.2459 H   0  0  0  0  0  0  0  0  0  0  0  0
    2.5550   -2.1703    1.1449 H   0  0  0  0  0  0  0  0  0  0  0  0
   -2.7581   -2.2268   -0.1109 H   0  0  0  0  0  0  0  0  0  0  0  0
   -2.3444   -2.3180    1.6062 H   0  0  0  0  0  0  0  0  0  0  0  0
    4.4944   -2.8411   -0.1813 H   0  0  0  0  0  0  0  0  0  0  0  0
    3.7826   -2.2120   -1.6497 H   0  0  0  0  0  0  0  0  0  0  0  0
    3.7379    2.7224   -0.6486 H   0  0  0  0  0  0  0  0  0  0  0  0
    5.2617    1.9502   -1.0001 H   0  0  0  0  0  0  0  0  0  0  0  0
   -1.6317   -0.9195   -1.9083 H   0  0  0  0  0  0  0  0  0  0  0  0
   -1.7621    0.8366   -1.9191 H   0  0  0  0  0  0  0  0  0  0  0  0
   -0.2281    0.0716   -2.2594 H   0  0  0  0  0  0  0  0  0  0  0  0
   -3.5951    0.0550   -0.6490 H   0  0  0  0  0  0  0  0  0  0  0  0
    5.6923   -1.3746    1.3760 H   0  0  0  0  0  0  0  0  0  0  0  0
    4.1409   -0.6981    1.8345 H   0  0  0  0  0  0  0  0  0  0  0  0
    4.5045    0.5250   -2.7819 H   0  0  0  0  0  0  0  0  0  0  0  0
    2.9755   -0.3397   -2.7049 H   0  0  0  0  0  0  0  0  0  0  0  0
    2.9964    1.4242   -2.6771 H   0  0  0  0  0  0  0  0  0  0  0  0
    3.8822    1.9712    1.7208 H   0  0  0  0  0  0  0  0  0  0  0  0
    5.3086    2.8780    1.2424 H   0  0  0  0  0  0  0  0  0  0  0  0
    6.6051    0.8336    0.9103 H   0  0  0  0  0  0  0  0  0  0  0  0
    5.9004    0.8226    2.5239 H   0  0  0  0  0  0  0  0  0  0  0  0
   -4.5634   -1.2834    1.1805 H   0  0  0  0  0  0  0  0  0  0  0  0
   -4.1737   -0.0259    2.3469 H   0  0  0  0  0  0  0  0  0  0  0  0
   -2.6912    2.1761    1.3603 H   0  0  0  0  0  0  0  0  0  0  0  0
   -2.6661    2.2352   -0.4299 H   0  0  0  0  0  0  0  0  0  0  0  0
   -4.1532    2.3580    0.3997 H   0  0  0  0  0  0  0  0  0  0  0  0
   -6.5393    0.0420    1.7475 H   0  0  0  0  0  0  0  0  0  0  0  0
   -5.7856    1.5372    1.2373 H   0  0  0  0  0  0  0  0  0  0  0  0
   -7.4162    1.0217   -1.7172 H   0  0  0  0  0  0  0  0  0  0  0  0
  1 26  1  0  0  0  0
  1 66  1  0  0  0  0
  2 26  2  0  0  0  0
  3  4  1  0  0  0  0
  3  8  1  0  0  0  0
  3  9  1  0  0  0  0
  3 17  1  0  0  0  0
  4  5  1  0  0  0  0
  4 12  1  0  0  0  0
  4 27  1  0  0  0  0
  5  6  1  0  0  0  0
  5 13  1  0  0  0  0
  5 28  1  0  0  0  0
  6  7  1  0  0  0  0
  6 10  1  0  0  0  0
  6 29  1  0  0  0  0
  7 11  1  0  0  0  0
  7 16  1  0  0  0  0
  7 20  1  0  0  0  0
  8 14  1  0  0  0  0
  8 18  1  0  0  0  0
  8 30  1  0  0  0  0
  9 10  1  0  0  0  0
  9 31  1  0  0  0  0
  9 32  1  0  0  0  0
 10 33  1  0  0  0  0
 10 34  1  0  0  0  0
 11 15  1  0  0  0  0
 11 19  1  0  0  0  0
 11 35  1  0  0  0  0
 12 14  1  0  0  0  0
 12 36  1  0  0  0  0
 12 37  1  0  0  0  0
 13 15  1  0  0  0  0
 13 38  1  0  0  0  0
 13 39  1  0  0  0  0
 14 40  1  0  0  0  0
 14 41  1  0  0  0  0
 15 42  1  0  0  0  0
 15 43  1  0  0  0  0
 16 21  1  0  0  0  0
 16 44  1  0  0  0  0
 16 45  1  0  0  0  0
 17 46  1  0  0  0  0
 17 47  1  0  0  0  0
 17 48  1  0  0  0  0
 18 23  1  0  0  0  0
 18 24  1  0  0  0  0
 18 49  1  0  0  0  0
 19 22  1  0  0  0  0
 19 50  1  0  0  0  0
 19 51  1  0  0  0  0
 20 52  1  0  0  0  0
 20 53  1  0  0  0  0
 20 54  1  0  0  0  0
 21 22  1  0  0  0  0
 21 55  1  0  0  0  0
 21 56  1  0  0  0  0
 22 57  1  0  0  0  0
 22 58  1  0  0  0  0
 23 25  1  0  0  0  0
 23 59  1  0  0  0  0
 23 60  1  0  0  0  0
 24 61  1  0  0  0  0
 24 62  1  0  0  0  0
 24 63  1  0  0  0  0
 25 26  1  0  0  0  0
 25 64  1  0  0  0  0
 25 65  1  0  0  0  0
M  END
> <PUBCHEM_COMPOUND_CID>
92803

> <PUBCHEM_CONFORMER_RMSD>
0.8

> <PUBCHEM_CONFORMER_DIVERSEORDER>
1
4
5
3
2

> <PUBCHEM_MMFF94_PARTIAL_CHARGES>
5
1 -0.65
2 -0.57
25 0.06
26 0.66
66 0.5

> <PUBCHEM_EFFECTIVE_ROTOR_COUNT>
6.2

> <PUBCHEM_PHARMACOPHORE_FEATURES>
8
1 1 acceptor
1 2 acceptor
1 24 hydrophobe
3 1 2 26 anion
5 3 4 8 12 14 rings
6 3 4 5 6 9 10 rings
6 5 6 7 11 13 15 rings
6 7 11 16 19 21 22 rings

> <PUBCHEM_HEAVY_ATOM_COUNT>
26

> <PUBCHEM_ATOM_DEF_STEREO_COUNT>
8

> <PUBCHEM_ATOM_UDEF_STEREO_COUNT>
0

> <PUBCHEM_BOND_DEF_STEREO_COUNT>
0

> <PUBCHEM_BOND_UDEF_STEREO_COUNT>
0

> <PUBCHEM_ISOTOPIC_ATOM_COUNT>
0

> <PUBCHEM_COMPONENT_COUNT>
1

> <PUBCHEM_CACTVS_TAUTO_COUNT>
1

> <PUBCHEM_CONFORMER_ID>
00016A8300000001

> <PUBCHEM_MMFF94_ENERGY>
84.2734

> <PUBCHEM_FEATURE_SELFOVERLAP>
40.782

> <PUBCHEM_SHAPE_FINGERPRINT>
10 15 18130504137088478352
11089746 13 18113050541243597514
11796584 16 15195275439466429240
12236239 1 17748827432171215303
12422481 6 17489870440496498911
12596602 18 17313101968883529067
12633257 1 17560802087694024154
13140716 1 18196088842181676544
13224815 77 18334294219972649142
13533116 47 18261386801946147338
14170010 4 18342734122751331897
14178342 30 18267584611800861138
14528608 73 18186796980873254135
14787075 74 18259983782185397115
15131766 46 16413207626407653980
15142383 8 16702311152251806196
15183329 4 18411416216007507229
15788980 27 16200431355796956491
1813 80 16630518518830261628
18335252 98 15285359479560517471
20157964 124 18334857229459637043
20511986 3 18334307452376829303
21033648 29 17917996088066346245
21150785 3 15864356818068944305
21267235 1 18340190994989688210
21859007 373 17559974253932738093
22149856 69 18266716096678520739
22182313 1 17988370380719108918
23402539 116 18335138696553216957
23522609 53 9366507122221989939
23559900 14 18339903971020713646
24771293 8 18187366506285242032
2838139 119 18201725050744930285
3004659 81 17989479732560019308
335352 9 18410851075874206622
3472631 163 17530969025802243408
34797466 226 16805316687081131817
34934 24 18335981978478813586
350125 39 18341603872058247942
4072396 5 18342744013760198034
42630746 31 18407759248717762818
4340502 62 18410854360622029770
495365 180 17748825224753444322
5104073 3 18339915043356524601
513532 50 17603856837224002558
6004065 56 18261962838918114249
8509985 295 18060696174179895052
8988823 20 18187367627603502176

> <PUBCHEM_SHAPE_MULTIPOLES>
523.33
14.83
2.14
1.38
16.85
0.46
-0.35
-4
1.18
-1.37
0.17
-0.74
-0.22
0.4

> <PUBCHEM_SHAPE_SELFOVERLAP>
1093.208

> <PUBCHEM_SHAPE_VOLUME>
295

> <PUBCHEM_COORDINATE_TYPE>
2
5
10

$$$$

