68624
  -OEChem-07051212542D

 46 47  0     1  0  0  0  0  0999 V2000
    4.4004    0.0000    0.0000 Cl  0  0  0  0  0  0  0  0  0  0  0  0
    4.8671    3.5972    0.0000 F   0  0  0  0  0  0  0  0  0  0  0  0
    3.1350    6.5972    0.0000 F   0  0  0  0  0  0  0  0  0  0  0  0
    6.6155    7.6318    0.0000 O   0  0  0  0  0  0  0  0  0  0  0  0
    9.2651    6.1247    0.0000 O   0  0  0  0  0  0  0  0  0  0  0  0
    8.3933    7.6213    0.0000 O   0  0  0  0  0  0  0  0  0  0  0  0
    3.1350    4.5972    0.0000 N   0  0  3  0  0  0  0  0  0  0  0  0
    1.4030    3.5972    0.0000 N   0  0  0  0  0  0  0  0  0  0  0  0
    6.6270    4.5625    0.0000 N   0  0  0  0  0  0  0  0  0  0  0  0
    1.4030    4.5972    0.0000 C   0  0  3  0  0  0  0  0  0  0  0  0
    2.2690    5.0972    0.0000 C   0  0  0  0  0  0  0  0  0  0  0  0
    3.1350    3.5972    0.0000 C   0  0  0  0  0  0  0  0  0  0  0  0
    2.2690    3.0972    0.0000 C   0  0  0  0  0  0  0  0  0  0  0  0
    4.0010    5.0972    0.0000 C   0  0  0  0  0  0  0  0  0  0  0  0
    0.5369    5.0972    0.0000 C   0  0  0  0  0  0  0  0  0  0  0  0
    4.8671    4.5972    0.0000 C   0  0  0  0  0  0  0  0  0  0  0  0
    5.7331    5.0972    0.0000 C   0  0  0  0  0  0  0  0  0  0  0  0
    4.0010    6.0972    0.0000 C   0  0  0  0  0  0  0  0  0  0  0  0
    5.7331    6.0972    0.0000 C   0  0  0  0  0  0  0  0  0  0  0  0
    4.8671    6.5972    0.0000 C   0  0  0  0  0  0  0  0  0  0  0  0
    6.6155    3.5626    0.0000 C   0  0  0  0  0  0  0  0  0  0  0  0
    6.6270    6.6318    0.0000 C   0  0  0  0  0  0  0  0  0  0  0  0
    7.5331    5.0764    0.0000 C   0  0  0  0  0  0  0  0  0  0  0  0
    7.5331    6.1180    0.0000 C   0  0  0  0  0  0  0  0  0  0  0  0
    7.4756    3.0526    0.0000 C   0  0  0  0  0  0  0  0  0  0  0  0
    8.3972    6.6213    0.0000 C   0  0  0  0  0  0  0  0  0  0  0  0
    0.8660    4.2872    0.0000 H   0  0  0  0  0  0  0  0  0  0  0  0
    2.6675    5.5721    0.0000 H   0  0  0  0  0  0  0  0  0  0  0  0
    1.8705    5.5721    0.0000 H   0  0  0  0  0  0  0  0  0  0  0  0
    3.3471    3.0146    0.0000 H   0  0  0  0  0  0  0  0  0  0  0  0
    3.7456    3.7048    0.0000 H   0  0  0  0  0  0  0  0  0  0  0  0
    1.8705    2.6222    0.0000 H   0  0  0  0  0  0  0  0  0  0  0  0
    2.6675    2.6222    0.0000 H   0  0  0  0  0  0  0  0  0  0  0  0
    0.8660    3.2872    0.0000 H   0  0  0  0  0  0  0  0  0  0  0  0
    0.8469    5.6341    0.0000 H   0  0  0  0  0  0  0  0  0  0  0  0
    0.0000    5.4072    0.0000 H   0  0  0  0  0  0  0  0  0  0  0  0
    0.2269    4.5602    0.0000 H   0  0  0  0  0  0  0  0  0  0  0  0
    4.8671    7.2172    0.0000 H   0  0  0  0  0  0  0  0  0  0  0  0
    6.0062    3.6773    0.0000 H   0  0  0  0  0  0  0  0  0  0  0  0
    6.3967    2.9824    0.0000 H   0  0  0  0  0  0  0  0  0  0  0  0
    8.0688    4.7643    0.0000 H   0  0  0  0  0  0  0  0  0  0  0  0
    7.1595    2.5193    0.0000 H   0  0  0  0  0  0  0  0  0  0  0  0
    8.0090    2.7364    0.0000 H   0  0  0  0  0  0  0  0  0  0  0  0
    7.7918    3.5859    0.0000 H   0  0  0  0  0  0  0  0  0  0  0  0
    9.8009    6.4367    0.0000 H   0  0  0  0  0  0  0  0  0  0  0  0
    5.4004    0.0000    0.0000 H   0  0  0  0  0  0  0  0  0  0  0  0
  1 46  1  0  0  0  0
  2 16  1  0  0  0  0
  3 18  1  0  0  0  0
  4 22  2  0  0  0  0
  5 26  1  0  0  0  0
  5 45  1  0  0  0  0
  6 26  2  0  0  0  0
  7 11  1  0  0  0  0
  7 12  1  0  0  0  0
  7 14  1  0  0  0  0
  8 10  1  0  0  0  0
  8 13  1  0  0  0  0
  8 34  1  0  0  0  0
  9 17  1  0  0  0  0
  9 21  1  0  0  0  0
  9 23  1  0  0  0  0
 10 11  1  0  0  0  0
 10 15  1  0  0  0  0
 10 27  1  0  0  0  0
 11 28  1  0  0  0  0
 11 29  1  0  0  0  0
 12 13  1  0  0  0  0
 12 30  1  0  0  0  0
 12 31  1  0  0  0  0
 13 32  1  0  0  0  0
 13 33  1  0  0  0  0
 14 16  1  0  0  0  0
 14 18  2  0  0  0  0
 15 35  1  0  0  0  0
 15 36  1  0  0  0  0
 15 37  1  0  0  0  0
 16 17  2  0  0  0  0
 17 19  1  0  0  0  0
 18 20  1  0  0  0  0
 19 20  2  0  0  0  0
 19 22  1  0  0  0  0
 20 38  1  0  0  0  0
 21 25  1  0  0  0  0
 21 39  1  0  0  0  0
 21 40  1  0  0  0  0
 22 24  1  0  0  0  0
 23 24  2  0  0  0  0
 23 41  1  0  0  0  0
 24 26  1  0  0  0  0
 25 42  1  0  0  0  0
 25 43  1  0  0  0  0
 25 44  1  0  0  0  0
M  END
> <PUBCHEM_COMPOUND_CID>
68624

> <PUBCHEM_COMPOUND_CANONICALIZED>
1

> <PUBCHEM_CACTVS_COMPLEXITY>
586

> <PUBCHEM_CACTVS_HBOND_ACCEPTOR>
8

> <PUBCHEM_CACTVS_HBOND_DONOR>
3

> <PUBCHEM_CACTVS_ROTATABLE_BOND>
3

> <PUBCHEM_CACTVS_SUBSKEYS>
AAADceB7MYAEAAAAAAAAAAAAAAAAAAAAAAA8QIAAAAAAAACBAAAAHwAQCAAADCzBmAwyyIPAAgCIAqTWSACCAAAlAAAAiIEIRMgIZD7I1NGUYYhksADI2ceY2aOeCAAAAAQCAAAQAAAACAQAAAAAAAAAAA==

> <PUBCHEM_IUPAC_OPENEYE_NAME>
1-ethyl-6,8-difluoro-7-(3-methylpiperazin-1-yl)-4-oxo-quinoline-3-carboxylic acid hydrochloride

> <PUBCHEM_IUPAC_CAS_NAME>
1-ethyl-6,8-difluoro-7-(3-methyl-1-piperazinyl)-4-oxo-3-quinolinecarboxylic acid hydrochloride

> <PUBCHEM_IUPAC_NAME>
1-ethyl-6,8-difluoro-7-(3-methylpiperazin-1-yl)-4-oxoquinoline-3-carboxylic acid hydrochloride

> <PUBCHEM_IUPAC_SYSTEMATIC_NAME>
1-ethyl-6,8-bis(fluoranyl)-7-(3-methylpiperazin-1-yl)-4-oxidanylidene-quinoline-3-carboxylic acid hydrochloride

> <PUBCHEM_IUPAC_TRADITIONAL_NAME>
1-ethyl-6,8-difluoro-4-keto-7-(3-methylpiperazino)quinoline-3-carboxylic acid hydrochloride

> <PUBCHEM_IUPAC_INCHI>
InChI=1S/C17H19F2N3O3.ClH/c1-3-21-8-11(17(24)25)16(23)10-6-12(18)15(13(19)14(10)21)22-5-4-20-9(2)7-22;/h6,8-9,20H,3-5,7H2,1-2H3,(H,24,25);1H

> <PUBCHEM_IUPAC_INCHIKEY>
KXEBLAPZMOQCKO-UHFFFAOYSA-N

> <PUBCHEM_EXACT_MASS>
387.116126

> <PUBCHEM_MOLECULAR_FORMULA>
C17H20ClF2N3O3

> <PUBCHEM_MOLECULAR_WEIGHT>
387.808806

> <PUBCHEM_OPENEYE_CAN_SMILES>
CCN1C=C(C(=O)C2=CC(=C(C(=C21)F)N3CCNC(C3)C)F)C(=O)O.Cl

> <PUBCHEM_OPENEYE_ISO_SMILES>
CCN1C=C(C(=O)C2=CC(=C(C(=C21)F)N3CCNC(C3)C)F)C(=O)O.Cl

> <PUBCHEM_CACTVS_TPSA>
72.9

> <PUBCHEM_MONOISOTOPIC_WEIGHT>
387.116126

> <PUBCHEM_TOTAL_CHARGE>
0

> <PUBCHEM_HEAVY_ATOM_COUNT>
26

> <PUBCHEM_ATOM_DEF_STEREO_COUNT>
0

> <PUBCHEM_ATOM_UDEF_STEREO_COUNT>
1

> <PUBCHEM_BOND_DEF_STEREO_COUNT>
0

> <PUBCHEM_BOND_UDEF_STEREO_COUNT>
0

> <PUBCHEM_ISOTOPIC_ATOM_COUNT>
0

> <PUBCHEM_COMPONENT_COUNT>
2

> <PUBCHEM_CACTVS_TAUTO_COUNT>
1

> <PUBCHEM_COORDINATE_TYPE>
1
5
255

> <PUBCHEM_BONDANNOTATIONS>
10  15  3
14  16  8
14  18  8
16  17  8
17  19  8
18  20  8
19  20  8
19  22  8
22  24  8
23  24  8
9  17  8
9  23  8

$$$$

