3857
  -OEChem-07051212503D

 18 17  0     1  0  0  0  0  0999 V2000
   -1.6185   -0.1468   -0.0461 P   0  0  0  0  0  0  0  0  0  0  0  0
   -2.8955    0.4590   -0.8147 O   0  0  0  0  0  0  0  0  0  0  0  0
   -1.9379    0.1132    1.5092 O   0  0  0  0  0  0  0  0  0  0  0  0
   -1.2203   -1.5305   -0.4159 O   0  0  0  0  0  0  0  0  0  0  0  0
    1.7091   -1.3400    1.0153 O   0  0  0  0  0  0  0  0  0  0  0  0
    1.8425   -0.8316   -1.1900 O   0  0  0  0  0  0  0  0  0  0  0  0
    1.9443    1.8610    0.0171 N   0  0  0  0  0  0  0  0  0  0  0  0
   -0.3396    1.0890   -0.3891 C   0  0  0  0  0  0  0  0  0  0  0  0
    0.9634    0.8322    0.3599 C   0  0  1  0  0  0  0  0  0  0  0  0
    1.5527   -0.5055   -0.0457 C   0  0  0  0  0  0  0  0  0  0  0  0
   -0.1750    1.0886   -1.4738 H   0  0  0  0  0  0  0  0  0  0  0  0
   -0.7385    2.0748   -0.1217 H   0  0  0  0  0  0  0  0  0  0  0  0
    0.7837    0.8429    1.4399 H   0  0  0  0  0  0  0  0  0  0  0  0
    2.1319    1.8496   -0.9847 H   0  0  0  0  0  0  0  0  0  0  0  0
    2.8295    1.6661    0.4830 H   0  0  0  0  0  0  0  0  0  0  0  0
   -3.7393   -0.0409   -0.8084 H   0  0  0  0  0  0  0  0  0  0  0  0
   -2.5968   -0.4536    1.9637 H   0  0  0  0  0  0  0  0  0  0  0  0
    2.0791   -2.2076    0.7461 H   0  0  0  0  0  0  0  0  0  0  0  0
  1  2  1  0  0  0  0
  1  3  1  0  0  0  0
  1  4  2  0  0  0  0
  1  8  1  0  0  0  0
  2 16  1  0  0  0  0
  3 17  1  0  0  0  0
  5 10  1  0  0  0  0
  5 18  1  0  0  0  0
  6 10  2  0  0  0  0
  7  9  1  0  0  0  0
  7 14  1  0  0  0  0
  7 15  1  0  0  0  0
  8  9  1  0  0  0  0
  8 11  1  0  0  0  0
  8 12  1  0  0  0  0
  9 10  1  0  0  0  0
  9 13  1  0  0  0  0
M  END
> <PUBCHEM_COMPOUND_CID>
3857

> <PUBCHEM_CONFORMER_RMSD>
0.6

> <PUBCHEM_CONFORMER_DIVERSEORDER>
1
2
8
9
5
4
6
10
3
7

> <PUBCHEM_MMFF94_PARTIAL_CHARGES>
14
1 1.24
10 0.66
14 0.36
15 0.36
16 0.5
17 0.5
18 0.5
2 -0.77
3 -0.77
4 -0.7
5 -0.65
6 -0.57
7 -0.99
9 0.33

> <PUBCHEM_EFFECTIVE_ROTOR_COUNT>
3

> <PUBCHEM_PHARMACOPHORE_FEATURES>
9
1 2 acceptor
1 3 acceptor
1 4 acceptor
1 5 acceptor
1 6 acceptor
1 7 cation
1 7 donor
3 5 6 10 anion
4 1 2 3 4 anion

> <PUBCHEM_HEAVY_ATOM_COUNT>
10

> <PUBCHEM_ATOM_DEF_STEREO_COUNT>
0

> <PUBCHEM_ATOM_UDEF_STEREO_COUNT>
1

> <PUBCHEM_BOND_DEF_STEREO_COUNT>
0

> <PUBCHEM_BOND_UDEF_STEREO_COUNT>
0

> <PUBCHEM_ISOTOPIC_ATOM_COUNT>
0

> <PUBCHEM_COMPONENT_COUNT>
1

> <PUBCHEM_CACTVS_TAUTO_COUNT>
1

> <PUBCHEM_CONFORMER_ID>
00000F1100000001

> <PUBCHEM_MMFF94_ENERGY>
-22.232

> <PUBCHEM_FEATURE_SELFOVERLAP>
45.765

> <PUBCHEM_SHAPE_FINGERPRINT>
15310529 11 17417797478738342967
18185500 45 18336832965860381075
20653091 64 18335419049810097578
21040471 1 17979641130531644156
21922407 69 16660938663938638565
23552333 60 18261401013612829537
23552423 10 18271248218365947735
23552449 11 18337403702547318528
24536 1 17821445746573475439
29004967 10 17917423203125627416
5084963 1 17458907157860165365

> <PUBCHEM_SHAPE_MULTIPOLES>
175.32
3.35
1.55
1.07
1.23
0.12
-0.18
0.05
0.21
-0.74
0.03
0.18
-0.17
0.02

> <PUBCHEM_SHAPE_SELFOVERLAP>
319.63

> <PUBCHEM_SHAPE_VOLUME>
111.8

> <PUBCHEM_COORDINATE_TYPE>
2
5
10

$$$$

