10385
  -OEChem-06261204312D

 33 32  0     0  0  0  0  0  0999 V2000
    3.0000    0.6200    0.0000 O   0  0  0  0  0  0  0  0  0  0  0  0
    0.0000    3.1200    0.0000 O   0  5  0  0  0  0  0  0  0  0  0  0
    5.5981    5.1200    0.0000 N   0  3  0  0  0  0  0  0  0  0  0  0
    5.5981    4.1200    0.0000 C   0  0  0  0  0  0  0  0  0  0  0  0
    4.7320    3.6200    0.0000 C   0  0  0  0  0  0  0  0  0  0  0  0
    5.5981    6.1200    0.0000 C   0  0  0  0  0  0  0  0  0  0  0  0
    6.5981    5.1200    0.0000 C   0  0  0  0  0  0  0  0  0  0  0  0
    4.5981    5.1200    0.0000 C   0  0  0  0  0  0  0  0  0  0  0  0
    4.7320    2.6200    0.0000 C   0  0  0  0  0  0  0  0  0  0  0  0
    3.8660    2.1200    0.0000 C   0  0  0  0  0  0  0  0  0  0  0  0
    5.5981    2.1200    0.0000 C   0  0  0  0  0  0  0  0  0  0  0  0
    3.8660    1.1200    0.0000 C   0  0  0  0  0  0  0  0  0  0  0  0
    5.5981    1.1200    0.0000 C   0  0  0  0  0  0  0  0  0  0  0  0
    4.7320    0.6200    0.0000 C   0  0  0  0  0  0  0  0  0  0  0  0
    5.8101    3.5374    0.0000 H   0  0  0  0  0  0  0  0  0  0  0  0
    6.2087    4.2277    0.0000 H   0  0  0  0  0  0  0  0  0  0  0  0
    4.5200    4.2026    0.0000 H   0  0  0  0  0  0  0  0  0  0  0  0
    4.1215    3.5123    0.0000 H   0  0  0  0  0  0  0  0  0  0  0  0
    6.2181    6.1200    0.0000 H   0  0  0  0  0  0  0  0  0  0  0  0
    4.5981    5.7400    0.0000 H   0  0  0  0  0  0  0  0  0  0  0  0
    3.9781    5.1200    0.0000 H   0  0  0  0  0  0  0  0  0  0  0  0
    4.5981    4.5000    0.0000 H   0  0  0  0  0  0  0  0  0  0  0  0
    6.5981    4.5000    0.0000 H   0  0  0  0  0  0  0  0  0  0  0  0
    7.2181    5.1200    0.0000 H   0  0  0  0  0  0  0  0  0  0  0  0
    6.5981    5.7400    0.0000 H   0  0  0  0  0  0  0  0  0  0  0  0
    5.5981    6.7400    0.0000 H   0  0  0  0  0  0  0  0  0  0  0  0
    4.9781    6.1200    0.0000 H   0  0  0  0  0  0  0  0  0  0  0  0
    3.3291    2.4300    0.0000 H   0  0  0  0  0  0  0  0  0  0  0  0
    6.1350    2.4300    0.0000 H   0  0  0  0  0  0  0  0  0  0  0  0
    6.1350    0.8100    0.0000 H   0  0  0  0  0  0  0  0  0  0  0  0
    4.7320    0.0000    0.0000 H   0  0  0  0  0  0  0  0  0  0  0  0
    3.0000    0.0000    0.0000 H   0  0  0  0  0  0  0  0  0  0  0  0
    1.0000    3.1200    0.0000 H   0  0  0  0  0  0  0  0  0  0  0  0
  1 12  1  0  0  0  0
  1 32  1  0  0  0  0
  2 33  1  0  0  0  0
  3  4  1  0  0  0  0
  3  6  1  0  0  0  0
  3  7  1  0  0  0  0
  3  8  1  0  0  0  0
  4  5  1  0  0  0  0
  4 15  1  0  0  0  0
  4 16  1  0  0  0  0
  5  9  1  0  0  0  0
  5 17  1  0  0  0  0
  5 18  1  0  0  0  0
  6 19  1  0  0  0  0
  6 26  1  0  0  0  0
  6 27  1  0  0  0  0
  7 23  1  0  0  0  0
  7 24  1  0  0  0  0
  7 25  1  0  0  0  0
  8 20  1  0  0  0  0
  8 21  1  0  0  0  0
  8 22  1  0  0  0  0
  9 10  2  0  0  0  0
  9 11  1  0  0  0  0
 10 12  1  0  0  0  0
 10 28  1  0  0  0  0
 11 13  2  0  0  0  0
 11 29  1  0  0  0  0
 12 14  2  0  0  0  0
 13 14  1  0  0  0  0
 13 30  1  0  0  0  0
 14 31  1  0  0  0  0
M  CHG  2   2  -1   3   1
M  END
> <PUBCHEM_COMPOUND_CID>
10385

> <PUBCHEM_COMPOUND_CANONICALIZED>
1

> <PUBCHEM_CACTVS_COMPLEXITY>
151

> <PUBCHEM_CACTVS_HBOND_ACCEPTOR>
2

> <PUBCHEM_CACTVS_HBOND_DONOR>
2

> <PUBCHEM_CACTVS_ROTATABLE_BOND>
3

> <PUBCHEM_CACTVS_SUBSKEYS>
AAADceByMAAAAAAAAAAAAAAAAAAAAAAAAAAwAAAAAAAAAAABAAAAHgAACAAADATBmAQyBoMAAgCAAiBCAAACAAAgIAAIiAAOCIgIJiKCkROEcAAkwBEImAeQ0LIOAAABAAAAAAAAAAIAAAAAAAAAAAAAAA==

> <PUBCHEM_IUPAC_OPENEYE_NAME>
2-(3-hydroxyphenyl)ethyl-trimethyl-ammonium hydroxide

> <PUBCHEM_IUPAC_CAS_NAME>
2-(3-hydroxyphenyl)ethyl-trimethylammonium hydroxide

> <PUBCHEM_IUPAC_NAME>
2-(3-hydroxyphenyl)ethyl-trimethylazanium hydroxide

> <PUBCHEM_IUPAC_SYSTEMATIC_NAME>
2-(3-hydroxyphenyl)ethyl-trimethyl-azanium hydroxide

> <PUBCHEM_IUPAC_TRADITIONAL_NAME>
2-(3-hydroxyphenyl)ethyl-trimethyl-ammonium hydroxide

> <PUBCHEM_IUPAC_INCHI>
InChI=1S/C11H17NO.H2O/c1-12(2,3)8-7-10-5-4-6-11(13)9-10;/h4-6,9H,7-8H2,1-3H3;1H2

> <PUBCHEM_IUPAC_INCHIKEY>
ZFPCVTISBCCLRQ-UHFFFAOYSA-N

> <PUBCHEM_EXACT_MASS>
197.141579

> <PUBCHEM_MOLECULAR_FORMULA>
C11H19NO2

> <PUBCHEM_MOLECULAR_WEIGHT>
197.27406

> <PUBCHEM_OPENEYE_CAN_SMILES>
C[N+](C)(C)CCC1=CC(=CC=C1)O.[OH-]

> <PUBCHEM_OPENEYE_ISO_SMILES>
C[N+](C)(C)CCC1=CC(=CC=C1)O.[OH-]

> <PUBCHEM_CACTVS_TPSA>
21.2

> <PUBCHEM_MONOISOTOPIC_WEIGHT>
197.141579

> <PUBCHEM_TOTAL_CHARGE>
0

> <PUBCHEM_HEAVY_ATOM_COUNT>
14

> <PUBCHEM_ATOM_DEF_STEREO_COUNT>
0

> <PUBCHEM_ATOM_UDEF_STEREO_COUNT>
0

> <PUBCHEM_BOND_DEF_STEREO_COUNT>
0

> <PUBCHEM_BOND_UDEF_STEREO_COUNT>
0

> <PUBCHEM_ISOTOPIC_ATOM_COUNT>
0

> <PUBCHEM_COMPONENT_COUNT>
2

> <PUBCHEM_CACTVS_TAUTO_COUNT>
9

> <PUBCHEM_COORDINATE_TYPE>
1
5
255

> <PUBCHEM_BONDANNOTATIONS>
10  12  8
11  13  8
12  14  8
13  14  8
9  10  8
9  11  8

$$$$

