12640
  -OEChem-06261207112D

 20 20  0     0  0  0  0  0  0999 V2000
    3.7320    0.4330    0.0000 O   0  0  0  0  0  0  0  0  0  0  0  0
    2.0000    0.4330    0.0000 O   0  0  0  0  0  0  0  0  0  0  0  0
    2.8660   -1.0670    0.0000 N   0  0  0  0  0  0  0  0  0  0  0  0
    2.3660   -1.9330    0.0000 C   0  0  0  0  0  0  0  0  0  0  0  0
    3.3660   -1.9330    0.0000 C   0  0  0  0  0  0  0  0  0  0  0  0
    2.8660   -0.0670    0.0000 C   0  0  0  0  0  0  0  0  0  0  0  0
    3.7320    1.4330    0.0000 C   0  0  0  0  0  0  0  0  0  0  0  0
    4.5981    1.9330    0.0000 C   0  0  0  0  0  0  0  0  0  0  0  0
    2.8660    1.9330    0.0000 C   0  0  0  0  0  0  0  0  0  0  0  0
    3.4737   -2.5436    0.0000 H   0  0  0  0  0  0  0  0  0  0  0  0
    3.9486   -1.7210    0.0000 H   0  0  0  0  0  0  0  0  0  0  0  0
    1.7834   -1.7210    0.0000 H   0  0  0  0  0  0  0  0  0  0  0  0
    2.2584   -2.5436    0.0000 H   0  0  0  0  0  0  0  0  0  0  0  0
    4.2690    1.1230    0.0000 H   0  0  0  0  0  0  0  0  0  0  0  0
    3.1760    2.4700    0.0000 H   0  0  0  0  0  0  0  0  0  0  0  0
    2.3291    2.2430    0.0000 H   0  0  0  0  0  0  0  0  0  0  0  0
    2.5560    1.3961    0.0000 H   0  0  0  0  0  0  0  0  0  0  0  0
    4.9081    1.3961    0.0000 H   0  0  0  0  0  0  0  0  0  0  0  0
    5.1350    2.2430    0.0000 H   0  0  0  0  0  0  0  0  0  0  0  0
    4.2881    2.4700    0.0000 H   0  0  0  0  0  0  0  0  0  0  0  0
  1  6  1  0  0  0  0
  1  7  1  0  0  0  0
  2  6  2  0  0  0  0
  3  4  1  0  0  0  0
  3  5  1  0  0  0  0
  3  6  1  0  0  0  0
  4  5  1  0  0  0  0
  4 12  1  0  0  0  0
  4 13  1  0  0  0  0
  5 10  1  0  0  0  0
  5 11  1  0  0  0  0
  7  8  1  0  0  0  0
  7  9  1  0  0  0  0
  7 14  1  0  0  0  0
  8 18  1  0  0  0  0
  8 19  1  0  0  0  0
  8 20  1  0  0  0  0
  9 15  1  0  0  0  0
  9 16  1  0  0  0  0
  9 17  1  0  0  0  0
M  END
> <PUBCHEM_COMPOUND_CID>
12640

> <PUBCHEM_COMPOUND_CANONICALIZED>
1

> <PUBCHEM_CACTVS_COMPLEXITY>
118

> <PUBCHEM_CACTVS_HBOND_ACCEPTOR>
2

> <PUBCHEM_CACTVS_HBOND_DONOR>
0

> <PUBCHEM_CACTVS_ROTATABLE_BOND>
2

> <PUBCHEM_CACTVS_SUBSKEYS>
AAADccBiMAAAAAAAAAAAAAAAFgAAAAAAAAAAAAAAAAAAAAAAAAAAHgAAAAAACBThgAYCCAMABAAIAAAAGAAAAAAAAAAAAAAIAAAAAAAAAAAIAAAABgAAAAAAAAAAAAAAAAAAAAAAAAAAAAAAAAAAAAAAAA==

> <PUBCHEM_IUPAC_OPENEYE_NAME>
isopropyl aziridine-1-carboxylate

> <PUBCHEM_IUPAC_CAS_NAME>
1-aziridinecarboxylic acid propan-2-yl ester

> <PUBCHEM_IUPAC_NAME>
propan-2-yl aziridine-1-carboxylate

> <PUBCHEM_IUPAC_SYSTEMATIC_NAME>
propan-2-yl aziridine-1-carboxylate

> <PUBCHEM_IUPAC_TRADITIONAL_NAME>
ethylenimine-1-carboxylic acid isopropyl ester

> <PUBCHEM_IUPAC_INCHI>
InChI=1S/C6H11NO2/c1-5(2)9-6(8)7-3-4-7/h5H,3-4H2,1-2H3

> <PUBCHEM_IUPAC_INCHIKEY>
QRHKUWPDXPZWDX-UHFFFAOYSA-N

> <PUBCHEM_XLOGP3_AA>
0.7

> <PUBCHEM_EXACT_MASS>
129.078979

> <PUBCHEM_MOLECULAR_FORMULA>
C6H11NO2

> <PUBCHEM_MOLECULAR_WEIGHT>
129.15704

> <PUBCHEM_OPENEYE_CAN_SMILES>
CC(C)OC(=O)N1CC1

> <PUBCHEM_OPENEYE_ISO_SMILES>
CC(C)OC(=O)N1CC1

> <PUBCHEM_CACTVS_TPSA>
29.3

> <PUBCHEM_MONOISOTOPIC_WEIGHT>
129.078979

> <PUBCHEM_TOTAL_CHARGE>
0

> <PUBCHEM_HEAVY_ATOM_COUNT>
9

> <PUBCHEM_ATOM_DEF_STEREO_COUNT>
0

> <PUBCHEM_ATOM_UDEF_STEREO_COUNT>
0

> <PUBCHEM_BOND_DEF_STEREO_COUNT>
0

> <PUBCHEM_BOND_UDEF_STEREO_COUNT>
0

> <PUBCHEM_ISOTOPIC_ATOM_COUNT>
0

> <PUBCHEM_COMPONENT_COUNT>
1

> <PUBCHEM_CACTVS_TAUTO_COUNT>
1

> <PUBCHEM_COORDINATE_TYPE>
1
5
255

$$$$

