442095
  -OEChem-07051212573D

 48 52  0     1  0  0  0  0  0999 V2000
   -0.8400   -3.4749   -1.2574 O   0  0  0  0  0  0  0  0  0  0  0  0
   -1.1858    2.1004    0.1351 N   0  0  1  0  0  0  0  0  0  0  0  0
    1.2783   -1.7015    0.0070 N   0  0  0  0  0  0  0  0  0  0  0  0
    0.5847    0.5787   -0.4583 C   0  0  1  0  0  0  0  0  0  0  0  0
   -0.1492    1.2296    0.7332 C   0  0  2  0  0  0  0  0  0  0  0  0
    0.2254   -0.9369   -0.6759 C   0  0  2  0  0  0  0  0  0  0  0  0
   -1.7474   -0.6388    1.0465 C   0  0  1  0  0  0  0  0  0  0  0  0
   -1.1972   -1.3579   -0.2261 C   0  0  2  0  0  0  0  0  0  0  0  0
   -0.6769    0.2056    1.7290 C   0  0  0  0  0  0  0  0  0  0  0  0
    0.2421    1.4703   -1.6617 C   0  0  0  0  0  0  0  0  0  0  0  0
   -2.9072    0.3435    0.7368 C   0  0  1  0  0  0  0  0  0  0  0  0
   -0.5187    2.6508   -1.0583 C   0  0  0  0  0  0  0  0  0  0  0  0
   -2.4453    1.4340   -0.2450 C   0  0  0  0  0  0  0  0  0  0  0  0
    2.0662    0.4702   -0.1760 C   0  0  0  0  0  0  0  0  0  0  0  0
    2.3909   -0.8642    0.0817 C   0  0  0  0  0  0  0  0  0  0  0  0
   -1.3399   -2.8797   -0.0808 C   0  0  0  0  0  0  0  0  0  0  0  0
   -4.1641   -0.3657    0.2278 C   0  0  0  0  0  0  0  0  0  0  0  0
    3.0287    1.4667   -0.1051 C   0  0  0  0  0  0  0  0  0  0  0  0
    3.6742   -1.2230    0.4584 C   0  0  0  0  0  0  0  0  0  0  0  0
   -5.3025    0.6129    0.0202 C   0  0  0  0  0  0  0  0  0  0  0  0
    4.3320    1.1078    0.2423 C   0  0  0  0  0  0  0  0  0  0  0  0
    4.6518   -0.2278    0.5266 C   0  0  0  0  0  0  0  0  0  0  0  0
    0.5321    1.8937    1.2834 H   0  0  0  0  0  0  0  0  0  0  0  0
    0.3293   -1.1702   -1.7465 H   0  0  0  0  0  0  0  0  0  0  0  0
   -2.1137   -1.3790    1.7694 H   0  0  0  0  0  0  0  0  0  0  0  0
   -1.8341   -1.0935   -1.0788 H   0  0  0  0  0  0  0  0  0  0  0  0
   -1.0955    0.7187    2.6047 H   0  0  0  0  0  0  0  0  0  0  0  0
    0.1302   -0.4271    2.1145 H   0  0  0  0  0  0  0  0  0  0  0  0
   -0.4065    0.9400   -2.3691 H   0  0  0  0  0  0  0  0  0  0  0  0
    1.1171    1.8146   -2.2229 H   0  0  0  0  0  0  0  0  0  0  0  0
   -3.1826    0.8396    1.6796 H   0  0  0  0  0  0  0  0  0  0  0  0
    0.1866    3.4310   -0.7458 H   0  0  0  0  0  0  0  0  0  0  0  0
   -1.2124    3.1124   -1.7696 H   0  0  0  0  0  0  0  0  0  0  0  0
   -2.3926    1.0089   -1.2543 H   0  0  0  0  0  0  0  0  0  0  0  0
   -3.2016    2.2258   -0.2975 H   0  0  0  0  0  0  0  0  0  0  0  0
    1.3898   -2.6996   -0.1109 H   0  0  0  0  0  0  0  0  0  0  0  0
   -2.3882   -3.1703    0.0452 H   0  0  0  0  0  0  0  0  0  0  0  0
   -0.7779   -3.2631    0.7765 H   0  0  0  0  0  0  0  0  0  0  0  0
   -4.4740   -1.1185    0.9627 H   0  0  0  0  0  0  0  0  0  0  0  0
   -3.9808   -0.8977   -0.7114 H   0  0  0  0  0  0  0  0  0  0  0  0
    2.7800    2.5046   -0.2987 H   0  0  0  0  0  0  0  0  0  0  0  0
    3.9244   -2.2529    0.6910 H   0  0  0  0  0  0  0  0  0  0  0  0
   -5.4654    1.2365    0.9051 H   0  0  0  0  0  0  0  0  0  0  0  0
   -5.1319    1.2634   -0.8427 H   0  0  0  0  0  0  0  0  0  0  0  0
   -6.2304    0.0645   -0.1744 H   0  0  0  0  0  0  0  0  0  0  0  0
    5.1033    1.8705    0.3063 H   0  0  0  0  0  0  0  0  0  0  0  0
   -1.3931   -3.1783   -2.0002 H   0  0  0  0  0  0  0  0  0  0  0  0
    5.6682   -0.4885    0.8089 H   0  0  0  0  0  0  0  0  0  0  0  0
  1 16  1  0  0  0  0
  1 47  1  0  0  0  0
  2  5  1  0  0  0  0
  2 12  1  0  0  0  0
  2 13  1  0  0  0  0
  3  6  1  0  0  0  0
  3 15  1  0  0  0  0
  3 36  1  0  0  0  0
  4  5  1  0  0  0  0
  4  6  1  0  0  0  0
  4 10  1  0  0  0  0
  4 14  1  0  0  0  0
  5  9  1  0  0  0  0
  5 23  1  0  0  0  0
  6  8  1  0  0  0  0
  6 24  1  0  0  0  0
  7  8  1  0  0  0  0
  7  9  1  0  0  0  0
  7 11  1  0  0  0  0
  7 25  1  0  0  0  0
  8 16  1  0  0  0  0
  8 26  1  0  0  0  0
  9 27  1  0  0  0  0
  9 28  1  0  0  0  0
 10 12  1  0  0  0  0
 10 29  1  0  0  0  0
 10 30  1  0  0  0  0
 11 13  1  0  0  0  0
 11 17  1  0  0  0  0
 11 31  1  0  0  0  0
 12 32  1  0  0  0  0
 12 33  1  0  0  0  0
 13 34  1  0  0  0  0
 13 35  1  0  0  0  0
 14 15  1  0  0  0  0
 14 18  2  0  0  0  0
 15 19  2  0  0  0  0
 16 37  1  0  0  0  0
 16 38  1  0  0  0  0
 17 20  1  0  0  0  0
 17 39  1  0  0  0  0
 17 40  1  0  0  0  0
 18 21  1  0  0  0  0
 18 41  1  0  0  0  0
 19 22  1  0  0  0  0
 19 42  1  0  0  0  0
 20 43  1  0  0  0  0
 20 44  1  0  0  0  0
 20 45  1  0  0  0  0
 21 22  2  0  0  0  0
 21 46  1  0  0  0  0
 22 48  1  0  0  0  0
M  END
> <PUBCHEM_COMPOUND_CID>
442095

> <PUBCHEM_CONFORMER_RMSD>
0.6

> <PUBCHEM_CONFORMER_DIVERSEORDER>
1
4
3
2

> <PUBCHEM_MMFF94_PARTIAL_CHARGES>
21
1 -0.68
12 0.27
13 0.27
14 -0.14
15 0.1
16 0.28
18 -0.15
19 -0.15
2 -0.81
21 -0.15
22 -0.15
3 -0.87
36 0.4
4 0.14
41 0.15
42 0.15
46 0.15
47 0.4
48 0.15
5 0.27
6 0.37

> <PUBCHEM_EFFECTIVE_ROTOR_COUNT>
3.4

> <PUBCHEM_PHARMACOPHORE_FEATURES>
11
1 1 acceptor
1 1 donor
1 2 cation
1 20 hydrophobe
1 3 cation
1 3 donor
5 2 4 5 10 12 rings
5 3 4 6 14 15 rings
6 14 15 18 19 21 22 rings
6 2 5 7 9 11 13 rings
6 4 5 6 7 8 9 rings

> <PUBCHEM_HEAVY_ATOM_COUNT>
22

> <PUBCHEM_ATOM_DEF_STEREO_COUNT>
6

> <PUBCHEM_ATOM_UDEF_STEREO_COUNT>
0

> <PUBCHEM_BOND_DEF_STEREO_COUNT>
0

> <PUBCHEM_BOND_UDEF_STEREO_COUNT>
0

> <PUBCHEM_ISOTOPIC_ATOM_COUNT>
0

> <PUBCHEM_COMPONENT_COUNT>
1

> <PUBCHEM_CACTVS_TAUTO_COUNT>
1

> <PUBCHEM_CONFORMER_ID>
0006BEEF00000001

> <PUBCHEM_MMFF94_ENERGY>
89.4497

> <PUBCHEM_FEATURE_SELFOVERLAP>
57.955

> <PUBCHEM_SHAPE_FINGERPRINT>
10863032 1 18191587454040242841
10906281 52 18128511925662684785
10948715 1 18339644546121062281
10967382 1 18411135840151982062
11132069 177 18335139757146239218
11370993 70 18335142032956751003
11578080 2 17534911779582952433
12011746 2 18411132558818262052
12251169 10 18411419510152360680
12403259 226 18053104205467227094
12403814 3 18341618117800305921
12422481 6 18125708239720706017
12969540 114 18269575930184511605
13004483 165 18200888339085282600
13132413 78 18193553359371674700
13140716 1 18339929195331870914
14787075 74 17821737126008547433
15196674 1 18411417298017460371
15309172 13 18262798591860492880
16945 1 18335689542624094904
19591789 44 18122905601740586414
200 152 18261396679948870137
20261772 1 18410851032154250706
20510252 161 18188207722869093856
20905425 154 17697882818933514987
21267235 1 18342166791345758378
22182313 1 18198622322824281469
22344851 262 18271241608258337241
23184049 59 18413383237513425619
23227448 37 18189901920195651976
2334 1 18122904222918518470
23388829 49 17980195288697352356
23402539 116 18411426111459085405
23419403 2 17246711094381674089
23559900 14 18194405713254611666
2748010 2 18196639916112382197
296302 2 18334288751920268233
335352 9 18410011048589542158
34934 24 18272652303267648560
350125 39 18339078319524117566
4340502 62 18113053839915624315
439807 62 18121227477210571079
69090 78 18412265042725125745
6992083 37 18339917117466959999
7471813 234 17466522100464137751
9709674 26 18341887554068205458

> <PUBCHEM_SHAPE_MULTIPOLES>
436.92
7.35
2.74
1.15
0.35
1.28
0.01
-0.73
-1.47
-0.65
1.08
-0.21
-0.07
-0.2

> <PUBCHEM_SHAPE_SELFOVERLAP>
965.748

> <PUBCHEM_SHAPE_VOLUME>
234.3

> <PUBCHEM_COORDINATE_TYPE>
2
5
10

$$$$

