46173875
  -OEChem-07051213103D

 54 54  0     1  0  0  0  0  0999 V2000
    0.2787    0.8952   -2.2224 S   0  0  0  0  0  0  0  0  0  0  0  0
   -3.8669   -4.0308   -0.3973 S   0  0  0  0  0  0  0  0  0  0  0  0
    4.6311    0.7905    0.5643 S   0  0  0  0  0  0  0  0  0  0  0  0
   -0.8704    0.7398    0.1642 O   0  0  0  0  0  0  0  0  0  0  0  0
   -3.7500    3.5921   -0.5274 O   0  0  0  0  0  0  0  0  0  0  0  0
   -3.2177    2.7414    2.1594 O   0  0  0  0  0  0  0  0  0  0  0  0
   -1.3493    3.5678   -2.1378 O   0  0  0  0  0  0  0  0  0  0  0  0
   -0.3967   -0.4346    2.5930 O   0  0  0  0  0  0  0  0  0  0  0  0
    3.5115   -0.0685   -0.2566 O   0  0  0  0  0  0  0  0  0  0  0  0
    5.5508   -0.3731    1.2408 O   0  0  0  0  0  0  0  0  0  0  0  0
    3.9634    1.5021    1.6383 O   0  0  0  0  0  0  0  0  0  0  0  0
    5.4562    1.5024   -0.3938 O   0  0  0  0  0  0  0  0  0  0  0  0
    2.5284    0.7623   -0.8012 N   0  0  0  0  0  0  0  0  0  0  0  0
   -2.4815    3.1018   -0.0882 C   0  0  1  0  0  0  0  0  0  0  0  0
   -2.7189    2.0636    1.0092 C   0  0  1  0  0  0  0  0  0  0  0  0
   -1.7365    2.4945   -1.2811 C   0  0  2  0  0  0  0  0  0  0  0  0
   -1.4198    1.3268    1.3446 C   0  0  1  0  0  0  0  0  0  0  0  0
   -0.5049    1.7117   -0.8154 C   0  0  2  0  0  0  0  0  0  0  0  0
   -1.6393    0.1984    2.3477 C   0  0  0  0  0  0  0  0  0  0  0  0
    1.6410    0.0782   -1.4523 C   0  0  0  0  0  0  0  0  0  0  0  0
    1.6358   -1.4309   -1.6118 C   0  0  0  0  0  0  0  0  0  0  0  0
    0.8897   -2.0913   -0.4515 C   0  0  0  0  0  0  0  0  0  0  0  0
    0.9123   -3.6153   -0.5758 C   0  0  0  0  0  0  0  0  0  0  0  0
    0.1716   -4.3311    0.5580 C   0  0  0  0  0  0  0  0  0  0  0  0
   -1.3300   -4.0403    0.6646 C   0  0  0  0  0  0  0  0  0  0  0  0
   -2.1013   -4.4067   -0.6001 C   0  0  0  0  0  0  0  0  0  0  0  0
   -3.7874   -2.2462   -0.6712 C   0  0  0  0  0  0  0  0  0  0  0  0
   -1.9412    3.9700    0.3078 H   0  0  0  0  0  0  0  0  0  0  0  0
   -3.4899    1.3536    0.6858 H   0  0  0  0  0  0  0  0  0  0  0  0
   -2.4243    1.8504   -1.8437 H   0  0  0  0  0  0  0  0  0  0  0  0
   -0.6764    2.0155    1.7688 H   0  0  0  0  0  0  0  0  0  0  0  0
    0.2381    2.3953   -0.3863 H   0  0  0  0  0  0  0  0  0  0  0  0
   -2.3250   -0.5545    1.9483 H   0  0  0  0  0  0  0  0  0  0  0  0
   -2.0338    0.5782    3.2949 H   0  0  0  0  0  0  0  0  0  0  0  0
   -4.2542    2.8437   -0.8896 H   0  0  0  0  0  0  0  0  0  0  0  0
   -2.5241    3.3442    2.4774 H   0  0  0  0  0  0  0  0  0  0  0  0
   -0.7141    4.1240   -1.6553 H   0  0  0  0  0  0  0  0  0  0  0  0
    2.6654   -1.8011   -1.6668 H   0  0  0  0  0  0  0  0  0  0  0  0
    1.1620   -1.7017   -2.5631 H   0  0  0  0  0  0  0  0  0  0  0  0
   -0.1463   -1.7379   -0.4459 H   0  0  0  0  0  0  0  0  0  0  0  0
    1.3345   -1.7890    0.5041 H   0  0  0  0  0  0  0  0  0  0  0  0
    1.9563   -3.9536   -0.5647 H   0  0  0  0  0  0  0  0  0  0  0  0
    0.5059   -3.9205   -1.5463 H   0  0  0  0  0  0  0  0  0  0  0  0
    0.3110   -5.4121    0.4310 H   0  0  0  0  0  0  0  0  0  0  0  0
    0.6449   -4.0705    1.5129 H   0  0  0  0  0  0  0  0  0  0  0  0
   -0.5627   -1.1614    3.2171 H   0  0  0  0  0  0  0  0  0  0  0  0
   -1.4672   -2.9843    0.9198 H   0  0  0  0  0  0  0  0  0  0  0  0
   -1.7232   -4.6156    1.5132 H   0  0  0  0  0  0  0  0  0  0  0  0
   -1.7288   -3.8791   -1.4823 H   0  0  0  0  0  0  0  0  0  0  0  0
   -2.0057   -5.4802   -0.7939 H   0  0  0  0  0  0  0  0  0  0  0  0
   -4.8019   -1.8387   -0.6540 H   0  0  0  0  0  0  0  0  0  0  0  0
   -3.3468   -2.0250   -1.6470 H   0  0  0  0  0  0  0  0  0  0  0  0
   -3.2112   -1.7520    0.1124 H   0  0  0  0  0  0  0  0  0  0  0  0
    6.3016   -0.0503    1.7923 H   0  0  0  0  0  0  0  0  0  0  0  0
  1 18  1  0  0  0  0
  1 20  1  0  0  0  0
  2 26  1  0  0  0  0
  2 27  1  0  0  0  0
  3  9  1  0  0  0  0
  3 10  1  0  0  0  0
  3 11  2  0  0  0  0
  3 12  2  0  0  0  0
  4 17  1  0  0  0  0
  4 18  1  0  0  0  0
  5 14  1  0  0  0  0
  5 35  1  0  0  0  0
  6 15  1  0  0  0  0
  6 36  1  0  0  0  0
  7 16  1  0  0  0  0
  7 37  1  0  0  0  0
  8 19  1  0  0  0  0
  8 46  1  0  0  0  0
  9 13  1  0  0  0  0
 10 54  1  0  0  0  0
 13 20  2  0  0  0  0
 14 15  1  0  0  0  0
 14 16  1  0  0  0  0
 14 28  1  0  0  0  0
 15 17  1  0  0  0  0
 15 29  1  0  0  0  0
 16 18  1  0  0  0  0
 16 30  1  0  0  0  0
 17 19  1  0  0  0  0
 17 31  1  0  0  0  0
 18 32  1  0  0  0  0
 19 33  1  0  0  0  0
 19 34  1  0  0  0  0
 20 21  1  0  0  0  0
 21 22  1  0  0  0  0
 21 38  1  0  0  0  0
 21 39  1  0  0  0  0
 22 23  1  0  0  0  0
 22 40  1  0  0  0  0
 22 41  1  0  0  0  0
 23 24  1  0  0  0  0
 23 42  1  0  0  0  0
 23 43  1  0  0  0  0
 24 25  1  0  0  0  0
 24 44  1  0  0  0  0
 24 45  1  0  0  0  0
 25 26  1  0  0  0  0
 25 47  1  0  0  0  0
 25 48  1  0  0  0  0
 26 49  1  0  0  0  0
 26 50  1  0  0  0  0
 27 51  1  0  0  0  0
 27 52  1  0  0  0  0
 27 53  1  0  0  0  0
M  END
> <PUBCHEM_COMPOUND_CID>
46173875

> <PUBCHEM_CONFORMER_RMSD>
1.2

> <PUBCHEM_CONFORMER_DIVERSEORDER>
1
43
20
26
39
29
9
22
8
24
10
30
2
36
33
40
50
37
17
32
35
5
27
11
55
46
31
41
44
19
45
28
23
4
21
42
47
14
52
6
48
25
7
49
15
38
3
13
16
53
51
12
34
18
54

> <PUBCHEM_MMFF94_PARTIAL_CHARGES>
28
1 -0.37
10 -0.68
11 -0.65
12 -0.65
13 -0.51
14 0.28
15 0.28
16 0.28
17 0.28
18 0.51
19 0.28
2 -0.46
20 0.53
21 0.06
26 0.23
27 0.23
3 1.67
35 0.4
36 0.4
37 0.4
4 -0.56
46 0.4
5 -0.68
54 0.5
6 -0.68
7 -0.68
8 -0.68
9 -0.12

> <PUBCHEM_EFFECTIVE_ROTOR_COUNT>
13.2

> <PUBCHEM_PHARMACOPHORE_FEATURES>
16
1 10 acceptor
1 11 acceptor
1 12 acceptor
1 13 acceptor
1 27 hydrophobe
1 4 acceptor
1 5 acceptor
1 5 donor
1 6 acceptor
1 6 donor
1 7 acceptor
1 7 donor
1 8 acceptor
1 8 donor
4 3 10 11 12 anion
6 4 14 15 16 17 18 rings

> <PUBCHEM_HEAVY_ATOM_COUNT>
27

> <PUBCHEM_ATOM_DEF_STEREO_COUNT>
5

> <PUBCHEM_ATOM_UDEF_STEREO_COUNT>
0

> <PUBCHEM_BOND_DEF_STEREO_COUNT>
0

> <PUBCHEM_BOND_UDEF_STEREO_COUNT>
1

> <PUBCHEM_ISOTOPIC_ATOM_COUNT>
0

> <PUBCHEM_COMPONENT_COUNT>
1

> <PUBCHEM_CACTVS_TAUTO_COUNT>
1

> <PUBCHEM_CONFORMER_ID>
02C08EB300000001

> <PUBCHEM_MMFF94_ENERGY>
46.5525

> <PUBCHEM_FEATURE_SELFOVERLAP>
81.268

> <PUBCHEM_SHAPE_FINGERPRINT>
10930396 42 17613471877298500362
11582403 64 16626341624332828084
11646440 116 18119801414127642699
12156800 1 17695674754903680307
12166972 35 17543630833561272974
12655364 131 17544517427160559026
12788726 201 18197783189879809978
13004483 165 18051706442810497458
19930381 70 16754940685159782975
20600515 1 17905606601633839606
21120745 212 17836630943421248636
23419403 2 17536890874642735947
3380486 77 17979624641846623398
345986 75 17769688346010783466
35225 105 18115325388126625954
463206 1 17043724090270406807
469060 322 18340198588322659991
495365 180 17980472691665563589
5309563 4 16537358350746110111

> <PUBCHEM_SHAPE_MULTIPOLES>
509.39
7.92
6.67
2.17
10.19
0.05
0.58
-4.36
1.73
-8.75
-0.6
0.02
1.36
-0.9

> <PUBCHEM_SHAPE_SELFOVERLAP>
959.208

> <PUBCHEM_SHAPE_VOLUME>
317.6

> <PUBCHEM_COORDINATE_TYPE>
2
5
10

$$$$

