12310253
  -OEChem-07051213103D

 82 87  0     1  0  0  0  0  0999 V2000
    4.2377   -1.4606    0.4703 O   0  0  0  0  0  0  0  0  0  0  0  0
    1.9526    2.3273    1.7078 O   0  0  0  0  0  0  0  0  0  0  0  0
   -4.6095    0.0250    0.4266 O   0  0  0  0  0  0  0  0  0  0  0  0
    8.6986   -0.0213    0.2832 O   0  0  0  0  0  0  0  0  0  0  0  0
   -5.9627   -0.0547   -1.5211 O   0  0  0  0  0  0  0  0  0  0  0  0
    8.8264   -2.3037    0.0191 O   0  0  0  0  0  0  0  0  0  0  0  0
   -6.9969   -2.5435   -0.5229 O   0  0  0  0  0  0  0  0  0  0  0  0
   -8.5929   -1.3434    1.4155 O   0  0  0  0  0  0  0  0  0  0  0  0
   -8.9644    1.2134    0.2026 O   0  0  0  0  0  0  0  0  0  0  0  0
    3.4388   -0.4387   -0.1465 C   0  0  1  0  0  0  0  0  0  0  0  0
    2.0126   -0.4982    0.4826 C   0  0  1  0  0  0  0  0  0  0  0  0
    1.1109    0.7053    0.0665 C   0  0  1  0  0  0  0  0  0  0  0  0
    4.1559    0.9262    0.0421 C   0  0  2  0  0  0  0  0  0  0  0  0
   -0.3576    0.5977    0.6523 C   0  0  2  0  0  0  0  0  0  0  0  0
   -0.9414   -0.7742    0.1846 C   0  0  1  0  0  0  0  0  0  0  0  0
    1.8247    2.0537    0.3212 C   0  0  2  0  0  0  0  0  0  0  0  0
    3.2054    2.0990   -0.3421 C   0  0  0  0  0  0  0  0  0  0  0  0
    5.3129    0.8640   -1.0112 C   0  0  2  0  0  0  0  0  0  0  0  0
    1.3282   -1.8520    0.1829 C   0  0  0  0  0  0  0  0  0  0  0  0
    3.4840   -0.6641   -1.6727 C   0  0  0  0  0  0  0  0  0  0  0  0
   -0.1037   -1.9459    0.6981 C   0  0  0  0  0  0  0  0  0  0  0  0
    4.7065    0.0985   -2.1995 C   0  0  0  0  0  0  0  0  0  0  0  0
   -1.2577    1.7199    0.0582 C   0  0  0  0  0  0  0  0  0  0  0  0
   -2.4253   -0.9571    0.5314 C   0  0  0  0  0  0  0  0  0  0  0  0
    4.6960    1.1329    1.4735 C   0  0  0  0  0  0  0  0  0  0  0  0
   -0.3846    0.7217    2.1979 C   0  0  0  0  0  0  0  0  0  0  0  0
   -2.7418    1.5498    0.3866 C   0  0  0  0  0  0  0  0  0  0  0  0
   -3.2709    0.1820   -0.0324 C   0  0  2  0  0  0  0  0  0  0  0  0
    6.5858    0.1994   -0.5704 C   0  0  0  0  0  0  0  0  0  0  0  0
    7.7055    0.9716    0.0052 C   0  0  0  0  0  0  0  0  0  0  0  0
    6.8760   -1.0976   -0.6293 C   0  0  0  0  0  0  0  0  0  0  0  0
   -5.3678   -0.7988   -0.4524 C   0  0  2  0  0  0  0  0  0  0  0  0
    8.2266   -1.2477   -0.0854 C   0  0  0  0  0  0  0  0  0  0  0  0
   -6.4354   -1.5522    0.3388 C   0  0  1  0  0  0  0  0  0  0  0  0
   -7.5308   -0.6001    0.8217 C   0  0  1  0  0  0  0  0  0  0  0  0
   -6.9343    0.9068   -1.0969 C   0  0  2  0  0  0  0  0  0  0  0  0
   -8.0839    0.2307   -0.3368 C   0  0  2  0  0  0  0  0  0  0  0  0
   -7.4234    1.6287   -2.3494 C   0  0  0  0  0  0  0  0  0  0  0  0
    2.1437   -0.4609    1.5718 H   0  0  0  0  0  0  0  0  0  0  0  0
    0.9914    0.6428   -1.0250 H   0  0  0  0  0  0  0  0  0  0  0  0
   -0.8845   -0.8004   -0.9150 H   0  0  0  0  0  0  0  0  0  0  0  0
    1.2274    2.8659   -0.1068 H   0  0  0  0  0  0  0  0  0  0  0  0
    3.0466    2.1196   -1.4275 H   0  0  0  0  0  0  0  0  0  0  0  0
    3.6978    3.0484   -0.0931 H   0  0  0  0  0  0  0  0  0  0  0  0
    5.5795    1.8746   -1.3491 H   0  0  0  0  0  0  0  0  0  0  0  0
    1.9135   -2.6705    0.6187 H   0  0  0  0  0  0  0  0  0  0  0  0
    1.3095   -2.0269   -0.8997 H   0  0  0  0  0  0  0  0  0  0  0  0
    2.5908   -0.2868   -2.1797 H   0  0  0  0  0  0  0  0  0  0  0  0
    3.5775   -1.7285   -1.9171 H   0  0  0  0  0  0  0  0  0  0  0  0
   -0.5370   -2.8935    0.3549 H   0  0  0  0  0  0  0  0  0  0  0  0
   -0.1080   -1.9847    1.7932 H   0  0  0  0  0  0  0  0  0  0  0  0
    5.3992   -0.5612   -2.7327 H   0  0  0  0  0  0  0  0  0  0  0  0
    4.3641    0.8198   -2.9536 H   0  0  0  0  0  0  0  0  0  0  0  0
   -1.1436    1.7410   -1.0336 H   0  0  0  0  0  0  0  0  0  0  0  0
   -0.9390    2.7033    0.4228 H   0  0  0  0  0  0  0  0  0  0  0  0
   -2.7770   -1.9140    0.1260 H   0  0  0  0  0  0  0  0  0  0  0  0
   -2.5772   -1.0424    1.6140 H   0  0  0  0  0  0  0  0  0  0  0  0
    3.9048    1.0575    2.2236 H   0  0  0  0  0  0  0  0  0  0  0  0
    5.4414    0.3869    1.7645 H   0  0  0  0  0  0  0  0  0  0  0  0
    5.1588    2.1205    1.5766 H   0  0  0  0  0  0  0  0  0  0  0  0
   -1.3482    0.4276    2.6231 H   0  0  0  0  0  0  0  0  0  0  0  0
    0.3725    0.1021    2.6845 H   0  0  0  0  0  0  0  0  0  0  0  0
   -0.2245    1.7552    2.5202 H   0  0  0  0  0  0  0  0  0  0  0  0
   -2.9196    1.7078    1.4574 H   0  0  0  0  0  0  0  0  0  0  0  0
   -3.3231    2.3326   -0.1169 H   0  0  0  0  0  0  0  0  0  0  0  0
   -3.2418    0.1496   -1.1310 H   0  0  0  0  0  0  0  0  0  0  0  0
    4.1144   -1.4105    1.4329 H   0  0  0  0  0  0  0  0  0  0  0  0
    2.3707    3.2002    1.8008 H   0  0  0  0  0  0  0  0  0  0  0  0
    8.1177    1.6923   -0.7074 H   0  0  0  0  0  0  0  0  0  0  0  0
    7.4494    1.4819    0.9363 H   0  0  0  0  0  0  0  0  0  0  0  0
    6.2895   -1.9194   -1.0011 H   0  0  0  0  0  0  0  0  0  0  0  0
   -4.7238   -1.5450   -0.9335 H   0  0  0  0  0  0  0  0  0  0  0  0
   -6.0023   -2.0725    1.2008 H   0  0  0  0  0  0  0  0  0  0  0  0
   -7.1384    0.0642    1.6010 H   0  0  0  0  0  0  0  0  0  0  0  0
   -6.4444    1.6535   -0.4585 H   0  0  0  0  0  0  0  0  0  0  0  0
   -8.6712   -0.4136   -1.0029 H   0  0  0  0  0  0  0  0  0  0  0  0
   -6.2874   -3.1659   -0.7570 H   0  0  0  0  0  0  0  0  0  0  0  0
   -6.5750    2.0484   -2.9014 H   0  0  0  0  0  0  0  0  0  0  0  0
   -7.9265    0.9329   -3.0299 H   0  0  0  0  0  0  0  0  0  0  0  0
   -8.1112    2.4438   -2.1078 H   0  0  0  0  0  0  0  0  0  0  0  0
   -8.9224   -1.9726    0.7512 H   0  0  0  0  0  0  0  0  0  0  0  0
   -9.4357    1.6285   -0.5389 H   0  0  0  0  0  0  0  0  0  0  0  0
  1 10  1  0  0  0  0
  1 67  1  0  0  0  0
  2 16  1  0  0  0  0
  2 68  1  0  0  0  0
  3 28  1  0  0  0  0
  3 32  1  0  0  0  0
  4 30  1  0  0  0  0
  4 33  1  0  0  0  0
  5 32  1  0  0  0  0
  5 36  1  0  0  0  0
  6 33  2  0  0  0  0
  7 34  1  0  0  0  0
  7 77  1  0  0  0  0
  8 35  1  0  0  0  0
  8 81  1  0  0  0  0
  9 37  1  0  0  0  0
  9 82  1  0  0  0  0
 10 11  1  0  0  0  0
 10 13  1  0  0  0  0
 10 20  1  0  0  0  0
 11 12  1  0  0  0  0
 11 19  1  0  0  0  0
 11 39  1  0  0  0  0
 12 14  1  0  0  0  0
 12 16  1  0  0  0  0
 12 40  1  0  0  0  0
 13 17  1  0  0  0  0
 13 18  1  0  0  0  0
 13 25  1  0  0  0  0
 14 15  1  0  0  0  0
 14 23  1  0  0  0  0
 14 26  1  0  0  0  0
 15 21  1  0  0  0  0
 15 24  1  0  0  0  0
 15 41  1  0  0  0  0
 16 17  1  0  0  0  0
 16 42  1  0  0  0  0
 17 43  1  0  0  0  0
 17 44  1  0  0  0  0
 18 22  1  0  0  0  0
 18 29  1  0  0  0  0
 18 45  1  0  0  0  0
 19 21  1  0  0  0  0
 19 46  1  0  0  0  0
 19 47  1  0  0  0  0
 20 22  1  0  0  0  0
 20 48  1  0  0  0  0
 20 49  1  0  0  0  0
 21 50  1  0  0  0  0
 21 51  1  0  0  0  0
 22 52  1  0  0  0  0
 22 53  1  0  0  0  0
 23 27  1  0  0  0  0
 23 54  1  0  0  0  0
 23 55  1  0  0  0  0
 24 28  1  0  0  0  0
 24 56  1  0  0  0  0
 24 57  1  0  0  0  0
 25 58  1  0  0  0  0
 25 59  1  0  0  0  0
 25 60  1  0  0  0  0
 26 61  1  0  0  0  0
 26 62  1  0  0  0  0
 26 63  1  0  0  0  0
 27 28  1  0  0  0  0
 27 64  1  0  0  0  0
 27 65  1  0  0  0  0
 28 66  1  0  0  0  0
 29 30  1  0  0  0  0
 29 31  2  0  0  0  0
 30 69  1  0  0  0  0
 30 70  1  0  0  0  0
 31 33  1  0  0  0  0
 31 71  1  0  0  0  0
 32 34  1  0  0  0  0
 32 72  1  0  0  0  0
 34 35  1  0  0  0  0
 34 73  1  0  0  0  0
 35 37  1  0  0  0  0
 35 74  1  0  0  0  0
 36 37  1  0  0  0  0
 36 38  1  0  0  0  0
 36 75  1  0  0  0  0
 37 76  1  0  0  0  0
 38 78  1  0  0  0  0
 38 79  1  0  0  0  0
 38 80  1  0  0  0  0
M  END
> <PUBCHEM_COMPOUND_CID>
12310253

> <PUBCHEM_CONFORMER_RMSD>
1

> <PUBCHEM_CONFORMER_DIVERSEORDER>
9
13
17
14
4
5
22
6
18
15
10
21
12
16
8
7
20
3
19
1
11
2

> <PUBCHEM_MMFF94_PARTIAL_CHARGES>
28
1 -0.68
10 0.28
16 0.28
18 0.14
2 -0.68
28 0.28
29 -0.28
3 -0.56
30 0.42
31 -0.14
32 0.56
33 0.71
34 0.28
35 0.28
36 0.28
37 0.28
4 -0.43
5 -0.56
6 -0.57
67 0.4
68 0.4
7 -0.68
71 0.15
77 0.4
8 -0.68
81 0.4
82 0.4
9 -0.68

> <PUBCHEM_EFFECTIVE_ROTOR_COUNT>
6.8

> <PUBCHEM_PHARMACOPHORE_FEATURES>
19
1 1 acceptor
1 1 donor
1 2 acceptor
1 2 donor
1 3 acceptor
1 5 acceptor
1 6 acceptor
1 7 acceptor
1 7 donor
1 8 acceptor
1 8 donor
1 9 acceptor
1 9 donor
5 10 13 18 20 22 rings
5 4 29 30 31 33 rings
6 10 11 12 13 16 17 rings
6 11 12 14 15 19 21 rings
6 14 15 23 24 27 28 rings
6 5 32 34 35 36 37 rings

> <PUBCHEM_HEAVY_ATOM_COUNT>
38

> <PUBCHEM_ATOM_DEF_STEREO_COUNT>
14

> <PUBCHEM_ATOM_UDEF_STEREO_COUNT>
0

> <PUBCHEM_BOND_DEF_STEREO_COUNT>
0

> <PUBCHEM_BOND_UDEF_STEREO_COUNT>
0

> <PUBCHEM_ISOTOPIC_ATOM_COUNT>
0

> <PUBCHEM_COMPONENT_COUNT>
1

> <PUBCHEM_CACTVS_TAUTO_COUNT>
1

> <PUBCHEM_CONFORMER_ID>
00BBD6ED00000009

> <PUBCHEM_MMFF94_ENERGY>
132.6896

> <PUBCHEM_FEATURE_SELFOVERLAP>
96.662

> <PUBCHEM_SHAPE_FINGERPRINT>
10 15 8574711295341883221
10299344 5 15068621582787674845
106641 1 6050439310934369078
10670039 82 17917998304196073053
11135926 11 18259985994484490391
11181472 205 15840997788042006828
11828532 37 18269263587246338554
12013929 94 7709162573882558861
12664476 115 18342459249587936725
12741549 16 16950567710146230512
13008946 282 16226620576510686752
13811026 1 18113334245450850540
13914758 101 17346881165270130166
14118638 360 17386280003808886358
14294032 229 17487907906683480645
14856354 85 16702018631426643715
15131766 46 16197310809370800654
15183329 4 18408323289956880753
15439362 3 17841424835715151028
15461852 350 17203887466116930359
15510794 2 18260830372180245447
1577012 14 15984833657257088229
15840311 113 17846776283735205836
18608769 82 18412262818269669965
19841028 212 18059297686117259434
20105231 36 18130218265347378931
21267235 1 18409726257571057184
21781051 124 18059286574202869130
21792938 703 16734128742912605399
21792961 116 18411983594077342413
22224240 67 6411296827936551172
23559900 14 18263928734995155416
23569917 315 18271798047712427098
23576562 1 15481527703963487527
24893992 56 18202281373352863043
249057 3 17967533445598403150
3092352 35 16271927108494664025
335352 9 18412821379336194606
335507 130 17167578289744240889
3633792 109 18131070480714727810
4112364 45 6843907392121114394
4169191 19 12391519693779534215
4353968 344 18339361993576903116
439807 62 18409165524047477336
45266715 3 18200588215973399202
474113 269 18129387159036952546
484989 97 18339637824465862243
5219985 9 16805323296798658145
5283156 175 18411417328303809982
6004065 56 17822290167957804488
6081469 158 18343022225047041028
6126387 218 16226046721703520561
6691757 9 13614231603991482449
9962374 69 17095534950312690477

> <PUBCHEM_SHAPE_MULTIPOLES>
729.2
28.4
2.14
1.49
19.32
0.17
-0.28
6
-5.71
0.07
0.17
0.67
-0.46
1.6

> <PUBCHEM_SHAPE_SELFOVERLAP>
1569.156

> <PUBCHEM_SHAPE_VOLUME>
398.3

> <PUBCHEM_COORDINATE_TYPE>
2
5
10

$$$$

