17395782
  -OEChem-06241222523D

 49 52  0     0  0  0  0  0  0999 V2000
    1.9379    2.6479    0.2604 S   0  0  0  0  0  0  0  0  0  0  0  0
    4.7546    1.8736   -0.8846 O   0  0  0  0  0  0  0  0  0  0  0  0
   -0.3375    1.0698    0.2349 N   0  0  0  0  0  0  0  0  0  0  0  0
    0.6048   -0.9073    0.1222 N   0  0  0  0  0  0  0  0  0  0  0  0
    1.6563   -0.0141    0.1631 N   0  0  0  0  0  0  0  0  0  0  0  0
   -3.2470   -2.7149   -0.0981 N   0  0  0  0  0  0  0  0  0  0  0  0
    4.5043    0.0059    0.4759 N   0  0  0  0  0  0  0  0  0  0  0  0
   -1.2895    2.1663    0.1340 C   0  0  0  0  0  0  0  0  0  0  0  0
   -0.8549    3.5417   -0.2797 C   0  0  0  0  0  0  0  0  0  0  0  0
   -1.7072    2.7161   -1.1981 C   0  0  0  0  0  0  0  0  0  0  0  0
   -0.6324   -0.2821    0.1400 C   0  0  0  0  0  0  0  0  0  0  0  0
    1.0456    1.1583    0.2192 C   0  0  0  0  0  0  0  0  0  0  0  0
   -1.8128   -0.8947    0.0683 C   0  0  0  0  0  0  0  0  0  0  0  0
   -3.1623   -0.3624    0.0767 C   0  0  0  0  0  0  0  0  0  0  0  0
   -1.9934   -2.3593   -0.0433 C   0  0  0  0  0  0  0  0  0  0  0  0
   -3.9811   -1.5022   -0.0257 C   0  0  0  0  0  0  0  0  0  0  0  0
    3.4295    2.0755    1.1032 C   0  0  0  0  0  0  0  0  0  0  0  0
   -3.6885    0.9122    0.1583 C   0  0  0  0  0  0  0  0  0  0  0  0
   -5.3602   -1.3755   -0.0479 C   0  0  0  0  0  0  0  0  0  0  0  0
    4.2935    1.3268    0.1160 C   0  0  0  0  0  0  0  0  0  0  0  0
   -5.0791    1.0409    0.1361 C   0  0  0  0  0  0  0  0  0  0  0  0
   -5.9070   -0.0915    0.0341 C   0  0  0  0  0  0  0  0  0  0  0  0
    5.3114   -0.9064   -0.3021 C   0  0  0  0  0  0  0  0  0  0  0  0
    4.5195   -2.1170   -0.7850 C   0  0  0  0  0  0  0  0  0  0  0  0
    3.9141   -2.9215    0.3676 C   0  0  0  0  0  0  0  0  0  0  0  0
    3.0814   -4.0859   -0.1454 C   0  0  0  0  0  0  0  0  0  0  0  0
   -1.7460    2.3112    1.1115 H   0  0  0  0  0  0  0  0  0  0  0  0
   -1.3358    4.3819    0.2163 H   0  0  0  0  0  0  0  0  0  0  0  0
    0.0351    3.8581   -0.8002 H   0  0  0  0  0  0  0  0  0  0  0  0
   -1.2436    2.3009   -2.0861 H   0  0  0  0  0  0  0  0  0  0  0  0
   -2.7146    3.0767   -1.3643 H   0  0  0  0  0  0  0  0  0  0  0  0
    0.7313   -1.9069    0.0516 H   0  0  0  0  0  0  0  0  0  0  0  0
   -1.1390   -3.0480   -0.0747 H   0  0  0  0  0  0  0  0  0  0  0  0
    3.9977    2.9436    1.4527 H   0  0  0  0  0  0  0  0  0  0  0  0
    3.1740    1.4764    1.9823 H   0  0  0  0  0  0  0  0  0  0  0  0
   -3.2831    1.8630    0.3544 H   0  0  0  0  0  0  0  0  0  0  0  0
   -6.0042   -2.2447   -0.1251 H   0  0  0  0  0  0  0  0  0  0  0  0
   -5.5361    2.0240    0.2230 H   0  0  0  0  0  0  0  0  0  0  0  0
    5.7465   -0.3843   -1.1606 H   0  0  0  0  0  0  0  0  0  0  0  0
    6.1362   -1.2288    0.3427 H   0  0  0  0  0  0  0  0  0  0  0  0
   -6.9866    0.0347    0.0247 H   0  0  0  0  0  0  0  0  0  0  0  0
    3.7160   -1.7786   -1.4512 H   0  0  0  0  0  0  0  0  0  0  0  0
    5.1784   -2.7627   -1.3775 H   0  0  0  0  0  0  0  0  0  0  0  0
    4.1370   -0.3274    1.3619 H   0  0  0  0  0  0  0  0  0  0  0  0
    3.2713   -2.2935    0.9920 H   0  0  0  0  0  0  0  0  0  0  0  0
    4.7146   -3.3044    1.0111 H   0  0  0  0  0  0  0  0  0  0  0  0
    2.2542   -3.7333   -0.7695 H   0  0  0  0  0  0  0  0  0  0  0  0
    2.6585   -4.6481    0.6930 H   0  0  0  0  0  0  0  0  0  0  0  0
    3.6924   -4.7721   -0.7405 H   0  0  0  0  0  0  0  0  0  0  0  0
  1 12  1  0  0  0  0
  1 17  1  0  0  0  0
  2 20  2  0  0  0  0
  3  8  1  0  0  0  0
  3 11  1  0  0  0  0
  3 12  1  0  0  0  0
  4  5  1  0  0  0  0
  4 11  1  0  0  0  0
  4 32  1  0  0  0  0
  5 12  2  0  0  0  0
  6 15  2  0  0  0  0
  6 16  1  0  0  0  0
  7 20  1  0  0  0  0
  7 23  1  0  0  0  0
  7 44  1  0  0  0  0
  8  9  1  0  0  0  0
  8 10  1  0  0  0  0
  8 27  1  0  0  0  0
  9 10  1  0  0  0  0
  9 28  1  0  0  0  0
  9 29  1  0  0  0  0
 10 30  1  0  0  0  0
 10 31  1  0  0  0  0
 11 13  2  0  0  0  0
 13 14  1  0  0  0  0
 13 15  1  0  0  0  0
 14 16  1  0  0  0  0
 14 18  2  0  0  0  0
 15 33  1  0  0  0  0
 16 19  2  0  0  0  0
 17 20  1  0  0  0  0
 17 34  1  0  0  0  0
 17 35  1  0  0  0  0
 18 21  1  0  0  0  0
 18 36  1  0  0  0  0
 19 22  1  0  0  0  0
 19 37  1  0  0  0  0
 21 22  2  0  0  0  0
 21 38  1  0  0  0  0
 22 41  1  0  0  0  0
 23 24  1  0  0  0  0
 23 39  1  0  0  0  0
 23 40  1  0  0  0  0
 24 25  1  0  0  0  0
 24 42  1  0  0  0  0
 24 43  1  0  0  0  0
 25 26  1  0  0  0  0
 25 45  1  0  0  0  0
 25 46  1  0  0  0  0
 26 47  1  0  0  0  0
 26 48  1  0  0  0  0
 26 49  1  0  0  0  0
M  END
> <PUBCHEM_COMPOUND_CID>
17395782

> <PUBCHEM_CONFORMER_RMSD>
1

> <PUBCHEM_CONFORMER_DIVERSEORDER>
28
46
6
34
90
16
84
68
67
77
7
83
53
14
50
38
88
43
87
40
82
5
66
47
27
39
42
65
75
86
31
59
61
18
44
32
62
92
72
80
12
13
17
26
48
89
63
60
29
2
54
35
23
91
41
55
71
56
10
1
73
30
49
11
78
33
45
85
20
57
9
4
19
69
22
8
51
94
24
81
36
15
3
37
25
79
64
21
52
74
93
58
76
70

> <PUBCHEM_MMFF94_PARTIAL_CHARGES>
35
1 -0.37
10 -0.2
11 0.2
12 0.64
13 -0.01
14 0.03
15 0.38
16 0.18
17 0.29
18 -0.15
19 -0.15
2 -0.57
20 0.57
21 -0.15
22 -0.15
23 0.3
27 0.1
28 0.1
29 0.1
3 -0.32
30 0.1
31 0.1
32 0.4
33 0.06
36 0.15
37 0.15
38 0.15
4 -0.46
41 0.15
44 0.37
5 -0.49
6 -0.63
7 -0.73
8 0.07
9 -0.2

> <PUBCHEM_EFFECTIVE_ROTOR_COUNT>
9

> <PUBCHEM_PHARMACOPHORE_FEATURES>
9
1 2 acceptor
1 26 hydrophobe
1 4 donor
1 6 acceptor
1 7 donor
3 3 5 12 cation
5 3 4 5 11 12 rings
5 6 13 14 15 16 rings
6 14 16 18 19 21 22 rings

> <PUBCHEM_HEAVY_ATOM_COUNT>
26

> <PUBCHEM_ATOM_DEF_STEREO_COUNT>
0

> <PUBCHEM_ATOM_UDEF_STEREO_COUNT>
0

> <PUBCHEM_BOND_DEF_STEREO_COUNT>
1

> <PUBCHEM_BOND_UDEF_STEREO_COUNT>
0

> <PUBCHEM_ISOTOPIC_ATOM_COUNT>
0

> <PUBCHEM_COMPONENT_COUNT>
1

> <PUBCHEM_CACTVS_TAUTO_COUNT>
6

> <PUBCHEM_CONFORMER_ID>
010970460000001C

> <PUBCHEM_MMFF94_ENERGY>
129.7459

> <PUBCHEM_FEATURE_SELFOVERLAP>
45.766

> <PUBCHEM_SHAPE_FINGERPRINT>
1100329 8 17760929945088405648
11756154 67 17690277531981891230
12107183 9 17973998750300541521
13533116 47 18259703397771767810
13642711 20 16324014620455568732
13757389 114 15960054667655706600
14347332 77 18269842071843040954
14790565 3 18049717722544555353
15196674 1 18338237068327248393
15664445 248 18268699512281102652
17492 89 18266461104106705078
1813 80 17418098689126929829
19591789 44 18267304416048963608
21267235 1 18267861697389222811
21279426 13 18338519741552414045
21421861 104 18272660077549098226
21478907 32 18338799021600246240
23559900 14 18408889525201431568
3004659 81 18343301466514117922
335352 9 18411139092054460525
350125 39 18267019651254223001
4073 2 18270396075263988794
460360 51 18192688202729395993
463206 1 18264210223299918310
5104073 3 18408040688965412459
6433294 58 18409166645182024414
6443956 14 18410290286099183852
9981440 41 16540176837267126897

> <PUBCHEM_SHAPE_MULTIPOLES>
508.14
12.46
4.37
0.79
0.25
0.97
-0.05
4.9
-0.38
-3.07
-0.39
-0.34
-0.27
0.6

> <PUBCHEM_SHAPE_SELFOVERLAP>
1073.989

> <PUBCHEM_SHAPE_VOLUME>
286.5

> <PUBCHEM_COORDINATE_TYPE>
2
5
10

$$$$

