17396612
  -OEChem-06241222573D

 35 36  0     0  0  0  0  0  0999 V2000
   -3.7131    1.0326    0.6901 O   0  0  0  0  0  0  0  0  0  0  0  0
    3.0509    2.4479    0.6969 O   0  0  0  0  0  0  0  0  0  0  0  0
   -0.6895   -0.9943    1.7101 O   0  0  0  0  0  0  0  0  0  0  0  0
    0.2653   -2.2944    0.0402 N   0  0  0  0  0  0  0  0  0  0  0  0
   -1.9963   -1.8851    0.0123 N   0  0  0  0  0  0  0  0  0  0  0  0
    1.6276   -2.2328    0.5170 C   0  0  0  0  0  0  0  0  0  0  0  0
    2.3737   -1.0661   -0.0630 C   0  0  0  0  0  0  0  0  0  0  0  0
   -3.2567   -1.3441    0.4639 C   0  0  0  0  0  0  0  0  0  0  0  0
    2.3650    0.1641    0.5943 C   0  0  0  0  0  0  0  0  0  0  0  0
    3.0757   -1.2127   -1.2593 C   0  0  0  0  0  0  0  0  0  0  0  0
   -3.5535   -0.0126   -0.1633 C   0  0  0  0  0  0  0  0  0  0  0  0
    3.0585    1.2477    0.0554 C   0  0  0  0  0  0  0  0  0  0  0  0
   -0.7961   -1.6629    0.6829 C   0  0  0  0  0  0  0  0  0  0  0  0
    3.7691   -0.1292   -1.7985 C   0  0  0  0  0  0  0  0  0  0  0  0
    3.7606    1.1010   -1.1410 C   0  0  0  0  0  0  0  0  0  0  0  0
   -3.7063    0.4001   -1.4665 C   0  0  0  0  0  0  0  0  0  0  0  0
   -3.9773    1.7880   -1.4103 C   0  0  0  0  0  0  0  0  0  0  0  0
   -3.9706    2.1247   -0.0767 C   0  0  0  0  0  0  0  0  0  0  0  0
    2.3131    2.5282    1.9155 C   0  0  0  0  0  0  0  0  0  0  0  0
    2.1149   -3.1752    0.2421 H   0  0  0  0  0  0  0  0  0  0  0  0
    1.6293   -2.1828    1.6122 H   0  0  0  0  0  0  0  0  0  0  0  0
   -3.2460   -1.2596    1.5559 H   0  0  0  0  0  0  0  0  0  0  0  0
   -4.0376   -2.0595    0.1860 H   0  0  0  0  0  0  0  0  0  0  0  0
    0.0794   -2.8055   -0.8173 H   0  0  0  0  0  0  0  0  0  0  0  0
    1.8075    0.2228    1.5228 H   0  0  0  0  0  0  0  0  0  0  0  0
    3.0886   -2.1655   -1.7819 H   0  0  0  0  0  0  0  0  0  0  0  0
   -1.9838   -2.4326   -0.8428 H   0  0  0  0  0  0  0  0  0  0  0  0
    4.3154   -0.2431   -2.7302 H   0  0  0  0  0  0  0  0  0  0  0  0
    4.3026    1.9414   -1.5658 H   0  0  0  0  0  0  0  0  0  0  0  0
   -3.6322   -0.2200   -2.3484 H   0  0  0  0  0  0  0  0  0  0  0  0
   -4.1550    2.4590   -2.2381 H   0  0  0  0  0  0  0  0  0  0  0  0
   -4.1231    3.0484    0.4621 H   0  0  0  0  0  0  0  0  0  0  0  0
    2.4144    3.5532    2.2872 H   0  0  0  0  0  0  0  0  0  0  0  0
    2.7303    1.8677    2.6831 H   0  0  0  0  0  0  0  0  0  0  0  0
    1.2443    2.3525    1.7517 H   0  0  0  0  0  0  0  0  0  0  0  0
  1 11  1  0  0  0  0
  1 18  1  0  0  0  0
  2 12  1  0  0  0  0
  2 19  1  0  0  0  0
  3 13  2  0  0  0  0
  4  6  1  0  0  0  0
  4 13  1  0  0  0  0
  4 24  1  0  0  0  0
  5  8  1  0  0  0  0
  5 13  1  0  0  0  0
  5 27  1  0  0  0  0
  6  7  1  0  0  0  0
  6 20  1  0  0  0  0
  6 21  1  0  0  0  0
  7  9  2  0  0  0  0
  7 10  1  0  0  0  0
  8 11  1  0  0  0  0
  8 22  1  0  0  0  0
  8 23  1  0  0  0  0
  9 12  1  0  0  0  0
  9 25  1  0  0  0  0
 10 14  2  0  0  0  0
 10 26  1  0  0  0  0
 11 16  2  0  0  0  0
 12 15  2  0  0  0  0
 14 15  1  0  0  0  0
 14 28  1  0  0  0  0
 15 29  1  0  0  0  0
 16 17  1  0  0  0  0
 16 30  1  0  0  0  0
 17 18  2  0  0  0  0
 17 31  1  0  0  0  0
 18 32  1  0  0  0  0
 19 33  1  0  0  0  0
 19 34  1  0  0  0  0
 19 35  1  0  0  0  0
M  END
> <PUBCHEM_COMPOUND_CID>
17396612

> <PUBCHEM_CONFORMER_RMSD>
1

> <PUBCHEM_CONFORMER_DIVERSEORDER>
1
144
80
23
137
32
125
38
146
145
12
115
41
69
50
65
62
55
44
140
34
105
154
8
70
49
122
150
88
33
72
35
59
46
31
79
61
26
77
16
89
120
143
56
73
3
64
152
21
78
155
27
71
126
156
84
63
42
103
149
94
54
4
18
113
15
153
24
6
60
48
91
130
40
37
68
86
29
118
39
76
135
95
14
131
58
47
132
43
22
67
17
128
92
99
7
142
5
36
45
116
139
81
124
11
104
10
2
106
147
127
151
158
114
82
108
96
20
57
13
129
51
9
119
98
102
136
28
19
117
87
148
25
107
123
141
30
138
75
74
90
100
111
157
83
109
52
121
97
93
101
112
110
53
134
66
85
133

> <PUBCHEM_MMFF94_PARTIAL_CHARGES>
28
1 -0.28
10 -0.15
11 -0.04
12 0.08
13 0.69
14 -0.15
15 -0.15
16 -0.15
17 -0.15
18 -0.01
19 0.28
2 -0.36
24 0.37
25 0.15
26 0.15
27 0.37
28 0.15
29 0.15
3 -0.57
30 0.15
31 0.15
32 0.15
4 -0.73
5 -0.73
6 0.44
7 -0.14
8 0.48
9 -0.15

> <PUBCHEM_EFFECTIVE_ROTOR_COUNT>
7

> <PUBCHEM_PHARMACOPHORE_FEATURES>
7
1 1 acceptor
1 2 acceptor
1 3 acceptor
1 4 donor
1 5 donor
5 1 11 16 17 18 rings
6 7 9 10 12 14 15 rings

> <PUBCHEM_HEAVY_ATOM_COUNT>
19

> <PUBCHEM_ATOM_DEF_STEREO_COUNT>
0

> <PUBCHEM_ATOM_UDEF_STEREO_COUNT>
0

> <PUBCHEM_BOND_DEF_STEREO_COUNT>
0

> <PUBCHEM_BOND_UDEF_STEREO_COUNT>
0

> <PUBCHEM_ISOTOPIC_ATOM_COUNT>
0

> <PUBCHEM_COMPONENT_COUNT>
1

> <PUBCHEM_CACTVS_TAUTO_COUNT>
3

> <PUBCHEM_CONFORMER_ID>
0109738400000001

> <PUBCHEM_MMFF94_ENERGY>
34.8848

> <PUBCHEM_FEATURE_SELFOVERLAP>
35.571

> <PUBCHEM_SHAPE_FINGERPRINT>
10498660 4 18272653441587144765
10646746 165 18341894052527621998
10670039 82 17988350482378291398
10764073 3 18049196460081195248
11595378 159 16845570873147492627
11615756 256 18272366507770122383
11715629 250 18340491066963768067
12363563 72 6411292429599707847
12596602 18 15338543930526966913
12670546 177 17822573785648799759
12892183 10 12895351097002736399
13294875 104 18411991247825622082
14251757 17 18261108547846691057
14347329 18 18129931283636804756
14429115 67 9727334841483961249
14848178 96 18272936058983016741
15322687 12 18051140482169910857
17868525 174 17198840883565187483
18186145 218 18334290976692092115
21095088 737 18265070063025457367
21365058 27 12247092266182305322
21864079 5 18412550903037687623
221357 26 18260541221521736511
22749437 52 18342185466043032805
23503958 25 18271233924709641883
23557571 272 18056470648037014755
238 59 17967816011765792936
341906 21 17703516497465365935
5281201 14 18187074048981683566
574716 61 17022901224961143129
7399639 24 17829326887081937258
7808743 9 17914884353915918660
84936 182 18341613749913868954

> <PUBCHEM_SHAPE_MULTIPOLES>
363.44
9.4
2.95
1.61
5.48
0.46
0.09
4.81
3.36
-0.38
-0.95
-0.74
0.59
1.56

> <PUBCHEM_SHAPE_SELFOVERLAP>
762.299

> <PUBCHEM_SHAPE_VOLUME>
206

> <PUBCHEM_COORDINATE_TYPE>
2
5
10

$$$$

