443352
  -OEChem-07051213022D

 46 49  0     1  0  0  0  0  0999 V2000
    2.7905   -0.4927    0.0000 O   0  0  0  0  0  0  0  0  0  0  0  0
    2.6166    2.2624    0.0000 O   0  0  0  0  0  0  0  0  0  0  0  0
    6.2318    1.0387    0.0000 O   0  0  0  0  0  0  0  0  0  0  0  0
    5.8268   -0.6845    0.0000 O   0  0  0  0  0  0  0  0  0  0  0  0
    7.4802   -0.1684    0.0000 O   0  0  0  0  0  0  0  0  0  0  0  0
    6.4228   -2.5937    0.0000 O   0  0  0  0  0  0  0  0  0  0  0  0
    8.3742   -3.0321    0.0000 O   0  0  0  0  0  0  0  0  0  0  0  0
    9.7295   -1.5614    0.0000 O   0  0  0  0  0  0  0  0  0  0  0  0
   10.1092    0.1286    0.0000 O   0  0  0  0  0  0  0  0  0  0  0  0
    3.7044   -0.0855    0.0000 C   0  0  1  0  0  0  0  0  0  0  0  0
    2.8954    0.5023    0.0000 C   0  0  2  0  0  0  0  0  0  0  0  0
    4.5134    0.5023    0.0000 C   0  0  2  0  0  0  0  0  0  0  0  0
    4.2044    1.4533    0.0000 C   0  0  2  0  0  0  0  0  0  0  0  0
    3.2044    1.4533    0.0000 C   0  0  2  0  0  0  0  0  0  0  0  0
    5.5288    0.2700    0.0000 C   0  0  1  0  0  0  0  0  0  0  0  0
    4.8894    2.2381    0.0000 C   0  0  0  0  0  0  0  0  0  0  0  0
    5.9099    2.0294    0.0000 C   0  0  0  0  0  0  0  0  0  0  0  0
    4.5694    3.1855    0.0000 C   0  0  0  0  0  0  0  0  0  0  0  0
    6.8025   -0.9037    0.0000 C   0  0  2  0  0  0  0  0  0  0  0  0
    7.1005   -1.8583    0.0000 C   0  0  1  0  0  0  0  0  0  0  0  0
    8.0762   -2.0775    0.0000 C   0  0  2  0  0  0  0  0  0  0  0  0
    8.7538   -1.3422    0.0000 C   0  0  1  0  0  0  0  0  0  0  0  0
    8.4558   -0.3876    0.0000 C   0  0  1  0  0  0  0  0  0  0  0  0
    9.1335    0.3478    0.0000 C   0  0  0  0  0  0  0  0  0  0  0  0
    4.0145   -0.6224    0.0000 H   0  0  0  0  0  0  0  0  0  0  0  0
    2.2889    0.6313    0.0000 H   0  0  0  0  0  0  0  0  0  0  0  0
    4.6837   -0.3305    0.0000 H   0  0  0  0  0  0  0  0  0  0  0  0
    3.8527    2.2272    0.0000 H   0  0  0  0  0  0  0  0  0  0  0  0
    2.5920    1.3564    0.0000 H   0  0  0  0  0  0  0  0  0  0  0  0
    5.1078   -0.1851    0.0000 H   0  0  0  0  0  0  0  0  0  0  0  0
    2.0000    2.1976    0.0000 H   0  0  0  0  0  0  0  0  0  0  0  0
    6.3229    2.4917    0.0000 H   0  0  0  0  0  0  0  0  0  0  0  0
    5.1568    3.3839    0.0000 H   0  0  0  0  0  0  0  0  0  0  0  0
    4.3710    3.7729    0.0000 H   0  0  0  0  0  0  0  0  0  0  0  0
    3.9820    2.9871    0.0000 H   0  0  0  0  0  0  0  0  0  0  0  0
    6.3823   -1.3597    0.0000 H   0  0  0  0  0  0  0  0  0  0  0  0
    6.4956   -1.7224    0.0000 H   0  0  0  0  0  0  0  0  0  0  0  0
    8.6811   -2.2134    0.0000 H   0  0  0  0  0  0  0  0  0  0  0  0
    9.1740   -0.8862    0.0000 H   0  0  0  0  0  0  0  0  0  0  0  0
    8.2711    0.2042    0.0000 H   0  0  0  0  0  0  0  0  0  0  0  0
    9.3724    0.9199    0.0000 H   0  0  0  0  0  0  0  0  0  0  0  0
    8.6116    0.6824    0.0000 H   0  0  0  0  0  0  0  0  0  0  0  0
    6.6076   -3.1855    0.0000 H   0  0  0  0  0  0  0  0  0  0  0  0
    8.9791   -3.1680    0.0000 H   0  0  0  0  0  0  0  0  0  0  0  0
    9.9143   -2.1532    0.0000 H   0  0  0  0  0  0  0  0  0  0  0  0
   10.5294    0.5845    0.0000 H   0  0  0  0  0  0  0  0  0  0  0  0
 10  1  1  1  0  0  0
 11  1  1  1  0  0  0
 14  2  1  1  0  0  0
  2 31  1  0  0  0  0
  3 15  1  0  0  0  0
  3 17  1  0  0  0  0
 15  4  1  1  0  0  0
 19  4  1  6  0  0  0
  5 19  1  0  0  0  0
  5 23  1  0  0  0  0
 20  6  1  1  0  0  0
  6 43  1  0  0  0  0
 21  7  1  6  0  0  0
  7 44  1  0  0  0  0
 22  8  1  1  0  0  0
  8 45  1  0  0  0  0
  9 24  1  0  0  0  0
  9 46  1  0  0  0  0
 10 11  1  0  0  0  0
 10 12  1  0  0  0  0
 10 25  1  0  0  0  0
 11 14  1  0  0  0  0
 11 26  1  0  0  0  0
 12 13  1  0  0  0  0
 12 15  1  0  0  0  0
 12 27  1  1  0  0  0
 13 14  1  0  0  0  0
 13 16  1  0  0  0  0
 13 28  1  1  0  0  0
 14 29  1  0  0  0  0
 15 30  1  0  0  0  0
 16 17  2  0  0  0  0
 16 18  1  0  0  0  0
 17 32  1  0  0  0  0
 18 33  1  0  0  0  0
 18 34  1  0  0  0  0
 18 35  1  0  0  0  0
 19 20  1  0  0  0  0
 19 36  1  0  0  0  0
 20 21  1  0  0  0  0
 20 37  1  0  0  0  0
 21 22  1  0  0  0  0
 21 38  1  0  0  0  0
 22 23  1  0  0  0  0
 22 39  1  0  0  0  0
 23 24  1  6  0  0  0
 23 40  1  0  0  0  0
 24 41  1  0  0  0  0
 24 42  1  0  0  0  0
M  END
> <PUBCHEM_COMPOUND_CID>
443352

> <PUBCHEM_COMPOUND_CANONICALIZED>
1

> <PUBCHEM_CACTVS_COMPLEXITY>
525

> <PUBCHEM_CACTVS_HBOND_ACCEPTOR>
9

> <PUBCHEM_CACTVS_HBOND_DONOR>
5

> <PUBCHEM_CACTVS_ROTATABLE_BOND>
3

> <PUBCHEM_CACTVS_SUBSKEYS>
AAADceBwPAAAAAAAAAAAAAAAEgAAAYAAAAAkSIAAAAAAAEAAAAAAGgAACAAADRSwgAMCCAAABgCAAgBCAAAACAAgIAAAAAAAAAgREAIAAQAiQAAFwAAHAAHA4KwOgAAAAAAAAAAAAAAAAAAAAIQADCAAAA==

> <PUBCHEM_IUPAC_OPENEYE_NAME>
(2S,3R,4S,5S,6R)-2-[[(1aR,1bS,2S,5aS,6S,6aS)-6-hydroxy-5-methyl-1a,1b,2,5a,6,6a-hexahydrooxireno[4,5]cyclopenta[1,2-d]pyran-2-yl]oxy]-6-(hydroxymethyl)tetrahydropyran-3,4,5-triol

> <PUBCHEM_IUPAC_CAS_NAME>
(2S,3R,4S,5S,6R)-2-[[(1aR,1bS,2S,5aS,6S,6aS)-6-hydroxy-5-methyl-1a,1b,2,5a,6,6a-hexahydrooxireno[4,5]cyclopenta[1,2-d]pyran-2-yl]oxy]-6-(hydroxymethyl)oxane-3,4,5-triol

> <PUBCHEM_IUPAC_NAME>
(2S,3R,4S,5S,6R)-2-[[(1aR,1bS,2S,5aS,6S,6aS)-6-hydroxy-5-methyl-1a,1b,2,5a,6,6a-hexahydrooxireno[4,5]cyclopenta[1,2-d]pyran-2-yl]oxy]-6-(hydroxymethyl)oxane-3,4,5-triol

> <PUBCHEM_IUPAC_SYSTEMATIC_NAME>
(2S,3R,4S,5S,6R)-2-[[(1aR,1bS,2S,5aS,6S,6aS)-5-methyl-6-oxidanyl-1a,1b,2,5a,6,6a-hexahydrooxireno[4,5]cyclopenta[1,2-d]pyran-2-yl]oxy]-6-(hydroxymethyl)oxane-3,4,5-triol

> <PUBCHEM_IUPAC_TRADITIONAL_NAME>
(2S,3R,4S,5S,6R)-2-[[(1aR,1bS,2S,5aS,6S,6aS)-6-hydroxy-5-methyl-1a,1b,2,5a,6,6a-hexahydrooxireno[4,5]cyclopenta[1,2-d]pyran-2-yl]oxy]-6-methylol-tetrahydropyran-3,4,5-triol

> <PUBCHEM_IUPAC_INCHI>
InChI=1S/C15H22O9/c1-4-3-21-14(7-6(4)9(18)13-12(7)23-13)24-15-11(20)10(19)8(17)5(2-16)22-15/h3,5-20H,2H2,1H3/t5-,6-,7+,8-,9+,10+,11-,12-,13+,14+,15+/m1/s1

> <PUBCHEM_IUPAC_INCHIKEY>
QSOURIMNVDBNHL-HJJINUIOSA-N

> <PUBCHEM_XLOGP3_AA>
-2.4

> <PUBCHEM_EXACT_MASS>
346.126382

> <PUBCHEM_MOLECULAR_FORMULA>
C15H22O9

> <PUBCHEM_MOLECULAR_WEIGHT>
346.32978

> <PUBCHEM_OPENEYE_CAN_SMILES>
CC1=COC(C2C1C(C3C2O3)O)OC4C(C(C(C(O4)CO)O)O)O

> <PUBCHEM_OPENEYE_ISO_SMILES>
CC1=CO[C@H]([C@H]2[C@@H]1[C@@H]([C@H]3[C@@H]2O3)O)O[C@H]4[C@@H]([C@H]([C@@H]([C@H](O4)CO)O)O)O

> <PUBCHEM_CACTVS_TPSA>
141

> <PUBCHEM_MONOISOTOPIC_WEIGHT>
346.126382

> <PUBCHEM_TOTAL_CHARGE>
0

> <PUBCHEM_HEAVY_ATOM_COUNT>
24

> <PUBCHEM_ATOM_DEF_STEREO_COUNT>
11

> <PUBCHEM_ATOM_UDEF_STEREO_COUNT>
0

> <PUBCHEM_BOND_DEF_STEREO_COUNT>
0

> <PUBCHEM_BOND_UDEF_STEREO_COUNT>
0

> <PUBCHEM_ISOTOPIC_ATOM_COUNT>
0

> <PUBCHEM_COMPONENT_COUNT>
1

> <PUBCHEM_CACTVS_TAUTO_COUNT>
1

> <PUBCHEM_COORDINATE_TYPE>
1
5
255

> <PUBCHEM_BONDANNOTATIONS>
10  1  5
11  1  5
12  27  5
13  28  5
14  2  5
23  24  6
15  4  5
19  4  6
20  6  5
21  7  6
22  8  5

$$$$

