5281461
  -OEChem-07051212572D

 52 53  0     1  0  0  0  0  0999 V2000
   10.2022    0.8571    0.0000 O   0  0  0  0  0  0  0  0  0  0  0  0
    6.8671    0.6900    0.0000 O   0  0  0  0  0  0  0  0  0  0  0  0
   10.2970    2.6309    0.0000 O   0  0  0  0  0  0  0  0  0  0  0  0
    6.0010   -0.8100    0.0000 O   0  0  0  0  0  0  0  0  0  0  0  0
    4.2690    2.1900    0.0000 O   0  0  0  0  0  0  0  0  0  0  0  0
    2.5369    0.1900    0.0000 O   0  0  0  0  0  0  0  0  0  0  0  0
    8.5991    0.6900    0.0000 C   0  0  2  0  0  0  0  0  0  0  0  0
    7.7331    0.1900    0.0000 C   0  0  1  0  0  0  0  0  0  0  0  0
    9.4651    0.1900    0.0000 C   0  0  1  0  0  0  0  0  0  0  0  0
    7.7331   -0.8100    0.0000 C   0  0  0  0  0  0  0  0  0  0  0  0
    8.8083    1.6618    0.0000 C   0  0  0  0  0  0  0  0  0  0  0  0
    9.4651   -0.8100    0.0000 C   0  0  0  0  0  0  0  0  0  0  0  0
    8.5991   -1.3100    0.0000 C   0  0  0  0  0  0  0  0  0  0  0  0
    9.7970    1.7649    0.0000 C   0  0  0  0  0  0  0  0  0  0  0  0
   10.3312   -1.3100    0.0000 C   0  0  0  0  0  0  0  0  0  0  0  0
   10.3312   -2.3100    0.0000 C   0  0  0  0  0  0  0  0  0  0  0  0
    9.4651   -2.8100    0.0000 C   0  0  0  0  0  0  0  0  0  0  0  0
    8.5991   -2.3100    0.0000 C   0  0  0  0  0  0  0  0  0  0  0  0
    8.1405    2.4061    0.0000 C   0  0  0  0  0  0  0  0  0  0  0  0
    9.7865   -0.3137    0.0000 C   0  0  0  0  0  0  0  0  0  0  0  0
   11.1972   -0.8100    0.0000 C   0  0  0  0  0  0  0  0  0  0  0  0
    6.0010    0.1900    0.0000 C   0  0  0  0  0  0  0  0  0  0  0  0
    5.1350    0.6900    0.0000 C   0  0  0  0  0  0  0  0  0  0  0  0
    5.1350    1.6900    0.0000 C   0  0  0  0  0  0  0  0  0  0  0  0
    4.2690    0.1900    0.0000 C   0  0  0  0  0  0  0  0  0  0  0  0
    3.4030    0.6900    0.0000 C   0  0  0  0  0  0  0  0  0  0  0  0
    7.9121    1.1905    0.0000 H   0  0  0  0  0  0  0  0  0  0  0  0
    7.7331    0.8100    0.0000 H   0  0  0  0  0  0  0  0  0  0  0  0
   10.2421   -0.1547    0.0000 H   0  0  0  0  0  0  0  0  0  0  0  0
    7.1225   -0.7023    0.0000 H   0  0  0  0  0  0  0  0  0  0  0  0
    7.5210   -1.3926    0.0000 H   0  0  0  0  0  0  0  0  0  0  0  0
    9.2531   -1.3926    0.0000 H   0  0  0  0  0  0  0  0  0  0  0  0
   10.5432   -2.8926    0.0000 H   0  0  0  0  0  0  0  0  0  0  0  0
   10.9417   -2.2023    0.0000 H   0  0  0  0  0  0  0  0  0  0  0  0
    9.0666   -3.2850    0.0000 H   0  0  0  0  0  0  0  0  0  0  0  0
    9.8637   -3.2850    0.0000 H   0  0  0  0  0  0  0  0  0  0  0  0
    8.0622   -2.6200    0.0000 H   0  0  0  0  0  0  0  0  0  0  0  0
    8.3331    2.9954    0.0000 H   0  0  0  0  0  0  0  0  0  0  0  0
    7.5338    2.2783    0.0000 H   0  0  0  0  0  0  0  0  0  0  0  0
   10.1850   -0.7886    0.0000 H   0  0  0  0  0  0  0  0  0  0  0  0
   10.2614    0.0848    0.0000 H   0  0  0  0  0  0  0  0  0  0  0  0
    9.3880    0.1613    0.0000 H   0  0  0  0  0  0  0  0  0  0  0  0
   11.5072   -1.3469    0.0000 H   0  0  0  0  0  0  0  0  0  0  0  0
   11.7341   -0.5000    0.0000 H   0  0  0  0  0  0  0  0  0  0  0  0
   10.8872   -0.2731    0.0000 H   0  0  0  0  0  0  0  0  0  0  0  0
    5.7456    1.5823    0.0000 H   0  0  0  0  0  0  0  0  0  0  0  0
    5.3471    2.2726    0.0000 H   0  0  0  0  0  0  0  0  0  0  0  0
    4.2690   -0.4300    0.0000 H   0  0  0  0  0  0  0  0  0  0  0  0
    3.8015    1.1650    0.0000 H   0  0  0  0  0  0  0  0  0  0  0  0
    3.0044    1.1650    0.0000 H   0  0  0  0  0  0  0  0  0  0  0  0
    4.2690    2.8100    0.0000 H   0  0  0  0  0  0  0  0  0  0  0  0
    2.0000    0.5000    0.0000 H   0  0  0  0  0  0  0  0  0  0  0  0
  1  9  1  0  0  0  0
  1 14  1  0  0  0  0
  8  2  1  1  0  0  0
  2 22  1  0  0  0  0
  3 14  2  0  0  0  0
  4 22  2  0  0  0  0
  5 24  1  0  0  0  0
  5 51  1  0  0  0  0
  6 26  1  0  0  0  0
  6 52  1  0  0  0  0
  7  8  1  0  0  0  0
  7  9  1  0  0  0  0
  7 11  1  0  0  0  0
  7 27  1  6  0  0  0
  8 10  1  0  0  0  0
  8 28  1  0  0  0  0
  9 12  1  0  0  0  0
  9 29  1  1  0  0  0
 10 13  1  0  0  0  0
 10 30  1  0  0  0  0
 10 31  1  0  0  0  0
 11 14  1  0  0  0  0
 11 19  2  0  0  0  0
 12 15  2  0  0  0  0
 12 32  1  0  0  0  0
 13 18  2  0  0  0  0
 13 20  1  0  0  0  0
 15 16  1  0  0  0  0
 15 21  1  0  0  0  0
 16 17  1  0  0  0  0
 16 33  1  0  0  0  0
 16 34  1  0  0  0  0
 17 18  1  0  0  0  0
 17 35  1  0  0  0  0
 17 36  1  0  0  0  0
 18 37  1  0  0  0  0
 19 38  1  0  0  0  0
 19 39  1  0  0  0  0
 20 40  1  0  0  0  0
 20 41  1  0  0  0  0
 20 42  1  0  0  0  0
 21 43  1  0  0  0  0
 21 44  1  0  0  0  0
 21 45  1  0  0  0  0
 22 23  1  0  0  0  0
 23 24  1  0  0  0  0
 23 25  2  0  0  0  0
 24 46  1  0  0  0  0
 24 47  1  0  0  0  0
 25 26  1  0  0  0  0
 25 48  1  0  0  0  0
 26 49  1  0  0  0  0
 26 50  1  0  0  0  0
M  END
> <PUBCHEM_COMPOUND_CID>
5281461

> <PUBCHEM_COMPOUND_CANONICALIZED>
1

> <PUBCHEM_CACTVS_COMPLEXITY>
670

> <PUBCHEM_CACTVS_HBOND_ACCEPTOR>
6

> <PUBCHEM_CACTVS_HBOND_DONOR>
2

> <PUBCHEM_CACTVS_ROTATABLE_BOND>
5

> <PUBCHEM_CACTVS_SUBSKEYS>
AAADceB4OAAAAAAAAAAAAAAAAAAAASAAAAAAAAAAAAAAAACAAAAAGgAACAAADRSggAICCAAABgCIAiDSCAAAAAAgAAAACAEAAEgAFBYAIQACUAAF4AAIMYPKyCCOAAAAAAAAAAAAAAAAAAAAAAAAAAAAAA==

> <PUBCHEM_IUPAC_OPENEYE_NAME>
[(3aR,4R,6E,10E,11aR)-6,10-dimethyl-3-methylene-2-oxo-3a,4,5,8,9,11a-hexahydrocyclodeca[b]furan-4-yl] (E)-4-hydroxy-2-(hydroxymethyl)but-2-enoate

> <PUBCHEM_IUPAC_CAS_NAME>
(E)-4-hydroxy-2-(hydroxymethyl)-2-butenoic acid [(3aR,4R,6E,10E,11aR)-6,10-dimethyl-3-methylene-2-oxo-3a,4,5,8,9,11a-hexahydrocyclodeca[b]furan-4-yl] ester

> <PUBCHEM_IUPAC_NAME>
[(3aR,4R,6E,10E,11aR)-6,10-dimethyl-3-methylidene-2-oxo-3a,4,5,8,9,11a-hexahydrocyclodeca[b]furan-4-yl] (E)-4-hydroxy-2-(hydroxymethyl)but-2-enoate

> <PUBCHEM_IUPAC_SYSTEMATIC_NAME>
[(3aR,4R,6E,10E,11aR)-6,10-dimethyl-3-methylidene-2-oxidanylidene-3a,4,5,8,9,11a-hexahydrocyclodeca[b]furan-4-yl] (E)-2-(hydroxymethyl)-4-oxidanyl-but-2-enoate

> <PUBCHEM_IUPAC_TRADITIONAL_NAME>
(E)-4-hydroxy-2-methylol-but-2-enoic acid [(3aR,4R,6E,10E,11aR)-2-keto-6,10-dimethyl-3-methylene-3a,4,5,8,9,11a-hexahydrocyclodeca[b]furan-4-yl] ester

> <PUBCHEM_IUPAC_INCHI>
InChI=1S/C20H26O6/c1-12-5-4-6-13(2)10-17(26-20(24)15(11-22)7-8-21)18-14(3)19(23)25-16(18)9-12/h6-7,9,16-18,21-22H,3-5,8,10-11H2,1-2H3/b12-9+,13-6+,15-7+/t16-,17-,18+/m1/s1

> <PUBCHEM_IUPAC_INCHIKEY>
VWJYWGYJIDQUEG-DKDOXNMLSA-N

> <PUBCHEM_XLOGP3_AA>
1.1

> <PUBCHEM_EXACT_MASS>
362.172939

> <PUBCHEM_MOLECULAR_FORMULA>
C20H26O6

> <PUBCHEM_MOLECULAR_WEIGHT>
362.41684

> <PUBCHEM_OPENEYE_CAN_SMILES>
CC1=CC2C(C(CC(=CCC1)C)OC(=O)C(=CCO)CO)C(=C)C(=O)O2

> <PUBCHEM_OPENEYE_ISO_SMILES>
C/C/1=C\[C@@H]2[C@@H]([C@@H](C/C(=C/CC1)/C)OC(=O)/C(=C/CO)/CO)C(=C)C(=O)O2

> <PUBCHEM_CACTVS_TPSA>
93.1

> <PUBCHEM_MONOISOTOPIC_WEIGHT>
362.172939

> <PUBCHEM_TOTAL_CHARGE>
0

> <PUBCHEM_HEAVY_ATOM_COUNT>
26

> <PUBCHEM_ATOM_DEF_STEREO_COUNT>
3

> <PUBCHEM_ATOM_UDEF_STEREO_COUNT>
0

> <PUBCHEM_BOND_DEF_STEREO_COUNT>
3

> <PUBCHEM_BOND_UDEF_STEREO_COUNT>
0

> <PUBCHEM_ISOTOPIC_ATOM_COUNT>
0

> <PUBCHEM_COMPONENT_COUNT>
1

> <PUBCHEM_CACTVS_TAUTO_COUNT>
1

> <PUBCHEM_COORDINATE_TYPE>
1
5
255

> <PUBCHEM_BONDANNOTATIONS>
8  2  5
7  27  6
9  29  5

$$$$

