11376
  -OEChem-06261205363D

 18 19  0     0  0  0  0  0  0999 V2000
   -3.4304    0.7046    0.0000 O   0  0  0  0  0  0  0  0  0  0  0  0
   -0.6279   -1.6221    0.0000 N   0  0  0  0  0  0  0  0  0  0  0  0
    0.2331    0.6287    0.0000 C   0  0  0  0  0  0  0  0  0  0  0  0
    0.4148   -0.7702   -0.0001 C   0  0  0  0  0  0  0  0  0  0  0  0
   -1.0780    1.1236    0.0000 C   0  0  0  0  0  0  0  0  0  0  0  0
    1.3444    1.4887    0.0000 C   0  0  0  0  0  0  0  0  0  0  0  0
    1.7174   -1.2614    0.0000 C   0  0  0  0  0  0  0  0  0  0  0  0
   -2.1545    0.2483    0.0000 C   0  0  0  0  0  0  0  0  0  0  0  0
    2.6361    0.9702    0.0000 C   0  0  0  0  0  0  0  0  0  0  0  0
    2.8225   -0.4065    0.0000 C   0  0  0  0  0  0  0  0  0  0  0  0
   -1.8774   -1.1038    0.0000 C   0  0  0  0  0  0  0  0  0  0  0  0
   -1.2551    2.1973    0.0000 H   0  0  0  0  0  0  0  0  0  0  0  0
    1.2096    2.5681    0.0001 H   0  0  0  0  0  0  0  0  0  0  0  0
    1.8904   -2.3360    0.0000 H   0  0  0  0  0  0  0  0  0  0  0  0
    3.4923    1.6378    0.0000 H   0  0  0  0  0  0  0  0  0  0  0  0
    3.8269   -0.8198    0.0000 H   0  0  0  0  0  0  0  0  0  0  0  0
   -2.6753   -1.8399    0.0000 H   0  0  0  0  0  0  0  0  0  0  0  0
   -3.4167    1.6772    0.0000 H   0  0  0  0  0  0  0  0  0  0  0  0
  1  8  1  0  0  0  0
  1 18  1  0  0  0  0
  2  4  1  0  0  0  0
  2 11  2  0  0  0  0
  3  4  1  0  0  0  0
  3  5  1  0  0  0  0
  3  6  2  0  0  0  0
  4  7  2  0  0  0  0
  5  8  2  0  0  0  0
  5 12  1  0  0  0  0
  6  9  1  0  0  0  0
  6 13  1  0  0  0  0
  7 10  1  0  0  0  0
  7 14  1  0  0  0  0
  8 11  1  0  0  0  0
  9 10  2  0  0  0  0
  9 15  1  0  0  0  0
 10 16  1  0  0  0  0
 11 17  1  0  0  0  0
M  END
> <PUBCHEM_COMPOUND_CID>
11376

> <PUBCHEM_CONFORMER_RMSD>
0.4

> <PUBCHEM_CONFORMER_DIVERSEORDER>
1

> <PUBCHEM_MMFF94_PARTIAL_CHARGES>
17
1 -0.53
10 -0.15
11 0.16
12 0.15
13 0.15
14 0.15
15 0.15
16 0.15
17 0.15
18 0.45
2 -0.62
4 0.31
5 -0.15
6 -0.15
7 -0.15
8 0.08
9 -0.15

> <PUBCHEM_EFFECTIVE_ROTOR_COUNT>
0

> <PUBCHEM_PHARMACOPHORE_FEATURES>
4
1 1 donor
1 2 acceptor
6 2 3 4 5 8 11 rings
6 3 4 6 7 9 10 rings

> <PUBCHEM_HEAVY_ATOM_COUNT>
11

> <PUBCHEM_ATOM_DEF_STEREO_COUNT>
0

> <PUBCHEM_ATOM_UDEF_STEREO_COUNT>
0

> <PUBCHEM_BOND_DEF_STEREO_COUNT>
0

> <PUBCHEM_BOND_UDEF_STEREO_COUNT>
0

> <PUBCHEM_ISOTOPIC_ATOM_COUNT>
0

> <PUBCHEM_COMPONENT_COUNT>
1

> <PUBCHEM_CACTVS_TAUTO_COUNT>
3

> <PUBCHEM_CONFORMER_ID>
00002C7000000001

> <PUBCHEM_MMFF94_ENERGY>
31.0208

> <PUBCHEM_FEATURE_SELFOVERLAP>
20.329

> <PUBCHEM_SHAPE_FINGERPRINT>
12524768 44 18409162246660473926
12897270 3 18410292493137387140
13380535 76 18410296895368349014
14325111 11 18410855438774852481
15775835 57 18412820270359205084
16945 1 18410856585546743398
17844478 74 17988633108496030753
193761 8 17690279309343048645
19973954 147 18339358552669775688
20201158 50 18408604794317919438
21040471 1 18338798901393668996
21501502 16 18338801100264034758
23235685 24 18409736165886483569
23402655 69 18335714870642546717
23463225 33 18341898527999595522
23552423 10 18271806753124702102
23559900 14 18334565834221452332
241688 4 17327732306767953714
2748010 2 18266457611696309182
369184 2 18410294687733735091
5084963 1 18187649149418411312
528886 8 18410298007780358784
53812653 166 18334300833837390760

> <PUBCHEM_SHAPE_MULTIPOLES>
215.52
4.21
1.63
0.6
0.9
0.14
0
-0.56
0
-0.17
0
-0.04
-0.01
0

> <PUBCHEM_SHAPE_SELFOVERLAP>
476.186

> <PUBCHEM_SHAPE_VOLUME>
115.6

> <PUBCHEM_COORDINATE_TYPE>
2
5
10

$$$$

