14076601
  -OEChem-07051213092D

 40 41  0     1  0  0  0  0  0999 V2000
    2.5369    0.7379    0.0000 O   0  0  0  0  0  0  0  0  0  0  0  0
    5.1350   -0.7621    0.0000 C   0  0  1  0  0  0  0  0  0  0  0  0
    5.1350    0.2379    0.0000 C   0  0  0  0  0  0  0  0  0  0  0  0
    6.0290   -1.2967    0.0000 C   0  0  0  0  0  0  0  0  0  0  0  0
    4.2690   -1.2621    0.0000 C   0  0  0  0  0  0  0  0  0  0  0  0
    6.9350    0.2587    0.0000 C   0  0  1  0  0  0  0  0  0  0  0  0
    6.0290    0.7726    0.0000 C   0  0  0  0  0  0  0  0  0  0  0  0
    6.9350   -0.7829    0.0000 C   0  0  0  0  0  0  0  0  0  0  0  0
    3.4030   -0.7621    0.0000 C   0  0  0  0  0  0  0  0  0  0  0  0
    4.2690    0.7379    0.0000 C   0  0  0  0  0  0  0  0  0  0  0  0
    3.4030    0.2379    0.0000 C   0  0  2  0  0  0  0  0  0  0  0  0
    5.1350   -1.7621    0.0000 C   0  0  0  0  0  0  0  0  0  0  0  0
    7.7991    0.7621    0.0000 C   0  0  0  0  0  0  0  0  0  0  0  0
    4.2690    1.7379    0.0000 C   0  0  0  0  0  0  0  0  0  0  0  0
    8.6671    0.2654    0.0000 C   0  0  0  0  0  0  0  0  0  0  0  0
    7.7953    1.7621    0.0000 C   0  0  0  0  0  0  0  0  0  0  0  0
    5.6244   -1.7665    0.0000 H   0  0  0  0  0  0  0  0  0  0  0  0
    6.4226   -1.7758    0.0000 H   0  0  0  0  0  0  0  0  0  0  0  0
    3.8705   -1.7370    0.0000 H   0  0  0  0  0  0  0  0  0  0  0  0
    4.6675   -1.7370    0.0000 H   0  0  0  0  0  0  0  0  0  0  0  0
    7.4726   -0.0502    0.0000 H   0  0  0  0  0  0  0  0  0  0  0  0
    6.4226    1.2516    0.0000 H   0  0  0  0  0  0  0  0  0  0  0  0
    5.6244    1.2424    0.0000 H   0  0  0  0  0  0  0  0  0  0  0  0
    7.1441   -1.3666    0.0000 H   0  0  0  0  0  0  0  0  0  0  0  0
    7.5459   -0.6768    0.0000 H   0  0  0  0  0  0  0  0  0  0  0  0
    2.7924   -0.6544    0.0000 H   0  0  0  0  0  0  0  0  0  0  0  0
    3.1909   -1.3447    0.0000 H   0  0  0  0  0  0  0  0  0  0  0  0
    3.4030    0.8579    0.0000 H   0  0  0  0  0  0  0  0  0  0  0  0
    4.5150   -1.7621    0.0000 H   0  0  0  0  0  0  0  0  0  0  0  0
    5.1350   -2.3821    0.0000 H   0  0  0  0  0  0  0  0  0  0  0  0
    5.7550   -1.7621    0.0000 H   0  0  0  0  0  0  0  0  0  0  0  0
    4.8890    1.7379    0.0000 H   0  0  0  0  0  0  0  0  0  0  0  0
    4.2690    2.3579    0.0000 H   0  0  0  0  0  0  0  0  0  0  0  0
    3.6490    1.7379    0.0000 H   0  0  0  0  0  0  0  0  0  0  0  0
    2.0000    0.4279    0.0000 H   0  0  0  0  0  0  0  0  0  0  0  0
    8.3591   -0.2727    0.0000 H   0  0  0  0  0  0  0  0  0  0  0  0
    9.2052   -0.0425    0.0000 H   0  0  0  0  0  0  0  0  0  0  0  0
    8.9750    0.8035    0.0000 H   0  0  0  0  0  0  0  0  0  0  0  0
    8.3310    2.0741    0.0000 H   0  0  0  0  0  0  0  0  0  0  0  0
    7.2571    2.0700    0.0000 H   0  0  0  0  0  0  0  0  0  0  0  0
 11  1  1  1  0  0  0
  1 35  1  0  0  0  0
  2  3  1  0  0  0  0
  2  4  1  0  0  0  0
  2  5  1  0  0  0  0
  2 12  1  6  0  0  0
  3  7  1  0  0  0  0
  3 10  2  0  0  0  0
  4  8  1  0  0  0  0
  4 17  1  0  0  0  0
  4 18  1  0  0  0  0
  5  9  1  0  0  0  0
  5 19  1  0  0  0  0
  5 20  1  0  0  0  0
  6  7  1  0  0  0  0
  6  8  1  0  0  0  0
  6 13  1  6  0  0  0
  6 21  1  0  0  0  0
  7 22  1  0  0  0  0
  7 23  1  0  0  0  0
  8 24  1  0  0  0  0
  8 25  1  0  0  0  0
  9 11  1  0  0  0  0
  9 26  1  0  0  0  0
  9 27  1  0  0  0  0
 10 11  1  0  0  0  0
 10 14  1  0  0  0  0
 11 28  1  0  0  0  0
 12 29  1  0  0  0  0
 12 30  1  0  0  0  0
 12 31  1  0  0  0  0
 13 15  1  0  0  0  0
 13 16  2  0  0  0  0
 14 32  1  0  0  0  0
 14 33  1  0  0  0  0
 14 34  1  0  0  0  0
 15 36  1  0  0  0  0
 15 37  1  0  0  0  0
 15 38  1  0  0  0  0
 16 39  1  0  0  0  0
 16 40  1  0  0  0  0
M  END
> <PUBCHEM_COMPOUND_CID>
14076601

> <PUBCHEM_COMPOUND_CANONICALIZED>
1

> <PUBCHEM_CACTVS_COMPLEXITY>
339

> <PUBCHEM_CACTVS_HBOND_ACCEPTOR>
1

> <PUBCHEM_CACTVS_HBOND_DONOR>
1

> <PUBCHEM_CACTVS_ROTATABLE_BOND>
1

> <PUBCHEM_CACTVS_SUBSKEYS>
AAADceBwIAAAAAAAAAAAAAAAAAAAAAAAAAAwQAAAAAAAAACAAAAAGgAACAAADxSggAICAAAAAgCAAgBCAAAAAAAgAAAACAAAAAgAFAIAAQAAUAAEgAAIEAOAwOAPAAAAAAAAAACAAAAAAAAAAAAAAAAAAA==

> <PUBCHEM_IUPAC_OPENEYE_NAME>
(2R,4aS,7R)-7-isopropenyl-1,4a-dimethyl-3,4,5,6,7,8-hexahydro-2H-naphthalen-2-ol

> <PUBCHEM_IUPAC_CAS_NAME>
(2R,4aS,7R)-1,4a-dimethyl-7-(1-methylethenyl)-3,4,5,6,7,8-hexahydro-2H-naphthalen-2-ol

> <PUBCHEM_IUPAC_NAME>
(2R,4aS,7R)-1,4a-dimethyl-7-prop-1-en-2-yl-3,4,5,6,7,8-hexahydro-2H-naphthalen-2-ol

> <PUBCHEM_IUPAC_SYSTEMATIC_NAME>
(2R,4aS,7R)-1,4a-dimethyl-7-prop-1-en-2-yl-3,4,5,6,7,8-hexahydro-2H-naphthalen-2-ol

> <PUBCHEM_IUPAC_TRADITIONAL_NAME>
(2R,4aS,7R)-7-isopropenyl-1,4a-dimethyl-3,4,5,6,7,8-hexahydro-2H-naphthalen-2-ol

> <PUBCHEM_IUPAC_INCHI>
InChI=1S/C15H24O/c1-10(2)12-5-7-15(4)8-6-14(16)11(3)13(15)9-12/h12,14,16H,1,5-9H2,2-4H3/t12-,14-,15+/m1/s1

> <PUBCHEM_IUPAC_INCHIKEY>
APWLDLGOYJHNIK-YUELXQCFSA-N

> <PUBCHEM_XLOGP3_AA>
3.4

> <PUBCHEM_EXACT_MASS>
220.182715

> <PUBCHEM_MOLECULAR_FORMULA>
C15H24O

> <PUBCHEM_MOLECULAR_WEIGHT>
220.35046

> <PUBCHEM_OPENEYE_CAN_SMILES>
CC1=C2CC(CCC2(CCC1O)C)C(=C)C

> <PUBCHEM_OPENEYE_ISO_SMILES>
CC1=C2C[C@@H](CC[C@]2(CC[C@H]1O)C)C(=C)C

> <PUBCHEM_CACTVS_TPSA>
20.2

> <PUBCHEM_MONOISOTOPIC_WEIGHT>
220.182715

> <PUBCHEM_TOTAL_CHARGE>
0

> <PUBCHEM_HEAVY_ATOM_COUNT>
16

> <PUBCHEM_ATOM_DEF_STEREO_COUNT>
3

> <PUBCHEM_ATOM_UDEF_STEREO_COUNT>
0

> <PUBCHEM_BOND_DEF_STEREO_COUNT>
0

> <PUBCHEM_BOND_UDEF_STEREO_COUNT>
0

> <PUBCHEM_ISOTOPIC_ATOM_COUNT>
0

> <PUBCHEM_COMPONENT_COUNT>
1

> <PUBCHEM_CACTVS_TAUTO_COUNT>
1

> <PUBCHEM_COORDINATE_TYPE>
1
5
255

> <PUBCHEM_BONDANNOTATIONS>
11  1  5
2  12  6
6  13  6

$$$$

