7990
  -OEChem-06261202323D

 17 16  0     1  0  0  0  0  0999 V2000
    2.0275   -1.3491   -0.0472 O   0  0  0  0  0  0  0  0  0  0  0  0
    1.6991   -0.0252    0.3646 C   0  0  1  0  0  0  0  0  0  0  0  0
    2.4487    0.9469   -0.5332 C   0  0  0  0  0  0  0  0  0  0  0  0
   -2.3878    0.5674    0.1180 C   0  0  0  0  0  0  0  0  0  0  0  0
   -3.0982   -0.6783   -0.3833 C   0  0  0  0  0  0  0  0  0  0  0  0
    0.2487    0.1834    0.2760 C   0  0  0  0  0  0  0  0  0  0  0  0
   -0.9380    0.3549    0.2052 C   0  0  0  0  0  0  0  0  0  0  0  0
    2.0401    0.0994    1.3980 H   0  0  0  0  0  0  0  0  0  0  0  0
    2.1688    0.8118   -1.5847 H   0  0  0  0  0  0  0  0  0  0  0  0
    3.5282    0.7711   -0.4704 H   0  0  0  0  0  0  0  0  0  0  0  0
    2.2476    1.9869   -0.2555 H   0  0  0  0  0  0  0  0  0  0  0  0
   -2.6000    1.4037   -0.5572 H   0  0  0  0  0  0  0  0  0  0  0  0
   -2.7826    0.8397    1.1030 H   0  0  0  0  0  0  0  0  0  0  0  0
   -2.9274   -1.5279    0.2868 H   0  0  0  0  0  0  0  0  0  0  0  0
   -2.7441   -0.9616   -1.3805 H   0  0  0  0  0  0  0  0  0  0  0  0
   -4.1770   -0.5031   -0.4424 H   0  0  0  0  0  0  0  0  0  0  0  0
    1.6016   -1.9646    0.5741 H   0  0  0  0  0  0  0  0  0  0  0  0
  1  2  1  0  0  0  0
  1 17  1  0  0  0  0
  2  3  1  0  0  0  0
  2  6  1  0  0  0  0
  2  8  1  0  0  0  0
  3  9  1  0  0  0  0
  3 10  1  0  0  0  0
  3 11  1  0  0  0  0
  4  5  1  0  0  0  0
  4  7  1  0  0  0  0
  4 12  1  0  0  0  0
  4 13  1  0  0  0  0
  5 14  1  0  0  0  0
  5 15  1  0  0  0  0
  5 16  1  0  0  0  0
  6  7  3  0  0  0  0
M  END
> <PUBCHEM_COMPOUND_CID>
7990

> <PUBCHEM_CONFORMER_RMSD>
0.4

> <PUBCHEM_CONFORMER_DIVERSEORDER>
2
1

> <PUBCHEM_MMFF94_PARTIAL_CHARGES>
6
1 -0.68
17 0.4
2 0.48
4 0.2
6 -0.2
7 -0.2

> <PUBCHEM_EFFECTIVE_ROTOR_COUNT>
0

> <PUBCHEM_PHARMACOPHORE_FEATURES>
3
1 1 acceptor
1 1 donor
1 5 hydrophobe

> <PUBCHEM_HEAVY_ATOM_COUNT>
7

> <PUBCHEM_ATOM_DEF_STEREO_COUNT>
0

> <PUBCHEM_ATOM_UDEF_STEREO_COUNT>
1

> <PUBCHEM_BOND_DEF_STEREO_COUNT>
0

> <PUBCHEM_BOND_UDEF_STEREO_COUNT>
0

> <PUBCHEM_ISOTOPIC_ATOM_COUNT>
0

> <PUBCHEM_COMPONENT_COUNT>
1

> <PUBCHEM_CACTVS_TAUTO_COUNT>
1

> <PUBCHEM_CONFORMER_ID>
00001F3600000002

> <PUBCHEM_MMFF94_ENERGY>
-0.4622

> <PUBCHEM_FEATURE_SELFOVERLAP>
15.223

> <PUBCHEM_SHAPE_FINGERPRINT>
12897270 3 18412543176191075101
12932741 1 16917055664165461369
12932764 1 17749393650383836849
14325111 11 18411138043512428945
14390081 3 15482677874862161165
15310529 11 18408325484147046949
23552423 10 18340486789155079835
29004967 10 18409449189072426313
3248919 1 18272654545346124049
5460574 1 9295291642389282697

> <PUBCHEM_SHAPE_MULTIPOLES>
138.19
4.78
1.06
0.71
1.81
0.21
-0.02
0.31
-0.79
-0.4
-0.08
-0.04
-0.04
-0.3

> <PUBCHEM_SHAPE_SELFOVERLAP>
247.449

> <PUBCHEM_SHAPE_VOLUME>
87.9

> <PUBCHEM_COORDINATE_TYPE>
2
5
10

$$$$

