17174
  -OEChem-07051212473D

 14 14  0     0  0  0  0  0  0999 V2000
    1.9527   -1.2290    0.0004 O   0  0  0  0  0  0  0  0  0  0  0  0
    0.0550    0.0027   -0.0001 N   0  0  0  0  0  0  0  0  0  0  0  0
   -2.0911   -0.6481    0.0000 N   0  0  0  0  0  0  0  0  0  0  0  0
    1.4480   -0.1152   -0.0002 C   0  0  0  0  0  0  0  0  0  0  0  0
   -0.7137    1.1449    0.0001 C   0  0  0  0  0  0  0  0  0  0  0  0
   -0.8395   -1.0475   -0.0004 C   0  0  0  0  0  0  0  0  0  0  0  0
    2.2085    1.1757   -0.0001 C   0  0  0  0  0  0  0  0  0  0  0  0
   -2.0199    0.7165    0.0002 C   0  0  0  0  0  0  0  0  0  0  0  0
   -0.2893    2.1391    0.0001 H   0  0  0  0  0  0  0  0  0  0  0  0
   -0.5168   -2.0802   -0.0006 H   0  0  0  0  0  0  0  0  0  0  0  0
    1.9828    1.7542    0.8997 H   0  0  0  0  0  0  0  0  0  0  0  0
    1.9823    1.7545   -0.8996 H   0  0  0  0  0  0  0  0  0  0  0  0
    3.2805    0.9552   -0.0005 H   0  0  0  0  0  0  0  0  0  0  0  0
   -2.9110    1.3270    0.0006 H   0  0  0  0  0  0  0  0  0  0  0  0
  1  4  2  0  0  0  0
  2  4  1  0  0  0  0
  2  5  1  0  0  0  0
  2  6  1  0  0  0  0
  3  6  2  0  0  0  0
  3  8  1  0  0  0  0
  4  7  1  0  0  0  0
  5  8  2  0  0  0  0
  5  9  1  0  0  0  0
  6 10  1  0  0  0  0
  7 11  1  0  0  0  0
  7 12  1  0  0  0  0
  7 13  1  0  0  0  0
  8 14  1  0  0  0  0
M  END
> <PUBCHEM_COMPOUND_CID>
17174

> <PUBCHEM_CONFORMER_RMSD>
0.4

> <PUBCHEM_CONFORMER_DIVERSEORDER>
1
3
2
4

> <PUBCHEM_MMFF94_PARTIAL_CHARGES>
11
1 -0.57
10 0.15
14 0.15
2 0.29
3 -0.57
4 0.52
5 -0.3
6 0.04
7 0.06
8 0.08
9 0.15

> <PUBCHEM_EFFECTIVE_ROTOR_COUNT>
1

> <PUBCHEM_PHARMACOPHORE_FEATURES>
2
1 1 acceptor
5 2 3 5 6 8 rings

> <PUBCHEM_HEAVY_ATOM_COUNT>
8

> <PUBCHEM_ATOM_DEF_STEREO_COUNT>
0

> <PUBCHEM_ATOM_UDEF_STEREO_COUNT>
0

> <PUBCHEM_BOND_DEF_STEREO_COUNT>
0

> <PUBCHEM_BOND_UDEF_STEREO_COUNT>
0

> <PUBCHEM_ISOTOPIC_ATOM_COUNT>
0

> <PUBCHEM_COMPONENT_COUNT>
1

> <PUBCHEM_CACTVS_TAUTO_COUNT>
1

> <PUBCHEM_CONFORMER_ID>
0000431600000001

> <PUBCHEM_MMFF94_ENERGY>
9.8785

> <PUBCHEM_FEATURE_SELFOVERLAP>
10.148

> <PUBCHEM_SHAPE_FINGERPRINT>
10857977 72 18195534683630443985
12897270 3 18338233756696245788
14390081 3 18261675874435135616
18185500 45 18339080363295541350
20096714 4 18339642346902491432
21040471 1 18410573985199008352
23552423 10 18343581858468285358
24536 1 18337968855929667504
29004967 10 18200588090632369937
369184 2 18341898489001946553
5084963 1 18189058749121345681

> <PUBCHEM_SHAPE_MULTIPOLES>
148.8
3.12
1.37
0.58
0.5
0
0
0.23
0
0.21
0
0
0.02
0

> <PUBCHEM_SHAPE_SELFOVERLAP>
305.395

> <PUBCHEM_SHAPE_VOLUME>
88.4

> <PUBCHEM_COORDINATE_TYPE>
2
5
10

$$$$

