442773
  -OEChem-07051212592D

 38 42  0     1  0  0  0  0  0999 V2000
    6.2719   -1.0387    0.0000 O   0  0  0  0  0  0  0  0  0  0  0  0
    6.4811    1.9331    0.0000 O   0  0  0  0  0  0  0  0  0  0  0  0
    4.7490    0.9331    0.0000 O   0  0  0  0  0  0  0  0  0  0  0  0
    2.2123   -1.0554    0.0000 O   0  0  0  0  0  0  0  0  0  0  0  0
    2.8914   -2.5773    0.0000 O   0  0  0  0  0  0  0  0  0  0  0  0
   10.0112   -0.0910    0.0000 O   0  0  0  0  0  0  0  0  0  0  0  0
   10.0112    1.9573    0.0000 O   0  0  0  0  0  0  0  0  0  0  0  0
    5.6151    0.4331    0.0000 C   0  0  1  0  0  0  0  0  0  0  0  0
    6.4811   -0.0669    0.0000 C   0  0  2  0  0  0  0  0  0  0  0  0
    4.8780   -0.2340    0.0000 C   0  0  0  0  0  0  0  0  0  0  0  0
    5.6151    1.4331    0.0000 C   0  0  0  0  0  0  0  0  0  0  0  0
    7.3471    0.4331    0.0000 C   0  0  0  0  0  0  0  0  0  0  0  0
    5.2832   -1.1417    0.0000 C   0  0  0  0  0  0  0  0  0  0  0  0
    7.3471    1.4331    0.0000 C   0  0  0  0  0  0  0  0  0  0  0  0
    3.8499   -0.1107    0.0000 C   0  0  0  0  0  0  0  0  0  0  0  0
    4.6882   -1.9892    0.0000 C   0  0  0  0  0  0  0  0  0  0  0  0
    8.2410   -0.1015    0.0000 C   0  0  0  0  0  0  0  0  0  0  0  0
    3.2356   -0.9443    0.0000 C   0  0  0  0  0  0  0  0  0  0  0  0
    3.6576   -1.8898    0.0000 C   0  0  0  0  0  0  0  0  0  0  0  0
    8.2410    1.9678    0.0000 C   0  0  0  0  0  0  0  0  0  0  0  0
    9.1471    0.4123    0.0000 C   0  0  0  0  0  0  0  0  0  0  0  0
    9.1471    1.4540    0.0000 C   0  0  0  0  0  0  0  0  0  0  0  0
    2.0000   -2.0626    0.0000 C   0  0  0  0  0  0  0  0  0  0  0  0
   10.0074   -1.0910    0.0000 C   0  0  0  0  0  0  0  0  0  0  0  0
    7.1681   -0.5674    0.0000 H   0  0  0  0  0  0  0  0  0  0  0  0
    5.4030    2.0157    0.0000 H   0  0  0  0  0  0  0  0  0  0  0  0
    5.0045    1.3255    0.0000 H   0  0  0  0  0  0  0  0  0  0  0  0
    3.6038    0.4583    0.0000 H   0  0  0  0  0  0  0  0  0  0  0  0
    4.7490    1.5531    0.0000 H   0  0  0  0  0  0  0  0  0  0  0  0
    4.9474   -2.5525    0.0000 H   0  0  0  0  0  0  0  0  0  0  0  0
    8.2339   -0.7215    0.0000 H   0  0  0  0  0  0  0  0  0  0  0  0
    8.2339    2.5878    0.0000 H   0  0  0  0  0  0  0  0  0  0  0  0
    1.4101   -1.8717    0.0000 H   0  0  0  0  0  0  0  0  0  0  0  0
    1.7482   -2.6292    0.0000 H   0  0  0  0  0  0  0  0  0  0  0  0
   10.0088    2.5773    0.0000 H   0  0  0  0  0  0  0  0  0  0  0  0
    9.3874   -1.0886    0.0000 H   0  0  0  0  0  0  0  0  0  0  0  0
   10.0050   -1.7110    0.0000 H   0  0  0  0  0  0  0  0  0  0  0  0
   10.6273   -1.0934    0.0000 H   0  0  0  0  0  0  0  0  0  0  0  0
  1  9  1  0  0  0  0
  1 13  1  0  0  0  0
  2 11  1  0  0  0  0
  2 14  1  0  0  0  0
  8  3  1  1  0  0  0
  3 29  1  0  0  0  0
  4 18  1  0  0  0  0
  4 23  1  0  0  0  0
  5 19  1  0  0  0  0
  5 23  1  0  0  0  0
  6 21  1  0  0  0  0
  6 24  1  0  0  0  0
  7 22  1  0  0  0  0
  7 35  1  0  0  0  0
  8  9  1  0  0  0  0
  8 10  1  0  0  0  0
  8 11  1  0  0  0  0
  9 12  1  0  0  0  0
  9 25  1  1  0  0  0
 10 13  1  0  0  0  0
 10 15  2  0  0  0  0
 11 26  1  0  0  0  0
 11 27  1  0  0  0  0
 12 14  1  0  0  0  0
 12 17  2  0  0  0  0
 13 16  2  0  0  0  0
 14 20  2  0  0  0  0
 15 18  1  0  0  0  0
 15 28  1  0  0  0  0
 16 19  1  0  0  0  0
 16 30  1  0  0  0  0
 17 21  1  0  0  0  0
 17 31  1  0  0  0  0
 18 19  2  0  0  0  0
 20 22  1  0  0  0  0
 20 32  1  0  0  0  0
 21 22  2  0  0  0  0
 23 33  1  0  0  0  0
 23 34  1  0  0  0  0
 24 36  1  0  0  0  0
 24 37  1  0  0  0  0
 24 38  1  0  0  0  0
M  END
> <PUBCHEM_COMPOUND_CID>
442773

> <PUBCHEM_COMPOUND_CANONICALIZED>
1

> <PUBCHEM_CACTVS_COMPLEXITY>
501

> <PUBCHEM_CACTVS_HBOND_ACCEPTOR>
7

> <PUBCHEM_CACTVS_HBOND_DONOR>
2

> <PUBCHEM_CACTVS_ROTATABLE_BOND>
1

> <PUBCHEM_CACTVS_SUBSKEYS>
AAADccB4OAAAAAAAAAAAAAAAAAAAASJAAAA0YIAAAAAAAEiRQAAAGgAACAAADFSgmAMyDoAABgCAAiBCAAACCAAgIAAAiAAGiIgdJyKGMRqieCOlwBUPuAfA4PwOoQABCAAIQABCAAIQABCAAAAAAAAAAA==

> <PUBCHEM_IUPAC_INCHI>
InChI=1S/C17H14O7/c1-20-13-2-8-11(4-10(13)18)21-6-17(19)9-3-14-15(23-7-22-14)5-12(9)24-16(8)17/h2-5,16,18-19H,6-7H2,1H3/t16-,17+/m0/s1

> <PUBCHEM_IUPAC_INCHIKEY>
DQXBSJMCLQLJKV-DLBZAZTESA-N

> <PUBCHEM_XLOGP3_AA>
1.3

> <PUBCHEM_EXACT_MASS>
330.073953

> <PUBCHEM_MOLECULAR_FORMULA>
C17H14O7

> <PUBCHEM_MOLECULAR_WEIGHT>
330.28886

> <PUBCHEM_OPENEYE_CAN_SMILES>
COC1=C(C=C2C(=C1)C3C(CO2)(C4=CC5=C(C=C4O3)OCO5)O)O

> <PUBCHEM_OPENEYE_ISO_SMILES>
COC1=C(C=C2C(=C1)[C@H]3[C@@](CO2)(C4=CC5=C(C=C4O3)OCO5)O)O

> <PUBCHEM_CACTVS_TPSA>
86.6

> <PUBCHEM_MONOISOTOPIC_WEIGHT>
330.073953

> <PUBCHEM_TOTAL_CHARGE>
0

> <PUBCHEM_HEAVY_ATOM_COUNT>
24

> <PUBCHEM_ATOM_DEF_STEREO_COUNT>
2

> <PUBCHEM_ATOM_UDEF_STEREO_COUNT>
0

> <PUBCHEM_BOND_DEF_STEREO_COUNT>
0

> <PUBCHEM_BOND_UDEF_STEREO_COUNT>
0

> <PUBCHEM_ISOTOPIC_ATOM_COUNT>
0

> <PUBCHEM_COMPONENT_COUNT>
1

> <PUBCHEM_CACTVS_TAUTO_COUNT>
3

> <PUBCHEM_COORDINATE_TYPE>
1
5
255

> <PUBCHEM_BONDANNOTATIONS>
10  13  8
10  15  8
12  14  8
12  17  8
13  16  8
14  20  8
15  18  8
16  19  8
17  21  8
18  19  8
20  22  8
21  22  8
8  3  5
9  25  5

$$$$

