4258
  -OEChem-06251223593D

 47 49  0     1  0  0  0  0  0999 V2000
    1.9421   -1.8473   -1.2243 O   0  0  0  0  0  0  0  0  0  0  0  0
    0.4424   -1.5526    2.1239 O   0  0  0  0  0  0  0  0  0  0  0  0
    2.0666    1.2109    1.9859 O   0  0  0  0  0  0  0  0  0  0  0  0
   -0.8599    1.3354    1.5201 O   0  0  0  0  0  0  0  0  0  0  0  0
    5.7698    0.5360    0.9870 O   0  0  0  0  0  0  0  0  0  0  0  0
    4.6606    2.1468   -0.1984 O   0  0  0  0  0  0  0  0  0  0  0  0
   -3.0602    2.9287   -1.7234 O   0  0  0  0  0  0  0  0  0  0  0  0
   -1.7551    3.4503    0.0538 O   0  0  0  0  0  0  0  0  0  0  0  0
   -6.6790   -1.9089   -0.0026 O   0  0  0  0  0  0  0  0  0  0  0  0
    2.8427   -0.3740    0.4317 N   0  0  0  0  0  0  0  0  0  0  0  0
   -0.1244   -0.3316    0.0832 N   0  0  0  0  0  0  0  0  0  0  0  0
    0.9276   -0.8612    0.9572 C   0  0  2  0  0  0  0  0  0  0  0  0
    2.0621   -1.5665    0.1784 C   0  0  1  0  0  0  0  0  0  0  0  0
    2.0094    0.2102    1.3113 C   0  0  0  0  0  0  0  0  0  0  0  0
    3.9664   -0.1251   -0.2794 C   0  0  0  0  0  0  0  0  0  0  0  0
    3.2195   -1.9101   -1.8867 C   0  0  0  0  0  0  0  0  0  0  0  0
    4.2266   -0.8664   -1.3817 C   0  0  0  0  0  0  0  0  0  0  0  0
   -0.9382    0.7375    0.4484 C   0  0  0  0  0  0  0  0  0  0  0  0
    5.4519   -0.7586   -2.2481 C   0  0  0  0  0  0  0  0  0  0  0  0
    4.8130    0.9919    0.1527 C   0  0  0  0  0  0  0  0  0  0  0  0
   -1.9546    1.1109   -0.6291 C   0  0  1  0  0  0  0  0  0  0  0  0
   -0.5453   -2.5437    1.8805 C   0  0  0  0  0  0  0  0  0  0  0  0
   -3.2281    0.2966   -0.4600 C   0  0  0  0  0  0  0  0  0  0  0  0
   -2.2323    2.6066   -0.6938 C   0  0  0  0  0  0  0  0  0  0  0  0
   -3.6105   -0.5620   -1.4705 C   0  0  0  0  0  0  0  0  0  0  0  0
   -3.9637    0.4408    0.6989 C   0  0  0  0  0  0  0  0  0  0  0  0
   -4.7786   -1.3084   -1.3157 C   0  0  0  0  0  0  0  0  0  0  0  0
   -5.1317   -0.3057    0.8540 C   0  0  0  0  0  0  0  0  0  0  0  0
   -5.5392   -1.1804   -0.1533 C   0  0  0  0  0  0  0  0  0  0  0  0
    2.4636   -2.4410    0.7091 H   0  0  0  0  0  0  0  0  0  0  0  0
   -0.2862   -0.7670   -0.8219 H   0  0  0  0  0  0  0  0  0  0  0  0
    3.6269   -2.9179   -1.7507 H   0  0  0  0  0  0  0  0  0  0  0  0
    3.0274   -1.7545   -2.9533 H   0  0  0  0  0  0  0  0  0  0  0  0
    6.1702   -0.0240   -1.8731 H   0  0  0  0  0  0  0  0  0  0  0  0
    5.1731   -0.4610   -3.2641 H   0  0  0  0  0  0  0  0  0  0  0  0
    5.9647   -1.7248   -2.2966 H   0  0  0  0  0  0  0  0  0  0  0  0
   -1.4875    0.8766   -1.5971 H   0  0  0  0  0  0  0  0  0  0  0  0
   -1.5050   -2.0750    1.6456 H   0  0  0  0  0  0  0  0  0  0  0  0
   -0.2388   -3.2064    1.0656 H   0  0  0  0  0  0  0  0  0  0  0  0
   -0.6649   -3.1399    2.7889 H   0  0  0  0  0  0  0  0  0  0  0  0
    6.3600    1.2548    1.2991 H   0  0  0  0  0  0  0  0  0  0  0  0
   -3.0256   -0.6696   -2.3789 H   0  0  0  0  0  0  0  0  0  0  0  0
   -3.6612    1.1215    1.4888 H   0  0  0  0  0  0  0  0  0  0  0  0
   -5.0851   -1.9864   -2.1077 H   0  0  0  0  0  0  0  0  0  0  0  0
   -5.7206   -0.2008    1.7611 H   0  0  0  0  0  0  0  0  0  0  0  0
   -3.2235    3.8947   -1.7719 H   0  0  0  0  0  0  0  0  0  0  0  0
   -6.8080   -2.4594   -0.7941 H   0  0  0  0  0  0  0  0  0  0  0  0
  1 13  1  0  0  0  0
  1 16  1  0  0  0  0
  2 12  1  0  0  0  0
  2 22  1  0  0  0  0
  3 14  2  0  0  0  0
  4 18  2  0  0  0  0
  5 20  1  0  0  0  0
  5 41  1  0  0  0  0
  6 20  2  0  0  0  0
  7 24  1  0  0  0  0
  7 46  1  0  0  0  0
  8 24  2  0  0  0  0
  9 29  1  0  0  0  0
  9 47  1  0  0  0  0
 10 13  1  0  0  0  0
 10 14  1  0  0  0  0
 10 15  1  0  0  0  0
 11 12  1  0  0  0  0
 11 18  1  0  0  0  0
 11 31  1  0  0  0  0
 12 13  1  0  0  0  0
 12 14  1  0  0  0  0
 13 30  1  0  0  0  0
 15 17  2  0  0  0  0
 15 20  1  0  0  0  0
 16 17  1  0  0  0  0
 16 32  1  0  0  0  0
 16 33  1  0  0  0  0
 17 19  1  0  0  0  0
 18 21  1  0  0  0  0
 19 34  1  0  0  0  0
 19 35  1  0  0  0  0
 19 36  1  0  0  0  0
 21 23  1  0  0  0  0
 21 24  1  0  0  0  0
 21 37  1  0  0  0  0
 22 38  1  0  0  0  0
 22 39  1  0  0  0  0
 22 40  1  0  0  0  0
 23 25  2  0  0  0  0
 23 26  1  0  0  0  0
 25 27  1  0  0  0  0
 25 42  1  0  0  0  0
 26 28  2  0  0  0  0
 26 43  1  0  0  0  0
 27 29  2  0  0  0  0
 27 44  1  0  0  0  0
 28 29  1  0  0  0  0
 28 45  1  0  0  0  0
M  END
> <PUBCHEM_COMPOUND_CID>
4258

> <PUBCHEM_CONFORMER_RMSD>
1

> <PUBCHEM_CONFORMER_DIVERSEORDER>
5
22
25
21
13
46
42
51
49
58
20
47
9
48
37
12
53
57
43
10
36
19
32
44
1
56
35
30
7
28
17
55
29
23
63
31
8
52
38
4
65
34
59
27
3
45
14
16
2
18
60
33
61
26
50
62
6
64
24
15
39
41
54
40
11

> <PUBCHEM_MMFF94_PARTIAL_CHARGES>
37
1 -0.54
10 -0.39
11 -0.65
12 0.54
13 0.48
14 0.58
15 0.12
16 0.42
17 -0.28
18 0.57
19 0.14
2 -0.54
20 0.71
21 0.27
22 0.28
23 -0.14
24 0.66
25 -0.15
26 -0.15
27 -0.15
28 -0.15
29 0.08
3 -0.57
31 0.37
4 -0.57
41 0.5
42 0.15
43 0.15
44 0.15
45 0.15
46 0.5
47 0.45
5 -0.65
6 -0.57
7 -0.65
8 -0.57
9 -0.53

> <PUBCHEM_EFFECTIVE_ROTOR_COUNT>
7.6

> <PUBCHEM_PHARMACOPHORE_FEATURES>
16
1 1 acceptor
1 11 donor
1 2 acceptor
1 21 anion
1 3 acceptor
1 4 acceptor
1 5 acceptor
1 6 acceptor
1 7 acceptor
1 8 acceptor
1 9 donor
3 5 6 20 anion
3 7 8 24 anion
4 10 12 13 14 rings
6 1 10 13 15 16 17 rings
6 23 25 26 27 28 29 rings

> <PUBCHEM_HEAVY_ATOM_COUNT>
29

> <PUBCHEM_ATOM_DEF_STEREO_COUNT>
0

> <PUBCHEM_ATOM_UDEF_STEREO_COUNT>
3

> <PUBCHEM_BOND_DEF_STEREO_COUNT>
0

> <PUBCHEM_BOND_UDEF_STEREO_COUNT>
0

> <PUBCHEM_ISOTOPIC_ATOM_COUNT>
0

> <PUBCHEM_COMPONENT_COUNT>
1

> <PUBCHEM_CACTVS_TAUTO_COUNT>
4

> <PUBCHEM_CONFORMER_ID>
000010A200000005

> <PUBCHEM_MMFF94_ENERGY>
77.4501

> <PUBCHEM_FEATURE_SELFOVERLAP>
81.898

> <PUBCHEM_SHAPE_FINGERPRINT>
10498660 4 18129103501072201748
10670039 82 17632005455781279852
10928967 22 16009043833468601796
11089746 13 12607409888177277232
11135609 12 14780371501753199628
11135926 11 16226059898979669900
12166972 35 15913330199846754652
12553582 1 18340504287558783843
12633257 1 6555405449107274595
12670546 177 18334293167288845876
12788726 201 18202008746087630529
128620 24 18202005442840970237
13224815 77 18272094945567361825
13673619 4 17894623773241201719
13782708 43 18337382855304227958
13911987 19 17417515943943508599
14251758 9 7132440111915072943
14251764 30 17240196642785545479
14341114 176 17022896848563431211
14787075 74 18341052926016426449
17349148 13 16271920545246643036
173720 79 17275111596071333186
1813 80 18410853244663827493
20157964 124 13686302370134515467
20429585 67 18259983756035901717
20511986 3 13686020826232314073
21033650 10 18267569381851993728
21774942 28 13325482262578090167
22393880 68 18127410270481861302
22950370 63 17240479208678446579
23559900 14 17839760487967336691
351380 180 12391513074892468583
3737641 26 17894904182844749959
4325135 7 18335140864783655812
46194498 28 18261104176118538716
469060 322 17703494585043914369
497634 4 17895464921248716161
513202 73 5760561874532248940
54039377 194 15936956553371039438
5486654 2 17989201530327607531
77296 10 13614234854732586425

> <PUBCHEM_SHAPE_MULTIPOLES>
534.02
13.21
2.71
1.93
2.2
1.55
0
-2.74
4.13
1.43
0.33
-1.1
-0.58
1.43

> <PUBCHEM_SHAPE_SELFOVERLAP>
1148.538

> <PUBCHEM_SHAPE_VOLUME>
290.3

> <PUBCHEM_COORDINATE_TYPE>
2
5
10

$$$$

