23724634
  -OEChem-07051213083D

 72 71  0     0  0  0  0  0  0999 V2000
   12.4235   -2.6200   -0.3031 O   0  0  0  0  0  0  0  0  0  0  0  0
   14.1999   -1.2111   -0.3046 O   0  0  0  0  0  0  0  0  0  0  0  0
  -10.3239    0.0996    0.3649 C   0  0  0  0  0  0  0  0  0  0  0  0
  -11.1703   -0.1189   -0.8965 C   0  0  0  0  0  0  0  0  0  0  0  0
   -8.9781   -0.5990    0.3382 C   0  0  0  0  0  0  0  0  0  0  0  0
  -12.4408    0.6857   -0.9136 C   0  0  0  0  0  0  0  0  0  0  0  0
  -13.6559    0.3022   -0.4792 C   0  0  0  0  0  0  0  0  0  0  0  0
   -9.0458   -2.1046    0.2945 C   0  0  0  0  0  0  0  0  0  0  0  0
   -7.7798    0.0197    0.3404 C   0  0  0  0  0  0  0  0  0  0  0  0
  -14.8906    1.1561   -0.5238 C   0  0  0  0  0  0  0  0  0  0  0  0
  -13.8548   -1.0595    0.1288 C   0  0  0  0  0  0  0  0  0  0  0  0
   -6.4744   -0.6097    0.3039 C   0  0  0  0  0  0  0  0  0  0  0  0
   -5.3280    0.0912    0.3091 C   0  0  0  0  0  0  0  0  0  0  0  0
   -3.9758   -0.4655    0.2596 C   0  0  0  0  0  0  0  0  0  0  0  0
   -3.8324   -1.9678    0.2267 C   0  0  0  0  0  0  0  0  0  0  0  0
   -2.8606    0.2951    0.2679 C   0  0  0  0  0  0  0  0  0  0  0  0
   -1.4780   -0.1341    0.2229 C   0  0  0  0  0  0  0  0  0  0  0  0
    2.1171    0.9238    0.1934 C   0  0  0  0  0  0  0  0  0  0  0  0
   -0.3746    0.6333    0.2317 C   0  0  0  0  0  0  0  0  0  0  0  0
    0.9988    0.1694    0.1855 C   0  0  0  0  0  0  0  0  0  0  0  0
    7.1172    0.8831    0.0296 C   0  0  0  0  0  0  0  0  0  0  0  0
    3.4422    0.3105    0.1168 C   0  0  0  0  0  0  0  0  0  0  0  0
    5.8922    0.3142    0.0360 C   0  0  0  0  0  0  0  0  0  0  0  0
    4.6073    0.9801    0.1185 C   0  0  0  0  0  0  0  0  0  0  0  0
    2.1675    2.4289    0.2167 C   0  0  0  0  0  0  0  0  0  0  0  0
    8.2894    0.0046   -0.0549 C   0  0  0  0  0  0  0  0  0  0  0  0
    7.3713    2.3675    0.1154 C   0  0  0  0  0  0  0  0  0  0  0  0
    9.5794    0.3831   -0.0738 C   0  0  0  0  0  0  0  0  0  0  0  0
   10.6727   -0.5687   -0.1571 C   0  0  0  0  0  0  0  0  0  0  0  0
   11.9899   -0.2847   -0.1818 C   0  0  0  0  0  0  0  0  0  0  0  0
   12.6053    1.0874   -0.1349 C   0  0  0  0  0  0  0  0  0  0  0  0
   12.9903   -1.3921   -0.2773 C   0  0  0  0  0  0  0  0  0  0  0  0
  -10.8781   -0.2385    1.2500 H   0  0  0  0  0  0  0  0  0  0  0  0
  -10.1681    1.1777    0.5049 H   0  0  0  0  0  0  0  0  0  0  0  0
  -10.5842    0.1777   -1.7770 H   0  0  0  0  0  0  0  0  0  0  0  0
  -11.3781   -1.1840   -1.0473 H   0  0  0  0  0  0  0  0  0  0  0  0
  -12.3409    1.6901   -1.3222 H   0  0  0  0  0  0  0  0  0  0  0  0
   -8.9878   -2.4606   -0.7391 H   0  0  0  0  0  0  0  0  0  0  0  0
   -8.2662   -2.5876    0.8905 H   0  0  0  0  0  0  0  0  0  0  0  0
   -9.9939   -2.4581    0.7166 H   0  0  0  0  0  0  0  0  0  0  0  0
   -7.7764    1.1084    0.3696 H   0  0  0  0  0  0  0  0  0  0  0  0
  -14.6907    2.1316   -0.9792 H   0  0  0  0  0  0  0  0  0  0  0  0
  -15.2723    1.3307    0.4872 H   0  0  0  0  0  0  0  0  0  0  0  0
  -15.6716    0.6656   -1.1136 H   0  0  0  0  0  0  0  0  0  0  0  0
  -14.4570   -1.6825   -0.5407 H   0  0  0  0  0  0  0  0  0  0  0  0
  -14.3914   -0.9669    1.0799 H   0  0  0  0  0  0  0  0  0  0  0  0
  -12.9311   -1.5979    0.3515 H   0  0  0  0  0  0  0  0  0  0  0  0
   -6.4415   -1.6912    0.2461 H   0  0  0  0  0  0  0  0  0  0  0  0
   -5.3784    1.1786    0.3532 H   0  0  0  0  0  0  0  0  0  0  0  0
   -2.9853    1.3777    0.3060 H   0  0  0  0  0  0  0  0  0  0  0  0
   -2.8205   -2.3674    0.2670 H   0  0  0  0  0  0  0  0  0  0  0  0
   -4.2833   -2.3652   -0.6904 H   0  0  0  0  0  0  0  0  0  0  0  0
   -4.3526   -2.4123    1.0841 H   0  0  0  0  0  0  0  0  0  0  0  0
   -1.2893   -1.2006    0.1666 H   0  0  0  0  0  0  0  0  0  0  0  0
   -0.5275    1.7075    0.2834 H   0  0  0  0  0  0  0  0  0  0  0  0
    1.1055   -0.9147    0.1438 H   0  0  0  0  0  0  0  0  0  0  0  0
    3.4581   -0.7768    0.0556 H   0  0  0  0  0  0  0  0  0  0  0  0
    5.8264   -0.7727   -0.0269 H   0  0  0  0  0  0  0  0  0  0  0  0
    4.6282    2.0596    0.1824 H   0  0  0  0  0  0  0  0  0  0  0  0
    2.6580    2.8259   -0.6797 H   0  0  0  0  0  0  0  0  0  0  0  0
    1.1769    2.8898    0.2395 H   0  0  0  0  0  0  0  0  0  0  0  0
    2.6857    2.7938    1.1110 H   0  0  0  0  0  0  0  0  0  0  0  0
    8.0698   -1.0621   -0.1066 H   0  0  0  0  0  0  0  0  0  0  0  0
    7.9116    2.7148   -0.7725 H   0  0  0  0  0  0  0  0  0  0  0  0
    7.9677    2.6032    1.0040 H   0  0  0  0  0  0  0  0  0  0  0  0
    6.4649    2.9719    0.1819 H   0  0  0  0  0  0  0  0  0  0  0  0
    9.8340    1.4348   -0.0241 H   0  0  0  0  0  0  0  0  0  0  0  0
   10.3435   -1.6051   -0.2023 H   0  0  0  0  0  0  0  0  0  0  0  0
   13.2082    1.2617   -1.0328 H   0  0  0  0  0  0  0  0  0  0  0  0
   13.2572    1.1782    0.7409 H   0  0  0  0  0  0  0  0  0  0  0  0
   11.8762    1.8977   -0.0771 H   0  0  0  0  0  0  0  0  0  0  0  0
   13.0945   -3.3336   -0.3552 H   0  0  0  0  0  0  0  0  0  0  0  0
  1 32  1  0  0  0  0
  1 72  1  0  0  0  0
  2 32  2  0  0  0  0
  3  4  1  0  0  0  0
  3  5  1  0  0  0  0
  3 33  1  0  0  0  0
  3 34  1  0  0  0  0
  4  6  1  0  0  0  0
  4 35  1  0  0  0  0
  4 36  1  0  0  0  0
  5  8  1  0  0  0  0
  5  9  2  0  0  0  0
  6  7  2  0  0  0  0
  6 37  1  0  0  0  0
  7 10  1  0  0  0  0
  7 11  1  0  0  0  0
  8 38  1  0  0  0  0
  8 39  1  0  0  0  0
  8 40  1  0  0  0  0
  9 12  1  0  0  0  0
  9 41  1  0  0  0  0
 10 42  1  0  0  0  0
 10 43  1  0  0  0  0
 10 44  1  0  0  0  0
 11 45  1  0  0  0  0
 11 46  1  0  0  0  0
 11 47  1  0  0  0  0
 12 13  2  0  0  0  0
 12 48  1  0  0  0  0
 13 14  1  0  0  0  0
 13 49  1  0  0  0  0
 14 15  1  0  0  0  0
 14 16  2  0  0  0  0
 15 51  1  0  0  0  0
 15 52  1  0  0  0  0
 15 53  1  0  0  0  0
 16 17  1  0  0  0  0
 16 50  1  0  0  0  0
 17 19  2  0  0  0  0
 17 54  1  0  0  0  0
 18 20  2  0  0  0  0
 18 22  1  0  0  0  0
 18 25  1  0  0  0  0
 19 20  1  0  0  0  0
 19 55  1  0  0  0  0
 20 56  1  0  0  0  0
 21 23  2  0  0  0  0
 21 26  1  0  0  0  0
 21 27  1  0  0  0  0
 22 24  2  0  0  0  0
 22 57  1  0  0  0  0
 23 24  1  0  0  0  0
 23 58  1  0  0  0  0
 24 59  1  0  0  0  0
 25 60  1  0  0  0  0
 25 61  1  0  0  0  0
 25 62  1  0  0  0  0
 26 28  2  0  0  0  0
 26 63  1  0  0  0  0
 27 64  1  0  0  0  0
 27 65  1  0  0  0  0
 27 66  1  0  0  0  0
 28 29  1  0  0  0  0
 28 67  1  0  0  0  0
 29 30  2  0  0  0  0
 29 68  1  0  0  0  0
 30 31  1  0  0  0  0
 30 32  1  0  0  0  0
 31 69  1  0  0  0  0
 31 70  1  0  0  0  0
 31 71  1  0  0  0  0
M  END
> <PUBCHEM_COMPOUND_CID>
23724634

> <PUBCHEM_CONFORMER_RMSD>
1.2

> <PUBCHEM_CONFORMER_DIVERSEORDER>
2
45
81
91
63
13
33
54
111
86
110
76
27
48
98
3
107
113
88
20
74
125
28
36
108
122
4
72
59
102
131
135
118
38
132
23
31
11
94
30
104
10
95
66
26
87
100
37
82
1
50
83
32
75
90
129
62
34
103
97
19
114
5
35
51
112
105
14
15
6
43
116
109
115
136
39
12
126
57
7
49
68
93
84
99
134
58
25
41
106
64
56
42
47
24
8
117
46
52
101
124
40
128
120
73
22
133
127
85
18
55
9
44
78
79
71
96
53
67
17
60
80
21
65
69
29
123
137
16
92
121
77
89
119
61
130
70

> <PUBCHEM_MMFF94_PARTIAL_CHARGES>
47
1 -0.65
10 0.14
11 0.14
12 -0.15
13 -0.15
14 -0.14
15 0.14
16 -0.15
17 -0.15
18 -0.14
19 -0.15
2 -0.57
20 -0.15
21 -0.14
22 -0.15
23 -0.15
24 -0.15
25 0.14
26 -0.15
27 0.14
28 -0.15
29 -0.15
3 0.14
30 -0.12
31 0.14
32 0.71
37 0.15
4 0.14
41 0.15
48 0.15
49 0.15
5 -0.28
50 0.15
54 0.15
55 0.15
56 0.15
57 0.15
58 0.15
59 0.15
6 -0.29
63 0.15
67 0.15
68 0.15
7 -0.28
72 0.5
8 0.14
9 -0.15

> <PUBCHEM_EFFECTIVE_ROTOR_COUNT>
12

> <PUBCHEM_PHARMACOPHORE_FEATURES>
10
1 1 acceptor
1 15 hydrophobe
1 2 acceptor
1 25 hydrophobe
1 27 hydrophobe
1 31 hydrophobe
1 8 hydrophobe
3 1 2 32 anion
3 7 10 11 hydrophobe
4 3 4 5 6 hydrophobe

> <PUBCHEM_HEAVY_ATOM_COUNT>
32

> <PUBCHEM_ATOM_DEF_STEREO_COUNT>
0

> <PUBCHEM_ATOM_UDEF_STEREO_COUNT>
0

> <PUBCHEM_BOND_DEF_STEREO_COUNT>
9

> <PUBCHEM_BOND_UDEF_STEREO_COUNT>
0

> <PUBCHEM_ISOTOPIC_ATOM_COUNT>
0

> <PUBCHEM_COMPONENT_COUNT>
1

> <PUBCHEM_CACTVS_TAUTO_COUNT>
1

> <PUBCHEM_CONFORMER_ID>
016A025A00000002

> <PUBCHEM_MMFF94_ENERGY>
64.2481

> <PUBCHEM_FEATURE_SELFOVERLAP>
50.808

> <PUBCHEM_SHAPE_FINGERPRINT>
12013929 2 18342739610981064817
12498461 61 17530967943529027359
12559415 86 16558758956978843951
12559415 90 17894630361763751985
14251764 46 18410573976561523048
14251920 1 18410573989456974437
15061470 23 18343584014436788757
15219723 13 5039679124704986636
15274700 256 8574715703197218871
15343295 20 4967610582309584184
16728433 110 18261394413451440888
21026386 74 18269270176919798284
21043394 1 18410855460128168289
21057603 130 6916255236244594129
21057603 192 18342459296559212853
21102433 48 17967253105390351446
232437 2 18409165507442497722
23399689 5 13542464271710360943
23581129 1 18411419510031145265
3092352 35 18113338584380792791
3991529 128 11887954354309884481
44575985 240 5473138527315194916
54131252 152 17821730508735790295
9663363 56 13984661455859131891

> <PUBCHEM_SHAPE_MULTIPOLES>
646.81
80.22
1.78
0.72
16.21
0.21
-0.04
16.13
-15.71
-3
0.01
0.89
-0.02
1.71

> <PUBCHEM_SHAPE_SELFOVERLAP>
1269.284

> <PUBCHEM_SHAPE_VOLUME>
387.1

> <PUBCHEM_COORDINATE_TYPE>
2
5
10

$$$$

