23724567
  -OEChem-07051213083D

 52 52  0     1  0  0  0  0  0999 V2000
   -1.3032    1.8741   -0.0681 O   0  0  0  0  0  0  0  0  0  0  0  0
    4.1258    1.3744    0.3350 O   0  0  0  0  0  0  0  0  0  0  0  0
    2.0657   -2.8234   -0.5387 O   0  0  0  0  0  0  0  0  0  0  0  0
   -0.1206    1.3822   -1.9908 O   0  0  0  0  0  0  0  0  0  0  0  0
   -2.7622    0.2637    0.9716 C   0  0  2  0  0  0  0  0  0  0  0  0
   -2.3384    0.9054   -0.3707 C   0  0  1  0  0  0  0  0  0  0  0  0
   -3.5422   -1.0632    0.8174 C   0  0  0  0  0  0  0  0  0  0  0  0
   -2.8329   -2.1778    0.0237 C   0  0  0  0  0  0  0  0  0  0  0  0
    2.6884    1.3862    0.4625 C   0  0  1  0  0  0  0  0  0  0  0  0
   -3.5571    1.2291    1.8621 C   0  0  0  0  0  0  0  0  0  0  0  0
    2.2069    2.4967   -0.5074 C   0  0  0  0  0  0  0  0  0  0  0  0
   -3.4583    1.6082   -1.1292 C   0  0  0  0  0  0  0  0  0  0  0  0
    0.7536    2.9624   -0.3870 C   0  0  0  0  0  0  0  0  0  0  0  0
   -1.3947   -2.3469    0.4290 C   0  0  0  0  0  0  0  0  0  0  0  0
    1.0746   -2.2506    0.3120 C   0  0  2  0  0  0  0  0  0  0  0  0
   -0.2954   -2.2630   -0.3486 C   0  0  0  0  0  0  0  0  0  0  0  0
    2.2281    0.0058    0.0330 C   0  0  0  0  0  0  0  0  0  0  0  0
   -0.2478    1.9727   -0.9268 C   0  0  0  0  0  0  0  0  0  0  0  0
    2.3946    1.7482    1.9254 C   0  0  0  0  0  0  0  0  0  0  0  0
    1.4637   -0.8501    0.7320 C   0  0  0  0  0  0  0  0  0  0  0  0
   -0.3107   -2.1132   -1.8478 C   0  0  0  0  0  0  0  0  0  0  0  0
    3.1622   -3.3207    0.2115 C   0  0  0  0  0  0  0  0  0  0  0  0
   -1.8415    0.0507    1.5322 H   0  0  0  0  0  0  0  0  0  0  0  0
   -1.9190    0.1348   -1.0208 H   0  0  0  0  0  0  0  0  0  0  0  0
   -4.5175   -0.8725    0.3524 H   0  0  0  0  0  0  0  0  0  0  0  0
   -3.7591   -1.4512    1.8222 H   0  0  0  0  0  0  0  0  0  0  0  0
   -2.9452   -1.9691   -1.0426 H   0  0  0  0  0  0  0  0  0  0  0  0
   -3.3584   -3.1237    0.2024 H   0  0  0  0  0  0  0  0  0  0  0  0
   -4.5472    1.4414    1.4459 H   0  0  0  0  0  0  0  0  0  0  0  0
   -3.7047    0.7969    2.8580 H   0  0  0  0  0  0  0  0  0  0  0  0
   -3.0258    2.1777    1.9904 H   0  0  0  0  0  0  0  0  0  0  0  0
    2.4141    2.1895   -1.5421 H   0  0  0  0  0  0  0  0  0  0  0  0
    2.8392    3.3831   -0.3535 H   0  0  0  0  0  0  0  0  0  0  0  0
   -3.8175    2.4916   -0.5916 H   0  0  0  0  0  0  0  0  0  0  0  0
   -3.0875    1.9720   -2.0939 H   0  0  0  0  0  0  0  0  0  0  0  0
   -4.2996    0.9360   -1.3191 H   0  0  0  0  0  0  0  0  0  0  0  0
    0.6190    3.8826   -0.9688 H   0  0  0  0  0  0  0  0  0  0  0  0
    0.5138    3.2180    0.6497 H   0  0  0  0  0  0  0  0  0  0  0  0
   -1.2502   -2.4741    1.5019 H   0  0  0  0  0  0  0  0  0  0  0  0
    1.0157   -2.8647    1.2225 H   0  0  0  0  0  0  0  0  0  0  0  0
    2.5897   -0.3137   -0.9436 H   0  0  0  0  0  0  0  0  0  0  0  0
    2.7833    2.7450    2.1654 H   0  0  0  0  0  0  0  0  0  0  0  0
    1.3250    1.7362    2.1562 H   0  0  0  0  0  0  0  0  0  0  0  0
    2.9000    1.0541    2.6077 H   0  0  0  0  0  0  0  0  0  0  0  0
    1.0737   -0.5448    1.6999 H   0  0  0  0  0  0  0  0  0  0  0  0
    0.2752   -1.2416   -2.1532 H   0  0  0  0  0  0  0  0  0  0  0  0
   -1.3090   -1.9940   -2.2712 H   0  0  0  0  0  0  0  0  0  0  0  0
    0.1294   -3.0002   -2.3158 H   0  0  0  0  0  0  0  0  0  0  0  0
    4.4667    2.2320    0.6417 H   0  0  0  0  0  0  0  0  0  0  0  0
    3.9004   -3.7179   -0.4909 H   0  0  0  0  0  0  0  0  0  0  0  0
    2.8434   -4.1388    0.8653 H   0  0  0  0  0  0  0  0  0  0  0  0
    3.6434   -2.5341    0.8002 H   0  0  0  0  0  0  0  0  0  0  0  0
  1  6  1  0  0  0  0
  1 18  1  0  0  0  0
  2  9  1  0  0  0  0
  2 49  1  0  0  0  0
  3 15  1  0  0  0  0
  3 22  1  0  0  0  0
  4 18  2  0  0  0  0
  5  6  1  0  0  0  0
  5  7  1  0  0  0  0
  5 10  1  0  0  0  0
  5 23  1  0  0  0  0
  6 12  1  0  0  0  0
  6 24  1  0  0  0  0
  7  8  1  0  0  0  0
  7 25  1  0  0  0  0
  7 26  1  0  0  0  0
  8 14  1  0  0  0  0
  8 27  1  0  0  0  0
  8 28  1  0  0  0  0
  9 11  1  0  0  0  0
  9 17  1  0  0  0  0
  9 19  1  0  0  0  0
 10 29  1  0  0  0  0
 10 30  1  0  0  0  0
 10 31  1  0  0  0  0
 11 13  1  0  0  0  0
 11 32  1  0  0  0  0
 11 33  1  0  0  0  0
 12 34  1  0  0  0  0
 12 35  1  0  0  0  0
 12 36  1  0  0  0  0
 13 18  1  0  0  0  0
 13 37  1  0  0  0  0
 13 38  1  0  0  0  0
 14 16  2  0  0  0  0
 14 39  1  0  0  0  0
 15 16  1  0  0  0  0
 15 20  1  0  0  0  0
 15 40  1  0  0  0  0
 16 21  1  0  0  0  0
 17 20  2  0  0  0  0
 17 41  1  0  0  0  0
 19 42  1  0  0  0  0
 19 43  1  0  0  0  0
 19 44  1  0  0  0  0
 20 45  1  0  0  0  0
 21 46  1  0  0  0  0
 21 47  1  0  0  0  0
 21 48  1  0  0  0  0
 22 50  1  0  0  0  0
 22 51  1  0  0  0  0
 22 52  1  0  0  0  0
M  END
> <PUBCHEM_COMPOUND_CID>
23724567

> <PUBCHEM_CONFORMER_RMSD>
0.6

> <PUBCHEM_CONFORMER_DIVERSEORDER>
3
14
6
8
12
11
16
2
15
17
20
4
9
10
13
19
1
18
5
7

> <PUBCHEM_MMFF94_PARTIAL_CHARGES>
20
1 -0.43
13 0.06
14 -0.29
15 0.56
16 -0.28
17 -0.29
18 0.66
2 -0.68
20 -0.29
21 0.14
22 0.28
3 -0.56
39 0.15
4 -0.57
41 0.15
45 0.15
49 0.4
6 0.28
8 0.14
9 0.42

> <PUBCHEM_EFFECTIVE_ROTOR_COUNT>
2.8

> <PUBCHEM_PHARMACOPHORE_FEATURES>
4
1 2 acceptor
1 2 donor
1 3 acceptor
1 4 acceptor

> <PUBCHEM_HEAVY_ATOM_COUNT>
22

> <PUBCHEM_ATOM_DEF_STEREO_COUNT>
4

> <PUBCHEM_ATOM_UDEF_STEREO_COUNT>
0

> <PUBCHEM_BOND_DEF_STEREO_COUNT>
2

> <PUBCHEM_BOND_UDEF_STEREO_COUNT>
0

> <PUBCHEM_ISOTOPIC_ATOM_COUNT>
0

> <PUBCHEM_COMPONENT_COUNT>
1

> <PUBCHEM_CACTVS_TAUTO_COUNT>
1

> <PUBCHEM_CONFORMER_ID>
016A021700000003

> <PUBCHEM_MMFF94_ENERGY>
45.6867

> <PUBCHEM_FEATURE_SELFOVERLAP>
20.297

> <PUBCHEM_SHAPE_FINGERPRINT>
104564 63 18125450704416702244
10708813 3 18335406950813488825
11370993 70 18265628597399381961
11680986 33 18339932609355954998
12054548 360 18196924685761960710
12156800 1 13532261671245341093
12422481 6 18269016296394184146
12596599 1 17532664639813836903
12633257 1 18120088648354167675
13140716 1 18268142231362316707
14081887 123 17107631553571198192
14178342 30 18337383860168027337
14223421 5 18341048536602229667
14790565 3 18125713496972049220
19591789 44 18411416177363286046
20261772 1 18196929963886306128
20600515 1 17621858204143409983
20905425 154 18410564111042996806
21524375 3 18116991079333403538
238 59 17619383190658230925
2748010 2 18271249446784746509
2803657 2 17259631339539767837
35225 105 17680979704636334073
4409770 3 17478612772678439182
539174 4 18189874539741938121
6287921 2 18188193360788742351
6438718 38 17393590390333724150
7064713 232 18263641779777240825

> <PUBCHEM_SHAPE_MULTIPOLES>
429.27
6.04
4.32
1.52
1.06
1.71
-0.01
-0.87
1.99
-2.21
-0.65
0.52
-0.52
0.32

> <PUBCHEM_SHAPE_SELFOVERLAP>
843.748

> <PUBCHEM_SHAPE_VOLUME>
256.5

> <PUBCHEM_COORDINATE_TYPE>
2
5
10

$$$$

