47205517
  -OEChem-06241222592D

 36 36  0     1  0  0  0  0  0999 V2000
    3.0000   -2.9330    0.0000 S   0  0  0  0  0  0  0  0  0  0  0  0
    6.4641    3.0670    0.0000 S   0  0  0  0  0  0  0  0  0  0  0  0
    2.0000   -2.9330    0.0000 O   0  0  0  0  0  0  0  0  0  0  0  0
    4.0000   -2.9330    0.0000 O   0  0  0  0  0  0  0  0  0  0  0  0
    4.7320   -1.9330    0.0000 O   0  0  0  0  0  0  0  0  0  0  0  0
    5.9641    3.9330    0.0000 O   0  0  0  0  0  0  0  0  0  0  0  0
    6.9641    2.2010    0.0000 O   0  0  0  0  0  0  0  0  0  0  0  0
    3.8660   -0.4330    0.0000 N   0  0  0  0  0  0  0  0  0  0  0  0
    5.5981    2.5670    0.0000 N   0  0  0  0  0  0  0  0  0  0  0  0
    3.0000   -1.9330    0.0000 C   0  0  3  0  0  0  0  0  0  0  0  0
    3.8660   -1.4330    0.0000 C   0  0  0  0  0  0  0  0  0  0  0  0
    2.1340   -1.4330    0.0000 C   0  0  0  0  0  0  0  0  0  0  0  0
    3.0000   -3.9330    0.0000 C   0  0  0  0  0  0  0  0  0  0  0  0
    4.7320    0.0670    0.0000 C   0  0  0  0  0  0  0  0  0  0  0  0
    5.5981    1.5670    0.0000 C   0  0  0  0  0  0  0  0  0  0  0  0
    4.7320    1.0670    0.0000 C   0  0  0  0  0  0  0  0  0  0  0  0
    5.5981   -0.4330    0.0000 C   0  0  0  0  0  0  0  0  0  0  0  0
    6.4641    1.0670    0.0000 C   0  0  0  0  0  0  0  0  0  0  0  0
    6.4641    0.0670    0.0000 C   0  0  0  0  0  0  0  0  0  0  0  0
    7.3301    3.5670    0.0000 C   0  0  0  0  0  0  0  0  0  0  0  0
    2.4631   -2.2430    0.0000 H   0  0  0  0  0  0  0  0  0  0  0  0
    2.4440   -0.8961    0.0000 H   0  0  0  0  0  0  0  0  0  0  0  0
    1.5970   -1.1230    0.0000 H   0  0  0  0  0  0  0  0  0  0  0  0
    1.8240   -1.9700    0.0000 H   0  0  0  0  0  0  0  0  0  0  0  0
    2.3800   -3.9330    0.0000 H   0  0  0  0  0  0  0  0  0  0  0  0
    3.0000   -4.5530    0.0000 H   0  0  0  0  0  0  0  0  0  0  0  0
    3.6200   -3.9330    0.0000 H   0  0  0  0  0  0  0  0  0  0  0  0
    3.3291   -0.1230    0.0000 H   0  0  0  0  0  0  0  0  0  0  0  0
    4.1951    1.3770    0.0000 H   0  0  0  0  0  0  0  0  0  0  0  0
    5.5981   -1.0530    0.0000 H   0  0  0  0  0  0  0  0  0  0  0  0
    5.0611    2.8770    0.0000 H   0  0  0  0  0  0  0  0  0  0  0  0
    7.0010    1.3770    0.0000 H   0  0  0  0  0  0  0  0  0  0  0  0
    7.0010   -0.2430    0.0000 H   0  0  0  0  0  0  0  0  0  0  0  0
    7.6401    3.0300    0.0000 H   0  0  0  0  0  0  0  0  0  0  0  0
    7.8671    3.8770    0.0000 H   0  0  0  0  0  0  0  0  0  0  0  0
    7.0201    4.1039    0.0000 H   0  0  0  0  0  0  0  0  0  0  0  0
  1  3  2  0  0  0  0
  1  4  2  0  0  0  0
  1 10  1  0  0  0  0
  1 13  1  0  0  0  0
  2  6  2  0  0  0  0
  2  7  2  0  0  0  0
  2  9  1  0  0  0  0
  2 20  1  0  0  0  0
  5 11  2  0  0  0  0
  8 11  1  0  0  0  0
  8 14  1  0  0  0  0
  8 28  1  0  0  0  0
  9 15  1  0  0  0  0
  9 31  1  0  0  0  0
 10 11  1  0  0  0  0
 10 12  1  0  0  0  0
 10 21  1  0  0  0  0
 12 22  1  0  0  0  0
 12 23  1  0  0  0  0
 12 24  1  0  0  0  0
 13 25  1  0  0  0  0
 13 26  1  0  0  0  0
 13 27  1  0  0  0  0
 14 16  2  0  0  0  0
 14 17  1  0  0  0  0
 15 16  1  0  0  0  0
 15 18  2  0  0  0  0
 16 29  1  0  0  0  0
 17 19  2  0  0  0  0
 17 30  1  0  0  0  0
 18 19  1  0  0  0  0
 18 32  1  0  0  0  0
 19 33  1  0  0  0  0
 20 34  1  0  0  0  0
 20 35  1  0  0  0  0
 20 36  1  0  0  0  0
M  END
> <PUBCHEM_COMPOUND_CID>
47205517

> <PUBCHEM_COMPOUND_CANONICALIZED>
1

> <PUBCHEM_CACTVS_COMPLEXITY>
544

> <PUBCHEM_CACTVS_HBOND_ACCEPTOR>
6

> <PUBCHEM_CACTVS_HBOND_DONOR>
2

> <PUBCHEM_CACTVS_ROTATABLE_BOND>
5

> <PUBCHEM_CACTVS_SUBSKEYS>
AAADceBzOABgAAAAAAAAAAAAAAAAAAAAAAAwAAAAAAAAAAABAAAAHgQQQAAACAiF0ACywILAAAqIACVSUHDCAAAhAhAIiAEAZIgIICLA0dGEIAhglADIyAcQAAAAAAAAAAQAAAAAAAAACAAAAAAAAAAAAA==

> <PUBCHEM_IUPAC_OPENEYE_NAME>
N-[3-(methanesulfonamido)phenyl]-2-methylsulfonyl-propanamide

> <PUBCHEM_IUPAC_CAS_NAME>
N-[3-(methanesulfonamido)phenyl]-2-methylsulfonylpropanamide

> <PUBCHEM_IUPAC_NAME>
N-[3-(methanesulfonamido)phenyl]-2-methylsulfonylpropanamide

> <PUBCHEM_IUPAC_SYSTEMATIC_NAME>
2-methylsulfonyl-N-[3-(methylsulfonylamino)phenyl]propanamide

> <PUBCHEM_IUPAC_TRADITIONAL_NAME>
2-mesyl-N-[3-(methanesulfonamido)phenyl]propionamide

> <PUBCHEM_IUPAC_INCHI>
InChI=1S/C11H16N2O5S2/c1-8(19(2,15)16)11(14)12-9-5-4-6-10(7-9)13-20(3,17)18/h4-8,13H,1-3H3,(H,12,14)

> <PUBCHEM_IUPAC_INCHIKEY>
MNOYNDOKMUWXHX-UHFFFAOYSA-N

> <PUBCHEM_XLOGP3_AA>
0.4

> <PUBCHEM_EXACT_MASS>
320.050064

> <PUBCHEM_MOLECULAR_FORMULA>
C11H16N2O5S2

> <PUBCHEM_MOLECULAR_WEIGHT>
320.38514

> <PUBCHEM_OPENEYE_CAN_SMILES>
CC(C(=O)NC1=CC(=CC=C1)NS(=O)(=O)C)S(=O)(=O)C

> <PUBCHEM_OPENEYE_ISO_SMILES>
CC(C(=O)NC1=CC(=CC=C1)NS(=O)(=O)C)S(=O)(=O)C

> <PUBCHEM_CACTVS_TPSA>
126

> <PUBCHEM_MONOISOTOPIC_WEIGHT>
320.050064

> <PUBCHEM_TOTAL_CHARGE>
0

> <PUBCHEM_HEAVY_ATOM_COUNT>
20

> <PUBCHEM_ATOM_DEF_STEREO_COUNT>
0

> <PUBCHEM_ATOM_UDEF_STEREO_COUNT>
1

> <PUBCHEM_BOND_DEF_STEREO_COUNT>
0

> <PUBCHEM_BOND_UDEF_STEREO_COUNT>
0

> <PUBCHEM_ISOTOPIC_ATOM_COUNT>
0

> <PUBCHEM_COMPONENT_COUNT>
1

> <PUBCHEM_CACTVS_TAUTO_COUNT>
3

> <PUBCHEM_COORDINATE_TYPE>
1
5
255

> <PUBCHEM_BONDANNOTATIONS>
10  12  3
14  16  8
14  17  8
15  16  8
15  18  8
17  19  8
18  19  8

$$$$

