656579
  -OEChem-07051213013D

 63 67  0     1  0  0  0  0  0999 V2000
    6.5491   -2.5292    2.5643 I  -2  0  0  0  0  0  0  0  0  0  0  0
   -4.3189    1.2509   -2.5646 O   0  0  0  0  0  0  0  0  0  0  0  0
    3.2367    2.4087    1.4816 O   0  0  0  0  0  0  0  0  0  0  0  0
    4.9592    2.0539   -1.3696 O   0  0  0  0  0  0  0  0  0  0  0  0
   -4.5281   -0.5888    0.6832 N   0  0  2  0  0  0  0  0  0  0  0  0
    0.1051   -0.4752   -1.2548 N   0  0  0  0  0  0  0  0  0  0  0  0
    2.1062    0.8502    0.1340 N   0  0  0  0  0  0  0  0  0  0  0  0
    8.0957   -1.3075   -0.0761 N   0  0  0  0  0  0  0  0  0  0  0  0
    7.9718   -2.2972   -0.8282 N   0  3  0  0  0  0  0  0  0  0  0  0
    7.8678   -3.2032   -1.5145 N   0  5  0  0  0  0  0  0  0  0  0  0
   -7.0557    0.0033    0.5732 C   0  0  2  0  0  0  0  0  0  0  0  0
   -6.8548   -1.4752    0.9805 C   0  0  2  0  0  0  0  0  0  0  0  0
   -4.8888   -0.1601   -0.6944 C   0  0  1  0  0  0  0  0  0  0  0  0
   -6.3648    0.2864   -0.7721 C   0  0  0  0  0  0  0  0  0  0  0  0
   -5.3402   -1.7866    1.0118 C   0  0  0  0  0  0  0  0  0  0  0  0
   -6.3323    0.8642    1.6240 C   0  0  0  0  0  0  0  0  0  0  0  0
   -4.8481    0.4701    1.6666 C   0  0  0  0  0  0  0  0  0  0  0  0
   -7.6123   -2.4468    0.0772 C   0  0  0  0  0  0  0  0  0  0  0  0
   -3.9413    0.9142   -1.2334 C   0  0  1  0  0  0  0  0  0  0  0  0
   -2.5054    0.4539   -1.2195 C   0  0  0  0  0  0  0  0  0  0  0  0
   -7.4819   -3.8750    0.5696 C   0  0  0  0  0  0  0  0  0  0  0  0
   -1.5195    1.1422   -0.5116 C   0  0  0  0  0  0  0  0  0  0  0  0
   -2.2005   -0.6857   -1.9398 C   0  0  0  0  0  0  0  0  0  0  0  0
   -0.2043    0.6340   -0.5572 C   0  0  0  0  0  0  0  0  0  0  0  0
   -1.8065    2.3027    0.2269 C   0  0  0  0  0  0  0  0  0  0  0  0
   -0.8860   -1.1064   -1.9251 C   0  0  0  0  0  0  0  0  0  0  0  0
    0.7855    1.3146    0.1464 C   0  0  0  0  0  0  0  0  0  0  0  0
   -0.7970    2.9635    0.9211 C   0  0  0  0  0  0  0  0  0  0  0  0
    0.5004    2.4685    0.8806 C   0  0  0  0  0  0  0  0  0  0  0  0
    3.2164    1.4037    0.7791 C   0  0  0  0  0  0  0  0  0  0  0  0
    4.5015    0.6925    0.5509 C   0  0  0  0  0  0  0  0  0  0  0  0
    5.3055    1.0542   -0.5105 C   0  0  0  0  0  0  0  0  0  0  0  0
    4.8479   -0.3196    1.4236 C   0  0  0  0  0  0  0  0  0  0  0  0
    6.5076    0.3751   -0.7085 C   0  0  0  0  0  0  0  0  0  0  0  0
    6.0500   -0.9987    1.2256 C   0  0  0  0  0  0  0  0  0  0  0  0
    6.8799   -0.6515    0.1597 C   0  0  0  0  0  0  0  0  0  0  0  0
   -8.1181    0.2653    0.5294 H   0  0  0  0  0  0  0  0  0  0  0  0
   -7.2469   -1.5922    2.0010 H   0  0  0  0  0  0  0  0  0  0  0  0
   -4.8126   -1.0359   -1.3538 H   0  0  0  0  0  0  0  0  0  0  0  0
   -6.4524    1.3569   -0.9964 H   0  0  0  0  0  0  0  0  0  0  0  0
   -6.8759   -0.2425   -1.5846 H   0  0  0  0  0  0  0  0  0  0  0  0
   -5.0590   -2.1560    2.0065 H   0  0  0  0  0  0  0  0  0  0  0  0
   -5.0615   -2.5865    0.3164 H   0  0  0  0  0  0  0  0  0  0  0  0
   -6.7879    0.7210    2.6110 H   0  0  0  0  0  0  0  0  0  0  0  0
   -6.4305    1.9272    1.3732 H   0  0  0  0  0  0  0  0  0  0  0  0
   -4.5909    0.1173    2.6739 H   0  0  0  0  0  0  0  0  0  0  0  0
   -4.2235    1.3541    1.5167 H   0  0  0  0  0  0  0  0  0  0  0  0
   -8.6739   -2.1732    0.0568 H   0  0  0  0  0  0  0  0  0  0  0  0
   -7.2491   -2.3974   -0.9551 H   0  0  0  0  0  0  0  0  0  0  0  0
   -4.1188    1.8303   -0.6758 H   0  0  0  0  0  0  0  0  0  0  0  0
   -8.1167   -4.5338   -0.0326 H   0  0  0  0  0  0  0  0  0  0  0  0
   -7.8057   -3.9653    1.6117 H   0  0  0  0  0  0  0  0  0  0  0  0
   -6.4599   -4.2556    0.4934 H   0  0  0  0  0  0  0  0  0  0  0  0
   -3.6241    1.8167   -2.9429 H   0  0  0  0  0  0  0  0  0  0  0  0
   -2.9342   -1.2358   -2.5169 H   0  0  0  0  0  0  0  0  0  0  0  0
   -2.7871    2.7556    0.2944 H   0  0  0  0  0  0  0  0  0  0  0  0
   -0.5788   -1.9908   -2.4735 H   0  0  0  0  0  0  0  0  0  0  0  0
   -1.0228    3.8619    1.4879 H   0  0  0  0  0  0  0  0  0  0  0  0
    1.2195    3.0418    1.4451 H   0  0  0  0  0  0  0  0  0  0  0  0
    2.2649    0.0094   -0.4177 H   0  0  0  0  0  0  0  0  0  0  0  0
    4.1888   -0.5769    2.2490 H   0  0  0  0  0  0  0  0  0  0  0  0
    7.1514    0.6508   -1.5406 H   0  0  0  0  0  0  0  0  0  0  0  0
    4.1013    2.4328   -1.1183 H   0  0  0  0  0  0  0  0  0  0  0  0
  1 35  1  0  0  0  0
  2 19  1  0  0  0  0
  2 54  1  0  0  0  0
  3 30  2  0  0  0  0
  4 32  1  0  0  0  0
  4 63  1  0  0  0  0
  5 13  1  0  0  0  0
  5 15  1  0  0  0  0
  5 17  1  0  0  0  0
  6 24  2  0  0  0  0
  6 26  1  0  0  0  0
  7 27  1  0  0  0  0
  7 30  1  0  0  0  0
  7 60  1  0  0  0  0
  8  9  2  0  0  0  0
  8 36  1  0  0  0  0
  9 10  2  0  0  0  0
 11 12  1  0  0  0  0
 11 14  1  0  0  0  0
 11 16  1  0  0  0  0
 11 37  1  0  0  0  0
 12 15  1  0  0  0  0
 12 18  1  0  0  0  0
 12 38  1  0  0  0  0
 13 14  1  0  0  0  0
 13 19  1  0  0  0  0
 13 39  1  0  0  0  0
 14 40  1  0  0  0  0
 14 41  1  0  0  0  0
 15 42  1  0  0  0  0
 15 43  1  0  0  0  0
 16 17  1  0  0  0  0
 16 44  1  0  0  0  0
 16 45  1  0  0  0  0
 17 46  1  0  0  0  0
 17 47  1  0  0  0  0
 18 21  1  0  0  0  0
 18 48  1  0  0  0  0
 18 49  1  0  0  0  0
 19 20  1  0  0  0  0
 19 50  1  0  0  0  0
 20 22  2  0  0  0  0
 20 23  1  0  0  0  0
 21 51  1  0  0  0  0
 21 52  1  0  0  0  0
 21 53  1  0  0  0  0
 22 24  1  0  0  0  0
 22 25  1  0  0  0  0
 23 26  2  0  0  0  0
 23 55  1  0  0  0  0
 24 27  1  0  0  0  0
 25 28  2  0  0  0  0
 25 56  1  0  0  0  0
 26 57  1  0  0  0  0
 27 29  2  0  0  0  0
 28 29  1  0  0  0  0
 28 58  1  0  0  0  0
 29 59  1  0  0  0  0
 30 31  1  0  0  0  0
 31 32  1  0  0  0  0
 31 33  2  0  0  0  0
 32 34  2  0  0  0  0
 33 35  1  0  0  0  0
 33 61  1  0  0  0  0
 34 36  1  0  0  0  0
 34 62  1  0  0  0  0
 35 36  2  0  0  0  0
M  CHG  2   9   1  10  -1
M  ISO  1   1 125
M  END
> <PUBCHEM_COMPOUND_CID>
656579

> <PUBCHEM_CONFORMER_RMSD>
1

> <PUBCHEM_CONFORMER_DIVERSEORDER>
4
27
47
57
21
31
55
54
29
38
35
50
36
24
59
2
28
40
48
45
12
53
22
58
41
33
52
23
49
25
43
3
44
46
26
51
42
37
18
7
56
10
19
20
6
34
1
9
16
39
30
32
11
14
5
13
8
15
17

> <PUBCHEM_MMFF94_PARTIAL_CHARGES>
39
1 -0.08
10 -0.37
13 0.27
15 0.27
17 0.27
19 0.42
2 -0.68
20 -0.14
23 -0.15
24 0.31
25 -0.15
26 0.16
27 0.12
28 -0.15
29 -0.15
3 -0.57
30 0.54
31 0.09
32 0.08
33 -0.15
34 -0.15
35 0.08
36 0.18
4 -0.53
5 -0.81
54 0.4
55 0.15
56 0.15
57 0.15
58 0.15
59 0.15
6 -0.62
60 0.37
61 0.15
62 0.15
63 0.45
7 -0.55
8 -0.5
9 0.69

> <PUBCHEM_EFFECTIVE_ROTOR_COUNT>
8.2

> <PUBCHEM_PHARMACOPHORE_FEATURES>
13
1 1 hydrophobe
1 2 acceptor
1 2 donor
1 21 hydrophobe
1 3 acceptor
1 4 donor
1 5 cation
1 6 acceptor
1 7 donor
6 22 24 25 27 28 29 rings
6 31 32 33 34 35 36 rings
6 6 20 22 23 24 26 rings
8 5 11 12 13 14 15 16 17 rings

> <PUBCHEM_HEAVY_ATOM_COUNT>
36

> <PUBCHEM_ATOM_DEF_STEREO_COUNT>
3

> <PUBCHEM_ATOM_UDEF_STEREO_COUNT>
1

> <PUBCHEM_BOND_DEF_STEREO_COUNT>
0

> <PUBCHEM_BOND_UDEF_STEREO_COUNT>
0

> <PUBCHEM_ISOTOPIC_ATOM_COUNT>
1

> <PUBCHEM_COMPONENT_COUNT>
1

> <PUBCHEM_CACTVS_TAUTO_COUNT>
7

> <PUBCHEM_CONFORMER_ID>
000A04C300000004

> <PUBCHEM_MMFF94_ENERGY>
125.8473

> <PUBCHEM_FEATURE_SELFOVERLAP>
65.997

> <PUBCHEM_SHAPE_FINGERPRINT>
10280341 67 7348623855187219979
11387372 6 18340769226695744423
11456790 92 16805322219474185362
11621639 179 11094513745117464359
117089 54 18048598411566392554
12166972 35 17917990568807031140
12422481 6 17458059365517924749
12655364 131 17385999624466055399
12895837 130 8935008075432646011
13782708 43 18131079195044959757
14347424 109 17168151118186020104
14415361 349 16917069898141469763
14767858 380 12607407697548972297
14856354 85 17917990573380916829
14955137 171 18335701577444945673
15082195 135 12679173938902716960
15183329 4 17240201015035872260
15198563 99 16558763316876916261
15352257 5 18131634477986295283
15684393 108 18341323471277387038
16992727 255 10735883859203085067
16993089 31 18413107268616957847
16994733 274 7853584500012024151
17134984 74 18060421344462006234
20105231 36 18334010606292766054
20511986 3 9079106749116765500
21781051 124 18336537249278935374
21792965 106 8862674503106662550
21987483 16 17393610182630610243
22122407 14 5977815528411559170
22223350 30 17170696388049920467
23522609 53 18126536038632831909
23569917 315 17603875455707427615
23569943 247 17749397017433092998
23576562 1 10015280422269291931
25269216 80 16056876949306803353
2838139 119 5833718963392572027
3383291 50 18334863835510306682
3504750 166 16588321466096429781
397638 26 16805321089691973435
4107672 100 17417822785419264413
4149490 64 18272660009520568480
444769 64 17676490570379650005
474113 269 18263092033513415511
4760202 70 17843396285352638839
504579 68 14045742629611971474
5104073 3 17387428843125299736
5265222 85 17561080272192854145
54039377 194 18335416894643876302
6058803 2 17027145198000071061
636775 8 18411976979986365046
6691757 9 15502378898797524981
9831232 110 17845664762788396410
9896288 288 17533205595324794417
9962374 69 18041576754169328228
999808 66 18409165536837342776

> <PUBCHEM_SHAPE_MULTIPOLES>
705.3
26.29
3.29
2.01
14.08
1.92
0.17
23.63
-2.32
0.11
-0.82
0.78
0.41
0.29

> <PUBCHEM_SHAPE_SELFOVERLAP>
1527.176

> <PUBCHEM_SHAPE_VOLUME>
395

> <PUBCHEM_COORDINATE_TYPE>
2
5
10

$$$$

