25
  -OEChem-07051212502D

 35 36  0     1  0  0  0  0  0999 V2000
    5.1350    2.0000    0.0000 O   0  0  0  0  0  0  0  0  0  0  0  0
    5.1350   -1.0000    0.0000 O   0  0  0  0  0  0  0  0  0  0  0  0
    4.2690   -0.5000    0.0000 O   0  0  0  0  0  0  0  0  0  0  0  0
    6.8671   -2.0000    0.0000 O   0  0  0  0  0  0  0  0  0  0  0  0
    2.5369    0.5000    0.0000 O   0  0  0  0  0  0  0  0  0  0  0  0
    8.6155    2.0346    0.0000 O   0  0  0  0  0  0  0  0  0  0  0  0
    6.8671    1.0000    0.0000 N   0  0  0  0  0  0  0  0  0  0  0  0
    6.8671   -1.0000    0.0000 N   0  0  3  0  0  0  0  0  0  0  0  0
    8.6270   -1.0347    0.0000 N   0  0  0  0  0  0  0  0  0  0  0  0
    9.5331    0.5208    0.0000 N   0  0  0  0  0  0  0  0  0  0  0  0
   10.3972   -1.0241    0.0000 N   0  0  0  0  0  0  0  0  0  0  0  0
    6.0010    0.5000    0.0000 C   0  0  3  0  0  0  0  0  0  0  0  0
    5.1350    1.0000    0.0000 C   0  0  3  0  0  0  0  0  0  0  0  0
    6.0010   -0.5000    0.0000 C   0  0  3  0  0  0  0  0  0  0  0  0
    4.2690    0.5000    0.0000 C   0  0  3  0  0  0  0  0  0  0  0  0
    7.7331    0.5000    0.0000 C   0  0  0  0  0  0  0  0  0  0  0  0
    7.7331   -0.5000    0.0000 C   0  0  0  0  0  0  0  0  0  0  0  0
    3.4030    1.0000    0.0000 C   0  0  0  0  0  0  0  0  0  0  0  0
    8.6270    1.0347    0.0000 C   0  0  0  0  0  0  0  0  0  0  0  0
    9.5331   -0.5208    0.0000 C   0  0  0  0  0  0  0  0  0  0  0  0
    6.0010    1.1200    0.0000 H   0  0  0  0  0  0  0  0  0  0  0  0
    5.6720    1.3100    0.0000 H   0  0  0  0  0  0  0  0  0  0  0  0
    5.4641   -0.1900    0.0000 H   0  0  0  0  0  0  0  0  0  0  0  0
    6.8671    1.6200    0.0000 H   0  0  0  0  0  0  0  0  0  0  0  0
    4.8059    0.1900    0.0000 H   0  0  0  0  0  0  0  0  0  0  0  0
    3.8015    1.4750    0.0000 H   0  0  0  0  0  0  0  0  0  0  0  0
    3.0044    1.4750    0.0000 H   0  0  0  0  0  0  0  0  0  0  0  0
    4.5981    2.3100    0.0000 H   0  0  0  0  0  0  0  0  0  0  0  0
    5.1350   -1.6200    0.0000 H   0  0  0  0  0  0  0  0  0  0  0  0
    8.6199   -1.6546    0.0000 H   0  0  0  0  0  0  0  0  0  0  0  0
    3.7320   -0.8100    0.0000 H   0  0  0  0  0  0  0  0  0  0  0  0
    6.3301   -2.3100    0.0000 H   0  0  0  0  0  0  0  0  0  0  0  0
    2.0000    0.8100    0.0000 H   0  0  0  0  0  0  0  0  0  0  0  0
   10.9353   -0.7162    0.0000 H   0  0  0  0  0  0  0  0  0  0  0  0
   10.3948   -1.6442    0.0000 H   0  0  0  0  0  0  0  0  0  0  0  0
  1 13  1  0  0  0  0
  1 28  1  0  0  0  0
  2 14  1  0  0  0  0
  2 29  1  0  0  0  0
  3 15  1  0  0  0  0
  3 31  1  0  0  0  0
  4  8  1  0  0  0  0
  4 32  1  0  0  0  0
  5 18  1  0  0  0  0
  5 33  1  0  0  0  0
  6 19  2  0  0  0  0
  7 12  1  0  0  0  0
  7 16  1  0  0  0  0
  7 24  1  0  0  0  0
  8 14  1  0  0  0  0
  8 17  1  0  0  0  0
  9 17  1  0  0  0  0
  9 20  1  0  0  0  0
  9 30  1  0  0  0  0
 10 19  1  0  0  0  0
 10 20  2  0  0  0  0
 11 20  1  0  0  0  0
 11 34  1  0  0  0  0
 11 35  1  0  0  0  0
 12 13  1  0  0  0  0
 12 14  1  0  0  0  0
 12 21  1  0  0  0  0
 13 15  1  0  0  0  0
 13 22  1  0  0  0  0
 14 23  1  0  0  0  0
 15 18  1  0  0  0  0
 15 25  1  0  0  0  0
 16 17  2  0  0  0  0
 16 19  1  0  0  0  0
 18 26  1  0  0  0  0
 18 27  1  0  0  0  0
M  END
> <PUBCHEM_COMPOUND_CID>
25

> <PUBCHEM_COMPOUND_CANONICALIZED>
1

> <PUBCHEM_CACTVS_COMPLEXITY>
479

> <PUBCHEM_CACTVS_HBOND_ACCEPTOR>
8

> <PUBCHEM_CACTVS_HBOND_DONOR>
8

> <PUBCHEM_CACTVS_ROTATABLE_BOND>
3

> <PUBCHEM_CACTVS_SUBSKEYS>
AAADccBzuAAAAAAAAAAAAAAAAAAAAAAAAAAgQAAAAAAAAACAAAAAHgAUCAAACDzhgAYBAALQAgCoAAVQdACAAAEAAAAhAICIAECDUAIAgCAUQAAPEAKRAEDwMAIAAAAAAAAAAAAAAAAAAAAAAAAAAAAAAA==

> <PUBCHEM_IUPAC_OPENEYE_NAME>
2-amino-7,8-dihydroxy-6-(1,2,3-trihydroxypropyl)-1,5,6,7-tetrahydropteridin-4-one

> <PUBCHEM_IUPAC_CAS_NAME>
2-amino-7,8-dihydroxy-6-(1,2,3-trihydroxypropyl)-1,5,6,7-tetrahydropteridin-4-one

> <PUBCHEM_IUPAC_NAME>
2-amino-7,8-dihydroxy-6-(1,2,3-trihydroxypropyl)-1,5,6,7-tetrahydropteridin-4-one

> <PUBCHEM_IUPAC_SYSTEMATIC_NAME>
2-azanyl-7,8-bis(oxidanyl)-6-[1,2,3-tris(oxidanyl)propyl]-1,5,6,7-tetrahydropteridin-4-one

> <PUBCHEM_IUPAC_TRADITIONAL_NAME>
2-amino-7,8-dihydroxy-6-(1,2,3-trihydroxypropyl)-1,5,6,7-tetrahydropteridin-4-one

> <PUBCHEM_IUPAC_INCHI>
InChI=1S/C9H15N5O6/c10-9-12-6-4(7(18)13-9)11-3(8(19)14(6)20)5(17)2(16)1-15/h2-3,5,8,11,15-17,19-20H,1H2,(H3,10,12,13,18)

> <PUBCHEM_IUPAC_INCHIKEY>
KQZRTOGFDRQBSR-UHFFFAOYSA-N

> <PUBCHEM_XLOGP3_AA>
-3.3

> <PUBCHEM_EXACT_MASS>
289.102233

> <PUBCHEM_MOLECULAR_FORMULA>
C9H15N5O6

> <PUBCHEM_MOLECULAR_WEIGHT>
289.2453

> <PUBCHEM_OPENEYE_CAN_SMILES>
C(C(C(C1C(N(C2=C(N1)C(=O)N=C(N2)N)O)O)O)O)O

> <PUBCHEM_OPENEYE_ISO_SMILES>
C(C(C(C1C(N(C2=C(N1)C(=O)N=C(N2)N)O)O)O)O)O

> <PUBCHEM_CACTVS_TPSA>
184

> <PUBCHEM_MONOISOTOPIC_WEIGHT>
289.102233

> <PUBCHEM_TOTAL_CHARGE>
0

> <PUBCHEM_HEAVY_ATOM_COUNT>
20

> <PUBCHEM_ATOM_DEF_STEREO_COUNT>
0

> <PUBCHEM_ATOM_UDEF_STEREO_COUNT>
4

> <PUBCHEM_BOND_DEF_STEREO_COUNT>
0

> <PUBCHEM_BOND_UDEF_STEREO_COUNT>
0

> <PUBCHEM_ISOTOPIC_ATOM_COUNT>
0

> <PUBCHEM_COMPONENT_COUNT>
1

> <PUBCHEM_CACTVS_TAUTO_COUNT>
9

> <PUBCHEM_COORDINATE_TYPE>
1
5
255

> <PUBCHEM_BONDANNOTATIONS>
13  1  3
10  19  8
10  20  8
16  17  8
16  19  8
14  2  3
15  3  3
12  7  3
9  17  8
9  20  8

$$$$

