13562
  -OEChem-06241222393D

 16 15  0     0  0  0  0  0  0999 V2000
    3.2961    0.3558   -0.0151 O   0  0  0  0  0  0  0  0  0  0  0  0
   -1.7175    1.3140   -0.0129 O   0  0  0  0  0  0  0  0  0  0  0  0
   -2.7310   -0.7489   -0.0179 N   0  0  0  0  0  0  0  0  0  0  0  0
    0.9054    0.2252    0.0442 C   0  0  0  0  0  0  0  0  0  0  0  0
   -0.3259   -0.6745    0.0204 C   0  0  0  0  0  0  0  0  0  0  0  0
    2.2096   -0.5607   -0.0222 C   0  0  0  0  0  0  0  0  0  0  0  0
   -1.6368    0.0893    0.0034 C   0  0  0  0  0  0  0  0  0  0  0  0
    0.8958    0.8473    0.9485 H   0  0  0  0  0  0  0  0  0  0  0  0
    0.8704    0.9342   -0.7931 H   0  0  0  0  0  0  0  0  0  0  0  0
   -0.2990   -1.3140   -0.8704 H   0  0  0  0  0  0  0  0  0  0  0  0
   -0.3226   -1.3293    0.9002 H   0  0  0  0  0  0  0  0  0  0  0  0
    2.2665   -1.1495   -0.9427 H   0  0  0  0  0  0  0  0  0  0  0  0
    2.3146   -1.2376    0.8314 H   0  0  0  0  0  0  0  0  0  0  0  0
    3.2550    0.8534    0.8193 H   0  0  0  0  0  0  0  0  0  0  0  0
   -3.6741   -0.3753   -0.0381 H   0  0  0  0  0  0  0  0  0  0  0  0
   -2.6405   -1.7599   -0.0112 H   0  0  0  0  0  0  0  0  0  0  0  0
  1  6  1  0  0  0  0
  1 14  1  0  0  0  0
  2  7  2  0  0  0  0
  3  7  1  0  0  0  0
  3 15  1  0  0  0  0
  3 16  1  0  0  0  0
  4  5  1  0  0  0  0
  4  6  1  0  0  0  0
  4  8  1  0  0  0  0
  4  9  1  0  0  0  0
  5  7  1  0  0  0  0
  5 10  1  0  0  0  0
  5 11  1  0  0  0  0
  6 12  1  0  0  0  0
  6 13  1  0  0  0  0
M  END
> <PUBCHEM_COMPOUND_CID>
13562

> <PUBCHEM_CONFORMER_RMSD>
0.4

> <PUBCHEM_CONFORMER_DIVERSEORDER>
1
25
11
26
30
18
10
31
6
20
9
15
29
17
4
19
14
24
21
28
16
23
12
3
27
13
22
7
2
8
5

> <PUBCHEM_MMFF94_PARTIAL_CHARGES>
9
1 -0.68
14 0.4
15 0.37
16 0.37
2 -0.57
3 -0.8
5 0.06
6 0.28
7 0.57

> <PUBCHEM_EFFECTIVE_ROTOR_COUNT>
3

> <PUBCHEM_PHARMACOPHORE_FEATURES>
4
1 1 acceptor
1 1 donor
1 2 acceptor
1 3 donor

> <PUBCHEM_HEAVY_ATOM_COUNT>
7

> <PUBCHEM_ATOM_DEF_STEREO_COUNT>
0

> <PUBCHEM_ATOM_UDEF_STEREO_COUNT>
0

> <PUBCHEM_BOND_DEF_STEREO_COUNT>
0

> <PUBCHEM_BOND_UDEF_STEREO_COUNT>
0

> <PUBCHEM_ISOTOPIC_ATOM_COUNT>
0

> <PUBCHEM_COMPONENT_COUNT>
1

> <PUBCHEM_CACTVS_TAUTO_COUNT>
2

> <PUBCHEM_CONFORMER_ID>
000034FA00000001

> <PUBCHEM_MMFF94_ENERGY>
6.1444

> <PUBCHEM_FEATURE_SELFOVERLAP>
20.297

> <PUBCHEM_SHAPE_FINGERPRINT>
12932764 1 17240493510977545054
14325111 11 18410855490477892906
14390081 3 18408888442748502984
16714656 1 18335421248907342383
23552423 10 18198901594504264026
29004967 10 16298383569571207250
5460574 1 9295290538577373802

> <PUBCHEM_SHAPE_MULTIPOLES>
127.34
4.46
0.99
0.58
1.85
0.14
0
0.02
-0.06
-0.39
0
0.01
-0.02
0

> <PUBCHEM_SHAPE_SELFOVERLAP>
228.434

> <PUBCHEM_SHAPE_VOLUME>
82.2

> <PUBCHEM_COORDINATE_TYPE>
2
5
10

$$$$

