17396502
  -OEChem-06241222572D

 61 64  0     0  0  0  0  0  0999 V2000
    4.5981    1.9241    0.0000 S   0  0  0  0  0  0  0  0  0  0  0  0
    3.5981    1.9241    0.0000 O   0  0  0  0  0  0  0  0  0  0  0  0
    5.5981    1.9241    0.0000 O   0  0  0  0  0  0  0  0  0  0  0  0
    2.8660    0.9241    0.0000 O   0  0  0  0  0  0  0  0  0  0  0  0
    7.1962   -0.5759    0.0000 O   0  0  0  0  0  0  0  0  0  0  0  0
    4.6551   -4.1637    0.0000 O   0  0  0  0  0  0  0  0  0  0  0  0
    4.5981    2.9241    0.0000 N   0  0  0  0  0  0  0  0  0  0  0  0
    6.3301   -2.0759    0.0000 N   0  0  0  0  0  0  0  0  0  0  0  0
    3.6971    3.3580    0.0000 C   0  0  0  0  0  0  0  0  0  0  0  0
    5.4990    3.3580    0.0000 C   0  0  0  0  0  0  0  0  0  0  0  0
    3.4746    4.3329    0.0000 C   0  0  0  0  0  0  0  0  0  0  0  0
    5.7216    4.3329    0.0000 C   0  0  0  0  0  0  0  0  0  0  0  0
    4.0981    5.1147    0.0000 C   0  0  0  0  0  0  0  0  0  0  0  0
    5.0981    5.1147    0.0000 C   0  0  0  0  0  0  0  0  0  0  0  0
    4.5981    0.9241    0.0000 C   0  0  0  0  0  0  0  0  0  0  0  0
    5.4641    0.4241    0.0000 C   0  0  0  0  0  0  0  0  0  0  0  0
    3.7320    0.4241    0.0000 C   0  0  0  0  0  0  0  0  0  0  0  0
    5.4641   -0.5759    0.0000 C   0  0  0  0  0  0  0  0  0  0  0  0
    3.7320   -0.5759    0.0000 C   0  0  0  0  0  0  0  0  0  0  0  0
    4.5981   -1.0759    0.0000 C   0  0  0  0  0  0  0  0  0  0  0  0
    6.3301   -1.0759    0.0000 C   0  0  0  0  0  0  0  0  0  0  0  0
    5.4641   -2.5759    0.0000 C   0  0  0  0  0  0  0  0  0  0  0  0
    7.1962   -2.5759    0.0000 C   0  0  0  0  0  0  0  0  0  0  0  0
    2.0000    0.4241    0.0000 C   0  0  0  0  0  0  0  0  0  0  0  0
    5.4641   -3.5759    0.0000 C   0  0  0  0  0  0  0  0  0  0  0  0
    7.1962   -3.5759    0.0000 C   0  0  0  0  0  0  0  0  0  0  0  0
    8.0622   -2.0759    0.0000 C   0  0  0  0  0  0  0  0  0  0  0  0
    6.2731   -4.1637    0.0000 C   0  0  0  0  0  0  0  0  0  0  0  0
    8.0622   -4.0759    0.0000 C   0  0  0  0  0  0  0  0  0  0  0  0
    8.9282   -2.5759    0.0000 C   0  0  0  0  0  0  0  0  0  0  0  0
    8.9282   -3.5759    0.0000 C   0  0  0  0  0  0  0  0  0  0  0  0
    5.9641   -5.1147    0.0000 C   0  0  0  0  0  0  0  0  0  0  0  0
    4.9641   -5.1147    0.0000 C   0  0  0  0  0  0  0  0  0  0  0  0
    5.6370    2.7535    0.0000 H   0  0  0  0  0  0  0  0  0  0  0  0
    6.1190    3.3580    0.0000 H   0  0  0  0  0  0  0  0  0  0  0  0
    3.0771    3.3580    0.0000 H   0  0  0  0  0  0  0  0  0  0  0  0
    3.5591    2.7535    0.0000 H   0  0  0  0  0  0  0  0  0  0  0  0
    6.2802    4.0639    0.0000 H   0  0  0  0  0  0  0  0  0  0  0  0
    6.1081    4.8177    0.0000 H   0  0  0  0  0  0  0  0  0  0  0  0
    3.0880    4.8177    0.0000 H   0  0  0  0  0  0  0  0  0  0  0  0
    2.9160    4.0639    0.0000 H   0  0  0  0  0  0  0  0  0  0  0  0
    5.6567    5.3838    0.0000 H   0  0  0  0  0  0  0  0  0  0  0  0
    4.9601    5.7192    0.0000 H   0  0  0  0  0  0  0  0  0  0  0  0
    4.2360    5.7192    0.0000 H   0  0  0  0  0  0  0  0  0  0  0  0
    3.5395    5.3838    0.0000 H   0  0  0  0  0  0  0  0  0  0  0  0
    6.0010    0.7341    0.0000 H   0  0  0  0  0  0  0  0  0  0  0  0
    3.1951   -0.8859    0.0000 H   0  0  0  0  0  0  0  0  0  0  0  0
    4.5981   -1.6959    0.0000 H   0  0  0  0  0  0  0  0  0  0  0  0
    5.2520   -1.9933    0.0000 H   0  0  0  0  0  0  0  0  0  0  0  0
    4.8535   -2.6836    0.0000 H   0  0  0  0  0  0  0  0  0  0  0  0
    1.6900    0.9610    0.0000 H   0  0  0  0  0  0  0  0  0  0  0  0
    1.4631    0.1141    0.0000 H   0  0  0  0  0  0  0  0  0  0  0  0
    2.3100   -0.1128    0.0000 H   0  0  0  0  0  0  0  0  0  0  0  0
    6.6592   -3.8859    0.0000 H   0  0  0  0  0  0  0  0  0  0  0  0
    8.0622   -1.4559    0.0000 H   0  0  0  0  0  0  0  0  0  0  0  0
    6.8628   -3.9721    0.0000 H   0  0  0  0  0  0  0  0  0  0  0  0
    8.0622   -4.6959    0.0000 H   0  0  0  0  0  0  0  0  0  0  0  0
    9.4651   -2.2659    0.0000 H   0  0  0  0  0  0  0  0  0  0  0  0
    9.4651   -3.8859    0.0000 H   0  0  0  0  0  0  0  0  0  0  0  0
    6.3285   -5.6163    0.0000 H   0  0  0  0  0  0  0  0  0  0  0  0
    4.5997   -5.6163    0.0000 H   0  0  0  0  0  0  0  0  0  0  0  0
  1  2  2  0  0  0  0
  1  3  2  0  0  0  0
  1  7  1  0  0  0  0
  1 15  1  0  0  0  0
  4 17  1  0  0  0  0
  4 24  1  0  0  0  0
  5 21  2  0  0  0  0
  6 25  1  0  0  0  0
  6 33  1  0  0  0  0
  7  9  1  0  0  0  0
  7 10  1  0  0  0  0
  8 21  1  0  0  0  0
  8 22  1  0  0  0  0
  8 23  1  0  0  0  0
  9 11  1  0  0  0  0
  9 36  1  0  0  0  0
  9 37  1  0  0  0  0
 10 12  1  0  0  0  0
 10 34  1  0  0  0  0
 10 35  1  0  0  0  0
 11 13  1  0  0  0  0
 11 40  1  0  0  0  0
 11 41  1  0  0  0  0
 12 14  1  0  0  0  0
 12 38  1  0  0  0  0
 12 39  1  0  0  0  0
 13 14  1  0  0  0  0
 13 44  1  0  0  0  0
 13 45  1  0  0  0  0
 14 42  1  0  0  0  0
 14 43  1  0  0  0  0
 15 16  1  0  0  0  0
 15 17  2  0  0  0  0
 16 18  2  0  0  0  0
 16 46  1  0  0  0  0
 17 19  1  0  0  0  0
 18 20  1  0  0  0  0
 18 21  1  0  0  0  0
 19 20  2  0  0  0  0
 19 47  1  0  0  0  0
 20 48  1  0  0  0  0
 22 25  1  0  0  0  0
 22 49  1  0  0  0  0
 22 50  1  0  0  0  0
 23 26  2  0  0  0  0
 23 27  1  0  0  0  0
 24 51  1  0  0  0  0
 24 52  1  0  0  0  0
 24 53  1  0  0  0  0
 25 28  2  0  0  0  0
 26 29  1  0  0  0  0
 26 54  1  0  0  0  0
 27 30  2  0  0  0  0
 27 55  1  0  0  0  0
 28 32  1  0  0  0  0
 28 56  1  0  0  0  0
 29 31  2  0  0  0  0
 29 57  1  0  0  0  0
 30 31  1  0  0  0  0
 30 58  1  0  0  0  0
 31 59  1  0  0  0  0
 32 33  2  0  0  0  0
 32 60  1  0  0  0  0
 33 61  1  0  0  0  0
M  END
> <PUBCHEM_COMPOUND_CID>
17396502

> <PUBCHEM_COMPOUND_CANONICALIZED>
1

> <PUBCHEM_CACTVS_COMPLEXITY>
726

> <PUBCHEM_CACTVS_HBOND_ACCEPTOR>
6

> <PUBCHEM_CACTVS_HBOND_DONOR>
0

> <PUBCHEM_CACTVS_ROTATABLE_BOND>
7

> <PUBCHEM_CACTVS_SUBSKEYS>
AAADceB7OABAAAAAAAAAAAAAAAAAASAAAAAwYAAABYAAAAAB0AAAHgQAQAAADAzh2AYyx4MABEKIAq1S0HDCCBAlIgAIiBuObMgOJjLEtbuHOSjkxhHY6YeY3QLOIAAAgAAAIABAAAEAAABAAAAAAAAAAA==

> <PUBCHEM_IUPAC_OPENEYE_NAME>
3-(azepan-1-ylsulfonyl)-N-(2-furylmethyl)-4-methoxy-N-phenyl-benzamide

> <PUBCHEM_IUPAC_CAS_NAME>
3-(1-azepanylsulfonyl)-N-(2-furanylmethyl)-4-methoxy-N-phenylbenzamide

> <PUBCHEM_IUPAC_NAME>
3-(azepan-1-ylsulfonyl)-N-(furan-2-ylmethyl)-4-methoxy-N-phenylbenzamide

> <PUBCHEM_IUPAC_SYSTEMATIC_NAME>
3-(azepan-1-ylsulfonyl)-N-(furan-2-ylmethyl)-4-methoxy-N-phenyl-benzamide

> <PUBCHEM_IUPAC_TRADITIONAL_NAME>
3-(azepan-1-ylsulfonyl)-N-(2-furfuryl)-4-methoxy-N-phenyl-benzamide

> <PUBCHEM_IUPAC_INCHI>
InChI=1S/C25H28N2O5S/c1-31-23-14-13-20(18-24(23)33(29,30)26-15-7-2-3-8-16-26)25(28)27(19-22-12-9-17-32-22)21-10-5-4-6-11-21/h4-6,9-14,17-18H,2-3,7-8,15-16,19H2,1H3

> <PUBCHEM_IUPAC_INCHIKEY>
CLTWXTHLWDQARY-UHFFFAOYSA-N

> <PUBCHEM_XLOGP3_AA>
3.9

> <PUBCHEM_EXACT_MASS>
468.171893

> <PUBCHEM_MOLECULAR_FORMULA>
C25H28N2O5S

> <PUBCHEM_MOLECULAR_WEIGHT>
468.56522

> <PUBCHEM_OPENEYE_CAN_SMILES>
COC1=C(C=C(C=C1)C(=O)N(CC2=CC=CO2)C3=CC=CC=C3)S(=O)(=O)N4CCCCCC4

> <PUBCHEM_OPENEYE_ISO_SMILES>
COC1=C(C=C(C=C1)C(=O)N(CC2=CC=CO2)C3=CC=CC=C3)S(=O)(=O)N4CCCCCC4

> <PUBCHEM_CACTVS_TPSA>
88.4

> <PUBCHEM_MONOISOTOPIC_WEIGHT>
468.171893

> <PUBCHEM_TOTAL_CHARGE>
0

> <PUBCHEM_HEAVY_ATOM_COUNT>
33

> <PUBCHEM_ATOM_DEF_STEREO_COUNT>
0

> <PUBCHEM_ATOM_UDEF_STEREO_COUNT>
0

> <PUBCHEM_BOND_DEF_STEREO_COUNT>
0

> <PUBCHEM_BOND_UDEF_STEREO_COUNT>
0

> <PUBCHEM_ISOTOPIC_ATOM_COUNT>
0

> <PUBCHEM_COMPONENT_COUNT>
1

> <PUBCHEM_CACTVS_TAUTO_COUNT>
1

> <PUBCHEM_COORDINATE_TYPE>
1
5
255

> <PUBCHEM_BONDANNOTATIONS>
15  16  8
15  17  8
16  18  8
17  19  8
18  20  8
19  20  8
23  26  8
23  27  8
25  28  8
26  29  8
27  30  8
28  32  8
29  31  8
30  31  8
32  33  8
6  25  8
6  33  8

$$$$

