46173879
  -OEChem-07051213102D

 47 47  0     1  0  0  0  0  0999 V2000
    6.0010   -0.4050    0.0000 S   0  0  0  0  0  0  0  0  0  0  0  0
    7.7331    2.5950    0.0000 S   0  0  0  0  0  0  0  0  0  0  0  0
    4.2690   -0.4050    0.0000 O   0  0  0  0  0  0  0  0  0  0  0  0
    4.2690   -3.4050    0.0000 O   0  0  0  0  0  0  0  0  0  0  0  0
    2.5369   -2.4050    0.0000 O   0  0  0  0  0  0  0  0  0  0  0  0
    6.0010   -2.4050    0.0000 O   0  0  0  0  0  0  0  0  0  0  0  0
    2.5369    0.5950    0.0000 O   0  0  0  0  0  0  0  0  0  0  0  0
    6.8671    2.0950    0.0000 O   0  0  0  0  0  0  0  0  0  0  0  0
    8.5991    3.0950    0.0000 O   0  0  0  0  0  0  0  0  0  0  0  0
    7.2331    3.4610    0.0000 O   0  0  0  0  0  0  0  0  0  0  0  0
    8.2331    1.7290    0.0000 O   0  0  0  0  0  0  0  0  0  0  0  0
    6.8671    1.0950    0.0000 N   0  0  0  0  0  0  0  0  0  0  0  0
    4.2690   -2.4050    0.0000 C   0  0  1  0  0  0  0  0  0  0  0  0
    3.4030   -1.9050    0.0000 C   0  0  1  0  0  0  0  0  0  0  0  0
    5.1350   -1.9050    0.0000 C   0  0  2  0  0  0  0  0  0  0  0  0
    3.4030   -0.9050    0.0000 C   0  0  1  0  0  0  0  0  0  0  0  0
    5.1350   -0.9050    0.0000 C   0  0  2  0  0  0  0  0  0  0  0  0
    2.5369   -0.4050    0.0000 C   0  0  0  0  0  0  0  0  0  0  0  0
    5.1350    2.0950    0.0000 C   0  0  3  0  0  0  0  0  0  0  0  0
    5.1350    1.0950    0.0000 C   0  0  0  0  0  0  0  0  0  0  0  0
    6.0010    0.5950    0.0000 C   0  0  0  0  0  0  0  0  0  0  0  0
    4.2690    2.5950    0.0000 C   0  0  0  0  0  0  0  0  0  0  0  0
    6.0010    2.5950    0.0000 C   0  0  0  0  0  0  0  0  0  0  0  0
    4.2690    3.5950    0.0000 C   0  0  0  0  0  0  0  0  0  0  0  0
    4.8059   -2.7150    0.0000 H   0  0  0  0  0  0  0  0  0  0  0  0
    3.4030   -2.5250    0.0000 H   0  0  0  0  0  0  0  0  0  0  0  0
    5.1350   -2.5250    0.0000 H   0  0  0  0  0  0  0  0  0  0  0  0
    3.4030   -0.2850    0.0000 H   0  0  0  0  0  0  0  0  0  0  0  0
    5.1350   -0.2850    0.0000 H   0  0  0  0  0  0  0  0  0  0  0  0
    1.9264   -0.2973    0.0000 H   0  0  0  0  0  0  0  0  0  0  0  0
    2.3249   -0.9876    0.0000 H   0  0  0  0  0  0  0  0  0  0  0  0
    5.1350    2.7150    0.0000 H   0  0  0  0  0  0  0  0  0  0  0  0
    3.7320   -3.7150    0.0000 H   0  0  0  0  0  0  0  0  0  0  0  0
    2.0000   -2.0950    0.0000 H   0  0  0  0  0  0  0  0  0  0  0  0
    4.5244    1.2027    0.0000 H   0  0  0  0  0  0  0  0  0  0  0  0
    4.9230    0.5124    0.0000 H   0  0  0  0  0  0  0  0  0  0  0  0
    6.5380   -2.0950    0.0000 H   0  0  0  0  0  0  0  0  0  0  0  0
    3.6584    2.7027    0.0000 H   0  0  0  0  0  0  0  0  0  0  0  0
    4.0569    2.0124    0.0000 H   0  0  0  0  0  0  0  0  0  0  0  0
    6.3110    2.0581    0.0000 H   0  0  0  0  0  0  0  0  0  0  0  0
    6.5380    2.9050    0.0000 H   0  0  0  0  0  0  0  0  0  0  0  0
    5.6910    3.1319    0.0000 H   0  0  0  0  0  0  0  0  0  0  0  0
    2.0000    0.9050    0.0000 H   0  0  0  0  0  0  0  0  0  0  0  0
    4.8890    3.5950    0.0000 H   0  0  0  0  0  0  0  0  0  0  0  0
    4.2690    4.2150    0.0000 H   0  0  0  0  0  0  0  0  0  0  0  0
    3.6490    3.5950    0.0000 H   0  0  0  0  0  0  0  0  0  0  0  0
    8.5991    3.7150    0.0000 H   0  0  0  0  0  0  0  0  0  0  0  0
 17  1  1  1  0  0  0
  1 21  1  0  0  0  0
  2  8  1  0  0  0  0
  2  9  1  0  0  0  0
  2 10  2  0  0  0  0
  2 11  2  0  0  0  0
  3 16  1  0  0  0  0
  3 17  1  0  0  0  0
 13  4  1  1  0  0  0
  4 33  1  0  0  0  0
 14  5  1  6  0  0  0
  5 34  1  0  0  0  0
 15  6  1  6  0  0  0
  6 37  1  0  0  0  0
  7 18  1  0  0  0  0
  7 43  1  0  0  0  0
  8 12  1  0  0  0  0
  9 47  1  0  0  0  0
 12 21  2  3  0  0  0
 13 14  1  0  0  0  0
 13 15  1  0  0  0  0
 13 25  1  0  0  0  0
 14 16  1  0  0  0  0
 14 26  1  0  0  0  0
 15 17  1  0  0  0  0
 15 27  1  0  0  0  0
 16 18  1  1  0  0  0
 16 28  1  0  0  0  0
 17 29  1  0  0  0  0
 18 30  1  0  0  0  0
 18 31  1  0  0  0  0
 19 20  1  0  0  0  0
 19 22  1  0  0  0  0
 19 23  1  0  0  0  0
 19 32  1  0  0  0  0
 20 21  1  0  0  0  0
 20 35  1  0  0  0  0
 20 36  1  0  0  0  0
 22 24  1  0  0  0  0
 22 38  1  0  0  0  0
 22 39  1  0  0  0  0
 23 40  1  0  0  0  0
 23 41  1  0  0  0  0
 23 42  1  0  0  0  0
 24 44  1  0  0  0  0
 24 45  1  0  0  0  0
 24 46  1  0  0  0  0
M  END
> <PUBCHEM_COMPOUND_CID>
46173879

> <PUBCHEM_COMPOUND_CANONICALIZED>
1

> <PUBCHEM_CACTVS_COMPLEXITY>
521

> <PUBCHEM_CACTVS_HBOND_ACCEPTOR>
11

> <PUBCHEM_CACTVS_HBOND_DONOR>
5

> <PUBCHEM_CACTVS_ROTATABLE_BOND>
8

> <PUBCHEM_CACTVS_SUBSKEYS>
AAADceByPABgAAAAAAAAAAAAAAAAAAAAAAAkAAAAAAAAAAAAAAAAHgQECAAADRSlwAKCAAAQBoggAAAgADAAAAAAABAAAAAwAAABEAIgAAACQAAFAAAjAAHAYAQKAAAAAAAAAAAAAAAAAAAAAAAAAAAAAA==

> <PUBCHEM_IUPAC_OPENEYE_NAME>
[(2S,3R,4S,5S,6R)-3,4,5-trihydroxy-6-(hydroxymethyl)tetrahydropyran-2-yl] 3-methyl-N-sulfooxy-pentanimidothioate

> <PUBCHEM_IUPAC_CAS_NAME>
3-methyl-N-sulfooxypentanimidothioic acid [(2S,3R,4S,5S,6R)-3,4,5-trihydroxy-6-(hydroxymethyl)-2-oxanyl] ester

> <PUBCHEM_IUPAC_NAME>
[(2S,3R,4S,5S,6R)-3,4,5-trihydroxy-6-(hydroxymethyl)oxan-2-yl] 3-methyl-N-sulfooxypentanimidothioate

> <PUBCHEM_IUPAC_SYSTEMATIC_NAME>
[(2S,3R,4S,5S,6R)-6-(hydroxymethyl)-3,4,5-tris(oxidanyl)oxan-2-yl] 3-methyl-N-sulfooxy-pentanimidothioate

> <PUBCHEM_IUPAC_TRADITIONAL_NAME>
3-methyl-N-sulfoxy-thiovalerimidic acid [(2S,3R,4S,5S,6R)-3,4,5-trihydroxy-6-methylol-tetrahydropyran-2-yl] ester

> <PUBCHEM_IUPAC_INCHI>
InChI=1S/C12H23NO9S2/c1-3-6(2)4-8(13-22-24(18,19)20)23-12-11(17)10(16)9(15)7(5-14)21-12/h6-7,9-12,14-17H,3-5H2,1-2H3,(H,18,19,20)/t6?,7-,9-,10+,11-,12+/m1/s1

> <PUBCHEM_IUPAC_INCHIKEY>
SPOQDEMWLUGCEW-IAYUFQOSSA-N

> <PUBCHEM_XLOGP3_AA>
0

> <PUBCHEM_EXACT_MASS>
389.081423

> <PUBCHEM_MOLECULAR_FORMULA>
C12H23NO9S2

> <PUBCHEM_MOLECULAR_WEIGHT>
389.44232

> <PUBCHEM_OPENEYE_CAN_SMILES>
CCC(C)CC(=NOS(=O)(=O)O)SC1C(C(C(C(O1)CO)O)O)O

> <PUBCHEM_OPENEYE_ISO_SMILES>
CCC(C)CC(=NOS(=O)(=O)O)S[C@H]1[C@@H]([C@H]([C@@H]([C@H](O1)CO)O)O)O

> <PUBCHEM_CACTVS_TPSA>
200

> <PUBCHEM_MONOISOTOPIC_WEIGHT>
389.081423

> <PUBCHEM_TOTAL_CHARGE>
0

> <PUBCHEM_HEAVY_ATOM_COUNT>
24

> <PUBCHEM_ATOM_DEF_STEREO_COUNT>
5

> <PUBCHEM_ATOM_UDEF_STEREO_COUNT>
1

> <PUBCHEM_BOND_DEF_STEREO_COUNT>
0

> <PUBCHEM_BOND_UDEF_STEREO_COUNT>
1

> <PUBCHEM_ISOTOPIC_ATOM_COUNT>
0

> <PUBCHEM_COMPONENT_COUNT>
1

> <PUBCHEM_CACTVS_TAUTO_COUNT>
2

> <PUBCHEM_COORDINATE_TYPE>
1
5
255

> <PUBCHEM_BONDANNOTATIONS>
17  1  5
12  21  1
16  18  5
19  23  3
13  4  5
14  5  6
15  6  6

$$$$

