441981
  -OEChem-07051212563D

 35 37  0     1  0  0  0  0  0999 V2000
   -1.8348    1.3939    0.1458 O   0  0  0  0  0  0  0  0  0  0  0  0
   -4.6620   -0.4341   -1.2853 O   0  0  0  0  0  0  0  0  0  0  0  0
    2.8471    1.6970   -0.0190 O   0  0  0  0  0  0  0  0  0  0  0  0
   -5.1326    1.6579    0.5462 O   0  0  0  0  0  0  0  0  0  0  0  0
    0.8139   -2.6681    0.1102 O   0  0  0  0  0  0  0  0  0  0  0  0
    3.3469   -2.3450   -0.0004 O   0  0  0  0  0  0  0  0  0  0  0  0
   -3.7239   -0.0982   -0.2563 C   0  0  2  0  0  0  0  0  0  0  0  0
   -2.7699    0.9479   -0.8332 C   0  0  0  0  0  0  0  0  0  0  0  0
   -0.5831   -0.7145    0.1350 C   0  0  0  0  0  0  0  0  0  0  0  0
   -3.0396   -1.3770    0.1415 C   0  0  0  0  0  0  0  0  0  0  0  0
   -0.6613    0.6876    0.1008 C   0  0  0  0  0  0  0  0  0  0  0  0
   -4.5078    0.4519    0.9401 C   0  0  0  0  0  0  0  0  0  0  0  0
   -1.7301   -1.6274    0.2875 C   0  0  0  0  0  0  0  0  0  0  0  0
    0.6958   -1.3038    0.0967 C   0  0  0  0  0  0  0  0  0  0  0  0
    1.8498   -0.5145    0.0361 C   0  0  0  0  0  0  0  0  0  0  0  0
    1.7529    0.8713    0.0273 C   0  0  0  0  0  0  0  0  0  0  0  0
    0.4990    1.4741    0.0679 C   0  0  0  0  0  0  0  0  0  0  0  0
    3.1849   -1.1327   -0.0064 C   0  0  0  0  0  0  0  0  0  0  0  0
    4.1057    1.1193   -0.0619 C   0  0  0  0  0  0  0  0  0  0  0  0
    4.3297   -0.2028   -0.0586 C   0  0  0  0  0  0  0  0  0  0  0  0
    5.2194    2.1173   -0.1139 C   0  0  0  0  0  0  0  0  0  0  0  0
   -2.2726    0.5834   -1.7455 H   0  0  0  0  0  0  0  0  0  0  0  0
   -3.3281    1.8291   -1.1734 H   0  0  0  0  0  0  0  0  0  0  0  0
   -3.7099   -2.2136    0.3440 H   0  0  0  0  0  0  0  0  0  0  0  0
   -3.8578    0.6653    1.7952 H   0  0  0  0  0  0  0  0  0  0  0  0
   -5.2923   -0.2389    1.2695 H   0  0  0  0  0  0  0  0  0  0  0  0
   -1.4919   -2.6452    0.5923 H   0  0  0  0  0  0  0  0  0  0  0  0
    0.4186    2.5589    0.0619 H   0  0  0  0  0  0  0  0  0  0  0  0
   -5.3287   -1.0355   -0.9112 H   0  0  0  0  0  0  0  0  0  0  0  0
    5.3272   -0.6249   -0.0928 H   0  0  0  0  0  0  0  0  0  0  0  0
   -5.7271    1.4530   -0.1956 H   0  0  0  0  0  0  0  0  0  0  0  0
    1.7255   -2.9395    0.2929 H   0  0  0  0  0  0  0  0  0  0  0  0
    5.1897    2.7626    0.7700 H   0  0  0  0  0  0  0  0  0  0  0  0
    5.1212    2.7465   -1.0044 H   0  0  0  0  0  0  0  0  0  0  0  0
    6.2033    1.6382   -0.1474 H   0  0  0  0  0  0  0  0  0  0  0  0
  1  8  1  0  0  0  0
  1 11  1  0  0  0  0
  2  7  1  0  0  0  0
  2 29  1  0  0  0  0
  3 16  1  0  0  0  0
  3 19  1  0  0  0  0
  4 12  1  0  0  0  0
  4 31  1  0  0  0  0
  5 14  1  0  0  0  0
  5 32  1  0  0  0  0
  6 18  2  0  0  0  0
  7  8  1  0  0  0  0
  7 10  1  0  0  0  0
  7 12  1  0  0  0  0
  8 22  1  0  0  0  0
  8 23  1  0  0  0  0
  9 11  2  0  0  0  0
  9 13  1  0  0  0  0
  9 14  1  0  0  0  0
 10 13  2  0  0  0  0
 10 24  1  0  0  0  0
 11 17  1  0  0  0  0
 12 25  1  0  0  0  0
 12 26  1  0  0  0  0
 13 27  1  0  0  0  0
 14 15  2  0  0  0  0
 15 16  1  0  0  0  0
 15 18  1  0  0  0  0
 16 17  2  0  0  0  0
 17 28  1  0  0  0  0
 18 20  1  0  0  0  0
 19 20  2  0  0  0  0
 19 21  1  0  0  0  0
 20 30  1  0  0  0  0
 21 33  1  0  0  0  0
 21 34  1  0  0  0  0
 21 35  1  0  0  0  0
M  END
> <PUBCHEM_COMPOUND_CID>
441981

> <PUBCHEM_CONFORMER_RMSD>
0.6

> <PUBCHEM_CONFORMER_DIVERSEORDER>
4
3
1
2

> <PUBCHEM_MMFF94_PARTIAL_CHARGES>
28
1 -0.36
10 -0.29
11 0.08
12 0.28
13 -0.18
14 0.08
15 0.09
16 0.08
17 -0.15
18 0.47
19 -0.06
2 -0.68
20 -0.14
21 0.14
24 0.15
27 0.15
28 0.15
29 0.4
3 -0.16
30 0.15
31 0.4
32 0.45
4 -0.68
5 -0.53
6 -0.57
7 0.42
8 0.28
9 0.03

> <PUBCHEM_EFFECTIVE_ROTOR_COUNT>
1.6

> <PUBCHEM_PHARMACOPHORE_FEATURES>
11
1 1 acceptor
1 2 acceptor
1 2 donor
1 3 acceptor
1 4 acceptor
1 4 donor
1 5 donor
1 6 acceptor
6 3 15 16 18 19 20 rings
6 9 11 14 15 16 17 rings
7 1 7 8 9 10 11 13 rings

> <PUBCHEM_HEAVY_ATOM_COUNT>
21

> <PUBCHEM_ATOM_DEF_STEREO_COUNT>
0

> <PUBCHEM_ATOM_UDEF_STEREO_COUNT>
1

> <PUBCHEM_BOND_DEF_STEREO_COUNT>
0

> <PUBCHEM_BOND_UDEF_STEREO_COUNT>
0

> <PUBCHEM_ISOTOPIC_ATOM_COUNT>
0

> <PUBCHEM_COMPONENT_COUNT>
1

> <PUBCHEM_CACTVS_TAUTO_COUNT>
14

> <PUBCHEM_CONFORMER_ID>
0006BE7D00000004

> <PUBCHEM_MMFF94_ENERGY>
73.0872

> <PUBCHEM_FEATURE_SELFOVERLAP>
55.861

> <PUBCHEM_SHAPE_FINGERPRINT>
10411042 1 17546444943431019435
10616163 171 18337669698488612575
10967382 1 18411419518578940290
11132069 177 18272093772714229321
11471102 20 18411141337588931662
11578080 2 13756346710910804436
12107183 9 17685767326082110809
12236239 1 18040434421712180193
12403259 415 18059575840250027044
12403814 3 17846502526144741269
12788726 201 17458895058943081385
13140716 1 18412825802366954850
13675066 3 17989480823196960267
13760787 5 18410296938581460911
14790565 3 18337381742622757505
15196674 1 18410855455965264723
15375358 24 18342458110561558778
15442244 35 18266177429884634250
15536298 74 18408040723678603750
15788980 27 16630532825303059496
1601671 61 18341612582020283316
16945 1 18195244657716777034
18186145 218 18272653467103714798
200 152 17967816024634734169
20645477 70 18334575763305210254
21033648 29 17275111664901190037
21267235 1 18338790208575417506
21304253 335 18341604919308049740
21421861 104 17988091101008886850
221490 88 18413100680416492242
23402539 116 18186805768134028061
23402655 69 18334295336289508908
23559900 14 18409167727772050994
2748010 2 18412257329333321958
296302 2 18260825994985838127
335352 9 18338515368990772710
34797466 226 15719678649626821057
34934 24 18410015399254217098
350125 39 18411980304296105816
3545911 37 18341610400044716300
4340502 62 16845576404843616128
474 4 17917146092357928900
5104073 3 18413387635512620811
543358 83 18408600392203099546
602551 16 15912749597345547641
633830 44 18334856147006618055
69090 78 18410015416070160951
7364860 26 18337109064039424398
7495541 125 13254788010616506645
8272917 22 18334851766366861694
9709674 26 18411133636718260406

> <PUBCHEM_SHAPE_MULTIPOLES>
396.95
10.24
2.3
0.76
1.13
0.64
-0.06
-3.99
-0.19
-1.36
0.1
0.66
-0.06
-0.24

> <PUBCHEM_SHAPE_SELFOVERLAP>
874.933

> <PUBCHEM_SHAPE_VOLUME>
210.7

> <PUBCHEM_COORDINATE_TYPE>
2
5
10

$$$$

