442632
  -OEChem-07051212583D

 24 24  0     0  0  0  0  0  0999 V2000
    0.4971   -1.1626   -0.3044 N   0  0  0  0  0  0  0  0  0  0  0  0
    2.1666    1.1670   -0.0533 C   0  0  0  0  0  0  0  0  0  0  0  0
    0.6607    1.3143   -0.1365 C   0  0  0  0  0  0  0  0  0  0  0  0
    2.5045   -0.0935    0.7185 C   0  0  0  0  0  0  0  0  0  0  0  0
   -0.0476    0.0008   -0.3877 C   0  0  0  0  0  0  0  0  0  0  0  0
    1.9226   -1.2938   -0.0088 C   0  0  0  0  0  0  0  0  0  0  0  0
   -1.5200    0.0746   -0.7051 C   0  0  0  0  0  0  0  0  0  0  0  0
   -2.3421   -0.0064    0.5696 C   0  0  0  0  0  0  0  0  0  0  0  0
   -3.8417   -0.0003    0.3077 C   0  0  0  0  0  0  0  0  0  0  0  0
    2.5917    1.1082   -1.0628 H   0  0  0  0  0  0  0  0  0  0  0  0
    2.6054    2.0459    0.4313 H   0  0  0  0  0  0  0  0  0  0  0  0
    0.3974    2.0264   -0.9256 H   0  0  0  0  0  0  0  0  0  0  0  0
    0.2750    1.7147    0.8087 H   0  0  0  0  0  0  0  0  0  0  0  0
    3.5905   -0.2033    0.8101 H   0  0  0  0  0  0  0  0  0  0  0  0
    2.0950   -0.0327    1.7343 H   0  0  0  0  0  0  0  0  0  0  0  0
   -1.7760   -0.7553   -1.3745 H   0  0  0  0  0  0  0  0  0  0  0  0
   -1.7300    1.0050   -1.2436 H   0  0  0  0  0  0  0  0  0  0  0  0
    2.4611   -1.4657   -0.9482 H   0  0  0  0  0  0  0  0  0  0  0  0
    2.0691   -2.1875    0.6076 H   0  0  0  0  0  0  0  0  0  0  0  0
   -2.0924    0.8351    1.2273 H   0  0  0  0  0  0  0  0  0  0  0  0
   -2.0832   -0.9170    1.1237 H   0  0  0  0  0  0  0  0  0  0  0  0
   -4.1337   -0.8557   -0.3099 H   0  0  0  0  0  0  0  0  0  0  0  0
   -4.1438    0.9163   -0.2087 H   0  0  0  0  0  0  0  0  0  0  0  0
   -4.3924   -0.0574    1.2517 H   0  0  0  0  0  0  0  0  0  0  0  0
  1  5  2  0  0  0  0
  1  6  1  0  0  0  0
  2  3  1  0  0  0  0
  2  4  1  0  0  0  0
  2 10  1  0  0  0  0
  2 11  1  0  0  0  0
  3  5  1  0  0  0  0
  3 12  1  0  0  0  0
  3 13  1  0  0  0  0
  4  6  1  0  0  0  0
  4 14  1  0  0  0  0
  4 15  1  0  0  0  0
  5  7  1  0  0  0  0
  6 18  1  0  0  0  0
  6 19  1  0  0  0  0
  7  8  1  0  0  0  0
  7 16  1  0  0  0  0
  7 17  1  0  0  0  0
  8  9  1  0  0  0  0
  8 20  1  0  0  0  0
  8 21  1  0  0  0  0
  9 22  1  0  0  0  0
  9 23  1  0  0  0  0
  9 24  1  0  0  0  0
M  END
> <PUBCHEM_COMPOUND_CID>
442632

> <PUBCHEM_CONFORMER_RMSD>
0.6

> <PUBCHEM_CONFORMER_DIVERSEORDER>
1
6
9
7
8
4
5
2
3

> <PUBCHEM_MMFF94_PARTIAL_CHARGES>
5
1 -0.7
3 0.06
5 0.33
6 0.25
7 0.06

> <PUBCHEM_EFFECTIVE_ROTOR_COUNT>
2.8

> <PUBCHEM_PHARMACOPHORE_FEATURES>
3
1 1 acceptor
1 9 hydrophobe
6 1 2 3 4 5 6 rings

> <PUBCHEM_HEAVY_ATOM_COUNT>
9

> <PUBCHEM_ATOM_DEF_STEREO_COUNT>
0

> <PUBCHEM_ATOM_UDEF_STEREO_COUNT>
0

> <PUBCHEM_BOND_DEF_STEREO_COUNT>
0

> <PUBCHEM_BOND_UDEF_STEREO_COUNT>
0

> <PUBCHEM_ISOTOPIC_ATOM_COUNT>
0

> <PUBCHEM_COMPONENT_COUNT>
1

> <PUBCHEM_CACTVS_TAUTO_COUNT>
1

> <PUBCHEM_CONFORMER_ID>
0006C10800000001

> <PUBCHEM_MMFF94_ENERGY>
8.1129

> <PUBCHEM_FEATURE_SELFOVERLAP>
15.223

> <PUBCHEM_SHAPE_FINGERPRINT>
10219947 1 18410856563961150121
10857977 72 17846782896955978477
12932764 1 17703795825122140695
14325111 11 18409729526262507429
14390081 3 5617537380716776827
15775835 57 17748828479726666793
20201158 50 18202563999085253883
20871998 22 18045779254661102134
21040471 1 18192437372666043532
23235685 24 18337113375885707872
23380061 451 17489595605317395914
2748010 2 18048896378815430412
29004967 10 18271811249929048272

> <PUBCHEM_SHAPE_MULTIPOLES>
180.23
4.93
1.27
0.8
4.36
0.02
-0.02
-0.06
-1.13
-0.9
0.07
0.07
-0.01
-0.01

> <PUBCHEM_SHAPE_SELFOVERLAP>
344.045

> <PUBCHEM_SHAPE_VOLUME>
108

> <PUBCHEM_COORDINATE_TYPE>
2
5
10

$$$$

