336327
  -OEChem-07051212593D

 34 37  0     1  0  0  0  0  0999 V2000
   -0.5101   -0.3812    1.7266 O   0  0  0  0  0  0  0  0  0  0  0  0
    1.4242    1.6711   -1.0412 O   0  0  0  0  0  0  0  0  0  0  0  0
   -4.4689   -1.2746   -0.8672 O   0  0  0  0  0  0  0  0  0  0  0  0
    4.8047   -1.6318   -1.3718 O   0  0  0  0  0  0  0  0  0  0  0  0
   -0.1518    1.8504    0.8429 C   0  0  2  0  0  0  0  0  0  0  0  0
    0.5016    0.6463    1.5450 C   0  0  2  0  0  0  0  0  0  0  0  0
   -1.3203    1.1697    0.2209 C   0  0  0  0  0  0  0  0  0  0  0  0
    0.8045    2.5569   -0.1044 C   0  0  0  0  0  0  0  0  0  0  0  0
    1.6694    0.0719    0.7784 C   0  0  0  0  0  0  0  0  0  0  0  0
   -1.4779   -0.0803    0.8015 C   0  0  0  0  0  0  0  0  0  0  0  0
    2.0543    0.6035   -0.4580 C   0  0  0  0  0  0  0  0  0  0  0  0
   -2.2175    1.6230   -0.7301 C   0  0  0  0  0  0  0  0  0  0  0  0
    2.3745   -1.0255    1.2937 C   0  0  0  0  0  0  0  0  0  0  0  0
   -2.5220   -0.9202    0.4652 C   0  0  0  0  0  0  0  0  0  0  0  0
    3.0952    0.0226   -1.1865 C   0  0  0  0  0  0  0  0  0  0  0  0
   -3.2750    0.7855   -1.0954 C   0  0  0  0  0  0  0  0  0  0  0  0
   -3.4270   -0.4774   -0.5003 C   0  0  0  0  0  0  0  0  0  0  0  0
    3.4276   -1.5926    0.5751 C   0  0  0  0  0  0  0  0  0  0  0  0
    3.7839   -1.0720   -0.6668 C   0  0  0  0  0  0  0  0  0  0  0  0
   -4.5694   -2.5453   -0.2273 C   0  0  0  0  0  0  0  0  0  0  0  0
   -0.5385    2.5562    1.5891 H   0  0  0  0  0  0  0  0  0  0  0  0
    0.8603    0.9527    2.5361 H   0  0  0  0  0  0  0  0  0  0  0  0
    0.2763    3.3209   -0.6853 H   0  0  0  0  0  0  0  0  0  0  0  0
    1.5916    3.0756    0.4586 H   0  0  0  0  0  0  0  0  0  0  0  0
   -2.1159    2.6050   -1.1792 H   0  0  0  0  0  0  0  0  0  0  0  0
    2.0996   -1.4508    2.2558 H   0  0  0  0  0  0  0  0  0  0  0  0
   -2.5775   -1.8788    0.9658 H   0  0  0  0  0  0  0  0  0  0  0  0
    3.3757    0.4287   -2.1554 H   0  0  0  0  0  0  0  0  0  0  0  0
   -3.9894    1.1227   -1.8423 H   0  0  0  0  0  0  0  0  0  0  0  0
    3.9568   -2.4449    0.9927 H   0  0  0  0  0  0  0  0  0  0  0  0
    5.1674   -2.3773   -0.8632 H   0  0  0  0  0  0  0  0  0  0  0  0
   -3.7064   -3.1803   -0.4551 H   0  0  0  0  0  0  0  0  0  0  0  0
   -5.4518   -3.0459   -0.6391 H   0  0  0  0  0  0  0  0  0  0  0  0
   -4.7349   -2.4413    0.8505 H   0  0  0  0  0  0  0  0  0  0  0  0
  1  6  1  0  0  0  0
  1 10  1  0  0  0  0
  2  8  1  0  0  0  0
  2 11  1  0  0  0  0
  3 17  1  0  0  0  0
  3 20  1  0  0  0  0
  4 19  1  0  0  0  0
  4 31  1  0  0  0  0
  5  6  1  0  0  0  0
  5  7  1  0  0  0  0
  5  8  1  0  0  0  0
  5 21  1  0  0  0  0
  6  9  1  0  0  0  0
  6 22  1  0  0  0  0
  7 10  2  0  0  0  0
  7 12  1  0  0  0  0
  8 23  1  0  0  0  0
  8 24  1  0  0  0  0
  9 11  2  0  0  0  0
  9 13  1  0  0  0  0
 10 14  1  0  0  0  0
 11 15  1  0  0  0  0
 12 16  2  0  0  0  0
 12 25  1  0  0  0  0
 13 18  2  0  0  0  0
 13 26  1  0  0  0  0
 14 17  2  0  0  0  0
 14 27  1  0  0  0  0
 15 19  2  0  0  0  0
 15 28  1  0  0  0  0
 16 17  1  0  0  0  0
 16 29  1  0  0  0  0
 18 19  1  0  0  0  0
 18 30  1  0  0  0  0
 20 32  1  0  0  0  0
 20 33  1  0  0  0  0
 20 34  1  0  0  0  0
M  END
> <PUBCHEM_COMPOUND_CID>
336327

> <PUBCHEM_CONFORMER_RMSD>
0.6

> <PUBCHEM_CONFORMER_DIVERSEORDER>
1
2

> <PUBCHEM_MMFF94_PARTIAL_CHARGES>
27
1 -0.36
10 0.08
11 0.08
12 -0.15
13 -0.15
14 -0.15
15 -0.15
16 -0.15
17 0.08
18 -0.15
19 0.08
2 -0.36
20 0.28
25 0.15
26 0.15
27 0.15
28 0.15
29 0.15
3 -0.36
30 0.15
31 0.45
4 -0.53
5 0.14
6 0.42
7 -0.14
8 0.28
9 -0.14

> <PUBCHEM_EFFECTIVE_ROTOR_COUNT>
1.6

> <PUBCHEM_PHARMACOPHORE_FEATURES>
8
1 1 acceptor
1 2 acceptor
1 3 acceptor
1 4 donor
5 1 5 6 7 10 rings
6 2 5 6 8 9 11 rings
6 7 10 12 14 16 17 rings
6 9 11 13 15 18 19 rings

> <PUBCHEM_HEAVY_ATOM_COUNT>
20

> <PUBCHEM_ATOM_DEF_STEREO_COUNT>
2

> <PUBCHEM_ATOM_UDEF_STEREO_COUNT>
0

> <PUBCHEM_BOND_DEF_STEREO_COUNT>
0

> <PUBCHEM_BOND_UDEF_STEREO_COUNT>
0

> <PUBCHEM_ISOTOPIC_ATOM_COUNT>
0

> <PUBCHEM_COMPONENT_COUNT>
1

> <PUBCHEM_CACTVS_TAUTO_COUNT>
3

> <PUBCHEM_CONFORMER_ID>
000521C700000001

> <PUBCHEM_MMFF94_ENERGY>
73.3453

> <PUBCHEM_FEATURE_SELFOVERLAP>
40.99

> <PUBCHEM_SHAPE_FINGERPRINT>
10062212 137 17986963040242734123
10465860 71 18341897423755222008
10498660 4 14189577416548165927
10948715 1 10592041358152582324
11221954 11 12965120525881575406
12251169 10 6050442600262223800
12363563 72 18113336418340292319
12382932 28 6771865186286030977
12553582 1 18341887523829296403
12633257 1 14129063616433141518
12644460 14 15430608233970181634
12670546 177 17917711318200873206
12824470 246 18186514397858317371
12892183 10 7348882291378222461
13103583 49 14634867548064618607
13544653 18 17313112972557962544
13764800 53 10663814217454759461
13965767 371 7709193321152601242
14576447 43 18343301470493028806
15061688 2 12103846743636323883
15534591 1 11671767248548902920
16945 1 17775278339923825520
18186145 218 16845856797493978697
193927 3 17822003224817910678
19784866 240 18113330908361618111
19862831 5 17988924504435628064
200 152 18130218372087960230
20645477 70 18266183816664631135
20775438 99 17762355616834203535
20871999 31 18272087227284413895
21452121 199 18334584503189169568
21475661 188 11239993443036877303
21713013 43 18272939301904786927
22393880 68 18272653484679184158
22802520 49 17845648149517096961
231179 274 12535628280053001182
23379529 103 18336539409241699391
23382010 3 16988843877812451217
23419403 2 17768014992482193920
23557571 272 18336561446586396568
23559900 14 18191883416706430376
25 1 15913038889289570744
27216 239 10015281521580154061
2748010 2 17267766681913779232
2838139 119 15051732001906369230
3082319 5 17775566467788663278
394222 165 14058987179108099587
4028521 119 14189569749788780510
427121 178 9006783145593408309
465052 167 18115582631151151279
474 4 10015322221070299135
49207404 50 7565068315171461869
5262128 65 18341602715973878996
633830 44 15266501901440054605
6786 2 16382001128432555881
7808743 9 9654988101278066618
7970288 3 18260543433198870830
90316 7 4751156315811822515
9709674 26 18200033924134936689

> <PUBCHEM_SHAPE_MULTIPOLES>
388.11
8.03
2.34
1.42
1.52
0.17
-0.18
-6.7
3.6
0.75
0.25
-0.62
-0.06
0.12

> <PUBCHEM_SHAPE_SELFOVERLAP>
874.989

> <PUBCHEM_SHAPE_VOLUME>
203.4

> <PUBCHEM_COORDINATE_TYPE>
2
5
10

$$$$

