6477011
  -OEChem-07051213003D

 63 66  0     1  0  0  0  0  0999 V2000
    3.2679   -0.5922    1.4955 O   0  0  0  0  0  0  0  0  0  0  0  0
    6.7304   -0.6562   -0.1040 O   0  0  0  0  0  0  0  0  0  0  0  0
    0.2708   -1.5951    1.2147 O   0  0  0  0  0  0  0  0  0  0  0  0
   -1.7206    1.4544    0.2939 O   0  0  0  0  0  0  0  0  0  0  0  0
   -1.7144   -2.1005    0.1264 N   0  0  0  0  0  0  0  0  0  0  0  0
   -4.8544   -1.0101   -0.5963 N   0  0  0  0  0  0  0  0  0  0  0  0
   -3.4709    2.9203   -0.1091 N   0  0  0  0  0  0  0  0  0  0  0  0
    2.5692   -0.6990   -0.8680 C   0  0  2  0  0  0  0  0  0  0  0  0
    3.2520   -1.4480    0.3172 C   0  0  1  0  0  0  0  0  0  0  0  0
    3.6112   -0.2571   -1.9360 C   0  0  0  0  0  0  0  0  0  0  0  0
    2.0503    0.5015   -0.1373 C   0  0  0  0  0  0  0  0  0  0  0  0
    4.6865   -1.8973    0.0409 C   0  0  0  0  0  0  0  0  0  0  0  0
    4.9111    0.2782   -1.3411 C   0  0  0  0  0  0  0  0  0  0  0  0
    2.4977    0.4913    1.1739 C   0  0  0  0  0  0  0  0  0  0  0  0
    1.4865   -1.5248   -1.5496 C   0  0  0  0  0  0  0  0  0  0  0  0
    5.5473   -0.7468   -0.4330 C   0  0  0  0  0  0  0  0  0  0  0  0
    1.2716    1.5512   -0.6066 C   0  0  0  0  0  0  0  0  0  0  0  0
    2.1895    1.5045    2.0617 C   0  0  0  0  0  0  0  0  0  0  0  0
    0.2886   -1.9803   -1.1472 C   0  0  0  0  0  0  0  0  0  0  0  0
    0.9354    2.5883    0.2758 C   0  0  0  0  0  0  0  0  0  0  0  0
    1.3984    2.5605    1.6056 C   0  0  0  0  0  0  0  0  0  0  0  0
   -0.3509   -1.8573    0.1935 C   0  0  0  0  0  0  0  0  0  0  0  0
    0.1047    3.7073   -0.1763 C   0  0  0  0  0  0  0  0  0  0  0  0
   -2.5907   -2.0488    1.2844 C   0  0  0  0  0  0  0  0  0  0  0  0
   -1.2306    3.7195   -0.3034 C   0  0  0  0  0  0  0  0  0  0  0  0
   -3.6006   -3.1962    1.3158 C   0  0  0  0  0  0  0  0  0  0  0  0
   -4.5150   -3.3631    0.0918 C   0  0  0  0  0  0  0  0  0  0  0  0
   -5.5185   -2.2308   -0.1601 C   0  0  0  0  0  0  0  0  0  0  0  0
   -2.1330    2.5695   -0.0061 C   0  0  0  0  0  0  0  0  0  0  0  0
   -5.7990    0.0434   -0.9612 C   0  0  0  0  0  0  0  0  0  0  0  0
   -5.0353    1.3519   -1.1833 C   0  0  0  0  0  0  0  0  0  0  0  0
   -4.5354    1.9622    0.1276 C   0  0  0  0  0  0  0  0  0  0  0  0
    2.6816   -2.3404    0.6048 H   0  0  0  0  0  0  0  0  0  0  0  0
    3.1842    0.5030   -2.6036 H   0  0  0  0  0  0  0  0  0  0  0  0
    3.8697   -1.1136   -2.5754 H   0  0  0  0  0  0  0  0  0  0  0  0
    4.7087   -2.6774   -0.7274 H   0  0  0  0  0  0  0  0  0  0  0  0
    5.1354   -2.2945    0.9584 H   0  0  0  0  0  0  0  0  0  0  0  0
    4.7418    1.1949   -0.7684 H   0  0  0  0  0  0  0  0  0  0  0  0
    5.6139    0.5023   -2.1508 H   0  0  0  0  0  0  0  0  0  0  0  0
    1.7178   -1.7843   -2.5851 H   0  0  0  0  0  0  0  0  0  0  0  0
    0.9309    1.5635   -1.6379 H   0  0  0  0  0  0  0  0  0  0  0  0
    2.5476    1.4849    3.0852 H   0  0  0  0  0  0  0  0  0  0  0  0
   -0.2927   -2.5327   -1.8849 H   0  0  0  0  0  0  0  0  0  0  0  0
    1.1440    3.3637    2.2938 H   0  0  0  0  0  0  0  0  0  0  0  0
    0.6570    4.6151   -0.4093 H   0  0  0  0  0  0  0  0  0  0  0  0
   -2.1481   -2.2370   -0.7816 H   0  0  0  0  0  0  0  0  0  0  0  0
   -3.0869   -1.0753    1.2814 H   0  0  0  0  0  0  0  0  0  0  0  0
   -1.9823   -2.0848    2.1951 H   0  0  0  0  0  0  0  0  0  0  0  0
   -4.2241   -3.0870    2.2117 H   0  0  0  0  0  0  0  0  0  0  0  0
   -3.0448   -4.1350    1.4398 H   0  0  0  0  0  0  0  0  0  0  0  0
   -1.7012    4.6393   -0.6418 H   0  0  0  0  0  0  0  0  0  0  0  0
   -3.9154   -3.5417   -0.8088 H   0  0  0  0  0  0  0  0  0  0  0  0
   -5.0948   -4.2831    0.2449 H   0  0  0  0  0  0  0  0  0  0  0  0
   -6.2218   -2.5645   -0.9327 H   0  0  0  0  0  0  0  0  0  0  0  0
   -6.0925   -2.0442    0.7549 H   0  0  0  0  0  0  0  0  0  0  0  0
   -6.5508    0.1882   -0.1764 H   0  0  0  0  0  0  0  0  0  0  0  0
   -6.3219   -0.2336   -1.8838 H   0  0  0  0  0  0  0  0  0  0  0  0
   -5.6926    2.0755   -1.6817 H   0  0  0  0  0  0  0  0  0  0  0  0
   -4.1983    1.1790   -1.8728 H   0  0  0  0  0  0  0  0  0  0  0  0
   -4.2397   -1.2072   -1.3854 H   0  0  0  0  0  0  0  0  0  0  0  0
   -5.3495    2.4945    0.6309 H   0  0  0  0  0  0  0  0  0  0  0  0
   -4.1656    1.1944    0.8144 H   0  0  0  0  0  0  0  0  0  0  0  0
   -3.7357    3.8677   -0.3626 H   0  0  0  0  0  0  0  0  0  0  0  0
  1  9  1  0  0  0  0
  1 14  1  0  0  0  0
  2 16  2  0  0  0  0
  3 22  2  0  0  0  0
  4 29  2  0  0  0  0
  5 22  1  0  0  0  0
  5 24  1  0  0  0  0
  5 46  1  0  0  0  0
  6 28  1  0  0  0  0
  6 30  1  0  0  0  0
  6 60  1  0  0  0  0
  7 29  1  0  0  0  0
  7 32  1  0  0  0  0
  7 63  1  0  0  0  0
  8  9  1  0  0  0  0
  8 10  1  0  0  0  0
  8 11  1  0  0  0  0
  8 15  1  0  0  0  0
  9 12  1  0  0  0  0
  9 33  1  0  0  0  0
 10 13  1  0  0  0  0
 10 34  1  0  0  0  0
 10 35  1  0  0  0  0
 11 14  2  0  0  0  0
 11 17  1  0  0  0  0
 12 16  1  0  0  0  0
 12 36  1  0  0  0  0
 12 37  1  0  0  0  0
 13 16  1  0  0  0  0
 13 38  1  0  0  0  0
 13 39  1  0  0  0  0
 14 18  1  0  0  0  0
 15 19  2  0  0  0  0
 15 40  1  0  0  0  0
 17 20  2  0  0  0  0
 17 41  1  0  0  0  0
 18 21  2  0  0  0  0
 18 42  1  0  0  0  0
 19 22  1  0  0  0  0
 19 43  1  0  0  0  0
 20 21  1  0  0  0  0
 20 23  1  0  0  0  0
 21 44  1  0  0  0  0
 23 25  2  0  0  0  0
 23 45  1  0  0  0  0
 24 26  1  0  0  0  0
 24 47  1  0  0  0  0
 24 48  1  0  0  0  0
 25 29  1  0  0  0  0
 25 51  1  0  0  0  0
 26 27  1  0  0  0  0
 26 49  1  0  0  0  0
 26 50  1  0  0  0  0
 27 28  1  0  0  0  0
 27 52  1  0  0  0  0
 27 53  1  0  0  0  0
 28 54  1  0  0  0  0
 28 55  1  0  0  0  0
 30 31  1  0  0  0  0
 30 56  1  0  0  0  0
 30 57  1  0  0  0  0
 31 32  1  0  0  0  0
 31 58  1  0  0  0  0
 31 59  1  0  0  0  0
 32 61  1  0  0  0  0
 32 62  1  0  0  0  0
M  END
> <PUBCHEM_COMPOUND_CID>
6477011

> <PUBCHEM_CONFORMER_RMSD>
0.8

> <PUBCHEM_CONFORMER_DIVERSEORDER>
1

> <PUBCHEM_MMFF94_PARTIAL_CHARGES>
38
1 -0.36
11 -0.14
12 0.06
13 0.06
14 0.08
15 -0.29
16 0.45
17 -0.15
18 -0.15
19 -0.14
2 -0.57
20 0.03
21 -0.15
22 0.62
23 -0.18
24 0.3
25 -0.14
28 0.27
29 0.62
3 -0.57
30 0.27
32 0.3
4 -0.57
40 0.15
41 0.15
42 0.15
43 0.15
44 0.15
45 0.15
46 0.37
5 -0.73
51 0.15
6 -0.9
60 0.36
63 0.37
7 -0.73
8 0.28
9 0.28

> <PUBCHEM_EFFECTIVE_ROTOR_COUNT>
2.8

> <PUBCHEM_PHARMACOPHORE_FEATURES>
11
1 1 acceptor
1 2 acceptor
1 3 acceptor
1 4 acceptor
1 5 donor
1 6 cation
1 6 donor
1 7 donor
5 1 8 9 11 14 rings
6 11 14 17 18 20 21 rings
6 8 9 10 12 13 16 rings

> <PUBCHEM_HEAVY_ATOM_COUNT>
32

> <PUBCHEM_ATOM_DEF_STEREO_COUNT>
2

> <PUBCHEM_ATOM_UDEF_STEREO_COUNT>
0

> <PUBCHEM_BOND_DEF_STEREO_COUNT>
2

> <PUBCHEM_BOND_UDEF_STEREO_COUNT>
0

> <PUBCHEM_ISOTOPIC_ATOM_COUNT>
0

> <PUBCHEM_COMPONENT_COUNT>
1

> <PUBCHEM_CACTVS_TAUTO_COUNT>
12

> <PUBCHEM_CONFORMER_ID>
0062D4D300000001

> <PUBCHEM_MMFF94_ENERGY>
72.4007

> <PUBCHEM_FEATURE_SELFOVERLAP>
56.295

> <PUBCHEM_SHAPE_FINGERPRINT>
10076449 9 17603301566851350318
108634 29 18336541737065896895
11315621 136 18270398283135784613
11513181 2 17973163929117711039
11578080 2 16517970267339834346
11828532 37 18057033607187200979
12107698 1 18335704897638989895
12166972 35 17969779688094049299
12293681 4 18409727404532871743
12645989 146 18263081024874400303
12788726 201 18272091625273130738
13402501 40 18334580169783185749
14040222 383 18338516452446365281
14787075 74 18117001189876212044
15264996 44 17972303019876464837
15274700 256 18341615889962213922
15968369 153 18041571239041358444
20587220 17 16674118841019732513
20764821 26 18341037550429119453
21033648 29 17822024089632125242
21133410 90 17313107423935152681
21792965 302 17917430857453837500
22121540 332 18188500064603998204
23559900 14 18338240354267626981
3052486 1 18343867727148904864
3493558 16 17414977077031665612
437795 70 18410571803704087083
463206 1 18410290342008215861
484989 97 18259981583615964932
508706 21 18410576202072020169
6823239 73 18409736123126825561

> <PUBCHEM_SHAPE_MULTIPOLES>
620.12
12.44
4.58
1.52
3.51
2.12
-0.19
-6.26
2.9
5.01
-0.7
-0.85
-0.1
1.56

> <PUBCHEM_SHAPE_SELFOVERLAP>
1312.886

> <PUBCHEM_SHAPE_VOLUME>
342

> <PUBCHEM_COORDINATE_TYPE>
2
5
10

$$$$

