583156
  -OEChem-06241222443D

 25 26  0     0  0  0  0  0  0999 V2000
   -2.3857   -1.4765    0.0088 O   0  0  0  0  0  0  0  0  0  0  0  0
   -3.8369    0.2985   -0.0002 O   0  0  0  0  0  0  0  0  0  0  0  0
   -0.9805   -1.6340    0.0096 N   0  0  0  0  0  0  0  0  0  0  0  0
   -1.4220    0.6587   -0.0047 C   0  0  0  0  0  0  0  0  0  0  0  0
   -0.4174   -0.4672    0.0034 C   0  0  0  0  0  0  0  0  0  0  0  0
   -1.3246    1.5047    1.2582 C   0  0  0  0  0  0  0  0  0  0  0  0
   -1.3252    1.4872   -1.2789 C   0  0  0  0  0  0  0  0  0  0  0  0
   -2.6999   -0.1464    0.0014 C   0  0  0  0  0  0  0  0  0  0  0  0
    1.0186   -0.2479    0.0018 C   0  0  0  0  0  0  0  0  0  0  0  0
    1.7095   -0.1337    1.2091 C   0  0  0  0  0  0  0  0  0  0  0  0
    1.7096   -0.1515   -1.2069 C   0  0  0  0  0  0  0  0  0  0  0  0
    3.0883    0.0766    1.2076 C   0  0  0  0  0  0  0  0  0  0  0  0
    3.0886    0.0588   -1.2082 C   0  0  0  0  0  0  0  0  0  0  0  0
    3.7778    0.1728   -0.0009 C   0  0  0  0  0  0  0  0  0  0  0  0
   -0.3958    2.0849    1.2829 H   0  0  0  0  0  0  0  0  0  0  0  0
   -2.1604    2.2105    1.3242 H   0  0  0  0  0  0  0  0  0  0  0  0
   -1.3519    0.8829    2.1607 H   0  0  0  0  0  0  0  0  0  0  0  0
   -0.3965    2.0668   -1.3122 H   0  0  0  0  0  0  0  0  0  0  0  0
   -1.3530    0.8530   -2.1728 H   0  0  0  0  0  0  0  0  0  0  0  0
   -2.1610    2.1920   -1.3544 H   0  0  0  0  0  0  0  0  0  0  0  0
    1.1843   -0.2099    2.1578 H   0  0  0  0  0  0  0  0  0  0  0  0
    1.1846   -0.2416   -2.1545 H   0  0  0  0  0  0  0  0  0  0  0  0
    3.6253    0.1647    2.1476 H   0  0  0  0  0  0  0  0  0  0  0  0
    3.6258    0.1330   -2.1492 H   0  0  0  0  0  0  0  0  0  0  0  0
    4.8515    0.3362   -0.0019 H   0  0  0  0  0  0  0  0  0  0  0  0
  1  3  1  0  0  0  0
  1  8  1  0  0  0  0
  2  8  2  0  0  0  0
  3  5  2  0  0  0  0
  4  5  1  0  0  0  0
  4  6  1  0  0  0  0
  4  7  1  0  0  0  0
  4  8  1  0  0  0  0
  5  9  1  0  0  0  0
  6 15  1  0  0  0  0
  6 16  1  0  0  0  0
  6 17  1  0  0  0  0
  7 18  1  0  0  0  0
  7 19  1  0  0  0  0
  7 20  1  0  0  0  0
  9 10  2  0  0  0  0
  9 11  1  0  0  0  0
 10 12  1  0  0  0  0
 10 21  1  0  0  0  0
 11 13  2  0  0  0  0
 11 22  1  0  0  0  0
 12 14  2  0  0  0  0
 12 23  1  0  0  0  0
 13 14  1  0  0  0  0
 13 24  1  0  0  0  0
 14 25  1  0  0  0  0
M  END
> <PUBCHEM_COMPOUND_CID>
583156

> <PUBCHEM_CONFORMER_RMSD>
0.6

> <PUBCHEM_CONFORMER_DIVERSEORDER>
1
2

> <PUBCHEM_MMFF94_PARTIAL_CHARGES>
17
1 -0.09
10 -0.15
11 -0.15
12 -0.15
13 -0.15
14 -0.15
2 -0.57
21 0.15
22 0.15
23 0.15
24 0.15
25 0.15
3 -0.51
4 0.12
5 0.3
8 0.66
9 0.09

> <PUBCHEM_EFFECTIVE_ROTOR_COUNT>
1.4

> <PUBCHEM_PHARMACOPHORE_FEATURES>
5
1 2 acceptor
1 3 acceptor
3 4 6 7 hydrophobe
5 1 3 4 5 8 rings
6 9 10 11 12 13 14 rings

> <PUBCHEM_HEAVY_ATOM_COUNT>
14

> <PUBCHEM_ATOM_DEF_STEREO_COUNT>
0

> <PUBCHEM_ATOM_UDEF_STEREO_COUNT>
0

> <PUBCHEM_BOND_DEF_STEREO_COUNT>
0

> <PUBCHEM_BOND_UDEF_STEREO_COUNT>
0

> <PUBCHEM_ISOTOPIC_ATOM_COUNT>
0

> <PUBCHEM_COMPONENT_COUNT>
1

> <PUBCHEM_CACTVS_TAUTO_COUNT>
1

> <PUBCHEM_CONFORMER_ID>
0008E5F400000001

> <PUBCHEM_MMFF94_ENERGY>
41.1742

> <PUBCHEM_FEATURE_SELFOVERLAP>
25.371

> <PUBCHEM_SHAPE_FINGERPRINT>
10608611 8 17458346359722523384
11031198 65 16588303865357093768
12423570 1 14867735125977102435
12932764 1 18131353016284564328
13024252 1 15052013472582466701
13214271 11 17313396573416923169
13538477 17 17846217717798745954
13581323 91 18272096006324115594
13764800 53 18261099820567974217
14144814 61 17846780719560533710
14614273 12 18341617082939950069
14993402 34 18202561765770656311
15219456 202 17458063733741887370
15375462 478 17132117969547188988
15775835 57 18060416919659045828
16945 1 18410856560030127715
17844478 74 17385436609633741984
17846911 113 18261118482205967865
18175812 5 17603586287789498182
19049666 15 17532360058013293502
200 152 16630528405808124891
20201158 50 17385721400473027910
20279233 1 17603585214332738070
20559304 39 17632861949305807692
20645477 70 16009024038059279532
21501502 16 17678445587852869958
22802520 49 17169538817370579232
23402539 116 18114194046100138620
23419403 2 17037033110473806477
23557571 272 18116709604567117690
23559900 14 18259982687259049158
2748010 2 17972329421003359793
369184 2 15841832256968784365
474 4 17058357078038877612
5084963 1 18270397325099159658
77492 1 17704073979973008994

> <PUBCHEM_SHAPE_MULTIPOLES>
271.39
5.77
1.28
1.27
1.25
0.04
0.02
0.01
-0.13
0.68
-0.34
-0.98
-0.02
0.06

> <PUBCHEM_SHAPE_SELFOVERLAP>
583.864

> <PUBCHEM_SHAPE_VOLUME>
151.7

> <PUBCHEM_COORDINATE_TYPE>
2
5
10

$$$$

