247297
  -OEChem-07051213073D

 74 77  0     1  0  0  0  0  0999 V2000
   -6.0867    3.0434   -0.5660 O   0  0  0  0  0  0  0  0  0  0  0  0
   -5.8110    1.6588    1.2102 N   0  0  0  0  0  0  0  0  0  0  0  0
    1.0214   -1.2876    0.2038 C   0  0  1  0  0  0  0  0  0  0  0  0
    0.2694   -0.6772   -0.9983 C   0  0  2  0  0  0  0  0  0  0  0  0
   -1.2395   -0.9370   -0.9482 C   0  0  1  0  0  0  0  0  0  0  0  0
   -1.8189   -0.2938    0.3548 C   0  0  2  0  0  0  0  0  0  0  0  0
    2.4682   -0.9003   -0.1882 C   0  0  2  0  0  0  0  0  0  0  0  0
    0.4949   -0.6114    1.4763 C   0  0  0  0  0  0  0  0  0  0  0  0
    1.0670   -1.1628   -2.2048 C   0  0  0  0  0  0  0  0  0  0  0  0
   -1.0322   -0.7583    1.6128 C   0  0  0  0  0  0  0  0  0  0  0  0
   -3.3916   -0.4507    0.4717 C   0  0  2  0  0  0  0  0  0  0  0  0
    2.5242   -1.1859   -1.7073 C   0  0  0  0  0  0  0  0  0  0  0  0
   -1.9492   -0.3834   -2.1885 C   0  0  0  0  0  0  0  0  0  0  0  0
    3.5899   -1.5804    0.5835 C   0  0  1  0  0  0  0  0  0  0  0  0
    0.8716   -2.8244    0.3327 C   0  0  0  0  0  0  0  0  0  0  0  0
   -4.0104    0.0898   -0.8331 C   0  0  0  0  0  0  0  0  0  0  0  0
   -3.4597   -0.5670   -2.0933 C   0  0  0  0  0  0  0  0  0  0  0  0
   -3.8662    0.2916    1.7529 C   0  0  0  0  0  0  0  0  0  0  0  0
   -3.7908   -1.9440    0.6341 C   0  0  0  0  0  0  0  0  0  0  0  0
    4.9912   -1.1140    0.1363 C   0  0  0  0  0  0  0  0  0  0  0  0
    3.4271   -1.3196    2.0863 C   0  0  0  0  0  0  0  0  0  0  0  0
   -5.3722    0.4532    1.8696 C   0  0  0  0  0  0  0  0  0  0  0  0
   -4.9136    1.0726   -1.0183 C   0  0  0  0  0  0  0  0  0  0  0  0
    5.2609    0.3936    0.2319 C   0  0  0  0  0  0  0  0  0  0  0  0
   -5.6325    1.9952   -0.1000 C   0  0  0  0  0  0  0  0  0  0  0  0
    6.6399    0.8023   -0.2957 C   0  0  0  0  0  0  0  0  0  0  0  0
    6.9374    2.3058   -0.1336 C   0  0  0  0  0  0  0  0  0  0  0  0
    6.8368    2.7711    1.3201 C   0  0  0  0  0  0  0  0  0  0  0  0
    5.9745    3.1204   -1.0014 C   0  0  0  0  0  0  0  0  0  0  0  0
    0.3994    0.4180   -0.9715 H   0  0  0  0  0  0  0  0  0  0  0  0
   -1.4113   -2.0180   -0.9346 H   0  0  0  0  0  0  0  0  0  0  0  0
   -1.6265    0.7888    0.2737 H   0  0  0  0  0  0  0  0  0  0  0  0
    2.5514    0.1871   -0.0559 H   0  0  0  0  0  0  0  0  0  0  0  0
    0.7430    0.4577    1.4681 H   0  0  0  0  0  0  0  0  0  0  0  0
    0.9242   -1.0265    2.3885 H   0  0  0  0  0  0  0  0  0  0  0  0
    0.9527   -0.4970   -3.0663 H   0  0  0  0  0  0  0  0  0  0  0  0
    0.7537   -2.1654   -2.5167 H   0  0  0  0  0  0  0  0  0  0  0  0
   -1.2761   -1.7998    1.8463 H   0  0  0  0  0  0  0  0  0  0  0  0
   -1.3356   -0.1670    2.4836 H   0  0  0  0  0  0  0  0  0  0  0  0
    2.9720   -2.1609   -1.9303 H   0  0  0  0  0  0  0  0  0  0  0  0
    3.1225   -0.4247   -2.2202 H   0  0  0  0  0  0  0  0  0  0  0  0
   -1.5879   -0.8944   -3.0885 H   0  0  0  0  0  0  0  0  0  0  0  0
   -1.7147    0.6819   -2.3129 H   0  0  0  0  0  0  0  0  0  0  0  0
    3.5609   -2.6656    0.4240 H   0  0  0  0  0  0  0  0  0  0  0  0
    1.3732   -3.2063    1.2268 H   0  0  0  0  0  0  0  0  0  0  0  0
   -0.1721   -3.1395    0.4140 H   0  0  0  0  0  0  0  0  0  0  0  0
    1.2932   -3.3576   -0.5253 H   0  0  0  0  0  0  0  0  0  0  0  0
   -3.7156   -1.6326   -2.1014 H   0  0  0  0  0  0  0  0  0  0  0  0
   -3.9122   -0.1520   -3.0025 H   0  0  0  0  0  0  0  0  0  0  0  0
   -3.3817    1.2752    1.8218 H   0  0  0  0  0  0  0  0  0  0  0  0
   -3.5370   -0.2724    2.6350 H   0  0  0  0  0  0  0  0  0  0  0  0
   -3.5087   -2.3318    1.6191 H   0  0  0  0  0  0  0  0  0  0  0  0
   -4.8721   -2.0859    0.5285 H   0  0  0  0  0  0  0  0  0  0  0  0
   -3.3193   -2.5964   -0.1057 H   0  0  0  0  0  0  0  0  0  0  0  0
    5.7497   -1.6456    0.7261 H   0  0  0  0  0  0  0  0  0  0  0  0
    5.1545   -1.4310   -0.9015 H   0  0  0  0  0  0  0  0  0  0  0  0
    3.1593   -0.2814    2.3061 H   0  0  0  0  0  0  0  0  0  0  0  0
    4.3668   -1.5245    2.6138 H   0  0  0  0  0  0  0  0  0  0  0  0
    2.7006   -1.9969    2.5389 H   0  0  0  0  0  0  0  0  0  0  0  0
   -5.9378   -0.3913    1.4679 H   0  0  0  0  0  0  0  0  0  0  0  0
   -5.6481    0.5658    2.9239 H   0  0  0  0  0  0  0  0  0  0  0  0
   -5.1697    1.3136   -2.0521 H   0  0  0  0  0  0  0  0  0  0  0  0
    4.5013    0.9319   -0.3398 H   0  0  0  0  0  0  0  0  0  0  0  0
    5.1563    0.6936    1.2787 H   0  0  0  0  0  0  0  0  0  0  0  0
   -6.3372    2.3181    1.7757 H   0  0  0  0  0  0  0  0  0  0  0  0
    6.7265    0.5215   -1.3528 H   0  0  0  0  0  0  0  0  0  0  0  0
    7.4089    0.2332    0.2419 H   0  0  0  0  0  0  0  0  0  0  0  0
    7.9603    2.4848   -0.4874 H   0  0  0  0  0  0  0  0  0  0  0  0
    5.8070    2.7684    1.6904 H   0  0  0  0  0  0  0  0  0  0  0  0
    7.2103    3.7969    1.4138 H   0  0  0  0  0  0  0  0  0  0  0  0
    7.4426    2.1365    1.9752 H   0  0  0  0  0  0  0  0  0  0  0  0
    4.9455    3.0870   -0.6302 H   0  0  0  0  0  0  0  0  0  0  0  0
    6.2788    4.1730   -1.0139 H   0  0  0  0  0  0  0  0  0  0  0  0
    5.9800    2.7645   -2.0370 H   0  0  0  0  0  0  0  0  0  0  0  0
  1 25  2  0  0  0  0
  2 22  1  0  0  0  0
  2 25  1  0  0  0  0
  2 65  1  0  0  0  0
  3  4  1  0  0  0  0
  3  7  1  0  0  0  0
  3  8  1  0  0  0  0
  3 15  1  0  0  0  0
  4  5  1  0  0  0  0
  4  9  1  0  0  0  0
  4 30  1  0  0  0  0
  5  6  1  0  0  0  0
  5 13  1  0  0  0  0
  5 31  1  0  0  0  0
  6 10  1  0  0  0  0
  6 11  1  0  0  0  0
  6 32  1  0  0  0  0
  7 12  1  0  0  0  0
  7 14  1  0  0  0  0
  7 33  1  0  0  0  0
  8 10  1  0  0  0  0
  8 34  1  0  0  0  0
  8 35  1  0  0  0  0
  9 12  1  0  0  0  0
  9 36  1  0  0  0  0
  9 37  1  0  0  0  0
 10 38  1  0  0  0  0
 10 39  1  0  0  0  0
 11 16  1  0  0  0  0
 11 18  1  0  0  0  0
 11 19  1  0  0  0  0
 12 40  1  0  0  0  0
 12 41  1  0  0  0  0
 13 17  1  0  0  0  0
 13 42  1  0  0  0  0
 13 43  1  0  0  0  0
 14 20  1  0  0  0  0
 14 21  1  0  0  0  0
 14 44  1  0  0  0  0
 15 45  1  0  0  0  0
 15 46  1  0  0  0  0
 15 47  1  0  0  0  0
 16 17  1  0  0  0  0
 16 23  2  0  0  0  0
 17 48  1  0  0  0  0
 17 49  1  0  0  0  0
 18 22  1  0  0  0  0
 18 50  1  0  0  0  0
 18 51  1  0  0  0  0
 19 52  1  0  0  0  0
 19 53  1  0  0  0  0
 19 54  1  0  0  0  0
 20 24  1  0  0  0  0
 20 55  1  0  0  0  0
 20 56  1  0  0  0  0
 21 57  1  0  0  0  0
 21 58  1  0  0  0  0
 21 59  1  0  0  0  0
 22 60  1  0  0  0  0
 22 61  1  0  0  0  0
 23 25  1  0  0  0  0
 23 62  1  0  0  0  0
 24 26  1  0  0  0  0
 24 63  1  0  0  0  0
 24 64  1  0  0  0  0
 26 27  1  0  0  0  0
 26 66  1  0  0  0  0
 26 67  1  0  0  0  0
 27 28  1  0  0  0  0
 27 29  1  0  0  0  0
 27 68  1  0  0  0  0
 28 69  1  0  0  0  0
 28 70  1  0  0  0  0
 28 71  1  0  0  0  0
 29 72  1  0  0  0  0
 29 73  1  0  0  0  0
 29 74  1  0  0  0  0
M  END
> <PUBCHEM_COMPOUND_CID>
247297

> <PUBCHEM_CONFORMER_RMSD>
0.8

> <PUBCHEM_CONFORMER_DIVERSEORDER>
1
9
3
7
6
8
5
4
2

> <PUBCHEM_MMFF94_PARTIAL_CHARGES>
10
1 -0.57
11 0.14
16 -0.28
17 0.14
2 -0.73
22 0.3
23 -0.14
25 0.62
62 0.15
65 0.37

> <PUBCHEM_EFFECTIVE_ROTOR_COUNT>
7

> <PUBCHEM_PHARMACOPHORE_FEATURES>
9
1 1 acceptor
1 2 donor
1 21 hydrophobe
3 27 28 29 hydrophobe
5 14 20 24 26 27 hydrophobe
5 3 4 7 9 12 rings
6 3 4 5 6 8 10 rings
6 5 6 11 13 16 17 rings
7 2 11 16 18 22 23 25 rings

> <PUBCHEM_HEAVY_ATOM_COUNT>
29

> <PUBCHEM_ATOM_DEF_STEREO_COUNT>
7

> <PUBCHEM_ATOM_UDEF_STEREO_COUNT>
0

> <PUBCHEM_BOND_DEF_STEREO_COUNT>
0

> <PUBCHEM_BOND_UDEF_STEREO_COUNT>
0

> <PUBCHEM_ISOTOPIC_ATOM_COUNT>
0

> <PUBCHEM_COMPONENT_COUNT>
1

> <PUBCHEM_CACTVS_TAUTO_COUNT>
2

> <PUBCHEM_CONFORMER_ID>
0003C60100000001

> <PUBCHEM_MMFF94_ENERGY>
99.101

> <PUBCHEM_FEATURE_SELFOVERLAP>
45.754

> <PUBCHEM_SHAPE_FINGERPRINT>
10 15 16415197845970868956
10319926 262 15554451811953274726
10554248 39 17531813583659863582
10670039 82 16805036333323020480
10693767 8 5978113397584433180
10906281 52 17749379403993218403
12035758 1 16415478255347310380
12596602 18 18343298175894280914
13583140 156 18262240023570669059
13690498 29 16010453235560849135
13782708 43 9439400229032073128
14211702 104 11455897987753526768
14251764 30 8502654800968511732
14528608 73 15502668138558362363
14840074 17 18113900463568896520
14931854 50 15213593368227104905
15064981 194 16660366961870685369
15082195 135 16877664574053889504
15131766 46 18263654987239610004
15183329 4 16081363047603628428
15326921 28 15193904447799662101
15475509 35 11167935849705428500
15575132 122 17967531259877046928
15840311 113 18341049717512443421
16994733 274 18408327678960114864
17349148 13 12103551031112240723
17980427 23 17704069568825754174
19958102 18 6988312841938406532
2026 5 8502377715185783437
21033648 29 17704070698654801704
21130935 74 17632294622538626275
21298829 104 18335705984545699484
21637258 2 9871749083510284910
21682296 61 8214153962273542336
22122407 14 18411694383648981744
22393880 68 15068634785127083966
23559900 14 15983990405138391082
23569914 152 6119725989003863889
23569914 2 17767171671000552324
2748736 6 18339368453329561616
2838139 119 18335705988650320972
328310 630 18186514406205925249
392239 28 15554445180355113748
397830 11 18130495358185764522
4058900 60 17748819743869188790
4258327 124 18187088343424083829
474113 269 12823022984744991409
5104073 3 16199883885137902176
531348 171 8718563700312988267
5364581 5 17488735658349686628
5718773 13 9439398029887647661
6608658 132 17385715924179243136

> <PUBCHEM_SHAPE_MULTIPOLES>
585.96
17.57
2.82
2.08
13.58
1.92
-0.24
18.2
2.58
2.32
0.07
-1.13
-0.33
-0.23

> <PUBCHEM_SHAPE_SELFOVERLAP>
1214.608

> <PUBCHEM_SHAPE_VOLUME>
333.4

> <PUBCHEM_COORDINATE_TYPE>
2
5
10

$$$$

