5280497
  -OEChem-07051212463D

 57 58  0     1  0  0  0  0  0999 V2000
   -4.5013    0.1620    1.1196 O   0  0  0  0  0  0  0  0  0  0  0  0
   -3.3819    1.6471   -0.4603 O   0  0  0  0  0  0  0  0  0  0  0  0
    0.8933    4.5690   -0.8498 O   0  0  0  0  0  0  0  0  0  0  0  0
    3.0939   -1.1943   -2.4659 O   0  0  0  0  0  0  0  0  0  0  0  0
    0.8578   -0.8649   -2.2661 O   0  0  0  0  0  0  0  0  0  0  0  0
   -3.6451   -0.8476    0.4619 C   0  0  2  0  0  0  0  0  0  0  0  0
   -2.1945   -0.3373    0.3753 C   0  0  1  0  0  0  0  0  0  0  0  0
   -4.4488   -0.5876   -0.8346 C   0  0  0  0  0  0  0  0  0  0  0  0
   -4.5422    0.8175   -0.2066 C   0  0  1  0  0  0  0  0  0  0  0  0
   -2.2028    1.2115    0.2413 C   0  0  1  0  0  0  0  0  0  0  0  0
   -1.4094   -0.7867    1.6057 C   0  0  0  0  0  0  0  0  0  0  0  0
   -1.0053    1.7379   -0.4784 C   0  0  0  0  0  0  0  0  0  0  0  0
   -1.3449   -2.2652    1.8616 C   0  0  0  0  0  0  0  0  0  0  0  0
   -0.1523    2.6304    0.0451 C   0  0  0  0  0  0  0  0  0  0  0  0
    1.0512    3.1586   -0.6838 C   0  0  2  0  0  0  0  0  0  0  0  0
   -0.4495   -3.1370    1.3734 C   0  0  0  0  0  0  0  0  0  0  0  0
    2.3613    2.9295    0.0822 C   0  0  0  0  0  0  0  0  0  0  0  0
    0.6739   -2.7493    0.4564 C   0  0  0  0  0  0  0  0  0  0  0  0
    2.6151    1.4570    0.4179 C   0  0  0  0  0  0  0  0  0  0  0  0
    3.8816    1.2333    1.2508 C   0  0  0  0  0  0  0  0  0  0  0  0
    0.6274   -3.4527   -0.9071 C   0  0  0  0  0  0  0  0  0  0  0  0
    4.1762   -0.2414    1.5279 C   0  0  0  0  0  0  0  0  0  0  0  0
    1.7825   -3.0769   -1.8401 C   0  0  0  0  0  0  0  0  0  0  0  0
    5.4354   -0.4069    2.3656 C   0  0  0  0  0  0  0  0  0  0  0  0
    1.8284   -1.6059   -2.1920 C   0  0  0  0  0  0  0  0  0  0  0  0
   -3.8062   -1.8519    0.8633 H   0  0  0  0  0  0  0  0  0  0  0  0
   -1.7329   -0.7867   -0.5149 H   0  0  0  0  0  0  0  0  0  0  0  0
   -5.4002   -1.1220   -0.9087 H   0  0  0  0  0  0  0  0  0  0  0  0
   -3.8973   -0.6658   -1.7740 H   0  0  0  0  0  0  0  0  0  0  0  0
   -5.4803    1.3507   -0.3815 H   0  0  0  0  0  0  0  0  0  0  0  0
   -2.2707    1.6622    1.2403 H   0  0  0  0  0  0  0  0  0  0  0  0
   -1.8611   -0.3375    2.5016 H   0  0  0  0  0  0  0  0  0  0  0  0
   -0.3963   -0.3693    1.5752 H   0  0  0  0  0  0  0  0  0  0  0  0
   -0.8371    1.3733   -1.4889 H   0  0  0  0  0  0  0  0  0  0  0  0
   -2.1189   -2.6645    2.5148 H   0  0  0  0  0  0  0  0  0  0  0  0
   -0.3245    3.0075    1.0505 H   0  0  0  0  0  0  0  0  0  0  0  0
    1.1376    2.7156   -1.6831 H   0  0  0  0  0  0  0  0  0  0  0  0
   -0.5300   -4.1843    1.6525 H   0  0  0  0  0  0  0  0  0  0  0  0
    3.1969    3.3276   -0.5080 H   0  0  0  0  0  0  0  0  0  0  0  0
    2.3515    3.5202    1.0082 H   0  0  0  0  0  0  0  0  0  0  0  0
    1.6144   -3.0156    0.9558 H   0  0  0  0  0  0  0  0  0  0  0  0
    0.7171   -1.6683    0.3019 H   0  0  0  0  0  0  0  0  0  0  0  0
    2.6922    0.8891   -0.5159 H   0  0  0  0  0  0  0  0  0  0  0  0
    1.7687    1.0398    0.9750 H   0  0  0  0  0  0  0  0  0  0  0  0
    3.7819    1.7696    2.2027 H   0  0  0  0  0  0  0  0  0  0  0  0
    4.7366    1.6775    0.7258 H   0  0  0  0  0  0  0  0  0  0  0  0
   -0.3242   -3.2143   -1.3995 H   0  0  0  0  0  0  0  0  0  0  0  0
    0.6400   -4.5395   -0.7568 H   0  0  0  0  0  0  0  0  0  0  0  0
    0.0897    4.7153   -1.3780 H   0  0  0  0  0  0  0  0  0  0  0  0
    3.3289   -0.6962    2.0538 H   0  0  0  0  0  0  0  0  0  0  0  0
    4.2970   -0.7801    0.5810 H   0  0  0  0  0  0  0  0  0  0  0  0
    1.7048   -3.6404   -2.7760 H   0  0  0  0  0  0  0  0  0  0  0  0
    2.7276   -3.3499   -1.3561 H   0  0  0  0  0  0  0  0  0  0  0  0
    6.3065    0.0118    1.8515 H   0  0  0  0  0  0  0  0  0  0  0  0
    5.3321    0.0952    3.3328 H   0  0  0  0  0  0  0  0  0  0  0  0
    5.6286   -1.4679    2.5525 H   0  0  0  0  0  0  0  0  0  0  0  0
    3.1240   -0.2458   -2.7141 H   0  0  0  0  0  0  0  0  0  0  0  0
  1  6  1  0  0  0  0
  1  9  1  0  0  0  0
  2  9  1  0  0  0  0
  2 10  1  0  0  0  0
  3 15  1  0  0  0  0
  3 49  1  0  0  0  0
  4 25  1  0  0  0  0
  4 57  1  0  0  0  0
  5 25  2  0  0  0  0
  6  7  1  0  0  0  0
  6  8  1  0  0  0  0
  6 26  1  0  0  0  0
  7 10  1  0  0  0  0
  7 11  1  0  0  0  0
  7 27  1  0  0  0  0
  8  9  1  0  0  0  0
  8 28  1  0  0  0  0
  8 29  1  0  0  0  0
  9 30  1  0  0  0  0
 10 12  1  0  0  0  0
 10 31  1  0  0  0  0
 11 13  1  0  0  0  0
 11 32  1  0  0  0  0
 11 33  1  0  0  0  0
 12 14  2  0  0  0  0
 12 34  1  0  0  0  0
 13 16  2  0  0  0  0
 13 35  1  0  0  0  0
 14 15  1  0  0  0  0
 14 36  1  0  0  0  0
 15 17  1  0  0  0  0
 15 37  1  0  0  0  0
 16 18  1  0  0  0  0
 16 38  1  0  0  0  0
 17 19  1  0  0  0  0
 17 39  1  0  0  0  0
 17 40  1  0  0  0  0
 18 21  1  0  0  0  0
 18 41  1  0  0  0  0
 18 42  1  0  0  0  0
 19 20  1  0  0  0  0
 19 43  1  0  0  0  0
 19 44  1  0  0  0  0
 20 22  1  0  0  0  0
 20 45  1  0  0  0  0
 20 46  1  0  0  0  0
 21 23  1  0  0  0  0
 21 47  1  0  0  0  0
 21 48  1  0  0  0  0
 22 24  1  0  0  0  0
 22 50  1  0  0  0  0
 22 51  1  0  0  0  0
 23 25  1  0  0  0  0
 23 52  1  0  0  0  0
 23 53  1  0  0  0  0
 24 54  1  0  0  0  0
 24 55  1  0  0  0  0
 24 56  1  0  0  0  0
M  END
> <PUBCHEM_COMPOUND_CID>
5280497

> <PUBCHEM_CONFORMER_RMSD>
1.2

> <PUBCHEM_CONFORMER_DIVERSEORDER>
1
121
28
61
125
87
153
90
78
155
116
95
33
10
68
42
106
50
34
127
79
96
70
35
9
150
18
103
161
66
109
53
130
149
14
29
51
52
110
132
105
120
65
93
38
80
113
99
135
162
85
4
124
27
12
141
6
25
32
2
71
112
159
108
160
15
77
144
133
151
24
73
139
7
136
117
57
62
142
63
114
22
26
81
55
107
94
41
140
100
21
123
17
83
45
84
138
98
157
11
75
134
143
156
91
47
58
46
8
129
30
88
43
5
118
148
40
44
82
146
3
152
147
64
19
54
86
20
48
89
56
69
31
115
16
74
145
59
137
36
163
37
67
102
128
13
119
92
23
39
104
101
49
72
131
126
158
154
122
97
76
60
111

> <PUBCHEM_MMFF94_PARTIAL_CHARGES>
23
1 -0.52
10 0.42
11 0.14
12 -0.29
13 -0.29
14 -0.29
15 0.42
16 -0.29
18 0.14
2 -0.54
23 0.06
25 0.66
3 -0.68
34 0.15
35 0.15
36 0.15
38 0.15
4 -0.65
49 0.4
5 -0.57
57 0.5
6 0.26
9 0.52

> <PUBCHEM_EFFECTIVE_ROTOR_COUNT>
13

> <PUBCHEM_PHARMACOPHORE_FEATURES>
11
1 1 acceptor
1 2 acceptor
1 24 hydrophobe
1 3 acceptor
1 3 donor
1 4 acceptor
1 5 acceptor
3 4 5 25 anion
4 16 18 21 23 hydrophobe
4 17 19 20 22 hydrophobe
7 1 2 6 7 8 9 10 rings

> <PUBCHEM_HEAVY_ATOM_COUNT>
25

> <PUBCHEM_ATOM_DEF_STEREO_COUNT>
5

> <PUBCHEM_ATOM_UDEF_STEREO_COUNT>
0

> <PUBCHEM_BOND_DEF_STEREO_COUNT>
2

> <PUBCHEM_BOND_UDEF_STEREO_COUNT>
0

> <PUBCHEM_ISOTOPIC_ATOM_COUNT>
0

> <PUBCHEM_COMPONENT_COUNT>
1

> <PUBCHEM_CACTVS_TAUTO_COUNT>
1

> <PUBCHEM_CONFORMER_ID>
005092F100000001

> <PUBCHEM_MMFF94_ENERGY>
32.417

> <PUBCHEM_FEATURE_SELFOVERLAP>
55.903

> <PUBCHEM_SHAPE_FINGERPRINT>
12539773 59 16100465657075679266
12633257 1 18343305834010600624
13402501 40 18335978766238837190
13773456 73 17632285749568409915
17921350 177 18125146157334626180
17974551 9 17488464057813584370
20600515 1 17989485238428686868
20642791 35 17762623184901235169
22113638 7 18269006314352247424
23559900 14 18340468032885186300
238918 7 18189067524388507890

> <PUBCHEM_SHAPE_MULTIPOLES>
485.14
8.32
4.89
2.21
0.1
1.22
0.64
1.33
-3.7
-2.37
1.51
-2.29
-1.86
1.2

> <PUBCHEM_SHAPE_SELFOVERLAP>
958.869

> <PUBCHEM_SHAPE_VOLUME>
284.6

> <PUBCHEM_COORDINATE_TYPE>
2
5
10

$$$$

