5311201
  -OEChem-07051213063D

 52 55  0     1  0  0  0  0  0999 V2000
    0.2068    0.9037   -2.4996 O   0  0  0  0  0  0  0  0  0  0  0  0
    2.2855    1.2549    0.6564 O   0  0  0  0  0  0  0  0  0  0  0  0
   -1.5257    1.9388   -1.3443 N   0  0  0  0  0  0  0  0  0  0  0  0
   -1.2113   -0.8760   -0.2457 N   0  0  0  0  0  0  0  0  0  0  0  0
    1.1062   -0.4348   -0.3927 N   0  0  0  0  0  0  0  0  0  0  0  0
    3.3879   -0.6358   -0.1925 N   0  0  0  0  0  0  0  0  0  0  0  0
   -0.1977    0.1577   -0.2553 C   0  0  1  0  0  0  0  0  0  0  0  0
   -2.4184    1.9861   -0.2183 C   0  0  0  0  0  0  0  0  0  0  0  0
   -2.7993    0.8410    0.5114 C   0  0  0  0  0  0  0  0  0  0  0  0
   -2.4078   -0.5397    0.1007 C   0  0  0  0  0  0  0  0  0  0  0  0
   -0.4764    1.0161   -1.4780 C   0  0  0  0  0  0  0  0  0  0  0  0
   -3.4494   -1.6067    0.0694 C   0  0  0  0  0  0  0  0  0  0  0  0
   -2.9629    3.2232    0.1800 C   0  0  0  0  0  0  0  0  0  0  0  0
   -3.6298    0.9580    1.6408 C   0  0  0  0  0  0  0  0  0  0  0  0
   -1.6838    2.9532   -2.3870 C   0  0  0  0  0  0  0  0  0  0  0  0
   -3.8035    3.3287    1.2910 C   0  0  0  0  0  0  0  0  0  0  0  0
   -4.1272    2.1983    2.0283 C   0  0  0  0  0  0  0  0  0  0  0  0
   -4.7697   -1.2698   -0.2036 C   0  0  0  0  0  0  0  0  0  0  0  0
   -3.0885   -2.9264    0.3132 C   0  0  0  0  0  0  0  0  0  0  0  0
    2.2784    0.1684    0.0827 C   0  0  0  0  0  0  0  0  0  0  0  0
   -5.7439   -2.2677   -0.2331 C   0  0  0  0  0  0  0  0  0  0  0  0
   -4.0628   -3.9242    0.2836 C   0  0  0  0  0  0  0  0  0  0  0  0
    4.7433   -0.3826    0.1230 C   0  0  0  0  0  0  0  0  0  0  0  0
   -5.3904   -3.5947    0.0103 C   0  0  0  0  0  0  0  0  0  0  0  0
    5.7089   -1.3086   -0.2365 C   0  0  0  0  0  0  0  0  0  0  0  0
    7.0453   -1.0578    0.0752 C   0  0  0  0  0  0  0  0  0  0  0  0
    5.0774    0.7873    0.7861 C   0  0  0  0  0  0  0  0  0  0  0  0
    7.3976    0.1155    0.7422 C   0  0  0  0  0  0  0  0  0  0  0  0
    6.4137    1.0380    1.0976 C   0  0  0  0  0  0  0  0  0  0  0  0
    8.0976   -2.0441   -0.3052 C   0  0  0  0  0  0  0  0  0  0  0  0
   -0.1878    0.7624    0.6587 H   0  0  0  0  0  0  0  0  0  0  0  0
   -2.7165    4.1440   -0.3429 H   0  0  0  0  0  0  0  0  0  0  0  0
   -3.8996    0.0876    2.2343 H   0  0  0  0  0  0  0  0  0  0  0  0
    1.1777   -1.3193   -0.8854 H   0  0  0  0  0  0  0  0  0  0  0  0
   -1.2020    3.8796   -2.0593 H   0  0  0  0  0  0  0  0  0  0  0  0
   -2.7452    3.1212   -2.5955 H   0  0  0  0  0  0  0  0  0  0  0  0
   -1.2051    2.6369   -3.3185 H   0  0  0  0  0  0  0  0  0  0  0  0
   -4.1935    4.2991    1.5844 H   0  0  0  0  0  0  0  0  0  0  0  0
   -4.7708    2.2798    2.8990 H   0  0  0  0  0  0  0  0  0  0  0  0
   -5.0754   -0.2531   -0.4318 H   0  0  0  0  0  0  0  0  0  0  0  0
   -2.0626   -3.2058    0.5367 H   0  0  0  0  0  0  0  0  0  0  0  0
    3.2065   -1.5106   -0.6781 H   0  0  0  0  0  0  0  0  0  0  0  0
   -6.7765   -2.0127   -0.4534 H   0  0  0  0  0  0  0  0  0  0  0  0
   -3.7883   -4.9575    0.4748 H   0  0  0  0  0  0  0  0  0  0  0  0
   -6.1487   -4.3719   -0.0142 H   0  0  0  0  0  0  0  0  0  0  0  0
    5.4331   -2.2218   -0.7581 H   0  0  0  0  0  0  0  0  0  0  0  0
    4.3766    1.5487    1.0944 H   0  0  0  0  0  0  0  0  0  0  0  0
    8.4353    0.3233    0.9889 H   0  0  0  0  0  0  0  0  0  0  0  0
    6.6895    1.9515    1.6166 H   0  0  0  0  0  0  0  0  0  0  0  0
    8.9466   -2.0044    0.3858 H   0  0  0  0  0  0  0  0  0  0  0  0
    7.7080   -3.0674   -0.2750 H   0  0  0  0  0  0  0  0  0  0  0  0
    8.4598   -1.8354   -1.3168 H   0  0  0  0  0  0  0  0  0  0  0  0
  1 11  2  0  0  0  0
  2 20  2  0  0  0  0
  3  8  1  0  0  0  0
  3 11  1  0  0  0  0
  3 15  1  0  0  0  0
  4  7  1  0  0  0  0
  4 10  2  0  0  0  0
  5  7  1  0  0  0  0
  5 20  1  0  0  0  0
  5 34  1  0  0  0  0
  6 20  1  0  0  0  0
  6 23  1  0  0  0  0
  6 42  1  0  0  0  0
  7 11  1  0  0  0  0
  7 31  1  0  0  0  0
  8  9  1  0  0  0  0
  8 13  2  0  0  0  0
  9 10  1  0  0  0  0
  9 14  2  0  0  0  0
 10 12  1  0  0  0  0
 12 18  2  0  0  0  0
 12 19  1  0  0  0  0
 13 16  1  0  0  0  0
 13 32  1  0  0  0  0
 14 17  1  0  0  0  0
 14 33  1  0  0  0  0
 15 35  1  0  0  0  0
 15 36  1  0  0  0  0
 15 37  1  0  0  0  0
 16 17  2  0  0  0  0
 16 38  1  0  0  0  0
 17 39  1  0  0  0  0
 18 21  1  0  0  0  0
 18 40  1  0  0  0  0
 19 22  2  0  0  0  0
 19 41  1  0  0  0  0
 21 24  2  0  0  0  0
 21 43  1  0  0  0  0
 22 24  1  0  0  0  0
 22 44  1  0  0  0  0
 23 25  1  0  0  0  0
 23 27  2  0  0  0  0
 24 45  1  0  0  0  0
 25 26  2  0  0  0  0
 25 46  1  0  0  0  0
 26 28  1  0  0  0  0
 26 30  1  0  0  0  0
 27 29  1  0  0  0  0
 27 47  1  0  0  0  0
 28 29  2  0  0  0  0
 28 48  1  0  0  0  0
 29 49  1  0  0  0  0
 30 50  1  0  0  0  0
 30 51  1  0  0  0  0
 30 52  1  0  0  0  0
M  END
> <PUBCHEM_COMPOUND_CID>
5311201

> <PUBCHEM_CONFORMER_RMSD>
0.8

> <PUBCHEM_CONFORMER_DIVERSEORDER>
1
41
12
16
26
38
3
36
20
40
15
24
25
13
39
10
33
21
32
17
19
35
37
5
8
43
18
27
11
42
44
22
30
14
31
23
6
28
34
9
45
7
2
4
29

> <PUBCHEM_MMFF94_PARTIAL_CHARGES>
45
1 -0.57
10 0.28
11 0.57
12 0.09
13 -0.15
14 -0.15
15 0.3
16 -0.15
17 -0.15
18 -0.15
19 -0.15
2 -0.57
20 0.69
21 -0.15
22 -0.15
23 0.12
24 -0.15
25 -0.15
26 -0.14
27 -0.15
28 -0.15
29 -0.15
3 -0.48
30 0.14
32 0.15
33 0.15
34 0.37
38 0.15
39 0.15
4 -0.7
40 0.15
41 0.15
42 0.37
43 0.15
44 0.15
45 0.15
46 0.15
47 0.15
48 0.15
49 0.15
5 -0.73
6 -0.55
7 0.61
8 0.12
9 0.09

> <PUBCHEM_EFFECTIVE_ROTOR_COUNT>
5.4

> <PUBCHEM_PHARMACOPHORE_FEATURES>
9
1 1 acceptor
1 2 acceptor
1 4 acceptor
1 5 donor
1 6 donor
6 12 18 19 21 22 24 rings
6 23 25 26 27 28 29 rings
6 8 9 13 14 16 17 rings
7 3 4 7 8 9 10 11 rings

> <PUBCHEM_HEAVY_ATOM_COUNT>
30

> <PUBCHEM_ATOM_DEF_STEREO_COUNT>
1

> <PUBCHEM_ATOM_UDEF_STEREO_COUNT>
0

> <PUBCHEM_BOND_DEF_STEREO_COUNT>
0

> <PUBCHEM_BOND_UDEF_STEREO_COUNT>
0

> <PUBCHEM_ISOTOPIC_ATOM_COUNT>
0

> <PUBCHEM_COMPONENT_COUNT>
1

> <PUBCHEM_CACTVS_TAUTO_COUNT>
3

> <PUBCHEM_CONFORMER_ID>
00510AE100000001

> <PUBCHEM_MMFF94_ENERGY>
116.4079

> <PUBCHEM_FEATURE_SELFOVERLAP>
45.732

> <PUBCHEM_SHAPE_FINGERPRINT>
10319926 262 18187915210263853692
11497681 19 18268429045378690502
12082328 90 18333449855541331158
13009979 54 18269825429324803881
13073987 5 18260270729372494480
13540713 5 18128795491993336549
13782708 43 18335419054743920318
14068700 675 18268149764972174543
14556957 393 15626222451095971142
14844126 61 18408880707940074067
14856354 85 18261949743325562660
15348495 7 18261112989602341944
15361156 5 18060123363471906246
17686467 74 18128819643195431976
17844677 252 18334572430816491040
17980427 26 17253435016741427037
21033648 29 17168724002155736322
21130935 74 18335987549938114010
21236236 1 18407761447334895035
21814621 53 17822299024391574090
21927370 108 18060126623172885507
22956985 138 17397272629601791867
23522609 53 18057012853831127332
23523788 1 17604691284186555703
23559900 14 18265061245209646137
255183 313 18265314266608653161
397830 11 18334864896820207936
4073 2 18408320012907597914
4169191 19 5039078863748367522
484985 159 18271535268605899655
497634 4 18411421708817095500
5028188 123 18339348748441256990
5104073 3 18334869333510830258
5924683 9 18410572881635045547
5969126 39 18113909221729497127
6009941 240 18040995211064910952
6081469 158 18336273340960882783
9953998 17 18260824917102021793

> <PUBCHEM_SHAPE_MULTIPOLES>
585.72
18.59
4.21
1.51
43.31
1.05
0.56
11.4
-4.88
-9.25
-0.13
-1.02
-1.56
-0.07

> <PUBCHEM_SHAPE_SELFOVERLAP>
1282.299

> <PUBCHEM_SHAPE_VOLUME>
313.9

> <PUBCHEM_COORDINATE_TYPE>
2
5
10

$$$$

