46173876
  -OEChem-07051213102D

 57 57  0     1  0  0  0  0  0999 V2000
    6.3301   -2.0950    0.0000 S   0  0  0  0  0  0  0  0  0  0  0  0
    2.8660    4.9050    0.0000 S   0  0  0  0  0  0  0  0  0  0  0  0
    8.0622    0.9050    0.0000 S   0  0  0  0  0  0  0  0  0  0  0  0
    4.5981   -2.0950    0.0000 O   0  0  0  0  0  0  0  0  0  0  0  0
    4.5981   -5.0950    0.0000 O   0  0  0  0  0  0  0  0  0  0  0  0
    2.8660   -4.0950    0.0000 O   0  0  0  0  0  0  0  0  0  0  0  0
    6.3301   -4.0950    0.0000 O   0  0  0  0  0  0  0  0  0  0  0  0
    2.8660   -1.0950    0.0000 O   0  0  0  0  0  0  0  0  0  0  0  0
    7.1962    0.4050    0.0000 O   0  0  0  0  0  0  0  0  0  0  0  0
    8.9282    1.4050    0.0000 O   0  0  0  0  0  0  0  0  0  0  0  0
    7.5622    1.7710    0.0000 O   0  0  0  0  0  0  0  0  0  0  0  0
    8.5622    0.0390    0.0000 O   0  0  0  0  0  0  0  0  0  0  0  0
    7.1962   -0.5950    0.0000 N   0  0  0  0  0  0  0  0  0  0  0  0
    4.5981   -4.0950    0.0000 C   0  0  1  0  0  0  0  0  0  0  0  0
    3.7320   -3.5950    0.0000 C   0  0  1  0  0  0  0  0  0  0  0  0
    5.4641   -3.5950    0.0000 C   0  0  2  0  0  0  0  0  0  0  0  0
    3.7320   -2.5950    0.0000 C   0  0  1  0  0  0  0  0  0  0  0  0
    5.4641   -2.5950    0.0000 C   0  0  2  0  0  0  0  0  0  0  0  0
    2.8660   -2.0950    0.0000 C   0  0  0  0  0  0  0  0  0  0  0  0
    5.4641   -0.5950    0.0000 C   0  0  0  0  0  0  0  0  0  0  0  0
    5.4641    0.4050    0.0000 C   0  0  0  0  0  0  0  0  0  0  0  0
    6.3301   -1.0950    0.0000 C   0  0  0  0  0  0  0  0  0  0  0  0
    4.5981    0.9050    0.0000 C   0  0  0  0  0  0  0  0  0  0  0  0
    4.5981    1.9050    0.0000 C   0  0  0  0  0  0  0  0  0  0  0  0
    3.7320    2.4050    0.0000 C   0  0  0  0  0  0  0  0  0  0  0  0
    3.7320    3.4050    0.0000 C   0  0  0  0  0  0  0  0  0  0  0  0
    2.8660    3.9050    0.0000 C   0  0  0  0  0  0  0  0  0  0  0  0
    2.0000    5.4050    0.0000 C   0  0  0  0  0  0  0  0  0  0  0  0
    5.1350   -4.4050    0.0000 H   0  0  0  0  0  0  0  0  0  0  0  0
    3.7320   -4.2150    0.0000 H   0  0  0  0  0  0  0  0  0  0  0  0
    5.4641   -4.2150    0.0000 H   0  0  0  0  0  0  0  0  0  0  0  0
    3.7320   -1.9750    0.0000 H   0  0  0  0  0  0  0  0  0  0  0  0
    5.4641   -1.9750    0.0000 H   0  0  0  0  0  0  0  0  0  0  0  0
    2.2554   -1.9873    0.0000 H   0  0  0  0  0  0  0  0  0  0  0  0
    2.6540   -2.6776    0.0000 H   0  0  0  0  0  0  0  0  0  0  0  0
    4.0611   -5.4050    0.0000 H   0  0  0  0  0  0  0  0  0  0  0  0
    2.3291   -3.7850    0.0000 H   0  0  0  0  0  0  0  0  0  0  0  0
    6.8671   -3.7850    0.0000 H   0  0  0  0  0  0  0  0  0  0  0  0
    6.0747    0.2973    0.0000 H   0  0  0  0  0  0  0  0  0  0  0  0
    5.6762    0.9876    0.0000 H   0  0  0  0  0  0  0  0  0  0  0  0
    4.8535   -0.4873    0.0000 H   0  0  0  0  0  0  0  0  0  0  0  0
    5.2520   -1.1776    0.0000 H   0  0  0  0  0  0  0  0  0  0  0  0
    3.9875    1.0127    0.0000 H   0  0  0  0  0  0  0  0  0  0  0  0
    4.3860    0.3224    0.0000 H   0  0  0  0  0  0  0  0  0  0  0  0
    5.2087    1.7973    0.0000 H   0  0  0  0  0  0  0  0  0  0  0  0
    4.8101    2.4876    0.0000 H   0  0  0  0  0  0  0  0  0  0  0  0
    3.1215    2.5127    0.0000 H   0  0  0  0  0  0  0  0  0  0  0  0
    3.5200    1.8224    0.0000 H   0  0  0  0  0  0  0  0  0  0  0  0
    2.3291   -0.7850    0.0000 H   0  0  0  0  0  0  0  0  0  0  0  0
    4.3426    3.2973    0.0000 H   0  0  0  0  0  0  0  0  0  0  0  0
    3.9441    3.9876    0.0000 H   0  0  0  0  0  0  0  0  0  0  0  0
    2.2554    4.0127    0.0000 H   0  0  0  0  0  0  0  0  0  0  0  0
    2.6540    3.3224    0.0000 H   0  0  0  0  0  0  0  0  0  0  0  0
    2.3100    5.9419    0.0000 H   0  0  0  0  0  0  0  0  0  0  0  0
    1.4631    5.7150    0.0000 H   0  0  0  0  0  0  0  0  0  0  0  0
    1.6900    4.8681    0.0000 H   0  0  0  0  0  0  0  0  0  0  0  0
    8.9282    2.0250    0.0000 H   0  0  0  0  0  0  0  0  0  0  0  0
 18  1  1  1  0  0  0
  1 22  1  0  0  0  0
  2 27  1  0  0  0  0
  2 28  1  0  0  0  0
  3  9  1  0  0  0  0
  3 10  1  0  0  0  0
  3 11  2  0  0  0  0
  3 12  2  0  0  0  0
  4 17  1  0  0  0  0
  4 18  1  0  0  0  0
 14  5  1  1  0  0  0
  5 36  1  0  0  0  0
 15  6  1  6  0  0  0
  6 37  1  0  0  0  0
 16  7  1  6  0  0  0
  7 38  1  0  0  0  0
  8 19  1  0  0  0  0
  8 49  1  0  0  0  0
  9 13  1  0  0  0  0
 10 57  1  0  0  0  0
 13 22  2  3  0  0  0
 14 15  1  0  0  0  0
 14 16  1  0  0  0  0
 14 29  1  0  0  0  0
 15 17  1  0  0  0  0
 15 30  1  0  0  0  0
 16 18  1  0  0  0  0
 16 31  1  0  0  0  0
 17 19  1  1  0  0  0
 17 32  1  0  0  0  0
 18 33  1  0  0  0  0
 19 34  1  0  0  0  0
 19 35  1  0  0  0  0
 20 21  1  0  0  0  0
 20 22  1  0  0  0  0
 20 41  1  0  0  0  0
 20 42  1  0  0  0  0
 21 23  1  0  0  0  0
 21 39  1  0  0  0  0
 21 40  1  0  0  0  0
 23 24  1  0  0  0  0
 23 43  1  0  0  0  0
 23 44  1  0  0  0  0
 24 25  1  0  0  0  0
 24 45  1  0  0  0  0
 24 46  1  0  0  0  0
 25 26  1  0  0  0  0
 25 47  1  0  0  0  0
 25 48  1  0  0  0  0
 26 27  1  0  0  0  0
 26 50  1  0  0  0  0
 26 51  1  0  0  0  0
 27 52  1  0  0  0  0
 27 53  1  0  0  0  0
 28 54  1  0  0  0  0
 28 55  1  0  0  0  0
 28 56  1  0  0  0  0
M  END
> <PUBCHEM_COMPOUND_CID>
46173876

> <PUBCHEM_COMPOUND_CANONICALIZED>
1

> <PUBCHEM_CACTVS_COMPLEXITY>
570

> <PUBCHEM_CACTVS_HBOND_ACCEPTOR>
12

> <PUBCHEM_CACTVS_HBOND_DONOR>
5

> <PUBCHEM_CACTVS_ROTATABLE_BOND>
13

> <PUBCHEM_CACTVS_SUBSKEYS>
AAADceByPABgAAAAAAAAAAAAAAAAAAAAAAAkAAAAAAAAAAAAAAAAHgQECAAACBSlwAKCAAAQBoggAAAgADAAAAAAABAAAAAwAAABEAIgAAACQAAFAAAjAAHA4IQAAAAAAAAAAAAAAAAAAAAAAAAAAAAAAA==

> <PUBCHEM_IUPAC_OPENEYE_NAME>
[(2S,3R,4S,5S,6R)-3,4,5-trihydroxy-6-(hydroxymethyl)tetrahydropyran-2-yl] 8-methylsulfanyl-N-sulfooxy-octanimidothioate

> <PUBCHEM_IUPAC_CAS_NAME>
8-(methylthio)-N-sulfooxyoctanimidothioic acid [(2S,3R,4S,5S,6R)-3,4,5-trihydroxy-6-(hydroxymethyl)-2-oxanyl] ester

> <PUBCHEM_IUPAC_NAME>
[(2S,3R,4S,5S,6R)-3,4,5-trihydroxy-6-(hydroxymethyl)oxan-2-yl] 8-methylsulfanyl-N-sulfooxyoctanimidothioate

> <PUBCHEM_IUPAC_SYSTEMATIC_NAME>
[(2S,3R,4S,5S,6R)-6-(hydroxymethyl)-3,4,5-tris(oxidanyl)oxan-2-yl] 8-methylsulfanyl-N-sulfooxy-octanimidothioate

> <PUBCHEM_IUPAC_TRADITIONAL_NAME>
8-(methylthio)-N-sulfoxy-thiocaprylimidic acid [(2S,3R,4S,5S,6R)-3,4,5-trihydroxy-6-methylol-tetrahydropyran-2-yl] ester

> <PUBCHEM_IUPAC_INCHI>
InChI=1S/C15H29NO9S3/c1-26-8-6-4-2-3-5-7-11(16-25-28(21,22)23)27-15-14(20)13(19)12(18)10(9-17)24-15/h10,12-15,17-20H,2-9H2,1H3,(H,21,22,23)/t10-,12-,13+,14-,15+/m1/s1

> <PUBCHEM_IUPAC_INCHIKEY>
SJHVRBSHKTUXLG-LFHLZQBKSA-N

> <PUBCHEM_XLOGP3_AA>
0.9

> <PUBCHEM_EXACT_MASS>
463.100445

> <PUBCHEM_MOLECULAR_FORMULA>
C15H29NO9S3

> <PUBCHEM_MOLECULAR_WEIGHT>
463.58706

> <PUBCHEM_OPENEYE_CAN_SMILES>
CSCCCCCCCC(=NOS(=O)(=O)O)SC1C(C(C(C(O1)CO)O)O)O

> <PUBCHEM_OPENEYE_ISO_SMILES>
CSCCCCCCCC(=NOS(=O)(=O)O)S[C@H]1[C@@H]([C@H]([C@@H]([C@H](O1)CO)O)O)O

> <PUBCHEM_CACTVS_TPSA>
225

> <PUBCHEM_MONOISOTOPIC_WEIGHT>
463.100445

> <PUBCHEM_TOTAL_CHARGE>
0

> <PUBCHEM_HEAVY_ATOM_COUNT>
28

> <PUBCHEM_ATOM_DEF_STEREO_COUNT>
5

> <PUBCHEM_ATOM_UDEF_STEREO_COUNT>
0

> <PUBCHEM_BOND_DEF_STEREO_COUNT>
0

> <PUBCHEM_BOND_UDEF_STEREO_COUNT>
1

> <PUBCHEM_ISOTOPIC_ATOM_COUNT>
0

> <PUBCHEM_COMPONENT_COUNT>
1

> <PUBCHEM_CACTVS_TAUTO_COUNT>
2

> <PUBCHEM_COORDINATE_TYPE>
1
5
255

> <PUBCHEM_BONDANNOTATIONS>
18  1  5
13  22  1
17  19  5
14  5  5
15  6  6
16  7  6

$$$$

