4891
  -OEChem-07051212533D

 47 50  0     1  0  0  0  0  0999 V2000
   -3.1090    2.1335    0.3523 O   0  0  0  0  0  0  0  0  0  0  0  0
    1.3176    3.9240   -0.1306 O   0  0  0  0  0  0  0  0  0  0  0  0
    1.7936    1.6527    0.0495 N   0  0  0  0  0  0  0  0  0  0  0  0
   -0.9548    1.2517    0.4042 N   0  0  0  0  0  0  0  0  0  0  0  0
    1.3741    0.3889    0.6720 C   0  0  1  0  0  0  0  0  0  0  0  0
   -2.8773   -0.1470   -0.2311 C   0  0  0  0  0  0  0  0  0  0  0  0
   -0.0667    0.0951    0.2420 C   0  0  0  0  0  0  0  0  0  0  0  0
   -3.2112   -0.9955    0.9979 C   0  0  0  0  0  0  0  0  0  0  0  0
   -4.1038    0.0516   -1.1244 C   0  0  0  0  0  0  0  0  0  0  0  0
   -2.3367    1.1844    0.1985 C   0  0  0  0  0  0  0  0  0  0  0  0
   -3.8525   -2.3247    0.6083 C   0  0  0  0  0  0  0  0  0  0  0  0
   -4.7433   -1.2800   -1.5089 C   0  0  0  0  0  0  0  0  0  0  0  0
    2.2804   -0.7930    0.3756 C   0  0  0  0  0  0  0  0  0  0  0  0
    3.1506    1.7662   -0.4742 C   0  0  0  0  0  0  0  0  0  0  0  0
   -0.3595    2.5157    0.8293 C   0  0  0  0  0  0  0  0  0  0  0  0
   -5.0762   -2.1204   -0.2799 C   0  0  0  0  0  0  0  0  0  0  0  0
    3.4958    0.5747   -1.3555 C   0  0  0  0  0  0  0  0  0  0  0  0
    0.9758    2.7770    0.1579 C   0  0  0  0  0  0  0  0  0  0  0  0
    3.2918   -0.7084   -0.5980 C   0  0  0  0  0  0  0  0  0  0  0  0
    2.1123   -1.9964    1.0788 C   0  0  0  0  0  0  0  0  0  0  0  0
    4.0844   -1.8286   -0.8822 C   0  0  0  0  0  0  0  0  0  0  0  0
    2.9165   -3.1019    0.8010 C   0  0  0  0  0  0  0  0  0  0  0  0
    3.8982   -3.0196   -0.1825 C   0  0  0  0  0  0  0  0  0  0  0  0
    1.4064    0.5714    1.7553 H   0  0  0  0  0  0  0  0  0  0  0  0
   -2.1464   -0.6825   -0.8446 H   0  0  0  0  0  0  0  0  0  0  0  0
   -0.0824   -0.1687   -0.8236 H   0  0  0  0  0  0  0  0  0  0  0  0
   -0.4626   -0.7551    0.7996 H   0  0  0  0  0  0  0  0  0  0  0  0
   -2.3292   -1.1897    1.6149 H   0  0  0  0  0  0  0  0  0  0  0  0
   -3.9061   -0.4430    1.6451 H   0  0  0  0  0  0  0  0  0  0  0  0
   -4.8599    0.6627   -0.6141 H   0  0  0  0  0  0  0  0  0  0  0  0
   -3.8238    0.5997   -2.0326 H   0  0  0  0  0  0  0  0  0  0  0  0
   -4.1422   -2.8729    1.5119 H   0  0  0  0  0  0  0  0  0  0  0  0
   -3.1163   -2.9438    0.0809 H   0  0  0  0  0  0  0  0  0  0  0  0
   -4.0589   -1.8390   -2.1589 H   0  0  0  0  0  0  0  0  0  0  0  0
   -5.6552   -1.0973   -2.0886 H   0  0  0  0  0  0  0  0  0  0  0  0
    3.8250    1.8273    0.3891 H   0  0  0  0  0  0  0  0  0  0  0  0
    3.2589    2.6967   -1.0414 H   0  0  0  0  0  0  0  0  0  0  0  0
   -0.2100    2.4706    1.9137 H   0  0  0  0  0  0  0  0  0  0  0  0
   -1.0350    3.3482    0.6090 H   0  0  0  0  0  0  0  0  0  0  0  0
   -5.4704   -3.0934   -0.5941 H   0  0  0  0  0  0  0  0  0  0  0  0
   -5.8674   -1.6259    0.2971 H   0  0  0  0  0  0  0  0  0  0  0  0
    4.5369    0.6648   -1.6858 H   0  0  0  0  0  0  0  0  0  0  0  0
    2.8566    0.5595   -2.2466 H   0  0  0  0  0  0  0  0  0  0  0  0
    1.3478   -2.0808    1.8473 H   0  0  0  0  0  0  0  0  0  0  0  0
    4.8558   -1.7765   -1.6463 H   0  0  0  0  0  0  0  0  0  0  0  0
    2.7733   -4.0283    1.3496 H   0  0  0  0  0  0  0  0  0  0  0  0
    4.5203   -3.8820   -0.4032 H   0  0  0  0  0  0  0  0  0  0  0  0
  1 10  2  0  0  0  0
  2 18  2  0  0  0  0
  3  5  1  0  0  0  0
  3 14  1  0  0  0  0
  3 18  1  0  0  0  0
  4  7  1  0  0  0  0
  4 10  1  0  0  0  0
  4 15  1  0  0  0  0
  5  7  1  0  0  0  0
  5 13  1  0  0  0  0
  5 24  1  0  0  0  0
  6  8  1  0  0  0  0
  6  9  1  0  0  0  0
  6 10  1  0  0  0  0
  6 25  1  0  0  0  0
  7 26  1  0  0  0  0
  7 27  1  0  0  0  0
  8 11  1  0  0  0  0
  8 28  1  0  0  0  0
  8 29  1  0  0  0  0
  9 12  1  0  0  0  0
  9 30  1  0  0  0  0
  9 31  1  0  0  0  0
 11 16  1  0  0  0  0
 11 32  1  0  0  0  0
 11 33  1  0  0  0  0
 12 16  1  0  0  0  0
 12 34  1  0  0  0  0
 12 35  1  0  0  0  0
 13 19  1  0  0  0  0
 13 20  2  0  0  0  0
 14 17  1  0  0  0  0
 14 36  1  0  0  0  0
 14 37  1  0  0  0  0
 15 18  1  0  0  0  0
 15 38  1  0  0  0  0
 15 39  1  0  0  0  0
 16 40  1  0  0  0  0
 16 41  1  0  0  0  0
 17 19  1  0  0  0  0
 17 42  1  0  0  0  0
 17 43  1  0  0  0  0
 19 21  2  0  0  0  0
 20 22  1  0  0  0  0
 20 44  1  0  0  0  0
 21 23  1  0  0  0  0
 21 45  1  0  0  0  0
 22 23  2  0  0  0  0
 22 46  1  0  0  0  0
 23 47  1  0  0  0  0
M  END
> <PUBCHEM_COMPOUND_CID>
4891

> <PUBCHEM_CONFORMER_RMSD>
0.8

> <PUBCHEM_CONFORMER_DIVERSEORDER>
1
21
26
11
25
20
18
17
10
14
9
24
34
4
8
22
23
29
13
5
16
3
31
19
32
2
28
6
27
33
15
12
30
7

> <PUBCHEM_MMFF94_PARTIAL_CHARGES>
22
1 -0.57
10 0.57
13 -0.14
14 0.3
15 0.36
17 0.14
18 0.57
19 -0.14
2 -0.57
20 -0.15
21 -0.15
22 -0.15
23 -0.15
3 -0.66
4 -0.66
44 0.15
45 0.15
46 0.15
47 0.15
5 0.44
6 0.06
7 0.3

> <PUBCHEM_EFFECTIVE_ROTOR_COUNT>
4.2

> <PUBCHEM_PHARMACOPHORE_FEATURES>
6
1 1 acceptor
1 2 acceptor
6 13 19 20 21 22 23 rings
6 3 4 5 7 15 18 rings
6 3 5 13 14 17 19 rings
6 6 8 9 11 12 16 rings

> <PUBCHEM_HEAVY_ATOM_COUNT>
23

> <PUBCHEM_ATOM_DEF_STEREO_COUNT>
0

> <PUBCHEM_ATOM_UDEF_STEREO_COUNT>
1

> <PUBCHEM_BOND_DEF_STEREO_COUNT>
0

> <PUBCHEM_BOND_UDEF_STEREO_COUNT>
0

> <PUBCHEM_ISOTOPIC_ATOM_COUNT>
0

> <PUBCHEM_COMPONENT_COUNT>
1

> <PUBCHEM_CACTVS_TAUTO_COUNT>
1

> <PUBCHEM_CONFORMER_ID>
0000131B00000001

> <PUBCHEM_MMFF94_ENERGY>
57.2149

> <PUBCHEM_FEATURE_SELFOVERLAP>
30.501

> <PUBCHEM_SHAPE_FINGERPRINT>
10616163 171 18264202689521086111
10928967 22 18187078455940539039
11387372 6 5680933907120182244
11991303 11 17263287229220911364
12107183 9 18190163750693272817
12363563 72 18335138725974721591
12553582 1 18268428121253924539
12788726 201 17835803375662396256
13009979 54 17895464933769238328
13140716 1 18262519328549548320
13533116 47 18189897501375996131
13911987 19 17910938159366168812
14576447 43 18408882932421364022
14767858 380 18269254830308916318
14790565 3 17472977779913002041
14931854 50 18343014497684120190
15342816 4 18334570274373559148
15352361 1 18409451422513786503
17492 89 18409170987378227415
17909252 39 18335133198599907242
20291156 8 18336263534743216419
20626108 58 18261121815037435306
20645477 70 18267028250142285183
20775438 99 17686092434091452807
20775530 9 18341049717528325467
21315759 227 18271534091463529019
21452121 199 18341061816909809840
21634736 98 18341324608757943410
221357 26 18413672400935738047
221490 88 18340762667625795643
23379529 103 18044644532944486694
235170 7 17346045484909666327
23559900 14 18339655468465417729
23596394 208 18201165360275937375
238 59 18198898115638439122
25222932 49 17683246859375276455
2838139 119 15409747196031276574
2871803 45 18340768131066730651
3004659 81 18272657886693991311
312423 11 18335695048941018867
312425 83 17275108366028787951
3737641 26 18196356053682994563
4017518 198 16033826026606025842
4280585 95 18198915897177837714
46194498 28 17488742247282569479
463206 1 18269831068015736955
5486654 36 18339349864483770867
6433294 58 18339642213822438891
6669772 16 17902787471459143988
7471813 234 18339930432414385742
7970288 3 18334297616628175439
88748 71 18411978100513984131
960060 61 18412833469089176687
9709674 26 18341055125372043307

> <PUBCHEM_SHAPE_MULTIPOLES>
451.63
9.77
4.07
1.13
7.83
1.14
0.2
-7.8
3.09
-2.44
-0.62
0.22
-0.3
-0.61

> <PUBCHEM_SHAPE_SELFOVERLAP>
968.968

> <PUBCHEM_SHAPE_VOLUME>
243.8

> <PUBCHEM_COORDINATE_TYPE>
2
5
10

$$$$

