17395530
  -OEChem-06241222502D

 43 44  0     1  0  0  0  0  0999 V2000
    3.7320   -0.5194    0.0000 S   0  0  0  0  0  0  0  0  0  0  0  0
    4.6551    4.0684    0.0000 S   0  0  0  0  0  0  0  0  0  0  0  0
    3.7320    2.4806    0.0000 O   0  0  0  0  0  0  0  0  0  0  0  0
    4.7320   -0.5194    0.0000 O   0  0  0  0  0  0  0  0  0  0  0  0
    2.7320   -0.5194    0.0000 O   0  0  0  0  0  0  0  0  0  0  0  0
    3.7320    0.4806    0.0000 N   0  0  0  0  0  0  0  0  0  0  0  0
    5.4641    2.4806    0.0000 N   0  0  0  0  0  0  0  0  0  0  0  0
    6.2731    4.0684    0.0000 N   0  0  0  0  0  0  0  0  0  0  0  0
    5.4641    0.4806    0.0000 C   0  0  0  0  0  0  0  0  0  0  0  0
    4.5981    0.9806    0.0000 C   0  0  3  0  0  0  0  0  0  0  0  0
    6.3301    0.9806    0.0000 C   0  0  0  0  0  0  0  0  0  0  0  0
    5.4641   -0.5194    0.0000 C   0  0  0  0  0  0  0  0  0  0  0  0
    4.5981    1.9806    0.0000 C   0  0  0  0  0  0  0  0  0  0  0  0
    3.7320   -1.5194    0.0000 C   0  0  0  0  0  0  0  0  0  0  0  0
    2.8660   -2.0194    0.0000 C   0  0  0  0  0  0  0  0  0  0  0  0
    5.4641    3.4806    0.0000 C   0  0  0  0  0  0  0  0  0  0  0  0
    2.8660   -3.0194    0.0000 C   0  0  0  0  0  0  0  0  0  0  0  0
    2.0000   -3.5194    0.0000 C   0  0  0  0  0  0  0  0  0  0  0  0
    3.7320   -3.5194    0.0000 C   0  0  0  0  0  0  0  0  0  0  0  0
    2.0000   -4.5194    0.0000 C   0  0  0  0  0  0  0  0  0  0  0  0
    3.7320   -4.5194    0.0000 C   0  0  0  0  0  0  0  0  0  0  0  0
    4.9641    5.0194    0.0000 C   0  0  0  0  0  0  0  0  0  0  0  0
    5.9641    5.0194    0.0000 C   0  0  0  0  0  0  0  0  0  0  0  0
    2.8660   -5.0194    0.0000 C   0  0  0  0  0  0  0  0  0  0  0  0
    5.4641    1.1006    0.0000 H   0  0  0  0  0  0  0  0  0  0  0  0
    4.5981    0.3606    0.0000 H   0  0  0  0  0  0  0  0  0  0  0  0
    3.1951    0.7906    0.0000 H   0  0  0  0  0  0  0  0  0  0  0  0
    4.8441   -0.5194    0.0000 H   0  0  0  0  0  0  0  0  0  0  0  0
    6.6401    0.4436    0.0000 H   0  0  0  0  0  0  0  0  0  0  0  0
    6.8671    1.2906    0.0000 H   0  0  0  0  0  0  0  0  0  0  0  0
    6.0201    1.5175    0.0000 H   0  0  0  0  0  0  0  0  0  0  0  0
    5.4641   -1.1394    0.0000 H   0  0  0  0  0  0  0  0  0  0  0  0
    6.0841   -0.5194    0.0000 H   0  0  0  0  0  0  0  0  0  0  0  0
    6.0010    2.1706    0.0000 H   0  0  0  0  0  0  0  0  0  0  0  0
    4.2690   -1.8294    0.0000 H   0  0  0  0  0  0  0  0  0  0  0  0
    2.3291   -1.7094    0.0000 H   0  0  0  0  0  0  0  0  0  0  0  0
    1.4631   -3.2094    0.0000 H   0  0  0  0  0  0  0  0  0  0  0  0
    4.2690   -3.2094    0.0000 H   0  0  0  0  0  0  0  0  0  0  0  0
    1.4631   -4.8294    0.0000 H   0  0  0  0  0  0  0  0  0  0  0  0
    4.2690   -4.8294    0.0000 H   0  0  0  0  0  0  0  0  0  0  0  0
    4.5997    5.5210    0.0000 H   0  0  0  0  0  0  0  0  0  0  0  0
    6.3285    5.5210    0.0000 H   0  0  0  0  0  0  0  0  0  0  0  0
    2.8660   -5.6394    0.0000 H   0  0  0  0  0  0  0  0  0  0  0  0
  1  4  2  0  0  0  0
  1  5  2  0  0  0  0
  1  6  1  0  0  0  0
  1 14  1  0  0  0  0
  2 16  1  0  0  0  0
  2 22  1  0  0  0  0
  3 13  2  0  0  0  0
  6 10  1  0  0  0  0
  6 27  1  0  0  0  0
  7 13  1  0  0  0  0
  7 16  1  0  0  0  0
  7 34  1  0  0  0  0
  8 16  2  0  0  0  0
  8 23  1  0  0  0  0
  9 10  1  0  0  0  0
  9 11  1  0  0  0  0
  9 12  1  0  0  0  0
  9 25  1  0  0  0  0
 10 13  1  0  0  0  0
 10 26  1  0  0  0  0
 11 29  1  0  0  0  0
 11 30  1  0  0  0  0
 11 31  1  0  0  0  0
 12 28  1  0  0  0  0
 12 32  1  0  0  0  0
 12 33  1  0  0  0  0
 14 15  2  0  0  0  0
 14 35  1  0  0  0  0
 15 17  1  0  0  0  0
 15 36  1  0  0  0  0
 17 18  2  0  0  0  0
 17 19  1  0  0  0  0
 18 20  1  0  0  0  0
 18 37  1  0  0  0  0
 19 21  2  0  0  0  0
 19 38  1  0  0  0  0
 20 24  2  0  0  0  0
 20 39  1  0  0  0  0
 21 24  1  0  0  0  0
 21 40  1  0  0  0  0
 22 23  2  0  0  0  0
 22 41  1  0  0  0  0
 23 42  1  0  0  0  0
 24 43  1  0  0  0  0
M  END
> <PUBCHEM_COMPOUND_CID>
17395530

> <PUBCHEM_COMPOUND_CANONICALIZED>
1

> <PUBCHEM_CACTVS_COMPLEXITY>
537

> <PUBCHEM_CACTVS_HBOND_ACCEPTOR>
6

> <PUBCHEM_CACTVS_HBOND_DONOR>
2

> <PUBCHEM_CACTVS_ROTATABLE_BOND>
7

> <PUBCHEM_CACTVS_SUBSKEYS>
AAADceB7MABgAAAAAAAAAAAAAAAAAWAAAAAwAAAAAAAAAAABwAAAHgQQQAAADSjF2gS/kZLIEAqsAjF3dHAC8KlxCjlJyI2YIIiIYDKAmRCUIAAokQIIiCcAgAAOAAAAAAAAAAAAAAAAAAAAAAAAAAAAAA==

> <PUBCHEM_IUPAC_OPENEYE_NAME>
3-methyl-2-[[(E)-styryl]sulfonylamino]-N-thiazol-2-yl-butanamide

> <PUBCHEM_IUPAC_CAS_NAME>
3-methyl-2-[[(E)-2-phenylethenyl]sulfonylamino]-N-(2-thiazolyl)butanamide

> <PUBCHEM_IUPAC_NAME>
3-methyl-2-[[(E)-2-phenylethenyl]sulfonylamino]-N-(1,3-thiazol-2-yl)butanamide

> <PUBCHEM_IUPAC_SYSTEMATIC_NAME>
3-methyl-2-[[(E)-2-phenylethenyl]sulfonylamino]-N-(1,3-thiazol-2-yl)butanamide

> <PUBCHEM_IUPAC_TRADITIONAL_NAME>
3-methyl-2-[[(E)-styryl]sulfonylamino]-N-thiazol-2-yl-butyramide

> <PUBCHEM_IUPAC_INCHI>
InChI=1S/C16H19N3O3S2/c1-12(2)14(15(20)18-16-17-9-10-23-16)19-24(21,22)11-8-13-6-4-3-5-7-13/h3-12,14,19H,1-2H3,(H,17,18,20)/b11-8+

> <PUBCHEM_IUPAC_INCHIKEY>
XXGGEHFNINDREB-DHZHZOJOSA-N

> <PUBCHEM_XLOGP3_AA>
2.9

> <PUBCHEM_EXACT_MASS>
365.086783

> <PUBCHEM_MOLECULAR_FORMULA>
C16H19N3O3S2

> <PUBCHEM_MOLECULAR_WEIGHT>
365.47036

> <PUBCHEM_OPENEYE_CAN_SMILES>
CC(C)C(C(=O)NC1=NC=CS1)NS(=O)(=O)C=CC2=CC=CC=C2

> <PUBCHEM_OPENEYE_ISO_SMILES>
CC(C)C(C(=O)NC1=NC=CS1)NS(=O)(=O)/C=C/C2=CC=CC=C2

> <PUBCHEM_CACTVS_TPSA>
125

> <PUBCHEM_MONOISOTOPIC_WEIGHT>
365.086783

> <PUBCHEM_TOTAL_CHARGE>
0

> <PUBCHEM_HEAVY_ATOM_COUNT>
24

> <PUBCHEM_ATOM_DEF_STEREO_COUNT>
0

> <PUBCHEM_ATOM_UDEF_STEREO_COUNT>
1

> <PUBCHEM_BOND_DEF_STEREO_COUNT>
1

> <PUBCHEM_BOND_UDEF_STEREO_COUNT>
0

> <PUBCHEM_ISOTOPIC_ATOM_COUNT>
0

> <PUBCHEM_COMPONENT_COUNT>
1

> <PUBCHEM_CACTVS_TAUTO_COUNT>
5

> <PUBCHEM_COORDINATE_TYPE>
1
5
255

> <PUBCHEM_BONDANNOTATIONS>
17  18  8
17  19  8
18  20  8
19  21  8
2  16  8
2  22  8
20  24  8
21  24  8
22  23  8
8  16  8
8  23  8
10  9  3

$$$$

