441995
  -OEChem-07051212563D

 47 49  0     1  0  0  0  0  0999 V2000
   -0.1214    0.7277    0.7682 O   0  0  0  0  0  0  0  0  0  0  0  0
   -1.7426    0.1241   -1.4569 N   0  0  0  0  0  0  0  0  0  0  0  0
    3.3831    0.1505   -2.0215 N   0  0  0  0  0  0  0  0  0  0  0  0
   -1.4335   -1.8164   -0.0686 C   0  0  1  0  0  0  0  0  0  0  0  0
   -0.7067   -0.7862   -0.9455 C   0  0  2  0  0  0  0  0  0  0  0  0
   -2.5613   -0.9677    0.5304 C   0  0  0  0  0  0  0  0  0  0  0  0
   -2.9358   -0.0034   -0.5972 C   0  0  1  0  0  0  0  0  0  0  0  0
   -2.0219   -2.9486   -0.9360 C   0  0  0  0  0  0  0  0  0  0  0  0
   -0.5636   -2.4393    0.9867 C   0  0  0  0  0  0  0  0  0  0  0  0
    0.2687    0.0897   -0.2112 C   0  0  0  0  0  0  0  0  0  0  0  0
   -3.4062    1.3154   -0.0809 C   0  0  0  0  0  0  0  0  0  0  0  0
    1.6637    0.1687   -0.6712 C   0  0  0  0  0  0  0  0  0  0  0  0
   -4.6622    1.6939    0.2225 C   0  0  0  0  0  0  0  0  0  0  0  0
   -0.9951   -2.7839    2.2047 C   0  0  0  0  0  0  0  0  0  0  0  0
    2.7984    0.4062    0.1163 C   0  0  0  0  0  0  0  0  0  0  0  0
    2.0219    0.0138   -1.9701 C   0  0  0  0  0  0  0  0  0  0  0  0
    3.8842    0.3909   -0.7618 C   0  0  0  0  0  0  0  0  0  0  0  0
   -5.0650    3.0455    0.7406 C   0  0  0  0  0  0  0  0  0  0  0  0
   -5.8083    0.7315    0.0513 C   0  0  0  0  0  0  0  0  0  0  0  0
    3.0370    0.6350    1.4859 C   0  0  0  0  0  0  0  0  0  0  0  0
    5.2020    0.5939   -0.3370 C   0  0  0  0  0  0  0  0  0  0  0  0
    4.3501    0.8396    1.9253 C   0  0  0  0  0  0  0  0  0  0  0  0
    5.4144    0.8190    1.0261 C   0  0  0  0  0  0  0  0  0  0  0  0
   -0.2132   -1.2906   -1.7819 H   0  0  0  0  0  0  0  0  0  0  0  0
   -2.2359   -0.4172    1.4229 H   0  0  0  0  0  0  0  0  0  0  0  0
   -3.4271   -1.5736    0.8258 H   0  0  0  0  0  0  0  0  0  0  0  0
   -3.7105   -0.4645   -1.2207 H   0  0  0  0  0  0  0  0  0  0  0  0
   -1.9923   -0.1519   -2.4069 H   0  0  0  0  0  0  0  0  0  0  0  0
   -2.6346   -3.6324   -0.3365 H   0  0  0  0  0  0  0  0  0  0  0  0
   -2.6552   -2.5691   -1.7449 H   0  0  0  0  0  0  0  0  0  0  0  0
   -1.2246   -3.5412   -1.4008 H   0  0  0  0  0  0  0  0  0  0  0  0
    0.4651   -2.6734    0.7222 H   0  0  0  0  0  0  0  0  0  0  0  0
   -2.6237    2.0549    0.0917 H   0  0  0  0  0  0  0  0  0  0  0  0
   -0.3137   -3.2547    2.9058 H   0  0  0  0  0  0  0  0  0  0  0  0
   -2.0148   -2.6274    2.5357 H   0  0  0  0  0  0  0  0  0  0  0  0
    1.4626   -0.1686   -2.8771 H   0  0  0  0  0  0  0  0  0  0  0  0
    3.9401    0.0873   -2.8624 H   0  0  0  0  0  0  0  0  0  0  0  0
   -4.2029    3.7142    0.8327 H   0  0  0  0  0  0  0  0  0  0  0  0
   -5.7823    3.5164    0.0609 H   0  0  0  0  0  0  0  0  0  0  0  0
   -5.5254    2.9549    1.7296 H   0  0  0  0  0  0  0  0  0  0  0  0
   -6.4255    0.7243    0.9569 H   0  0  0  0  0  0  0  0  0  0  0  0
   -6.4389    1.0469   -0.7865 H   0  0  0  0  0  0  0  0  0  0  0  0
   -5.5096   -0.3046   -0.1207 H   0  0  0  0  0  0  0  0  0  0  0  0
    2.2215    0.6521    2.2030 H   0  0  0  0  0  0  0  0  0  0  0  0
    6.0313    0.5779   -1.0362 H   0  0  0  0  0  0  0  0  0  0  0  0
    4.5402    1.0159    2.9807 H   0  0  0  0  0  0  0  0  0  0  0  0
    6.4263    0.9802    1.3892 H   0  0  0  0  0  0  0  0  0  0  0  0
  1 10  2  0  0  0  0
  2  5  1  0  0  0  0
  2  7  1  0  0  0  0
  2 28  1  0  0  0  0
  3 16  1  0  0  0  0
  3 17  1  0  0  0  0
  3 37  1  0  0  0  0
  4  5  1  0  0  0  0
  4  6  1  0  0  0  0
  4  8  1  0  0  0  0
  4  9  1  0  0  0  0
  5 10  1  0  0  0  0
  5 24  1  0  0  0  0
  6  7  1  0  0  0  0
  6 25  1  0  0  0  0
  6 26  1  0  0  0  0
  7 11  1  0  0  0  0
  7 27  1  0  0  0  0
  8 29  1  0  0  0  0
  8 30  1  0  0  0  0
  8 31  1  0  0  0  0
  9 14  2  0  0  0  0
  9 32  1  0  0  0  0
 10 12  1  0  0  0  0
 11 13  2  0  0  0  0
 11 33  1  0  0  0  0
 12 15  1  0  0  0  0
 12 16  2  0  0  0  0
 13 18  1  0  0  0  0
 13 19  1  0  0  0  0
 14 34  1  0  0  0  0
 14 35  1  0  0  0  0
 15 17  1  0  0  0  0
 15 20  2  0  0  0  0
 16 36  1  0  0  0  0
 17 21  2  0  0  0  0
 18 38  1  0  0  0  0
 18 39  1  0  0  0  0
 18 40  1  0  0  0  0
 19 41  1  0  0  0  0
 19 42  1  0  0  0  0
 19 43  1  0  0  0  0
 20 22  1  0  0  0  0
 20 44  1  0  0  0  0
 21 23  1  0  0  0  0
 21 45  1  0  0  0  0
 22 23  2  0  0  0  0
 22 46  1  0  0  0  0
 23 47  1  0  0  0  0
M  END
> <PUBCHEM_COMPOUND_CID>
441995

> <PUBCHEM_CONFORMER_RMSD>
0.8

> <PUBCHEM_CONFORMER_DIVERSEORDER>
1
50
57
54
78
37
24
82
35
19
84
36
68
76
67
58
15
56
28
41
71
59
87
43
40
70
80
51
75
29
48
31
23
2
32
73
18
79
33
81
22
30
3
55
83
53
69
4
16
86
10
12
62
52
63
11
74
65
77
9
47
85
44
45
14
27
66
34
21
49
38
20
7
46
17
13
26
39
42
6
60
5
25
64
8
61
72

> <PUBCHEM_MMFF94_PARTIAL_CHARGES>
31
1 -0.57
10 0.6
11 -0.29
12 -0.09
13 -0.28
14 -0.3
16 -0.3
17 -0.15
18 0.14
19 0.14
2 -0.9
20 -0.15
21 -0.15
22 -0.15
23 -0.15
28 0.36
3 0.03
32 0.15
33 0.15
34 0.15
35 0.15
36 0.15
37 0.27
4 0.14
44 0.15
45 0.15
46 0.15
47 0.15
5 0.33
7 0.41
9 -0.29

> <PUBCHEM_EFFECTIVE_ROTOR_COUNT>
5

> <PUBCHEM_PHARMACOPHORE_FEATURES>
10
1 1 acceptor
1 14 hydrophobe
1 2 cation
1 2 donor
1 3 cation
1 3 donor
3 13 18 19 hydrophobe
5 2 4 5 6 7 rings
5 3 12 15 16 17 rings
6 15 17 20 21 22 23 rings

> <PUBCHEM_HEAVY_ATOM_COUNT>
23

> <PUBCHEM_ATOM_DEF_STEREO_COUNT>
3

> <PUBCHEM_ATOM_UDEF_STEREO_COUNT>
0

> <PUBCHEM_BOND_DEF_STEREO_COUNT>
0

> <PUBCHEM_BOND_UDEF_STEREO_COUNT>
0

> <PUBCHEM_ISOTOPIC_ATOM_COUNT>
0

> <PUBCHEM_COMPONENT_COUNT>
1

> <PUBCHEM_CACTVS_TAUTO_COUNT>
5

> <PUBCHEM_CONFORMER_ID>
0006BE8B00000001

> <PUBCHEM_MMFF94_ENERGY>
55.3899

> <PUBCHEM_FEATURE_SELFOVERLAP>
50.836

> <PUBCHEM_SHAPE_FINGERPRINT>
10042902 136 10807632503258705345
10692045 39 18267308822970727074
11578080 2 15142396528199749331
11796584 16 18335132108305968118
12236239 1 17489588939443860076
12403259 118 17898310311724105792
12422481 6 17416700239127141536
12553582 1 16271662122082057374
12616971 3 16773806866379300740
12623949 98 13901612095491776681
12633257 1 18130511859640104260
12788726 201 17698701641838272451
13402501 40 17749395879182441144
13583140 156 17603587370501448422
14178342 30 18339646641944069462
14251757 17 17458344178026894913
14468879 13 17821729411994082831
14739800 52 18190191272458986281
15238133 3 18342171176882297292
15375358 24 17894349960639043476
15537594 2 16128375965699821626
15842332 3 17058920049145180406
173720 79 18202285810022080091
17980427 23 18128825144842693468
20554085 129 18338248153933173857
20645477 56 18113899342935347029
20645477 70 16081359778775080572
20681677 155 18201434753799567168
21033648 29 17604443894718222760
21267235 1 15267069190096506616
212916 134 18411704296132151177
21304303 64 15719389500155365859
21424621 283 18041553750055686561
22224240 67 18272929436903023345
22956985 138 17200239441298055987
23557571 272 18041841696967486422
23559900 14 18260822714205805006
25147074 1 17702939206610914590
2838139 119 17531538658160736057
2916195 48 18040439905979683513
3459 39 18267884915381791929
4340502 62 18201150044744267819
469060 322 18271230738404019449
495365 180 17386011706055590726
5283173 99 17894634751156660585
5385378 56 18197493133373364699
7226269 152 18334860532400680128
9862522 239 17845671355277937301

> <PUBCHEM_SHAPE_MULTIPOLES>
457.5
11.46
2.61
1.78
0.85
1.36
-0.14
-9.21
-2.02
-4.22
-1.08
1.57
0.48
-0.01

> <PUBCHEM_SHAPE_SELFOVERLAP>
985.902

> <PUBCHEM_SHAPE_VOLUME>
254.8

> <PUBCHEM_COORDINATE_TYPE>
2
5
10

$$$$

