442933
  -OEChem-07051213003D

 26 27  0     0  0  0  0  0  0999 V2000
   -0.9133    2.1340    0.1667 O   0  0  0  0  0  0  0  0  0  0  0  0
   -2.8537    0.2159   -0.1045 O   0  0  0  0  0  0  0  0  0  0  0  0
   -2.0590   -2.4162   -0.3536 O   0  0  0  0  0  0  0  0  0  0  0  0
    0.1700   -1.8853   -0.2234 N   0  0  0  0  0  0  0  0  0  0  0  0
    0.8651    0.4249    0.0909 C   0  0  0  0  0  0  0  0  0  0  0  0
    1.1906   -0.9323   -0.0653 C   0  0  0  0  0  0  0  0  0  0  0  0
   -0.5618    0.8009    0.0608 C   0  0  0  0  0  0  0  0  0  0  0  0
   -1.5170   -0.1308   -0.0784 C   0  0  0  0  0  0  0  0  0  0  0  0
    1.9160    1.3342    0.2820 C   0  0  0  0  0  0  0  0  0  0  0  0
   -1.1717   -1.5740   -0.2288 C   0  0  0  0  0  0  0  0  0  0  0  0
    2.5203   -1.3678   -0.0545 C   0  0  0  0  0  0  0  0  0  0  0  0
    3.2460    0.9008    0.2950 C   0  0  0  0  0  0  0  0  0  0  0  0
    3.5480   -0.4470    0.1237 C   0  0  0  0  0  0  0  0  0  0  0  0
   -0.9807    2.7353   -1.1105 C   0  0  0  0  0  0  0  0  0  0  0  0
   -3.3986    0.2073    1.2000 C   0  0  0  0  0  0  0  0  0  0  0  0
    0.4403   -2.8591   -0.3289 H   0  0  0  0  0  0  0  0  0  0  0  0
    1.7146    2.3937    0.4211 H   0  0  0  0  0  0  0  0  0  0  0  0
    2.7629   -2.4200   -0.1788 H   0  0  0  0  0  0  0  0  0  0  0  0
    4.0463    1.6211    0.4401 H   0  0  0  0  0  0  0  0  0  0  0  0
    4.5818   -0.7792    0.1345 H   0  0  0  0  0  0  0  0  0  0  0  0
   -1.7651    2.2821   -1.7266 H   0  0  0  0  0  0  0  0  0  0  0  0
   -0.0201    2.6864   -1.6348 H   0  0  0  0  0  0  0  0  0  0  0  0
   -1.2329    3.7915   -0.9750 H   0  0  0  0  0  0  0  0  0  0  0  0
   -2.9158    0.9527    1.8415 H   0  0  0  0  0  0  0  0  0  0  0  0
   -3.3245   -0.7852    1.6582 H   0  0  0  0  0  0  0  0  0  0  0  0
   -4.4596    0.4648    1.1273 H   0  0  0  0  0  0  0  0  0  0  0  0
  1  7  1  0  0  0  0
  1 14  1  0  0  0  0
  2  8  1  0  0  0  0
  2 15  1  0  0  0  0
  3 10  2  0  0  0  0
  4  6  1  0  0  0  0
  4 10  1  0  0  0  0
  4 16  1  0  0  0  0
  5  6  1  0  0  0  0
  5  7  1  0  0  0  0
  5  9  2  0  0  0  0
  6 11  2  0  0  0  0
  7  8  2  0  0  0  0
  8 10  1  0  0  0  0
  9 12  1  0  0  0  0
  9 17  1  0  0  0  0
 11 13  1  0  0  0  0
 11 18  1  0  0  0  0
 12 13  2  0  0  0  0
 12 19  1  0  0  0  0
 13 20  1  0  0  0  0
 14 21  1  0  0  0  0
 14 22  1  0  0  0  0
 14 23  1  0  0  0  0
 15 24  1  0  0  0  0
 15 25  1  0  0  0  0
 15 26  1  0  0  0  0
M  END
> <PUBCHEM_COMPOUND_CID>
442933

> <PUBCHEM_CONFORMER_RMSD>
0.6

> <PUBCHEM_CONFORMER_DIVERSEORDER>
1
2

> <PUBCHEM_MMFF94_PARTIAL_CHARGES>
20
1 -0.36
10 0.62
11 -0.15
12 -0.15
13 -0.15
14 0.28
15 0.28
16 0.37
17 0.15
18 0.15
19 0.15
2 -0.36
20 0.15
3 -0.57
4 -0.55
5 0.03
6 0.12
7 0.05
8 0.09
9 -0.15

> <PUBCHEM_EFFECTIVE_ROTOR_COUNT>
2

> <PUBCHEM_PHARMACOPHORE_FEATURES>
6
1 1 acceptor
1 2 acceptor
1 3 acceptor
1 4 donor
6 4 5 6 7 8 10 rings
6 5 6 9 11 12 13 rings

> <PUBCHEM_HEAVY_ATOM_COUNT>
15

> <PUBCHEM_ATOM_DEF_STEREO_COUNT>
0

> <PUBCHEM_ATOM_UDEF_STEREO_COUNT>
0

> <PUBCHEM_BOND_DEF_STEREO_COUNT>
0

> <PUBCHEM_BOND_UDEF_STEREO_COUNT>
0

> <PUBCHEM_ISOTOPIC_ATOM_COUNT>
0

> <PUBCHEM_COMPONENT_COUNT>
1

> <PUBCHEM_CACTVS_TAUTO_COUNT>
2

> <PUBCHEM_CONFORMER_ID>
0006C23500000001

> <PUBCHEM_MMFF94_ENERGY>
53.3694

> <PUBCHEM_FEATURE_SELFOVERLAP>
30.481

> <PUBCHEM_SHAPE_FINGERPRINT>
10967382 1 18409450305911596554
11132069 177 18334863792338249744
11206711 2 18267024040657740604
12251169 10 18334289859831712218
12382932 28 18335983073394618578
12524768 44 18408882932010108591
13140716 1 18337954489343398466
13172582 1 18410283692886541217
13221675 6 18410854382371211786
13380535 21 18335128765998140718
13897977 150 18335145237070957968
14790565 3 14885086287632961631
15490181 7 18267875062684142418
15775835 57 18335696122677405816
16945 1 18410580621124012230
17844478 74 18272643584420883425
193761 8 17689716784681053927
19868273 325 18268716012974909668
20510252 161 18188773975768449336
20588541 1 18334853926529481638
21501502 16 18335704875831538306
22959321 45 18339634551753088064
23184049 59 18337659880636096017
2334 1 18193841431497467966
23388829 49 17686347464331035431
23402539 116 18335433373710691647
23463225 33 18339642239639085290
23493267 7 17632019761916766361
23559900 14 17900541478984704710
241688 4 18339368443910932347
25 1 17260478487458586364
2748010 2 18265055734476604222
45790113 53 18194400215374751794
5255222 1 18335991916990932176
528886 8 18335989687718237314
6992083 37 18336817598847106881
81228 2 18341057341026593841
8809292 202 18412823582106330362
90316 7 18127438698960584040

> <PUBCHEM_SHAPE_MULTIPOLES>
286.1
4.99
2.5
0.81
1.13
0.45
0.04
-0.31
1.12
-0.87
-0.71
-0.4
0.22
0.17

> <PUBCHEM_SHAPE_SELFOVERLAP>
616.108

> <PUBCHEM_SHAPE_VOLUME>
156.8

> <PUBCHEM_COORDINATE_TYPE>
2
5
10

$$$$

