234905
  -OEChem-07051213072D

 60 63  0     1  0  0  0  0  0999 V2000
    2.8949   -2.6192    0.0000 O   0  0  0  0  0  0  0  0  0  0  0  0
    3.7295    5.1090    0.0000 O   0  0  0  0  0  0  0  0  0  0  0  0
    3.7435   -4.1291    0.0000 O   0  0  0  0  0  0  0  0  0  0  0  0
    4.6487    0.4123    0.0000 C   0  0  1  0  0  0  0  0  0  0  0  0
    4.6487   -0.5877    0.0000 C   0  0  1  0  0  0  0  0  0  0  0  0
    3.7827   -1.0877    0.0000 C   0  0  2  0  0  0  0  0  0  0  0  0
    3.7827    0.9123    0.0000 C   0  0  1  0  0  0  0  0  0  0  0  0
    3.7666    1.9538    0.0000 C   0  0  2  0  0  0  0  0  0  0  0  0
    2.9167   -0.5877    0.0000 C   0  0  0  0  0  0  0  0  0  0  0  0
    2.9167    0.4123    0.0000 C   0  0  0  0  0  0  0  0  0  0  0  0
    3.7666   -2.1292    0.0000 C   0  0  2  0  0  0  0  0  0  0  0  0
    5.5587    0.9191    0.0000 C   0  0  0  0  0  0  0  0  0  0  0  0
    5.5587   -1.0946    0.0000 C   0  0  0  0  0  0  0  0  0  0  0  0
    4.6647    2.4815    0.0000 C   0  0  0  0  0  0  0  0  0  0  0  0
    5.5667    1.9607    0.0000 C   0  0  0  0  0  0  0  0  0  0  0  0
    4.6647   -2.6570    0.0000 C   0  0  0  0  0  0  0  0  0  0  0  0
    5.5667   -2.1362    0.0000 C   0  0  0  0  0  0  0  0  0  0  0  0
    2.9167   -1.5877    0.0000 C   0  0  0  0  0  0  0  0  0  0  0  0
    2.8147    2.4744    0.0000 C   0  0  0  0  0  0  0  0  0  0  0  0
    2.9045    1.4471    0.0000 C   0  0  0  0  0  0  0  0  0  0  0  0
    2.7980    3.5593    0.0000 C   0  0  0  0  0  0  0  0  0  0  0  0
    4.6730    3.5665    0.0000 C   0  0  0  0  0  0  0  0  0  0  0  0
    3.7334    4.1090    0.0000 C   0  0  0  0  0  0  0  0  0  0  0  0
    2.8833   -3.6191    0.0000 C   0  0  0  0  0  0  0  0  0  0  0  0
    2.0116   -4.1091    0.0000 C   0  0  0  0  0  0  0  0  0  0  0  0
    2.0000   -5.1090    0.0000 C   0  0  0  0  0  0  0  0  0  0  0  0
    5.3815   -0.0184    0.0000 H   0  0  0  0  0  0  0  0  0  0  0  0
    5.3815   -0.1571    0.0000 H   0  0  0  0  0  0  0  0  0  0  0  0
    3.0433    1.3316    0.0000 H   0  0  0  0  0  0  0  0  0  0  0  0
    2.3061   -0.4801    0.0000 H   0  0  0  0  0  0  0  0  0  0  0  0
    2.7046   -1.1703    0.0000 H   0  0  0  0  0  0  0  0  0  0  0  0
    2.7046    0.9949    0.0000 H   0  0  0  0  0  0  0  0  0  0  0  0
    2.3061    0.3046    0.0000 H   0  0  0  0  0  0  0  0  0  0  0  0
    3.7606   -2.7492    0.0000 H   0  0  0  0  0  0  0  0  0  0  0  0
    5.7633    0.3338    0.0000 H   0  0  0  0  0  0  0  0  0  0  0  0
    6.1704    1.0205    0.0000 H   0  0  0  0  0  0  0  0  0  0  0  0
    6.1704   -1.1959    0.0000 H   0  0  0  0  0  0  0  0  0  0  0  0
    5.7633   -0.5093    0.0000 H   0  0  0  0  0  0  0  0  0  0  0  0
    6.1768    1.8499    0.0000 H   0  0  0  0  0  0  0  0  0  0  0  0
    5.7803    2.5428    0.0000 H   0  0  0  0  0  0  0  0  0  0  0  0
    4.2637   -3.1299    0.0000 H   0  0  0  0  0  0  0  0  0  0  0  0
    5.0620   -3.1330    0.0000 H   0  0  0  0  0  0  0  0  0  0  0  0
    5.7803   -2.7182    0.0000 H   0  0  0  0  0  0  0  0  0  0  0  0
    6.1768   -2.0254    0.0000 H   0  0  0  0  0  0  0  0  0  0  0  0
    2.6067   -1.0508    0.0000 H   0  0  0  0  0  0  0  0  0  0  0  0
    2.3797   -1.8977    0.0000 H   0  0  0  0  0  0  0  0  0  0  0  0
    3.2267   -2.1246    0.0000 H   0  0  0  0  0  0  0  0  0  0  0  0
    2.2023    2.5711    0.0000 H   0  0  0  0  0  0  0  0  0  0  0  0
    2.6147    1.8876    0.0000 H   0  0  0  0  0  0  0  0  0  0  0  0
    2.5904    1.9817    0.0000 H   0  0  0  0  0  0  0  0  0  0  0  0
    2.3699    1.1330    0.0000 H   0  0  0  0  0  0  0  0  0  0  0  0
    3.2186    0.9126    0.0000 H   0  0  0  0  0  0  0  0  0  0  0  0
    2.5799    4.1397    0.0000 H   0  0  0  0  0  0  0  0  0  0  0  0
    2.1888    3.4438    0.0000 H   0  0  0  0  0  0  0  0  0  0  0  0
    5.2112    3.8744    0.0000 H   0  0  0  0  0  0  0  0  0  0  0  0
    1.8063   -3.5240    0.0000 H   0  0  0  0  0  0  0  0  0  0  0  0
    1.3998   -4.2097    0.0000 H   0  0  0  0  0  0  0  0  0  0  0  0
    1.3800   -5.1018    0.0000 H   0  0  0  0  0  0  0  0  0  0  0  0
    1.9928   -5.7290    0.0000 H   0  0  0  0  0  0  0  0  0  0  0  0
    2.6200   -5.1162    0.0000 H   0  0  0  0  0  0  0  0  0  0  0  0
 11  1  1  6  0  0  0
  1 24  1  0  0  0  0
  2 23  2  0  0  0  0
  3 24  2  0  0  0  0
  4  5  1  0  0  0  0
  4  7  1  0  0  0  0
  4 12  1  0  0  0  0
  4 27  1  6  0  0  0
  5  6  1  0  0  0  0
  5 13  1  0  0  0  0
  5 28  1  1  0  0  0
  6  9  1  0  0  0  0
  6 11  1  0  0  0  0
  6 18  1  6  0  0  0
  7  8  1  0  0  0  0
  7 10  1  0  0  0  0
  7 29  1  1  0  0  0
  8 14  1  0  0  0  0
  8 19  1  0  0  0  0
  8 20  1  6  0  0  0
  9 10  1  0  0  0  0
  9 30  1  0  0  0  0
  9 31  1  0  0  0  0
 10 32  1  0  0  0  0
 10 33  1  0  0  0  0
 11 16  1  0  0  0  0
 11 34  1  0  0  0  0
 12 15  1  0  0  0  0
 12 35  1  0  0  0  0
 12 36  1  0  0  0  0
 13 17  1  0  0  0  0
 13 37  1  0  0  0  0
 13 38  1  0  0  0  0
 14 15  1  0  0  0  0
 14 22  2  0  0  0  0
 15 39  1  0  0  0  0
 15 40  1  0  0  0  0
 16 17  1  0  0  0  0
 16 41  1  0  0  0  0
 16 42  1  0  0  0  0
 17 43  1  0  0  0  0
 17 44  1  0  0  0  0
 18 45  1  0  0  0  0
 18 46  1  0  0  0  0
 18 47  1  0  0  0  0
 19 21  1  0  0  0  0
 19 48  1  0  0  0  0
 19 49  1  0  0  0  0
 20 50  1  0  0  0  0
 20 51  1  0  0  0  0
 20 52  1  0  0  0  0
 21 23  1  0  0  0  0
 21 53  1  0  0  0  0
 21 54  1  0  0  0  0
 22 23  1  0  0  0  0
 22 55  1  0  0  0  0
 24 25  1  0  0  0  0
 25 26  1  0  0  0  0
 25 56  1  0  0  0  0
 25 57  1  0  0  0  0
 26 58  1  0  0  0  0
 26 59  1  0  0  0  0
 26 60  1  0  0  0  0
M  END
> <PUBCHEM_COMPOUND_CID>
234905

> <PUBCHEM_COMPOUND_CANONICALIZED>
1

> <PUBCHEM_CACTVS_COMPLEXITY>
635

> <PUBCHEM_CACTVS_HBOND_ACCEPTOR>
3

> <PUBCHEM_CACTVS_HBOND_DONOR>
0

> <PUBCHEM_CACTVS_ROTATABLE_BOND>
3

> <PUBCHEM_CACTVS_SUBSKEYS>
AAADcfB4MAAAAAAAAAAAAAAAAAAAAAAAAAAwYMEAAAAAAADAAAAAGgAAAAAADxSggAICCAAABACIAqDSCAAAAAAgAAAACAEAAEgAABIAAQACAAAEgAAIAQOIyPCPgAAAAAAAAACAAAYAADAAAAAAAAAAAA==

> <PUBCHEM_IUPAC_OPENEYE_NAME>
[(1S,4aS,4bR,10aR,10bS,12aS)-10a,12a-dimethyl-8-oxo-2,3,4,4a,4b,5,6,9,10,10b,11,12-dodecahydro-1H-chrysen-1-yl] propanoate

> <PUBCHEM_IUPAC_CAS_NAME>
propanoic acid [(1S,4aS,4bR,10aR,10bS,12aS)-10a,12a-dimethyl-8-oxo-2,3,4,4a,4b,5,6,9,10,10b,11,12-dodecahydro-1H-chrysen-1-yl] ester

> <PUBCHEM_IUPAC_NAME>
[(1S,4aS,4bR,10aR,10bS,12aS)-10a,12a-dimethyl-8-oxo-2,3,4,4a,4b,5,6,9,10,10b,11,12-dodecahydro-1H-chrysen-1-yl] propanoate

> <PUBCHEM_IUPAC_SYSTEMATIC_NAME>
[(1S,4aS,4bR,10aR,10bS,12aS)-10a,12a-dimethyl-8-oxidanylidene-2,3,4,4a,4b,5,6,9,10,10b,11,12-dodecahydro-1H-chrysen-1-yl] propanoate

> <PUBCHEM_IUPAC_TRADITIONAL_NAME>
propionic acid [(1S,4aS,4bR,10aR,10bS,12aS)-8-keto-10a,12a-dimethyl-2,3,4,4a,4b,5,6,9,10,10b,11,12-dodecahydro-1H-chrysen-1-yl] ester

> <PUBCHEM_IUPAC_INCHI>
InChI=1S/C23H34O3/c1-4-21(25)26-20-7-5-6-18-17-9-8-15-14-16(24)10-12-22(15,2)19(17)11-13-23(18,20)3/h14,17-20H,4-13H2,1-3H3/t17-,18-,19-,20-,22-,23-/m0/s1

> <PUBCHEM_IUPAC_INCHIKEY>
VBXGBFDLNSIXQO-WAUHAFJUSA-N

> <PUBCHEM_XLOGP3>
4.9

> <PUBCHEM_EXACT_MASS>
358.250795

> <PUBCHEM_MOLECULAR_FORMULA>
C23H34O3

> <PUBCHEM_MOLECULAR_WEIGHT>
358.51426

> <PUBCHEM_OPENEYE_CAN_SMILES>
CCC(=O)OC1CCCC2C1(CCC3C2CCC4=CC(=O)CCC34C)C

> <PUBCHEM_OPENEYE_ISO_SMILES>
CCC(=O)O[C@H]1CCC[C@@H]2[C@@]1(CC[C@H]3[C@H]2CCC4=CC(=O)CC[C@]34C)C

> <PUBCHEM_CACTVS_TPSA>
43.4

> <PUBCHEM_MONOISOTOPIC_WEIGHT>
358.250795

> <PUBCHEM_TOTAL_CHARGE>
0

> <PUBCHEM_HEAVY_ATOM_COUNT>
26

> <PUBCHEM_ATOM_DEF_STEREO_COUNT>
6

> <PUBCHEM_ATOM_UDEF_STEREO_COUNT>
0

> <PUBCHEM_BOND_DEF_STEREO_COUNT>
0

> <PUBCHEM_BOND_UDEF_STEREO_COUNT>
0

> <PUBCHEM_ISOTOPIC_ATOM_COUNT>
0

> <PUBCHEM_COMPONENT_COUNT>
1

> <PUBCHEM_CACTVS_TAUTO_COUNT>
5

> <PUBCHEM_COORDINATE_TYPE>
1
5
255

> <PUBCHEM_BONDANNOTATIONS>
11  1  6
4  27  6
5  28  5
6  18  6
7  29  5
8  20  6

$$$$

