4488
  -OEChem-07051213043D

 29 30  0     0  0  0  0  0  0999 V2000
   -4.9131    0.6486    0.5146 F   0  0  0  0  0  0  0  0  0  0  0  0
   -3.3529    1.0808    1.9654 F   0  0  0  0  0  0  0  0  0  0  0  0
   -3.3703    2.1163    0.0474 F   0  0  0  0  0  0  0  0  0  0  0  0
    4.7106   -1.3203    0.8489 O   0  0  0  0  0  0  0  0  0  0  0  0
    2.6020   -1.9688    1.3961 O   0  0  0  0  0  0  0  0  0  0  0  0
    0.8526   -0.9193   -0.4558 N   0  0  0  0  0  0  0  0  0  0  0  0
    1.3144    1.3212   -1.0794 N   0  0  0  0  0  0  0  0  0  0  0  0
   -0.5529   -1.0327   -0.4925 C   0  0  0  0  0  0  0  0  0  0  0  0
   -2.7383   -0.1479    0.0352 C   0  0  0  0  0  0  0  0  0  0  0  0
   -1.3483   -0.0361    0.0729 C   0  0  0  0  0  0  0  0  0  0  0  0
    1.7199    0.1902   -0.4503 C   0  0  0  0  0  0  0  0  0  0  0  0
   -1.1474   -2.1409   -1.0958 C   0  0  0  0  0  0  0  0  0  0  0  0
   -3.3326   -1.2563   -0.5681 C   0  0  0  0  0  0  0  0  0  0  0  0
    2.9452    0.0718    0.1953 C   0  0  0  0  0  0  0  0  0  0  0  0
   -2.5373   -2.2528   -1.1336 C   0  0  0  0  0  0  0  0  0  0  0  0
   -3.5893    0.9168    0.6398 C   0  0  0  0  0  0  0  0  0  0  0  0
    3.7976    1.1703    0.1951 C   0  0  0  0  0  0  0  0  0  0  0  0
    3.4100    2.3441   -0.4416 C   0  0  0  0  0  0  0  0  0  0  0  0
    2.1697    2.3679   -1.0586 C   0  0  0  0  0  0  0  0  0  0  0  0
    3.3606   -1.1530    0.8651 C   0  0  0  0  0  0  0  0  0  0  0  0
   -0.8989    0.8273    0.5575 H   0  0  0  0  0  0  0  0  0  0  0  0
    1.3310   -1.7996   -0.6282 H   0  0  0  0  0  0  0  0  0  0  0  0
   -0.5392   -2.9241   -1.5412 H   0  0  0  0  0  0  0  0  0  0  0  0
   -4.4130   -1.3631   -0.6085 H   0  0  0  0  0  0  0  0  0  0  0  0
   -3.0000   -3.1157   -1.6036 H   0  0  0  0  0  0  0  0  0  0  0  0
    4.7636    1.1469    0.6923 H   0  0  0  0  0  0  0  0  0  0  0  0
    4.0566    3.2140   -0.4520 H   0  0  0  0  0  0  0  0  0  0  0  0
    1.8198    3.2598   -1.5680 H   0  0  0  0  0  0  0  0  0  0  0  0
    4.9815   -2.1473    1.3016 H   0  0  0  0  0  0  0  0  0  0  0  0
  1 16  1  0  0  0  0
  2 16  1  0  0  0  0
  3 16  1  0  0  0  0
  4 20  1  0  0  0  0
  4 29  1  0  0  0  0
  5 20  2  0  0  0  0
  6  8  1  0  0  0  0
  6 11  1  0  0  0  0
  6 22  1  0  0  0  0
  7 11  1  0  0  0  0
  7 19  2  0  0  0  0
  8 10  1  0  0  0  0
  8 12  2  0  0  0  0
  9 10  2  0  0  0  0
  9 13  1  0  0  0  0
  9 16  1  0  0  0  0
 10 21  1  0  0  0  0
 11 14  2  0  0  0  0
 12 15  1  0  0  0  0
 12 23  1  0  0  0  0
 13 15  2  0  0  0  0
 13 24  1  0  0  0  0
 14 17  1  0  0  0  0
 14 20  1  0  0  0  0
 15 25  1  0  0  0  0
 17 18  2  0  0  0  0
 17 26  1  0  0  0  0
 18 19  1  0  0  0  0
 18 27  1  0  0  0  0
 19 28  1  0  0  0  0
M  END
> <PUBCHEM_COMPOUND_CID>
4488

> <PUBCHEM_CONFORMER_RMSD>
0.6

> <PUBCHEM_CONFORMER_DIVERSEORDER>
1
17
22
2
20
24
9
6
10
19
21
14
23
13
18
15
16
12
7
5
8
11
4
3

> <PUBCHEM_MMFF94_PARTIAL_CHARGES>
29
1 -0.34
10 -0.15
11 0.41
12 -0.15
13 -0.15
14 0.09
15 -0.15
16 1.16
17 -0.15
18 -0.15
19 0.16
2 -0.34
20 0.63
21 0.15
22 0.4
23 0.15
24 0.15
25 0.15
26 0.15
27 0.15
28 0.15
29 0.5
3 -0.34
4 -0.65
5 -0.57
6 -0.6
7 -0.62
8 0.1
9 -0.14

> <PUBCHEM_EFFECTIVE_ROTOR_COUNT>
4

> <PUBCHEM_PHARMACOPHORE_FEATURES>
8
1 4 acceptor
1 5 acceptor
1 6 cation
1 6 donor
1 7 acceptor
3 4 5 20 anion
6 7 11 14 17 18 19 rings
6 8 9 10 12 13 15 rings

> <PUBCHEM_HEAVY_ATOM_COUNT>
20

> <PUBCHEM_ATOM_DEF_STEREO_COUNT>
0

> <PUBCHEM_ATOM_UDEF_STEREO_COUNT>
0

> <PUBCHEM_BOND_DEF_STEREO_COUNT>
0

> <PUBCHEM_BOND_UDEF_STEREO_COUNT>
0

> <PUBCHEM_ISOTOPIC_ATOM_COUNT>
0

> <PUBCHEM_COMPONENT_COUNT>
1

> <PUBCHEM_CACTVS_TAUTO_COUNT>
3

> <PUBCHEM_CONFORMER_ID>
0000118800000001

> <PUBCHEM_MMFF94_ENERGY>
64.7518

> <PUBCHEM_FEATURE_SELFOVERLAP>
40.652

> <PUBCHEM_SHAPE_FINGERPRINT>
10062212 137 18334864887502506871
10382601 240 18059862723397703944
10465860 228 18342456994133825380
10646746 165 17822572699100908952
11578080 2 17976016164906598576
11640471 11 18335690603333421400
12107183 9 18193842767369382570
12236239 1 18409452457653444490
12251169 10 18412828018390497311
12553582 1 18058184984565470842
12670546 56 18335148539879605804
12788726 201 17971759865644335039
13583140 156 17846217817099685699
13965767 371 18264197174703970040
14178342 30 18053395309955898362
14739800 52 17679036911056991136
14790565 3 17914325772346138732
14957384 54 18200042879173865045
15442244 35 18411706482576453526
15527383 91 18059858398143753000
15669948 3 17969505905176704655
16752209 62 17822861861884729855
1741750 31 17894621561528196903
17492 89 18409729517362356638
17818456 19 18113617940835988930
1813 80 17987512779504968134
19078846 21 18341896329087012462
201361 129 18270118998866291996
20233049 118 17894630327567192816
20261772 1 18411979186845194052
20510252 161 17896310329773792559
20600515 1 17313103077143568304
20715895 44 17977104884083458609
20739085 24 18131632292565060860
21065198 48 18338801108896258382
21427221 339 18410009974599629130
21503847 285 18341890805759043722
21524375 3 18187362160247251911
21665062 11 18343294864696314092
2255824 54 18201722795881701734
23184049 59 18341613754234703054
23557571 272 16443620191157066455
23559900 14 17531235193552369894
23598288 3 18188492359385066943
23598291 2 18411424973161182262
2838139 119 17986126304180398901
312423 11 18340483357328731878
38570 142 17984390011715744332
474 4 17914899738388740740
5104073 3 18410577240800212666
633830 44 18127119785180930100
7064713 232 18114741646094060993
7097593 13 18341059596148343610
7615 1 18336555906099520990
7832392 63 18409729522025692532
84936 182 18048600318225377608
9981440 41 17476368201553137584

> <PUBCHEM_SHAPE_MULTIPOLES>
368.07
8.87
2.61
1.21
0.85
0.23
-0.23
1.79
-2.24
-0.44
0.32
0.19
-0.07
-2.52

> <PUBCHEM_SHAPE_SELFOVERLAP>
799.121

> <PUBCHEM_SHAPE_VOLUME>
200.5

> <PUBCHEM_COORDINATE_TYPE>
2
5
10

$$$$

