194695
  -OEChem-07051212483D

 24 23  0     1  0  0  0  0  0999 V2000
    2.7287   -1.8246    0.3191 O   0  0  0  0  0  0  0  0  0  0  0  0
    3.7579   -0.6065   -1.2948 O   0  0  0  0  0  0  0  0  0  0  0  0
   -2.1535   -1.4506    0.4617 O   0  0  0  0  0  0  0  0  0  0  0  0
   -4.5388   -0.7778   -0.0155 O   0  0  0  0  0  0  0  0  0  0  0  0
   -3.8696    1.3607   -0.5090 O   0  0  0  0  0  0  0  0  0  0  0  0
    3.7482    1.5541    0.3746 N   0  0  0  0  0  0  0  0  0  0  0  0
    1.3466    1.1140    0.1380 C   0  0  0  0  0  0  0  0  0  0  0  0
    0.2105    0.1024    0.3287 C   0  0  0  0  0  0  0  0  0  0  0  0
    2.7064    0.5498    0.5744 C   0  0  1  0  0  0  0  0  0  0  0  0
   -1.1412    0.7112   -0.0410 C   0  0  0  0  0  0  0  0  0  0  0  0
    3.1221   -0.6545   -0.2498 C   0  0  0  0  0  0  0  0  0  0  0  0
   -2.2661   -0.2859    0.1102 C   0  0  0  0  0  0  0  0  0  0  0  0
   -3.6511    0.2078   -0.1968 C   0  0  0  0  0  0  0  0  0  0  0  0
    1.3823    1.4080   -0.9194 H   0  0  0  0  0  0  0  0  0  0  0  0
    1.1262    2.0203    0.7166 H   0  0  0  0  0  0  0  0  0  0  0  0
    0.1889   -0.2407    1.3705 H   0  0  0  0  0  0  0  0  0  0  0  0
    0.3819   -0.7818   -0.2960 H   0  0  0  0  0  0  0  0  0  0  0  0
    2.6921    0.2755    1.6350 H   0  0  0  0  0  0  0  0  0  0  0  0
   -1.1250    1.0513   -1.0823 H   0  0  0  0  0  0  0  0  0  0  0  0
   -1.3512    1.5677    0.6090 H   0  0  0  0  0  0  0  0  0  0  0  0
    3.8072    1.8117   -0.6098 H   0  0  0  0  0  0  0  0  0  0  0  0
    4.6571    1.1728    0.6334 H   0  0  0  0  0  0  0  0  0  0  0  0
    3.0080   -2.6008   -0.2116 H   0  0  0  0  0  0  0  0  0  0  0  0
   -5.4597   -0.4847   -0.1839 H   0  0  0  0  0  0  0  0  0  0  0  0
  1 11  1  0  0  0  0
  1 23  1  0  0  0  0
  2 11  2  0  0  0  0
  3 12  2  0  0  0  0
  4 13  1  0  0  0  0
  4 24  1  0  0  0  0
  5 13  2  0  0  0  0
  6  9  1  0  0  0  0
  6 21  1  0  0  0  0
  6 22  1  0  0  0  0
  7  8  1  0  0  0  0
  7  9  1  0  0  0  0
  7 14  1  0  0  0  0
  7 15  1  0  0  0  0
  8 10  1  0  0  0  0
  8 16  1  0  0  0  0
  8 17  1  0  0  0  0
  9 11  1  0  0  0  0
  9 18  1  0  0  0  0
 10 12  1  0  0  0  0
 10 19  1  0  0  0  0
 10 20  1  0  0  0  0
 12 13  1  0  0  0  0
M  END
> <PUBCHEM_COMPOUND_CID>
194695

> <PUBCHEM_CONFORMER_RMSD>
0.6

> <PUBCHEM_CONFORMER_DIVERSEORDER>
1
98
19
104
50
86
94
97
4
59
16
51
2
28
43
96
87
15
100
35
75
77
24
99
64
40
34
103
70
5
10
93
21
85
9
38
8
74
79
48
20
42
36
41
53
47
11
55
101
44
14
83
102
90
72
69
71
3
26
12
92
54
89
27
46
23
33
76
49
80
81
62
18
7
61
66
29
73
45
82
84
22
39
25
37
91
13
57
52
63
88
67
58
17
30
78
56
95
31
68
6
32
65
60

> <PUBCHEM_MMFF94_PARTIAL_CHARGES>
15
1 -0.65
10 0.06
11 0.66
12 0.51
13 0.72
2 -0.57
21 0.36
22 0.36
23 0.5
24 0.5
3 -0.57
4 -0.65
5 -0.57
6 -0.99
9 0.33

> <PUBCHEM_EFFECTIVE_ROTOR_COUNT>
6

> <PUBCHEM_PHARMACOPHORE_FEATURES>
9
1 1 acceptor
1 2 acceptor
1 3 acceptor
1 4 acceptor
1 5 acceptor
1 6 cation
1 6 donor
3 1 2 11 anion
3 4 5 13 anion

> <PUBCHEM_HEAVY_ATOM_COUNT>
13

> <PUBCHEM_ATOM_DEF_STEREO_COUNT>
1

> <PUBCHEM_ATOM_UDEF_STEREO_COUNT>
0

> <PUBCHEM_BOND_DEF_STEREO_COUNT>
0

> <PUBCHEM_BOND_UDEF_STEREO_COUNT>
0

> <PUBCHEM_ISOTOPIC_ATOM_COUNT>
0

> <PUBCHEM_COMPONENT_COUNT>
1

> <PUBCHEM_CACTVS_TAUTO_COUNT>
2

> <PUBCHEM_CONFORMER_ID>
0002F88700000001

> <PUBCHEM_MMFF94_ENERGY>
12.2971

> <PUBCHEM_FEATURE_SELFOVERLAP>
45.798

> <PUBCHEM_SHAPE_FINGERPRINT>
10751810 167 17917705816532272521
12616999 72 17917985088423083350
12932764 1 17060351707604863729
13296908 3 18408886221954855945
14144814 61 18413110580178537369
14252887 29 17676483965152341538
14325111 11 18410577279602532745
15375358 24 18341336600074298088
177051 138 17894629261934962804
17834072 8 18336548325909660941
17834074 16 18411981321649551595
18186145 218 18408884066013304625
190213 19 17822013116042898241
1986462 14 18343584057976668837
20201158 50 18336261323051661586
20279233 1 18342175544583890890
20523700 14 18130498687070384958
20645477 56 18271811190132250689
20645477 70 18113897173897858462
20671657 53 18187638158971627592
22485316 2 18334299751331272733
23402655 69 18334015003505398332
23557571 272 17561093522636896268
23559900 14 18409453609042212120
449060 50 18335423400564943752
522135 26 18411419535489608746
581208 293 18335145263157155992
93112 12 18412544301530502885
94968 8 18334851745229544318
9709674 26 18339359656518958667

> <PUBCHEM_SHAPE_MULTIPOLES>
233.21
8.82
1.48
0.77
3.39
0.15
-0.11
0.32
-1.14
-0.63
0.1
-0.43
0.05
0.65

> <PUBCHEM_SHAPE_SELFOVERLAP>
452.246

> <PUBCHEM_SHAPE_VOLUME>
139.4

> <PUBCHEM_COORDINATE_TYPE>
2
5
10

$$$$

