854350
  -OEChem-06241222482D

 32 34  0     0  0  0  0  0  0999 V2000
    6.3301   -2.2500    0.0000 O   0  0  0  0  0  0  0  0  0  0  0  0
    5.4641   -0.7500    0.0000 N   0  0  0  0  0  0  0  0  0  0  0  0
    6.3301    0.7500    0.0000 N   0  0  0  0  0  0  0  0  0  0  0  0
    4.5981   -1.2500    0.0000 N   0  0  0  0  0  0  0  0  0  0  0  0
    5.4641    0.2500    0.0000 C   0  0  0  0  0  0  0  0  0  0  0  0
    4.5981    0.7500    0.0000 C   0  0  0  0  0  0  0  0  0  0  0  0
    7.1962   -0.7500    0.0000 C   0  0  0  0  0  0  0  0  0  0  0  0
    7.1962    0.2500    0.0000 C   0  0  0  0  0  0  0  0  0  0  0  0
    6.3301   -1.2500    0.0000 C   0  0  0  0  0  0  0  0  0  0  0  0
    4.5981    1.7500    0.0000 C   0  0  0  0  0  0  0  0  0  0  0  0
    3.7320    0.2500    0.0000 C   0  0  0  0  0  0  0  0  0  0  0  0
    8.0901   -1.2847    0.0000 C   0  0  0  0  0  0  0  0  0  0  0  0
    2.8660    1.7500    0.0000 C   0  0  0  0  0  0  0  0  0  0  0  0
    8.0901    0.7847    0.0000 C   0  0  0  0  0  0  0  0  0  0  0  0
    3.7320    2.2500    0.0000 C   0  0  0  0  0  0  0  0  0  0  0  0
    2.8660    0.7500    0.0000 C   0  0  0  0  0  0  0  0  0  0  0  0
    8.9962   -0.7708    0.0000 C   0  0  0  0  0  0  0  0  0  0  0  0
    8.9962    0.2708    0.0000 C   0  0  0  0  0  0  0  0  0  0  0  0
    2.0000    2.2500    0.0000 C   0  0  0  0  0  0  0  0  0  0  0  0
    5.1350    2.0600    0.0000 H   0  0  0  0  0  0  0  0  0  0  0  0
    3.7320   -0.3700    0.0000 H   0  0  0  0  0  0  0  0  0  0  0  0
    8.0829   -1.9046    0.0000 H   0  0  0  0  0  0  0  0  0  0  0  0
    8.0829    1.4046    0.0000 H   0  0  0  0  0  0  0  0  0  0  0  0
    3.7320    2.8700    0.0000 H   0  0  0  0  0  0  0  0  0  0  0  0
    2.3291    0.4400    0.0000 H   0  0  0  0  0  0  0  0  0  0  0  0
    9.5319   -1.0829    0.0000 H   0  0  0  0  0  0  0  0  0  0  0  0
    9.5319    0.5829    0.0000 H   0  0  0  0  0  0  0  0  0  0  0  0
    4.5981   -1.8700    0.0000 H   0  0  0  0  0  0  0  0  0  0  0  0
    4.0611   -0.9400    0.0000 H   0  0  0  0  0  0  0  0  0  0  0  0
    2.3100    2.7869    0.0000 H   0  0  0  0  0  0  0  0  0  0  0  0
    1.4631    2.5600    0.0000 H   0  0  0  0  0  0  0  0  0  0  0  0
    1.6900    1.7131    0.0000 H   0  0  0  0  0  0  0  0  0  0  0  0
  1  9  2  0  0  0  0
  2  4  1  0  0  0  0
  2  5  1  0  0  0  0
  2  9  1  0  0  0  0
  3  5  2  0  0  0  0
  3  8  1  0  0  0  0
  4 28  1  0  0  0  0
  4 29  1  0  0  0  0
  5  6  1  0  0  0  0
  6 10  2  0  0  0  0
  6 11  1  0  0  0  0
  7  8  1  0  0  0  0
  7  9  1  0  0  0  0
  7 12  2  0  0  0  0
  8 14  2  0  0  0  0
 10 15  1  0  0  0  0
 10 20  1  0  0  0  0
 11 16  2  0  0  0  0
 11 21  1  0  0  0  0
 12 17  1  0  0  0  0
 12 22  1  0  0  0  0
 13 15  2  0  0  0  0
 13 16  1  0  0  0  0
 13 19  1  0  0  0  0
 14 18  1  0  0  0  0
 14 23  1  0  0  0  0
 15 24  1  0  0  0  0
 16 25  1  0  0  0  0
 17 18  2  0  0  0  0
 17 26  1  0  0  0  0
 18 27  1  0  0  0  0
 19 30  1  0  0  0  0
 19 31  1  0  0  0  0
 19 32  1  0  0  0  0
M  END
> <PUBCHEM_COMPOUND_CID>
854350

> <PUBCHEM_COMPOUND_CANONICALIZED>
1

> <PUBCHEM_CACTVS_COMPLEXITY>
385

> <PUBCHEM_CACTVS_HBOND_ACCEPTOR>
3

> <PUBCHEM_CACTVS_HBOND_DONOR>
1

> <PUBCHEM_CACTVS_ROTATABLE_BOND>
1

> <PUBCHEM_CACTVS_SUBSKEYS>
AAADccBzIAAAAAAAAAAAAAAAAAAAAAAAAAAwYIAAAAAAAACBQAAAHgAYAAAADAiBmAAzwIICAACoAidydACCAAEkAgAbqAEgZNgIILqA3ZGEIYhghACIyccYiACOQAAAAAACAACAAAAAAAQAAAAAAAAAAA==

> <PUBCHEM_IUPAC_OPENEYE_NAME>
3-amino-2-(p-tolyl)quinazolin-4-one

> <PUBCHEM_IUPAC_CAS_NAME>
3-amino-2-(4-methylphenyl)-4-quinazolinone

> <PUBCHEM_IUPAC_NAME>
3-amino-2-(4-methylphenyl)quinazolin-4-one

> <PUBCHEM_IUPAC_SYSTEMATIC_NAME>
3-azanyl-2-(4-methylphenyl)quinazolin-4-one

> <PUBCHEM_IUPAC_TRADITIONAL_NAME>
3-amino-2-(p-tolyl)quinazolin-4-one

> <PUBCHEM_IUPAC_INCHI>
InChI=1S/C15H13N3O/c1-10-6-8-11(9-7-10)14-17-13-5-3-2-4-12(13)15(19)18(14)16/h2-9H,16H2,1H3

> <PUBCHEM_IUPAC_INCHIKEY>
WAFIOECZTXVOGL-UHFFFAOYSA-N

> <PUBCHEM_XLOGP3_AA>
2.2

> <PUBCHEM_EXACT_MASS>
251.105862

> <PUBCHEM_MOLECULAR_FORMULA>
C15H13N3O

> <PUBCHEM_MOLECULAR_WEIGHT>
251.28322

> <PUBCHEM_OPENEYE_CAN_SMILES>
CC1=CC=C(C=C1)C2=NC3=CC=CC=C3C(=O)N2N

> <PUBCHEM_OPENEYE_ISO_SMILES>
CC1=CC=C(C=C1)C2=NC3=CC=CC=C3C(=O)N2N

> <PUBCHEM_CACTVS_TPSA>
58.7

> <PUBCHEM_MONOISOTOPIC_WEIGHT>
251.105862

> <PUBCHEM_TOTAL_CHARGE>
0

> <PUBCHEM_HEAVY_ATOM_COUNT>
19

> <PUBCHEM_ATOM_DEF_STEREO_COUNT>
0

> <PUBCHEM_ATOM_UDEF_STEREO_COUNT>
0

> <PUBCHEM_BOND_DEF_STEREO_COUNT>
0

> <PUBCHEM_BOND_UDEF_STEREO_COUNT>
0

> <PUBCHEM_ISOTOPIC_ATOM_COUNT>
0

> <PUBCHEM_COMPONENT_COUNT>
1

> <PUBCHEM_CACTVS_TAUTO_COUNT>
6

> <PUBCHEM_COORDINATE_TYPE>
1
5
255

> <PUBCHEM_BONDANNOTATIONS>
10  15  8
11  16  8
12  17  8
13  15  8
13  16  8
14  18  8
17  18  8
2  5  8
2  9  8
3  5  8
3  8  8
6  10  8
6  11  8
7  12  8
7  8  8
7  9  8
8  14  8

$$$$

