5282247
  -OEChem-07051213043D

 46 47  0     1  0  0  0  0  0999 V2000
   -0.7933    1.9647    1.9283 O   0  0  0  0  0  0  0  0  0  0  0  0
    0.3989    1.2446   -0.6055 N   0  0  0  0  0  0  0  0  0  0  0  0
   -0.9317    0.6335   -0.8563 C   0  0  1  0  0  0  0  0  0  0  0  0
   -1.6288    0.1974    0.4878 C   0  0  1  0  0  0  0  0  0  0  0  0
   -1.7992    1.7250   -1.5470 C   0  0  0  0  0  0  0  0  0  0  0  0
   -0.7441   -0.5389   -1.8580 C   0  0  0  0  0  0  0  0  0  0  0  0
   -1.9891    1.3980    1.3936 C   0  0  2  0  0  0  0  0  0  0  0  0
    1.4247    0.3076   -0.1285 C   0  0  1  0  0  0  0  0  0  0  0  0
   -2.1128    2.9157   -0.6394 C   0  0  0  0  0  0  0  0  0  0  0  0
    0.2875   -1.5596   -1.3865 C   0  0  0  0  0  0  0  0  0  0  0  0
   -2.7857    2.4792    0.6581 C   0  0  0  0  0  0  0  0  0  0  0  0
    1.6124   -0.8663   -1.0951 C   0  0  0  0  0  0  0  0  0  0  0  0
   -2.8650   -0.6402    0.2822 C   0  0  0  0  0  0  0  0  0  0  0  0
    2.7395    1.0700    0.0442 C   0  0  0  0  0  0  0  0  0  0  0  0
   -2.9955   -1.8945    0.7343 C   0  0  0  0  0  0  0  0  0  0  0  0
    3.8199    0.1709    0.5607 C   0  0  0  0  0  0  0  0  0  0  0  0
    4.9623   -0.0652   -0.0988 C   0  0  0  0  0  0  0  0  0  0  0  0
   -4.1806   -2.6471    0.5159 C   0  0  0  0  0  0  0  0  0  0  0  0
    5.9574   -0.9360    0.4208 C   0  0  0  0  0  0  0  0  0  0  0  0
   -5.1789   -3.2886    0.3339 C   0  0  0  0  0  0  0  0  0  0  0  0
    6.8020   -1.6703    0.8553 C   0  0  0  0  0  0  0  0  0  0  0  0
   -0.9186   -0.4169    1.0550 H   0  0  0  0  0  0  0  0  0  0  0  0
   -2.7427    1.2867   -1.8970 H   0  0  0  0  0  0  0  0  0  0  0  0
   -1.2922    2.0972   -2.4475 H   0  0  0  0  0  0  0  0  0  0  0  0
   -0.4099   -0.1396   -2.8264 H   0  0  0  0  0  0  0  0  0  0  0  0
   -1.6941   -1.0453   -2.0628 H   0  0  0  0  0  0  0  0  0  0  0  0
   -2.5727    1.0514    2.2558 H   0  0  0  0  0  0  0  0  0  0  0  0
    0.3115    2.0083    0.0633 H   0  0  0  0  0  0  0  0  0  0  0  0
    1.1380   -0.0849    0.8543 H   0  0  0  0  0  0  0  0  0  0  0  0
   -2.7770    3.6066   -1.1723 H   0  0  0  0  0  0  0  0  0  0  0  0
   -1.2017    3.4829   -0.4175 H   0  0  0  0  0  0  0  0  0  0  0  0
    0.4322   -2.3234   -2.1590 H   0  0  0  0  0  0  0  0  0  0  0  0
   -0.0681   -2.0789   -0.4898 H   0  0  0  0  0  0  0  0  0  0  0  0
   -2.9031    3.3593    1.3016 H   0  0  0  0  0  0  0  0  0  0  0  0
   -3.7942    2.1121    0.4344 H   0  0  0  0  0  0  0  0  0  0  0  0
    2.3023   -1.6123   -0.6845 H   0  0  0  0  0  0  0  0  0  0  0  0
    2.0474   -0.5134   -2.0397 H   0  0  0  0  0  0  0  0  0  0  0  0
   -3.6892   -0.1901   -0.2670 H   0  0  0  0  0  0  0  0  0  0  0  0
    3.0397    1.5339   -0.9048 H   0  0  0  0  0  0  0  0  0  0  0  0
    2.6061    1.8885    0.7634 H   0  0  0  0  0  0  0  0  0  0  0  0
   -1.0505    2.6985    2.5121 H   0  0  0  0  0  0  0  0  0  0  0  0
   -2.1900   -2.3700    1.2845 H   0  0  0  0  0  0  0  0  0  0  0  0
    3.6459   -0.2978    1.5272 H   0  0  0  0  0  0  0  0  0  0  0  0
    5.1492    0.3996   -1.0614 H   0  0  0  0  0  0  0  0  0  0  0  0
   -6.0646   -3.8576    0.1723 H   0  0  0  0  0  0  0  0  0  0  0  0
    7.5512   -2.3217    1.2407 H   0  0  0  0  0  0  0  0  0  0  0  0
  1  7  1  0  0  0  0
  1 41  1  0  0  0  0
  2  3  1  0  0  0  0
  2  8  1  0  0  0  0
  2 28  1  0  0  0  0
  3  4  1  0  0  0  0
  3  5  1  0  0  0  0
  3  6  1  0  0  0  0
  4  7  1  0  0  0  0
  4 13  1  0  0  0  0
  4 22  1  0  0  0  0
  5  9  1  0  0  0  0
  5 23  1  0  0  0  0
  5 24  1  0  0  0  0
  6 10  1  0  0  0  0
  6 25  1  0  0  0  0
  6 26  1  0  0  0  0
  7 11  1  0  0  0  0
  7 27  1  0  0  0  0
  8 12  1  0  0  0  0
  8 14  1  0  0  0  0
  8 29  1  0  0  0  0
  9 11  1  0  0  0  0
  9 30  1  0  0  0  0
  9 31  1  0  0  0  0
 10 12  1  0  0  0  0
 10 32  1  0  0  0  0
 10 33  1  0  0  0  0
 11 34  1  0  0  0  0
 11 35  1  0  0  0  0
 12 36  1  0  0  0  0
 12 37  1  0  0  0  0
 13 15  2  0  0  0  0
 13 38  1  0  0  0  0
 14 16  1  0  0  0  0
 14 39  1  0  0  0  0
 14 40  1  0  0  0  0
 15 18  1  0  0  0  0
 15 42  1  0  0  0  0
 16 17  2  0  0  0  0
 16 43  1  0  0  0  0
 17 19  1  0  0  0  0
 17 44  1  0  0  0  0
 18 20  3  0  0  0  0
 19 21  3  0  0  0  0
 20 45  1  0  0  0  0
 21 46  1  0  0  0  0
M  END
> <PUBCHEM_COMPOUND_CID>
5282247

> <PUBCHEM_CONFORMER_RMSD>
0.8

> <PUBCHEM_CONFORMER_DIVERSEORDER>
1
5
17
7
8
2
6
15
12
14
4
10
9
16
13
3
11

> <PUBCHEM_MMFF94_PARTIAL_CHARGES>
23
1 -0.68
13 -0.29
14 0.14
15 -0.09
16 -0.29
17 -0.09
18 -0.06
19 -0.06
2 -0.9
20 -0.18
21 -0.18
28 0.36
3 0.27
38 0.15
4 0.14
41 0.4
42 0.15
43 0.15
44 0.15
45 0.18
46 0.18
7 0.28
8 0.27

> <PUBCHEM_EFFECTIVE_ROTOR_COUNT>
5

> <PUBCHEM_PHARMACOPHORE_FEATURES>
8
1 1 acceptor
1 1 donor
1 2 cation
1 2 donor
1 20 hydrophobe
1 21 hydrophobe
6 2 3 6 8 10 12 rings
6 3 4 5 7 9 11 rings

> <PUBCHEM_HEAVY_ATOM_COUNT>
21

> <PUBCHEM_ATOM_DEF_STEREO_COUNT>
4

> <PUBCHEM_ATOM_UDEF_STEREO_COUNT>
0

> <PUBCHEM_BOND_DEF_STEREO_COUNT>
2

> <PUBCHEM_BOND_UDEF_STEREO_COUNT>
0

> <PUBCHEM_ISOTOPIC_ATOM_COUNT>
0

> <PUBCHEM_COMPONENT_COUNT>
1

> <PUBCHEM_CACTVS_TAUTO_COUNT>
1

> <PUBCHEM_CONFORMER_ID>
005099C700000001

> <PUBCHEM_MMFF94_ENERGY>
23.2583

> <PUBCHEM_FEATURE_SELFOVERLAP>
40.598

> <PUBCHEM_SHAPE_FINGERPRINT>
11265709 11 18270673152795295379
12596602 18 18410017646207779562
12633257 1 18262779839970371921
12916754 54 18272652316437750708
13004483 165 18267586814807802051
13083527 12 18267858385521239821
13134695 92 17904479607132159245
13583140 156 18336838584199720262
13675066 3 18040156245275504158
14178342 30 18264192755171540037
15099037 37 18409444786715026079
16945 1 18338495518232283133
17980427 26 17258231090434837845
20871999 31 10015581675338051259
21756936 100 5328746270382687279
22182313 1 17604132839911179412
23402539 116 18412262796895456387
23419403 2 15071478015386410421
23559900 14 18270409286683689137
24859131 72 18410288090743382111
268830 7 5256402769821323694
312423 11 18201432546218350772
465052 167 18268140951082507487
484985 159 18059306447048344911
5104073 3 18336557079585611128
5924683 9 18343020008121431034
77188 2 18198340642217213181
81228 2 18122872492111443011
9981440 41 17387699537681349745

> <PUBCHEM_SHAPE_MULTIPOLES>
421.32
11.29
3.25
1.48
20.23
0.44
0.21
10.23
-4.16
-5.57
-0.47
-0.49
-0.34
0.1

> <PUBCHEM_SHAPE_SELFOVERLAP>
852.391

> <PUBCHEM_SHAPE_VOLUME>
240.9

> <PUBCHEM_COORDINATE_TYPE>
2
5
10

$$$$

