5271
  -OEChem-06261200362D

 57 59  0     1  0  0  0  0  0999 V2000
    9.2521    3.3319    0.0000 O   0  0  0  0  0  0  0  0  0  0  0  0
    9.8604   -2.7039    0.0000 O   0  0  0  0  0  0  0  0  0  0  0  0
    2.5989    6.1483    0.0000 O   0  0  0  0  0  0  0  0  0  0  0  0
    2.1506    4.4753    0.0000 O   0  0  0  0  0  0  0  0  0  0  0  0
    8.4461   -1.2897    0.0000 N   0  0  0  0  0  0  0  0  0  0  0  0
    8.1873   -2.2556    0.0000 N   0  0  0  0  0  0  0  0  0  0  0  0
    8.6356   -3.9287    0.0000 N   0  0  0  0  0  0  0  0  0  0  0  0
    7.4978    1.2494    0.0000 C   0  0  3  0  0  0  0  0  0  0  0  0
    7.9978    0.3833    0.0000 C   0  0  3  0  0  0  0  0  0  0  0  0
    9.9887    2.3492    0.0000 C   0  0  3  0  0  0  0  0  0  0  0  0
    9.7299    1.3833    0.0000 C   0  0  3  0  0  0  0  0  0  0  0  0
   11.8207    1.5904    0.0000 C   0  0  0  0  0  0  0  0  0  0  0  0
   11.5619    0.6245    0.0000 C   0  0  0  0  0  0  0  0  0  0  0  0
    6.5319    1.5082    0.0000 C   0  0  0  0  0  0  0  0  0  0  0  0
    7.7390   -0.5826    0.0000 C   0  0  0  0  0  0  0  0  0  0  0  0
    6.2731    2.4741    0.0000 C   0  0  0  0  0  0  0  0  0  0  0  0
    5.3072    2.7329    0.0000 C   0  0  0  0  0  0  0  0  0  0  0  0
    5.0484    3.6988    0.0000 C   0  0  0  0  0  0  0  0  0  0  0  0
    8.8944   -2.9627    0.0000 C   0  0  0  0  0  0  0  0  0  0  0  0
    4.0824    3.9577    0.0000 C   0  0  0  0  0  0  0  0  0  0  0  0
    3.8236    4.9236    0.0000 C   0  0  0  0  0  0  0  0  0  0  0  0
    9.3427   -4.6358    0.0000 C   0  0  0  0  0  0  0  0  0  0  0  0
    2.8577    5.1824    0.0000 C   0  0  0  0  0  0  0  0  0  0  0  0
    9.0839   -5.6017    0.0000 C   0  0  0  0  0  0  0  0  0  0  0  0
   10.3086   -4.3770    0.0000 C   0  0  0  0  0  0  0  0  0  0  0  0
    9.7910   -6.3088    0.0000 C   0  0  0  0  0  0  0  0  0  0  0  0
   11.0157   -5.0841    0.0000 C   0  0  0  0  0  0  0  0  0  0  0  0
   10.7569   -6.0500    0.0000 C   0  0  0  0  0  0  0  0  0  0  0  0
    7.4325    2.0968    0.0000 H   0  0  0  0  0  0  0  0  0  0  0  0
    7.1551    0.2724    0.0000 H   0  0  0  0  0  0  0  0  0  0  0  0
    9.9986    1.4993    0.0000 H   0  0  0  0  0  0  0  0  0  0  0  0
    9.7855    0.5351    0.0000 H   0  0  0  0  0  0  0  0  0  0  0  0
   12.4120    1.4040    0.0000 H   0  0  0  0  0  0  0  0  0  0  0  0
   12.0327    2.1730    0.0000 H   0  0  0  0  0  0  0  0  0  0  0  0
   11.3498    0.0419    0.0000 H   0  0  0  0  0  0  0  0  0  0  0  0
   12.1532    0.4381    0.0000 H   0  0  0  0  0  0  0  0  0  0  0  0
    5.9143    1.4541    0.0000 H   0  0  0  0  0  0  0  0  0  0  0  0
    6.4779    0.8905    0.0000 H   0  0  0  0  0  0  0  0  0  0  0  0
    7.1771   -0.3206    0.0000 H   0  0  0  0  0  0  0  0  0  0  0  0
    7.3834   -1.0905    0.0000 H   0  0  0  0  0  0  0  0  0  0  0  0
    6.7115    2.9125    0.0000 H   0  0  0  0  0  0  0  0  0  0  0  0
    9.0450   -1.1292    0.0000 H   0  0  0  0  0  0  0  0  0  0  0  0
    4.8688    2.2945    0.0000 H   0  0  0  0  0  0  0  0  0  0  0  0
    7.5884   -2.4161    0.0000 H   0  0  0  0  0  0  0  0  0  0  0  0
    5.6660    3.7529    0.0000 H   0  0  0  0  0  0  0  0  0  0  0  0
    5.1024    4.3165    0.0000 H   0  0  0  0  0  0  0  0  0  0  0  0
    3.4648    3.9036    0.0000 H   0  0  0  0  0  0  0  0  0  0  0  0
    4.0284    3.3400    0.0000 H   0  0  0  0  0  0  0  0  0  0  0  0
    4.4413    4.9776    0.0000 H   0  0  0  0  0  0  0  0  0  0  0  0
    3.8777    5.5412    0.0000 H   0  0  0  0  0  0  0  0  0  0  0  0
    8.0367   -4.0891    0.0000 H   0  0  0  0  0  0  0  0  0  0  0  0
    8.4850   -5.7622    0.0000 H   0  0  0  0  0  0  0  0  0  0  0  0
   10.4691   -3.7781    0.0000 H   0  0  0  0  0  0  0  0  0  0  0  0
    2.0000    6.3088    0.0000 H   0  0  0  0  0  0  0  0  0  0  0  0
    9.6305   -6.9077    0.0000 H   0  0  0  0  0  0  0  0  0  0  0  0
   11.6146   -4.9236    0.0000 H   0  0  0  0  0  0  0  0  0  0  0  0
   11.1953   -6.4884    0.0000 H   0  0  0  0  0  0  0  0  0  0  0  0
  1 10  1  0  0  0  0
  1 11  1  0  0  0  0
  2 19  2  0  0  0  0
  3 23  1  0  0  0  0
  3 54  1  0  0  0  0
  4 23  2  0  0  0  0
  5  6  1  0  0  0  0
  5 15  1  0  0  0  0
  5 42  1  0  0  0  0
  6 19  1  0  0  0  0
  6 44  1  0  0  0  0
  7 19  1  0  0  0  0
  7 22  1  0  0  0  0
  7 51  1  0  0  0  0
  8  9  1  0  0  0  0
  8 10  1  0  0  0  0
  8 14  1  0  0  0  0
  8 29  1  0  0  0  0
  9 11  1  0  0  0  0
  9 15  1  0  0  0  0
  9 30  1  0  0  0  0
 10 12  1  0  0  0  0
 10 31  1  0  0  0  0
 11 13  1  0  0  0  0
 11 32  1  0  0  0  0
 12 13  1  0  0  0  0
 12 33  1  0  0  0  0
 12 34  1  0  0  0  0
 13 35  1  0  0  0  0
 13 36  1  0  0  0  0
 14 16  1  0  0  0  0
 14 37  1  0  0  0  0
 14 38  1  0  0  0  0
 15 39  1  0  0  0  0
 15 40  1  0  0  0  0
 16 17  2  3  0  0  0
 16 41  1  0  0  0  0
 17 18  1  0  0  0  0
 17 43  1  0  0  0  0
 18 20  1  0  0  0  0
 18 45  1  0  0  0  0
 18 46  1  0  0  0  0
 20 21  1  0  0  0  0
 20 47  1  0  0  0  0
 20 48  1  0  0  0  0
 21 23  1  0  0  0  0
 21 49  1  0  0  0  0
 21 50  1  0  0  0  0
 22 24  2  0  0  0  0
 22 25  1  0  0  0  0
 24 26  1  0  0  0  0
 24 52  1  0  0  0  0
 25 27  2  0  0  0  0
 25 53  1  0  0  0  0
 26 28  2  0  0  0  0
 26 55  1  0  0  0  0
 27 28  1  0  0  0  0
 27 56  1  0  0  0  0
 28 57  1  0  0  0  0
M  END
> <PUBCHEM_COMPOUND_CID>
5271

> <PUBCHEM_COMPOUND_CANONICALIZED>
1

> <PUBCHEM_CACTVS_COMPLEXITY>
548

> <PUBCHEM_CACTVS_HBOND_ACCEPTOR>
5

> <PUBCHEM_CACTVS_HBOND_DONOR>
4

> <PUBCHEM_CACTVS_ROTATABLE_BOND>
10

> <PUBCHEM_CACTVS_SUBSKEYS>
AAADceB7OAAAAAAAAAAAAAAAAAAAASJAAAAwYAAAAAAAAAABAAAAHgAYCAAADRzhkAYxyILiBgCIACTSWACCAAAhAgIeqIEAZIiIIDLAkZGGYAh2lAJIyCe4wLAOgAAAAAAAAAAAAAIAADAAAAAAAAAAAA==

> <PUBCHEM_IUPAC_OPENEYE_NAME>
7-[3-[[2-(phenylcarbamoyl)hydrazino]methyl]-7-oxabicyclo[2.2.1]heptan-2-yl]hept-5-enoic acid

> <PUBCHEM_IUPAC_CAS_NAME>
7-[3-[[[anilino(oxo)methyl]hydrazo]methyl]-7-oxabicyclo[2.2.1]heptan-2-yl]-5-heptenoic acid

> <PUBCHEM_IUPAC_NAME>
7-[3-[[2-(phenylcarbamoyl)hydrazinyl]methyl]-7-oxabicyclo[2.2.1]heptan-2-yl]hept-5-enoic acid

> <PUBCHEM_IUPAC_SYSTEMATIC_NAME>
7-[3-[[2-(phenylcarbamoyl)hydrazinyl]methyl]-7-oxabicyclo[2.2.1]heptan-2-yl]hept-5-enoic acid

> <PUBCHEM_IUPAC_TRADITIONAL_NAME>
7-[3-[[N'-(phenylcarbamoyl)hydrazino]methyl]-7-oxabicyclo[2.2.1]heptan-2-yl]hept-5-enoic acid

> <PUBCHEM_IUPAC_INCHI>
InChI=1S/C21H29N3O4/c25-20(26)11-7-2-1-6-10-16-17(19-13-12-18(16)28-19)14-22-24-21(27)23-15-8-4-3-5-9-15/h1,3-6,8-9,16-19,22H,2,7,10-14H2,(H,25,26)(H2,23,24,27)

> <PUBCHEM_IUPAC_INCHIKEY>
RJNDVCNWVBWHLY-UHFFFAOYSA-N

> <PUBCHEM_XLOGP3_AA>
0.3

> <PUBCHEM_EXACT_MASS>
387.215806

> <PUBCHEM_MOLECULAR_FORMULA>
C21H29N3O4

> <PUBCHEM_MOLECULAR_WEIGHT>
387.47266

> <PUBCHEM_OPENEYE_CAN_SMILES>
C1CC2C(C(C1O2)CC=CCCCC(=O)O)CNNC(=O)NC3=CC=CC=C3

> <PUBCHEM_OPENEYE_ISO_SMILES>
C1CC2C(C(C1O2)CC=CCCCC(=O)O)CNNC(=O)NC3=CC=CC=C3

> <PUBCHEM_CACTVS_TPSA>
99.7

> <PUBCHEM_MONOISOTOPIC_WEIGHT>
387.215806

> <PUBCHEM_TOTAL_CHARGE>
0

> <PUBCHEM_HEAVY_ATOM_COUNT>
28

> <PUBCHEM_ATOM_DEF_STEREO_COUNT>
0

> <PUBCHEM_ATOM_UDEF_STEREO_COUNT>
4

> <PUBCHEM_BOND_DEF_STEREO_COUNT>
0

> <PUBCHEM_BOND_UDEF_STEREO_COUNT>
1

> <PUBCHEM_ISOTOPIC_ATOM_COUNT>
0

> <PUBCHEM_COMPONENT_COUNT>
1

> <PUBCHEM_CACTVS_TAUTO_COUNT>
3

> <PUBCHEM_COORDINATE_TYPE>
1
5
255

> <PUBCHEM_BONDANNOTATIONS>
10  31  3
11  32  3
16  17  1
22  24  8
22  25  8
24  26  8
25  27  8
26  28  8
27  28  8
8  29  3
9  30  3

$$$$

