44237352
  -OEChem-07051213102D

 57 59  0     1  0  0  0  0  0999 V2000
    6.0010   -0.6375    0.0000 P   0  0  3  0  0  0  0  0  0  0  0  0
    5.1350   -2.1374    0.0000 P   0  0  3  0  0  0  0  0  0  0  0  0
    7.6761    2.4503    0.0000 O   0  0  0  0  0  0  0  0  0  0  0  0
    5.1070    2.1413    0.0000 O   0  0  0  0  0  0  0  0  0  0  0  0
    5.7793    4.2104    0.0000 O   0  0  0  0  0  0  0  0  0  0  0  0
    6.0010    0.3625    0.0000 O   0  0  0  0  0  0  0  0  0  0  0  0
    5.1350   -4.1374    0.0000 O   0  0  0  0  0  0  0  0  0  0  0  0
    4.2690   -2.6374    0.0000 O   0  0  0  0  0  0  0  0  0  0  0  0
    2.5369   -3.6374    0.0000 O   0  0  0  0  0  0  0  0  0  0  0  0
    6.0010   -1.6374    0.0000 O   0  0  0  0  0  0  0  0  0  0  0  0
    2.5369   -5.6374    0.0000 O   0  0  0  0  0  0  0  0  0  0  0  0
    9.3561    3.1923    0.0000 O   0  0  0  0  0  0  0  0  0  0  0  0
    4.2690   -6.6374    0.0000 O   0  0  0  0  0  0  0  0  0  0  0  0
    7.0010   -0.6375    0.0000 O   0  0  0  0  0  0  0  0  0  0  0  0
    5.0010   -0.6375    0.0000 O   0  0  0  0  0  0  0  0  0  0  0  0
    4.6350   -1.2714    0.0000 O   0  0  0  0  0  0  0  0  0  0  0  0
    5.6350   -3.0035    0.0000 O   0  0  0  0  0  0  0  0  0  0  0  0
    9.7182    6.6374    0.0000 O   0  0  0  0  0  0  0  0  0  0  0  0
    7.9548    4.2104    0.0000 N   0  0  0  0  0  0  0  0  0  0  0  0
    9.5372    4.9149    0.0000 N   0  0  0  0  0  0  0  0  0  0  0  0
    6.0580    2.4503    0.0000 C   0  0  1  0  0  0  0  0  0  0  0  0
    6.3671    3.4014    0.0000 C   0  0  2  0  0  0  0  0  0  0  0  0
    6.8671    1.8626    0.0000 C   0  0  1  0  0  0  0  0  0  0  0  0
    7.3671    3.4014    0.0000 C   0  0  3  0  0  0  0  0  0  0  0  0
    6.8671    0.8625    0.0000 C   0  0  0  0  0  0  0  0  0  0  0  0
    3.4030   -4.1374    0.0000 C   0  0  1  0  0  0  0  0  0  0  0  0
    4.2690   -3.6374    0.0000 C   0  0  2  0  0  0  0  0  0  0  0  0
    3.4030   -5.1374    0.0000 C   0  0  1  0  0  0  0  0  0  0  0  0
    8.9494    4.1059    0.0000 C   0  0  0  0  0  0  0  0  0  0  0  0
    7.5481    5.1240    0.0000 C   0  0  0  0  0  0  0  0  0  0  0  0
    5.1350   -5.1374    0.0000 C   0  0  2  0  0  0  0  0  0  0  0  0
    4.2690   -5.6374    0.0000 C   0  0  0  0  0  0  0  0  0  0  0  0
    8.1359    5.9330    0.0000 C   0  0  0  0  0  0  0  0  0  0  0  0
    6.0010   -5.6374    0.0000 C   0  0  0  0  0  0  0  0  0  0  0  0
    9.1304    5.8284    0.0000 C   0  0  0  0  0  0  0  0  0  0  0  0
    5.6196    2.8887    0.0000 H   0  0  0  0  0  0  0  0  0  0  0  0
    5.7547    3.3044    0.0000 H   0  0  0  0  0  0  0  0  0  0  0  0
    7.4195    1.5811    0.0000 H   0  0  0  0  0  0  0  0  0  0  0  0
    6.9812    4.1587    0.0000 H   0  0  0  0  0  0  0  0  0  0  0  0
    7.0791    0.2799    0.0000 H   0  0  0  0  0  0  0  0  0  0  0  0
    7.4776    0.9702    0.0000 H   0  0  0  0  0  0  0  0  0  0  0  0
    4.6462    2.5562    0.0000 H   0  0  0  0  0  0  0  0  0  0  0  0
    5.1627    4.1456    0.0000 H   0  0  0  0  0  0  0  0  0  0  0  0
    3.4030   -3.5175    0.0000 H   0  0  0  0  0  0  0  0  0  0  0  0
    3.7320   -3.3275    0.0000 H   0  0  0  0  0  0  0  0  0  0  0  0
    3.4030   -5.7575    0.0000 H   0  0  0  0  0  0  0  0  0  0  0  0
    6.9315    5.1888    0.0000 H   0  0  0  0  0  0  0  0  0  0  0  0
    5.6720   -4.8275    0.0000 H   0  0  0  0  0  0  0  0  0  0  0  0
   10.1538    4.8501    0.0000 H   0  0  0  0  0  0  0  0  0  0  0  0
    7.8837    6.4994    0.0000 H   0  0  0  0  0  0  0  0  0  0  0  0
    5.6910   -6.1744    0.0000 H   0  0  0  0  0  0  0  0  0  0  0  0
    6.5380   -5.9474    0.0000 H   0  0  0  0  0  0  0  0  0  0  0  0
    6.3110   -5.1005    0.0000 H   0  0  0  0  0  0  0  0  0  0  0  0
    2.0000   -3.9474    0.0000 H   0  0  0  0  0  0  0  0  0  0  0  0
    2.5369   -6.2575    0.0000 H   0  0  0  0  0  0  0  0  0  0  0  0
    7.3110   -1.1744    0.0000 H   0  0  0  0  0  0  0  0  0  0  0  0
    4.0150   -1.2714    0.0000 H   0  0  0  0  0  0  0  0  0  0  0  0
  1  6  1  0  0  0  0
  1 10  1  0  0  0  0
  1 14  1  0  0  0  0
  1 15  2  0  0  0  0
  2  8  1  0  0  0  0
  2 10  1  0  0  0  0
  2 16  1  0  0  0  0
  2 17  2  0  0  0  0
  3 23  1  0  0  0  0
  3 24  1  0  0  0  0
 21  4  1  1  0  0  0
  4 42  1  0  0  0  0
 22  5  1  1  0  0  0
  5 43  1  0  0  0  0
  6 25  1  0  0  0  0
  7 27  1  0  0  0  0
  7 31  1  0  0  0  0
 27  8  1  1  0  0  0
 26  9  1  1  0  0  0
  9 54  1  0  0  0  0
 28 11  1  1  0  0  0
 11 55  1  0  0  0  0
 12 29  2  0  0  0  0
 13 32  2  0  0  0  0
 14 56  1  0  0  0  0
 16 57  1  0  0  0  0
 18 35  2  0  0  0  0
 19 24  1  0  0  0  0
 19 29  1  0  0  0  0
 19 30  1  0  0  0  0
 20 29  1  0  0  0  0
 20 35  1  0  0  0  0
 20 49  1  0  0  0  0
 21 22  1  0  0  0  0
 21 23  1  0  0  0  0
 21 36  1  0  0  0  0
 22 24  1  0  0  0  0
 22 37  1  0  0  0  0
 23 25  1  6  0  0  0
 23 38  1  0  0  0  0
 24 39  1  0  0  0  0
 25 40  1  0  0  0  0
 25 41  1  0  0  0  0
 26 27  1  0  0  0  0
 26 28  1  0  0  0  0
 26 44  1  0  0  0  0
 27 45  1  0  0  0  0
 28 32  1  0  0  0  0
 28 46  1  0  0  0  0
 30 33  2  0  0  0  0
 30 47  1  0  0  0  0
 31 32  1  0  0  0  0
 31 34  1  1  0  0  0
 31 48  1  0  0  0  0
 33 35  1  0  0  0  0
 33 50  1  0  0  0  0
 34 51  1  0  0  0  0
 34 52  1  0  0  0  0
 34 53  1  0  0  0  0
M  END
> <PUBCHEM_COMPOUND_CID>
44237352

> <PUBCHEM_COMPOUND_CANONICALIZED>
1

> <PUBCHEM_CACTVS_COMPLEXITY>
990

> <PUBCHEM_CACTVS_HBOND_ACCEPTOR>
16

> <PUBCHEM_CACTVS_HBOND_DONOR>
7

> <PUBCHEM_CACTVS_ROTATABLE_BOND>
8

> <PUBCHEM_CACTVS_SUBSKEYS>
AAADceBzPgMAAAAAAAAAAAAAAAAAASAAAAAkQAAAAAAAAAAAAAAAHgAQCCAACBTxgAcDCAPABxCIQKFWUIKAAAAAAgAIAAFIAECTEBYAgAQOQAAPNyIXAMHycAYAAAAAAAAAAAAAAAAAAAAAAAAAAAAAAA==

> <PUBCHEM_IUPAC_OPENEYE_NAME>
[(2R,3R,4S,6S)-3,4-dihydroxy-6-methyl-5-oxo-tetrahydropyran-2-yl] [[(2R,3S,4R)-5-(2,4-dioxopyrimidin-1-yl)-3,4-dihydroxy-tetrahydrofuran-2-yl]methoxy-hydroxy-phosphoryl] hydrogen phosphate

> <PUBCHEM_IUPAC_CAS_NAME>
[(2R,3R,4S,6S)-3,4-dihydroxy-6-methyl-5-oxo-2-oxanyl] [[(2R,3S,4R)-5-(2,4-dioxo-1-pyrimidinyl)-3,4-dihydroxy-2-oxolanyl]methoxy-hydroxyphosphoryl] hydrogen phosphate

> <PUBCHEM_IUPAC_NAME>
[(2R,3R,4S,6S)-3,4-dihydroxy-6-methyl-5-oxooxan-2-yl] [[(2R,3S,4R)-5-(2,4-dioxopyrimidin-1-yl)-3,4-dihydroxyoxolan-2-yl]methoxy-hydroxyphosphoryl] hydrogen phosphate

> <PUBCHEM_IUPAC_SYSTEMATIC_NAME>
[[(2R,3S,4R)-5-[2,4-bis(oxidanylidene)pyrimidin-1-yl]-3,4-bis(oxidanyl)oxolan-2-yl]methoxy-oxidanyl-phosphoryl] [(2R,3R,4S,6S)-6-methyl-3,4-bis(oxidanyl)-5-oxidanylidene-oxan-2-yl] hydrogen phosphate

> <PUBCHEM_IUPAC_TRADITIONAL_NAME>
[(2R,3R,4S,6S)-3,4-dihydroxy-5-keto-6-methyl-tetrahydropyran-2-yl] [[(2R,3S,4R)-5-(2,4-diketopyrimidin-1-yl)-3,4-dihydroxy-tetrahydrofuran-2-yl]methoxy-hydroxy-phosphoryl] hydrogen phosphate

> <PUBCHEM_IUPAC_INCHI>
InChI=1S/C15H22N2O16P2/c1-5-8(19)10(21)12(23)14(30-5)32-35(27,28)33-34(25,26)29-4-6-9(20)11(22)13(31-6)17-3-2-7(18)16-15(17)24/h2-3,5-6,9-14,20-23H,4H2,1H3,(H,25,26)(H,27,28)(H,16,18,24)/t5-,6+,9+,10+,11+,12+,13?,14+/m0/s1

> <PUBCHEM_IUPAC_INCHIKEY>
DDWGQQADOIMFOI-QSIMHORSSA-N

> <PUBCHEM_XLOGP3_AA>
-5.7

> <PUBCHEM_EXACT_MASS>
548.044456

> <PUBCHEM_MOLECULAR_FORMULA>
C15H22N2O16P2

> <PUBCHEM_MOLECULAR_WEIGHT>
548.286504

> <PUBCHEM_OPENEYE_CAN_SMILES>
CC1C(=O)C(C(C(O1)OP(=O)(O)OP(=O)(O)OCC2C(C(C(O2)N3C=CC(=O)NC3=O)O)O)O)O

> <PUBCHEM_OPENEYE_ISO_SMILES>
C[C@H]1C(=O)[C@H]([C@H]([C@H](O1)OP(=O)(O)OP(=O)(O)OC[C@@H]2[C@H]([C@H](C(O2)N3C=CC(=O)NC3=O)O)O)O)O

> <PUBCHEM_CACTVS_TPSA>
268

> <PUBCHEM_MONOISOTOPIC_WEIGHT>
548.044456

> <PUBCHEM_TOTAL_CHARGE>
0

> <PUBCHEM_HEAVY_ATOM_COUNT>
35

> <PUBCHEM_ATOM_DEF_STEREO_COUNT>
7

> <PUBCHEM_ATOM_UDEF_STEREO_COUNT>
1

> <PUBCHEM_BOND_DEF_STEREO_COUNT>
0

> <PUBCHEM_BOND_UDEF_STEREO_COUNT>
0

> <PUBCHEM_ISOTOPIC_ATOM_COUNT>
0

> <PUBCHEM_COMPONENT_COUNT>
1

> <PUBCHEM_CACTVS_TAUTO_COUNT>
21

> <PUBCHEM_COORDINATE_TYPE>
1
5
255

> <PUBCHEM_BONDANNOTATIONS>
28  11  5
19  29  8
19  30  8
20  29  8
20  35  8
23  25  6
24  39  3
30  33  8
31  34  5
33  35  8
21  4  5
22  5  5
27  8  5
26  9  5

$$$$

