65542
  -OEChem-07051212503D

 48 51  0     1  0  0  0  0  0999 V2000
    0.3900    2.3594   -0.9041 O   0  0  0  0  0  0  0  0  0  0  0  0
   -4.7730   -1.0636   -1.1508 O   0  0  0  0  0  0  0  0  0  0  0  0
    5.1088    0.0005   -1.5328 O   0  0  0  0  0  0  0  0  0  0  0  0
   -0.5700    0.6434    0.5697 C   0  0  2  0  0  0  0  0  0  0  0  0
    0.2951   -0.5726    0.0601 C   0  0  1  0  0  0  0  0  0  0  0  0
   -1.8966    0.6380   -0.1987 C   0  0  1  0  0  0  0  0  0  0  0  0
   -2.6956   -0.6587    0.0494 C   0  0  2  0  0  0  0  0  0  0  0  0
    1.6834   -0.6393    0.7987 C   0  0  2  0  0  0  0  0  0  0  0  0
   -0.5007   -1.9072    0.0827 C   0  0  0  0  0  0  0  0  0  0  0  0
   -1.9019   -1.8144   -0.5482 C   0  0  0  0  0  0  0  0  0  0  0  0
    0.1964    1.9819    0.4597 C   0  0  1  0  0  0  0  0  0  0  0  0
   -2.9132    1.7497    0.0424 C   0  0  0  0  0  0  0  0  0  0  0  0
    2.3423    0.7284    0.5840 C   0  0  0  0  0  0  0  0  0  0  0  0
    1.5769    1.9149    1.1262 C   0  0  0  0  0  0  0  0  0  0  0  0
   -3.9739   -0.2701   -0.6716 C   0  0  0  0  0  0  0  0  0  0  0  0
   -4.1583    1.2375   -0.6962 C   0  0  0  0  0  0  0  0  0  0  0  0
    2.6108   -1.7701    0.2676 C   0  0  0  0  0  0  0  0  0  0  0  0
   -3.0875   -0.9452    1.5109 C   0  0  0  0  0  0  0  0  0  0  0  0
    1.5190   -0.9243    2.3140 C   0  0  0  0  0  0  0  0  0  0  0  0
    3.2556   -1.4486   -1.0678 C   0  0  0  0  0  0  0  0  0  0  0  0
    3.4468    0.9319   -0.1539 C   0  0  0  0  0  0  0  0  0  0  0  0
    4.0456   -0.1713   -0.9413 C   0  0  0  0  0  0  0  0  0  0  0  0
   -0.7908    0.5023    1.6329 H   0  0  0  0  0  0  0  0  0  0  0  0
    0.5036   -0.3789   -1.0037 H   0  0  0  0  0  0  0  0  0  0  0  0
   -1.6449    0.6931   -1.2718 H   0  0  0  0  0  0  0  0  0  0  0  0
   -0.5988   -2.2700    1.1107 H   0  0  0  0  0  0  0  0  0  0  0  0
    0.0509   -2.6782   -0.4659 H   0  0  0  0  0  0  0  0  0  0  0  0
   -1.8020   -1.6851   -1.6339 H   0  0  0  0  0  0  0  0  0  0  0  0
   -2.4328   -2.7639   -0.4073 H   0  0  0  0  0  0  0  0  0  0  0  0
   -0.3904    2.7772    0.9335 H   0  0  0  0  0  0  0  0  0  0  0  0
   -2.5862    2.7131   -0.3608 H   0  0  0  0  0  0  0  0  0  0  0  0
   -3.1167    1.8875    1.1098 H   0  0  0  0  0  0  0  0  0  0  0  0
    1.4754    1.8330    2.2136 H   0  0  0  0  0  0  0  0  0  0  0  0
    2.1222    2.8477    0.9348 H   0  0  0  0  0  0  0  0  0  0  0  0
   -4.1658    1.5755   -1.7364 H   0  0  0  0  0  0  0  0  0  0  0  0
   -5.0781    1.5291   -0.1847 H   0  0  0  0  0  0  0  0  0  0  0  0
    2.0831   -2.7269    0.2046 H   0  0  0  0  0  0  0  0  0  0  0  0
    3.4237   -1.9367    0.9906 H   0  0  0  0  0  0  0  0  0  0  0  0
   -3.6831   -1.8644    1.5692 H   0  0  0  0  0  0  0  0  0  0  0  0
   -2.2224   -1.0778    2.1657 H   0  0  0  0  0  0  0  0  0  0  0  0
   -3.7061   -0.1504    1.9413 H   0  0  0  0  0  0  0  0  0  0  0  0
    1.1706   -1.9479    2.4906 H   0  0  0  0  0  0  0  0  0  0  0  0
    2.4769   -0.8158    2.8380 H   0  0  0  0  0  0  0  0  0  0  0  0
    0.8130   -0.2541    2.8103 H   0  0  0  0  0  0  0  0  0  0  0  0
    2.5167   -1.3367   -1.8671 H   0  0  0  0  0  0  0  0  0  0  0  0
    3.9415   -2.2569   -1.3439 H   0  0  0  0  0  0  0  0  0  0  0  0
    3.8735    1.9193   -0.2937 H   0  0  0  0  0  0  0  0  0  0  0  0
    0.8213    3.2309   -0.9107 H   0  0  0  0  0  0  0  0  0  0  0  0
  1 11  1  0  0  0  0
  1 48  1  0  0  0  0
  2 15  2  0  0  0  0
  3 22  2  0  0  0  0
  4  5  1  0  0  0  0
  4  6  1  0  0  0  0
  4 11  1  0  0  0  0
  4 23  1  0  0  0  0
  5  8  1  0  0  0  0
  5  9  1  0  0  0  0
  5 24  1  0  0  0  0
  6  7  1  0  0  0  0
  6 12  1  0  0  0  0
  6 25  1  0  0  0  0
  7 10  1  0  0  0  0
  7 15  1  0  0  0  0
  7 18  1  0  0  0  0
  8 13  1  0  0  0  0
  8 17  1  0  0  0  0
  8 19  1  0  0  0  0
  9 10  1  0  0  0  0
  9 26  1  0  0  0  0
  9 27  1  0  0  0  0
 10 28  1  0  0  0  0
 10 29  1  0  0  0  0
 11 14  1  0  0  0  0
 11 30  1  0  0  0  0
 12 16  1  0  0  0  0
 12 31  1  0  0  0  0
 12 32  1  0  0  0  0
 13 14  1  0  0  0  0
 13 21  2  0  0  0  0
 14 33  1  0  0  0  0
 14 34  1  0  0  0  0
 15 16  1  0  0  0  0
 16 35  1  0  0  0  0
 16 36  1  0  0  0  0
 17 20  1  0  0  0  0
 17 37  1  0  0  0  0
 17 38  1  0  0  0  0
 18 39  1  0  0  0  0
 18 40  1  0  0  0  0
 18 41  1  0  0  0  0
 19 42  1  0  0  0  0
 19 43  1  0  0  0  0
 19 44  1  0  0  0  0
 20 22  1  0  0  0  0
 20 45  1  0  0  0  0
 20 46  1  0  0  0  0
 21 22  1  0  0  0  0
 21 47  1  0  0  0  0
M  END
> <PUBCHEM_COMPOUND_CID>
65542

> <PUBCHEM_CONFORMER_RMSD>
0.6

> <PUBCHEM_CONFORMER_DIVERSEORDER>
1

> <PUBCHEM_MMFF94_PARTIAL_CHARGES>
15
1 -0.68
11 0.28
13 -0.28
14 0.14
15 0.45
16 0.06
2 -0.57
20 0.06
21 -0.14
22 0.49
3 -0.57
47 0.15
48 0.4
7 0.06
8 0.14

> <PUBCHEM_EFFECTIVE_ROTOR_COUNT>
1.6

> <PUBCHEM_PHARMACOPHORE_FEATURES>
8
1 1 acceptor
1 1 donor
1 2 acceptor
1 3 acceptor
5 6 7 12 15 16 rings
6 4 5 6 7 9 10 rings
6 4 5 8 11 13 14 rings
6 8 13 17 20 21 22 rings

> <PUBCHEM_HEAVY_ATOM_COUNT>
22

> <PUBCHEM_ATOM_DEF_STEREO_COUNT>
6

> <PUBCHEM_ATOM_UDEF_STEREO_COUNT>
0

> <PUBCHEM_BOND_DEF_STEREO_COUNT>
0

> <PUBCHEM_BOND_UDEF_STEREO_COUNT>
0

> <PUBCHEM_ISOTOPIC_ATOM_COUNT>
0

> <PUBCHEM_COMPONENT_COUNT>
1

> <PUBCHEM_CACTVS_TAUTO_COUNT>
10

> <PUBCHEM_CONFORMER_ID>
0001000600000001

> <PUBCHEM_MMFF94_ENERGY>
67.4567

> <PUBCHEM_FEATURE_SELFOVERLAP>
40.712

> <PUBCHEM_SHAPE_FINGERPRINT>
10366900 7 17988362572959324491
104564 63 18263357160757829617
10498660 4 18272940456971544501
10759866 29 17774163542602050552
10863032 1 17989483047847653450
10967382 1 18337401443710915129
11578080 2 17414751870680410436
12011746 2 18411984663323797893
12236239 1 17988931097848874042
12553582 1 18333726935764191274
12670546 177 18341607114437076316
12788726 201 18118963834916308705
12892183 10 8214141803410895388
13134695 92 15719396105350992744
13140716 1 18267309909407009769
13221675 6 18411420570487173419
13224815 77 18273495675899118483
14790565 3 17830442144123611329
15163728 17 16628580205133539845
15196674 1 18408891754131254437
15210252 30 17846497045534961116
15238133 3 17988096597918237232
15536298 74 18187373090395603841
15635459 17 18335704931338968126
1601671 61 18338799025884735377
16752209 62 18263372532645982201
16945 1 18337114445079233904
17357779 13 18336273383398762037
17492 54 18343292657272437174
1813 80 4895561770973452528
18186145 218 17967819353318810859
19862831 5 18410574002336621057
200 152 16877659071689132190
20645477 70 18188498977380744709
20691752 17 17917999407490626985
20871999 31 18410288125044890430
21069387 34 14779271907714195623
21267235 1 18408035204271348423
21285901 2 18116147955508830956
21637258 2 15647329801709959254
221357 26 18261115175408288597
22182313 1 18121490259739470506
22393880 68 18337684065512602237
22907989 373 17986689249237485805
2334 1 18411144640466144817
23402539 116 17917706908071066460
23419403 2 15820913915080096575
23493267 7 18059851783414310027
23557571 272 17971202662736151914
23559900 14 17968106299772977616
2748010 2 18410866451134309641
2838139 119 16199289999046602220
296302 2 14764347132578294543
3004659 81 18268989950991482462
3060560 45 18335148565808028982
3323516 105 18334855000556090276
34934 24 18412271622836686088
350125 39 18409444822056381401
4280585 95 17251162300426695238
474 4 16988553577120922678
6786 2 6723832200667329408
7364860 26 18042412322196576224
9709674 26 18190750738882427183

> <PUBCHEM_SHAPE_MULTIPOLES>
435.14
8.18
2.23
1.41
0.77
0.46
-0.46
-0.78
3.67
0.15
0
-0.62
-0.25
0.21

> <PUBCHEM_SHAPE_SELFOVERLAP>
940.999

> <PUBCHEM_SHAPE_VOLUME>
236.9

> <PUBCHEM_COORDINATE_TYPE>
2
5
10

$$$$

