156317
  -OEChem-07051213143D

 40 43  0     1  0  0  0  0  0999 V2000
   -4.2361   -0.8208   -1.5139 O   0  0  0  0  0  0  0  0  0  0  0  0
   -4.4999    0.8338    1.6869 O   0  0  0  0  0  0  0  0  0  0  0  0
   -0.0330    0.0685   -0.0750 C   0  0  0  0  0  0  0  0  0  0  0  0
   -1.4451    0.2925   -0.1347 C   0  0  0  0  0  0  0  0  0  0  0  0
   -2.3397   -0.7999   -0.0560 C   0  0  0  0  0  0  0  0  0  0  0  0
   -3.8379   -0.6011   -0.1587 C   0  0  1  0  0  0  0  0  0  0  0  0
    0.4370   -1.2624    0.0534 C   0  0  0  0  0  0  0  0  0  0  0  0
    0.9499    1.0910   -0.1268 C   0  0  0  0  0  0  0  0  0  0  0  0
   -4.3053    0.7964    0.2751 C   0  0  2  0  0  0  0  0  0  0  0  0
    1.8157   -1.5302    0.1151 C   0  0  0  0  0  0  0  0  0  0  0  0
    2.3313    0.8261   -0.0641 C   0  0  0  0  0  0  0  0  0  0  0  0
    2.7694   -0.5050    0.0574 C   0  0  0  0  0  0  0  0  0  0  0  0
   -1.8417   -2.0997    0.0645 C   0  0  0  0  0  0  0  0  0  0  0  0
   -0.4714   -2.3254    0.1203 C   0  0  0  0  0  0  0  0  0  0  0  0
   -2.0260    1.6416   -0.2875 C   0  0  0  0  0  0  0  0  0  0  0  0
   -3.3278    1.8746   -0.0735 C   0  0  0  0  0  0  0  0  0  0  0  0
    0.6097    2.5549   -0.1390 C   0  0  0  0  0  0  0  0  0  0  0  0
    2.2923   -2.9536    0.2485 C   0  0  0  0  0  0  0  0  0  0  0  0
    3.2835    1.8587   -0.1192 C   0  0  0  0  0  0  0  0  0  0  0  0
    4.1470   -0.7759    0.1199 C   0  0  0  0  0  0  0  0  0  0  0  0
    4.6482    1.5763   -0.0558 C   0  0  0  0  0  0  0  0  0  0  0  0
    5.0798    0.2595    0.0632 C   0  0  0  0  0  0  0  0  0  0  0  0
   -4.3445   -1.3549    0.4571 H   0  0  0  0  0  0  0  0  0  0  0  0
   -5.2666    1.0292   -0.1986 H   0  0  0  0  0  0  0  0  0  0  0  0
   -2.5212   -2.9477    0.1042 H   0  0  0  0  0  0  0  0  0  0  0  0
   -0.1756   -3.3673    0.1833 H   0  0  0  0  0  0  0  0  0  0  0  0
   -1.5258    2.4474   -0.7927 H   0  0  0  0  0  0  0  0  0  0  0  0
   -3.7265    2.8686   -0.2592 H   0  0  0  0  0  0  0  0  0  0  0  0
   -0.1829    2.7754    0.5815 H   0  0  0  0  0  0  0  0  0  0  0  0
    1.3547    3.2261    0.2905 H   0  0  0  0  0  0  0  0  0  0  0  0
    0.4052    2.9108   -1.1529 H   0  0  0  0  0  0  0  0  0  0  0  0
    3.2662   -3.0678    0.7266 H   0  0  0  0  0  0  0  0  0  0  0  0
    2.3238   -3.4360   -0.7336 H   0  0  0  0  0  0  0  0  0  0  0  0
    1.6585   -3.5388    0.9220 H   0  0  0  0  0  0  0  0  0  0  0  0
    3.0636    2.9063   -0.2837 H   0  0  0  0  0  0  0  0  0  0  0  0
    4.5673   -1.7729    0.1794 H   0  0  0  0  0  0  0  0  0  0  0  0
   -3.8118   -1.6357   -1.8319 H   0  0  0  0  0  0  0  0  0  0  0  0
    5.3746    2.3815   -0.1175 H   0  0  0  0  0  0  0  0  0  0  0  0
    6.1423    0.0376    0.1011 H   0  0  0  0  0  0  0  0  0  0  0  0
   -5.1886    0.1829    1.9052 H   0  0  0  0  0  0  0  0  0  0  0  0
  1  6  1  0  0  0  0
  1 37  1  0  0  0  0
  2  9  1  0  0  0  0
  2 40  1  0  0  0  0
  3  4  1  0  0  0  0
  3  7  1  0  0  0  0
  3  8  2  0  0  0  0
  4  5  2  0  0  0  0
  4 15  1  0  0  0  0
  5  6  1  0  0  0  0
  5 13  1  0  0  0  0
  6  9  1  0  0  0  0
  6 23  1  0  0  0  0
  7 10  2  0  0  0  0
  7 14  1  0  0  0  0
  8 11  1  0  0  0  0
  8 17  1  0  0  0  0
  9 16  1  0  0  0  0
  9 24  1  0  0  0  0
 10 12  1  0  0  0  0
 10 18  1  0  0  0  0
 11 12  1  0  0  0  0
 11 19  2  0  0  0  0
 12 20  2  0  0  0  0
 13 14  2  0  0  0  0
 13 25  1  0  0  0  0
 14 26  1  0  0  0  0
 15 16  2  0  0  0  0
 15 27  1  0  0  0  0
 16 28  1  0  0  0  0
 17 29  1  0  0  0  0
 17 30  1  0  0  0  0
 17 31  1  0  0  0  0
 18 32  1  0  0  0  0
 18 33  1  0  0  0  0
 18 34  1  0  0  0  0
 19 21  1  0  0  0  0
 19 35  1  0  0  0  0
 20 22  1  0  0  0  0
 20 36  1  0  0  0  0
 21 22  2  0  0  0  0
 21 38  1  0  0  0  0
 22 39  1  0  0  0  0
M  END
> <PUBCHEM_COMPOUND_CID>
156317

> <PUBCHEM_CONFORMER_RMSD>
0.6

> <PUBCHEM_CONFORMER_DIVERSEORDER>
1

> <PUBCHEM_MMFF94_PARTIAL_CHARGES>
28
1 -0.68
10 -0.14
13 -0.15
14 -0.15
15 -0.18
16 -0.29
17 0.14
18 0.14
19 -0.15
2 -0.68
20 -0.15
21 -0.15
22 -0.15
25 0.15
26 0.15
27 0.15
28 0.15
35 0.15
36 0.15
37 0.4
38 0.15
39 0.15
4 0.03
40 0.4
5 -0.14
6 0.42
8 -0.14
9 0.42

> <PUBCHEM_EFFECTIVE_ROTOR_COUNT>
0.4

> <PUBCHEM_PHARMACOPHORE_FEATURES>
8
1 1 acceptor
1 1 donor
1 2 acceptor
1 2 donor
6 11 12 19 20 21 22 rings
6 3 4 5 7 13 14 rings
6 3 7 8 10 11 12 rings
6 4 5 6 9 15 16 rings

> <PUBCHEM_HEAVY_ATOM_COUNT>
22

> <PUBCHEM_ATOM_DEF_STEREO_COUNT>
2

> <PUBCHEM_ATOM_UDEF_STEREO_COUNT>
0

> <PUBCHEM_BOND_DEF_STEREO_COUNT>
0

> <PUBCHEM_BOND_UDEF_STEREO_COUNT>
0

> <PUBCHEM_ISOTOPIC_ATOM_COUNT>
0

> <PUBCHEM_COMPONENT_COUNT>
1

> <PUBCHEM_CACTVS_TAUTO_COUNT>
1

> <PUBCHEM_CONFORMER_ID>
0002629D00000001

> <PUBCHEM_MMFF94_ENERGY>
104.6499

> <PUBCHEM_FEATURE_SELFOVERLAP>
40.664

> <PUBCHEM_SHAPE_FINGERPRINT>
10411042 1 16754373810107835026
10493431 412 18410006624277393929
10616163 171 18339079294007342918
10967382 1 18411983585176242870
11578080 2 13684571704583707532
12011746 2 18413113839852850493
12107183 9 17687180211435020105
12236239 1 18040435508096156965
12390115 104 18120355585251988704
12403814 3 17775571935419350477
12592029 89 18341890818480558650
12644460 14 18272932769164720674
12788726 201 17459459116934735593
13132413 78 18409448098145666196
13140716 1 18123744253975625153
13224815 77 18412545422675099241
13583140 156 14779269730439946759
138480 1 17835241525395364066
14787075 74 18334860484912952665
14790565 3 18268702827895530548
15196674 1 18411138038922017046
15209289 33 18408041788667131753
15209294 21 18113610214321913345
15442244 35 18195249038261503156
15536298 74 18335420201104146742
1601671 61 18409728469822008384
16945 1 18340205193834869359
17349148 13 18341344322193296494
1813 80 17060616711614142460
19591789 44 18411700976323008262
200 152 18113623352457754575
20739085 24 18053075583552433297
21033648 29 17702963477555987389
21267235 1 18411411808870135294
21421861 104 17986396800745394962
22182313 1 17987804153695227741
23227448 37 18409730625383946839
2334 1 18339645636974040759
23366157 5 18059856229212252882
23402539 116 18333739017438811452
23559900 14 18334294254601458292
25147074 1 18260840336330383247
2748010 2 18197221553473796143
335352 9 18339361976407693910
34934 24 18411142445669492374
350125 39 18266735784355041091
3680242 22 18342180011803676666
4214541 1 18410293601191645580
474 4 17917428679630728084
5104073 3 18411982425545772794
69090 78 18409452466216914454
7364860 26 18337390556243607006
9709674 26 18409163324808366406

> <PUBCHEM_SHAPE_MULTIPOLES>
441.01
9.25
2.79
0.8
0.28
0.66
-0.05
-2.45
-0.44
0.74
-0.04
-0.77
-0.02
-0.53

> <PUBCHEM_SHAPE_SELFOVERLAP>
997.848

> <PUBCHEM_SHAPE_VOLUME>
232.7

> <PUBCHEM_COORDINATE_TYPE>
2
5
10

$$$$

