5280549
  -OEChem-07051212472D

 19 18  0     0  0  0  0  0  0999 V2000
    2.5369    0.1900    0.0000 O   0  0  0  0  0  0  0  0  0  0  0  0
    4.2690   -0.8100    0.0000 C   0  0  0  0  0  0  0  0  0  0  0  0
    4.2690    0.1900    0.0000 C   0  0  0  0  0  0  0  0  0  0  0  0
    3.4030    0.6900    0.0000 C   0  0  0  0  0  0  0  0  0  0  0  0
    3.4030   -1.3100    0.0000 C   0  0  0  0  0  0  0  0  0  0  0  0
    5.1350    0.6900    0.0000 C   0  0  0  0  0  0  0  0  0  0  0  0
    6.0010    0.1900    0.0000 C   0  0  0  0  0  0  0  0  0  0  0  0
    4.4810   -1.3926    0.0000 H   0  0  0  0  0  0  0  0  0  0  0  0
    4.8796   -0.7023    0.0000 H   0  0  0  0  0  0  0  0  0  0  0  0
    3.8015    1.1650    0.0000 H   0  0  0  0  0  0  0  0  0  0  0  0
    3.0044    1.1650    0.0000 H   0  0  0  0  0  0  0  0  0  0  0  0
    3.0930   -0.7731    0.0000 H   0  0  0  0  0  0  0  0  0  0  0  0
    2.8660   -1.6200    0.0000 H   0  0  0  0  0  0  0  0  0  0  0  0
    3.7130   -1.8469    0.0000 H   0  0  0  0  0  0  0  0  0  0  0  0
    5.1350    1.3100    0.0000 H   0  0  0  0  0  0  0  0  0  0  0  0
    5.6910   -0.3469    0.0000 H   0  0  0  0  0  0  0  0  0  0  0  0
    6.5380   -0.1200    0.0000 H   0  0  0  0  0  0  0  0  0  0  0  0
    6.3110    0.7269    0.0000 H   0  0  0  0  0  0  0  0  0  0  0  0
    2.0000    0.5000    0.0000 H   0  0  0  0  0  0  0  0  0  0  0  0
  1  4  1  0  0  0  0
  1 19  1  0  0  0  0
  2  3  1  0  0  0  0
  2  5  1  0  0  0  0
  2  8  1  0  0  0  0
  2  9  1  0  0  0  0
  3  4  1  0  0  0  0
  3  6  2  0  0  0  0
  4 10  1  0  0  0  0
  4 11  1  0  0  0  0
  5 12  1  0  0  0  0
  5 13  1  0  0  0  0
  5 14  1  0  0  0  0
  6  7  1  0  0  0  0
  6 15  1  0  0  0  0
  7 16  1  0  0  0  0
  7 17  1  0  0  0  0
  7 18  1  0  0  0  0
M  END
> <PUBCHEM_COMPOUND_CID>
5280549

> <PUBCHEM_COMPOUND_CANONICALIZED>
1

> <PUBCHEM_CACTVS_COMPLEXITY>
64.6

> <PUBCHEM_CACTVS_HBOND_ACCEPTOR>
1

> <PUBCHEM_CACTVS_HBOND_DONOR>
1

> <PUBCHEM_CACTVS_ROTATABLE_BOND>
2

> <PUBCHEM_CACTVS_SUBSKEYS>
AAADccBgIAAAAAAAAAAAAAAAAAAAAAAAAAAAAAAAAAAAAAAAAAAAGgAACAAADACggAICAAAAAgCAAiBCAAAAAAAgAAAACAAAAAgAFAAAAQAAUAAEAAAIEAIAAAAAAAAAAAAAAAAAAAAAAAAAAAAAAAAAAA==

> <PUBCHEM_IUPAC_OPENEYE_NAME>
(E)-2-ethylbut-2-en-1-ol

> <PUBCHEM_IUPAC_CAS_NAME>
(E)-2-ethyl-2-buten-1-ol

> <PUBCHEM_IUPAC_NAME>
(E)-2-ethylbut-2-en-1-ol

> <PUBCHEM_IUPAC_SYSTEMATIC_NAME>
(E)-2-ethylbut-2-en-1-ol

> <PUBCHEM_IUPAC_TRADITIONAL_NAME>
(E)-2-ethylbut-2-en-1-ol

> <PUBCHEM_IUPAC_INCHI>
InChI=1S/C6H12O/c1-3-6(4-2)5-7/h3,7H,4-5H2,1-2H3/b6-3+

> <PUBCHEM_IUPAC_INCHIKEY>
ACIAHEMYLLBZOI-ZZXKWVIFSA-N

> <PUBCHEM_XLOGP3_AA>
1.5

> <PUBCHEM_EXACT_MASS>
100.088815

> <PUBCHEM_MOLECULAR_FORMULA>
C6H12O

> <PUBCHEM_MOLECULAR_WEIGHT>
100.15888

> <PUBCHEM_OPENEYE_CAN_SMILES>
CCC(=CC)CO

> <PUBCHEM_OPENEYE_ISO_SMILES>
CC/C(=C\C)/CO

> <PUBCHEM_CACTVS_TPSA>
20.2

> <PUBCHEM_MONOISOTOPIC_WEIGHT>
100.088815

> <PUBCHEM_TOTAL_CHARGE>
0

> <PUBCHEM_HEAVY_ATOM_COUNT>
7

> <PUBCHEM_ATOM_DEF_STEREO_COUNT>
0

> <PUBCHEM_ATOM_UDEF_STEREO_COUNT>
0

> <PUBCHEM_BOND_DEF_STEREO_COUNT>
1

> <PUBCHEM_BOND_UDEF_STEREO_COUNT>
0

> <PUBCHEM_ISOTOPIC_ATOM_COUNT>
0

> <PUBCHEM_COMPONENT_COUNT>
1

> <PUBCHEM_CACTVS_TAUTO_COUNT>
1

> <PUBCHEM_COORDINATE_TYPE>
1
5
255

$$$$

