46174032
  -OEChem-07051213113D

 70 72  0     1  0  0  0  0  0999 V2000
    0.4624    3.4391   -0.4336 P   0  0  0  0  0  0  0  0  0  0  0  0
   -1.4530   -1.0928   -0.0645 O   0  0  0  0  0  0  0  0  0  0  0  0
    2.1944   -1.1888   -0.3064 O   0  0  0  0  0  0  0  0  0  0  0  0
   -2.3456    1.0869   -0.2910 O   0  0  0  0  0  0  0  0  0  0  0  0
    2.6473    0.2572    1.4938 O   0  0  0  0  0  0  0  0  0  0  0  0
   -0.2722   -3.2724    1.4089 O   0  0  0  0  0  0  0  0  0  0  0  0
    5.4886   -0.6144    1.0426 O   0  0  0  0  0  0  0  0  0  0  0  0
   -4.7893   -0.4989    2.6415 O   0  0  0  0  0  0  0  0  0  0  0  0
    5.3684    1.7973   -0.2649 O   0  0  0  0  0  0  0  0  0  0  0  0
   -5.8078   -0.1448   -0.0235 O   0  0  0  0  0  0  0  0  0  0  0  0
    1.5617    2.3148   -0.0499 O   0  0  0  0  0  0  0  0  0  0  0  0
    1.3505    4.7542   -0.7453 O   0  0  0  0  0  0  0  0  0  0  0  0
   -0.2181    3.7795    0.9933 O   0  0  0  0  0  0  0  0  0  0  0  0
   -0.4990    3.0428   -1.5158 O   0  0  0  0  0  0  0  0  0  0  0  0
    0.7751   -1.7184   -2.9235 N   0  0  0  0  0  0  0  0  0  0  0  0
    2.0175   -4.0132   -1.3732 N   0  0  0  0  0  0  0  0  0  0  0  0
   -1.9268   -1.0050    2.7498 N   0  0  0  0  0  0  0  0  0  0  0  0
   -3.2361    1.8958   -2.8303 N   0  0  0  0  0  0  0  0  0  0  0  0
   -0.1937   -1.0775   -0.7410 C   0  0  1  0  0  0  0  0  0  0  0  0
    0.9165   -1.5190    0.2290 C   0  0  1  0  0  0  0  0  0  0  0  0
   -0.3206   -1.9718   -1.9879 C   0  0  2  0  0  0  0  0  0  0  0  0
    0.8575   -3.0182    0.5705 C   0  0  2  0  0  0  0  0  0  0  0  0
    0.7409   -3.9322   -0.6631 C   0  0  1  0  0  0  0  0  0  0  0  0
   -0.3852   -3.4616   -1.6024 C   0  0  0  0  0  0  0  0  0  0  0  0
   -1.7055    0.1524    0.5832 C   0  0  1  0  0  0  0  0  0  0  0  0
    3.1179   -0.8691    0.7274 C   0  0  2  0  0  0  0  0  0  0  0  0
   -2.5603   -0.0497    1.8401 C   0  0  1  0  0  0  0  0  0  0  0  0
    4.4350   -0.4351    0.1012 C   0  0  1  0  0  0  0  0  0  0  0  0
   -3.9727   -0.5153    1.4693 C   0  0  2  0  0  0  0  0  0  0  0  0
    4.1840    1.0434   -0.1172 C   0  0  1  0  0  0  0  0  0  0  0  0
   -4.5855    0.4310    0.4308 C   0  0  1  0  0  0  0  0  0  0  0  0
   -3.6310    0.6531   -0.7487 C   0  0  1  0  0  0  0  0  0  0  0  0
    3.4246    1.4166    1.1455 C   0  0  1  0  0  0  0  0  0  0  0  0
   -4.1468    1.7215   -1.7090 C   0  0  0  0  0  0  0  0  0  0  0  0
    2.5068    2.6127    0.9645 C   0  0  0  0  0  0  0  0  0  0  0  0
    0.0154   -0.0571   -1.0945 H   0  0  0  0  0  0  0  0  0  0  0  0
    0.7438   -0.9814    1.1684 H   0  0  0  0  0  0  0  0  0  0  0  0
   -1.2583   -1.7264   -2.5031 H   0  0  0  0  0  0  0  0  0  0  0  0
    1.7394   -3.3095    1.1521 H   0  0  0  0  0  0  0  0  0  0  0  0
    0.4857   -4.9475   -0.3335 H   0  0  0  0  0  0  0  0  0  0  0  0
   -1.3469   -3.6450   -1.1037 H   0  0  0  0  0  0  0  0  0  0  0  0
   -0.4060   -4.0841   -2.5072 H   0  0  0  0  0  0  0  0  0  0  0  0
   -0.7653    0.6216    0.8995 H   0  0  0  0  0  0  0  0  0  0  0  0
    3.2530   -1.7188    1.4045 H   0  0  0  0  0  0  0  0  0  0  0  0
   -2.6422    0.9112    2.3659 H   0  0  0  0  0  0  0  0  0  0  0  0
    4.6958   -0.9593   -0.8230 H   0  0  0  0  0  0  0  0  0  0  0  0
   -3.9696   -1.5463    1.0947 H   0  0  0  0  0  0  0  0  0  0  0  0
    3.5682    1.1813   -1.0137 H   0  0  0  0  0  0  0  0  0  0  0  0
   -4.8326    1.3876    0.9071 H   0  0  0  0  0  0  0  0  0  0  0  0
   -3.5151   -0.2821   -1.3139 H   0  0  0  0  0  0  0  0  0  0  0  0
    4.1145    1.6224    1.9732 H   0  0  0  0  0  0  0  0  0  0  0  0
    0.7526   -0.7451   -3.2246 H   0  0  0  0  0  0  0  0  0  0  0  0
    0.6479   -2.2829   -3.7624 H   0  0  0  0  0  0  0  0  0  0  0  0
    1.9360   -4.6634   -2.1536 H   0  0  0  0  0  0  0  0  0  0  0  0
    2.7320   -4.3931   -0.7537 H   0  0  0  0  0  0  0  0  0  0  0  0
   -0.2438   -4.2094    1.6675 H   0  0  0  0  0  0  0  0  0  0  0  0
   -5.1360    1.4506   -2.0919 H   0  0  0  0  0  0  0  0  0  0  0  0
   -4.2376    2.6821   -1.1886 H   0  0  0  0  0  0  0  0  0  0  0  0
    1.9679    2.8048    1.8976 H   0  0  0  0  0  0  0  0  0  0  0  0
    3.0831    3.5016    0.6908 H   0  0  0  0  0  0  0  0  0  0  0  0
   -1.0141   -0.6530    3.0354 H   0  0  0  0  0  0  0  0  0  0  0  0
   -2.4838   -1.0889    3.5991 H   0  0  0  0  0  0  0  0  0  0  0  0
    5.5799   -1.5701    1.1973 H   0  0  0  0  0  0  0  0  0  0  0  0
   -4.8000    0.4087    2.9902 H   0  0  0  0  0  0  0  0  0  0  0  0
    5.8596    1.4244   -1.0166 H   0  0  0  0  0  0  0  0  0  0  0  0
   -5.5971   -0.9797   -0.4755 H   0  0  0  0  0  0  0  0  0  0  0  0
   -2.3148    2.1635   -2.4866 H   0  0  0  0  0  0  0  0  0  0  0  0
   -3.5594    2.6653   -3.4148 H   0  0  0  0  0  0  0  0  0  0  0  0
   -0.9962    4.3763    1.0176 H   0  0  0  0  0  0  0  0  0  0  0  0
    0.9019    5.5634   -1.0708 H   0  0  0  0  0  0  0  0  0  0  0  0
  1 11  1  0  0  0  0
  1 12  1  0  0  0  0
  1 13  1  0  0  0  0
  1 14  2  0  0  0  0
  2 19  1  0  0  0  0
  2 25  1  0  0  0  0
  3 20  1  0  0  0  0
  3 26  1  0  0  0  0
  4 25  1  0  0  0  0
  4 32  1  0  0  0  0
  5 26  1  0  0  0  0
  5 33  1  0  0  0  0
  6 22  1  0  0  0  0
  6 56  1  0  0  0  0
  7 28  1  0  0  0  0
  7 63  1  0  0  0  0
  8 29  1  0  0  0  0
  8 64  1  0  0  0  0
  9 30  1  0  0  0  0
  9 65  1  0  0  0  0
 10 31  1  0  0  0  0
 10 66  1  0  0  0  0
 11 35  1  0  0  0  0
 12 70  1  0  0  0  0
 13 69  1  0  0  0  0
 15 21  1  0  0  0  0
 15 52  1  0  0  0  0
 15 53  1  0  0  0  0
 16 23  1  0  0  0  0
 16 54  1  0  0  0  0
 16 55  1  0  0  0  0
 17 27  1  0  0  0  0
 17 61  1  0  0  0  0
 17 62  1  0  0  0  0
 18 34  1  0  0  0  0
 18 67  1  0  0  0  0
 18 68  1  0  0  0  0
 19 20  1  0  0  0  0
 19 21  1  0  0  0  0
 19 36  1  0  0  0  0
 20 22  1  0  0  0  0
 20 37  1  0  0  0  0
 21 24  1  0  0  0  0
 21 38  1  0  0  0  0
 22 23  1  0  0  0  0
 22 39  1  0  0  0  0
 23 24  1  0  0  0  0
 23 40  1  0  0  0  0
 24 41  1  0  0  0  0
 24 42  1  0  0  0  0
 25 27  1  0  0  0  0
 25 43  1  0  0  0  0
 26 28  1  0  0  0  0
 26 44  1  0  0  0  0
 27 29  1  0  0  0  0
 27 45  1  0  0  0  0
 28 30  1  0  0  0  0
 28 46  1  0  0  0  0
 29 31  1  0  0  0  0
 29 47  1  0  0  0  0
 30 33  1  0  0  0  0
 30 48  1  0  0  0  0
 31 32  1  0  0  0  0
 31 49  1  0  0  0  0
 32 34  1  0  0  0  0
 32 50  1  0  0  0  0
 33 35  1  0  0  0  0
 33 51  1  0  0  0  0
 34 57  1  0  0  0  0
 34 58  1  0  0  0  0
 35 59  1  0  0  0  0
 35 60  1  0  0  0  0
M  END
> <PUBCHEM_COMPOUND_CID>
46174032

> <PUBCHEM_CONFORMER_RMSD>
1.2

> <PUBCHEM_CONFORMER_DIVERSEORDER>
1
25
27
17
15
10
14
33
30
29
22
37
20
6
18
34
5
16
7
8
12
26
24
23
36
35
13
2
28
31
11
19
9
21
4
3
32

> <PUBCHEM_MMFF94_PARTIAL_CHARGES>
49
1 1.51
10 -0.68
11 -0.55
12 -0.77
13 -0.77
14 -0.7
15 -0.99
16 -0.99
17 -0.99
18 -0.99
19 0.28
2 -0.56
20 0.28
21 0.27
22 0.28
23 0.27
25 0.56
26 0.56
27 0.27
28 0.28
29 0.28
3 -0.56
30 0.28
31 0.28
32 0.28
33 0.28
34 0.27
35 0.28
4 -0.56
5 -0.56
52 0.36
53 0.36
54 0.36
55 0.36
56 0.4
6 -0.68
61 0.36
62 0.36
63 0.4
64 0.4
65 0.4
66 0.4
67 0.36
68 0.36
69 0.5
7 -0.68
70 0.5
8 -0.68
9 -0.68

> <PUBCHEM_EFFECTIVE_ROTOR_COUNT>
11.4

> <PUBCHEM_PHARMACOPHORE_FEATURES>
29
1 10 acceptor
1 10 donor
1 12 acceptor
1 13 acceptor
1 14 acceptor
1 15 cation
1 15 donor
1 16 cation
1 16 donor
1 17 cation
1 17 donor
1 18 cation
1 18 donor
1 2 acceptor
1 3 acceptor
1 4 acceptor
1 5 acceptor
1 6 acceptor
1 6 donor
1 7 acceptor
1 7 donor
1 8 acceptor
1 8 donor
1 9 acceptor
1 9 donor
4 1 12 13 14 anion
5 5 26 28 30 33 rings
6 19 20 21 22 23 24 rings
6 4 25 27 29 31 32 rings

> <PUBCHEM_HEAVY_ATOM_COUNT>
35

> <PUBCHEM_ATOM_DEF_STEREO_COUNT>
14

> <PUBCHEM_ATOM_UDEF_STEREO_COUNT>
0

> <PUBCHEM_BOND_DEF_STEREO_COUNT>
0

> <PUBCHEM_BOND_UDEF_STEREO_COUNT>
0

> <PUBCHEM_ISOTOPIC_ATOM_COUNT>
0

> <PUBCHEM_COMPONENT_COUNT>
1

> <PUBCHEM_CACTVS_TAUTO_COUNT>
1

> <PUBCHEM_CONFORMER_ID>
02C08F5000000001

> <PUBCHEM_MMFF94_ENERGY>
44.3092

> <PUBCHEM_FEATURE_SELFOVERLAP>
147.299

> <PUBCHEM_SHAPE_FINGERPRINT>
11578080 2 18056467581508733399
11582403 64 17341294607030348767
12156800 1 14609482844263097672
12788726 201 17176301586743672975
13402501 40 18201725076077098341
13583140 156 18201444692090640075
1361 2 18336840705903028189
13911987 19 18408602543665619709
19319366 153 17845939533594899746
20600515 1 17488447741132567301
20764821 26 18267606627434215716
20775438 99 17330031338590584589
20905425 154 17904205072289842532
21033648 29 18270695202624968072
22113638 7 18337399244746116964
23558518 356 17905618705083742546
23559900 14 17416113121694095159
3493558 16 17896887551661231991
35225 105 17323218330678911609
469060 322 18340780234759851431
474 4 18186796985057841651
5252454 2 17834383528189410657

> <PUBCHEM_SHAPE_MULTIPOLES>
627.91
9.04
5.18
2.27
1.49
0.56
0.25
3.28
-2.44
-2.96
2.13
2.23
-0.54
1.51

> <PUBCHEM_SHAPE_SELFOVERLAP>
1281.118

> <PUBCHEM_SHAPE_VOLUME>
365

> <PUBCHEM_COORDINATE_TYPE>
2
5
10

$$$$

