12489
  -OEChem-06261207002D

 13 13  0     0  0  0  0  0  0999 V2000
    2.8090   -0.4594    0.0000 N   0  0  0  0  0  0  0  0  0  0  0  0
    3.6180    0.1284    0.0000 C   0  0  0  0  0  0  0  0  0  0  0  0
    3.3090    1.0794    0.0000 C   0  0  0  0  0  0  0  0  0  0  0  0
    4.5691   -0.1807    0.0000 C   0  0  0  0  0  0  0  0  0  0  0  0
    2.0000    0.1284    0.0000 C   0  0  0  0  0  0  0  0  0  0  0  0
    2.3090    1.0794    0.0000 C   0  0  0  0  0  0  0  0  0  0  0  0
    2.8090   -1.0794    0.0000 H   0  0  0  0  0  0  0  0  0  0  0  0
    3.6734    1.5810    0.0000 H   0  0  0  0  0  0  0  0  0  0  0  0
    4.3775   -0.7703    0.0000 H   0  0  0  0  0  0  0  0  0  0  0  0
    5.1588   -0.3722    0.0000 H   0  0  0  0  0  0  0  0  0  0  0  0
    4.7607    0.4090    0.0000 H   0  0  0  0  0  0  0  0  0  0  0  0
    1.4103   -0.0632    0.0000 H   0  0  0  0  0  0  0  0  0  0  0  0
    1.9446    1.5810    0.0000 H   0  0  0  0  0  0  0  0  0  0  0  0
  1  2  1  0  0  0  0
  1  5  1  0  0  0  0
  1  7  1  0  0  0  0
  2  3  2  0  0  0  0
  2  4  1  0  0  0  0
  3  6  1  0  0  0  0
  3  8  1  0  0  0  0
  4  9  1  0  0  0  0
  4 10  1  0  0  0  0
  4 11  1  0  0  0  0
  5  6  2  0  0  0  0
  5 12  1  0  0  0  0
  6 13  1  0  0  0  0
M  END
> <PUBCHEM_COMPOUND_CID>
12489

> <PUBCHEM_COMPOUND_CANONICALIZED>
1

> <PUBCHEM_CACTVS_COMPLEXITY>
43.2

> <PUBCHEM_CACTVS_HBOND_ACCEPTOR>
0

> <PUBCHEM_CACTVS_HBOND_DONOR>
1

> <PUBCHEM_CACTVS_ROTATABLE_BOND>
0

> <PUBCHEM_CACTVS_SUBSKEYS>
AAADcYBiAAAAAAAAAAAAAAAAAAAAAWAAAAAAAAAAAAAAAAABgAAAHAAQAAAACAjBFgQ+gJLJkACgATRnRACCgCAxAiAI2aA4ZJgIIOLAkZGEAAhgkADIyAYQAAAAAAAAAAAAAAAAAAAAAAAAAAAAAAAAAA==

> <PUBCHEM_IUPAC_OPENEYE_NAME>
2-methyl-1H-pyrrole

> <PUBCHEM_IUPAC_CAS_NAME>
2-methyl-1H-pyrrole

> <PUBCHEM_IUPAC_NAME>
2-methyl-1H-pyrrole

> <PUBCHEM_IUPAC_SYSTEMATIC_NAME>
2-methyl-1H-pyrrole

> <PUBCHEM_IUPAC_TRADITIONAL_NAME>
2-methyl-1H-pyrrole

> <PUBCHEM_IUPAC_INCHI>
InChI=1S/C5H7N/c1-5-3-2-4-6-5/h2-4,6H,1H3

> <PUBCHEM_IUPAC_INCHIKEY>
TVCXVUHHCUYLGX-UHFFFAOYSA-N

> <PUBCHEM_XLOGP3_AA>
1.1

> <PUBCHEM_EXACT_MASS>
81.057849

> <PUBCHEM_MOLECULAR_FORMULA>
C5H7N

> <PUBCHEM_MOLECULAR_WEIGHT>
81.11578

> <PUBCHEM_OPENEYE_CAN_SMILES>
CC1=CC=CN1

> <PUBCHEM_OPENEYE_ISO_SMILES>
CC1=CC=CN1

> <PUBCHEM_CACTVS_TPSA>
15.8

> <PUBCHEM_MONOISOTOPIC_WEIGHT>
81.057849

> <PUBCHEM_TOTAL_CHARGE>
0

> <PUBCHEM_HEAVY_ATOM_COUNT>
6

> <PUBCHEM_ATOM_DEF_STEREO_COUNT>
0

> <PUBCHEM_ATOM_UDEF_STEREO_COUNT>
0

> <PUBCHEM_BOND_DEF_STEREO_COUNT>
0

> <PUBCHEM_BOND_UDEF_STEREO_COUNT>
0

> <PUBCHEM_ISOTOPIC_ATOM_COUNT>
0

> <PUBCHEM_COMPONENT_COUNT>
1

> <PUBCHEM_CACTVS_TAUTO_COUNT>
1

> <PUBCHEM_COORDINATE_TYPE>
1
5
255

> <PUBCHEM_BONDANNOTATIONS>
1  2  8
1  5  8
2  3  8
3  6  8
5  6  8

$$$$

