8973
  -OEChem-06261203172D

 27 26  0     1  0  0  0  0  0999 V2000
    4.5981   -1.1550    0.0000 O   0  0  0  0  0  0  0  0  0  0  0  0
    5.4641    1.3450    0.0000 O   0  0  0  0  0  0  0  0  0  0  0  0
    6.3301   -1.1550    0.0000 O   0  0  0  0  0  0  0  0  0  0  0  0
    3.7320    1.3450    0.0000 O   0  0  0  0  0  0  0  0  0  0  0  0
    8.0622   -0.1550    0.0000 O   0  0  0  0  0  0  0  0  0  0  0  0
    2.0000    0.3450    0.0000 O   0  0  0  0  0  0  0  0  0  0  0  0
    5.4641    0.3450    0.0000 C   0  0  1  0  0  0  0  0  0  0  0  0
    4.5981   -0.1550    0.0000 C   0  0  1  0  0  0  0  0  0  0  0  0
    6.3301   -0.1550    0.0000 C   0  0  1  0  0  0  0  0  0  0  0  0
    3.7320    0.3450    0.0000 C   0  0  2  0  0  0  0  0  0  0  0  0
    7.1962    0.3450    0.0000 C   0  0  0  0  0  0  0  0  0  0  0  0
    2.8660   -0.1550    0.0000 C   0  0  0  0  0  0  0  0  0  0  0  0
    3.7320   -1.6550    0.0000 C   0  0  0  0  0  0  0  0  0  0  0  0
    6.0010    0.6550    0.0000 H   0  0  0  0  0  0  0  0  0  0  0  0
    5.1350   -0.4650    0.0000 H   0  0  0  0  0  0  0  0  0  0  0  0
    6.8671   -0.4650    0.0000 H   0  0  0  0  0  0  0  0  0  0  0  0
    4.2690    0.6550    0.0000 H   0  0  0  0  0  0  0  0  0  0  0  0
    7.5947    0.8199    0.0000 H   0  0  0  0  0  0  0  0  0  0  0  0
    6.7976    0.8199    0.0000 H   0  0  0  0  0  0  0  0  0  0  0  0
    6.0010    1.6550    0.0000 H   0  0  0  0  0  0  0  0  0  0  0  0
    2.8660   -0.7750    0.0000 H   0  0  0  0  0  0  0  0  0  0  0  0
    6.8671   -1.4650    0.0000 H   0  0  0  0  0  0  0  0  0  0  0  0
    3.1951    1.6550    0.0000 H   0  0  0  0  0  0  0  0  0  0  0  0
    3.4220   -1.1181    0.0000 H   0  0  0  0  0  0  0  0  0  0  0  0
    3.1951   -1.9650    0.0000 H   0  0  0  0  0  0  0  0  0  0  0  0
    4.0420   -2.1919    0.0000 H   0  0  0  0  0  0  0  0  0  0  0  0
    8.5991    0.1550    0.0000 H   0  0  0  0  0  0  0  0  0  0  0  0
  8  1  1  6  0  0  0
  1 13  1  0  0  0  0
  7  2  1  6  0  0  0
  2 20  1  0  0  0  0
  9  3  1  1  0  0  0
  3 22  1  0  0  0  0
 10  4  1  6  0  0  0
  4 23  1  0  0  0  0
  5 11  1  0  0  0  0
  5 27  1  0  0  0  0
  6 12  2  0  0  0  0
  7  8  1  0  0  0  0
  7  9  1  0  0  0  0
  7 14  1  0  0  0  0
  8 10  1  0  0  0  0
  8 15  1  0  0  0  0
  9 11  1  0  0  0  0
  9 16  1  0  0  0  0
 10 12  1  0  0  0  0
 10 17  1  0  0  0  0
 11 18  1  0  0  0  0
 11 19  1  0  0  0  0
 12 21  1  0  0  0  0
 13 24  1  0  0  0  0
 13 25  1  0  0  0  0
 13 26  1  0  0  0  0
M  END
> <PUBCHEM_COMPOUND_CID>
8973

> <PUBCHEM_COMPOUND_CANONICALIZED>
1

> <PUBCHEM_CACTVS_COMPLEXITY>
150

> <PUBCHEM_CACTVS_HBOND_ACCEPTOR>
6

> <PUBCHEM_CACTVS_HBOND_DONOR>
4

> <PUBCHEM_CACTVS_ROTATABLE_BOND>
6

> <PUBCHEM_CACTVS_SUBSKEYS>
AAADccBgOAAAAAAAAAAAAAAAAAAAAAAAAAAAAAAAAAAAAAAAAAAAGgAACAAACBSggAICAAAABgAIAAgQgAIAAAAAAAAAAAFAAAABEBYAAAAAQAAFIAADAAHKbARAAAAAAAAAAAAAAAAAAAAAAAAAAAAAAA==

> <PUBCHEM_IUPAC_OPENEYE_NAME>
(2R,3S,4R,5R)-2,4,5,6-tetrahydroxy-3-methoxy-hexanal

> <PUBCHEM_IUPAC_CAS_NAME>
(2R,3S,4R,5R)-2,4,5,6-tetrahydroxy-3-methoxyhexanal

> <PUBCHEM_IUPAC_NAME>
(2R,3S,4R,5R)-2,4,5,6-tetrahydroxy-3-methoxyhexanal

> <PUBCHEM_IUPAC_SYSTEMATIC_NAME>
(2R,3S,4R,5R)-3-methoxy-2,4,5,6-tetrakis(oxidanyl)hexanal

> <PUBCHEM_IUPAC_TRADITIONAL_NAME>
(2R,3S,4R,5R)-2,4,5,6-tetrahydroxy-3-methoxy-hexanal

> <PUBCHEM_IUPAC_INCHI>
InChI=1S/C7H14O6/c1-13-7(5(11)3-9)6(12)4(10)2-8/h3-8,10-12H,2H2,1H3/t4-,5+,6-,7-/m1/s1

> <PUBCHEM_IUPAC_INCHIKEY>
RMTFNDVZYPHUEF-XZBKPIIZSA-N

> <PUBCHEM_XLOGP3_AA>
-2.9

> <PUBCHEM_EXACT_MASS>
194.079038

> <PUBCHEM_MOLECULAR_FORMULA>
C7H14O6

> <PUBCHEM_MOLECULAR_WEIGHT>
194.18246

> <PUBCHEM_OPENEYE_CAN_SMILES>
COC(C(C=O)O)C(C(CO)O)O

> <PUBCHEM_OPENEYE_ISO_SMILES>
CO[C@H]([C@H](C=O)O)[C@@H]([C@@H](CO)O)O

> <PUBCHEM_CACTVS_TPSA>
107

> <PUBCHEM_MONOISOTOPIC_WEIGHT>
194.079038

> <PUBCHEM_TOTAL_CHARGE>
0

> <PUBCHEM_HEAVY_ATOM_COUNT>
13

> <PUBCHEM_ATOM_DEF_STEREO_COUNT>
4

> <PUBCHEM_ATOM_UDEF_STEREO_COUNT>
0

> <PUBCHEM_BOND_DEF_STEREO_COUNT>
0

> <PUBCHEM_BOND_UDEF_STEREO_COUNT>
0

> <PUBCHEM_ISOTOPIC_ATOM_COUNT>
0

> <PUBCHEM_COMPONENT_COUNT>
1

> <PUBCHEM_CACTVS_TAUTO_COUNT>
4

> <PUBCHEM_COORDINATE_TYPE>
1
5
255

> <PUBCHEM_BONDANNOTATIONS>
8  1  6
7  2  6
9  3  5
10  4  6

$$$$

