46173854
  -OEChem-07051213092D

 59 63  0     1  0  0  0  0  0999 V2000
    2.8304    0.8883    0.0000 O   0  0  0  0  0  0  0  0  0  0  0  0
    7.2580    0.5622    0.0000 O   0  0  0  0  0  0  0  0  0  0  0  0
    7.2580    2.1717    0.0000 O   0  0  0  0  0  0  0  0  0  0  0  0
    5.9457    3.2330    0.0000 O   0  0  0  0  0  0  0  0  0  0  0  0
    7.2700   -0.6786    0.0000 O   0  0  0  0  0  0  0  0  0  0  0  0
    7.3022   -2.7700    0.0000 O   0  0  0  0  0  0  0  0  0  0  0  0
    2.0000    2.3967    0.0000 O   0  0  0  0  0  0  0  0  0  0  0  0
    4.5797    0.8670    0.0000 C   0  0  2  0  0  0  0  0  0  0  0  0
    5.4457    0.3670    0.0000 C   0  0  1  0  0  0  0  0  0  0  0  0
    5.4618   -0.6745    0.0000 C   0  0  1  0  0  0  0  0  0  0  0  0
    4.5797    1.8670    0.0000 C   0  0  3  0  0  0  0  0  0  0  0  0
    3.6697    0.3601    0.0000 C   0  0  1  0  0  0  0  0  0  0  0  0
    6.3118    0.8670    0.0000 C   0  0  1  0  0  0  0  0  0  0  0  0
    4.5638   -1.2023    0.0000 C   0  0  1  0  0  0  0  0  0  0  0  0
    5.4457    2.3670    0.0000 C   0  0  1  0  0  0  0  0  0  0  0  0
    6.3118    1.8670    0.0000 C   0  0  2  0  0  0  0  0  0  0  0  0
    3.6617   -0.6815    0.0000 C   0  0  0  0  0  0  0  0  0  0  0  0
    4.5797   -0.1330    0.0000 C   0  0  0  0  0  0  0  0  0  0  0  0
    3.7215    2.3639    0.0000 C   0  0  0  0  0  0  0  0  0  0  0  0
    4.5554   -2.2873    0.0000 C   0  0  1  0  0  0  0  0  0  0  0  0
    6.3239   -0.1679    0.0000 C   0  0  0  0  0  0  0  0  0  0  0  0
    6.4137   -1.1952    0.0000 C   0  0  0  0  0  0  0  0  0  0  0  0
    4.9457    3.2330    0.0000 C   0  0  0  0  0  0  0  0  0  0  0  0
    2.8560    1.8797    0.0000 C   0  0  0  0  0  0  0  0  0  0  0  0
    7.8416    1.3670    0.0000 C   0  0  0  0  0  0  0  0  0  0  0  0
    5.4950   -2.8298    0.0000 C   0  0  0  0  0  0  0  0  0  0  0  0
    6.4305   -2.2800    0.0000 C   0  0  0  0  0  0  0  0  0  0  0  0
    3.6874   -2.7839    0.0000 C   0  0  0  0  0  0  0  0  0  0  0  0
    7.3138   -3.7699    0.0000 C   0  0  0  0  0  0  0  0  0  0  0  0
    6.1851   -0.0524    0.0000 H   0  0  0  0  0  0  0  0  0  0  0  0
    4.5801    2.4870    0.0000 H   0  0  0  0  0  0  0  0  0  0  0  0
    2.9240   -0.0479    0.0000 H   0  0  0  0  0  0  0  0  0  0  0  0
    6.4017    0.0217    0.0000 H   0  0  0  0  0  0  0  0  0  0  0  0
    3.8260   -1.6245    0.0000 H   0  0  0  0  0  0  0  0  0  0  0  0
    6.4017    2.7122    0.0000 H   0  0  0  0  0  0  0  0  0  0  0  0
    3.0517   -0.5707    0.0000 H   0  0  0  0  0  0  0  0  0  0  0  0
    3.4481   -1.2636    0.0000 H   0  0  0  0  0  0  0  0  0  0  0  0
    3.9597   -0.1330    0.0000 H   0  0  0  0  0  0  0  0  0  0  0  0
    4.5797   -0.7530    0.0000 H   0  0  0  0  0  0  0  0  0  0  0  0
    5.1997   -0.1330    0.0000 H   0  0  0  0  0  0  0  0  0  0  0  0
    4.1226    2.8367    0.0000 H   0  0  0  0  0  0  0  0  0  0  0  0
    3.3275    2.8426    0.0000 H   0  0  0  0  0  0  0  0  0  0  0  0
    4.0203   -1.9742    0.0000 H   0  0  0  0  0  0  0  0  0  0  0  0
    6.6381   -0.7024    0.0000 H   0  0  0  0  0  0  0  0  0  0  0  0
    6.8585    0.1462    0.0000 H   0  0  0  0  0  0  0  0  0  0  0  0
    6.0098    0.3666    0.0000 H   0  0  0  0  0  0  0  0  0  0  0  0
    5.4827    3.5430    0.0000 H   0  0  0  0  0  0  0  0  0  0  0  0
    4.6357    3.7699    0.0000 H   0  0  0  0  0  0  0  0  0  0  0  0
    4.4088    2.9230    0.0000 H   0  0  0  0  0  0  0  0  0  0  0  0
    8.3025    0.9522    0.0000 H   0  0  0  0  0  0  0  0  0  0  0  0
    8.3025    1.7817    0.0000 H   0  0  0  0  0  0  0  0  0  0  0  0
    5.4974   -3.4498    0.0000 H   0  0  0  0  0  0  0  0  0  0  0  0
    5.6357    3.7699    0.0000 H   0  0  0  0  0  0  0  0  0  0  0  0
    3.3795   -2.2458    0.0000 H   0  0  0  0  0  0  0  0  0  0  0  0
    3.1493   -3.0918    0.0000 H   0  0  0  0  0  0  0  0  0  0  0  0
    3.9954   -3.3220    0.0000 H   0  0  0  0  0  0  0  0  0  0  0  0
    6.6938   -3.7771    0.0000 H   0  0  0  0  0  0  0  0  0  0  0  0
    7.3209   -4.3899    0.0000 H   0  0  0  0  0  0  0  0  0  0  0  0
    7.9337   -3.7628    0.0000 H   0  0  0  0  0  0  0  0  0  0  0  0
  1 12  1  0  0  0  0
  1 24  1  0  0  0  0
  2 13  1  0  0  0  0
  2 25  1  0  0  0  0
  3 16  1  0  0  0  0
  3 25  1  0  0  0  0
 15  4  1  6  0  0  0
  4 53  1  0  0  0  0
  5 22  2  0  0  0  0
  6 27  1  0  0  0  0
  6 29  1  0  0  0  0
  7 24  2  0  0  0  0
  8  9  1  0  0  0  0
  8 11  1  0  0  0  0
  8 12  1  0  0  0  0
  8 18  1  6  0  0  0
  9 10  1  0  0  0  0
  9 13  1  0  0  0  0
  9 30  1  1  0  0  0
 10 14  1  0  0  0  0
 10 21  1  6  0  0  0
 10 22  1  0  0  0  0
 11 15  1  0  0  0  0
 11 19  1  0  0  0  0
 11 31  1  0  0  0  0
 12 17  1  0  0  0  0
 12 32  1  6  0  0  0
 13 16  1  0  0  0  0
 13 33  1  6  0  0  0
 14 17  1  0  0  0  0
 14 20  1  0  0  0  0
 14 34  1  1  0  0  0
 15 16  1  0  0  0  0
 15 23  1  0  0  0  0
 16 35  1  1  0  0  0
 17 36  1  0  0  0  0
 17 37  1  0  0  0  0
 18 38  1  0  0  0  0
 18 39  1  0  0  0  0
 18 40  1  0  0  0  0
 19 24  1  0  0  0  0
 19 41  1  0  0  0  0
 19 42  1  0  0  0  0
 20 26  1  0  0  0  0
 20 28  1  1  0  0  0
 20 43  1  0  0  0  0
 21 44  1  0  0  0  0
 21 45  1  0  0  0  0
 21 46  1  0  0  0  0
 22 27  1  0  0  0  0
 23 47  1  0  0  0  0
 23 48  1  0  0  0  0
 23 49  1  0  0  0  0
 25 50  1  0  0  0  0
 25 51  1  0  0  0  0
 26 27  2  0  0  0  0
 26 52  1  0  0  0  0
 28 54  1  0  0  0  0
 28 55  1  0  0  0  0
 28 56  1  0  0  0  0
 29 57  1  0  0  0  0
 29 58  1  0  0  0  0
 29 59  1  0  0  0  0
M  END
> <PUBCHEM_COMPOUND_CID>
46173854

> <PUBCHEM_COMPOUND_CANONICALIZED>
1

> <PUBCHEM_CACTVS_COMPLEXITY>
807

> <PUBCHEM_CACTVS_HBOND_ACCEPTOR>
7

> <PUBCHEM_CACTVS_HBOND_DONOR>
1

> <PUBCHEM_CACTVS_ROTATABLE_BOND>
1

> <PUBCHEM_CACTVS_SUBSKEYS>
AAADceB4OAAAAAAAAAAAAAAAAAAAASAAAAA0YIEAAAAAAEjQAAAAGgAACAAAD1SggAMCCAAABgCIAKDSCAIACAAgIAAACAFAAEgRABIAAAQiQAAFgAAPAYPK7PzPgAAAAAAAAADAAAYQADCAAAAAAAAAAA==

> <PUBCHEM_IUPAC_INCHI>
InChI=1S/C22H30O7/c1-10-6-12(26-5)18(24)20(2)11(10)7-14-21(3)13(8-15(23)29-14)22(4,25)19-16(17(20)21)27-9-28-19/h6,10-11,13-14,16-17,19,25H,7-9H2,1-5H3/t10-,11+,13?,14-,16+,17-,19-,20+,21-,22+/m1/s1

> <PUBCHEM_IUPAC_INCHIKEY>
DUAQCTANPNATFA-IXRXLRCOSA-N

> <PUBCHEM_XLOGP3_AA>
1.7

> <PUBCHEM_EXACT_MASS>
406.199153

> <PUBCHEM_MOLECULAR_FORMULA>
C22H30O7

> <PUBCHEM_MOLECULAR_WEIGHT>
406.4694

> <PUBCHEM_OPENEYE_CAN_SMILES>
CC1C=C(C(=O)C2(C1CC3C4(C2C5C(C(C4CC(=O)O3)(C)O)OCO5)C)C)OC

> <PUBCHEM_OPENEYE_ISO_SMILES>
C[C@@H]1C=C(C(=O)[C@]2([C@H]1C[C@@H]3[C@@]4([C@@H]2[C@H]5[C@H]([C@@](C4CC(=O)O3)(C)O)OCO5)C)C)OC

> <PUBCHEM_CACTVS_TPSA>
91.3

> <PUBCHEM_MONOISOTOPIC_WEIGHT>
406.199153

> <PUBCHEM_TOTAL_CHARGE>
0

> <PUBCHEM_HEAVY_ATOM_COUNT>
29

> <PUBCHEM_ATOM_DEF_STEREO_COUNT>
9

> <PUBCHEM_ATOM_UDEF_STEREO_COUNT>
1

> <PUBCHEM_BOND_DEF_STEREO_COUNT>
0

> <PUBCHEM_BOND_UDEF_STEREO_COUNT>
0

> <PUBCHEM_ISOTOPIC_ATOM_COUNT>
0

> <PUBCHEM_COMPONENT_COUNT>
1

> <PUBCHEM_CACTVS_TAUTO_COUNT>
6

> <PUBCHEM_COORDINATE_TYPE>
1
5
255

> <PUBCHEM_BONDANNOTATIONS>
10  21  6
11  19  3
12  32  6
13  33  6
14  34  5
16  35  5
20  28  5
15  4  6
8  18  6
9  30  5

$$$$

