9090
  -OEChem-06261203232D

 21 22  0     0  0  0  0  0  0999 V2000
    2.0000   -0.5878    0.0000 S   0  0  0  0  0  0  0  0  0  0  0  0
    3.6180   -0.5878    0.0000 S   0  0  0  0  0  0  0  0  0  0  0  0
    2.8090    0.0000    0.0000 C   0  0  0  0  0  0  0  0  0  0  0  0
    2.0000    0.5878    0.0000 C   0  0  0  0  0  0  0  0  0  0  0  0
    3.6180    0.5878    0.0000 C   0  0  0  0  0  0  0  0  0  0  0  0
    2.3090    1.5388    0.0000 C   0  0  0  0  0  0  0  0  0  0  0  0
    3.3090    1.5388    0.0000 C   0  0  0  0  0  0  0  0  0  0  0  0
    2.3090   -1.5388    0.0000 C   0  0  0  0  0  0  0  0  0  0  0  0
    3.3090   -1.5388    0.0000 C   0  0  0  0  0  0  0  0  0  0  0  0
    3.9280    0.0508    0.0000 H   0  0  0  0  0  0  0  0  0  0  0  0
    4.1844    0.8400    0.0000 H   0  0  0  0  0  0  0  0  0  0  0  0
    1.4336    0.8400    0.0000 H   0  0  0  0  0  0  0  0  0  0  0  0
    1.6900    0.0508    0.0000 H   0  0  0  0  0  0  0  0  0  0  0  0
    2.3738    2.1554    0.0000 H   0  0  0  0  0  0  0  0  0  0  0  0
    1.7026    1.6678    0.0000 H   0  0  0  0  0  0  0  0  0  0  0  0
    3.9155    1.6678    0.0000 H   0  0  0  0  0  0  0  0  0  0  0  0
    3.2442    2.1554    0.0000 H   0  0  0  0  0  0  0  0  0  0  0  0
    3.2442   -2.1554    0.0000 H   0  0  0  0  0  0  0  0  0  0  0  0
    3.9155   -1.6678    0.0000 H   0  0  0  0  0  0  0  0  0  0  0  0
    1.7026   -1.6678    0.0000 H   0  0  0  0  0  0  0  0  0  0  0  0
    2.3738   -2.1554    0.0000 H   0  0  0  0  0  0  0  0  0  0  0  0
  1  3  1  0  0  0  0
  1  8  1  0  0  0  0
  2  3  1  0  0  0  0
  2  9  1  0  0  0  0
  3  4  1  0  0  0  0
  3  5  1  0  0  0  0
  4  6  1  0  0  0  0
  4 12  1  0  0  0  0
  4 13  1  0  0  0  0
  5  7  1  0  0  0  0
  5 10  1  0  0  0  0
  5 11  1  0  0  0  0
  6  7  1  0  0  0  0
  6 14  1  0  0  0  0
  6 15  1  0  0  0  0
  7 16  1  0  0  0  0
  7 17  1  0  0  0  0
  8  9  1  0  0  0  0
  8 20  1  0  0  0  0
  8 21  1  0  0  0  0
  9 18  1  0  0  0  0
  9 19  1  0  0  0  0
M  END
> <PUBCHEM_COMPOUND_CID>
9090

> <PUBCHEM_COMPOUND_CANONICALIZED>
1

> <PUBCHEM_CACTVS_COMPLEXITY>
97.5

> <PUBCHEM_CACTVS_HBOND_ACCEPTOR>
2

> <PUBCHEM_CACTVS_HBOND_DONOR>
0

> <PUBCHEM_CACTVS_ROTATABLE_BOND>
0

> <PUBCHEM_CACTVS_SUBSKEYS>
AAADccBgAABgAAAAAAAAAAAAAAAAAaIAAAAAAAAAAAAAAAAAAAAAGAQAAAAACACEQACAAAAAAAgAAAAAAAAAAQAAABAAAAAAAAAAAAIgAAAAAAAAAAAgAAAAAAAAAAAAAAAAAAAAAAAAAAAAAAAAAAAAAA==

> <PUBCHEM_IUPAC_OPENEYE_NAME>
1,4-dithiaspiro[4.4]nonane

> <PUBCHEM_IUPAC_CAS_NAME>
1,4-dithiaspiro[4.4]nonane

> <PUBCHEM_IUPAC_NAME>
1,4-dithiaspiro[4.4]nonane

> <PUBCHEM_IUPAC_SYSTEMATIC_NAME>
1,4-dithiaspiro[4.4]nonane

> <PUBCHEM_IUPAC_TRADITIONAL_NAME>
1,4-dithiaspiro[4.4]nonane

> <PUBCHEM_IUPAC_INCHI>
InChI=1S/C7H12S2/c1-2-4-7(3-1)8-5-6-9-7/h1-6H2

> <PUBCHEM_IUPAC_INCHIKEY>
PQILQFSSQOQLEJ-UHFFFAOYSA-N

> <PUBCHEM_XLOGP3_AA>
2.5

> <PUBCHEM_EXACT_MASS>
160.038042

> <PUBCHEM_MOLECULAR_FORMULA>
C7H12S2

> <PUBCHEM_MOLECULAR_WEIGHT>
160.30018

> <PUBCHEM_OPENEYE_CAN_SMILES>
C1CCC2(C1)SCCS2

> <PUBCHEM_OPENEYE_ISO_SMILES>
C1CCC2(C1)SCCS2

> <PUBCHEM_CACTVS_TPSA>
50.6

> <PUBCHEM_MONOISOTOPIC_WEIGHT>
160.038042

> <PUBCHEM_TOTAL_CHARGE>
0

> <PUBCHEM_HEAVY_ATOM_COUNT>
9

> <PUBCHEM_ATOM_DEF_STEREO_COUNT>
0

> <PUBCHEM_ATOM_UDEF_STEREO_COUNT>
0

> <PUBCHEM_BOND_DEF_STEREO_COUNT>
0

> <PUBCHEM_BOND_UDEF_STEREO_COUNT>
0

> <PUBCHEM_ISOTOPIC_ATOM_COUNT>
0

> <PUBCHEM_COMPONENT_COUNT>
1

> <PUBCHEM_CACTVS_TAUTO_COUNT>
1

> <PUBCHEM_COORDINATE_TYPE>
1
5
255

$$$$

