177491
  -OEChem-07051213083D

 20 19  0     1  0  0  0  0  0999 V2000
   -2.5231    0.1687    0.1654 S   0  0  0  0  0  0  0  0  0  0  0  0
   -3.5796   -0.6096   -0.8033 O   0  0  0  0  0  0  0  0  0  0  0  0
   -2.5893    1.5906   -0.1185 O   0  0  0  0  0  0  0  0  0  0  0  0
   -2.6652   -0.3431    1.5164 O   0  0  0  0  0  0  0  0  0  0  0  0
    2.7634    1.6239   -0.2701 O   0  0  0  0  0  0  0  0  0  0  0  0
    3.6063   -0.2581    0.6766 O   0  0  0  0  0  0  0  0  0  0  0  0
    1.6163   -1.7940   -0.1784 N   0  0  0  0  0  0  0  0  0  0  0  0
    0.1935    0.1906    0.0456 C   0  0  0  0  0  0  0  0  0  0  0  0
   -1.0420   -0.4867   -0.5374 C   0  0  0  0  0  0  0  0  0  0  0  0
    1.4945   -0.3823   -0.5322 C   0  0  1  0  0  0  0  0  0  0  0  0
    2.7252    0.3001    0.0359 C   0  0  0  0  0  0  0  0  0  0  0  0
    0.1929    0.0984    1.1401 H   0  0  0  0  0  0  0  0  0  0  0  0
    0.1481    1.2679   -0.1583 H   0  0  0  0  0  0  0  0  0  0  0  0
   -1.0481   -1.5637   -0.3446 H   0  0  0  0  0  0  0  0  0  0  0  0
   -1.0877   -0.3180   -1.6184 H   0  0  0  0  0  0  0  0  0  0  0  0
    1.5180   -0.2843   -1.6230 H   0  0  0  0  0  0  0  0  0  0  0  0
    1.6345   -1.9049    0.8346 H   0  0  0  0  0  0  0  0  0  0  0  0
    2.4956   -2.1695   -0.5310 H   0  0  0  0  0  0  0  0  0  0  0  0
   -3.6153   -0.2903   -1.7355 H   0  0  0  0  0  0  0  0  0  0  0  0
    3.5660    2.0588    0.0893 H   0  0  0  0  0  0  0  0  0  0  0  0
  1  2  1  0  0  0  0
  1  3  2  0  0  0  0
  1  4  2  0  0  0  0
  1  9  1  0  0  0  0
  2 19  1  0  0  0  0
  5 11  1  0  0  0  0
  5 20  1  0  0  0  0
  6 11  2  0  0  0  0
  7 10  1  0  0  0  0
  7 17  1  0  0  0  0
  7 18  1  0  0  0  0
  8  9  1  0  0  0  0
  8 10  1  0  0  0  0
  8 12  1  0  0  0  0
  8 13  1  0  0  0  0
  9 14  1  0  0  0  0
  9 15  1  0  0  0  0
 10 11  1  0  0  0  0
 10 16  1  0  0  0  0
M  END
> <PUBCHEM_COMPOUND_CID>
177491

> <PUBCHEM_CONFORMER_RMSD>
0.6

> <PUBCHEM_CONFORMER_DIVERSEORDER>
1
5
8
4
9
3
10
2
6
7

> <PUBCHEM_MMFF94_PARTIAL_CHARGES>
14
1 1.38
10 0.33
11 0.66
17 0.36
18 0.36
19 0.5
2 -0.68
20 0.5
3 -0.65
4 -0.65
5 -0.65
6 -0.57
7 -0.99
9 0.11

> <PUBCHEM_EFFECTIVE_ROTOR_COUNT>
4

> <PUBCHEM_PHARMACOPHORE_FEATURES>
9
1 2 acceptor
1 3 acceptor
1 4 acceptor
1 5 acceptor
1 6 acceptor
1 7 cation
1 7 donor
3 5 6 11 anion
4 1 2 3 4 anion

> <PUBCHEM_HEAVY_ATOM_COUNT>
11

> <PUBCHEM_ATOM_DEF_STEREO_COUNT>
1

> <PUBCHEM_ATOM_UDEF_STEREO_COUNT>
0

> <PUBCHEM_BOND_DEF_STEREO_COUNT>
0

> <PUBCHEM_BOND_UDEF_STEREO_COUNT>
0

> <PUBCHEM_ISOTOPIC_ATOM_COUNT>
0

> <PUBCHEM_COMPONENT_COUNT>
1

> <PUBCHEM_CACTVS_TAUTO_COUNT>
1

> <PUBCHEM_CONFORMER_ID>
0002B55300000001

> <PUBCHEM_MMFF94_ENERGY>
7.0788

> <PUBCHEM_FEATURE_SELFOVERLAP>
45.782

> <PUBCHEM_SHAPE_FINGERPRINT>
10219947 1 18272934903794770596
10857977 72 17489579039723467349
12162725 195 18413109463265624029
124424 183 17775295983849579872
12932764 1 18261661675267714047
14325111 11 18408041827057846573
14390081 3 18407759252685708533
15775835 57 18040995159250944323
190213 19 17240482511307746292
20201158 50 18272652363297041739
20279233 1 17632576063202706603
20645464 45 17775001319181297171
22169311 21 16845579686014104459
23402539 116 16630257943945446839
3248919 1 17774994709042018839

> <PUBCHEM_SHAPE_MULTIPOLES>
195.9
6.25
1.31
0.9
0.14
0.13
-0.22
0.64
-0.52
-0.37
0.15
0.49
-0.1
-0.12

> <PUBCHEM_SHAPE_SELFOVERLAP>
362.336

> <PUBCHEM_SHAPE_VOLUME>
123.2

> <PUBCHEM_COORDINATE_TYPE>
2
5
10

$$$$

