17396104
  -OEChem-06241222543D

 64 68  0     1  0  0  0  0  0999 V2000
    5.1255    0.8690   -1.5637 S   0  0  0  0  0  0  0  0  0  0  0  0
   -8.7106   -1.4510   -0.9980 O   0  0  0  0  0  0  0  0  0  0  0  0
    5.1454    0.8365   -3.0245 O   0  0  0  0  0  0  0  0  0  0  0  0
    5.8766    1.9265   -0.8910 O   0  0  0  0  0  0  0  0  0  0  0  0
   -3.2323    1.0143    0.9104 N   0  0  0  0  0  0  0  0  0  0  0  0
   -0.4895    1.1317    0.1214 N   0  0  0  0  0  0  0  0  0  0  0  0
    1.1877    0.1881   -1.2572 N   0  0  0  0  0  0  0  0  0  0  0  0
    5.6639   -0.6762   -0.9723 N   0  0  2  0  0  0  0  0  0  0  0  0
   -2.8682    1.4332   -0.4489 C   0  0  0  0  0  0  0  0  0  0  0  0
   -2.2037    1.4542    1.8608 C   0  0  0  0  0  0  0  0  0  0  0  0
   -1.5282    0.8255   -0.8702 C   0  0  0  0  0  0  0  0  0  0  0  0
   -0.8409    0.8484    1.5163 C   0  0  0  0  0  0  0  0  0  0  0  0
   -4.5390    1.5561    1.2812 C   0  0  0  0  0  0  0  0  0  0  0  0
   -5.6667    0.7754    0.6601 C   0  0  0  0  0  0  0  0  0  0  0  0
    0.8479    1.0639   -0.2849 C   0  0  0  0  0  0  0  0  0  0  0  0
   -6.6916   -1.3055    0.1061 C   0  0  0  0  0  0  0  0  0  0  0  0
   -5.6416   -0.6215    0.6903 C   0  0  0  0  0  0  0  0  0  0  0  0
   -6.7389    1.4600    0.0633 C   0  0  0  0  0  0  0  0  0  0  0  0
   -6.9542   -2.7596    0.0460 C   0  0  0  0  0  0  0  0  0  0  0  0
   -7.7455   -0.6231   -0.4833 C   0  0  0  0  0  0  0  0  0  0  0  0
    1.7458    1.9107    0.3448 C   0  0  0  0  0  0  0  0  0  0  0  0
   -8.0868   -2.7571   -0.9818 C   0  0  0  0  0  0  0  0  0  0  0  0
   -7.7981    0.7569   -0.5134 C   0  0  0  0  0  0  0  0  0  0  0  0
    3.4666    0.9670   -1.0457 C   0  0  0  0  0  0  0  0  0  0  0  0
    3.0783    1.8551   -0.0487 C   0  0  0  0  0  0  0  0  0  0  0  0
    2.4917    0.1625   -1.6132 C   0  0  0  0  0  0  0  0  0  0  0  0
    5.3409   -1.8684   -1.7998 C   0  0  0  0  0  0  0  0  0  0  0  0
    5.5984   -0.8578    0.4645 C   0  0  0  0  0  0  0  0  0  0  0  0
    6.5523   -2.7746   -1.8863 C   0  0  0  0  0  0  0  0  0  0  0  0
    4.3994   -1.2417    1.0653 C   0  0  0  0  0  0  0  0  0  0  0  0
    6.7346   -0.6492    1.2464 C   0  0  0  0  0  0  0  0  0  0  0  0
    4.3364   -1.4167    2.4476 C   0  0  0  0  0  0  0  0  0  0  0  0
    6.6717   -0.8245    2.6288 C   0  0  0  0  0  0  0  0  0  0  0  0
    5.4726   -1.2081    3.2293 C   0  0  0  0  0  0  0  0  0  0  0  0
   -2.8062    2.5282   -0.5139 H   0  0  0  0  0  0  0  0  0  0  0  0
   -3.6240    1.1081   -1.1735 H   0  0  0  0  0  0  0  0  0  0  0  0
   -2.1282    2.5500    1.8702 H   0  0  0  0  0  0  0  0  0  0  0  0
   -2.4677    1.1357    2.8766 H   0  0  0  0  0  0  0  0  0  0  0  0
   -1.6241   -0.2624   -0.9795 H   0  0  0  0  0  0  0  0  0  0  0  0
   -1.2583    1.2377   -1.8506 H   0  0  0  0  0  0  0  0  0  0  0  0
   -0.0995    1.2554    2.2133 H   0  0  0  0  0  0  0  0  0  0  0  0
   -0.8621   -0.2386    1.6679 H   0  0  0  0  0  0  0  0  0  0  0  0
   -4.6092    2.6248    1.0383 H   0  0  0  0  0  0  0  0  0  0  0  0
   -4.6885    1.4794    2.3671 H   0  0  0  0  0  0  0  0  0  0  0  0
   -4.8368   -1.1689    1.1703 H   0  0  0  0  0  0  0  0  0  0  0  0
   -6.7573    2.5470    0.0474 H   0  0  0  0  0  0  0  0  0  0  0  0
   -6.0995   -3.3515   -0.2910 H   0  0  0  0  0  0  0  0  0  0  0  0
   -7.3038   -3.1224    1.0179 H   0  0  0  0  0  0  0  0  0  0  0  0
    1.4420    2.6147    1.1125 H   0  0  0  0  0  0  0  0  0  0  0  0
   -8.8416   -3.5160   -0.7511 H   0  0  0  0  0  0  0  0  0  0  0  0
   -7.7044   -2.9566   -1.9911 H   0  0  0  0  0  0  0  0  0  0  0  0
   -8.6291    1.2816   -0.9709 H   0  0  0  0  0  0  0  0  0  0  0  0
    3.7930    2.5131    0.4364 H   0  0  0  0  0  0  0  0  0  0  0  0
    2.7252   -0.5484   -2.3989 H   0  0  0  0  0  0  0  0  0  0  0  0
    5.0728   -1.5768   -2.8195 H   0  0  0  0  0  0  0  0  0  0  0  0
    4.4844   -2.4196   -1.3992 H   0  0  0  0  0  0  0  0  0  0  0  0
    6.3420   -3.6302   -2.5358 H   0  0  0  0  0  0  0  0  0  0  0  0
    6.8347   -3.1612   -0.9017 H   0  0  0  0  0  0  0  0  0  0  0  0
    7.4153   -2.2390   -2.2960 H   0  0  0  0  0  0  0  0  0  0  0  0
    3.5043   -1.4364    0.4841 H   0  0  0  0  0  0  0  0  0  0  0  0
    7.6734   -0.3506    0.7872 H   0  0  0  0  0  0  0  0  0  0  0  0
    3.4042   -1.7206    2.9148 H   0  0  0  0  0  0  0  0  0  0  0  0
    7.5564   -0.6625    3.2376 H   0  0  0  0  0  0  0  0  0  0  0  0
    5.4240   -1.3458    4.3056 H   0  0  0  0  0  0  0  0  0  0  0  0
  1  3  2  0  0  0  0
  1  4  2  0  0  0  0
  1  8  1  0  0  0  0
  1 24  1  0  0  0  0
  2 20  1  0  0  0  0
  2 22  1  0  0  0  0
  5  9  1  0  0  0  0
  5 10  1  0  0  0  0
  5 13  1  0  0  0  0
  6 11  1  0  0  0  0
  6 12  1  0  0  0  0
  6 15  1  0  0  0  0
  7 15  2  0  0  0  0
  7 26  1  0  0  0  0
  8 27  1  0  0  0  0
  8 28  1  0  0  0  0
  9 11  1  0  0  0  0
  9 35  1  0  0  0  0
  9 36  1  0  0  0  0
 10 12  1  0  0  0  0
 10 37  1  0  0  0  0
 10 38  1  0  0  0  0
 11 39  1  0  0  0  0
 11 40  1  0  0  0  0
 12 41  1  0  0  0  0
 12 42  1  0  0  0  0
 13 14  1  0  0  0  0
 13 43  1  0  0  0  0
 13 44  1  0  0  0  0
 14 17  2  0  0  0  0
 14 18  1  0  0  0  0
 15 21  1  0  0  0  0
 16 17  1  0  0  0  0
 16 19  1  0  0  0  0
 16 20  2  0  0  0  0
 17 45  1  0  0  0  0
 18 23  2  0  0  0  0
 18 46  1  0  0  0  0
 19 22  1  0  0  0  0
 19 47  1  0  0  0  0
 19 48  1  0  0  0  0
 20 23  1  0  0  0  0
 21 25  2  0  0  0  0
 21 49  1  0  0  0  0
 22 50  1  0  0  0  0
 22 51  1  0  0  0  0
 23 52  1  0  0  0  0
 24 25  1  0  0  0  0
 24 26  2  0  0  0  0
 25 53  1  0  0  0  0
 26 54  1  0  0  0  0
 27 29  1  0  0  0  0
 27 55  1  0  0  0  0
 27 56  1  0  0  0  0
 28 30  2  0  0  0  0
 28 31  1  0  0  0  0
 29 57  1  0  0  0  0
 29 58  1  0  0  0  0
 29 59  1  0  0  0  0
 30 32  1  0  0  0  0
 30 60  1  0  0  0  0
 31 33  2  0  0  0  0
 31 61  1  0  0  0  0
 32 34  2  0  0  0  0
 32 62  1  0  0  0  0
 33 34  1  0  0  0  0
 33 63  1  0  0  0  0
 34 64  1  0  0  0  0
M  END
> <PUBCHEM_COMPOUND_CID>
17396104

> <PUBCHEM_CONFORMER_RMSD>
1.2

> <PUBCHEM_CONFORMER_DIVERSEORDER>
1
8
37
15
16
19
18
23
20
30
34
21
6
32
2
38
11
24
22
13
25
26
4
29
12
28
27
36
31
10
5
7
9
35
3
14
17
33

> <PUBCHEM_MMFF94_PARTIAL_CHARGES>
44
1 1.45
10 0.27
11 0.37
12 0.37
13 0.41
14 -0.14
15 0.41
16 -0.14
17 -0.15
18 -0.15
19 0.14
2 -0.36
20 0.08
21 -0.15
22 0.28
23 -0.15
24 -0.01
25 -0.15
26 0.16
27 0.36
28 0.2
3 -0.65
30 -0.15
31 -0.15
32 -0.15
33 -0.15
34 -0.15
4 -0.65
45 0.15
46 0.15
49 0.15
5 -0.81
52 0.15
53 0.15
54 0.15
6 -0.84
60 0.15
61 0.15
62 0.15
63 0.15
64 0.15
7 -0.62
8 -0.69
9 0.27

> <PUBCHEM_EFFECTIVE_ROTOR_COUNT>
8.8

> <PUBCHEM_PHARMACOPHORE_FEATURES>
10
1 2 acceptor
1 3 acceptor
1 4 acceptor
1 5 cation
3 6 7 15 cation
5 2 16 19 20 22 rings
6 14 16 17 18 20 23 rings
6 28 30 31 32 33 34 rings
6 5 6 9 10 11 12 rings
6 7 15 21 24 25 26 rings

> <PUBCHEM_HEAVY_ATOM_COUNT>
34

> <PUBCHEM_ATOM_DEF_STEREO_COUNT>
0

> <PUBCHEM_ATOM_UDEF_STEREO_COUNT>
0

> <PUBCHEM_BOND_DEF_STEREO_COUNT>
0

> <PUBCHEM_BOND_UDEF_STEREO_COUNT>
0

> <PUBCHEM_ISOTOPIC_ATOM_COUNT>
0

> <PUBCHEM_COMPONENT_COUNT>
1

> <PUBCHEM_CACTVS_TAUTO_COUNT>
1

> <PUBCHEM_CONFORMER_ID>
0109718800000001

> <PUBCHEM_MMFF94_ENERGY>
106.9281

> <PUBCHEM_FEATURE_SELFOVERLAP>
50.865

> <PUBCHEM_SHAPE_FINGERPRINT>
10 15 16225771817578405593
10554248 39 16343699919861370261
11456790 92 14851883716507358314
11475781 23 13470408850856974797
11719270 70 18113614612231274583
12082328 90 17203324504164986361
12120059 9 17604162497203696671
12373685 5 17774444871829571936
12522641 33 16988557954442157396
12539765 74 10087650316364992769
12717326 120 18188494545491823635
13008946 170 17631445675551614516
13533116 47 17560798849231050384
13560911 23 18260542334198647433
13692114 37 18041003912052364351
13751561 76 16732984198173019538
13782708 43 18409729547948723793
14040221 8 13829850288116287062
14347332 77 17632019753036973796
14849402 71 5906037188984164483
15119646 104 17918277566731291451
15183329 4 18131347523079350195
16994733 274 8502658091256430503
19958102 18 16056880247319668081
2026 5 18113334207545939799
21130935 74 17749381632870293838
21792934 111 16226044514359668041
21792938 703 18336535063272599682
22019808 48 18060423525230110147
23081809 10 18059850680088152313
23522609 53 17986082279948469669
27425 322 12390927018637305224
2747138 104 16732697242939007937
3383291 50 17676769786963679591
3633792 109 16773802515013427849
397830 11 16081093662495788233
5085150 59 18261114063292054727
5104073 3 16226320516751075097
5109719 28 14996286924635786330
5951187 136 10951467312123104346
6086070 43 18342178907692028817
9689198 14 11312053257994240475
9962374 69 18273494598748881806

> <PUBCHEM_SHAPE_MULTIPOLES>
666.02
27.8
2.57
2.48
36.42
1.43
0.94
16.88
-0.85
1.85
-0.51
-6.9
0.59
-1.8

> <PUBCHEM_SHAPE_SELFOVERLAP>
1425.505

> <PUBCHEM_SHAPE_VOLUME>
371.7

> <PUBCHEM_COORDINATE_TYPE>
2
5
10

$$$$

