46173864
  -OEChem-07051213093D

 62 64  0     1  0  0  0  0  0999 V2000
   -2.5433    1.5575    1.3866 P   0  0  1  0  0  0  0  0  0  0  0  0
   -0.3524    3.4784    0.9770 P   0  0  2  0  0  0  0  0  0  0  0  0
    3.3038    1.5156   -0.2004 O   0  0  0  0  0  0  0  0  0  0  0  0
   -1.4454   -0.8062   -1.1243 O   0  0  0  0  0  0  0  0  0  0  0  0
   -2.7475    0.1620    0.6006 O   0  0  0  0  0  0  0  0  0  0  0  0
    4.1250    1.9298   -3.1204 O   0  0  0  0  0  0  0  0  0  0  0  0
   -3.2799   -4.0033   -1.2607 O   0  0  0  0  0  0  0  0  0  0  0  0
   -4.8298    0.6180   -1.2559 O   0  0  0  0  0  0  0  0  0  0  0  0
    1.1162    3.1756    0.3698 O   0  0  0  0  0  0  0  0  0  0  0  0
   -1.0351    2.0140    1.0251 O   0  0  0  0  0  0  0  0  0  0  0  0
   -3.4561    2.6188    0.5755 O   0  0  0  0  0  0  0  0  0  0  0  0
    4.8294   -2.3212   -0.3049 O   0  0  0  0  0  0  0  0  0  0  0  0
   -1.1340    4.2041   -0.2392 O   0  0  0  0  0  0  0  0  0  0  0  0
   -2.8303    1.4919    2.8587 O   0  0  0  0  0  0  0  0  0  0  0  0
   -0.3775    4.2223    2.2802 O   0  0  0  0  0  0  0  0  0  0  0  0
    1.6925   -3.5045    2.8429 O   0  0  0  0  0  0  0  0  0  0  0  0
    3.1428   -0.7854    0.1924 N   0  0  0  0  0  0  0  0  0  0  0  0
   -4.7215   -1.9437    0.0484 N   0  0  0  0  0  0  0  0  0  0  0  0
    3.2583   -2.8985    1.2631 N   0  0  0  0  0  0  0  0  0  0  0  0
   -4.2003   -1.7456   -1.3095 C   0  0  2  0  0  0  0  0  0  0  0  0
    2.8805    1.5567   -2.5329 C   0  0  2  0  0  0  0  0  0  0  0  0
    2.6778    2.3106   -1.2261 C   0  0  1  0  0  0  0  0  0  0  0  0
   -2.9852   -2.6490   -1.5838 C   0  0  1  0  0  0  0  0  0  0  0  0
    2.9392    0.1131   -2.0896 C   0  0  0  0  0  0  0  0  0  0  0  0
    3.6031    0.2147   -0.7259 C   0  0  1  0  0  0  0  0  0  0  0  0
   -3.7790   -0.2892   -1.5631 C   0  0  2  0  0  0  0  0  0  0  0  0
   -1.7360   -2.1770   -0.8227 C   0  0  1  0  0  0  0  0  0  0  0  0
   -2.5057    0.0978   -0.8019 C   0  0  2  0  0  0  0  0  0  0  0  0
    1.2088    2.4762   -0.8590 C   0  0  0  0  0  0  0  0  0  0  0  0
   -0.5050   -2.9941   -1.2066 C   0  0  0  0  0  0  0  0  0  0  0  0
    2.0084   -0.5188    0.9492 C   0  0  0  0  0  0  0  0  0  0  0  0
    3.8184   -2.0172    0.3319 C   0  0  0  0  0  0  0  0  0  0  0  0
    1.4749   -1.3645    1.8394 C   0  0  0  0  0  0  0  0  0  0  0  0
    2.1312   -2.6834    2.0418 C   0  0  0  0  0  0  0  0  0  0  0  0
    0.2537   -1.0555    2.6444 C   0  0  0  0  0  0  0  0  0  0  0  0
   -5.0168   -2.0139   -1.9913 H   0  0  0  0  0  0  0  0  0  0  0  0
    2.0973    1.7402   -3.2745 H   0  0  0  0  0  0  0  0  0  0  0  0
    3.1775    3.2857   -1.2219 H   0  0  0  0  0  0  0  0  0  0  0  0
   -2.7745   -2.6106   -2.6610 H   0  0  0  0  0  0  0  0  0  0  0  0
    3.5054   -0.5362   -2.7647 H   0  0  0  0  0  0  0  0  0  0  0  0
    1.9227   -0.2903   -2.0050 H   0  0  0  0  0  0  0  0  0  0  0  0
    4.6925    0.1482   -0.8308 H   0  0  0  0  0  0  0  0  0  0  0  0
   -3.5701   -0.1883   -2.6365 H   0  0  0  0  0  0  0  0  0  0  0  0
   -1.8783   -2.2868    0.2594 H   0  0  0  0  0  0  0  0  0  0  0  0
   -2.1869    1.0866   -1.1497 H   0  0  0  0  0  0  0  0  0  0  0  0
    0.6889    1.5184   -0.7846 H   0  0  0  0  0  0  0  0  0  0  0  0
    0.7179    3.0649   -1.6403 H   0  0  0  0  0  0  0  0  0  0  0  0
   -0.3061   -2.9183   -2.2814 H   0  0  0  0  0  0  0  0  0  0  0  0
   -0.6234   -4.0497   -0.9454 H   0  0  0  0  0  0  0  0  0  0  0  0
    0.3850   -2.6101   -0.6999 H   0  0  0  0  0  0  0  0  0  0  0  0
   -5.5456   -1.3599    0.1845 H   0  0  0  0  0  0  0  0  0  0  0  0
   -5.0266   -2.9097    0.1583 H   0  0  0  0  0  0  0  0  0  0  0  0
    4.0671    2.8735   -3.3480 H   0  0  0  0  0  0  0  0  0  0  0  0
   -4.0746   -4.2570   -1.7602 H   0  0  0  0  0  0  0  0  0  0  0  0
   -5.6147    0.3374   -1.7566 H   0  0  0  0  0  0  0  0  0  0  0  0
    1.5296    0.4374    0.8137 H   0  0  0  0  0  0  0  0  0  0  0  0
    3.7284   -3.7918    1.3801 H   0  0  0  0  0  0  0  0  0  0  0  0
   -0.1019   -0.0361    2.4737 H   0  0  0  0  0  0  0  0  0  0  0  0
    0.4661   -1.1519    3.7142 H   0  0  0  0  0  0  0  0  0  0  0  0
   -0.5581   -1.7435    2.3884 H   0  0  0  0  0  0  0  0  0  0  0  0
   -3.5902    3.5144    0.9525 H   0  0  0  0  0  0  0  0  0  0  0  0
   -1.2669    3.7262   -1.0850 H   0  0  0  0  0  0  0  0  0  0  0  0
  1  5  1  0  0  0  0
  1 10  1  0  0  0  0
  1 11  1  0  0  0  0
  1 14  2  0  0  0  0
  2  9  1  0  0  0  0
  2 10  1  0  0  0  0
  2 13  1  0  0  0  0
  2 15  2  0  0  0  0
  3 22  1  0  0  0  0
  3 25  1  0  0  0  0
  4 27  1  0  0  0  0
  4 28  1  0  0  0  0
  5 28  1  0  0  0  0
  6 21  1  0  0  0  0
  6 53  1  0  0  0  0
  7 23  1  0  0  0  0
  7 54  1  0  0  0  0
  8 26  1  0  0  0  0
  8 55  1  0  0  0  0
  9 29  1  0  0  0  0
 11 61  1  0  0  0  0
 12 32  2  0  0  0  0
 13 62  1  0  0  0  0
 16 34  2  0  0  0  0
 17 25  1  0  0  0  0
 17 31  1  0  0  0  0
 17 32  1  0  0  0  0
 18 20  1  0  0  0  0
 18 51  1  0  0  0  0
 18 52  1  0  0  0  0
 19 32  1  0  0  0  0
 19 34  1  0  0  0  0
 19 57  1  0  0  0  0
 20 23  1  0  0  0  0
 20 26  1  0  0  0  0
 20 36  1  0  0  0  0
 21 22  1  0  0  0  0
 21 24  1  0  0  0  0
 21 37  1  0  0  0  0
 22 29  1  0  0  0  0
 22 38  1  0  0  0  0
 23 27  1  0  0  0  0
 23 39  1  0  0  0  0
 24 25  1  0  0  0  0
 24 40  1  0  0  0  0
 24 41  1  0  0  0  0
 25 42  1  0  0  0  0
 26 28  1  0  0  0  0
 26 43  1  0  0  0  0
 27 30  1  0  0  0  0
 27 44  1  0  0  0  0
 28 45  1  0  0  0  0
 29 46  1  0  0  0  0
 29 47  1  0  0  0  0
 30 48  1  0  0  0  0
 30 49  1  0  0  0  0
 30 50  1  0  0  0  0
 31 33  2  0  0  0  0
 31 56  1  0  0  0  0
 33 34  1  0  0  0  0
 33 35  1  0  0  0  0
 35 58  1  0  0  0  0
 35 59  1  0  0  0  0
 35 60  1  0  0  0  0
M  END
> <PUBCHEM_COMPOUND_CID>
46173864

> <PUBCHEM_CONFORMER_RMSD>
1.4

> <PUBCHEM_CONFORMER_DIVERSEORDER>
1
9
10
17
57
80
67
94
35
84
34
115
139
52
70
21
47
83
127
131
111
51
46
135
66
77
37
20
101
126
63
133
39
134
104
87
124
110
36
68
79
75
31
28
89
117
40
91
14
72
50
109
69
122
118
5
132
53
26
99
137
93
62
43
136
107
27
102
96
2
116
128
100
76
82
6
73
95
119
81
105
97
98
71
24
22
86
38
18
88
56
108
138
42
78
106
60
130
74
125
92
61
54
25
103
140
29
65
129
113
33
44
3
32
55
90
64
30
19
12
85
16
114
121
48
49
59
15
41
123
23
11
58
7
112
13
45
4
8
120

> <PUBCHEM_MMFF94_PARTIAL_CHARGES>
42
1 1.51
10 -0.54
11 -0.77
12 -0.57
13 -0.77
14 -0.7
15 -0.7
16 -0.57
17 -0.47
18 -0.99
19 -0.49
2 1.51
20 0.27
21 0.28
22 0.28
23 0.28
25 0.58
26 0.28
27 0.28
28 0.56
29 0.28
3 -0.56
31 -0.04
32 0.69
33 -0.12
34 0.62
35 0.14
4 -0.56
5 -0.55
51 0.36
52 0.36
53 0.4
54 0.4
55 0.4
56 0.15
57 0.37
6 -0.68
61 0.5
62 0.5
7 -0.68
8 -0.68
9 -0.55

> <PUBCHEM_EFFECTIVE_ROTOR_COUNT>
10.2

> <PUBCHEM_PHARMACOPHORE_FEATURES>
20
1 11 acceptor
1 12 acceptor
1 13 acceptor
1 14 acceptor
1 15 acceptor
1 16 acceptor
1 18 cation
1 18 donor
1 19 donor
1 3 acceptor
1 4 acceptor
1 6 acceptor
1 6 donor
1 7 acceptor
1 7 donor
1 8 acceptor
1 8 donor
5 3 21 22 24 25 rings
6 17 19 31 32 33 34 rings
6 4 20 23 26 27 28 rings

> <PUBCHEM_HEAVY_ATOM_COUNT>
35

> <PUBCHEM_ATOM_DEF_STEREO_COUNT>
8

> <PUBCHEM_ATOM_UDEF_STEREO_COUNT>
0

> <PUBCHEM_BOND_DEF_STEREO_COUNT>
0

> <PUBCHEM_BOND_UDEF_STEREO_COUNT>
0

> <PUBCHEM_ISOTOPIC_ATOM_COUNT>
0

> <PUBCHEM_COMPONENT_COUNT>
1

> <PUBCHEM_CACTVS_TAUTO_COUNT>
3

> <PUBCHEM_CONFORMER_ID>
02C08EA800000001

> <PUBCHEM_MMFF94_ENERGY>
39.0686

> <PUBCHEM_FEATURE_SELFOVERLAP>
101.519

> <PUBCHEM_SHAPE_FINGERPRINT>
12539773 59 17977369857173092616
12788726 201 18261100902688963477
13009979 54 18337681922250562034
13583140 156 17559948991114287939
13726171 33 17823118077995430985
14674994 50 17263316280130826628
15297060 5 17678741361055303787
15403338 16 16984049105620745441
15484559 13 15161843332641710775
19026451 147 18190472570729990750
19319366 153 18201143395570345786
20600515 1 17681879251398139987
20764821 26 17184474763352206135
21315764 21 17773618154923104981
238 59 17346886628342124890
238918 7 15818217306836372850
35225 105 17196809793588729894
445580 8 18120356899073897785
463206 1 18340772554645636393
474144 1 18343309183921788335
581034 39 17609772363661885593
6287921 2 16387616961359863329
86090 222 16972246462556657235

> <PUBCHEM_SHAPE_MULTIPOLES>
630.87
8.45
5.48
2.86
2.38
1.81
-0.65
-3.59
4.18
0.19
-1.72
-1.13
-0.04
-4.39

> <PUBCHEM_SHAPE_SELFOVERLAP>
1282.521

> <PUBCHEM_SHAPE_VOLUME>
367.5

> <PUBCHEM_COORDINATE_TYPE>
2
5
10

$$$$

