8602
  -OEChem-06261202562D

 24 25  0     1  0  0  0  0  0999 V2000
    2.0000    2.2500    0.0000 Cl  0  0  0  0  0  0  0  0  0  0  0  0
    4.5981    0.7500    0.0000 O   0  0  0  0  0  0  0  0  0  0  0  0
    4.5981   -2.2500    0.0000 O   0  0  0  0  0  0  0  0  0  0  0  0
    3.7320   -0.7500    0.0000 N   0  0  0  0  0  0  0  0  0  0  0  0
    3.7320    0.2500    0.0000 C   0  0  3  0  0  0  0  0  0  0  0  0
    2.8660    0.7500    0.0000 C   0  0  0  0  0  0  0  0  0  0  0  0
    5.4641    0.2500    0.0000 C   0  0  0  0  0  0  0  0  0  0  0  0
    5.4641   -0.7500    0.0000 C   0  0  0  0  0  0  0  0  0  0  0  0
    4.5981   -1.2500    0.0000 C   0  0  0  0  0  0  0  0  0  0  0  0
    2.8660    1.7500    0.0000 C   0  0  0  0  0  0  0  0  0  0  0  0
    6.3580    0.7847    0.0000 C   0  0  0  0  0  0  0  0  0  0  0  0
    6.3580   -1.2847    0.0000 C   0  0  0  0  0  0  0  0  0  0  0  0
    7.2641    0.2708    0.0000 C   0  0  0  0  0  0  0  0  0  0  0  0
    7.2641   -0.7708    0.0000 C   0  0  0  0  0  0  0  0  0  0  0  0
    3.7320    0.8700    0.0000 H   0  0  0  0  0  0  0  0  0  0  0  0
    2.2554    0.8577    0.0000 H   0  0  0  0  0  0  0  0  0  0  0  0
    2.6540    0.1674    0.0000 H   0  0  0  0  0  0  0  0  0  0  0  0
    3.1951   -1.0600    0.0000 H   0  0  0  0  0  0  0  0  0  0  0  0
    3.4766    1.6423    0.0000 H   0  0  0  0  0  0  0  0  0  0  0  0
    3.0781    2.3326    0.0000 H   0  0  0  0  0  0  0  0  0  0  0  0
    6.3509    1.4046    0.0000 H   0  0  0  0  0  0  0  0  0  0  0  0
    6.3509   -1.9046    0.0000 H   0  0  0  0  0  0  0  0  0  0  0  0
    7.7998    0.5829    0.0000 H   0  0  0  0  0  0  0  0  0  0  0  0
    7.7998   -1.0829    0.0000 H   0  0  0  0  0  0  0  0  0  0  0  0
  1 10  1  0  0  0  0
  2  5  1  0  0  0  0
  2  7  1  0  0  0  0
  3  9  2  0  0  0  0
  4  5  1  0  0  0  0
  4  9  1  0  0  0  0
  4 18  1  0  0  0  0
  5  6  1  0  0  0  0
  5 15  1  0  0  0  0
  6 10  1  0  0  0  0
  6 16  1  0  0  0  0
  6 17  1  0  0  0  0
  7  8  1  0  0  0  0
  7 11  2  0  0  0  0
  8  9  1  0  0  0  0
  8 12  2  0  0  0  0
 10 19  1  0  0  0  0
 10 20  1  0  0  0  0
 11 13  1  0  0  0  0
 11 21  1  0  0  0  0
 12 14  1  0  0  0  0
 12 22  1  0  0  0  0
 13 14  2  0  0  0  0
 13 23  1  0  0  0  0
 14 24  1  0  0  0  0
M  END
> <PUBCHEM_COMPOUND_CID>
8602

> <PUBCHEM_COMPOUND_CANONICALIZED>
1

> <PUBCHEM_CACTVS_COMPLEXITY>
222

> <PUBCHEM_CACTVS_HBOND_ACCEPTOR>
2

> <PUBCHEM_CACTVS_HBOND_DONOR>
1

> <PUBCHEM_CACTVS_ROTATABLE_BOND>
2

> <PUBCHEM_CACTVS_SUBSKEYS>
AAADccByMAAEAAAAAAAAAAAAAAAAAAAAAAA8QAAAAAAAAACxAAAAHgIQAAAADAfhmEYwBoLABACIAiFSEACCCAAkIAAIiIEODskMJjaEtRuOOWjm9hGIqYeYyCCOAAAAAAAIAAAAAAAAABAAAAAAAAAAAA==

> <PUBCHEM_IUPAC_OPENEYE_NAME>
2-(2-chloroethyl)-2,3-dihydro-1,3-benzoxazin-4-one

> <PUBCHEM_IUPAC_CAS_NAME>
2-(2-chloroethyl)-2,3-dihydro-1,3-benzoxazin-4-one

> <PUBCHEM_IUPAC_NAME>
2-(2-chloroethyl)-2,3-dihydro-1,3-benzoxazin-4-one

> <PUBCHEM_IUPAC_SYSTEMATIC_NAME>
2-(2-chloroethyl)-2,3-dihydro-1,3-benzoxazin-4-one

> <PUBCHEM_IUPAC_TRADITIONAL_NAME>
2-(2-chloroethyl)-2,3-dihydro-1,3-benzoxazin-4-one

> <PUBCHEM_IUPAC_INCHI>
InChI=1S/C10H10ClNO2/c11-6-5-9-12-10(13)7-3-1-2-4-8(7)14-9/h1-4,9H,5-6H2,(H,12,13)

> <PUBCHEM_IUPAC_INCHIKEY>
YEKMWXFHPZBZLR-UHFFFAOYSA-N

> <PUBCHEM_XLOGP3_AA>
2.1

> <PUBCHEM_EXACT_MASS>
211.040006

> <PUBCHEM_MOLECULAR_FORMULA>
C10H10ClNO2

> <PUBCHEM_MOLECULAR_WEIGHT>
211.6449

> <PUBCHEM_OPENEYE_CAN_SMILES>
C1=CC=C2C(=C1)C(=O)NC(O2)CCCl

> <PUBCHEM_OPENEYE_ISO_SMILES>
C1=CC=C2C(=C1)C(=O)NC(O2)CCCl

> <PUBCHEM_CACTVS_TPSA>
38.3

> <PUBCHEM_MONOISOTOPIC_WEIGHT>
211.040006

> <PUBCHEM_TOTAL_CHARGE>
0

> <PUBCHEM_HEAVY_ATOM_COUNT>
14

> <PUBCHEM_ATOM_DEF_STEREO_COUNT>
0

> <PUBCHEM_ATOM_UDEF_STEREO_COUNT>
1

> <PUBCHEM_BOND_DEF_STEREO_COUNT>
0

> <PUBCHEM_BOND_UDEF_STEREO_COUNT>
0

> <PUBCHEM_ISOTOPIC_ATOM_COUNT>
0

> <PUBCHEM_COMPONENT_COUNT>
1

> <PUBCHEM_CACTVS_TAUTO_COUNT>
2

> <PUBCHEM_COORDINATE_TYPE>
1
5
255

> <PUBCHEM_BONDANNOTATIONS>
11  13  8
12  14  8
13  14  8
5  6  3
7  11  8
7  8  8
8  12  8

$$$$

