9891226
  -OEChem-07051213073D

 72 73  0     1  0  0  0  0  0999 V2000
   -7.6959   -0.2846   -0.8227 S   0  0  0  0  0  0  0  0  0  0  0  0
    5.9790    0.1544    0.3927 O   0  0  0  0  0  0  0  0  0  0  0  0
    1.5305   -2.3158    2.0891 O   0  0  0  0  0  0  0  0  0  0  0  0
    4.4905   -2.3501    1.0976 O   0  0  0  0  0  0  0  0  0  0  0  0
   -0.7409    0.7978    0.3259 O   0  0  0  0  0  0  0  0  0  0  0  0
   -1.0983   -1.0062    1.7254 O   0  0  0  0  0  0  0  0  0  0  0  0
   -5.4353   -1.3805   -0.2137 N   0  0  0  0  0  0  0  0  0  0  0  0
    2.4557   -2.9060   -0.1026 C   0  0  0  0  0  0  0  0  0  0  0  0
    4.0910   -0.8731   -0.7563 C   0  0  2  0  0  0  0  0  0  0  0  0
    4.5821    0.3156    0.1217 C   0  0  2  0  0  0  0  0  0  0  0  0
    4.3441    1.7521   -0.4320 C   0  0  2  0  0  0  0  0  0  0  0  0
    3.7446   -2.0705    0.1513 C   0  0  0  0  0  0  0  0  0  0  0  0
    1.2466   -2.3115    0.6850 C   0  0  2  0  0  0  0  0  0  0  0  0
    2.8478    2.1368   -0.4085 C   0  0  0  0  0  0  0  0  0  0  0  0
    2.7363   -4.3461    0.4015 C   0  0  0  0  0  0  0  0  0  0  0  0
    2.1163   -3.0452   -1.5985 C   0  0  0  0  0  0  0  0  0  0  0  0
    5.1206   -1.3685   -1.7765 C   0  0  0  0  0  0  0  0  0  0  0  0
    4.9766    1.9819   -1.8063 C   0  0  0  0  0  0  0  0  0  0  0  0
    2.5886    3.6139   -0.7372 C   0  0  0  0  0  0  0  0  0  0  0  0
    0.8819   -0.8742    0.3101 C   0  0  0  0  0  0  0  0  0  0  0  0
    1.1144    4.0199   -0.5897 C   0  0  0  0  0  0  0  0  0  0  0  0
   -0.4396   -0.4130    0.8842 C   0  0  0  0  0  0  0  0  0  0  0  0
    0.6378    4.0206    0.8359 C   0  0  0  0  0  0  0  0  0  0  0  0
   -1.8927    1.5094    0.8242 C   0  0  1  0  0  0  0  0  0  0  0  0
   -1.6835    2.9981    0.5152 C   0  0  0  0  0  0  0  0  0  0  0  0
   -0.5384    3.5738    1.3044 C   0  0  0  0  0  0  0  0  0  0  0  0
   -3.1228    1.0014    0.1369 C   0  0  0  0  0  0  0  0  0  0  0  0
   -3.0910    1.1325   -1.3633 C   0  0  0  0  0  0  0  0  0  0  0  0
   -4.1867    0.4432    0.7492 C   0  0  0  0  0  0  0  0  0  0  0  0
   -5.3890   -0.0600    0.1453 C   0  0  0  0  0  0  0  0  0  0  0  0
   -6.4962    0.7016   -0.0949 C   0  0  0  0  0  0  0  0  0  0  0  0
   -6.6164   -1.6160   -0.7404 C   0  0  0  0  0  0  0  0  0  0  0  0
   -7.0577   -2.9317   -1.2530 C   0  0  0  0  0  0  0  0  0  0  0  0
    3.1832   -0.5605   -1.2732 H   0  0  0  0  0  0  0  0  0  0  0  0
    4.0814    0.2612    1.0973 H   0  0  0  0  0  0  0  0  0  0  0  0
    4.8632    2.4370    0.2541 H   0  0  0  0  0  0  0  0  0  0  0  0
    0.3730   -2.9597    0.5432 H   0  0  0  0  0  0  0  0  0  0  0  0
    2.4568    1.9287    0.5937 H   0  0  0  0  0  0  0  0  0  0  0  0
    2.2847    1.5148   -1.1132 H   0  0  0  0  0  0  0  0  0  0  0  0
    1.8709   -4.9981    0.2367 H   0  0  0  0  0  0  0  0  0  0  0  0
    3.5945   -4.7854   -0.1206 H   0  0  0  0  0  0  0  0  0  0  0  0
    2.9660   -4.3700    1.4726 H   0  0  0  0  0  0  0  0  0  0  0  0
    1.9498   -2.0882   -2.0980 H   0  0  0  0  0  0  0  0  0  0  0  0
    2.9220   -3.5532   -2.1396 H   0  0  0  0  0  0  0  0  0  0  0  0
    1.2069   -3.6418   -1.7373 H   0  0  0  0  0  0  0  0  0  0  0  0
    5.4428   -0.5777   -2.4559 H   0  0  0  0  0  0  0  0  0  0  0  0
    6.0106   -1.7797   -1.2869 H   0  0  0  0  0  0  0  0  0  0  0  0
    4.7073   -2.1704   -2.3950 H   0  0  0  0  0  0  0  0  0  0  0  0
    6.0128    1.6302   -1.8304 H   0  0  0  0  0  0  0  0  0  0  0  0
    4.4134    1.4751   -2.5959 H   0  0  0  0  0  0  0  0  0  0  0  0
    5.0035    3.0483   -2.0525 H   0  0  0  0  0  0  0  0  0  0  0  0
    2.8840    3.8133   -1.7737 H   0  0  0  0  0  0  0  0  0  0  0  0
    3.2138    4.2515   -0.0999 H   0  0  0  0  0  0  0  0  0  0  0  0
    0.8044   -0.7705   -0.7758 H   0  0  0  0  0  0  0  0  0  0  0  0
    1.6362   -0.1863    0.6981 H   0  0  0  0  0  0  0  0  0  0  0  0
    6.2413    0.8520    1.0171 H   0  0  0  0  0  0  0  0  0  0  0  0
    0.5069    3.3670   -1.2240 H   0  0  0  0  0  0  0  0  0  0  0  0
    1.0025    5.0397   -0.9776 H   0  0  0  0  0  0  0  0  0  0  0  0
    2.2821   -1.7209    2.2507 H   0  0  0  0  0  0  0  0  0  0  0  0
    1.3282    4.4430    1.5644 H   0  0  0  0  0  0  0  0  0  0  0  0
   -1.9633    1.3719    1.9116 H   0  0  0  0  0  0  0  0  0  0  0  0
   -2.5861    3.5666    0.7742 H   0  0  0  0  0  0  0  0  0  0  0  0
   -1.5097    3.1574   -0.5533 H   0  0  0  0  0  0  0  0  0  0  0  0
   -0.7080    3.6549    2.3770 H   0  0  0  0  0  0  0  0  0  0  0  0
   -2.1316    0.7990   -1.7724 H   0  0  0  0  0  0  0  0  0  0  0  0
   -3.8543    0.5311   -1.8668 H   0  0  0  0  0  0  0  0  0  0  0  0
   -3.2534    2.1724   -1.6641 H   0  0  0  0  0  0  0  0  0  0  0  0
   -4.1515    0.3577    1.8338 H   0  0  0  0  0  0  0  0  0  0  0  0
   -6.6712    1.7495    0.1061 H   0  0  0  0  0  0  0  0  0  0  0  0
   -6.2641   -3.6764   -1.1328 H   0  0  0  0  0  0  0  0  0  0  0  0
   -7.9368   -3.2910   -0.7084 H   0  0  0  0  0  0  0  0  0  0  0  0
   -7.3036   -2.8761   -2.3184 H   0  0  0  0  0  0  0  0  0  0  0  0
  1 31  1  0  0  0  0
  1 32  1  0  0  0  0
  2 10  1  0  0  0  0
  2 56  1  0  0  0  0
  3 13  1  0  0  0  0
  3 59  1  0  0  0  0
  4 12  2  0  0  0  0
  5 22  1  0  0  0  0
  5 24  1  0  0  0  0
  6 22  2  0  0  0  0
  7 30  1  0  0  0  0
  7 32  2  0  0  0  0
  8 12  1  0  0  0  0
  8 13  1  0  0  0  0
  8 15  1  0  0  0  0
  8 16  1  0  0  0  0
  9 10  1  0  0  0  0
  9 12  1  0  0  0  0
  9 17  1  0  0  0  0
  9 34  1  0  0  0  0
 10 11  1  0  0  0  0
 10 35  1  0  0  0  0
 11 14  1  0  0  0  0
 11 18  1  0  0  0  0
 11 36  1  0  0  0  0
 13 20  1  0  0  0  0
 13 37  1  0  0  0  0
 14 19  1  0  0  0  0
 14 38  1  0  0  0  0
 14 39  1  0  0  0  0
 15 40  1  0  0  0  0
 15 41  1  0  0  0  0
 15 42  1  0  0  0  0
 16 43  1  0  0  0  0
 16 44  1  0  0  0  0
 16 45  1  0  0  0  0
 17 46  1  0  0  0  0
 17 47  1  0  0  0  0
 17 48  1  0  0  0  0
 18 49  1  0  0  0  0
 18 50  1  0  0  0  0
 18 51  1  0  0  0  0
 19 21  1  0  0  0  0
 19 52  1  0  0  0  0
 19 53  1  0  0  0  0
 20 22  1  0  0  0  0
 20 54  1  0  0  0  0
 20 55  1  0  0  0  0
 21 23  1  0  0  0  0
 21 57  1  0  0  0  0
 21 58  1  0  0  0  0
 23 26  2  0  0  0  0
 23 60  1  0  0  0  0
 24 25  1  0  0  0  0
 24 27  1  0  0  0  0
 24 61  1  0  0  0  0
 25 26  1  0  0  0  0
 25 62  1  0  0  0  0
 25 63  1  0  0  0  0
 26 64  1  0  0  0  0
 27 28  1  0  0  0  0
 27 29  2  0  0  0  0
 28 65  1  0  0  0  0
 28 66  1  0  0  0  0
 28 67  1  0  0  0  0
 29 30  1  0  0  0  0
 29 68  1  0  0  0  0
 30 31  2  0  0  0  0
 31 69  1  0  0  0  0
 32 33  1  0  0  0  0
 33 70  1  0  0  0  0
 33 71  1  0  0  0  0
 33 72  1  0  0  0  0
M  END
> <PUBCHEM_COMPOUND_CID>
9891226

> <PUBCHEM_CONFORMER_RMSD>
0.8

> <PUBCHEM_CONFORMER_DIVERSEORDER>
4
3
6
1
2
5

> <PUBCHEM_MMFF94_PARTIAL_CHARGES>
32
1 -0.08
10 0.28
12 0.45
13 0.28
2 -0.68
20 0.06
21 0.14
22 0.66
23 -0.29
24 0.42
25 0.14
26 -0.29
27 -0.28
28 0.14
29 -0.1
3 -0.68
30 0.18
31 -0.11
32 0.2
33 0.18
4 -0.57
5 -0.43
56 0.4
59 0.4
6 -0.57
60 0.15
64 0.15
68 0.15
69 0.15
7 -0.57
8 0.06
9 0.06

> <PUBCHEM_EFFECTIVE_ROTOR_COUNT>
4.4

> <PUBCHEM_PHARMACOPHORE_FEATURES>
10
1 2 acceptor
1 2 donor
1 28 hydrophobe
1 3 acceptor
1 3 donor
1 4 acceptor
1 6 acceptor
1 7 acceptor
3 8 15 16 hydrophobe
5 1 7 30 31 32 rings

> <PUBCHEM_HEAVY_ATOM_COUNT>
33

> <PUBCHEM_ATOM_DEF_STEREO_COUNT>
5

> <PUBCHEM_ATOM_UDEF_STEREO_COUNT>
0

> <PUBCHEM_BOND_DEF_STEREO_COUNT>
2

> <PUBCHEM_BOND_UDEF_STEREO_COUNT>
0

> <PUBCHEM_ISOTOPIC_ATOM_COUNT>
0

> <PUBCHEM_COMPONENT_COUNT>
1

> <PUBCHEM_CACTVS_TAUTO_COUNT>
2

> <PUBCHEM_CONFORMER_ID>
0096ED9A00000004

> <PUBCHEM_MMFF94_ENERGY>
70.6173

> <PUBCHEM_FEATURE_SELFOVERLAP>
50.746

> <PUBCHEM_SHAPE_FINGERPRINT>
10675989 125 18267580217475064376
10692045 39 9799697017269327077
10693767 8 18260831466932559071
10838868 158 16909173033731890099
10940486 97 16756351358410168427
11135609 187 18340765918980206024
11204353 107 18196369226437998563
11513181 2 17974555103479828990
12166972 35 17988920111037707460
12645989 146 18120363509519683446
12838863 1 18342466963011525522
13383661 66 17242150548453138854
1361 2 18410292471625549448
13773456 30 17979072687400174968
14681490 219 18411698811565117221
14725015 67 18271815644287760552
14784336 7 18114457843472299953
14931854 50 18341314631644140244
15927050 60 17685219369828175940
15950262 2 15193578755728768708
16067689 302 18122618359081869407
17492 89 18118964943144152910
17909252 39 18260834842381202112
19026451 147 18340772632350790634
19315092 285 17273433874323491106
20028762 73 18334009476172359724
21585483 132 17824560577954831903
23559900 14 18262252058168960505
24771293 8 18334575750546896240
3504750 166 16974785805983128642
463206 1 18335420110614395540
484989 97 18053653677539077715
513532 50 18188199997024554518
5309563 4 18409164450226973964
6004065 56 18263083232429139088
6669772 16 17972608675277088200
6700243 42 17534884575238948718

> <PUBCHEM_SHAPE_MULTIPOLES>
648.65
16.54
5.54
1.47
27.82
1.39
0.08
-8.33
6.72
-4.75
-0.22
-0.69
-0.31
-2.14

> <PUBCHEM_SHAPE_SELFOVERLAP>
1302.173

> <PUBCHEM_SHAPE_VOLUME>
383.7

> <PUBCHEM_COORDINATE_TYPE>
2
5
10

$$$$

