440184
  -OEChem-07051212493D

 21 21  0     0  0  0  0  0  0999 V2000
   -3.4813    2.5094   -0.0495 I   0  0  0  0  0  0  0  0  0  0  0  0
   -4.2192   -0.6400   -0.5077 O   0  0  0  0  0  0  0  0  0  0  0  0
    1.8051   -0.0177   -1.4267 O   0  0  0  0  0  0  0  0  0  0  0  0
    4.2858    0.2980   -1.1068 O   0  0  0  0  0  0  0  0  0  0  0  0
    4.0346    0.2240    1.1727 O   0  0  0  0  0  0  0  0  0  0  0  0
   -0.2206   -0.2867    0.5558 C   0  0  0  0  0  0  0  0  0  0  0  0
    1.2172   -0.1765    0.9365 C   0  0  0  0  0  0  0  0  0  0  0  0
   -1.0051    0.8619    0.4507 C   0  0  0  0  0  0  0  0  0  0  0  0
   -0.7807   -1.5392    0.3043 C   0  0  0  0  0  0  0  0  0  0  0  0
   -2.3495    0.7580    0.0941 C   0  0  0  0  0  0  0  0  0  0  0  0
   -2.1252   -1.6431   -0.0522 C   0  0  0  0  0  0  0  0  0  0  0  0
   -2.9096   -0.4944   -0.1574 C   0  0  0  0  0  0  0  0  0  0  0  0
    2.1430   -0.0180   -0.2523 C   0  0  0  0  0  0  0  0  0  0  0  0
    3.6053    0.1642    0.0385 C   0  0  0  0  0  0  0  0  0  0  0  0
    1.5259   -1.0682    1.4953 H   0  0  0  0  0  0  0  0  0  0  0  0
    1.3584    0.6841    1.6016 H   0  0  0  0  0  0  0  0  0  0  0  0
   -0.5578    1.8339    0.6468 H   0  0  0  0  0  0  0  0  0  0  0  0
   -0.1796   -2.4414    0.3808 H   0  0  0  0  0  0  0  0  0  0  0  0
   -2.5464   -2.6262   -0.2452 H   0  0  0  0  0  0  0  0  0  0  0  0
   -4.4143   -1.5838   -0.6383 H   0  0  0  0  0  0  0  0  0  0  0  0
    5.2440    0.4434   -0.9553 H   0  0  0  0  0  0  0  0  0  0  0  0
  1 10  1  0  0  0  0
  2 12  1  0  0  0  0
  2 20  1  0  0  0  0
  3 13  2  0  0  0  0
  4 14  1  0  0  0  0
  4 21  1  0  0  0  0
  5 14  2  0  0  0  0
  6  7  1  0  0  0  0
  6  8  2  0  0  0  0
  6  9  1  0  0  0  0
  7 13  1  0  0  0  0
  7 15  1  0  0  0  0
  7 16  1  0  0  0  0
  8 10  1  0  0  0  0
  8 17  1  0  0  0  0
  9 11  2  0  0  0  0
  9 18  1  0  0  0  0
 10 12  2  0  0  0  0
 11 12  1  0  0  0  0
 11 19  1  0  0  0  0
 13 14  1  0  0  0  0
M  END
> <PUBCHEM_COMPOUND_CID>
440184

> <PUBCHEM_CONFORMER_RMSD>
0.6

> <PUBCHEM_CONFORMER_DIVERSEORDER>
1
16
24
18
23
10
14
19
20
7
3
13
22
15
8
21
9
2
5
17
4
12
11
6

> <PUBCHEM_MMFF94_PARTIAL_CHARGES>
19
1 -0.08
10 0.08
11 -0.15
12 0.08
13 0.51
14 0.72
17 0.15
18 0.15
19 0.15
2 -0.53
20 0.45
21 0.5
3 -0.57
4 -0.65
5 -0.57
6 -0.14
7 0.2
8 -0.15
9 -0.15

> <PUBCHEM_EFFECTIVE_ROTOR_COUNT>
3

> <PUBCHEM_PHARMACOPHORE_FEATURES>
7
1 1 hydrophobe
1 2 donor
1 3 acceptor
1 4 acceptor
1 5 acceptor
3 4 5 14 anion
6 6 8 9 10 11 12 rings

> <PUBCHEM_HEAVY_ATOM_COUNT>
14

> <PUBCHEM_ATOM_DEF_STEREO_COUNT>
0

> <PUBCHEM_ATOM_UDEF_STEREO_COUNT>
0

> <PUBCHEM_BOND_DEF_STEREO_COUNT>
0

> <PUBCHEM_BOND_UDEF_STEREO_COUNT>
0

> <PUBCHEM_ISOTOPIC_ATOM_COUNT>
0

> <PUBCHEM_COMPONENT_COUNT>
1

> <PUBCHEM_CACTVS_TAUTO_COUNT>
10

> <PUBCHEM_CONFORMER_ID>
0006B77800000001

> <PUBCHEM_MMFF94_ENERGY>
29.4005

> <PUBCHEM_FEATURE_SELFOVERLAP>
35.59

> <PUBCHEM_SHAPE_FINGERPRINT>
12119455 92 14404915673710458859
12173636 292 18265621055637198909
12186901 62 18333728044161217461
12500047 106 18335984246279464310
14123255 52 18195528327512031329
14897335 6 18268433610559680137
15775835 57 18201435938688645729
16945 1 18410860932576068491
1741750 31 18265052608004273905
18186145 218 17894906373356912696
19107657 47 15913334593260733364
200 152 16200152050190317099
20201158 50 17603861187308701470
20279233 1 17676486125352229298
20645476 183 17917998235228598051
20645477 56 18336542806729115729
20645477 70 16588016944572712534
20671657 1 17762335121523391291
20871999 31 18333452058247884005
22926399 65 18336828692468408337
23402539 116 18334866051454429348
23557571 272 18187355545433256605
23559900 14 18114463465879031298
3268164 11 18334305262075228157
474 4 16987145016990465372
573450 72 18270695237168907258
633830 44 17417237853411381650
77492 1 17775292659560704386

> <PUBCHEM_SHAPE_MULTIPOLES>
276.57
7.88
1.84
0.99
4.82
0.43
-0.08
2.87
-1.04
-2.76
-0.01
0.74
0.09
-0.23

> <PUBCHEM_SHAPE_SELFOVERLAP>
557.659

> <PUBCHEM_SHAPE_VOLUME>
165

> <PUBCHEM_COORDINATE_TYPE>
2
5
10

$$$$

