244386
  -OEChem-07051213063D

 37 39  0     0  0  0  0  0  0999 V2000
    0.5091   -0.7026   -0.0025 O   0  0  0  0  0  0  0  0  0  0  0  0
   -3.4801    2.0295    0.2533 O   0  0  0  0  0  0  0  0  0  0  0  0
   -3.7829   -2.7168   -0.0533 O   0  0  0  0  0  0  0  0  0  0  0  0
   -4.9936   -0.2384    0.1337 O   0  0  0  0  0  0  0  0  0  0  0  0
   -1.0740    3.0409    0.2784 O   0  0  0  0  0  0  0  0  0  0  0  0
    6.8313   -0.6909   -0.1058 O   0  0  0  0  0  0  0  0  0  0  0  0
   -1.4594    0.7143    0.1281 C   0  0  0  0  0  0  0  0  0  0  0  0
   -0.8522   -0.5368    0.0341 C   0  0  0  0  0  0  0  0  0  0  0  0
   -2.8515    0.8232    0.1623 C   0  0  0  0  0  0  0  0  0  0  0  0
    1.3136    0.4256    0.0488 C   0  0  0  0  0  0  0  0  0  0  0  0
   -0.6091    1.9128    0.1919 C   0  0  0  0  0  0  0  0  0  0  0  0
   -1.6359   -1.6893   -0.0261 C   0  0  0  0  0  0  0  0  0  0  0  0
   -3.6329   -0.3313    0.1014 C   0  0  0  0  0  0  0  0  0  0  0  0
   -3.0267   -1.5848    0.0076 C   0  0  0  0  0  0  0  0  0  0  0  0
    0.8489    1.6814    0.1467 C   0  0  0  0  0  0  0  0  0  0  0  0
    2.7604    0.1331    0.0089 C   0  0  0  0  0  0  0  0  0  0  0  0
    3.4643   -0.0942    1.1940 C   0  0  0  0  0  0  0  0  0  0  0  0
    3.4318    0.0822   -1.2153 C   0  0  0  0  0  0  0  0  0  0  0  0
    4.8309   -0.3706    1.1554 C   0  0  0  0  0  0  0  0  0  0  0  0
    4.7985   -0.1943   -1.2540 C   0  0  0  0  0  0  0  0  0  0  0  0
    5.4982   -0.4208   -0.0687 C   0  0  0  0  0  0  0  0  0  0  0  0
   -3.8031    2.6850   -0.9709 C   0  0  0  0  0  0  0  0  0  0  0  0
   -3.0857   -3.9572   -0.1480 C   0  0  0  0  0  0  0  0  0  0  0  0
   -1.1048   -2.6325   -0.0982 H   0  0  0  0  0  0  0  0  0  0  0  0
    1.5018    2.5458    0.1931 H   0  0  0  0  0  0  0  0  0  0  0  0
    2.9582   -0.0594    2.1559 H   0  0  0  0  0  0  0  0  0  0  0  0
    2.9004    0.2556   -2.1480 H   0  0  0  0  0  0  0  0  0  0  0  0
    5.3644   -0.5454    2.0858 H   0  0  0  0  0  0  0  0  0  0  0  0
    5.3126   -0.2322   -2.2105 H   0  0  0  0  0  0  0  0  0  0  0  0
   -5.2389    0.6928    0.2695 H   0  0  0  0  0  0  0  0  0  0  0  0
   -4.1041    3.7107   -0.7408 H   0  0  0  0  0  0  0  0  0  0  0  0
   -4.6398    2.1785   -1.4618 H   0  0  0  0  0  0  0  0  0  0  0  0
   -2.9441    2.7163   -1.6490 H   0  0  0  0  0  0  0  0  0  0  0  0
   -2.4736   -4.1457    0.7406 H   0  0  0  0  0  0  0  0  0  0  0  0
   -2.5078   -4.0261   -1.0759 H   0  0  0  0  0  0  0  0  0  0  0  0
   -3.8413   -4.7490   -0.1859 H   0  0  0  0  0  0  0  0  0  0  0  0
    7.1521   -0.8205    0.8032 H   0  0  0  0  0  0  0  0  0  0  0  0
  1  8  1  0  0  0  0
  1 10  1  0  0  0  0
  2  9  1  0  0  0  0
  2 22  1  0  0  0  0
  3 14  1  0  0  0  0
  3 23  1  0  0  0  0
  4 13  1  0  0  0  0
  4 30  1  0  0  0  0
  5 11  2  0  0  0  0
  6 21  1  0  0  0  0
  6 37  1  0  0  0  0
  7  8  1  0  0  0  0
  7  9  2  0  0  0  0
  7 11  1  0  0  0  0
  8 12  2  0  0  0  0
  9 13  1  0  0  0  0
 10 15  2  0  0  0  0
 10 16  1  0  0  0  0
 11 15  1  0  0  0  0
 12 14  1  0  0  0  0
 12 24  1  0  0  0  0
 13 14  2  0  0  0  0
 15 25  1  0  0  0  0
 16 17  2  0  0  0  0
 16 18  1  0  0  0  0
 17 19  1  0  0  0  0
 17 26  1  0  0  0  0
 18 20  2  0  0  0  0
 18 27  1  0  0  0  0
 19 21  2  0  0  0  0
 19 28  1  0  0  0  0
 20 21  1  0  0  0  0
 20 29  1  0  0  0  0
 22 31  1  0  0  0  0
 22 32  1  0  0  0  0
 22 33  1  0  0  0  0
 23 34  1  0  0  0  0
 23 35  1  0  0  0  0
 23 36  1  0  0  0  0
M  END
> <PUBCHEM_COMPOUND_CID>
244386

> <PUBCHEM_CONFORMER_RMSD>
0.6

> <PUBCHEM_CONFORMER_DIVERSEORDER>
5
4
3
2
1

> <PUBCHEM_MMFF94_PARTIAL_CHARGES>
31
1 -0.16
10 0.05
11 0.47
12 -0.15
13 0.08
14 0.08
15 -0.14
16 0.03
17 -0.15
18 -0.15
19 -0.15
2 -0.36
20 -0.15
21 0.08
22 0.28
23 0.28
24 0.15
25 0.15
26 0.15
27 0.15
28 0.15
29 0.15
3 -0.36
30 0.45
37 0.45
4 -0.53
5 -0.57
6 -0.53
7 0.09
8 0.08
9 0.08

> <PUBCHEM_EFFECTIVE_ROTOR_COUNT>
3

> <PUBCHEM_PHARMACOPHORE_FEATURES>
9
1 1 acceptor
1 2 acceptor
1 3 acceptor
1 4 donor
1 5 acceptor
1 6 donor
6 1 7 8 10 11 15 rings
6 16 17 18 19 20 21 rings
6 7 8 9 12 13 14 rings

> <PUBCHEM_HEAVY_ATOM_COUNT>
23

> <PUBCHEM_ATOM_DEF_STEREO_COUNT>
0

> <PUBCHEM_ATOM_UDEF_STEREO_COUNT>
0

> <PUBCHEM_BOND_DEF_STEREO_COUNT>
0

> <PUBCHEM_BOND_UDEF_STEREO_COUNT>
0

> <PUBCHEM_ISOTOPIC_ATOM_COUNT>
0

> <PUBCHEM_COMPONENT_COUNT>
1

> <PUBCHEM_CACTVS_TAUTO_COUNT>
6

> <PUBCHEM_CONFORMER_ID>
0003BAA200000005

> <PUBCHEM_MMFF94_ENERGY>
90.4936

> <PUBCHEM_FEATURE_SELFOVERLAP>
45.708

> <PUBCHEM_SHAPE_FINGERPRINT>
10 15 17822588144710394474
10062212 137 18202001031724960481
10319926 262 18190765153462469626
10411042 1 18194402182960864379
105312 117 18128825333584137477
10616163 171 18410291415259332014
11045977 3 18113627789370416520
11315181 36 18273494568409537580
11545043 162 18186803569754214538
11796584 16 18335982090834148846
12107183 9 17696201678855903074
12236239 1 17846214501669880056
12293681 160 17753062871200342833
12403259 226 18119533141821422809
12403814 3 17346317145822717421
12553582 1 18339927004756417459
12616971 3 17346312726707239668
12788726 201 18271528696831345920
13140716 1 18334858264610280153
13288520 33 18409165510824893836
13862211 1 18409450250631143499
14386348 63 17821727260806129164
14790565 3 17831853921512017305
15042514 8 18339077065563121947
15196674 1 18337671893174299984
15250474 111 18200607972632926978
16752209 62 18342184361925091114
17492 89 17904202525380361583
17804303 29 18335701602981991417
17844677 252 18409443662014129128
18927931 339 18408317774459561990
19141452 34 17676767582985696759
200 152 16989126465787032436
20511986 3 17774736341263933408
21033648 29 17022915565846200658
21065201 7 18407763638274728770
21267235 1 18412257320495441683
22182313 1 17968081066892783583
2297311 6 18334286583336180516
23175994 123 17095240310939165656
23366157 5 17912647899593711309
23402539 116 18412266159828235340
23557571 272 18187640327719128700
23559900 14 18335710386074489592
3004659 81 18202003188299774446
335352 9 18410294692935953549
4214541 1 18411136952590943604
484989 97 18269847433091264111
5104073 3 18189048698861106435
559249 180 18200598115392162762
573450 72 18272376386289913754
602551 16 18408325484511121850
7970288 3 18193558870111296742
9709674 26 18260823851908258926

> <PUBCHEM_SHAPE_MULTIPOLES>
438.11
11.95
3.05
0.92
14.8
1.13
0.07
3.43
0.72
-5.97
0.25
0.95
-0.08
0.15

> <PUBCHEM_SHAPE_SELFOVERLAP>
968.128

> <PUBCHEM_SHAPE_VOLUME>
234.8

> <PUBCHEM_COORDINATE_TYPE>
2
5
10

$$$$

