13213
  -OEChem-06261207543D

 22 23  0     0  0  0  0  0  0999 V2000
   -2.1776   -0.0001    0.2689 C   0  0  0  0  0  0  0  0  0  0  0  0
   -1.2829   -1.2363    0.5149 C   0  0  0  0  0  0  0  0  0  0  0  0
   -1.2831    1.2360    0.5153 C   0  0  0  0  0  0  0  0  0  0  0  0
    0.0794   -0.6993    0.2048 C   0  0  0  0  0  0  0  0  0  0  0  0
    0.0793    0.6993    0.2047 C   0  0  0  0  0  0  0  0  0  0  0  0
   -2.7481    0.0002   -1.1542 C   0  0  0  0  0  0  0  0  0  0  0  0
    1.2445   -1.4136   -0.0192 C   0  0  0  0  0  0  0  0  0  0  0  0
    1.2444    1.4136   -0.0192 C   0  0  0  0  0  0  0  0  0  0  0  0
    2.4221   -0.7018   -0.2579 C   0  0  0  0  0  0  0  0  0  0  0  0
    2.4220    0.7019   -0.2580 C   0  0  0  0  0  0  0  0  0  0  0  0
   -3.0286   -0.0003    0.9605 H   0  0  0  0  0  0  0  0  0  0  0  0
   -1.5507   -2.0833   -0.1236 H   0  0  0  0  0  0  0  0  0  0  0  0
   -1.3239   -1.5399    1.5666 H   0  0  0  0  0  0  0  0  0  0  0  0
   -1.3239    1.5391    1.5672 H   0  0  0  0  0  0  0  0  0  0  0  0
   -1.5510    2.0833   -0.1228 H   0  0  0  0  0  0  0  0  0  0  0  0
   -1.9581    0.0004   -1.9126 H   0  0  0  0  0  0  0  0  0  0  0  0
   -3.3727   -0.8845   -1.3176 H   0  0  0  0  0  0  0  0  0  0  0  0
   -3.3726    0.8850   -1.3172 H   0  0  0  0  0  0  0  0  0  0  0  0
    1.2488   -2.4982   -0.0092 H   0  0  0  0  0  0  0  0  0  0  0  0
    1.2488    2.4982   -0.0090 H   0  0  0  0  0  0  0  0  0  0  0  0
    3.3492   -1.2385   -0.4399 H   0  0  0  0  0  0  0  0  0  0  0  0
    3.3492    1.2387   -0.4399 H   0  0  0  0  0  0  0  0  0  0  0  0
  1  2  1  0  0  0  0
  1  3  1  0  0  0  0
  1  6  1  0  0  0  0
  1 11  1  0  0  0  0
  2  4  1  0  0  0  0
  2 12  1  0  0  0  0
  2 13  1  0  0  0  0
  3  5  1  0  0  0  0
  3 14  1  0  0  0  0
  3 15  1  0  0  0  0
  4  5  1  0  0  0  0
  4  7  2  0  0  0  0
  5  8  2  0  0  0  0
  6 16  1  0  0  0  0
  6 17  1  0  0  0  0
  6 18  1  0  0  0  0
  7  9  1  0  0  0  0
  7 19  1  0  0  0  0
  8 10  1  0  0  0  0
  8 20  1  0  0  0  0
  9 10  2  0  0  0  0
  9 21  1  0  0  0  0
 10 22  1  0  0  0  0
M  END
> <PUBCHEM_COMPOUND_CID>
13213

> <PUBCHEM_CONFORMER_RMSD>
0.4

> <PUBCHEM_CONFORMER_DIVERSEORDER>
2
1

> <PUBCHEM_MMFF94_PARTIAL_CHARGES>
12
10 -0.15
19 0.15
2 0.14
20 0.15
21 0.15
22 0.15
3 0.14
4 -0.14
5 -0.14
7 -0.15
8 -0.15
9 -0.15

> <PUBCHEM_EFFECTIVE_ROTOR_COUNT>
0.6

> <PUBCHEM_PHARMACOPHORE_FEATURES>
2
5 1 2 3 4 5 rings
6 4 5 7 8 9 10 rings

> <PUBCHEM_HEAVY_ATOM_COUNT>
10

> <PUBCHEM_ATOM_DEF_STEREO_COUNT>
0

> <PUBCHEM_ATOM_UDEF_STEREO_COUNT>
0

> <PUBCHEM_BOND_DEF_STEREO_COUNT>
0

> <PUBCHEM_BOND_UDEF_STEREO_COUNT>
0

> <PUBCHEM_ISOTOPIC_ATOM_COUNT>
0

> <PUBCHEM_COMPONENT_COUNT>
1

> <PUBCHEM_CACTVS_TAUTO_COUNT>
1

> <PUBCHEM_CONFORMER_ID>
0000339D00000002

> <PUBCHEM_MMFF94_ENERGY>
25.4038

> <PUBCHEM_FEATURE_SELFOVERLAP>
10.23

> <PUBCHEM_SHAPE_FINGERPRINT>
11206711 2 18340200916010558644
12138202 97 17917436367337643471
12423570 1 17466501626317548755
12897270 3 18410011013744318461
14128692 85 17967538977516124223
16945 1 18410851062202970074
17844478 74 17917415507108410665
18185500 45 18193833975386581090
20201158 50 18411703192236086630
20653085 51 17275383231114256317
21040471 1 18267016151055908088
23402655 69 18337684095925669525
23552423 10 18342730806466828250
241688 4 17978788244399602552
2748010 2 18049998892319442880
29004967 10 18411129234402610258
369184 2 18411975862529632723
5084963 1 17775275032766994939
528886 8 18410009935702239545
8030462 33 18334570248287354228

> <PUBCHEM_SHAPE_MULTIPOLES>
205.8
3.66
1.52
0.83
0.3
0
-0.13
0
-0.88
-0.35
0.14
0.42
0
0

> <PUBCHEM_SHAPE_SELFOVERLAP>
439.688

> <PUBCHEM_SHAPE_VOLUME>
109.8

> <PUBCHEM_COORDINATE_TYPE>
2
5
10

$$$$

