13326
  -OEChem-06261208583D

 39 41  0     0  0  0  0  0  0999 V2000
   -0.3758    2.1571    0.3398 S   0  0  0  0  0  0  0  0  0  0  0  0
   -0.6542    3.5322   -0.0274 O   0  0  0  0  0  0  0  0  0  0  0  0
    0.1974    1.8433    1.6352 O   0  0  0  0  0  0  0  0  0  0  0  0
    2.2749   -0.3082   -0.2028 N   0  0  0  0  0  0  0  0  0  0  0  0
    0.5598    1.4110   -0.9059 N   0  0  0  0  0  0  0  0  0  0  0  0
    3.5856   -0.3979    0.1069 N   0  0  0  0  0  0  0  0  0  0  0  0
   -5.4709   -0.8815   -0.0667 N   0  0  0  0  0  0  0  0  0  0  0  0
    1.8866    0.9658   -0.5272 C   0  0  0  0  0  0  0  0  0  0  0  0
   -1.8918    1.2528    0.2186 C   0  0  0  0  0  0  0  0  0  0  0  0
    3.0103    1.7487   -0.4215 C   0  0  0  0  0  0  0  0  0  0  0  0
    1.4685   -1.4311   -0.1734 C   0  0  0  0  0  0  0  0  0  0  0  0
    4.0254    0.8560   -0.0284 C   0  0  0  0  0  0  0  0  0  0  0  0
   -2.0519    0.1018    0.9690 C   0  0  0  0  0  0  0  0  0  0  0  0
   -2.8869    1.7149   -0.6240 C   0  0  0  0  0  0  0  0  0  0  0  0
    0.3715   -1.5244   -1.0300 C   0  0  0  0  0  0  0  0  0  0  0  0
    1.7537   -2.4720    0.7104 C   0  0  0  0  0  0  0  0  0  0  0  0
    5.4418    1.1658    0.2289 C   0  0  0  0  0  0  0  0  0  0  0  0
   -3.2468   -0.6113    0.8734 C   0  0  0  0  0  0  0  0  0  0  0  0
   -4.0819    1.0018   -0.7195 C   0  0  0  0  0  0  0  0  0  0  0  0
   -4.2619   -0.1613    0.0293 C   0  0  0  0  0  0  0  0  0  0  0  0
   -0.4403   -2.6583   -1.0028 C   0  0  0  0  0  0  0  0  0  0  0  0
    0.9420   -3.6061    0.7374 C   0  0  0  0  0  0  0  0  0  0  0  0
   -0.1550   -3.6992   -0.1192 C   0  0  0  0  0  0  0  0  0  0  0  0
    0.5847    1.9623   -1.7750 H   0  0  0  0  0  0  0  0  0  0  0  0
    3.0832    2.8115   -0.6028 H   0  0  0  0  0  0  0  0  0  0  0  0
   -1.2722   -0.2679    1.6277 H   0  0  0  0  0  0  0  0  0  0  0  0
   -2.7622    2.6136   -1.2200 H   0  0  0  0  0  0  0  0  0  0  0  0
    0.1395   -0.7775   -1.7812 H   0  0  0  0  0  0  0  0  0  0  0  0
    2.5949   -2.4254    1.3976 H   0  0  0  0  0  0  0  0  0  0  0  0
    6.0906    0.6013   -0.4487 H   0  0  0  0  0  0  0  0  0  0  0  0
    5.6499    2.2308    0.0826 H   0  0  0  0  0  0  0  0  0  0  0  0
    5.7132    0.9099    1.2583 H   0  0  0  0  0  0  0  0  0  0  0  0
   -3.3740   -1.5173    1.4604 H   0  0  0  0  0  0  0  0  0  0  0  0
   -4.8649    1.3617   -1.3821 H   0  0  0  0  0  0  0  0  0  0  0  0
   -1.2869   -2.7372   -1.6786 H   0  0  0  0  0  0  0  0  0  0  0  0
    1.1625   -4.4160    1.4266 H   0  0  0  0  0  0  0  0  0  0  0  0
   -0.7859   -4.5829   -0.0996 H   0  0  0  0  0  0  0  0  0  0  0  0
   -5.6012   -1.7260    0.4742 H   0  0  0  0  0  0  0  0  0  0  0  0
   -6.2064   -0.5565   -0.6801 H   0  0  0  0  0  0  0  0  0  0  0  0
  1  2  2  0  0  0  0
  1  3  2  0  0  0  0
  1  5  1  0  0  0  0
  1  9  1  0  0  0  0
  4  6  1  0  0  0  0
  4  8  1  0  0  0  0
  4 11  1  0  0  0  0
  5  8  1  0  0  0  0
  5 24  1  0  0  0  0
  6 12  2  0  0  0  0
  7 20  1  0  0  0  0
  7 38  1  0  0  0  0
  7 39  1  0  0  0  0
  8 10  2  0  0  0  0
  9 13  2  0  0  0  0
  9 14  1  0  0  0  0
 10 12  1  0  0  0  0
 10 25  1  0  0  0  0
 11 15  2  0  0  0  0
 11 16  1  0  0  0  0
 12 17  1  0  0  0  0
 13 18  1  0  0  0  0
 13 26  1  0  0  0  0
 14 19  2  0  0  0  0
 14 27  1  0  0  0  0
 15 21  1  0  0  0  0
 15 28  1  0  0  0  0
 16 22  2  0  0  0  0
 16 29  1  0  0  0  0
 17 30  1  0  0  0  0
 17 31  1  0  0  0  0
 17 32  1  0  0  0  0
 18 20  2  0  0  0  0
 18 33  1  0  0  0  0
 19 20  1  0  0  0  0
 19 34  1  0  0  0  0
 21 23  2  0  0  0  0
 21 35  1  0  0  0  0
 22 23  1  0  0  0  0
 22 36  1  0  0  0  0
 23 37  1  0  0  0  0
M  END
> <PUBCHEM_COMPOUND_CID>
13326

> <PUBCHEM_CONFORMER_RMSD>
0.6

> <PUBCHEM_CONFORMER_DIVERSEORDER>
1
42
12
27
30
39
46
29
40
47
45
28
36
16
11
13
44
37
15
35
34
2
43
31
17
49
32
5
9
33
48
20
10
41
21
8
14
7
18
22
25
26
24
19
4
38
23
3
6

> <PUBCHEM_MMFF94_PARTIAL_CHARGES>
36
1 1.45
10 -0.15
11 -0.02
12 0.11
13 -0.15
14 -0.15
15 -0.15
16 -0.15
17 0.18
18 -0.15
19 -0.15
2 -0.65
20 0.1
21 -0.15
22 -0.15
23 -0.15
24 0.42
25 0.15
26 0.15
27 0.15
28 0.15
29 0.15
3 -0.65
33 0.15
34 0.15
35 0.15
36 0.15
37 0.15
38 0.4
39 0.4
4 0.59
5 -0.7
6 -0.71
7 -0.9
8 -0.01
9 -0.01

> <PUBCHEM_EFFECTIVE_ROTOR_COUNT>
4

> <PUBCHEM_PHARMACOPHORE_FEATURES>
9
1 2 acceptor
1 3 acceptor
1 5 donor
1 6 acceptor
1 7 cation
1 7 donor
5 4 6 8 10 12 rings
6 11 15 16 21 22 23 rings
6 9 13 14 18 19 20 rings

> <PUBCHEM_HEAVY_ATOM_COUNT>
23

> <PUBCHEM_ATOM_DEF_STEREO_COUNT>
0

> <PUBCHEM_ATOM_UDEF_STEREO_COUNT>
0

> <PUBCHEM_BOND_DEF_STEREO_COUNT>
0

> <PUBCHEM_BOND_UDEF_STEREO_COUNT>
0

> <PUBCHEM_ISOTOPIC_ATOM_COUNT>
0

> <PUBCHEM_COMPONENT_COUNT>
1

> <PUBCHEM_CACTVS_TAUTO_COUNT>
3

> <PUBCHEM_CONFORMER_ID>
0000340E00000001

> <PUBCHEM_MMFF94_ENERGY>
61.5112

> <PUBCHEM_FEATURE_SELFOVERLAP>
45.686

> <PUBCHEM_SHAPE_FINGERPRINT>
10090160 65 18342741814367748727
10616163 171 18266176313098347605
10675989 125 17694231371357780413
1100329 8 18194120716267827876
11370993 70 18343022194164663581
11578080 2 16484166009354999638
12156800 1 17830768394097005498
12838862 33 18265071183706147869
12839892 36 18269009733277928008
13052359 8 18268147561559058106
13083527 12 18126017189070504242
13140716 1 18048313345115021400
13402501 40 18341888533895878899
138480 1 17835523000197709046
14178342 30 17904770225662058008
14223421 5 18194116558406805893
14765038 42 18043229298038114569
14787075 74 18114185181393426768
14790565 3 18410567353828389660
14866123 147 18340216211254717514
17138139 8 17753358407920475783
17492 54 18263662713843344015
17492 89 18196092377135414059
18681886 176 18343585119034732944
19591789 44 18338517430500935591
20028762 73 18261116304880030670
20197701 30 18410862062057411170
20715895 44 17692263241306947453
20905425 154 18264768951036210887
21421861 104 18049427438531450513
21524375 3 18334289838547247374
22393880 68 18266170823860839220
23184049 29 17834954552812255783
23419403 2 16968067725163825088
23558518 356 17983003741826722817
23559900 14 17978803624461230994
2871803 45 18409727399884664805
3052486 1 18049741627994505786
33824 294 18412544344364176790
3797600 57 17822295737797021466
463206 1 18337392635150099255
474229 33 18410575072221399172
484985 159 14754824541701927002
484989 97 17980763732226052103
5486654 2 18409725124021736716
6438718 38 17752476560618578934
9709674 26 17977948213321286533

> <PUBCHEM_SHAPE_MULTIPOLES>
445.52
8.15
4.08
1.02
1.25
2.84
0.1
-2.95
0.01
-0.84
0.15
0.2
0.06
-0.05

> <PUBCHEM_SHAPE_SELFOVERLAP>
954.657

> <PUBCHEM_SHAPE_VOLUME>
248.1

> <PUBCHEM_COORDINATE_TYPE>
2
5
10

$$$$

