53232
  -OEChem-07051212522D

 65 67  0     1  0  0  0  0  0999 V2000
    3.7320    0.5548    0.0000 O   0  0  0  0  0  0  0  0  0  0  0  0
    7.1893   -1.4997    0.0000 O   0  0  0  0  0  0  0  0  0  0  0  0
    4.5740   -2.9695    0.0000 O   0  0  0  0  0  0  0  0  0  0  0  0
    2.0000    0.5548    0.0000 O   0  0  0  0  0  0  0  0  0  0  0  0
    8.0379   -3.0096    0.0000 O   0  0  0  0  0  0  0  0  0  0  0  0
    4.5981    2.0548    0.0000 C   0  0  1  0  0  0  0  0  0  0  0  0
    5.4920    1.5202    0.0000 C   0  0  2  0  0  0  0  0  0  0  0  0
    3.7320    1.5548    0.0000 C   0  0  2  0  0  0  0  0  0  0  0  0
    6.3981    2.0340    0.0000 C   0  0  2  0  0  0  0  0  0  0  0  0
    4.5981    3.0548    0.0000 C   0  0  0  0  0  0  0  0  0  0  0  0
    5.4804    0.5202    0.0000 C   0  0  0  0  0  0  0  0  0  0  0  0
    2.8660    2.0548    0.0000 C   0  0  0  0  0  0  0  0  0  0  0  0
    2.8660    3.0548    0.0000 C   0  0  2  0  0  0  0  0  0  0  0  0
    3.7320    3.5548    0.0000 C   0  0  0  0  0  0  0  0  0  0  0  0
    6.3406    0.0102    0.0000 C   0  0  0  0  0  0  0  0  0  0  0  0
    6.3981    3.0756    0.0000 C   0  0  0  0  0  0  0  0  0  0  0  0
    5.4920    3.5895    0.0000 C   0  0  0  0  0  0  0  0  0  0  0  0
    7.2622    1.5307    0.0000 C   0  0  0  0  0  0  0  0  0  0  0  0
    6.3291   -0.9897    0.0000 C   0  0  2  0  0  0  0  0  0  0  0  0
    2.0000    3.5548    0.0000 C   0  0  0  0  0  0  0  0  0  0  0  0
    5.4573   -1.4796    0.0000 C   0  0  0  0  0  0  0  0  0  0  0  0
    5.4458   -2.4796    0.0000 C   0  0  2  0  0  0  0  0  0  0  0  0
    2.8660    0.0548    0.0000 C   0  0  0  0  0  0  0  0  0  0  0  0
    6.3060   -2.9896    0.0000 C   0  0  0  0  0  0  0  0  0  0  0  0
    2.8660   -0.9452    0.0000 C   0  0  2  0  0  0  0  0  0  0  0  0
    7.1777   -2.4996    0.0000 C   0  0  0  0  0  0  0  0  0  0  0  0
    2.0000   -1.4452    0.0000 C   0  0  0  0  0  0  0  0  0  0  0  0
    3.7320   -1.4452    0.0000 C   0  0  0  0  0  0  0  0  0  0  0  0
    2.0000   -2.4452    0.0000 C   0  0  0  0  0  0  0  0  0  0  0  0
    4.5915    1.2048    0.0000 H   0  0  0  0  0  0  0  0  0  0  0  0
    6.0259    1.2050    0.0000 H   0  0  0  0  0  0  0  0  0  0  0  0
    4.2690    1.2448    0.0000 H   0  0  0  0  0  0  0  0  0  0  0  0
    6.9356    2.3430    0.0000 H   0  0  0  0  0  0  0  0  0  0  0  0
    4.8712    0.6349    0.0000 H   0  0  0  0  0  0  0  0  0  0  0  0
    5.2617   -0.0599    0.0000 H   0  0  0  0  0  0  0  0  0  0  0  0
    2.2554    2.1625    0.0000 H   0  0  0  0  0  0  0  0  0  0  0  0
    2.6540    1.4722    0.0000 H   0  0  0  0  0  0  0  0  0  0  0  0
    2.8660    3.6748    0.0000 H   0  0  0  0  0  0  0  0  0  0  0  0
    3.7320    4.1748    0.0000 H   0  0  0  0  0  0  0  0  0  0  0  0
    6.9499   -0.1045    0.0000 H   0  0  0  0  0  0  0  0  0  0  0  0
    6.5594    0.5904    0.0000 H   0  0  0  0  0  0  0  0  0  0  0  0
    6.9338    3.3877    0.0000 H   0  0  0  0  0  0  0  0  0  0  0  0
    5.4848    4.2094    0.0000 H   0  0  0  0  0  0  0  0  0  0  0  0
    6.9501    0.9949    0.0000 H   0  0  0  0  0  0  0  0  0  0  0  0
    7.7979    1.2186    0.0000 H   0  0  0  0  0  0  0  0  0  0  0  0
    7.5742    2.0664    0.0000 H   0  0  0  0  0  0  0  0  0  0  0  0
    6.8696   -0.6859    0.0000 H   0  0  0  0  0  0  0  0  0  0  0  0
    2.3100    4.0918    0.0000 H   0  0  0  0  0  0  0  0  0  0  0  0
    1.4631    3.8648    0.0000 H   0  0  0  0  0  0  0  0  0  0  0  0
    1.6900    3.0179    0.0000 H   0  0  0  0  0  0  0  0  0  0  0  0
    5.2520   -0.8946    0.0000 H   0  0  0  0  0  0  0  0  0  0  0  0
    4.8455   -1.5802    0.0000 H   0  0  0  0  0  0  0  0  0  0  0  0
    4.9124   -2.1634    0.0000 H   0  0  0  0  0  0  0  0  0  0  0  0
    5.9020   -3.4599    0.0000 H   0  0  0  0  0  0  0  0  0  0  0  0
    6.6990   -3.4691    0.0000 H   0  0  0  0  0  0  0  0  0  0  0  0
    2.8660   -1.5652    0.0000 H   0  0  0  0  0  0  0  0  0  0  0  0
    1.7880   -0.8626    0.0000 H   0  0  0  0  0  0  0  0  0  0  0  0
    1.3894   -1.5528    0.0000 H   0  0  0  0  0  0  0  0  0  0  0  0
    4.5668   -3.5895    0.0000 H   0  0  0  0  0  0  0  0  0  0  0  0
    3.4220   -1.9821    0.0000 H   0  0  0  0  0  0  0  0  0  0  0  0
    4.2690   -1.7552    0.0000 H   0  0  0  0  0  0  0  0  0  0  0  0
    4.0420   -0.9082    0.0000 H   0  0  0  0  0  0  0  0  0  0  0  0
    1.3800   -2.4452    0.0000 H   0  0  0  0  0  0  0  0  0  0  0  0
    2.0000   -3.0652    0.0000 H   0  0  0  0  0  0  0  0  0  0  0  0
    2.6200   -2.4452    0.0000 H   0  0  0  0  0  0  0  0  0  0  0  0
  8  1  1  1  0  0  0
  1 23  1  0  0  0  0
  2 19  1  0  0  0  0
  2 26  1  0  0  0  0
 22  3  1  6  0  0  0
  3 59  1  0  0  0  0
  4 23  2  0  0  0  0
  5 26  2  0  0  0  0
  6  7  1  0  0  0  0
  6  8  1  0  0  0  0
  6 10  1  0  0  0  0
  6 30  1  6  0  0  0
  7  9  1  0  0  0  0
  7 11  1  6  0  0  0
  7 31  1  0  0  0  0
  8 12  1  0  0  0  0
  8 32  1  0  0  0  0
  9 16  1  0  0  0  0
  9 18  1  6  0  0  0
  9 33  1  0  0  0  0
 10 14  2  0  0  0  0
 10 17  1  0  0  0  0
 11 15  1  0  0  0  0
 11 34  1  0  0  0  0
 11 35  1  0  0  0  0
 12 13  1  0  0  0  0
 12 36  1  0  0  0  0
 12 37  1  0  0  0  0
 13 14  1  0  0  0  0
 13 20  1  1  0  0  0
 13 38  1  0  0  0  0
 14 39  1  0  0  0  0
 19 15  1  1  0  0  0
 15 40  1  0  0  0  0
 15 41  1  0  0  0  0
 16 17  2  0  0  0  0
 16 42  1  0  0  0  0
 17 43  1  0  0  0  0
 18 44  1  0  0  0  0
 18 45  1  0  0  0  0
 18 46  1  0  0  0  0
 19 21  1  0  0  0  0
 19 47  1  0  0  0  0
 20 48  1  0  0  0  0
 20 49  1  0  0  0  0
 20 50  1  0  0  0  0
 21 22  1  0  0  0  0
 21 51  1  0  0  0  0
 21 52  1  0  0  0  0
 22 24  1  0  0  0  0
 22 53  1  0  0  0  0
 23 25  1  0  0  0  0
 24 26  1  0  0  0  0
 24 54  1  0  0  0  0
 24 55  1  0  0  0  0
 25 27  1  0  0  0  0
 25 28  1  1  0  0  0
 25 56  1  0  0  0  0
 27 29  1  0  0  0  0
 27 57  1  0  0  0  0
 27 58  1  0  0  0  0
 28 60  1  0  0  0  0
 28 61  1  0  0  0  0
 28 62  1  0  0  0  0
 29 63  1  0  0  0  0
 29 64  1  0  0  0  0
 29 65  1  0  0  0  0
M  END
> <PUBCHEM_COMPOUND_CID>
53232

> <PUBCHEM_COMPOUND_CANONICALIZED>
1

> <PUBCHEM_CACTVS_COMPLEXITY>
666

> <PUBCHEM_CACTVS_HBOND_ACCEPTOR>
5

> <PUBCHEM_CACTVS_HBOND_DONOR>
1

> <PUBCHEM_CACTVS_ROTATABLE_BOND>
7

> <PUBCHEM_CACTVS_SUBSKEYS>
AAADcfB4OAAAAAAAAAAAAAAAAAAAAAAAAAAkQIAAAAAAAACAAAAAGgAACAAADRSggAICCAAABgCIAiDSCAAAAAAgAAAICAEAAAgIEBYAAQACQAAF4AAIgAOIzPDOgAAAAAAAAAAAAAAAAAAAAAAAAAAAAA==

> <PUBCHEM_IUPAC_OPENEYE_NAME>
[(1S,3R,7S,8S,8aR)-8-[2-[(2R,4R)-4-hydroxy-6-oxo-tetrahydropyran-2-yl]ethyl]-3,7-dimethyl-1,2,3,7,8,8a-hexahydronaphthalen-1-yl] (2S)-2-methylbutanoate

> <PUBCHEM_IUPAC_CAS_NAME>
(2S)-2-methylbutanoic acid [(1S,3R,7S,8S,8aR)-8-[2-[(2R,4R)-4-hydroxy-6-oxo-2-oxanyl]ethyl]-3,7-dimethyl-1,2,3,7,8,8a-hexahydronaphthalen-1-yl] ester

> <PUBCHEM_IUPAC_NAME>
[(1S,3R,7S,8S,8aR)-8-[2-[(2R,4R)-4-hydroxy-6-oxooxan-2-yl]ethyl]-3,7-dimethyl-1,2,3,7,8,8a-hexahydronaphthalen-1-yl] (2S)-2-methylbutanoate

> <PUBCHEM_IUPAC_SYSTEMATIC_NAME>
[(1S,3R,7S,8S,8aR)-3,7-dimethyl-8-[2-[(2R,4R)-4-oxidanyl-6-oxidanylidene-oxan-2-yl]ethyl]-1,2,3,7,8,8a-hexahydronaphthalen-1-yl] (2S)-2-methylbutanoate

> <PUBCHEM_IUPAC_TRADITIONAL_NAME>
(2S)-2-methylbutyric acid [(1S,3R,7S,8S,8aR)-8-[2-[(2R,4R)-4-hydroxy-6-keto-tetrahydropyran-2-yl]ethyl]-3,7-dimethyl-1,2,3,7,8,8a-hexahydronaphthalen-1-yl] ester

> <PUBCHEM_IUPAC_INCHI>
InChI=1S/C24H36O5/c1-5-15(3)24(27)29-21-11-14(2)10-17-7-6-16(4)20(23(17)21)9-8-19-12-18(25)13-22(26)28-19/h6-7,10,14-16,18-21,23,25H,5,8-9,11-13H2,1-4H3/t14-,15-,16-,18+,19+,20-,21-,23-/m0/s1

> <PUBCHEM_IUPAC_INCHIKEY>
PCZOHLXUXFIOCF-BXMDZJJMSA-N

> <PUBCHEM_XLOGP3>
4.3

> <PUBCHEM_EXACT_MASS>
404.256274

> <PUBCHEM_MOLECULAR_FORMULA>
C24H36O5

> <PUBCHEM_MOLECULAR_WEIGHT>
404.53964

> <PUBCHEM_OPENEYE_CAN_SMILES>
CCC(C)C(=O)OC1CC(C=C2C1C(C(C=C2)C)CCC3CC(CC(=O)O3)O)C

> <PUBCHEM_OPENEYE_ISO_SMILES>
CC[C@H](C)C(=O)O[C@H]1C[C@H](C=C2[C@H]1[C@H]([C@H](C=C2)C)CC[C@@H]3C[C@H](CC(=O)O3)O)C

> <PUBCHEM_CACTVS_TPSA>
72.8

> <PUBCHEM_MONOISOTOPIC_WEIGHT>
404.256274

> <PUBCHEM_TOTAL_CHARGE>
0

> <PUBCHEM_HEAVY_ATOM_COUNT>
29

> <PUBCHEM_ATOM_DEF_STEREO_COUNT>
8

> <PUBCHEM_ATOM_UDEF_STEREO_COUNT>
0

> <PUBCHEM_BOND_DEF_STEREO_COUNT>
0

> <PUBCHEM_BOND_UDEF_STEREO_COUNT>
0

> <PUBCHEM_ISOTOPIC_ATOM_COUNT>
0

> <PUBCHEM_COMPONENT_COUNT>
1

> <PUBCHEM_CACTVS_TAUTO_COUNT>
2

> <PUBCHEM_COORDINATE_TYPE>
1
5
255

> <PUBCHEM_BONDANNOTATIONS>
8  1  5
13  20  5
19  15  5
25  28  5
22  3  6
6  30  6
7  11  6
9  18  6

$$$$

