443012
  -OEChem-07051213002D

 40 41  0     1  0  0  0  0  0999 V2000
   11.1108   -2.2197    0.0000 O   0  0  0  0  0  0  0  0  0  0  0  0
    5.4641   -1.9313    0.0000 O   0  0  0  0  0  0  0  0  0  0  0  0
    4.5981   -0.4313    0.0000 O   0  0  0  0  0  0  0  0  0  0  0  0
    8.3010    1.3537    0.0000 N   0  0  3  0  0  0  0  0  0  0  0  0
    8.7788   -0.5949    0.0000 C   0  0  3  0  0  0  0  0  0  0  0  0
    9.0376    0.3711    0.0000 C   0  0  3  0  0  0  0  0  0  0  0  0
   10.6108   -1.3537    0.0000 C   0  0  1  0  0  0  0  0  0  0  0  0
   10.8696   -0.3878    0.0000 C   0  0  0  0  0  0  0  0  0  0  0  0
    7.2437   -1.8380    0.0000 C   0  0  0  0  0  0  0  0  0  0  0  0
    6.4347   -0.4367    0.0000 C   0  0  0  0  0  0  0  0  0  0  0  0
    6.3301   -1.4313    0.0000 C   0  0  1  0  0  0  0  0  0  0  0  0
    7.8010    2.2197    0.0000 C   0  0  0  0  0  0  0  0  0  0  0  0
    4.5981   -1.4313    0.0000 C   0  0  0  0  0  0  0  0  0  0  0  0
    3.7320   -1.9313    0.0000 C   0  0  0  0  0  0  0  0  0  0  0  0
    2.8660   -1.4313    0.0000 C   0  0  0  0  0  0  0  0  0  0  0  0
    2.0000   -1.9313    0.0000 C   0  0  0  0  0  0  0  0  0  0  0  0
    2.8660   -0.4313    0.0000 C   0  0  0  0  0  0  0  0  0  0  0  0
    8.9008   -1.4361    0.0000 H   0  0  0  0  0  0  0  0  0  0  0  0
    8.9986   -0.4780    0.0000 H   0  0  0  0  0  0  0  0  0  0  0  0
   10.2020   -1.8198    0.0000 H   0  0  0  0  0  0  0  0  0  0  0  0
   11.4609   -0.5742    0.0000 H   0  0  0  0  0  0  0  0  0  0  0  0
   11.0817    0.1949    0.0000 H   0  0  0  0  0  0  0  0  0  0  0  0
    6.9060   -2.3580    0.0000 H   0  0  0  0  0  0  0  0  0  0  0  0
    7.7044   -2.2529    0.0000 H   0  0  0  0  0  0  0  0  0  0  0  0
    6.3324    0.1748    0.0000 H   0  0  0  0  0  0  0  0  0  0  0  0
    5.8149   -0.4556    0.0000 H   0  0  0  0  0  0  0  0  0  0  0  0
    5.8102   -1.0936    0.0000 H   0  0  0  0  0  0  0  0  0  0  0  0
    8.3380    2.5297    0.0000 H   0  0  0  0  0  0  0  0  0  0  0  0
    7.4910    2.7566    0.0000 H   0  0  0  0  0  0  0  0  0  0  0  0
    7.2641    1.9097    0.0000 H   0  0  0  0  0  0  0  0  0  0  0  0
   11.7308   -2.2197    0.0000 H   0  0  0  0  0  0  0  0  0  0  0  0
    3.3335   -2.4062    0.0000 H   0  0  0  0  0  0  0  0  0  0  0  0
    4.1306   -2.4062    0.0000 H   0  0  0  0  0  0  0  0  0  0  0  0
    2.8660   -2.0513    0.0000 H   0  0  0  0  0  0  0  0  0  0  0  0
    1.6900   -1.3943    0.0000 H   0  0  0  0  0  0  0  0  0  0  0  0
    1.4631   -2.2413    0.0000 H   0  0  0  0  0  0  0  0  0  0  0  0
    2.3100   -2.4682    0.0000 H   0  0  0  0  0  0  0  0  0  0  0  0
    3.4860   -0.4313    0.0000 H   0  0  0  0  0  0  0  0  0  0  0  0
    2.8660    0.1887    0.0000 H   0  0  0  0  0  0  0  0  0  0  0  0
    2.2460   -0.4313    0.0000 H   0  0  0  0  0  0  0  0  0  0  0  0
  7  1  1  1  0  0  0
  1 31  1  0  0  0  0
 11  2  1  6  0  0  0
  2 13  1  0  0  0  0
  3 13  2  0  0  0  0
  4  5  1  0  0  0  0
  4  6  1  0  0  0  0
  4 12  1  0  0  0  0
  5  7  1  0  0  0  0
  5  9  1  0  0  0  0
  5 18  1  0  0  0  0
  6  8  1  0  0  0  0
  6 10  1  0  0  0  0
  6 19  1  0  0  0  0
  7  8  1  0  0  0  0
  7 20  1  0  0  0  0
  8 21  1  0  0  0  0
  8 22  1  0  0  0  0
  9 11  1  0  0  0  0
  9 23  1  0  0  0  0
  9 24  1  0  0  0  0
 10 11  1  0  0  0  0
 10 25  1  0  0  0  0
 10 26  1  0  0  0  0
 11 27  1  0  0  0  0
 12 28  1  0  0  0  0
 12 29  1  0  0  0  0
 12 30  1  0  0  0  0
 13 14  1  0  0  0  0
 14 15  1  0  0  0  0
 14 32  1  0  0  0  0
 14 33  1  0  0  0  0
 15 16  1  0  0  0  0
 15 17  1  0  0  0  0
 15 34  1  0  0  0  0
 16 35  1  0  0  0  0
 16 36  1  0  0  0  0
 16 37  1  0  0  0  0
 17 38  1  0  0  0  0
 17 39  1  0  0  0  0
 17 40  1  0  0  0  0
M  END
> <PUBCHEM_COMPOUND_CID>
443012

> <PUBCHEM_COMPOUND_CANONICALIZED>
1

> <PUBCHEM_CACTVS_COMPLEXITY>
292

> <PUBCHEM_CACTVS_HBOND_ACCEPTOR>
4

> <PUBCHEM_CACTVS_HBOND_DONOR>
1

> <PUBCHEM_CACTVS_ROTATABLE_BOND>
4

> <PUBCHEM_CACTVS_SUBSKEYS>
AAADceByMAAAAAAAAAAAAAAAAAAAAWAAAAAsAAAABgAAAAAAAAAAHgAACAAADTzhgAYCCAMABgAIAACQCAAAAAAAAAAAAAEIAAACEBIAgAAGQAAGAACQAAHQ4CwIAAAAAAAAAAAAAAAAAAAAAAAAAAAAAA==

> <PUBCHEM_IUPAC_OPENEYE_NAME>
[(3R,6R)-6-hydroxy-8-methyl-8-azabicyclo[3.2.1]octan-3-yl] 3-methylbutanoate

> <PUBCHEM_IUPAC_CAS_NAME>
3-methylbutanoic acid [(3R,6R)-6-hydroxy-8-methyl-8-azabicyclo[3.2.1]octan-3-yl] ester

> <PUBCHEM_IUPAC_NAME>
[(3R,6R)-6-hydroxy-8-methyl-8-azabicyclo[3.2.1]octan-3-yl] 3-methylbutanoate

> <PUBCHEM_IUPAC_SYSTEMATIC_NAME>
[(3R,6R)-8-methyl-6-oxidanyl-8-azabicyclo[3.2.1]octan-3-yl] 3-methylbutanoate

> <PUBCHEM_IUPAC_TRADITIONAL_NAME>
3-methylbutyric acid [(3R,6R)-6-hydroxy-8-methyl-8-azabicyclo[3.2.1]octan-3-yl] ester

> <PUBCHEM_IUPAC_INCHI>
InChI=1S/C13H23NO3/c1-8(2)4-13(16)17-10-5-9-6-12(15)11(7-10)14(9)3/h8-12,15H,4-7H2,1-3H3/t9?,10-,11?,12-/m1/s1

> <PUBCHEM_IUPAC_INCHIKEY>
APLLVFVOTXZBFO-RUJICJSRSA-N

> <PUBCHEM_XLOGP3_AA>
1.6

> <PUBCHEM_EXACT_MASS>
241.167794

> <PUBCHEM_MOLECULAR_FORMULA>
C13H23NO3

> <PUBCHEM_MOLECULAR_WEIGHT>
241.32662

> <PUBCHEM_OPENEYE_CAN_SMILES>
CC(C)CC(=O)OC1CC2CC(C(C1)N2C)O

> <PUBCHEM_OPENEYE_ISO_SMILES>
CC(C)CC(=O)O[C@@H]1CC2C[C@H](C(C1)N2C)O

> <PUBCHEM_CACTVS_TPSA>
49.8

> <PUBCHEM_MONOISOTOPIC_WEIGHT>
241.167794

> <PUBCHEM_TOTAL_CHARGE>
0

> <PUBCHEM_HEAVY_ATOM_COUNT>
17

> <PUBCHEM_ATOM_DEF_STEREO_COUNT>
2

> <PUBCHEM_ATOM_UDEF_STEREO_COUNT>
2

> <PUBCHEM_BOND_DEF_STEREO_COUNT>
0

> <PUBCHEM_BOND_UDEF_STEREO_COUNT>
0

> <PUBCHEM_ISOTOPIC_ATOM_COUNT>
0

> <PUBCHEM_COMPONENT_COUNT>
1

> <PUBCHEM_CACTVS_TAUTO_COUNT>
1

> <PUBCHEM_COORDINATE_TYPE>
1
5
255

> <PUBCHEM_BONDANNOTATIONS>
7  1  5
11  2  6
5  18  3
6  19  3

$$$$

