23675786
  -OEChem-07051213042D

 50 51  0     1  0  0  0  0  0999 V2000
    3.2221    2.9668    0.0000 Cl  0  0  0  0  0  0  0  0  0  0  0  0
    1.3414    5.8760    0.0000 Cl  0  0  0  0  0  0  0  0  0  0  0  0
    8.4466    4.2633    0.0000 S   0  0  0  0  0  0  0  0  0  0  0  0
    8.3955    0.0000    0.0000 Na  0  3  0  0  0  0  0  0  0  0  0  0
    5.7816    2.2416    0.0000 O   0  0  0  0  0  0  0  0  0  0  0  0
    8.0865    0.9511    0.0000 O   0  5  0  0  0  0  0  0  0  0  0  0
    9.7338    1.4863    0.0000 O   0  0  0  0  0  0  0  0  0  0  0  0
    4.5544    3.4448    0.0000 O   0  0  0  0  0  0  0  0  0  0  0  0
    3.3779    6.5619    0.0000 O   0  0  0  0  0  0  0  0  0  0  0  0
    5.1725    9.1127    0.0000 O   0  0  0  0  0  0  0  0  0  0  0  0
    7.4956    2.9543    0.0000 N   0  0  0  0  0  0  0  0  0  0  0  0
    5.7816    4.6670    0.0000 N   0  0  0  0  0  0  0  0  0  0  0  0
    2.6693    5.8562    0.0000 N   0  0  0  0  0  0  0  0  0  0  0  0
    7.4956    3.9543    0.0000 C   0  0  1  0  0  0  0  0  0  0  0  0
    9.0344    3.4543    0.0000 C   0  0  0  0  0  0  0  0  0  0  0  0
    8.4466    2.6453    0.0000 C   0  0  2  0  0  0  0  0  0  0  0  0
    6.4873    3.9584    0.0000 C   0  0  1  0  0  0  0  0  0  0  0  0
    6.4873    2.9501    0.0000 C   0  0  0  0  0  0  0  0  0  0  0  0
    9.8434    4.0421    0.0000 C   0  0  0  0  0  0  0  0  0  0  0  0
    9.8434    2.8665    0.0000 C   0  0  0  0  0  0  0  0  0  0  0  0
    8.7556    1.6942    0.0000 C   0  0  0  0  0  0  0  0  0  0  0  0
    4.8152    4.4101    0.0000 C   0  0  0  0  0  0  0  0  0  0  0  0
    4.1095    5.1187    0.0000 C   0  0  0  0  0  0  0  0  0  0  0  0
    3.1215    4.9643    0.0000 C   0  0  0  0  0  0  0  0  0  0  0  0
    4.2680    6.1061    0.0000 C   0  0  0  0  0  0  0  0  0  0  0  0
    2.2817    4.4214    0.0000 C   0  0  0  0  0  0  0  0  0  0  0  0
    5.1599    6.5582    0.0000 C   0  0  0  0  0  0  0  0  0  0  0  0
    2.3320    3.4226    0.0000 C   0  0  0  0  0  0  0  0  0  0  0  0
    1.3916    4.8772    0.0000 C   0  0  0  0  0  0  0  0  0  0  0  0
    1.4923    2.8797    0.0000 C   0  0  0  0  0  0  0  0  0  0  0  0
    0.5519    4.3343    0.0000 C   0  0  0  0  0  0  0  0  0  0  0  0
    0.6022    3.3355    0.0000 C   0  0  0  0  0  0  0  0  0  0  0  0
    7.3643    4.7941    0.0000 H   0  0  0  0  0  0  0  0  0  0  0  0
    8.0082    2.2069    0.0000 H   0  0  0  0  0  0  0  0  0  0  0  0
    6.7263    4.5305    0.0000 H   0  0  0  0  0  0  0  0  0  0  0  0
    9.4790    2.3649    0.0000 H   0  0  0  0  0  0  0  0  0  0  0  0
   10.3450    2.5021    0.0000 H   0  0  0  0  0  0  0  0  0  0  0  0
   10.2078    3.3681    0.0000 H   0  0  0  0  0  0  0  0  0  0  0  0
   10.2078    3.5405    0.0000 H   0  0  0  0  0  0  0  0  0  0  0  0
   10.3450    4.4065    0.0000 H   0  0  0  0  0  0  0  0  0  0  0  0
    9.4790    4.5437    0.0000 H   0  0  0  0  0  0  0  0  0  0  0  0
    5.9433    5.2655    0.0000 H   0  0  0  0  0  0  0  0  0  0  0  0
    5.4402    6.0052    0.0000 H   0  0  0  0  0  0  0  0  0  0  0  0
    5.7129    6.8386    0.0000 H   0  0  0  0  0  0  0  0  0  0  0  0
    4.8796    7.1112    0.0000 H   0  0  0  0  0  0  0  0  0  0  0  0
    1.5235    2.2605    0.0000 H   0  0  0  0  0  0  0  0  0  0  0  0
    0.0000    4.6169    0.0000 H   0  0  0  0  0  0  0  0  0  0  0  0
    0.0815    2.9989    0.0000 H   0  0  0  0  0  0  0  0  0  0  0  0
    5.7094    9.4227    0.0000 H   0  0  0  0  0  0  0  0  0  0  0  0
    4.6356    9.4227    0.0000 H   0  0  0  0  0  0  0  0  0  0  0  0
  1 28  1  0  0  0  0
  2 29  1  0  0  0  0
  3 14  1  0  0  0  0
  3 15  1  0  0  0  0
  5 18  2  0  0  0  0
  6 21  1  0  0  0  0
  7 21  2  0  0  0  0
  8 22  2  0  0  0  0
  9 13  1  0  0  0  0
  9 25  1  0  0  0  0
 10 49  1  0  0  0  0
 10 50  1  0  0  0  0
 11 14  1  0  0  0  0
 11 16  1  0  0  0  0
 11 18  1  0  0  0  0
 17 12  1  1  0  0  0
 12 22  1  0  0  0  0
 12 42  1  0  0  0  0
 13 24  2  0  0  0  0
 14 17  1  0  0  0  0
 14 33  1  6  0  0  0
 15 16  1  0  0  0  0
 15 19  1  0  0  0  0
 15 20  1  0  0  0  0
 16 21  1  6  0  0  0
 16 34  1  0  0  0  0
 17 18  1  0  0  0  0
 17 35  1  0  0  0  0
 19 39  1  0  0  0  0
 19 40  1  0  0  0  0
 19 41  1  0  0  0  0
 20 36  1  0  0  0  0
 20 37  1  0  0  0  0
 20 38  1  0  0  0  0
 22 23  1  0  0  0  0
 23 24  1  0  0  0  0
 23 25  2  0  0  0  0
 24 26  1  0  0  0  0
 25 27  1  0  0  0  0
 26 28  2  0  0  0  0
 26 29  1  0  0  0  0
 27 43  1  0  0  0  0
 27 44  1  0  0  0  0
 27 45  1  0  0  0  0
 28 30  1  0  0  0  0
 29 31  2  0  0  0  0
 30 32  2  0  0  0  0
 30 46  1  0  0  0  0
 31 32  1  0  0  0  0
 31 47  1  0  0  0  0
 32 48  1  0  0  0  0
M  CHG  2   4   1   6  -1
M  END
> <PUBCHEM_COMPOUND_CID>
23675786

> <PUBCHEM_COMPOUND_CANONICALIZED>
1

> <PUBCHEM_CACTVS_COMPLEXITY>
752

> <PUBCHEM_CACTVS_HBOND_ACCEPTOR>
8

> <PUBCHEM_CACTVS_HBOND_DONOR>
2

> <PUBCHEM_CACTVS_ROTATABLE_BOND>
4

> <PUBCHEM_CACTVS_SUBSKEYS>
AAADceB7OCBGAAAAAAAAAAAAAABYAWLAAAAwAAAABYAAAAABwAAAHgYUCAAADC7F3iSyjJPQAAipA6XyWgCCAABkJRAomKGsTtoKZj6p07OUMchmthi4yUeYyOCOAAAAAACBAAAAAAAAAQIAAAAAAAAAAA==

> <PUBCHEM_IUPAC_OPENEYE_NAME>
sodium (2S,5R,6R)-6-[[3-(2,6-dichlorophenyl)-5-methyl-isoxazole-4-carbonyl]amino]-3,3-dimethyl-7-oxo-4-thia-1-azabicyclo[3.2.0]heptane-2-carboxylate hydrate

> <PUBCHEM_IUPAC_CAS_NAME>
sodium (2S,5R,6R)-6-[[[3-(2,6-dichlorophenyl)-5-methyl-4-isoxazolyl]-oxomethyl]amino]-3,3-dimethyl-7-oxo-4-thia-1-azabicyclo[3.2.0]heptane-2-carboxylate hydrate

> <PUBCHEM_IUPAC_NAME>
sodium (2S,5R,6R)-6-[[3-(2,6-dichlorophenyl)-5-methyl-1,2-oxazole-4-carbonyl]amino]-3,3-dimethyl-7-oxo-4-thia-1-azabicyclo[3.2.0]heptane-2-carboxylate hydrate

> <PUBCHEM_IUPAC_SYSTEMATIC_NAME>
sodium (2S,5R,6R)-6-[[3-[2,6-bis(chloranyl)phenyl]-5-methyl-1,2-oxazol-4-yl]carbonylamino]-3,3-dimethyl-7-oxidanylidene-4-thia-1-azabicyclo[3.2.0]heptane-2-carboxylate hydrate

> <PUBCHEM_IUPAC_TRADITIONAL_NAME>
sodium (2S,5R,6R)-6-[[3-(2,6-dichlorophenyl)-5-methyl-isoxazole-4-carbonyl]amino]-7-keto-3,3-dimethyl-4-thia-1-azabicyclo[3.2.0]heptane-2-carboxylate hydrate

> <PUBCHEM_IUPAC_INCHI>
InChI=1S/C19H17Cl2N3O5S.Na.H2O/c1-7-10(12(23-29-7)11-8(20)5-4-6-9(11)21)15(25)22-13-16(26)24-14(18(27)28)19(2,3)30-17(13)24;;/h4-6,13-14,17H,1-3H3,(H,22,25)(H,27,28);;1H2/q;+1;/p-1/t13-,14+,17-;;/m1../s1

> <PUBCHEM_IUPAC_INCHIKEY>
SIGZQNJITOWQEF-VICXVTCVSA-M

> <PUBCHEM_EXACT_MASS>
509.019106

> <PUBCHEM_MOLECULAR_FORMULA>
C19H18Cl2N3NaO6S

> <PUBCHEM_MOLECULAR_WEIGHT>
510.323489

> <PUBCHEM_OPENEYE_CAN_SMILES>
CC1=C(C(=NO1)C2=C(C=CC=C2Cl)Cl)C(=O)NC3C4N(C3=O)C(C(S4)(C)C)C(=O)[O-].O.[Na+]

> <PUBCHEM_OPENEYE_ISO_SMILES>
CC1=C(C(=NO1)C2=C(C=CC=C2Cl)Cl)C(=O)N[C@H]3[C@@H]4N(C3=O)[C@H](C(S4)(C)C)C(=O)[O-].O.[Na+]

> <PUBCHEM_CACTVS_TPSA>
142

> <PUBCHEM_MONOISOTOPIC_WEIGHT>
509.019106

> <PUBCHEM_TOTAL_CHARGE>
0

> <PUBCHEM_HEAVY_ATOM_COUNT>
32

> <PUBCHEM_ATOM_DEF_STEREO_COUNT>
3

> <PUBCHEM_ATOM_UDEF_STEREO_COUNT>
0

> <PUBCHEM_BOND_DEF_STEREO_COUNT>
0

> <PUBCHEM_BOND_UDEF_STEREO_COUNT>
0

> <PUBCHEM_ISOTOPIC_ATOM_COUNT>
0

> <PUBCHEM_COMPONENT_COUNT>
3

> <PUBCHEM_CACTVS_TAUTO_COUNT>
4

> <PUBCHEM_NONSTANDARDBOND>
4  6  7

> <PUBCHEM_COORDINATE_TYPE>
1
5
255

> <PUBCHEM_BONDANNOTATIONS>
17  12  5
13  24  8
14  33  6
16  21  6
23  24  8
23  25  8
26  28  8
26  29  8
28  30  8
29  31  8
30  32  8
31  32  8
9  13  8
9  25  8

$$$$

