5281013
  -OEChem-07051212523D

 20 19  0     0  0  0  0  0  0999 V2000
    2.1276   -1.6608   -0.0008 O   0  0  0  0  0  0  0  0  0  0  0  0
    4.4813   -0.4744   -0.0017 O   0  0  0  0  0  0  0  0  0  0  0  0
   -2.9314   -1.3540   -0.0002 O   0  0  0  0  0  0  0  0  0  0  0  0
    3.5776    1.6094   -0.0011 O   0  0  0  0  0  0  0  0  0  0  0  0
    0.9691    0.4154    0.0014 C   0  0  0  0  0  0  0  0  0  0  0  0
   -0.3506   -0.1868    0.0013 C   0  0  0  0  0  0  0  0  0  0  0  0
   -1.4769    0.5407    0.0012 C   0  0  0  0  0  0  0  0  0  0  0  0
    2.1209   -0.2776    0.0016 C   0  0  0  0  0  0  0  0  0  0  0  0
   -2.8019   -0.1363    0.0004 C   0  0  0  0  0  0  0  0  0  0  0  0
    3.4455    0.3935    0.0002 C   0  0  0  0  0  0  0  0  0  0  0  0
   -3.9551    0.8007   -0.0011 C   0  0  0  0  0  0  0  0  0  0  0  0
   -5.2060    0.3302   -0.0012 C   0  0  0  0  0  0  0  0  0  0  0  0
    0.9996    1.5030    0.0018 H   0  0  0  0  0  0  0  0  0  0  0  0
   -0.4415   -1.2662    0.0010 H   0  0  0  0  0  0  0  0  0  0  0  0
   -1.4490    1.6257    0.0013 H   0  0  0  0  0  0  0  0  0  0  0  0
   -3.7734    1.8697   -0.0018 H   0  0  0  0  0  0  0  0  0  0  0  0
    1.2334   -2.0272    0.0018 H   0  0  0  0  0  0  0  0  0  0  0  0
   -6.0444    1.0190   -0.0021 H   0  0  0  0  0  0  0  0  0  0  0  0
   -5.4313   -0.7305   -0.0005 H   0  0  0  0  0  0  0  0  0  0  0  0
    5.3475   -0.0139   -0.0035 H   0  0  0  0  0  0  0  0  0  0  0  0
  1  8  1  0  0  0  0
  1 17  1  0  0  0  0
  2 10  1  0  0  0  0
  2 20  1  0  0  0  0
  3  9  2  0  0  0  0
  4 10  2  0  0  0  0
  5  6  1  0  0  0  0
  5  8  2  0  0  0  0
  5 13  1  0  0  0  0
  6  7  2  0  0  0  0
  6 14  1  0  0  0  0
  7  9  1  0  0  0  0
  7 15  1  0  0  0  0
  8 10  1  0  0  0  0
  9 11  1  0  0  0  0
 11 12  2  0  0  0  0
 11 16  1  0  0  0  0
 12 18  1  0  0  0  0
 12 19  1  0  0  0  0
M  END
> <PUBCHEM_COMPOUND_CID>
5281013

> <PUBCHEM_CONFORMER_RMSD>
0.6

> <PUBCHEM_CONFORMER_DIVERSEORDER>
1
8
9
11
16
5
23
14
20
6
3
22
19
21
7
10
4
15
12
18
13
17
2

> <PUBCHEM_MMFF94_PARTIAL_CHARGES>
20
1 -0.53
10 0.71
11 -0.14
12 -0.3
13 0.15
14 0.15
15 0.15
16 0.15
17 0.45
18 0.15
19 0.15
2 -0.65
20 0.5
3 -0.57
4 -0.57
5 -0.15
6 -0.15
7 -0.14
8 0.09
9 0.54

> <PUBCHEM_EFFECTIVE_ROTOR_COUNT>
4

> <PUBCHEM_PHARMACOPHORE_FEATURES>
6
1 1 donor
1 12 hydrophobe
1 2 acceptor
1 3 acceptor
1 4 acceptor
3 2 4 10 anion

> <PUBCHEM_HEAVY_ATOM_COUNT>
12

> <PUBCHEM_ATOM_DEF_STEREO_COUNT>
0

> <PUBCHEM_ATOM_UDEF_STEREO_COUNT>
0

> <PUBCHEM_BOND_DEF_STEREO_COUNT>
2

> <PUBCHEM_BOND_UDEF_STEREO_COUNT>
0

> <PUBCHEM_ISOTOPIC_ATOM_COUNT>
0

> <PUBCHEM_COMPONENT_COUNT>
1

> <PUBCHEM_CACTVS_TAUTO_COUNT>
4

> <PUBCHEM_CONFORMER_ID>
005094F500000001

> <PUBCHEM_MMFF94_ENERGY>
23.3679

> <PUBCHEM_FEATURE_SELFOVERLAP>
30.504

> <PUBCHEM_SHAPE_FINGERPRINT>
10014705 185 18272375257009063413
11062470 55 18411136939716409313
11471102 20 18408605859665052548
14123238 8 17989767796000763605
14325111 11 18410855447248567138
14415576 193 18412259528256441868
14445660 50 18408315588727019753
15242433 33 18410011048346890263
17834072 33 18260834761304181373
17834076 25 18343863320533545021
18186145 218 17917437509819672964
190213 19 17458059361370117456
20279233 1 18343293782306221403
20645477 56 18130790088059297853
20645477 70 18262799691182840503
20719005 15 18410855464723854913
22485316 2 18410577284018819247
23402539 116 17703798006654160878
23402655 69 18334574633612474292
23557571 272 17417813997203624052
42788 4 18410856573226441349
449060 50 18413106156589030181
77779 3 18410291410937406315

> <PUBCHEM_SHAPE_MULTIPOLES>
223.48
10.04
1.21
0.58
3.2
0.15
0
-1.27
-0.01
-0.55
0
0.07
-0.02
0

> <PUBCHEM_SHAPE_SELFOVERLAP>
439.006

> <PUBCHEM_SHAPE_VOLUME>
132

> <PUBCHEM_COORDINATE_TYPE>
2
5
10

$$$$

