4322
  -OEChem-06261200022D

 62 65  0     1  0  0  0  0  0999 V2000
    7.7331    1.3450    0.0000 F   0  0  0  0  0  0  0  0  0  0  0  0
    4.2690    1.3450    0.0000 F   0  0  0  0  0  0  0  0  0  0  0  0
    7.7331   -0.6550    0.0000 O   0  0  0  0  0  0  0  0  0  0  0  0
    4.2690   -0.6550    0.0000 O   0  0  0  0  0  0  0  0  0  0  0  0
    7.7331    4.3450    0.0000 O   0  0  0  0  0  0  0  0  0  0  0  0
    2.5369   -1.6550    0.0000 O   0  0  0  0  0  0  0  0  0  0  0  0
    6.0010    4.3450    0.0000 O   0  0  0  0  0  0  0  0  0  0  0  0
   11.3017   -1.6495    0.0000 N   0  0  0  0  0  0  0  0  0  0  0  0
   12.1107   -0.2483    0.0000 N   0  0  0  0  0  0  0  0  0  0  0  0
    6.0010    2.3450    0.0000 N   0  0  3  0  0  0  0  0  0  0  0  0
    6.0010   -0.6550    0.0000 N   0  0  0  0  0  0  0  0  0  0  0  0
    6.0010   -4.6550    0.0000 N   0  0  0  0  0  0  0  0  0  0  0  0
    6.8671   -3.1550    0.0000 N   0  0  0  0  0  0  0  0  0  0  0  0
   12.2799   -1.8574    0.0000 C   0  0  0  0  0  0  0  0  0  0  0  0
   11.1972   -0.6550    0.0000 C   0  0  0  0  0  0  0  0  0  0  0  0
   12.7799   -0.9914    0.0000 C   0  0  0  0  0  0  0  0  0  0  0  0
   10.3312   -0.1550    0.0000 C   0  0  0  0  0  0  0  0  0  0  0  0
   10.5586   -2.3187    0.0000 C   0  0  0  0  0  0  0  0  0  0  0  0
    9.4651   -0.6550    0.0000 C   0  0  0  0  0  0  0  0  0  0  0  0
   10.3312    0.8450    0.0000 C   0  0  0  0  0  0  0  0  0  0  0  0
    8.5991   -0.1550    0.0000 C   0  0  0  0  0  0  0  0  0  0  0  0
    6.0010    1.3450    0.0000 C   0  0  0  0  0  0  0  0  0  0  0  0
    9.4651    1.3450    0.0000 C   0  0  0  0  0  0  0  0  0  0  0  0
    8.5991    0.8450    0.0000 C   0  0  0  0  0  0  0  0  0  0  0  0
    6.8671   -0.1550    0.0000 C   0  0  0  0  0  0  0  0  0  0  0  0
    6.8671    0.8450    0.0000 C   0  0  0  0  0  0  0  0  0  0  0  0
    5.1350    0.8450    0.0000 C   0  0  0  0  0  0  0  0  0  0  0  0
    6.8671    2.8450    0.0000 C   0  0  0  0  0  0  0  0  0  0  0  0
    5.1350   -0.1550    0.0000 C   0  0  0  0  0  0  0  0  0  0  0  0
    5.1350    2.8450    0.0000 C   0  0  0  0  0  0  0  0  0  0  0  0
    4.2690   -1.6550    0.0000 C   0  0  0  0  0  0  0  0  0  0  0  0
    6.8671    3.8450    0.0000 C   0  0  0  0  0  0  0  0  0  0  0  0
    5.1350   -2.1550    0.0000 C   0  0  0  0  0  0  0  0  0  0  0  0
    3.4030   -2.1550    0.0000 C   0  0  0  0  0  0  0  0  0  0  0  0
    5.1350   -3.1550    0.0000 C   0  0  0  0  0  0  0  0  0  0  0  0
    3.4030   -3.1550    0.0000 C   0  0  0  0  0  0  0  0  0  0  0  0
    4.2690   -3.6550    0.0000 C   0  0  0  0  0  0  0  0  0  0  0  0
    6.0010   -3.6550    0.0000 C   0  0  0  0  0  0  0  0  0  0  0  0
   12.0883   -2.4471    0.0000 H   0  0  0  0  0  0  0  0  0  0  0  0
   12.8463   -2.1096    0.0000 H   0  0  0  0  0  0  0  0  0  0  0  0
   13.2815   -1.3558    0.0000 H   0  0  0  0  0  0  0  0  0  0  0  0
   13.1947   -0.5307    0.0000 H   0  0  0  0  0  0  0  0  0  0  0  0
   10.1437   -1.8579    0.0000 H   0  0  0  0  0  0  0  0  0  0  0  0
   10.0978   -2.7335    0.0000 H   0  0  0  0  0  0  0  0  0  0  0  0
   10.9734   -2.7794    0.0000 H   0  0  0  0  0  0  0  0  0  0  0  0
    9.4651   -1.2750    0.0000 H   0  0  0  0  0  0  0  0  0  0  0  0
   10.8681    1.1550    0.0000 H   0  0  0  0  0  0  0  0  0  0  0  0
    9.4651    1.9650    0.0000 H   0  0  0  0  0  0  0  0  0  0  0  0
    8.0622    1.1550    0.0000 H   0  0  0  0  0  0  0  0  0  0  0  0
    7.0791    2.2624    0.0000 H   0  0  0  0  0  0  0  0  0  0  0  0
    7.4776    2.9527    0.0000 H   0  0  0  0  0  0  0  0  0  0  0  0
    5.4450    3.3819    0.0000 H   0  0  0  0  0  0  0  0  0  0  0  0
    4.5981    3.1550    0.0000 H   0  0  0  0  0  0  0  0  0  0  0  0
    4.8250    2.3081    0.0000 H   0  0  0  0  0  0  0  0  0  0  0  0
    5.6719   -1.8450    0.0000 H   0  0  0  0  0  0  0  0  0  0  0  0
    2.8660   -3.4650    0.0000 H   0  0  0  0  0  0  0  0  0  0  0  0
    4.2690   -4.2750    0.0000 H   0  0  0  0  0  0  0  0  0  0  0  0
    7.7331    4.9650    0.0000 H   0  0  0  0  0  0  0  0  0  0  0  0
    2.0000   -1.9650    0.0000 H   0  0  0  0  0  0  0  0  0  0  0  0
    5.4641   -4.9650    0.0000 H   0  0  0  0  0  0  0  0  0  0  0  0
    6.5380   -4.9650    0.0000 H   0  0  0  0  0  0  0  0  0  0  0  0
    7.4040   -3.4650    0.0000 H   0  0  0  0  0  0  0  0  0  0  0  0
  1 26  1  0  0  0  0
  2 27  1  0  0  0  0
  3 21  1  0  0  0  0
  3 25  1  0  0  0  0
  4 29  1  0  0  0  0
  4 31  1  0  0  0  0
  5 32  1  0  0  0  0
  5 58  1  0  0  0  0
  6 34  1  0  0  0  0
  6 59  1  0  0  0  0
  7 32  2  0  0  0  0
  8 14  1  0  0  0  0
  8 15  1  0  0  0  0
  8 18  1  0  0  0  0
  9 15  2  0  0  0  0
  9 16  1  0  0  0  0
 10 22  1  0  0  0  0
 10 28  1  0  0  0  0
 10 30  1  0  0  0  0
 11 25  2  0  0  0  0
 11 29  1  0  0  0  0
 12 38  1  0  0  0  0
 12 60  1  0  0  0  0
 12 61  1  0  0  0  0
 13 38  2  0  0  0  0
 13 62  1  0  0  0  0
 14 16  1  0  0  0  0
 14 39  1  0  0  0  0
 14 40  1  0  0  0  0
 15 17  1  0  0  0  0
 16 41  1  0  0  0  0
 16 42  1  0  0  0  0
 17 19  2  0  0  0  0
 17 20  1  0  0  0  0
 18 43  1  0  0  0  0
 18 44  1  0  0  0  0
 18 45  1  0  0  0  0
 19 21  1  0  0  0  0
 19 46  1  0  0  0  0
 20 23  2  0  0  0  0
 20 47  1  0  0  0  0
 21 24  2  0  0  0  0
 22 26  2  0  0  0  0
 22 27  1  0  0  0  0
 23 24  1  0  0  0  0
 23 48  1  0  0  0  0
 24 49  1  0  0  0  0
 25 26  1  0  0  0  0
 27 29  2  0  0  0  0
 28 32  1  0  0  0  0
 28 50  1  0  0  0  0
 28 51  1  0  0  0  0
 30 52  1  0  0  0  0
 30 53  1  0  0  0  0
 30 54  1  0  0  0  0
 31 33  1  0  0  0  0
 31 34  2  0  0  0  0
 33 35  2  0  0  0  0
 33 55  1  0  0  0  0
 34 36  1  0  0  0  0
 35 37  1  0  0  0  0
 35 38  1  0  0  0  0
 36 37  2  0  0  0  0
 36 56  1  0  0  0  0
 37 57  1  0  0  0  0
M  END
> <PUBCHEM_COMPOUND_CID>
4322

> <PUBCHEM_COMPOUND_CANONICALIZED>
1

> <PUBCHEM_CACTVS_COMPLEXITY>
883

> <PUBCHEM_CACTVS_HBOND_ACCEPTOR>
11

> <PUBCHEM_CACTVS_HBOND_DONOR>
4

> <PUBCHEM_CACTVS_ROTATABLE_BOND>
9

> <PUBCHEM_CACTVS_SUBSKEYS>
AAADceB7uYAAAAAAAAAAAAAAAAAAAQAAAAA8YIAAAAAAAAAB0AAAHwAQCAAADAzBmgwzzpNIFgCoAibybACCiCGhICAJmCCuzJgPZuLG+fuefCvmwBnb+Aew8BgOIAABAAAAQABAAAIAAACAAAAAAAAAAA==

> <PUBCHEM_IUPAC_OPENEYE_NAME>
2-[[2-(5-carbamimidoyl-2-hydroxy-phenoxy)-3,5-difluoro-6-[3-(1-methyl-4,5-dihydroimidazol-2-yl)phenoxy]-4-pyridyl]-methyl-amino]acetic acid

> <PUBCHEM_IUPAC_CAS_NAME>
2-[[2-(5-carbamimidoyl-2-hydroxyphenoxy)-3,5-difluoro-6-[3-(1-methyl-4,5-dihydroimidazol-2-yl)phenoxy]-4-pyridinyl]-methylamino]acetic acid

> <PUBCHEM_IUPAC_NAME>
2-[[2-(5-carbamimidoyl-2-hydroxyphenoxy)-3,5-difluoro-6-[3-(1-methyl-4,5-dihydroimidazol-2-yl)phenoxy]pyridin-4-yl]-methylamino]acetic acid

> <PUBCHEM_IUPAC_SYSTEMATIC_NAME>
2-[[2-(5-carbamimidoyl-2-oxidanyl-phenoxy)-3,5-bis(fluoranyl)-6-[3-(1-methyl-4,5-dihydroimidazol-2-yl)phenoxy]pyridin-4-yl]-methyl-amino]ethanoic acid

> <PUBCHEM_IUPAC_TRADITIONAL_NAME>
2-[[2-(5-amidino-2-hydroxy-phenoxy)-3,5-difluoro-6-[3-(1-methyl-2-imidazolin-2-yl)phenoxy]-4-pyridyl]-methyl-amino]acetic acid

> <PUBCHEM_IUPAC_INCHI>
InChI=1S/C25H24F2N6O5/c1-32-9-8-30-23(32)14-4-3-5-15(10-14)37-24-19(26)21(33(2)12-18(35)36)20(27)25(31-24)38-17-11-13(22(28)29)6-7-16(17)34/h3-7,10-11,34H,8-9,12H2,1-2H3,(H3,28,29)(H,35,36)

> <PUBCHEM_IUPAC_INCHIKEY>
NPNSVNGQJGRSNR-UHFFFAOYSA-N

> <PUBCHEM_XLOGP3_AA>
2.2

> <PUBCHEM_EXACT_MASS>
526.177624

> <PUBCHEM_MOLECULAR_FORMULA>
C25H24F2N6O5

> <PUBCHEM_MOLECULAR_WEIGHT>
526.492066

> <PUBCHEM_OPENEYE_CAN_SMILES>
CN1CCN=C1C2=CC(=CC=C2)OC3=NC(=C(C(=C3F)N(C)CC(=O)O)F)OC4=C(C=CC(=C4)C(=N)N)O

> <PUBCHEM_OPENEYE_ISO_SMILES>
CN1CCN=C1C2=CC(=CC=C2)OC3=NC(=C(C(=C3F)N(C)CC(=O)O)F)OC4=C(C=CC(=C4)C(=N)N)O

> <PUBCHEM_CACTVS_TPSA>
158

> <PUBCHEM_MONOISOTOPIC_WEIGHT>
526.177624

> <PUBCHEM_TOTAL_CHARGE>
0

> <PUBCHEM_HEAVY_ATOM_COUNT>
38

> <PUBCHEM_ATOM_DEF_STEREO_COUNT>
0

> <PUBCHEM_ATOM_UDEF_STEREO_COUNT>
0

> <PUBCHEM_BOND_DEF_STEREO_COUNT>
0

> <PUBCHEM_BOND_UDEF_STEREO_COUNT>
0

> <PUBCHEM_ISOTOPIC_ATOM_COUNT>
0

> <PUBCHEM_COMPONENT_COUNT>
1

> <PUBCHEM_CACTVS_TAUTO_COUNT>
5

> <PUBCHEM_COORDINATE_TYPE>
1
5
255

> <PUBCHEM_BONDANNOTATIONS>
11  25  8
11  29  8
17  19  8
17  20  8
19  21  8
20  23  8
21  24  8
22  26  8
22  27  8
23  24  8
25  26  8
27  29  8
31  33  8
31  34  8
33  35  8
34  36  8
35  37  8
36  37  8

$$$$

