167683
  -OEChem-07051212573D

 36 38  0     1  0  0  0  0  0999 V2000
    1.7064    1.3125   -0.1145 O   0  0  0  0  0  0  0  0  0  0  0  0
    3.9850    1.3764   -0.3718 O   0  0  0  0  0  0  0  0  0  0  0  0
   -3.8947    0.2651   -0.7760 O   0  0  0  0  0  0  0  0  0  0  0  0
    1.4207   -0.9473    0.2069 C   0  0  2  0  0  0  0  0  0  0  0  0
    0.6932    0.3049   -0.2649 C   0  0  1  0  0  0  0  0  0  0  0  0
   -0.5697    0.6108    0.5553 C   0  0  2  0  0  0  0  0  0  0  0  0
    2.7871   -0.7489   -0.4422 C   0  0  1  0  0  0  0  0  0  0  0  0
    0.7273   -2.2555   -0.1478 C   0  0  0  0  0  0  0  0  0  0  0  0
   -1.7148   -0.3096    0.1666 C   0  0  0  0  0  0  0  0  0  0  0  0
   -0.5531   -2.4716    0.6649 C   0  0  0  0  0  0  0  0  0  0  0  0
   -1.7469   -1.6565    0.2052 C   0  0  0  0  0  0  0  0  0  0  0  0
   -1.1431    1.9908    0.3206 C   0  0  0  0  0  0  0  0  0  0  0  0
    2.9403    0.7477   -0.3085 C   0  0  0  0  0  0  0  0  0  0  0  0
    3.9048   -1.5025    0.2575 C   0  0  0  0  0  0  0  0  0  0  0  0
   -2.8149    0.5833   -0.3148 C   0  0  0  0  0  0  0  0  0  0  0  0
   -2.3893    1.9810   -0.1626 C   0  0  0  0  0  0  0  0  0  0  0  0
   -2.9296   -2.5149   -0.1668 C   0  0  0  0  0  0  0  0  0  0  0  0
   -0.4087    3.2343    0.6930 C   0  0  0  0  0  0  0  0  0  0  0  0
    1.5516   -0.8984    1.2988 H   0  0  0  0  0  0  0  0  0  0  0  0
    0.4475    0.2522   -1.3355 H   0  0  0  0  0  0  0  0  0  0  0  0
   -0.3652    0.5190    1.6303 H   0  0  0  0  0  0  0  0  0  0  0  0
    2.7627   -0.9954   -1.5102 H   0  0  0  0  0  0  0  0  0  0  0  0
    1.4073   -3.0875    0.0721 H   0  0  0  0  0  0  0  0  0  0  0  0
    0.5124   -2.3040   -1.2225 H   0  0  0  0  0  0  0  0  0  0  0  0
   -0.3743   -2.2853    1.7316 H   0  0  0  0  0  0  0  0  0  0  0  0
   -0.7992   -3.5395    0.5945 H   0  0  0  0  0  0  0  0  0  0  0  0
    3.9840   -1.2162    1.3121 H   0  0  0  0  0  0  0  0  0  0  0  0
    3.7462   -2.5838    0.2062 H   0  0  0  0  0  0  0  0  0  0  0  0
    4.8699   -1.2816   -0.2112 H   0  0  0  0  0  0  0  0  0  0  0  0
   -3.0136    2.8297   -0.3883 H   0  0  0  0  0  0  0  0  0  0  0  0
   -3.8542   -1.9652   -0.3366 H   0  0  0  0  0  0  0  0  0  0  0  0
   -3.1442   -3.2250    0.6400 H   0  0  0  0  0  0  0  0  0  0  0  0
   -2.7057   -3.0847   -1.0748 H   0  0  0  0  0  0  0  0  0  0  0  0
    0.0314    3.1351    1.6902 H   0  0  0  0  0  0  0  0  0  0  0  0
   -1.0764    4.1025    0.7144 H   0  0  0  0  0  0  0  0  0  0  0  0
    0.3867    3.4514   -0.0250 H   0  0  0  0  0  0  0  0  0  0  0  0
  1  5  1  0  0  0  0
  1 13  1  0  0  0  0
  2 13  2  0  0  0  0
  3 15  2  0  0  0  0
  4  5  1  0  0  0  0
  4  7  1  0  0  0  0
  4  8  1  0  0  0  0
  4 19  1  0  0  0  0
  5  6  1  0  0  0  0
  5 20  1  0  0  0  0
  6  9  1  0  0  0  0
  6 12  1  0  0  0  0
  6 21  1  0  0  0  0
  7 13  1  0  0  0  0
  7 14  1  0  0  0  0
  7 22  1  0  0  0  0
  8 10  1  0  0  0  0
  8 23  1  0  0  0  0
  8 24  1  0  0  0  0
  9 11  2  0  0  0  0
  9 15  1  0  0  0  0
 10 11  1  0  0  0  0
 10 25  1  0  0  0  0
 10 26  1  0  0  0  0
 11 17  1  0  0  0  0
 12 16  2  0  0  0  0
 12 18  1  0  0  0  0
 14 27  1  0  0  0  0
 14 28  1  0  0  0  0
 14 29  1  0  0  0  0
 15 16  1  0  0  0  0
 16 30  1  0  0  0  0
 17 31  1  0  0  0  0
 17 32  1  0  0  0  0
 17 33  1  0  0  0  0
 18 34  1  0  0  0  0
 18 35  1  0  0  0  0
 18 36  1  0  0  0  0
M  END
> <PUBCHEM_COMPOUND_CID>
167683

> <PUBCHEM_CONFORMER_RMSD>
0.6

> <PUBCHEM_CONFORMER_DIVERSEORDER>
1

> <PUBCHEM_MMFF94_PARTIAL_CHARGES>
16
1 -0.43
10 0.14
11 -0.28
12 -0.28
13 0.66
15 0.54
16 -0.14
17 0.14
18 0.14
2 -0.57
3 -0.57
30 0.15
5 0.28
6 0.28
7 0.06
9 -0.12

> <PUBCHEM_EFFECTIVE_ROTOR_COUNT>
0.8

> <PUBCHEM_PHARMACOPHORE_FEATURES>
5
1 2 acceptor
1 3 acceptor
5 1 4 5 7 13 rings
5 6 9 12 15 16 rings
7 4 5 6 8 9 10 11 rings

> <PUBCHEM_HEAVY_ATOM_COUNT>
18

> <PUBCHEM_ATOM_DEF_STEREO_COUNT>
4

> <PUBCHEM_ATOM_UDEF_STEREO_COUNT>
0

> <PUBCHEM_BOND_DEF_STEREO_COUNT>
0

> <PUBCHEM_BOND_UDEF_STEREO_COUNT>
0

> <PUBCHEM_ISOTOPIC_ATOM_COUNT>
0

> <PUBCHEM_COMPONENT_COUNT>
1

> <PUBCHEM_CACTVS_TAUTO_COUNT>
50

> <PUBCHEM_CONFORMER_ID>
00028F0300000001

> <PUBCHEM_MMFF94_ENERGY>
37.2442

> <PUBCHEM_FEATURE_SELFOVERLAP>
25.424

> <PUBCHEM_SHAPE_FINGERPRINT>
108231 29 18191020106045760665
10967382 1 18410854390681318113
12553582 1 18049159973348045454
13027679 85 18193269685714658089
13140716 1 18411132541379982218
13380535 76 18339080509356493574
14178342 30 17688602975265645960
14790565 3 15533036225185406629
15196674 1 18411981347303382207
15442244 35 18341050843411124298
16945 1 18265324191307213834
17492 89 18412545414165403474
192875 21 18266755729971913630
19591789 44 18410570713040668475
19868273 325 18266737991556657499
20510252 161 18337666430113147234
21029758 11 18191587437203232435
21267235 1 18339071691783360119
21501502 16 18412541003317450854
21524375 3 17984695881488958451
22182313 1 17908162983838228901
2334 1 18338514114807451050
23402539 116 18262811790205485365
23419403 2 17118100124158922716
23557571 272 18262785269019776942
23559900 14 18408046200062768472
238 59 17194921133428811861
2748010 2 18265051340698576155
335352 9 18267584804478167398
352729 6 18339073890833034970
353137 74 18339082721554463633
7364860 26 17687747559271538434
7832392 63 17328301857954136057
81228 2 18268700636886527769
8809292 202 18412822499447348634
9709674 26 18261670492973034798
9981440 41 17912924985989013144

> <PUBCHEM_SHAPE_MULTIPOLES>
352.82
5.81
3.3
0.75
3.04
0.32
0.03
-0.28
-1.1
-1.27
0.54
-0.09
0.03
-0.22

> <PUBCHEM_SHAPE_SELFOVERLAP>
760.806

> <PUBCHEM_SHAPE_VOLUME>
195.7

> <PUBCHEM_COORDINATE_TYPE>
2
5
10

$$$$

