439799
  -OEChem-07051212473D

 18 18  0     1  0  0  0  0  0999 V2000
    0.3126   -1.1608   -0.5450 O   0  0  0  0  0  0  0  0  0  0  0  0
    0.2299    2.3510    0.0808 O   0  0  0  0  0  0  0  0  0  0  0  0
   -2.4990    0.7866    0.1642 O   0  0  0  0  0  0  0  0  0  0  0  0
    2.9847   -0.8007    0.2712 O   0  0  0  0  0  0  0  0  0  0  0  0
   -1.7107   -1.9674    0.1792 O   0  0  0  0  0  0  0  0  0  0  0  0
   -0.1817    1.1226   -0.4854 C   0  0  1  0  0  0  0  0  0  0  0  0
    0.9593    0.1239   -0.5946 C   0  0  1  0  0  0  0  0  0  0  0  0
   -1.1694    0.3934    0.3995 C   0  0  2  0  0  0  0  0  0  0  0  0
    2.0048    0.1935    0.5116 C   0  0  0  0  0  0  0  0  0  0  0  0
   -0.9305   -1.0422    0.0187 C   0  0  0  0  0  0  0  0  0  0  0  0
   -0.6215    1.3236   -1.4700 H   0  0  0  0  0  0  0  0  0  0  0  0
    1.4518    0.2082   -1.5701 H   0  0  0  0  0  0  0  0  0  0  0  0
   -0.9470    0.5269    1.4631 H   0  0  0  0  0  0  0  0  0  0  0  0
    1.5722    0.0032    1.4989 H   0  0  0  0  0  0  0  0  0  0  0  0
    2.5083    1.1641    0.5278 H   0  0  0  0  0  0  0  0  0  0  0  0
    0.8966    2.7367   -0.5130 H   0  0  0  0  0  0  0  0  0  0  0  0
   -2.6742    0.7226   -0.7900 H   0  0  0  0  0  0  0  0  0  0  0  0
    2.5322   -1.6613    0.2561 H   0  0  0  0  0  0  0  0  0  0  0  0
  1  7  1  0  0  0  0
  1 10  1  0  0  0  0
  2  6  1  0  0  0  0
  2 16  1  0  0  0  0
  3  8  1  0  0  0  0
  3 17  1  0  0  0  0
  4  9  1  0  0  0  0
  4 18  1  0  0  0  0
  5 10  2  0  0  0  0
  6  7  1  0  0  0  0
  6  8  1  0  0  0  0
  6 11  1  0  0  0  0
  7  9  1  0  0  0  0
  7 12  1  0  0  0  0
  8 10  1  0  0  0  0
  8 13  1  0  0  0  0
  9 14  1  0  0  0  0
  9 15  1  0  0  0  0
M  END
> <PUBCHEM_COMPOUND_CID>
439799

> <PUBCHEM_CONFORMER_RMSD>
0.4

> <PUBCHEM_CONFORMER_DIVERSEORDER>
4
2
6
1
3
5

> <PUBCHEM_MMFF94_PARTIAL_CHARGES>
13
1 -0.43
10 0.66
16 0.4
17 0.4
18 0.4
2 -0.68
3 -0.68
4 -0.68
5 -0.57
6 0.28
7 0.28
8 0.34
9 0.28

> <PUBCHEM_EFFECTIVE_ROTOR_COUNT>
1.8

> <PUBCHEM_PHARMACOPHORE_FEATURES>
8
1 2 acceptor
1 2 donor
1 3 acceptor
1 3 donor
1 4 acceptor
1 4 donor
1 5 acceptor
5 1 6 7 8 10 rings

> <PUBCHEM_HEAVY_ATOM_COUNT>
10

> <PUBCHEM_ATOM_DEF_STEREO_COUNT>
3

> <PUBCHEM_ATOM_UDEF_STEREO_COUNT>
0

> <PUBCHEM_BOND_DEF_STEREO_COUNT>
0

> <PUBCHEM_BOND_UDEF_STEREO_COUNT>
0

> <PUBCHEM_ISOTOPIC_ATOM_COUNT>
0

> <PUBCHEM_COMPONENT_COUNT>
1

> <PUBCHEM_CACTVS_TAUTO_COUNT>
6

> <PUBCHEM_CONFORMER_ID>
0006B5F700000004

> <PUBCHEM_MMFF94_ENERGY>
15.3536

> <PUBCHEM_FEATURE_SELFOVERLAP>
40.598

> <PUBCHEM_SHAPE_FINGERPRINT>
12423570 1 9857504983123250900
13024252 1 15410610449517407472
16945 1 18338230582594016684
18185500 45 18270398287287865562
20653091 64 17842837724502092706
21040471 1 18337940311661427429
23552423 10 17910950240791842533
2748010 2 18336828589420490988
369184 2 18340497737142560522
5084963 1 17897734394683662048

> <PUBCHEM_SHAPE_MULTIPOLES>
176.45
2.93
1.86
0.72
1.08
0.32
-0.03
-0.71
0.57
-0.52
0.01
0.09
0.02
-0.02

> <PUBCHEM_SHAPE_SELFOVERLAP>
357.744

> <PUBCHEM_SHAPE_VOLUME>
104

> <PUBCHEM_COORDINATE_TYPE>
2
5
10

$$$$

