17395500
  -OEChem-06241222502D

 34 36  0     0  0  0  0  0  0999 V2000
    3.0114    5.2966    0.0000 S   0  0  0  0  0  0  0  0  0  0  0  0
    4.2044    0.2423    0.0000 S   0  0  0  0  0  0  0  0  0  0  0  0
    3.7044   -5.2966    0.0000 F   0  0  0  0  0  0  0  0  0  0  0  0
    4.5636    3.2262    0.0000 O   0  0  0  0  0  0  0  0  0  0  0  0
    4.0179    2.0694    0.0000 O   0  0  0  0  0  0  0  0  0  0  0  0
    2.8423    3.6874    0.0000 N   0  0  0  0  0  0  0  0  0  0  0  0
    2.6166    1.0513    0.0000 N   0  0  0  0  0  0  0  0  0  0  0  0
    2.8954   -0.7088    0.0000 N   0  0  0  0  0  0  0  0  0  0  0  0
    2.3423    4.5534    0.0000 C   0  0  0  0  0  0  0  0  0  0  0  0
    2.4356    2.7738    0.0000 C   0  0  0  0  0  0  0  0  0  0  0  0
    3.8204    3.8953    0.0000 C   0  0  0  0  0  0  0  0  0  0  0  0
    3.9250    4.8898    0.0000 C   0  0  0  0  0  0  0  0  0  0  0  0
    3.0233    1.9648    0.0000 C   0  0  0  0  0  0  0  0  0  0  0  0
    3.2044    0.2423    0.0000 C   0  0  0  0  0  0  0  0  0  0  0  0
    3.7044   -1.2966    0.0000 C   0  0  0  0  0  0  0  0  0  0  0  0
    3.7044   -2.2966    0.0000 C   0  0  0  0  0  0  0  0  0  0  0  0
    4.5134   -0.7088    0.0000 C   0  0  0  0  0  0  0  0  0  0  0  0
    2.8384   -2.7966    0.0000 C   0  0  0  0  0  0  0  0  0  0  0  0
    4.5704   -2.7966    0.0000 C   0  0  0  0  0  0  0  0  0  0  0  0
    2.8384   -3.7966    0.0000 C   0  0  0  0  0  0  0  0  0  0  0  0
    4.5704   -3.7966    0.0000 C   0  0  0  0  0  0  0  0  0  0  0  0
    3.7044   -4.2966    0.0000 C   0  0  0  0  0  0  0  0  0  0  0  0
    1.9274    5.0142    0.0000 H   0  0  0  0  0  0  0  0  0  0  0  0
    1.8407    4.1890    0.0000 H   0  0  0  0  0  0  0  0  0  0  0  0
    1.9216    3.1206    0.0000 H   0  0  0  0  0  0  0  0  0  0  0  0
    2.0049    2.3279    0.0000 H   0  0  0  0  0  0  0  0  0  0  0  0
    4.5314    4.7609    0.0000 H   0  0  0  0  0  0  0  0  0  0  0  0
    4.1166    5.4795    0.0000 H   0  0  0  0  0  0  0  0  0  0  0  0
    2.0000    0.9865    0.0000 H   0  0  0  0  0  0  0  0  0  0  0  0
    5.1031   -0.9004    0.0000 H   0  0  0  0  0  0  0  0  0  0  0  0
    2.3014   -2.4866    0.0000 H   0  0  0  0  0  0  0  0  0  0  0  0
    5.1074   -2.4866    0.0000 H   0  0  0  0  0  0  0  0  0  0  0  0
    2.3014   -4.1066    0.0000 H   0  0  0  0  0  0  0  0  0  0  0  0
    5.1074   -4.1066    0.0000 H   0  0  0  0  0  0  0  0  0  0  0  0
  1  9  1  0  0  0  0
  1 12  1  0  0  0  0
  2 14  1  0  0  0  0
  2 17  1  0  0  0  0
  3 22  1  0  0  0  0
  4 11  2  0  0  0  0
  5 13  2  0  0  0  0
  6  9  1  0  0  0  0
  6 10  1  0  0  0  0
  6 11  1  0  0  0  0
  7 13  1  0  0  0  0
  7 14  1  0  0  0  0
  7 29  1  0  0  0  0
  8 14  2  0  0  0  0
  8 15  1  0  0  0  0
  9 23  1  0  0  0  0
  9 24  1  0  0  0  0
 10 13  1  0  0  0  0
 10 25  1  0  0  0  0
 10 26  1  0  0  0  0
 11 12  1  0  0  0  0
 12 27  1  0  0  0  0
 12 28  1  0  0  0  0
 15 16  1  0  0  0  0
 15 17  2  0  0  0  0
 16 18  2  0  0  0  0
 16 19  1  0  0  0  0
 17 30  1  0  0  0  0
 18 20  1  0  0  0  0
 18 31  1  0  0  0  0
 19 21  2  0  0  0  0
 19 32  1  0  0  0  0
 20 22  2  0  0  0  0
 20 33  1  0  0  0  0
 21 22  1  0  0  0  0
 21 34  1  0  0  0  0
M  END
> <PUBCHEM_COMPOUND_CID>
17395500

> <PUBCHEM_COMPOUND_CANONICALIZED>
1

> <PUBCHEM_CACTVS_COMPLEXITY>
432

> <PUBCHEM_CACTVS_HBOND_ACCEPTOR>
6

> <PUBCHEM_CACTVS_HBOND_DONOR>
1

> <PUBCHEM_CACTVS_ROTATABLE_BOND>
4

> <PUBCHEM_CACTVS_SUBSKEYS>
AAADccBzMQBgAAAAAAAAAAAAAAAAAWLAAAAwAAAAAAAAAAABwAAAHwQQAAAADAjF3gyxkZPIEAisAyVydACC8KlhCjkJiDS4JJiIYKKgmTGUIAholwKIiCcQgIAOAAAAAAAAAAAAAAAAAAAAAAAAAAAAAA==

> <PUBCHEM_IUPAC_OPENEYE_NAME>
N-[4-(4-fluorophenyl)thiazol-2-yl]-2-(4-oxothiazolidin-3-yl)acetamide

> <PUBCHEM_IUPAC_CAS_NAME>
N-[4-(4-fluorophenyl)-2-thiazolyl]-2-(4-oxo-3-thiazolidinyl)acetamide

> <PUBCHEM_IUPAC_NAME>
N-[4-(4-fluorophenyl)-1,3-thiazol-2-yl]-2-(4-oxo-1,3-thiazolidin-3-yl)acetamide

> <PUBCHEM_IUPAC_SYSTEMATIC_NAME>
N-[4-(4-fluorophenyl)-1,3-thiazol-2-yl]-2-(4-oxidanylidene-1,3-thiazolidin-3-yl)ethanamide

> <PUBCHEM_IUPAC_TRADITIONAL_NAME>
N-[4-(4-fluorophenyl)thiazol-2-yl]-2-(4-ketothiazolidin-3-yl)acetamide

> <PUBCHEM_IUPAC_INCHI>
InChI=1S/C14H12FN3O2S2/c15-10-3-1-9(2-4-10)11-6-22-14(16-11)17-12(19)5-18-8-21-7-13(18)20/h1-4,6H,5,7-8H2,(H,16,17,19)

> <PUBCHEM_IUPAC_INCHIKEY>
MNAHVUWMHHNVRM-UHFFFAOYSA-N

> <PUBCHEM_XLOGP3_AA>
2.3

> <PUBCHEM_EXACT_MASS>
337.035497

> <PUBCHEM_MOLECULAR_FORMULA>
C14H12FN3O2S2

> <PUBCHEM_MOLECULAR_WEIGHT>
337.392383

> <PUBCHEM_OPENEYE_CAN_SMILES>
C1C(=O)N(CS1)CC(=O)NC2=NC(=CS2)C3=CC=C(C=C3)F

> <PUBCHEM_OPENEYE_ISO_SMILES>
C1C(=O)N(CS1)CC(=O)NC2=NC(=CS2)C3=CC=C(C=C3)F

> <PUBCHEM_CACTVS_TPSA>
116

> <PUBCHEM_MONOISOTOPIC_WEIGHT>
337.035497

> <PUBCHEM_TOTAL_CHARGE>
0

> <PUBCHEM_HEAVY_ATOM_COUNT>
22

> <PUBCHEM_ATOM_DEF_STEREO_COUNT>
0

> <PUBCHEM_ATOM_UDEF_STEREO_COUNT>
0

> <PUBCHEM_BOND_DEF_STEREO_COUNT>
0

> <PUBCHEM_BOND_UDEF_STEREO_COUNT>
0

> <PUBCHEM_ISOTOPIC_ATOM_COUNT>
0

> <PUBCHEM_COMPONENT_COUNT>
1

> <PUBCHEM_CACTVS_TAUTO_COUNT>
10

> <PUBCHEM_COORDINATE_TYPE>
1
5
255

> <PUBCHEM_BONDANNOTATIONS>
15  17  8
16  18  8
16  19  8
18  20  8
19  21  8
2  14  8
2  17  8
20  22  8
21  22  8
8  14  8
8  15  8

$$$$

