10023290
  -OEChem-07051213103D

 61 62  0     1  0  0  0  0  0999 V2000
    0.2294    0.5502    0.3609 O   0  0  0  0  0  0  0  0  0  0  0  0
   -2.6914    0.1551   -1.8189 O   0  0  0  0  0  0  0  0  0  0  0  0
    1.9771   -0.7558   -0.4661 O   0  0  0  0  0  0  0  0  0  0  0  0
    2.0814    1.9838    1.9491 O   0  0  0  0  0  0  0  0  0  0  0  0
    4.4428    0.3563    2.6243 O   0  0  0  0  0  0  0  0  0  0  0  0
    5.5699   -0.8293    0.2411 O   0  0  0  0  0  0  0  0  0  0  0  0
   -5.1498   -2.0746    1.9250 O   0  0  0  0  0  0  0  0  0  0  0  0
    2.8086   -2.1708   -2.6712 O   0  0  0  0  0  0  0  0  0  0  0  0
   -2.5519    1.8511   -0.0674 C   0  0  0  0  0  0  0  0  0  0  0  0
   -2.0443    0.4339   -0.5583 C   0  0  2  0  0  0  0  0  0  0  0  0
   -0.5056    0.3971   -0.8575 C   0  0  1  0  0  0  0  0  0  0  0  0
   -2.0680    2.9438   -1.0587 C   0  0  0  0  0  0  0  0  0  0  0  0
   -0.1046    1.5436   -1.8098 C   0  0  0  0  0  0  0  0  0  0  0  0
   -0.5639    2.9108   -1.3125 C   0  0  0  0  0  0  0  0  0  0  0  0
   -2.0817    2.2214    1.3605 C   0  0  0  0  0  0  0  0  0  0  0  0
   -4.1026    1.9161   -0.0417 C   0  0  0  0  0  0  0  0  0  0  0  0
   -0.0519   -0.9359   -1.4838 C   0  0  0  0  0  0  0  0  0  0  0  0
   -2.4316   -0.6728    0.3934 C   0  0  0  0  0  0  0  0  0  0  0  0
    1.6359    0.4962    0.1245 C   0  0  2  0  0  0  0  0  0  0  0  0
    2.3458    0.6664    1.4675 C   0  0  1  0  0  0  0  0  0  0  0  0
    3.8555    0.4709    1.3272 C   0  0  2  0  0  0  0  0  0  0  0  0
    4.1783   -0.8040    0.5477 C   0  0  1  0  0  0  0  0  0  0  0  0
    3.3726   -0.8645   -0.7522 C   0  0  1  0  0  0  0  0  0  0  0  0
   -3.5753   -1.3675    0.3051 C   0  0  0  0  0  0  0  0  0  0  0  0
   -3.9562   -2.4669    1.2522 C   0  0  2  0  0  0  0  0  0  0  0  0
    3.5896   -2.1818   -1.4902 C   0  0  0  0  0  0  0  0  0  0  0  0
   -4.2080   -3.7727    0.5098 C   0  0  0  0  0  0  0  0  0  0  0  0
   -2.3423    3.9399   -0.6880 H   0  0  0  0  0  0  0  0  0  0  0  0
   -2.5858    2.8265   -2.0201 H   0  0  0  0  0  0  0  0  0  0  0  0
   -0.5974    1.3686   -2.7777 H   0  0  0  0  0  0  0  0  0  0  0  0
    0.9550    1.5850   -2.0716 H   0  0  0  0  0  0  0  0  0  0  0  0
   -0.3155    3.6672   -2.0667 H   0  0  0  0  0  0  0  0  0  0  0  0
   -0.0132    3.1884   -0.4073 H   0  0  0  0  0  0  0  0  0  0  0  0
   -2.4886    3.1942    1.6622 H   0  0  0  0  0  0  0  0  0  0  0  0
   -0.9965    2.2992    1.4481 H   0  0  0  0  0  0  0  0  0  0  0  0
   -2.4243    1.4896    2.0997 H   0  0  0  0  0  0  0  0  0  0  0  0
   -4.5275    1.2508    0.7164 H   0  0  0  0  0  0  0  0  0  0  0  0
   -4.5396    1.6531   -1.0107 H   0  0  0  0  0  0  0  0  0  0  0  0
   -4.4454    2.9299    0.1989 H   0  0  0  0  0  0  0  0  0  0  0  0
    0.7786   -0.8108   -2.1840 H   0  0  0  0  0  0  0  0  0  0  0  0
    0.0783   -1.7507   -0.7619 H   0  0  0  0  0  0  0  0  0  0  0  0
   -0.8151   -1.3190   -2.1706 H   0  0  0  0  0  0  0  0  0  0  0  0
   -1.7533   -0.8919    1.2147 H   0  0  0  0  0  0  0  0  0  0  0  0
    1.9675    1.3265   -0.5039 H   0  0  0  0  0  0  0  0  0  0  0  0
   -2.6796   -0.7977   -2.0036 H   0  0  0  0  0  0  0  0  0  0  0  0
    1.9396   -0.0303    2.2104 H   0  0  0  0  0  0  0  0  0  0  0  0
    4.3161    1.3476    0.8554 H   0  0  0  0  0  0  0  0  0  0  0  0
    3.9647   -1.6783    1.1747 H   0  0  0  0  0  0  0  0  0  0  0  0
    3.6536   -0.0465   -1.4296 H   0  0  0  0  0  0  0  0  0  0  0  0
   -4.2962   -1.1462   -0.4780 H   0  0  0  0  0  0  0  0  0  0  0  0
   -3.1810   -2.6194    2.0117 H   0  0  0  0  0  0  0  0  0  0  0  0
    3.2855   -3.0414   -0.8829 H   0  0  0  0  0  0  0  0  0  0  0  0
    4.6378   -2.3093   -1.7760 H   0  0  0  0  0  0  0  0  0  0  0  0
    2.4386    2.6192    1.3055 H   0  0  0  0  0  0  0  0  0  0  0  0
    5.3978    0.2196    2.5004 H   0  0  0  0  0  0  0  0  0  0  0  0
    5.7674   -0.0610   -0.3214 H   0  0  0  0  0  0  0  0  0  0  0  0
   -5.0350   -3.6718   -0.2026 H   0  0  0  0  0  0  0  0  0  0  0  0
   -4.4976   -4.5613    1.2132 H   0  0  0  0  0  0  0  0  0  0  0  0
   -3.3167   -4.1035   -0.0330 H   0  0  0  0  0  0  0  0  0  0  0  0
   -5.3890   -2.7896    2.5392 H   0  0  0  0  0  0  0  0  0  0  0  0
    1.9551   -2.5847   -2.4594 H   0  0  0  0  0  0  0  0  0  0  0  0
  1 11  1  0  0  0  0
  1 19  1  0  0  0  0
  2 10  1  0  0  0  0
  2 45  1  0  0  0  0
  3 19  1  0  0  0  0
  3 23  1  0  0  0  0
  4 20  1  0  0  0  0
  4 54  1  0  0  0  0
  5 21  1  0  0  0  0
  5 55  1  0  0  0  0
  6 22  1  0  0  0  0
  6 56  1  0  0  0  0
  7 25  1  0  0  0  0
  7 60  1  0  0  0  0
  8 26  1  0  0  0  0
  8 61  1  0  0  0  0
  9 10  1  0  0  0  0
  9 12  1  0  0  0  0
  9 15  1  0  0  0  0
  9 16  1  0  0  0  0
 10 11  1  0  0  0  0
 10 18  1  0  0  0  0
 11 13  1  0  0  0  0
 11 17  1  0  0  0  0
 12 14  1  0  0  0  0
 12 28  1  0  0  0  0
 12 29  1  0  0  0  0
 13 14  1  0  0  0  0
 13 30  1  0  0  0  0
 13 31  1  0  0  0  0
 14 32  1  0  0  0  0
 14 33  1  0  0  0  0
 15 34  1  0  0  0  0
 15 35  1  0  0  0  0
 15 36  1  0  0  0  0
 16 37  1  0  0  0  0
 16 38  1  0  0  0  0
 16 39  1  0  0  0  0
 17 40  1  0  0  0  0
 17 41  1  0  0  0  0
 17 42  1  0  0  0  0
 18 24  2  0  0  0  0
 18 43  1  0  0  0  0
 19 20  1  0  0  0  0
 19 44  1  0  0  0  0
 20 21  1  0  0  0  0
 20 46  1  0  0  0  0
 21 22  1  0  0  0  0
 21 47  1  0  0  0  0
 22 23  1  0  0  0  0
 22 48  1  0  0  0  0
 23 26  1  0  0  0  0
 23 49  1  0  0  0  0
 24 25  1  0  0  0  0
 24 50  1  0  0  0  0
 25 27  1  0  0  0  0
 25 51  1  0  0  0  0
 26 52  1  0  0  0  0
 26 53  1  0  0  0  0
 27 57  1  0  0  0  0
 27 58  1  0  0  0  0
 27 59  1  0  0  0  0
M  END
> <PUBCHEM_COMPOUND_CID>
10023290

> <PUBCHEM_CONFORMER_RMSD>
0.8

> <PUBCHEM_CONFORMER_DIVERSEORDER>
2
7
20
19
17
1
11
16
18
8
14
9
15
3
12
6
5
13
10
4

> <PUBCHEM_MMFF94_PARTIAL_CHARGES>
27
1 -0.56
10 0.42
11 0.28
18 -0.29
19 0.56
2 -0.68
20 0.28
21 0.28
22 0.28
23 0.28
24 -0.29
25 0.42
26 0.28
3 -0.56
4 -0.68
43 0.15
45 0.4
5 -0.68
50 0.15
54 0.4
55 0.4
56 0.4
6 -0.68
60 0.4
61 0.4
7 -0.68
8 -0.68

> <PUBCHEM_EFFECTIVE_ROTOR_COUNT>
7.4

> <PUBCHEM_PHARMACOPHORE_FEATURES>
17
1 1 acceptor
1 2 acceptor
1 2 donor
1 3 acceptor
1 4 acceptor
1 4 donor
1 5 acceptor
1 5 donor
1 6 acceptor
1 6 donor
1 7 acceptor
1 7 donor
1 8 acceptor
1 8 donor
3 9 15 16 hydrophobe
6 3 19 20 21 22 23 rings
6 9 10 11 12 13 14 rings

> <PUBCHEM_HEAVY_ATOM_COUNT>
27

> <PUBCHEM_ATOM_DEF_STEREO_COUNT>
8

> <PUBCHEM_ATOM_UDEF_STEREO_COUNT>
0

> <PUBCHEM_BOND_DEF_STEREO_COUNT>
1

> <PUBCHEM_BOND_UDEF_STEREO_COUNT>
0

> <PUBCHEM_ISOTOPIC_ATOM_COUNT>
0

> <PUBCHEM_COMPONENT_COUNT>
1

> <PUBCHEM_CACTVS_TAUTO_COUNT>
1

> <PUBCHEM_CONFORMER_ID>
0098F17A00000002

> <PUBCHEM_MMFF94_ENERGY>
107.4835

> <PUBCHEM_FEATURE_SELFOVERLAP>
86.325

> <PUBCHEM_SHAPE_FINGERPRINT>
10366900 7 18263943161890133004
10369192 42 17970068847400482200
11370993 144 17750222759471153987
11552529 35 18411702097119439001
12236239 1 16343132666667547700
12363563 72 17987799597009421267
12553582 1 18059846221901549779
12596599 1 18271802449367381880
12623949 98 17823678807456210607
12892183 10 17386273291144521595
13140716 1 18342737403806088125
133893 2 4822386973836901117
13544653 18 18264774268522279727
13583140 156 17749390394503142858
13944108 23 9218236772499625307
14081887 123 18341900705395358835
14178342 30 18272934968013843987
15163728 17 7059837228913543787
16945 1 18058740241678440629
17349148 13 15841555210435743632
1813 80 18130497523313504807
21421861 104 17984400959787393201
22122407 14 16443342113536423945
23557571 272 18410856589857658589
23559900 14 18267017439672853798
3380486 145 17968670302663039597
5104073 3 18409456903503616568
602551 16 18272932756285008706
7970288 3 18058726888683731203

> <PUBCHEM_SHAPE_MULTIPOLES>
508.69
9.7
3.54
2.13
3.91
0.86
-0.04
6.84
-3.9
-5.03
0.27
1.67
0.1
2.81

> <PUBCHEM_SHAPE_SELFOVERLAP>
1042.91

> <PUBCHEM_SHAPE_VOLUME>
289.9

> <PUBCHEM_COORDINATE_TYPE>
2
5
10

$$$$

