21480
  -OEChem-07051213143D

 38 43  0     0  0  0  0  0  0999 V2000
   -0.1491   -0.1220   -0.0013 C   0  0  0  0  0  0  0  0  0  0  0  0
    1.2501   -0.0473   -0.0010 C   0  0  0  0  0  0  0  0  0  0  0  0
   -0.5634   -1.4427   -0.0020 C   0  0  0  0  0  0  0  0  0  0  0  0
   -1.0288    0.9604   -0.0004 C   0  0  0  0  0  0  0  0  0  0  0  0
    1.7510   -1.4351   -0.0007 C   0  0  0  0  0  0  0  0  0  0  0  0
    0.6138   -2.2901   -0.0017 C   0  0  0  0  0  0  0  0  0  0  0  0
    1.8660    1.2191   -0.0007 C   0  0  0  0  0  0  0  0  0  0  0  0
   -2.4337    0.6612   -0.0002 C   0  0  0  0  0  0  0  0  0  0  0  0
    1.0141    2.3633    0.0004 C   0  0  0  0  0  0  0  0  0  0  0  0
   -1.9122   -1.7485   -0.0022 C   0  0  0  0  0  0  0  0  0  0  0  0
   -2.8567   -0.7053   -0.0013 C   0  0  0  0  0  0  0  0  0  0  0  0
   -0.3950    2.2229    0.0006 C   0  0  0  0  0  0  0  0  0  0  0  0
    3.0185   -1.9929    0.0021 C   0  0  0  0  0  0  0  0  0  0  0  0
    0.7295   -3.6708   -0.0005 C   0  0  0  0  0  0  0  0  0  0  0  0
    3.2611    1.4441   -0.0016 C   0  0  0  0  0  0  0  0  0  0  0  0
   -3.4362    1.6558    0.0016 C   0  0  0  0  0  0  0  0  0  0  0  0
    1.5752    3.6507    0.0012 C   0  0  0  0  0  0  0  0  0  0  0  0
   -4.2266   -1.0116   -0.0008 C   0  0  0  0  0  0  0  0  0  0  0  0
    3.1419   -3.3884    0.0034 C   0  0  0  0  0  0  0  0  0  0  0  0
    2.0107   -4.2184    0.0019 C   0  0  0  0  0  0  0  0  0  0  0  0
    3.7965    2.7343   -0.0010 C   0  0  0  0  0  0  0  0  0  0  0  0
    2.9549    3.8366    0.0006 C   0  0  0  0  0  0  0  0  0  0  0  0
   -4.7935    1.3279    0.0025 C   0  0  0  0  0  0  0  0  0  0  0  0
   -5.1879   -0.0031    0.0012 C   0  0  0  0  0  0  0  0  0  0  0  0
   -2.2349   -2.7869   -0.0026 H   0  0  0  0  0  0  0  0  0  0  0  0
   -1.0058    3.1248    0.0015 H   0  0  0  0  0  0  0  0  0  0  0  0
    3.9227   -1.4005    0.0038 H   0  0  0  0  0  0  0  0  0  0  0  0
   -0.1420   -4.3163   -0.0010 H   0  0  0  0  0  0  0  0  0  0  0  0
    3.9684    0.6250   -0.0032 H   0  0  0  0  0  0  0  0  0  0  0  0
   -3.1765    2.7116    0.0027 H   0  0  0  0  0  0  0  0  0  0  0  0
    0.9359    4.5320    0.0022 H   0  0  0  0  0  0  0  0  0  0  0  0
   -4.5619   -2.0472   -0.0017 H   0  0  0  0  0  0  0  0  0  0  0  0
    4.1321   -3.8374    0.0057 H   0  0  0  0  0  0  0  0  0  0  0  0
    2.1370   -5.2977    0.0031 H   0  0  0  0  0  0  0  0  0  0  0  0
    4.8739    2.8729   -0.0018 H   0  0  0  0  0  0  0  0  0  0  0  0
    3.3693    4.8402    0.0011 H   0  0  0  0  0  0  0  0  0  0  0  0
   -5.5408    2.1162    0.0040 H   0  0  0  0  0  0  0  0  0  0  0  0
   -6.2434   -0.2586    0.0019 H   0  0  0  0  0  0  0  0  0  0  0  0
  1  2  2  0  0  0  0
  1  3  1  0  0  0  0
  1  4  1  0  0  0  0
  2  5  1  0  0  0  0
  2  7  1  0  0  0  0
  3  6  1  0  0  0  0
  3 10  2  0  0  0  0
  4  8  1  0  0  0  0
  4 12  2  0  0  0  0
  5  6  1  0  0  0  0
  5 13  2  0  0  0  0
  6 14  2  0  0  0  0
  7  9  1  0  0  0  0
  7 15  2  0  0  0  0
  8 11  1  0  0  0  0
  8 16  2  0  0  0  0
  9 12  1  0  0  0  0
  9 17  2  0  0  0  0
 10 11  1  0  0  0  0
 10 25  1  0  0  0  0
 11 18  2  0  0  0  0
 12 26  1  0  0  0  0
 13 19  1  0  0  0  0
 13 27  1  0  0  0  0
 14 20  1  0  0  0  0
 14 28  1  0  0  0  0
 15 21  1  0  0  0  0
 15 29  1  0  0  0  0
 16 23  1  0  0  0  0
 16 30  1  0  0  0  0
 17 22  1  0  0  0  0
 17 31  1  0  0  0  0
 18 24  1  0  0  0  0
 18 32  1  0  0  0  0
 19 20  2  0  0  0  0
 19 33  1  0  0  0  0
 20 34  1  0  0  0  0
 21 22  2  0  0  0  0
 21 35  1  0  0  0  0
 22 36  1  0  0  0  0
 23 24  2  0  0  0  0
 23 37  1  0  0  0  0
 24 38  1  0  0  0  0
M  END
> <PUBCHEM_COMPOUND_CID>
21480

> <PUBCHEM_CONFORMER_RMSD>
0.6

> <PUBCHEM_CONFORMER_DIVERSEORDER>
1

> <PUBCHEM_MMFF94_PARTIAL_CHARGES>
28
10 -0.15
12 -0.15
13 -0.15
14 -0.15
15 -0.15
16 -0.15
17 -0.15
18 -0.15
19 -0.15
20 -0.15
21 -0.15
22 -0.15
23 -0.15
24 -0.15
25 0.15
26 0.15
27 0.15
28 0.15
29 0.15
30 0.15
31 0.15
32 0.15
33 0.15
34 0.15
35 0.15
36 0.15
37 0.15
38 0.15

> <PUBCHEM_EFFECTIVE_ROTOR_COUNT>
0

> <PUBCHEM_PHARMACOPHORE_FEATURES>
6
5 1 2 3 5 6 rings
6 1 2 4 7 9 12 rings
6 1 3 4 8 10 11 rings
6 5 6 13 14 19 20 rings
6 7 9 15 17 21 22 rings
6 8 11 16 18 23 24 rings

> <PUBCHEM_HEAVY_ATOM_COUNT>
24

> <PUBCHEM_ATOM_DEF_STEREO_COUNT>
0

> <PUBCHEM_ATOM_UDEF_STEREO_COUNT>
0

> <PUBCHEM_BOND_DEF_STEREO_COUNT>
0

> <PUBCHEM_BOND_UDEF_STEREO_COUNT>
0

> <PUBCHEM_ISOTOPIC_ATOM_COUNT>
0

> <PUBCHEM_COMPONENT_COUNT>
1

> <PUBCHEM_CACTVS_TAUTO_COUNT>
1

> <PUBCHEM_CONFORMER_ID>
000053E800000001

> <PUBCHEM_MMFF94_ENERGY>
105.576

> <PUBCHEM_FEATURE_SELFOVERLAP>
30.788

> <PUBCHEM_SHAPE_FINGERPRINT>
10050765 1 18410856582396494749
10319926 262 17179981635853181824
10411042 1 17978228588634122407
10693767 8 18113897186825316326
10967382 1 18410856585446555590
1100329 8 18339079405660648979
11370993 70 18266180517729152369
11578080 2 13824151492793549022
12107183 9 17902501920727216225
12173636 292 17833835971361179604
12403259 226 18199188580271909053
12553582 1 18050000296594712398
12592029 89 18338794507515706985
12730499 353 18339914914749961659
12788726 201 17406826758044292402
13004483 165 17691135146186396315
13009979 54 17678731469719046225
13140716 1 18412547600102582602
138480 1 18266741461916528450
14790565 3 18195802964410397837
14866123 147 17905893574579716754
14955137 171 17761745748952218915
15042514 8 17259339969143146898
15230672 131 18197774394414879924
15475509 35 16988559160741919091
15475509 8 17247209495493182821
15664445 248 18044358642556500326
15927050 60 18192712242336916270
16087824 20 17401765723602707509
16728300 4 17628673948613427240
17492 89 18410293610525917843
18681886 176 18335988682949903090
18785283 64 18413950585370965866
19591789 44 18194680358927229962
19930381 70 18411702105572268584
20028762 73 17540528020838634551
20510252 161 17758388578748429217
20739085 24 18272654523887663964
20775438 99 17619403940209708437
21033648 29 17974290919625474297
21049683 271 18199731687006762308
21267235 1 18121773100289797991
221490 88 18341324578724924843
22149856 69 18197756853778499275
2334 1 18410573946707962922
23366157 5 18273494589161622563
23419403 2 17915480473685599878
23559900 14 18338523048576699707
24771293 8 18188506773395357178
25147074 1 18040155133126972229
283562 15 17759525469793190563
3091708 16 9256585530219512410
335352 9 18338798906121634108
3421961 26 18338236088858089339
350125 39 18411982464285100940
352729 6 17834956369388243110
3886686 26 17541694645862755520
394222 165 18057897848399553112
474 4 18410295770392567417
5104073 3 18341606036895949641
5265222 85 17980467972288303116
532947 4 18408879616791072446
5385378 56 18409160000735677705
6138700 20 18410005551479672668
6443956 14 18268146642087624398
7364860 26 18410575106143209646
79837 15 17907298754160040650
84936 182 18260830358578133545
9709674 26 18413387640435588163
9777508 108 17398677800645253296
9981440 41 18195532480486262393

> <PUBCHEM_SHAPE_MULTIPOLES>
493.91
7.62
5.46
0.62
8.78
1.39
0
-2.19
0
-7.25
0
0
0
0

> <PUBCHEM_SHAPE_SELFOVERLAP>
1169.225

> <PUBCHEM_SHAPE_VOLUME>
227

> <PUBCHEM_COORDINATE_TYPE>
2
5
10

$$$$

