9543072
  -OEChem-07051213083D

 24 25  0     0  0  0  0  0  0999 V2000
   -3.4815   -0.1252    0.0771 S   0  0  0  0  0  0  0  0  0  0  0  0
    2.9492    1.9940   -0.0267 O   0  0  0  0  0  0  0  0  0  0  0  0
   -3.9279   -0.1982   -1.4939 O   0  0  0  0  0  0  0  0  0  0  0  0
    4.6320   -0.1718   -0.0376 O   0  0  0  0  0  0  0  0  0  0  0  0
   -3.7318   -1.4393    0.6511 O   0  0  0  0  0  0  0  0  0  0  0  0
   -4.0784    1.0655    0.6615 O   0  0  0  0  0  0  0  0  0  0  0  0
    0.5045   -0.7709    0.0244 C   0  0  0  0  0  0  0  0  0  0  0  0
    1.0231    0.5459    0.0091 C   0  0  0  0  0  0  0  0  0  0  0  0
   -1.7543    0.1318    0.0514 C   0  0  0  0  0  0  0  0  0  0  0  0
   -0.8868   -0.9608    0.0456 C   0  0  0  0  0  0  0  0  0  0  0  0
    0.1351    1.6338    0.0152 C   0  0  0  0  0  0  0  0  0  0  0  0
    2.4145    0.7358   -0.0119 C   0  0  0  0  0  0  0  0  0  0  0  0
   -1.2444    1.4266    0.0362 C   0  0  0  0  0  0  0  0  0  0  0  0
    1.3926   -1.8588    0.0185 C   0  0  0  0  0  0  0  0  0  0  0  0
    3.2820   -0.3567   -0.0176 C   0  0  0  0  0  0  0  0  0  0  0  0
    2.7721   -1.6515   -0.0024 C   0  0  0  0  0  0  0  0  0  0  0  0
   -1.2850   -1.9736    0.0497 H   0  0  0  0  0  0  0  0  0  0  0  0
    0.5000    2.6585    0.0018 H   0  0  0  0  0  0  0  0  0  0  0  0
   -1.9006    2.2925    0.0323 H   0  0  0  0  0  0  0  0  0  0  0  0
    1.0164   -2.8797    0.0301 H   0  0  0  0  0  0  0  0  0  0  0  0
    3.4367   -2.5115   -0.0065 H   0  0  0  0  0  0  0  0  0  0  0  0
    3.9191    1.9187   -0.0400 H   0  0  0  0  0  0  0  0  0  0  0  0
   -3.5278   -0.9348   -2.0133 H   0  0  0  0  0  0  0  0  0  0  0  0
    5.0713   -1.0395   -0.0385 H   0  0  0  0  0  0  0  0  0  0  0  0
  1  3  1  0  0  0  0
  1  5  2  0  0  0  0
  1  6  2  0  0  0  0
  1  9  1  0  0  0  0
  2 12  1  0  0  0  0
  2 22  1  0  0  0  0
  3 23  1  0  0  0  0
  4 15  1  0  0  0  0
  4 24  1  0  0  0  0
  7  8  2  0  0  0  0
  7 10  1  0  0  0  0
  7 14  1  0  0  0  0
  8 11  1  0  0  0  0
  8 12  1  0  0  0  0
  9 10  2  0  0  0  0
  9 13  1  0  0  0  0
 10 17  1  0  0  0  0
 11 13  2  0  0  0  0
 11 18  1  0  0  0  0
 12 15  2  0  0  0  0
 13 19  1  0  0  0  0
 14 16  2  0  0  0  0
 14 20  1  0  0  0  0
 15 16  1  0  0  0  0
 16 21  1  0  0  0  0
M  END
> <PUBCHEM_COMPOUND_CID>
9543072

> <PUBCHEM_CONFORMER_RMSD>
0.6

> <PUBCHEM_CONFORMER_DIVERSEORDER>
1

> <PUBCHEM_MMFF94_PARTIAL_CHARGES>
22
1 1.49
10 -0.15
11 -0.15
12 0.08
13 -0.15
14 -0.15
15 0.08
16 -0.15
17 0.15
18 0.15
19 0.15
2 -0.53
20 0.15
21 0.15
22 0.45
23 0.5
24 0.45
3 -0.68
4 -0.53
5 -0.65
6 -0.65
9 -0.01

> <PUBCHEM_EFFECTIVE_ROTOR_COUNT>
1

> <PUBCHEM_PHARMACOPHORE_FEATURES>
8
1 2 donor
1 3 acceptor
1 4 donor
1 5 acceptor
1 6 acceptor
4 1 3 5 6 anion
6 7 8 12 14 15 16 rings
6 7 8 9 10 11 13 rings

> <PUBCHEM_HEAVY_ATOM_COUNT>
16

> <PUBCHEM_ATOM_DEF_STEREO_COUNT>
0

> <PUBCHEM_ATOM_UDEF_STEREO_COUNT>
0

> <PUBCHEM_BOND_DEF_STEREO_COUNT>
0

> <PUBCHEM_BOND_UDEF_STEREO_COUNT>
0

> <PUBCHEM_ISOTOPIC_ATOM_COUNT>
0

> <PUBCHEM_COMPONENT_COUNT>
1

> <PUBCHEM_CACTVS_TAUTO_COUNT>
13

> <PUBCHEM_CONFORMER_ID>
00919DA000000001

> <PUBCHEM_MMFF94_ENERGY>
35.6829

> <PUBCHEM_FEATURE_SELFOVERLAP>
40.683

> <PUBCHEM_SHAPE_FINGERPRINT>
10608611 8 18341897406754869765
10967382 1 18410854339505674944
11132069 177 18409456855678661914
11471102 20 18411422825550647598
11806522 49 18411699885185076222
12032990 46 18411694387516148083
12236239 1 17749108902831859631
13140716 1 18339083662342257818
13221675 6 18409448102619890446
13296908 3 18342454833601738699
13380535 76 18411699881090861394
13862211 1 18410299142337988214
14144814 61 18409447003139768387
14251717 144 18408610253131662479
14252887 29 17822281405802527510
14325111 11 18410571769170054449
14576447 43 18188225207960582831
15196674 1 18410853239651188344
15219456 202 18343301435953598171
15442244 35 18120934172611018538
15536298 74 18333448738106061432
16945 1 18411138065061105434
18186145 218 17989487437446576523
19107657 46 18411416211322480927
19422 9 18113900463863711087
200 152 18186809088496740447
20201158 50 18341894112330233546
20645477 70 18408609179722349487
21267235 1 18409719651959042859
21501502 16 18194682789868287040
21501925 9 18339370750740925930
221490 88 18340759399351070050
2334 1 18050567335710161042
23402539 116 18187089472314407196
23402655 69 18335987579042360277
23463225 33 18411135861479151464
23559900 14 18341614862732359106
2748010 2 18123462787720711122
2871803 45 18342178907395765790
5104073 3 18411135827056071617
53655031 270 18335980947465012696
581208 293 18408328769754823720
69090 78 18187370913105680134
7364860 26 18334294262885476736
77492 1 17748826315284545987
8809292 202 18130499756406504731
9709674 26 18410005567747405767

> <PUBCHEM_SHAPE_MULTIPOLES>
303.78
7.49
1.85
0.74
2.26
0.11
0.13
-0.55
0.15
-0.68
-0.1
0.59
-0.05
-0.04

> <PUBCHEM_SHAPE_SELFOVERLAP>
655.019

> <PUBCHEM_SHAPE_VOLUME>
167.7

> <PUBCHEM_COORDINATE_TYPE>
2
5
10

$$$$

