3082376
  -OEChem-07051212463D

 23 22  0     1  0  0  0  0  0999 V2000
   -2.8187    0.1995   -0.1039 S   0  0  0  0  0  0  0  0  0  0  0  0
   -4.0088   -0.6984    0.5580 O   0  0  0  0  0  0  0  0  0  0  0  0
   -2.9347    0.1357   -1.5494 O   0  0  0  0  0  0  0  0  0  0  0  0
   -2.7482    1.4690    0.5967 O   0  0  0  0  0  0  0  0  0  0  0  0
    3.0927    1.4387   -0.8886 O   0  0  0  0  0  0  0  0  0  0  0  0
    2.0776    1.2485    1.1352 O   0  0  0  0  0  0  0  0  0  0  0  0
    0.9619   -1.1509    0.2291 N   0  0  0  0  0  0  0  0  0  0  0  0
   -0.1582   -0.3293   -0.2129 C   0  0  0  0  0  0  0  0  0  0  0  0
   -1.4612   -0.8071    0.4063 C   0  0  0  0  0  0  0  0  0  0  0  0
    2.2112   -0.6854   -0.3566 C   0  0  2  0  0  0  0  0  0  0  0  0
    3.3590   -1.5698    0.1109 C   0  0  0  0  0  0  0  0  0  0  0  0
    2.4272    0.7495    0.0752 C   0  0  0  0  0  0  0  0  0  0  0  0
   -0.2411   -0.3751   -1.3063 H   0  0  0  0  0  0  0  0  0  0  0  0
   -0.0399    0.7263    0.0503 H   0  0  0  0  0  0  0  0  0  0  0  0
   -1.4185   -0.7726    1.5000 H   0  0  0  0  0  0  0  0  0  0  0  0
   -1.6792   -1.8335    0.0917 H   0  0  0  0  0  0  0  0  0  0  0  0
    2.1418   -0.7293   -1.4507 H   0  0  0  0  0  0  0  0  0  0  0  0
    0.7983   -2.1237   -0.0287 H   0  0  0  0  0  0  0  0  0  0  0  0
    3.2099   -2.6103   -0.1973 H   0  0  0  0  0  0  0  0  0  0  0  0
    4.3081   -1.2254   -0.3146 H   0  0  0  0  0  0  0  0  0  0  0  0
    3.4662   -1.5472    1.2017 H   0  0  0  0  0  0  0  0  0  0  0  0
   -4.1904   -1.5583    0.1108 H   0  0  0  0  0  0  0  0  0  0  0  0
    3.2492    2.3715   -0.6284 H   0  0  0  0  0  0  0  0  0  0  0  0
  1  2  1  0  0  0  0
  1  3  2  0  0  0  0
  1  4  2  0  0  0  0
  1  9  1  0  0  0  0
  2 22  1  0  0  0  0
  5 12  1  0  0  0  0
  5 23  1  0  0  0  0
  6 12  2  0  0  0  0
  7  8  1  0  0  0  0
  7 10  1  0  0  0  0
  7 18  1  0  0  0  0
  8  9  1  0  0  0  0
  8 13  1  0  0  0  0
  8 14  1  0  0  0  0
  9 15  1  0  0  0  0
  9 16  1  0  0  0  0
 10 11  1  0  0  0  0
 10 12  1  0  0  0  0
 10 17  1  0  0  0  0
 11 19  1  0  0  0  0
 11 20  1  0  0  0  0
 11 21  1  0  0  0  0
M  END
> <PUBCHEM_COMPOUND_CID>
3082376

> <PUBCHEM_CONFORMER_RMSD>
0.6

> <PUBCHEM_CONFORMER_DIVERSEORDER>
1
14
18
4
20
25
6
24
23
26
12
15
13
2
17
10
19
8
5
22
16
21
3
9
7
11

> <PUBCHEM_MMFF94_PARTIAL_CHARGES>
14
1 1.38
10 0.33
12 0.66
18 0.36
2 -0.68
22 0.5
23 0.5
3 -0.65
4 -0.65
5 -0.65
6 -0.57
7 -0.9
8 0.27
9 0.11

> <PUBCHEM_EFFECTIVE_ROTOR_COUNT>
5

> <PUBCHEM_PHARMACOPHORE_FEATURES>
9
1 2 acceptor
1 3 acceptor
1 4 acceptor
1 5 acceptor
1 6 acceptor
1 7 cation
1 7 donor
3 5 6 12 anion
4 1 2 3 4 anion

> <PUBCHEM_HEAVY_ATOM_COUNT>
12

> <PUBCHEM_ATOM_DEF_STEREO_COUNT>
1

> <PUBCHEM_ATOM_UDEF_STEREO_COUNT>
0

> <PUBCHEM_BOND_DEF_STEREO_COUNT>
0

> <PUBCHEM_BOND_UDEF_STEREO_COUNT>
0

> <PUBCHEM_ISOTOPIC_ATOM_COUNT>
0

> <PUBCHEM_COMPONENT_COUNT>
1

> <PUBCHEM_CACTVS_TAUTO_COUNT>
1

> <PUBCHEM_CONFORMER_ID>
002F088800000001

> <PUBCHEM_MMFF94_ENERGY>
7.2161

> <PUBCHEM_FEATURE_SELFOVERLAP>
45.781

> <PUBCHEM_SHAPE_FINGERPRINT>
12162725 195 18335421300399334203
12932764 1 17603305933999685729
14325111 11 18412260640468153603
14390081 3 18335423456525696889
15775835 57 18041275482865378268
170605 34 17917148299854892536
18186145 218 18272651289629148627
20671657 1 18340763754774735068
20711983 171 17967528012718045933
230 275 18342469131384187392
3248919 1 18411989056658720387

> <PUBCHEM_SHAPE_MULTIPOLES>
216.48
6.98
1.5
0.96
2.6
0.2
0.17
0.04
0.22
-1.06
-0.16
0.29
0.2
-0.04

> <PUBCHEM_SHAPE_SELFOVERLAP>
400.494

> <PUBCHEM_SHAPE_VOLUME>
136.6

> <PUBCHEM_COORDINATE_TYPE>
2
5
10

$$$$

