3394
  -OEChem-06251223233D

 31 32  0     1  0  0  0  0  0999 V2000
   -0.7173   -0.9249    1.9199 F   0  0  0  0  0  0  0  0  0  0  0  0
    5.4350   -0.5394   -0.3100 O   0  0  0  0  0  0  0  0  0  0  0  0
    3.5304   -1.7672   -0.2791 O   0  0  0  0  0  0  0  0  0  0  0  0
    3.3450    0.6677   -0.2224 C   0  0  1  0  0  0  0  0  0  0  0  0
    1.8621    0.5114   -0.1994 C   0  0  0  0  0  0  0  0  0  0  0  0
   -0.9124    0.2190   -0.1559 C   0  0  0  0  0  0  0  0  0  0  0  0
    1.2465   -0.1455    0.8662 C   0  0  0  0  0  0  0  0  0  0  0  0
    1.0906    1.0220   -1.2432 C   0  0  0  0  0  0  0  0  0  0  0  0
   -0.1406   -0.2915    0.8881 C   0  0  0  0  0  0  0  0  0  0  0  0
   -0.2965    0.8758   -1.2215 C   0  0  0  0  0  0  0  0  0  0  0  0
    3.9071    1.4793    0.9626 C   0  0  0  0  0  0  0  0  0  0  0  0
   -2.3513    0.0701   -0.1377 C   0  0  0  0  0  0  0  0  0  0  0  0
    4.0829   -0.6748   -0.2757 C   0  0  0  0  0  0  0  0  0  0  0  0
   -2.9442   -1.0515   -0.7173 C   0  0  0  0  0  0  0  0  0  0  0  0
   -3.1459    1.0497    0.4579 C   0  0  0  0  0  0  0  0  0  0  0  0
   -4.3317   -1.1935   -0.7013 C   0  0  0  0  0  0  0  0  0  0  0  0
   -4.5334    0.9075    0.4742 C   0  0  0  0  0  0  0  0  0  0  0  0
   -5.1264   -0.2141   -0.1054 C   0  0  0  0  0  0  0  0  0  0  0  0
    3.6292    1.1917   -1.1454 H   0  0  0  0  0  0  0  0  0  0  0  0
    1.8294   -0.5494    1.6896 H   0  0  0  0  0  0  0  0  0  0  0  0
    1.5538    1.5366   -2.0810 H   0  0  0  0  0  0  0  0  0  0  0  0
   -0.8829    1.2800   -2.0435 H   0  0  0  0  0  0  0  0  0  0  0  0
    3.3781    2.4334    1.0637 H   0  0  0  0  0  0  0  0  0  0  0  0
    3.8074    0.9351    1.9085 H   0  0  0  0  0  0  0  0  0  0  0  0
    4.9704    1.7023    0.8230 H   0  0  0  0  0  0  0  0  0  0  0  0
   -2.3396   -1.8244   -1.1861 H   0  0  0  0  0  0  0  0  0  0  0  0
   -2.6999    1.9304    0.9141 H   0  0  0  0  0  0  0  0  0  0  0  0
   -4.7936   -2.0667   -1.1526 H   0  0  0  0  0  0  0  0  0  0  0  0
   -5.1523    1.6701    0.9380 H   0  0  0  0  0  0  0  0  0  0  0  0
   -6.2067   -0.3248   -0.0929 H   0  0  0  0  0  0  0  0  0  0  0  0
    5.8883   -1.4088   -0.3387 H   0  0  0  0  0  0  0  0  0  0  0  0
  1  9  1  0  0  0  0
  2 13  1  0  0  0  0
  2 31  1  0  0  0  0
  3 13  2  0  0  0  0
  4  5  1  0  0  0  0
  4 11  1  0  0  0  0
  4 13  1  0  0  0  0
  4 19  1  0  0  0  0
  5  7  2  0  0  0  0
  5  8  1  0  0  0  0
  6  9  2  0  0  0  0
  6 10  1  0  0  0  0
  6 12  1  0  0  0  0
  7  9  1  0  0  0  0
  7 20  1  0  0  0  0
  8 10  2  0  0  0  0
  8 21  1  0  0  0  0
 10 22  1  0  0  0  0
 11 23  1  0  0  0  0
 11 24  1  0  0  0  0
 11 25  1  0  0  0  0
 12 14  2  0  0  0  0
 12 15  1  0  0  0  0
 14 16  1  0  0  0  0
 14 26  1  0  0  0  0
 15 17  2  0  0  0  0
 15 27  1  0  0  0  0
 16 18  2  0  0  0  0
 16 28  1  0  0  0  0
 17 18  1  0  0  0  0
 17 29  1  0  0  0  0
 18 30  1  0  0  0  0
M  END
> <PUBCHEM_COMPOUND_CID>
3394

> <PUBCHEM_CONFORMER_RMSD>
0.6

> <PUBCHEM_CONFORMER_DIVERSEORDER>
1
12
4
14
17
6
15
11
7
3
5
16
13
10
8
9
2

> <PUBCHEM_MMFF94_PARTIAL_CHARGES>
24
1 -0.19
10 -0.15
13 0.66
14 -0.15
15 -0.15
16 -0.15
17 -0.15
18 -0.15
2 -0.65
20 0.15
21 0.15
22 0.15
26 0.15
27 0.15
28 0.15
29 0.15
3 -0.57
30 0.15
31 0.5
4 0.2
5 -0.14
7 -0.15
8 -0.15
9 0.19

> <PUBCHEM_EFFECTIVE_ROTOR_COUNT>
3

> <PUBCHEM_PHARMACOPHORE_FEATURES>
6
1 11 hydrophobe
1 2 acceptor
1 3 acceptor
3 2 3 13 anion
6 12 14 15 16 17 18 rings
6 5 6 7 8 9 10 rings

> <PUBCHEM_HEAVY_ATOM_COUNT>
18

> <PUBCHEM_ATOM_DEF_STEREO_COUNT>
0

> <PUBCHEM_ATOM_UDEF_STEREO_COUNT>
1

> <PUBCHEM_BOND_DEF_STEREO_COUNT>
0

> <PUBCHEM_BOND_UDEF_STEREO_COUNT>
0

> <PUBCHEM_ISOTOPIC_ATOM_COUNT>
0

> <PUBCHEM_COMPONENT_COUNT>
1

> <PUBCHEM_CACTVS_TAUTO_COUNT>
1

> <PUBCHEM_CONFORMER_ID>
00000D4200000001

> <PUBCHEM_MMFF94_ENERGY>
50.016

> <PUBCHEM_FEATURE_SELFOVERLAP>
30.505

> <PUBCHEM_SHAPE_FINGERPRINT>
10465860 250 16877943845406396147
11132069 177 17846503599469710129
11796584 16 17749106694929045967
12107183 9 17538553714149407338
12236239 1 18341894078793278517
124424 183 16660366982801942743
12670546 56 18187368739752001457
13140716 1 16987711282152126096
13167823 11 18186803573442533263
13288520 33 18259983781937535551
13583140 156 17240779392300447249
13675066 3 18272084994175895469
13760787 19 17749111050030625924
13760787 5 16630529544069397124
13862211 1 17346605166049693954
14289901 80 18041847198873366216
14911166 2 17132113533046412662
14993402 34 17131834256929485605
15788980 27 16805324400694722069
15848700 24 17989490714654446764
15848702 151 18412544344416892079
16752209 62 16845304868421565772
16945 1 17060342915764578320
17834072 33 18261392226294416652
17844677 252 18114175328743815777
1813 80 17775280590591904756
18186145 218 17561086873657912269
19026448 4 18113340794943758288
19026448 5 18186800266291263405
19784866 240 17749659805586931270
200 152 18186519908359354162
20645477 70 18113896078981884830
21267235 1 18202274789452587587
22713019 99 18060136548467922202
23402539 116 18343023306550773917
23536379 177 18187081771343125849
23557571 272 17676480679244365233
23559900 14 18186525371600017872
23569943 247 17984986148428177754
26918003 58 16805322197270991102
2748010 2 16843305801584188360
296302 2 17676203537678237165
42 15 18260828206704137213
4214541 1 18187082879745569809
474 4 18055638317307591836
4990 188 18131349730291763014
5104073 3 18113336392786968419
5374978 207 15213020453580116466
573450 72 18113621205206273487
633830 44 17703788115566076357
69090 78 18413109441785499766
7495541 125 16950569814036346827
77779 3 18187083944749590729
9971528 1 18272370854351314396
9981440 41 17259905118263008753

> <PUBCHEM_SHAPE_MULTIPOLES>
351.42
10.56
1.35
1.16
0.39
0.13
-0.15
1.33
0.12
0.33
0
0.06
-0.07
-0.16

> <PUBCHEM_SHAPE_SELFOVERLAP>
759.568

> <PUBCHEM_SHAPE_VOLUME>
193.4

> <PUBCHEM_COORDINATE_TYPE>
2
5
10

$$$$

