24798720
  -OEChem-07051213092D

 44 44  0     1  0  0  0  0  0999 V2000
    7.7331   -2.8450    0.0000 P   0  0  0  0  0  0  0  0  0  0  0  0
    7.7331    0.1550    0.0000 O   0  0  0  0  0  0  0  0  0  0  0  0
    5.1350    1.6550    0.0000 O   0  0  0  0  0  0  0  0  0  0  0  0
    5.1350   -0.3450    0.0000 O   0  0  0  0  0  0  0  0  0  0  0  0
    8.5991    1.6550    0.0000 O   0  0  0  0  0  0  0  0  0  0  0  0
    7.7331   -1.8450    0.0000 O   0  0  0  0  0  0  0  0  0  0  0  0
    8.5991    2.6550    0.0000 O   0  0  0  0  0  0  0  0  0  0  0  0
    2.5369    1.1550    0.0000 O   0  0  0  0  0  0  0  0  0  0  0  0
    3.4030    2.6550    0.0000 O   0  0  0  0  0  0  0  0  0  0  0  0
    7.7331   -3.8450    0.0000 O   0  0  0  0  0  0  0  0  0  0  0  0
    8.7331   -2.8450    0.0000 O   0  0  0  0  0  0  0  0  0  0  0  0
    6.7331   -2.8450    0.0000 O   0  0  0  0  0  0  0  0  0  0  0  0
    6.8671    2.6550    0.0000 N   0  0  0  0  0  0  0  0  0  0  0  0
    6.0010    1.1550    0.0000 C   0  0  2  0  0  0  0  0  0  0  0  0
    6.8671    1.6550    0.0000 C   0  0  2  0  0  0  0  0  0  0  0  0
    6.0010    0.1550    0.0000 C   0  0  1  0  0  0  0  0  0  0  0  0
    6.8671   -0.3450    0.0000 C   0  0  1  0  0  0  0  0  0  0  0  0
    7.7331    1.1550    0.0000 C   0  0  3  0  0  0  0  0  0  0  0  0
    6.8671   -1.3450    0.0000 C   0  0  0  0  0  0  0  0  0  0  0  0
    4.2690    1.1550    0.0000 C   0  0  2  0  0  0  0  0  0  0  0  0
    7.7331    3.1550    0.0000 C   0  0  0  0  0  0  0  0  0  0  0  0
    4.2690    0.1550    0.0000 C   0  0  0  0  0  0  0  0  0  0  0  0
    3.4030    1.6550    0.0000 C   0  0  0  0  0  0  0  0  0  0  0  0
    7.7331    4.1550    0.0000 C   0  0  0  0  0  0  0  0  0  0  0  0
    5.4641    0.8450    0.0000 H   0  0  0  0  0  0  0  0  0  0  0  0
    6.3301    1.9650    0.0000 H   0  0  0  0  0  0  0  0  0  0  0  0
    5.4641    0.4650    0.0000 H   0  0  0  0  0  0  0  0  0  0  0  0
    7.4040   -0.6550    0.0000 H   0  0  0  0  0  0  0  0  0  0  0  0
    7.7331    2.0050    0.0000 H   0  0  0  0  0  0  0  0  0  0  0  0
    6.2565   -1.2373    0.0000 H   0  0  0  0  0  0  0  0  0  0  0  0
    6.6550   -1.9276    0.0000 H   0  0  0  0  0  0  0  0  0  0  0  0
    6.3301    2.9650    0.0000 H   0  0  0  0  0  0  0  0  0  0  0  0
    5.1350   -0.9650    0.0000 H   0  0  0  0  0  0  0  0  0  0  0  0
    4.2690    1.7750    0.0000 H   0  0  0  0  0  0  0  0  0  0  0  0
    9.1360    1.3450    0.0000 H   0  0  0  0  0  0  0  0  0  0  0  0
    3.6490    0.1550    0.0000 H   0  0  0  0  0  0  0  0  0  0  0  0
    4.2690   -0.4650    0.0000 H   0  0  0  0  0  0  0  0  0  0  0  0
    4.8890    0.1550    0.0000 H   0  0  0  0  0  0  0  0  0  0  0  0
    8.3531    4.1550    0.0000 H   0  0  0  0  0  0  0  0  0  0  0  0
    7.7331    4.7750    0.0000 H   0  0  0  0  0  0  0  0  0  0  0  0
    7.1131    4.1550    0.0000 H   0  0  0  0  0  0  0  0  0  0  0  0
    2.0000    1.4650    0.0000 H   0  0  0  0  0  0  0  0  0  0  0  0
    8.2700   -4.1550    0.0000 H   0  0  0  0  0  0  0  0  0  0  0  0
    9.0431   -2.3081    0.0000 H   0  0  0  0  0  0  0  0  0  0  0  0
  1  6  1  0  0  0  0
  1 10  1  0  0  0  0
  1 11  1  0  0  0  0
  1 12  2  0  0  0  0
  2 17  1  0  0  0  0
  2 18  1  0  0  0  0
 14  3  1  6  0  0  0
 20  3  1  6  0  0  0
 16  4  1  1  0  0  0
  4 33  1  0  0  0  0
  5 18  1  0  0  0  0
  5 35  1  0  0  0  0
  6 19  1  0  0  0  0
  7 21  2  0  0  0  0
  8 23  1  0  0  0  0
  8 42  1  0  0  0  0
  9 23  2  0  0  0  0
 10 43  1  0  0  0  0
 11 44  1  0  0  0  0
 15 13  1  1  0  0  0
 13 21  1  0  0  0  0
 13 32  1  0  0  0  0
 14 15  1  0  0  0  0
 14 16  1  0  0  0  0
 14 25  1  0  0  0  0
 15 18  1  0  0  0  0
 15 26  1  0  0  0  0
 16 17  1  0  0  0  0
 16 27  1  0  0  0  0
 17 19  1  6  0  0  0
 17 28  1  0  0  0  0
 18 29  1  0  0  0  0
 19 30  1  0  0  0  0
 19 31  1  0  0  0  0
 20 22  1  0  0  0  0
 20 23  1  0  0  0  0
 20 34  1  0  0  0  0
 21 24  1  0  0  0  0
 22 36  1  0  0  0  0
 22 37  1  0  0  0  0
 22 38  1  0  0  0  0
 24 39  1  0  0  0  0
 24 40  1  0  0  0  0
 24 41  1  0  0  0  0
M  END
> <PUBCHEM_COMPOUND_CID>
24798720

> <PUBCHEM_COMPOUND_CANONICALIZED>
1

> <PUBCHEM_CACTVS_COMPLEXITY>
508

> <PUBCHEM_CACTVS_HBOND_ACCEPTOR>
11

> <PUBCHEM_CACTVS_HBOND_DONOR>
6

> <PUBCHEM_CACTVS_ROTATABLE_BOND>
7

> <PUBCHEM_CACTVS_SUBSKEYS>
AAADceByPAIAAAAAAAAAAAAAAAAAAAAAAAAkAAAAAAAAAAAAAAAAHgAQCCAACDzxgAcCCALABxAIQAGQGIIAAAAAAAAAAIFIAAATEAIAgAQHQAAHFgCXAAHwcAcAAAAAAAAAAAAAAAAAAAAAAAAAAAAAAA==

> <PUBCHEM_IUPAC_OPENEYE_NAME>
(2R)-2-[(3R,4R,5S,6R)-3-acetamido-2,5-dihydroxy-6-(phosphonooxymethyl)tetrahydropyran-4-yl]oxypropanoic acid

> <PUBCHEM_IUPAC_CAS_NAME>
(2R)-2-[[(3R,4R,5S,6R)-3-acetamido-2,5-dihydroxy-6-(phosphonooxymethyl)-4-oxanyl]oxy]propanoic acid

> <PUBCHEM_IUPAC_NAME>
(2R)-2-[(3R,4R,5S,6R)-3-acetamido-2,5-dihydroxy-6-(phosphonooxymethyl)oxan-4-yl]oxypropanoic acid

> <PUBCHEM_IUPAC_SYSTEMATIC_NAME>
(2R)-2-[(3R,4R,5S,6R)-3-acetamido-2,5-bis(oxidanyl)-6-(phosphonooxymethyl)oxan-4-yl]oxypropanoic acid

> <PUBCHEM_IUPAC_TRADITIONAL_NAME>
(2R)-2-[(3R,4R,5S,6R)-3-acetamido-2,5-dihydroxy-6-(phosphonooxymethyl)tetrahydropyran-4-yl]oxypropionic acid

> <PUBCHEM_IUPAC_INCHI>
InChI=1S/C11H20NO11P/c1-4(10(15)16)22-9-7(12-5(2)13)11(17)23-6(8(9)14)3-21-24(18,19)20/h4,6-9,11,14,17H,3H2,1-2H3,(H,12,13)(H,15,16)(H2,18,19,20)/t4-,6-,7-,8-,9-,11?/m1/s1

> <PUBCHEM_IUPAC_INCHIKEY>
NMEMTQKUEVNSPV-MKFCKLDKSA-N

> <PUBCHEM_XLOGP3_AA>
-3.7

> <PUBCHEM_EXACT_MASS>
373.077397

> <PUBCHEM_MOLECULAR_FORMULA>
C11H20NO11P

> <PUBCHEM_MOLECULAR_WEIGHT>
373.250362

> <PUBCHEM_OPENEYE_CAN_SMILES>
CC(C(=O)O)OC1C(C(OC(C1O)COP(=O)(O)O)O)NC(=O)C

> <PUBCHEM_OPENEYE_ISO_SMILES>
C[C@H](C(=O)O)O[C@H]1[C@@H]([C@H](OC([C@@H]1NC(=O)C)O)COP(=O)(O)O)O

> <PUBCHEM_CACTVS_TPSA>
192

> <PUBCHEM_MONOISOTOPIC_WEIGHT>
373.077397

> <PUBCHEM_TOTAL_CHARGE>
0

> <PUBCHEM_HEAVY_ATOM_COUNT>
24

> <PUBCHEM_ATOM_DEF_STEREO_COUNT>
5

> <PUBCHEM_ATOM_UDEF_STEREO_COUNT>
1

> <PUBCHEM_BOND_DEF_STEREO_COUNT>
0

> <PUBCHEM_BOND_UDEF_STEREO_COUNT>
0

> <PUBCHEM_ISOTOPIC_ATOM_COUNT>
0

> <PUBCHEM_COMPONENT_COUNT>
1

> <PUBCHEM_CACTVS_TAUTO_COUNT>
2

> <PUBCHEM_COORDINATE_TYPE>
1
5
255

> <PUBCHEM_BONDANNOTATIONS>
15  13  5
17  19  6
18  29  3
14  3  6
20  3  6
16  4  5

$$$$

