46173743
  -OEChem-07051212503D

 45 46  0     1  0  0  0  0  0999 V2000
   -2.4022    0.5325    1.1766 O   0  0  0  0  0  0  0  0  0  0  0  0
    2.4461   -0.9185    1.0128 O   0  0  0  0  0  0  0  0  0  0  0  0
   -0.2856   -0.4580    0.8021 O   0  0  0  0  0  0  0  0  0  0  0  0
    1.5283    2.5597    0.2166 O   0  0  0  0  0  0  0  0  0  0  0  0
   -1.4625   -2.9392    0.4564 O   0  0  0  0  0  0  0  0  0  0  0  0
   -3.2390   -2.3235   -1.7212 O   0  0  0  0  0  0  0  0  0  0  0  0
   -4.5964   -0.1997   -0.5608 O   0  0  0  0  0  0  0  0  0  0  0  0
    3.2834    1.8664   -1.9361 O   0  0  0  0  0  0  0  0  0  0  0  0
    3.1277   -0.8943   -1.7415 O   0  0  0  0  0  0  0  0  0  0  0  0
    4.3194   -2.2033    0.4229 O   0  0  0  0  0  0  0  0  0  0  0  0
   -2.4711    3.3646    0.3776 O   0  0  0  0  0  0  0  0  0  0  0  0
    1.9058    0.3878    1.2377 C   0  0  1  0  0  0  0  0  0  0  0  0
    1.9216    1.2164   -0.0544 C   0  0  2  0  0  0  0  0  0  0  0  0
   -2.2855   -1.7777    0.4229 C   0  0  2  0  0  0  0  0  0  0  0  0
   -2.5044   -1.3238   -1.0204 C   0  0  2  0  0  0  0  0  0  0  0  0
   -1.6262   -0.6669    1.2441 C   0  0  2  0  0  0  0  0  0  0  0  0
   -3.2676    0.0035   -1.0475 C   0  0  2  0  0  0  0  0  0  0  0  0
    3.3297    1.2445   -0.6546 C   0  0  1  0  0  0  0  0  0  0  0  0
   -2.5663    1.0380   -0.1576 C   0  0  1  0  0  0  0  0  0  0  0  0
    3.8972   -0.1694   -0.7770 C   0  0  1  0  0  0  0  0  0  0  0  0
    0.4931    0.2023    1.7832 C   0  0  0  0  0  0  0  0  0  0  0  0
    3.8052   -0.8832    0.5713 C   0  0  1  0  0  0  0  0  0  0  0  0
   -3.3506    2.3417   -0.0533 C   0  0  0  0  0  0  0  0  0  0  0  0
    2.4979    0.8860    2.0169 H   0  0  0  0  0  0  0  0  0  0  0  0
    1.2182    0.8222   -0.7963 H   0  0  0  0  0  0  0  0  0  0  0  0
   -3.2496   -2.0557    0.8653 H   0  0  0  0  0  0  0  0  0  0  0  0
   -1.5379   -1.2211   -1.5287 H   0  0  0  0  0  0  0  0  0  0  0  0
   -1.6070   -0.9926    2.2918 H   0  0  0  0  0  0  0  0  0  0  0  0
   -3.3605    0.3650   -2.0772 H   0  0  0  0  0  0  0  0  0  0  0  0
    3.9871    1.8582   -0.0260 H   0  0  0  0  0  0  0  0  0  0  0  0
   -1.5703    1.2565   -0.5643 H   0  0  0  0  0  0  0  0  0  0  0  0
    4.9254   -0.1522   -1.1526 H   0  0  0  0  0  0  0  0  0  0  0  0
    0.0472    1.1713    2.0343 H   0  0  0  0  0  0  0  0  0  0  0  0
    0.5326   -0.4185    2.6863 H   0  0  0  0  0  0  0  0  0  0  0  0
    4.4194   -0.3667    1.3195 H   0  0  0  0  0  0  0  0  0  0  0  0
   -4.1690    2.2657    0.6698 H   0  0  0  0  0  0  0  0  0  0  0  0
   -3.7498    2.6383   -1.0284 H   0  0  0  0  0  0  0  0  0  0  0  0
    2.1295    2.9193    0.8911 H   0  0  0  0  0  0  0  0  0  0  0  0
   -1.3462   -3.1899    1.3887 H   0  0  0  0  0  0  0  0  0  0  0  0
   -3.3784   -2.0014   -2.6281 H   0  0  0  0  0  0  0  0  0  0  0  0
   -4.5542   -0.3300    0.4015 H   0  0  0  0  0  0  0  0  0  0  0  0
    4.1865    1.8599   -2.2967 H   0  0  0  0  0  0  0  0  0  0  0  0
    2.2664   -1.1102   -1.3459 H   0  0  0  0  0  0  0  0  0  0  0  0
    4.6176   -2.4941    1.3014 H   0  0  0  0  0  0  0  0  0  0  0  0
   -2.9899    4.1852    0.4326 H   0  0  0  0  0  0  0  0  0  0  0  0
  1 16  1  0  0  0  0
  1 19  1  0  0  0  0
  2 12  1  0  0  0  0
  2 22  1  0  0  0  0
  3 16  1  0  0  0  0
  3 21  1  0  0  0  0
  4 13  1  0  0  0  0
  4 38  1  0  0  0  0
  5 14  1  0  0  0  0
  5 39  1  0  0  0  0
  6 15  1  0  0  0  0
  6 40  1  0  0  0  0
  7 17  1  0  0  0  0
  7 41  1  0  0  0  0
  8 18  1  0  0  0  0
  8 42  1  0  0  0  0
  9 20  1  0  0  0  0
  9 43  1  0  0  0  0
 10 22  1  0  0  0  0
 10 44  1  0  0  0  0
 11 23  1  0  0  0  0
 11 45  1  0  0  0  0
 12 13  1  0  0  0  0
 12 21  1  0  0  0  0
 12 24  1  0  0  0  0
 13 18  1  0  0  0  0
 13 25  1  0  0  0  0
 14 15  1  0  0  0  0
 14 16  1  0  0  0  0
 14 26  1  0  0  0  0
 15 17  1  0  0  0  0
 15 27  1  0  0  0  0
 16 28  1  0  0  0  0
 17 19  1  0  0  0  0
 17 29  1  0  0  0  0
 18 20  1  0  0  0  0
 18 30  1  0  0  0  0
 19 23  1  0  0  0  0
 19 31  1  0  0  0  0
 20 22  1  0  0  0  0
 20 32  1  0  0  0  0
 21 33  1  0  0  0  0
 21 34  1  0  0  0  0
 22 35  1  0  0  0  0
 23 36  1  0  0  0  0
 23 37  1  0  0  0  0
M  END
> <PUBCHEM_COMPOUND_CID>
46173743

> <PUBCHEM_CONFORMER_RMSD>
0.8

> <PUBCHEM_CONFORMER_DIVERSEORDER>
1
25
61
77
22
62
46
12
57
71
54
76
81
37
11
5
10
29
52
63
73
69
43
56
58
39
44
45
51
26
72
64
42
70
14
28
36
34
7
60
40
50
41
38
4
75
32
30
59
35
31
80
53
24
47
21
2
74
78
67
33
27
48
49
19
17
16
55
6
65
20
3
79
13
66
23
18
8
15
68
9

> <PUBCHEM_MMFF94_PARTIAL_CHARGES>
31
1 -0.56
10 -0.68
11 -0.68
12 0.28
13 0.28
14 0.28
15 0.28
16 0.56
17 0.28
18 0.28
19 0.28
2 -0.56
20 0.28
21 0.28
22 0.56
23 0.28
3 -0.56
38 0.4
39 0.4
4 -0.68
40 0.4
41 0.4
42 0.4
43 0.4
44 0.4
45 0.4
5 -0.68
6 -0.68
7 -0.68
8 -0.68
9 -0.68

> <PUBCHEM_EFFECTIVE_ROTOR_COUNT>
6.4

> <PUBCHEM_PHARMACOPHORE_FEATURES>
21
1 1 acceptor
1 10 acceptor
1 10 donor
1 11 acceptor
1 11 donor
1 2 acceptor
1 3 acceptor
1 4 acceptor
1 4 donor
1 5 acceptor
1 5 donor
1 6 acceptor
1 6 donor
1 7 acceptor
1 7 donor
1 8 acceptor
1 8 donor
1 9 acceptor
1 9 donor
6 1 14 15 16 17 19 rings
6 2 12 13 18 20 22 rings

> <PUBCHEM_HEAVY_ATOM_COUNT>
23

> <PUBCHEM_ATOM_DEF_STEREO_COUNT>
9

> <PUBCHEM_ATOM_UDEF_STEREO_COUNT>
1

> <PUBCHEM_BOND_DEF_STEREO_COUNT>
0

> <PUBCHEM_BOND_UDEF_STEREO_COUNT>
0

> <PUBCHEM_ISOTOPIC_ATOM_COUNT>
0

> <PUBCHEM_COMPONENT_COUNT>
1

> <PUBCHEM_CACTVS_TAUTO_COUNT>
1

> <PUBCHEM_CONFORMER_ID>
02C08E2F00000001

> <PUBCHEM_MMFF94_ENERGY>
62.8972

> <PUBCHEM_FEATURE_SELFOVERLAP>
106.696

> <PUBCHEM_SHAPE_FINGERPRINT>
10165383 225 15122646185096826136
10498660 4 16271936969164692319
10764073 3 17396364746509204851
11578080 2 17968108503439646672
12173636 292 18343299249847042539
12363563 72 16660362584549807642
12707595 3 16733257950692517264
12788726 201 18335133190046850161
13693222 15 7420950867547221186
13764800 53 13470416586203909647
14251751 93 18337957916932788269
15664445 248 17614013889080799661
16752209 62 18337403728844760241
18186145 218 16415473870402050530
18981168 100 15267066921520083994
19862831 5 17988651774043948179
20626108 58 18260844686979351322
21634736 98 18273208712355688756
22393880 68 18334847295822748044
22907989 373 18268987596921941455
23503958 25 13398622866440729174
23557571 272 18054514603601549313
23559900 14 18041577844394721960
27216 239 13326857708251926639
3082319 5 18412825755095537784
5161694 15 18410860962023609118
5262128 65 18339641114236659373
633830 44 17632573881322306152
74978 22 18341051834973206194
90316 7 8069759528346452107
9882013 296 7997678801408205256

> <PUBCHEM_SHAPE_MULTIPOLES>
408.77
8.5
2.9
1.56
2.28
0.73
-0.23
-0.72
-2.74
-1.51
-0.21
0.39
-0.19
-1.17

> <PUBCHEM_SHAPE_SELFOVERLAP>
837.336

> <PUBCHEM_SHAPE_VOLUME>
230.6

> <PUBCHEM_COORDINATE_TYPE>
2
5
10

$$$$

