442740
  -OEChem-07051212593D

 46 47  0     1  0  0  0  0  0999 V2000
    0.0096   -0.0347    0.4830 O   0  0  0  0  0  0  0  0  0  0  0  0
    3.5003    0.2770    0.9145 O   0  0  0  0  0  0  0  0  0  0  0  0
   -2.9966    2.8204    0.9134 O   0  0  0  0  0  0  0  0  0  0  0  0
    1.4383   -1.0192    1.9922 O   0  0  0  0  0  0  0  0  0  0  0  0
    3.0348    1.9963   -1.3642 O   0  0  0  0  0  0  0  0  0  0  0  0
   -2.8913   -1.4121   -0.0949 N   0  0  2  0  0  0  0  0  0  0  0  0
   -2.4512   -0.1599    0.5923 C   0  0  1  0  0  0  0  0  0  0  0  0
   -1.1035   -0.4865    1.2461 C   0  0  1  0  0  0  0  0  0  0  0  0
   -1.0965   -2.0068    1.3039 C   0  0  0  0  0  0  0  0  0  0  0  0
   -1.8039   -2.3914    0.0140 C   0  0  0  0  0  0  0  0  0  0  0  0
   -2.5019    0.9210   -0.4393 C   0  0  0  0  0  0  0  0  0  0  0  0
   -3.2042   -1.0408   -1.4901 C   0  0  0  0  0  0  0  0  0  0  0  0
   -2.9240    0.4213   -1.6042 C   0  0  0  0  0  0  0  0  0  0  0  0
    2.3503    0.1638    0.0603 C   0  0  2  0  0  0  0  0  0  0  0  0
   -2.1690    2.3354   -0.1338 C   0  0  0  0  0  0  0  0  0  0  0  0
    1.2382   -0.3721    0.9707 C   0  0  0  0  0  0  0  0  0  0  0  0
    2.7301   -0.8603   -1.0513 C   0  0  0  0  0  0  0  0  0  0  0  0
    2.0034    1.5823   -0.4596 C   0  0  1  0  0  0  0  0  0  0  0  0
    1.5905   -1.2245   -2.0074 C   0  0  0  0  0  0  0  0  0  0  0  0
    3.3444   -2.1501   -0.4818 C   0  0  0  0  0  0  0  0  0  0  0  0
    1.9023    2.6408    0.6363 C   0  0  0  0  0  0  0  0  0  0  0  0
   -3.1932    0.0391    1.3760 H   0  0  0  0  0  0  0  0  0  0  0  0
   -1.0458   -0.0438    2.2480 H   0  0  0  0  0  0  0  0  0  0  0  0
   -1.6917   -2.3451    2.1620 H   0  0  0  0  0  0  0  0  0  0  0  0
   -0.1315   -2.5124    1.3475 H   0  0  0  0  0  0  0  0  0  0  0  0
   -1.1058   -2.3299   -0.8246 H   0  0  0  0  0  0  0  0  0  0  0  0
   -2.1976   -3.4115    0.0573 H   0  0  0  0  0  0  0  0  0  0  0  0
   -4.2652   -1.2309   -1.6835 H   0  0  0  0  0  0  0  0  0  0  0  0
   -2.6207   -1.5994   -2.2302 H   0  0  0  0  0  0  0  0  0  0  0  0
   -3.0673    0.9931   -2.5095 H   0  0  0  0  0  0  0  0  0  0  0  0
   -2.3173    2.9749   -1.0104 H   0  0  0  0  0  0  0  0  0  0  0  0
   -1.1259    2.4261    0.1795 H   0  0  0  0  0  0  0  0  0  0  0  0
    3.5326   -0.4190   -1.6570 H   0  0  0  0  0  0  0  0  0  0  0  0
    1.0663    1.5813   -1.0273 H   0  0  0  0  0  0  0  0  0  0  0  0
    0.8355   -1.8308   -1.5069 H   0  0  0  0  0  0  0  0  0  0  0  0
    1.1087   -0.3331   -2.4186 H   0  0  0  0  0  0  0  0  0  0  0  0
    1.9723   -1.8101   -2.8511 H   0  0  0  0  0  0  0  0  0  0  0  0
    3.6492   -2.8191   -1.2945 H   0  0  0  0  0  0  0  0  0  0  0  0
    4.2376   -1.9458    0.1167 H   0  0  0  0  0  0  0  0  0  0  0  0
    2.6290   -2.6954    0.1420 H   0  0  0  0  0  0  0  0  0  0  0  0
    1.1419    2.3904    1.3809 H   0  0  0  0  0  0  0  0  0  0  0  0
    1.6435    3.6102    0.1955 H   0  0  0  0  0  0  0  0  0  0  0  0
    2.8615    2.7843    1.1451 H   0  0  0  0  0  0  0  0  0  0  0  0
    4.2079    0.7036    0.4011 H   0  0  0  0  0  0  0  0  0  0  0  0
   -2.7342    3.7414    1.0821 H   0  0  0  0  0  0  0  0  0  0  0  0
    2.8653    1.5669   -2.2197 H   0  0  0  0  0  0  0  0  0  0  0  0
  1  8  1  0  0  0  0
  1 16  1  0  0  0  0
  2 14  1  0  0  0  0
  2 44  1  0  0  0  0
  3 15  1  0  0  0  0
  3 45  1  0  0  0  0
  4 16  2  0  0  0  0
  5 18  1  0  0  0  0
  5 46  1  0  0  0  0
  6  7  1  0  0  0  0
  6 10  1  0  0  0  0
  6 12  1  0  0  0  0
  7  8  1  0  0  0  0
  7 11  1  0  0  0  0
  7 22  1  0  0  0  0
  8  9  1  0  0  0  0
  8 23  1  0  0  0  0
  9 10  1  0  0  0  0
  9 24  1  0  0  0  0
  9 25  1  0  0  0  0
 10 26  1  0  0  0  0
 10 27  1  0  0  0  0
 11 13  2  0  0  0  0
 11 15  1  0  0  0  0
 12 13  1  0  0  0  0
 12 28  1  0  0  0  0
 12 29  1  0  0  0  0
 13 30  1  0  0  0  0
 14 16  1  0  0  0  0
 14 17  1  0  0  0  0
 14 18  1  0  0  0  0
 15 31  1  0  0  0  0
 15 32  1  0  0  0  0
 17 19  1  0  0  0  0
 17 20  1  0  0  0  0
 17 33  1  0  0  0  0
 18 21  1  0  0  0  0
 18 34  1  0  0  0  0
 19 35  1  0  0  0  0
 19 36  1  0  0  0  0
 19 37  1  0  0  0  0
 20 38  1  0  0  0  0
 20 39  1  0  0  0  0
 20 40  1  0  0  0  0
 21 41  1  0  0  0  0
 21 42  1  0  0  0  0
 21 43  1  0  0  0  0
M  END
> <PUBCHEM_COMPOUND_CID>
442740

> <PUBCHEM_CONFORMER_RMSD>
0.8

> <PUBCHEM_CONFORMER_DIVERSEORDER>
3
13
44
31
20
32
36
40
27
43
45
17
6
24
39
21
29
47
41
46
15
16
7
37
9
19
11
48
25
22
12
5
30
38
35
8
34
28
14
2
10
1
26
18
4
33
23
42

> <PUBCHEM_MMFF94_PARTIAL_CHARGES>
20
1 -0.43
10 0.27
11 -0.28
12 0.41
13 -0.29
14 0.34
15 0.42
16 0.66
18 0.28
2 -0.68
3 -0.68
30 0.15
4 -0.57
44 0.4
45 0.4
46 0.4
5 -0.68
6 -0.81
7 0.41
8 0.28

> <PUBCHEM_EFFECTIVE_ROTOR_COUNT>
6.8

> <PUBCHEM_PHARMACOPHORE_FEATURES>
11
1 2 acceptor
1 2 donor
1 3 acceptor
1 3 donor
1 4 acceptor
1 5 acceptor
1 5 donor
1 6 cation
3 17 19 20 hydrophobe
5 6 7 11 12 13 rings
5 6 7 8 9 10 rings

> <PUBCHEM_HEAVY_ATOM_COUNT>
21

> <PUBCHEM_ATOM_DEF_STEREO_COUNT>
4

> <PUBCHEM_ATOM_UDEF_STEREO_COUNT>
0

> <PUBCHEM_BOND_DEF_STEREO_COUNT>
0

> <PUBCHEM_BOND_UDEF_STEREO_COUNT>
0

> <PUBCHEM_ISOTOPIC_ATOM_COUNT>
0

> <PUBCHEM_COMPONENT_COUNT>
1

> <PUBCHEM_CACTVS_TAUTO_COUNT>
1

> <PUBCHEM_CONFORMER_ID>
0006C17400000003

> <PUBCHEM_MMFF94_ENERGY>
48.9668

> <PUBCHEM_FEATURE_SELFOVERLAP>
56.162

> <PUBCHEM_SHAPE_FINGERPRINT>
10922523 26 18114738351626836615
11640471 11 16773243876863851622
12173636 292 18408882958338951593
128993 33 17560503097292158309
13134695 92 18335146397303056056
13693222 7 16917351437183356255
14250199 8 18342177734885602813
14386348 128 17346305055268037973
14713325 29 15117820231727614774
15775835 57 17632307816725007943
16945 1 18337103445952779842
17492 54 16683734585188179559
17980427 23 18118714138755750264
18186145 218 18202010949142018095
18522851 268 18040155123471460127
18981168 100 16200141076026506198
192875 21 18267042603411486972
20465049 17 17979624955848467765
20600515 1 18122365702881346576
21475661 188 13755013218629567007
21731516 1 15140673678872026099
22802520 49 18409162182362350667
23557571 272 17842264883329127227
23558518 356 18411416224296774377
23559900 14 18337403677162682266
238 59 18114752520629085566
2748010 2 17984416339268675771
3060560 45 17907575083892790525
5262128 65 18408040701839894117
6049 1 18130208372824106610
74978 22 18343301495840612162
7832392 63 18266176321377117369
81228 2 17701802303224933651
9709674 26 18408606928795463286

> <PUBCHEM_SHAPE_MULTIPOLES>
397.84
6.12
2.91
1.68
0.56
1.26
-0.21
0.39
-1.57
-0.24
0.18
0.11
-0.44
0.03

> <PUBCHEM_SHAPE_SELFOVERLAP>
819.36

> <PUBCHEM_SHAPE_VOLUME>
229.8

> <PUBCHEM_COORDINATE_TYPE>
2
5
10

$$$$

