15611
  -OEChem-07051213113D

 32 31  0     0  0  0  0  0  0999 V2000
   -5.4694    0.7491    0.0081 O   0  0  0  0  0  0  0  0  0  0  0  0
    5.4753   -0.7433    0.0145 O   0  0  0  0  0  0  0  0  0  0  0  0
   -4.5429   -1.3622    0.0921 O   0  0  0  0  0  0  0  0  0  0  0  0
    4.5490    1.3682    0.0780 O   0  0  0  0  0  0  0  0  0  0  0  0
   -0.6112    0.4609   -0.0657 C   0  0  0  0  0  0  0  0  0  0  0  0
    0.5963   -0.4779   -0.1041 C   0  0  0  0  0  0  0  0  0  0  0  0
   -1.9242   -0.3225   -0.0398 C   0  0  0  0  0  0  0  0  0  0  0  0
    1.9111    0.3080   -0.0847 C   0  0  0  0  0  0  0  0  0  0  0  0
   -3.1310    0.6142   -0.0355 C   0  0  0  0  0  0  0  0  0  0  0  0
    3.1369   -0.6053   -0.0886 C   0  0  0  0  0  0  0  0  0  0  0  0
   -4.4366   -0.1451    0.0290 C   0  0  0  0  0  0  0  0  0  0  0  0
    4.4434    0.1519    0.0015 C   0  0  0  0  0  0  0  0  0  0  0  0
   -6.7803    0.1778    0.0664 C   0  0  0  0  0  0  0  0  0  0  0  0
    6.7835   -0.1738    0.1290 C   0  0  0  0  0  0  0  0  0  0  0  0
   -0.5513    1.1029    0.8215 H   0  0  0  0  0  0  0  0  0  0  0  0
   -0.5910    1.1189   -0.9431 H   0  0  0  0  0  0  0  0  0  0  0  0
    0.5534   -1.1000   -1.0062 H   0  0  0  0  0  0  0  0  0  0  0  0
    0.5631   -1.1545    0.7584 H   0  0  0  0  0  0  0  0  0  0  0  0
   -1.9775   -0.9866   -0.9116 H   0  0  0  0  0  0  0  0  0  0  0  0
   -1.9511   -0.9660    0.8485 H   0  0  0  0  0  0  0  0  0  0  0  0
    1.9531    0.9787   -0.9521 H   0  0  0  0  0  0  0  0  0  0  0  0
    1.9389    0.9488    0.8058 H   0  0  0  0  0  0  0  0  0  0  0  0
   -3.0808    1.2784    0.8346 H   0  0  0  0  0  0  0  0  0  0  0  0
   -3.1309    1.2200   -0.9486 H   0  0  0  0  0  0  0  0  0  0  0  0
    3.0849   -1.2873    0.7679 H   0  0  0  0  0  0  0  0  0  0  0  0
    3.1486   -1.1965   -1.0113 H   0  0  0  0  0  0  0  0  0  0  0  0
   -6.9090   -0.3802    0.9987 H   0  0  0  0  0  0  0  0  0  0  0  0
   -6.9500   -0.4698   -0.7990 H   0  0  0  0  0  0  0  0  0  0  0  0
   -7.5080    0.9933    0.0423 H   0  0  0  0  0  0  0  0  0  0  0  0
    6.8756    0.3770    1.0699 H   0  0  0  0  0  0  0  0  0  0  0  0
    6.9878    0.4802   -0.7241 H   0  0  0  0  0  0  0  0  0  0  0  0
    7.5108   -0.9900    0.1276 H   0  0  0  0  0  0  0  0  0  0  0  0
  1 11  1  0  0  0  0
  1 13  1  0  0  0  0
  2 12  1  0  0  0  0
  2 14  1  0  0  0  0
  3 11  2  0  0  0  0
  4 12  2  0  0  0  0
  5  6  1  0  0  0  0
  5  7  1  0  0  0  0
  5 15  1  0  0  0  0
  5 16  1  0  0  0  0
  6  8  1  0  0  0  0
  6 17  1  0  0  0  0
  6 18  1  0  0  0  0
  7  9  1  0  0  0  0
  7 19  1  0  0  0  0
  7 20  1  0  0  0  0
  8 10  1  0  0  0  0
  8 21  1  0  0  0  0
  8 22  1  0  0  0  0
  9 11  1  0  0  0  0
  9 23  1  0  0  0  0
  9 24  1  0  0  0  0
 10 12  1  0  0  0  0
 10 25  1  0  0  0  0
 10 26  1  0  0  0  0
 13 27  1  0  0  0  0
 13 28  1  0  0  0  0
 13 29  1  0  0  0  0
 14 30  1  0  0  0  0
 14 31  1  0  0  0  0
 14 32  1  0  0  0  0
M  END
> <PUBCHEM_COMPOUND_CID>
15611

> <PUBCHEM_CONFORMER_RMSD>
0.8

> <PUBCHEM_CONFORMER_DIVERSEORDER>
1
150
128
159
22
17
34
83
137
89
191
37
4
165
135
174
19
154
189
155
188
9
43
6
197
166
108
144
127
2
71
193
64
169
111
186
8
78
158
42
180
105
182
116
149
51
102
177
25
190
56
167
183
87
53
16
38
141
164
82
27
157
59
32
54
196
50
109
79
91
48
153
199
18
194
163
5
67
148
30
171
97
61
104
46
36
31
11
81
195
90
73
14
140
10
161
185
106
95
118
130
26
7
156
138
70
176
173
84
77
124
145
40
168
181
132
44
86
21
12
184
187
94
23
115
69
33
35
74
100
147
92
75
60
129
99
98
179
133
85
62
119
175
3
172
45
57
28
120
110
117
121
72
13
63
126
170
96
15
107
41
139
143
134
68
136
113
131
103
146
47
65
66
123
39
142
152
29
122
125
162
49
80
151
192
24
112
55
198
88
52
20
93
101
58
178
160
76
114

> <PUBCHEM_MMFF94_PARTIAL_CHARGES>
10
1 -0.43
10 0.06
11 0.66
12 0.66
13 0.28
14 0.28
2 -0.43
3 -0.57
4 -0.57
9 0.06

> <PUBCHEM_EFFECTIVE_ROTOR_COUNT>
9

> <PUBCHEM_PHARMACOPHORE_FEATURES>
4
1 3 acceptor
1 4 acceptor
3 5 7 9 hydrophobe
3 6 8 10 hydrophobe

> <PUBCHEM_HEAVY_ATOM_COUNT>
14

> <PUBCHEM_ATOM_DEF_STEREO_COUNT>
0

> <PUBCHEM_ATOM_UDEF_STEREO_COUNT>
0

> <PUBCHEM_BOND_DEF_STEREO_COUNT>
0

> <PUBCHEM_BOND_UDEF_STEREO_COUNT>
0

> <PUBCHEM_ISOTOPIC_ATOM_COUNT>
0

> <PUBCHEM_COMPONENT_COUNT>
1

> <PUBCHEM_CACTVS_TAUTO_COUNT>
1

> <PUBCHEM_CONFORMER_ID>
00003CFB00000001

> <PUBCHEM_MMFF94_ENERGY>
10.2599

> <PUBCHEM_FEATURE_SELFOVERLAP>
20.297

> <PUBCHEM_SHAPE_FINGERPRINT>
10968037 39 18409167714955409111
11287383 113 18409446960211116370
11315181 36 18040714754185333897
12091667 2 16200151002407992797
13533116 47 17274833492828189810
14123238 8 18410573985151451172
1420 363 18342172271629010890
14251764 46 18410857667746633187
17834072 33 18334858285984499756
17834076 25 18410856568234998915
187816 3 15267341829534276405
20281389 69 18341896298748454249
20621476 8 18335979878366335021
20645477 70 18041837441230370662
20767249 213 15574436513772140472
220451 1 16845575317990283538
23035841 295 18272652350739207051
23402539 116 18409733945820843575
23521765 1 18335421274471268383
23536379 177 18411138051796369657
300161 21 18131077043361419987
33684 2 18412546526223283451
3545911 37 18342175578716892575
42788 4 18410573989731339509
8209 1 18410856568234998924

> <PUBCHEM_SHAPE_MULTIPOLES>
264.64
18.59
0.97
0.59
0.13
0
0
0.05
0.92
0
0.01
0.01
0
0.06

> <PUBCHEM_SHAPE_SELFOVERLAP>
492.419

> <PUBCHEM_SHAPE_VOLUME>
166.2

> <PUBCHEM_COORDINATE_TYPE>
2
5
10

$$$$

