440097
  -OEChem-07051212483D

 84 86  0     1  0  0  0  0  0999 V2000
   -4.4890   -3.7213   -0.2650 P   0  0  0  0  0  0  0  0  0  0  0  0
    0.9377    0.9538    0.2120 O   0  0  0  0  0  0  0  0  0  0  0  0
    0.9429    3.1159   -0.7464 O   0  0  0  0  0  0  0  0  0  0  0  0
   -2.0909    1.2719   -0.3533 O   0  0  0  0  0  0  0  0  0  0  0  0
   -2.5583    0.8092    1.9207 O   0  0  0  0  0  0  0  0  0  0  0  0
   -1.8595    3.5722   -1.8273 O   0  0  0  0  0  0  0  0  0  0  0  0
    3.2528    2.5357    0.7736 O   0  0  0  0  0  0  0  0  0  0  0  0
    3.7632   -2.7076   -1.0848 O   0  0  0  0  0  0  0  0  0  0  0  0
    5.5821    0.9950    1.3451 O   0  0  0  0  0  0  0  0  0  0  0  0
   -4.7964   -2.2051    0.1937 O   0  0  0  0  0  0  0  0  0  0  0  0
   -2.3762   -2.8512    1.5614 O   0  0  0  0  0  0  0  0  0  0  0  0
   -3.3925    4.8223   -0.0596 O   0  0  0  0  0  0  0  0  0  0  0  0
   -0.4133    0.3626    3.5673 O   0  0  0  0  0  0  0  0  0  0  0  0
   -5.8914   -4.1795   -0.9270 O   0  0  0  0  0  0  0  0  0  0  0  0
   -3.5132   -3.5487   -1.5430 O   0  0  0  0  0  0  0  0  0  0  0  0
   -3.9744   -4.6241    0.8179 O   0  0  0  0  0  0  0  0  0  0  0  0
    1.3991   -1.1463   -1.7314 N   0  0  0  0  0  0  0  0  0  0  0  0
   -4.7428    0.4661   -1.0706 N   0  0  0  0  0  0  0  0  0  0  0  0
    6.1085   -1.1013   -0.6013 N   0  0  0  0  0  0  0  0  0  0  0  0
    1.0342   -3.3384   -0.8197 N   0  0  0  0  0  0  0  0  0  0  0  0
   -0.0026   -2.6799   -2.7397 N   0  0  0  0  0  0  0  0  0  0  0  0
    8.3187   -1.6530   -0.2216 N   0  0  0  0  0  0  0  0  0  0  0  0
    6.9795   -1.4451    1.6109 N   0  0  0  0  0  0  0  0  0  0  0  0
   -1.0999    2.2091    0.0259 C   0  0  2  0  0  0  0  0  0  0  0  0
    2.2286    0.6539   -0.3265 C   0  0  2  0  0  0  0  0  0  0  0  0
   -1.3671    3.6059   -0.5016 C   0  0  1  0  0  0  0  0  0  0  0  0
    0.2374    1.8728   -0.6136 C   0  0  2  0  0  0  0  0  0  0  0  0
    2.3135   -0.8455   -0.6155 C   0  0  2  0  0  0  0  0  0  0  0  0
    3.2921    1.1085    0.6748 C   0  0  1  0  0  0  0  0  0  0  0  0
    0.0392    4.2013   -0.4514 C   0  0  2  0  0  0  0  0  0  0  0  0
    3.7226   -1.2794   -1.0280 C   0  0  1  0  0  0  0  0  0  0  0  0
    4.7009    0.6804    0.2635 C   0  0  2  0  0  0  0  0  0  0  0  0
    4.7821   -0.8195   -0.0241 C   0  0  2  0  0  0  0  0  0  0  0  0
   -3.1052    1.1438    0.6416 C   0  0  2  0  0  0  0  0  0  0  0  0
   -4.2080    0.1477    0.2533 C   0  0  2  0  0  0  0  0  0  0  0  0
   -3.6970   -1.2984    0.3043 C   0  0  1  0  0  0  0  0  0  0  0  0
   -3.0027   -1.5728    1.6430 C   0  0  2  0  0  0  0  0  0  0  0  0
   -1.9636   -0.4914    1.9622 C   0  0  2  0  0  0  0  0  0  0  0  0
    0.3052    5.3368   -1.4265 C   0  0  0  0  0  0  0  0  0  0  0  0
   -2.3237    4.3830    0.3514 C   0  0  0  0  0  0  0  0  0  0  0  0
   -1.3659   -0.6633    3.3562 C   0  0  0  0  0  0  0  0  0  0  0  0
   -5.6210    1.6236   -1.0059 C   0  0  0  0  0  0  0  0  0  0  0  0
    0.8622   -2.3217   -1.7325 C   0  0  0  0  0  0  0  0  0  0  0  0
    7.0521   -1.3782    0.2373 C   0  0  0  0  0  0  0  0  0  0  0  0
   -0.9551    2.2369    1.1143 H   0  0  0  0  0  0  0  0  0  0  0  0
    2.3897    1.1942   -1.2714 H   0  0  0  0  0  0  0  0  0  0  0  0
    0.0997    1.4331   -1.6095 H   0  0  0  0  0  0  0  0  0  0  0  0
    2.0008   -1.3590    0.3021 H   0  0  0  0  0  0  0  0  0  0  0  0
    3.0484    0.7350    1.6768 H   0  0  0  0  0  0  0  0  0  0  0  0
    0.2836    4.5401    0.5636 H   0  0  0  0  0  0  0  0  0  0  0  0
    3.9589   -0.9090   -2.0334 H   0  0  0  0  0  0  0  0  0  0  0  0
    5.0425    1.2646   -0.5996 H   0  0  0  0  0  0  0  0  0  0  0  0
    4.6202   -1.3922    0.8972 H   0  0  0  0  0  0  0  0  0  0  0  0
   -3.5716    2.1228    0.7798 H   0  0  0  0  0  0  0  0  0  0  0  0
   -5.0153    0.2063    0.9985 H   0  0  0  0  0  0  0  0  0  0  0  0
   -2.9954   -1.4662   -0.5217 H   0  0  0  0  0  0  0  0  0  0  0  0
   -3.7555   -1.6281    2.4389 H   0  0  0  0  0  0  0  0  0  0  0  0
   -1.1391   -0.5286    1.2393 H   0  0  0  0  0  0  0  0  0  0  0  0
    0.2345    5.0013   -2.4665 H   0  0  0  0  0  0  0  0  0  0  0  0
   -0.3895    6.1672   -1.2706 H   0  0  0  0  0  0  0  0  0  0  0  0
    1.3270    5.7102   -1.2966 H   0  0  0  0  0  0  0  0  0  0  0  0
   -2.0255    4.5347    1.4035 H   0  0  0  0  0  0  0  0  0  0  0  0
   -1.2113    3.1208   -2.3932 H   0  0  0  0  0  0  0  0  0  0  0  0
   -5.2816   -0.3296   -1.4133 H   0  0  0  0  0  0  0  0  0  0  0  0
    3.4434    2.9024   -0.1067 H   0  0  0  0  0  0  0  0  0  0  0  0
    3.6746   -3.0513   -0.1799 H   0  0  0  0  0  0  0  0  0  0  0  0
   -0.8692   -1.6326    3.4608 H   0  0  0  0  0  0  0  0  0  0  0  0
   -2.1383   -0.5666    4.1264 H   0  0  0  0  0  0  0  0  0  0  0  0
    5.2281    0.5870    2.1534 H   0  0  0  0  0  0  0  0  0  0  0  0
   -1.6874   -2.8049    0.8764 H   0  0  0  0  0  0  0  0  0  0  0  0
   -6.0699    1.7842   -1.9919 H   0  0  0  0  0  0  0  0  0  0  0  0
   -6.4409    1.4791   -0.2945 H   0  0  0  0  0  0  0  0  0  0  0  0
   -5.0821    2.5415   -0.7566 H   0  0  0  0  0  0  0  0  0  0  0  0
   -0.0469    0.2352    4.4590 H   0  0  0  0  0  0  0  0  0  0  0  0
    1.6339   -3.2679   -0.0077 H   0  0  0  0  0  0  0  0  0  0  0  0
    0.5468   -4.2207   -0.9361 H   0  0  0  0  0  0  0  0  0  0  0  0
   -0.2308   -2.0343   -3.4879 H   0  0  0  0  0  0  0  0  0  0  0  0
   -0.4416   -3.5938   -2.7622 H   0  0  0  0  0  0  0  0  0  0  0  0
    8.5299   -1.6423   -1.2136 H   0  0  0  0  0  0  0  0  0  0  0  0
    9.0775   -1.8724    0.4143 H   0  0  0  0  0  0  0  0  0  0  0  0
    6.1337   -1.2695    2.1380 H   0  0  0  0  0  0  0  0  0  0  0  0
    7.8027   -1.6757    2.1576 H   0  0  0  0  0  0  0  0  0  0  0  0
   -6.0006   -5.1127   -1.2089 H   0  0  0  0  0  0  0  0  0  0  0  0
   -3.1353   -4.3502   -1.9637 H   0  0  0  0  0  0  0  0  0  0  0  0
  1 10  1  0  0  0  0
  1 14  1  0  0  0  0
  1 15  1  0  0  0  0
  1 16  2  0  0  0  0
  2 25  1  0  0  0  0
  2 27  1  0  0  0  0
  3 27  1  0  0  0  0
  3 30  1  0  0  0  0
  4 24  1  0  0  0  0
  4 34  1  0  0  0  0
  5 34  1  0  0  0  0
  5 38  1  0  0  0  0
  6 26  1  0  0  0  0
  6 63  1  0  0  0  0
  7 29  1  0  0  0  0
  7 65  1  0  0  0  0
  8 31  1  0  0  0  0
  8 66  1  0  0  0  0
  9 32  1  0  0  0  0
  9 69  1  0  0  0  0
 10 36  1  0  0  0  0
 11 37  1  0  0  0  0
 11 70  1  0  0  0  0
 12 40  2  0  0  0  0
 13 41  1  0  0  0  0
 13 74  1  0  0  0  0
 14 83  1  0  0  0  0
 15 84  1  0  0  0  0
 17 28  1  0  0  0  0
 17 43  2  0  0  0  0
 18 35  1  0  0  0  0
 18 42  1  0  0  0  0
 18 64  1  0  0  0  0
 19 33  1  0  0  0  0
 19 44  2  0  0  0  0
 20 43  1  0  0  0  0
 20 75  1  0  0  0  0
 20 76  1  0  0  0  0
 21 43  1  0  0  0  0
 21 77  1  0  0  0  0
 21 78  1  0  0  0  0
 22 44  1  0  0  0  0
 22 79  1  0  0  0  0
 22 80  1  0  0  0  0
 23 44  1  0  0  0  0
 23 81  1  0  0  0  0
 23 82  1  0  0  0  0
 24 26  1  0  0  0  0
 24 27  1  0  0  0  0
 24 45  1  0  0  0  0
 25 28  1  0  0  0  0
 25 29  1  0  0  0  0
 25 46  1  0  0  0  0
 26 30  1  0  0  0  0
 26 40  1  0  0  0  0
 27 47  1  0  0  0  0
 28 31  1  0  0  0  0
 28 48  1  0  0  0  0
 29 32  1  0  0  0  0
 29 49  1  0  0  0  0
 30 39  1  0  0  0  0
 30 50  1  0  0  0  0
 31 33  1  0  0  0  0
 31 51  1  0  0  0  0
 32 33  1  0  0  0  0
 32 52  1  0  0  0  0
 33 53  1  0  0  0  0
 34 35  1  0  0  0  0
 34 54  1  0  0  0  0
 35 36  1  0  0  0  0
 35 55  1  0  0  0  0
 36 37  1  0  0  0  0
 36 56  1  0  0  0  0
 37 38  1  0  0  0  0
 37 57  1  0  0  0  0
 38 41  1  0  0  0  0
 38 58  1  0  0  0  0
 39 59  1  0  0  0  0
 39 60  1  0  0  0  0
 39 61  1  0  0  0  0
 40 62  1  0  0  0  0
 41 67  1  0  0  0  0
 41 68  1  0  0  0  0
 42 71  1  0  0  0  0
 42 72  1  0  0  0  0
 42 73  1  0  0  0  0
M  END
> <PUBCHEM_COMPOUND_CID>
440097

> <PUBCHEM_CONFORMER_RMSD>
1.4

> <PUBCHEM_CONFORMER_DIVERSEORDER>
1
6
20
18
17
13
30
10
9
16
19
8
28
7
23
15
22
5
2
25
29
31
26
24
21
3
14
27
12
4
11

> <PUBCHEM_MMFF94_PARTIAL_CHARGES>
61
1 1.51
10 -0.55
11 -0.68
12 -0.57
13 -0.68
14 -0.77
15 -0.77
16 -0.7
17 -0.7
18 -0.9
19 -0.7
2 -0.56
20 -0.85
21 -0.85
22 -0.85
23 -0.85
24 0.28
25 0.28
26 0.34
27 0.56
28 0.25
29 0.28
3 -0.56
30 0.28
31 0.28
32 0.28
33 0.25
34 0.56
35 0.27
36 0.28
37 0.28
38 0.28
4 -0.56
40 0.45
41 0.28
42 0.27
43 0.55
44 0.55
5 -0.56
6 -0.68
62 0.06
63 0.4
64 0.36
65 0.4
66 0.4
69 0.4
7 -0.68
70 0.4
74 0.4
75 0.4
76 0.4
77 0.4
78 0.4
79 0.4
8 -0.68
80 0.4
81 0.4
82 0.4
83 0.5
84 0.5
9 -0.68

> <PUBCHEM_EFFECTIVE_ROTOR_COUNT>
14.4

> <PUBCHEM_PHARMACOPHORE_FEATURES>
32
1 11 acceptor
1 11 donor
1 12 acceptor
1 13 acceptor
1 13 donor
1 14 acceptor
1 15 acceptor
1 16 acceptor
1 18 cation
1 18 donor
1 2 acceptor
1 20 donor
1 21 donor
1 22 donor
1 23 donor
1 3 acceptor
1 4 acceptor
1 5 acceptor
1 6 acceptor
1 6 donor
1 7 acceptor
1 7 donor
1 8 acceptor
1 8 donor
1 9 acceptor
1 9 donor
4 1 14 15 16 anion
4 17 20 21 43 cation
4 19 22 23 44 cation
5 3 24 26 27 30 rings
6 25 28 29 31 32 33 rings
6 5 34 35 36 37 38 rings

> <PUBCHEM_HEAVY_ATOM_COUNT>
44

> <PUBCHEM_ATOM_DEF_STEREO_COUNT>
15

> <PUBCHEM_ATOM_UDEF_STEREO_COUNT>
0

> <PUBCHEM_BOND_DEF_STEREO_COUNT>
0

> <PUBCHEM_BOND_UDEF_STEREO_COUNT>
0

> <PUBCHEM_ISOTOPIC_ATOM_COUNT>
0

> <PUBCHEM_COMPONENT_COUNT>
1

> <PUBCHEM_CACTVS_TAUTO_COUNT>
4

> <PUBCHEM_CONFORMER_ID>
0006B72100000001

> <PUBCHEM_MMFF94_ENERGY>
105.1072

> <PUBCHEM_FEATURE_SELFOVERLAP>
162.669

> <PUBCHEM_SHAPE_FINGERPRINT>
10290309 65 17477200995590752556
10675989 125 16537923499860404700
11136131 41 17547298800519763720
11828532 37 17558815210196003579
12788726 201 17987520483937961848
13560911 43 18194113024029380423
13782708 43 18259983791213311146
140371 6 18411411826483125645
14068700 675 18131350800186837652
14117953 113 18335697252517724783
14659021 117 18340772636382221457
14844126 61 18200303450217789881
15274700 242 17983305008275795329
15361156 5 18201144499730862100
16114785 44 17826500365215888913
16993438 75 18338240482541087718
19315092 285 17896032157568683680
20764821 26 18198596900870918039
21133410 52 17828767236322860926
21133410 58 17906743505622103311
23559900 14 18342179920919169464
3383291 50 18342731966746347641
4280585 95 18413110558587604113
4403749 210 18262249914790602680
469060 322 18336816542063982542
508706 21 18267010833902258878
6669772 16 17764871690374888005

> <PUBCHEM_SHAPE_MULTIPOLES>
786.44
13.98
6.73
2.16
21.98
4.06
1.38
-11.91
0.69
-8.34
-2.83
-0.8
-0.93
0.74

> <PUBCHEM_SHAPE_SELFOVERLAP>
1619.305

> <PUBCHEM_SHAPE_VOLUME>
452.3

> <PUBCHEM_COORDINATE_TYPE>
2
5
10

$$$$

