11548
  -OEChem-07051212542D

 29 27  0     1  0  0  0  0  0999 V2000
    2.8850    0.0000    0.0000 Cl  0  5  0  0  0  0  0  0  0  0  0  0
    4.0010    4.6200    0.0000 O   0  0  0  0  0  0  0  0  0  0  0  0
    4.8671    3.1200    0.0000 O   0  0  0  0  0  0  0  0  0  0  0  0
    1.4030    4.1200    0.0000 N   0  3  0  0  0  0  0  0  0  0  0  0
    5.7331    4.6200    0.0000 N   0  0  0  0  0  0  0  0  0  0  0  0
    2.2690    4.6200    0.0000 C   0  0  0  0  0  0  0  0  0  0  0  0
    3.1350    4.1200    0.0000 C   0  0  3  0  0  0  0  0  0  0  0  0
    0.5369    3.6200    0.0000 C   0  0  0  0  0  0  0  0  0  0  0  0
    0.9030    4.9860    0.0000 C   0  0  0  0  0  0  0  0  0  0  0  0
    1.9030    3.2540    0.0000 C   0  0  0  0  0  0  0  0  0  0  0  0
    3.1350    3.1200    0.0000 C   0  0  0  0  0  0  0  0  0  0  0  0
    4.8671    4.1200    0.0000 C   0  0  0  0  0  0  0  0  0  0  0  0
    2.6675    5.0950    0.0000 H   0  0  0  0  0  0  0  0  0  0  0  0
    1.8705    5.0950    0.0000 H   0  0  0  0  0  0  0  0  0  0  0  0
    3.1350    4.9700    0.0000 H   0  0  0  0  0  0  0  0  0  0  0  0
    0.2269    4.1569    0.0000 H   0  0  0  0  0  0  0  0  0  0  0  0
    0.0000    3.3100    0.0000 H   0  0  0  0  0  0  0  0  0  0  0  0
    0.8469    3.0831    0.0000 H   0  0  0  0  0  0  0  0  0  0  0  0
    1.4399    5.2960    0.0000 H   0  0  0  0  0  0  0  0  0  0  0  0
    0.5930    5.5230    0.0000 H   0  0  0  0  0  0  0  0  0  0  0  0
    0.3660    4.6760    0.0000 H   0  0  0  0  0  0  0  0  0  0  0  0
    1.3660    2.9440    0.0000 H   0  0  0  0  0  0  0  0  0  0  0  0
    2.2130    2.7170    0.0000 H   0  0  0  0  0  0  0  0  0  0  0  0
    2.4399    3.5640    0.0000 H   0  0  0  0  0  0  0  0  0  0  0  0
    2.5150    3.1200    0.0000 H   0  0  0  0  0  0  0  0  0  0  0  0
    3.1350    2.5000    0.0000 H   0  0  0  0  0  0  0  0  0  0  0  0
    3.7550    3.1200    0.0000 H   0  0  0  0  0  0  0  0  0  0  0  0
    6.2700    4.3100    0.0000 H   0  0  0  0  0  0  0  0  0  0  0  0
    5.7331    5.2400    0.0000 H   0  0  0  0  0  0  0  0  0  0  0  0
  2  7  1  0  0  0  0
  2 12  1  0  0  0  0
  3 12  2  0  0  0  0
  4  6  1  0  0  0  0
  4  8  1  0  0  0  0
  4  9  1  0  0  0  0
  4 10  1  0  0  0  0
  5 12  1  0  0  0  0
  5 28  1  0  0  0  0
  5 29  1  0  0  0  0
  6  7  1  0  0  0  0
  6 13  1  0  0  0  0
  6 14  1  0  0  0  0
  7 11  1  0  0  0  0
  7 15  1  0  0  0  0
  8 16  1  0  0  0  0
  8 17  1  0  0  0  0
  8 18  1  0  0  0  0
  9 19  1  0  0  0  0
  9 20  1  0  0  0  0
  9 21  1  0  0  0  0
 10 22  1  0  0  0  0
 10 23  1  0  0  0  0
 10 24  1  0  0  0  0
 11 25  1  0  0  0  0
 11 26  1  0  0  0  0
 11 27  1  0  0  0  0
M  CHG  2   1  -1   4   1
M  END
> <PUBCHEM_COMPOUND_CID>
11548

> <PUBCHEM_COMPOUND_CANONICALIZED>
1

> <PUBCHEM_CACTVS_COMPLEXITY>
140

> <PUBCHEM_CACTVS_HBOND_ACCEPTOR>
3

> <PUBCHEM_CACTVS_HBOND_DONOR>
1

> <PUBCHEM_CACTVS_ROTATABLE_BOND>
4

> <PUBCHEM_CACTVS_SUBSKEYS>
AAADceBjMAAEAAAAAAAAAAAAAAAAAAAAAAAAAAAAAAAAAAAAAAAAHgAQAAAACBThgAYCCANABAAIAAAAGAAAAAAAAAAAAAAIAAECAAAAAAANAAAAAAAQAAAAAAAAAAAAAAAAAAAAAAAAAAAAAAAAAAAAAA==

> <PUBCHEM_IUPAC_OPENEYE_NAME>
2-carbamoyloxypropyl(trimethyl)ammonium chloride

> <PUBCHEM_IUPAC_CAS_NAME>
2-carbamoyloxypropyl(trimethyl)ammonium chloride

> <PUBCHEM_IUPAC_NAME>
2-carbamoyloxypropyl(trimethyl)azanium chloride

> <PUBCHEM_IUPAC_SYSTEMATIC_NAME>
2-aminocarbonyloxypropyl(trimethyl)azanium chloride

> <PUBCHEM_IUPAC_TRADITIONAL_NAME>
2-carbamoyloxypropyl(trimethyl)ammonium chloride

> <PUBCHEM_IUPAC_INCHI>
InChI=1S/C7H16N2O2.ClH/c1-6(11-7(8)10)5-9(2,3)4;/h6H,5H2,1-4H3,(H-,8,10);1H

> <PUBCHEM_IUPAC_INCHIKEY>
XXRMYXBSBOVVBH-UHFFFAOYSA-N

> <PUBCHEM_EXACT_MASS>
196.097855

> <PUBCHEM_MOLECULAR_FORMULA>
C7H17ClN2O2

> <PUBCHEM_MOLECULAR_WEIGHT>
196.67508

> <PUBCHEM_OPENEYE_CAN_SMILES>
CC(C[N+](C)(C)C)OC(=O)N.[Cl-]

> <PUBCHEM_OPENEYE_ISO_SMILES>
CC(C[N+](C)(C)C)OC(=O)N.[Cl-]

> <PUBCHEM_CACTVS_TPSA>
52.3

> <PUBCHEM_MONOISOTOPIC_WEIGHT>
196.097855

> <PUBCHEM_TOTAL_CHARGE>
0

> <PUBCHEM_HEAVY_ATOM_COUNT>
12

> <PUBCHEM_ATOM_DEF_STEREO_COUNT>
0

> <PUBCHEM_ATOM_UDEF_STEREO_COUNT>
1

> <PUBCHEM_BOND_DEF_STEREO_COUNT>
0

> <PUBCHEM_BOND_UDEF_STEREO_COUNT>
0

> <PUBCHEM_ISOTOPIC_ATOM_COUNT>
0

> <PUBCHEM_COMPONENT_COUNT>
2

> <PUBCHEM_CACTVS_TAUTO_COUNT>
2

> <PUBCHEM_COORDINATE_TYPE>
1
5
255

> <PUBCHEM_BONDANNOTATIONS>
7  15  3

$$$$

