10911986
  -OEChem-07051213103D

 43 44  0     1  0  0  0  0  0999 V2000
    4.6359    0.3680   -0.1286 O   0  0  0  0  0  0  0  0  0  0  0  0
   -4.6684    1.5430   -0.4352 O   0  0  0  0  0  0  0  0  0  0  0  0
   -0.4719   -0.0868   -0.4883 N   0  0  0  0  0  0  0  0  0  0  0  0
    0.5998   -1.0470   -0.8056 C   0  0  2  0  0  0  0  0  0  0  0  0
    0.7407   -2.1111    0.3111 C   0  0  1  0  0  0  0  0  0  0  0  0
   -0.6055   -2.8134    0.5547 C   0  0  0  0  0  0  0  0  0  0  0  0
   -1.7694   -0.7595   -0.3237 C   0  0  1  0  0  0  0  0  0  0  0  0
   -1.7164   -1.7976    0.8062 C   0  0  0  0  0  0  0  0  0  0  0  0
    1.8865   -0.2449   -1.0155 C   0  0  0  0  0  0  0  0  0  0  0  0
    2.2610    0.5299    0.2497 C   0  0  0  0  0  0  0  0  0  0  0  0
    1.8104   -3.1585   -0.0079 C   0  0  0  0  0  0  0  0  0  0  0  0
    3.5908    1.3038    0.1450 C   0  0  0  0  0  0  0  0  0  0  0  0
   -2.8432    0.2847   -0.1166 C   0  0  0  0  0  0  0  0  0  0  0  0
    3.9012    1.9765    1.4862 C   0  0  0  0  0  0  0  0  0  0  0  0
    3.5722    2.3499   -0.9718 C   0  0  0  0  0  0  0  0  0  0  0  0
   -2.9409    1.1917    0.9592 C   0  0  0  0  0  0  0  0  0  0  0  0
   -3.9115    0.5331   -0.9385 C   0  0  0  0  0  0  0  0  0  0  0  0
   -4.0710    1.9382    0.7197 C   0  0  0  0  0  0  0  0  0  0  0  0
    0.3593   -1.5471   -1.7537 H   0  0  0  0  0  0  0  0  0  0  0  0
    1.0052   -1.6401    1.2644 H   0  0  0  0  0  0  0  0  0  0  0  0
   -0.5309   -3.4916    1.4130 H   0  0  0  0  0  0  0  0  0  0  0  0
   -0.8685   -3.4287   -0.3155 H   0  0  0  0  0  0  0  0  0  0  0  0
   -2.0042   -1.2855   -1.2606 H   0  0  0  0  0  0  0  0  0  0  0  0
   -2.6784   -2.3185    0.8874 H   0  0  0  0  0  0  0  0  0  0  0  0
   -1.5440   -1.3066    1.7730 H   0  0  0  0  0  0  0  0  0  0  0  0
    2.7032   -0.9067   -1.3221 H   0  0  0  0  0  0  0  0  0  0  0  0
    1.7367    0.4533   -1.8483 H   0  0  0  0  0  0  0  0  0  0  0  0
   -0.5390    0.5954   -1.2445 H   0  0  0  0  0  0  0  0  0  0  0  0
    1.4673    1.2372    0.5189 H   0  0  0  0  0  0  0  0  0  0  0  0
    2.3713   -0.1654    1.0872 H   0  0  0  0  0  0  0  0  0  0  0  0
    2.8120   -2.7186   -0.0142 H   0  0  0  0  0  0  0  0  0  0  0  0
    1.8139   -3.9521    0.7474 H   0  0  0  0  0  0  0  0  0  0  0  0
    1.6326   -3.6233   -0.9834 H   0  0  0  0  0  0  0  0  0  0  0  0
    3.1400    2.7177    1.7512 H   0  0  0  0  0  0  0  0  0  0  0  0
    3.9615    1.2375    2.2934 H   0  0  0  0  0  0  0  0  0  0  0  0
    4.8762    2.4760    1.4542 H   0  0  0  0  0  0  0  0  0  0  0  0
    2.7392    3.0502   -0.8544 H   0  0  0  0  0  0  0  0  0  0  0  0
    4.5063    2.9238   -0.9775 H   0  0  0  0  0  0  0  0  0  0  0  0
    3.5056    1.8820   -1.9595 H   0  0  0  0  0  0  0  0  0  0  0  0
   -2.2776    1.2965    1.8059 H   0  0  0  0  0  0  0  0  0  0  0  0
   -4.2611    0.1069   -1.8677 H   0  0  0  0  0  0  0  0  0  0  0  0
    4.6496   -0.2881    0.5892 H   0  0  0  0  0  0  0  0  0  0  0  0
   -4.5595    2.7451    1.2461 H   0  0  0  0  0  0  0  0  0  0  0  0
  1 12  1  0  0  0  0
  1 42  1  0  0  0  0
  2 17  1  0  0  0  0
  2 18  1  0  0  0  0
  3  4  1  0  0  0  0
  3  7  1  0  0  0  0
  3 28  1  0  0  0  0
  4  5  1  0  0  0  0
  4  9  1  0  0  0  0
  4 19  1  0  0  0  0
  5  6  1  0  0  0  0
  5 11  1  0  0  0  0
  5 20  1  0  0  0  0
  6  8  1  0  0  0  0
  6 21  1  0  0  0  0
  6 22  1  0  0  0  0
  7  8  1  0  0  0  0
  7 13  1  0  0  0  0
  7 23  1  0  0  0  0
  8 24  1  0  0  0  0
  8 25  1  0  0  0  0
  9 10  1  0  0  0  0
  9 26  1  0  0  0  0
  9 27  1  0  0  0  0
 10 12  1  0  0  0  0
 10 29  1  0  0  0  0
 10 30  1  0  0  0  0
 11 31  1  0  0  0  0
 11 32  1  0  0  0  0
 11 33  1  0  0  0  0
 12 14  1  0  0  0  0
 12 15  1  0  0  0  0
 13 16  1  0  0  0  0
 13 17  2  0  0  0  0
 14 34  1  0  0  0  0
 14 35  1  0  0  0  0
 14 36  1  0  0  0  0
 15 37  1  0  0  0  0
 15 38  1  0  0  0  0
 15 39  1  0  0  0  0
 16 18  2  0  0  0  0
 16 40  1  0  0  0  0
 17 41  1  0  0  0  0
 18 43  1  0  0  0  0
M  END
> <PUBCHEM_COMPOUND_CID>
10911986

> <PUBCHEM_CONFORMER_RMSD>
0.6

> <PUBCHEM_CONFORMER_DIVERSEORDER>
1
26
24
15
28
17
12
27
2
23
25
7
21
5
4
9
19
18
14
3
6
10
20
16
11
22
8
13

> <PUBCHEM_MMFF94_PARTIAL_CHARGES>
15
1 -0.68
12 0.28
13 -0.18
16 -0.15
17 -0.01
18 -0.01
2 -0.28
28 0.36
3 -0.9
4 0.27
40 0.15
41 0.15
42 0.4
43 0.15
7 0.45

> <PUBCHEM_EFFECTIVE_ROTOR_COUNT>
5.2

> <PUBCHEM_PHARMACOPHORE_FEATURES>
8
1 1 acceptor
1 1 donor
1 2 acceptor
1 3 cation
1 3 donor
3 12 14 15 hydrophobe
5 2 13 16 17 18 rings
6 3 4 5 6 7 8 rings

> <PUBCHEM_HEAVY_ATOM_COUNT>
18

> <PUBCHEM_ATOM_DEF_STEREO_COUNT>
3

> <PUBCHEM_ATOM_UDEF_STEREO_COUNT>
0

> <PUBCHEM_BOND_DEF_STEREO_COUNT>
0

> <PUBCHEM_BOND_UDEF_STEREO_COUNT>
0

> <PUBCHEM_ISOTOPIC_ATOM_COUNT>
0

> <PUBCHEM_COMPONENT_COUNT>
1

> <PUBCHEM_CACTVS_TAUTO_COUNT>
1

> <PUBCHEM_CONFORMER_ID>
00A680F200000001

> <PUBCHEM_MMFF94_ENERGY>
21.6738

> <PUBCHEM_FEATURE_SELFOVERLAP>
40.594

> <PUBCHEM_SHAPE_FINGERPRINT>
11543360 7 16588027896333336629
12173636 292 18122346770570585590
122479 349 18337108969286036188
12390115 104 18196353858864827444
12403259 327 15554153822980843581
12633257 1 17845950562712407808
12788726 201 17552077299555730514
13134695 92 17765718305532794471
13140716 1 18200589323647375291
13464514 151 18261947544091011298
13583140 156 16128382523571797653
13878862 14 17839193144890658525
14123255 52 18411700984638649289
14178342 30 18130780123302855531
14787075 74 18262519166089656023
14848178 96 18409728473748106884
14957384 54 18059863818071142856
15342168 16 18342735230642099533
15342816 4 8718556021143662480
15534591 1 18335143050996180935
1741750 31 18410855421521117442
17834072 32 18340481158458632396
1798214 55 18410011030903478344
18186145 218 18338507672746721999
18785283 64 18272083950525398394
19765921 60 18333452053805048411
204376 136 18343298158919918613
20510252 161 18121772825094899490
20671657 1 18337672047883280623
20871998 22 8934993750778015359
212916 134 18263944167202533472
21401589 2 18115307756821386385
21403212 168 18127997349835884282
21452121 103 18198349648362290261
21524375 3 18334579035843079086
21731228 192 18201438051823033522
22182937 141 18337101264093666785
2255824 54 18192995048231417959
235170 7 15647047140526540493
23558518 356 18055916498640238514
23559900 14 18335136540216280062
2748010 2 18128515193948460119
283562 15 18052542075616033547
3071541 12 18338794649281646166
3091708 16 9263621279282591922
474 4 18412262852386990573
5104073 3 18127962204603791681
526903 126 18334293158888964857
5895379 119 16736635886335878273
6328613 192 18339356367587191164
633830 44 18335422352993382988
69474 34 18055086599337137298
7364860 26 18265051529751373574
7808743 9 18125993880736851452
84936 182 18261394510968994625
90316 7 16988292975247524916
9981440 41 18337963289568085355

> <PUBCHEM_SHAPE_MULTIPOLES>
353.71
8.74
3.28
1.11
0.45
1.91
0.09
-8.47
0.25
-1.08
0.61
-0.25
-0.35
0.19

> <PUBCHEM_SHAPE_SELFOVERLAP>
719.387

> <PUBCHEM_SHAPE_VOLUME>
207.9

> <PUBCHEM_COORDINATE_TYPE>
2
5
10

$$$$

