151228
  -OEChem-07051212453D

 19 20  0     0  0  0  0  0  0999 V2000
   -2.6280    0.3176    0.0003 O   0  0  0  0  0  0  0  0  0  0  0  0
    0.8963   -2.1705   -0.0001 O   0  0  0  0  0  0  0  0  0  0  0  0
   -2.0564   -1.9232    0.0003 O   0  0  0  0  0  0  0  0  0  0  0  0
    1.8525    1.3680    0.0000 N   0  0  0  0  0  0  0  0  0  0  0  0
   -0.5298    1.1960   -0.0002 C   0  0  0  0  0  0  0  0  0  0  0  0
   -0.4237   -0.1748   -0.0002 C   0  0  0  0  0  0  0  0  0  0  0  0
   -1.9433    1.5971    0.0002 C   0  0  0  0  0  0  0  0  0  0  0  0
    0.7925   -0.8224   -0.0003 C   0  0  0  0  0  0  0  0  0  0  0  0
    1.9033    0.0066   -0.0002 C   0  0  0  0  0  0  0  0  0  0  0  0
   -1.7613   -0.7447   -0.0002 C   0  0  0  0  0  0  0  0  0  0  0  0
    0.6242    1.9394    0.0000 C   0  0  0  0  0  0  0  0  0  0  0  0
    3.2737   -0.5891    0.0006 C   0  0  0  0  0  0  0  0  0  0  0  0
   -2.2264    2.1454    0.9024 H   0  0  0  0  0  0  0  0  0  0  0  0
   -2.2268    2.1455   -0.9020 H   0  0  0  0  0  0  0  0  0  0  0  0
    0.6106    3.0228    0.0002 H   0  0  0  0  0  0  0  0  0  0  0  0
    4.0416    0.1917    0.0001 H   0  0  0  0  0  0  0  0  0  0  0  0
    3.4226   -1.2045    0.8935 H   0  0  0  0  0  0  0  0  0  0  0  0
    3.4230   -1.2059   -0.8914 H   0  0  0  0  0  0  0  0  0  0  0  0
    0.0066   -2.5618   -0.0002 H   0  0  0  0  0  0  0  0  0  0  0  0
  1  7  1  0  0  0  0
  1 10  1  0  0  0  0
  2  8  1  0  0  0  0
  2 19  1  0  0  0  0
  3 10  2  0  0  0  0
  4  9  2  0  0  0  0
  4 11  1  0  0  0  0
  5  6  1  0  0  0  0
  5  7  1  0  0  0  0
  5 11  2  0  0  0  0
  6  8  2  0  0  0  0
  6 10  1  0  0  0  0
  7 13  1  0  0  0  0
  7 14  1  0  0  0  0
  8  9  1  0  0  0  0
  9 12  1  0  0  0  0
 11 15  1  0  0  0  0
 12 16  1  0  0  0  0
 12 17  1  0  0  0  0
 12 18  1  0  0  0  0
M  END
> <PUBCHEM_COMPOUND_CID>
151228

> <PUBCHEM_CONFORMER_RMSD>
0.4

> <PUBCHEM_CONFORMER_DIVERSEORDER>
1

> <PUBCHEM_MMFF94_PARTIAL_CHARGES>
14
1 -0.43
10 0.63
11 0.16
12 0.14
15 0.15
19 0.45
2 -0.53
3 -0.57
4 -0.62
5 -0.14
6 0.09
7 0.42
8 0.08
9 0.17

> <PUBCHEM_EFFECTIVE_ROTOR_COUNT>
0.4

> <PUBCHEM_PHARMACOPHORE_FEATURES>
5
1 2 donor
1 3 acceptor
1 4 acceptor
5 1 5 6 7 10 rings
6 4 5 6 8 9 11 rings

> <PUBCHEM_HEAVY_ATOM_COUNT>
12

> <PUBCHEM_ATOM_DEF_STEREO_COUNT>
0

> <PUBCHEM_ATOM_UDEF_STEREO_COUNT>
0

> <PUBCHEM_BOND_DEF_STEREO_COUNT>
0

> <PUBCHEM_BOND_UDEF_STEREO_COUNT>
0

> <PUBCHEM_ISOTOPIC_ATOM_COUNT>
0

> <PUBCHEM_COMPONENT_COUNT>
1

> <PUBCHEM_CACTVS_TAUTO_COUNT>
4

> <PUBCHEM_CONFORMER_ID>
00024EBC00000001

> <PUBCHEM_MMFF94_ENERGY>
30.2842

> <PUBCHEM_FEATURE_SELFOVERLAP>
25.465

> <PUBCHEM_SHAPE_FINGERPRINT>
11206711 2 18412826875902680341
12423570 1 12319152058468288440
12524768 44 18046342204287092535
12897270 3 18411420600520198431
13380535 76 18337959020491658407
14128692 85 18410569544382237436
16945 1 18338517542196634405
18185500 45 18411419556853675393
193761 8 17834114139408003904
19973954 147 18339079285237884777
20201158 50 18411141376206681551
20588541 1 18265894833594379148
20871998 184 18187364320141054807
21040471 1 18266740370852644321
21501502 16 18339075986755735989
2334 1 18266741268527195948
23402655 69 18049460415765648637
23463225 33 18270402823169008050
23552423 10 18271806761561733844
23559900 14 18262233456707987886
241688 4 17545881989155204928
2748010 2 18338801087321201588
5084963 1 18115021905388837130
528886 8 18410016571479491792
53812653 166 18263086668049268712
66348 1 18410294747863283711

> <PUBCHEM_SHAPE_MULTIPOLES>
224.37
3.69
2.12
0.58
1.06
0.17
0
0.44
0
-0.35
0
0.02
-0.02
0

> <PUBCHEM_SHAPE_SELFOVERLAP>
494.504

> <PUBCHEM_SHAPE_VOLUME>
123

> <PUBCHEM_COORDINATE_TYPE>
2
5
10

$$$$

