23724485
  -OEChem-07051212503D

 71 74  0     1  0  0  0  0  0999 V2000
    7.4364    1.4163    0.4590 O   0  0  0  0  0  0  0  0  0  0  0  0
   -0.9835   -0.9645   -0.2028 C   0  0  1  0  0  0  0  0  0  0  0  0
    0.1954   -1.7557   -0.8124 C   0  0  1  0  0  0  0  0  0  0  0  0
   -2.0190   -2.0995    0.0136 C   0  0  1  0  0  0  0  0  0  0  0  0
    1.9016   -0.1848    0.3911 C   0  0  1  0  0  0  0  0  0  0  0  0
   -0.5545   -0.2816    1.1164 C   0  0  0  0  0  0  0  0  0  0  0  0
    1.5328   -1.0502   -0.8062 C   0  0  0  0  0  0  0  0  0  0  0  0
    0.2253   -3.0727   -0.0137 C   0  0  0  0  0  0  0  0  0  0  0  0
    3.1759    0.7490    0.1618 C   0  0  2  0  0  0  0  0  0  0  0  0
   -1.1907   -3.2832    0.5264 C   0  0  0  0  0  0  0  0  0  0  0  0
    0.6846    0.5946    0.9381 C   0  0  0  0  0  0  0  0  0  0  0  0
   -1.5268    0.0773   -1.1969 C   0  0  0  0  0  0  0  0  0  0  0  0
   -3.1947   -1.7721    0.9248 C   0  0  2  0  0  0  0  0  0  0  0  0
    4.1647    0.1320   -0.8360 C   0  0  0  0  0  0  0  0  0  0  0  0
    3.8672    0.9473    1.5433 C   0  0  0  0  0  0  0  0  0  0  0  0
    2.4243   -1.2878   -1.7824 C   0  0  0  0  0  0  0  0  0  0  0  0
    2.7789    2.1300   -0.4174 C   0  0  0  0  0  0  0  0  0  0  0  0
    3.7750   -0.7999   -1.7207 C   0  0  0  0  0  0  0  0  0  0  0  0
    5.5809    0.6536   -0.8480 C   0  0  0  0  0  0  0  0  0  0  0  0
    5.2547    1.5797    1.4680 C   0  0  0  0  0  0  0  0  0  0  0  0
    6.1701    0.7715    0.5537 C   0  0  2  0  0  0  0  0  0  0  0  0
   -4.0830   -3.0019    1.1248 C   0  0  0  0  0  0  0  0  0  0  0  0
   -4.0078   -0.6357    0.3474 C   0  0  0  0  0  0  0  0  0  0  0  0
   -4.1915    0.5369    0.9762 C   0  0  0  0  0  0  0  0  0  0  0  0
   -4.9577    1.6931    0.5057 C   0  0  0  0  0  0  0  0  0  0  0  0
   -5.6774    1.6258   -0.8416 C   0  0  0  0  0  0  0  0  0  0  0  0
   -5.0133    2.7782    1.3006 C   0  0  0  0  0  0  0  0  0  0  0  0
   -4.7602    2.1105   -1.9703 C   0  0  0  0  0  0  0  0  0  0  0  0
   -7.0074    2.3937   -0.9026 C   0  0  0  0  0  0  0  0  0  0  0  0
   -0.0679   -2.0112   -1.8506 H   0  0  0  0  0  0  0  0  0  0  0  0
   -2.4122   -2.4002   -0.9707 H   0  0  0  0  0  0  0  0  0  0  0  0
    2.1688   -0.9134    1.1721 H   0  0  0  0  0  0  0  0  0  0  0  0
   -0.3400   -1.0264    1.8924 H   0  0  0  0  0  0  0  0  0  0  0  0
   -1.3587    0.3462    1.5124 H   0  0  0  0  0  0  0  0  0  0  0  0
    0.9365   -3.0386    0.8201 H   0  0  0  0  0  0  0  0  0  0  0  0
    0.5285   -3.9075   -0.6561 H   0  0  0  0  0  0  0  0  0  0  0  0
   -1.6019   -4.2386    0.1824 H   0  0  0  0  0  0  0  0  0  0  0  0
   -1.1584   -3.3157    1.6219 H   0  0  0  0  0  0  0  0  0  0  0  0
    0.4146    1.4190    0.2700 H   0  0  0  0  0  0  0  0  0  0  0  0
    0.9377    1.0437    1.9056 H   0  0  0  0  0  0  0  0  0  0  0  0
   -2.1412   -0.3788   -1.9803 H   0  0  0  0  0  0  0  0  0  0  0  0
   -2.0982    0.8659   -0.7059 H   0  0  0  0  0  0  0  0  0  0  0  0
   -0.7033    0.5885   -1.7101 H   0  0  0  0  0  0  0  0  0  0  0  0
   -2.8266   -1.4910    1.9198 H   0  0  0  0  0  0  0  0  0  0  0  0
    3.9762   -0.0248    2.0434 H   0  0  0  0  0  0  0  0  0  0  0  0
    3.2362    1.5595    2.1990 H   0  0  0  0  0  0  0  0  0  0  0  0
    2.1817   -1.9403   -2.6156 H   0  0  0  0  0  0  0  0  0  0  0  0
    3.6499    2.7321   -0.6985 H   0  0  0  0  0  0  0  0  0  0  0  0
    2.1614    2.0210   -1.3168 H   0  0  0  0  0  0  0  0  0  0  0  0
    2.2191    2.7282    0.3098 H   0  0  0  0  0  0  0  0  0  0  0  0
    6.2352    0.0157   -1.4566 H   0  0  0  0  0  0  0  0  0  0  0  0
    5.6022    1.6346   -1.3403 H   0  0  0  0  0  0  0  0  0  0  0  0
    4.4724   -1.2117   -2.4437 H   0  0  0  0  0  0  0  0  0  0  0  0
    5.1916    2.6186    1.1218 H   0  0  0  0  0  0  0  0  0  0  0  0
    5.6944    1.6332    2.4716 H   0  0  0  0  0  0  0  0  0  0  0  0
    6.3330   -0.2246    0.9832 H   0  0  0  0  0  0  0  0  0  0  0  0
   -4.4225   -3.4137    0.1675 H   0  0  0  0  0  0  0  0  0  0  0  0
   -4.9743   -2.7463    1.7100 H   0  0  0  0  0  0  0  0  0  0  0  0
   -3.5616   -3.7951    1.6699 H   0  0  0  0  0  0  0  0  0  0  0  0
   -4.4412   -0.8205   -0.6311 H   0  0  0  0  0  0  0  0  0  0  0  0
   -3.7295    0.6543    1.9561 H   0  0  0  0  0  0  0  0  0  0  0  0
    8.0017    0.8708   -0.1141 H   0  0  0  0  0  0  0  0  0  0  0  0
   -5.9586    0.5872   -1.0501 H   0  0  0  0  0  0  0  0  0  0  0  0
   -5.5568    3.6720    1.0153 H   0  0  0  0  0  0  0  0  0  0  0  0
   -4.5060    2.8157    2.2602 H   0  0  0  0  0  0  0  0  0  0  0  0
   -4.4363    3.1446   -1.8083 H   0  0  0  0  0  0  0  0  0  0  0  0
   -3.8689    1.4857   -2.0577 H   0  0  0  0  0  0  0  0  0  0  0  0
   -5.2788    2.0696   -2.9346 H   0  0  0  0  0  0  0  0  0  0  0  0
   -6.8586    3.4780   -0.8649 H   0  0  0  0  0  0  0  0  0  0  0  0
   -7.5339    2.1702   -1.8375 H   0  0  0  0  0  0  0  0  0  0  0  0
   -7.6656    2.1056   -0.0757 H   0  0  0  0  0  0  0  0  0  0  0  0
  1 21  1  0  0  0  0
  1 62  1  0  0  0  0
  2  3  1  0  0  0  0
  2  4  1  0  0  0  0
  2  6  1  0  0  0  0
  2 12  1  0  0  0  0
  3  7  1  0  0  0  0
  3  8  1  0  0  0  0
  3 30  1  0  0  0  0
  4 10  1  0  0  0  0
  4 13  1  0  0  0  0
  4 31  1  0  0  0  0
  5  7  1  0  0  0  0
  5  9  1  0  0  0  0
  5 11  1  0  0  0  0
  5 32  1  0  0  0  0
  6 11  1  0  0  0  0
  6 33  1  0  0  0  0
  6 34  1  0  0  0  0
  7 16  2  0  0  0  0
  8 10  1  0  0  0  0
  8 35  1  0  0  0  0
  8 36  1  0  0  0  0
  9 14  1  0  0  0  0
  9 15  1  0  0  0  0
  9 17  1  0  0  0  0
 10 37  1  0  0  0  0
 10 38  1  0  0  0  0
 11 39  1  0  0  0  0
 11 40  1  0  0  0  0
 12 41  1  0  0  0  0
 12 42  1  0  0  0  0
 12 43  1  0  0  0  0
 13 22  1  0  0  0  0
 13 23  1  0  0  0  0
 13 44  1  0  0  0  0
 14 18  2  0  0  0  0
 14 19  1  0  0  0  0
 15 20  1  0  0  0  0
 15 45  1  0  0  0  0
 15 46  1  0  0  0  0
 16 18  1  0  0  0  0
 16 47  1  0  0  0  0
 17 48  1  0  0  0  0
 17 49  1  0  0  0  0
 17 50  1  0  0  0  0
 18 53  1  0  0  0  0
 19 21  1  0  0  0  0
 19 51  1  0  0  0  0
 19 52  1  0  0  0  0
 20 21  1  0  0  0  0
 20 54  1  0  0  0  0
 20 55  1  0  0  0  0
 21 56  1  0  0  0  0
 22 57  1  0  0  0  0
 22 58  1  0  0  0  0
 22 59  1  0  0  0  0
 23 24  2  0  0  0  0
 23 60  1  0  0  0  0
 24 25  1  0  0  0  0
 24 61  1  0  0  0  0
 25 26  1  0  0  0  0
 25 27  2  0  0  0  0
 26 28  1  0  0  0  0
 26 29  1  0  0  0  0
 26 63  1  0  0  0  0
 27 64  1  0  0  0  0
 27 65  1  0  0  0  0
 28 66  1  0  0  0  0
 28 67  1  0  0  0  0
 28 68  1  0  0  0  0
 29 69  1  0  0  0  0
 29 70  1  0  0  0  0
 29 71  1  0  0  0  0
M  END
> <PUBCHEM_COMPOUND_CID>
23724485

> <PUBCHEM_CONFORMER_RMSD>
0.8

> <PUBCHEM_CONFORMER_DIVERSEORDER>
1
127
152
109
97
123
106
107
108
32
103
50
124
35
115
161
136
70
53
82
74
44
88
59
147
46
66
80
77
48
52
15
164
84
119
87
62
163
31
126
117
165
99
118
61
133
120
81
156
146
18
134
73
41
63
69
90
135
137
6
36
64
24
102
55
154
19
79
5
78
122
166
113
38
145
129
8
42
143
130
16
94
153
149
112
101
141
105
98
132
45
159
37
83
12
86
67
54
110
85
9
23
33
20
43
7
96
58
125
40
93
114
100
104
56
10
89
68
140
128
21
57
30
65
139
158
34
13
116
151
95
75
91
60
150
29
160
148
71
3
76
14
25
155
138
39
49
121
26
131
72
111
144
17
47
4
27
142
92
162
2
157
22
11
28
51

> <PUBCHEM_MMFF94_PARTIAL_CHARGES>
23
1 -0.68
13 0.14
14 -0.28
16 -0.15
18 -0.15
19 0.14
21 0.28
23 -0.29
24 -0.15
25 -0.14
26 0.14
27 -0.3
3 0.14
47 0.15
5 0.14
53 0.15
60 0.15
61 0.15
62 0.4
64 0.15
65 0.15
7 -0.28
9 0.14

> <PUBCHEM_EFFECTIVE_ROTOR_COUNT>
5.8

> <PUBCHEM_PHARMACOPHORE_FEATURES>
9
1 1 acceptor
1 1 donor
1 22 hydrophobe
1 27 hydrophobe
3 26 28 29 hydrophobe
5 2 3 4 8 10 rings
6 2 3 5 6 7 11 rings
6 5 7 9 14 16 18 rings
6 9 14 15 19 20 21 rings

> <PUBCHEM_HEAVY_ATOM_COUNT>
29

> <PUBCHEM_ATOM_DEF_STEREO_COUNT>
4

> <PUBCHEM_ATOM_UDEF_STEREO_COUNT>
3

> <PUBCHEM_BOND_DEF_STEREO_COUNT>
1

> <PUBCHEM_BOND_UDEF_STEREO_COUNT>
0

> <PUBCHEM_ISOTOPIC_ATOM_COUNT>
0

> <PUBCHEM_COMPONENT_COUNT>
1

> <PUBCHEM_CACTVS_TAUTO_COUNT>
1

> <PUBCHEM_CONFORMER_ID>
016A01C500000001

> <PUBCHEM_MMFF94_ENERGY>
85.6871

> <PUBCHEM_FEATURE_SELFOVERLAP>
45.867

> <PUBCHEM_SHAPE_FINGERPRINT>
105312 117 18342177786941876127
11552529 35 15480954841378275169
12107183 9 18200042870694843978
12236239 1 16701464442578927446
12403259 415 18188196637495075634
12422481 6 17489313043656287566
12969540 114 17530682104353431271
13103583 49 15985098592087804163
13540713 4 18338498838247868603
13726171 33 18055608674108051268
14068700 675 17771344176626828807
14848178 96 18337667624557127849
14950920 106 15267046031200375293
15238133 3 18131626760647203108
17980427 23 17274819125751452759
18608769 82 18408880712704247243
20567600 254 18408611378513411661
20715895 44 18408603681979619952
21033648 144 18336828697338128981
21033648 29 18413099567819132295
21054139 6 7276840082472583784
21279426 13 18261380183449153598
21859007 373 18270965760158198836
22182313 1 18041821948750388686
23522609 53 17059760149422904372
23559900 14 18263909073004133030
23569914 152 16305394270675031436
249057 25 17345748573387899150
2838139 119 17895194454114780129
3459 39 18343309166736436473
4015057 19 16153991227450939858
4144715 1 18198051487928212962
508706 21 18340767057641567367
5104073 3 18343576369458390451
5283173 99 18333725801934958256
56616090 46 18409165494040936426
6086070 43 17676784088676630922
6697151 62 17605546872411559022
7226269 152 18113331986345532616
9981440 41 18342173363289787371

> <PUBCHEM_SHAPE_MULTIPOLES>
590.94
15.81
3.39
1.61
2.02
1.59
0.29
-14.7
-0.2
-4.55
-0.42
0.01
-0.36
2.49

> <PUBCHEM_SHAPE_SELFOVERLAP>
1241.488

> <PUBCHEM_SHAPE_VOLUME>
332.1

> <PUBCHEM_COORDINATE_TYPE>
2
5
10

$$$$

