12300019
  -OEChem-07051212573D

 82 88  0     1  0  0  0  0  0999 V2000
   -2.3932    0.1254   -1.4194 O   0  0  0  0  0  0  0  0  0  0  0  0
    2.5936   -2.3875    0.5097 O   0  0  0  0  0  0  0  0  0  0  0  0
   -6.7767    1.8962   -0.9635 O   0  0  0  0  0  0  0  0  0  0  0  0
   -4.3858    1.7122   -2.3329 O   0  0  0  0  0  0  0  0  0  0  0  0
    5.2077   -2.7185   -0.2168 O   0  0  0  0  0  0  0  0  0  0  0  0
    2.7716   -2.6449   -2.3075 O   0  0  0  0  0  0  0  0  0  0  0  0
   -2.7575   -1.7684    2.5294 N   0  0  2  0  0  0  0  0  0  0  0  0
    4.2427    3.5927    0.9090 N   0  0  2  0  0  0  0  0  0  0  0  0
   -2.5622   -1.3629    1.1154 C   0  0  2  0  0  0  0  0  0  0  0  0
    3.2004    2.5548    0.6802 C   0  0  2  0  0  0  0  0  0  0  0  0
   -3.6860   -0.4966    0.5432 C   0  0  0  0  0  0  0  0  0  0  0  0
   -4.1293   -2.2173    2.7800 C   0  0  0  0  0  0  0  0  0  0  0  0
    3.7323    1.1376    0.4429 C   0  0  0  0  0  0  0  0  0  0  0  0
   -5.1717   -1.1368    2.5050 C   0  0  0  0  0  0  0  0  0  0  0  0
   -4.9270   -0.4105    1.2079 C   0  0  0  0  0  0  0  0  0  0  0  0
   -2.3042   -2.6406    0.2622 C   0  0  0  0  0  0  0  0  0  0  0  0
    5.5760    3.0811    1.2251 C   0  0  0  0  0  0  0  0  0  0  0  0
    6.0270    2.0943    0.1507 C   0  0  0  0  0  0  0  0  0  0  0  0
    5.0895    0.9228    0.1461 C   0  0  0  0  0  0  0  0  0  0  0  0
    2.3864    3.0691   -0.5422 C   0  0  0  0  0  0  0  0  0  0  0  0
   -3.5226    0.2424   -0.6467 C   0  0  0  0  0  0  0  0  0  0  0  0
   -2.3240   -0.7353    3.4700 C   0  0  0  0  0  0  0  0  0  0  0  0
   -0.9471   -2.6458   -0.4115 C   0  0  0  0  0  0  0  0  0  0  0  0
    2.8862    0.0209    0.5604 C   0  0  0  0  0  0  0  0  0  0  0  0
   -5.9492    0.4056    0.6954 C   0  0  0  0  0  0  0  0  0  0  0  0
    1.0739    2.3668   -0.7851 C   0  0  0  0  0  0  0  0  0  0  0  0
    3.8185    4.5732    1.9105 C   0  0  0  0  0  0  0  0  0  0  0  0
    5.5675   -0.3705   -0.1052 C   0  0  0  0  0  0  0  0  0  0  0  0
   -4.5557    1.0325   -1.1627 C   0  0  0  0  0  0  0  0  0  0  0  0
    3.3753   -1.2687    0.3217 C   0  0  0  0  0  0  0  0  0  0  0  0
   -5.7646    1.1213   -0.4841 C   0  0  0  0  0  0  0  0  0  0  0  0
    4.7137   -1.4663   -0.0094 C   0  0  0  0  0  0  0  0  0  0  0  0
    0.2271   -2.5192    0.3466 C   0  0  0  0  0  0  0  0  0  0  0  0
   -0.8406   -2.7969   -1.8004 C   0  0  0  0  0  0  0  0  0  0  0  0
    0.9155    1.5367   -1.8995 C   0  0  0  0  0  0  0  0  0  0  0  0
    0.0035    2.5216    0.1062 C   0  0  0  0  0  0  0  0  0  0  0  0
   -1.3213    0.9548   -1.1708 C   0  0  0  0  0  0  0  0  0  0  0  0
    1.4727   -2.4777   -0.2835 C   0  0  0  0  0  0  0  0  0  0  0  0
   -0.2740    0.8376   -2.0896 C   0  0  0  0  0  0  0  0  0  0  0  0
   -1.1911    1.8221   -0.0846 C   0  0  0  0  0  0  0  0  0  0  0  0
    1.5712   -2.6219   -1.6673 C   0  0  0  0  0  0  0  0  0  0  0  0
    0.4111   -2.7864   -2.4224 C   0  0  0  0  0  0  0  0  0  0  0  0
   -6.8146    3.2546   -0.5299 C   0  0  0  0  0  0  0  0  0  0  0  0
    5.7349   -3.4038    0.9177 C   0  0  0  0  0  0  0  0  0  0  0  0
   -1.6591   -0.7426    1.0966 H   0  0  0  0  0  0  0  0  0  0  0  0
    2.5596    2.4912    1.5708 H   0  0  0  0  0  0  0  0  0  0  0  0
   -4.2305   -2.5756    3.8119 H   0  0  0  0  0  0  0  0  0  0  0  0
   -4.3413   -3.0917    2.1508 H   0  0  0  0  0  0  0  0  0  0  0  0
   -5.1737   -0.4013    3.3189 H   0  0  0  0  0  0  0  0  0  0  0  0
   -6.1632   -1.6053    2.4834 H   0  0  0  0  0  0  0  0  0  0  0  0
   -3.0974   -2.7746   -0.4847 H   0  0  0  0  0  0  0  0  0  0  0  0
   -2.3358   -3.5479    0.8815 H   0  0  0  0  0  0  0  0  0  0  0  0
    5.5902    2.6047    2.2150 H   0  0  0  0  0  0  0  0  0  0  0  0
    6.2935    3.9104    1.2503 H   0  0  0  0  0  0  0  0  0  0  0  0
    7.0483    1.7667    0.3780 H   0  0  0  0  0  0  0  0  0  0  0  0
    6.0373    2.5615   -0.8414 H   0  0  0  0  0  0  0  0  0  0  0  0
    3.0068    3.0125   -1.4481 H   0  0  0  0  0  0  0  0  0  0  0  0
    2.1460    4.1348   -0.4227 H   0  0  0  0  0  0  0  0  0  0  0  0
   -2.4690   -1.0694    4.5033 H   0  0  0  0  0  0  0  0  0  0  0  0
   -2.8497    0.2162    3.3384 H   0  0  0  0  0  0  0  0  0  0  0  0
   -1.2506   -0.5460    3.3552 H   0  0  0  0  0  0  0  0  0  0  0  0
    1.8518    0.1540    0.8651 H   0  0  0  0  0  0  0  0  0  0  0  0
   -6.8973    0.4791    1.2243 H   0  0  0  0  0  0  0  0  0  0  0  0
    4.5405    5.3950    1.9746 H   0  0  0  0  0  0  0  0  0  0  0  0
    3.7197    4.1236    2.9051 H   0  0  0  0  0  0  0  0  0  0  0  0
    2.8576    5.0240    1.6405 H   0  0  0  0  0  0  0  0  0  0  0  0
    6.6175   -0.5247   -0.3431 H   0  0  0  0  0  0  0  0  0  0  0  0
    0.1716   -2.4357    1.4295 H   0  0  0  0  0  0  0  0  0  0  0  0
   -1.7322   -2.9148   -2.4113 H   0  0  0  0  0  0  0  0  0  0  0  0
    1.7253    1.4068   -2.6127 H   0  0  0  0  0  0  0  0  0  0  0  0
    0.1023    3.1734    0.9710 H   0  0  0  0  0  0  0  0  0  0  0  0
   -0.3695    0.1802   -2.9501 H   0  0  0  0  0  0  0  0  0  0  0  0
   -1.9830    1.9508    0.6467 H   0  0  0  0  0  0  0  0  0  0  0  0
    0.4628   -2.9068   -3.5016 H   0  0  0  0  0  0  0  0  0  0  0  0
   -5.2167    2.1676   -2.5522 H   0  0  0  0  0  0  0  0  0  0  0  0
   -5.8904    3.7751   -0.8007 H   0  0  0  0  0  0  0  0  0  0  0  0
   -6.9700    3.3050    0.5524 H   0  0  0  0  0  0  0  0  0  0  0  0
   -7.6532    3.7496   -1.0272 H   0  0  0  0  0  0  0  0  0  0  0  0
    6.0716   -4.3926    0.5942 H   0  0  0  0  0  0  0  0  0  0  0  0
    4.9652   -3.5304    1.6855 H   0  0  0  0  0  0  0  0  0  0  0  0
    6.5908   -2.8601    1.3297 H   0  0  0  0  0  0  0  0  0  0  0  0
    2.6247   -2.7565   -3.2622 H   0  0  0  0  0  0  0  0  0  0  0  0
  1 21  1  0  0  0  0
  1 37  1  0  0  0  0
  2 30  1  0  0  0  0
  2 38  1  0  0  0  0
  3 31  1  0  0  0  0
  3 43  1  0  0  0  0
  4 29  1  0  0  0  0
  4 75  1  0  0  0  0
  5 32  1  0  0  0  0
  5 44  1  0  0  0  0
  6 41  1  0  0  0  0
  6 82  1  0  0  0  0
  7  9  1  0  0  0  0
  7 12  1  0  0  0  0
  7 22  1  0  0  0  0
  8 10  1  0  0  0  0
  8 17  1  0  0  0  0
  8 27  1  0  0  0  0
  9 11  1  0  0  0  0
  9 16  1  0  0  0  0
  9 45  1  0  0  0  0
 10 13  1  0  0  0  0
 10 20  1  0  0  0  0
 10 46  1  0  0  0  0
 11 15  1  0  0  0  0
 11 21  2  0  0  0  0
 12 14  1  0  0  0  0
 12 47  1  0  0  0  0
 12 48  1  0  0  0  0
 13 19  1  0  0  0  0
 13 24  2  0  0  0  0
 14 15  1  0  0  0  0
 14 49  1  0  0  0  0
 14 50  1  0  0  0  0
 15 25  2  0  0  0  0
 16 23  1  0  0  0  0
 16 51  1  0  0  0  0
 16 52  1  0  0  0  0
 17 18  1  0  0  0  0
 17 53  1  0  0  0  0
 17 54  1  0  0  0  0
 18 19  1  0  0  0  0
 18 55  1  0  0  0  0
 18 56  1  0  0  0  0
 19 28  2  0  0  0  0
 20 26  1  0  0  0  0
 20 57  1  0  0  0  0
 20 58  1  0  0  0  0
 21 29  1  0  0  0  0
 22 59  1  0  0  0  0
 22 60  1  0  0  0  0
 22 61  1  0  0  0  0
 23 33  2  0  0  0  0
 23 34  1  0  0  0  0
 24 30  1  0  0  0  0
 24 62  1  0  0  0  0
 25 31  1  0  0  0  0
 25 63  1  0  0  0  0
 26 35  2  0  0  0  0
 26 36  1  0  0  0  0
 27 64  1  0  0  0  0
 27 65  1  0  0  0  0
 27 66  1  0  0  0  0
 28 32  1  0  0  0  0
 28 67  1  0  0  0  0
 29 31  2  0  0  0  0
 30 32  2  0  0  0  0
 33 38  1  0  0  0  0
 33 68  1  0  0  0  0
 34 42  2  0  0  0  0
 34 69  1  0  0  0  0
 35 39  1  0  0  0  0
 35 70  1  0  0  0  0
 36 40  2  0  0  0  0
 36 71  1  0  0  0  0
 37 39  2  0  0  0  0
 37 40  1  0  0  0  0
 38 41  2  0  0  0  0
 39 72  1  0  0  0  0
 40 73  1  0  0  0  0
 41 42  1  0  0  0  0
 42 74  1  0  0  0  0
 43 76  1  0  0  0  0
 43 77  1  0  0  0  0
 43 78  1  0  0  0  0
 44 79  1  0  0  0  0
 44 80  1  0  0  0  0
 44 81  1  0  0  0  0
M  END
> <PUBCHEM_COMPOUND_CID>
12300019

> <PUBCHEM_CONFORMER_RMSD>
1

> <PUBCHEM_CONFORMER_DIVERSEORDER>
2
5
7
3
9
8
4
6
1

> <PUBCHEM_MMFF94_PARTIAL_CHARGES>
56
1 -0.17
10 0.41
11 -0.14
12 0.27
13 -0.14
14 0.14
15 -0.14
16 0.14
17 0.27
18 0.14
19 -0.14
2 -0.17
20 0.14
21 0.08
22 0.27
23 -0.14
24 -0.15
25 -0.15
26 -0.14
27 0.27
28 -0.15
29 0.08
3 -0.36
30 0.08
31 0.08
32 0.08
33 -0.15
34 -0.15
35 -0.15
36 -0.15
37 0.08
38 0.08
39 -0.15
4 -0.53
40 -0.15
41 0.08
42 -0.15
43 0.28
44 0.28
5 -0.36
6 -0.53
62 0.15
63 0.15
67 0.15
68 0.15
69 0.15
7 -0.81
70 0.15
71 0.15
72 0.15
73 0.15
74 0.15
75 0.45
8 -0.81
82 0.45
9 0.41

> <PUBCHEM_EFFECTIVE_ROTOR_COUNT>
4

> <PUBCHEM_PHARMACOPHORE_FEATURES>
14
1 1 acceptor
1 2 acceptor
1 3 acceptor
1 4 donor
1 5 acceptor
1 6 donor
1 7 cation
1 8 cation
6 11 15 21 25 29 31 rings
6 13 19 24 28 30 32 rings
6 23 33 34 38 41 42 rings
6 26 35 36 37 39 40 rings
6 7 9 11 12 14 15 rings
6 8 10 13 17 18 19 rings

> <PUBCHEM_HEAVY_ATOM_COUNT>
44

> <PUBCHEM_ATOM_DEF_STEREO_COUNT>
2

> <PUBCHEM_ATOM_UDEF_STEREO_COUNT>
0

> <PUBCHEM_BOND_DEF_STEREO_COUNT>
0

> <PUBCHEM_BOND_UDEF_STEREO_COUNT>
0

> <PUBCHEM_ISOTOPIC_ATOM_COUNT>
0

> <PUBCHEM_COMPONENT_COUNT>
1

> <PUBCHEM_CACTVS_TAUTO_COUNT>
8

> <PUBCHEM_CONFORMER_ID>
00BBAEF300000002

> <PUBCHEM_MMFF94_ENERGY>
178.6038

> <PUBCHEM_FEATURE_SELFOVERLAP>
71.09

> <PUBCHEM_SHAPE_FINGERPRINT>
11112241 14 18188219688848427409
11479125 193 18189343376615134425
11578080 2 17243046496132875602
12128747 34 17774162439022991234
12156800 1 14038661526000890326
12355185 1 16515683295401009905
12422481 6 18200027335338632414
13402501 40 18271526489154773639
13811026 1 18272374174028555747
14004853 49 17836637536159475188
14020679 6 17632574959606971961
14040222 275 18116140242602622966
14725015 67 18196945589335758474
150020 26 18270390573426550801
15361156 5 18273496753941672261
15722582 15 17843938542823970049
16112460 7 18333449863661923416
19304152 47 17838051507837806800
20764821 26 18120674435382021892
21033648 29 18343305846700551202
21585483 110 18408889524795632749
22122407 14 18334853978459453761
23559900 14 18202282511292602805
354706 109 18200047152834701643
394071 54 18187640344920278877
4144715 1 18130773547766227803
4435113 14 18201427099545529115
469060 322 17770797714577551190
5081480 168 17243544724728176550
508706 21 17775566425593526835
5265222 85 17838884946479732564
563151 74 18261111812011435825
56638632 10 17970626282061748321

> <PUBCHEM_SHAPE_MULTIPOLES>
860.32
15.01
5.14
2.44
4.61
1.16
-0.81
7.36
-4.14
-5.26
-0.17
2.55
-0.94
4.04

> <PUBCHEM_SHAPE_SELFOVERLAP>
1903.175

> <PUBCHEM_SHAPE_VOLUME>
460

> <PUBCHEM_COORDINATE_TYPE>
2
5
10

$$$$

