43365
  -OEChem-07051213103D

 26 27  0     0  0  0  0  0  0999 V2000
   -0.7796   -1.9962   -0.0012 O   0  0  0  0  0  0  0  0  0  0  0  0
    2.5004    1.3795    0.0000 O   0  0  0  0  0  0  0  0  0  0  0  0
    3.6984   -0.5550    0.0005 O   0  0  0  0  0  0  0  0  0  0  0  0
    0.7333    2.8501   -0.0003 O   0  0  0  0  0  0  0  0  0  0  0  0
    0.4851    0.5103   -0.0004 N   0  0  0  0  0  0  0  0  0  0  0  0
    1.3379   -0.5525   -0.0007 N   0  0  0  0  0  0  0  0  0  0  0  0
   -0.9074    0.3999   -0.0004 C   0  0  0  0  0  0  0  0  0  0  0  0
   -1.5215   -0.8525    0.0000 C   0  0  0  0  0  0  0  0  0  0  0  0
   -1.6849    1.5580   -0.0001 C   0  0  0  0  0  0  0  0  0  0  0  0
   -2.9132   -0.9467    0.0007 C   0  0  0  0  0  0  0  0  0  0  0  0
   -3.0766    1.4636    0.0005 C   0  0  0  0  0  0  0  0  0  0  0  0
    1.1682    1.7090    0.0000 C   0  0  0  0  0  0  0  0  0  0  0  0
   -3.6908    0.2113    0.0009 C   0  0  0  0  0  0  0  0  0  0  0  0
    2.4877    0.0274   -0.0006 C   0  0  0  0  0  0  0  0  0  0  0  0
   -1.4932   -3.2305   -0.0006 C   0  0  0  0  0  0  0  0  0  0  0  0
    3.6559   -1.9758    0.0016 C   0  0  0  0  0  0  0  0  0  0  0  0
   -1.3183    2.5719   -0.0004 H   0  0  0  0  0  0  0  0  0  0  0  0
   -3.4607   -1.8828    0.0010 H   0  0  0  0  0  0  0  0  0  0  0  0
   -3.6841    2.3642    0.0008 H   0  0  0  0  0  0  0  0  0  0  0  0
   -4.7746    0.1392    0.0014 H   0  0  0  0  0  0  0  0  0  0  0  0
   -2.0904   -3.3529   -0.9106 H   0  0  0  0  0  0  0  0  0  0  0  0
   -2.0888   -3.3530    0.9105 H   0  0  0  0  0  0  0  0  0  0  0  0
   -0.7475   -4.0326   -0.0013 H   0  0  0  0  0  0  0  0  0  0  0  0
    3.1601   -2.3512   -0.8996 H   0  0  0  0  0  0  0  0  0  0  0  0
    3.1591   -2.3498    0.9029 H   0  0  0  0  0  0  0  0  0  0  0  0
    4.6853   -2.3457    0.0024 H   0  0  0  0  0  0  0  0  0  0  0  0
  1  8  1  0  0  0  0
  1 15  1  0  0  0  0
  2 12  1  0  0  0  0
  2 14  1  0  0  0  0
  3 14  1  0  0  0  0
  3 16  1  0  0  0  0
  4 12  2  0  0  0  0
  5  6  1  0  0  0  0
  5  7  1  0  0  0  0
  5 12  1  0  0  0  0
  6 14  2  0  0  0  0
  7  8  1  0  0  0  0
  7  9  2  0  0  0  0
  8 10  2  0  0  0  0
  9 11  1  0  0  0  0
  9 17  1  0  0  0  0
 10 13  1  0  0  0  0
 10 18  1  0  0  0  0
 11 13  2  0  0  0  0
 11 19  1  0  0  0  0
 13 20  1  0  0  0  0
 15 21  1  0  0  0  0
 15 22  1  0  0  0  0
 15 23  1  0  0  0  0
 16 24  1  0  0  0  0
 16 25  1  0  0  0  0
 16 26  1  0  0  0  0
M  END
> <PUBCHEM_COMPOUND_CID>
43365

> <PUBCHEM_CONFORMER_RMSD>
0.6

> <PUBCHEM_CONFORMER_DIVERSEORDER>
3
8
9
4
5
7
6
12
10
13
1
11
2
14

> <PUBCHEM_MMFF94_PARTIAL_CHARGES>
20
1 -0.36
10 -0.15
11 -0.15
12 0.78
13 -0.15
14 0.75
15 0.28
16 0.28
17 0.15
18 0.15
19 0.15
2 -0.3
20 0.15
3 -0.43
4 -0.57
5 -0.11
6 -0.51
7 0.12
8 0.08
9 -0.15

> <PUBCHEM_EFFECTIVE_ROTOR_COUNT>
3

> <PUBCHEM_PHARMACOPHORE_FEATURES>
4
1 1 acceptor
1 4 acceptor
5 2 5 6 12 14 rings
6 7 8 9 10 11 13 rings

> <PUBCHEM_HEAVY_ATOM_COUNT>
16

> <PUBCHEM_ATOM_DEF_STEREO_COUNT>
0

> <PUBCHEM_ATOM_UDEF_STEREO_COUNT>
0

> <PUBCHEM_BOND_DEF_STEREO_COUNT>
0

> <PUBCHEM_BOND_UDEF_STEREO_COUNT>
0

> <PUBCHEM_ISOTOPIC_ATOM_COUNT>
0

> <PUBCHEM_COMPONENT_COUNT>
1

> <PUBCHEM_CACTVS_TAUTO_COUNT>
1

> <PUBCHEM_CONFORMER_ID>
0000A96500000003

> <PUBCHEM_MMFF94_ENERGY>
61.0733

> <PUBCHEM_FEATURE_SELFOVERLAP>
20.297

> <PUBCHEM_SHAPE_FINGERPRINT>
10608611 8 18337676308501348777
10616163 171 18265609879953024510
10967382 1 18410856546776025671
11458722 379 18195240246712017782
12032990 46 18411133679551330120
13140716 1 18193838141626314195
13380535 21 18195799678796741933
13690532 89 18410576218872035695
14144814 61 18411136926546755433
14178342 30 18194135018545554976
15006816 218 18120090842861351318
15196674 1 18410575114764773253
15309172 13 18338226163505179521
15375462 189 17988083412748336442
15442244 35 18410012126130279024
16945 1 18266741277270065861
17804303 29 18409724084143298140
193761 8 18194683653014191173
19591789 44 18339922735495589067
20510252 161 18188775075111278568
20511035 2 18041848281268447724
20645476 183 17986932137795082791
21267235 1 18410846689873833482
21501502 16 18265894648910772477
2334 1 18338799043117196163
23402539 116 18189346812519872805
23463225 33 18339923826343006934
23552423 10 18053945048036074525
23559900 14 18335142029605977226
2748010 2 18267021837444908501
3084891 72 18193561296434236283
335352 9 18338517568340848573
34934 24 18411144623713569314
43471831 8 17980762954235169107
45790113 53 18411694357931334113
5104073 3 18410011031072089441
54173680 148 18339641114548006083
69090 78 18408609145430987647
7364860 26 18263926536283077400
74978 22 18339361864036780925
81228 2 17982177725526809035
8809292 202 18412822464971526786
9709674 26 18335700494791141582

> <PUBCHEM_SHAPE_MULTIPOLES>
295.83
5.94
2.96
0.58
2.31
1.09
0
1.13
0
-0.15
0
-0.05
0.01
0

> <PUBCHEM_SHAPE_SELFOVERLAP>
637.448

> <PUBCHEM_SHAPE_VOLUME>
164.2

> <PUBCHEM_COORDINATE_TYPE>
2
5
10

$$$$

