441713
  -OEChem-07051212553D

 99105  0     1  0  0  0  0  0999 V2000
   -0.7554   -0.7874    0.9241 O   0  0  0  0  0  0  0  0  0  0  0  0
    2.2674   -2.7522    0.8581 O   0  0  0  0  0  0  0  0  0  0  0  0
    4.0764    2.7061   -0.9423 O   0  0  0  0  0  0  0  0  0  0  0  0
   -2.1156    1.1061   -0.8833 O   0  0  0  0  0  0  0  0  0  0  0  0
   -0.8040    3.8562   -1.3426 O   0  0  0  0  0  0  0  0  0  0  0  0
   -1.8292    3.0622    1.0756 O   0  0  0  0  0  0  0  0  0  0  0  0
    4.6766   -3.2122   -1.9254 O   0  0  0  0  0  0  0  0  0  0  0  0
   -0.1634   -0.7936    3.1571 O   0  0  0  0  0  0  0  0  0  0  0  0
   -2.5512   -0.0524   -2.8243 O   0  0  0  0  0  0  0  0  0  0  0  0
   -6.8229   -2.4760   -1.2139 O   0  0  0  0  0  0  0  0  0  0  0  0
   -7.9543   -0.6380    0.5372 O   0  0  0  0  0  0  0  0  0  0  0  0
    4.0870    0.2608    1.4943 N   0  0  2  0  0  0  0  0  0  0  0  0
    2.9080    0.5423   -0.6977 C   0  0  1  0  0  0  0  0  0  0  0  0
    3.0824   -1.0267   -0.8218 C   0  0  2  0  0  0  0  0  0  0  0  0
    1.5570    1.0901   -1.3301 C   0  0  1  0  0  0  0  0  0  0  0  0
    2.8032    0.6000    0.8453 C   0  0  1  0  0  0  0  0  0  0  0  0
    1.6354   -0.4167    1.0728 C   0  0  1  0  0  0  0  0  0  0  0  0
    0.2435    0.4332   -0.8740 C   0  0  1  0  0  0  0  0  0  0  0  0
    0.2570    0.2017    0.6583 C   0  0  1  0  0  0  0  0  0  0  0  0
    1.9626   -1.5916    0.1091 C   0  0  2  0  0  0  0  0  0  0  0  0
    4.5223   -1.4212   -0.3521 C   0  0  2  0  0  0  0  0  0  0  0  0
    4.0836    1.3397   -1.3510 C   0  0  2  0  0  0  0  0  0  0  0  0
    1.2489    2.5998   -1.1040 C   0  0  0  0  0  0  0  0  0  0  0  0
   -0.2495    2.6982   -0.7390 C   0  0  2  0  0  0  0  0  0  0  0  0
   -0.8180    1.4263   -1.3408 C   0  0  2  0  0  0  0  0  0  0  0  0
   -0.0994    1.4435    1.5290 C   0  0  0  0  0  0  0  0  0  0  0  0
    4.6699   -1.0445    1.1510 C   0  0  0  0  0  0  0  0  0  0  0  0
    5.5657   -0.6792   -1.2215 C   0  0  0  0  0  0  0  0  0  0  0  0
   -0.4626    2.7427    0.7836 C   0  0  2  0  0  0  0  0  0  0  0  0
    5.4906    0.8228   -1.1032 C   0  0  0  0  0  0  0  0  0  0  0  0
    4.8298   -2.9227   -0.5545 C   0  0  0  0  0  0  0  0  0  0  0  0
    4.0554    0.4654    2.9392 C   0  0  0  0  0  0  0  0  0  0  0  0
   -0.8456   -1.1871    2.2207 C   0  0  0  0  0  0  0  0  0  0  0  0
    1.0906   -3.4076    1.3187 C   0  0  0  0  0  0  0  0  0  0  0  0
    5.4537    0.4162    3.5313 C   0  0  0  0  0  0  0  0  0  0  0  0
    4.6396    3.5464   -1.9380 C   0  0  0  0  0  0  0  0  0  0  0  0
   -2.8879    0.3569   -1.7242 C   0  0  0  0  0  0  0  0  0  0  0  0
   -1.9466    3.6868    2.3416 C   0  0  0  0  0  0  0  0  0  0  0  0
   -1.9335   -2.2102    2.3466 C   0  0  0  0  0  0  0  0  0  0  0  0
    4.9409   -4.5830   -2.2139 C   0  0  0  0  0  0  0  0  0  0  0  0
   -4.2224    0.0915   -1.1298 C   0  0  0  0  0  0  0  0  0  0  0  0
   -4.9085   -1.0798   -1.4506 C   0  0  0  0  0  0  0  0  0  0  0  0
   -4.7905    1.0143   -0.2515 C   0  0  0  0  0  0  0  0  0  0  0  0
   -6.1626   -1.3286   -0.8929 C   0  0  0  0  0  0  0  0  0  0  0  0
   -6.0448    0.7657    0.3060 C   0  0  0  0  0  0  0  0  0  0  0  0
   -6.7307   -0.4059   -0.0146 C   0  0  0  0  0  0  0  0  0  0  0  0
   -6.5848   -3.6138   -0.3875 C   0  0  0  0  0  0  0  0  0  0  0  0
   -8.4641    0.3552    1.4249 C   0  0  0  0  0  0  0  0  0  0  0  0
    2.9135   -1.3409   -1.8588 H   0  0  0  0  0  0  0  0  0  0  0  0
    1.6294    0.9344   -2.4170 H   0  0  0  0  0  0  0  0  0  0  0  0
    2.5419    1.6114    1.1633 H   0  0  0  0  0  0  0  0  0  0  0  0
    1.6789   -0.7501    2.1063 H   0  0  0  0  0  0  0  0  0  0  0  0
    0.0522   -0.4996   -1.4146 H   0  0  0  0  0  0  0  0  0  0  0  0
    1.1374   -1.8688   -0.5493 H   0  0  0  0  0  0  0  0  0  0  0  0
    3.9134    1.2821   -2.4366 H   0  0  0  0  0  0  0  0  0  0  0  0
    1.4726    3.1561   -2.0228 H   0  0  0  0  0  0  0  0  0  0  0  0
    1.8453    3.0577   -0.3118 H   0  0  0  0  0  0  0  0  0  0  0  0
   -0.8167    1.5206   -2.4364 H   0  0  0  0  0  0  0  0  0  0  0  0
    0.7234    1.6765    2.2149 H   0  0  0  0  0  0  0  0  0  0  0  0
   -0.9434    1.2145    2.1870 H   0  0  0  0  0  0  0  0  0  0  0  0
    5.7427   -1.0426    1.3809 H   0  0  0  0  0  0  0  0  0  0  0  0
    4.2358   -1.8271    1.7837 H   0  0  0  0  0  0  0  0  0  0  0  0
    5.4354   -0.9381   -2.2805 H   0  0  0  0  0  0  0  0  0  0  0  0
    6.5815   -0.9963   -0.9511 H   0  0  0  0  0  0  0  0  0  0  0  0
    0.1559    3.5644    1.1722 H   0  0  0  0  0  0  0  0  0  0  0  0
    5.8730    1.1621   -0.1333 H   0  0  0  0  0  0  0  0  0  0  0  0
    6.1866    1.2555   -1.8324 H   0  0  0  0  0  0  0  0  0  0  0  0
    5.8637   -3.1349   -0.2512 H   0  0  0  0  0  0  0  0  0  0  0  0
    4.1907   -3.5800    0.0370 H   0  0  0  0  0  0  0  0  0  0  0  0
    3.6417    1.4570    3.1602 H   0  0  0  0  0  0  0  0  0  0  0  0
    3.4184   -0.2688    3.4459 H   0  0  0  0  0  0  0  0  0  0  0  0
   -0.6922    3.7844   -2.3056 H   0  0  0  0  0  0  0  0  0  0  0  0
    1.3376   -4.4685    1.4285 H   0  0  0  0  0  0  0  0  0  0  0  0
    0.8401   -3.0504    2.3164 H   0  0  0  0  0  0  0  0  0  0  0  0
    0.2531   -3.3432    0.6198 H   0  0  0  0  0  0  0  0  0  0  0  0
    5.8646   -0.5980    3.5462 H   0  0  0  0  0  0  0  0  0  0  0  0
    6.1448    1.0696    2.9876 H   0  0  0  0  0  0  0  0  0  0  0  0
    5.4251    0.7617    4.5706 H   0  0  0  0  0  0  0  0  0  0  0  0
    4.5198    4.5822   -1.6071 H   0  0  0  0  0  0  0  0  0  0  0  0
    4.1143    3.4369   -2.8922 H   0  0  0  0  0  0  0  0  0  0  0  0
    5.7090    3.3624   -2.0666 H   0  0  0  0  0  0  0  0  0  0  0  0
   -1.5488    3.0695    3.1517 H   0  0  0  0  0  0  0  0  0  0  0  0
   -1.4458    4.6603    2.3357 H   0  0  0  0  0  0  0  0  0  0  0  0
   -3.0092    3.8572    2.5370 H   0  0  0  0  0  0  0  0  0  0  0  0
   -2.8979   -1.7047    2.4370 H   0  0  0  0  0  0  0  0  0  0  0  0
   -1.7546   -2.8203    3.2364 H   0  0  0  0  0  0  0  0  0  0  0  0
   -1.9429   -2.8759    1.4796 H   0  0  0  0  0  0  0  0  0  0  0  0
    5.9697   -4.8389   -1.9431 H   0  0  0  0  0  0  0  0  0  0  0  0
    4.2366   -5.2279   -1.6797 H   0  0  0  0  0  0  0  0  0  0  0  0
    4.8120   -4.7379   -3.2883 H   0  0  0  0  0  0  0  0  0  0  0  0
   -4.4720   -1.8056   -2.1327 H   0  0  0  0  0  0  0  0  0  0  0  0
   -4.2836    1.9406    0.0049 H   0  0  0  0  0  0  0  0  0  0  0  0
   -6.4252    1.5275    0.9776 H   0  0  0  0  0  0  0  0  0  0  0  0
   -7.1850   -4.4450   -0.7675 H   0  0  0  0  0  0  0  0  0  0  0  0
   -6.8840   -3.4094    0.6454 H   0  0  0  0  0  0  0  0  0  0  0  0
   -5.5286   -3.8993   -0.4233 H   0  0  0  0  0  0  0  0  0  0  0  0
   -9.4437    0.0074    1.7692 H   0  0  0  0  0  0  0  0  0  0  0  0
   -8.6278    1.3092    0.9121 H   0  0  0  0  0  0  0  0  0  0  0  0
   -7.8344    0.4628    2.3147 H   0  0  0  0  0  0  0  0  0  0  0  0
  1 19  1  0  0  0  0
  1 33  1  0  0  0  0
  2 20  1  0  0  0  0
  2 34  1  0  0  0  0
  3 22  1  0  0  0  0
  3 36  1  0  0  0  0
  4 25  1  0  0  0  0
  4 37  1  0  0  0  0
  5 24  1  0  0  0  0
  5 72  1  0  0  0  0
  6 29  1  0  0  0  0
  6 38  1  0  0  0  0
  7 31  1  0  0  0  0
  7 40  1  0  0  0  0
  8 33  2  0  0  0  0
  9 37  2  0  0  0  0
 10 44  1  0  0  0  0
 10 47  1  0  0  0  0
 11 46  1  0  0  0  0
 11 48  1  0  0  0  0
 12 16  1  0  0  0  0
 12 27  1  0  0  0  0
 12 32  1  0  0  0  0
 13 14  1  0  0  0  0
 13 15  1  0  0  0  0
 13 16  1  0  0  0  0
 13 22  1  0  0  0  0
 14 20  1  0  0  0  0
 14 21  1  0  0  0  0
 14 49  1  0  0  0  0
 15 18  1  0  0  0  0
 15 23  1  0  0  0  0
 15 50  1  0  0  0  0
 16 17  1  0  0  0  0
 16 51  1  0  0  0  0
 17 19  1  0  0  0  0
 17 20  1  0  0  0  0
 17 52  1  0  0  0  0
 18 19  1  0  0  0  0
 18 25  1  0  0  0  0
 18 53  1  0  0  0  0
 19 26  1  0  0  0  0
 20 54  1  0  0  0  0
 21 27  1  0  0  0  0
 21 28  1  0  0  0  0
 21 31  1  0  0  0  0
 22 30  1  0  0  0  0
 22 55  1  0  0  0  0
 23 24  1  0  0  0  0
 23 56  1  0  0  0  0
 23 57  1  0  0  0  0
 24 25  1  0  0  0  0
 24 29  1  0  0  0  0
 25 58  1  0  0  0  0
 26 29  1  0  0  0  0
 26 59  1  0  0  0  0
 26 60  1  0  0  0  0
 27 61  1  0  0  0  0
 27 62  1  0  0  0  0
 28 30  1  0  0  0  0
 28 63  1  0  0  0  0
 28 64  1  0  0  0  0
 29 65  1  0  0  0  0
 30 66  1  0  0  0  0
 30 67  1  0  0  0  0
 31 68  1  0  0  0  0
 31 69  1  0  0  0  0
 32 35  1  0  0  0  0
 32 70  1  0  0  0  0
 32 71  1  0  0  0  0
 33 39  1  0  0  0  0
 34 73  1  0  0  0  0
 34 74  1  0  0  0  0
 34 75  1  0  0  0  0
 35 76  1  0  0  0  0
 35 77  1  0  0  0  0
 35 78  1  0  0  0  0
 36 79  1  0  0  0  0
 36 80  1  0  0  0  0
 36 81  1  0  0  0  0
 37 41  1  0  0  0  0
 38 82  1  0  0  0  0
 38 83  1  0  0  0  0
 38 84  1  0  0  0  0
 39 85  1  0  0  0  0
 39 86  1  0  0  0  0
 39 87  1  0  0  0  0
 40 88  1  0  0  0  0
 40 89  1  0  0  0  0
 40 90  1  0  0  0  0
 41 42  2  0  0  0  0
 41 43  1  0  0  0  0
 42 44  1  0  0  0  0
 42 91  1  0  0  0  0
 43 45  2  0  0  0  0
 43 92  1  0  0  0  0
 44 46  2  0  0  0  0
 45 46  1  0  0  0  0
 45 93  1  0  0  0  0
 47 94  1  0  0  0  0
 47 95  1  0  0  0  0
 47 96  1  0  0  0  0
 48 97  1  0  0  0  0
 48 98  1  0  0  0  0
 48 99  1  0  0  0  0
M  END
> <PUBCHEM_COMPOUND_CID>
441713

> <PUBCHEM_CONFORMER_RMSD>
1.4

> <PUBCHEM_CONFORMER_DIVERSEORDER>
2
3
1

> <PUBCHEM_MMFF94_PARTIAL_CHARGES>
41
1 -0.43
10 -0.36
11 -0.36
12 -0.81
16 0.27
19 0.28
2 -0.56
20 0.28
22 0.28
24 0.28
25 0.28
27 0.27
29 0.28
3 -0.56
31 0.28
32 0.27
33 0.66
34 0.28
36 0.28
37 0.63
38 0.28
39 0.06
4 -0.43
40 0.28
41 0.09
42 -0.15
43 -0.15
44 0.08
45 -0.15
46 0.08
47 0.28
48 0.28
5 -0.68
6 -0.56
7 -0.56
72 0.4
8 -0.57
9 -0.57
91 0.15
92 0.15
93 0.15

> <PUBCHEM_EFFECTIVE_ROTOR_COUNT>
15

> <PUBCHEM_PHARMACOPHORE_FEATURES>
16
1 10 acceptor
1 11 acceptor
1 12 cation
1 2 acceptor
1 3 acceptor
1 5 acceptor
1 5 donor
1 6 acceptor
1 7 acceptor
1 8 acceptor
1 9 acceptor
6 13 14 21 22 28 30 rings
6 41 42 43 44 45 46 rings
8 12 13 14 16 17 20 21 27 rings
8 13 14 15 16 17 18 19 20 rings
8 15 18 19 23 24 25 26 29 rings

> <PUBCHEM_HEAVY_ATOM_COUNT>
48

> <PUBCHEM_ATOM_DEF_STEREO_COUNT>
12

> <PUBCHEM_ATOM_UDEF_STEREO_COUNT>
1

> <PUBCHEM_BOND_DEF_STEREO_COUNT>
0

> <PUBCHEM_BOND_UDEF_STEREO_COUNT>
0

> <PUBCHEM_ISOTOPIC_ATOM_COUNT>
0

> <PUBCHEM_COMPONENT_COUNT>
1

> <PUBCHEM_CACTVS_TAUTO_COUNT>
1

> <PUBCHEM_CONFORMER_ID>
0006BD7100000002

> <PUBCHEM_MMFF94_ENERGY>
254.7503

> <PUBCHEM_FEATURE_SELFOVERLAP>
82.683

> <PUBCHEM_SHAPE_FINGERPRINT>
10169797 241 17917714586676305577
10190108 129 18193260005122123963
10675989 125 18060702762749541290
11421498 54 18340773723473236241
11578080 2 17983012250183401096
117089 54 18335414660940129935
11763715 3 17967801769712840232
12788726 201 18040989678878592649
13383661 66 18042115617192851798
1361 2 18272650099854590748
13636023 20 18410863131341511331
13782708 43 17822295746302794350
13811026 1 17988925573919343080
14040221 97 17127865982021296589
14068700 675 18342176730132202884
15082195 135 18340475712946061376
15131766 46 15287359443945969776
15183329 4 17846504699382699827
15721738 202 18272649048110245021
17349148 13 17917156112453300904
17909252 39 18260552216511433242
18393751 57 17753360620245377600
20775438 99 18059014969272247326
21033648 29 15502088662367176181
21814621 53 17895198843908915235
22149856 69 18334290947070387323
25223398 141 17750517454062412928
4093350 32 18409164377265108564
469060 322 18058170698987435409
6669772 16 16988010379596144520

> <PUBCHEM_SHAPE_MULTIPOLES>
918.27
16.81
4.44
2.8
28.69
0.95
1.72
9.04
-1.99
-2.51
-1.33
-2.3
-0.03
-0.3

> <PUBCHEM_SHAPE_SELFOVERLAP>
1998.793

> <PUBCHEM_SHAPE_VOLUME>
495.1

> <PUBCHEM_COORDINATE_TYPE>
2
5
10

$$$$

