439822
  -OEChem-07051212472D

 62 63  0     1  0  0  0  0  0999 V2000
    6.4853    5.1081    0.0000 Cl  0  0  0  0  0  0  0  0  0  0  0  0
    3.0084    1.2466    0.0000 O   0  0  0  0  0  0  0  0  0  0  0  0
    2.8660   -0.1081    0.0000 O   0  0  0  0  0  0  0  0  0  0  0  0
    4.5832    4.4900    0.0000 O   0  0  0  0  0  0  0  0  0  0  0  0
    4.5981   -0.1081    0.0000 N   0  0  0  0  0  0  0  0  0  0  0  0
    4.1674    2.5337    0.0000 N   0  0  0  0  0  0  0  0  0  0  0  0
    4.5981   -2.1081    0.0000 N   0  0  0  0  0  0  0  0  0  0  0  0
    8.5068    2.1225    0.0000 N   0  0  0  0  0  0  0  0  0  0  0  0
   10.2010    1.7624    0.0000 N   0  0  0  0  0  0  0  0  0  0  0  0
    9.0421    0.4752    0.0000 N   0  0  0  0  0  0  0  0  0  0  0  0
    4.7026    0.8865    0.0000 C   0  0  2  0  0  0  0  0  0  0  0  0
    5.6808    1.0944    0.0000 C   0  0  0  0  0  0  0  0  0  0  0  0
    6.1808    0.2283    0.0000 C   0  0  0  0  0  0  0  0  0  0  0  0
    5.5116   -0.5148    0.0000 C   0  0  0  0  0  0  0  0  0  0  0  0
    3.9595    1.5556    0.0000 C   0  0  0  0  0  0  0  0  0  0  0  0
    3.7320   -0.6081    0.0000 C   0  0  0  0  0  0  0  0  0  0  0  0
    3.7320   -1.6081    0.0000 C   0  0  1  0  0  0  0  0  0  0  0  0
    5.1184    2.8428    0.0000 C   0  0  2  0  0  0  0  0  0  0  0  0
    2.8660   -2.1081    0.0000 C   0  0  0  0  0  0  0  0  0  0  0  0
    5.8616    2.1736    0.0000 C   0  0  0  0  0  0  0  0  0  0  0  0
    6.8126    2.4826    0.0000 C   0  0  0  0  0  0  0  0  0  0  0  0
    5.3263    3.8209    0.0000 C   0  0  0  0  0  0  0  0  0  0  0  0
    2.8660   -3.1081    0.0000 C   0  0  0  0  0  0  0  0  0  0  0  0
    7.5558    1.8135    0.0000 C   0  0  0  0  0  0  0  0  0  0  0  0
    6.2774    4.1299    0.0000 C   0  0  0  0  0  0  0  0  0  0  0  0
    2.0000   -3.6081    0.0000 C   0  0  0  0  0  0  0  0  0  0  0  0
    3.7320   -3.6081    0.0000 C   0  0  0  0  0  0  0  0  0  0  0  0
    2.0000   -4.6081    0.0000 C   0  0  0  0  0  0  0  0  0  0  0  0
    3.7320   -4.6081    0.0000 C   0  0  0  0  0  0  0  0  0  0  0  0
    2.8660   -5.1081    0.0000 C   0  0  0  0  0  0  0  0  0  0  0  0
    9.2500    1.4534    0.0000 C   0  0  0  0  0  0  0  0  0  0  0  0
    4.1238    0.6643    0.0000 H   0  0  0  0  0  0  0  0  0  0  0  0
    6.2472    1.3466    0.0000 H   0  0  0  0  0  0  0  0  0  0  0  0
    5.4892    1.6840    0.0000 H   0  0  0  0  0  0  0  0  0  0  0  0
    6.5956   -0.2324    0.0000 H   0  0  0  0  0  0  0  0  0  0  0  0
    6.6823    0.5928    0.0000 H   0  0  0  0  0  0  0  0  0  0  0  0
    5.2016   -1.0517    0.0000 H   0  0  0  0  0  0  0  0  0  0  0  0
    6.0132   -0.8792    0.0000 H   0  0  0  0  0  0  0  0  0  0  0  0
    3.7320   -2.2281    0.0000 H   0  0  0  0  0  0  0  0  0  0  0  0
    3.7066    2.9486    0.0000 H   0  0  0  0  0  0  0  0  0  0  0  0
    4.9895    2.2363    0.0000 H   0  0  0  0  0  0  0  0  0  0  0  0
    2.6540   -1.5255    0.0000 H   0  0  0  0  0  0  0  0  0  0  0  0
    2.2554   -2.2157    0.0000 H   0  0  0  0  0  0  0  0  0  0  0  0
    5.3730    1.7919    0.0000 H   0  0  0  0  0  0  0  0  0  0  0  0
    6.1527    1.6262    0.0000 H   0  0  0  0  0  0  0  0  0  0  0  0
    7.3012    2.8644    0.0000 H   0  0  0  0  0  0  0  0  0  0  0  0
    6.5216    3.0301    0.0000 H   0  0  0  0  0  0  0  0  0  0  0  0
    4.5981   -2.7281    0.0000 H   0  0  0  0  0  0  0  0  0  0  0  0
    5.1350   -1.7981    0.0000 H   0  0  0  0  0  0  0  0  0  0  0  0
    7.0672    1.4318    0.0000 H   0  0  0  0  0  0  0  0  0  0  0  0
    7.8468    1.2661    0.0000 H   0  0  0  0  0  0  0  0  0  0  0  0
    6.3637    3.5160    0.0000 H   0  0  0  0  0  0  0  0  0  0  0  0
    6.8970    4.1083    0.0000 H   0  0  0  0  0  0  0  0  0  0  0  0
    1.4631   -3.2981    0.0000 H   0  0  0  0  0  0  0  0  0  0  0  0
    4.2690   -3.2981    0.0000 H   0  0  0  0  0  0  0  0  0  0  0  0
    1.4631   -4.9181    0.0000 H   0  0  0  0  0  0  0  0  0  0  0  0
    4.2690   -4.9181    0.0000 H   0  0  0  0  0  0  0  0  0  0  0  0
    2.8660   -5.7281    0.0000 H   0  0  0  0  0  0  0  0  0  0  0  0
   10.6618    1.3476    0.0000 H   0  0  0  0  0  0  0  0  0  0  0  0
   10.3299    2.3689    0.0000 H   0  0  0  0  0  0  0  0  0  0  0  0
    9.5028    0.0604    0.0000 H   0  0  0  0  0  0  0  0  0  0  0  0
    8.4524    0.2837    0.0000 H   0  0  0  0  0  0  0  0  0  0  0  0
  1 25  1  0  0  0  0
  2 15  2  0  0  0  0
  3 16  2  0  0  0  0
  4 22  2  0  0  0  0
  5 11  1  0  0  0  0
  5 14  1  0  0  0  0
  5 16  1  0  0  0  0
  6 15  1  0  0  0  0
 18  6  1  1  0  0  0
  6 40  1  0  0  0  0
 17  7  1  6  0  0  0
  7 48  1  0  0  0  0
  7 49  1  0  0  0  0
  8 24  1  0  0  0  0
  8 31  2  0  0  0  0
  9 31  1  0  0  0  0
  9 59  1  0  0  0  0
  9 60  1  0  0  0  0
 10 31  1  0  0  0  0
 10 61  1  0  0  0  0
 10 62  1  0  0  0  0
 11 12  1  0  0  0  0
 11 15  1  1  0  0  0
 11 32  1  0  0  0  0
 12 13  1  0  0  0  0
 12 33  1  0  0  0  0
 12 34  1  0  0  0  0
 13 14  1  0  0  0  0
 13 35  1  0  0  0  0
 13 36  1  0  0  0  0
 14 37  1  0  0  0  0
 14 38  1  0  0  0  0
 16 17  1  0  0  0  0
 17 19  1  0  0  0  0
 17 39  1  0  0  0  0
 18 20  1  0  0  0  0
 18 22  1  0  0  0  0
 18 41  1  0  0  0  0
 19 23  1  0  0  0  0
 19 42  1  0  0  0  0
 19 43  1  0  0  0  0
 20 21  1  0  0  0  0
 20 44  1  0  0  0  0
 20 45  1  0  0  0  0
 21 24  1  0  0  0  0
 21 46  1  0  0  0  0
 21 47  1  0  0  0  0
 22 25  1  0  0  0  0
 23 26  2  0  0  0  0
 23 27  1  0  0  0  0
 24 50  1  0  0  0  0
 24 51  1  0  0  0  0
 25 52  1  0  0  0  0
 25 53  1  0  0  0  0
 26 28  1  0  0  0  0
 26 54  1  0  0  0  0
 27 29  2  0  0  0  0
 27 55  1  0  0  0  0
 28 30  2  0  0  0  0
 28 56  1  0  0  0  0
 29 30  1  0  0  0  0
 29 57  1  0  0  0  0
 30 58  1  0  0  0  0
M  END
> <PUBCHEM_COMPOUND_CID>
439822

> <PUBCHEM_COMPOUND_CANONICALIZED>
1

> <PUBCHEM_CACTVS_COMPLEXITY>
649

> <PUBCHEM_CACTVS_HBOND_ACCEPTOR>
5

> <PUBCHEM_CACTVS_HBOND_DONOR>
4

> <PUBCHEM_CACTVS_ROTATABLE_BOND>
11

> <PUBCHEM_CACTVS_SUBSKEYS>
AAADceB7sAAEAAAAAAAAAAAAAAAAAWAAAAAwAAAAAAAAAAABAAAAHgIQAAAADC/BmEQxAIPAAACoAqFSNAACAAEgAAAIiIGIAohIYDKBkTGUIAAglgCIiAcYiYCOAAAAAAAAAAAAAAAAAAAAAAAAAAAAAA==

> <PUBCHEM_IUPAC_OPENEYE_NAME>
(2R)-1-[(2R)-2-amino-3-phenyl-propanoyl]-N-[(1R)-1-(2-chloroacetyl)-4-guanidino-butyl]pyrrolidine-2-carboxamide

> <PUBCHEM_IUPAC_CAS_NAME>
(2R)-1-[(2R)-2-amino-1-oxo-3-phenylpropyl]-N-[(3R)-1-chloro-6-(diaminomethylideneamino)-2-oxohexan-3-yl]-2-pyrrolidinecarboxamide

> <PUBCHEM_IUPAC_NAME>
(2R)-1-[(2R)-2-amino-3-phenylpropanoyl]-N-[(3R)-1-chloro-6-(diaminomethylideneamino)-2-oxohexan-3-yl]pyrrolidine-2-carboxamide

> <PUBCHEM_IUPAC_SYSTEMATIC_NAME>
(2R)-1-[(2R)-2-azanyl-3-phenyl-propanoyl]-N-[(3R)-6-[bis(azanyl)methylideneamino]-1-chloranyl-2-oxidanylidene-hexan-3-yl]pyrrolidine-2-carboxamide

> <PUBCHEM_IUPAC_TRADITIONAL_NAME>
(2R)-1-[(2R)-2-amino-3-phenyl-propanoyl]-N-[(1R)-1-(2-chloroacetyl)-4-guanidino-butyl]pyrrolidine-2-carboxamide

> <PUBCHEM_IUPAC_INCHI>
InChI=1S/C21H31ClN6O3/c22-13-18(29)16(8-4-10-26-21(24)25)27-19(30)17-9-5-11-28(17)20(31)15(23)12-14-6-2-1-3-7-14/h1-3,6-7,15-17H,4-5,8-13,23H2,(H,27,30)(H4,24,25,26)/t15-,16-,17-/m1/s1

> <PUBCHEM_IUPAC_INCHIKEY>
KWPACVJPAFGBEQ-BRWVUGGUSA-N

> <PUBCHEM_XLOGP3>
0.2

> <PUBCHEM_EXACT_MASS>
450.214617

> <PUBCHEM_MOLECULAR_FORMULA>
C21H31ClN6O3

> <PUBCHEM_MOLECULAR_WEIGHT>
450.96224

> <PUBCHEM_OPENEYE_CAN_SMILES>
C1CC(N(C1)C(=O)C(CC2=CC=CC=C2)N)C(=O)NC(CCCN=C(N)N)C(=O)CCl

> <PUBCHEM_OPENEYE_ISO_SMILES>
C1C[C@@H](N(C1)C(=O)[C@@H](CC2=CC=CC=C2)N)C(=O)N[C@H](CCCN=C(N)N)C(=O)CCl

> <PUBCHEM_CACTVS_TPSA>
157

> <PUBCHEM_MONOISOTOPIC_WEIGHT>
450.214617

> <PUBCHEM_TOTAL_CHARGE>
0

> <PUBCHEM_HEAVY_ATOM_COUNT>
31

> <PUBCHEM_ATOM_DEF_STEREO_COUNT>
3

> <PUBCHEM_ATOM_UDEF_STEREO_COUNT>
0

> <PUBCHEM_BOND_DEF_STEREO_COUNT>
0

> <PUBCHEM_BOND_UDEF_STEREO_COUNT>
0

> <PUBCHEM_ISOTOPIC_ATOM_COUNT>
0

> <PUBCHEM_COMPONENT_COUNT>
1

> <PUBCHEM_CACTVS_TAUTO_COUNT>
12

> <PUBCHEM_COORDINATE_TYPE>
1
5
255

> <PUBCHEM_BONDANNOTATIONS>
11  15  5
23  26  8
23  27  8
26  28  8
27  29  8
28  30  8
29  30  8
18  6  5
17  7  6

$$$$

