73588
  -OEChem-07051212562D

 49 51  0     1  0  0  0  0  0999 V2000
    4.6660   -2.7846    0.0000 O   0  0  0  0  0  0  0  0  0  0  0  0
    3.7782    1.7468    0.0000 O   0  0  0  0  0  0  0  0  0  0  0  0
    5.5442    2.7846    0.0000 O   0  0  0  0  0  0  0  0  0  0  0  0
    3.8000   -0.2846    0.0000 C   0  0  2  0  0  0  0  0  0  0  0  0
    3.8000   -1.2846    0.0000 C   0  0  2  0  0  0  0  0  0  0  0  0
    2.9061   -1.8193    0.0000 C   0  0  0  0  0  0  0  0  0  0  0  0
    2.9061    0.2500    0.0000 C   0  0  0  0  0  0  0  0  0  0  0  0
    2.0000   -1.3054    0.0000 C   0  0  0  0  0  0  0  0  0  0  0  0
    2.0000   -0.2638    0.0000 C   0  0  0  0  0  0  0  0  0  0  0  0
    4.6660    0.2154    0.0000 C   0  0  0  0  0  0  0  0  0  0  0  0
    3.8000    0.7154    0.0000 C   0  0  0  0  0  0  0  0  0  0  0  0
    4.6660   -1.7846    0.0000 C   0  0  0  0  0  0  0  0  0  0  0  0
    2.4161   -2.6910    0.0000 C   0  0  0  0  0  0  0  0  0  0  0  0
    3.4160   -2.6795    0.0000 C   0  0  0  0  0  0  0  0  0  0  0  0
    5.5321   -0.2846    0.0000 C   0  0  0  0  0  0  0  0  0  0  0  0
    5.5321   -1.2846    0.0000 C   0  0  0  0  0  0  0  0  0  0  0  0
    4.6500    1.2569    0.0000 C   0  0  0  0  0  0  0  0  0  0  0  0
    6.4421    0.2222    0.0000 C   0  0  0  0  0  0  0  0  0  0  0  0
    6.4501    1.2638    0.0000 C   0  0  0  0  0  0  0  0  0  0  0  0
    5.5480    1.7846    0.0000 C   0  0  0  0  0  0  0  0  0  0  0  0
    7.3180    1.7605    0.0000 C   0  0  0  0  0  0  0  0  0  0  0  0
    8.1821    1.2571    0.0000 C   0  0  0  0  0  0  0  0  0  0  0  0
    7.3219    2.7605    0.0000 C   0  0  0  0  0  0  0  0  0  0  0  0
    3.8066   -2.1346    0.0000 H   0  0  0  0  0  0  0  0  0  0  0  0
    3.3107    0.7198    0.0000 H   0  0  0  0  0  0  0  0  0  0  0  0
    2.5124    0.7291    0.0000 H   0  0  0  0  0  0  0  0  0  0  0  0
    1.3891   -1.1994    0.0000 H   0  0  0  0  0  0  0  0  0  0  0  0
    1.7909   -1.8891    0.0000 H   0  0  0  0  0  0  0  0  0  0  0  0
    1.7909    0.3199    0.0000 H   0  0  0  0  0  0  0  0  0  0  0  0
    1.3891   -0.3699    0.0000 H   0  0  0  0  0  0  0  0  0  0  0  0
    4.4200    0.7154    0.0000 H   0  0  0  0  0  0  0  0  0  0  0  0
    3.8000    1.3354    0.0000 H   0  0  0  0  0  0  0  0  0  0  0  0
    3.1800    0.7154    0.0000 H   0  0  0  0  0  0  0  0  0  0  0  0
    1.8756   -2.3873    0.0000 H   0  0  0  0  0  0  0  0  0  0  0  0
    2.1123   -3.2315    0.0000 H   0  0  0  0  0  0  0  0  0  0  0  0
    2.9566   -2.9948    0.0000 H   0  0  0  0  0  0  0  0  0  0  0  0
    2.8827   -2.9957    0.0000 H   0  0  0  0  0  0  0  0  0  0  0  0
    3.7322   -3.2128    0.0000 H   0  0  0  0  0  0  0  0  0  0  0  0
    3.9494   -2.3633    0.0000 H   0  0  0  0  0  0  0  0  0  0  0  0
    6.0690   -1.5946    0.0000 H   0  0  0  0  0  0  0  0  0  0  0  0
    6.9754   -0.0940    0.0000 H   0  0  0  0  0  0  0  0  0  0  0  0
    7.8562    2.0684    0.0000 H   0  0  0  0  0  0  0  0  0  0  0  0
    3.7711    2.3668    0.0000 H   0  0  0  0  0  0  0  0  0  0  0  0
    7.8701    0.7214    0.0000 H   0  0  0  0  0  0  0  0  0  0  0  0
    8.7179    0.9451    0.0000 H   0  0  0  0  0  0  0  0  0  0  0  0
    8.4942    1.7929    0.0000 H   0  0  0  0  0  0  0  0  0  0  0  0
    7.9419    2.7581    0.0000 H   0  0  0  0  0  0  0  0  0  0  0  0
    7.3243    3.3805    0.0000 H   0  0  0  0  0  0  0  0  0  0  0  0
    6.7019    2.7629    0.0000 H   0  0  0  0  0  0  0  0  0  0  0  0
  1 12  2  0  0  0  0
  2 17  1  0  0  0  0
  2 43  1  0  0  0  0
  3 20  2  0  0  0  0
  4  5  1  0  0  0  0
  4  7  1  0  0  0  0
  4 10  1  0  0  0  0
  4 11  1  1  0  0  0
  5  6  1  0  0  0  0
  5 12  1  0  0  0  0
  5 24  1  6  0  0  0
  6  8  1  0  0  0  0
  6 13  1  0  0  0  0
  6 14  1  0  0  0  0
  7  9  1  0  0  0  0
  7 25  1  0  0  0  0
  7 26  1  0  0  0  0
  8  9  1  0  0  0  0
  8 27  1  0  0  0  0
  8 28  1  0  0  0  0
  9 29  1  0  0  0  0
  9 30  1  0  0  0  0
 10 15  1  0  0  0  0
 10 17  2  0  0  0  0
 11 31  1  0  0  0  0
 11 32  1  0  0  0  0
 11 33  1  0  0  0  0
 12 16  1  0  0  0  0
 13 34  1  0  0  0  0
 13 35  1  0  0  0  0
 13 36  1  0  0  0  0
 14 37  1  0  0  0  0
 14 38  1  0  0  0  0
 14 39  1  0  0  0  0
 15 16  2  0  0  0  0
 15 18  1  0  0  0  0
 16 40  1  0  0  0  0
 17 20  1  0  0  0  0
 18 19  2  0  0  0  0
 18 41  1  0  0  0  0
 19 20  1  0  0  0  0
 19 21  1  0  0  0  0
 21 22  1  0  0  0  0
 21 23  1  0  0  0  0
 21 42  1  0  0  0  0
 22 44  1  0  0  0  0
 22 45  1  0  0  0  0
 22 46  1  0  0  0  0
 23 47  1  0  0  0  0
 23 48  1  0  0  0  0
 23 49  1  0  0  0  0
M  END
> <PUBCHEM_COMPOUND_CID>
73588

> <PUBCHEM_COMPOUND_CANONICALIZED>
1

> <PUBCHEM_CACTVS_COMPLEXITY>
688

> <PUBCHEM_CACTVS_HBOND_ACCEPTOR>
3

> <PUBCHEM_CACTVS_HBOND_DONOR>
1

> <PUBCHEM_CACTVS_ROTATABLE_BOND>
1

> <PUBCHEM_CACTVS_SUBSKEYS>
AAADceB4MAAAAAAAAAAAAAAAAAAAAAAAAAAwQIAAAAAAAACAAAAAGgAACAAADwSAgAACAAAAAgCIAqBSAAIAAAAgIAAACAFAAEgIABIAAQAAQAAEwAAIgYOIiMCPgAAAAAAAAAAAAAQAACAAAAAAAAAAAA==

> <PUBCHEM_IUPAC_OPENEYE_NAME>
(4bS,8aS)-4-hydroxy-2-isopropyl-4b,8,8-trimethyl-5,6,7,8a-tetrahydrophenanthrene-3,9-dione

> <PUBCHEM_IUPAC_CAS_NAME>
(4bS,8aS)-4-hydroxy-4b,8,8-trimethyl-2-propan-2-yl-5,6,7,8a-tetrahydrophenanthrene-3,9-dione

> <PUBCHEM_IUPAC_NAME>
(4bS,8aS)-4-hydroxy-4b,8,8-trimethyl-2-propan-2-yl-5,6,7,8a-tetrahydrophenanthrene-3,9-dione

> <PUBCHEM_IUPAC_SYSTEMATIC_NAME>
(4bS,8aS)-4b,8,8-trimethyl-4-oxidanyl-2-propan-2-yl-5,6,7,8a-tetrahydrophenanthrene-3,9-dione

> <PUBCHEM_IUPAC_TRADITIONAL_NAME>
(4bS,8aS)-4-hydroxy-2-isopropyl-4b,8,8-trimethyl-5,6,7,8a-tetrahydrophenanthrene-3,9-quinone

> <PUBCHEM_IUPAC_INCHI>
InChI=1S/C20H26O3/c1-11(2)13-9-12-10-14(21)18-19(3,4)7-6-8-20(18,5)15(12)17(23)16(13)22/h9-11,18,23H,6-8H2,1-5H3/t18-,20+/m0/s1

> <PUBCHEM_IUPAC_INCHIKEY>
FNNZMRSRVYUVQT-AZUAARDMSA-N

> <PUBCHEM_XLOGP3_AA>
4.1

> <PUBCHEM_EXACT_MASS>
314.188195

> <PUBCHEM_MOLECULAR_FORMULA>
C20H26O3

> <PUBCHEM_MOLECULAR_WEIGHT>
314.41864

> <PUBCHEM_OPENEYE_CAN_SMILES>
CC(C)C1=CC2=CC(=O)C3C(CCCC3(C2=C(C1=O)O)C)(C)C

> <PUBCHEM_OPENEYE_ISO_SMILES>
CC(C)C1=CC2=CC(=O)[C@@H]3[C@@](C2=C(C1=O)O)(CCCC3(C)C)C

> <PUBCHEM_CACTVS_TPSA>
54.4

> <PUBCHEM_MONOISOTOPIC_WEIGHT>
314.188195

> <PUBCHEM_TOTAL_CHARGE>
0

> <PUBCHEM_HEAVY_ATOM_COUNT>
23

> <PUBCHEM_ATOM_DEF_STEREO_COUNT>
2

> <PUBCHEM_ATOM_UDEF_STEREO_COUNT>
0

> <PUBCHEM_BOND_DEF_STEREO_COUNT>
0

> <PUBCHEM_BOND_UDEF_STEREO_COUNT>
0

> <PUBCHEM_ISOTOPIC_ATOM_COUNT>
0

> <PUBCHEM_COMPONENT_COUNT>
1

> <PUBCHEM_CACTVS_TAUTO_COUNT>
66

> <PUBCHEM_COORDINATE_TYPE>
1
5
255

> <PUBCHEM_BONDANNOTATIONS>
4  11  5
5  24  6

$$$$

