441716
  -OEChem-07051212552D

 59 64  0     1  0  0  0  0  0999 V2000
    3.9594   -1.8930    0.0000 O   0  0  0  0  0  0  0  0  0  0  0  0
    3.5181   -1.0549    0.0000 O   0  0  0  0  0  0  0  0  0  0  0  0
    6.8584    1.5381    0.0000 O   0  0  0  0  0  0  0  0  0  0  0  0
    3.1713    0.9405    0.0000 O   0  0  0  0  0  0  0  0  0  0  0  0
    8.0537   -0.2909    0.0000 N   0  0  3  0  0  0  0  0  0  0  0  0
    6.1070    0.1043    0.0000 C   0  0  2  0  0  0  0  0  0  0  0  0
    6.1070   -0.7633    0.0000 C   0  0  2  0  0  0  0  0  0  0  0  0
    7.1090   -0.0017    0.0000 C   0  0  3  0  0  0  0  0  0  0  0  0
    5.4287    0.6452    0.0000 C   0  0  1  0  0  0  0  0  0  0  0  0
    4.5829   -1.1111    0.0000 C   0  0  2  0  0  0  0  0  0  0  0  0
    4.5829    0.4522    0.0000 C   0  0  1  0  0  0  0  0  0  0  0  0
    4.2065   -0.3295    0.0000 C   0  0  1  0  0  0  0  0  0  0  0  0
    5.4287   -1.3042    0.0000 C   0  0  0  0  0  0  0  0  0  0  0  0
    6.8584   -1.1970    0.0000 C   0  0  2  0  0  0  0  0  0  0  0  0
    6.8584    0.5381    0.0000 C   0  0  2  0  0  0  0  0  0  0  0  0
    5.5065    1.5093    0.0000 C   0  0  0  0  0  0  0  0  0  0  0  0
    4.7087    1.8503    0.0000 C   0  0  1  0  0  0  0  0  0  0  0  0
    4.1379    1.1970    0.0000 C   0  0  2  0  0  0  0  0  0  0  0  0
    8.0537   -1.0428    0.0000 C   0  0  0  0  0  0  0  0  0  0  0  0
    3.5616   -0.0596    0.0000 C   0  0  0  0  0  0  0  0  0  0  0  0
    7.6097   -0.7633    0.0000 C   0  0  0  0  0  0  0  0  0  0  0  0
    7.6097    0.1043    0.0000 C   0  0  0  0  0  0  0  0  0  0  0  0
    3.5616    1.4250    0.0000 C   0  0  0  0  0  0  0  0  0  0  0  0
    6.8584   -2.1970    0.0000 C   0  0  0  0  0  0  0  0  0  0  0  0
    8.8576    0.3038    0.0000 C   0  0  0  0  0  0  0  0  0  0  0  0
    9.7746   -0.0952    0.0000 C   0  0  0  0  0  0  0  0  0  0  0  0
    6.1705   -1.6109    0.0000 H   0  0  0  0  0  0  0  0  0  0  0  0
    7.2789    0.8311    0.0000 H   0  0  0  0  0  0  0  0  0  0  0  0
    6.2103    0.9793    0.0000 H   0  0  0  0  0  0  0  0  0  0  0  0
    3.7337    0.4140    0.0000 H   0  0  0  0  0  0  0  0  0  0  0  0
    5.9134   -1.6908    0.0000 H   0  0  0  0  0  0  0  0  0  0  0  0
    5.1597   -1.8628    0.0000 H   0  0  0  0  0  0  0  0  0  0  0  0
    6.3214    0.8481    0.0000 H   0  0  0  0  0  0  0  0  0  0  0  0
    5.6892    2.1018    0.0000 H   0  0  0  0  0  0  0  0  0  0  0  0
    6.1148    1.3895    0.0000 H   0  0  0  0  0  0  0  0  0  0  0  0
    4.7295    2.7000    0.0000 H   0  0  0  0  0  0  0  0  0  0  0  0
    3.8107    1.7236    0.0000 H   0  0  0  0  0  0  0  0  0  0  0  0
    8.6731   -1.0163    0.0000 H   0  0  0  0  0  0  0  0  0  0  0  0
    8.1067   -1.6606    0.0000 H   0  0  0  0  0  0  0  0  0  0  0  0
    3.3996   -0.6580    0.0000 H   0  0  0  0  0  0  0  0  0  0  0  0
    2.9470    0.0221    0.0000 H   0  0  0  0  0  0  0  0  0  0  0  0
    8.2203   -0.6556    0.0000 H   0  0  0  0  0  0  0  0  0  0  0  0
    7.8218   -1.3459    0.0000 H   0  0  0  0  0  0  0  0  0  0  0  0
    7.8218    0.6869    0.0000 H   0  0  0  0  0  0  0  0  0  0  0  0
    8.2203   -0.0034    0.0000 H   0  0  0  0  0  0  0  0  0  0  0  0
    2.9459    1.3518    0.0000 H   0  0  0  0  0  0  0  0  0  0  0  0
    3.4162    2.0277    0.0000 H   0  0  0  0  0  0  0  0  0  0  0  0
    7.4784   -2.1970    0.0000 H   0  0  0  0  0  0  0  0  0  0  0  0
    6.8584   -2.8170    0.0000 H   0  0  0  0  0  0  0  0  0  0  0  0
    6.2384   -2.1970    0.0000 H   0  0  0  0  0  0  0  0  0  0  0  0
    4.1859   -2.4701    0.0000 H   0  0  0  0  0  0  0  0  0  0  0  0
    2.9153   -0.9102    0.0000 H   0  0  0  0  0  0  0  0  0  0  0  0
    8.4080    0.7306    0.0000 H   0  0  0  0  0  0  0  0  0  0  0  0
    9.2000    0.8207    0.0000 H   0  0  0  0  0  0  0  0  0  0  0  0
    7.3953    1.8481    0.0000 H   0  0  0  0  0  0  0  0  0  0  0  0
    2.7340    1.3800    0.0000 H   0  0  0  0  0  0  0  0  0  0  0  0
   10.0220    0.4734    0.0000 H   0  0  0  0  0  0  0  0  0  0  0  0
   10.3432   -0.3425    0.0000 H   0  0  0  0  0  0  0  0  0  0  0  0
    9.5273   -0.6637    0.0000 H   0  0  0  0  0  0  0  0  0  0  0  0
 10  1  1  1  0  0  0
  1 51  1  0  0  0  0
 12  2  1  6  0  0  0
  2 52  1  0  0  0  0
 15  3  1  1  0  0  0
  3 55  1  0  0  0  0
 18  4  1  1  0  0  0
  4 56  1  0  0  0  0
  5  8  1  0  0  0  0
  5 19  1  0  0  0  0
  5 25  1  0  0  0  0
  6  7  1  0  0  0  0
  6  8  1  0  0  0  0
  6  9  1  0  0  0  0
  6 15  1  6  0  0  0
  7 13  1  0  0  0  0
  7 14  1  0  0  0  0
  7 27  1  6  0  0  0
  8 10  1  0  0  0  0
  8 28  1  0  0  0  0
  9 11  1  0  0  0  0
  9 16  1  0  0  0  0
  9 29  1  6  0  0  0
 10 12  1  0  0  0  0
 10 13  1  0  0  0  0
 11 12  1  0  0  0  0
 11 18  1  0  0  0  0
 11 30  1  6  0  0  0
 12 20  1  0  0  0  0
 13 31  1  0  0  0  0
 13 32  1  0  0  0  0
 14 19  1  0  0  0  0
 14 21  1  0  0  0  0
 14 24  1  6  0  0  0
 15 22  1  0  0  0  0
 15 33  1  0  0  0  0
 16 17  1  0  0  0  0
 16 34  1  0  0  0  0
 16 35  1  0  0  0  0
 17 18  1  0  0  0  0
 17 23  1  0  0  0  0
 17 36  1  6  0  0  0
 18 37  1  0  0  0  0
 19 38  1  0  0  0  0
 19 39  1  0  0  0  0
 20 23  1  0  0  0  0
 20 40  1  0  0  0  0
 20 41  1  0  0  0  0
 21 22  1  0  0  0  0
 21 42  1  0  0  0  0
 21 43  1  0  0  0  0
 22 44  1  0  0  0  0
 22 45  1  0  0  0  0
 23 46  1  0  0  0  0
 23 47  1  0  0  0  0
 24 48  1  0  0  0  0
 24 49  1  0  0  0  0
 24 50  1  0  0  0  0
 25 26  1  0  0  0  0
 25 53  1  0  0  0  0
 25 54  1  0  0  0  0
 26 57  1  0  0  0  0
 26 58  1  0  0  0  0
 26 59  1  0  0  0  0
M  END
> <PUBCHEM_COMPOUND_CID>
441716

> <PUBCHEM_COMPOUND_CANONICALIZED>
1

> <PUBCHEM_CACTVS_COMPLEXITY>
672

> <PUBCHEM_CACTVS_HBOND_ACCEPTOR>
5

> <PUBCHEM_CACTVS_HBOND_DONOR>
4

> <PUBCHEM_CACTVS_ROTATABLE_BOND>
1

> <PUBCHEM_CACTVS_SUBSKEYS>
AAADcfB6OAAAAAAAAAAAAAAAAAAAAYMAAAA8YMEAB4gWAGAAAAAAHgAACAAAD3zhgAYCAAMAAgAAAAAAAAAAAAAAAAAAAAAIAAADEAIAgAAEQAAHAACRAAHQ8PcPgAAAAAAAAADQAAaUADSgAaAADQgAAA==

> <PUBCHEM_IUPAC_INCHI>
InChI=1S/C21H33NO4/c1-3-22-10-18(2)6-5-14(23)21-12-8-11-4-7-19(25,15(12)16(11)24)20(26,17(21)22)9-13(18)21/h11-17,23-26H,3-10H2,1-2H3/t11-,12+,13+,14-,15+,16-,17?,18-,19+,20+,21+/m0/s1

> <PUBCHEM_IUPAC_INCHIKEY>
AIQHURFKXYCRCF-DFKOQAFRSA-N

> <PUBCHEM_XLOGP3_AA>
0.4

> <PUBCHEM_EXACT_MASS>
363.240959

> <PUBCHEM_MOLECULAR_FORMULA>
C21H33NO4

> <PUBCHEM_MOLECULAR_WEIGHT>
363.49102

> <PUBCHEM_OPENEYE_CAN_SMILES>
CCN1CC2(CCC(C34C2CC(C31)(C5(CCC6CC4C5C6O)O)O)O)C

> <PUBCHEM_OPENEYE_ISO_SMILES>
CCN1C[C@@]2(CC[C@@H]([C@@]34[C@@H]2C[C@@](C31)([C@]5(CC[C@H]6C[C@@H]4[C@@H]5[C@H]6O)O)O)O)C

> <PUBCHEM_CACTVS_TPSA>
84.2

> <PUBCHEM_MONOISOTOPIC_WEIGHT>
363.240959

> <PUBCHEM_TOTAL_CHARGE>
0

> <PUBCHEM_HEAVY_ATOM_COUNT>
26

> <PUBCHEM_ATOM_DEF_STEREO_COUNT>
10

> <PUBCHEM_ATOM_UDEF_STEREO_COUNT>
1

> <PUBCHEM_BOND_DEF_STEREO_COUNT>
0

> <PUBCHEM_BOND_UDEF_STEREO_COUNT>
0

> <PUBCHEM_ISOTOPIC_ATOM_COUNT>
0

> <PUBCHEM_COMPONENT_COUNT>
1

> <PUBCHEM_CACTVS_TAUTO_COUNT>
1

> <PUBCHEM_COORDINATE_TYPE>
1
5
255

> <PUBCHEM_BONDANNOTATIONS>
10  1  5
11  30  6
14  24  6
17  36  6
12  2  6
15  3  5
18  4  5
6  15  6
7  27  6
8  28  3
9  29  6

$$$$

