105137
  -OEChem-07051212562D

 77 83  0     1  0  0  0  0  0999 V2000
    4.3933    1.2798    0.0000 O   0  0  0  0  0  0  0  0  0  0  0  0
    3.3710    1.8575    0.0000 O   0  0  0  0  0  0  0  0  0  0  0  0
    4.5851    5.2525    0.0000 O   0  0  0  0  0  0  0  0  0  0  0  0
    6.8554    2.0468    0.0000 O   0  0  0  0  0  0  0  0  0  0  0  0
    5.3743   -0.9223    0.0000 O   0  0  0  0  0  0  0  0  0  0  0  0
    5.1950    2.6780    0.0000 N   0  0  0  0  0  0  0  0  0  0  0  0
    3.5724    3.8473    0.0000 N   0  0  0  0  0  0  0  0  0  0  0  0
    6.2345    0.5811    0.0000 N   0  0  0  0  0  0  0  0  0  0  0  0
    8.9064   -0.9225    0.0000 N   0  0  3  0  0  0  0  0  0  0  0  0
    9.8945   -5.1127    0.0000 N   0  0  0  0  0  0  0  0  0  0  0  0
    3.4717    2.8524    0.0000 C   0  0  2  0  0  0  0  0  0  0  0  0
    4.2830    2.2678    0.0000 C   0  0  2  0  0  0  0  0  0  0  0  0
    5.2956    3.6729    0.0000 C   0  0  2  0  0  0  0  0  0  0  0  0
    2.4996    2.6445    0.0000 C   0  0  0  0  0  0  0  0  0  0  0  0
    2.6617    4.2458    0.0000 C   0  0  0  0  0  0  0  0  0  0  0  0
    2.0000    3.5039    0.0000 C   0  0  0  0  0  0  0  0  0  0  0  0
    5.3666    1.0777    0.0000 C   0  0  1  0  0  0  0  0  0  0  0  0
    4.4844    4.2576    0.0000 C   0  0  0  0  0  0  0  0  0  0  0  0
    5.8610    1.9401    0.0000 C   0  0  0  0  0  0  0  0  0  0  0  0
    6.2076    4.0832    0.0000 C   0  0  0  0  0  0  0  0  0  0  0  0
    6.3083    5.0781    0.0000 C   0  0  0  0  0  0  0  0  0  0  0  0
    5.1624    0.0988    0.0000 C   0  0  0  0  0  0  0  0  0  0  0  0
    7.1063   -0.9156    0.0000 C   0  0  1  0  0  0  0  0  0  0  0  0
    8.8904   -1.9640    0.0000 C   0  0  1  0  0  0  0  0  0  0  0  0
    6.2384   -0.4189    0.0000 C   0  0  0  0  0  0  0  0  0  0  0  0
    8.0084   -0.3948    0.0000 C   0  0  0  0  0  0  0  0  0  0  0  0
    8.0244   -2.4640    0.0000 C   0  0  0  0  0  0  0  0  0  0  0  0
    7.2203    5.4884    0.0000 C   0  0  0  0  0  0  0  0  0  0  0  0
    5.4970    5.6628    0.0000 C   0  0  0  0  0  0  0  0  0  0  0  0
    7.1144   -1.9572    0.0000 C   0  0  0  0  0  0  0  0  0  0  0  0
    9.7564   -2.4640    0.0000 C   0  0  0  0  0  0  0  0  0  0  0  0
    8.0244   -3.4640    0.0000 C   0  0  0  0  0  0  0  0  0  0  0  0
    9.7564   -3.4640    0.0000 C   0  0  0  0  0  0  0  0  0  0  0  0
    8.8904   -3.9640    0.0000 C   0  0  0  0  0  0  0  0  0  0  0  0
    9.7782   -0.4326    0.0000 C   0  0  0  0  0  0  0  0  0  0  0  0
    8.9064   -5.0055    0.0000 C   0  0  0  0  0  0  0  0  0  0  0  0
   10.3743   -4.2424    0.0000 C   0  0  0  0  0  0  0  0  0  0  0  0
    7.1144   -3.9709    0.0000 C   0  0  0  0  0  0  0  0  0  0  0  0
    8.0084   -5.5333    0.0000 C   0  0  0  0  0  0  0  0  0  0  0  0
    7.1063   -5.0125    0.0000 C   0  0  0  0  0  0  0  0  0  0  0  0
    3.2971    2.0206    0.0000 H   0  0  0  0  0  0  0  0  0  0  0  0
    5.7986    3.3104    0.0000 H   0  0  0  0  0  0  0  0  0  0  0  0
    1.9338    2.3910    0.0000 H   0  0  0  0  0  0  0  0  0  0  0  0
    2.6923    2.0552    0.0000 H   0  0  0  0  0  0  0  0  0  0  0  0
    2.9685    4.7846    0.0000 H   0  0  0  0  0  0  0  0  0  0  0  0
    2.1582    4.6076    0.0000 H   0  0  0  0  0  0  0  0  0  0  0  0
    1.5832    3.9630    0.0000 H   0  0  0  0  0  0  0  0  0  0  0  0
    1.4997    3.1377    0.0000 H   0  0  0  0  0  0  0  0  0  0  0  0
    6.3599    3.4822    0.0000 H   0  0  0  0  0  0  0  0  0  0  0  0
    6.8259    4.1288    0.0000 H   0  0  0  0  0  0  0  0  0  0  0  0
    3.3086    1.2407    0.0000 H   0  0  0  0  0  0  0  0  0  0  0  0
    6.8113    4.7156    0.0000 H   0  0  0  0  0  0  0  0  0  0  0  0
    6.7703    0.8931    0.0000 H   0  0  0  0  0  0  0  0  0  0  0  0
    4.5555    0.2254    0.0000 H   0  0  0  0  0  0  0  0  0  0  0  0
    5.0359   -0.5082    0.0000 H   0  0  0  0  0  0  0  0  0  0  0  0
    5.7694   -0.0278    0.0000 H   0  0  0  0  0  0  0  0  0  0  0  0
    6.5712   -1.2287    0.0000 H   0  0  0  0  0  0  0  0  0  0  0  0
    9.6298   -1.5447    0.0000 H   0  0  0  0  0  0  0  0  0  0  0  0
    8.4094    0.0781    0.0000 H   0  0  0  0  0  0  0  0  0  0  0  0
    7.6111    0.0812    0.0000 H   0  0  0  0  0  0  0  0  0  0  0  0
    7.4746    4.9229    0.0000 H   0  0  0  0  0  0  0  0  0  0  0  0
    7.7857    5.7427    0.0000 H   0  0  0  0  0  0  0  0  0  0  0  0
    6.9659    6.0538    0.0000 H   0  0  0  0  0  0  0  0  0  0  0  0
    5.8595    6.1658    0.0000 H   0  0  0  0  0  0  0  0  0  0  0  0
    4.9940    6.0253    0.0000 H   0  0  0  0  0  0  0  0  0  0  0  0
    5.1346    5.1598    0.0000 H   0  0  0  0  0  0  0  0  0  0  0  0
    6.5810   -2.2734    0.0000 H   0  0  0  0  0  0  0  0  0  0  0  0
   10.3670   -2.5717    0.0000 H   0  0  0  0  0  0  0  0  0  0  0  0
    9.9685   -1.8814    0.0000 H   0  0  0  0  0  0  0  0  0  0  0  0
   10.0820   -0.9730    0.0000 H   0  0  0  0  0  0  0  0  0  0  0  0
   10.3187   -0.1288    0.0000 H   0  0  0  0  0  0  0  0  0  0  0  0
    9.4744    0.1079    0.0000 H   0  0  0  0  0  0  0  0  0  0  0  0
   10.9922   -4.1906    0.0000 H   0  0  0  0  0  0  0  0  0  0  0  0
    6.5810   -3.6547    0.0000 H   0  0  0  0  0  0  0  0  0  0  0  0
   10.1805   -5.6628    0.0000 H   0  0  0  0  0  0  0  0  0  0  0  0
    8.0108   -6.1533    0.0000 H   0  0  0  0  0  0  0  0  0  0  0  0
    6.5682   -5.3204    0.0000 H   0  0  0  0  0  0  0  0  0  0  0  0
  1 12  1  0  0  0  0
  1 17  1  0  0  0  0
 12  2  1  6  0  0  0
  2 51  1  0  0  0  0
  3 18  2  0  0  0  0
  4 19  2  0  0  0  0
  5 25  2  0  0  0  0
  6 12  1  0  0  0  0
  6 13  1  0  0  0  0
  6 19  1  0  0  0  0
  7 11  1  0  0  0  0
  7 15  1  0  0  0  0
  7 18  1  0  0  0  0
 17  8  1  6  0  0  0
  8 25  1  0  0  0  0
  8 53  1  0  0  0  0
  9 24  1  0  0  0  0
  9 26  1  0  0  0  0
  9 35  1  0  0  0  0
 10 36  1  0  0  0  0
 10 37  1  0  0  0  0
 10 75  1  0  0  0  0
 11 12  1  0  0  0  0
 11 14  1  0  0  0  0
 11 41  1  1  0  0  0
 13 18  1  0  0  0  0
 13 20  1  6  0  0  0
 13 42  1  0  0  0  0
 14 16  1  0  0  0  0
 14 43  1  0  0  0  0
 14 44  1  0  0  0  0
 15 16  1  0  0  0  0
 15 45  1  0  0  0  0
 15 46  1  0  0  0  0
 16 47  1  0  0  0  0
 16 48  1  0  0  0  0
 17 19  1  0  0  0  0
 17 22  1  0  0  0  0
 20 21  1  0  0  0  0
 20 49  1  0  0  0  0
 20 50  1  0  0  0  0
 21 28  1  0  0  0  0
 21 29  1  0  0  0  0
 21 52  1  0  0  0  0
 22 54  1  0  0  0  0
 22 55  1  0  0  0  0
 22 56  1  0  0  0  0
 23 25  1  1  0  0  0
 23 26  1  0  0  0  0
 23 30  1  0  0  0  0
 23 57  1  0  0  0  0
 24 27  1  0  0  0  0
 24 31  1  0  0  0  0
 24 58  1  1  0  0  0
 26 59  1  0  0  0  0
 26 60  1  0  0  0  0
 27 30  2  0  0  0  0
 27 32  1  0  0  0  0
 28 61  1  0  0  0  0
 28 62  1  0  0  0  0
 28 63  1  0  0  0  0
 29 64  1  0  0  0  0
 29 65  1  0  0  0  0
 29 66  1  0  0  0  0
 30 67  1  0  0  0  0
 31 33  1  0  0  0  0
 31 68  1  0  0  0  0
 31 69  1  0  0  0  0
 32 34  2  0  0  0  0
 32 38  1  0  0  0  0
 33 34  1  0  0  0  0
 33 37  2  0  0  0  0
 34 36  1  0  0  0  0
 35 70  1  0  0  0  0
 35 71  1  0  0  0  0
 35 72  1  0  0  0  0
 36 39  2  0  0  0  0
 37 73  1  0  0  0  0
 38 40  2  0  0  0  0
 38 74  1  0  0  0  0
 39 40  1  0  0  0  0
 39 76  1  0  0  0  0
 40 77  1  0  0  0  0
M  END
> <PUBCHEM_COMPOUND_CID>
105137

> <PUBCHEM_COMPOUND_CANONICALIZED>
1

> <PUBCHEM_CACTVS_COMPLEXITY>
1140

> <PUBCHEM_CACTVS_HBOND_ACCEPTOR>
6

> <PUBCHEM_CACTVS_HBOND_DONOR>
3

> <PUBCHEM_CACTVS_ROTATABLE_BOND>
4

> <PUBCHEM_CACTVS_SUBSKEYS>
AAADcfB7uAAAAAAAAAAAAAAAAAAAAWLFgAA8YIEAAAAAAFjB8AAAHgAQCAAADSzBngQ+yPPJlgCoAzV3VAKCgCAxAiAI2aH4ZJkaYPrA0bWfYAhklgDcyAeYkMIOgAAAQAASAAAQAASAACQAAAAAAAAAAA==

> <PUBCHEM_IUPAC_INCHI>
InChI=1S/C30H37N5O5/c1-16(2)11-23-27(37)34-10-6-9-24(34)30(39)35(23)28(38)29(3,40-30)32-26(36)18-12-20-19-7-5-8-21-25(19)17(14-31-21)13-22(20)33(4)15-18/h5,7-8,12,14,16,18,22-24,31,39H,6,9-11,13,15H2,1-4H3,(H,32,36)/t18-,22-,23+,24+,29-,30+/m1/s1

> <PUBCHEM_IUPAC_INCHIKEY>
NESVMZOPWPCFAU-ZPRCMDFASA-N

> <PUBCHEM_XLOGP3_AA>
1.8

> <PUBCHEM_EXACT_MASS>
547.279469

> <PUBCHEM_MOLECULAR_FORMULA>
C30H37N5O5

> <PUBCHEM_MOLECULAR_WEIGHT>
547.64528

> <PUBCHEM_OPENEYE_CAN_SMILES>
CC(C)CC1C(=O)N2CCCC2C3(N1C(=O)C(O3)(C)NC(=O)C4CN(C5CC6=CNC7=CC=CC(=C67)C5=C4)C)O

> <PUBCHEM_OPENEYE_ISO_SMILES>
CC(C)C[C@H]1C(=O)N2CCC[C@H]2[C@]3(N1C(=O)[C@](O3)(C)NC(=O)[C@H]4CN([C@@H]5CC6=CNC7=CC=CC(=C67)C5=C4)C)O

> <PUBCHEM_CACTVS_TPSA>
118

> <PUBCHEM_MONOISOTOPIC_WEIGHT>
547.279469

> <PUBCHEM_TOTAL_CHARGE>
0

> <PUBCHEM_HEAVY_ATOM_COUNT>
40

> <PUBCHEM_ATOM_DEF_STEREO_COUNT>
6

> <PUBCHEM_ATOM_UDEF_STEREO_COUNT>
0

> <PUBCHEM_BOND_DEF_STEREO_COUNT>
0

> <PUBCHEM_BOND_UDEF_STEREO_COUNT>
0

> <PUBCHEM_ISOTOPIC_ATOM_COUNT>
0

> <PUBCHEM_COMPONENT_COUNT>
1

> <PUBCHEM_CACTVS_TAUTO_COUNT>
8

> <PUBCHEM_COORDINATE_TYPE>
1
5
255

> <PUBCHEM_BONDANNOTATIONS>
10  36  8
10  37  8
11  41  5
13  20  6
12  2  6
23  25  5
24  58  5
32  34  8
32  38  8
33  34  8
33  37  8
34  36  8
36  39  8
38  40  8
39  40  8
17  8  6

$$$$

