12886
  -OEChem-06261207303D

 29 30  0     0  0  0  0  0  0999 V2000
    1.6879   -2.6226   -0.0007 F   0  0  0  0  0  0  0  0  0  0  0  0
    4.0509    1.8682    0.0006 O   0  0  0  0  0  0  0  0  0  0  0  0
    3.3105   -0.3701    0.0004 N   0  0  0  0  0  0  0  0  0  0  0  0
   -0.8605   -0.0303    0.0010 C   0  0  0  0  0  0  0  0  0  0  0  0
   -2.3026    0.0878    0.0002 C   0  0  0  0  0  0  0  0  0  0  0  0
    1.9197   -0.2587    0.0019 C   0  0  0  0  0  0  0  0  0  0  0  0
   -0.2645   -1.2914    0.0017 C   0  0  0  0  0  0  0  0  0  0  0  0
   -0.0667    1.1165    0.0009 C   0  0  0  0  0  0  0  0  0  0  0  0
    1.1257   -1.4055    0.0020 C   0  0  0  0  0  0  0  0  0  0  0  0
    1.3235    1.0024    0.0013 C   0  0  0  0  0  0  0  0  0  0  0  0
   -2.9984    0.1455    1.2077 C   0  0  0  0  0  0  0  0  0  0  0  0
   -2.9969    0.1442   -1.2083 C   0  0  0  0  0  0  0  0  0  0  0  0
   -4.3887    0.2596    1.2068 C   0  0  0  0  0  0  0  0  0  0  0  0
   -4.3871    0.2584   -1.2091 C   0  0  0  0  0  0  0  0  0  0  0  0
   -5.0829    0.3160   -0.0016 C   0  0  0  0  0  0  0  0  0  0  0  0
    4.2608    0.6595   -0.0018 C   0  0  0  0  0  0  0  0  0  0  0  0
    5.6693    0.1204   -0.0029 C   0  0  0  0  0  0  0  0  0  0  0  0
   -0.8684   -2.1956    0.0011 H   0  0  0  0  0  0  0  0  0  0  0  0
   -0.5166    2.1067    0.0003 H   0  0  0  0  0  0  0  0  0  0  0  0
    1.8702    1.9349    0.0009 H   0  0  0  0  0  0  0  0  0  0  0  0
   -2.4727    0.1029    2.1587 H   0  0  0  0  0  0  0  0  0  0  0  0
   -2.4701    0.1005   -2.1586 H   0  0  0  0  0  0  0  0  0  0  0  0
    3.6673   -1.3236    0.0003 H   0  0  0  0  0  0  0  0  0  0  0  0
   -4.9306    0.3045    2.1470 H   0  0  0  0  0  0  0  0  0  0  0  0
   -4.9279    0.3023   -2.1500 H   0  0  0  0  0  0  0  0  0  0  0  0
   -6.1654    0.4049   -0.0024 H   0  0  0  0  0  0  0  0  0  0  0  0
    5.8418   -0.4635    0.9056 H   0  0  0  0  0  0  0  0  0  0  0  0
    6.3831    0.9482   -0.0347 H   0  0  0  0  0  0  0  0  0  0  0  0
    5.8234   -0.5141   -0.8803 H   0  0  0  0  0  0  0  0  0  0  0  0
  1  9  1  0  0  0  0
  2 16  2  0  0  0  0
  3  6  1  0  0  0  0
  3 16  1  0  0  0  0
  3 23  1  0  0  0  0
  4  5  1  0  0  0  0
  4  7  2  0  0  0  0
  4  8  1  0  0  0  0
  5 11  2  0  0  0  0
  5 12  1  0  0  0  0
  6  9  2  0  0  0  0
  6 10  1  0  0  0  0
  7  9  1  0  0  0  0
  7 18  1  0  0  0  0
  8 10  2  0  0  0  0
  8 19  1  0  0  0  0
 10 20  1  0  0  0  0
 11 13  1  0  0  0  0
 11 21  1  0  0  0  0
 12 14  2  0  0  0  0
 12 22  1  0  0  0  0
 13 15  2  0  0  0  0
 13 24  1  0  0  0  0
 14 15  1  0  0  0  0
 14 25  1  0  0  0  0
 15 26  1  0  0  0  0
 16 17  1  0  0  0  0
 17 27  1  0  0  0  0
 17 28  1  0  0  0  0
 17 29  1  0  0  0  0
M  END
> <PUBCHEM_COMPOUND_CID>
12886

> <PUBCHEM_CONFORMER_RMSD>
0.6

> <PUBCHEM_CONFORMER_DIVERSEORDER>
1
5
2
6
4
3

> <PUBCHEM_MMFF94_PARTIAL_CHARGES>
24
1 -0.19
10 -0.15
11 -0.15
12 -0.15
13 -0.15
14 -0.15
15 -0.15
16 0.57
17 0.06
18 0.15
19 0.15
2 -0.57
20 0.15
21 0.15
22 0.15
23 0.37
24 0.15
25 0.15
26 0.15
3 -0.55
6 0.12
7 -0.15
8 -0.15
9 0.19

> <PUBCHEM_EFFECTIVE_ROTOR_COUNT>
3

> <PUBCHEM_PHARMACOPHORE_FEATURES>
4
1 2 acceptor
1 3 donor
6 4 6 7 8 9 10 rings
6 5 11 12 13 14 15 rings

> <PUBCHEM_HEAVY_ATOM_COUNT>
17

> <PUBCHEM_ATOM_DEF_STEREO_COUNT>
0

> <PUBCHEM_ATOM_UDEF_STEREO_COUNT>
0

> <PUBCHEM_BOND_DEF_STEREO_COUNT>
0

> <PUBCHEM_BOND_UDEF_STEREO_COUNT>
0

> <PUBCHEM_ISOTOPIC_ATOM_COUNT>
0

> <PUBCHEM_COMPONENT_COUNT>
1

> <PUBCHEM_CACTVS_TAUTO_COUNT>
2

> <PUBCHEM_CONFORMER_ID>
0000325600000001

> <PUBCHEM_MMFF94_ENERGY>
52.4292

> <PUBCHEM_FEATURE_SELFOVERLAP>
20.297

> <PUBCHEM_SHAPE_FINGERPRINT>
11401426 45 18335143080886625092
11471102 20 18410576197159861420
11543360 7 15792014428875871696
12236239 1 17749107812047297001
12644460 14 18342460386968293434
13140716 1 18267862779151464192
13214271 11 17917712388117065735
13533116 47 17822292431780349642
13583140 156 16414657972328245620
13675066 3 17561081393242673818
13760787 19 15647051590217374829
13760787 5 18335704970014746862
13862211 1 18410298025456288370
15219456 202 17988643038523644655
15375358 24 18060419127340645499
17834072 33 17313107423339052685
18186145 218 18335983091028304668
19489759 90 16200154291962811189
200 152 18260834795822233549
20279233 1 17703785942634442851
20325693 3 15502373427030307597
204376 136 18412542080990336238
20645477 70 18340774861091138223
21033648 29 18059310789334244884
21054139 6 18188221900646036311
22854114 59 18342174466388902249
23402539 116 16950284013658654584
23402655 69 18261398892437165933
23536379 177 15936404559567855244
23557571 272 16845011320249263605
23559900 14 16845011337561462482
296302 2 18201721773405003083
34797466 226 14996563932752051040
350125 39 18051406267313792035
4072396 5 18271823340594322202
42630746 31 18334856151834523406
474 4 18335139739486744320
4990 188 17095237017031558580
5104073 3 18267871584403971424
542803 24 17676203576543926505
633830 44 18187353325172366132
77492 1 17676491679029610723
81539 233 18202001040658169594

> <PUBCHEM_SHAPE_MULTIPOLES>
331.73
10.95
1.45
0.96
3.61
0.62
0
-2.79
0.01
1.45
0
-1.33
-0.07
0

> <PUBCHEM_SHAPE_SELFOVERLAP>
715.412

> <PUBCHEM_SHAPE_VOLUME>
182.6

> <PUBCHEM_COORDINATE_TYPE>
2
5
10

$$$$

