17396653
  -OEChem-06241222572D

 50 53  0     1  0  0  0  0  0999 V2000
    5.8270   -4.3201    0.0000 F   0  0  0  0  0  0  0  0  0  0  0  0
    7.0747    2.2508    0.0000 O   0  0  0  0  0  0  0  0  0  0  0  0
    7.0747    4.3201    0.0000 O   0  0  0  0  0  0  0  0  0  0  0  0
    3.0623   -0.6654    0.0000 O   0  0  0  0  0  0  0  0  0  0  0  0
    3.4782    1.2909    0.0000 N   0  0  3  0  0  0  0  0  0  0  0  0
    4.7565   -1.0255    0.0000 N   0  0  0  0  0  0  0  0  0  0  0  0
    3.5827    2.2854    0.0000 C   0  0  3  0  0  0  0  0  0  0  0  0
    2.6691    2.6922    0.0000 C   0  0  0  0  0  0  0  0  0  0  0  0
    2.0000    1.9490    0.0000 C   0  0  0  0  0  0  0  0  0  0  0  0
    2.5000    1.0830    0.0000 C   0  0  0  0  0  0  0  0  0  0  0  0
    4.4487    2.7854    0.0000 C   0  0  0  0  0  0  0  0  0  0  0  0
    4.2213    0.6218    0.0000 C   0  0  0  0  0  0  0  0  0  0  0  0
    5.3147    2.2854    0.0000 C   0  0  0  0  0  0  0  0  0  0  0  0
    4.4487    3.7854    0.0000 C   0  0  0  0  0  0  0  0  0  0  0  0
    4.0134   -0.3564    0.0000 C   0  0  0  0  0  0  0  0  0  0  0  0
    6.1808    2.7854    0.0000 C   0  0  0  0  0  0  0  0  0  0  0  0
    5.3147    4.2854    0.0000 C   0  0  0  0  0  0  0  0  0  0  0  0
    6.1808    3.7854    0.0000 C   0  0  0  0  0  0  0  0  0  0  0  0
    7.9808    2.7646    0.0000 C   0  0  0  0  0  0  0  0  0  0  0  0
    7.9808    3.8062    0.0000 C   0  0  0  0  0  0  0  0  0  0  0  0
    4.5486   -2.0037    0.0000 C   0  0  0  0  0  0  0  0  0  0  0  0
    3.5976   -2.3127    0.0000 C   0  0  0  0  0  0  0  0  0  0  0  0
    5.2918   -2.6728    0.0000 C   0  0  0  0  0  0  0  0  0  0  0  0
    3.3896   -3.2908    0.0000 C   0  0  0  0  0  0  0  0  0  0  0  0
    2.8544   -1.6436    0.0000 C   0  0  0  0  0  0  0  0  0  0  0  0
    5.0838   -3.6509    0.0000 C   0  0  0  0  0  0  0  0  0  0  0  0
    4.1328   -3.9600    0.0000 C   0  0  0  0  0  0  0  0  0  0  0  0
    4.1026    1.9477    0.0000 H   0  0  0  0  0  0  0  0  0  0  0  0
    2.9791    3.2291    0.0000 H   0  0  0  0  0  0  0  0  0  0  0  0
    2.1675    3.0566    0.0000 H   0  0  0  0  0  0  0  0  0  0  0  0
    1.5851    2.4098    0.0000 H   0  0  0  0  0  0  0  0  0  0  0  0
    1.4984    1.5846    0.0000 H   0  0  0  0  0  0  0  0  0  0  0  0
    1.9336    0.8308    0.0000 H   0  0  0  0  0  0  0  0  0  0  0  0
    2.6916    0.4933    0.0000 H   0  0  0  0  0  0  0  0  0  0  0  0
    4.7962    0.3895    0.0000 H   0  0  0  0  0  0  0  0  0  0  0  0
    4.5498    1.1476    0.0000 H   0  0  0  0  0  0  0  0  0  0  0  0
    5.3147    1.6654    0.0000 H   0  0  0  0  0  0  0  0  0  0  0  0
    3.9118    4.0954    0.0000 H   0  0  0  0  0  0  0  0  0  0  0  0
    5.3147    4.9054    0.0000 H   0  0  0  0  0  0  0  0  0  0  0  0
    5.3462   -0.8339    0.0000 H   0  0  0  0  0  0  0  0  0  0  0  0
    8.1898    2.1809    0.0000 H   0  0  0  0  0  0  0  0  0  0  0  0
    8.5916    2.8707    0.0000 H   0  0  0  0  0  0  0  0  0  0  0  0
    8.5916    3.7001    0.0000 H   0  0  0  0  0  0  0  0  0  0  0  0
    8.1898    4.3899    0.0000 H   0  0  0  0  0  0  0  0  0  0  0  0
    5.8814   -2.4812    0.0000 H   0  0  0  0  0  0  0  0  0  0  0  0
    2.8000   -3.4824    0.0000 H   0  0  0  0  0  0  0  0  0  0  0  0
    3.2693   -1.1828    0.0000 H   0  0  0  0  0  0  0  0  0  0  0  0
    2.3937   -1.2287    0.0000 H   0  0  0  0  0  0  0  0  0  0  0  0
    2.4396   -2.1043    0.0000 H   0  0  0  0  0  0  0  0  0  0  0  0
    4.0039   -4.5664    0.0000 H   0  0  0  0  0  0  0  0  0  0  0  0
  1 26  1  0  0  0  0
  2 16  1  0  0  0  0
  2 19  1  0  0  0  0
  3 18  1  0  0  0  0
  3 20  1  0  0  0  0
  4 15  2  0  0  0  0
  5  7  1  0  0  0  0
  5 10  1  0  0  0  0
  5 12  1  0  0  0  0
  6 15  1  0  0  0  0
  6 21  1  0  0  0  0
  6 40  1  0  0  0  0
  7  8  1  0  0  0  0
  7 11  1  0  0  0  0
  7 28  1  0  0  0  0
  8  9  1  0  0  0  0
  8 29  1  0  0  0  0
  8 30  1  0  0  0  0
  9 10  1  0  0  0  0
  9 31  1  0  0  0  0
  9 32  1  0  0  0  0
 10 33  1  0  0  0  0
 10 34  1  0  0  0  0
 11 13  2  0  0  0  0
 11 14  1  0  0  0  0
 12 15  1  0  0  0  0
 12 35  1  0  0  0  0
 12 36  1  0  0  0  0
 13 16  1  0  0  0  0
 13 37  1  0  0  0  0
 14 17  2  0  0  0  0
 14 38  1  0  0  0  0
 16 18  2  0  0  0  0
 17 18  1  0  0  0  0
 17 39  1  0  0  0  0
 19 20  1  0  0  0  0
 19 41  1  0  0  0  0
 19 42  1  0  0  0  0
 20 43  1  0  0  0  0
 20 44  1  0  0  0  0
 21 22  2  0  0  0  0
 21 23  1  0  0  0  0
 22 24  1  0  0  0  0
 22 25  1  0  0  0  0
 23 26  2  0  0  0  0
 23 45  1  0  0  0  0
 24 27  2  0  0  0  0
 24 46  1  0  0  0  0
 25 47  1  0  0  0  0
 25 48  1  0  0  0  0
 25 49  1  0  0  0  0
 26 27  1  0  0  0  0
 27 50  1  0  0  0  0
M  END
> <PUBCHEM_COMPOUND_CID>
17396653

> <PUBCHEM_COMPOUND_CANONICALIZED>
1

> <PUBCHEM_CACTVS_COMPLEXITY>
520

> <PUBCHEM_CACTVS_HBOND_ACCEPTOR>
5

> <PUBCHEM_CACTVS_HBOND_DONOR>
1

> <PUBCHEM_CACTVS_ROTATABLE_BOND>
4

> <PUBCHEM_CACTVS_SUBSKEYS>
AAADceB7MQAAAAAAAAAAAAAAAAAAAWAAAAA0YIAAAAAAAACRQAAAHwAQAAAADCzhmA4yxoPABACIAiVSUACCCAAhIgAIiACO7IgNZiLEsbuWOCrk1BHK6Aew0LMOIAABAAACQABAAAIAAASAAAAAAAAAAA==

> <PUBCHEM_IUPAC_OPENEYE_NAME>
2-[2-(2,3-dihydro-1,4-benzodioxin-6-yl)pyrrolidin-1-yl]-N-(5-fluoro-2-methyl-phenyl)acetamide

> <PUBCHEM_IUPAC_CAS_NAME>
2-[2-(2,3-dihydro-1,4-benzodioxin-6-yl)-1-pyrrolidinyl]-N-(5-fluoro-2-methylphenyl)acetamide

> <PUBCHEM_IUPAC_NAME>
2-[2-(2,3-dihydro-1,4-benzodioxin-6-yl)pyrrolidin-1-yl]-N-(5-fluoro-2-methylphenyl)acetamide

> <PUBCHEM_IUPAC_SYSTEMATIC_NAME>
2-[2-(2,3-dihydro-1,4-benzodioxin-6-yl)pyrrolidin-1-yl]-N-(5-fluoranyl-2-methyl-phenyl)ethanamide

> <PUBCHEM_IUPAC_TRADITIONAL_NAME>
2-[2-(2,3-dihydro-1,4-benzodioxin-6-yl)pyrrolidino]-N-(5-fluoro-2-methyl-phenyl)acetamide

> <PUBCHEM_IUPAC_INCHI>
InChI=1S/C21H23FN2O3/c1-14-4-6-16(22)12-17(14)23-21(25)13-24-8-2-3-18(24)15-5-7-19-20(11-15)27-10-9-26-19/h4-7,11-12,18H,2-3,8-10,13H2,1H3,(H,23,25)

> <PUBCHEM_IUPAC_INCHIKEY>
SFDWBRMRMCCHBO-UHFFFAOYSA-N

> <PUBCHEM_XLOGP3_AA>
3.4

> <PUBCHEM_EXACT_MASS>
370.169271

> <PUBCHEM_MOLECULAR_FORMULA>
C21H23FN2O3

> <PUBCHEM_MOLECULAR_WEIGHT>
370.417323

> <PUBCHEM_OPENEYE_CAN_SMILES>
CC1=C(C=C(C=C1)F)NC(=O)CN2CCCC2C3=CC4=C(C=C3)OCCO4

> <PUBCHEM_OPENEYE_ISO_SMILES>
CC1=C(C=C(C=C1)F)NC(=O)CN2CCCC2C3=CC4=C(C=C3)OCCO4

> <PUBCHEM_CACTVS_TPSA>
50.8

> <PUBCHEM_MONOISOTOPIC_WEIGHT>
370.169271

> <PUBCHEM_TOTAL_CHARGE>
0

> <PUBCHEM_HEAVY_ATOM_COUNT>
27

> <PUBCHEM_ATOM_DEF_STEREO_COUNT>
0

> <PUBCHEM_ATOM_UDEF_STEREO_COUNT>
1

> <PUBCHEM_BOND_DEF_STEREO_COUNT>
0

> <PUBCHEM_BOND_UDEF_STEREO_COUNT>
0

> <PUBCHEM_ISOTOPIC_ATOM_COUNT>
0

> <PUBCHEM_COMPONENT_COUNT>
1

> <PUBCHEM_CACTVS_TAUTO_COUNT>
3

> <PUBCHEM_COORDINATE_TYPE>
1
5
255

> <PUBCHEM_BONDANNOTATIONS>
11  13  8
11  14  8
13  16  8
14  17  8
16  18  8
17  18  8
21  22  8
21  23  8
22  24  8
23  26  8
24  27  8
26  27  8
7  11  3

$$$$

