5281451
  -OEChem-07051212573D

 58 60  0     1  0  0  0  0  0999 V2000
    4.0238    0.7532    1.5061 O   0  0  0  0  0  0  0  0  0  0  0  0
    1.3791   -0.7745   -0.2368 O   0  0  0  0  0  0  0  0  0  0  0  0
   -2.4970   -1.9741   -0.1196 O   0  0  0  0  0  0  0  0  0  0  0  0
    3.2965    0.1388   -1.1457 O   0  0  0  0  0  0  0  0  0  0  0  0
   -1.8188    1.1793    1.6822 O   0  0  0  0  0  0  0  0  0  0  0  0
    1.7170    2.8682    0.2698 O   0  0  0  0  0  0  0  0  0  0  0  0
   -2.3070   -4.2584    0.0603 O   0  0  0  0  0  0  0  0  0  0  0  0
   -4.0844    0.7279    1.6697 O   0  0  0  0  0  0  0  0  0  0  0  0
    3.1804   -0.3534    1.2084 C   0  0  2  0  0  0  0  0  0  0  0  0
    4.6400   -0.5387    1.4273 C   0  0  1  0  0  0  0  0  0  0  0  0
   -0.6075   -1.4852   -1.4604 C   0  0  2  0  0  0  0  0  0  0  0  0
    0.7579   -0.7711   -1.5156 C   0  0  1  0  0  0  0  0  0  0  0  0
   -1.6042   -0.8920   -0.4569 C   0  0  1  0  0  0  0  0  0  0  0  0
    2.6569   -0.2892   -0.1945 C   0  0  0  0  0  0  0  0  0  0  0  0
    2.2377   -0.6975    2.2892 C   0  0  0  0  0  0  0  0  0  0  0  0
    5.6014   -0.6715    0.3071 C   0  0  0  0  0  0  0  0  0  0  0  0
   -0.6027   -2.9062   -0.9919 C   0  0  0  0  0  0  0  0  0  0  0  0
    0.6477    0.6120   -2.1144 C   0  0  0  0  0  0  0  0  0  0  0  0
   -2.4296    0.2234   -1.0382 C   0  0  0  0  0  0  0  0  0  0  0  0
   -1.9934    2.1309    0.6358 C   0  0  1  0  0  0  0  0  0  0  0  0
    0.5321    2.1316   -0.0603 C   0  0  2  0  0  0  0  0  0  0  0  0
    0.5672    1.8358   -1.5504 C   0  0  0  0  0  0  0  0  0  0  0  0
   -0.6943    2.9296    0.4318 C   0  0  0  0  0  0  0  0  0  0  0  0
   -2.5746    1.4962   -0.6151 C   0  0  0  0  0  0  0  0  0  0  0  0
   -1.8735   -3.1751   -0.2875 C   0  0  0  0  0  0  0  0  0  0  0  0
    0.3360   -3.8490   -1.1070 C   0  0  0  0  0  0  0  0  0  0  0  0
    0.5206    3.0384   -2.4693 C   0  0  0  0  0  0  0  0  0  0  0  0
   -3.4319    2.4393   -1.4285 C   0  0  0  0  0  0  0  0  0  0  0  0
   -2.9547    0.5488    2.1044 C   0  0  0  0  0  0  0  0  0  0  0  0
   -2.6206   -0.4175    3.2001 C   0  0  0  0  0  0  0  0  0  0  0  0
    4.9807   -1.0081    2.3404 H   0  0  0  0  0  0  0  0  0  0  0  0
   -1.0473   -1.4885   -2.4691 H   0  0  0  0  0  0  0  0  0  0  0  0
    1.4070   -1.3505   -2.1875 H   0  0  0  0  0  0  0  0  0  0  0  0
   -1.0855   -0.6088    0.4595 H   0  0  0  0  0  0  0  0  0  0  0  0
    1.8479   -1.7132    2.1613 H   0  0  0  0  0  0  0  0  0  0  0  0
    2.7152   -0.6600    3.2753 H   0  0  0  0  0  0  0  0  0  0  0  0
    1.3905   -0.0051    2.3216 H   0  0  0  0  0  0  0  0  0  0  0  0
    5.6426    0.2183   -0.3290 H   0  0  0  0  0  0  0  0  0  0  0  0
    6.6111   -0.8208    0.7048 H   0  0  0  0  0  0  0  0  0  0  0  0
    5.3623   -1.5426   -0.3108 H   0  0  0  0  0  0  0  0  0  0  0  0
    0.6325    0.5748   -3.2052 H   0  0  0  0  0  0  0  0  0  0  0  0
   -2.9563   -0.0592   -1.9507 H   0  0  0  0  0  0  0  0  0  0  0  0
   -2.7274    2.8571    1.0150 H   0  0  0  0  0  0  0  0  0  0  0  0
    0.5651    1.2265    0.5404 H   0  0  0  0  0  0  0  0  0  0  0  0
   -0.8790    3.7919   -0.2192 H   0  0  0  0  0  0  0  0  0  0  0  0
   -0.4238    3.3649    1.4049 H   0  0  0  0  0  0  0  0  0  0  0  0
    1.2719   -3.6513   -1.6175 H   0  0  0  0  0  0  0  0  0  0  0  0
    0.1982   -4.8448   -0.6988 H   0  0  0  0  0  0  0  0  0  0  0  0
   -0.4585    3.5230   -2.4266 H   0  0  0  0  0  0  0  0  0  0  0  0
    0.7058    2.7731   -3.5160 H   0  0  0  0  0  0  0  0  0  0  0  0
    1.2855    3.7685   -2.1860 H   0  0  0  0  0  0  0  0  0  0  0  0
   -4.2935    2.7702   -0.8392 H   0  0  0  0  0  0  0  0  0  0  0  0
   -3.8164    1.9761   -2.3434 H   0  0  0  0  0  0  0  0  0  0  0  0
   -2.8558    3.3208   -1.7259 H   0  0  0  0  0  0  0  0  0  0  0  0
    2.4849    2.3664   -0.0516 H   0  0  0  0  0  0  0  0  0  0  0  0
   -2.2373    0.1259    4.0672 H   0  0  0  0  0  0  0  0  0  0  0  0
   -1.8850   -1.1443    2.8466 H   0  0  0  0  0  0  0  0  0  0  0  0
   -3.5249   -0.9572    3.4954 H   0  0  0  0  0  0  0  0  0  0  0  0
  1  9  1  0  0  0  0
  1 10  1  0  0  0  0
  2 12  1  0  0  0  0
  2 14  1  0  0  0  0
  3 13  1  0  0  0  0
  3 25  1  0  0  0  0
  4 14  2  0  0  0  0
  5 20  1  0  0  0  0
  5 29  1  0  0  0  0
  6 21  1  0  0  0  0
  6 55  1  0  0  0  0
  7 25  2  0  0  0  0
  8 29  2  0  0  0  0
  9 10  1  0  0  0  0
  9 14  1  0  0  0  0
  9 15  1  0  0  0  0
 10 16  1  0  0  0  0
 10 31  1  0  0  0  0
 11 12  1  0  0  0  0
 11 13  1  0  0  0  0
 11 17  1  0  0  0  0
 11 32  1  0  0  0  0
 12 18  1  0  0  0  0
 12 33  1  0  0  0  0
 13 19  1  0  0  0  0
 13 34  1  0  0  0  0
 15 35  1  0  0  0  0
 15 36  1  0  0  0  0
 15 37  1  0  0  0  0
 16 38  1  0  0  0  0
 16 39  1  0  0  0  0
 16 40  1  0  0  0  0
 17 25  1  0  0  0  0
 17 26  2  0  0  0  0
 18 22  2  0  0  0  0
 18 41  1  0  0  0  0
 19 24  2  0  0  0  0
 19 42  1  0  0  0  0
 20 23  1  0  0  0  0
 20 24  1  0  0  0  0
 20 43  1  0  0  0  0
 21 22  1  0  0  0  0
 21 23  1  0  0  0  0
 21 44  1  0  0  0  0
 22 27  1  0  0  0  0
 23 45  1  0  0  0  0
 23 46  1  0  0  0  0
 24 28  1  0  0  0  0
 26 47  1  0  0  0  0
 26 48  1  0  0  0  0
 27 49  1  0  0  0  0
 27 50  1  0  0  0  0
 27 51  1  0  0  0  0
 28 52  1  0  0  0  0
 28 53  1  0  0  0  0
 28 54  1  0  0  0  0
 29 30  1  0  0  0  0
 30 56  1  0  0  0  0
 30 57  1  0  0  0  0
 30 58  1  0  0  0  0
M  END
> <PUBCHEM_COMPOUND_CID>
5281451

> <PUBCHEM_CONFORMER_RMSD>
0.8

> <PUBCHEM_CONFORMER_DIVERSEORDER>
1
6
7
4
9
3
2
8
5

> <PUBCHEM_MMFF94_PARTIAL_CHARGES>
35
1 -0.3
10 -0.05
11 0.14
12 0.42
13 0.42
14 0.72
15 0.09
16 0.09
17 -0.12
18 -0.29
19 -0.29
2 -0.43
20 0.42
21 0.42
22 -0.28
24 -0.28
25 0.71
26 -0.3
27 0.14
28 0.14
29 0.66
3 -0.43
30 0.06
31 0.1
4 -0.57
41 0.15
42 0.15
47 0.15
48 0.15
5 -0.43
55 0.4
6 -0.68
7 -0.57
8 -0.57
9 0.05

> <PUBCHEM_EFFECTIVE_ROTOR_COUNT>
6.6

> <PUBCHEM_PHARMACOPHORE_FEATURES>
7
1 1 acceptor
1 4 acceptor
1 6 acceptor
1 6 donor
1 7 acceptor
1 8 acceptor
5 3 11 13 17 25 rings

> <PUBCHEM_HEAVY_ATOM_COUNT>
30

> <PUBCHEM_ATOM_DEF_STEREO_COUNT>
7

> <PUBCHEM_ATOM_UDEF_STEREO_COUNT>
0

> <PUBCHEM_BOND_DEF_STEREO_COUNT>
2

> <PUBCHEM_BOND_UDEF_STEREO_COUNT>
0

> <PUBCHEM_ISOTOPIC_ATOM_COUNT>
0

> <PUBCHEM_COMPONENT_COUNT>
1

> <PUBCHEM_CACTVS_TAUTO_COUNT>
1

> <PUBCHEM_CONFORMER_ID>
005096AB00000001

> <PUBCHEM_MMFF94_ENERGY>
71.0083

> <PUBCHEM_FEATURE_SELFOVERLAP>
35.524

> <PUBCHEM_SHAPE_FINGERPRINT>
10863032 1 14490480840851771237
11578080 2 17541104598480653773
12011746 2 18115888445311791860
12156800 1 17244950810678071682
12539773 59 17124001477943104153
12597179 24 17337890660142702596
12633257 1 18113620105737058632
13140716 1 18263643970173189773
133893 2 17557146099540798628
13544592 271 18125722533345512301
13583140 156 17346590842291947316
14068700 675 17899720980098567022
14114207 22 15695485206618177585
16728300 4 17558564731613068219
16945 1 18335136543999434148
20600515 1 18339657650324609604
20905425 154 17832989351644561940
21033648 29 18190169277419857632
21421861 104 17910115702839385587
23419403 2 15983699910091366520
25222932 49 16548560763641414107
2818148 4 17904165201839428108
3380486 77 18196372511871241415
35225 105 17607281832417771770
3797600 57 17483911044212757429
427121 178 17532631611457236691
469060 322 18408321082301453627
484985 159 18126875830854374578
9981440 41 18123759917805866649

> <PUBCHEM_SHAPE_MULTIPOLES>
570.43
6.87
4.25
2.54
7.64
2.84
-1.2
-0.59
-3.88
-2.59
2
-0.88
-0.43
-0.01

> <PUBCHEM_SHAPE_SELFOVERLAP>
1196.566

> <PUBCHEM_SHAPE_VOLUME>
321.3

> <PUBCHEM_COORDINATE_TYPE>
2
5
10

$$$$

