5560
  -OEChem-06261200443D

 28 29  0     1  0  0  0  0  0999 V2000
   -4.8016   -1.9280    0.8883 Cl  0  0  0  0  0  0  0  0  0  0  0  0
   -4.2215   -0.9315   -1.7863 Cl  0  0  0  0  0  0  0  0  0  0  0  0
    2.7541   -2.8402   -0.0042 Cl  0  0  0  0  0  0  0  0  0  0  0  0
   -1.1984    2.0150    0.1052 S   0  0  0  0  0  0  0  0  0  0  0  0
    3.8657    0.1902   -0.1818 S   0  0  0  0  0  0  0  0  0  0  0  0
   -0.7982    2.8986   -0.9717 O   0  0  0  0  0  0  0  0  0  0  0  0
   -1.2731    2.4718    1.4786 O   0  0  0  0  0  0  0  0  0  0  0  0
    4.4837   -0.9826   -0.7934 O   0  0  0  0  0  0  0  0  0  0  0  0
    3.9271    1.4875   -0.8464 O   0  0  0  0  0  0  0  0  0  0  0  0
   -2.6699    1.2642   -0.3323 N   0  0  0  0  0  0  0  0  0  0  0  0
   -1.9689   -0.9845    0.2685 N   0  0  0  0  0  0  0  0  0  0  0  0
    4.5277    0.3628    1.3958 N   0  0  0  0  0  0  0  0  0  0  0  0
   -2.9904    0.0341    0.4265 C   0  0  2  0  0  0  0  0  0  0  0  0
   -0.1081    0.6268    0.1025 C   0  0  0  0  0  0  0  0  0  0  0  0
   -0.6180   -0.6778    0.1901 C   0  0  0  0  0  0  0  0  0  0  0  0
    1.2609    0.8863   -0.0119 C   0  0  0  0  0  0  0  0  0  0  0  0
    2.1582   -0.1762   -0.0418 C   0  0  0  0  0  0  0  0  0  0  0  0
   -4.3280   -0.5051   -0.0646 C   0  0  0  0  0  0  0  0  0  0  0  0
    0.3133   -1.7283    0.1442 C   0  0  0  0  0  0  0  0  0  0  0  0
    1.6856   -1.4832    0.0347 C   0  0  0  0  0  0  0  0  0  0  0  0
   -3.0749    0.3001    1.4880 H   0  0  0  0  0  0  0  0  0  0  0  0
   -2.8896    1.2268   -1.3361 H   0  0  0  0  0  0  0  0  0  0  0  0
   -2.2280   -1.9529    0.4223 H   0  0  0  0  0  0  0  0  0  0  0  0
    1.6078    1.9146   -0.0603 H   0  0  0  0  0  0  0  0  0  0  0  0
   -5.1185    0.2447    0.0398 H   0  0  0  0  0  0  0  0  0  0  0  0
   -0.0449   -2.7561    0.1963 H   0  0  0  0  0  0  0  0  0  0  0  0
    4.8456    1.3102    1.6412 H   0  0  0  0  0  0  0  0  0  0  0  0
    3.9723   -0.0417    2.1620 H   0  0  0  0  0  0  0  0  0  0  0  0
  1 18  1  0  0  0  0
  2 18  1  0  0  0  0
  3 20  1  0  0  0  0
  4  6  2  0  0  0  0
  4  7  2  0  0  0  0
  4 10  1  0  0  0  0
  4 14  1  0  0  0  0
  5  8  2  0  0  0  0
  5  9  2  0  0  0  0
  5 12  1  0  0  0  0
  5 17  1  0  0  0  0
 10 13  1  0  0  0  0
 10 22  1  0  0  0  0
 11 13  1  0  0  0  0
 11 15  1  0  0  0  0
 11 23  1  0  0  0  0
 12 27  1  0  0  0  0
 12 28  1  0  0  0  0
 13 18  1  0  0  0  0
 13 21  1  0  0  0  0
 14 15  1  0  0  0  0
 14 16  2  0  0  0  0
 15 19  2  0  0  0  0
 16 17  1  0  0  0  0
 16 24  1  0  0  0  0
 17 20  2  0  0  0  0
 18 25  1  0  0  0  0
 19 20  1  0  0  0  0
 19 26  1  0  0  0  0
M  END
> <PUBCHEM_COMPOUND_CID>
5560

> <PUBCHEM_CONFORMER_RMSD>
0.6

> <PUBCHEM_CONFORMER_DIVERSEORDER>
1
7
5
4
3
2
6

> <PUBCHEM_MMFF94_PARTIAL_CHARGES>
26
1 -0.29
10 -0.91
11 -0.87
12 -0.98
13 0.72
14 -0.01
15 0.1
16 -0.15
17 -0.01
18 0.58
19 -0.15
2 -0.29
20 0.18
22 0.42
23 0.4
24 0.15
26 0.15
27 0.42
28 0.42
3 -0.18
4 1.45
5 1.45
6 -0.65
7 -0.65
8 -0.65
9 -0.65

> <PUBCHEM_EFFECTIVE_ROTOR_COUNT>
2.6

> <PUBCHEM_PHARMACOPHORE_FEATURES>
10
1 10 donor
1 11 cation
1 11 donor
1 12 donor
1 6 acceptor
1 7 acceptor
1 8 acceptor
1 9 acceptor
6 14 15 16 17 19 20 rings
6 4 10 11 13 14 15 rings

> <PUBCHEM_HEAVY_ATOM_COUNT>
20

> <PUBCHEM_ATOM_DEF_STEREO_COUNT>
0

> <PUBCHEM_ATOM_UDEF_STEREO_COUNT>
1

> <PUBCHEM_BOND_DEF_STEREO_COUNT>
0

> <PUBCHEM_BOND_UDEF_STEREO_COUNT>
0

> <PUBCHEM_ISOTOPIC_ATOM_COUNT>
0

> <PUBCHEM_COMPONENT_COUNT>
1

> <PUBCHEM_CACTVS_TAUTO_COUNT>
1

> <PUBCHEM_CONFORMER_ID>
000015B800000001

> <PUBCHEM_MMFF94_ENERGY>
32.588

> <PUBCHEM_FEATURE_SELFOVERLAP>
50.823

> <PUBCHEM_SHAPE_FINGERPRINT>
10090160 65 18271811189894782934
10967382 1 18411978023072359698
11132069 177 18408606963455693624
12236239 1 17676201352194193195
12403259 226 18339927129605699004
12403260 363 18342180003213721940
12553582 1 18334863783875389703
13140716 1 18121221974412328946
13544653 18 18335421257734504353
13583140 156 14201685333072082831
13862211 1 18339647745813967859
14178342 30 18266182923311563832
14576447 43 18188224087132478023
14787075 74 18338234843143480603
15196674 1 18411696608014084169
15375462 189 18187365411326335891
15442244 35 18051128395952072114
15536298 74 18335700611055730818
16945 1 18410854348037665298
17349148 13 18131068246972998650
17357779 13 18339372902582955325
17492 89 18267583683423910619
18186145 218 18119240916663084364
200 152 18408042909637531471
20510252 161 18335420209324790577
21029758 11 18334862680174107841
21029758 27 18342170017309185805
21267235 1 18339348721447885354
21501502 16 18193833966965438530
221490 88 18266453385818300654
2334 1 17833830465492414354
23402539 116 18409733958505337215
23557571 272 18335127726483998263
23558518 356 18128245890502144162
23559900 14 18267308827386766274
2748010 2 18195242450145745998
2871803 45 18412546526228668774
312423 11 18265321975368008534
350125 39 18337667646042533442
474229 33 18411703145408086834
5104073 3 18336546135027973642
5283173 99 17915754256729441037
537710 114 18340480063051749453
6913067 236 18266200399185038936
9709674 26 18339918337396382322

> <PUBCHEM_SHAPE_MULTIPOLES>
386.48
9.14
2.74
1.1
0.26
0.5
0.12
-3.42
0.58
0.05
-0.1
0.58
0.12
0.07

> <PUBCHEM_SHAPE_SELFOVERLAP>
765.67

> <PUBCHEM_SHAPE_VOLUME>
231.2

> <PUBCHEM_COORDINATE_TYPE>
2
5
10

$$$$

