5318597
  -OEChem-07051213092D

 48 51  0     1  0  0  0  0  0999 V2000
    8.1387    1.0347    0.0000 O   0  0  0  0  0  0  0  0  0  0  0  0
    5.5466    0.5047    0.0000 O   0  0  0  0  0  0  0  0  0  0  0  0
    5.5235    2.5045    0.0000 O   0  0  0  0  0  0  0  0  0  0  0  0
    7.2438    3.5245    0.0000 O   0  0  0  0  0  0  0  0  0  0  0  0
    5.5301   -0.5099    0.0000 O   0  0  0  0  0  0  0  0  0  0  0  0
    8.9758    3.5445    0.0000 O   0  0  0  0  0  0  0  0  0  0  0  0
    9.0602   -0.4858    0.0000 O   0  0  0  0  0  0  0  0  0  0  0  0
    7.2785   -3.5445    0.0000 O   0  0  0  0  0  0  0  0  0  0  0  0
    5.5301   -3.5099    0.0000 O   0  0  0  0  0  0  0  0  0  0  0  0
    2.0000   -0.4858    0.0000 O   0  0  0  0  0  0  0  0  0  0  0  0
    2.0000   -2.5341    0.0000 O   0  0  0  0  0  0  0  0  0  0  0  0
    6.4068    1.0146    0.0000 C   0  0  1  0  0  0  0  0  0  0  0  0
    7.2785    0.5247    0.0000 C   0  0  2  0  0  0  0  0  0  0  0  0
    6.3952    2.0146    0.0000 C   0  0  2  0  0  0  0  0  0  0  0  0
    7.2554    2.5246    0.0000 C   0  0  1  0  0  0  0  0  0  0  0  0
    8.1272    2.0346    0.0000 C   0  0  1  0  0  0  0  0  0  0  0  0
    7.2901   -0.4753    0.0000 C   0  0  0  0  0  0  0  0  0  0  0  0
    8.9873    2.5446    0.0000 C   0  0  0  0  0  0  0  0  0  0  0  0
    6.3961   -1.0099    0.0000 C   0  0  0  0  0  0  0  0  0  0  0  0
    8.1962   -0.9891    0.0000 C   0  0  0  0  0  0  0  0  0  0  0  0
    6.3961   -2.0099    0.0000 C   0  0  0  0  0  0  0  0  0  0  0  0
    8.1962   -2.0307    0.0000 C   0  0  0  0  0  0  0  0  0  0  0  0
    7.2901   -2.5446    0.0000 C   0  0  0  0  0  0  0  0  0  0  0  0
    5.5301   -2.5099    0.0000 C   0  0  0  0  0  0  0  0  0  0  0  0
    4.6641   -1.0099    0.0000 C   0  0  0  0  0  0  0  0  0  0  0  0
    4.6641   -2.0099    0.0000 C   0  0  0  0  0  0  0  0  0  0  0  0
    3.7702   -0.4753    0.0000 C   0  0  0  0  0  0  0  0  0  0  0  0
    3.7702   -2.5446    0.0000 C   0  0  0  0  0  0  0  0  0  0  0  0
    2.8641   -0.9891    0.0000 C   0  0  0  0  0  0  0  0  0  0  0  0
    2.8641   -2.0307    0.0000 C   0  0  0  0  0  0  0  0  0  0  0  0
    5.8663    1.3184    0.0000 H   0  0  0  0  0  0  0  0  0  0  0  0
    8.0195    0.1082    0.0000 H   0  0  0  0  0  0  0  0  0  0  0  0
    5.8619    1.6984    0.0000 H   0  0  0  0  0  0  0  0  0  0  0  0
    7.7887    2.8407    0.0000 H   0  0  0  0  0  0  0  0  0  0  0  0
    8.6676    1.7308    0.0000 H   0  0  0  0  0  0  0  0  0  0  0  0
    9.2061    1.9645    0.0000 H   0  0  0  0  0  0  0  0  0  0  0  0
    9.5966    2.6593    0.0000 H   0  0  0  0  0  0  0  0  0  0  0  0
    5.0061    0.8084    0.0000 H   0  0  0  0  0  0  0  0  0  0  0  0
    5.5163    3.1245    0.0000 H   0  0  0  0  0  0  0  0  0  0  0  0
    6.7034    3.8282    0.0000 H   0  0  0  0  0  0  0  0  0  0  0  0
    8.7319   -2.3428    0.0000 H   0  0  0  0  0  0  0  0  0  0  0  0
    9.5091    3.8607    0.0000 H   0  0  0  0  0  0  0  0  0  0  0  0
    9.5984   -0.7937    0.0000 H   0  0  0  0  0  0  0  0  0  0  0  0
    3.7773    0.1447    0.0000 H   0  0  0  0  0  0  0  0  0  0  0  0
    3.7773   -3.1645    0.0000 H   0  0  0  0  0  0  0  0  0  0  0  0
    7.8118   -3.8607    0.0000 H   0  0  0  0  0  0  0  0  0  0  0  0
    2.0024    0.1342    0.0000 H   0  0  0  0  0  0  0  0  0  0  0  0
    2.0024   -3.1541    0.0000 H   0  0  0  0  0  0  0  0  0  0  0  0
  1 13  1  0  0  0  0
  1 16  1  0  0  0  0
 12  2  1  6  0  0  0
  2 38  1  0  0  0  0
 14  3  1  1  0  0  0
  3 39  1  0  0  0  0
 15  4  1  6  0  0  0
  4 40  1  0  0  0  0
  5 19  1  0  0  0  0
  5 25  1  0  0  0  0
  6 18  1  0  0  0  0
  6 42  1  0  0  0  0
  7 20  1  0  0  0  0
  7 43  1  0  0  0  0
  8 23  1  0  0  0  0
  8 46  1  0  0  0  0
  9 24  2  0  0  0  0
 10 29  1  0  0  0  0
 10 47  1  0  0  0  0
 11 30  1  0  0  0  0
 11 48  1  0  0  0  0
 12 13  1  0  0  0  0
 12 14  1  0  0  0  0
 12 31  1  0  0  0  0
 13 17  1  0  0  0  0
 13 32  1  6  0  0  0
 14 15  1  0  0  0  0
 14 33  1  0  0  0  0
 15 16  1  0  0  0  0
 15 34  1  0  0  0  0
 16 18  1  1  0  0  0
 16 35  1  0  0  0  0
 17 19  1  0  0  0  0
 17 20  2  0  0  0  0
 18 36  1  0  0  0  0
 18 37  1  0  0  0  0
 19 21  2  0  0  0  0
 20 22  1  0  0  0  0
 21 23  1  0  0  0  0
 21 24  1  0  0  0  0
 22 23  2  0  0  0  0
 22 41  1  0  0  0  0
 24 26  1  0  0  0  0
 25 26  1  0  0  0  0
 25 27  2  0  0  0  0
 26 28  2  0  0  0  0
 27 29  1  0  0  0  0
 27 44  1  0  0  0  0
 28 30  1  0  0  0  0
 28 45  1  0  0  0  0
 29 30  2  0  0  0  0
M  END
> <PUBCHEM_COMPOUND_CID>
5318597

> <PUBCHEM_COMPOUND_CANONICALIZED>
1

> <PUBCHEM_CACTVS_COMPLEXITY>
646

> <PUBCHEM_CACTVS_HBOND_ACCEPTOR>
11

> <PUBCHEM_CACTVS_HBOND_DONOR>
8

> <PUBCHEM_CACTVS_ROTATABLE_BOND>
2

> <PUBCHEM_CACTVS_SUBSKEYS>
AAADceB4PAAAAAAAAAAAAAAAAAAAAAAAAAA0aIEAAAAAAACRQAAAGgAACAAADBSgmAIwBoAABgCIAqBSAAACCAAkIAAAiAEGiMgNNzaGNBqCeWGl4BULuYfK7PzOIQADCAAIQABCAAYQABCAAAAAAAAAAA==

> <PUBCHEM_IUPAC_OPENEYE_NAME>
1,3,6,7-tetrahydroxy-4-[(2S,3R,4R,5S,6R)-3,4,5-trihydroxy-6-(hydroxymethyl)tetrahydropyran-2-yl]xanthen-9-one

> <PUBCHEM_IUPAC_CAS_NAME>
1,3,6,7-tetrahydroxy-4-[(2S,3R,4R,5S,6R)-3,4,5-trihydroxy-6-(hydroxymethyl)-2-oxanyl]-9-xanthenone

> <PUBCHEM_IUPAC_NAME>
1,3,6,7-tetrahydroxy-4-[(2S,3R,4R,5S,6R)-3,4,5-trihydroxy-6-(hydroxymethyl)oxan-2-yl]xanthen-9-one

> <PUBCHEM_IUPAC_SYSTEMATIC_NAME>
4-[(2S,3R,4R,5S,6R)-6-(hydroxymethyl)-3,4,5-tris(oxidanyl)oxan-2-yl]-1,3,6,7-tetrakis(oxidanyl)xanthen-9-one

> <PUBCHEM_IUPAC_TRADITIONAL_NAME>
1,3,6,7-tetrahydroxy-4-[(2S,3R,4R,5S,6R)-3,4,5-trihydroxy-6-methylol-tetrahydropyran-2-yl]xanthone

> <PUBCHEM_IUPAC_INCHI>
InChI=1S/C19H18O11/c20-4-11-15(26)16(27)17(28)19(30-11)13-9(24)2-8(23)12-14(25)5-1-6(21)7(22)3-10(5)29-18(12)13/h1-3,11,15-17,19-24,26-28H,4H2/t11-,15-,16+,17-,19+/m1/s1

> <PUBCHEM_IUPAC_INCHIKEY>
CDYBOKJASDEORM-HBVDJMOISA-N

> <PUBCHEM_XLOGP3_AA>
-0.4

> <PUBCHEM_EXACT_MASS>
422.084911

> <PUBCHEM_MOLECULAR_FORMULA>
C19H18O11

> <PUBCHEM_MOLECULAR_WEIGHT>
422.33962

> <PUBCHEM_OPENEYE_CAN_SMILES>
C1=C2C(=CC(=C1O)O)OC3=C(C2=O)C(=CC(=C3C4C(C(C(C(O4)CO)O)O)O)O)O

> <PUBCHEM_OPENEYE_ISO_SMILES>
C1=C2C(=CC(=C1O)O)OC3=C(C2=O)C(=CC(=C3[C@H]4[C@@H]([C@H]([C@@H]([C@H](O4)CO)O)O)O)O)O

> <PUBCHEM_CACTVS_TPSA>
197

> <PUBCHEM_MONOISOTOPIC_WEIGHT>
422.084911

> <PUBCHEM_TOTAL_CHARGE>
0

> <PUBCHEM_HEAVY_ATOM_COUNT>
30

> <PUBCHEM_ATOM_DEF_STEREO_COUNT>
5

> <PUBCHEM_ATOM_UDEF_STEREO_COUNT>
0

> <PUBCHEM_BOND_DEF_STEREO_COUNT>
0

> <PUBCHEM_BOND_UDEF_STEREO_COUNT>
0

> <PUBCHEM_ISOTOPIC_ATOM_COUNT>
0

> <PUBCHEM_COMPONENT_COUNT>
1

> <PUBCHEM_CACTVS_TAUTO_COUNT>
114

> <PUBCHEM_COORDINATE_TYPE>
1
5
255

> <PUBCHEM_BONDANNOTATIONS>
13  32  6
16  18  5
17  19  8
17  20  8
19  21  8
12  2  6
20  22  8
21  23  8
21  24  8
22  23  8
24  26  8
25  26  8
25  27  8
26  28  8
27  29  8
28  30  8
29  30  8
14  3  5
15  4  6
5  19  8
5  25  8

$$$$

