3055167
  -OEChem-07051213092D

 39 42  0     1  0  0  0  0  0999 V2000
    6.8962    2.9330    0.0000 O   0  0  0  0  0  0  0  0  0  0  0  0
    5.5301    0.5670    0.0000 O   0  0  0  0  0  0  0  0  0  0  0  0
    7.3424   -0.6283    0.0000 O   0  0  0  0  0  0  0  0  0  0  0  0
    3.7702   -0.3984    0.0000 O   0  0  0  0  0  0  0  0  0  0  0  0
    5.5301   -3.4330    0.0000 O   0  0  0  0  0  0  0  0  0  0  0  0
    2.0000   -0.4089    0.0000 O   0  0  0  0  0  0  0  0  0  0  0  0
    5.8961    2.9330    0.0000 C   0  0  0  0  0  0  0  0  0  0  0  0
    6.3961    2.0670    0.0000 C   0  0  1  0  0  0  0  0  0  0  0  0
    6.3961    1.0670    0.0000 C   0  0  0  0  0  0  0  0  0  0  0  0
    5.8961    3.9330    0.0000 C   0  0  0  0  0  0  0  0  0  0  0  0
    5.0301    2.4330    0.0000 C   0  0  0  0  0  0  0  0  0  0  0  0
    5.5301   -0.4330    0.0000 C   0  0  0  0  0  0  0  0  0  0  0  0
    6.3961   -0.9330    0.0000 C   0  0  0  0  0  0  0  0  0  0  0  0
    4.6641   -0.9330    0.0000 C   0  0  0  0  0  0  0  0  0  0  0  0
    6.3961   -1.9330    0.0000 C   0  0  0  0  0  0  0  0  0  0  0  0
    4.6641   -1.9330    0.0000 C   0  0  0  0  0  0  0  0  0  0  0  0
    5.5301   -2.4330    0.0000 C   0  0  0  0  0  0  0  0  0  0  0  0
    7.3424   -2.2378    0.0000 C   0  0  0  0  0  0  0  0  0  0  0  0
    3.7702   -2.4677    0.0000 C   0  0  0  0  0  0  0  0  0  0  0  0
    7.9260   -1.4330    0.0000 C   0  0  0  0  0  0  0  0  0  0  0  0
    2.8641   -1.9538    0.0000 C   0  0  0  0  0  0  0  0  0  0  0  0
    2.8641   -0.9122    0.0000 C   0  0  0  0  0  0  0  0  0  0  0  0
    6.3961   -3.9330    0.0000 C   0  0  0  0  0  0  0  0  0  0  0  0
    6.9950    1.9065    0.0000 H   0  0  0  0  0  0  0  0  0  0  0  0
    6.6082    0.4844    0.0000 H   0  0  0  0  0  0  0  0  0  0  0  0
    7.0067    1.1746    0.0000 H   0  0  0  0  0  0  0  0  0  0  0  0
    6.5162    3.9330    0.0000 H   0  0  0  0  0  0  0  0  0  0  0  0
    5.8961    4.5530    0.0000 H   0  0  0  0  0  0  0  0  0  0  0  0
    5.2762    3.9330    0.0000 H   0  0  0  0  0  0  0  0  0  0  0  0
    4.7201    2.9700    0.0000 H   0  0  0  0  0  0  0  0  0  0  0  0
    4.4932    2.1230    0.0000 H   0  0  0  0  0  0  0  0  0  0  0  0
    5.3401    1.8961    0.0000 H   0  0  0  0  0  0  0  0  0  0  0  0
    7.5350   -2.8271    0.0000 H   0  0  0  0  0  0  0  0  0  0  0  0
    3.7773   -3.0876    0.0000 H   0  0  0  0  0  0  0  0  0  0  0  0
    8.5460   -1.4330    0.0000 H   0  0  0  0  0  0  0  0  0  0  0  0
    2.3284   -2.2659    0.0000 H   0  0  0  0  0  0  0  0  0  0  0  0
    6.0862   -4.4700    0.0000 H   0  0  0  0  0  0  0  0  0  0  0  0
    6.9331   -4.2430    0.0000 H   0  0  0  0  0  0  0  0  0  0  0  0
    6.7062   -3.3961    0.0000 H   0  0  0  0  0  0  0  0  0  0  0  0
  1  7  1  0  0  0  0
  1  8  1  0  0  0  0
  2  9  1  0  0  0  0
  2 12  1  0  0  0  0
  3 13  1  0  0  0  0
  3 20  1  0  0  0  0
  4 14  1  0  0  0  0
  4 22  1  0  0  0  0
  5 17  1  0  0  0  0
  5 23  1  0  0  0  0
  6 22  2  0  0  0  0
  7  8  1  0  0  0  0
  7 10  1  0  0  0  0
  7 11  1  0  0  0  0
  8  9  1  6  0  0  0
  8 24  1  0  0  0  0
  9 25  1  0  0  0  0
  9 26  1  0  0  0  0
 10 27  1  0  0  0  0
 10 28  1  0  0  0  0
 10 29  1  0  0  0  0
 11 30  1  0  0  0  0
 11 31  1  0  0  0  0
 11 32  1  0  0  0  0
 12 13  2  0  0  0  0
 12 14  1  0  0  0  0
 13 15  1  0  0  0  0
 14 16  2  0  0  0  0
 15 17  2  0  0  0  0
 15 18  1  0  0  0  0
 16 17  1  0  0  0  0
 16 19  1  0  0  0  0
 18 20  2  0  0  0  0
 18 33  1  0  0  0  0
 19 21  2  0  0  0  0
 19 34  1  0  0  0  0
 20 35  1  0  0  0  0
 21 22  1  0  0  0  0
 21 36  1  0  0  0  0
 23 37  1  0  0  0  0
 23 38  1  0  0  0  0
 23 39  1  0  0  0  0
M  END
> <PUBCHEM_COMPOUND_CID>
3055167

> <PUBCHEM_COMPOUND_CANONICALIZED>
1

> <PUBCHEM_CACTVS_COMPLEXITY>
515

> <PUBCHEM_CACTVS_HBOND_ACCEPTOR>
6

> <PUBCHEM_CACTVS_HBOND_DONOR>
0

> <PUBCHEM_CACTVS_ROTATABLE_BOND>
4

> <PUBCHEM_CACTVS_SUBSKEYS>
AAADceB4OAAAAAAAAAAAAAAAEgAAASAAAAAwQAAAAAAAAEiB8AAAGgAAAAAADFSgmAIyDsAABECIAqjSiAICCAAkIAAIiAFGiMgNJzaENB6CO2Kl4BUKqYfK7PzOIQADCAAIQABCAAYQABCAAAAAAAAAAA==

> <PUBCHEM_IUPAC_OPENEYE_NAME>
9-[[(2R)-3,3-dimethyloxiran-2-yl]methoxy]-4-methoxy-furo[3,2-g]chromen-7-one

> <PUBCHEM_IUPAC_CAS_NAME>
9-[[(2R)-3,3-dimethyl-2-oxiranyl]methoxy]-4-methoxy-7-furo[3,2-g][1]benzopyranone

> <PUBCHEM_IUPAC_NAME>
9-[[(2R)-3,3-dimethyloxiran-2-yl]methoxy]-4-methoxyfuro[3,2-g]chromen-7-one

> <PUBCHEM_IUPAC_SYSTEMATIC_NAME>
9-[[(2R)-3,3-dimethyloxiran-2-yl]methoxy]-4-methoxy-furo[3,2-g]chromen-7-one

> <PUBCHEM_IUPAC_TRADITIONAL_NAME>
9-[[(2R)-3,3-dimethyloxiran-2-yl]methoxy]-4-methoxy-furo[3,2-g]chromen-7-one

> <PUBCHEM_IUPAC_INCHI>
InChI=1S/C17H16O6/c1-17(2)11(23-17)8-21-16-14-10(6-7-20-14)13(19-3)9-4-5-12(18)22-15(9)16/h4-7,11H,8H2,1-3H3/t11-/m1/s1

> <PUBCHEM_IUPAC_INCHIKEY>
ORBITTMJKIGFNH-LLVKDONJSA-N

> <PUBCHEM_XLOGP3_AA>
2.6

> <PUBCHEM_EXACT_MASS>
316.094688

> <PUBCHEM_MOLECULAR_FORMULA>
C17H16O6

> <PUBCHEM_MOLECULAR_WEIGHT>
316.30534

> <PUBCHEM_OPENEYE_CAN_SMILES>
CC1(C(O1)COC2=C3C(=C(C4=C2OC(=O)C=C4)OC)C=CO3)C

> <PUBCHEM_OPENEYE_ISO_SMILES>
CC1([C@H](O1)COC2=C3C(=C(C4=C2OC(=O)C=C4)OC)C=CO3)C

> <PUBCHEM_CACTVS_TPSA>
70.4

> <PUBCHEM_MONOISOTOPIC_WEIGHT>
316.094688

> <PUBCHEM_TOTAL_CHARGE>
0

> <PUBCHEM_HEAVY_ATOM_COUNT>
23

> <PUBCHEM_ATOM_DEF_STEREO_COUNT>
1

> <PUBCHEM_ATOM_UDEF_STEREO_COUNT>
0

> <PUBCHEM_BOND_DEF_STEREO_COUNT>
0

> <PUBCHEM_BOND_UDEF_STEREO_COUNT>
0

> <PUBCHEM_ISOTOPIC_ATOM_COUNT>
0

> <PUBCHEM_COMPONENT_COUNT>
1

> <PUBCHEM_CACTVS_TAUTO_COUNT>
1

> <PUBCHEM_COORDINATE_TYPE>
1
5
255

> <PUBCHEM_BONDANNOTATIONS>
12  13  8
12  14  8
13  15  8
14  16  8
15  17  8
15  18  8
16  17  8
16  19  8
18  20  8
19  21  8
21  22  8
3  13  8
3  20  8
4  14  8
4  22  8
8  9  6

$$$$

