17396113
  -OEChem-06241222543D

 46 48  0     0  0  0  0  0  0999 V2000
    9.1818   -0.6055    1.0941 S   0  0  0  0  0  0  0  0  0  0  0  0
   -9.2317    0.7426    0.2683 F   0  0  0  0  0  0  0  0  0  0  0  0
    3.3429    2.4064    0.2791 O   0  0  0  0  0  0  0  0  0  0  0  0
   -3.0817   -0.2165   -1.5635 O   0  0  0  0  0  0  0  0  0  0  0  0
   -0.5262   -0.5792   -0.5849 N   0  0  0  0  0  0  0  0  0  0  0  0
    2.0403    0.6984   -0.6091 N   0  0  0  0  0  0  0  0  0  0  0  0
   -3.9327   -0.8677    0.5254 N   0  0  0  0  0  0  0  0  0  0  0  0
    0.7076   -1.3776   -0.5319 C   0  0  0  0  0  0  0  0  0  0  0  0
   -0.3305    0.7209    0.0733 C   0  0  0  0  0  0  0  0  0  0  0  0
    1.8649   -0.6336   -1.2006 C   0  0  0  0  0  0  0  0  0  0  0  0
    0.8140    1.4962   -0.5807 C   0  0  0  0  0  0  0  0  0  0  0  0
   -1.6357   -1.3056    0.0314 C   0  0  0  0  0  0  0  0  0  0  0  0
    3.2409    1.2818   -0.2147 C   0  0  0  0  0  0  0  0  0  0  0  0
   -2.9522   -0.7243   -0.4542 C   0  0  0  0  0  0  0  0  0  0  0  0
    4.4825    0.5051   -0.4007 C   0  0  0  0  0  0  0  0  0  0  0  0
   -5.2853   -0.4567    0.4599 C   0  0  0  0  0  0  0  0  0  0  0  0
    5.4984    0.7049    0.4510 C   0  0  0  0  0  0  0  0  0  0  0  0
    6.7855    0.0516    0.4410 C   0  0  0  0  0  0  0  0  0  0  0  0
   -6.1358   -0.6812    1.5426 C   0  0  0  0  0  0  0  0  0  0  0  0
   -5.7680    0.1735   -0.6871 C   0  0  0  0  0  0  0  0  0  0  0  0
   -7.4688   -0.2758    1.4782 C   0  0  0  0  0  0  0  0  0  0  0  0
   -7.1010    0.5789   -0.7515 C   0  0  0  0  0  0  0  0  0  0  0  0
    7.1948   -0.9369   -0.5001 C   0  0  0  0  0  0  0  0  0  0  0  0
    7.7705    0.3259    1.3642 C   0  0  0  0  0  0  0  0  0  0  0  0
   -7.9515    0.3542    0.3311 C   0  0  0  0  0  0  0  0  0  0  0  0
    8.4769   -1.3799   -0.2606 C   0  0  0  0  0  0  0  0  0  0  0  0
    0.5628   -2.3292   -1.0572 H   0  0  0  0  0  0  0  0  0  0  0  0
    0.9709   -1.6095    0.5088 H   0  0  0  0  0  0  0  0  0  0  0  0
   -0.1098    0.5831    1.1405 H   0  0  0  0  0  0  0  0  0  0  0  0
   -1.2376    1.3321    0.0025 H   0  0  0  0  0  0  0  0  0  0  0  0
    2.7674   -1.2393   -1.1002 H   0  0  0  0  0  0  0  0  0  0  0  0
    1.6742   -0.4941   -2.2715 H   0  0  0  0  0  0  0  0  0  0  0  0
    0.5654    1.7483   -1.6192 H   0  0  0  0  0  0  0  0  0  0  0  0
    0.9737    2.4386   -0.0467 H   0  0  0  0  0  0  0  0  0  0  0  0
   -1.5627   -1.3048    1.1256 H   0  0  0  0  0  0  0  0  0  0  0  0
   -1.6435   -2.3532   -0.2972 H   0  0  0  0  0  0  0  0  0  0  0  0
    4.5573   -0.1817   -1.2331 H   0  0  0  0  0  0  0  0  0  0  0  0
   -3.6687   -1.3230    1.3963 H   0  0  0  0  0  0  0  0  0  0  0  0
    5.3578    1.4178    1.2629 H   0  0  0  0  0  0  0  0  0  0  0  0
   -5.7725   -1.1711    2.4425 H   0  0  0  0  0  0  0  0  0  0  0  0
   -5.1725    0.3827   -1.5643 H   0  0  0  0  0  0  0  0  0  0  0  0
   -8.1314   -0.4506    2.3208 H   0  0  0  0  0  0  0  0  0  0  0  0
   -7.4785    1.0695   -1.6439 H   0  0  0  0  0  0  0  0  0  0  0  0
    6.5977   -1.3193   -1.3184 H   0  0  0  0  0  0  0  0  0  0  0  0
    7.7397    1.0266    2.1878 H   0  0  0  0  0  0  0  0  0  0  0  0
    9.0334   -2.1213   -0.8164 H   0  0  0  0  0  0  0  0  0  0  0  0
  1 24  1  0  0  0  0
  1 26  1  0  0  0  0
  2 25  1  0  0  0  0
  3 13  2  0  0  0  0
  4 14  2  0  0  0  0
  5  8  1  0  0  0  0
  5  9  1  0  0  0  0
  5 12  1  0  0  0  0
  6 10  1  0  0  0  0
  6 11  1  0  0  0  0
  6 13  1  0  0  0  0
  7 14  1  0  0  0  0
  7 16  1  0  0  0  0
  7 38  1  0  0  0  0
  8 10  1  0  0  0  0
  8 27  1  0  0  0  0
  8 28  1  0  0  0  0
  9 11  1  0  0  0  0
  9 29  1  0  0  0  0
  9 30  1  0  0  0  0
 10 31  1  0  0  0  0
 10 32  1  0  0  0  0
 11 33  1  0  0  0  0
 11 34  1  0  0  0  0
 12 14  1  0  0  0  0
 12 35  1  0  0  0  0
 12 36  1  0  0  0  0
 13 15  1  0  0  0  0
 15 17  2  0  0  0  0
 15 37  1  0  0  0  0
 16 19  2  0  0  0  0
 16 20  1  0  0  0  0
 17 18  1  0  0  0  0
 17 39  1  0  0  0  0
 18 23  1  0  0  0  0
 18 24  2  0  0  0  0
 19 21  1  0  0  0  0
 19 40  1  0  0  0  0
 20 22  2  0  0  0  0
 20 41  1  0  0  0  0
 21 25  2  0  0  0  0
 21 42  1  0  0  0  0
 22 25  1  0  0  0  0
 22 43  1  0  0  0  0
 23 26  2  0  0  0  0
 23 44  1  0  0  0  0
 24 45  1  0  0  0  0
 26 46  1  0  0  0  0
M  END
> <PUBCHEM_COMPOUND_CID>
17396113

> <PUBCHEM_CONFORMER_RMSD>
1

> <PUBCHEM_CONFORMER_DIVERSEORDER>
1
68
36
65
76
20
22
70
39
59
25
24
10
45
30
34
6
7
51
41
60
2
53
42
46
4
13
58
54
38
80
81
47
49
61
37
71
16
32
73
40
33
17
35
48
74
55
50
72
52
57
77
28
63
67
62
43
3
14
69
79
11
44
15
18
27
31
56
75
21
5
23
78
29
9
64
19
8
12
66
26

> <PUBCHEM_MMFF94_PARTIAL_CHARGES>
36
1 -0.08
10 0.3
11 0.3
12 0.33
13 0.62
14 0.57
15 -0.14
16 0.12
17 -0.1
18 -0.05
19 -0.15
2 -0.19
20 -0.15
21 -0.15
22 -0.15
23 -0.15
24 -0.11
25 0.19
26 -0.11
3 -0.57
37 0.15
38 0.37
39 0.15
4 -0.57
40 0.15
41 0.15
42 0.15
43 0.15
44 0.15
45 0.15
46 0.15
5 -0.81
6 -0.66
7 -0.55
8 0.27
9 0.27

> <PUBCHEM_EFFECTIVE_ROTOR_COUNT>
8.2

> <PUBCHEM_PHARMACOPHORE_FEATURES>
7
1 3 acceptor
1 4 acceptor
1 5 cation
1 7 donor
5 1 18 23 24 26 rings
6 16 19 20 21 22 25 rings
6 5 6 8 9 10 11 rings

> <PUBCHEM_HEAVY_ATOM_COUNT>
26

> <PUBCHEM_ATOM_DEF_STEREO_COUNT>
0

> <PUBCHEM_ATOM_UDEF_STEREO_COUNT>
0

> <PUBCHEM_BOND_DEF_STEREO_COUNT>
1

> <PUBCHEM_BOND_UDEF_STEREO_COUNT>
0

> <PUBCHEM_ISOTOPIC_ATOM_COUNT>
0

> <PUBCHEM_COMPONENT_COUNT>
1

> <PUBCHEM_CACTVS_TAUTO_COUNT>
2

> <PUBCHEM_CONFORMER_ID>
0109719100000001

> <PUBCHEM_MMFF94_ENERGY>
59.0375

> <PUBCHEM_FEATURE_SELFOVERLAP>
35.52

> <PUBCHEM_SHAPE_FINGERPRINT>
10 15 18201435844436703229
10076449 9 9583517625185284359
10299344 5 15267344024241199434
10533779 47 18337095847987673202
10666366 153 18334850667408765126
10674148 151 16988564585423192064
10883706 142 18113616781922935951
11135926 11 18410302418997414535
11315181 36 7637406229536431143
12082328 90 8286212630185189459
12373685 5 15791735217109381500
12758862 56 18060422382920938928
13673619 4 17418097603106826524
13914758 101 17458339758457769170
14123256 10 9367348128531292098
14216079 64 18410292549863784870
14251764 18 17821726131103298688
14251764 46 18113900463737246854
14344974 204 17630029465588271019
14344974 52 15140970539497400217
14347424 109 18187368693367484008
14444916 359 16988844981645907954
14675019 173 17775284945757990372
150020 25 8214141867703418608
15131766 46 17556282974634972660
15419008 145 18410293657121803113
15461852 350 14707213179926240613
1577012 14 18189617151221605956
15849732 13 8286198353413022410
1754911 235 10592046855853224354
1818759 1 14189570845311246833
18335252 98 8790889587756653096
18365409 1 10663520605254743600
19301679 30 18128824221841475130
20105231 36 15913326892437016001
20554085 129 13912326806946512446
20812841 46 18261109703646664962
21049683 271 9943803387313951926
21095086 128 14620798210682322176
21267235 1 14189576334131816447
21403212 168 18259705605759867990
21591340 7 17748831800016084975
21781055 127 17131258190636436157
21792934 111 18334019389279268832
21792961 116 17846509161436515188
22224240 67 17022904549613866726
246663 6 15913327996317456922
24771293 8 5472869163703634747
28498 318 18412826902200004430
3178227 256 18342176657497300494
335352 9 18408885114333296518
395649 100 14346089598712649309
397638 26 18411982429719745203
4325135 7 8934999278706451800
4339292 15 15357993201387270391
437795 160 16298682594016749351
439807 62 17775288296818547754
45377200 153 14045446826899494185
5207 217 7997972384140407548
5381727 24 18410293589509744499
54039377 194 13398623945104891259
6394761 36 18202283602150557066

> <PUBCHEM_SHAPE_MULTIPOLES>
504.96
31.54
1.41
1.21
2.34
0.35
0.17
-3.66
10.61
1.27
-0.04
-0.41
-0.16
0.84

> <PUBCHEM_SHAPE_SELFOVERLAP>
1055.358

> <PUBCHEM_SHAPE_VOLUME>
287.5

> <PUBCHEM_COORDINATE_TYPE>
2
5
10

$$$$

