46173767
  -OEChem-07051212523D

 70 73  0     1  0  0  0  0  0999 V2000
    1.0644   -5.4300    0.5930 P   0  0  0  0  0  0  0  0  0  0  0  0
    0.5214   -1.1524    0.5693 O   0  0  0  0  0  0  0  0  0  0  0  0
    0.0729    0.8615   -2.3746 O   0  0  0  0  0  0  0  0  0  0  0  0
    0.4290   -3.9459    0.7196 O   0  0  0  0  0  0  0  0  0  0  0  0
   -3.7805   -1.6298   -1.5935 O   0  0  0  0  0  0  0  0  0  0  0  0
   -0.0504   -6.2292   -0.2633 O   0  0  0  0  0  0  0  0  0  0  0  0
    2.2766   -5.2396   -0.4604 O   0  0  0  0  0  0  0  0  0  0  0  0
    1.4419   -6.0707    1.8965 O   0  0  0  0  0  0  0  0  0  0  0  0
   -5.8208    2.8532   -1.7491 O   0  0  0  0  0  0  0  0  0  0  0  0
   -1.0002    2.2768    4.4626 O   0  0  0  0  0  0  0  0  0  0  0  0
    2.3850    0.1758   -0.2704 N   0  0  0  0  0  0  0  0  0  0  0  0
   -2.0516   -0.2134   -0.9628 N   0  0  0  0  0  0  0  0  0  0  0  0
    4.5572   -0.3209   -0.2079 N   0  0  0  0  0  0  0  0  0  0  0  0
    2.5159    2.5884   -0.5213 N   0  0  0  0  0  0  0  0  0  0  0  0
   -5.4211    0.5603   -1.6818 N   0  0  0  0  0  0  0  0  0  0  0  0
    6.6854    1.8400   -0.4238 N   0  0  0  0  0  0  0  0  0  0  0  0
    4.8344    3.3476   -0.5892 N   0  0  0  0  0  0  0  0  0  0  0  0
   -0.9529   -1.0907   -1.3024 C   0  0  1  0  0  0  0  0  0  0  0  0
    0.3124   -0.3205   -1.6367 C   0  0  2  0  0  0  0  0  0  0  0  0
   -0.5184   -1.9072   -0.0879 C   0  0  1  0  0  0  0  0  0  0  0  0
    0.8886   -0.0291   -0.2562 C   0  0  1  0  0  0  0  0  0  0  0  0
    0.0458   -3.2713   -0.4654 C   0  0  0  0  0  0  0  0  0  0  0  0
    3.0479    1.3638   -0.3910 C   0  0  0  0  0  0  0  0  0  0  0  0
   -3.3834   -0.5593   -1.1382 C   0  0  0  0  0  0  0  0  0  0  0  0
    3.3339   -0.8060   -0.1632 C   0  0  0  0  0  0  0  0  0  0  0  0
   -4.3229    0.5764   -0.7486 C   0  0  2  0  0  0  0  0  0  0  0  0
    4.3933    1.0341   -0.3501 C   0  0  0  0  0  0  0  0  0  0  0  0
   -4.7925    0.4059    0.7007 C   0  0  0  0  0  0  0  0  0  0  0  0
    5.3014    2.0829   -0.4551 C   0  0  0  0  0  0  0  0  0  0  0  0
   -3.7814    0.9042    1.7042 C   0  0  0  0  0  0  0  0  0  0  0  0
    3.4906    3.5192   -0.6136 C   0  0  0  0  0  0  0  0  0  0  0  0
   -6.0785    1.7059   -2.1037 C   0  0  0  0  0  0  0  0  0  0  0  0
   -2.8077    0.0387    2.2028 C   0  0  0  0  0  0  0  0  0  0  0  0
   -3.8204    2.2311    2.1328 C   0  0  0  0  0  0  0  0  0  0  0  0
    7.6306    2.9359   -0.5413 C   0  0  0  0  0  0  0  0  0  0  0  0
    7.1952    0.4881   -0.2812 C   0  0  0  0  0  0  0  0  0  0  0  0
   -7.1692    1.4076   -3.0973 C   0  0  0  0  0  0  0  0  0  0  0  0
   -1.8733    0.4998    3.1300 C   0  0  0  0  0  0  0  0  0  0  0  0
   -2.8860    2.6923    3.0600 C   0  0  0  0  0  0  0  0  0  0  0  0
   -1.9125    1.8267    3.5586 C   0  0  0  0  0  0  0  0  0  0  0  0
   -1.2787   -1.7190   -2.1385 H   0  0  0  0  0  0  0  0  0  0  0  0
    0.9894   -0.9591   -2.2176 H   0  0  0  0  0  0  0  0  0  0  0  0
   -1.3235   -2.0560    0.6363 H   0  0  0  0  0  0  0  0  0  0  0  0
    0.4760    0.8813    0.1952 H   0  0  0  0  0  0  0  0  0  0  0  0
    0.9273   -3.1622   -1.1047 H   0  0  0  0  0  0  0  0  0  0  0  0
   -0.7105   -3.8592   -0.9945 H   0  0  0  0  0  0  0  0  0  0  0  0
   -1.8273    0.6851   -0.5455 H   0  0  0  0  0  0  0  0  0  0  0  0
    0.9247    1.3164   -2.4866 H   0  0  0  0  0  0  0  0  0  0  0  0
    3.0797   -1.8519   -0.0586 H   0  0  0  0  0  0  0  0  0  0  0  0
   -3.8074    1.5374   -0.8711 H   0  0  0  0  0  0  0  0  0  0  0  0
   -5.0338   -0.6446    0.9123 H   0  0  0  0  0  0  0  0  0  0  0  0
   -5.7324    0.9524    0.8583 H   0  0  0  0  0  0  0  0  0  0  0  0
   -5.7381   -0.3398   -2.0321 H   0  0  0  0  0  0  0  0  0  0  0  0
    3.1524    4.5442   -0.7221 H   0  0  0  0  0  0  0  0  0  0  0  0
   -2.7888   -1.0030    1.9007 H   0  0  0  0  0  0  0  0  0  0  0  0
   -4.5723    2.9156    1.7492 H   0  0  0  0  0  0  0  0  0  0  0  0
    0.0590   -7.1942   -0.4012 H   0  0  0  0  0  0  0  0  0  0  0  0
    2.8652   -6.0012   -0.6493 H   0  0  0  0  0  0  0  0  0  0  0  0
    8.6697    2.5936   -0.4947 H   0  0  0  0  0  0  0  0  0  0  0  0
    6.8822    0.0413    0.6686 H   0  0  0  0  0  0  0  0  0  0  0  0
    6.8914   -0.1442   -1.1223 H   0  0  0  0  0  0  0  0  0  0  0  0
    8.2913    0.4743   -0.2738 H   0  0  0  0  0  0  0  0  0  0  0  0
    7.4879    3.6559    0.2719 H   0  0  0  0  0  0  0  0  0  0  0  0
    7.5004    3.4549   -1.4972 H   0  0  0  0  0  0  0  0  0  0  0  0
   -7.8244    0.6203   -2.7138 H   0  0  0  0  0  0  0  0  0  0  0  0
   -7.7664    2.3072   -3.2705 H   0  0  0  0  0  0  0  0  0  0  0  0
   -6.7241    1.0839   -4.0421 H   0  0  0  0  0  0  0  0  0  0  0  0
   -1.1208   -0.1810    3.5185 H   0  0  0  0  0  0  0  0  0  0  0  0
   -2.9266    3.7285    3.3851 H   0  0  0  0  0  0  0  0  0  0  0  0
   -1.1745    3.2162    4.6451 H   0  0  0  0  0  0  0  0  0  0  0  0
  1  4  1  0  0  0  0
  1  6  1  0  0  0  0
  1  7  1  0  0  0  0
  1  8  2  0  0  0  0
  2 20  1  0  0  0  0
  2 21  1  0  0  0  0
  3 19  1  0  0  0  0
  3 48  1  0  0  0  0
  4 22  1  0  0  0  0
  5 24  2  0  0  0  0
  6 57  1  0  0  0  0
  7 58  1  0  0  0  0
  9 32  2  0  0  0  0
 10 40  1  0  0  0  0
 10 70  1  0  0  0  0
 11 21  1  0  0  0  0
 11 23  1  0  0  0  0
 11 25  1  0  0  0  0
 12 18  1  0  0  0  0
 12 24  1  0  0  0  0
 12 47  1  0  0  0  0
 13 25  2  0  0  0  0
 13 27  1  0  0  0  0
 14 23  1  0  0  0  0
 14 31  2  0  0  0  0
 15 26  1  0  0  0  0
 15 32  1  0  0  0  0
 15 53  1  0  0  0  0
 16 29  1  0  0  0  0
 16 35  1  0  0  0  0
 16 36  1  0  0  0  0
 17 29  2  0  0  0  0
 17 31  1  0  0  0  0
 18 19  1  0  0  0  0
 18 20  1  0  0  0  0
 18 41  1  0  0  0  0
 19 21  1  0  0  0  0
 19 42  1  0  0  0  0
 20 22  1  0  0  0  0
 20 43  1  0  0  0  0
 21 44  1  0  0  0  0
 22 45  1  0  0  0  0
 22 46  1  0  0  0  0
 23 27  2  0  0  0  0
 24 26  1  0  0  0  0
 25 49  1  0  0  0  0
 26 28  1  0  0  0  0
 26 50  1  0  0  0  0
 27 29  1  0  0  0  0
 28 30  1  0  0  0  0
 28 51  1  0  0  0  0
 28 52  1  0  0  0  0
 30 33  2  0  0  0  0
 30 34  1  0  0  0  0
 31 54  1  0  0  0  0
 32 37  1  0  0  0  0
 33 38  1  0  0  0  0
 33 55  1  0  0  0  0
 34 39  2  0  0  0  0
 34 56  1  0  0  0  0
 35 59  1  0  0  0  0
 35 63  1  0  0  0  0
 35 64  1  0  0  0  0
 36 60  1  0  0  0  0
 36 61  1  0  0  0  0
 36 62  1  0  0  0  0
 37 65  1  0  0  0  0
 37 66  1  0  0  0  0
 37 67  1  0  0  0  0
 38 40  2  0  0  0  0
 38 68  1  0  0  0  0
 39 40  1  0  0  0  0
 39 69  1  0  0  0  0
M  END
> <PUBCHEM_COMPOUND_CID>
46173767

> <PUBCHEM_CONFORMER_RMSD>
1.2

> <PUBCHEM_CONFORMER_DIVERSEORDER>
1
29
46
70
69
51
21
7
71
50
72
12
30
8
64
28
41
35
34
14
48
40
75
45
58
76
78
20
49
65
10
77
42
27
33
67
44
19
53
63
23
38
60
15
43
47
9
24
54
66
79
31
68
74
57
11
62
55
61
17
22
18
16
59
6
5
2
37
73
39
52
56
26
13
32
25
3
4
36

> <PUBCHEM_MMFF94_PARTIAL_CHARGES>
52
1 1.51
10 -0.53
11 0.05
12 -0.73
13 -0.57
14 -0.57
15 -0.73
16 -0.84
17 -0.62
18 0.3
19 0.28
2 -0.56
20 0.28
21 0.54
22 0.28
23 0.11
24 0.57
25 0.04
26 0.36
27 0.23
28 0.14
29 0.41
3 -0.68
30 -0.14
31 0.47
32 0.57
33 -0.15
34 -0.15
35 0.37
36 0.37
37 0.06
38 -0.15
39 -0.15
4 -0.55
40 0.08
47 0.37
48 0.4
49 0.15
5 -0.57
53 0.37
54 0.15
55 0.15
56 0.15
57 0.5
58 0.5
6 -0.77
68 0.15
69 0.15
7 -0.77
70 0.45
8 -0.7
9 -0.57

> <PUBCHEM_EFFECTIVE_ROTOR_COUNT>
13

> <PUBCHEM_PHARMACOPHORE_FEATURES>
19
1 10 donor
1 12 donor
1 15 donor
1 2 acceptor
1 3 acceptor
1 3 donor
1 5 acceptor
1 6 acceptor
1 7 acceptor
1 8 acceptor
1 9 acceptor
3 11 13 25 cation
3 14 17 31 cation
3 16 17 29 cation
4 1 6 7 8 anion
5 11 13 23 25 27 rings
5 2 18 19 20 21 rings
6 14 17 23 27 29 31 rings
6 30 33 34 38 39 40 rings

> <PUBCHEM_HEAVY_ATOM_COUNT>
40

> <PUBCHEM_ATOM_DEF_STEREO_COUNT>
5

> <PUBCHEM_ATOM_UDEF_STEREO_COUNT>
0

> <PUBCHEM_BOND_DEF_STEREO_COUNT>
0

> <PUBCHEM_BOND_UDEF_STEREO_COUNT>
0

> <PUBCHEM_ISOTOPIC_ATOM_COUNT>
0

> <PUBCHEM_COMPONENT_COUNT>
1

> <PUBCHEM_CACTVS_TAUTO_COUNT>
8

> <PUBCHEM_CONFORMER_ID>
02C08E4700000001

> <PUBCHEM_MMFF94_ENERGY>
68.1312

> <PUBCHEM_FEATURE_SELFOVERLAP>
96.699

> <PUBCHEM_SHAPE_FINGERPRINT>
10670039 82 16877657963530106445
11763715 3 17256511445448571606
12655364 131 18265618856841167370
12788726 201 17749384824257607690
12977781 61 17774708870991167299
14068700 675 17539716985342606583
15448158 71 17752460304320825569
16112460 7 18335131017262656466
19304671 126 17055022543145727397
19319366 153 18188194486212339523
21033648 29 18270976630267608188
21033650 10 17388503135201518268
21133410 230 16677259565517996432
2132832 1 17682129008321054555
244849 19 17558814325463888163
4616759 239 17973734571996291816
6608658 132 17022903454218403629

> <PUBCHEM_SHAPE_MULTIPOLES>
739.34
15.33
6.6
3.25
9.92
15.5
-3.09
-18.58
9.67
5.68
-2.16
-7.02
-2.83
-1.62

> <PUBCHEM_SHAPE_SELFOVERLAP>
1557.857

> <PUBCHEM_SHAPE_VOLUME>
418.7

> <PUBCHEM_COORDINATE_TYPE>
2
5
10

$$$$

