14311158
  -OEChem-07051213083D

 62 65  0     1  0  0  0  0  0999 V2000
    1.0707    1.2732    0.8243 O   0  0  0  0  0  0  0  0  0  0  0  0
    1.5472   -0.8355    1.7021 O   0  0  0  0  0  0  0  0  0  0  0  0
    2.2953    4.6301    1.6273 O   0  0  0  0  0  0  0  0  0  0  0  0
    4.4062    2.9014    2.5822 O   0  0  0  0  0  0  0  0  0  0  0  0
    3.2895    0.3646    3.5813 O   0  0  0  0  0  0  0  0  0  0  0  0
   -0.8922    2.7427   -0.4180 O   0  0  0  0  0  0  0  0  0  0  0  0
   -1.0930   -2.2706   -0.4557 O   0  3  0  0  0  0  0  0  0  0  0  0
   -1.1797    4.0463   -2.2977 O   0  0  0  0  0  0  0  0  0  0  0  0
   -3.1214   -1.1220    3.8067 O   0  0  0  0  0  0  0  0  0  0  0  0
   -5.7751   -2.9490    0.3065 O   0  0  0  0  0  0  0  0  0  0  0  0
    3.8532   -4.4302   -1.7129 O   0  0  0  0  0  0  0  0  0  0  0  0
    2.9784   -0.0536   -3.4507 O   0  0  0  0  0  0  0  0  0  0  0  0
    4.5156   -2.3580   -3.4271 O   0  0  0  0  0  0  0  0  0  0  0  0
   -4.9864    2.2136   -2.6599 O   0  0  0  0  0  0  0  0  0  0  0  0
   -3.5714    3.7311   -3.5903 O   0  0  0  0  0  0  0  0  0  0  0  0
    2.3943    3.2397    1.3306 C   0  0  1  0  0  0  0  0  0  0  0  0
    3.0329    2.5142    2.5151 C   0  0  1  0  0  0  0  0  0  0  0  0
    0.9980    2.6834    1.0417 C   0  0  1  0  0  0  0  0  0  0  0  0
    2.9393    0.9972    2.3507 C   0  0  2  0  0  0  0  0  0  0  0  0
    1.5215    0.5648    1.9766 C   0  0  1  0  0  0  0  0  0  0  0  0
    0.3878    3.3103   -0.2079 C   0  0  0  0  0  0  0  0  0  0  0  0
    0.3030   -1.3049    1.3489 C   0  0  0  0  0  0  0  0  0  0  0  0
    0.0714   -1.8892   -0.0101 C   0  0  0  0  0  0  0  0  0  0  0  0
   -0.7626   -1.2232    2.1559 C   0  0  0  0  0  0  0  0  0  0  0  0
   -2.0744   -1.6755    1.7066 C   0  0  0  0  0  0  0  0  0  0  0  0
   -1.5850    3.2012   -1.5123 C   0  0  0  0  0  0  0  0  0  0  0  0
   -2.2016   -2.1754    0.4065 C   0  0  0  0  0  0  0  0  0  0  0  0
    1.2428   -2.0124   -0.9089 C   0  0  0  0  0  0  0  0  0  0  0  0
   -3.1992   -1.6054    2.5339 C   0  0  0  0  0  0  0  0  0  0  0  0
   -2.9223    2.5051   -1.5827 C   0  0  0  0  0  0  0  0  0  0  0  0
   -3.4438   -2.6028   -0.0637 C   0  0  0  0  0  0  0  0  0  0  0  0
    1.5657   -0.9656   -1.7651 C   0  0  0  0  0  0  0  0  0  0  0  0
    2.0067   -3.1736   -0.8893 C   0  0  0  0  0  0  0  0  0  0  0  0
   -4.4408   -2.0346    2.0614 C   0  0  0  0  0  0  0  0  0  0  0  0
   -4.5630   -2.5320    0.7642 C   0  0  0  0  0  0  0  0  0  0  0  0
    3.1082   -3.2898   -1.7371 C   0  0  0  0  0  0  0  0  0  0  0  0
    2.6672   -1.0819   -2.6130 C   0  0  0  0  0  0  0  0  0  0  0  0
    3.4385   -2.2440   -2.5989 C   0  0  0  0  0  0  0  0  0  0  0  0
   -3.8214    2.9104   -2.7211 C   0  0  0  0  0  0  0  0  0  0  0  0
    3.0425    3.1307    0.4514 H   0  0  0  0  0  0  0  0  0  0  0  0
    2.5778    2.8337    3.4600 H   0  0  0  0  0  0  0  0  0  0  0  0
    0.3179    2.8736    1.8831 H   0  0  0  0  0  0  0  0  0  0  0  0
    3.6585    0.6529    1.5970 H   0  0  0  0  0  0  0  0  0  0  0  0
    0.8565    0.7655    2.8278 H   0  0  0  0  0  0  0  0  0  0  0  0
    1.0155    3.0930   -1.0808 H   0  0  0  0  0  0  0  0  0  0  0  0
    0.2855    4.3945   -0.0920 H   0  0  0  0  0  0  0  0  0  0  0  0
    2.1358    5.1020    0.7929 H   0  0  0  0  0  0  0  0  0  0  0  0
    4.8425    2.6134    1.7623 H   0  0  0  0  0  0  0  0  0  0  0  0
    3.2046   -0.5952    3.4497 H   0  0  0  0  0  0  0  0  0  0  0  0
   -0.6428   -0.8328    3.1584 H   0  0  0  0  0  0  0  0  0  0  0  0
   -2.7309    1.4303   -1.6759 H   0  0  0  0  0  0  0  0  0  0  0  0
   -3.4546    2.7163   -0.6487 H   0  0  0  0  0  0  0  0  0  0  0  0
   -3.5246   -2.9898   -1.0758 H   0  0  0  0  0  0  0  0  0  0  0  0
    0.9642   -0.0601   -1.7809 H   0  0  0  0  0  0  0  0  0  0  0  0
    1.7446   -3.9863   -0.2162 H   0  0  0  0  0  0  0  0  0  0  0  0
   -5.3155   -1.9799    2.7050 H   0  0  0  0  0  0  0  0  0  0  0  0
   -2.3914   -0.4890    3.8849 H   0  0  0  0  0  0  0  0  0  0  0  0
   -5.6757   -3.2617   -0.6091 H   0  0  0  0  0  0  0  0  0  0  0  0
    3.4764   -5.0413   -1.0567 H   0  0  0  0  0  0  0  0  0  0  0  0
    3.7668   -0.3043   -3.9630 H   0  0  0  0  0  0  0  0  0  0  0  0
    4.9264   -3.2274   -3.2787 H   0  0  0  0  0  0  0  0  0  0  0  0
   -5.5940    2.4525   -3.3921 H   0  0  0  0  0  0  0  0  0  0  0  0
  1 18  1  0  0  0  0
  1 20  1  0  0  0  0
  2 20  1  0  0  0  0
  2 22  1  0  0  0  0
  3 16  1  0  0  0  0
  3 47  1  0  0  0  0
  4 17  1  0  0  0  0
  4 48  1  0  0  0  0
  5 19  1  0  0  0  0
  5 49  1  0  0  0  0
  6 21  1  0  0  0  0
  6 26  1  0  0  0  0
  7 23  2  0  0  0  0
  7 27  1  0  0  0  0
  8 26  2  0  0  0  0
  9 29  1  0  0  0  0
  9 57  1  0  0  0  0
 10 35  1  0  0  0  0
 10 58  1  0  0  0  0
 11 36  1  0  0  0  0
 11 59  1  0  0  0  0
 12 37  1  0  0  0  0
 12 60  1  0  0  0  0
 13 38  1  0  0  0  0
 13 61  1  0  0  0  0
 14 39  1  0  0  0  0
 14 62  1  0  0  0  0
 15 39  2  0  0  0  0
 16 17  1  0  0  0  0
 16 18  1  0  0  0  0
 16 40  1  0  0  0  0
 17 19  1  0  0  0  0
 17 41  1  0  0  0  0
 18 21  1  0  0  0  0
 18 42  1  0  0  0  0
 19 20  1  0  0  0  0
 19 43  1  0  0  0  0
 20 44  1  0  0  0  0
 21 45  1  0  0  0  0
 21 46  1  0  0  0  0
 22 23  1  0  0  0  0
 22 24  2  0  0  0  0
 23 28  1  0  0  0  0
 24 25  1  0  0  0  0
 24 50  1  0  0  0  0
 25 27  1  0  0  0  0
 25 29  2  0  0  0  0
 26 30  1  0  0  0  0
 27 31  2  0  0  0  0
 28 32  2  0  0  0  0
 28 33  1  0  0  0  0
 29 34  1  0  0  0  0
 30 39  1  0  0  0  0
 30 51  1  0  0  0  0
 30 52  1  0  0  0  0
 31 35  1  0  0  0  0
 31 53  1  0  0  0  0
 32 37  1  0  0  0  0
 32 54  1  0  0  0  0
 33 36  2  0  0  0  0
 33 55  1  0  0  0  0
 34 35  2  0  0  0  0
 34 56  1  0  0  0  0
 36 38  1  0  0  0  0
 37 38  2  0  0  0  0
M  CHG  1   7   1
M  END
> <PUBCHEM_COMPOUND_CID>
14311158

> <PUBCHEM_CONFORMER_RMSD>
1

> <PUBCHEM_CONFORMER_DIVERSEORDER>
1
131
94
100
58
145
139
47
107
61
141
130
13
72
18
144
79
34
103
118
112
15
4
146
113
132
133
59
109
14
135
121
37
136
9
54
65
24
53
46
17
117
80
39
50
32
123
88
3
106
60
134
105
57
90
101
137
36
68
19
122
124
95
38
66
30
11
10
27
56
63
42
44
28
74
26
91
85
102
81
21
116
40
129
78
7
23
25
98
99
147
86
2
22
87
29
115
35
128
76
114
120
148
6
104
110
119
108
70
126
33
89
96
67
55
143
31
127
52
49
5
77
71
97
64
83
8
12
20
125
149
75
41
82
62
16
142
138
84
111
51
45
69
92
48
43
73
140
93

> <PUBCHEM_MMFF94_PARTIAL_CHARGES>
53
1 -0.56
10 -0.53
11 -0.53
12 -0.53
13 -0.53
14 -0.65
15 -0.57
16 0.28
17 0.28
18 0.28
19 0.28
2 -0.36
20 0.56
21 0.28
22 0.09
23 0.85
24 -0.18
25 0.03
26 0.66
27 0.92
28 0.09
29 0.08
3 -0.68
30 0.12
31 -0.15
32 -0.15
33 -0.15
34 -0.15
35 0.08
36 0.08
37 0.08
38 0.08
39 0.66
4 -0.68
47 0.4
48 0.4
49 0.4
5 -0.68
50 0.15
53 0.15
54 0.15
55 0.15
56 0.15
57 0.45
58 0.45
59 0.45
6 -0.43
60 0.45
61 0.45
62 0.5
7 -0.87
8 -0.57
9 -0.53

> <PUBCHEM_EFFECTIVE_ROTOR_COUNT>
9.2

> <PUBCHEM_PHARMACOPHORE_FEATURES>
22
1 1 acceptor
1 10 donor
1 11 donor
1 12 donor
1 13 donor
1 14 acceptor
1 15 acceptor
1 2 acceptor
1 3 acceptor
1 3 donor
1 30 anion
1 4 acceptor
1 4 donor
1 5 acceptor
1 5 donor
1 8 acceptor
1 9 donor
3 14 15 39 anion
6 1 16 17 18 19 20 rings
6 25 27 29 31 34 35 rings
6 28 32 33 36 37 38 rings
6 7 22 23 24 25 27 rings

> <PUBCHEM_HEAVY_ATOM_COUNT>
39

> <PUBCHEM_ATOM_DEF_STEREO_COUNT>
5

> <PUBCHEM_ATOM_UDEF_STEREO_COUNT>
0

> <PUBCHEM_BOND_DEF_STEREO_COUNT>
0

> <PUBCHEM_BOND_UDEF_STEREO_COUNT>
0

> <PUBCHEM_ISOTOPIC_ATOM_COUNT>
0

> <PUBCHEM_COMPONENT_COUNT>
1

> <PUBCHEM_CACTVS_TAUTO_COUNT>
183

> <PUBCHEM_CONFORMER_ID>
00DA5EF600000001

> <PUBCHEM_MMFF94_ENERGY>
110.848

> <PUBCHEM_FEATURE_SELFOVERLAP>
112.064

> <PUBCHEM_SHAPE_FINGERPRINT>
11285246 1 16891724303673492174
11445158 3 17676755514196414111
11578080 2 18262227919445285522
11763715 3 17414728565818896179
12156800 1 17989490731739480772
12788726 201 17560790057723009375
133893 2 17313112963989185462
13540713 5 16589402277848646955
13751561 76 18337968877800162557
14028597 1 16056301826835829444
14040222 75 17843695352726760789
14415361 192 18269536326982255796
15276724 80 17838350588377022536
15775530 1 18409450331528335123
16114785 44 17330047487609621296
17980427 26 16443626779737229600
19319366 153 16390131548684147081
20587220 46 16087341066174599925
20775438 99 18047226100610318903
23366157 5 17823678811877745746
238918 7 18192728755958583709
24941158 1 17967535657691378061
3493558 16 15194179106056773596
4409770 3 17616511291819549707
5081480 168 18113611326802631047
86090 222 18054528047657138637

> <PUBCHEM_SHAPE_MULTIPOLES>
714.56
8.69
6.62
4.58
6.79
4.25
0.76
-3.73
0.95
-0.98
3.78
-1.32
1.91
10.05

> <PUBCHEM_SHAPE_SELFOVERLAP>
1554.691

> <PUBCHEM_SHAPE_VOLUME>
384.1

> <PUBCHEM_COORDINATE_TYPE>
2
5
10

$$$$

