60018
  -OEChem-07051213133D

 30 33  0     0  0  0  0  0  0999 V2000
   -4.8663    1.3577    0.0012 O   0  5  0  0  0  0  0  0  0  0  0  0
   -2.8793    2.2909    0.0006 O   0  0  0  0  0  0  0  0  0  0  0  0
    5.2595   -0.7793   -0.0014 O   0  5  0  0  0  0  0  0  0  0  0  0
    4.5811    1.3085   -0.0005 O   0  0  0  0  0  0  0  0  0  0  0  0
   -3.6136    1.2725    0.0003 N   0  3  0  0  0  0  0  0  0  0  0  0
    4.3449    0.0776   -0.0001 N   0  3  0  0  0  0  0  0  0  0  0  0
    0.6470    0.0090    0.0003 C   0  0  0  0  0  0  0  0  0  0  0  0
   -0.5316    0.7421   -0.0004 C   0  0  0  0  0  0  0  0  0  0  0  0
    0.3693   -1.3509    0.0003 C   0  0  0  0  0  0  0  0  0  0  0  0
   -1.6418   -0.2005   -0.0004 C   0  0  0  0  0  0  0  0  0  0  0  0
   -1.0785   -1.5092    0.0000 C   0  0  0  0  0  0  0  0  0  0  0  0
    1.9266    0.5597    0.0006 C   0  0  0  0  0  0  0  0  0  0  0  0
   -3.0106   -0.0114   -0.0010 C   0  0  0  0  0  0  0  0  0  0  0  0
    1.4176   -2.2521    0.0006 C   0  0  0  0  0  0  0  0  0  0  0  0
   -0.4656    2.1229   -0.0009 C   0  0  0  0  0  0  0  0  0  0  0  0
    2.9915   -0.3621    0.0012 C   0  0  0  0  0  0  0  0  0  0  0  0
   -1.8821   -2.6333   -0.0001 C   0  0  0  0  0  0  0  0  0  0  0  0
    1.9891    1.9669    0.0004 C   0  0  0  0  0  0  0  0  0  0  0  0
    2.7313   -1.7497    0.0011 C   0  0  0  0  0  0  0  0  0  0  0  0
    0.8023    2.7315   -0.0005 C   0  0  0  0  0  0  0  0  0  0  0  0
   -3.8238   -1.1485   -0.0010 C   0  0  0  0  0  0  0  0  0  0  0  0
   -3.2667   -2.4422   -0.0005 C   0  0  0  0  0  0  0  0  0  0  0  0
    1.2441   -3.3232    0.0006 H   0  0  0  0  0  0  0  0  0  0  0  0
   -1.1677    2.9249   -0.0034 H   0  0  0  0  0  0  0  0  0  0  0  0
   -1.4645   -3.6340    0.0003 H   0  0  0  0  0  0  0  0  0  0  0  0
    2.8928    2.5587    0.0007 H   0  0  0  0  0  0  0  0  0  0  0  0
    3.5387   -2.4793    0.0011 H   0  0  0  0  0  0  0  0  0  0  0  0
    0.8778    3.8174   -0.0011 H   0  0  0  0  0  0  0  0  0  0  0  0
   -4.9095   -1.0766   -0.0011 H   0  0  0  0  0  0  0  0  0  0  0  0
   -3.9266   -3.3063   -0.0005 H   0  0  0  0  0  0  0  0  0  0  0  0
  1  5  1  0  0  0  0
  2  5  2  0  0  0  0
  3  6  1  0  0  0  0
  4  6  2  0  0  0  0
  5 13  1  0  0  0  0
  6 16  1  0  0  0  0
  7  8  1  0  0  0  0
  7  9  2  0  0  0  0
  7 12  1  0  0  0  0
  8 10  1  0  0  0  0
  8 15  2  0  0  0  0
  9 11  1  0  0  0  0
  9 14  1  0  0  0  0
 10 11  2  0  0  0  0
 10 13  1  0  0  0  0
 11 17  1  0  0  0  0
 12 16  2  0  0  0  0
 12 18  1  0  0  0  0
 13 21  2  0  0  0  0
 14 19  2  0  0  0  0
 14 23  1  0  0  0  0
 15 20  1  0  0  0  0
 15 24  1  0  0  0  0
 16 19  1  0  0  0  0
 17 22  2  0  0  0  0
 17 25  1  0  0  0  0
 18 20  2  0  0  0  0
 18 26  1  0  0  0  0
 19 27  1  0  0  0  0
 20 28  1  0  0  0  0
 21 22  1  0  0  0  0
 21 29  1  0  0  0  0
 22 30  1  0  0  0  0
M  CHG  4   1  -1   3  -1   5   1   6   1
M  END
> <PUBCHEM_COMPOUND_CID>
60018

> <PUBCHEM_CONFORMER_RMSD>
0.6

> <PUBCHEM_CONFORMER_DIVERSEORDER>
1

> <PUBCHEM_MMFF94_PARTIAL_CHARGES>
24
1 -0.52
13 0.13
14 -0.15
15 -0.15
16 0.13
17 -0.15
18 -0.15
19 -0.15
2 -0.52
20 -0.15
21 -0.15
22 -0.15
23 0.15
24 0.15
25 0.15
26 0.15
27 0.15
28 0.15
29 0.15
3 -0.52
30 0.15
4 -0.52
5 0.91
6 0.91

> <PUBCHEM_EFFECTIVE_ROTOR_COUNT>
2

> <PUBCHEM_PHARMACOPHORE_FEATURES>
10
1 1 acceptor
1 1 anion
1 2 acceptor
1 3 acceptor
1 3 anion
1 4 acceptor
5 7 8 9 10 11 rings
6 10 11 13 17 21 22 rings
6 7 8 12 15 18 20 rings
6 7 9 12 14 16 19 rings

> <PUBCHEM_HEAVY_ATOM_COUNT>
22

> <PUBCHEM_ATOM_DEF_STEREO_COUNT>
0

> <PUBCHEM_ATOM_UDEF_STEREO_COUNT>
0

> <PUBCHEM_BOND_DEF_STEREO_COUNT>
0

> <PUBCHEM_BOND_UDEF_STEREO_COUNT>
0

> <PUBCHEM_ISOTOPIC_ATOM_COUNT>
0

> <PUBCHEM_COMPONENT_COUNT>
1

> <PUBCHEM_CACTVS_TAUTO_COUNT>
1

> <PUBCHEM_CONFORMER_ID>
0000EA7200000001

> <PUBCHEM_MMFF94_ENERGY>
128.9162

> <PUBCHEM_FEATURE_SELFOVERLAP>
51.212

> <PUBCHEM_SHAPE_FINGERPRINT>
10062212 137 18412832356428973922
10411042 1 17906453221261007051
10493431 412 18263354962346497425
10608611 8 18410013191577632523
10616163 171 18410009905711724111
10967382 1 18266459991350933575
1100329 8 18409444782631614161
11578080 2 17096947771283022547
12011746 2 18337392741774955189
12236239 1 17917992772583468214
12403259 226 18192716635623827009
12403814 3 17560803264114052413
12553582 1 18340216261896824514
12838862 33 18267323064855459173
13132413 78 18409166601683322724
13140716 1 18337952285898587969
13583140 156 14129325291974893527
138480 1 15888558572166704485
14223421 5 18266458694397378371
14790565 3 18049435139271304801
15196674 1 18410855434843641696
15442244 35 18339080393407850049
15536298 74 18190178984298712168
1601671 61 18409165524010430632
16945 1 18338797789129248487
17804303 29 18409727326880679229
19591789 44 18338517430833270958
200 152 18041284253668852623
20739085 24 17690811855476819657
21267235 1 18339071605899981355
21421861 104 17843690095522980882
21501502 16 18339921494302307341
221490 88 18125153831966716426
2334 1 18050284765152708581
23366157 5 17842844326379101140
23402539 116 18408047316580159766
23557571 272 18261664931232908046
23558518 356 18056757624808153275
23559900 14 18262800791422377326
238 59 16619874396424286589
2748010 2 18194686955838754109
335352 9 18410856598315679132
34934 24 18411422842577776266
350125 39 18338793408584106699
4214541 1 18410573976561523046
5104073 3 18410576163127236514
7364860 26 18119811300782882416
7832392 63 18409732858867173691
8809292 202 18200029530294144507
9709674 26 18408599253763050742
9981440 41 17116916916535942880

> <PUBCHEM_SHAPE_MULTIPOLES>
419.31
8.03
3.09
0.59
2.52
0.35
0
-0.09
0
-1.12
0
-0.01
-0.02
0

> <PUBCHEM_SHAPE_SELFOVERLAP>
974.477

> <PUBCHEM_SHAPE_VOLUME>
215.9

> <PUBCHEM_COORDINATE_TYPE>
2
5
10

$$$$

