442095
  -OEChem-07051212562D

 48 52  0     1  0  0  0  0  0999 V2000
    1.4776    1.4634    0.0000 O   0  0  0  0  0  0  0  0  0  0  0  0
    5.5875   -0.6760    0.0000 N   0  0  3  0  0  0  0  0  0  0  0  0
    4.0222    2.0352    0.0000 N   0  0  0  0  0  0  0  0  0  0  0  0
    4.6624    0.5973    0.0000 C   0  0  1  0  0  0  0  0  0  0  0  0
    4.6624   -0.3754    0.0000 C   0  0  2  0  0  0  0  0  0  0  0  0
    3.8200    1.0837    0.0000 C   0  0  2  0  0  0  0  0  0  0  0  0
    2.9776   -0.3754    0.0000 C   0  0  1  0  0  0  0  0  0  0  0  0
    2.9776    0.5973    0.0000 C   0  0  2  0  0  0  0  0  0  0  0  0
    3.8200   -0.8618    0.0000 C   0  0  0  0  0  0  0  0  0  0  0  0
    5.5875    0.8979    0.0000 C   0  0  0  0  0  0  0  0  0  0  0  0
    3.5822   -1.4238    0.0000 C   0  0  1  0  0  0  0  0  0  0  0  0
    6.1593    0.1110    0.0000 C   0  0  0  0  0  0  0  0  0  0  0  0
    4.8144   -1.4238    0.0000 C   0  0  0  0  0  0  0  0  0  0  0  0
    5.3853    1.2482    0.0000 C   0  0  0  0  0  0  0  0  0  0  0  0
    4.9896    2.1368    0.0000 C   0  0  0  0  0  0  0  0  0  0  0  0
    1.9776    0.5973    0.0000 C   0  0  0  0  0  0  0  0  0  0  0  0
    3.5822   -2.4238    0.0000 C   0  0  0  0  0  0  0  0  0  0  0  0
    6.3527    1.1465    0.0000 C   0  0  0  0  0  0  0  0  0  0  0  0
    5.5614    2.9238    0.0000 C   0  0  0  0  0  0  0  0  0  0  0  0
    2.7162   -2.9238    0.0000 C   0  0  0  0  0  0  0  0  0  0  0  0
    6.9245    1.9335    0.0000 C   0  0  0  0  0  0  0  0  0  0  0  0
    6.5288    2.8221    0.0000 C   0  0  0  0  0  0  0  0  0  0  0  0
    5.1317   -1.0842    0.0000 H   0  0  0  0  0  0  0  0  0  0  0  0
    3.1323    1.5833    0.0000 H   0  0  0  0  0  0  0  0  0  0  0  0
    2.1565   -0.5952    0.0000 H   0  0  0  0  0  0  0  0  0  0  0  0
    2.6676    1.1343    0.0000 H   0  0  0  0  0  0  0  0  0  0  0  0
    4.2185   -1.3367    0.0000 H   0  0  0  0  0  0  0  0  0  0  0  0
    3.4215   -1.3367    0.0000 H   0  0  0  0  0  0  0  0  0  0  0  0
    5.3354    1.4643    0.0000 H   0  0  0  0  0  0  0  0  0  0  0  0
    6.1245    1.2079    0.0000 H   0  0  0  0  0  0  0  0  0  0  0  0
    3.0453   -1.7338    0.0000 H   0  0  0  0  0  0  0  0  0  0  0  0
    6.6200    0.5258    0.0000 H   0  0  0  0  0  0  0  0  0  0  0  0
    6.6200   -0.3039    0.0000 H   0  0  0  0  0  0  0  0  0  0  0  0
    5.3478   -1.7398    0.0000 H   0  0  0  0  0  0  0  0  0  0  0  0
    4.6506   -2.0218    0.0000 H   0  0  0  0  0  0  0  0  0  0  0  0
    3.6578    2.5368    0.0000 H   0  0  0  0  0  0  0  0  0  0  0  0
    2.0852   -0.0133    0.0000 H   0  0  0  0  0  0  0  0  0  0  0  0
    1.3950    0.3853    0.0000 H   0  0  0  0  0  0  0  0  0  0  0  0
    4.1928   -2.3162    0.0000 H   0  0  0  0  0  0  0  0  0  0  0  0
    3.7943   -3.0064    0.0000 H   0  0  0  0  0  0  0  0  0  0  0  0
    6.6049    0.5801    0.0000 H   0  0  0  0  0  0  0  0  0  0  0  0
    5.3092    3.4902    0.0000 H   0  0  0  0  0  0  0  0  0  0  0  0
    3.0262   -3.4607    0.0000 H   0  0  0  0  0  0  0  0  0  0  0  0
    2.1793   -3.2338    0.0000 H   0  0  0  0  0  0  0  0  0  0  0  0
    2.4062   -2.3869    0.0000 H   0  0  0  0  0  0  0  0  0  0  0  0
    7.5411    1.8687    0.0000 H   0  0  0  0  0  0  0  0  0  0  0  0
    0.8576    1.4634    0.0000 H   0  0  0  0  0  0  0  0  0  0  0  0
    6.8932    3.3237    0.0000 H   0  0  0  0  0  0  0  0  0  0  0  0
  1 16  1  0  0  0  0
  1 47  1  0  0  0  0
  2  5  1  0  0  0  0
  2 12  1  0  0  0  0
  2 13  1  0  0  0  0
  3  6  1  0  0  0  0
  3 15  1  0  0  0  0
  3 36  1  0  0  0  0
  4  5  1  0  0  0  0
  4  6  1  0  0  0  0
  4 10  1  0  0  0  0
  4 14  1  6  0  0  0
  5  9  1  0  0  0  0
  5 23  1  6  0  0  0
  6  8  1  0  0  0  0
  6 24  1  1  0  0  0
  7  8  1  0  0  0  0
  7  9  1  0  0  0  0
  7 11  1  0  0  0  0
  7 25  1  6  0  0  0
  8 16  1  6  0  0  0
  8 26  1  0  0  0  0
  9 27  1  0  0  0  0
  9 28  1  0  0  0  0
 10 12  1  0  0  0  0
 10 29  1  0  0  0  0
 10 30  1  0  0  0  0
 11 13  1  0  0  0  0
 11 17  1  1  0  0  0
 11 31  1  0  0  0  0
 12 32  1  0  0  0  0
 12 33  1  0  0  0  0
 13 34  1  0  0  0  0
 13 35  1  0  0  0  0
 14 15  1  0  0  0  0
 14 18  2  0  0  0  0
 15 19  2  0  0  0  0
 16 37  1  0  0  0  0
 16 38  1  0  0  0  0
 17 20  1  0  0  0  0
 17 39  1  0  0  0  0
 17 40  1  0  0  0  0
 18 21  1  0  0  0  0
 18 41  1  0  0  0  0
 19 22  1  0  0  0  0
 19 42  1  0  0  0  0
 20 43  1  0  0  0  0
 20 44  1  0  0  0  0
 20 45  1  0  0  0  0
 21 22  2  0  0  0  0
 21 46  1  0  0  0  0
 22 48  1  0  0  0  0
M  END
> <PUBCHEM_COMPOUND_CID>
442095

> <PUBCHEM_COMPOUND_CANONICALIZED>
1

> <PUBCHEM_CACTVS_COMPLEXITY>
455

> <PUBCHEM_CACTVS_HBOND_ACCEPTOR>
3

> <PUBCHEM_CACTVS_HBOND_DONOR>
2

> <PUBCHEM_CACTVS_ROTATABLE_BOND>
2

> <PUBCHEM_CACTVS_SUBSKEYS>
AAADceB7IAAAAAAAAAAAAAAAAAAAAWLAAAA8YIAAAAAWAFgBAAAAHgAQCAAADyjhmAYywIPAAgCAAiRCQACCAAAhAgAIiIAIZIgIMCLA0ZGEYAhmkADIyAeQ0PMPgAAAAAACAACQAASACCQAAAAAAAAAAA==

> <PUBCHEM_IUPAC_INCHI>
InChI=1S/C19H26N2O/c1-2-12-10-21-8-7-19-15-5-3-4-6-16(15)20-18(19)14(11-22)13(12)9-17(19)21/h3-6,12-14,17-18,20,22H,2,7-11H2,1H3/t12-,13+,14+,17+,18+,19-/m1/s1

> <PUBCHEM_IUPAC_INCHIKEY>
FAQGZHFLASTWAV-RWANUPMISA-N

> <PUBCHEM_XLOGP3_AA>
2.9

> <PUBCHEM_EXACT_MASS>
298.204513

> <PUBCHEM_MOLECULAR_FORMULA>
C19H26N2O

> <PUBCHEM_MOLECULAR_WEIGHT>
298.42254

> <PUBCHEM_OPENEYE_CAN_SMILES>
CCC1CN2CCC34C2CC1C(C3NC5=CC=CC=C45)CO

> <PUBCHEM_OPENEYE_ISO_SMILES>
CC[C@@H]1CN2CC[C@@]34[C@@H]2C[C@@H]1[C@@H]([C@@H]3NC5=CC=CC=C45)CO

> <PUBCHEM_CACTVS_TPSA>
35.5

> <PUBCHEM_MONOISOTOPIC_WEIGHT>
298.204513

> <PUBCHEM_TOTAL_CHARGE>
0

> <PUBCHEM_HEAVY_ATOM_COUNT>
22

> <PUBCHEM_ATOM_DEF_STEREO_COUNT>
6

> <PUBCHEM_ATOM_UDEF_STEREO_COUNT>
0

> <PUBCHEM_BOND_DEF_STEREO_COUNT>
0

> <PUBCHEM_BOND_UDEF_STEREO_COUNT>
0

> <PUBCHEM_ISOTOPIC_ATOM_COUNT>
0

> <PUBCHEM_COMPONENT_COUNT>
1

> <PUBCHEM_CACTVS_TAUTO_COUNT>
1

> <PUBCHEM_COORDINATE_TYPE>
1
5
255

> <PUBCHEM_BONDANNOTATIONS>
11  17  5
14  15  8
14  18  8
15  19  8
18  21  8
19  22  8
21  22  8
4  14  6
5  23  6
6  24  5
7  25  6
8  16  6

$$$$

