5281219
  -OEChem-07051212552D

 57 58  0     0  0  0  0  0  0999 V2000
    6.3301   -3.9050    0.0000 O   0  0  0  0  0  0  0  0  0  0  0  0
    6.3301    2.0950    0.0000 O   0  0  0  0  0  0  0  0  0  0  0  0
    8.9282    0.5950    0.0000 O   0  0  0  0  0  0  0  0  0  0  0  0
   10.6603    3.5950    0.0000 O   0  0  0  0  0  0  0  0  0  0  0  0
    5.4641   -2.4050    0.0000 C   0  0  0  0  0  0  0  0  0  0  0  0
    7.1962   -2.4050    0.0000 C   0  0  0  0  0  0  0  0  0  0  0  0
    6.3301   -2.9050    0.0000 C   0  0  0  0  0  0  0  0  0  0  0  0
    4.5981   -2.9050    0.0000 C   0  0  0  0  0  0  0  0  0  0  0  0
    8.0622   -2.9050    0.0000 C   0  0  0  0  0  0  0  0  0  0  0  0
    6.3301   -0.9050    0.0000 C   0  0  0  0  0  0  0  0  0  0  0  0
    5.4641   -1.4050    0.0000 C   0  0  0  0  0  0  0  0  0  0  0  0
    7.1962   -1.4050    0.0000 C   0  0  0  0  0  0  0  0  0  0  0  0
    3.7320   -2.4050    0.0000 C   0  0  0  0  0  0  0  0  0  0  0  0
    8.9282   -2.4050    0.0000 C   0  0  0  0  0  0  0  0  0  0  0  0
    6.3301    0.0950    0.0000 C   0  0  0  0  0  0  0  0  0  0  0  0
    2.8660   -2.9050    0.0000 C   0  0  0  0  0  0  0  0  0  0  0  0
    9.7942   -2.9050    0.0000 C   0  0  0  0  0  0  0  0  0  0  0  0
    7.1962    0.5950    0.0000 C   0  0  0  0  0  0  0  0  0  0  0  0
    2.0000   -2.4050    0.0000 C   0  0  0  0  0  0  0  0  0  0  0  0
    2.8660   -3.9050    0.0000 C   0  0  0  0  0  0  0  0  0  0  0  0
   10.6603   -2.4050    0.0000 C   0  0  0  0  0  0  0  0  0  0  0  0
    9.7942   -3.9050    0.0000 C   0  0  0  0  0  0  0  0  0  0  0  0
    7.1962    1.5950    0.0000 C   0  0  0  0  0  0  0  0  0  0  0  0
    8.0622    2.0950    0.0000 C   0  0  0  0  0  0  0  0  0  0  0  0
    8.9282    1.5950    0.0000 C   0  0  0  0  0  0  0  0  0  0  0  0
    8.0622    3.0950    0.0000 C   0  0  0  0  0  0  0  0  0  0  0  0
    9.7942    2.0950    0.0000 C   0  0  0  0  0  0  0  0  0  0  0  0
    8.9282    3.5950    0.0000 C   0  0  0  0  0  0  0  0  0  0  0  0
    9.7942    3.0950    0.0000 C   0  0  0  0  0  0  0  0  0  0  0  0
    4.1996   -3.3800    0.0000 H   0  0  0  0  0  0  0  0  0  0  0  0
    4.9966   -3.3800    0.0000 H   0  0  0  0  0  0  0  0  0  0  0  0
    7.6636   -3.3800    0.0000 H   0  0  0  0  0  0  0  0  0  0  0  0
    8.4607   -3.3800    0.0000 H   0  0  0  0  0  0  0  0  0  0  0  0
    4.9272   -1.0950    0.0000 H   0  0  0  0  0  0  0  0  0  0  0  0
    7.7331   -1.0950    0.0000 H   0  0  0  0  0  0  0  0  0  0  0  0
    3.7320   -1.7850    0.0000 H   0  0  0  0  0  0  0  0  0  0  0  0
    8.9282   -1.7850    0.0000 H   0  0  0  0  0  0  0  0  0  0  0  0
    5.7932    0.4050    0.0000 H   0  0  0  0  0  0  0  0  0  0  0  0
    5.7932   -4.2150    0.0000 H   0  0  0  0  0  0  0  0  0  0  0  0
    7.7331    0.2850    0.0000 H   0  0  0  0  0  0  0  0  0  0  0  0
    2.2460   -3.9050    0.0000 H   0  0  0  0  0  0  0  0  0  0  0  0
    2.8660   -4.5250    0.0000 H   0  0  0  0  0  0  0  0  0  0  0  0
    3.4860   -3.9050    0.0000 H   0  0  0  0  0  0  0  0  0  0  0  0
    2.3100   -1.8681    0.0000 H   0  0  0  0  0  0  0  0  0  0  0  0
    1.4631   -2.0950    0.0000 H   0  0  0  0  0  0  0  0  0  0  0  0
    1.6900   -2.9419    0.0000 H   0  0  0  0  0  0  0  0  0  0  0  0
    9.1742   -3.9050    0.0000 H   0  0  0  0  0  0  0  0  0  0  0  0
    9.7942   -4.5250    0.0000 H   0  0  0  0  0  0  0  0  0  0  0  0
   10.4142   -3.9050    0.0000 H   0  0  0  0  0  0  0  0  0  0  0  0
   10.9703   -2.9419    0.0000 H   0  0  0  0  0  0  0  0  0  0  0  0
   11.1972   -2.0950    0.0000 H   0  0  0  0  0  0  0  0  0  0  0  0
   10.3503   -1.8681    0.0000 H   0  0  0  0  0  0  0  0  0  0  0  0
    7.5252    3.4050    0.0000 H   0  0  0  0  0  0  0  0  0  0  0  0
   10.3312    1.7850    0.0000 H   0  0  0  0  0  0  0  0  0  0  0  0
    8.9282    4.2150    0.0000 H   0  0  0  0  0  0  0  0  0  0  0  0
    9.4651    0.2850    0.0000 H   0  0  0  0  0  0  0  0  0  0  0  0
   10.6603    4.2150    0.0000 H   0  0  0  0  0  0  0  0  0  0  0  0
  1  7  1  0  0  0  0
  1 39  1  0  0  0  0
  2 23  2  0  0  0  0
  3 25  1  0  0  0  0
  3 56  1  0  0  0  0
  4 29  1  0  0  0  0
  4 57  1  0  0  0  0
  5  7  2  0  0  0  0
  5  8  1  0  0  0  0
  5 11  1  0  0  0  0
  6  7  1  0  0  0  0
  6  9  1  0  0  0  0
  6 12  2  0  0  0  0
  8 13  1  0  0  0  0
  8 30  1  0  0  0  0
  8 31  1  0  0  0  0
  9 14  1  0  0  0  0
  9 32  1  0  0  0  0
  9 33  1  0  0  0  0
 10 11  2  0  0  0  0
 10 12  1  0  0  0  0
 10 15  1  0  0  0  0
 11 34  1  0  0  0  0
 12 35  1  0  0  0  0
 13 16  2  0  0  0  0
 13 36  1  0  0  0  0
 14 17  2  0  0  0  0
 14 37  1  0  0  0  0
 15 18  2  0  0  0  0
 15 38  1  0  0  0  0
 16 19  1  0  0  0  0
 16 20  1  0  0  0  0
 17 21  1  0  0  0  0
 17 22  1  0  0  0  0
 18 23  1  0  0  0  0
 18 40  1  0  0  0  0
 19 44  1  0  0  0  0
 19 45  1  0  0  0  0
 19 46  1  0  0  0  0
 20 41  1  0  0  0  0
 20 42  1  0  0  0  0
 20 43  1  0  0  0  0
 21 50  1  0  0  0  0
 21 51  1  0  0  0  0
 21 52  1  0  0  0  0
 22 47  1  0  0  0  0
 22 48  1  0  0  0  0
 22 49  1  0  0  0  0
 23 24  1  0  0  0  0
 24 25  2  0  0  0  0
 24 26  1  0  0  0  0
 25 27  1  0  0  0  0
 26 28  2  0  0  0  0
 26 53  1  0  0  0  0
 27 29  2  0  0  0  0
 27 54  1  0  0  0  0
 28 29  1  0  0  0  0
 28 55  1  0  0  0  0
M  END
> <PUBCHEM_COMPOUND_CID>
5281219

> <PUBCHEM_COMPOUND_CANONICALIZED>
1

> <PUBCHEM_CACTVS_COMPLEXITY>
595

> <PUBCHEM_CACTVS_HBOND_ACCEPTOR>
4

> <PUBCHEM_CACTVS_HBOND_DONOR>
3

> <PUBCHEM_CACTVS_ROTATABLE_BOND>
7

> <PUBCHEM_CACTVS_SUBSKEYS>
AAADceB4OAAAAAAAAAAAAAAAAAAAAAAAAAAwYAAAAAAAAAABQAAAGgAACAAADASAmAAyBoAAAgCIAqBSAAACAAAkIAAIiAEGCMgIJzaCFRKAcUAl4BUImYeI7OTOIAACCAAIAABAAAQQABAAAAAAAAAAAA==

> <PUBCHEM_IUPAC_OPENEYE_NAME>
(E)-1-(2,4-dihydroxyphenyl)-3-[4-hydroxy-3,5-bis(3-methylbut-2-enyl)phenyl]prop-2-en-1-one

> <PUBCHEM_IUPAC_CAS_NAME>
(E)-1-(2,4-dihydroxyphenyl)-3-[4-hydroxy-3,5-bis(3-methylbut-2-enyl)phenyl]-2-propen-1-one

> <PUBCHEM_IUPAC_NAME>
(E)-1-(2,4-dihydroxyphenyl)-3-[4-hydroxy-3,5-bis(3-methylbut-2-enyl)phenyl]prop-2-en-1-one

> <PUBCHEM_IUPAC_SYSTEMATIC_NAME>
(E)-3-[3,5-bis(3-methylbut-2-enyl)-4-oxidanyl-phenyl]-1-[2,4-bis(oxidanyl)phenyl]prop-2-en-1-one

> <PUBCHEM_IUPAC_TRADITIONAL_NAME>
(E)-1-(2,4-dihydroxyphenyl)-3-[4-hydroxy-3,5-bis(3-methylbut-2-enyl)phenyl]prop-2-en-1-one

> <PUBCHEM_IUPAC_INCHI>
InChI=1S/C25H28O4/c1-16(2)5-8-19-13-18(14-20(25(19)29)9-6-17(3)4)7-12-23(27)22-11-10-21(26)15-24(22)28/h5-7,10-15,26,28-29H,8-9H2,1-4H3/b12-7+

> <PUBCHEM_IUPAC_INCHIKEY>
PEKZTKWPHQWTIM-KPKJPENVSA-N

> <PUBCHEM_XLOGP3_AA>
7

> <PUBCHEM_EXACT_MASS>
392.198759

> <PUBCHEM_MOLECULAR_FORMULA>
C25H28O4

> <PUBCHEM_MOLECULAR_WEIGHT>
392.48742

> <PUBCHEM_OPENEYE_CAN_SMILES>
CC(=CCC1=CC(=CC(=C1O)CC=C(C)C)C=CC(=O)C2=C(C=C(C=C2)O)O)C

> <PUBCHEM_OPENEYE_ISO_SMILES>
CC(=CCC1=CC(=CC(=C1O)CC=C(C)C)/C=C/C(=O)C2=C(C=C(C=C2)O)O)C

> <PUBCHEM_CACTVS_TPSA>
77.8

> <PUBCHEM_MONOISOTOPIC_WEIGHT>
392.198759

> <PUBCHEM_TOTAL_CHARGE>
0

> <PUBCHEM_HEAVY_ATOM_COUNT>
29

> <PUBCHEM_ATOM_DEF_STEREO_COUNT>
0

> <PUBCHEM_ATOM_UDEF_STEREO_COUNT>
0

> <PUBCHEM_BOND_DEF_STEREO_COUNT>
1

> <PUBCHEM_BOND_UDEF_STEREO_COUNT>
0

> <PUBCHEM_ISOTOPIC_ATOM_COUNT>
0

> <PUBCHEM_COMPONENT_COUNT>
1

> <PUBCHEM_CACTVS_TAUTO_COUNT>
57

> <PUBCHEM_COORDINATE_TYPE>
1
5
255

> <PUBCHEM_BONDANNOTATIONS>
10  11  8
10  12  8
24  25  8
24  26  8
25  27  8
26  28  8
27  29  8
28  29  8
5  11  8
5  7  8
6  12  8
6  7  8

$$$$

