442315
  -OEChem-07051212573D

 34 36  0     1  0  0  0  0  0999 V2000
    0.5049   -2.3724    0.1202 O   0  0  0  0  0  0  0  0  0  0  0  0
    2.7231   -1.4467    0.2290 O   0  0  0  0  0  0  0  0  0  0  0  0
    3.2418    1.3857    0.2846 O   0  0  0  0  0  0  0  0  0  0  0  0
   -3.0640    0.1791    0.4374 N   0  0  1  0  0  0  0  0  0  0  0  0
   -2.0391   -0.7842   -0.0243 C   0  0  2  0  0  0  0  0  0  0  0  0
   -0.6398   -0.2024    0.0812 C   0  0  0  0  0  0  0  0  0  0  0  0
   -0.4341    1.1912    0.1077 C   0  0  0  0  0  0  0  0  0  0  0  0
   -2.9382    1.4775   -0.2299 C   0  0  0  0  0  0  0  0  0  0  0  0
   -1.6078    2.1365    0.1417 C   0  0  0  0  0  0  0  0  0  0  0  0
    0.4903   -1.0087    0.1280 C   0  0  0  0  0  0  0  0  0  0  0  0
   -2.2635   -1.3358   -1.4449 C   0  0  0  0  0  0  0  0  0  0  0  0
    0.8754    1.7174    0.1806 C   0  0  0  0  0  0  0  0  0  0  0  0
    1.7618   -0.4838    0.1924 C   0  0  0  0  0  0  0  0  0  0  0  0
   -4.4278   -0.3331    0.3504 C   0  0  0  0  0  0  0  0  0  0  0  0
    1.9876    0.8753    0.2173 C   0  0  0  0  0  0  0  0  0  0  0  0
    1.9191   -2.6407    0.1803 C   0  0  0  0  0  0  0  0  0  0  0  0
    3.9103    1.6449   -0.9518 C   0  0  0  0  0  0  0  0  0  0  0  0
   -2.0800   -1.6320    0.6732 H   0  0  0  0  0  0  0  0  0  0  0  0
   -3.7446    2.1527    0.0835 H   0  0  0  0  0  0  0  0  0  0  0  0
   -3.0218    1.3763   -1.3189 H   0  0  0  0  0  0  0  0  0  0  0  0
   -1.6801    2.5419    1.1593 H   0  0  0  0  0  0  0  0  0  0  0  0
   -1.4272    2.9769   -0.5392 H   0  0  0  0  0  0  0  0  0  0  0  0
   -2.2185   -0.5483   -2.2046 H   0  0  0  0  0  0  0  0  0  0  0  0
   -1.4985   -2.0751   -1.7077 H   0  0  0  0  0  0  0  0  0  0  0  0
   -3.2286   -1.8442   -1.5341 H   0  0  0  0  0  0  0  0  0  0  0  0
    1.0191    2.7954    0.2165 H   0  0  0  0  0  0  0  0  0  0  0  0
   -4.7833   -0.4188   -0.6819 H   0  0  0  0  0  0  0  0  0  0  0  0
   -5.1147    0.3325    0.8854 H   0  0  0  0  0  0  0  0  0  0  0  0
   -4.5077   -1.3140    0.8318 H   0  0  0  0  0  0  0  0  0  0  0  0
    2.1251   -3.2399    1.0746 H   0  0  0  0  0  0  0  0  0  0  0  0
    2.2043   -3.2206   -0.7049 H   0  0  0  0  0  0  0  0  0  0  0  0
    3.3543    2.3823   -1.5393 H   0  0  0  0  0  0  0  0  0  0  0  0
    4.0300    0.7194   -1.5238 H   0  0  0  0  0  0  0  0  0  0  0  0
    4.9008    2.0494   -0.7268 H   0  0  0  0  0  0  0  0  0  0  0  0
  1 10  1  0  0  0  0
  1 16  1  0  0  0  0
  2 13  1  0  0  0  0
  2 16  1  0  0  0  0
  3 15  1  0  0  0  0
  3 17  1  0  0  0  0
  4  5  1  0  0  0  0
  4  8  1  0  0  0  0
  4 14  1  0  0  0  0
  5  6  1  0  0  0  0
  5 11  1  0  0  0  0
  5 18  1  0  0  0  0
  6  7  1  0  0  0  0
  6 10  2  0  0  0  0
  7  9  1  0  0  0  0
  7 12  2  0  0  0  0
  8  9  1  0  0  0  0
  8 19  1  0  0  0  0
  8 20  1  0  0  0  0
  9 21  1  0  0  0  0
  9 22  1  0  0  0  0
 10 13  1  0  0  0  0
 11 23  1  0  0  0  0
 11 24  1  0  0  0  0
 11 25  1  0  0  0  0
 12 15  1  0  0  0  0
 12 26  1  0  0  0  0
 13 15  2  0  0  0  0
 14 27  1  0  0  0  0
 14 28  1  0  0  0  0
 14 29  1  0  0  0  0
 16 30  1  0  0  0  0
 16 31  1  0  0  0  0
 17 32  1  0  0  0  0
 17 33  1  0  0  0  0
 17 34  1  0  0  0  0
M  END
> <PUBCHEM_COMPOUND_CID>
442315

> <PUBCHEM_CONFORMER_RMSD>
0.6

> <PUBCHEM_CONFORMER_DIVERSEORDER>
1
4
3
2

> <PUBCHEM_MMFF94_PARTIAL_CHARGES>
17
1 -0.36
10 0.08
12 -0.15
13 0.08
14 0.27
15 0.08
16 0.56
17 0.28
2 -0.36
26 0.15
3 -0.36
4 -0.81
5 0.41
6 -0.14
7 -0.14
8 0.27
9 0.14

> <PUBCHEM_EFFECTIVE_ROTOR_COUNT>
2.4

> <PUBCHEM_PHARMACOPHORE_FEATURES>
7
1 1 acceptor
1 2 acceptor
1 3 acceptor
1 4 cation
5 1 2 10 13 16 rings
6 4 5 6 7 8 9 rings
6 6 7 10 12 13 15 rings

> <PUBCHEM_HEAVY_ATOM_COUNT>
17

> <PUBCHEM_ATOM_DEF_STEREO_COUNT>
1

> <PUBCHEM_ATOM_UDEF_STEREO_COUNT>
0

> <PUBCHEM_BOND_DEF_STEREO_COUNT>
0

> <PUBCHEM_BOND_UDEF_STEREO_COUNT>
0

> <PUBCHEM_ISOTOPIC_ATOM_COUNT>
0

> <PUBCHEM_COMPONENT_COUNT>
1

> <PUBCHEM_CACTVS_TAUTO_COUNT>
1

> <PUBCHEM_CONFORMER_ID>
0006BFCB00000001

> <PUBCHEM_MMFF94_ENERGY>
54.1741

> <PUBCHEM_FEATURE_SELFOVERLAP>
35.698

> <PUBCHEM_SHAPE_FINGERPRINT>
10608611 8 18270122447403485101
10967382 1 18410576167058206097
10980938 120 18409449197762503099
11471102 20 18411423912393690197
12932764 1 17894921710774849273
13140716 1 17978796701053344288
13221675 6 18408039585306541981
13380535 21 18410005554946529641
13380535 76 18342738481684097786
13583140 156 16484191010396851088
14576447 43 18044391435058884583
14790565 3 18195794181429299585
15196674 1 18411136969997594729
15219456 202 18342741857655161601
15375462 189 18260831479806761961
15375462 6 18412261761639292637
15442244 35 18121218954739005321
15536298 74 18334013921505630752
15775835 57 18260825964842043209
16945 1 18266188239948105040
193761 8 18194683893669795712
19591789 44 17979063886584008114
20559304 39 18337111262555979138
20645477 70 18338523040350859479
21267235 1 18337664312610107835
21501502 16 18338234989304529865
221490 88 18269265919028666419
22854114 111 18412542132461138177
2334 1 18410859871270727336
23366157 5 17988074625403549386
23402539 116 18262802848590269620
23463225 33 18338519766984217706
23552423 10 18340491178463787890
23559900 14 18194974168965859314
25 1 18340769247652719574
2748010 2 18338805640018151348
3071541 37 18342452638799408926
335352 9 17906173206414096837
34934 24 18335145267489247837
350125 39 18339357590697653024
43471831 8 18412830157542680218
5104073 3 18411698829045180537
528886 8 18338239254169891305
53812653 166 18261678064900079376
7364860 26 18335702805709977682
81228 2 17184758991698371930
90316 7 17119462823178025602
90525 40 17969227900718016535

> <PUBCHEM_SHAPE_MULTIPOLES>
327.26
6.11
2.62
0.82
1.32
0.7
-0.24
-1.32
-0.42
-1.31
-0.05
0.12
0.07
-0.63

> <PUBCHEM_SHAPE_SELFOVERLAP>
707.725

> <PUBCHEM_SHAPE_VOLUME>
181.5

> <PUBCHEM_COORDINATE_TYPE>
2
5
10

$$$$

