10906
  -OEChem-06261205063D

 16 15  0     0  0  0  0  0  0999 V2000
    0.4423   -0.6691   -0.0009 O   0  0  0  0  0  0  0  0  0  0  0  0
    2.6718   -0.2534   -0.0002 O   0  0  0  0  0  0  0  0  0  0  0  0
    1.4639    0.3179    0.0005 N   0  0  0  0  0  0  0  0  0  0  0  0
   -0.8243   -0.0095    0.0000 C   0  0  0  0  0  0  0  0  0  0  0  0
   -0.9209    0.8591   -1.2534 C   0  0  0  0  0  0  0  0  0  0  0  0
   -1.9050   -1.0885   -0.0094 C   0  0  0  0  0  0  0  0  0  0  0  0
   -0.9278    0.8435    1.2634 C   0  0  0  0  0  0  0  0  0  0  0  0
   -0.6812    0.2790   -2.1523 H   0  0  0  0  0  0  0  0  0  0  0  0
   -1.9335    1.2620   -1.3704 H   0  0  0  0  0  0  0  0  0  0  0  0
   -0.2405    1.7178   -1.2374 H   0  0  0  0  0  0  0  0  0  0  0  0
   -1.8089   -1.7433    0.8642 H   0  0  0  0  0  0  0  0  0  0  0  0
   -1.8046   -1.7323   -0.8908 H   0  0  0  0  0  0  0  0  0  0  0  0
   -2.9108   -0.6561   -0.0093 H   0  0  0  0  0  0  0  0  0  0  0  0
   -0.2441    1.6998    1.2630 H   0  0  0  0  0  0  0  0  0  0  0  0
   -1.9400    1.2479    1.3784 H   0  0  0  0  0  0  0  0  0  0  0  0
   -0.6958    0.2513    2.1564 H   0  0  0  0  0  0  0  0  0  0  0  0
  1  3  1  0  0  0  0
  1  4  1  0  0  0  0
  2  3  2  0  0  0  0
  4  5  1  0  0  0  0
  4  6  1  0  0  0  0
  4  7  1  0  0  0  0
  5  8  1  0  0  0  0
  5  9  1  0  0  0  0
  5 10  1  0  0  0  0
  6 11  1  0  0  0  0
  6 12  1  0  0  0  0
  6 13  1  0  0  0  0
  7 14  1  0  0  0  0
  7 15  1  0  0  0  0
  7 16  1  0  0  0  0
M  END
> <PUBCHEM_COMPOUND_CID>
10906

> <PUBCHEM_CONFORMER_RMSD>
0.4

> <PUBCHEM_CONFORMER_DIVERSEORDER>
1
3
4
2

> <PUBCHEM_MMFF94_PARTIAL_CHARGES>
4
1 -0.09
2 -0.3
3 0.12
4 0.28

> <PUBCHEM_EFFECTIVE_ROTOR_COUNT>
2

> <PUBCHEM_PHARMACOPHORE_FEATURES>
1
4 4 5 6 7 hydrophobe

> <PUBCHEM_HEAVY_ATOM_COUNT>
7

> <PUBCHEM_ATOM_DEF_STEREO_COUNT>
0

> <PUBCHEM_ATOM_UDEF_STEREO_COUNT>
0

> <PUBCHEM_BOND_DEF_STEREO_COUNT>
0

> <PUBCHEM_BOND_UDEF_STEREO_COUNT>
0

> <PUBCHEM_ISOTOPIC_ATOM_COUNT>
0

> <PUBCHEM_COMPONENT_COUNT>
1

> <PUBCHEM_CACTVS_TAUTO_COUNT>
1

> <PUBCHEM_CONFORMER_ID>
00002A9A00000001

> <PUBCHEM_MMFF94_ENERGY>
17.1275

> <PUBCHEM_FEATURE_SELFOVERLAP>
5.074

> <PUBCHEM_SHAPE_FINGERPRINT>
16714656 1 18060145327407306199
20096714 4 17387961230044008936
21040471 1 17556885802773524269
24536 1 18041566948131100730
29004967 10 17531246102109918131
5943 1 12132966222850962505

> <PUBCHEM_SHAPE_MULTIPOLES>
127.34
2.62
1.09
1.07
2.12
0
0.02
0
0.65
-0.43
-0.44
-0.47
0
0

> <PUBCHEM_SHAPE_SELFOVERLAP>
227.362

> <PUBCHEM_SHAPE_VOLUME>
85

> <PUBCHEM_COORDINATE_TYPE>
2
5
10

$$$$

