56928120
  -OEChem-07051213153D

 81 85  0     1  0  0  0  0  0999 V2000
    6.5773    1.6291    0.9441 O   0  0  0  0  0  0  0  0  0  0  0  0
   -1.6576    0.1601   -0.4541 C   0  0  2  0  0  0  0  0  0  0  0  0
   -0.8630   -1.2131   -0.3978 C   0  0  1  0  0  0  0  0  0  0  0  0
   -3.2137   -0.0896   -0.6704 C   0  0  1  0  0  0  0  0  0  0  0  0
   -3.8788   -1.2265    0.1836 C   0  0  1  0  0  0  0  0  0  0  0  0
    0.6661   -0.9688   -0.2787 C   0  0  0  0  0  0  0  0  0  0  0  0
   -1.4593   -2.0336    0.7744 C   0  0  0  0  0  0  0  0  0  0  0  0
   -1.0687    0.9629   -1.6467 C   0  0  0  0  0  0  0  0  0  0  0  0
   -2.9247   -2.3940    0.5523 C   0  0  0  0  0  0  0  0  0  0  0  0
    2.7963    0.3521   -0.7706 C   0  0  2  0  0  0  0  0  0  0  0  0
   -4.1088    1.1905   -0.7510 C   0  0  0  0  0  0  0  0  0  0  0  0
    1.2555    0.1315   -0.8143 C   0  0  0  0  0  0  0  0  0  0  0  0
    3.3979   -0.4417    0.4473 C   0  0  2  0  0  0  0  0  0  0  0  0
   -4.5082   -0.6735    1.4843 C   0  0  0  0  0  0  0  0  0  0  0  0
    0.4390    1.2066   -1.5163 C   0  0  0  0  0  0  0  0  0  0  0  0
   -4.9946    1.6176    0.4558 C   0  0  0  0  0  0  0  0  0  0  0  0
   -1.4118    0.9998    0.8270 C   0  0  0  0  0  0  0  0  0  0  0  0
    1.4712   -2.0571    0.4047 C   0  0  0  0  0  0  0  0  0  0  0  0
   -5.5440    0.4192    1.2430 C   0  0  0  0  0  0  0  0  0  0  0  0
   -0.9991   -2.0567   -1.7050 C   0  0  0  0  0  0  0  0  0  0  0  0
    4.9177   -0.1986    0.7876 C   0  0  0  0  0  0  0  0  0  0  0  0
    2.9914   -1.9171    0.3439 C   0  0  0  0  0  0  0  0  0  0  0  0
   -5.0212   -1.8681   -0.6627 C   0  0  0  0  0  0  0  0  0  0  0  0
    3.1611    1.8473   -0.5807 C   0  0  0  0  0  0  0  0  0  0  0  0
    5.1846    1.3349    0.8426 C   0  0  2  0  0  0  0  0  0  0  0  0
    4.6513    2.0884   -0.3705 C   0  0  0  0  0  0  0  0  0  0  0  0
    3.3078   -0.1190   -2.1540 C   0  0  0  0  0  0  0  0  0  0  0  0
   -4.1181    2.4667    1.4102 C   0  0  0  0  0  0  0  0  0  0  0  0
   -6.1638    2.5293    0.0359 C   0  0  0  0  0  0  0  0  0  0  0  0
    5.9038   -0.9036   -0.1667 C   0  0  0  0  0  0  0  0  0  0  0  0
    5.2145   -0.7747    2.2028 C   0  0  0  0  0  0  0  0  0  0  0  0
   -3.2467   -0.4623   -1.7057 H   0  0  0  0  0  0  0  0  0  0  0  0
   -1.3430   -1.5098    1.7293 H   0  0  0  0  0  0  0  0  0  0  0  0
   -0.9212   -2.9817    0.8980 H   0  0  0  0  0  0  0  0  0  0  0  0
   -1.5519    1.9407   -1.7498 H   0  0  0  0  0  0  0  0  0  0  0  0
   -1.2697    0.4470   -2.5932 H   0  0  0  0  0  0  0  0  0  0  0  0
   -2.9584   -3.1633   -0.2304 H   0  0  0  0  0  0  0  0  0  0  0  0
   -3.2923   -2.9122    1.4484 H   0  0  0  0  0  0  0  0  0  0  0  0
   -3.5348    2.0521   -1.1053 H   0  0  0  0  0  0  0  0  0  0  0  0
   -4.8110    0.9952   -1.5763 H   0  0  0  0  0  0  0  0  0  0  0  0
    2.8657   -0.0507    1.3324 H   0  0  0  0  0  0  0  0  0  0  0  0
   -3.7360   -0.3224    2.1727 H   0  0  0  0  0  0  0  0  0  0  0  0
   -5.0134   -1.4888    2.0206 H   0  0  0  0  0  0  0  0  0  0  0  0
    0.5618    2.1448   -0.9610 H   0  0  0  0  0  0  0  0  0  0  0  0
    0.8374    1.3854   -2.5212 H   0  0  0  0  0  0  0  0  0  0  0  0
   -1.9184    0.5888    1.6969 H   0  0  0  0  0  0  0  0  0  0  0  0
   -1.7022    2.0404    0.6758 H   0  0  0  0  0  0  0  0  0  0  0  0
   -0.3566    1.0414    1.1143 H   0  0  0  0  0  0  0  0  0  0  0  0
    1.1853   -2.0685    1.4644 H   0  0  0  0  0  0  0  0  0  0  0  0
    1.2112   -3.0376   -0.0100 H   0  0  0  0  0  0  0  0  0  0  0  0
   -5.9329    0.7542    2.2141 H   0  0  0  0  0  0  0  0  0  0  0  0
   -6.4102   -0.0046    0.7213 H   0  0  0  0  0  0  0  0  0  0  0  0
   -0.4481   -1.6184   -2.5450 H   0  0  0  0  0  0  0  0  0  0  0  0
   -0.5945   -3.0665   -1.5626 H   0  0  0  0  0  0  0  0  0  0  0  0
   -2.0327   -2.1788   -2.0361 H   0  0  0  0  0  0  0  0  0  0  0  0
    3.4127   -2.5129    1.1593 H   0  0  0  0  0  0  0  0  0  0  0  0
    3.3671   -2.3683   -0.5802 H   0  0  0  0  0  0  0  0  0  0  0  0
   -5.7451   -1.1322   -1.0243 H   0  0  0  0  0  0  0  0  0  0  0  0
   -5.5683   -2.6189   -0.0808 H   0  0  0  0  0  0  0  0  0  0  0  0
   -4.6190   -2.3700   -1.5508 H   0  0  0  0  0  0  0  0  0  0  0  0
    2.6179    2.2528    0.2840 H   0  0  0  0  0  0  0  0  0  0  0  0
    2.8467    2.4378   -1.4504 H   0  0  0  0  0  0  0  0  0  0  0  0
    4.7062    1.7459    1.7416 H   0  0  0  0  0  0  0  0  0  0  0  0
    4.8213    3.1639   -0.2301 H   0  0  0  0  0  0  0  0  0  0  0  0
    5.2236    1.8308   -1.2688 H   0  0  0  0  0  0  0  0  0  0  0  0
    4.3843   -0.0167   -2.2726 H   0  0  0  0  0  0  0  0  0  0  0  0
    2.8667    0.4762   -2.9628 H   0  0  0  0  0  0  0  0  0  0  0  0
    3.0494   -1.1623   -2.3623 H   0  0  0  0  0  0  0  0  0  0  0  0
   -6.8315    2.0087   -0.6598 H   0  0  0  0  0  0  0  0  0  0  0  0
   -6.7639    2.8427    0.8976 H   0  0  0  0  0  0  0  0  0  0  0  0
   -5.7983    3.4306   -0.4689 H   0  0  0  0  0  0  0  0  0  0  0  0
   -4.7556    3.0160    2.1163 H   0  0  0  0  0  0  0  0  0  0  0  0
   -3.4608    1.8783    2.0444 H   0  0  0  0  0  0  0  0  0  0  0  0
   -3.5427    3.2260    0.8706 H   0  0  0  0  0  0  0  0  0  0  0  0
    6.2182   -0.4930    2.5421 H   0  0  0  0  0  0  0  0  0  0  0  0
    5.1708   -1.8681    2.2196 H   0  0  0  0  0  0  0  0  0  0  0  0
    4.5024   -0.3958    2.9444 H   0  0  0  0  0  0  0  0  0  0  0  0
    6.9183   -0.9068    0.2510 H   0  0  0  0  0  0  0  0  0  0  0  0
    5.9843   -0.4111   -1.1355 H   0  0  0  0  0  0  0  0  0  0  0  0
    5.6328   -1.9502   -0.3345 H   0  0  0  0  0  0  0  0  0  0  0  0
    6.6703    2.5919    1.0433 H   0  0  0  0  0  0  0  0  0  0  0  0
  1 25  1  0  0  0  0
  1 81  1  0  0  0  0
  2  3  1  0  0  0  0
  2  4  1  0  0  0  0
  2  8  1  0  0  0  0
  2 17  1  0  0  0  0
  3  6  1  0  0  0  0
  3  7  1  0  0  0  0
  3 20  1  0  0  0  0
  4  5  1  0  0  0  0
  4 11  1  0  0  0  0
  4 32  1  0  0  0  0
  5  9  1  0  0  0  0
  5 14  1  0  0  0  0
  5 23  1  0  0  0  0
  6 12  2  0  0  0  0
  6 18  1  0  0  0  0
  7  9  1  0  0  0  0
  7 33  1  0  0  0  0
  7 34  1  0  0  0  0
  8 15  1  0  0  0  0
  8 35  1  0  0  0  0
  8 36  1  0  0  0  0
  9 37  1  0  0  0  0
  9 38  1  0  0  0  0
 10 12  1  0  0  0  0
 10 13  1  0  0  0  0
 10 24  1  0  0  0  0
 10 27  1  0  0  0  0
 11 16  1  0  0  0  0
 11 39  1  0  0  0  0
 11 40  1  0  0  0  0
 12 15  1  0  0  0  0
 13 21  1  0  0  0  0
 13 22  1  0  0  0  0
 13 41  1  0  0  0  0
 14 19  1  0  0  0  0
 14 42  1  0  0  0  0
 14 43  1  0  0  0  0
 15 44  1  0  0  0  0
 15 45  1  0  0  0  0
 16 19  1  0  0  0  0
 16 28  1  0  0  0  0
 16 29  1  0  0  0  0
 17 46  1  0  0  0  0
 17 47  1  0  0  0  0
 17 48  1  0  0  0  0
 18 22  1  0  0  0  0
 18 49  1  0  0  0  0
 18 50  1  0  0  0  0
 19 51  1  0  0  0  0
 19 52  1  0  0  0  0
 20 53  1  0  0  0  0
 20 54  1  0  0  0  0
 20 55  1  0  0  0  0
 21 25  1  0  0  0  0
 21 30  1  0  0  0  0
 21 31  1  0  0  0  0
 22 56  1  0  0  0  0
 22 57  1  0  0  0  0
 23 58  1  0  0  0  0
 23 59  1  0  0  0  0
 23 60  1  0  0  0  0
 24 26  1  0  0  0  0
 24 61  1  0  0  0  0
 24 62  1  0  0  0  0
 25 26  1  0  0  0  0
 25 63  1  0  0  0  0
 26 64  1  0  0  0  0
 26 65  1  0  0  0  0
 27 66  1  0  0  0  0
 27 67  1  0  0  0  0
 27 68  1  0  0  0  0
 28 72  1  0  0  0  0
 28 73  1  0  0  0  0
 28 74  1  0  0  0  0
 29 69  1  0  0  0  0
 29 70  1  0  0  0  0
 29 71  1  0  0  0  0
 30 78  1  0  0  0  0
 30 79  1  0  0  0  0
 30 80  1  0  0  0  0
 31 75  1  0  0  0  0
 31 76  1  0  0  0  0
 31 77  1  0  0  0  0
M  END
> <PUBCHEM_COMPOUND_CID>
56928120

> <PUBCHEM_CONFORMER_RMSD>
0.8

> <PUBCHEM_CONFORMER_DIVERSEORDER>
1
2
3
4

> <PUBCHEM_MMFF94_PARTIAL_CHARGES>
9
1 -0.68
10 0.14
12 -0.28
15 0.14
18 0.14
25 0.28
3 0.14
6 -0.28
81 0.4

> <PUBCHEM_EFFECTIVE_ROTOR_COUNT>
2.8

> <PUBCHEM_PHARMACOPHORE_FEATURES>
9
1 1 acceptor
1 1 donor
3 16 28 29 hydrophobe
3 21 30 31 hydrophobe
6 10 13 21 24 25 26 rings
6 2 3 4 5 7 9 rings
6 2 3 6 8 12 15 rings
6 4 5 11 14 16 19 rings
6 6 10 12 13 18 22 rings

> <PUBCHEM_HEAVY_ATOM_COUNT>
31

> <PUBCHEM_ATOM_DEF_STEREO_COUNT>
5

> <PUBCHEM_ATOM_UDEF_STEREO_COUNT>
2

> <PUBCHEM_BOND_DEF_STEREO_COUNT>
0

> <PUBCHEM_BOND_UDEF_STEREO_COUNT>
0

> <PUBCHEM_ISOTOPIC_ATOM_COUNT>
0

> <PUBCHEM_COMPONENT_COUNT>
1

> <PUBCHEM_CACTVS_TAUTO_COUNT>
1

> <PUBCHEM_CONFORMER_ID>
0364A77800000001

> <PUBCHEM_MMFF94_ENERGY>
146.5642

> <PUBCHEM_FEATURE_SELFOVERLAP>
45.736

> <PUBCHEM_SHAPE_FINGERPRINT>
10 15 18412819188507598617
10554248 39 14634859839616693208
10674148 151 18411691073225682892
10675989 125 17112408374066301065
10906281 52 17774990268557732414
11578080 2 14274831426889695705
12107183 9 18197787802257818602
12236239 1 18408325475462355086
12403259 118 18409172095115305631
12422481 6 18202289142631871790
12596602 18 18408604747094216312
12616971 3 17203602688173277749
12633257 1 18201999949488121428
12969540 114 15574711395947769053
13140716 1 18272931583679620732
13224815 77 18342458110282061974
13782708 43 13182737039418363664
14068700 675 18121789335867304351
14341114 176 18343303669795450104
14341114 328 18334009484430121176
14347332 77 9367349232105824057
14466204 15 18408885139771271281
14739800 52 18041289853905189664
14790565 3 18268144267271500500
14849402 71 18200308802644144564
15082195 135 6554826019491563098
15238133 3 18272642459503377572
15788980 27 15195568983274847679
15799311 1 16343404172829946898
15840311 113 18192986239881189305
16994733 274 16806439383950207625
17349148 13 16271920519376579980
17980427 23 18410572869114283997
1813 80 15841551864440182926
19377110 9 18341610382864788787
20511986 3 18340497733084924619
20554085 129 18042700558084690321
20715895 44 18266178520933415089
20739085 24 17774709939646005478
21033648 144 18340775931001822941
21033648 29 17895207588209174370
21130935 74 18412268337482825274
21236236 1 18409168792860487559
21421861 104 17488471930578529514
21756936 100 17967822608883071604
21857420 4 12241427362304965328
21859007 373 17201370808856190597
22182313 1 17630897203177872135
23522609 53 17702076206290645204
23559900 14 17969485173390646662
23569914 2 16955116389001981264
23569943 247 17201661049861354330
2838139 119 16008748056271803043
3117164 225 18272086080496692400
32027 91 17533481572659074334
34797466 226 17676198061890132813
350125 39 18272647978752474806
3633792 109 18129962126002737791
3680242 22 18202004360873241368
392239 28 18335132073313058153
4144715 1 18340194245900357434
4340502 62 18340482356912191769
44062 13 9799700285586484723
5104073 3 18202565068294558656
6086070 43 18261969478705575253
7064713 232 18413387639707197966
7226269 152 18261109699172343425
86090 222 15051447297024542888
9981440 41 18410567393121191419

> <PUBCHEM_SHAPE_MULTIPOLES>
632.1
14.81
2.67
1.62
4.1
0.11
-0.09
5.86
5.54
-1.74
0.22
0.57
0.02
-0.72

> <PUBCHEM_SHAPE_SELFOVERLAP>
1338.006

> <PUBCHEM_SHAPE_VOLUME>
347.7

> <PUBCHEM_COORDINATE_TYPE>
2
5
10

$$$$

