440432
  -OEChem-07051212493D

 21 21  0     1  0  0  0  0  0999 V2000
    2.6275   -0.9474    0.3892 O   0  0  0  0  0  0  0  0  0  0  0  0
    1.5538    2.0379   -0.1799 O   0  0  0  0  0  0  0  0  0  0  0  0
   -3.1380   -0.3682    0.1209 O   0  0  0  0  0  0  0  0  0  0  0  0
   -1.7367    1.1073   -0.9062 O   0  0  0  0  0  0  0  0  0  0  0  0
   -0.8855   -0.3878    0.7955 C   0  0  1  0  0  0  0  0  0  0  0  0
   -0.2750   -1.6267    0.1382 C   0  0  0  0  0  0  0  0  0  0  0  0
    0.6867   -1.2776   -1.0003 C   0  0  0  0  0  0  0  0  0  0  0  0
    0.1470    0.6637    1.1914 C   0  0  0  0  0  0  0  0  0  0  0  0
    1.7810   -0.3172   -0.5552 C   0  0  1  0  0  0  0  0  0  0  0  0
    1.1726    0.9020    0.1023 C   0  0  0  0  0  0  0  0  0  0  0  0
   -1.9333    0.2140   -0.0959 C   0  0  0  0  0  0  0  0  0  0  0  0
   -1.3964   -0.6938    1.7189 H   0  0  0  0  0  0  0  0  0  0  0  0
   -1.0669   -2.2748   -0.2580 H   0  0  0  0  0  0  0  0  0  0  0  0
    0.2486   -2.2185    0.8983 H   0  0  0  0  0  0  0  0  0  0  0  0
    1.1378   -2.2065   -1.3692 H   0  0  0  0  0  0  0  0  0  0  0  0
    0.1236   -0.8358   -1.8310 H   0  0  0  0  0  0  0  0  0  0  0  0
    0.6918    0.3391    2.0855 H   0  0  0  0  0  0  0  0  0  0  0  0
   -0.3373    1.6176    1.4308 H   0  0  0  0  0  0  0  0  0  0  0  0
    2.3863   -0.0071   -1.4124 H   0  0  0  0  0  0  0  0  0  0  0  0
    2.1019   -1.2473    1.1480 H   0  0  0  0  0  0  0  0  0  0  0  0
   -3.8371    0.0122   -0.4525 H   0  0  0  0  0  0  0  0  0  0  0  0
  1  9  1  0  0  0  0
  1 20  1  0  0  0  0
  2 10  2  0  0  0  0
  3 11  1  0  0  0  0
  3 21  1  0  0  0  0
  4 11  2  0  0  0  0
  5  6  1  0  0  0  0
  5  8  1  0  0  0  0
  5 11  1  0  0  0  0
  5 12  1  0  0  0  0
  6  7  1  0  0  0  0
  6 13  1  0  0  0  0
  6 14  1  0  0  0  0
  7  9  1  0  0  0  0
  7 15  1  0  0  0  0
  7 16  1  0  0  0  0
  8 10  1  0  0  0  0
  8 17  1  0  0  0  0
  8 18  1  0  0  0  0
  9 10  1  0  0  0  0
  9 19  1  0  0  0  0
M  END
> <PUBCHEM_COMPOUND_CID>
440432

> <PUBCHEM_CONFORMER_RMSD>
0.4

> <PUBCHEM_CONFORMER_DIVERSEORDER>
4
11
17
3
10
5
2
19
15
18
1
7
9
6
8
14
12
13
16

> <PUBCHEM_MMFF94_PARTIAL_CHARGES>
11
1 -0.68
10 0.45
11 0.66
2 -0.57
20 0.4
21 0.5
3 -0.65
4 -0.57
5 0.06
8 0.06
9 0.34

> <PUBCHEM_EFFECTIVE_ROTOR_COUNT>
2

> <PUBCHEM_PHARMACOPHORE_FEATURES>
7
1 1 acceptor
1 1 donor
1 2 acceptor
1 3 acceptor
1 4 acceptor
3 3 4 11 anion
6 5 6 7 8 9 10 rings

> <PUBCHEM_HEAVY_ATOM_COUNT>
11

> <PUBCHEM_ATOM_DEF_STEREO_COUNT>
2

> <PUBCHEM_ATOM_UDEF_STEREO_COUNT>
0

> <PUBCHEM_BOND_DEF_STEREO_COUNT>
0

> <PUBCHEM_BOND_UDEF_STEREO_COUNT>
0

> <PUBCHEM_ISOTOPIC_ATOM_COUNT>
0

> <PUBCHEM_COMPONENT_COUNT>
1

> <PUBCHEM_CACTVS_TAUTO_COUNT>
5

> <PUBCHEM_CONFORMER_ID>
0006B87000000004

> <PUBCHEM_MMFF94_ENERGY>
12.5246

> <PUBCHEM_FEATURE_SELFOVERLAP>
35.576

> <PUBCHEM_SHAPE_FINGERPRINT>
12423570 1 18335715900722313458
12897270 3 18413672422288761663
137420 1 11910862464357816291
16945 1 18410853274011128031
18185500 45 17826781831106103267
21040471 1 18043814173646288864
21501502 16 18191868924912169455
23235685 24 18113612374468578976
241688 4 17612852100179285858
2748010 2 18047461240888956534
29004967 10 17749670791474853651
5084963 1 18408891719655465147

> <PUBCHEM_SHAPE_MULTIPOLES>
202.9
3.17
1.64
0.99
1.19
0.16
-0.05
-0.04
0.19
-0.61
0.17
0.02
0.03
0.15

> <PUBCHEM_SHAPE_SELFOVERLAP>
412.044

> <PUBCHEM_SHAPE_VOLUME>
116.1

> <PUBCHEM_COORDINATE_TYPE>
2
5
10

$$$$

