54675786
  -OEChem-07051212542D

 28 28  0     0  0  0  0  0  0999 V2000
    4.2690   -0.5600    0.0000 O   0  0  0  0  0  0  0  0  0  0  0  0
    2.5369   -1.5600    0.0000 O   0  0  0  0  0  0  0  0  0  0  0  0
    6.0010   -0.5600    0.0000 O   0  0  0  0  0  0  0  0  0  0  0  0
    8.5991    0.9400    0.0000 O   0  0  0  0  0  0  0  0  0  0  0  0
    8.5991    2.9400    0.0000 O   0  0  0  0  0  0  0  0  0  0  0  0
    6.8671    2.9400    0.0000 O   0  0  0  0  0  0  0  0  0  0  0  0
    4.2690   -1.5600    0.0000 C   0  0  0  0  0  0  0  0  0  0  0  0
    3.4030   -2.0600    0.0000 C   0  0  0  0  0  0  0  0  0  0  0  0
    5.1350   -2.0600    0.0000 C   0  0  0  0  0  0  0  0  0  0  0  0
    3.4030   -3.0600    0.0000 C   0  0  0  0  0  0  0  0  0  0  0  0
    5.1350   -3.0600    0.0000 C   0  0  0  0  0  0  0  0  0  0  0  0
    4.2690   -3.5600    0.0000 C   0  0  0  0  0  0  0  0  0  0  0  0
    5.1350   -0.0600    0.0000 C   0  0  0  0  0  0  0  0  0  0  0  0
    5.1350    0.9400    0.0000 C   0  0  0  0  0  0  0  0  0  0  0  0
    6.0010    1.4400    0.0000 C   0  0  0  0  0  0  0  0  0  0  0  0
    6.8671    0.9400    0.0000 C   0  0  0  0  0  0  0  0  0  0  0  0
    7.7331    1.4400    0.0000 C   0  0  0  0  0  0  0  0  0  0  0  0
    7.7331    2.4400    0.0000 C   0  0  0  0  0  0  0  0  0  0  0  0
    5.6720   -1.7500    0.0000 H   0  0  0  0  0  0  0  0  0  0  0  0
    2.8660   -3.3700    0.0000 H   0  0  0  0  0  0  0  0  0  0  0  0
    5.6720   -3.3700    0.0000 H   0  0  0  0  0  0  0  0  0  0  0  0
    4.2690   -4.1800    0.0000 H   0  0  0  0  0  0  0  0  0  0  0  0
    4.5981    1.2500    0.0000 H   0  0  0  0  0  0  0  0  0  0  0  0
    6.0010    2.0600    0.0000 H   0  0  0  0  0  0  0  0  0  0  0  0
    6.8671    0.3200    0.0000 H   0  0  0  0  0  0  0  0  0  0  0  0
    2.0000   -1.8700    0.0000 H   0  0  0  0  0  0  0  0  0  0  0  0
    9.1360    1.2500    0.0000 H   0  0  0  0  0  0  0  0  0  0  0  0
    8.5991    3.5600    0.0000 H   0  0  0  0  0  0  0  0  0  0  0  0
  1  7  1  0  0  0  0
  1 13  1  0  0  0  0
  2  8  1  0  0  0  0
  2 26  1  0  0  0  0
  3 13  2  0  0  0  0
  4 17  1  0  0  0  0
  4 27  1  0  0  0  0
  5 18  1  0  0  0  0
  5 28  1  0  0  0  0
  6 18  2  0  0  0  0
  7  8  1  0  0  0  0
  7  9  2  0  0  0  0
  8 10  2  0  0  0  0
  9 11  1  0  0  0  0
  9 19  1  0  0  0  0
 10 12  1  0  0  0  0
 10 20  1  0  0  0  0
 11 12  2  0  0  0  0
 11 21  1  0  0  0  0
 12 22  1  0  0  0  0
 13 14  1  0  0  0  0
 14 15  2  0  0  0  0
 14 23  1  0  0  0  0
 15 16  1  0  0  0  0
 15 24  1  0  0  0  0
 16 17  2  0  0  0  0
 16 25  1  0  0  0  0
 17 18  1  0  0  0  0
M  END
> <PUBCHEM_COMPOUND_CID>
54675786

> <PUBCHEM_COMPOUND_CANONICALIZED>
1

> <PUBCHEM_CACTVS_COMPLEXITY>
371

> <PUBCHEM_CACTVS_HBOND_ACCEPTOR>
6

> <PUBCHEM_CACTVS_HBOND_DONOR>
3

> <PUBCHEM_CACTVS_ROTATABLE_BOND>
5

> <PUBCHEM_CACTVS_SUBSKEYS>
AAADccBwOAAAAAAAAAAAAAAAAAAAAAAAAAAwAAAAAAAAAAABAAAAGgAACAAACASAkAAwDoAABgCIACDSCAICCAAgIAAIiABGiMgNJiKGMRqCeiOkwBELuYeAQAAAAAAAAAAAQAAAAAAAAACAAAAAAAAAAA==

> <PUBCHEM_IUPAC_OPENEYE_NAME>
(2E,4Z)-2-hydroxy-6-(2-hydroxyphenoxy)-6-oxo-hexa-2,4-dienoic acid

> <PUBCHEM_IUPAC_CAS_NAME>
(2E,4Z)-2-hydroxy-6-(2-hydroxyphenoxy)-6-oxohexa-2,4-dienoic acid

> <PUBCHEM_IUPAC_NAME>
(2E,4Z)-2-hydroxy-6-(2-hydroxyphenoxy)-6-oxohexa-2,4-dienoic acid

> <PUBCHEM_IUPAC_SYSTEMATIC_NAME>
(2E,4Z)-2-oxidanyl-6-oxidanylidene-6-(2-oxidanylphenoxy)hexa-2,4-dienoic acid

> <PUBCHEM_IUPAC_TRADITIONAL_NAME>
(2E,4Z)-2-hydroxy-6-(2-hydroxyphenoxy)-6-keto-hexa-2,4-dienoic acid

> <PUBCHEM_IUPAC_INCHI>
InChI=1S/C12H10O6/c13-8-4-1-2-6-10(8)18-11(15)7-3-5-9(14)12(16)17/h1-7,13-14H,(H,16,17)/b7-3-,9-5+

> <PUBCHEM_IUPAC_INCHIKEY>
CULGWEQEASHZHP-NINQLNBYSA-N

> <PUBCHEM_XLOGP3_AA>
1.6

> <PUBCHEM_EXACT_MASS>
250.047738

> <PUBCHEM_MOLECULAR_FORMULA>
C12H10O6

> <PUBCHEM_MOLECULAR_WEIGHT>
250.2042

> <PUBCHEM_OPENEYE_CAN_SMILES>
C1=CC=C(C(=C1)O)OC(=O)C=CC=C(C(=O)O)O

> <PUBCHEM_OPENEYE_ISO_SMILES>
C1=CC=C(C(=C1)O)OC(=O)/C=C\C=C(/C(=O)O)\O

> <PUBCHEM_CACTVS_TPSA>
104

> <PUBCHEM_MONOISOTOPIC_WEIGHT>
250.047738

> <PUBCHEM_TOTAL_CHARGE>
0

> <PUBCHEM_HEAVY_ATOM_COUNT>
18

> <PUBCHEM_ATOM_DEF_STEREO_COUNT>
0

> <PUBCHEM_ATOM_UDEF_STEREO_COUNT>
0

> <PUBCHEM_BOND_DEF_STEREO_COUNT>
2

> <PUBCHEM_BOND_UDEF_STEREO_COUNT>
0

> <PUBCHEM_ISOTOPIC_ATOM_COUNT>
0

> <PUBCHEM_COMPONENT_COUNT>
1

> <PUBCHEM_CACTVS_TAUTO_COUNT>
12

> <PUBCHEM_COORDINATE_TYPE>
1
5
255

> <PUBCHEM_BONDANNOTATIONS>
10  12  8
11  12  8
7  8  8
7  9  8
8  10  8
9  11  8

$$$$

