439733
  -OEChem-07051212473D

 25 25  0     1  0  0  0  0  0999 V2000
   -0.6324   -2.0894   -0.0373 O   0  0  0  0  0  0  0  0  0  0  0  0
   -0.6771    0.3090   -0.4037 C   0  0  1  0  0  0  0  0  0  0  0  0
    0.0844    1.4426    0.2773 C   0  0  0  0  0  0  0  0  0  0  0  0
    1.5568    1.4414   -0.1294 C   0  0  0  0  0  0  0  0  0  0  0  0
    2.1871    0.0767   -0.0259 C   0  0  0  0  0  0  0  0  0  0  0  0
   -0.0107   -1.0301   -0.1070 C   0  0  0  0  0  0  0  0  0  0  0  0
   -2.0994    0.2839    0.0534 C   0  0  0  0  0  0  0  0  0  0  0  0
    1.4712   -1.0574    0.0146 C   0  0  0  0  0  0  0  0  0  0  0  0
    3.6873    0.0529    0.0281 C   0  0  0  0  0  0  0  0  0  0  0  0
   -3.1405    0.4422   -1.0148 C   0  0  0  0  0  0  0  0  0  0  0  0
   -2.4265    0.1283    1.3449 C   0  0  0  0  0  0  0  0  0  0  0  0
   -0.6310    0.4444   -1.4926 H   0  0  0  0  0  0  0  0  0  0  0  0
    0.0403    1.3544    1.3711 H   0  0  0  0  0  0  0  0  0  0  0  0
   -0.3600    2.4129    0.0224 H   0  0  0  0  0  0  0  0  0  0  0  0
    2.0915    2.1498    0.5148 H   0  0  0  0  0  0  0  0  0  0  0  0
    1.6604    1.8014   -1.1603 H   0  0  0  0  0  0  0  0  0  0  0  0
    1.9411   -2.0308    0.1038 H   0  0  0  0  0  0  0  0  0  0  0  0
    4.0832   -0.9668    0.0804 H   0  0  0  0  0  0  0  0  0  0  0  0
    4.0447    0.5949    0.9097 H   0  0  0  0  0  0  0  0  0  0  0  0
    4.1057    0.5270   -0.8657 H   0  0  0  0  0  0  0  0  0  0  0  0
   -3.0144    1.4004   -1.5294 H   0  0  0  0  0  0  0  0  0  0  0  0
   -3.0552   -0.3636   -1.7513 H   0  0  0  0  0  0  0  0  0  0  0  0
   -4.1566    0.4144   -0.6075 H   0  0  0  0  0  0  0  0  0  0  0  0
   -3.4645    0.1129    1.6612 H   0  0  0  0  0  0  0  0  0  0  0  0
   -1.6780    0.0013    2.1194 H   0  0  0  0  0  0  0  0  0  0  0  0
  1  6  2  0  0  0  0
  2  3  1  0  0  0  0
  2  6  1  0  0  0  0
  2  7  1  0  0  0  0
  2 12  1  0  0  0  0
  3  4  1  0  0  0  0
  3 13  1  0  0  0  0
  3 14  1  0  0  0  0
  4  5  1  0  0  0  0
  4 15  1  0  0  0  0
  4 16  1  0  0  0  0
  5  8  2  0  0  0  0
  5  9  1  0  0  0  0
  6  8  1  0  0  0  0
  7 10  1  0  0  0  0
  7 11  2  0  0  0  0
  8 17  1  0  0  0  0
  9 18  1  0  0  0  0
  9 19  1  0  0  0  0
  9 20  1  0  0  0  0
 10 21  1  0  0  0  0
 10 22  1  0  0  0  0
 10 23  1  0  0  0  0
 11 24  1  0  0  0  0
 11 25  1  0  0  0  0
M  END
> <PUBCHEM_COMPOUND_CID>
439733

> <PUBCHEM_CONFORMER_RMSD>
0.4

> <PUBCHEM_CONFORMER_DIVERSEORDER>
1
3
6
2
4
5

> <PUBCHEM_MMFF94_PARTIAL_CHARGES>
13
1 -0.57
10 0.14
11 -0.3
17 0.15
2 0.2
24 0.15
25 0.15
4 0.14
5 -0.28
6 0.49
7 -0.28
8 -0.14
9 0.14

> <PUBCHEM_EFFECTIVE_ROTOR_COUNT>
1.6

> <PUBCHEM_PHARMACOPHORE_FEATURES>
2
1 1 acceptor
6 2 3 4 5 6 8 rings

> <PUBCHEM_HEAVY_ATOM_COUNT>
11

> <PUBCHEM_ATOM_DEF_STEREO_COUNT>
1

> <PUBCHEM_ATOM_UDEF_STEREO_COUNT>
0

> <PUBCHEM_BOND_DEF_STEREO_COUNT>
0

> <PUBCHEM_BOND_UDEF_STEREO_COUNT>
0

> <PUBCHEM_ISOTOPIC_ATOM_COUNT>
0

> <PUBCHEM_COMPONENT_COUNT>
1

> <PUBCHEM_CACTVS_TAUTO_COUNT>
13

> <PUBCHEM_CONFORMER_ID>
0006B5B500000001

> <PUBCHEM_MMFF94_ENERGY>
11.976

> <PUBCHEM_FEATURE_SELFOVERLAP>
10.148

> <PUBCHEM_SHAPE_FINGERPRINT>
10219947 1 18410855494730603740
12138202 97 17346608482223518471
12423570 1 6336940146183700955
124424 183 17775013413587637056
14325111 11 18411420604815315100
14911166 2 18409730664428925724
14993402 34 18408046212309152676
15310529 11 16988844977677500028
15775835 57 18412548716846469783
16945 1 18410005542182895052
17844478 74 17989194941441489473
193761 8 17833553392672604692
20201158 50 18272653488683890305
21040471 1 18338234869013582588
21501502 16 18122340173305484020
23235685 24 18408045121587951776
23402539 116 18114754823227382564
23402655 69 18194138510823939541
23552423 10 18055917580797326220
23559900 14 18262507119223583332
2748010 2 18120935006109071356
29004967 10 18272362109375601056
5084963 1 18113345210317766657
528886 8 18409736178829284449

> <PUBCHEM_SHAPE_MULTIPOLES>
220.51
4.7
1.52
0.9
0.96
0.34
-0.13
-0.56
0.2
0.22
0.01
-0.72
-0.07
0.07

> <PUBCHEM_SHAPE_SELFOVERLAP>
443.326

> <PUBCHEM_SHAPE_VOLUME>
130

> <PUBCHEM_COORDINATE_TYPE>
2
5
10

$$$$

