5280970
  -OEChem-07051212513D

  9  8  0     0  0  0  0  0  0999 V2000
    2.3239   -0.3964    0.4250 Cl  0  0  0  0  0  0  0  0  0  0  0  0
   -1.9947   -0.9209    0.0350 Cl  0  0  0  0  0  0  0  0  0  0  0  0
    0.9259   -0.1606   -0.6457 C   0  0  0  0  0  0  0  0  0  0  0  0
    0.0086    0.8650   -0.0668 C   0  0  0  0  0  0  0  0  0  0  0  0
   -1.2638    0.6128    0.2526 C   0  0  0  0  0  0  0  0  0  0  0  0
    0.4851   -1.1437   -0.8178 H   0  0  0  0  0  0  0  0  0  0  0  0
    1.3092    0.1985   -1.6061 H   0  0  0  0  0  0  0  0  0  0  0  0
    0.3966    1.8682    0.0891 H   0  0  0  0  0  0  0  0  0  0  0  0
   -1.9390    1.3489    0.6671 H   0  0  0  0  0  0  0  0  0  0  0  0
  1  3  1  0  0  0  0
  2  5  1  0  0  0  0
  3  4  1  0  0  0  0
  3  6  1  0  0  0  0
  3  7  1  0  0  0  0
  4  5  2  0  0  0  0
  4  8  1  0  0  0  0
  5  9  1  0  0  0  0
M  END
> <PUBCHEM_COMPOUND_CID>
5280970

> <PUBCHEM_CONFORMER_RMSD>
0.4

> <PUBCHEM_CONFORMER_DIVERSEORDER>
1
5
3
4
2

> <PUBCHEM_MMFF94_PARTIAL_CHARGES>
7
1 -0.29
2 -0.14
3 0.43
4 -0.29
5 -0.01
8 0.15
9 0.15

> <PUBCHEM_EFFECTIVE_ROTOR_COUNT>
1

> <PUBCHEM_PHARMACOPHORE_FEATURES>
0

> <PUBCHEM_HEAVY_ATOM_COUNT>
5

> <PUBCHEM_ATOM_DEF_STEREO_COUNT>
0

> <PUBCHEM_ATOM_UDEF_STEREO_COUNT>
0

> <PUBCHEM_BOND_DEF_STEREO_COUNT>
1

> <PUBCHEM_BOND_UDEF_STEREO_COUNT>
0

> <PUBCHEM_ISOTOPIC_ATOM_COUNT>
0

> <PUBCHEM_COMPONENT_COUNT>
1

> <PUBCHEM_CACTVS_TAUTO_COUNT>
1

> <PUBCHEM_CONFORMER_ID>
005094CA00000001

> <PUBCHEM_MMFF94_ENERGY>
2.7704

> <PUBCHEM_FEATURE_SELFOVERLAP>
0

> <PUBCHEM_SHAPE_FINGERPRINT>
139733 1 9079122137282700717
14390081 3 9439395818163885702
20096714 4 8502377710857998215
23552449 11 18190745236897361369
24536 1 17895467137077106044
29004967 10 17821442460881218090
5460574 1 9295287240089872304

> <PUBCHEM_SHAPE_MULTIPOLES>
106.64
3.08
1.06
0.76
0.69
0
0.03
1.03
-0.45
-0.35
-0.03
0.14
0.03
-0.09

> <PUBCHEM_SHAPE_SELFOVERLAP>
170.614

> <PUBCHEM_SHAPE_VOLUME>
75

> <PUBCHEM_COORDINATE_TYPE>
2
5
10

$$$$

