446475
  -OEChem-07051212522D

 35 34  0     1  0  0  0  0  0999 V2000
    3.4030    1.8100    0.0000 O   0  0  0  0  0  0  0  0  0  0  0  0
    4.2690    3.3100    0.0000 O   0  0  0  0  0  0  0  0  0  0  0  0
    9.4651    2.3100    0.0000 O   0  0  0  0  0  0  0  0  0  0  0  0
    8.5991    0.8100    0.0000 O   0  0  0  0  0  0  0  0  0  0  0  0
    6.0010    2.3100    0.0000 N   0  0  0  0  0  0  0  0  0  0  0  0
    3.4030   -1.1900    0.0000 N   0  0  0  0  0  0  0  0  0  0  0  0
    2.5369   -2.6900    0.0000 N   0  0  0  0  0  0  0  0  0  0  0  0
    4.2690   -2.6900    0.0000 N   0  0  0  0  0  0  0  0  0  0  0  0
    5.1350    1.8100    0.0000 C   0  0  1  0  0  0  0  0  0  0  0  0
    5.1350    0.8100    0.0000 C   0  0  0  0  0  0  0  0  0  0  0  0
    4.2690    0.3100    0.0000 C   0  0  0  0  0  0  0  0  0  0  0  0
    6.8671    1.8100    0.0000 C   0  0  0  0  0  0  0  0  0  0  0  0
    4.2690   -0.6900    0.0000 C   0  0  0  0  0  0  0  0  0  0  0  0
    4.2690    2.3100    0.0000 C   0  0  0  0  0  0  0  0  0  0  0  0
    7.7331    2.3100    0.0000 C   0  0  0  0  0  0  0  0  0  0  0  0
    8.5991    1.8100    0.0000 C   0  0  0  0  0  0  0  0  0  0  0  0
    3.4030   -2.1900    0.0000 C   0  0  0  0  0  0  0  0  0  0  0  0
    5.1350    2.4300    0.0000 H   0  0  0  0  0  0  0  0  0  0  0  0
    5.3471    0.2274    0.0000 H   0  0  0  0  0  0  0  0  0  0  0  0
    5.7456    0.9177    0.0000 H   0  0  0  0  0  0  0  0  0  0  0  0
    4.0569    0.8926    0.0000 H   0  0  0  0  0  0  0  0  0  0  0  0
    3.6584    0.2023    0.0000 H   0  0  0  0  0  0  0  0  0  0  0  0
    6.0010    2.9300    0.0000 H   0  0  0  0  0  0  0  0  0  0  0  0
    6.4685    1.3350    0.0000 H   0  0  0  0  0  0  0  0  0  0  0  0
    7.2656    1.3350    0.0000 H   0  0  0  0  0  0  0  0  0  0  0  0
    4.4810   -1.2726    0.0000 H   0  0  0  0  0  0  0  0  0  0  0  0
    4.8796   -0.5823    0.0000 H   0  0  0  0  0  0  0  0  0  0  0  0
    8.1316    2.7849    0.0000 H   0  0  0  0  0  0  0  0  0  0  0  0
    7.3346    2.7849    0.0000 H   0  0  0  0  0  0  0  0  0  0  0  0
    2.8660    2.1200    0.0000 H   0  0  0  0  0  0  0  0  0  0  0  0
   10.0021    2.0000    0.0000 H   0  0  0  0  0  0  0  0  0  0  0  0
    2.5369   -3.3100    0.0000 H   0  0  0  0  0  0  0  0  0  0  0  0
    2.0000   -2.3800    0.0000 H   0  0  0  0  0  0  0  0  0  0  0  0
    4.2690   -3.3100    0.0000 H   0  0  0  0  0  0  0  0  0  0  0  0
    4.8059   -2.3800    0.0000 H   0  0  0  0  0  0  0  0  0  0  0  0
  1 14  1  0  0  0  0
  1 30  1  0  0  0  0
  2 14  2  0  0  0  0
  3 16  1  0  0  0  0
  3 31  1  0  0  0  0
  4 16  2  0  0  0  0
  9  5  1  1  0  0  0
  5 12  1  0  0  0  0
  5 23  1  0  0  0  0
  6 13  1  0  0  0  0
  6 17  2  0  0  0  0
  7 17  1  0  0  0  0
  7 32  1  0  0  0  0
  7 33  1  0  0  0  0
  8 17  1  0  0  0  0
  8 34  1  0  0  0  0
  8 35  1  0  0  0  0
  9 10  1  0  0  0  0
  9 14  1  0  0  0  0
  9 18  1  0  0  0  0
 10 11  1  0  0  0  0
 10 19  1  0  0  0  0
 10 20  1  0  0  0  0
 11 13  1  0  0  0  0
 11 21  1  0  0  0  0
 11 22  1  0  0  0  0
 12 15  1  0  0  0  0
 12 24  1  0  0  0  0
 12 25  1  0  0  0  0
 13 26  1  0  0  0  0
 13 27  1  0  0  0  0
 15 16  1  0  0  0  0
 15 28  1  0  0  0  0
 15 29  1  0  0  0  0
M  END
> <PUBCHEM_COMPOUND_CID>
446475

> <PUBCHEM_COMPOUND_CANONICALIZED>
1

> <PUBCHEM_CACTVS_COMPLEXITY>
289

> <PUBCHEM_CACTVS_HBOND_ACCEPTOR>
6

> <PUBCHEM_CACTVS_HBOND_DONOR>
5

> <PUBCHEM_CACTVS_ROTATABLE_BOND>
9

> <PUBCHEM_CACTVS_SUBSKEYS>
AAADceBzuAAAAAAAAAAAAAAAAAAAAAAAAAAAAAAAAAAAAAAAAAAAHgAQCAAACCjBgAQBCALAAgAoAACQLAAAAAEAAAAAAIGIAAACABoAgCAEQAAGEACQAACYEQAAAAAAAAAAAAAAAAAAAAAAAAAAAAAAAA==

> <PUBCHEM_IUPAC_OPENEYE_NAME>
(2S)-2-(2-carboxyethylamino)-5-guanidino-pentanoic acid

> <PUBCHEM_IUPAC_CAS_NAME>
(2S)-2-(2-carboxyethylamino)-5-(diaminomethylideneamino)pentanoic acid

> <PUBCHEM_IUPAC_NAME>
(2S)-2-(2-carboxyethylamino)-5-(diaminomethylideneamino)pentanoic acid

> <PUBCHEM_IUPAC_SYSTEMATIC_NAME>
(2S)-5-[bis(azanyl)methylideneamino]-2-(3-hydroxy-3-oxopropylamino)pentanoic acid

> <PUBCHEM_IUPAC_TRADITIONAL_NAME>
(2S)-2-(2-carboxyethylamino)-5-guanidino-valeric acid

> <PUBCHEM_IUPAC_INCHI>
InChI=1S/C9H18N4O4/c10-9(11)13-4-1-2-6(8(16)17)12-5-3-7(14)15/h6,12H,1-5H2,(H,14,15)(H,16,17)(H4,10,11,13)/t6-/m0/s1

> <PUBCHEM_IUPAC_INCHIKEY>
OHWCFZJEIHZWMN-LURJTMIESA-N

> <PUBCHEM_XLOGP3_AA>
-4.2

> <PUBCHEM_EXACT_MASS>
246.132805

> <PUBCHEM_MOLECULAR_FORMULA>
C9H18N4O4

> <PUBCHEM_MOLECULAR_WEIGHT>
246.26362

> <PUBCHEM_OPENEYE_CAN_SMILES>
C(CC(C(=O)O)NCCC(=O)O)CN=C(N)N

> <PUBCHEM_OPENEYE_ISO_SMILES>
C(C[C@@H](C(=O)O)NCCC(=O)O)CN=C(N)N

> <PUBCHEM_CACTVS_TPSA>
151

> <PUBCHEM_MONOISOTOPIC_WEIGHT>
246.132805

> <PUBCHEM_TOTAL_CHARGE>
0

> <PUBCHEM_HEAVY_ATOM_COUNT>
17

> <PUBCHEM_ATOM_DEF_STEREO_COUNT>
1

> <PUBCHEM_ATOM_UDEF_STEREO_COUNT>
0

> <PUBCHEM_BOND_DEF_STEREO_COUNT>
0

> <PUBCHEM_BOND_UDEF_STEREO_COUNT>
0

> <PUBCHEM_ISOTOPIC_ATOM_COUNT>
0

> <PUBCHEM_COMPONENT_COUNT>
1

> <PUBCHEM_CACTVS_TAUTO_COUNT>
2

> <PUBCHEM_COORDINATE_TYPE>
1
5
255

> <PUBCHEM_BONDANNOTATIONS>
9  5  5

$$$$

