31515
  -OEChem-07051212542D

 31 30  0     1  0  0  0  0  0999 V2000
    9.5841   -0.9400    0.0000 Cl  0  0  0  0  0  0  0  0  0  0  0  0
    7.8520    2.0600    0.0000 Cl  0  0  0  0  0  0  0  0  0  0  0  0
    6.1200   -0.9400    0.0000 P   0  0  3  0  0  0  0  0  0  0  0  0
    5.6200   -0.0740    0.0000 O   0  0  0  0  0  0  0  0  0  0  0  0
    6.6200   -1.8060    0.0000 O   0  0  0  0  0  0  0  0  0  0  0  0
    2.6200    1.6581    0.0000 O   0  0  0  0  0  0  0  0  0  0  0  0
    2.6200   -0.0740    0.0000 O   0  0  0  0  0  0  0  0  0  0  0  0
    6.9860   -0.4400    0.0000 N   0  0  0  0  0  0  0  0  0  0  0  0
    5.2540   -1.4400    0.0000 N   0  0  0  0  0  0  0  0  0  0  0  0
    7.8520   -0.9400    0.0000 C   0  0  0  0  0  0  0  0  0  0  0  0
    6.9860    0.5600    0.0000 C   0  0  0  0  0  0  0  0  0  0  0  0
    8.7181   -0.4400    0.0000 C   0  0  0  0  0  0  0  0  0  0  0  0
    7.8520    1.0600    0.0000 C   0  0  0  0  0  0  0  0  0  0  0  0
    4.6200   -0.0740    0.0000 C   0  0  0  0  0  0  0  0  0  0  0  0
    4.1200    0.7921    0.0000 C   0  0  0  0  0  0  0  0  0  0  0  0
    3.1200    0.7921    0.0000 C   0  0  0  0  0  0  0  0  0  0  0  0
    7.4535   -1.4150    0.0000 H   0  0  0  0  0  0  0  0  0  0  0  0
    8.2506   -1.4150    0.0000 H   0  0  0  0  0  0  0  0  0  0  0  0
    6.7740    1.1426    0.0000 H   0  0  0  0  0  0  0  0  0  0  0  0
    6.3754    0.4523    0.0000 H   0  0  0  0  0  0  0  0  0  0  0  0
    9.1166    0.0349    0.0000 H   0  0  0  0  0  0  0  0  0  0  0  0
    8.3196    0.0349    0.0000 H   0  0  0  0  0  0  0  0  0  0  0  0
    8.0641    0.4774    0.0000 H   0  0  0  0  0  0  0  0  0  0  0  0
    8.4626    1.1677    0.0000 H   0  0  0  0  0  0  0  0  0  0  0  0
    4.0374   -0.2860    0.0000 H   0  0  0  0  0  0  0  0  0  0  0  0
    4.7277   -0.6846    0.0000 H   0  0  0  0  0  0  0  0  0  0  0  0
    4.7170   -1.1300    0.0000 H   0  0  0  0  0  0  0  0  0  0  0  0
    5.2540   -2.0600    0.0000 H   0  0  0  0  0  0  0  0  0  0  0  0
    4.7026    1.0041    0.0000 H   0  0  0  0  0  0  0  0  0  0  0  0
    4.0123    1.4026    0.0000 H   0  0  0  0  0  0  0  0  0  0  0  0
    2.0000    1.6581    0.0000 H   0  0  0  0  0  0  0  0  0  0  0  0
  1 12  1  0  0  0  0
  2 13  1  0  0  0  0
  3  4  1  0  0  0  0
  3  5  2  0  0  0  0
  3  8  1  0  0  0  0
  3  9  1  0  0  0  0
  4 14  1  0  0  0  0
  6 16  1  0  0  0  0
  6 31  1  0  0  0  0
  7 16  2  0  0  0  0
  8 10  1  0  0  0  0
  8 11  1  0  0  0  0
  9 27  1  0  0  0  0
  9 28  1  0  0  0  0
 10 12  1  0  0  0  0
 10 17  1  0  0  0  0
 10 18  1  0  0  0  0
 11 13  1  0  0  0  0
 11 19  1  0  0  0  0
 11 20  1  0  0  0  0
 12 21  1  0  0  0  0
 12 22  1  0  0  0  0
 13 23  1  0  0  0  0
 13 24  1  0  0  0  0
 14 15  1  0  0  0  0
 14 25  1  0  0  0  0
 14 26  1  0  0  0  0
 15 16  1  0  0  0  0
 15 29  1  0  0  0  0
 15 30  1  0  0  0  0
M  END
> <PUBCHEM_COMPOUND_CID>
31515

> <PUBCHEM_COMPOUND_CANONICALIZED>
1

> <PUBCHEM_CACTVS_COMPLEXITY>
261

> <PUBCHEM_CACTVS_HBOND_ACCEPTOR>
6

> <PUBCHEM_CACTVS_HBOND_DONOR>
2

> <PUBCHEM_CACTVS_ROTATABLE_BOND>
9

> <PUBCHEM_CACTVS_SUBSKEYS>
AAADccBjOAIGAAAAAAAAAAAAAAAAAAAAAAAAAAAAAAAAAAAAAAAAHgIQiCAACAPhgEYACAIAAxAIQACQCIAAAAAAAAAAAAEIAAAAAAQAAABAQAABIACAAAAAAAAAAAAAAAAAAAAAAAAAAAAAAAAAAAAAAA==

> <PUBCHEM_IUPAC_OPENEYE_NAME>
3-[amino-[bis(2-chloroethyl)amino]phosphoryl]oxypropanoic acid

> <PUBCHEM_IUPAC_CAS_NAME>
3-[amino-[bis(2-chloroethyl)amino]phosphoryl]oxypropanoic acid

> <PUBCHEM_IUPAC_NAME>
3-[amino-[bis(2-chloroethyl)amino]phosphoryl]oxypropanoic acid

> <PUBCHEM_IUPAC_SYSTEMATIC_NAME>
3-[azanyl-[bis(2-chloroethyl)amino]phosphoryl]oxypropanoic acid

> <PUBCHEM_IUPAC_TRADITIONAL_NAME>
3-[amino-[bis(2-chloroethyl)amino]phosphoryl]oxypropionic acid

> <PUBCHEM_IUPAC_INCHI>
InChI=1S/C7H15Cl2N2O4P/c8-2-4-11(5-3-9)16(10,14)15-6-1-7(12)13/h1-6H2,(H2,10,14)(H,12,13)

> <PUBCHEM_IUPAC_INCHIKEY>
QLAKAJLYYGOZQL-UHFFFAOYSA-N

> <PUBCHEM_XLOGP3_AA>
-0.4

> <PUBCHEM_EXACT_MASS>
292.014649

> <PUBCHEM_MOLECULAR_FORMULA>
C7H15Cl2N2O4P

> <PUBCHEM_MOLECULAR_WEIGHT>
293.084762

> <PUBCHEM_OPENEYE_CAN_SMILES>
C(COP(=O)(N)N(CCCl)CCCl)C(=O)O

> <PUBCHEM_OPENEYE_ISO_SMILES>
C(COP(=O)(N)N(CCCl)CCCl)C(=O)O

> <PUBCHEM_CACTVS_TPSA>
92.9

> <PUBCHEM_MONOISOTOPIC_WEIGHT>
292.014649

> <PUBCHEM_TOTAL_CHARGE>
0

> <PUBCHEM_HEAVY_ATOM_COUNT>
16

> <PUBCHEM_ATOM_DEF_STEREO_COUNT>
0

> <PUBCHEM_ATOM_UDEF_STEREO_COUNT>
1

> <PUBCHEM_BOND_DEF_STEREO_COUNT>
0

> <PUBCHEM_BOND_UDEF_STEREO_COUNT>
0

> <PUBCHEM_ISOTOPIC_ATOM_COUNT>
0

> <PUBCHEM_COMPONENT_COUNT>
1

> <PUBCHEM_CACTVS_TAUTO_COUNT>
2

> <PUBCHEM_COORDINATE_TYPE>
1
5
255

> <PUBCHEM_BONDANNOTATIONS>
3  9  3

$$$$

