6124753
  -OEChem-07051213003D

 60 61  0     0  0  0  0  0  0999 V2000
    1.0787   -1.6381   -1.8157 O   0  0  0  0  0  0  0  0  0  0  0  0
   -1.2339   -2.0876    1.4599 N   0  0  0  0  0  0  0  0  0  0  0  0
    0.9786   -2.0395    0.5361 C   0  0  0  0  0  0  0  0  0  0  0  0
    4.6384    1.1511    0.3318 C   0  0  0  0  0  0  0  0  0  0  0  0
    2.4649   -2.1580    0.5630 C   0  0  0  0  0  0  0  0  0  0  0  0
    3.9038    2.3705   -0.2387 C   0  0  0  0  0  0  0  0  0  0  0  0
    3.9851   -0.1727   -0.0004 C   0  0  0  0  0  0  0  0  0  0  0  0
    0.1373   -2.1876    1.5848 C   0  0  0  0  0  0  0  0  0  0  0  0
    3.1190   -0.8280    0.7974 C   0  0  0  0  0  0  0  0  0  0  0  0
   -1.0974   -1.6651   -0.9196 C   0  0  0  0  0  0  0  0  0  0  0  0
    0.3782   -1.7722   -0.8187 C   0  0  0  0  0  0  0  0  0  0  0  0
   -1.8646   -1.8288    0.2408 C   0  0  0  0  0  0  0  0  0  0  0  0
    1.3517    2.6941   -0.2431 C   0  0  0  0  0  0  0  0  0  0  0  0
    0.0199    2.8292    0.4683 C   0  0  0  0  0  0  0  0  0  0  0  0
    2.5448    2.5739    0.3729 C   0  0  0  0  0  0  0  0  0  0  0  0
   -0.9794    1.6838    0.2466 C   0  0  0  0  0  0  0  0  0  0  0  0
    4.4062   -0.7792   -1.3150 C   0  0  0  0  0  0  0  0  0  0  0  0
    0.6115   -2.4401    2.9936 C   0  0  0  0  0  0  0  0  0  0  0  0
   -1.7080   -1.4067   -2.1505 C   0  0  0  0  0  0  0  0  0  0  0  0
   -3.2573   -1.7295    0.1533 C   0  0  0  0  0  0  0  0  0  0  0  0
    1.2912    2.6256   -1.7490 C   0  0  0  0  0  0  0  0  0  0  0  0
   -2.2268    1.7921    1.0787 C   0  0  0  0  0  0  0  0  0  0  0  0
   -3.0971   -1.3102   -2.2228 C   0  0  0  0  0  0  0  0  0  0  0  0
   -3.8704   -1.4710   -1.0739 C   0  0  0  0  0  0  0  0  0  0  0  0
   -3.3960    2.3627    0.7320 C   0  0  0  0  0  0  0  0  0  0  0  0
   -3.5677    2.9921   -0.6245 C   0  0  0  0  0  0  0  0  0  0  0  0
   -4.6107    2.4389    1.6124 C   0  0  0  0  0  0  0  0  0  0  0  0
    5.6728    1.1457   -0.0346 H   0  0  0  0  0  0  0  0  0  0  0  0
    4.7165    1.2533    1.4227 H   0  0  0  0  0  0  0  0  0  0  0  0
    2.7797   -2.8266    1.3736 H   0  0  0  0  0  0  0  0  0  0  0  0
    2.8195   -2.6788   -0.3293 H   0  0  0  0  0  0  0  0  0  0  0  0
    3.8671    2.2830   -1.3278 H   0  0  0  0  0  0  0  0  0  0  0  0
    4.5014    3.2646   -0.0215 H   0  0  0  0  0  0  0  0  0  0  0  0
    2.8704   -0.3555    1.7477 H   0  0  0  0  0  0  0  0  0  0  0  0
   -0.4391    3.7764    0.1555 H   0  0  0  0  0  0  0  0  0  0  0  0
    0.1989    2.9322    1.5473 H   0  0  0  0  0  0  0  0  0  0  0  0
    2.5460    2.6232    1.4616 H   0  0  0  0  0  0  0  0  0  0  0  0
   -1.8008   -2.2014    2.2906 H   0  0  0  0  0  0  0  0  0  0  0  0
   -0.4805    0.7527    0.5323 H   0  0  0  0  0  0  0  0  0  0  0  0
   -1.2162    1.5732   -0.8165 H   0  0  0  0  0  0  0  0  0  0  0  0
    4.4110   -0.0081   -2.0939 H   0  0  0  0  0  0  0  0  0  0  0  0
    5.4232   -1.1765   -1.2314 H   0  0  0  0  0  0  0  0  0  0  0  0
    3.7611   -1.5720   -1.6920 H   0  0  0  0  0  0  0  0  0  0  0  0
    0.1076   -1.7595    3.6897 H   0  0  0  0  0  0  0  0  0  0  0  0
    0.3750   -3.4675    3.2898 H   0  0  0  0  0  0  0  0  0  0  0  0
    1.6835   -2.2847    3.1335 H   0  0  0  0  0  0  0  0  0  0  0  0
   -1.1224   -1.2770   -3.0561 H   0  0  0  0  0  0  0  0  0  0  0  0
   -3.8746   -1.8507    1.0400 H   0  0  0  0  0  0  0  0  0  0  0  0
    1.2021    1.5860   -2.0804 H   0  0  0  0  0  0  0  0  0  0  0  0
    2.1541    3.0891   -2.2345 H   0  0  0  0  0  0  0  0  0  0  0  0
    0.4162    3.1731   -2.1177 H   0  0  0  0  0  0  0  0  0  0  0  0
   -2.1485    1.3632    2.0766 H   0  0  0  0  0  0  0  0  0  0  0  0
   -3.5777   -1.1080   -3.1756 H   0  0  0  0  0  0  0  0  0  0  0  0
   -4.9522   -1.3934   -1.1331 H   0  0  0  0  0  0  0  0  0  0  0  0
   -4.2533    2.3907   -1.2307 H   0  0  0  0  0  0  0  0  0  0  0  0
   -2.6399    3.1164   -1.1870 H   0  0  0  0  0  0  0  0  0  0  0  0
   -3.9981    3.9943   -0.5176 H   0  0  0  0  0  0  0  0  0  0  0  0
   -4.4382    1.9558    2.5797 H   0  0  0  0  0  0  0  0  0  0  0  0
   -4.8810    3.4824    1.8027 H   0  0  0  0  0  0  0  0  0  0  0  0
   -5.4589    1.9377    1.1351 H   0  0  0  0  0  0  0  0  0  0  0  0
  1 11  2  0  0  0  0
  2  8  1  0  0  0  0
  2 12  1  0  0  0  0
  2 38  1  0  0  0  0
  3  5  1  0  0  0  0
  3  8  2  0  0  0  0
  3 11  1  0  0  0  0
  4  6  1  0  0  0  0
  4  7  1  0  0  0  0
  4 28  1  0  0  0  0
  4 29  1  0  0  0  0
  5  9  1  0  0  0  0
  5 30  1  0  0  0  0
  5 31  1  0  0  0  0
  6 15  1  0  0  0  0
  6 32  1  0  0  0  0
  6 33  1  0  0  0  0
  7  9  2  0  0  0  0
  7 17  1  0  0  0  0
  8 18  1  0  0  0  0
  9 34  1  0  0  0  0
 10 11  1  0  0  0  0
 10 12  1  0  0  0  0
 10 19  2  0  0  0  0
 12 20  2  0  0  0  0
 13 14  1  0  0  0  0
 13 15  2  0  0  0  0
 13 21  1  0  0  0  0
 14 16  1  0  0  0  0
 14 35  1  0  0  0  0
 14 36  1  0  0  0  0
 15 37  1  0  0  0  0
 16 22  1  0  0  0  0
 16 39  1  0  0  0  0
 16 40  1  0  0  0  0
 17 41  1  0  0  0  0
 17 42  1  0  0  0  0
 17 43  1  0  0  0  0
 18 44  1  0  0  0  0
 18 45  1  0  0  0  0
 18 46  1  0  0  0  0
 19 23  1  0  0  0  0
 19 47  1  0  0  0  0
 20 24  1  0  0  0  0
 20 48  1  0  0  0  0
 21 49  1  0  0  0  0
 21 50  1  0  0  0  0
 21 51  1  0  0  0  0
 22 25  2  0  0  0  0
 22 52  1  0  0  0  0
 23 24  2  0  0  0  0
 23 53  1  0  0  0  0
 24 54  1  0  0  0  0
 25 26  1  0  0  0  0
 25 27  1  0  0  0  0
 26 55  1  0  0  0  0
 26 56  1  0  0  0  0
 26 57  1  0  0  0  0
 27 58  1  0  0  0  0
 27 59  1  0  0  0  0
 27 60  1  0  0  0  0
M  END
> <PUBCHEM_COMPOUND_CID>
6124753

> <PUBCHEM_CONFORMER_RMSD>
1.2

> <PUBCHEM_CONFORMER_DIVERSEORDER>
12
307
24
567
310
159
168
317
528
404
268
251
426
394
266
103
124
611
298
606
440
478
530
110
18
362
363
1
313
229
359
185
115
534
235
458
217
11
107
59
252
385
75
565
197
186
191
49
219
43
297
417
3
456
260
223
382
97
600
5
507
129
47
189
418
113
265
8
591
309
311
513
627
393
494
571
2
273
226
291
143
477
117
624
521
140
209
73
432
7
331
405
352
367
139
384
366
123
463
578
304
261
22
205
332
324
497
491
607
253
498
45
30
294
551
85
480
353
88
63
335
409
66
27
323
15
6
36
303
370
91
16
434
263
50
250
67
173
340
111
330
280
433
562
98
96
160
51
526
184
199
54
135
207
14
55
282
196
172
376
377
242
80
90
182
531
430
608
527
306
25
29
17
296
150
201
105
48
72
354
40
374
57
492
93
38
234
278
276
28
412
347
81
220
68
26
9
34
149
146
275
118
20
31
69
52
42
60
19
151
206

> <PUBCHEM_MMFF94_PARTIAL_CHARGES>
35
1 -0.57
10 0.09
11 0.47
12 0.1
13 -0.28
14 0.14
15 -0.29
16 0.14
17 0.14
18 0.14
19 -0.15
2 -0.6
20 -0.15
21 0.14
22 -0.29
23 -0.15
24 -0.15
25 -0.28
26 0.14
27 0.14
3 -0.12
34 0.15
37 0.15
38 0.4
4 0.14
47 0.15
48 0.15
5 0.28
52 0.15
53 0.15
54 0.15
6 0.14
7 -0.28
8 -0.04
9 -0.29

> <PUBCHEM_EFFECTIVE_ROTOR_COUNT>
8

> <PUBCHEM_PHARMACOPHORE_FEATURES>
10
1 1 acceptor
1 17 hydrophobe
1 2 cation
1 2 donor
1 21 hydrophobe
3 25 26 27 hydrophobe
4 13 14 16 22 hydrophobe
4 4 6 7 15 hydrophobe
6 10 12 19 20 23 24 rings
6 2 3 8 10 11 12 rings

> <PUBCHEM_HEAVY_ATOM_COUNT>
27

> <PUBCHEM_ATOM_DEF_STEREO_COUNT>
0

> <PUBCHEM_ATOM_UDEF_STEREO_COUNT>
0

> <PUBCHEM_BOND_DEF_STEREO_COUNT>
2

> <PUBCHEM_BOND_UDEF_STEREO_COUNT>
0

> <PUBCHEM_ISOTOPIC_ATOM_COUNT>
0

> <PUBCHEM_COMPONENT_COUNT>
1

> <PUBCHEM_CACTVS_TAUTO_COUNT>
12

> <PUBCHEM_CONFORMER_ID>
005D74D10000000C

> <PUBCHEM_MMFF94_ENERGY>
51.6713

> <PUBCHEM_FEATURE_SELFOVERLAP>
50.776

> <PUBCHEM_SHAPE_FINGERPRINT>
104564 63 18261958444464872421
10675989 125 17904784188875576413
10708813 3 18410579491416108636
10816530 23 17313114046500669080
10871710 139 18334575698558602845
1100329 8 18196379336462841888
11513181 2 17391071808811460805
12156800 1 17027170650054939901
12422481 6 18044908282764408819
12788726 201 17900805064510049573
13140716 1 18408888451523404872
13583140 156 17628918125767220809
14117953 113 17399526013651975381
14251751 93 18335420162312550993
14464042 87 18261399892963981973
15297060 5 17459477830254469051
15968369 153 18188483563323348969
17492 54 18193002740781368533
19930381 70 17111290711172592843
20691752 17 18131355224019203716
21197605 99 18337092498524254489
229495 10 17199959069805452175
23227448 37 18409726305010622875
23558518 356 18268419153351835953
238 59 16246050866570232430
3298306 158 18198902702622033893
338550 245 18341321215565325165
392239 28 18057587799380046587
463206 1 18409728486722991409
469060 322 17418370294563926919
6287921 2 17101424179551789905

> <PUBCHEM_SHAPE_MULTIPOLES>
544.8
8
4.63
2.09
1.71
2.34
0.15
3.62
-0.51
-1.36
0.78
-0.91
-1.33
-1.85

> <PUBCHEM_SHAPE_SELFOVERLAP>
1116.3

> <PUBCHEM_SHAPE_VOLUME>
313.9

> <PUBCHEM_COORDINATE_TYPE>
2
5
10

$$$$

