442018
  -OEChem-07051212562D

 65 71  0     1  0  0  0  0  0999 V2000
    6.7281    1.7089    0.0000 O   0  0  0  0  0  0  0  0  0  0  0  0
    6.3861   -0.0800    0.0000 O   0  0  0  0  0  0  0  0  0  0  0  0
    5.5000   -0.5644    0.0000 O   0  0  0  0  0  0  0  0  0  0  0  0
    5.6060   -2.1410    0.0000 O   0  0  0  0  0  0  0  0  0  0  0  0
    9.5633    1.7526    0.0000 O   0  0  0  0  0  0  0  0  0  0  0  0
    9.1512    2.4605    0.0000 O   0  0  0  0  0  0  0  0  0  0  0  0
    7.9755    3.2722    0.0000 O   0  0  0  0  0  0  0  0  0  0  0  0
   10.8455    1.7218    0.0000 O   0  0  0  0  0  0  0  0  0  0  0  0
    7.3164   -0.1972    0.0000 C   0  0  1  0  0  0  0  0  0  0  0  0
    8.2173   -0.6311    0.0000 C   0  0  2  0  0  0  0  0  0  0  0  0
    7.0938    0.7777    0.0000 C   0  0  1  0  0  0  0  0  0  0  0  0
    7.7173    1.5595    0.0000 C   0  0  1  0  0  0  0  0  0  0  0  0
    6.4468   -0.7707    0.0000 C   0  0  2  0  0  0  0  0  0  0  0  0
    9.1183   -0.1972    0.0000 C   0  0  1  0  0  0  0  0  0  0  0  0
    8.3112   -1.6685    0.0000 C   0  0  1  0  0  0  0  0  0  0  0  0
    6.5166   -1.8100    0.0000 C   0  0  2  0  0  0  0  0  0  0  0  0
    9.3408    0.7777    0.0000 C   0  0  1  0  0  0  0  0  0  0  0  0
    8.7173    1.5595    0.0000 C   0  0  2  0  0  0  0  0  0  0  0  0
    7.4551   -2.2619    0.0000 C   0  0  0  0  0  0  0  0  0  0  0  0
    4.9932   -1.3903    0.0000 C   0  0  3  0  0  0  0  0  0  0  0  0
    8.3408    2.3414    0.0000 C   0  0  0  0  0  0  0  0  0  0  0  0
    9.9730   -0.7049    0.0000 C   0  0  0  0  0  0  0  0  0  0  0  0
    9.2171   -2.0920    0.0000 C   0  0  0  0  0  0  0  0  0  0  0  0
   10.3311    0.8642    0.0000 C   0  0  0  0  0  0  0  0  0  0  0  0
    6.5836   -2.8077    0.0000 C   0  0  0  0  0  0  0  0  0  0  0  0
   10.7210   -0.0502    0.0000 C   0  0  0  0  0  0  0  0  0  0  0  0
    3.9955   -1.4574    0.0000 C   0  0  0  0  0  0  0  0  0  0  0  0
    5.7531   -3.3646    0.0000 C   0  0  0  0  0  0  0  0  0  0  0  0
   11.6960   -0.2727    0.0000 C   0  0  0  0  0  0  0  0  0  0  0  0
    7.4812   -3.2485    0.0000 C   0  0  0  0  0  0  0  0  0  0  0  0
    3.4386   -0.6268    0.0000 C   0  0  0  0  0  0  0  0  0  0  0  0
    3.5547   -2.3550    0.0000 C   0  0  0  0  0  0  0  0  0  0  0  0
    2.4408   -0.6938    0.0000 C   0  0  0  0  0  0  0  0  0  0  0  0
    2.5569   -2.4220    0.0000 C   0  0  0  0  0  0  0  0  0  0  0  0
    2.0000   -1.5914    0.0000 C   0  0  0  0  0  0  0  0  0  0  0  0
    6.7915    0.4714    0.0000 H   0  0  0  0  0  0  0  0  0  0  0  0
    6.2816    0.5270    0.0000 H   0  0  0  0  0  0  0  0  0  0  0  0
    5.7904   -0.2307    0.0000 H   0  0  0  0  0  0  0  0  0  0  0  0
    9.0813   -1.0464    0.0000 H   0  0  0  0  0  0  0  0  0  0  0  0
    8.3635   -2.2863    0.0000 H   0  0  0  0  0  0  0  0  0  0  0  0
    9.3334    1.6289    0.0000 H   0  0  0  0  0  0  0  0  0  0  0  0
    7.0945   -2.7662    0.0000 H   0  0  0  0  0  0  0  0  0  0  0  0
    7.8903   -2.7035    0.0000 H   0  0  0  0  0  0  0  0  0  0  0  0
    8.7511    1.8765    0.0000 H   0  0  0  0  0  0  0  0  0  0  0  0
    8.8699    2.6646    0.0000 H   0  0  0  0  0  0  0  0  0  0  0  0
   10.0296   -1.3223    0.0000 H   0  0  0  0  0  0  0  0  0  0  0  0
    8.9546   -2.6536    0.0000 H   0  0  0  0  0  0  0  0  0  0  0  0
    9.7788   -2.3545    0.0000 H   0  0  0  0  0  0  0  0  0  0  0  0
    9.4796   -1.5303    0.0000 H   0  0  0  0  0  0  0  0  0  0  0  0
   10.1558    1.9354    0.0000 H   0  0  0  0  0  0  0  0  0  0  0  0
    8.8020    2.9728    0.0000 H   0  0  0  0  0  0  0  0  0  0  0  0
    5.4078   -2.8497    0.0000 H   0  0  0  0  0  0  0  0  0  0  0  0
    5.2382   -3.7099    0.0000 H   0  0  0  0  0  0  0  0  0  0  0  0
    6.0984   -3.8796    0.0000 H   0  0  0  0  0  0  0  0  0  0  0  0
    7.3624    3.3646    0.0000 H   0  0  0  0  0  0  0  0  0  0  0  0
   11.5580   -0.8772    0.0000 H   0  0  0  0  0  0  0  0  0  0  0  0
   12.3004   -0.4107    0.0000 H   0  0  0  0  0  0  0  0  0  0  0  0
   11.8339    0.3317    0.0000 H   0  0  0  0  0  0  0  0  0  0  0  0
    7.5228   -3.8671    0.0000 H   0  0  0  0  0  0  0  0  0  0  0  0
    7.9962   -2.9032    0.0000 H   0  0  0  0  0  0  0  0  0  0  0  0
    3.7119   -0.0703    0.0000 H   0  0  0  0  0  0  0  0  0  0  0  0
    3.9000   -2.8699    0.0000 H   0  0  0  0  0  0  0  0  0  0  0  0
    2.0955   -0.1789    0.0000 H   0  0  0  0  0  0  0  0  0  0  0  0
    2.2836   -2.9785    0.0000 H   0  0  0  0  0  0  0  0  0  0  0  0
    1.3814   -1.6330    0.0000 H   0  0  0  0  0  0  0  0  0  0  0  0
  1 11  1  0  0  0  0
  1 12  1  0  0  0  0
 10  2  1  6  0  0  0
  2 20  1  0  0  0  0
  3 13  1  0  0  0  0
  3 20  1  0  0  0  0
  4 16  1  0  0  0  0
  4 20  1  0  0  0  0
 17  5  1  1  0  0  0
  5 50  1  0  0  0  0
 18  6  1  1  0  0  0
  6 51  1  0  0  0  0
  7 21  1  0  0  0  0
  7 55  1  0  0  0  0
  8 24  2  0  0  0  0
  9 10  1  0  0  0  0
  9 11  1  0  0  0  0
  9 13  1  0  0  0  0
  9 36  1  1  0  0  0
 10 14  1  0  0  0  0
 10 15  1  0  0  0  0
 11 12  1  0  0  0  0
 11 37  1  1  0  0  0
 12 18  1  0  0  0  0
 12 21  1  1  0  0  0
 13 16  1  0  0  0  0
 13 38  1  1  0  0  0
 14 17  1  0  0  0  0
 14 22  1  0  0  0  0
 14 39  1  6  0  0  0
 15 19  1  0  0  0  0
 15 23  1  6  0  0  0
 15 40  1  0  0  0  0
 16 19  1  0  0  0  0
 16 25  1  1  0  0  0
 17 18  1  0  0  0  0
 17 24  1  0  0  0  0
 18 41  1  0  0  0  0
 19 42  1  0  0  0  0
 19 43  1  0  0  0  0
 20 27  1  0  0  0  0
 21 44  1  0  0  0  0
 21 45  1  0  0  0  0
 22 26  2  0  0  0  0
 22 46  1  0  0  0  0
 23 47  1  0  0  0  0
 23 48  1  0  0  0  0
 23 49  1  0  0  0  0
 24 26  1  0  0  0  0
 25 28  1  0  0  0  0
 25 30  2  0  0  0  0
 26 29  1  0  0  0  0
 27 31  2  0  0  0  0
 27 32  1  0  0  0  0
 28 52  1  0  0  0  0
 28 53  1  0  0  0  0
 28 54  1  0  0  0  0
 29 56  1  0  0  0  0
 29 57  1  0  0  0  0
 29 58  1  0  0  0  0
 30 59  1  0  0  0  0
 30 60  1  0  0  0  0
 31 33  1  0  0  0  0
 31 61  1  0  0  0  0
 32 34  2  0  0  0  0
 32 62  1  0  0  0  0
 33 35  2  0  0  0  0
 33 63  1  0  0  0  0
 34 35  1  0  0  0  0
 34 64  1  0  0  0  0
 35 65  1  0  0  0  0
M  END
> <PUBCHEM_COMPOUND_CID>
442018

> <PUBCHEM_COMPOUND_CANONICALIZED>
1

> <PUBCHEM_CACTVS_COMPLEXITY>
1050

> <PUBCHEM_CACTVS_HBOND_ACCEPTOR>
8

> <PUBCHEM_CACTVS_HBOND_DONOR>
3

> <PUBCHEM_CACTVS_ROTATABLE_BOND>
3

> <PUBCHEM_CACTVS_SUBSKEYS>
AAADceB4PAAAAAAAAAAAAAAAEgAAASIAAAA0YIAABogSAACBAAAAGgAACAAADVSgmAIyCIAABgCIAqBSAAICAAAgAAAIiAFACMgZNjaAMRiicAAl4AEPqYfK7PzOgAAAAAAAAADCAAYQADCAAAAAAAAAAA==

> <PUBCHEM_IUPAC_INCHI>
InChI=1S/C27H30O8/c1-13(2)23-11-15(4)26-17-10-14(3)19(29)25(17,31)22(30)24(12-28)21(32-24)18(26)20(23)33-27(34-23,35-26)16-8-6-5-7-9-16/h5-10,15,17-18,20-22,28,30-31H,1,11-12H2,2-4H3/t15-,17-,18-,20-,21+,22-,23-,24+,25-,26+,27?/m1/s1

> <PUBCHEM_IUPAC_INCHIKEY>
LGEROVMQYFTBDI-CDBNQIKXSA-N

> <PUBCHEM_XLOGP3_AA>
1.5

> <PUBCHEM_EXACT_MASS>
482.194068

> <PUBCHEM_MOLECULAR_FORMULA>
C27H30O8

> <PUBCHEM_MOLECULAR_WEIGHT>
482.5223

> <PUBCHEM_OPENEYE_CAN_SMILES>
CC1CC2(C3C4C1(C5C=C(C(=O)C5(C(C6(C4O6)CO)O)O)C)OC(O3)(O2)C7=CC=CC=C7)C(=C)C

> <PUBCHEM_OPENEYE_ISO_SMILES>
C[C@@H]1C[C@]2([C@H]3[C@H]4[C@]1([C@@H]5C=C(C(=O)[C@]5([C@@H]([C@@]6([C@H]4O6)CO)O)O)C)OC(O3)(O2)C7=CC=CC=C7)C(=C)C

> <PUBCHEM_CACTVS_TPSA>
118

> <PUBCHEM_MONOISOTOPIC_WEIGHT>
482.194068

> <PUBCHEM_TOTAL_CHARGE>
0

> <PUBCHEM_HEAVY_ATOM_COUNT>
35

> <PUBCHEM_ATOM_DEF_STEREO_COUNT>
10

> <PUBCHEM_ATOM_UDEF_STEREO_COUNT>
1

> <PUBCHEM_BOND_DEF_STEREO_COUNT>
0

> <PUBCHEM_BOND_UDEF_STEREO_COUNT>
0

> <PUBCHEM_ISOTOPIC_ATOM_COUNT>
0

> <PUBCHEM_COMPONENT_COUNT>
1

> <PUBCHEM_CACTVS_TAUTO_COUNT>
3

> <PUBCHEM_COORDINATE_TYPE>
1
5
255

> <PUBCHEM_BONDANNOTATIONS>
11  37  5
12  21  5
13  38  5
14  39  6
15  23  6
16  25  5
10  2  6
20  27  3
27  31  8
27  32  8
31  33  8
32  34  8
33  35  8
34  35  8
17  5  5
18  6  5
9  36  5

$$$$

