42140
  -OEChem-07051213113D

 21 23  0     0  0  0  0  0  0999 V2000
   -1.5927    2.8199    0.0006 Cl  0  0  0  0  0  0  0  0  0  0  0  0
    2.9857   -2.8266   -0.0004 Cl  0  0  0  0  0  0  0  0  0  0  0  0
    3.9337    2.5902    0.0004 Cl  0  0  0  0  0  0  0  0  0  0  0  0
   -4.5856    1.6785   -0.0007 Cl  0  0  0  0  0  0  0  0  0  0  0  0
    5.0658   -0.3871   -0.0003 Cl  0  0  0  0  0  0  0  0  0  0  0  0
   -5.0067   -1.4804    0.0001 Cl  0  0  0  0  0  0  0  0  0  0  0  0
    0.1023   -1.7996    0.0005 O   0  0  0  0  0  0  0  0  0  0  0  0
    0.5950    0.4075   -0.0001 C   0  0  0  0  0  0  0  0  0  0  0  0
   -0.8234    0.2636   -0.0001 C   0  0  0  0  0  0  0  0  0  0  0  0
    1.1112   -0.8845    0.0001 C   0  0  0  0  0  0  0  0  0  0  0  0
   -1.0698   -1.1058    0.0002 C   0  0  0  0  0  0  0  0  0  0  0  0
    1.4963    1.4880   -0.0002 C   0  0  0  0  0  0  0  0  0  0  0  0
   -1.9234    1.1411   -0.0002 C   0  0  0  0  0  0  0  0  0  0  0  0
    2.4728   -1.1824    0.0000 C   0  0  0  0  0  0  0  0  0  0  0  0
   -2.3440   -1.6710    0.0004 C   0  0  0  0  0  0  0  0  0  0  0  0
    2.8717    1.2195    0.0000 C   0  0  0  0  0  0  0  0  0  0  0  0
   -3.2170    0.6020   -0.0004 C   0  0  0  0  0  0  0  0  0  0  0  0
    3.3490   -0.0931   -0.0002 C   0  0  0  0  0  0  0  0  0  0  0  0
   -3.4209   -0.7798    0.0001 C   0  0  0  0  0  0  0  0  0  0  0  0
    1.1465    2.5148   -0.0002 H   0  0  0  0  0  0  0  0  0  0  0  0
   -2.4777   -2.7471    0.0007 H   0  0  0  0  0  0  0  0  0  0  0  0
  1 13  1  0  0  0  0
  2 14  1  0  0  0  0
  3 16  1  0  0  0  0
  4 17  1  0  0  0  0
  5 18  1  0  0  0  0
  6 19  1  0  0  0  0
  7 10  1  0  0  0  0
  7 11  1  0  0  0  0
  8  9  1  0  0  0  0
  8 10  1  0  0  0  0
  8 12  2  0  0  0  0
  9 11  1  0  0  0  0
  9 13  2  0  0  0  0
 10 14  2  0  0  0  0
 11 15  2  0  0  0  0
 12 16  1  0  0  0  0
 12 20  1  0  0  0  0
 13 17  1  0  0  0  0
 14 18  1  0  0  0  0
 15 19  1  0  0  0  0
 15 21  1  0  0  0  0
 16 18  2  0  0  0  0
 17 19  2  0  0  0  0
M  END
> <PUBCHEM_COMPOUND_CID>
42140

> <PUBCHEM_CONFORMER_RMSD>
0.4

> <PUBCHEM_CONFORMER_DIVERSEORDER>
1

> <PUBCHEM_MMFF94_PARTIAL_CHARGES>
19
1 -0.18
10 0.14
11 0.14
12 -0.15
13 0.18
14 0.18
15 -0.15
16 0.18
17 0.18
18 0.18
19 0.18
2 -0.18
20 0.15
21 0.15
3 -0.18
4 -0.18
5 -0.18
6 -0.18
7 -0.28

> <PUBCHEM_EFFECTIVE_ROTOR_COUNT>
0

> <PUBCHEM_PHARMACOPHORE_FEATURES>
4
1 7 acceptor
5 7 8 9 10 11 rings
6 8 10 12 14 16 18 rings
6 9 11 13 15 17 19 rings

> <PUBCHEM_HEAVY_ATOM_COUNT>
19

> <PUBCHEM_ATOM_DEF_STEREO_COUNT>
0

> <PUBCHEM_ATOM_UDEF_STEREO_COUNT>
0

> <PUBCHEM_BOND_DEF_STEREO_COUNT>
0

> <PUBCHEM_BOND_UDEF_STEREO_COUNT>
0

> <PUBCHEM_ISOTOPIC_ATOM_COUNT>
0

> <PUBCHEM_COMPONENT_COUNT>
1

> <PUBCHEM_CACTVS_TAUTO_COUNT>
1

> <PUBCHEM_CONFORMER_ID>
0000A49C00000001

> <PUBCHEM_MMFF94_ENERGY>
41.9008

> <PUBCHEM_FEATURE_SELFOVERLAP>
20.499

> <PUBCHEM_SHAPE_FINGERPRINT>
10411042 1 17113819047273344371
10498660 4 18411981351656638293
10608611 8 18410858763016327028
10616163 171 18408602560877104719
10967382 1 18338516326694308006
1100329 8 17544756085312318480
11471102 20 18338519634109334822
11578080 2 17058667376408944166
12107183 9 17832702744392825299
12403259 226 18339084886081136012
13140716 1 18339071701000691691
14223421 5 18411702109957023612
14790565 3 17979346469689583748
15196674 1 18410856538270759941
15375462 6 18410855425773698214
15442244 35 18194402414519274674
15536298 74 18335701615998703492
16945 1 18338797917661580870
17492 89 18410575123582457667
17802600 8 18409733949899571728
17804303 29 18409445895048820356
18186145 218 18336825389479951373
19591789 44 18265332794147767706
200 152 18113621174835592779
20510252 161 18335700529335275553
20645477 70 18260824891295606358
21267235 1 18410847742109263407
21421861 104 17773042079850417834
21501502 16 18409166636222343987
221490 88 18411974784535396666
2334 1 18410573946560048993
23366157 5 18131068255921648826
23402539 116 18335989722315242173
23463225 33 18411699906543692782
23557571 272 18261384538202639207
23558518 356 18269546311910793865
23559900 14 18335706108476726210
238 59 16188365607326132941
2748010 2 18411416176798835607
335352 9 18194683898122746079
34934 24 18409454717091156766
350125 39 18411417332425015700
3545911 37 18410855498851621149
4214541 1 18410855481819425505
4409770 3 16834326485689539660
474 4 17631729340665667996
5104073 3 18411699876600391321
7364860 26 18408603673848426294
77779 3 18410572890246065995
9709674 26 18411132550001935106
9981440 41 18196938760512046240

> <PUBCHEM_SHAPE_MULTIPOLES>
396.36
9.46
2.96
0.62
1.25
0.52
0
0
0
-0.74
0
0
0.01
0

> <PUBCHEM_SHAPE_SELFOVERLAP>
833.715

> <PUBCHEM_SHAPE_VOLUME>
230.8

> <PUBCHEM_COORDINATE_TYPE>
2
5
10

$$$$

