3930
  -OEChem-06251223463D

 53 52  0     0  0  0  0  0  0999 V2000
   -4.9458   -1.3468    1.2771 O   0  0  0  0  0  0  0  0  0  0  0  0
   -5.6968    0.6691    0.4649 N   0  0  0  0  0  0  0  0  0  0  0  0
   -0.3204   -2.2315   -0.9987 C   0  0  0  0  0  0  0  0  0  0  0  0
    0.9044   -1.9573   -1.8747 C   0  0  0  0  0  0  0  0  0  0  0  0
   -1.3406   -1.0966   -1.1145 C   0  0  0  0  0  0  0  0  0  0  0  0
    1.9808   -3.0454   -1.7815 C   0  0  0  0  0  0  0  0  0  0  0  0
   -2.5771   -1.2980   -0.2356 C   0  0  0  0  0  0  0  0  0  0  0  0
    2.5521   -3.2958   -0.3814 C   0  0  0  0  0  0  0  0  0  0  0  0
   -3.5817   -0.1511   -0.3339 C   0  0  0  0  0  0  0  0  0  0  0  0
    0.0689    2.8961    0.5702 C   0  0  0  0  0  0  0  0  0  0  0  0
    1.1353    3.1493   -0.5004 C   0  0  0  0  0  0  0  0  0  0  0  0
    3.2488   -2.0966    0.1921 C   0  0  0  0  0  0  0  0  0  0  0  0
    0.6506    2.3710    1.8876 C   0  0  0  0  0  0  0  0  0  0  0  0
    0.5539    3.6621   -1.8203 C   0  0  0  0  0  0  0  0  0  0  0  0
    2.8769   -1.4957    1.3326 C   0  0  0  0  0  0  0  0  0  0  0  0
    3.5627   -0.2880    1.9010 C   0  0  0  0  0  0  0  0  0  0  0  0
   -4.7913   -0.3666    0.5546 C   0  0  0  0  0  0  0  0  0  0  0  0
    1.4071    1.0826    1.7258 C   0  0  0  0  0  0  0  0  0  0  0  0
    2.7075    0.9450    2.0305 C   0  0  0  0  0  0  0  0  0  0  0  0
    1.6045    3.8943   -2.8953 C   0  0  0  0  0  0  0  0  0  0  0  0
   -0.7838   -3.1796   -1.2955 H   0  0  0  0  0  0  0  0  0  0  0  0
   -0.0266   -2.3266    0.0518 H   0  0  0  0  0  0  0  0  0  0  0  0
    1.3398   -0.9869   -1.6066 H   0  0  0  0  0  0  0  0  0  0  0  0
    0.5867   -1.8746   -2.9216 H   0  0  0  0  0  0  0  0  0  0  0  0
   -1.6568   -0.9990   -2.1605 H   0  0  0  0  0  0  0  0  0  0  0  0
   -0.8593   -0.1497   -0.8407 H   0  0  0  0  0  0  0  0  0  0  0  0
    2.7991   -2.7819   -2.4641 H   0  0  0  0  0  0  0  0  0  0  0  0
    1.5611   -3.9877   -2.1556 H   0  0  0  0  0  0  0  0  0  0  0  0
   -3.0685   -2.2386   -0.5149 H   0  0  0  0  0  0  0  0  0  0  0  0
   -2.2599   -1.4131    0.8087 H   0  0  0  0  0  0  0  0  0  0  0  0
    1.7673   -3.6608    0.2905 H   0  0  0  0  0  0  0  0  0  0  0  0
    3.2878   -4.1070   -0.4500 H   0  0  0  0  0  0  0  0  0  0  0  0
   -3.9279   -0.0457   -1.3687 H   0  0  0  0  0  0  0  0  0  0  0  0
   -3.1029    0.7906   -0.0403 H   0  0  0  0  0  0  0  0  0  0  0  0
   -0.4738    3.8278    0.7710 H   0  0  0  0  0  0  0  0  0  0  0  0
   -0.6677    2.1795    0.1863 H   0  0  0  0  0  0  0  0  0  0  0  0
    1.6858    2.2240   -0.7077 H   0  0  0  0  0  0  0  0  0  0  0  0
    1.8644    3.8754   -0.1203 H   0  0  0  0  0  0  0  0  0  0  0  0
    4.0931   -1.7047   -0.3696 H   0  0  0  0  0  0  0  0  0  0  0  0
   -0.1705    2.2020    2.5945 H   0  0  0  0  0  0  0  0  0  0  0  0
    1.2893    3.1449    2.3309 H   0  0  0  0  0  0  0  0  0  0  0  0
   -0.1826    2.9418   -2.1965 H   0  0  0  0  0  0  0  0  0  0  0  0
    0.0171    4.6010   -1.6399 H   0  0  0  0  0  0  0  0  0  0  0  0
    2.0410   -1.9018    1.8979 H   0  0  0  0  0  0  0  0  0  0  0  0
    3.9407   -0.5480    2.8972 H   0  0  0  0  0  0  0  0  0  0  0  0
    4.4389   -0.0269    1.2946 H   0  0  0  0  0  0  0  0  0  0  0  0
    0.8381    0.2413    1.3410 H   0  0  0  0  0  0  0  0  0  0  0  0
    3.2353    1.8152    2.4177 H   0  0  0  0  0  0  0  0  0  0  0  0
    2.1345    2.9657   -3.1298 H   0  0  0  0  0  0  0  0  0  0  0  0
    2.3396    4.6363   -2.5682 H   0  0  0  0  0  0  0  0  0  0  0  0
    1.1349    4.2605   -3.8135 H   0  0  0  0  0  0  0  0  0  0  0  0
   -6.5546    0.6606    1.0066 H   0  0  0  0  0  0  0  0  0  0  0  0
   -5.5460    1.4710   -0.1388 H   0  0  0  0  0  0  0  0  0  0  0  0
  1 17  2  0  0  0  0
  2 17  1  0  0  0  0
  2 52  1  0  0  0  0
  2 53  1  0  0  0  0
  3  4  1  0  0  0  0
  3  5  1  0  0  0  0
  3 21  1  0  0  0  0
  3 22  1  0  0  0  0
  4  6  1  0  0  0  0
  4 23  1  0  0  0  0
  4 24  1  0  0  0  0
  5  7  1  0  0  0  0
  5 25  1  0  0  0  0
  5 26  1  0  0  0  0
  6  8  1  0  0  0  0
  6 27  1  0  0  0  0
  6 28  1  0  0  0  0
  7  9  1  0  0  0  0
  7 29  1  0  0  0  0
  7 30  1  0  0  0  0
  8 12  1  0  0  0  0
  8 31  1  0  0  0  0
  8 32  1  0  0  0  0
  9 17  1  0  0  0  0
  9 33  1  0  0  0  0
  9 34  1  0  0  0  0
 10 11  1  0  0  0  0
 10 13  1  0  0  0  0
 10 35  1  0  0  0  0
 10 36  1  0  0  0  0
 11 14  1  0  0  0  0
 11 37  1  0  0  0  0
 11 38  1  0  0  0  0
 12 15  2  0  0  0  0
 12 39  1  0  0  0  0
 13 18  1  0  0  0  0
 13 40  1  0  0  0  0
 13 41  1  0  0  0  0
 14 20  1  0  0  0  0
 14 42  1  0  0  0  0
 14 43  1  0  0  0  0
 15 16  1  0  0  0  0
 15 44  1  0  0  0  0
 16 19  1  0  0  0  0
 16 45  1  0  0  0  0
 16 46  1  0  0  0  0
 18 19  2  0  0  0  0
 18 47  1  0  0  0  0
 19 48  1  0  0  0  0
 20 49  1  0  0  0  0
 20 50  1  0  0  0  0
 20 51  1  0  0  0  0
M  END
> <PUBCHEM_COMPOUND_CID>
3930

> <PUBCHEM_CONFORMER_RMSD>
1.4

> <PUBCHEM_CONFORMER_DIVERSEORDER>
1
36
69
94
9
48
23
121
30
33
109
17
92
112
26
67
12
29
123
119
95
13
8
82
79
56
40
42
39
65
6
45
85
35
77
124
2
5
91
18
58
96
66
80
24
113
143
15
115
116
106
47
55
127
128
60
84
75
3
130
54
107
49
14
108
34
103
117
59
145
11
31
38
20
131
43
89
110
118
22
68
57
7
72
104
126
52
62
76
142
137
71
10
140
28
129
139
19
111
90
99
102
133
122
105
83
37
32
27
136
81
53
4
100
21
64
114
87
138
135
25
141
16
70
51
88
120
46
98
97
61
78
93
44
125
63
132
41
73
101
144
86
74
50
134

> <PUBCHEM_MMFF94_PARTIAL_CHARGES>
17
1 -0.57
12 -0.29
13 0.14
15 -0.29
16 0.28
17 0.57
18 -0.29
19 -0.29
2 -0.8
39 0.15
44 0.15
47 0.15
48 0.15
52 0.37
53 0.37
8 0.14
9 0.06

> <PUBCHEM_EFFECTIVE_ROTOR_COUNT>
14

> <PUBCHEM_PHARMACOPHORE_FEATURES>
4
1 1 acceptor
1 2 donor
1 20 hydrophobe
5 10 11 13 14 18 hydrophobe

> <PUBCHEM_HEAVY_ATOM_COUNT>
20

> <PUBCHEM_ATOM_DEF_STEREO_COUNT>
0

> <PUBCHEM_ATOM_UDEF_STEREO_COUNT>
0

> <PUBCHEM_BOND_DEF_STEREO_COUNT>
0

> <PUBCHEM_BOND_UDEF_STEREO_COUNT>
2

> <PUBCHEM_ISOTOPIC_ATOM_COUNT>
0

> <PUBCHEM_COMPONENT_COUNT>
1

> <PUBCHEM_CACTVS_TAUTO_COUNT>
2

> <PUBCHEM_CONFORMER_ID>
00000F5A00000001

> <PUBCHEM_MMFF94_ENERGY>
3.7921

> <PUBCHEM_FEATURE_SELFOVERLAP>
20.297

> <PUBCHEM_SHAPE_FINGERPRINT>
10688039 33 18268431428531969698
11112662 9 14115818740677677710
11200772 48 17479424878507534884
11244481 83 17774432764073982635
12156800 1 15506829863163001208
13075007 39 18410284792741528731
13965767 371 17679620850278315034
17859628 37 18040446481331929694
21452121 99 17259630764468038574
3187 122 18197507430786879205
5283268 108 17970346125212709834

> <PUBCHEM_SHAPE_MULTIPOLES>
400.74
7.94
5.48
2.62
15.02
4.07
0.79
-4.45
-4.51
-4.4
4.25
-2.1
1.94
0.19

> <PUBCHEM_SHAPE_SELFOVERLAP>
741.079

> <PUBCHEM_SHAPE_VOLUME>
250.8

> <PUBCHEM_COORDINATE_TYPE>
2
5
10

$$$$

