14363
  -OEChem-06241222432D

 37 37  0     0  0  0  0  0  0999 V2000
    3.8660    0.9594    0.0000 O   0  0  0  0  0  0  0  0  0  0  0  0
    4.5000    0.3254    0.0000 O   0  0  0  0  0  0  0  0  0  0  0  0
    3.0000    2.4594    0.0000 O   0  0  0  0  0  0  0  0  0  0  0  0
    6.0000    1.1915    0.0000 O   0  0  0  0  0  0  0  0  0  0  0  0
    4.7320    2.4594    0.0000 N   0  0  0  0  0  0  0  0  0  0  0  0
    6.0000   -0.5406    0.0000 N   0  0  0  0  0  0  0  0  0  0  0  0
    3.0000   -1.5406    0.0000 C   0  0  0  0  0  0  0  0  0  0  0  0
    3.0000   -0.5406    0.0000 C   0  0  0  0  0  0  0  0  0  0  0  0
    2.1910   -2.1284    0.0000 C   0  0  0  0  0  0  0  0  0  0  0  0
    3.8090   -2.1284    0.0000 C   0  0  0  0  0  0  0  0  0  0  0  0
    2.5000   -3.0794    0.0000 C   0  0  0  0  0  0  0  0  0  0  0  0
    3.5000   -3.0794    0.0000 C   0  0  0  0  0  0  0  0  0  0  0  0
    3.0000    0.4594    0.0000 C   0  0  0  0  0  0  0  0  0  0  0  0
    4.0000   -0.5406    0.0000 C   0  0  0  0  0  0  0  0  0  0  0  0
    2.0000   -0.5406    0.0000 C   0  0  0  0  0  0  0  0  0  0  0  0
    3.8660    1.9594    0.0000 C   0  0  0  0  0  0  0  0  0  0  0  0
    5.5000    0.3254    0.0000 C   0  0  0  0  0  0  0  0  0  0  0  0
    3.5524   -1.2591    0.0000 H   0  0  0  0  0  0  0  0  0  0  0  0
    1.8810   -1.5914    0.0000 H   0  0  0  0  0  0  0  0  0  0  0  0
    1.6246   -2.3805    0.0000 H   0  0  0  0  0  0  0  0  0  0  0  0
    4.3754   -2.3805    0.0000 H   0  0  0  0  0  0  0  0  0  0  0  0
    4.1190   -1.5914    0.0000 H   0  0  0  0  0  0  0  0  0  0  0  0
    1.8936   -3.2083    0.0000 H   0  0  0  0  0  0  0  0  0  0  0  0
    2.5648   -3.6960    0.0000 H   0  0  0  0  0  0  0  0  0  0  0  0
    3.4352   -3.6960    0.0000 H   0  0  0  0  0  0  0  0  0  0  0  0
    4.1064   -3.2083    0.0000 H   0  0  0  0  0  0  0  0  0  0  0  0
    2.7880    1.0420    0.0000 H   0  0  0  0  0  0  0  0  0  0  0  0
    2.3894    0.3518    0.0000 H   0  0  0  0  0  0  0  0  0  0  0  0
    3.8923   -1.1512    0.0000 H   0  0  0  0  0  0  0  0  0  0  0  0
    4.5826   -0.7526    0.0000 H   0  0  0  0  0  0  0  0  0  0  0  0
    2.0000    0.0794    0.0000 H   0  0  0  0  0  0  0  0  0  0  0  0
    1.3800   -0.5406    0.0000 H   0  0  0  0  0  0  0  0  0  0  0  0
    2.0000   -1.1606    0.0000 H   0  0  0  0  0  0  0  0  0  0  0  0
    6.6200   -0.5406    0.0000 H   0  0  0  0  0  0  0  0  0  0  0  0
    5.6900   -1.0775    0.0000 H   0  0  0  0  0  0  0  0  0  0  0  0
    4.7320    3.0794    0.0000 H   0  0  0  0  0  0  0  0  0  0  0  0
    5.2690    2.1494    0.0000 H   0  0  0  0  0  0  0  0  0  0  0  0
  1 13  1  0  0  0  0
  1 16  1  0  0  0  0
  2 14  1  0  0  0  0
  2 17  1  0  0  0  0
  3 16  2  0  0  0  0
  4 17  2  0  0  0  0
  5 16  1  0  0  0  0
  5 36  1  0  0  0  0
  5 37  1  0  0  0  0
  6 17  1  0  0  0  0
  6 34  1  0  0  0  0
  6 35  1  0  0  0  0
  7  8  1  0  0  0  0
  7  9  1  0  0  0  0
  7 10  1  0  0  0  0
  7 18  1  0  0  0  0
  8 13  1  0  0  0  0
  8 14  1  0  0  0  0
  8 15  1  0  0  0  0
  9 11  1  0  0  0  0
  9 19  1  0  0  0  0
  9 20  1  0  0  0  0
 10 12  1  0  0  0  0
 10 21  1  0  0  0  0
 10 22  1  0  0  0  0
 11 12  1  0  0  0  0
 11 23  1  0  0  0  0
 11 24  1  0  0  0  0
 12 25  1  0  0  0  0
 12 26  1  0  0  0  0
 13 27  1  0  0  0  0
 13 28  1  0  0  0  0
 14 29  1  0  0  0  0
 14 30  1  0  0  0  0
 15 31  1  0  0  0  0
 15 32  1  0  0  0  0
 15 33  1  0  0  0  0
M  END
> <PUBCHEM_COMPOUND_CID>
14363

> <PUBCHEM_COMPOUND_CANONICALIZED>
1

> <PUBCHEM_CACTVS_COMPLEXITY>
269

> <PUBCHEM_CACTVS_HBOND_ACCEPTOR>
4

> <PUBCHEM_CACTVS_HBOND_DONOR>
2

> <PUBCHEM_CACTVS_ROTATABLE_BOND>
7

> <PUBCHEM_CACTVS_SUBSKEYS>
AAADceBzOAAAAAAAAAAAAAAAAAAAAYAAAAAAAAAAAAAAAAAAAAAAHgAQAAAADwCggAICCABABAAIAAAAGAAAAAAAAAAAAAAAAAEAAAIAAAAIAAAFAAAAAAGAwGAPgAAAAAAAAAAAAAAAAAAAAAAAAAAAAA==

> <PUBCHEM_IUPAC_OPENEYE_NAME>
(3-carbamoyloxy-2-cyclopentyl-2-methyl-propyl) carbamate

> <PUBCHEM_IUPAC_CAS_NAME>
carbamic acid (3-carbamoyloxy-2-cyclopentyl-2-methylpropyl) ester

> <PUBCHEM_IUPAC_NAME>
(3-carbamoyloxy-2-cyclopentyl-2-methylpropyl) carbamate

> <PUBCHEM_IUPAC_SYSTEMATIC_NAME>
(3-aminocarbonyloxy-2-cyclopentyl-2-methyl-propyl) carbamate

> <PUBCHEM_IUPAC_TRADITIONAL_NAME>
carbamic acid (3-carbamoyloxy-2-cyclopentyl-2-methyl-propyl) ester

> <PUBCHEM_IUPAC_INCHI>
InChI=1S/C11H20N2O4/c1-11(6-16-9(12)14,7-17-10(13)15)8-4-2-3-5-8/h8H,2-7H2,1H3,(H2,12,14)(H2,13,15)

> <PUBCHEM_IUPAC_INCHIKEY>
MYCUGBCULANECB-UHFFFAOYSA-N

> <PUBCHEM_XLOGP3_AA>
1.7

> <PUBCHEM_EXACT_MASS>
244.142307

> <PUBCHEM_MOLECULAR_FORMULA>
C11H20N2O4

> <PUBCHEM_MOLECULAR_WEIGHT>
244.2875

> <PUBCHEM_OPENEYE_CAN_SMILES>
CC(COC(=O)N)(COC(=O)N)C1CCCC1

> <PUBCHEM_OPENEYE_ISO_SMILES>
CC(COC(=O)N)(COC(=O)N)C1CCCC1

> <PUBCHEM_CACTVS_TPSA>
105

> <PUBCHEM_MONOISOTOPIC_WEIGHT>
244.142307

> <PUBCHEM_TOTAL_CHARGE>
0

> <PUBCHEM_HEAVY_ATOM_COUNT>
17

> <PUBCHEM_ATOM_DEF_STEREO_COUNT>
0

> <PUBCHEM_ATOM_UDEF_STEREO_COUNT>
0

> <PUBCHEM_BOND_DEF_STEREO_COUNT>
0

> <PUBCHEM_BOND_UDEF_STEREO_COUNT>
0

> <PUBCHEM_ISOTOPIC_ATOM_COUNT>
0

> <PUBCHEM_COMPONENT_COUNT>
1

> <PUBCHEM_CACTVS_TAUTO_COUNT>
3

> <PUBCHEM_COORDINATE_TYPE>
1
5
255

$$$$

