9657
  -OEChem-06261203553D

 45 45  0     1  0  0  0  0  0999 V2000
    0.8284    0.9235    2.0836 O   0  0  0  0  0  0  0  0  0  0  0  0
   -4.4654   -0.9281   -0.7355 O   0  0  0  0  0  0  0  0  0  0  0  0
    2.8853   -2.0010   -0.2118 N   0  3  0  0  0  0  0  0  0  0  0  0
    1.7426   -1.3008    0.4273 C   0  0  0  0  0  0  0  0  0  0  0  0
    1.7652    0.1703    0.0069 C   0  0  0  0  0  0  0  0  0  0  0  0
    0.6405    1.0237    0.6611 C   0  0  1  0  0  0  0  0  0  0  0  0
    2.8846   -3.4912    0.1543 C   0  0  0  0  0  0  0  0  0  0  0  0
    4.2193   -1.3969    0.2473 C   0  0  0  0  0  0  0  0  0  0  0  0
    2.8092   -1.8846   -1.7402 C   0  0  0  0  0  0  0  0  0  0  0  0
   -0.7477    0.4928    0.2815 C   0  0  0  0  0  0  0  0  0  0  0  0
    0.7084    2.5135    0.3493 C   0  0  0  0  0  0  0  0  0  0  0  0
   -1.1549    0.6015   -1.0260 C   0  0  0  0  0  0  0  0  0  0  0  0
   -1.5252   -0.0688    1.2653 C   0  0  0  0  0  0  0  0  0  0  0  0
    1.5528    3.1337   -0.4899 C   0  0  0  0  0  0  0  0  0  0  0  0
   -2.4173    0.1191   -1.3713 C   0  0  0  0  0  0  0  0  0  0  0  0
   -2.7876   -0.5515    0.9201 C   0  0  0  0  0  0  0  0  0  0  0  0
   -3.2337   -0.4576   -0.3983 C   0  0  0  0  0  0  0  0  0  0  0  0
    1.5440    4.6078   -0.7321 C   0  0  0  0  0  0  0  0  0  0  0  0
   -5.2483   -1.5055    0.3083 C   0  0  0  0  0  0  0  0  0  0  0  0
    1.8392   -1.4140    1.5132 H   0  0  0  0  0  0  0  0  0  0  0  0
    0.8226   -1.8002    0.1042 H   0  0  0  0  0  0  0  0  0  0  0  0
    2.7135    0.6267    0.3084 H   0  0  0  0  0  0  0  0  0  0  0  0
    1.6753    0.2699   -1.0789 H   0  0  0  0  0  0  0  0  0  0  0  0
    2.9626   -3.5732    1.2424 H   0  0  0  0  0  0  0  0  0  0  0  0
    1.9454   -3.9272   -0.1985 H   0  0  0  0  0  0  0  0  0  0  0  0
    3.7381   -3.9748   -0.3297 H   0  0  0  0  0  0  0  0  0  0  0  0
    5.0224   -2.0696   -0.0712 H   0  0  0  0  0  0  0  0  0  0  0  0
    4.3763   -0.4242   -0.2245 H   0  0  0  0  0  0  0  0  0  0  0  0
    4.2079   -1.3183    1.3382 H   0  0  0  0  0  0  0  0  0  0  0  0
    3.0777   -0.8735   -2.0555 H   0  0  0  0  0  0  0  0  0  0  0  0
    3.5335   -2.5849   -2.1690 H   0  0  0  0  0  0  0  0  0  0  0  0
    1.7972   -2.1513   -2.0587 H   0  0  0  0  0  0  0  0  0  0  0  0
   -0.0148    3.1300    0.8840 H   0  0  0  0  0  0  0  0  0  0  0  0
    1.7222    1.2442    2.2954 H   0  0  0  0  0  0  0  0  0  0  0  0
   -0.5307    1.0434   -1.7960 H   0  0  0  0  0  0  0  0  0  0  0  0
   -1.2099   -0.1638    2.2984 H   0  0  0  0  0  0  0  0  0  0  0  0
    2.2936    2.5692   -1.0469 H   0  0  0  0  0  0  0  0  0  0  0  0
   -2.7590    0.1941   -2.4001 H   0  0  0  0  0  0  0  0  0  0  0  0
   -3.3696   -0.9885    1.7244 H   0  0  0  0  0  0  0  0  0  0  0  0
    1.3583    4.8095   -1.7915 H   0  0  0  0  0  0  0  0  0  0  0  0
    0.7745    5.1217   -0.1473 H   0  0  0  0  0  0  0  0  0  0  0  0
    2.5159    5.0343   -0.4659 H   0  0  0  0  0  0  0  0  0  0  0  0
   -4.7706   -2.4004    0.7214 H   0  0  0  0  0  0  0  0  0  0  0  0
   -6.1956   -1.8259   -0.1376 H   0  0  0  0  0  0  0  0  0  0  0  0
   -5.4920   -0.7701    1.0825 H   0  0  0  0  0  0  0  0  0  0  0  0
  1  6  1  0  0  0  0
  1 34  1  0  0  0  0
  2 17  1  0  0  0  0
  2 19  1  0  0  0  0
  3  4  1  0  0  0  0
  3  7  1  0  0  0  0
  3  8  1  0  0  0  0
  3  9  1  0  0  0  0
  4  5  1  0  0  0  0
  4 20  1  0  0  0  0
  4 21  1  0  0  0  0
  5  6  1  0  0  0  0
  5 22  1  0  0  0  0
  5 23  1  0  0  0  0
  6 10  1  0  0  0  0
  6 11  1  0  0  0  0
  7 24  1  0  0  0  0
  7 25  1  0  0  0  0
  7 26  1  0  0  0  0
  8 27  1  0  0  0  0
  8 28  1  0  0  0  0
  8 29  1  0  0  0  0
  9 30  1  0  0  0  0
  9 31  1  0  0  0  0
  9 32  1  0  0  0  0
 10 12  2  0  0  0  0
 10 13  1  0  0  0  0
 11 14  2  0  0  0  0
 11 33  1  0  0  0  0
 12 15  1  0  0  0  0
 12 35  1  0  0  0  0
 13 16  2  0  0  0  0
 13 36  1  0  0  0  0
 14 18  1  0  0  0  0
 14 37  1  0  0  0  0
 15 17  2  0  0  0  0
 15 38  1  0  0  0  0
 16 17  1  0  0  0  0
 16 39  1  0  0  0  0
 18 40  1  0  0  0  0
 18 41  1  0  0  0  0
 18 42  1  0  0  0  0
 19 43  1  0  0  0  0
 19 44  1  0  0  0  0
 19 45  1  0  0  0  0
M  CHG  1   3   1
M  END
> <PUBCHEM_COMPOUND_CID>
9657

> <PUBCHEM_CONFORMER_RMSD>
0.8

> <PUBCHEM_CONFORMER_DIVERSEORDER>
1
4
10
9
2
7
11
3
6
8
5
12

> <PUBCHEM_MMFF94_PARTIAL_CHARGES>
25
1 -0.68
10 -0.14
11 -0.29
12 -0.15
13 -0.15
14 -0.29
15 -0.15
16 -0.15
17 0.08
18 0.14
19 0.28
2 -0.36
3 -1.01
33 0.15
34 0.4
35 0.15
36 0.15
37 0.15
38 0.15
39 0.15
4 0.5
6 0.56
7 0.5
8 0.5
9 0.5

> <PUBCHEM_EFFECTIVE_ROTOR_COUNT>
6

> <PUBCHEM_PHARMACOPHORE_FEATURES>
6
1 1 acceptor
1 1 donor
1 18 hydrophobe
1 2 acceptor
1 3 cation
6 10 12 13 15 16 17 rings

> <PUBCHEM_HEAVY_ATOM_COUNT>
19

> <PUBCHEM_ATOM_DEF_STEREO_COUNT>
0

> <PUBCHEM_ATOM_UDEF_STEREO_COUNT>
0

> <PUBCHEM_BOND_DEF_STEREO_COUNT>
0

> <PUBCHEM_BOND_UDEF_STEREO_COUNT>
1

> <PUBCHEM_ISOTOPIC_ATOM_COUNT>
0

> <PUBCHEM_COMPONENT_COUNT>
1

> <PUBCHEM_CACTVS_TAUTO_COUNT>
1

> <PUBCHEM_CONFORMER_ID>
000025B900000001

> <PUBCHEM_MMFF94_ENERGY>
69.4818

> <PUBCHEM_FEATURE_SELFOVERLAP>
30.446

> <PUBCHEM_SHAPE_FINGERPRINT>
11045515 52 18128814325466698516
11101153 10 18269544092462195918
11578080 2 17679044800606043264
12363563 72 18339642364204173658
12553582 1 18267003128583698122
12592029 89 18194965145424400844
12730499 353 17981594984332354785
12788726 201 17767121282464288584
13533116 47 18189051989882688587
13681431 1 18411419505657479112
13911882 115 17697865978936836931
13911987 19 18056732405340336580
13955234 65 18266456503969351985
15342816 4 18336539533985343190
15502722 9 18267583511677245189
15806764 133 18130801079017895093
15906896 17 17334199625614873480
17539 30 17907023124818481292
1813 80 18188478181238567118
18785283 64 18198626523307870000
18915476 22 18054774110073858985
19786989 88 18054522309142474241
20361792 2 18262238935978351566
20388580 30 18335136492496528751
20645477 70 18269563741225775491
20671657 53 18410293656983989979
21296965 67 18335705000026783339
21304303 282 16832667288268085252
21524375 3 17337322874087734440
21665056 4 16896804060362692414
2255824 54 18263641779602718838
23114952 82 18201159849743485773
23419403 2 14180372313711433688
23526113 38 18202845460960707067
23557571 272 18055651756908347432
23559900 14 18339932519673221363
23566358 27 18266461992937738135
23598291 2 18043507555852276505
23728640 28 16971394920606740010
3057174 1 17834663908096582996
3060560 45 18124034525082840084
314173 41 18409442592098183263
3729539 64 18054479467350496172
458136 41 18050562946227314777
6025842 7 18194403290903443895
633830 44 10591752186668421786
7364860 26 18340208466552690484
81228 2 17978230787868108584
8272917 22 18265328418013975509
84936 31 18267868272214403148

> <PUBCHEM_SHAPE_MULTIPOLES>
374.29
7.35
4.2
1.36
7.18
4.29
-0.02
-7.11
0.89
-5.55
0.89
0.02
-0.02
0.17

> <PUBCHEM_SHAPE_SELFOVERLAP>
751.135

> <PUBCHEM_SHAPE_VOLUME>
223

> <PUBCHEM_COORDINATE_TYPE>
2
5
10

$$$$

