51090893
  -OEChem-06241223003D

 46 48  0     0  0  0  0  0  0999 V2000
   -4.3935   -2.1537   -0.7158 O   0  0  0  0  0  0  0  0  0  0  0  0
    2.7916   -0.0186    1.4696 O   0  0  0  0  0  0  0  0  0  0  0  0
   -2.3733   -1.0288   -0.3662 N   0  0  0  0  0  0  0  0  0  0  0  0
    1.2568   -0.9634    0.0046 N   0  0  0  0  0  0  0  0  0  0  0  0
    4.7329    0.3143   -0.5389 N   0  0  0  0  0  0  0  0  0  0  0  0
    4.8655    1.6329   -0.3156 N   0  0  0  0  0  0  0  0  0  0  0  0
    0.2029   -1.1981    0.9647 C   0  0  0  0  0  0  0  0  0  0  0  0
   -0.6114   -2.4482    0.6049 C   0  0  0  0  0  0  0  0  0  0  0  0
   -0.7028    0.0329    1.0987 C   0  0  0  0  0  0  0  0  0  0  0  0
   -1.6197    0.2054   -0.1118 C   0  0  0  0  0  0  0  0  0  0  0  0
   -1.5467   -2.2157   -0.5824 C   0  0  0  0  0  0  0  0  0  0  0  0
   -3.7633   -1.1287   -0.4597 C   0  0  0  0  0  0  0  0  0  0  0  0
    2.4727   -0.3882    0.3425 C   0  0  0  0  0  0  0  0  0  0  0  0
   -4.5616    0.0808   -0.2240 C   0  0  0  0  0  0  0  0  0  0  0  0
    3.3785   -0.2566   -0.8670 C   0  0  0  0  0  0  0  0  0  0  0  0
   -4.8812    0.9243   -1.2880 C   0  0  0  0  0  0  0  0  0  0  0  0
   -5.0016    0.3853    1.0639 C   0  0  0  0  0  0  0  0  0  0  0  0
    5.9010   -0.3825   -0.4363 C   0  0  0  0  0  0  0  0  0  0  0  0
    6.8649    0.5450   -0.1242 C   0  0  0  0  0  0  0  0  0  0  0  0
   -5.6408    2.0726   -1.0639 C   0  0  0  0  0  0  0  0  0  0  0  0
   -5.7613    1.5335    1.2882 C   0  0  0  0  0  0  0  0  0  0  0  0
    6.1701    1.7678   -0.0627 C   0  0  0  0  0  0  0  0  0  0  0  0
   -6.0808    2.3771    0.2242 C   0  0  0  0  0  0  0  0  0  0  0  0
    8.3010    0.3105    0.0953 C   0  0  0  0  0  0  0  0  0  0  0  0
    0.6846   -1.3731    1.9349 H   0  0  0  0  0  0  0  0  0  0  0  0
   -1.3256   -0.0875    1.9947 H   0  0  0  0  0  0  0  0  0  0  0  0
   -0.1070    0.9420    1.2411 H   0  0  0  0  0  0  0  0  0  0  0  0
    0.0534   -3.2931    0.3902 H   0  0  0  0  0  0  0  0  0  0  0  0
   -1.2186   -2.7288    1.4754 H   0  0  0  0  0  0  0  0  0  0  0  0
   -2.1724   -3.1011   -0.7347 H   0  0  0  0  0  0  0  0  0  0  0  0
   -2.2809    1.0580    0.0559 H   0  0  0  0  0  0  0  0  0  0  0  0
   -1.0364    0.4237   -1.0140 H   0  0  0  0  0  0  0  0  0  0  0  0
   -0.9783   -2.0580   -1.5060 H   0  0  0  0  0  0  0  0  0  0  0  0
    1.0747   -1.1791   -0.9713 H   0  0  0  0  0  0  0  0  0  0  0  0
    3.5593   -1.2374   -1.3184 H   0  0  0  0  0  0  0  0  0  0  0  0
    2.9395    0.4202   -1.6072 H   0  0  0  0  0  0  0  0  0  0  0  0
   -4.5431    0.6963   -2.2955 H   0  0  0  0  0  0  0  0  0  0  0  0
   -4.7575   -0.2649    1.9001 H   0  0  0  0  0  0  0  0  0  0  0  0
    5.9468   -1.4521   -0.5891 H   0  0  0  0  0  0  0  0  0  0  0  0
   -5.8894    2.7296   -1.8922 H   0  0  0  0  0  0  0  0  0  0  0  0
   -6.1037    1.7709    2.2912 H   0  0  0  0  0  0  0  0  0  0  0  0
    6.5574    2.7529    0.1555 H   0  0  0  0  0  0  0  0  0  0  0  0
   -6.6721    3.2712    0.3989 H   0  0  0  0  0  0  0  0  0  0  0  0
    8.8812    1.2242   -0.0700 H   0  0  0  0  0  0  0  0  0  0  0  0
    8.6833   -0.4553   -0.5876 H   0  0  0  0  0  0  0  0  0  0  0  0
    8.4808   -0.0255    1.1215 H   0  0  0  0  0  0  0  0  0  0  0  0
  1 12  2  0  0  0  0
  2 13  2  0  0  0  0
  3 10  1  0  0  0  0
  3 11  1  0  0  0  0
  3 12  1  0  0  0  0
  4  7  1  0  0  0  0
  4 13  1  0  0  0  0
  4 34  1  0  0  0  0
  5  6  1  0  0  0  0
  5 15  1  0  0  0  0
  5 18  1  0  0  0  0
  6 22  2  0  0  0  0
  7  8  1  0  0  0  0
  7  9  1  0  0  0  0
  7 25  1  0  0  0  0
  8 11  1  0  0  0  0
  8 28  1  0  0  0  0
  8 29  1  0  0  0  0
  9 10  1  0  0  0  0
  9 26  1  0  0  0  0
  9 27  1  0  0  0  0
 10 31  1  0  0  0  0
 10 32  1  0  0  0  0
 11 30  1  0  0  0  0
 11 33  1  0  0  0  0
 12 14  1  0  0  0  0
 13 15  1  0  0  0  0
 14 16  2  0  0  0  0
 14 17  1  0  0  0  0
 15 35  1  0  0  0  0
 15 36  1  0  0  0  0
 16 20  1  0  0  0  0
 16 37  1  0  0  0  0
 17 21  2  0  0  0  0
 17 38  1  0  0  0  0
 18 19  2  0  0  0  0
 18 39  1  0  0  0  0
 19 22  1  0  0  0  0
 19 24  1  0  0  0  0
 20 23  2  0  0  0  0
 20 40  1  0  0  0  0
 21 23  1  0  0  0  0
 21 41  1  0  0  0  0
 22 42  1  0  0  0  0
 23 43  1  0  0  0  0
 24 44  1  0  0  0  0
 24 45  1  0  0  0  0
 24 46  1  0  0  0  0
M  END
> <PUBCHEM_COMPOUND_CID>
51090893

> <PUBCHEM_CONFORMER_RMSD>
1

> <PUBCHEM_CONFORMER_DIVERSEORDER>
1
50
14
18
62
78
35
71
51
76
17
54
41
87
75
58
67
56
32
66
55
59
40
30
33
81
86
45
28
46
48
39
22
83
84
19
43
6
26
52
34
25
63
37
47
82
38
60
4
23
68
69
11
24
72
61
12
70
8
10
20
80
73
53
49
79
42
77
88
29
15
64
16
5
2
9
65
13
74
3
36
27
85
57
21
44
31
7

> <PUBCHEM_MMFF94_PARTIAL_CHARGES>
30
1 -0.57
10 0.3
11 0.3
12 0.54
13 0.57
14 0.09
15 0.32
16 -0.15
17 -0.15
18 -0.3
19 -0.18
2 -0.57
20 -0.15
21 -0.15
22 0.14
23 -0.15
24 0.18
3 -0.66
34 0.37
37 0.15
38 0.15
39 0.15
4 -0.73
40 0.15
41 0.15
42 0.15
43 0.15
5 0.31
6 -0.71
7 0.3

> <PUBCHEM_EFFECTIVE_ROTOR_COUNT>
7.2

> <PUBCHEM_PHARMACOPHORE_FEATURES>
7
1 1 acceptor
1 2 acceptor
1 4 donor
1 6 acceptor
5 5 6 18 19 22 rings
6 14 16 17 20 21 23 rings
6 3 7 8 9 10 11 rings

> <PUBCHEM_HEAVY_ATOM_COUNT>
24

> <PUBCHEM_ATOM_DEF_STEREO_COUNT>
0

> <PUBCHEM_ATOM_UDEF_STEREO_COUNT>
0

> <PUBCHEM_BOND_DEF_STEREO_COUNT>
0

> <PUBCHEM_BOND_UDEF_STEREO_COUNT>
0

> <PUBCHEM_ISOTOPIC_ATOM_COUNT>
0

> <PUBCHEM_COMPONENT_COUNT>
1

> <PUBCHEM_CACTVS_TAUTO_COUNT>
2

> <PUBCHEM_CONFORMER_ID>
030B95CD00000001

> <PUBCHEM_MMFF94_ENERGY>
45.687

> <PUBCHEM_FEATURE_SELFOVERLAP>
35.52

> <PUBCHEM_SHAPE_FINGERPRINT>
10 15 17988640826984811185
10391435 84 7276532192998422092
10411042 1 17906453217683646495
10670039 82 18187086182807795801
10730089 173 18410575097569437121
10835480 77 18113904815103925704
11297750 10 17172377481431960315
11315181 36 17385999538692647162
11475781 23 18187076270244355124
11646440 116 16558747910708249604
12293681 160 18113899385563488259
12390115 104 18408603665353515355
12596602 18 10879997956241086486
12760667 363 8862939481366287477
12788726 201 17604144951381428537
13167372 99 18342176666040087220
13668630 136 6194554494367572293
13690498 29 17605003503113774399
13862211 1 9511452330107367113
13914758 101 18411419519101225306
14123256 34 8214139672521742204
14251752 14 18335422382989575274
14444916 359 15051735326722298514
14556957 393 15430303695024730672
14849402 71 15338252577489408670
15183329 4 18335423478248492152
15188451 53 10592039146745364041
15716309 27 11239995659439734117
1577012 14 18343871017748169682
15778101 99 18411136939922241591
17093844 174 18334296448517435011
17780758 139 12247683790410813175
17913733 40 16271930427913715760
18222031 100 5256404985702773066
18927931 339 10664102264232482649
20028762 73 8934998170621531964
20281389 69 18343582945021021773
21150785 3 17967537865778997325
21756936 100 18131632270816216755
21774942 28 17968655042607781296
23081809 10 18201168697413064850
23198884 109 17603583049706059681
23559900 14 17530971254494488714
2838139 119 18273216374402953356
293599 30 18411135853163556011
3004659 81 5111999526282520342
3009799 131 17167863058997726274
312425 54 13757798186951055985
392239 28 14405177387711348357
4015057 19 5111713721789741891
445580 204 18261390083106119432
5104073 3 17775568649711665555
5283173 99 18334296414146965186
5385378 56 17561086951526805218
543368 44 18335701672255498861
5969126 39 13912315811408098642
6327066 14 18339647862622000157
636775 72 18337956684431071256
6431902 208 8790886285322454509
7226269 152 18333447660037920681
9953998 17 13614519671505193221

> <PUBCHEM_SHAPE_MULTIPOLES>
462.25
20.98
2.27
1.13
26.48
0.29
-0.14
-13.7
1.64
-2.87
0.18
-1.1
-0.11
-0.42

> <PUBCHEM_SHAPE_SELFOVERLAP>
974.873

> <PUBCHEM_SHAPE_VOLUME>
257.5

> <PUBCHEM_COORDINATE_TYPE>
2
5
10

$$$$

