11012
  -OEChem-06261205143D

 62 66  0     1  0  0  0  0  0999 V2000
   -0.5606   -2.9175   -0.4850 O   0  0  0  0  0  0  0  0  0  0  0  0
   -2.8299   -2.0132    1.3875 O   0  0  0  0  0  0  0  0  0  0  0  0
    5.8914    1.5828    1.1848 O   0  0  0  0  0  0  0  0  0  0  0  0
   -5.0777    1.9407   -0.5757 O   0  0  0  0  0  0  0  0  0  0  0  0
   -6.7476    1.0259    0.7167 O   0  0  0  0  0  0  0  0  0  0  0  0
   -0.2646   -1.5535   -0.1436 C   0  0  1  0  0  0  0  0  0  0  0  0
    1.1996   -1.2644   -0.5917 C   0  0  1  0  0  0  0  0  0  0  0  0
   -1.3274   -0.5816   -0.7876 C   0  0  1  0  0  0  0  0  0  0  0  0
    1.5893    0.2303   -0.4330 C   0  0  1  0  0  0  0  0  0  0  0  0
    3.0810    0.5233   -0.8553 C   0  0  2  0  0  0  0  0  0  0  0  0
    4.0478   -0.4439   -0.0964 C   0  0  2  0  0  0  0  0  0  0  0  0
   -2.0100    0.0939    0.4519 C   0  0  2  0  0  0  0  0  0  0  0  0
   -0.6574    0.4729   -1.6973 C   0  0  0  0  0  0  0  0  0  0  0  0
    0.5592    1.1719   -1.0971 C   0  0  0  0  0  0  0  0  0  0  0  0
   -0.4776   -1.4563    1.3896 C   0  0  0  0  0  0  0  0  0  0  0  0
    2.2037   -2.1975    0.1147 C   0  0  0  0  0  0  0  0  0  0  0  0
   -1.9051   -0.9506    1.5660 C   0  0  2  0  0  0  0  0  0  0  0  0
    3.6491   -1.9165   -0.2806 C   0  0  0  0  0  0  0  0  0  0  0  0
    3.4972    1.9914   -0.5410 C   0  0  0  0  0  0  0  0  0  0  0  0
   -2.3555   -1.3314   -1.6746 C   0  0  0  0  0  0  0  0  0  0  0  0
    4.1769   -0.1067    1.4076 C   0  0  0  0  0  0  0  0  0  0  0  0
    3.2743    0.3279   -2.3840 C   0  0  0  0  0  0  0  0  0  0  0  0
    3.6143    2.3057    0.9502 C   0  0  0  0  0  0  0  0  0  0  0  0
    4.5662    1.3481    1.6560 C   0  0  2  0  0  0  0  0  0  0  0  0
   -3.3892    0.6414    0.2622 C   0  0  0  0  0  0  0  0  0  0  0  0
   -3.6695    1.7194   -0.7079 C   0  0  0  0  0  0  0  0  0  0  0  0
   -4.4963    0.2654    0.8967 C   0  0  0  0  0  0  0  0  0  0  0  0
   -5.5818    1.0921    0.3669 C   0  0  0  0  0  0  0  0  0  0  0  0
    1.2511   -1.5264   -1.6575 H   0  0  0  0  0  0  0  0  0  0  0  0
    1.5264    0.4515    0.6386 H   0  0  0  0  0  0  0  0  0  0  0  0
    5.0526   -0.3321   -0.5290 H   0  0  0  0  0  0  0  0  0  0  0  0
   -1.3917    0.9418    0.7768 H   0  0  0  0  0  0  0  0  0  0  0  0
   -1.3673    1.2382   -2.0209 H   0  0  0  0  0  0  0  0  0  0  0  0
   -0.3274   -0.0188   -2.6236 H   0  0  0  0  0  0  0  0  0  0  0  0
    1.0079    1.7733   -1.8929 H   0  0  0  0  0  0  0  0  0  0  0  0
    0.2295    1.9069   -0.3521 H   0  0  0  0  0  0  0  0  0  0  0  0
    0.2025   -0.7292    1.8439 H   0  0  0  0  0  0  0  0  0  0  0  0
   -0.3319   -2.4221    1.8866 H   0  0  0  0  0  0  0  0  0  0  0  0
    1.9760   -3.2424   -0.1287 H   0  0  0  0  0  0  0  0  0  0  0  0
    2.1080   -2.1127    1.2023 H   0  0  0  0  0  0  0  0  0  0  0  0
   -2.0601   -0.5174    2.5601 H   0  0  0  0  0  0  0  0  0  0  0  0
    4.3148   -2.5597    0.3082 H   0  0  0  0  0  0  0  0  0  0  0  0
    3.7988   -2.2128   -1.3255 H   0  0  0  0  0  0  0  0  0  0  0  0
    2.8020    2.7048   -0.9968 H   0  0  0  0  0  0  0  0  0  0  0  0
    4.4706    2.1948   -1.0088 H   0  0  0  0  0  0  0  0  0  0  0  0
   -3.0278   -0.6483   -2.2011 H   0  0  0  0  0  0  0  0  0  0  0  0
   -1.8429   -1.9116   -2.4515 H   0  0  0  0  0  0  0  0  0  0  0  0
   -2.9802   -2.0255   -1.1058 H   0  0  0  0  0  0  0  0  0  0  0  0
    3.2397   -0.3115    1.9358 H   0  0  0  0  0  0  0  0  0  0  0  0
    4.9381   -0.7635    1.8475 H   0  0  0  0  0  0  0  0  0  0  0  0
    4.3318    0.4256   -2.6569 H   0  0  0  0  0  0  0  0  0  0  0  0
    2.9437   -0.6537   -2.7321 H   0  0  0  0  0  0  0  0  0  0  0  0
    2.7306    1.0788   -2.9654 H   0  0  0  0  0  0  0  0  0  0  0  0
    3.9813    3.3337    1.0575 H   0  0  0  0  0  0  0  0  0  0  0  0
    2.6261    2.2673    1.4215 H   0  0  0  0  0  0  0  0  0  0  0  0
    4.5624    1.5570    2.7315 H   0  0  0  0  0  0  0  0  0  0  0  0
   -1.3968   -3.1705   -0.0586 H   0  0  0  0  0  0  0  0  0  0  0  0
   -2.6632   -2.6664    2.0882 H   0  0  0  0  0  0  0  0  0  0  0  0
   -3.1404    2.6450   -0.4630 H   0  0  0  0  0  0  0  0  0  0  0  0
   -3.4811    1.4474   -1.7463 H   0  0  0  0  0  0  0  0  0  0  0  0
   -4.6473   -0.4671    1.6688 H   0  0  0  0  0  0  0  0  0  0  0  0
    6.4827    0.9711    1.6556 H   0  0  0  0  0  0  0  0  0  0  0  0
  1  6  1  0  0  0  0
  1 57  1  0  0  0  0
  2 17  1  0  0  0  0
  2 58  1  0  0  0  0
  3 24  1  0  0  0  0
  3 62  1  0  0  0  0
  4 26  1  0  0  0  0
  4 28  1  0  0  0  0
  5 28  2  0  0  0  0
  6  7  1  0  0  0  0
  6  8  1  0  0  0  0
  6 15  1  0  0  0  0
  7  9  1  0  0  0  0
  7 16  1  0  0  0  0
  7 29  1  0  0  0  0
  8 12  1  0  0  0  0
  8 13  1  0  0  0  0
  8 20  1  0  0  0  0
  9 10  1  0  0  0  0
  9 14  1  0  0  0  0
  9 30  1  0  0  0  0
 10 11  1  0  0  0  0
 10 19  1  0  0  0  0
 10 22  1  0  0  0  0
 11 18  1  0  0  0  0
 11 21  1  0  0  0  0
 11 31  1  0  0  0  0
 12 17  1  0  0  0  0
 12 25  1  0  0  0  0
 12 32  1  0  0  0  0
 13 14  1  0  0  0  0
 13 33  1  0  0  0  0
 13 34  1  0  0  0  0
 14 35  1  0  0  0  0
 14 36  1  0  0  0  0
 15 17  1  0  0  0  0
 15 37  1  0  0  0  0
 15 38  1  0  0  0  0
 16 18  1  0  0  0  0
 16 39  1  0  0  0  0
 16 40  1  0  0  0  0
 17 41  1  0  0  0  0
 18 42  1  0  0  0  0
 18 43  1  0  0  0  0
 19 23  1  0  0  0  0
 19 44  1  0  0  0  0
 19 45  1  0  0  0  0
 20 46  1  0  0  0  0
 20 47  1  0  0  0  0
 20 48  1  0  0  0  0
 21 24  1  0  0  0  0
 21 49  1  0  0  0  0
 21 50  1  0  0  0  0
 22 51  1  0  0  0  0
 22 52  1  0  0  0  0
 22 53  1  0  0  0  0
 23 24  1  0  0  0  0
 23 54  1  0  0  0  0
 23 55  1  0  0  0  0
 24 56  1  0  0  0  0
 25 26  1  0  0  0  0
 25 27  2  0  0  0  0
 26 59  1  0  0  0  0
 26 60  1  0  0  0  0
 27 28  1  0  0  0  0
 27 61  1  0  0  0  0
M  END
> <PUBCHEM_COMPOUND_CID>
11012

> <PUBCHEM_CONFORMER_RMSD>
0.8

> <PUBCHEM_CONFORMER_DIVERSEORDER>
1
5
9
11
20
17
18
19
16
14
13
7
15
10
6
21
3
12
4
2
8

> <PUBCHEM_MMFF94_PARTIAL_CHARGES>
17
1 -0.68
12 0.14
17 0.28
2 -0.68
24 0.28
25 -0.28
26 0.42
27 -0.14
28 0.71
3 -0.68
4 -0.43
5 -0.57
57 0.4
58 0.4
6 0.28
61 0.15
62 0.4

> <PUBCHEM_EFFECTIVE_ROTOR_COUNT>
3.6

> <PUBCHEM_PHARMACOPHORE_FEATURES>
12
1 1 acceptor
1 1 donor
1 2 acceptor
1 2 donor
1 3 acceptor
1 3 donor
1 5 acceptor
5 4 25 26 27 28 rings
5 6 8 12 15 17 rings
6 10 11 19 21 23 24 rings
6 6 7 8 9 13 14 rings
6 7 9 10 11 16 18 rings

> <PUBCHEM_HEAVY_ATOM_COUNT>
28

> <PUBCHEM_ATOM_DEF_STEREO_COUNT>
7

> <PUBCHEM_ATOM_UDEF_STEREO_COUNT>
2

> <PUBCHEM_BOND_DEF_STEREO_COUNT>
0

> <PUBCHEM_BOND_UDEF_STEREO_COUNT>
0

> <PUBCHEM_ISOTOPIC_ATOM_COUNT>
0

> <PUBCHEM_COMPONENT_COUNT>
1

> <PUBCHEM_CACTVS_TAUTO_COUNT>
1

> <PUBCHEM_CONFORMER_ID>
00002B0400000001

> <PUBCHEM_MMFF94_ENERGY>
101.6241

> <PUBCHEM_FEATURE_SELFOVERLAP>
61.156

> <PUBCHEM_SHAPE_FINGERPRINT>
10319926 262 17988639696828352290
10498660 4 14418422035980842180
10692045 39 18339371884649599122
11089746 13 18113619010230052620
11578080 2 18041848298427127256
11595378 159 15554445223557923341
11961588 58 16370735802702734777
12166972 35 16878503578535060934
12236239 1 17749113322300486023
12403259 415 18262504923239728274
12422481 6 17988374761601691420
12633257 1 16845574188603600130
12670546 177 6988326049078613224
13140716 1 18131351886787468714
13224815 77 17988363650953904478
13533116 47 18337386166190723699
13544653 18 10087632702734993413
13583140 156 18260825947572640099
13675066 3 18342738537312905221
13692114 37 18271805692912170763
13965767 371 18271540710493026064
14178342 30 18198624320311562942
14251764 30 10663814187554162073
15183329 4 8502377707501956387
15238133 3 18131346419273157972
15664445 248 5905747987039638858
15840311 113 18261107539336614533
17349148 13 17775002367137558327
17492 54 15140961729585923344
1813 80 14189568650419687999
193927 3 11527951191917899544
20157964 124 18186803608134489781
20775438 99 9582647842452434024
20775530 9 14618860927229496280
21033648 29 18337101285394507864
21421861 104 16200149881300313172
21452121 103 18340210785871576920
21859007 373 17058949920911853765
22149856 69 18197189595872445521
22907989 373 13840818860630598258
23227448 37 18114749230921383213
23503953 91 17846777382207479380
23559900 14 18129931394926269446
23569914 152 9436076290018603337
2838139 119 17968384528129186089
3472631 163 17749394745252506572
34797466 226 17385720314252516613
350125 39 18270114751096183348
4340502 62 18343298189311679075
437815 12 18047745194669082246
465052 167 13038893452590052185
474 4 18041001709208160648
495365 180 18334011713802990710
5104073 3 18342167904343545515
513532 50 17968087651620616436
6086070 43 17168146685848088592
7970288 3 10951779594278120816
8509985 295 17561077012381638133
960060 61 5039949637189295436

> <PUBCHEM_SHAPE_MULTIPOLES>
546.88
11.74
2.48
1.72
7.53
0.53
-0.23
-7.45
3.78
-0.71
0.17
-0.84
-0.07
0.9

> <PUBCHEM_SHAPE_SELFOVERLAP>
1184.602

> <PUBCHEM_SHAPE_VOLUME>
298.1

> <PUBCHEM_COORDINATE_TYPE>
2
5
10

$$$$

