7951
  -OEChem-06261202293D

 19 19  0     0  0  0  0  0  0999 V2000
   -1.4085   -2.4315   -0.0001 N   0  0  0  0  0  0  0  0  0  0  0  0
   -1.4144    2.4280   -0.0001 N   0  0  0  0  0  0  0  0  0  0  0  0
    1.3858    0.0017    0.0001 C   0  0  0  0  0  0  0  0  0  0  0  0
   -0.7051   -1.2087    0.0000 C   0  0  0  0  0  0  0  0  0  0  0  0
   -0.7078    1.2072    0.0001 C   0  0  0  0  0  0  0  0  0  0  0  0
    0.6871    1.2089    0.0000 C   0  0  0  0  0  0  0  0  0  0  0  0
    0.6898   -1.2071    0.0001 C   0  0  0  0  0  0  0  0  0  0  0  0
   -1.4039   -0.0016    0.0001 C   0  0  0  0  0  0  0  0  0  0  0  0
    2.8771    0.0032   -0.0001 C   0  0  0  0  0  0  0  0  0  0  0  0
    1.2299    2.1515    0.0018 H   0  0  0  0  0  0  0  0  0  0  0  0
    1.2348   -2.1485    0.0020 H   0  0  0  0  0  0  0  0  0  0  0  0
   -2.4918   -0.0029    0.0001 H   0  0  0  0  0  0  0  0  0  0  0  0
    3.2717    0.8860   -0.5143 H   0  0  0  0  0  0  0  0  0  0  0  0
    3.2527   -0.0009    1.0279 H   0  0  0  0  0  0  0  0  0  0  0  0
    3.2732   -0.8745   -0.5222 H   0  0  0  0  0  0  0  0  0  0  0  0
   -2.4198   -2.4337   -0.0008 H   0  0  0  0  0  0  0  0  0  0  0  0
   -0.9021   -3.3069   -0.0009 H   0  0  0  0  0  0  0  0  0  0  0  0
   -0.9103    3.3047    0.0004 H   0  0  0  0  0  0  0  0  0  0  0  0
   -2.4258    2.4276    0.0006 H   0  0  0  0  0  0  0  0  0  0  0  0
  1  4  1  0  0  0  0
  1 16  1  0  0  0  0
  1 17  1  0  0  0  0
  2  5  1  0  0  0  0
  2 18  1  0  0  0  0
  2 19  1  0  0  0  0
  3  6  2  0  0  0  0
  3  7  1  0  0  0  0
  3  9  1  0  0  0  0
  4  7  2  0  0  0  0
  4  8  1  0  0  0  0
  5  6  1  0  0  0  0
  5  8  2  0  0  0  0
  6 10  1  0  0  0  0
  7 11  1  0  0  0  0
  8 12  1  0  0  0  0
  9 13  1  0  0  0  0
  9 14  1  0  0  0  0
  9 15  1  0  0  0  0
M  END
> <PUBCHEM_COMPOUND_CID>
7951

> <PUBCHEM_CONFORMER_RMSD>
0.4

> <PUBCHEM_CONFORMER_DIVERSEORDER>
1

> <PUBCHEM_MMFF94_PARTIAL_CHARGES>
16
1 -0.9
10 0.15
11 0.15
12 0.15
16 0.4
17 0.4
18 0.4
19 0.4
2 -0.9
3 -0.14
4 0.1
5 0.1
6 -0.15
7 -0.15
8 -0.15
9 0.14

> <PUBCHEM_EFFECTIVE_ROTOR_COUNT>
0

> <PUBCHEM_PHARMACOPHORE_FEATURES>
5
1 1 cation
1 1 donor
1 2 cation
1 2 donor
6 3 4 5 6 7 8 rings

> <PUBCHEM_HEAVY_ATOM_COUNT>
9

> <PUBCHEM_ATOM_DEF_STEREO_COUNT>
0

> <PUBCHEM_ATOM_UDEF_STEREO_COUNT>
0

> <PUBCHEM_BOND_DEF_STEREO_COUNT>
0

> <PUBCHEM_BOND_UDEF_STEREO_COUNT>
0

> <PUBCHEM_ISOTOPIC_ATOM_COUNT>
0

> <PUBCHEM_COMPONENT_COUNT>
1

> <PUBCHEM_CACTVS_TAUTO_COUNT>
1

> <PUBCHEM_CONFORMER_ID>
00001F0F00000001

> <PUBCHEM_MMFF94_ENERGY>
41.6087

> <PUBCHEM_FEATURE_SELFOVERLAP>
25.371

> <PUBCHEM_SHAPE_FINGERPRINT>
12423570 1 9294726592165055908
12716758 59 18335978791829240918
16945 1 18410855460302228614
18185500 45 17906168456164384414
20871998 184 18260264105937104334
21040471 1 18266741479186159364
23552423 10 18129098918737118406
23552449 1 18337957775008930886
2748010 2 18121223069233187804
29004967 10 17620194234881102186

> <PUBCHEM_SHAPE_MULTIPOLES>
175.25
2.6
2.33
0.6
1.88
0
0
0
0
-1.6
0
0.03
0
0

> <PUBCHEM_SHAPE_SELFOVERLAP>
362.257

> <PUBCHEM_SHAPE_VOLUME>
102.3

> <PUBCHEM_COORDINATE_TYPE>
2
5
10

$$$$

