107421
  -OEChem-07051213052D

 70 73  0     1  0  0  0  0  0999 V2000
   11.7455    1.8120    0.0000 O   0  0  0  0  0  0  0  0  0  0  0  0
    4.5961   -2.1314    0.0000 O   0  0  0  0  0  0  0  0  0  0  0  0
   12.7611    0.4090    0.0000 O   0  0  0  0  0  0  0  0  0  0  0  0
    3.7359   -0.6281    0.0000 O   0  0  0  0  0  0  0  0  0  0  0  0
    9.9892    0.9209    0.0000 C   0  0  1  0  0  0  0  0  0  0  0  0
    9.9892   -0.0791    0.0000 C   0  0  2  0  0  0  0  0  0  0  0  0
    9.1232   -0.5791    0.0000 C   0  0  1  0  0  0  0  0  0  0  0  0
    8.2572   -0.0791    0.0000 C   0  0  1  0  0  0  0  0  0  0  0  0
   10.9354    1.2257    0.0000 C   0  0  2  0  0  0  0  0  0  0  0  0
    7.3472   -0.5859    0.0000 C   0  0  2  0  0  0  0  0  0  0  0  0
    9.1232    1.4209    0.0000 C   0  0  0  0  0  0  0  0  0  0  0  0
   10.9354   -0.3838    0.0000 C   0  0  0  0  0  0  0  0  0  0  0  0
    8.2572    0.9209    0.0000 C   0  0  0  0  0  0  0  0  0  0  0  0
   11.5190    0.4209    0.0000 C   0  0  0  0  0  0  0  0  0  0  0  0
    9.1392   -1.6206    0.0000 C   0  0  0  0  0  0  0  0  0  0  0  0
    9.9892    1.9209    0.0000 C   0  0  0  0  0  0  0  0  0  0  0  0
    7.3391   -1.6275    0.0000 C   0  0  0  0  0  0  0  0  0  0  0  0
    6.4203   -0.0218    0.0000 C   0  0  0  0  0  0  0  0  0  0  0  0
    8.2412   -2.1483    0.0000 C   0  0  0  0  0  0  0  0  0  0  0  0
   10.6281    2.1772    0.0000 C   0  0  0  0  0  0  0  0  0  0  0  0
    7.3549    0.4140    0.0000 C   0  0  0  0  0  0  0  0  0  0  0  0
    6.4037   -2.1772    0.0000 C   0  0  0  0  0  0  0  0  0  0  0  0
    5.4724   -0.5498    0.0000 C   0  0  0  0  0  0  0  0  0  0  0  0
    5.4641   -1.6348    0.0000 C   0  0  2  0  0  0  0  0  0  0  0  0
   12.6583    1.4037    0.0000 C   0  0  0  0  0  0  0  0  0  0  0  0
   13.4683    1.9901    0.0000 C   0  0  0  0  0  0  0  0  0  0  0  0
    3.7320   -1.6281    0.0000 C   0  0  0  0  0  0  0  0  0  0  0  0
   14.3812    1.5818    0.0000 C   0  0  0  0  0  0  0  0  0  0  0  0
    2.8641   -2.1247    0.0000 C   0  0  0  0  0  0  0  0  0  0  0  0
    2.0000   -1.6214    0.0000 C   0  0  0  0  0  0  0  0  0  0  0  0
   10.0792   -0.9243    0.0000 H   0  0  0  0  0  0  0  0  0  0  0  0
    9.8626   -0.9984    0.0000 H   0  0  0  0  0  0  0  0  0  0  0  0
    8.9933    0.3459    0.0000 H   0  0  0  0  0  0  0  0  0  0  0  0
    9.5217    1.8959    0.0000 H   0  0  0  0  0  0  0  0  0  0  0  0
    8.7247    1.8959    0.0000 H   0  0  0  0  0  0  0  0  0  0  0  0
   10.6844   -0.9507    0.0000 H   0  0  0  0  0  0  0  0  0  0  0  0
   11.4728   -0.6930    0.0000 H   0  0  0  0  0  0  0  0  0  0  0  0
    8.0451    1.5035    0.0000 H   0  0  0  0  0  0  0  0  0  0  0  0
    7.6466    0.8133    0.0000 H   0  0  0  0  0  0  0  0  0  0  0  0
   11.9799    0.0062    0.0000 H   0  0  0  0  0  0  0  0  0  0  0  0
   11.9799    0.8357    0.0000 H   0  0  0  0  0  0  0  0  0  0  0  0
    9.3573   -2.2010    0.0000 H   0  0  0  0  0  0  0  0  0  0  0  0
    9.7484   -1.5051    0.0000 H   0  0  0  0  0  0  0  0  0  0  0  0
   10.6092    1.9209    0.0000 H   0  0  0  0  0  0  0  0  0  0  0  0
    9.9892    2.5409    0.0000 H   0  0  0  0  0  0  0  0  0  0  0  0
    9.3692    1.9209    0.0000 H   0  0  0  0  0  0  0  0  0  0  0  0
    6.8285    0.4448    0.0000 H   0  0  0  0  0  0  0  0  0  0  0  0
    6.0304    0.4602    0.0000 H   0  0  0  0  0  0  0  0  0  0  0  0
    8.2436   -2.7683    0.0000 H   0  0  0  0  0  0  0  0  0  0  0  0
   11.2180    2.3678    0.0000 H   0  0  0  0  0  0  0  0  0  0  0  0
   10.4375    2.7672    0.0000 H   0  0  0  0  0  0  0  0  0  0  0  0
   10.0381    1.9867    0.0000 H   0  0  0  0  0  0  0  0  0  0  0  0
    7.9748    0.4093    0.0000 H   0  0  0  0  0  0  0  0  0  0  0  0
    7.3596    1.0340    0.0000 H   0  0  0  0  0  0  0  0  0  0  0  0
    6.7349    0.4188    0.0000 H   0  0  0  0  0  0  0  0  0  0  0  0
    6.0064   -2.6532    0.0000 H   0  0  0  0  0  0  0  0  0  0  0  0
    6.8047   -2.6501    0.0000 H   0  0  0  0  0  0  0  0  0  0  0  0
    5.2679    0.0355    0.0000 H   0  0  0  0  0  0  0  0  0  0  0  0
    4.8608   -0.6512    0.0000 H   0  0  0  0  0  0  0  0  0  0  0  0
    4.9289   -1.3216    0.0000 H   0  0  0  0  0  0  0  0  0  0  0  0
   13.8159    2.5035    0.0000 H   0  0  0  0  0  0  0  0  0  0  0  0
   13.0231    2.4216    0.0000 H   0  0  0  0  0  0  0  0  0  0  0  0
   14.1280    1.0158    0.0000 H   0  0  0  0  0  0  0  0  0  0  0  0
   14.9471    1.3286    0.0000 H   0  0  0  0  0  0  0  0  0  0  0  0
   14.6343    2.1478    0.0000 H   0  0  0  0  0  0  0  0  0  0  0  0
    2.4637   -2.5981    0.0000 H   0  0  0  0  0  0  0  0  0  0  0  0
    3.2608   -2.6012    0.0000 H   0  0  0  0  0  0  0  0  0  0  0  0
    2.3121   -1.0857    0.0000 H   0  0  0  0  0  0  0  0  0  0  0  0
    1.4643   -1.3093    0.0000 H   0  0  0  0  0  0  0  0  0  0  0  0
    1.6879   -2.1571    0.0000 H   0  0  0  0  0  0  0  0  0  0  0  0
  9  1  1  1  0  0  0
  1 25  1  0  0  0  0
 24  2  1  1  0  0  0
  2 27  1  0  0  0  0
  3 25  2  0  0  0  0
  4 27  2  0  0  0  0
  5  6  1  0  0  0  0
  5  9  1  0  0  0  0
  5 11  1  0  0  0  0
  5 16  1  1  0  0  0
  6  7  1  0  0  0  0
  6 12  1  0  0  0  0
  6 31  1  6  0  0  0
  7  8  1  0  0  0  0
  7 15  1  0  0  0  0
  7 32  1  1  0  0  0
  8 10  1  0  0  0  0
  8 13  1  0  0  0  0
  8 33  1  6  0  0  0
  9 14  1  0  0  0  0
  9 20  1  0  0  0  0
 10 17  1  0  0  0  0
 10 18  1  0  0  0  0
 10 21  1  1  0  0  0
 11 13  1  0  0  0  0
 11 34  1  0  0  0  0
 11 35  1  0  0  0  0
 12 14  1  0  0  0  0
 12 36  1  0  0  0  0
 12 37  1  0  0  0  0
 13 38  1  0  0  0  0
 13 39  1  0  0  0  0
 14 40  1  0  0  0  0
 14 41  1  0  0  0  0
 15 19  1  0  0  0  0
 15 42  1  0  0  0  0
 15 43  1  0  0  0  0
 16 44  1  0  0  0  0
 16 45  1  0  0  0  0
 16 46  1  0  0  0  0
 17 19  2  0  0  0  0
 17 22  1  0  0  0  0
 18 23  1  0  0  0  0
 18 47  1  0  0  0  0
 18 48  1  0  0  0  0
 19 49  1  0  0  0  0
 20 50  1  0  0  0  0
 20 51  1  0  0  0  0
 20 52  1  0  0  0  0
 21 53  1  0  0  0  0
 21 54  1  0  0  0  0
 21 55  1  0  0  0  0
 22 24  1  0  0  0  0
 22 56  1  0  0  0  0
 22 57  1  0  0  0  0
 23 24  1  0  0  0  0
 23 58  1  0  0  0  0
 23 59  1  0  0  0  0
 24 60  1  0  0  0  0
 25 26  1  0  0  0  0
 26 28  1  0  0  0  0
 26 61  1  0  0  0  0
 26 62  1  0  0  0  0
 27 29  1  0  0  0  0
 28 63  1  0  0  0  0
 28 64  1  0  0  0  0
 28 65  1  0  0  0  0
 29 30  1  0  0  0  0
 29 66  1  0  0  0  0
 29 67  1  0  0  0  0
 30 68  1  0  0  0  0
 30 69  1  0  0  0  0
 30 70  1  0  0  0  0
M  END
> <PUBCHEM_COMPOUND_CID>
107421

> <PUBCHEM_COMPOUND_CANONICALIZED>
1

> <PUBCHEM_CACTVS_COMPLEXITY>
741

> <PUBCHEM_CACTVS_HBOND_ACCEPTOR>
4

> <PUBCHEM_CACTVS_HBOND_DONOR>
0

> <PUBCHEM_CACTVS_ROTATABLE_BOND>
6

> <PUBCHEM_CACTVS_SUBSKEYS>
AAADcfB4OAAAAAAAAAAAAAAAAAAAAYAAAAAwYIAAAAAAAGCAAAAAGgAAAAAAD1SggAICCAAABACIAiDSCAAAAAAgAAAACAEAAAgAAAIAAQACAAAEwAAIAAOAwPAPgAAAAAAAAADAAAQAACAAAYAADAAAAA==

> <PUBCHEM_IUPAC_OPENEYE_NAME>
[(3S,8R,9S,10R,13S,14S,17S)-10,13,17-trimethyl-17-propanoyloxy-1,2,3,4,7,8,9,11,12,14,15,16-dodecahydrocyclopenta[a]phenanthren-3-yl] propanoate

> <PUBCHEM_IUPAC_CAS_NAME>
propanoic acid [(3S,8R,9S,10R,13S,14S,17S)-10,13,17-trimethyl-17-(1-oxopropoxy)-1,2,3,4,7,8,9,11,12,14,15,16-dodecahydrocyclopenta[a]phenanthren-3-yl] ester

> <PUBCHEM_IUPAC_NAME>
[(3S,8R,9S,10R,13S,14S,17S)-10,13,17-trimethyl-17-propanoyloxy-1,2,3,4,7,8,9,11,12,14,15,16-dodecahydrocyclopenta[a]phenanthren-3-yl] propanoate

> <PUBCHEM_IUPAC_SYSTEMATIC_NAME>
[(3S,8R,9S,10R,13S,14S,17S)-10,13,17-trimethyl-17-propanoyloxy-1,2,3,4,7,8,9,11,12,14,15,16-dodecahydrocyclopenta[a]phenanthren-3-yl] propanoate

> <PUBCHEM_IUPAC_TRADITIONAL_NAME>
propionic acid [(3S,8R,9S,10R,13S,14S,17S)-10,13,17-trimethyl-17-propionyloxy-1,2,3,4,7,8,9,11,12,14,15,16-dodecahydrocyclopenta[a]phenanthren-3-yl] ester

> <PUBCHEM_IUPAC_INCHI>
InChI=1S/C26H40O4/c1-6-22(27)29-18-10-13-24(3)17(16-18)8-9-19-20(24)11-14-25(4)21(19)12-15-26(25,5)30-23(28)7-2/h8,18-21H,6-7,9-16H2,1-5H3/t18-,19+,20-,21-,24-,25-,26-/m0/s1

> <PUBCHEM_IUPAC_INCHIKEY>
YUKFLTKJFMBYJM-QNSWYLPSSA-N

> <PUBCHEM_XLOGP3_AA>
5.6

> <PUBCHEM_EXACT_MASS>
416.29266

> <PUBCHEM_MOLECULAR_FORMULA>
C26H40O4

> <PUBCHEM_MOLECULAR_WEIGHT>
416.5934

> <PUBCHEM_OPENEYE_CAN_SMILES>
CCC(=O)OC1CCC2(C3CCC4(C(C3CC=C2C1)CCC4(C)OC(=O)CC)C)C

> <PUBCHEM_OPENEYE_ISO_SMILES>
CCC(=O)O[C@H]1CC[C@@]2([C@H]3CC[C@]4([C@H]([C@@H]3CC=C2C1)CC[C@]4(C)OC(=O)CC)C)C

> <PUBCHEM_CACTVS_TPSA>
52.6

> <PUBCHEM_MONOISOTOPIC_WEIGHT>
416.29266

> <PUBCHEM_TOTAL_CHARGE>
0

> <PUBCHEM_HEAVY_ATOM_COUNT>
30

> <PUBCHEM_ATOM_DEF_STEREO_COUNT>
7

> <PUBCHEM_ATOM_UDEF_STEREO_COUNT>
0

> <PUBCHEM_BOND_DEF_STEREO_COUNT>
0

> <PUBCHEM_BOND_UDEF_STEREO_COUNT>
0

> <PUBCHEM_ISOTOPIC_ATOM_COUNT>
0

> <PUBCHEM_COMPONENT_COUNT>
1

> <PUBCHEM_CACTVS_TAUTO_COUNT>
1

> <PUBCHEM_COORDINATE_TYPE>
1
5
255

> <PUBCHEM_BONDANNOTATIONS>
9  1  5
10  21  5
24  2  5
5  16  5
6  31  6
7  32  5
8  33  6

$$$$

