5282354
  -OEChem-07051213042D

 77 81  0     1  0  0  0  0  0999 V2000
    2.9223    0.9470    0.0000 O   0  0  0  0  0  0  0  0  0  0  0  0
    4.6544    1.9470    0.0000 O   0  0  0  0  0  0  0  0  0  0  0  0
    2.0024   -2.5982    0.0000 O   0  0  0  0  0  0  0  0  0  0  0  0
    4.6544   -1.0530    0.0000 C   0  0  1  0  0  0  0  0  0  0  0  0
    3.7884   -0.5530    0.0000 C   0  0  2  0  0  0  0  0  0  0  0  0
    3.7881   -1.5535    0.0000 C   0  0  0  0  0  0  0  0  0  0  0  0
    5.5204   -0.5530    0.0000 C   0  0  2  0  0  0  0  0  0  0  0  0
    5.5204    0.4470    0.0000 C   0  0  1  0  0  0  0  0  0  0  0  0
    3.7884    0.4470    0.0000 C   0  0  1  0  0  0  0  0  0  0  0  0
    4.6704   -2.0946    0.0000 C   0  0  0  0  0  0  0  0  0  0  0  0
    2.8784   -1.0599    0.0000 C   0  0  0  0  0  0  0  0  0  0  0  0
    4.6544    0.9470    0.0000 C   0  0  1  0  0  0  0  0  0  0  0  0
    6.4144    0.9816    0.0000 C   0  0  1  0  0  0  0  0  0  0  0  0
    7.3204    0.4678    0.0000 C   0  0  2  0  0  0  0  0  0  0  0  0
    6.4144   -1.0877    0.0000 C   0  0  0  0  0  0  0  0  0  0  0  0
    3.7724   -2.6223    0.0000 C   0  0  0  0  0  0  0  0  0  0  0  0
    2.8703   -2.1015    0.0000 C   0  0  2  0  0  0  0  0  0  0  0  0
    7.3204   -0.5739    0.0000 C   0  0  0  0  0  0  0  0  0  0  0  0
    8.0828    1.1685    0.0000 C   0  0  2  0  0  0  0  0  0  0  0  0
    6.6245    1.9955    0.0000 C   0  0  0  0  0  0  0  0  0  0  0  0
    7.6535    2.1108    0.0000 C   0  0  0  0  0  0  0  0  0  0  0  0
    8.1903   -0.0255    0.0000 C   0  0  0  0  0  0  0  0  0  0  0  0
    9.0628    0.9699    0.0000 C   0  0  2  0  0  0  0  0  0  0  0  0
    9.3808    0.0218    0.0000 C   0  0  0  0  0  0  0  0  0  0  0  0
    9.7249    1.7193    0.0000 C   0  0  0  0  0  0  0  0  0  0  0  0
   10.7050    1.5206    0.0000 C   0  0  0  0  0  0  0  0  0  0  0  0
   11.3671    2.2700    0.0000 C   0  0  3  0  0  0  0  0  0  0  0  0
   12.3471    2.0714    0.0000 C   0  0  0  0  0  0  0  0  0  0  0  0
   11.0491    3.2181    0.0000 C   0  0  0  0  0  0  0  0  0  0  0  0
   13.0092    2.8208    0.0000 C   0  0  0  0  0  0  0  0  0  0  0  0
   12.6651    1.1233    0.0000 C   0  0  0  0  0  0  0  0  0  0  0  0
    3.1775   -1.6611    0.0000 H   0  0  0  0  0  0  0  0  0  0  0  0
    4.0002   -2.1361    0.0000 H   0  0  0  0  0  0  0  0  0  0  0  0
    5.5139   -1.4030    0.0000 H   0  0  0  0  0  0  0  0  0  0  0  0
    5.5139    1.2969    0.0000 H   0  0  0  0  0  0  0  0  0  0  0  0
    3.2514    0.1370    0.0000 H   0  0  0  0  0  0  0  0  0  0  0  0
    4.8885   -2.6750    0.0000 H   0  0  0  0  0  0  0  0  0  0  0  0
    5.2796   -1.9790    0.0000 H   0  0  0  0  0  0  0  0  0  0  0  0
    2.6738   -0.4746    0.0000 H   0  0  0  0  0  0  0  0  0  0  0  0
    2.2667   -1.1613    0.0000 H   0  0  0  0  0  0  0  0  0  0  0  0
    5.1913    1.2570    0.0000 H   0  0  0  0  0  0  0  0  0  0  0  0
    5.7216    1.4742    0.0000 H   0  0  0  0  0  0  0  0  0  0  0  0
    6.0098   -1.5575    0.0000 H   0  0  0  0  0  0  0  0  0  0  0  0
    6.8080   -1.5667    0.0000 H   0  0  0  0  0  0  0  0  0  0  0  0
    3.3751   -3.0983    0.0000 H   0  0  0  0  0  0  0  0  0  0  0  0
    4.1734   -3.0952    0.0000 H   0  0  0  0  0  0  0  0  0  0  0  0
    2.8691   -2.7215    0.0000 H   0  0  0  0  0  0  0  0  0  0  0  0
    7.5295   -1.1576    0.0000 H   0  0  0  0  0  0  0  0  0  0  0  0
    7.9313   -0.4678    0.0000 H   0  0  0  0  0  0  0  0  0  0  0  0
    8.6117    1.8339    0.0000 H   0  0  0  0  0  0  0  0  0  0  0  0
    6.6206    2.6155    0.0000 H   0  0  0  0  0  0  0  0  0  0  0  0
    6.0075    2.0568    0.0000 H   0  0  0  0  0  0  0  0  0  0  0  0
    8.2416    2.3071    0.0000 H   0  0  0  0  0  0  0  0  0  0  0  0
    7.5201    2.7163    0.0000 H   0  0  0  0  0  0  0  0  0  0  0  0
    7.8844   -0.5648    0.0000 H   0  0  0  0  0  0  0  0  0  0  0  0
    8.7296   -0.3314    0.0000 H   0  0  0  0  0  0  0  0  0  0  0  0
    8.4961    0.5138    0.0000 H   0  0  0  0  0  0  0  0  0  0  0  0
    2.9223    1.5670    0.0000 H   0  0  0  0  0  0  0  0  0  0  0  0
    4.1175    2.2570    0.0000 H   0  0  0  0  0  0  0  0  0  0  0  0
    8.6523    0.5052    0.0000 H   0  0  0  0  0  0  0  0  0  0  0  0
    2.0000   -3.2181    0.0000 H   0  0  0  0  0  0  0  0  0  0  0  0
    8.7930   -0.1754    0.0000 H   0  0  0  0  0  0  0  0  0  0  0  0
    9.5779   -0.5661    0.0000 H   0  0  0  0  0  0  0  0  0  0  0  0
    9.9686    0.2189    0.0000 H   0  0  0  0  0  0  0  0  0  0  0  0
    9.5278    2.3071    0.0000 H   0  0  0  0  0  0  0  0  0  0  0  0
   10.9021    0.9328    0.0000 H   0  0  0  0  0  0  0  0  0  0  0  0
   11.9298    2.9071    0.0000 H   0  0  0  0  0  0  0  0  0  0  0  0
   11.9366    1.6067    0.0000 H   0  0  0  0  0  0  0  0  0  0  0  0
   11.6369    3.4153    0.0000 H   0  0  0  0  0  0  0  0  0  0  0  0
   10.8519    3.8060    0.0000 H   0  0  0  0  0  0  0  0  0  0  0  0
   10.4613    3.0210    0.0000 H   0  0  0  0  0  0  0  0  0  0  0  0
   13.4738    2.4103    0.0000 H   0  0  0  0  0  0  0  0  0  0  0  0
   13.4197    3.2854    0.0000 H   0  0  0  0  0  0  0  0  0  0  0  0
   12.5446    3.2313    0.0000 H   0  0  0  0  0  0  0  0  0  0  0  0
   12.0773    0.9261    0.0000 H   0  0  0  0  0  0  0  0  0  0  0  0
   12.8622    0.5355    0.0000 H   0  0  0  0  0  0  0  0  0  0  0  0
   13.2529    1.3204    0.0000 H   0  0  0  0  0  0  0  0  0  0  0  0
  9  1  1  6  0  0  0
  1 58  1  0  0  0  0
 12  2  1  1  0  0  0
  2 59  1  0  0  0  0
 17  3  1  6  0  0  0
  3 61  1  0  0  0  0
  4  5  1  0  0  0  0
  4  6  1  6  0  0  0
  4  7  1  0  0  0  0
  4 10  1  0  0  0  0
  5  6  1  6  0  0  0
  5  9  1  0  0  0  0
  5 11  1  0  0  0  0
  6 32  1  0  0  0  0
  6 33  1  0  0  0  0
  7  8  1  0  0  0  0
  7 15  1  0  0  0  0
  7 34  1  1  0  0  0
  8 12  1  0  0  0  0
  8 13  1  0  0  0  0
  8 35  1  6  0  0  0
  9 12  1  0  0  0  0
  9 36  1  0  0  0  0
 10 16  1  0  0  0  0
 10 37  1  0  0  0  0
 10 38  1  0  0  0  0
 11 17  1  0  0  0  0
 11 39  1  0  0  0  0
 11 40  1  0  0  0  0
 12 41  1  0  0  0  0
 13 14  1  0  0  0  0
 13 20  1  0  0  0  0
 13 42  1  1  0  0  0
 14 18  1  0  0  0  0
 14 19  1  0  0  0  0
 14 22  1  6  0  0  0
 15 18  1  0  0  0  0
 15 43  1  0  0  0  0
 15 44  1  0  0  0  0
 16 17  1  0  0  0  0
 16 45  1  0  0  0  0
 16 46  1  0  0  0  0
 17 47  1  0  0  0  0
 18 48  1  0  0  0  0
 18 49  1  0  0  0  0
 19 21  1  0  0  0  0
 19 23  1  0  0  0  0
 19 50  1  1  0  0  0
 20 21  1  0  0  0  0
 20 51  1  0  0  0  0
 20 52  1  0  0  0  0
 21 53  1  0  0  0  0
 21 54  1  0  0  0  0
 22 55  1  0  0  0  0
 22 56  1  0  0  0  0
 22 57  1  0  0  0  0
 23 24  1  1  0  0  0
 23 25  1  0  0  0  0
 23 60  1  0  0  0  0
 24 62  1  0  0  0  0
 24 63  1  0  0  0  0
 24 64  1  0  0  0  0
 25 26  2  0  0  0  0
 25 65  1  0  0  0  0
 26 27  1  0  0  0  0
 26 66  1  0  0  0  0
 27 28  1  0  0  0  0
 27 29  1  0  0  0  0
 27 67  1  0  0  0  0
 28 30  1  0  0  0  0
 28 31  1  0  0  0  0
 28 68  1  0  0  0  0
 29 69  1  0  0  0  0
 29 70  1  0  0  0  0
 29 71  1  0  0  0  0
 30 72  1  0  0  0  0
 30 73  1  0  0  0  0
 30 74  1  0  0  0  0
 31 75  1  0  0  0  0
 31 76  1  0  0  0  0
 31 77  1  0  0  0  0
M  END
> <PUBCHEM_COMPOUND_CID>
5282354

> <PUBCHEM_COMPOUND_CANONICALIZED>
1

> <PUBCHEM_CACTVS_COMPLEXITY>
732

> <PUBCHEM_CACTVS_HBOND_ACCEPTOR>
3

> <PUBCHEM_CACTVS_HBOND_DONOR>
3

> <PUBCHEM_CACTVS_ROTATABLE_BOND>
4

> <PUBCHEM_CACTVS_SUBSKEYS>
AAADcfB4MAAAAAAAAAAAAAAAGAAAAYAAAAAwYMAABgwAAGDAAAAAGgAACAAADxSggAICAAAAAgCAACBCAAAAAAAgAAAICAAAAAgBEAIAAQAAQAAEgAAJAAPA4PQPgAAAAAAAAADAAAYAADCAAQAACAAAAA==

> <PUBCHEM_IUPAC_INCHI>
InChI=1S/C28H46O3/c1-16(2)17(3)6-7-18(4)20-8-9-21-23-22(11-12-26(20,21)5)27-13-10-19(29)14-28(27,15-27)25(31)24(23)30/h6-7,16-25,29-31H,8-15H2,1-5H3/b7-6+/t17?,18-,19+,20-,21+,22+,23+,24+,25-,26-,27+,28-/m1/s1

> <PUBCHEM_IUPAC_INCHIKEY>
CREDXYMKNYHUGY-DEEMEZQZSA-N

> <PUBCHEM_XLOGP3_AA>
6

> <PUBCHEM_EXACT_MASS>
430.344695

> <PUBCHEM_MOLECULAR_FORMULA>
C28H46O3

> <PUBCHEM_MOLECULAR_WEIGHT>
430.66304

> <PUBCHEM_OPENEYE_CAN_SMILES>
CC(C)C(C)C=CC(C)C1CCC2C1(CCC3C2C(C(C45C3(C4)CCC(C5)O)O)O)C

> <PUBCHEM_OPENEYE_ISO_SMILES>
C[C@H](/C=C/C(C)C(C)C)[C@H]1CC[C@@H]2[C@@]1(CC[C@H]3[C@H]2[C@@H]([C@H]([C@]45[C@]3(C4)CC[C@@H](C5)O)O)O)C

> <PUBCHEM_CACTVS_TPSA>
60.7

> <PUBCHEM_MONOISOTOPIC_WEIGHT>
430.344695

> <PUBCHEM_TOTAL_CHARGE>
0

> <PUBCHEM_HEAVY_ATOM_COUNT>
31

> <PUBCHEM_ATOM_DEF_STEREO_COUNT>
11

> <PUBCHEM_ATOM_UDEF_STEREO_COUNT>
1

> <PUBCHEM_BOND_DEF_STEREO_COUNT>
1

> <PUBCHEM_BOND_UDEF_STEREO_COUNT>
0

> <PUBCHEM_ISOTOPIC_ATOM_COUNT>
0

> <PUBCHEM_COMPONENT_COUNT>
1

> <PUBCHEM_CACTVS_TAUTO_COUNT>
1

> <PUBCHEM_COORDINATE_TYPE>
1
5
255

> <PUBCHEM_BONDANNOTATIONS>
9  1  6
13  42  5
14  22  6
19  50  5
12  2  5
23  24  5
27  67  3
17  3  6
4  6  6
5  6  6
7  34  5
8  35  6

$$$$

