443078
  -OEChem-07051213013D

 71 75  0     1  0  0  0  0  0999 V2000
    1.9173   -0.3822   -0.5024 O   0  0  0  0  0  0  0  0  0  0  0  0
   -6.9144   -2.5675   -0.4662 O   0  0  0  0  0  0  0  0  0  0  0  0
    4.0683    0.5196   -0.4502 O   0  0  0  0  0  0  0  0  0  0  0  0
    2.9657   -2.8820    0.2953 O   0  0  0  0  0  0  0  0  0  0  0  0
    5.7810   -3.2135   -0.5032 O   0  0  0  0  0  0  0  0  0  0  0  0
    7.3313   -0.9152    0.3698 O   0  0  0  0  0  0  0  0  0  0  0  0
    7.3366    1.7455   -0.0728 O   0  0  0  0  0  0  0  0  0  0  0  0
    5.5621    2.3830   -1.3538 O   0  0  0  0  0  0  0  0  0  0  0  0
   -2.6732    0.2709    0.6697 C   0  0  2  0  0  0  0  0  0  0  0  0
   -1.6299    1.2488    1.3296 C   0  0  2  0  0  0  0  0  0  0  0  0
   -3.6648    1.0264   -0.2766 C   0  0  2  0  0  0  0  0  0  0  0  0
   -4.6108   -0.0039   -0.9006 C   0  0  1  0  0  0  0  0  0  0  0  0
   -0.8948    2.0589    0.2081 C   0  0  2  0  0  0  0  0  0  0  0  0
   -5.4425   -0.7381    0.1707 C   0  0  2  0  0  0  0  0  0  0  0  0
   -3.4173   -0.6489    1.6785 C   0  0  0  0  0  0  0  0  0  0  0  0
   -2.9132    1.8249   -1.3479 C   0  0  0  0  0  0  0  0  0  0  0  0
   -1.8764    2.7661   -0.7415 C   0  0  0  0  0  0  0  0  0  0  0  0
   -4.4812   -1.5535    1.0283 C   0  0  0  0  0  0  0  0  0  0  0  0
   -0.5636    0.4954    2.1777 C   0  0  0  0  0  0  0  0  0  0  0  0
   -5.6405    0.4362   -1.9357 C   0  0  0  0  0  0  0  0  0  0  0  0
    0.0964    1.1946   -0.6000 C   0  0  0  0  0  0  0  0  0  0  0  0
   -2.3292    2.2366    2.2997 C   0  0  0  0  0  0  0  0  0  0  0  0
   -6.3547   -1.5190   -0.7578 C   0  0  0  0  0  0  0  0  0  0  0  0
    0.3849   -0.3684    1.3561 C   0  0  0  0  0  0  0  0  0  0  0  0
    1.0925    0.4626    0.2936 C   0  0  1  0  0  0  0  0  0  0  0  0
   -6.5167   -0.8152   -2.0949 C   0  0  0  0  0  0  0  0  0  0  0  0
   -6.3551    0.1468    1.0399 C   0  0  0  0  0  0  0  0  0  0  0  0
    3.2243   -0.5114    0.0560 C   0  0  2  0  0  0  0  0  0  0  0  0
    3.7701   -1.8852   -0.3347 C   0  0  1  0  0  0  0  0  0  0  0  0
    5.2233   -2.0506    0.1107 C   0  0  2  0  0  0  0  0  0  0  0  0
    5.3839    0.4562    0.0885 C   0  0  1  0  0  0  0  0  0  0  0  0
    6.0726   -0.8467   -0.2981 C   0  0  1  0  0  0  0  0  0  0  0  0
    6.0680    1.6290   -0.5359 C   0  0  0  0  0  0  0  0  0  0  0  0
   -2.1097   -0.4189    0.0261 H   0  0  0  0  0  0  0  0  0  0  0  0
   -4.2571    1.7410    0.3041 H   0  0  0  0  0  0  0  0  0  0  0  0
   -3.9739   -0.7428   -1.4176 H   0  0  0  0  0  0  0  0  0  0  0  0
   -0.2962    2.8447    0.6918 H   0  0  0  0  0  0  0  0  0  0  0  0
   -3.8953   -0.0477    2.4580 H   0  0  0  0  0  0  0  0  0  0  0  0
   -2.6999   -1.3019    2.1870 H   0  0  0  0  0  0  0  0  0  0  0  0
   -3.6228    2.4211   -1.9340 H   0  0  0  0  0  0  0  0  0  0  0  0
   -2.4280    1.1425   -2.0557 H   0  0  0  0  0  0  0  0  0  0  0  0
   -1.3239    3.2619   -1.5491 H   0  0  0  0  0  0  0  0  0  0  0  0
   -2.3955    3.5666   -0.2008 H   0  0  0  0  0  0  0  0  0  0  0  0
   -3.9822   -2.3174    0.4176 H   0  0  0  0  0  0  0  0  0  0  0  0
   -5.0252   -2.1011    1.8076 H   0  0  0  0  0  0  0  0  0  0  0  0
   -1.0376   -0.1183    2.9513 H   0  0  0  0  0  0  0  0  0  0  0  0
    0.0438    1.2313    2.7238 H   0  0  0  0  0  0  0  0  0  0  0  0
   -5.1846    0.7192   -2.8895 H   0  0  0  0  0  0  0  0  0  0  0  0
   -6.2308    1.2885   -1.5824 H   0  0  0  0  0  0  0  0  0  0  0  0
   -0.4258    0.4619   -1.2263 H   0  0  0  0  0  0  0  0  0  0  0  0
    0.6511    1.8264   -1.3062 H   0  0  0  0  0  0  0  0  0  0  0  0
   -2.7482    1.7182    3.1683 H   0  0  0  0  0  0  0  0  0  0  0  0
   -1.6147    2.9737    2.6855 H   0  0  0  0  0  0  0  0  0  0  0  0
   -3.1400    2.7973    1.8286 H   0  0  0  0  0  0  0  0  0  0  0  0
    1.1174   -0.8355    2.0247 H   0  0  0  0  0  0  0  0  0  0  0  0
   -0.1507   -1.2038    0.8899 H   0  0  0  0  0  0  0  0  0  0  0  0
    1.7086    1.2315    0.7819 H   0  0  0  0  0  0  0  0  0  0  0  0
   -6.1329   -1.4664   -2.8854 H   0  0  0  0  0  0  0  0  0  0  0  0
   -7.5613   -0.5545   -2.2773 H   0  0  0  0  0  0  0  0  0  0  0  0
   -6.9247   -0.4731    1.7430 H   0  0  0  0  0  0  0  0  0  0  0  0
   -5.7996    0.8800    1.6304 H   0  0  0  0  0  0  0  0  0  0  0  0
   -7.0939    0.6957    0.4461 H   0  0  0  0  0  0  0  0  0  0  0  0
    3.1793   -0.4432    1.1517 H   0  0  0  0  0  0  0  0  0  0  0  0
    3.6820   -2.0375   -1.4175 H   0  0  0  0  0  0  0  0  0  0  0  0
    5.2714   -2.2194    1.1937 H   0  0  0  0  0  0  0  0  0  0  0  0
    5.3479    0.6201    1.1727 H   0  0  0  0  0  0  0  0  0  0  0  0
    6.2749   -0.8821   -1.3757 H   0  0  0  0  0  0  0  0  0  0  0  0
    3.3388   -3.7482    0.0583 H   0  0  0  0  0  0  0  0  0  0  0  0
    6.7047   -3.2844   -0.2071 H   0  0  0  0  0  0  0  0  0  0  0  0
    7.1663   -0.8845    1.3277 H   0  0  0  0  0  0  0  0  0  0  0  0
    7.8039    2.5097   -0.4727 H   0  0  0  0  0  0  0  0  0  0  0  0
  1 25  1  0  0  0  0
  1 28  1  0  0  0  0
  2 23  2  0  0  0  0
  3 28  1  0  0  0  0
  3 31  1  0  0  0  0
  4 29  1  0  0  0  0
  4 68  1  0  0  0  0
  5 30  1  0  0  0  0
  5 69  1  0  0  0  0
  6 32  1  0  0  0  0
  6 70  1  0  0  0  0
  7 33  1  0  0  0  0
  7 71  1  0  0  0  0
  8 33  2  0  0  0  0
  9 10  1  0  0  0  0
  9 11  1  0  0  0  0
  9 15  1  0  0  0  0
  9 34  1  0  0  0  0
 10 13  1  0  0  0  0
 10 19  1  0  0  0  0
 10 22  1  0  0  0  0
 11 12  1  0  0  0  0
 11 16  1  0  0  0  0
 11 35  1  0  0  0  0
 12 14  1  0  0  0  0
 12 20  1  0  0  0  0
 12 36  1  0  0  0  0
 13 17  1  0  0  0  0
 13 21  1  0  0  0  0
 13 37  1  0  0  0  0
 14 18  1  0  0  0  0
 14 23  1  0  0  0  0
 14 27  1  0  0  0  0
 15 18  1  0  0  0  0
 15 38  1  0  0  0  0
 15 39  1  0  0  0  0
 16 17  1  0  0  0  0
 16 40  1  0  0  0  0
 16 41  1  0  0  0  0
 17 42  1  0  0  0  0
 17 43  1  0  0  0  0
 18 44  1  0  0  0  0
 18 45  1  0  0  0  0
 19 24  1  0  0  0  0
 19 46  1  0  0  0  0
 19 47  1  0  0  0  0
 20 26  1  0  0  0  0
 20 48  1  0  0  0  0
 20 49  1  0  0  0  0
 21 25  1  0  0  0  0
 21 50  1  0  0  0  0
 21 51  1  0  0  0  0
 22 52  1  0  0  0  0
 22 53  1  0  0  0  0
 22 54  1  0  0  0  0
 23 26  1  0  0  0  0
 24 25  1  0  0  0  0
 24 55  1  0  0  0  0
 24 56  1  0  0  0  0
 25 57  1  0  0  0  0
 26 58  1  0  0  0  0
 26 59  1  0  0  0  0
 27 60  1  0  0  0  0
 27 61  1  0  0  0  0
 27 62  1  0  0  0  0
 28 29  1  0  0  0  0
 28 63  1  0  0  0  0
 29 30  1  0  0  0  0
 29 64  1  0  0  0  0
 30 32  1  0  0  0  0
 30 65  1  0  0  0  0
 31 32  1  0  0  0  0
 31 33  1  0  0  0  0
 31 66  1  0  0  0  0
 32 67  1  0  0  0  0
M  END
> <PUBCHEM_COMPOUND_CID>
443078

> <PUBCHEM_CONFORMER_RMSD>
0.8

> <PUBCHEM_CONFORMER_DIVERSEORDER>
1
31
13
17
39
5
19
40
24
34
15
36
28
14
23
33
8
6
2
30
26
38
16
12
32
20
27
35
22
11
25
29
3
21
10
4
37
18
9
7

> <PUBCHEM_MMFF94_PARTIAL_CHARGES>
22
1 -0.56
14 0.06
2 -0.57
23 0.45
25 0.28
26 0.06
28 0.56
29 0.28
3 -0.56
30 0.28
31 0.34
32 0.28
33 0.66
4 -0.68
5 -0.68
6 -0.68
68 0.4
69 0.4
7 -0.65
70 0.4
71 0.5
8 -0.57

> <PUBCHEM_EFFECTIVE_ROTOR_COUNT>
6.2

> <PUBCHEM_PHARMACOPHORE_FEATURES>
17
1 1 acceptor
1 2 acceptor
1 3 acceptor
1 4 acceptor
1 4 donor
1 5 acceptor
1 5 donor
1 6 acceptor
1 6 donor
1 7 acceptor
1 8 acceptor
3 7 8 33 anion
5 12 14 20 23 26 rings
6 10 13 19 21 24 25 rings
6 3 28 29 30 31 32 rings
6 9 10 11 13 16 17 rings
6 9 11 12 14 15 18 rings

> <PUBCHEM_HEAVY_ATOM_COUNT>
33

> <PUBCHEM_ATOM_DEF_STEREO_COUNT>
12

> <PUBCHEM_ATOM_UDEF_STEREO_COUNT>
0

> <PUBCHEM_BOND_DEF_STEREO_COUNT>
0

> <PUBCHEM_BOND_UDEF_STEREO_COUNT>
0

> <PUBCHEM_ISOTOPIC_ATOM_COUNT>
0

> <PUBCHEM_COMPONENT_COUNT>
1

> <PUBCHEM_CACTVS_TAUTO_COUNT>
2

> <PUBCHEM_CONFORMER_ID>
0006C2C600000001

> <PUBCHEM_MMFF94_ENERGY>
100.608

> <PUBCHEM_FEATURE_SELFOVERLAP>
86.529

> <PUBCHEM_SHAPE_FINGERPRINT>
10319926 262 5545196173008897941
105312 117 13758064230093902817
10577160 103 17917713439920511988
10595046 47 18334572473502484840
10674148 151 18131074862040591353
10692045 39 9727363453880860593
10835480 77 18273219711402917813
11135926 11 18201721786369546371
11475781 23 17060347335401821446
11497681 19 18260827103383137934
12422481 6 5184345226880015545
12760667 363 18261394477321509851
13533116 47 18334574655509187114
1361 4 18334576832436017086
13782708 43 18260271879579996486
13811026 1 18059859450437166296
13914758 101 15841561773035326696
14068700 675 17749112175639501545
14118638 360 18408037434176968004
14400156 162 5833450708077389255
14840074 17 18040715861738478135
14856354 85 16732986392879988413
14955137 171 4895554099396964803
15064986 266 18270951449469820289
15082195 135 17702926090556181382
15142383 8 10519988167247345742
15183329 4 14477243764429869095
15301273 46 14201391699237746385
15537594 2 15791735234294596325
15799311 1 16443059517678984142
19377110 9 17822285821097336752
19958102 18 17632579391581126875
20511986 3 16415492531739513832
21033650 10 16773521074691835381
21223535 225 15769792268519074063
21756936 100 9439396922329098985
22149856 69 18041273352709325554
23081809 10 18113893879525891744
23522609 53 17824235207616134593
23559900 14 18129662993756388529
23569914 152 17122578787460140623
23569917 315 18260543460007917566
23572383 38 17846489327562586546
24771750 20 17412164470432926709
2838139 119 12247681561132999079
3009799 131 17275106110960115832
4015057 19 18201992214200099000
4098825 35 18342459279288710821
4325135 7 18333165064306555292
44880568 143 17489591173011763717
4938544 92 16081357601595725433
497634 4 18335133249775498193
504579 68 18337658777124802844
6086070 43 13973384843451734126
6669772 16 17971765367671469128

> <PUBCHEM_SHAPE_MULTIPOLES>
632.17
20.49
2.81
1.7
15.96
0.52
-0.33
8.12
6.57
1.96
0.31
-2.7
-0.53
-0.93

> <PUBCHEM_SHAPE_SELFOVERLAP>
1349.598

> <PUBCHEM_SHAPE_VOLUME>
346.5

> <PUBCHEM_COORDINATE_TYPE>
2
5
10

$$$$

