72060
  -OEChem-07051213033D

 29 29  0     1  0  0  0  0  0999 V2000
   -0.9477    0.8637   -1.1780 O   0  0  0  0  0  0  0  0  0  0  0  0
   -3.6993    1.3314   -0.8119 O   0  0  0  0  0  0  0  0  0  0  0  0
   -2.3463   -0.1449    0.3901 N   0  0  0  0  0  0  0  0  0  0  0  0
   -4.5855    0.0599    0.8847 N   0  0  0  0  0  0  0  0  0  0  0  0
   -0.0028   -0.7926    0.3264 C   0  0  1  0  0  0  0  0  0  0  0  0
    0.0009   -2.1774   -0.3527 C   0  0  0  0  0  0  0  0  0  0  0  0
    1.3324   -0.0764    0.2142 C   0  0  0  0  0  0  0  0  0  0  0  0
   -1.1244    0.0777   -0.2497 C   0  0  0  0  0  0  0  0  0  0  0  0
    1.0286   -3.1308    0.2436 C   0  0  0  0  0  0  0  0  0  0  0  0
    2.0949   -0.2558   -0.9234 C   0  0  0  0  0  0  0  0  0  0  0  0
    1.7468    0.7347    1.2525 C   0  0  0  0  0  0  0  0  0  0  0  0
    3.3207    0.4018   -1.0268 C   0  0  0  0  0  0  0  0  0  0  0  0
    2.9725    1.3924    1.1491 C   0  0  0  0  0  0  0  0  0  0  0  0
    3.7595    1.2258    0.0094 C   0  0  0  0  0  0  0  0  0  0  0  0
   -3.5505    0.4904    0.0726 C   0  0  0  0  0  0  0  0  0  0  0  0
   -0.2077   -0.9532    1.3947 H   0  0  0  0  0  0  0  0  0  0  0  0
    0.1228   -2.1119   -1.4396 H   0  0  0  0  0  0  0  0  0  0  0  0
   -0.9904   -2.6297   -0.2123 H   0  0  0  0  0  0  0  0  0  0  0  0
    0.8998   -4.1295   -0.1869 H   0  0  0  0  0  0  0  0  0  0  0  0
    2.0576   -2.8218    0.0437 H   0  0  0  0  0  0  0  0  0  0  0  0
    0.8995   -3.2170    1.3274 H   0  0  0  0  0  0  0  0  0  0  0  0
    1.7795   -0.8635   -1.7633 H   0  0  0  0  0  0  0  0  0  0  0  0
    1.1397    0.8723    2.1422 H   0  0  0  0  0  0  0  0  0  0  0  0
    3.9309    0.2777   -1.9168 H   0  0  0  0  0  0  0  0  0  0  0  0
    3.3138    2.0350    1.9554 H   0  0  0  0  0  0  0  0  0  0  0  0
   -2.3764   -0.8265    1.1435 H   0  0  0  0  0  0  0  0  0  0  0  0
    4.7131    1.7393   -0.0718 H   0  0  0  0  0  0  0  0  0  0  0  0
   -4.4419   -0.6352    1.6094 H   0  0  0  0  0  0  0  0  0  0  0  0
   -5.5244    0.4290    0.7780 H   0  0  0  0  0  0  0  0  0  0  0  0
  1  8  2  0  0  0  0
  2 15  2  0  0  0  0
  3  8  1  0  0  0  0
  3 15  1  0  0  0  0
  3 26  1  0  0  0  0
  4 15  1  0  0  0  0
  4 28  1  0  0  0  0
  4 29  1  0  0  0  0
  5  6  1  0  0  0  0
  5  7  1  0  0  0  0
  5  8  1  0  0  0  0
  5 16  1  0  0  0  0
  6  9  1  0  0  0  0
  6 17  1  0  0  0  0
  6 18  1  0  0  0  0
  7 10  2  0  0  0  0
  7 11  1  0  0  0  0
  9 19  1  0  0  0  0
  9 20  1  0  0  0  0
  9 21  1  0  0  0  0
 10 12  1  0  0  0  0
 10 22  1  0  0  0  0
 11 13  2  0  0  0  0
 11 23  1  0  0  0  0
 12 14  2  0  0  0  0
 12 24  1  0  0  0  0
 13 14  1  0  0  0  0
 13 25  1  0  0  0  0
 14 27  1  0  0  0  0
M  END
> <PUBCHEM_COMPOUND_CID>
72060

> <PUBCHEM_CONFORMER_RMSD>
0.6

> <PUBCHEM_CONFORMER_DIVERSEORDER>
6
24
68
61
36
30
63
67
64
49
59
38
41
53
47
42
62
11
26
60
57
56
31
55
25
66
40
43
44
45
50
39
65
51
58
46
21
17
48
10
33
35
29
32
23
54
28
12
27
2
52
34
9
4
20
8
18
7
16
1
37
14
3
19
22
13
15
5

> <PUBCHEM_MMFF94_PARTIAL_CHARGES>
21
1 -0.57
10 -0.15
11 -0.15
12 -0.15
13 -0.15
14 -0.15
15 0.69
2 -0.57
22 0.15
23 0.15
24 0.15
25 0.15
26 0.37
27 0.15
28 0.37
29 0.37
3 -0.49
4 -0.8
5 0.2
7 -0.14
8 0.57

> <PUBCHEM_EFFECTIVE_ROTOR_COUNT>
5

> <PUBCHEM_PHARMACOPHORE_FEATURES>
6
1 1 acceptor
1 2 acceptor
1 3 donor
1 4 donor
1 9 hydrophobe
6 7 10 11 12 13 14 rings

> <PUBCHEM_HEAVY_ATOM_COUNT>
15

> <PUBCHEM_ATOM_DEF_STEREO_COUNT>
0

> <PUBCHEM_ATOM_UDEF_STEREO_COUNT>
1

> <PUBCHEM_BOND_DEF_STEREO_COUNT>
0

> <PUBCHEM_BOND_UDEF_STEREO_COUNT>
0

> <PUBCHEM_ISOTOPIC_ATOM_COUNT>
0

> <PUBCHEM_COMPONENT_COUNT>
1

> <PUBCHEM_CACTVS_TAUTO_COUNT>
5

> <PUBCHEM_CONFORMER_ID>
0001197C00000006

> <PUBCHEM_MMFF94_ENERGY>
35.6416

> <PUBCHEM_FEATURE_SELFOVERLAP>
30.5

> <PUBCHEM_SHAPE_FINGERPRINT>
1 1 18339367465049168614
107287 299 18340767138987463503
10922049 32 18409162195126205930
10980938 120 18336550503267967771
11031198 65 18408885165366605279
11132069 177 18202565051483941085
11543360 7 15864360099213124301
12138202 97 18043247947065571294
12500047 106 18264489486647481070
12532896 13 18263649476458854926
12932764 1 18114751529066542269
13294875 104 18115042860977665658
15219456 202 18201156675888987999
15309172 13 18341335517563152153
15775835 57 18411141316219570674
15906896 17 17772746066151181050
16945 1 17203336576384242422
17834072 14 9871753472618825063
18186145 218 18113335301669965720
201361 129 18116703204796854145
20361792 2 9727638327429143875
20645477 56 18339080359660392176
20645477 70 18115593793543852151
20711985 327 10735878382650394267
20711985 344 17834125143299417362
21296965 67 9727641591609738823
21501925 9 10663819663246502295
21524375 3 18334577932063084990
23402539 116 18261403213105771860
23402655 69 16732976531202709120
23557571 272 17902502693689271644
23558518 356 17683824115215218258
25 1 17967809436175968640
276578 36 18413390929984683674
3071541 250 17900814156839471990
458136 41 18410845590430874987
495365 180 18121239798674209149
4990 188 17603860100560370669
633830 44 17967245399575047289
6442390 28 18337383825565766971
7364860 26 18265055923502910702
81228 2 17763478218068324162
81539 233 18271809050774255159

> <PUBCHEM_SHAPE_MULTIPOLES>
286.99
6.91
2.13
1.12
5.83
2.35
0
-4.15
0.24
-0.75
0.22
-0.37
-0.28
0.55

> <PUBCHEM_SHAPE_SELFOVERLAP>
588.819

> <PUBCHEM_SHAPE_VOLUME>
164

> <PUBCHEM_COORDINATE_TYPE>
2
5
10

$$$$

