854345
  -OEChem-06241222483D

 27 27  0     0  0  0  0  0  0999 V2000
   -2.9038   -0.0108   -1.3444 O   0  0  0  0  0  0  0  0  0  0  0  0
    3.2023   -0.6274    0.4304 N   0  0  0  0  0  0  0  0  0  0  0  0
    3.2650    0.7150    0.4413 N   0  0  0  0  0  0  0  0  0  0  0  0
   -3.5206    0.0198    0.8964 N   0  0  0  0  0  0  0  0  0  0  0  0
   -4.8710    0.0197    0.6141 N   0  0  0  0  0  0  0  0  0  0  0  0
    1.2522   -0.0232   -0.2731 C   0  0  0  0  0  0  0  0  0  0  0  0
   -0.1589   -0.0088   -0.7791 C   0  0  0  0  0  0  0  0  0  0  0  0
    2.0034   -1.1197    0.0049 C   0  0  0  0  0  0  0  0  0  0  0  0
   -1.1827    0.0086    0.3565 C   0  0  0  0  0  0  0  0  0  0  0  0
    2.0560    1.0786    0.0053 C   0  0  0  0  0  0  0  0  0  0  0  0
    1.7403   -2.5662   -0.0789 C   0  0  0  0  0  0  0  0  0  0  0  0
    1.7319    2.5106   -0.1228 C   0  0  0  0  0  0  0  0  0  0  0  0
   -2.6143    0.0039   -0.1506 C   0  0  0  0  0  0  0  0  0  0  0  0
   -0.3084    0.8643   -1.4270 H   0  0  0  0  0  0  0  0  0  0  0  0
   -0.3274   -0.8859   -1.4173 H   0  0  0  0  0  0  0  0  0  0  0  0
   -1.0420    0.9008    0.9792 H   0  0  0  0  0  0  0  0  0  0  0  0
   -1.0461   -0.8677    1.0026 H   0  0  0  0  0  0  0  0  0  0  0  0
    4.0197   -1.1462    0.7267 H   0  0  0  0  0  0  0  0  0  0  0  0
    2.4906   -3.1479    0.4665 H   0  0  0  0  0  0  0  0  0  0  0  0
    0.7606   -2.8076    0.3458 H   0  0  0  0  0  0  0  0  0  0  0  0
    1.7498   -2.8955   -1.1229 H   0  0  0  0  0  0  0  0  0  0  0  0
    0.8273    2.7541    0.4435 H   0  0  0  0  0  0  0  0  0  0  0  0
    2.5401    3.1473    0.2526 H   0  0  0  0  0  0  0  0  0  0  0  0
    1.5602    2.7719   -1.1721 H   0  0  0  0  0  0  0  0  0  0  0  0
   -3.2329    0.0321    1.8699 H   0  0  0  0  0  0  0  0  0  0  0  0
   -5.2724   -0.7871    1.0900 H   0  0  0  0  0  0  0  0  0  0  0  0
   -5.2682    0.8407    1.0688 H   0  0  0  0  0  0  0  0  0  0  0  0
  1 13  2  0  0  0  0
  2  3  1  0  0  0  0
  2  8  1  0  0  0  0
  2 18  1  0  0  0  0
  3 10  2  0  0  0  0
  4  5  1  0  0  0  0
  4 13  1  0  0  0  0
  4 25  1  0  0  0  0
  5 26  1  0  0  0  0
  5 27  1  0  0  0  0
  6  7  1  0  0  0  0
  6  8  2  0  0  0  0
  6 10  1  0  0  0  0
  7  9  1  0  0  0  0
  7 14  1  0  0  0  0
  7 15  1  0  0  0  0
  8 11  1  0  0  0  0
  9 13  1  0  0  0  0
  9 16  1  0  0  0  0
  9 17  1  0  0  0  0
 10 12  1  0  0  0  0
 11 19  1  0  0  0  0
 11 20  1  0  0  0  0
 11 21  1  0  0  0  0
 12 22  1  0  0  0  0
 12 23  1  0  0  0  0
 12 24  1  0  0  0  0
M  END
> <PUBCHEM_COMPOUND_CID>
854345

> <PUBCHEM_CONFORMER_RMSD>
0.6

> <PUBCHEM_CONFORMER_DIVERSEORDER>
1
6
8
5
2
9
3
7
13
12
14
4
15
11
10

> <PUBCHEM_MMFF94_PARTIAL_CHARGES>
17
1 -0.57
10 0.11
11 0.18
12 0.18
13 0.57
18 0.27
2 0.3
25 0.37
26 0.36
27 0.36
3 -0.71
4 -0.42
5 -0.73
6 -0.18
7 0.18
8 -0.33
9 0.06

> <PUBCHEM_EFFECTIVE_ROTOR_COUNT>
4

> <PUBCHEM_PHARMACOPHORE_FEATURES>
6
1 1 acceptor
1 2 donor
1 3 acceptor
1 4 donor
1 5 donor
5 2 3 6 8 10 rings

> <PUBCHEM_HEAVY_ATOM_COUNT>
13

> <PUBCHEM_ATOM_DEF_STEREO_COUNT>
0

> <PUBCHEM_ATOM_UDEF_STEREO_COUNT>
0

> <PUBCHEM_BOND_DEF_STEREO_COUNT>
0

> <PUBCHEM_BOND_UDEF_STEREO_COUNT>
0

> <PUBCHEM_ISOTOPIC_ATOM_COUNT>
0

> <PUBCHEM_COMPONENT_COUNT>
1

> <PUBCHEM_CACTVS_TAUTO_COUNT>
2

> <PUBCHEM_CONFORMER_ID>
000D094900000001

> <PUBCHEM_MMFF94_ENERGY>
11.2357

> <PUBCHEM_FEATURE_SELFOVERLAP>
31.958

> <PUBCHEM_SHAPE_FINGERPRINT>
10219947 1 18411427211007616860
11471102 20 18411139134175737261
12251169 10 18407758136178704471
12346645 6 18335417976063128670
12932764 1 18409730668623542877
13380536 305 18338509738847680292
14251717 144 18410301301983650423
14252887 29 18059847394158134979
15279307 12 18113622248662261551
15501101 241 18273496771168663060
15775835 57 17603304830019095409
16945 1 18410859858480615188
18186145 218 18334859402681239151
19049666 15 17844257434779698477
20201158 50 18271810141722114354
20279233 1 17846784018201132975
20559304 39 18334851740459901232
20645477 70 18266754634877099183
20715346 28 17775008985676730767
20871998 22 18045780358657575310
21730867 7 18342736308193340379
2255824 54 18409163286226974540
23598291 2 18113901533231641893
2748010 2 18049457125434785212
77492 1 17676779703150901167

> <PUBCHEM_SHAPE_MULTIPOLES>
241.74
6.81
1.94
0.86
8.54
0.08
-0.13
-0.1
1.5
-2.4
-0.06
0.54
0
-0.01

> <PUBCHEM_SHAPE_SELFOVERLAP>
489.083

> <PUBCHEM_SHAPE_VOLUME>
143.5

> <PUBCHEM_COORDINATE_TYPE>
2
5
10

$$$$

