17395911
  -OEChem-06241222533D

 42 44  0     1  0  0  0  0  0999 V2000
   -1.8814   -3.2805   -1.4289 Cl  0  0  0  0  0  0  0  0  0  0  0  0
    3.4786   -0.2027   -0.2998 S   0  0  0  0  0  0  0  0  0  0  0  0
   -0.7610    2.5918    2.7399 F   0  0  0  0  0  0  0  0  0  0  0  0
   -1.5601    0.5722    2.5167 F   0  0  0  0  0  0  0  0  0  0  0  0
   -0.4295   -2.0170    2.5766 F   0  0  0  0  0  0  0  0  0  0  0  0
   -2.1814   -1.8843    1.3050 F   0  0  0  0  0  0  0  0  0  0  0  0
   -1.1279   -3.7761    1.5059 F   0  0  0  0  0  0  0  0  0  0  0  0
    3.8968   -0.4994    1.0571 O   0  0  0  0  0  0  0  0  0  0  0  0
    4.3623   -0.4867   -1.4143 O   0  0  0  0  0  0  0  0  0  0  0  0
   -0.5137    1.5387    0.7043 N   0  0  0  0  0  0  0  0  0  0  0  0
    2.9907    1.4121   -0.4062 N   0  0  0  0  0  0  0  0  0  0  0  0
    0.3001    1.8616   -1.3386 N   0  0  0  0  0  0  0  0  0  0  0  0
    1.9399    1.9258    0.5307 C   0  0  2  0  0  0  0  0  0  0  0  0
    0.5937    1.7800   -0.0601 C   0  0  0  0  0  0  0  0  0  0  0  0
   -1.5939    1.4588   -0.1368 C   0  0  0  0  0  0  0  0  0  0  0  0
   -1.0600    1.6638   -1.4061 C   0  0  0  0  0  0  0  0  0  0  0  0
    2.3053    3.3783    0.8827 C   0  0  0  0  0  0  0  0  0  0  0  0
    1.9681   -1.0683   -0.6063 C   0  0  0  0  0  0  0  0  0  0  0  0
   -0.5456    1.3924    2.1422 C   0  0  0  0  0  0  0  0  0  0  0  0
   -2.9506    1.2318    0.0965 C   0  0  0  0  0  0  0  0  0  0  0  0
   -1.9158    1.6446   -2.5202 C   0  0  0  0  0  0  0  0  0  0  0  0
    1.1290   -1.4053    0.4558 C   0  0  0  0  0  0  0  0  0  0  0  0
    1.6152   -1.4142   -1.9107 C   0  0  0  0  0  0  0  0  0  0  0  0
   -3.7879    1.2158   -1.0238 C   0  0  0  0  0  0  0  0  0  0  0  0
   -0.0629   -2.0881    0.2136 C   0  0  0  0  0  0  0  0  0  0  0  0
   -3.2818    1.4184   -2.3097 C   0  0  0  0  0  0  0  0  0  0  0  0
    0.4233   -2.0971   -2.1530 C   0  0  0  0  0  0  0  0  0  0  0  0
   -0.4157   -2.4340   -1.0909 C   0  0  0  0  0  0  0  0  0  0  0  0
   -0.9339   -2.4323    1.3785 C   0  0  0  0  0  0  0  0  0  0  0  0
    2.0438    1.3548    1.4566 H   0  0  0  0  0  0  0  0  0  0  0  0
    3.0794    1.9100   -1.3010 H   0  0  0  0  0  0  0  0  0  0  0  0
    1.5994    3.7934    1.6098 H   0  0  0  0  0  0  0  0  0  0  0  0
    3.3123    3.4336    1.3105 H   0  0  0  0  0  0  0  0  0  0  0  0
    2.2851    4.0177   -0.0075 H   0  0  0  0  0  0  0  0  0  0  0  0
    0.3782    0.9595    2.5235 H   0  0  0  0  0  0  0  0  0  0  0  0
   -3.3556    1.0808    1.0901 H   0  0  0  0  0  0  0  0  0  0  0  0
   -1.5320    1.8000   -3.5235 H   0  0  0  0  0  0  0  0  0  0  0  0
    1.4084   -1.1405    1.4715 H   0  0  0  0  0  0  0  0  0  0  0  0
    2.2490   -1.1544   -2.7537 H   0  0  0  0  0  0  0  0  0  0  0  0
   -4.8531    1.0438   -0.8901 H   0  0  0  0  0  0  0  0  0  0  0  0
   -3.9574    1.4002   -3.1611 H   0  0  0  0  0  0  0  0  0  0  0  0
    0.1614   -2.3572   -3.1755 H   0  0  0  0  0  0  0  0  0  0  0  0
  1 28  1  0  0  0  0
  2  8  2  0  0  0  0
  2  9  2  0  0  0  0
  2 11  1  0  0  0  0
  2 18  1  0  0  0  0
  3 19  1  0  0  0  0
  4 19  1  0  0  0  0
  5 29  1  0  0  0  0
  6 29  1  0  0  0  0
  7 29  1  0  0  0  0
 10 14  1  0  0  0  0
 10 15  1  0  0  0  0
 10 19  1  0  0  0  0
 11 13  1  0  0  0  0
 11 31  1  0  0  0  0
 12 14  2  0  0  0  0
 12 16  1  0  0  0  0
 13 14  1  0  0  0  0
 13 17  1  0  0  0  0
 13 30  1  0  0  0  0
 15 16  1  0  0  0  0
 15 20  2  0  0  0  0
 16 21  2  0  0  0  0
 17 32  1  0  0  0  0
 17 33  1  0  0  0  0
 17 34  1  0  0  0  0
 18 22  2  0  0  0  0
 18 23  1  0  0  0  0
 19 35  1  0  0  0  0
 20 24  1  0  0  0  0
 20 36  1  0  0  0  0
 21 26  1  0  0  0  0
 21 37  1  0  0  0  0
 22 25  1  0  0  0  0
 22 38  1  0  0  0  0
 23 27  2  0  0  0  0
 23 39  1  0  0  0  0
 24 26  2  0  0  0  0
 24 40  1  0  0  0  0
 25 28  2  0  0  0  0
 25 29  1  0  0  0  0
 26 41  1  0  0  0  0
 27 28  1  0  0  0  0
 27 42  1  0  0  0  0
M  END
> <PUBCHEM_COMPOUND_CID>
17395911

> <PUBCHEM_CONFORMER_RMSD>
0.8

> <PUBCHEM_CONFORMER_DIVERSEORDER>
1
79
64
31
11
24
85
28
53
90
84
91
57
77
36
51
42
89
44
72
13
60
14
4
49
45
43
2
70
80
16
76
86
41
55
52
39
15
65
56
29
3
48
50
26
62
88
9
54
71
82
81
66
6
38
61
34
67
27
37
12
63
33
5
7
18
78
21
69
46
47
87
23
58
32
30
73
40
19
68
83
22
17
20
35
75
10
59
25
8
74

> <PUBCHEM_MMFF94_PARTIAL_CHARGES>
36
1 -0.18
10 0.05
11 -0.91
12 -0.57
13 0.54
14 0.01
15 -0.15
16 0.23
18 -0.01
19 0.94
2 1.45
20 -0.15
21 -0.15
22 -0.15
23 -0.15
24 -0.15
25 -0.14
26 -0.15
27 -0.15
28 0.18
29 1.16
3 -0.34
31 0.42
36 0.15
37 0.15
38 0.15
39 0.15
4 -0.34
40 0.15
41 0.15
42 0.15
5 -0.34
6 -0.34
7 -0.34
8 -0.65
9 -0.65

> <PUBCHEM_EFFECTIVE_ROTOR_COUNT>
6

> <PUBCHEM_PHARMACOPHORE_FEATURES>
7
1 11 donor
1 8 acceptor
1 9 acceptor
3 10 12 14 cation
5 10 12 14 15 16 rings
6 15 16 20 21 24 26 rings
6 18 22 23 25 27 28 rings

> <PUBCHEM_HEAVY_ATOM_COUNT>
29

> <PUBCHEM_ATOM_DEF_STEREO_COUNT>
0

> <PUBCHEM_ATOM_UDEF_STEREO_COUNT>
1

> <PUBCHEM_BOND_DEF_STEREO_COUNT>
0

> <PUBCHEM_BOND_UDEF_STEREO_COUNT>
0

> <PUBCHEM_ISOTOPIC_ATOM_COUNT>
0

> <PUBCHEM_COMPONENT_COUNT>
1

> <PUBCHEM_CACTVS_TAUTO_COUNT>
1

> <PUBCHEM_CONFORMER_ID>
010970C700000001

> <PUBCHEM_MMFF94_ENERGY>
36.6638

> <PUBCHEM_FEATURE_SELFOVERLAP>
35.646

> <PUBCHEM_SHAPE_FINGERPRINT>
10119406 146 17614258380759777198
104564 63 17906735804243464508
11578080 2 17171541882532151298
12156800 1 17178619511757783163
12422481 6 18194666100184836803
13149001 5 18408611344464929292
13583140 156 17059468834839609364
13965767 371 17539660548807478250
14787075 74 17025189317412159264
14840074 17 16470645924791166372
16945 1 18190198921252310772
17357779 13 18050570638276482438
17492 54 18339935920791506661
20600515 1 16044132547950832003
20691752 17 17916605145611584167
20905425 154 17902805058674526766
21285901 2 17762640394434088759
23419403 2 18264195942032076844
238 59 18267313195004600757
3052486 1 17773340975172159167
35225 105 17775290464658557062
513532 50 16962719297549791519
5845 1 11237495537628815125
6669772 16 18126316140627598224
81228 2 17768271019376443957

> <PUBCHEM_SHAPE_MULTIPOLES>
539.48
5.01
4.23
2.63
1.58
1.78
-0.87
-1.89
2.32
-0.47
-0.96
-1.18
0.24
0.95

> <PUBCHEM_SHAPE_SELFOVERLAP>
1154.94

> <PUBCHEM_SHAPE_VOLUME>
303.7

> <PUBCHEM_COORDINATE_TYPE>
2
5
10

$$$$

