46174043
  -OEChem-07051213112D

 50 51  0     1  0  0  0  0  0999 V2000
    8.8158    2.6063    0.0000 P   0  0  0  0  0  0  0  0  0  0  0  0
    6.1132    1.1118    0.0000 O   0  0  0  0  0  0  0  0  0  0  0  0
    4.2690    0.4039    0.0000 O   0  0  0  0  0  0  0  0  0  0  0  0
    5.1350   -1.0961    0.0000 O   0  0  0  0  0  0  0  0  0  0  0  0
    3.6405    1.8745    0.0000 O   0  0  0  0  0  0  0  0  0  0  0  0
    5.0962    3.4912    0.0000 O   0  0  0  0  0  0  0  0  0  0  0  0
    2.5369   -0.5961    0.0000 O   0  0  0  0  0  0  0  0  0  0  0  0
    2.5369   -2.5961    0.0000 O   0  0  0  0  0  0  0  0  0  0  0  0
    4.2690   -3.5961    0.0000 O   0  0  0  0  0  0  0  0  0  0  0  0
    6.2940   -0.3833    0.0000 O   0  0  0  0  0  0  0  0  0  0  0  0
    7.9497    2.1063    0.0000 O   0  0  0  0  0  0  0  0  0  0  0  0
    6.0010   -3.5961    0.0000 O   0  0  0  0  0  0  0  0  0  0  0  0
    9.6818    3.1063    0.0000 O   0  0  0  0  0  0  0  0  0  0  0  0
    9.3158    1.7403    0.0000 O   0  0  0  0  0  0  0  0  0  0  0  0
    8.3158    3.4724    0.0000 O   0  0  0  0  0  0  0  0  0  0  0  0
    5.1350    0.9039    0.0000 C   0  0  1  0  0  0  0  0  0  0  0  0
    4.6350    1.7699    0.0000 C   0  0  2  0  0  0  0  0  0  0  0  0
    5.3041    2.5131    0.0000 C   0  0  1  0  0  0  0  0  0  0  0  0
    6.2177    2.1063    0.0000 C   0  0  1  0  0  0  0  0  0  0  0  0
    4.2690   -0.5961    0.0000 C   0  0  1  0  0  0  0  0  0  0  0  0
    3.4030   -1.0961    0.0000 C   0  0  2  0  0  0  0  0  0  0  0  0
    3.4030   -2.0961    0.0000 C   0  0  2  0  0  0  0  0  0  0  0  0
    4.2690   -2.5961    0.0000 C   0  0  1  0  0  0  0  0  0  0  0  0
    5.1350   -2.0961    0.0000 C   0  0  1  0  0  0  0  0  0  0  0  0
    5.3429   -0.0742    0.0000 C   0  0  0  0  0  0  0  0  0  0  0  0
    7.0837    2.6063    0.0000 C   0  0  0  0  0  0  0  0  0  0  0  0
    6.0010   -2.5961    0.0000 C   0  0  0  0  0  0  0  0  0  0  0  0
    4.2973    1.2500    0.0000 H   0  0  0  0  0  0  0  0  0  0  0  0
    4.7053    2.6736    0.0000 H   0  0  0  0  0  0  0  0  0  0  0  0
    6.7377    1.7687    0.0000 H   0  0  0  0  0  0  0  0  0  0  0  0
    3.7320   -0.2861    0.0000 H   0  0  0  0  0  0  0  0  0  0  0  0
    3.4030   -0.4761    0.0000 H   0  0  0  0  0  0  0  0  0  0  0  0
    3.4030   -2.7161    0.0000 H   0  0  0  0  0  0  0  0  0  0  0  0
    4.8059   -2.9061    0.0000 H   0  0  0  0  0  0  0  0  0  0  0  0
    5.6720   -1.7861    0.0000 H   0  0  0  0  0  0  0  0  0  0  0  0
    4.7233   -0.0959    0.0000 H   0  0  0  0  0  0  0  0  0  0  0  0
    5.2566   -0.6882    0.0000 H   0  0  0  0  0  0  0  0  0  0  0  0
    7.4822    3.0813    0.0000 H   0  0  0  0  0  0  0  0  0  0  0  0
    6.6852    3.0813    0.0000 H   0  0  0  0  0  0  0  0  0  0  0  0
    3.3883    2.4409    0.0000 H   0  0  0  0  0  0  0  0  0  0  0  0
    6.6116   -2.7038    0.0000 H   0  0  0  0  0  0  0  0  0  0  0  0
    6.2131   -2.0135    0.0000 H   0  0  0  0  0  0  0  0  0  0  0  0
    5.5570    3.9061    0.0000 H   0  0  0  0  0  0  0  0  0  0  0  0
    2.0000   -0.9061    0.0000 H   0  0  0  0  0  0  0  0  0  0  0  0
    2.5369   -3.2161    0.0000 H   0  0  0  0  0  0  0  0  0  0  0  0
    3.7320   -3.9061    0.0000 H   0  0  0  0  0  0  0  0  0  0  0  0
    6.4229   -0.9897    0.0000 H   0  0  0  0  0  0  0  0  0  0  0  0
    6.5380   -3.9061    0.0000 H   0  0  0  0  0  0  0  0  0  0  0  0
   10.2187    2.7963    0.0000 H   0  0  0  0  0  0  0  0  0  0  0  0
    9.9358    1.7403    0.0000 H   0  0  0  0  0  0  0  0  0  0  0  0
  1 11  1  0  0  0  0
  1 13  1  0  0  0  0
  1 14  1  0  0  0  0
  1 15  2  0  0  0  0
  2 16  1  0  0  0  0
  2 19  1  0  0  0  0
 16  3  1  1  0  0  0
 20  3  1  1  0  0  0
  4 20  1  0  0  0  0
  4 24  1  0  0  0  0
 17  5  1  1  0  0  0
  5 40  1  0  0  0  0
 18  6  1  6  0  0  0
  6 43  1  0  0  0  0
 21  7  1  6  0  0  0
  7 44  1  0  0  0  0
 22  8  1  6  0  0  0
  8 45  1  0  0  0  0
 23  9  1  1  0  0  0
  9 46  1  0  0  0  0
 10 25  1  0  0  0  0
 10 47  1  0  0  0  0
 11 26  1  0  0  0  0
 12 27  1  0  0  0  0
 12 48  1  0  0  0  0
 13 49  1  0  0  0  0
 14 50  1  0  0  0  0
 16 17  1  0  0  0  0
 16 25  1  0  0  0  0
 17 18  1  0  0  0  0
 17 28  1  0  0  0  0
 18 19  1  0  0  0  0
 18 29  1  0  0  0  0
 19 26  1  1  0  0  0
 19 30  1  0  0  0  0
 20 21  1  0  0  0  0
 20 31  1  0  0  0  0
 21 22  1  0  0  0  0
 21 32  1  0  0  0  0
 22 23  1  0  0  0  0
 22 33  1  0  0  0  0
 23 24  1  0  0  0  0
 23 34  1  0  0  0  0
 24 27  1  6  0  0  0
 24 35  1  0  0  0  0
 25 36  1  0  0  0  0
 25 37  1  0  0  0  0
 26 38  1  0  0  0  0
 26 39  1  0  0  0  0
 27 41  1  0  0  0  0
 27 42  1  0  0  0  0
M  END
> <PUBCHEM_COMPOUND_CID>
46174043

> <PUBCHEM_COMPOUND_CANONICALIZED>
1

> <PUBCHEM_CACTVS_COMPLEXITY>
542

> <PUBCHEM_CACTVS_HBOND_ACCEPTOR>
14

> <PUBCHEM_CACTVS_HBOND_DONOR>
9

> <PUBCHEM_CACTVS_ROTATABLE_BOND>
7

> <PUBCHEM_CACTVS_SUBSKEYS>
AAADceBwPAIAAAAAAAAAAAAAAAAAASAAAAAkAAAAAAAAAAAAAAAAGgAACCAACBSwgAMACAAABxAAQAAAAIAAAAAAAAAAAAAAAAAREAIAAAAiQAAFAAAHAAHAYAwAAAAAAAAAAAAAAAAAAAAAAAAAAAAAAA==

> <PUBCHEM_IUPAC_OPENEYE_NAME>
[(2R,3S,4S,5S)-3,4-dihydroxy-5-(hydroxymethyl)-5-[(2R,3S,4S,5S,6R)-3,4,5-trihydroxy-6-(hydroxymethyl)tetrahydropyran-2-yl]oxy-tetrahydrofuran-2-yl]methyl dihydrogen phosphate

> <PUBCHEM_IUPAC_CAS_NAME>
[(2R,3S,4S,5S)-3,4-dihydroxy-5-(hydroxymethyl)-5-[[(2R,3S,4S,5S,6R)-3,4,5-trihydroxy-6-(hydroxymethyl)-2-oxanyl]oxy]-2-oxolanyl]methyl dihydrogen phosphate

> <PUBCHEM_IUPAC_NAME>
[(2R,3S,4S,5S)-3,4-dihydroxy-5-(hydroxymethyl)-5-[(2R,3S,4S,5S,6R)-3,4,5-trihydroxy-6-(hydroxymethyl)oxan-2-yl]oxyoxolan-2-yl]methyl dihydrogen phosphate

> <PUBCHEM_IUPAC_SYSTEMATIC_NAME>
[(2R,3S,4S,5S)-5-(hydroxymethyl)-5-[(2R,3S,4S,5S,6R)-6-(hydroxymethyl)-3,4,5-tris(oxidanyl)oxan-2-yl]oxy-3,4-bis(oxidanyl)oxolan-2-yl]methyl dihydrogen phosphate

> <PUBCHEM_IUPAC_TRADITIONAL_NAME>
[(2R,3S,4S,5S)-3,4-dihydroxy-5-methylol-5-[(2R,3S,4S,5S,6R)-3,4,5-trihydroxy-6-methylol-tetrahydropyran-2-yl]oxy-tetrahydrofuran-2-yl]methyl dihydrogen phosphate

> <PUBCHEM_IUPAC_INCHI>
InChI=1S/C12H23O14P/c13-1-4-6(15)8(17)9(18)11(24-4)26-12(3-14)10(19)7(16)5(25-12)2-23-27(20,21)22/h4-11,13-19H,1-3H2,(H2,20,21,22)/t4-,5-,6-,7-,8+,9+,10+,11-,12+/m1/s1

> <PUBCHEM_IUPAC_INCHIKEY>
PJTTXANTBQDXME-VJRJJCRKSA-N

> <PUBCHEM_XLOGP3>
-5.3

> <PUBCHEM_EXACT_MASS>
422.082542

> <PUBCHEM_MOLECULAR_FORMULA>
C12H23O14P

> <PUBCHEM_MOLECULAR_WEIGHT>
422.276382

> <PUBCHEM_OPENEYE_CAN_SMILES>
C(C1C(C(C(C(O1)OC2(C(C(C(O2)COP(=O)(O)O)O)O)CO)O)O)O)O

> <PUBCHEM_OPENEYE_ISO_SMILES>
C([C@@H]1[C@H]([C@@H]([C@@H]([C@H](O1)O[C@]2([C@H]([C@@H]([C@H](O2)COP(=O)(O)O)O)O)CO)O)O)O)O

> <PUBCHEM_CACTVS_TPSA>
236

> <PUBCHEM_MONOISOTOPIC_WEIGHT>
422.082542

> <PUBCHEM_TOTAL_CHARGE>
0

> <PUBCHEM_HEAVY_ATOM_COUNT>
27

> <PUBCHEM_ATOM_DEF_STEREO_COUNT>
9

> <PUBCHEM_ATOM_UDEF_STEREO_COUNT>
0

> <PUBCHEM_BOND_DEF_STEREO_COUNT>
0

> <PUBCHEM_BOND_UDEF_STEREO_COUNT>
0

> <PUBCHEM_ISOTOPIC_ATOM_COUNT>
0

> <PUBCHEM_COMPONENT_COUNT>
1

> <PUBCHEM_CACTVS_TAUTO_COUNT>
1

> <PUBCHEM_COORDINATE_TYPE>
1
5
255

> <PUBCHEM_BONDANNOTATIONS>
19  26  5
24  27  6
16  3  5
20  3  5
17  5  5
18  6  6
21  7  6
22  8  6
23  9  5

$$$$

