17396453
  -OEChem-06241222563D

 45 46  0     1  0  0  0  0  0999 V2000
    7.3016    0.8723   -0.7545 Cl  0  0  0  0  0  0  0  0  0  0  0  0
   -2.3898    1.1331   -1.0393 S   0  0  0  0  0  0  0  0  0  0  0  0
    5.2625   -2.8619    0.5301 F   0  0  0  0  0  0  0  0  0  0  0  0
    6.5114   -2.0928   -1.0676 F   0  0  0  0  0  0  0  0  0  0  0  0
    6.9894   -1.6276    1.0021 F   0  0  0  0  0  0  0  0  0  0  0  0
   -1.2936    0.5627   -1.8006 O   0  0  0  0  0  0  0  0  0  0  0  0
   -3.2072    2.1737   -1.6354 O   0  0  0  0  0  0  0  0  0  0  0  0
    0.7865    2.5986    0.4074 O   0  0  0  0  0  0  0  0  0  0  0  0
   -7.9551   -1.5872    0.0443 O   0  0  0  0  0  0  0  0  0  0  0  0
   -1.8073    1.6673    0.4934 N   0  0  2  0  0  0  0  0  0  0  0  0
    1.5705    0.4043    0.6975 N   0  0  0  0  0  0  0  0  0  0  0  0
   -0.7247    0.8795    1.1358 C   0  0  0  0  0  0  0  0  0  0  0  0
   -3.4723   -0.1976   -0.5990 C   0  0  0  0  0  0  0  0  0  0  0  0
   -2.8027    2.1530    1.4826 C   0  0  0  0  0  0  0  0  0  0  0  0
   -4.8205    0.0548   -0.3453 C   0  0  0  0  0  0  0  0  0  0  0  0
    0.6179    1.4200    0.7027 C   0  0  0  0  0  0  0  0  0  0  0  0
   -2.9765   -1.4981   -0.5053 C   0  0  0  0  0  0  0  0  0  0  0  0
   -5.6728   -0.9933    0.0023 C   0  0  0  0  0  0  0  0  0  0  0  0
    2.9393    0.5065    0.3528 C   0  0  0  0  0  0  0  0  0  0  0  0
   -3.8289   -2.5461   -0.1579 C   0  0  0  0  0  0  0  0  0  0  0  0
   -5.1770   -2.2937    0.0959 C   0  0  0  0  0  0  0  0  0  0  0  0
    3.7577   -0.6221    0.4024 C   0  0  0  0  0  0  0  0  0  0  0  0
    5.1066   -0.5209    0.0621 C   0  0  0  0  0  0  0  0  0  0  0  0
    3.4698    1.7361   -0.0372 C   0  0  0  0  0  0  0  0  0  0  0  0
   -7.0777   -0.7299    0.2696 C   0  0  0  0  0  0  0  0  0  0  0  0
    5.6371    0.7088   -0.3278 C   0  0  0  0  0  0  0  0  0  0  0  0
    4.8188    1.8372   -0.3774 C   0  0  0  0  0  0  0  0  0  0  0  0
    5.9498   -1.7533    0.1288 C   0  0  0  0  0  0  0  0  0  0  0  0
   -7.5130    0.6167    0.8374 C   0  0  0  0  0  0  0  0  0  0  0  0
   -0.7706    0.9621    2.2281 H   0  0  0  0  0  0  0  0  0  0  0  0
   -0.8296   -0.1815    0.8943 H   0  0  0  0  0  0  0  0  0  0  0  0
   -3.5800    2.7441    0.9903 H   0  0  0  0  0  0  0  0  0  0  0  0
   -2.3078    2.8109    2.2043 H   0  0  0  0  0  0  0  0  0  0  0  0
   -3.2619    1.3179    2.0187 H   0  0  0  0  0  0  0  0  0  0  0  0
   -5.2031    1.0682   -0.4278 H   0  0  0  0  0  0  0  0  0  0  0  0
   -1.9305   -1.7185   -0.6979 H   0  0  0  0  0  0  0  0  0  0  0  0
    1.2704   -0.5274    0.9761 H   0  0  0  0  0  0  0  0  0  0  0  0
   -3.4426   -3.5585   -0.0838 H   0  0  0  0  0  0  0  0  0  0  0  0
   -5.8250   -3.1224    0.3697 H   0  0  0  0  0  0  0  0  0  0  0  0
    3.3339   -1.5758    0.7077 H   0  0  0  0  0  0  0  0  0  0  0  0
    2.9011    2.6530   -0.1002 H   0  0  0  0  0  0  0  0  0  0  0  0
    5.2183    2.8023   -0.6793 H   0  0  0  0  0  0  0  0  0  0  0  0
   -7.7208    1.3093    0.0182 H   0  0  0  0  0  0  0  0  0  0  0  0
   -6.7437    1.0272    1.4972 H   0  0  0  0  0  0  0  0  0  0  0  0
   -8.4180    0.4758    1.4361 H   0  0  0  0  0  0  0  0  0  0  0  0
  1 26  1  0  0  0  0
  2  6  2  0  0  0  0
  2  7  2  0  0  0  0
  2 10  1  0  0  0  0
  2 13  1  0  0  0  0
  3 28  1  0  0  0  0
  4 28  1  0  0  0  0
  5 28  1  0  0  0  0
  8 16  2  0  0  0  0
  9 25  2  0  0  0  0
 10 12  1  0  0  0  0
 10 14  1  0  0  0  0
 11 16  1  0  0  0  0
 11 19  1  0  0  0  0
 11 37  1  0  0  0  0
 12 16  1  0  0  0  0
 12 30  1  0  0  0  0
 12 31  1  0  0  0  0
 13 15  1  0  0  0  0
 13 17  2  0  0  0  0
 14 32  1  0  0  0  0
 14 33  1  0  0  0  0
 14 34  1  0  0  0  0
 15 18  2  0  0  0  0
 15 35  1  0  0  0  0
 17 20  1  0  0  0  0
 17 36  1  0  0  0  0
 18 21  1  0  0  0  0
 18 25  1  0  0  0  0
 19 22  2  0  0  0  0
 19 24  1  0  0  0  0
 20 21  2  0  0  0  0
 20 38  1  0  0  0  0
 21 39  1  0  0  0  0
 22 23  1  0  0  0  0
 22 40  1  0  0  0  0
 23 26  2  0  0  0  0
 23 28  1  0  0  0  0
 24 27  2  0  0  0  0
 24 41  1  0  0  0  0
 25 29  1  0  0  0  0
 26 27  1  0  0  0  0
 27 42  1  0  0  0  0
 29 43  1  0  0  0  0
 29 44  1  0  0  0  0
 29 45  1  0  0  0  0
M  END
> <PUBCHEM_COMPOUND_CID>
17396453

> <PUBCHEM_CONFORMER_RMSD>
1.2

> <PUBCHEM_CONFORMER_DIVERSEORDER>
2
126
99
115
49
53
122
175
173
176
178
55
155
102
12
47
150
140
66
161
97
37
130
174
119
170
48
80
50
44
165
43
182
132
134
153
184
133
77
4
76
141
72
181
186
51
108
34
25
62
83
110
92
127
95
75
82
11
69
94
154
113
112
142
101
93
105
158
59
147
169
111
15
118
57
160
65
114
183
89
90
185
84
135
123
85
96
36
100
6
18
86
3
30
24
179
107
21
129
149
103
148
7
104
79
124
16
42
35
70
9
109
73
120
26
136
54
131
40
151
27
19
63
14
23
20
144
156
67
17
117
157
71
139
64
10
146
143
60
152
88
28
68
81
46
39
171
32
22
98
29
52
137
116
163
172
38
164
56
31
13
121
87
8
61
145
168
177
58
74
180
41
166
159
33
125
162
106
5
1
78
45
167
128
138
91

> <PUBCHEM_MMFF94_PARTIAL_CHARGES>
37
1 -0.18
10 -0.85
11 -0.55
12 0.42
13 -0.01
14 0.36
15 -0.15
16 0.57
17 -0.15
18 0.09
19 0.12
2 1.45
20 -0.15
21 -0.15
22 -0.15
23 -0.14
24 -0.15
25 0.42
26 0.18
27 -0.15
28 1.16
29 0.06
3 -0.34
35 0.15
36 0.15
37 0.37
38 0.15
39 0.15
4 -0.34
40 0.15
41 0.15
42 0.15
5 -0.34
6 -0.65
7 -0.65
8 -0.57
9 -0.57

> <PUBCHEM_EFFECTIVE_ROTOR_COUNT>
8

> <PUBCHEM_PHARMACOPHORE_FEATURES>
7
1 11 donor
1 6 acceptor
1 7 acceptor
1 8 acceptor
1 9 acceptor
6 13 15 17 18 20 21 rings
6 19 22 23 24 26 27 rings

> <PUBCHEM_HEAVY_ATOM_COUNT>
29

> <PUBCHEM_ATOM_DEF_STEREO_COUNT>
0

> <PUBCHEM_ATOM_UDEF_STEREO_COUNT>
0

> <PUBCHEM_BOND_DEF_STEREO_COUNT>
0

> <PUBCHEM_BOND_UDEF_STEREO_COUNT>
0

> <PUBCHEM_ISOTOPIC_ATOM_COUNT>
0

> <PUBCHEM_COMPONENT_COUNT>
1

> <PUBCHEM_CACTVS_TAUTO_COUNT>
4

> <PUBCHEM_CONFORMER_ID>
010972E500000002

> <PUBCHEM_MMFF94_ENERGY>
63.6191

> <PUBCHEM_FEATURE_SELFOVERLAP>
35.539

> <PUBCHEM_SHAPE_FINGERPRINT>
10 15 7997969089404632189
10299344 5 18409445873668786523
11524674 6 17167863037380855359
117089 54 17680132261099256542
12166972 35 18202561774524621628
12592606 108 18261395504035276847
12633257 1 15285645348115100776
12760667 363 18260271841552810919
13533116 47 18336265656910981760
13673619 4 18343023289692911365
13690498 29 18130794477178407405
13911987 19 13326857747181042781
14341114 176 18411420587667133653
14347332 77 18342462572958726224
14420673 8 18410572865099131339
14617045 38 18411418388955270047
15082195 135 18059282155726110524
15131766 46 15432596086521758473
15183329 4 18260541212615622346
15352257 5 18410856538181173663
15461852 350 10807930479320308833
16120349 21 18409724102125228393
18335252 98 18341894070066219812
18643901 69 18342453768407696983
19958102 18 18201446869380641438
20028762 73 18335421305449532962
20157964 124 9943535119551028016
21033648 29 14418120847125420473
21150785 3 17917990560612156892
21267235 1 18334290976881969972
21344244 181 18130785650846807618
22393880 68 18059587926757443960
23522609 53 18118937279555822345
23559900 14 18264497191708488905
3004659 81 18343024376213759050
312425 54 4678811749355050668
329604 57 18408604751811143698
335352 9 18334859390767053973
34797466 226 17203608147235220004
4073 2 18127690431209271930
4098825 35 18273216421357572997
4107672 100 17917720136686669053
4325135 7 18271805692463160380
439807 62 18413671313944755442
44249763 50 12607108570557082514
46194498 28 17775289309734685988
497634 4 18412262848018605693
5104073 3 17894353298039987040
54039377 194 18335136527626745086

> <PUBCHEM_SHAPE_MULTIPOLES>
547.27
22.58
2.79
1.13
3.31
0.79
0.17
11.09
-0.09
0.81
-0.19
-0.3
-0.42
-0.72

> <PUBCHEM_SHAPE_SELFOVERLAP>
1137.288

> <PUBCHEM_SHAPE_VOLUME>
315.9

> <PUBCHEM_COORDINATE_TYPE>
2
5
10

$$$$

