443020
  -OEChem-07051213003D

 67 72  0     1  0  0  0  0  0999 V2000
   -1.8140   -1.9751    0.9749 O   0  0  0  0  0  0  0  0  0  0  0  0
   -3.5432    0.0169   -1.7933 O   0  0  0  0  0  0  0  0  0  0  0  0
    4.4146   -1.5756    0.0100 O   0  0  0  0  0  0  0  0  0  0  0  0
    4.7560    0.7270   -0.1479 O   0  0  0  0  0  0  0  0  0  0  0  0
   -8.6972   -0.6431    1.2344 O   0  0  0  0  0  0  0  0  0  0  0  0
    3.0963   -1.7042   -2.4339 O   0  0  0  0  0  0  0  0  0  0  0  0
   -9.2424    1.5528    0.4046 O   0  0  0  0  0  0  0  0  0  0  0  0
    6.8647   -1.8210    1.4046 O   0  0  0  0  0  0  0  0  0  0  0  0
    8.7559    0.3224    0.6909 O   0  0  0  0  0  0  0  0  0  0  0  0
    7.4908    2.9103    0.9325 O   0  0  0  0  0  0  0  0  0  0  0  0
    3.4426    3.1383   -0.2781 O   0  0  0  0  0  0  0  0  0  0  0  0
   -1.7756    0.0979   -0.2211 C   0  0  1  0  0  0  0  0  0  0  0  0
   -3.0626   -0.0095    0.5514 C   0  0  1  0  0  0  0  0  0  0  0  0
   -1.2392   -1.3395   -0.1853 C   0  0  1  0  0  0  0  0  0  0  0  0
   -4.0699   -0.4303   -0.5271 C   0  0  1  0  0  0  0  0  0  0  0  0
   -2.7584   -1.0789    1.5767 C   0  0  0  0  0  0  0  0  0  0  0  0
   -2.2330    0.5626   -1.5858 C   0  0  0  0  0  0  0  0  0  0  0  0
    0.2687   -1.4030   -0.1368 C   0  0  0  0  0  0  0  0  0  0  0  0
   -5.4509    0.1343   -0.2943 C   0  0  0  0  0  0  0  0  0  0  0  0
    1.0001   -1.5261   -1.3182 C   0  0  0  0  0  0  0  0  0  0  0  0
    0.9302   -1.3385    1.0894 C   0  0  0  0  0  0  0  0  0  0  0  0
   -6.4032   -0.6185    0.4000 C   0  0  0  0  0  0  0  0  0  0  0  0
   -5.7718    1.4165   -0.7782 C   0  0  0  0  0  0  0  0  0  0  0  0
    2.3931   -1.5843   -1.2734 C   0  0  0  0  0  0  0  0  0  0  0  0
    6.5811   -0.7172    0.5453 C   0  0  2  0  0  0  0  0  0  0  0  0
    7.3752    0.5040    1.0091 C   0  0  2  0  0  0  0  0  0  0  0  0
    2.3233   -1.3971    1.1343 C   0  0  0  0  0  0  0  0  0  0  0  0
    5.0764   -0.4510    0.5882 C   0  0  2  0  0  0  0  0  0  0  0  0
   -7.6511   -0.0604    0.5877 C   0  0  0  0  0  0  0  0  0  0  0  0
    6.8925    1.7758    0.3114 C   0  0  1  0  0  0  0  0  0  0  0  0
    3.0490   -1.5197   -0.0474 C   0  0  0  0  0  0  0  0  0  0  0  0
    5.3692    1.8971    0.3963 C   0  0  1  0  0  0  0  0  0  0  0  0
   -7.0431    1.9583   -0.5742 C   0  0  0  0  0  0  0  0  0  0  0  0
   -7.9624    1.1934    0.1139 C   0  0  0  0  0  0  0  0  0  0  0  0
    4.8532    3.0962   -0.3928 C   0  0  0  0  0  0  0  0  0  0  0  0
   -9.7018    0.3849    1.1149 C   0  0  0  0  0  0  0  0  0  0  0  0
    3.4871   -0.4958   -3.0829 C   0  0  0  0  0  0  0  0  0  0  0  0
   -1.0709    0.8027    0.2346 H   0  0  0  0  0  0  0  0  0  0  0  0
   -3.3486    0.9377    1.0226 H   0  0  0  0  0  0  0  0  0  0  0  0
   -1.5909   -1.9230   -1.0458 H   0  0  0  0  0  0  0  0  0  0  0  0
   -4.1429   -1.5226   -0.6069 H   0  0  0  0  0  0  0  0  0  0  0  0
   -3.6405   -1.6381    1.9008 H   0  0  0  0  0  0  0  0  0  0  0  0
   -2.2795   -0.6453    2.4613 H   0  0  0  0  0  0  0  0  0  0  0  0
   -2.3252    1.6537   -1.6149 H   0  0  0  0  0  0  0  0  0  0  0  0
   -1.5718    0.2502   -2.3989 H   0  0  0  0  0  0  0  0  0  0  0  0
    0.4896   -1.5758   -2.2769 H   0  0  0  0  0  0  0  0  0  0  0  0
    0.3828   -1.2366    2.0222 H   0  0  0  0  0  0  0  0  0  0  0  0
   -6.1738   -1.6078    0.7810 H   0  0  0  0  0  0  0  0  0  0  0  0
   -5.0350    2.0131   -1.3097 H   0  0  0  0  0  0  0  0  0  0  0  0
    6.8888   -1.0149   -0.4641 H   0  0  0  0  0  0  0  0  0  0  0  0
    7.3248    0.6170    2.0985 H   0  0  0  0  0  0  0  0  0  0  0  0
    4.7549   -0.3370    1.6318 H   0  0  0  0  0  0  0  0  0  0  0  0
    7.2199    1.7569   -0.7363 H   0  0  0  0  0  0  0  0  0  0  0  0
    2.8183   -1.3627    2.1004 H   0  0  0  0  0  0  0  0  0  0  0  0
    5.0423    2.0111    1.4389 H   0  0  0  0  0  0  0  0  0  0  0  0
   -7.2919    2.9465   -0.9440 H   0  0  0  0  0  0  0  0  0  0  0  0
    5.0997    3.0124   -1.4565 H   0  0  0  0  0  0  0  0  0  0  0  0
    5.2499    4.0406   -0.0110 H   0  0  0  0  0  0  0  0  0  0  0  0
  -10.0162    0.6869    2.1206 H   0  0  0  0  0  0  0  0  0  0  0  0
  -10.5672   -0.0300    0.5855 H   0  0  0  0  0  0  0  0  0  0  0  0
    8.8315    0.2018   -0.2710 H   0  0  0  0  0  0  0  0  0  0  0  0
    6.5989   -1.5765    2.3075 H   0  0  0  0  0  0  0  0  0  0  0  0
    7.3727    3.6713    0.3396 H   0  0  0  0  0  0  0  0  0  0  0  0
    3.6553   -0.7157   -4.1408 H   0  0  0  0  0  0  0  0  0  0  0  0
    2.7126    0.2746   -3.0059 H   0  0  0  0  0  0  0  0  0  0  0  0
    4.4236   -0.1308   -2.6531 H   0  0  0  0  0  0  0  0  0  0  0  0
    3.0945    2.2954   -0.6162 H   0  0  0  0  0  0  0  0  0  0  0  0
  1 14  1  0  0  0  0
  1 16  1  0  0  0  0
  2 15  1  0  0  0  0
  2 17  1  0  0  0  0
  3 28  1  0  0  0  0
  3 31  1  0  0  0  0
  4 28  1  0  0  0  0
  4 32  1  0  0  0  0
  5 29  1  0  0  0  0
  5 36  1  0  0  0  0
  6 24  1  0  0  0  0
  6 37  1  0  0  0  0
  7 34  1  0  0  0  0
  7 36  1  0  0  0  0
  8 25  1  0  0  0  0
  8 62  1  0  0  0  0
  9 26  1  0  0  0  0
  9 61  1  0  0  0  0
 10 30  1  0  0  0  0
 10 63  1  0  0  0  0
 11 35  1  0  0  0  0
 11 67  1  0  0  0  0
 12 13  1  0  0  0  0
 12 14  1  0  0  0  0
 12 17  1  0  0  0  0
 12 38  1  0  0  0  0
 13 15  1  0  0  0  0
 13 16  1  0  0  0  0
 13 39  1  0  0  0  0
 14 18  1  0  0  0  0
 14 40  1  0  0  0  0
 15 19  1  0  0  0  0
 15 41  1  0  0  0  0
 16 42  1  0  0  0  0
 16 43  1  0  0  0  0
 17 44  1  0  0  0  0
 17 45  1  0  0  0  0
 18 20  2  0  0  0  0
 18 21  1  0  0  0  0
 19 22  2  0  0  0  0
 19 23  1  0  0  0  0
 20 24  1  0  0  0  0
 20 46  1  0  0  0  0
 21 27  2  0  0  0  0
 21 47  1  0  0  0  0
 22 29  1  0  0  0  0
 22 48  1  0  0  0  0
 23 33  2  0  0  0  0
 23 49  1  0  0  0  0
 24 31  2  0  0  0  0
 25 26  1  0  0  0  0
 25 28  1  0  0  0  0
 25 50  1  0  0  0  0
 26 30  1  0  0  0  0
 26 51  1  0  0  0  0
 27 31  1  0  0  0  0
 27 54  1  0  0  0  0
 28 52  1  0  0  0  0
 29 34  2  0  0  0  0
 30 32  1  0  0  0  0
 30 53  1  0  0  0  0
 32 35  1  0  0  0  0
 32 55  1  0  0  0  0
 33 34  1  0  0  0  0
 33 56  1  0  0  0  0
 35 57  1  0  0  0  0
 35 58  1  0  0  0  0
 36 59  1  0  0  0  0
 36 60  1  0  0  0  0
 37 64  1  0  0  0  0
 37 65  1  0  0  0  0
 37 66  1  0  0  0  0
M  END
> <PUBCHEM_COMPOUND_CID>
443020

> <PUBCHEM_CONFORMER_RMSD>
1.2

> <PUBCHEM_CONFORMER_DIVERSEORDER>
3
49
103
80
165
132
22
6
173
30
11
27
56
152
53
60
141
65
108
154
41
145
169
128
167
69
92
26
144
115
151
66
163
142
181
104
73
170
43
25
71
94
153
130
48
156
19
148
161
45
81
54
155
74
117
77
109
174
42
76
121
164
120
89
40
143
136
88
135
106
176
129
177
50
160
67
134
99
86
83
34
122
185
133
51
36
79
85
12
20
131
84
1
175
90
172
116
91
188
28
21
168
13
62
68
100
31
98
35
32
118
126
72
52
29
38
119
186
101
96
113
17
179
58
4
5
183
105
140
7
87
184
138
14
93
63
127
44
149
182
78
166
110
61
180
64
187
18
16
114
10
178
150
57
39
158
171
70
95
8
162
124
24
82
157
125
15
137
55
23
75
37
33
102
9
159
59
112
123
146
139
111
2
107
97
147
47
46

> <PUBCHEM_MMFF94_PARTIAL_CHARGES>
45
1 -0.56
10 -0.68
11 -0.68
14 0.42
15 0.42
16 0.28
17 0.28
18 -0.14
19 -0.14
2 -0.56
20 -0.15
21 -0.15
22 -0.15
23 -0.15
24 0.08
25 0.28
26 0.28
27 -0.15
28 0.56
29 0.08
3 -0.36
30 0.28
31 0.08
32 0.28
33 -0.15
34 0.08
35 0.28
36 0.56
37 0.28
4 -0.56
46 0.15
47 0.15
48 0.15
49 0.15
5 -0.36
54 0.15
56 0.15
6 -0.36
61 0.4
62 0.4
63 0.4
67 0.4
7 -0.36
8 -0.68
9 -0.68

> <PUBCHEM_EFFECTIVE_ROTOR_COUNT>
9

> <PUBCHEM_PHARMACOPHORE_FEATURES>
21
1 1 acceptor
1 10 acceptor
1 10 donor
1 11 acceptor
1 11 donor
1 2 acceptor
1 3 acceptor
1 4 acceptor
1 5 acceptor
1 6 acceptor
1 7 acceptor
1 8 acceptor
1 8 donor
1 9 acceptor
1 9 donor
5 1 12 13 14 16 rings
5 2 12 13 15 17 rings
5 5 7 29 34 36 rings
6 18 20 21 24 27 31 rings
6 19 22 23 29 33 34 rings
6 4 25 26 28 30 32 rings

> <PUBCHEM_HEAVY_ATOM_COUNT>
37

> <PUBCHEM_ATOM_DEF_STEREO_COUNT>
9

> <PUBCHEM_ATOM_UDEF_STEREO_COUNT>
0

> <PUBCHEM_BOND_DEF_STEREO_COUNT>
0

> <PUBCHEM_BOND_UDEF_STEREO_COUNT>
0

> <PUBCHEM_ISOTOPIC_ATOM_COUNT>
0

> <PUBCHEM_COMPONENT_COUNT>
1

> <PUBCHEM_CACTVS_TAUTO_COUNT>
1

> <PUBCHEM_CONFORMER_ID>
0006C28C00000003

> <PUBCHEM_MMFF94_ENERGY>
130.8902

> <PUBCHEM_FEATURE_SELFOVERLAP>
107.264

> <PUBCHEM_SHAPE_FINGERPRINT>
10 15 18342738524939849131
10533779 47 18059855129283953122
10673678 19 18114461158991073904
11456790 92 18272098235597077504
11534866 41 16773799203434952954
11578821 258 18187645843318097641
12522641 33 6843625930356436962
12539765 74 18186800283909580822
13383668 362 17489014964552262555
13540713 5 15768345190826570682
13617811 41 15285354020388266809
13692114 37 16630238139139362067
13782708 43 10664101151540774547
14118638 360 16153701072335040267
14190465 44 17703218530020369859
14849402 71 18408885106155630369
14904525 67 18115866464213068249
15183329 4 15791449322991130473
15439362 3 16083368453617453154
1577012 14 18187654565809989230
15840311 113 18273213106359946366
17686467 74 18201155469952438577
18393751 57 18412830187386412039
18608769 82 18272090487839734105
19302320 297 18411136905462848412
19315958 150 18334289903489130615
19841028 212 8502388719508823692
20771845 140 14979685390532288584
20812841 46 18202285822991371954
21033648 29 17774728555010089002
21130935 74 17702949278895383963
21792934 111 17489870458203681013
21987483 16 13972528272755223177
23576562 1 14346665730141870977
24771293 8 18342739590234137845
3044373 193 18335415803337587590
335507 130 17822577110591576151
3383291 50 15985100821592413521
3418910 222 18113609102416527249
34797466 226 18114455747706827679
3711267 37 17968087647495266473
4093350 32 18040995154644793150
4112364 45 18409450254614940076
44880568 143 18042115631010792953
4625314 4 18260829284657214486
4918590 3 18334013857561533839
504579 68 14779267514542907171
5104073 3 15553865711994408243
5109719 28 18409721868483479579
6058803 2 15360478285353160370
9953998 17 18060137644570734811
9962374 69 14261344722114965131

> <PUBCHEM_SHAPE_MULTIPOLES>
696.88
29.25
2.54
1.67
28.2
1.77
1.13
14.94
-10.72
-4.24
-0.05
-1.05
-0.6
1.25

> <PUBCHEM_SHAPE_SELFOVERLAP>
1529.87

> <PUBCHEM_SHAPE_VOLUME>
377.1

> <PUBCHEM_COORDINATE_TYPE>
2
5
10

$$$$

