17395528
  -OEChem-06241222502D

 32 34  0     0  0  0  0  0  0999 V2000
    3.6180   -2.8184    0.0000 S   0  0  0  0  0  0  0  0  0  0  0  0
    3.6750    3.2694    0.0000 O   0  0  0  0  0  0  0  0  0  0  0  0
    4.5411   -1.2306    0.0000 O   0  0  0  0  0  0  0  0  0  0  0  0
    2.8090   -1.2306    0.0000 N   0  0  0  0  0  0  0  0  0  0  0  0
    2.0000   -2.8184    0.0000 N   0  0  0  0  0  0  0  0  0  0  0  0
    4.5411    0.7694    0.0000 C   0  0  0  0  0  0  0  0  0  0  0  0
    4.5411    1.7694    0.0000 C   0  0  0  0  0  0  0  0  0  0  0  0
    3.6750    0.2694    0.0000 C   0  0  0  0  0  0  0  0  0  0  0  0
    3.6750    2.2694    0.0000 C   0  0  0  0  0  0  0  0  0  0  0  0
    2.8090    0.7694    0.0000 C   0  0  0  0  0  0  0  0  0  0  0  0
    5.4350    0.2348    0.0000 C   0  0  0  0  0  0  0  0  0  0  0  0
    5.4350    2.3041    0.0000 C   0  0  0  0  0  0  0  0  0  0  0  0
    2.8090    1.7694    0.0000 C   0  0  0  0  0  0  0  0  0  0  0  0
    3.6750   -0.7306    0.0000 C   0  0  0  0  0  0  0  0  0  0  0  0
    6.3411    0.7486    0.0000 C   0  0  0  0  0  0  0  0  0  0  0  0
    6.3411    1.7902    0.0000 C   0  0  0  0  0  0  0  0  0  0  0  0
    2.8090   -2.2306    0.0000 C   0  0  0  0  0  0  0  0  0  0  0  0
    2.8090    3.7694    0.0000 C   0  0  0  0  0  0  0  0  0  0  0  0
    3.3090   -3.7694    0.0000 C   0  0  0  0  0  0  0  0  0  0  0  0
    2.3090   -3.7694    0.0000 C   0  0  0  0  0  0  0  0  0  0  0  0
    2.2721    0.4594    0.0000 H   0  0  0  0  0  0  0  0  0  0  0  0
    5.4278   -0.3852    0.0000 H   0  0  0  0  0  0  0  0  0  0  0  0
    5.4278    2.9240    0.0000 H   0  0  0  0  0  0  0  0  0  0  0  0
    2.2721    2.0794    0.0000 H   0  0  0  0  0  0  0  0  0  0  0  0
    6.8768    0.4365    0.0000 H   0  0  0  0  0  0  0  0  0  0  0  0
    6.8768    2.1023    0.0000 H   0  0  0  0  0  0  0  0  0  0  0  0
    2.2721   -0.9206    0.0000 H   0  0  0  0  0  0  0  0  0  0  0  0
    3.1190    4.3064    0.0000 H   0  0  0  0  0  0  0  0  0  0  0  0
    2.2721    4.0794    0.0000 H   0  0  0  0  0  0  0  0  0  0  0  0
    2.4990    3.2325    0.0000 H   0  0  0  0  0  0  0  0  0  0  0  0
    3.6734   -4.2710    0.0000 H   0  0  0  0  0  0  0  0  0  0  0  0
    1.9446   -4.2710    0.0000 H   0  0  0  0  0  0  0  0  0  0  0  0
  1 17  1  0  0  0  0
  1 19  1  0  0  0  0
  2  9  1  0  0  0  0
  2 18  1  0  0  0  0
  3 14  2  0  0  0  0
  4 14  1  0  0  0  0
  4 17  1  0  0  0  0
  4 27  1  0  0  0  0
  5 17  2  0  0  0  0
  5 20  1  0  0  0  0
  6  7  1  0  0  0  0
  6  8  1  0  0  0  0
  6 11  2  0  0  0  0
  7  9  1  0  0  0  0
  7 12  2  0  0  0  0
  8 10  2  0  0  0  0
  8 14  1  0  0  0  0
  9 13  2  0  0  0  0
 10 13  1  0  0  0  0
 10 21  1  0  0  0  0
 11 15  1  0  0  0  0
 11 22  1  0  0  0  0
 12 16  1  0  0  0  0
 12 23  1  0  0  0  0
 13 24  1  0  0  0  0
 15 16  2  0  0  0  0
 15 25  1  0  0  0  0
 16 26  1  0  0  0  0
 18 28  1  0  0  0  0
 18 29  1  0  0  0  0
 18 30  1  0  0  0  0
 19 20  2  0  0  0  0
 19 31  1  0  0  0  0
 20 32  1  0  0  0  0
M  END
> <PUBCHEM_COMPOUND_CID>
17395528

> <PUBCHEM_COMPOUND_CANONICALIZED>
1

> <PUBCHEM_CACTVS_COMPLEXITY>
353

> <PUBCHEM_CACTVS_HBOND_ACCEPTOR>
4

> <PUBCHEM_CACTVS_HBOND_DONOR>
1

> <PUBCHEM_CACTVS_ROTATABLE_BOND>
3

> <PUBCHEM_CACTVS_SUBSKEYS>
AAADccBzMABAAAAAAAAAAAAAAAAAAWAAAAAwYAAAAAAAAADB1AAAHgQQAAAADATF2ga/l9LIFAisAjF3dACC+Kl1KjlJyA0eLMiMJjKEvRuEMShswRMIqaeY3PLOoAADAAAYAABAAAYAADAAAAAAAAAAAA==

> <PUBCHEM_IUPAC_OPENEYE_NAME>
4-methoxy-N-thiazol-2-yl-naphthalene-1-carboxamide

> <PUBCHEM_IUPAC_CAS_NAME>
4-methoxy-N-(2-thiazolyl)-1-naphthalenecarboxamide

> <PUBCHEM_IUPAC_NAME>
4-methoxy-N-(1,3-thiazol-2-yl)naphthalene-1-carboxamide

> <PUBCHEM_IUPAC_SYSTEMATIC_NAME>
4-methoxy-N-(1,3-thiazol-2-yl)naphthalene-1-carboxamide

> <PUBCHEM_IUPAC_TRADITIONAL_NAME>
4-methoxy-N-thiazol-2-yl-1-naphthamide

> <PUBCHEM_IUPAC_INCHI>
InChI=1S/C15H12N2O2S/c1-19-13-7-6-12(10-4-2-3-5-11(10)13)14(18)17-15-16-8-9-20-15/h2-9H,1H3,(H,16,17,18)

> <PUBCHEM_IUPAC_INCHIKEY>
CEYZUPGJBYEVMW-UHFFFAOYSA-N

> <PUBCHEM_XLOGP3_AA>
3.3

> <PUBCHEM_EXACT_MASS>
284.061949

> <PUBCHEM_MOLECULAR_FORMULA>
C15H12N2O2S

> <PUBCHEM_MOLECULAR_WEIGHT>
284.33298

> <PUBCHEM_OPENEYE_CAN_SMILES>
COC1=CC=C(C2=CC=CC=C21)C(=O)NC3=NC=CS3

> <PUBCHEM_OPENEYE_ISO_SMILES>
COC1=CC=C(C2=CC=CC=C21)C(=O)NC3=NC=CS3

> <PUBCHEM_CACTVS_TPSA>
79.5

> <PUBCHEM_MONOISOTOPIC_WEIGHT>
284.061949

> <PUBCHEM_TOTAL_CHARGE>
0

> <PUBCHEM_HEAVY_ATOM_COUNT>
20

> <PUBCHEM_ATOM_DEF_STEREO_COUNT>
0

> <PUBCHEM_ATOM_UDEF_STEREO_COUNT>
0

> <PUBCHEM_BOND_DEF_STEREO_COUNT>
0

> <PUBCHEM_BOND_UDEF_STEREO_COUNT>
0

> <PUBCHEM_ISOTOPIC_ATOM_COUNT>
0

> <PUBCHEM_COMPONENT_COUNT>
1

> <PUBCHEM_CACTVS_TAUTO_COUNT>
3

> <PUBCHEM_COORDINATE_TYPE>
1
5
255

> <PUBCHEM_BONDANNOTATIONS>
1  17  8
1  19  8
10  13  8
11  15  8
12  16  8
15  16  8
19  20  8
5  17  8
5  20  8
6  11  8
6  7  8
6  8  8
7  12  8
7  9  8
8  10  8
9  13  8

$$$$

