3638
  -OEChem-06251223333D

 28 30  0     1  0  0  0  0  0999 V2000
    2.0910    1.6086    1.1289 O   0  0  0  0  0  0  0  0  0  0  0  0
   -3.0781    1.3844   -0.1593 O   0  0  0  0  0  0  0  0  0  0  0  0
   -3.3947   -0.9924    0.0732 O   0  0  0  0  0  0  0  0  0  0  0  0
    2.8926    0.0013   -0.5201 N   0  0  2  0  0  0  0  0  0  0  0  0
    1.8712    0.9985   -0.1461 C   0  0  1  0  0  0  0  0  0  0  0  0
    1.4722   -1.9105    0.0693 C   0  0  0  0  0  0  0  0  0  0  0  0
    0.4726    0.4144   -0.1098 C   0  0  0  0  0  0  0  0  0  0  0  0
    0.2840   -0.9829    0.0411 C   0  0  0  0  0  0  0  0  0  0  0  0
    2.7982   -1.1900    0.3292 C   0  0  0  0  0  0  0  0  0  0  0  0
   -0.6405    1.2696   -0.1769 C   0  0  0  0  0  0  0  0  0  0  0  0
   -1.0120   -1.5189    0.1006 C   0  0  0  0  0  0  0  0  0  0  0  0
   -1.8984    0.7078   -0.1071 C   0  0  0  0  0  0  0  0  0  0  0  0
   -2.0789   -0.6477    0.0274 C   0  0  0  0  0  0  0  0  0  0  0  0
    4.2430    0.5572   -0.5057 C   0  0  0  0  0  0  0  0  0  0  0  0
   -4.0222    0.3005   -0.0448 C   0  0  0  0  0  0  0  0  0  0  0  0
    1.8779    1.7938   -0.9027 H   0  0  0  0  0  0  0  0  0  0  0  0
    1.3283   -2.6741    0.8431 H   0  0  0  0  0  0  0  0  0  0  0  0
    1.5223   -2.4230   -0.9001 H   0  0  0  0  0  0  0  0  0  0  0  0
    2.8863   -0.9246    1.3911 H   0  0  0  0  0  0  0  0  0  0  0  0
    3.6125   -1.8906    0.1063 H   0  0  0  0  0  0  0  0  0  0  0  0
   -0.5169    2.3429   -0.2784 H   0  0  0  0  0  0  0  0  0  0  0  0
   -1.1723   -2.5875    0.1982 H   0  0  0  0  0  0  0  0  0  0  0  0
    4.5794    0.8205    0.5031 H   0  0  0  0  0  0  0  0  0  0  0  0
    4.3009    1.4511   -1.1364 H   0  0  0  0  0  0  0  0  0  0  0  0
    4.9547   -0.1651   -0.9211 H   0  0  0  0  0  0  0  0  0  0  0  0
    2.8782    2.1726    1.0492 H   0  0  0  0  0  0  0  0  0  0  0  0
   -4.6646    0.2992   -0.9328 H   0  0  0  0  0  0  0  0  0  0  0  0
   -4.6458    0.4702    0.8405 H   0  0  0  0  0  0  0  0  0  0  0  0
  1  5  1  0  0  0  0
  1 26  1  0  0  0  0
  2 12  1  0  0  0  0
  2 15  1  0  0  0  0
  3 13  1  0  0  0  0
  3 15  1  0  0  0  0
  4  5  1  0  0  0  0
  4  9  1  0  0  0  0
  4 14  1  0  0  0  0
  5  7  1  0  0  0  0
  5 16  1  0  0  0  0
  6  8  1  0  0  0  0
  6  9  1  0  0  0  0
  6 17  1  0  0  0  0
  6 18  1  0  0  0  0
  7  8  1  0  0  0  0
  7 10  2  0  0  0  0
  8 11  2  0  0  0  0
  9 19  1  0  0  0  0
  9 20  1  0  0  0  0
 10 12  1  0  0  0  0
 10 21  1  0  0  0  0
 11 13  1  0  0  0  0
 11 22  1  0  0  0  0
 12 13  2  0  0  0  0
 14 23  1  0  0  0  0
 14 24  1  0  0  0  0
 14 25  1  0  0  0  0
 15 27  1  0  0  0  0
 15 28  1  0  0  0  0
M  END
> <PUBCHEM_COMPOUND_CID>
3638

> <PUBCHEM_CONFORMER_RMSD>
0.6

> <PUBCHEM_CONFORMER_DIVERSEORDER>
1
2

> <PUBCHEM_MMFF94_PARTIAL_CHARGES>
18
1 -0.68
10 -0.15
11 -0.15
12 0.08
13 0.08
14 0.27
15 0.56
2 -0.36
21 0.15
22 0.15
26 0.4
3 -0.36
4 -0.81
5 0.69
6 0.14
7 -0.14
8 -0.14
9 0.27

> <PUBCHEM_EFFECTIVE_ROTOR_COUNT>
1.4

> <PUBCHEM_PHARMACOPHORE_FEATURES>
8
1 1 acceptor
1 1 donor
1 2 acceptor
1 3 acceptor
1 4 cation
5 2 3 12 13 15 rings
6 4 5 6 7 8 9 rings
6 7 8 10 11 12 13 rings

> <PUBCHEM_HEAVY_ATOM_COUNT>
15

> <PUBCHEM_ATOM_DEF_STEREO_COUNT>
0

> <PUBCHEM_ATOM_UDEF_STEREO_COUNT>
1

> <PUBCHEM_BOND_DEF_STEREO_COUNT>
0

> <PUBCHEM_BOND_UDEF_STEREO_COUNT>
0

> <PUBCHEM_ISOTOPIC_ATOM_COUNT>
0

> <PUBCHEM_COMPONENT_COUNT>
1

> <PUBCHEM_CACTVS_TAUTO_COUNT>
1

> <PUBCHEM_CONFORMER_ID>
00000E3600000001

> <PUBCHEM_MMFF94_ENERGY>
36.0955

> <PUBCHEM_FEATURE_SELFOVERLAP>
40.771

> <PUBCHEM_SHAPE_FINGERPRINT>
10608611 8 18411423920714885261
10967382 1 18411699897948593863
10980938 120 18411138069161147306
11132069 177 18410862074520313466
11471102 20 18411141367574536071
12032990 46 18411974746091518567
12491281 212 18336535122937359601
12932764 1 18113904835913642991
13221675 6 18409448093908597630
13380535 76 18413669110500165874
13897977 150 18410578383393212573
14144814 61 18411136960948535867
14325111 11 18412825806503360933
15196674 1 18412544340074477766
15219456 202 18413107294481030975
15442244 35 18051131685511821042
15536298 74 18336546113922388430
15775835 57 18411414025046607006
16945 1 18335430070580257755
17844478 74 17988636428505646685
18186145 218 18113336405624370985
193761 8 17619344303781589719
200 152 18113345202228823351
20201158 50 18410009961477532206
20645477 70 18339365283253261679
21267235 1 18340476846147787299
21501502 16 18340488983761866907
2334 1 17619065027886215295
23402539 116 18335146375094795558
23402655 69 18336553810719950605
23463225 33 18343302604015923590
23493267 7 17775564212899184856
23559900 14 18334008373151955900
2748010 2 18050568443442458303
3312278 4 18410569587162968939
474 4 16485554405279316300
4990 188 18113889481811722638
5104073 3 18413107290022475810
528886 8 18412829070815694922
53812653 166 18408887326072752376
69090 78 18113623343899670079
7364860 26 18263926699534091118
8809292 202 18272645736215622019
9709674 26 18411974758707869430

> <PUBCHEM_SHAPE_MULTIPOLES>
286.1
6.48
1.77
0.71
0.54
0.3
0.06
-0.95
-0.49
-0.31
0.16
-0.28
-0.11
0.08

> <PUBCHEM_SHAPE_SELFOVERLAP>
626.513

> <PUBCHEM_SHAPE_VOLUME>
154.9

> <PUBCHEM_COORDINATE_TYPE>
2
5
10

$$$$

