47205699
  -OEChem-06241222593D

 36 36  0     0  0  0  0  0  0999 V2000
    5.9073   -0.7851   -0.0181 S   0  0  0  0  0  0  0  0  0  0  0  0
   -3.3809   -1.0369    1.1151 O   0  0  0  0  0  0  0  0  0  0  0  0
   -0.8641    1.1385   -0.4039 O   0  0  0  0  0  0  0  0  0  0  0  0
   -2.8630   -0.5328   -1.0909 N   0  0  0  0  0  0  0  0  0  0  0  0
    0.7606   -0.5429   -0.6328 N   0  0  0  0  0  0  0  0  0  0  0  0
   -5.0353    0.0757   -0.2583 C   0  0  0  0  0  0  0  0  0  0  0  0
   -5.9570    0.0543    0.9575 C   0  0  0  0  0  0  0  0  0  0  0  0
   -1.5259   -1.0768   -1.0761 C   0  0  0  0  0  0  0  0  0  0  0  0
   -3.6868   -0.5613    0.0249 C   0  0  0  0  0  0  0  0  0  0  0  0
    1.9620    0.1254   -0.2972 C   0  0  0  0  0  0  0  0  0  0  0  0
   -7.3116    0.6669    0.6413 C   0  0  0  0  0  0  0  0  0  0  0  0
   -0.5262   -0.0121   -0.6622 C   0  0  0  0  0  0  0  0  0  0  0  0
    3.1744   -0.5641   -0.3196 C   0  0  0  0  0  0  0  0  0  0  0  0
    1.9333    1.4745    0.0562 C   0  0  0  0  0  0  0  0  0  0  0  0
    4.3580    0.0955    0.0114 C   0  0  0  0  0  0  0  0  0  0  0  0
    3.1169    2.1339    0.3873 C   0  0  0  0  0  0  0  0  0  0  0  0
    4.3293    1.4444    0.3651 C   0  0  0  0  0  0  0  0  0  0  0  0
    5.6089   -2.0970    1.2001 C   0  0  0  0  0  0  0  0  0  0  0  0
   -5.5005   -0.4662   -1.0906 H   0  0  0  0  0  0  0  0  0  0  0  0
   -4.8659    1.1097   -0.5817 H   0  0  0  0  0  0  0  0  0  0  0  0
   -5.4947    0.6036    1.7864 H   0  0  0  0  0  0  0  0  0  0  0  0
   -6.0995   -0.9772    1.3014 H   0  0  0  0  0  0  0  0  0  0  0  0
   -1.4741   -1.9204   -0.3802 H   0  0  0  0  0  0  0  0  0  0  0  0
   -1.2936   -1.4211   -2.0886 H   0  0  0  0  0  0  0  0  0  0  0  0
   -3.1953   -0.1007   -1.9483 H   0  0  0  0  0  0  0  0  0  0  0  0
   -7.8145    0.1152   -0.1594 H   0  0  0  0  0  0  0  0  0  0  0  0
   -7.9548    0.6422    1.5266 H   0  0  0  0  0  0  0  0  0  0  0  0
   -7.2064    1.7101    0.3268 H   0  0  0  0  0  0  0  0  0  0  0  0
    0.8680   -1.5247   -0.8788 H   0  0  0  0  0  0  0  0  0  0  0  0
    3.1876   -1.6143   -0.6038 H   0  0  0  0  0  0  0  0  0  0  0  0
    1.0357    2.0751    0.0968 H   0  0  0  0  0  0  0  0  0  0  0  0
    3.0958    3.1844    0.6628 H   0  0  0  0  0  0  0  0  0  0  0  0
    5.2414    1.9753    0.6264 H   0  0  0  0  0  0  0  0  0  0  0  0
    6.5318   -2.6639    1.3485 H   0  0  0  0  0  0  0  0  0  0  0  0
    4.8339   -2.7831    0.8492 H   0  0  0  0  0  0  0  0  0  0  0  0
    5.3063   -1.6650    2.1579 H   0  0  0  0  0  0  0  0  0  0  0  0
  1 15  1  0  0  0  0
  1 18  1  0  0  0  0
  2  9  2  0  0  0  0
  3 12  2  0  0  0  0
  4  8  1  0  0  0  0
  4  9  1  0  0  0  0
  4 25  1  0  0  0  0
  5 10  1  0  0  0  0
  5 12  1  0  0  0  0
  5 29  1  0  0  0  0
  6  7  1  0  0  0  0
  6  9  1  0  0  0  0
  6 19  1  0  0  0  0
  6 20  1  0  0  0  0
  7 11  1  0  0  0  0
  7 21  1  0  0  0  0
  7 22  1  0  0  0  0
  8 12  1  0  0  0  0
  8 23  1  0  0  0  0
  8 24  1  0  0  0  0
 10 13  2  0  0  0  0
 10 14  1  0  0  0  0
 11 26  1  0  0  0  0
 11 27  1  0  0  0  0
 11 28  1  0  0  0  0
 13 15  1  0  0  0  0
 13 30  1  0  0  0  0
 14 16  2  0  0  0  0
 14 31  1  0  0  0  0
 15 17  2  0  0  0  0
 16 17  1  0  0  0  0
 16 32  1  0  0  0  0
 17 33  1  0  0  0  0
 18 34  1  0  0  0  0
 18 35  1  0  0  0  0
 18 36  1  0  0  0  0
M  END
> <PUBCHEM_COMPOUND_CID>
47205699

> <PUBCHEM_CONFORMER_RMSD>
1

> <PUBCHEM_CONFORMER_DIVERSEORDER>
1
52
28
51
34
15
35
36
64
69
10
24
38
70
66
18
63
43
42
46
30
55
2
58
41
12
7
29
54
13
40
56
21
68
67
27
57
49
16
14
47
53
45
33
62
9
73
23
19
31
3
72
61
71
65
44
5
50
39
11
8
4
37
60
6
32
26
48
25
22
20
59
17

> <PUBCHEM_MMFF94_PARTIAL_CHARGES>
22
1 -0.33
10 0.12
12 0.57
13 -0.15
14 -0.15
15 0.1
16 -0.15
17 -0.15
18 0.23
2 -0.57
25 0.37
29 0.37
3 -0.57
30 0.15
31 0.15
32 0.15
33 0.15
4 -0.73
5 -0.55
6 0.06
8 0.36
9 0.57

> <PUBCHEM_EFFECTIVE_ROTOR_COUNT>
8

> <PUBCHEM_PHARMACOPHORE_FEATURES>
7
1 11 hydrophobe
1 18 hydrophobe
1 2 acceptor
1 3 acceptor
1 4 donor
1 5 donor
6 10 13 14 15 16 17 rings

> <PUBCHEM_HEAVY_ATOM_COUNT>
18

> <PUBCHEM_ATOM_DEF_STEREO_COUNT>
0

> <PUBCHEM_ATOM_UDEF_STEREO_COUNT>
0

> <PUBCHEM_BOND_DEF_STEREO_COUNT>
0

> <PUBCHEM_BOND_UDEF_STEREO_COUNT>
0

> <PUBCHEM_ISOTOPIC_ATOM_COUNT>
0

> <PUBCHEM_COMPONENT_COUNT>
1

> <PUBCHEM_CACTVS_TAUTO_COUNT>
4

> <PUBCHEM_CONFORMER_ID>
02D04D4300000001

> <PUBCHEM_MMFF94_ENERGY>
38.7661

> <PUBCHEM_FEATURE_SELFOVERLAP>
35.52

> <PUBCHEM_SHAPE_FINGERPRINT>
11089746 13 17240487996445323785
11405975 8 18337394837787729578
11638347 137 18202277005993511427
12236239 1 17749109963277390311
12596602 18 18341045225640952385
12616971 3 18113904836029746357
12633257 1 18187368709951098334
12714333 28 4967612763388105447
13167372 99 18113613512925485257
13533116 47 18201442514420862906
14123256 10 11239995650802307227
1420 363 15769774654309312331
14251718 22 9367347028914175749
14251764 18 18259987046276171765
14341114 176 18202563968783274749
14350574 20 11527945638989188759
14455015 7 17989490736139851810
14617045 38 16415478267989840555
15348495 7 18271802359668466889
15475509 35 17417266424145687410
15527383 91 18410573981173099028
20281389 69 18259985968429726353
21150785 3 8502366729096029835
21267235 1 18338516448077278374
212847 35 17676487215941613312
21344244 181 16271641291269289418
2297311 6 16200433593712476863
23035841 295 16343984710452658611
23081809 10 18186806833491217423
23402539 116 16515407357122205845
23503953 91 17603591798675826094
23559900 14 17704071763996575284
23590187 90 6555407626582126066
2767999 5 16732980938524482761
2838139 119 18113903784554568809
300161 21 15357699699431290487
312425 54 18202283572175684763
33382 64 17274545429308622522
34797466 226 15626214720164932310
351380 3 13973968679751786505
4072396 5 17385725807251768726
5104073 3 18188500055596975298
5207 217 9439395831101405277

> <PUBCHEM_SHAPE_MULTIPOLES>
352.58
17.14
1.67
1.02
17.69
0.35
-0.08
-1.87
-5.98
-2.6
-0.37
0.37
-0.3
-0.7

> <PUBCHEM_SHAPE_SELFOVERLAP>
694.195

> <PUBCHEM_SHAPE_VOLUME>
211.6

> <PUBCHEM_COORDINATE_TYPE>
2
5
10

$$$$

