5281564
  -OEChem-07051212582D

 28 28  0     1  0  0  0  0  0999 V2000
    4.3426    0.6407    0.0000 O   0  0  0  0  0  0  0  0  0  0  0  0
    4.6847   -2.2990    0.0000 O   0  0  0  0  0  0  0  0  0  0  0  0
    2.9526   -2.2990    0.0000 O   0  0  0  0  0  0  0  0  0  0  0  0
    6.6846    1.4330    0.0000 O   0  0  0  0  0  0  0  0  0  0  0  0
    2.6106    0.6407    0.0000 N   0  0  0  0  0  0  0  0  0  0  0  0
    4.6847   -0.2990    0.0000 C   0  0  3  0  0  0  0  0  0  0  0  0
    5.5507   -0.7990    0.0000 C   0  0  0  0  0  0  0  0  0  0  0  0
    5.1847    0.5670    0.0000 C   0  0  3  0  0  0  0  0  0  0  0  0
    3.8186   -0.7990    0.0000 C   0  0  0  0  0  0  0  0  0  0  0  0
    5.5507   -1.7990    0.0000 C   0  0  0  0  0  0  0  0  0  0  0  0
    3.8186   -1.7990    0.0000 C   0  0  0  0  0  0  0  0  0  0  0  0
    4.6847    1.4330    0.0000 C   0  0  0  0  0  0  0  0  0  0  0  0
    6.1847    0.5670    0.0000 C   0  0  0  0  0  0  0  0  0  0  0  0
    2.9526   -0.2990    0.0000 C   0  0  0  0  0  0  0  0  0  0  0  0
    5.1847    2.2990    0.0000 C   0  0  0  0  0  0  0  0  0  0  0  0
    6.1613   -0.9067    0.0000 H   0  0  0  0  0  0  0  0  0  0  0  0
    5.7627   -0.2164    0.0000 H   0  0  0  0  0  0  0  0  0  0  0  0
    5.4946    0.0301    0.0000 H   0  0  0  0  0  0  0  0  0  0  0  0
    5.7627   -2.3816    0.0000 H   0  0  0  0  0  0  0  0  0  0  0  0
    6.1613   -1.6914    0.0000 H   0  0  0  0  0  0  0  0  0  0  0  0
    3.7320    0.7483    0.0000 H   0  0  0  0  0  0  0  0  0  0  0  0
    4.0646    1.4330    0.0000 H   0  0  0  0  0  0  0  0  0  0  0  0
    6.4946    0.0301    0.0000 H   0  0  0  0  0  0  0  0  0  0  0  0
    2.4157   -0.6090    0.0000 H   0  0  0  0  0  0  0  0  0  0  0  0
    5.8046    2.2990    0.0000 H   0  0  0  0  0  0  0  0  0  0  0  0
    4.8746    2.8360    0.0000 H   0  0  0  0  0  0  0  0  0  0  0  0
    2.0000    0.7483    0.0000 H   0  0  0  0  0  0  0  0  0  0  0  0
    3.0091    1.1156    0.0000 H   0  0  0  0  0  0  0  0  0  0  0  0
  1  6  1  0  0  0  0
  1 21  1  0  0  0  0
  2 10  1  0  0  0  0
  2 11  1  0  0  0  0
  3 11  2  0  0  0  0
  4 13  2  0  0  0  0
  5 14  1  0  0  0  0
  5 27  1  0  0  0  0
  5 28  1  0  0  0  0
  6  7  1  0  0  0  0
  6  8  1  0  0  0  0
  6  9  1  0  0  0  0
  7 10  1  0  0  0  0
  7 16  1  0  0  0  0
  7 17  1  0  0  0  0
  8 12  1  0  0  0  0
  8 13  1  0  0  0  0
  8 18  1  0  0  0  0
  9 11  1  0  0  0  0
  9 14  2  0  0  0  0
 10 19  1  0  0  0  0
 10 20  1  0  0  0  0
 12 15  2  0  0  0  0
 12 22  1  0  0  0  0
 13 23  1  0  0  0  0
 14 24  1  0  0  0  0
 15 25  1  0  0  0  0
 15 26  1  0  0  0  0
M  END
> <PUBCHEM_COMPOUND_CID>
5281564

> <PUBCHEM_COMPOUND_CANONICALIZED>
1

> <PUBCHEM_CACTVS_COMPLEXITY>
323

> <PUBCHEM_CACTVS_HBOND_ACCEPTOR>
5

> <PUBCHEM_CACTVS_HBOND_DONOR>
2

> <PUBCHEM_CACTVS_ROTATABLE_BOND>
3

> <PUBCHEM_CACTVS_SUBSKEYS>
AAADccByOAAAAAAAAAAAAAAAAAAAAAAAAAAkAAAAAAAAAAAAAAAAHgAQCAAADUThgAYACABABgCIAijWyAAAAAAgAAAIAIEAAEgABBYAIQACQAAF4AAAMMCIBgAOgAAAAAAAAAAAAAAAAAAAAAAAAAAAAA==

> <PUBCHEM_IUPAC_OPENEYE_NAME>
2-[(3E)-3-(aminomethylene)-4-hydroxy-2-oxo-tetrahydropyran-4-yl]but-3-enal

> <PUBCHEM_IUPAC_CAS_NAME>
2-[(3E)-3-(aminomethylidene)-4-hydroxy-2-oxo-4-oxanyl]-3-butenal

> <PUBCHEM_IUPAC_NAME>
2-[(3E)-3-(aminomethylidene)-4-hydroxy-2-oxooxan-4-yl]but-3-enal

> <PUBCHEM_IUPAC_SYSTEMATIC_NAME>
2-[(3E)-3-(azanylmethylidene)-4-oxidanyl-2-oxidanylidene-oxan-4-yl]but-3-enal

> <PUBCHEM_IUPAC_TRADITIONAL_NAME>
2-[(3E)-3-(aminomethylene)-4-hydroxy-2-keto-tetrahydropyran-4-yl]but-3-enal

> <PUBCHEM_IUPAC_INCHI>
InChI=1S/C10H13NO4/c1-2-7(6-12)10(14)3-4-15-9(13)8(10)5-11/h2,5-7,14H,1,3-4,11H2/b8-5-

> <PUBCHEM_IUPAC_INCHIKEY>
GBJQPSBGSKNYHV-YVMONPNESA-N

> <PUBCHEM_XLOGP3_AA>
0.2

> <PUBCHEM_EXACT_MASS>
211.084458

> <PUBCHEM_MOLECULAR_FORMULA>
C10H13NO4

> <PUBCHEM_MOLECULAR_WEIGHT>
211.21452

> <PUBCHEM_OPENEYE_CAN_SMILES>
C=CC(C=O)C1(CCOC(=O)C1=CN)O

> <PUBCHEM_OPENEYE_ISO_SMILES>
C=CC(C=O)C\1(CCOC(=O)/C1=C/N)O

> <PUBCHEM_CACTVS_TPSA>
89.6

> <PUBCHEM_MONOISOTOPIC_WEIGHT>
211.084458

> <PUBCHEM_TOTAL_CHARGE>
0

> <PUBCHEM_HEAVY_ATOM_COUNT>
15

> <PUBCHEM_ATOM_DEF_STEREO_COUNT>
0

> <PUBCHEM_ATOM_UDEF_STEREO_COUNT>
2

> <PUBCHEM_BOND_DEF_STEREO_COUNT>
1

> <PUBCHEM_BOND_UDEF_STEREO_COUNT>
0

> <PUBCHEM_ISOTOPIC_ATOM_COUNT>
0

> <PUBCHEM_COMPONENT_COUNT>
1

> <PUBCHEM_CACTVS_TAUTO_COUNT>
9

> <PUBCHEM_COORDINATE_TYPE>
1
5
255

> <PUBCHEM_BONDANNOTATIONS>
6  1  3
8  12  3

$$$$

