4882
  -OEChem-06261200243D

 32 34  0     0  0  0  0  0  0999 V2000
   -0.8514    2.2192   -0.1844 O   0  0  0  0  0  0  0  0  0  0  0  0
   -2.6292   -2.7810    0.4778 O   0  0  0  0  0  0  0  0  0  0  0  0
    1.7665   -1.8049   -0.6053 O   0  0  0  0  0  0  0  0  0  0  0  0
    0.9908    0.2170    0.2431 N   0  0  0  0  0  0  0  0  0  0  0  0
   -2.7161    0.7849   -0.0810 C   0  0  0  0  0  0  0  0  0  0  0  0
   -3.1856   -0.5189    0.0924 C   0  0  0  0  0  0  0  0  0  0  0  0
   -0.3451   -0.0625    0.2013 C   0  0  0  0  0  0  0  0  0  0  0  0
   -1.2686    1.0764   -0.0342 C   0  0  0  0  0  0  0  0  0  0  0  0
   -2.2428   -1.6287    0.3247 C   0  0  0  0  0  0  0  0  0  0  0  0
   -0.8008   -1.3077    0.3661 C   0  0  0  0  0  0  0  0  0  0  0  0
   -3.6230    1.8284   -0.3010 C   0  0  0  0  0  0  0  0  0  0  0  0
   -4.5598   -0.7803    0.0472 C   0  0  0  0  0  0  0  0  0  0  0  0
   -4.9925    1.5642   -0.3462 C   0  0  0  0  0  0  0  0  0  0  0  0
   -5.4598    0.2628   -0.1721 C   0  0  0  0  0  0  0  0  0  0  0  0
    1.9706   -0.6762   -0.1650 C   0  0  0  0  0  0  0  0  0  0  0  0
    3.3697   -0.1847   -0.0671 C   0  0  0  0  0  0  0  0  0  0  0  0
    4.3198   -0.7071   -0.9197 C   0  0  0  0  0  0  0  0  0  0  0  0
    3.6727    0.7780    0.8729 C   0  0  0  0  0  0  0  0  0  0  0  0
    5.6329   -0.2457   -0.8280 C   0  0  0  0  0  0  0  0  0  0  0  0
    4.9859    1.2394    0.9644 C   0  0  0  0  0  0  0  0  0  0  0  0
    5.9659    0.7275    0.1140 C   0  0  0  0  0  0  0  0  0  0  0  0
   -0.1656   -2.1564    0.5923 H   0  0  0  0  0  0  0  0  0  0  0  0
   -3.2842    2.8517   -0.4391 H   0  0  0  0  0  0  0  0  0  0  0  0
   -4.9480   -1.7866    0.1799 H   0  0  0  0  0  0  0  0  0  0  0  0
    1.2354    1.1979    0.3498 H   0  0  0  0  0  0  0  0  0  0  0  0
   -5.6954    2.3744   -0.5169 H   0  0  0  0  0  0  0  0  0  0  0  0
   -6.5264    0.0603   -0.2075 H   0  0  0  0  0  0  0  0  0  0  0  0
    4.0759   -1.4611   -1.6620 H   0  0  0  0  0  0  0  0  0  0  0  0
    2.9443    1.1779    1.5709 H   0  0  0  0  0  0  0  0  0  0  0  0
    6.3960   -0.6435   -1.4907 H   0  0  0  0  0  0  0  0  0  0  0  0
    5.2474    1.9923    1.7023 H   0  0  0  0  0  0  0  0  0  0  0  0
    6.9887    1.0858    0.1863 H   0  0  0  0  0  0  0  0  0  0  0  0
  1  8  2  0  0  0  0
  2  9  2  0  0  0  0
  3 15  2  0  0  0  0
  4  7  1  0  0  0  0
  4 15  1  0  0  0  0
  4 25  1  0  0  0  0
  5  6  1  0  0  0  0
  5  8  1  0  0  0  0
  5 11  2  0  0  0  0
  6  9  1  0  0  0  0
  6 12  2  0  0  0  0
  7  8  1  0  0  0  0
  7 10  2  0  0  0  0
  9 10  1  0  0  0  0
 10 22  1  0  0  0  0
 11 13  1  0  0  0  0
 11 23  1  0  0  0  0
 12 14  1  0  0  0  0
 12 24  1  0  0  0  0
 13 14  2  0  0  0  0
 13 26  1  0  0  0  0
 14 27  1  0  0  0  0
 15 16  1  0  0  0  0
 16 17  2  0  0  0  0
 16 18  1  0  0  0  0
 17 19  1  0  0  0  0
 17 28  1  0  0  0  0
 18 20  2  0  0  0  0
 18 29  1  0  0  0  0
 19 21  2  0  0  0  0
 19 30  1  0  0  0  0
 20 21  1  0  0  0  0
 20 31  1  0  0  0  0
 21 32  1  0  0  0  0
M  END
> <PUBCHEM_COMPOUND_CID>
4882

> <PUBCHEM_CONFORMER_RMSD>
0.6

> <PUBCHEM_CONFORMER_DIVERSEORDER>
1
4
6
3
2
5

> <PUBCHEM_MMFF94_PARTIAL_CHARGES>
32
1 -0.57
10 -0.14
11 -0.15
12 -0.15
13 -0.15
14 -0.15
15 0.54
16 0.09
17 -0.15
18 -0.15
19 -0.15
2 -0.57
20 -0.15
21 -0.15
22 0.15
23 0.15
24 0.15
25 0.37
26 0.15
27 0.15
28 0.15
29 0.15
3 -0.57
30 0.15
31 0.15
32 0.15
4 -0.54
5 0.09
6 0.09
7 0.12
8 0.47
9 0.47

> <PUBCHEM_EFFECTIVE_ROTOR_COUNT>
3

> <PUBCHEM_PHARMACOPHORE_FEATURES>
7
1 1 acceptor
1 2 acceptor
1 3 acceptor
1 4 donor
6 16 17 18 19 20 21 rings
6 5 6 11 12 13 14 rings
6 5 6 7 8 9 10 rings

> <PUBCHEM_HEAVY_ATOM_COUNT>
21

> <PUBCHEM_ATOM_DEF_STEREO_COUNT>
0

> <PUBCHEM_ATOM_UDEF_STEREO_COUNT>
0

> <PUBCHEM_BOND_DEF_STEREO_COUNT>
0

> <PUBCHEM_BOND_UDEF_STEREO_COUNT>
0

> <PUBCHEM_ISOTOPIC_ATOM_COUNT>
0

> <PUBCHEM_COMPONENT_COUNT>
1

> <PUBCHEM_CACTVS_TAUTO_COUNT>
4

> <PUBCHEM_CONFORMER_ID>
0000131200000001

> <PUBCHEM_MMFF94_ENERGY>
69.2126

> <PUBCHEM_FEATURE_SELFOVERLAP>
35.542

> <PUBCHEM_SHAPE_FINGERPRINT>
10366900 7 17822295703463644152
10411042 1 17908983211044974083
11045977 3 18333733494406313184
11128504 68 14345800418252872528
11315181 36 17821726130828953320
11595378 159 17274554220785111880
12236239 1 17203330005100084338
12390115 104 18263354966573139633
12403259 415 18187927231993398568
12596602 18 16486968458588847576
12616971 3 16630807682289139686
12730499 353 18186516618667879470
12788726 201 17968660561070876193
12969540 114 17895489088765544213
13402501 40 18334579040254396072
13533116 47 17988369277530121186
14386348 63 18260544515782764430
14528608 73 18187087251964099124
14790565 3 17904196289293641337
15196674 1 18411138081961607627
15375358 24 18408041818621094079
15961568 22 18129379311842007460
16087824 20 18411422801179276935
16988056 13 14817020727451131076
17980427 23 18059290959522240308
19489759 90 18201721747244835273
19784866 170 18411136935152598618
200 152 16805040739489876458
20645477 56 18413670227476025217
20645477 70 17313379072053082886
21033648 29 18040727930680813664
21267235 1 18340761555978371619
21792961 116 18040985268906625988
22122407 14 15338825517347239589
221357 26 17821727269459835072
23227448 37 18337675217515962613
23402539 116 18413112744636319742
23557571 272 18409158909581440438
23559900 14 18409165541554465630
293599 30 18341613771915939909
300161 21 18202007641748265626
3004659 81 18270960263080607490
34797466 226 17894625933520236772
34934 24 18412268341397581235
3545911 37 18410853278701519894
4073 2 18131064893279066546
4214541 1 18411418405902790296
4340502 62 16056592205759923049
5104073 3 18270115846117652443
5283173 99 18337111262566983297
542803 24 17203325615738459780
9709674 26 18335414698924350414
9981440 41 18201716271447156251

> <PUBCHEM_SHAPE_MULTIPOLES>
409.58
13.74
2.01
0.82
8.85
0.37
0
-3.3
1
-1.76
-0.1
0.67
0
1.23

> <PUBCHEM_SHAPE_SELFOVERLAP>
912.345

> <PUBCHEM_SHAPE_VOLUME>
215.4

> <PUBCHEM_COORDINATE_TYPE>
2
5
10

$$$$

