439517
  -OEChem-07051212463D

 36 36  0     1  0  0  0  0  0999 V2000
   -0.9231    1.4205   -1.5467 O   0  0  0  0  0  0  0  0  0  0  0  0
   -4.1893   -2.4158   -0.6021 O   0  0  0  0  0  0  0  0  0  0  0  0
   -4.9398   -1.5938    1.3747 O   0  0  0  0  0  0  0  0  0  0  0  0
    5.8745   -1.8833   -1.1106 O   0  0  0  0  0  0  0  0  0  0  0  0
   -5.3685    0.8634    0.4410 N   0  0  0  0  0  0  0  0  0  0  0  0
   -0.1899    1.4050    0.6589 N   0  0  0  0  0  0  0  0  0  0  0  0
    1.0369    1.9018    0.3270 N   0  0  0  0  0  0  0  0  0  0  0  0
   -3.4093    0.4387   -0.9876 C   0  0  0  0  0  0  0  0  0  0  0  0
   -4.7664   -0.0801   -0.5006 C   0  0  1  0  0  0  0  0  0  0  0  0
   -2.4235    0.6542    0.1622 C   0  0  0  0  0  0  0  0  0  0  0  0
   -1.1068    1.1973   -0.3520 C   0  0  0  0  0  0  0  0  0  0  0  0
   -4.6356   -1.4170    0.2006 C   0  0  0  0  0  0  0  0  0  0  0  0
    2.1428    1.0432    0.3045 C   0  0  0  0  0  0  0  0  0  0  0  0
    4.3545   -0.6734    0.2613 C   0  0  0  0  0  0  0  0  0  0  0  0
    1.9617   -0.3450    0.3150 C   0  0  0  0  0  0  0  0  0  0  0  0
    3.4421    1.5637    0.2722 C   0  0  0  0  0  0  0  0  0  0  0  0
    3.0635   -1.2003    0.2935 C   0  0  0  0  0  0  0  0  0  0  0  0
    4.5439    0.7086    0.2506 C   0  0  0  0  0  0  0  0  0  0  0  0
    5.5324   -1.5877    0.2380 C   0  0  0  0  0  0  0  0  0  0  0  0
   -2.9811   -0.2715   -1.7068 H   0  0  0  0  0  0  0  0  0  0  0  0
   -3.5559    1.3803   -1.5332 H   0  0  0  0  0  0  0  0  0  0  0  0
   -5.4468   -0.2092   -1.3498 H   0  0  0  0  0  0  0  0  0  0  0  0
   -2.8152    1.3719    0.8918 H   0  0  0  0  0  0  0  0  0  0  0  0
   -2.2181   -0.2876    0.6835 H   0  0  0  0  0  0  0  0  0  0  0  0
   -6.3103    0.5546    0.6797 H   0  0  0  0  0  0  0  0  0  0  0  0
   -5.4733    1.7731   -0.0069 H   0  0  0  0  0  0  0  0  0  0  0  0
   -0.3602    1.2351    1.6442 H   0  0  0  0  0  0  0  0  0  0  0  0
    1.1670    2.9035    0.3848 H   0  0  0  0  0  0  0  0  0  0  0  0
    0.9738   -0.7973    0.3341 H   0  0  0  0  0  0  0  0  0  0  0  0
    3.6043    2.6388    0.2632 H   0  0  0  0  0  0  0  0  0  0  0  0
    2.9033   -2.2752    0.2990 H   0  0  0  0  0  0  0  0  0  0  0  0
    5.5448    1.1312    0.2237 H   0  0  0  0  0  0  0  0  0  0  0  0
    6.3970   -1.1285    0.7299 H   0  0  0  0  0  0  0  0  0  0  0  0
    5.3136   -2.5251    0.7613 H   0  0  0  0  0  0  0  0  0  0  0  0
   -4.1324   -3.2710   -0.1248 H   0  0  0  0  0  0  0  0  0  0  0  0
    6.6429   -2.4788   -1.0855 H   0  0  0  0  0  0  0  0  0  0  0  0
  1 11  2  0  0  0  0
  2 12  1  0  0  0  0
  2 35  1  0  0  0  0
  3 12  2  0  0  0  0
  4 19  1  0  0  0  0
  4 36  1  0  0  0  0
  5  9  1  0  0  0  0
  5 25  1  0  0  0  0
  5 26  1  0  0  0  0
  6  7  1  0  0  0  0
  6 11  1  0  0  0  0
  6 27  1  0  0  0  0
  7 13  1  0  0  0  0
  7 28  1  0  0  0  0
  8  9  1  0  0  0  0
  8 10  1  0  0  0  0
  8 20  1  0  0  0  0
  8 21  1  0  0  0  0
  9 12  1  0  0  0  0
  9 22  1  0  0  0  0
 10 11  1  0  0  0  0
 10 23  1  0  0  0  0
 10 24  1  0  0  0  0
 13 15  2  0  0  0  0
 13 16  1  0  0  0  0
 14 17  2  0  0  0  0
 14 18  1  0  0  0  0
 14 19  1  0  0  0  0
 15 17  1  0  0  0  0
 15 29  1  0  0  0  0
 16 18  2  0  0  0  0
 16 30  1  0  0  0  0
 17 31  1  0  0  0  0
 18 32  1  0  0  0  0
 19 33  1  0  0  0  0
 19 34  1  0  0  0  0
M  END
> <PUBCHEM_COMPOUND_CID>
439517

> <PUBCHEM_CONFORMER_RMSD>
0.8

> <PUBCHEM_CONFORMER_DIVERSEORDER>
1
43
52
69
81
33
70
12
44
102
110
95
83
37
101
100
73
85
32
45
71
30
87
80
28
66
18
75
64
99
11
4
19
20
88
41
42
76
92
5
79
105
40
55
103
53
94
16
24
10
39
104
77
107
8
108
93
56
54
13
68
65
90
14
97
29
21
82
17
15
22
27
74
78
84
46
98
91
49
34
25
60
106
23
86
72
67
31
89
109
58
38
2
26
57
36
63
96
3
51
6
7
47
50
48
59
9
61
35
62

> <PUBCHEM_MMFF94_PARTIAL_CHARGES>
28
1 -0.57
10 0.06
11 0.57
12 0.66
13 0.1
14 -0.14
15 -0.15
16 -0.15
17 -0.15
18 -0.15
19 0.42
2 -0.65
25 0.36
26 0.36
27 0.37
28 0.4
29 0.15
3 -0.57
30 0.15
31 0.15
32 0.15
35 0.5
36 0.4
4 -0.68
5 -0.99
6 -0.41
7 -0.52
9 0.33

> <PUBCHEM_EFFECTIVE_ROTOR_COUNT>
8

> <PUBCHEM_PHARMACOPHORE_FEATURES>
11
1 1 acceptor
1 2 acceptor
1 3 acceptor
1 4 acceptor
1 4 donor
1 5 cation
1 5 donor
1 6 donor
1 7 donor
3 2 3 12 anion
6 13 14 15 16 17 18 rings

> <PUBCHEM_HEAVY_ATOM_COUNT>
19

> <PUBCHEM_ATOM_DEF_STEREO_COUNT>
1

> <PUBCHEM_ATOM_UDEF_STEREO_COUNT>
0

> <PUBCHEM_BOND_DEF_STEREO_COUNT>
0

> <PUBCHEM_BOND_UDEF_STEREO_COUNT>
0

> <PUBCHEM_ISOTOPIC_ATOM_COUNT>
0

> <PUBCHEM_COMPONENT_COUNT>
1

> <PUBCHEM_CACTVS_TAUTO_COUNT>
2

> <PUBCHEM_CONFORMER_ID>
0006B4DD00000001

> <PUBCHEM_MMFF94_ENERGY>
42.7918

> <PUBCHEM_FEATURE_SELFOVERLAP>
57.453

> <PUBCHEM_SHAPE_FINGERPRINT>
11089746 13 9583526408361743176
11128504 68 16056875832003467692
12596602 18 16588031164808944459
13103583 49 17604138247517792699
13167823 11 18411141311966762449
13402501 40 18413669110547866179
13955234 65 18189060798533591568
14123256 34 18335974342185405374
14178000 29 18131634443832376205
14251732 14 16415189049492880939
14251751 18 18343020003705105622
14341114 176 18408319982310102713
14350574 20 18411699924499054508
14455015 7 18409448089550229312
14576447 43 18270401711104781370
15188451 53 15430620359021814485
15196674 1 18410296878246320243
15537594 2 18187366472151480102
15880784 105 18334012761722224827
17844677 252 18408882923716060305
17870717 6 17703794721705786359
193927 3 18187642544243967796
19784866 240 18335978757253380564
20281475 54 18410858724673046189
20374829 77 18130795568041779105
20621476 21 17988630858123436235
20621476 51 17533794714661682287
20645477 70 18412266134243106152
21267235 1 18335135436530529982
21713013 43 18202009862489191588
22950370 63 18410011018124065021
23402539 116 16845301548221967717
23559900 14 18338527348098023553
239999 70 18411420609901475730
26918003 58 18259989284007127289
2767999 5 10519978262520011230
2871803 45 18131358513657905266
3004659 81 18272091612693806648
314194 84 18113908138922874228
3268164 11 16128389193824560389
351380 3 18334582368843351630
4214541 1 18411141368018089281
465052 167 18259983747340407541
5104073 3 18187372081716710464

> <PUBCHEM_SHAPE_MULTIPOLES>
352.59
14.62
2.18
0.97
1.94
0.61
-0.14
8.42
0.06
-0.19
-0.06
0.46
0.07
0.94

> <PUBCHEM_SHAPE_SELFOVERLAP>
718.391

> <PUBCHEM_SHAPE_VOLUME>
202.3

> <PUBCHEM_COORDINATE_TYPE>
2
5
10

$$$$

