6496
  -OEChem-06261201213D

 13 12  0     0  0  0  0  0  0999 V2000
   -0.0078    0.2632   -0.0002 S   0  0  0  0  0  0  0  0  0  0  0  0
    0.0034    0.9946   -1.2588 O   0  0  0  0  0  0  0  0  0  0  0  0
    0.0037    0.9980    1.2564 O   0  0  0  0  0  0  0  0  0  0  0  0
   -1.3373   -0.8247    0.0010 C   0  0  0  0  0  0  0  0  0  0  0  0
    1.3388   -0.8291    0.0009 C   0  0  0  0  0  0  0  0  0  0  0  0
   -2.5648   -0.3013    0.0004 C   0  0  0  0  0  0  0  0  0  0  0  0
    2.5639   -0.3006    0.0003 C   0  0  0  0  0  0  0  0  0  0  0  0
   -1.1910   -1.8986    0.0020 H   0  0  0  0  0  0  0  0  0  0  0  0
    1.1912   -1.9027    0.0020 H   0  0  0  0  0  0  0  0  0  0  0  0
   -3.4329   -0.9520    0.0011 H   0  0  0  0  0  0  0  0  0  0  0  0
   -2.7412    0.7689   -0.0006 H   0  0  0  0  0  0  0  0  0  0  0  0
    3.4348   -0.9475    0.0010 H   0  0  0  0  0  0  0  0  0  0  0  0
    2.7350    0.7704   -0.0009 H   0  0  0  0  0  0  0  0  0  0  0  0
  1  2  2  0  0  0  0
  1  3  2  0  0  0  0
  1  4  1  0  0  0  0
  1  5  1  0  0  0  0
  4  6  2  0  0  0  0
  4  8  1  0  0  0  0
  5  7  2  0  0  0  0
  5  9  1  0  0  0  0
  6 10  1  0  0  0  0
  6 11  1  0  0  0  0
  7 12  1  0  0  0  0
  7 13  1  0  0  0  0
M  END
> <PUBCHEM_COMPOUND_CID>
6496

> <PUBCHEM_CONFORMER_RMSD>
0.4

> <PUBCHEM_CONFORMER_DIVERSEORDER>
1
8
5
4
2
3
6
7

> <PUBCHEM_MMFF94_PARTIAL_CHARGES>
13
1 1.33
10 0.15
11 0.15
12 0.15
13 0.15
2 -0.65
3 -0.65
4 -0.17
5 -0.17
6 -0.3
7 -0.3
8 0.15
9 0.15

> <PUBCHEM_EFFECTIVE_ROTOR_COUNT>
2

> <PUBCHEM_PHARMACOPHORE_FEATURES>
2
1 2 acceptor
1 3 acceptor

> <PUBCHEM_HEAVY_ATOM_COUNT>
7

> <PUBCHEM_ATOM_DEF_STEREO_COUNT>
0

> <PUBCHEM_ATOM_UDEF_STEREO_COUNT>
0

> <PUBCHEM_BOND_DEF_STEREO_COUNT>
0

> <PUBCHEM_BOND_UDEF_STEREO_COUNT>
0

> <PUBCHEM_ISOTOPIC_ATOM_COUNT>
0

> <PUBCHEM_COMPONENT_COUNT>
1

> <PUBCHEM_CACTVS_TAUTO_COUNT>
1

> <PUBCHEM_CONFORMER_ID>
0000196000000001

> <PUBCHEM_MMFF94_ENERGY>
4.7459

> <PUBCHEM_FEATURE_SELFOVERLAP>
10.167

> <PUBCHEM_SHAPE_FINGERPRINT>
14128692 85 18268983189879209846
16714656 1 18060424646204958671
20653085 51 11743553349082538934
29004967 10 17846773001166803250
5460574 1 9223232944407752451
5943 1 14656019252658777093

> <PUBCHEM_SHAPE_MULTIPOLES>
136.17
3.13
1.06
0.94
0
0.07
0
-0.87
0
0
0
0
0.34
0

> <PUBCHEM_SHAPE_SELFOVERLAP>
241.973

> <PUBCHEM_SHAPE_VOLUME>
88.6

> <PUBCHEM_COORDINATE_TYPE>
2
5
10

$$$$

