5624
  -OEChem-06261200473D

 82 87  0     1  0  0  0  0  0999 V2000
    3.6100   -1.0423    1.0024 O   0  0  0  0  0  0  0  0  0  0  0  0
    5.6706    2.8891   -2.2850 O   0  0  0  0  0  0  0  0  0  0  0  0
    1.2028   -2.4914    1.1866 N   0  0  0  0  0  0  0  0  0  0  0  0
   -1.2395   -1.2073    1.3576 N   0  0  0  0  0  0  0  0  0  0  0  0
   -5.3644   -1.2349   -1.0077 N   0  0  0  0  0  0  0  0  0  0  0  0
   -3.5647    2.7948    0.5032 N   0  0  0  0  0  0  0  0  0  0  0  0
   -2.3997    0.8388    0.9371 N   0  0  0  0  0  0  0  0  0  0  0  0
   -4.4892    0.8126   -0.2631 N   0  0  0  0  0  0  0  0  0  0  0  0
    3.5844   -2.4150    0.5676 C   0  0  1  0  0  0  0  0  0  0  0  0
    2.5064   -3.1041    1.4169 C   0  0  0  0  0  0  0  0  0  0  0  0
    3.1988   -2.5356   -0.9157 C   0  0  0  0  0  0  0  0  0  0  0  0
    1.2065   -1.0664    1.5489 C   0  0  0  0  0  0  0  0  0  0  0  0
    0.1282   -3.2238    1.8539 C   0  0  0  0  0  0  0  0  0  0  0  0
    4.1497   -1.7445   -1.8029 C   0  0  0  0  0  0  0  0  0  0  0  0
   -0.1438   -0.5459    2.0636 C   0  0  0  0  0  0  0  0  0  0  0  0
   -1.2313   -2.6765    1.3964 C   0  0  0  0  0  0  0  0  0  0  0  0
    4.9413   -3.0624    0.8828 C   0  0  0  0  0  0  0  0  0  0  0  0
    4.3891   -0.3835   -1.2197 C   0  0  0  0  0  0  0  0  0  0  0  0
    4.1179   -0.1183    0.1277 C   0  0  0  0  0  0  0  0  0  0  0  0
   -2.3235   -0.5200    0.8192 C   0  0  0  0  0  0  0  0  0  0  0  0
    4.9216    0.6341   -2.0228 C   0  0  0  0  0  0  0  0  0  0  0  0
    4.3443    1.1574    0.6522 C   0  0  0  0  0  0  0  0  0  0  0  0
    4.8631    2.1663   -0.1580 C   0  0  0  0  0  0  0  0  0  0  0  0
   -5.3601   -2.6859   -1.1772 C   0  0  0  0  0  0  0  0  0  0  0  0
   -6.5468   -0.6251   -1.6111 C   0  0  0  0  0  0  0  0  0  0  0  0
    5.1553    1.9039   -1.4942 C   0  0  0  0  0  0  0  0  0  0  0  0
   -4.3756   -0.5286   -0.3574 C   0  0  0  0  0  0  0  0  0  0  0  0
   -6.7719   -2.9996   -1.6676 C   0  0  0  0  0  0  0  0  0  0  0  0
   -7.1524   -1.7517   -2.4452 C   0  0  0  0  0  0  0  0  0  0  0  0
   -3.3185   -1.2468    0.1631 C   0  0  0  0  0  0  0  0  0  0  0  0
   -4.6627    3.5976   -0.0297 C   0  0  0  0  0  0  0  0  0  0  0  0
   -2.5672    3.6241    1.1752 C   0  0  0  0  0  0  0  0  0  0  0  0
   -4.4547    4.9690    0.6090 C   0  0  0  0  0  0  0  0  0  0  0  0
   -2.9471    5.0476    0.7743 C   0  0  0  0  0  0  0  0  0  0  0  0
   -3.4809    1.4239    0.3874 C   0  0  0  0  0  0  0  0  0  0  0  0
    5.2560    0.3777   -3.4600 C   0  0  0  0  0  0  0  0  0  0  0  0
    4.0367    1.4420    2.0897 C   0  0  0  0  0  0  0  0  0  0  0  0
    5.1114    3.5306    0.4024 C   0  0  0  0  0  0  0  0  0  0  0  0
    2.7625   -3.0441    2.4839 H   0  0  0  0  0  0  0  0  0  0  0  0
    2.4695   -4.1690    1.1520 H   0  0  0  0  0  0  0  0  0  0  0  0
    3.1807   -3.5846   -1.2351 H   0  0  0  0  0  0  0  0  0  0  0  0
    2.1936   -2.1327   -1.0938 H   0  0  0  0  0  0  0  0  0  0  0  0
    1.4280   -0.4734    0.6558 H   0  0  0  0  0  0  0  0  0  0  0  0
    1.8989   -0.8377    2.3671 H   0  0  0  0  0  0  0  0  0  0  0  0
    0.2233   -3.1490    2.9452 H   0  0  0  0  0  0  0  0  0  0  0  0
    0.1673   -4.2912    1.6035 H   0  0  0  0  0  0  0  0  0  0  0  0
    5.1060   -2.2716   -1.8979 H   0  0  0  0  0  0  0  0  0  0  0  0
    3.7017   -1.6763   -2.8006 H   0  0  0  0  0  0  0  0  0  0  0  0
   -0.1648    0.5438    1.9457 H   0  0  0  0  0  0  0  0  0  0  0  0
   -0.2473   -0.7455    3.1380 H   0  0  0  0  0  0  0  0  0  0  0  0
   -1.3937   -3.0801    0.3891 H   0  0  0  0  0  0  0  0  0  0  0  0
   -2.0185   -3.0511    2.0612 H   0  0  0  0  0  0  0  0  0  0  0  0
    5.7668   -2.5520    0.3763 H   0  0  0  0  0  0  0  0  0  0  0  0
    5.1614   -2.9954    1.9547 H   0  0  0  0  0  0  0  0  0  0  0  0
    4.9588   -4.1178    0.5917 H   0  0  0  0  0  0  0  0  0  0  0  0
   -4.6167   -2.9799   -1.9269 H   0  0  0  0  0  0  0  0  0  0  0  0
   -5.1819   -3.2315   -0.2442 H   0  0  0  0  0  0  0  0  0  0  0  0
   -6.2978    0.2331   -2.2444 H   0  0  0  0  0  0  0  0  0  0  0  0
   -7.2417   -0.3036   -0.8272 H   0  0  0  0  0  0  0  0  0  0  0  0
   -6.8121   -3.9088   -2.2738 H   0  0  0  0  0  0  0  0  0  0  0  0
   -7.4478   -3.1263   -0.8131 H   0  0  0  0  0  0  0  0  0  0  0  0
   -8.2326   -1.6422   -2.5749 H   0  0  0  0  0  0  0  0  0  0  0  0
   -6.6877   -1.7750   -3.4383 H   0  0  0  0  0  0  0  0  0  0  0  0
   -3.2647   -2.3197    0.0612 H   0  0  0  0  0  0  0  0  0  0  0  0
   -4.5840    3.6603   -1.1208 H   0  0  0  0  0  0  0  0  0  0  0  0
   -5.6456    3.1950    0.2376 H   0  0  0  0  0  0  0  0  0  0  0  0
   -2.6419    3.4921    2.2605 H   0  0  0  0  0  0  0  0  0  0  0  0
   -1.5454    3.3946    0.8545 H   0  0  0  0  0  0  0  0  0  0  0  0
   -4.8603    5.7806   -0.0012 H   0  0  0  0  0  0  0  0  0  0  0  0
   -4.9399    5.0028    1.5920 H   0  0  0  0  0  0  0  0  0  0  0  0
   -2.6370    5.7882    1.5165 H   0  0  0  0  0  0  0  0  0  0  0  0
   -2.4799    5.3051   -0.1840 H   0  0  0  0  0  0  0  0  0  0  0  0
    4.3389    0.3332   -4.0566 H   0  0  0  0  0  0  0  0  0  0  0  0
    5.8055   -0.5629   -3.5728 H   0  0  0  0  0  0  0  0  0  0  0  0
    5.8985    1.1496   -3.8951 H   0  0  0  0  0  0  0  0  0  0  0  0
    4.8610    1.9802    2.5705 H   0  0  0  0  0  0  0  0  0  0  0  0
    3.1168    2.0302    2.1707 H   0  0  0  0  0  0  0  0  0  0  0  0
    3.9046    0.5368    2.6900 H   0  0  0  0  0  0  0  0  0  0  0  0
    4.4812    3.7648    1.2651 H   0  0  0  0  0  0  0  0  0  0  0  0
    4.8698    4.3135   -0.3252 H   0  0  0  0  0  0  0  0  0  0  0  0
    6.1598    3.6310    0.7005 H   0  0  0  0  0  0  0  0  0  0  0  0
    6.1215    3.5570   -1.7443 H   0  0  0  0  0  0  0  0  0  0  0  0
  1  9  1  0  0  0  0
  1 19  1  0  0  0  0
  2 26  1  0  0  0  0
  2 82  1  0  0  0  0
  3 10  1  0  0  0  0
  3 12  1  0  0  0  0
  3 13  1  0  0  0  0
  4 15  1  0  0  0  0
  4 16  1  0  0  0  0
  4 20  1  0  0  0  0
  5 24  1  0  0  0  0
  5 25  1  0  0  0  0
  5 27  1  0  0  0  0
  6 31  1  0  0  0  0
  6 32  1  0  0  0  0
  6 35  1  0  0  0  0
  7 20  2  0  0  0  0
  7 35  1  0  0  0  0
  8 27  1  0  0  0  0
  8 35  2  0  0  0  0
  9 10  1  0  0  0  0
  9 11  1  0  0  0  0
  9 17  1  0  0  0  0
 10 39  1  0  0  0  0
 10 40  1  0  0  0  0
 11 14  1  0  0  0  0
 11 41  1  0  0  0  0
 11 42  1  0  0  0  0
 12 15  1  0  0  0  0
 12 43  1  0  0  0  0
 12 44  1  0  0  0  0
 13 16  1  0  0  0  0
 13 45  1  0  0  0  0
 13 46  1  0  0  0  0
 14 18  1  0  0  0  0
 14 47  1  0  0  0  0
 14 48  1  0  0  0  0
 15 49  1  0  0  0  0
 15 50  1  0  0  0  0
 16 51  1  0  0  0  0
 16 52  1  0  0  0  0
 17 53  1  0  0  0  0
 17 54  1  0  0  0  0
 17 55  1  0  0  0  0
 18 19  2  0  0  0  0
 18 21  1  0  0  0  0
 19 22  1  0  0  0  0
 20 30  1  0  0  0  0
 21 26  2  0  0  0  0
 21 36  1  0  0  0  0
 22 23  2  0  0  0  0
 22 37  1  0  0  0  0
 23 26  1  0  0  0  0
 23 38  1  0  0  0  0
 24 28  1  0  0  0  0
 24 56  1  0  0  0  0
 24 57  1  0  0  0  0
 25 29  1  0  0  0  0
 25 58  1  0  0  0  0
 25 59  1  0  0  0  0
 27 30  2  0  0  0  0
 28 29  1  0  0  0  0
 28 60  1  0  0  0  0
 28 61  1  0  0  0  0
 29 62  1  0  0  0  0
 29 63  1  0  0  0  0
 30 64  1  0  0  0  0
 31 33  1  0  0  0  0
 31 65  1  0  0  0  0
 31 66  1  0  0  0  0
 32 34  1  0  0  0  0
 32 67  1  0  0  0  0
 32 68  1  0  0  0  0
 33 34  1  0  0  0  0
 33 69  1  0  0  0  0
 33 70  1  0  0  0  0
 34 71  1  0  0  0  0
 34 72  1  0  0  0  0
 36 73  1  0  0  0  0
 36 74  1  0  0  0  0
 36 75  1  0  0  0  0
 37 76  1  0  0  0  0
 37 77  1  0  0  0  0
 37 78  1  0  0  0  0
 38 79  1  0  0  0  0
 38 80  1  0  0  0  0
 38 81  1  0  0  0  0
M  END
> <PUBCHEM_COMPOUND_CID>
5624

> <PUBCHEM_CONFORMER_RMSD>
1

> <PUBCHEM_CONFORMER_DIVERSEORDER>
2
77
59
75
40
43
68
72
9
53
70
86
71
66
78
28
79
7
37
54
44
63
84
52
69
73
48
34
64
80
27
74
16
20
30
55
18
56
67
65
41
50
5
13
46
60
57
8
4
61
45
3
81
11
17
82
35
42
1
12
36
23
58
85
10
6
51
39
83
47
26
19
76
14
22
32
62
49
21
15
33
31
25
38
24
29

> <PUBCHEM_MMFF94_PARTIAL_CHARGES>
34
1 -0.36
10 0.27
12 0.27
13 0.27
14 0.14
15 0.37
16 0.37
18 -0.14
19 0.08
2 -0.53
20 0.41
21 -0.14
22 -0.14
23 -0.14
24 0.37
25 0.37
26 0.08
27 0.41
3 -0.81
30 -0.15
31 0.37
32 0.37
35 0.72
36 0.14
37 0.14
38 0.14
4 -0.84
5 -0.84
6 -0.84
64 0.15
7 -0.62
8 -0.62
82 0.45
9 0.28

> <PUBCHEM_EFFECTIVE_ROTOR_COUNT>
9

> <PUBCHEM_PHARMACOPHORE_FEATURES>
11
1 1 acceptor
1 2 donor
1 3 cation
1 5 cation
4 6 7 8 35 cation
5 5 24 25 28 29 rings
5 6 31 32 33 34 rings
6 1 9 11 14 18 19 rings
6 18 19 21 22 23 26 rings
6 3 4 12 13 15 16 rings
6 7 8 20 27 30 35 rings

> <PUBCHEM_HEAVY_ATOM_COUNT>
38

> <PUBCHEM_ATOM_DEF_STEREO_COUNT>
0

> <PUBCHEM_ATOM_UDEF_STEREO_COUNT>
1

> <PUBCHEM_BOND_DEF_STEREO_COUNT>
0

> <PUBCHEM_BOND_UDEF_STEREO_COUNT>
0

> <PUBCHEM_ISOTOPIC_ATOM_COUNT>
0

> <PUBCHEM_COMPONENT_COUNT>
1

> <PUBCHEM_CACTVS_TAUTO_COUNT>
9

> <PUBCHEM_CONFORMER_ID>
000015F800000002

> <PUBCHEM_MMFF94_ENERGY>
153.526

> <PUBCHEM_FEATURE_SELFOVERLAP>
55.847

> <PUBCHEM_SHAPE_FINGERPRINT>
10439779 11 18342178861032386424
10556698 54 18336256899488950964
10940486 97 17472149839325795795
11331351 85 17191517110128845106
11377469 6 14201663235249184867
11513181 2 18336536226728026676
131258 43 17824829937060381795
13617811 41 18266756700919684217
13782708 43 15285364990415268151
14187579 7 18409726283436001401
14295346 376 18259705571711081009
14556957 393 18337965571007576597
15064981 194 18129930248370617379
15082195 135 18198919178448494483
15160629 131 18115031797410572559
15289351 153 18413108339323908152
15320291 9 18339357582324762780
15406563 47 17694795020847909777
15669420 48 17750517273905401482
16708801 149 18059574719348257544
16989378 47 17461744813363641351
16991981 162 17969772176259675905
16992787 43 18341328887130770491
16994733 274 15912503423770653287
20764821 26 17987239017983617836
21033648 29 14333401263960148091
23516275 100 17974860466512161640
23522609 53 18187632623259859395
249057 25 18271533090561978698
25223398 141 17750818698805397959
3388396 114 18341047428237138077
3552219 110 18272646879948007909
3610482 184 18268974540321549565
393628 179 18194680359693232252
44317340 157 18343021129408900403
44344687 77 18118677726566300819
46194498 28 17458632172716267304
513532 50 18187365429165607586
6058803 2 18125454248498380147
6086070 43 17200258098509167442
6371009 1 18201732781359106842
6700243 42 17749096820925326517

> <PUBCHEM_SHAPE_MULTIPOLES>
740.4
18.17
6.13
2.51
11.49
6.66
1.43
1.05
13.22
4.97
-1.65
-2.15
-0.84
-4.81

> <PUBCHEM_SHAPE_SELFOVERLAP>
1597.542

> <PUBCHEM_SHAPE_VOLUME>
408.8

> <PUBCHEM_COORDINATE_TYPE>
2
5
10

$$$$

