42107
  -OEChem-07051213043D

 74 76  0     1  0  0  0  0  0999 V2000
   -0.8478    0.8768    1.7161 S   0  0  0  0  0  0  0  0  0  0  0  0
   -3.1325    2.4906    0.6631 S   0  0  0  0  0  0  0  0  0  0  0  0
   -1.5414    0.7504    2.9858 O   0  0  0  0  0  0  0  0  0  0  0  0
    0.1542   -0.1000    1.3303 O   0  0  0  0  0  0  0  0  0  0  0  0
   -3.8705    2.8110   -0.5452 O   0  0  0  0  0  0  0  0  0  0  0  0
   -3.8428    2.2991    1.9142 O   0  0  0  0  0  0  0  0  0  0  0  0
   -5.8450   -1.4260   -1.6509 O   0  0  0  0  0  0  0  0  0  0  0  0
   -5.5113   -3.5112    0.1568 O   0  0  0  0  0  0  0  0  0  0  0  0
    5.3430   -1.0755    2.3018 O   0  0  0  0  0  0  0  0  0  0  0  0
    7.5886   -1.6006    0.7499 O   0  0  0  0  0  0  0  0  0  0  0  0
    1.0302    0.8636   -2.7074 N   0  0  1  0  0  0  0  0  0  0  0  0
   -2.0711    1.0252    0.3575 C   0  0  0  0  0  0  0  0  0  0  0  0
   -1.3143    1.1779   -0.9780 C   0  0  0  0  0  0  0  0  0  0  0  0
   -0.0337    2.4603    1.7620 C   0  0  0  0  0  0  0  0  0  0  0  0
   -1.9837    3.8325    0.9002 C   0  0  0  0  0  0  0  0  0  0  0  0
   -0.9971    3.6047    2.0313 C   0  0  0  0  0  0  0  0  0  0  0  0
   -3.0060   -0.2033    0.3004 C   0  0  0  0  0  0  0  0  0  0  0  0
   -0.8394   -0.1742   -1.5096 C   0  0  0  0  0  0  0  0  0  0  0  0
   -0.1221   -0.0184   -2.8494 C   0  0  0  0  0  0  0  0  0  0  0  0
   -4.0173   -0.2664   -0.6582 C   0  0  0  0  0  0  0  0  0  0  0  0
   -2.8387   -1.2497    1.2075 C   0  0  0  0  0  0  0  0  0  0  0  0
   -4.8611   -1.3759   -0.7100 C   0  0  0  0  0  0  0  0  0  0  0  0
   -3.6827   -2.3591    1.1559 C   0  0  0  0  0  0  0  0  0  0  0  0
   -4.6939   -2.4222    0.1971 C   0  0  0  0  0  0  0  0  0  0  0  0
    2.1578    0.1465   -2.1093 C   0  0  0  0  0  0  0  0  0  0  0  0
    1.4147    1.4224   -4.0048 C   0  0  0  0  0  0  0  0  0  0  0  0
    3.1604    1.1210   -1.4902 C   0  0  0  0  0  0  0  0  0  0  0  0
    4.3385    0.3960   -0.8901 C   0  0  0  0  0  0  0  0  0  0  0  0
   -5.9486   -0.3157   -2.5401 C   0  0  0  0  0  0  0  0  0  0  0  0
   -5.2733   -4.5364    1.1192 C   0  0  0  0  0  0  0  0  0  0  0  0
    4.3014   -0.0114    0.4435 C   0  0  0  0  0  0  0  0  0  0  0  0
    5.4655    0.1325   -1.6688 C   0  0  0  0  0  0  0  0  0  0  0  0
    5.3912   -0.6825    0.9983 C   0  0  0  0  0  0  0  0  0  0  0  0
    6.5553   -0.5383   -1.1137 C   0  0  0  0  0  0  0  0  0  0  0  0
    6.5181   -0.9460    0.2198 C   0  0  0  0  0  0  0  0  0  0  0  0
    4.1548   -0.7676    3.0281 C   0  0  0  0  0  0  0  0  0  0  0  0
    8.7006   -1.8302   -0.1133 C   0  0  0  0  0  0  0  0  0  0  0  0
   -0.4826    1.8790   -0.8811 H   0  0  0  0  0  0  0  0  0  0  0  0
   -1.9709    1.6176   -1.7397 H   0  0  0  0  0  0  0  0  0  0  0  0
    0.5267    2.6043    0.8358 H   0  0  0  0  0  0  0  0  0  0  0  0
    0.6975    2.3980    2.5760 H   0  0  0  0  0  0  0  0  0  0  0  0
   -2.5911    4.7197    1.1100 H   0  0  0  0  0  0  0  0  0  0  0  0
   -1.4674    4.0005   -0.0501 H   0  0  0  0  0  0  0  0  0  0  0  0
   -0.4118    4.5218    2.1685 H   0  0  0  0  0  0  0  0  0  0  0  0
   -1.5360    3.4337    2.9701 H   0  0  0  0  0  0  0  0  0  0  0  0
   -1.6812   -0.8401   -1.7224 H   0  0  0  0  0  0  0  0  0  0  0  0
   -0.2082   -0.7186   -0.8104 H   0  0  0  0  0  0  0  0  0  0  0  0
    0.1626   -0.9998   -3.2508 H   0  0  0  0  0  0  0  0  0  0  0  0
   -0.8445    0.4067   -3.5594 H   0  0  0  0  0  0  0  0  0  0  0  0
   -4.0927    0.5450   -1.3687 H   0  0  0  0  0  0  0  0  0  0  0  0
   -2.0658   -1.3087    1.9593 H   0  0  0  0  0  0  0  0  0  0  0  0
   -3.4906   -3.1381    1.8859 H   0  0  0  0  0  0  0  0  0  0  0  0
    2.6479   -0.5046   -2.8464 H   0  0  0  0  0  0  0  0  0  0  0  0
    1.8254   -0.5210   -1.3060 H   0  0  0  0  0  0  0  0  0  0  0  0
    2.2334    2.1422   -3.9141 H   0  0  0  0  0  0  0  0  0  0  0  0
    1.7133    0.6453   -4.7180 H   0  0  0  0  0  0  0  0  0  0  0  0
    0.5777    1.9796   -4.4419 H   0  0  0  0  0  0  0  0  0  0  0  0
    3.5401    1.8373   -2.2279 H   0  0  0  0  0  0  0  0  0  0  0  0
    2.6699    1.7264   -0.7161 H   0  0  0  0  0  0  0  0  0  0  0  0
   -6.1898    0.6099   -2.0061 H   0  0  0  0  0  0  0  0  0  0  0  0
   -5.0567   -0.2169   -3.1683 H   0  0  0  0  0  0  0  0  0  0  0  0
   -6.7879   -0.5201   -3.2130 H   0  0  0  0  0  0  0  0  0  0  0  0
   -4.2873   -4.9944    0.9855 H   0  0  0  0  0  0  0  0  0  0  0  0
   -5.4305   -4.1752    2.1413 H   0  0  0  0  0  0  0  0  0  0  0  0
   -6.0150   -5.3224    0.9427 H   0  0  0  0  0  0  0  0  0  0  0  0
    3.3979    0.2193    0.9981 H   0  0  0  0  0  0  0  0  0  0  0  0
    5.5041    0.4435   -2.7095 H   0  0  0  0  0  0  0  0  0  0  0  0
    7.3956   -0.7090   -1.7778 H   0  0  0  0  0  0  0  0  0  0  0  0
    4.2899   -1.1521    4.0445 H   0  0  0  0  0  0  0  0  0  0  0  0
    3.2812   -1.2787    2.6092 H   0  0  0  0  0  0  0  0  0  0  0  0
    4.0034    0.3138    3.1156 H   0  0  0  0  0  0  0  0  0  0  0  0
    8.4329   -2.4825   -0.9514 H   0  0  0  0  0  0  0  0  0  0  0  0
    9.1551   -0.8904   -0.4448 H   0  0  0  0  0  0  0  0  0  0  0  0
    9.4588   -2.3605    0.4723 H   0  0  0  0  0  0  0  0  0  0  0  0
  1  3  2  0  0  0  0
  1  4  2  0  0  0  0
  1 12  1  0  0  0  0
  1 14  1  0  0  0  0
  2  5  2  0  0  0  0
  2  6  2  0  0  0  0
  2 12  1  0  0  0  0
  2 15  1  0  0  0  0
  7 22  1  0  0  0  0
  7 29  1  0  0  0  0
  8 24  1  0  0  0  0
  8 30  1  0  0  0  0
  9 33  1  0  0  0  0
  9 36  1  0  0  0  0
 10 35  1  0  0  0  0
 10 37  1  0  0  0  0
 11 19  1  0  0  0  0
 11 25  1  0  0  0  0
 11 26  1  0  0  0  0
 12 13  1  0  0  0  0
 12 17  1  0  0  0  0
 13 18  1  0  0  0  0
 13 38  1  0  0  0  0
 13 39  1  0  0  0  0
 14 16  1  0  0  0  0
 14 40  1  0  0  0  0
 14 41  1  0  0  0  0
 15 16  1  0  0  0  0
 15 42  1  0  0  0  0
 15 43  1  0  0  0  0
 16 44  1  0  0  0  0
 16 45  1  0  0  0  0
 17 20  2  0  0  0  0
 17 21  1  0  0  0  0
 18 19  1  0  0  0  0
 18 46  1  0  0  0  0
 18 47  1  0  0  0  0
 19 48  1  0  0  0  0
 19 49  1  0  0  0  0
 20 22  1  0  0  0  0
 20 50  1  0  0  0  0
 21 23  2  0  0  0  0
 21 51  1  0  0  0  0
 22 24  2  0  0  0  0
 23 24  1  0  0  0  0
 23 52  1  0  0  0  0
 25 27  1  0  0  0  0
 25 53  1  0  0  0  0
 25 54  1  0  0  0  0
 26 55  1  0  0  0  0
 26 56  1  0  0  0  0
 26 57  1  0  0  0  0
 27 28  1  0  0  0  0
 27 58  1  0  0  0  0
 27 59  1  0  0  0  0
 28 31  2  0  0  0  0
 28 32  1  0  0  0  0
 29 60  1  0  0  0  0
 29 61  1  0  0  0  0
 29 62  1  0  0  0  0
 30 63  1  0  0  0  0
 30 64  1  0  0  0  0
 30 65  1  0  0  0  0
 31 33  1  0  0  0  0
 31 66  1  0  0  0  0
 32 34  2  0  0  0  0
 32 67  1  0  0  0  0
 33 35  2  0  0  0  0
 34 35  1  0  0  0  0
 34 68  1  0  0  0  0
 36 69  1  0  0  0  0
 36 70  1  0  0  0  0
 36 71  1  0  0  0  0
 37 72  1  0  0  0  0
 37 73  1  0  0  0  0
 37 74  1  0  0  0  0
M  END
> <PUBCHEM_COMPOUND_CID>
42107

> <PUBCHEM_CONFORMER_RMSD>
1.2

> <PUBCHEM_CONFORMER_DIVERSEORDER>
7
1
17
38
159
133
218
197
208
174
167
215
199
145
220
81
122
180
40
98
129
211
161
72
214
85
19
150
248
121
240
227
223
140
241
203
139
57
236
123
244
103
176
192
83
36
155
170
148
219
154
250
120
246
51
141
171
79
92
16
151
116
75
191
196
242
97
213
183
45
231
198
2
144
132
162
70
95
114
149
101
82
77
87
14
251
127
235
221
53
202
206
125
37
179
201
102
158
188
61
207
66
48
23
138
137
204
156
194
224
56
169
193
134
166
195
209
181
136
142
25
49
124
104
69
118
128
90
34
21
184
210
153
173
163
249
30
200
100
20
168
55
50
47
18
96
76
152
119
3
59
131
232
226
108
160
239
26
67
63
177
233
43
71
143
68
126
187
135
222
42
229
216
44
91
113
27
172
178
80
4
186
54
237
78
147
111
110
157
109
33
185
165
9
117
228
189
5
106
15
130
238
39
32
99
115
62
94
93
107
28
52
146
164
112
74
64
105
41
31
29
8
73
225
60
243
88
89
84
12
234
24
86
6
205
217
182
58
190
245
247
230
13
65
10
175
22
212
46
35
11

> <PUBCHEM_MMFF94_PARTIAL_CHARGES>
40
1 1.09
10 -0.36
11 -0.81
12 0.35
14 0.11
15 0.11
17 -0.14
19 0.27
2 1.09
20 -0.15
21 -0.15
22 0.08
23 -0.15
24 0.08
25 0.27
26 0.27
27 0.14
28 -0.14
29 0.28
3 -0.65
30 0.28
31 -0.15
32 -0.15
33 0.08
34 -0.15
35 0.08
36 0.28
37 0.28
4 -0.65
5 -0.65
50 0.15
51 0.15
52 0.15
6 -0.65
66 0.15
67 0.15
68 0.15
7 -0.36
8 -0.36
9 -0.36

> <PUBCHEM_EFFECTIVE_ROTOR_COUNT>
12.8

> <PUBCHEM_PHARMACOPHORE_FEATURES>
12
1 10 acceptor
1 11 cation
1 3 acceptor
1 4 acceptor
1 5 acceptor
1 6 acceptor
1 7 acceptor
1 8 acceptor
1 9 acceptor
6 1 2 12 14 15 16 rings
6 17 20 21 22 23 24 rings
6 28 31 32 33 34 35 rings

> <PUBCHEM_HEAVY_ATOM_COUNT>
37

> <PUBCHEM_ATOM_DEF_STEREO_COUNT>
0

> <PUBCHEM_ATOM_UDEF_STEREO_COUNT>
0

> <PUBCHEM_BOND_DEF_STEREO_COUNT>
0

> <PUBCHEM_BOND_UDEF_STEREO_COUNT>
0

> <PUBCHEM_ISOTOPIC_ATOM_COUNT>
0

> <PUBCHEM_COMPONENT_COUNT>
1

> <PUBCHEM_CACTVS_TAUTO_COUNT>
1

> <PUBCHEM_CONFORMER_ID>
0000A47B00000007

> <PUBCHEM_MMFF94_ENERGY>
132.8517

> <PUBCHEM_FEATURE_SELFOVERLAP>
60.939

> <PUBCHEM_SHAPE_FINGERPRINT>
12128747 34 17752757211478377718
12166972 35 18059288743197964670
12596602 18 18412261736476338728
12925494 130 14637084258074812194
13782708 43 18196093240349935599
14068700 675 18343581807144793242
15183329 4 16845301539668956542
15876981 60 18412256268255490596
17686467 74 18334017160565620000
18393751 57 15936691480257480934
19315092 285 18200308815069642844
21304303 282 18195245744882171285
21639891 77 18334290955776970665
23559900 14 18129667366264873493
25025965 108 16700920322337016034
3886686 26 17831846220419228638
392239 28 15285350708820911495
4015057 19 16199856272661508932
469060 322 17240762865593606813
508180 173 16630815391513447877
9981440 41 17605831649706007709

> <PUBCHEM_SHAPE_MULTIPOLES>
717.21
17.89
3.83
3.33
29.51
0.05
1.47
16.86
0.08
-7.75
-2.48
0.95
-1.05
-1.43

> <PUBCHEM_SHAPE_SELFOVERLAP>
1473.555

> <PUBCHEM_SHAPE_VOLUME>
413.5

> <PUBCHEM_COORDINATE_TYPE>
2
5
10

$$$$

