151927
  -OEChem-07051212513D

 25 24  0     0  0  0  0  0  0999 V2000
    2.1073   -0.1099   -0.0013 P   0  0  0  0  0  0  0  0  0  0  0  0
    2.9448    0.8702    0.9625 O   0  0  0  0  0  0  0  0  0  0  0  0
    2.2615    0.5527   -1.4602 O   0  0  0  0  0  0  0  0  0  0  0  0
    2.4238   -1.5603    0.0994 O   0  0  0  0  0  0  0  0  0  0  0  0
   -2.0270   -0.0085   -0.0058 N   0  3  0  0  0  0  0  0  0  0  0  0
   -0.6252   -0.3981   -0.4525 C   0  0  0  0  0  0  0  0  0  0  0  0
    0.3976    0.2899    0.4286 C   0  0  0  0  0  0  0  0  0  0  0  0
   -3.0531   -0.7265   -0.8707 C   0  0  0  0  0  0  0  0  0  0  0  0
   -2.2239   -0.4054    1.4501 C   0  0  0  0  0  0  0  0  0  0  0  0
   -2.2058    1.4960   -0.1502 C   0  0  0  0  0  0  0  0  0  0  0  0
   -0.5092   -0.1081   -1.5029 H   0  0  0  0  0  0  0  0  0  0  0  0
   -0.5368   -1.4884   -0.3829 H   0  0  0  0  0  0  0  0  0  0  0  0
    0.3036   -0.0001    1.4780 H   0  0  0  0  0  0  0  0  0  0  0  0
    0.3302    1.3791    0.3673 H   0  0  0  0  0  0  0  0  0  0  0  0
   -2.9112   -1.8047   -0.7511 H   0  0  0  0  0  0  0  0  0  0  0  0
   -4.0549   -0.4353   -0.5414 H   0  0  0  0  0  0  0  0  0  0  0  0
   -2.8934   -0.4314   -1.9120 H   0  0  0  0  0  0  0  0  0  0  0  0
   -1.6624    0.2652    2.1052 H   0  0  0  0  0  0  0  0  0  0  0  0
   -3.2888   -0.3062    1.6850 H   0  0  0  0  0  0  0  0  0  0  0  0
   -1.9112   -1.4459    1.5775 H   0  0  0  0  0  0  0  0  0  0  0  0
   -1.6316    2.0212    0.6166 H   0  0  0  0  0  0  0  0  0  0  0  0
   -1.8937    1.7928   -1.1558 H   0  0  0  0  0  0  0  0  0  0  0  0
   -3.2672    1.7244   -0.0073 H   0  0  0  0  0  0  0  0  0  0  0  0
    3.9249    0.8347    0.9454 H   0  0  0  0  0  0  0  0  0  0  0  0
    3.1105    0.4560   -1.9419 H   0  0  0  0  0  0  0  0  0  0  0  0
  1  2  1  0  0  0  0
  1  3  1  0  0  0  0
  1  4  2  0  0  0  0
  1  7  1  0  0  0  0
  2 24  1  0  0  0  0
  3 25  1  0  0  0  0
  5  6  1  0  0  0  0
  5  8  1  0  0  0  0
  5  9  1  0  0  0  0
  5 10  1  0  0  0  0
  6  7  1  0  0  0  0
  6 11  1  0  0  0  0
  6 12  1  0  0  0  0
  7 13  1  0  0  0  0
  7 14  1  0  0  0  0
  8 15  1  0  0  0  0
  8 16  1  0  0  0  0
  8 17  1  0  0  0  0
  9 18  1  0  0  0  0
  9 19  1  0  0  0  0
  9 20  1  0  0  0  0
 10 21  1  0  0  0  0
 10 22  1  0  0  0  0
 10 23  1  0  0  0  0
M  CHG  1   5   1
M  END
> <PUBCHEM_COMPOUND_CID>
151927

> <PUBCHEM_CONFORMER_RMSD>
0.6

> <PUBCHEM_CONFORMER_DIVERSEORDER>
1

> <PUBCHEM_MMFF94_PARTIAL_CHARGES>
11
1 1.24
10 0.5
2 -0.77
24 0.5
25 0.5
3 -0.77
4 -0.7
5 -1.01
6 0.5
8 0.5
9 0.5

> <PUBCHEM_EFFECTIVE_ROTOR_COUNT>
3

> <PUBCHEM_PHARMACOPHORE_FEATURES>
5
1 2 acceptor
1 3 acceptor
1 4 acceptor
1 5 cation
4 1 2 3 4 anion

> <PUBCHEM_HEAVY_ATOM_COUNT>
10

> <PUBCHEM_ATOM_DEF_STEREO_COUNT>
0

> <PUBCHEM_ATOM_UDEF_STEREO_COUNT>
0

> <PUBCHEM_BOND_DEF_STEREO_COUNT>
0

> <PUBCHEM_BOND_UDEF_STEREO_COUNT>
0

> <PUBCHEM_ISOTOPIC_ATOM_COUNT>
0

> <PUBCHEM_COMPONENT_COUNT>
1

> <PUBCHEM_CACTVS_TAUTO_COUNT>
1

> <PUBCHEM_CONFORMER_ID>
0002517700000001

> <PUBCHEM_MMFF94_ENERGY>
-5.1454

> <PUBCHEM_FEATURE_SELFOVERLAP>
25.407

> <PUBCHEM_SHAPE_FINGERPRINT>
12932741 1 16845286137921319191
12932764 1 18259976093713934412
14325111 11 18259710007684173091
14390081 3 18408327695823245113
15310529 11 18187656794576177703
15775835 57 18187083957465629099
170605 34 17386574544508524360
19973954 147 17845924203954799732
20653085 51 18189335847953942033
21524375 3 17763178442658198785
23552423 10 18201438141932963555
29004967 10 18272084994017360808
3248919 1 17918274250884520304
369184 2 18186805794214645867
5084963 1 18341896328601774047
8030462 33 18413103974318239542

> <PUBCHEM_SHAPE_MULTIPOLES>
187.06
5.2
1.21
1.19
0.87
0.06
0.07
-0.18
-0.11
-0.03
-0.04
-0.14
0.02
-0.02

> <PUBCHEM_SHAPE_SELFOVERLAP>
325.996

> <PUBCHEM_SHAPE_VOLUME>
126.8

> <PUBCHEM_COORDINATE_TYPE>
2
5
10

$$$$

