6956
  -OEChem-06261201373D

 20 20  0     0  0  0  0  0  0999 V2000
    1.5872    1.7687   -1.1195 O   0  0  0  0  0  0  0  0  0  0  0  0
    1.5873   -1.7677    1.1197 O   0  0  0  0  0  0  0  0  0  0  0  0
    1.5950    1.8285    1.1729 N   0  0  0  0  0  0  0  0  0  0  0  0
    1.5952   -1.8294   -1.1726 N   0  0  0  0  0  0  0  0  0  0  0  0
   -0.2008    0.6971   -0.0233 C   0  0  0  0  0  0  0  0  0  0  0  0
   -0.2008   -0.6971    0.0226 C   0  0  0  0  0  0  0  0  0  0  0  0
   -1.4089    1.3941   -0.0459 C   0  0  0  0  0  0  0  0  0  0  0  0
   -1.4089   -1.3941    0.0458 C   0  0  0  0  0  0  0  0  0  0  0  0
   -2.6169    0.6969   -0.0228 C   0  0  0  0  0  0  0  0  0  0  0  0
   -2.6169   -0.6971    0.0231 C   0  0  0  0  0  0  0  0  0  0  0  0
    1.0442    1.4537   -0.0477 C   0  0  0  0  0  0  0  0  0  0  0  0
    1.0443   -1.4537    0.0476 C   0  0  0  0  0  0  0  0  0  0  0  0
   -1.4226    2.4805   -0.0819 H   0  0  0  0  0  0  0  0  0  0  0  0
   -1.4225   -2.4804    0.0820 H   0  0  0  0  0  0  0  0  0  0  0  0
   -3.5575    1.2395   -0.0405 H   0  0  0  0  0  0  0  0  0  0  0  0
   -3.5576   -1.2397    0.0413 H   0  0  0  0  0  0  0  0  0  0  0  0
    1.1608    1.5854    2.0577 H   0  0  0  0  0  0  0  0  0  0  0  0
    2.4573    2.3614    1.2147 H   0  0  0  0  0  0  0  0  0  0  0  0
    1.1610   -1.5870   -2.0576 H   0  0  0  0  0  0  0  0  0  0  0  0
    2.4575   -2.3624   -1.2139 H   0  0  0  0  0  0  0  0  0  0  0  0
  1 11  2  0  0  0  0
  2 12  2  0  0  0  0
  3 11  1  0  0  0  0
  3 17  1  0  0  0  0
  3 18  1  0  0  0  0
  4 12  1  0  0  0  0
  4 19  1  0  0  0  0
  4 20  1  0  0  0  0
  5  6  1  0  0  0  0
  5  7  2  0  0  0  0
  5 11  1  0  0  0  0
  6  8  2  0  0  0  0
  6 12  1  0  0  0  0
  7  9  1  0  0  0  0
  7 13  1  0  0  0  0
  8 10  1  0  0  0  0
  8 14  1  0  0  0  0
  9 10  2  0  0  0  0
  9 15  1  0  0  0  0
 10 16  1  0  0  0  0
M  END
> <PUBCHEM_COMPOUND_CID>
6956

> <PUBCHEM_CONFORMER_RMSD>
0.6

> <PUBCHEM_CONFORMER_DIVERSEORDER>
2
5
7
3
4
6
1

> <PUBCHEM_MMFF94_PARTIAL_CHARGES>
20
1 -0.57
10 -0.15
11 0.54
12 0.54
13 0.15
14 0.15
15 0.15
16 0.15
17 0.37
18 0.37
19 0.37
2 -0.57
20 0.37
3 -0.8
4 -0.8
5 0.09
6 0.09
7 -0.15
8 -0.15
9 -0.15

> <PUBCHEM_EFFECTIVE_ROTOR_COUNT>
2

> <PUBCHEM_PHARMACOPHORE_FEATURES>
5
1 1 acceptor
1 2 acceptor
1 3 donor
1 4 donor
6 5 6 7 8 9 10 rings

> <PUBCHEM_HEAVY_ATOM_COUNT>
12

> <PUBCHEM_ATOM_DEF_STEREO_COUNT>
0

> <PUBCHEM_ATOM_UDEF_STEREO_COUNT>
0

> <PUBCHEM_BOND_DEF_STEREO_COUNT>
0

> <PUBCHEM_BOND_UDEF_STEREO_COUNT>
0

> <PUBCHEM_ISOTOPIC_ATOM_COUNT>
0

> <PUBCHEM_COMPONENT_COUNT>
1

> <PUBCHEM_CACTVS_TAUTO_COUNT>
3

> <PUBCHEM_CONFORMER_ID>
00001B2C00000002

> <PUBCHEM_MMFF94_ENERGY>
43.4317

> <PUBCHEM_FEATURE_SELFOVERLAP>
25.371

> <PUBCHEM_SHAPE_FINGERPRINT>
12423570 1 12170202313422362393
12524768 44 18118972635282737439
14128692 85 18265041603981245079
161256 15 18411127031295383839
16945 1 18413670214369577223
20511035 2 18409737287268463389
20645476 183 16982939294397558052
20653091 64 18342171202298108075
20871998 184 17110435295536889588
21040471 1 17978791211969010505
23552423 10 18343861104599439135
241688 4 18126570252151388097
2748010 2 18413390943143690725
5084963 1 17829028940894745957
7364860 26 18259703397639814275
81228 2 17472696309093108170

> <PUBCHEM_SHAPE_MULTIPOLES>
225.25
3.06
2.38
0.94
1.51
0
0
0
0
-1.26
0
-0.56
0
0.07

> <PUBCHEM_SHAPE_SELFOVERLAP>
476.675

> <PUBCHEM_SHAPE_VOLUME>
126.5

> <PUBCHEM_COORDINATE_TYPE>
2
5
10

$$$$

