44593361
  -OEChem-07051212592D

 78 82  0     1  0  0  0  0  0999 V2000
    9.7942   -0.1545    0.0000 O   0  0  0  0  0  0  0  0  0  0  0  0
    9.7942    2.8455    0.0000 O   0  0  0  0  0  0  0  0  0  0  0  0
   11.5542    0.8109    0.0000 O   0  0  0  0  0  0  0  0  0  0  0  0
   11.5542    2.8802    0.0000 O   0  0  0  0  0  0  0  0  0  0  0  0
    8.2942   -1.0204    0.0000 O   0  0  0  0  0  0  0  0  0  0  0  0
    8.0622    0.8455    0.0000 O   0  0  0  0  0  0  0  0  0  0  0  0
   10.7943   -1.8865    0.0000 O   0  0  0  0  0  0  0  0  0  0  0  0
    9.7943   -3.6186    0.0000 O   0  0  0  0  0  0  0  0  0  0  0  0
    7.7942   -3.6186    0.0000 O   0  0  0  0  0  0  0  0  0  0  0  0
    8.0622    3.8455    0.0000 O   0  0  0  0  0  0  0  0  0  0  0  0
    7.1962    2.3455    0.0000 O   0  0  0  0  0  0  0  0  0  0  0  0
   14.1807   -1.6820    0.0000 O   0  0  0  0  0  0  0  0  0  0  0  0
   15.9166   -0.6886    0.0000 O   0  0  0  0  0  0  0  0  0  0  0  0
    2.0000    1.3455    0.0000 O   0  0  0  0  0  0  0  0  0  0  0  0
    2.0000   -0.6545    0.0000 O   0  0  0  0  0  0  0  0  0  0  0  0
    9.7942    0.8455    0.0000 C   0  0  2  0  0  0  0  0  0  0  0  0
   10.6603    1.3455    0.0000 C   0  0  2  0  0  0  0  0  0  0  0  0
    8.9282    1.3455    0.0000 C   0  0  1  0  0  0  0  0  0  0  0  0
   10.6603    2.3455    0.0000 C   0  0  1  0  0  0  0  0  0  0  0  0
    8.9282    2.3455    0.0000 C   0  0  1  0  0  0  0  0  0  0  0  0
    9.2942   -1.0205    0.0000 C   0  0  2  0  0  0  0  0  0  0  0  0
    9.7943   -1.8865    0.0000 C   0  0  1  0  0  0  0  0  0  0  0  0
   12.4603    1.3247    0.0000 C   0  0  2  0  0  0  0  0  0  0  0  0
    9.2942   -2.7526    0.0000 C   0  0  1  0  0  0  0  0  0  0  0  0
    8.2942   -2.7525    0.0000 C   0  0  2  0  0  0  0  0  0  0  0  0
    7.7942   -1.8865    0.0000 C   0  0  2  0  0  0  0  0  0  0  0  0
   12.4603    2.3663    0.0000 C   0  0  0  0  0  0  0  0  0  0  0  0
    8.0622    2.8455    0.0000 C   0  0  0  0  0  0  0  0  0  0  0  0
   13.3244    0.8214    0.0000 C   0  0  0  0  0  0  0  0  0  0  0  0
    6.7942   -1.8864    0.0000 C   0  0  0  0  0  0  0  0  0  0  0  0
    7.1962    1.3455    0.0000 C   0  0  0  0  0  0  0  0  0  0  0  0
   13.3205   -0.1786    0.0000 C   0  0  0  0  0  0  0  0  0  0  0  0
   14.1923    1.3180    0.0000 C   0  0  0  0  0  0  0  0  0  0  0  0
   14.1846   -0.6820    0.0000 C   0  0  0  0  0  0  0  0  0  0  0  0
   15.0564    0.8147    0.0000 C   0  0  0  0  0  0  0  0  0  0  0  0
    6.3301    0.8455    0.0000 C   0  0  0  0  0  0  0  0  0  0  0  0
   15.0525   -0.1853    0.0000 C   0  0  0  0  0  0  0  0  0  0  0  0
    5.4641    1.3455    0.0000 C   0  0  0  0  0  0  0  0  0  0  0  0
    4.5981    0.8455    0.0000 C   0  0  0  0  0  0  0  0  0  0  0  0
    3.7320    1.3455    0.0000 C   0  0  0  0  0  0  0  0  0  0  0  0
    4.5981   -0.1545    0.0000 C   0  0  0  0  0  0  0  0  0  0  0  0
    2.8660    0.8455    0.0000 C   0  0  0  0  0  0  0  0  0  0  0  0
    3.7320   -0.6545    0.0000 C   0  0  0  0  0  0  0  0  0  0  0  0
    2.8660   -0.1545    0.0000 C   0  0  0  0  0  0  0  0  0  0  0  0
    9.2573    0.5355    0.0000 H   0  0  0  0  0  0  0  0  0  0  0  0
   10.6537    0.4955    0.0000 H   0  0  0  0  0  0  0  0  0  0  0  0
    8.9282    0.7255    0.0000 H   0  0  0  0  0  0  0  0  0  0  0  0
   10.6537    3.1955    0.0000 H   0  0  0  0  0  0  0  0  0  0  0  0
    8.9282    2.9655    0.0000 H   0  0  0  0  0  0  0  0  0  0  0  0
    8.9842   -0.4835    0.0000 H   0  0  0  0  0  0  0  0  0  0  0  0
   10.1043   -2.4235    0.0000 H   0  0  0  0  0  0  0  0  0  0  0  0
   12.9978    1.6337    0.0000 H   0  0  0  0  0  0  0  0  0  0  0  0
    8.9842   -3.2895    0.0000 H   0  0  0  0  0  0  0  0  0  0  0  0
    7.6742   -2.7525    0.0000 H   0  0  0  0  0  0  0  0  0  0  0  0
    7.4842   -1.3495    0.0000 H   0  0  0  0  0  0  0  0  0  0  0  0
   13.0711    2.2602    0.0000 H   0  0  0  0  0  0  0  0  0  0  0  0
   12.6693    2.9500    0.0000 H   0  0  0  0  0  0  0  0  0  0  0  0
    7.4516    2.9532    0.0000 H   0  0  0  0  0  0  0  0  0  0  0  0
    7.8501    2.2629    0.0000 H   0  0  0  0  0  0  0  0  0  0  0  0
    6.7942   -1.2664    0.0000 H   0  0  0  0  0  0  0  0  0  0  0  0
    6.1742   -1.8864    0.0000 H   0  0  0  0  0  0  0  0  0  0  0  0
    6.7942   -2.5064    0.0000 H   0  0  0  0  0  0  0  0  0  0  0  0
   11.1043   -2.4234    0.0000 H   0  0  0  0  0  0  0  0  0  0  0  0
    9.4842   -4.1555    0.0000 H   0  0  0  0  0  0  0  0  0  0  0  0
    7.1742   -3.6186    0.0000 H   0  0  0  0  0  0  0  0  0  0  0  0
    7.5252    4.1555    0.0000 H   0  0  0  0  0  0  0  0  0  0  0  0
   12.7824   -0.4866    0.0000 H   0  0  0  0  0  0  0  0  0  0  0  0
   14.1947    1.9380    0.0000 H   0  0  0  0  0  0  0  0  0  0  0  0
   15.5945    1.1226    0.0000 H   0  0  0  0  0  0  0  0  0  0  0  0
    6.3301    0.2255    0.0000 H   0  0  0  0  0  0  0  0  0  0  0  0
    5.4641    1.9655    0.0000 H   0  0  0  0  0  0  0  0  0  0  0  0
   14.7165   -1.9940    0.0000 H   0  0  0  0  0  0  0  0  0  0  0  0
   16.4548   -0.3807    0.0000 H   0  0  0  0  0  0  0  0  0  0  0  0
    3.7320    1.9655    0.0000 H   0  0  0  0  0  0  0  0  0  0  0  0
    5.1350   -0.4645    0.0000 H   0  0  0  0  0  0  0  0  0  0  0  0
    3.7320   -1.2745    0.0000 H   0  0  0  0  0  0  0  0  0  0  0  0
    2.0000    1.9655    0.0000 H   0  0  0  0  0  0  0  0  0  0  0  0
    2.0000   -1.2745    0.0000 H   0  0  0  0  0  0  0  0  0  0  0  0
 16  1  1  1  0  0  0
 21  1  1  1  0  0  0
  2 19  1  0  0  0  0
  2 20  1  0  0  0  0
  3 17  1  0  0  0  0
  3 23  1  0  0  0  0
  4 19  1  0  0  0  0
  4 27  1  0  0  0  0
  5 21  1  0  0  0  0
  5 26  1  0  0  0  0
 18  6  1  6  0  0  0
  6 31  1  0  0  0  0
 22  7  1  6  0  0  0
  7 63  1  0  0  0  0
 24  8  1  6  0  0  0
  8 64  1  0  0  0  0
 25  9  1  1  0  0  0
  9 65  1  0  0  0  0
 10 28  1  0  0  0  0
 10 66  1  0  0  0  0
 11 31  2  0  0  0  0
 12 34  1  0  0  0  0
 12 72  1  0  0  0  0
 13 37  1  0  0  0  0
 13 73  1  0  0  0  0
 14 42  1  0  0  0  0
 14 77  1  0  0  0  0
 15 44  1  0  0  0  0
 15 78  1  0  0  0  0
 16 17  1  0  0  0  0
 16 18  1  0  0  0  0
 16 45  1  0  0  0  0
 17 19  1  0  0  0  0
 17 46  1  1  0  0  0
 18 20  1  0  0  0  0
 18 47  1  0  0  0  0
 19 48  1  6  0  0  0
 20 28  1  1  0  0  0
 20 49  1  0  0  0  0
 21 22  1  0  0  0  0
 21 50  1  0  0  0  0
 22 24  1  0  0  0  0
 22 51  1  0  0  0  0
 23 27  1  0  0  0  0
 23 29  1  6  0  0  0
 23 52  1  0  0  0  0
 24 25  1  0  0  0  0
 24 53  1  0  0  0  0
 25 26  1  0  0  0  0
 25 54  1  0  0  0  0
 26 30  1  6  0  0  0
 26 55  1  0  0  0  0
 27 56  1  0  0  0  0
 27 57  1  0  0  0  0
 28 58  1  0  0  0  0
 28 59  1  0  0  0  0
 29 32  2  0  0  0  0
 29 33  1  0  0  0  0
 30 60  1  0  0  0  0
 30 61  1  0  0  0  0
 30 62  1  0  0  0  0
 31 36  1  0  0  0  0
 32 34  1  0  0  0  0
 32 67  1  0  0  0  0
 33 35  2  0  0  0  0
 33 68  1  0  0  0  0
 34 37  2  0  0  0  0
 35 37  1  0  0  0  0
 35 69  1  0  0  0  0
 36 38  2  0  0  0  0
 36 70  1  0  0  0  0
 38 39  1  0  0  0  0
 38 71  1  0  0  0  0
 39 40  2  0  0  0  0
 39 41  1  0  0  0  0
 40 42  1  0  0  0  0
 40 74  1  0  0  0  0
 41 43  2  0  0  0  0
 41 75  1  0  0  0  0
 42 44  2  0  0  0  0
 43 44  1  0  0  0  0
 43 76  1  0  0  0  0
M  END
> <PUBCHEM_COMPOUND_CID>
44593361

> <PUBCHEM_COMPOUND_CANONICALIZED>
1

> <PUBCHEM_CACTVS_COMPLEXITY>
982

> <PUBCHEM_CACTVS_HBOND_ACCEPTOR>
15

> <PUBCHEM_CACTVS_HBOND_DONOR>
8

> <PUBCHEM_CACTVS_ROTATABLE_BOND>
8

> <PUBCHEM_CACTVS_SUBSKEYS>
AAADcfB4PAAAAAAAAAAAAAAAAAAAAAAAAAA0aJECAAAAAACRQAAAGgAACAAADBSwmAMyDoAABgCIAiDSCAACAAAgIAAIiAAGiMgZNiKCMRqicAElwBEPuYfA4LwOIAABAAAAQABAAAIAAACAAAAAAAAAAA==

> <PUBCHEM_IUPAC_OPENEYE_NAME>
[(2S,4aR,6R,7R,8S,8aR)-2-(3,4-dihydroxyphenyl)-6-(hydroxymethyl)-8-[(2S,3R,4R,5R,6S)-3,4,5-trihydroxy-6-methyl-tetrahydropyran-2-yl]oxy-3,4a,6,7,8,8a-hexahydro-2H-pyrano[2,3-b][1,4]dioxin-7-yl] (E)-3-(3,4-dihydroxyphenyl)prop-2-enoate

> <PUBCHEM_IUPAC_CAS_NAME>
(E)-3-(3,4-dihydroxyphenyl)-2-propenoic acid [(2S,4aR,6R,7R,8S,8aR)-2-(3,4-dihydroxyphenyl)-6-(hydroxymethyl)-8-[[(2S,3R,4R,5R,6S)-3,4,5-trihydroxy-6-methyl-2-oxanyl]oxy]-3,4a,6,7,8,8a-hexahydro-2H-pyrano[2,3-b][1,4]dioxin-7-yl] ester

> <PUBCHEM_IUPAC_NAME>
[(2S,4aR,6R,7R,8S,8aR)-2-(3,4-dihydroxyphenyl)-6-(hydroxymethyl)-8-[(2S,3R,4R,5R,6S)-3,4,5-trihydroxy-6-methyloxan-2-yl]oxy-3,4a,6,7,8,8a-hexahydro-2H-pyrano[2,3-b][1,4]dioxin-7-yl] (E)-3-(3,4-dihydroxyphenyl)prop-2-enoate

> <PUBCHEM_IUPAC_SYSTEMATIC_NAME>
[(2S,4aR,6R,7R,8S,8aR)-2-[3,4-bis(oxidanyl)phenyl]-6-(hydroxymethyl)-8-[(2S,3R,4R,5R,6S)-6-methyl-3,4,5-tris(oxidanyl)oxan-2-yl]oxy-3,4a,6,7,8,8a-hexahydro-2H-pyrano[2,3-b][1,4]dioxin-7-yl] (E)-3-[3,4-bis(oxidanyl)phenyl]prop-2-enoate

> <PUBCHEM_IUPAC_TRADITIONAL_NAME>
(E)-3-(3,4-dihydroxyphenyl)acrylic acid [(2S,4aR,6R,7R,8S,8aR)-2-(3,4-dihydroxyphenyl)-6-methylol-8-[(2S,3R,4R,5R,6S)-3,4,5-trihydroxy-6-methyl-tetrahydropyran-2-yl]oxy-3,4a,6,7,8,8a-hexahydro-2H-pyrano[2,3-b][1,4]dioxin-7-yl] ester

> <PUBCHEM_IUPAC_INCHI>
InChI=1S/C29H34O15/c1-12-22(36)23(37)24(38)28(40-12)44-26-25(43-21(35)7-3-13-2-5-15(31)17(33)8-13)19(10-30)42-29-27(26)41-20(11-39-29)14-4-6-16(32)18(34)9-14/h2-9,12,19-20,22-34,36-38H,10-11H2,1H3/b7-3+/t12-,19+,20+,22-,23+,24+,25+,26-,27+,28-,29+/m0/s1

> <PUBCHEM_IUPAC_INCHIKEY>
FPOYEEKZOOLVJA-WLLRULDYSA-N

> <PUBCHEM_XLOGP3_AA>
-0.6

> <PUBCHEM_EXACT_MASS>
622.18977

> <PUBCHEM_MOLECULAR_FORMULA>
C29H34O15

> <PUBCHEM_MOLECULAR_WEIGHT>
622.57126

> <PUBCHEM_OPENEYE_CAN_SMILES>
CC1C(C(C(C(O1)OC2C3C(OCC(O3)C4=CC(=C(C=C4)O)O)OC(C2OC(=O)C=CC5=CC(=C(C=C5)O)O)CO)O)O)O

> <PUBCHEM_OPENEYE_ISO_SMILES>
C[C@H]1[C@@H]([C@H]([C@H]([C@@H](O1)O[C@@H]2[C@@H]3[C@H](OC[C@@H](O3)C4=CC(=C(C=C4)O)O)O[C@@H]([C@H]2OC(=O)/C=C/C5=CC(=C(C=C5)O)O)CO)O)O)O

> <PUBCHEM_CACTVS_TPSA>
234

> <PUBCHEM_MONOISOTOPIC_WEIGHT>
622.18977

> <PUBCHEM_TOTAL_CHARGE>
0

> <PUBCHEM_HEAVY_ATOM_COUNT>
44

> <PUBCHEM_ATOM_DEF_STEREO_COUNT>
11

> <PUBCHEM_ATOM_UDEF_STEREO_COUNT>
0

> <PUBCHEM_BOND_DEF_STEREO_COUNT>
1

> <PUBCHEM_BOND_UDEF_STEREO_COUNT>
0

> <PUBCHEM_ISOTOPIC_ATOM_COUNT>
0

> <PUBCHEM_COMPONENT_COUNT>
1

> <PUBCHEM_CACTVS_TAUTO_COUNT>
160

> <PUBCHEM_COORDINATE_TYPE>
1
5
255

> <PUBCHEM_BONDANNOTATIONS>
16  1  5
21  1  5
17  46  5
19  48  6
20  28  5
23  29  6
26  30  6
29  32  8
29  33  8
32  34  8
33  35  8
34  37  8
35  37  8
39  40  8
39  41  8
40  42  8
41  43  8
42  44  8
43  44  8
18  6  6
22  7  6
24  8  6
25  9  5

$$$$

