2735009
  -OEChem-07051213143D

 20 19  0     0  0  0  0  0  0999 V2000
   -0.7450    2.1748    0.0893 S   0  0  0  0  0  0  0  0  0  0  0  0
   -0.7980   -0.5132   -0.3674 N   0  0  0  0  0  0  0  0  0  0  0  0
    1.2792    0.4816    0.0766 N   0  0  0  0  0  0  0  0  0  0  0  0
   -2.2322   -0.6002   -0.5734 C   0  0  0  0  0  0  0  0  0  0  0  0
    2.0290   -0.7546   -0.0309 C   0  0  0  0  0  0  0  0  0  0  0  0
   -0.0849    0.6375   -0.0792 C   0  0  0  0  0  0  0  0  0  0  0  0
   -2.9610   -0.9036    0.7194 C   0  0  0  0  0  0  0  0  0  0  0  0
    3.5129   -0.5224    0.1656 C   0  0  0  0  0  0  0  0  0  0  0  0
   -2.6162    0.3166   -1.0294 H   0  0  0  0  0  0  0  0  0  0  0  0
   -2.3979   -1.4147   -1.2866 H   0  0  0  0  0  0  0  0  0  0  0  0
    1.6507   -1.4509    0.7250 H   0  0  0  0  0  0  0  0  0  0  0  0
    1.8433   -1.1853   -1.0205 H   0  0  0  0  0  0  0  0  0  0  0  0
   -0.2924   -1.3893   -0.4332 H   0  0  0  0  0  0  0  0  0  0  0  0
    1.8036    1.3245    0.2926 H   0  0  0  0  0  0  0  0  0  0  0  0
   -2.6015   -1.8394    1.1604 H   0  0  0  0  0  0  0  0  0  0  0  0
   -2.8115   -0.1107    1.4590 H   0  0  0  0  0  0  0  0  0  0  0  0
   -4.0355   -1.0024    0.5375 H   0  0  0  0  0  0  0  0  0  0  0  0
    3.9038    0.1723   -0.5854 H   0  0  0  0  0  0  0  0  0  0  0  0
    3.7154   -0.0943    1.1530 H   0  0  0  0  0  0  0  0  0  0  0  0
    4.0625   -1.4648    0.0808 H   0  0  0  0  0  0  0  0  0  0  0  0
  1  6  2  0  0  0  0
  2  4  1  0  0  0  0
  2  6  1  0  0  0  0
  2 13  1  0  0  0  0
  3  5  1  0  0  0  0
  3  6  1  0  0  0  0
  3 14  1  0  0  0  0
  4  7  1  0  0  0  0
  4  9  1  0  0  0  0
  4 10  1  0  0  0  0
  5  8  1  0  0  0  0
  5 11  1  0  0  0  0
  5 12  1  0  0  0  0
  7 15  1  0  0  0  0
  7 16  1  0  0  0  0
  7 17  1  0  0  0  0
  8 18  1  0  0  0  0
  8 19  1  0  0  0  0
  8 20  1  0  0  0  0
M  END
> <PUBCHEM_COMPOUND_CID>
2735009

> <PUBCHEM_CONFORMER_RMSD>
0.6

> <PUBCHEM_CONFORMER_DIVERSEORDER>
2
10
3
8
9
13
4
12
6
7
5
11
1

> <PUBCHEM_MMFF94_PARTIAL_CHARGES>
8
1 -0.38
13 0.37
14 0.37
2 -0.73
3 -0.73
4 0.3
5 0.3
6 0.5

> <PUBCHEM_EFFECTIVE_ROTOR_COUNT>
4

> <PUBCHEM_PHARMACOPHORE_FEATURES>
3
1 1 acceptor
1 2 donor
1 3 donor

> <PUBCHEM_HEAVY_ATOM_COUNT>
8

> <PUBCHEM_ATOM_DEF_STEREO_COUNT>
0

> <PUBCHEM_ATOM_UDEF_STEREO_COUNT>
0

> <PUBCHEM_BOND_DEF_STEREO_COUNT>
0

> <PUBCHEM_BOND_UDEF_STEREO_COUNT>
0

> <PUBCHEM_ISOTOPIC_ATOM_COUNT>
0

> <PUBCHEM_COMPONENT_COUNT>
1

> <PUBCHEM_CACTVS_TAUTO_COUNT>
2

> <PUBCHEM_CONFORMER_ID>
0029BBA100000002

> <PUBCHEM_MMFF94_ENERGY>
4.9367

> <PUBCHEM_FEATURE_SELFOVERLAP>
15.264

> <PUBCHEM_SHAPE_FINGERPRINT>
12932764 1 17531261586063073702
20711985 344 18127431122537890789
20871998 184 18187646963274789572
21040471 1 17759805140598696340
21293036 1 10663817460244888099
23552423 10 18272651272591613380
23552449 1 18263931101806932712
29004967 10 18341051800666234633

> <PUBCHEM_SHAPE_MULTIPOLES>
158.52
4.84
1.7
0.74
2.54
1.27
0.02
-2.55
0.65
-0.8
0.1
-0.3
-0.08
0.09

> <PUBCHEM_SHAPE_SELFOVERLAP>
271.617

> <PUBCHEM_SHAPE_VOLUME>
107.4

> <PUBCHEM_COORDINATE_TYPE>
2
5
10

$$$$

