5460448
  -OEChem-07051212443D

 24 24  0     1  0  0  0  0  0999 V2000
   -2.5747    0.2336    0.1464 P   0  0  0  0  0  0  0  0  0  0  0  0
    0.7215    0.7381    0.1003 O   0  0  0  0  0  0  0  0  0  0  0  0
   -1.2015   -0.6158    0.0757 O   0  0  0  0  0  0  0  0  0  0  0  0
    1.1924   -2.2151    0.9636 O   0  0  0  0  0  0  0  0  0  0  0  0
    3.1758    2.0538    0.2724 O   0  0  0  0  0  0  0  0  0  0  0  0
   -2.9545    0.4821   -1.4057 O   0  0  0  0  0  0  0  0  0  0  0  0
   -2.0691    1.6871    0.6429 O   0  0  0  0  0  0  0  0  0  0  0  0
   -3.6598   -0.3796    0.9822 O   0  0  0  0  0  0  0  0  0  0  0  0
    1.7429   -1.4030   -0.0710 C   0  0  2  0  0  0  0  0  0  0  0  0
    1.9278    0.0229    0.4313 C   0  0  1  0  0  0  0  0  0  0  0  0
    0.7374   -1.2461   -1.1917 C   0  0  0  0  0  0  0  0  0  0  0  0
   -0.1262   -0.0967   -0.6987 C   0  0  2  0  0  0  0  0  0  0  0  0
    3.0879    0.7388   -0.2475 C   0  0  0  0  0  0  0  0  0  0  0  0
    2.6714   -1.8784   -0.4013 H   0  0  0  0  0  0  0  0  0  0  0  0
    2.0386    0.0704    1.5204 H   0  0  0  0  0  0  0  0  0  0  0  0
    1.2605   -0.9442   -2.1063 H   0  0  0  0  0  0  0  0  0  0  0  0
    0.1599   -2.1548   -1.3853 H   0  0  0  0  0  0  0  0  0  0  0  0
   -0.5061    0.4871   -1.5421 H   0  0  0  0  0  0  0  0  0  0  0  0
    2.9296    0.8271   -1.3268 H   0  0  0  0  0  0  0  0  0  0  0  0
    4.0381    0.2255   -0.0709 H   0  0  0  0  0  0  0  0  0  0  0  0
    1.8474   -2.2542    1.6813 H   0  0  0  0  0  0  0  0  0  0  0  0
    3.3567    1.9833    1.2252 H   0  0  0  0  0  0  0  0  0  0  0  0
   -3.7986    0.9328   -1.6215 H   0  0  0  0  0  0  0  0  0  0  0  0
   -2.7359    2.3744    0.8556 H   0  0  0  0  0  0  0  0  0  0  0  0
  1  3  1  0  0  0  0
  1  6  1  0  0  0  0
  1  7  1  0  0  0  0
  1  8  2  0  0  0  0
  2 10  1  0  0  0  0
  2 12  1  0  0  0  0
  3 12  1  0  0  0  0
  4  9  1  0  0  0  0
  4 21  1  0  0  0  0
  5 13  1  0  0  0  0
  5 22  1  0  0  0  0
  6 23  1  0  0  0  0
  7 24  1  0  0  0  0
  9 10  1  0  0  0  0
  9 11  1  0  0  0  0
  9 14  1  0  0  0  0
 10 13  1  0  0  0  0
 10 15  1  0  0  0  0
 11 12  1  0  0  0  0
 11 16  1  0  0  0  0
 11 17  1  0  0  0  0
 12 18  1  0  0  0  0
 13 19  1  0  0  0  0
 13 20  1  0  0  0  0
M  END
> <PUBCHEM_COMPOUND_CID>
5460448

> <PUBCHEM_CONFORMER_RMSD>
0.6

> <PUBCHEM_CONFORMER_DIVERSEORDER>
1
7
4
6
3
5
2

> <PUBCHEM_MMFF94_PARTIAL_CHARGES>
16
1 1.51
10 0.28
12 0.56
13 0.28
2 -0.56
21 0.4
22 0.4
23 0.5
24 0.5
3 -0.55
4 -0.68
5 -0.68
6 -0.77
7 -0.77
8 -0.7
9 0.28

> <PUBCHEM_EFFECTIVE_ROTOR_COUNT>
4

> <PUBCHEM_PHARMACOPHORE_FEATURES>
10
1 2 acceptor
1 4 acceptor
1 4 donor
1 5 acceptor
1 5 donor
1 6 acceptor
1 7 acceptor
1 8 acceptor
4 1 6 7 8 anion
5 2 9 10 11 12 rings

> <PUBCHEM_HEAVY_ATOM_COUNT>
13

> <PUBCHEM_ATOM_DEF_STEREO_COUNT>
3

> <PUBCHEM_ATOM_UDEF_STEREO_COUNT>
0

> <PUBCHEM_BOND_DEF_STEREO_COUNT>
0

> <PUBCHEM_BOND_UDEF_STEREO_COUNT>
0

> <PUBCHEM_ISOTOPIC_ATOM_COUNT>
0

> <PUBCHEM_COMPONENT_COUNT>
1

> <PUBCHEM_CACTVS_TAUTO_COUNT>
1

> <PUBCHEM_CONFORMER_ID>
005351E000000001

> <PUBCHEM_MMFF94_ENERGY>
-7.2547

> <PUBCHEM_FEATURE_SELFOVERLAP>
50.785

> <PUBCHEM_SHAPE_FINGERPRINT>
10922049 32 18338223874350972526
12932764 1 18200586020759053951
15775835 57 17894627024331056081
16945 1 18333453144621194390
170605 34 18334570231186489310
18186145 218 18261670377235621492
19973954 147 18116989090668236145
201361 129 18337382842096812504
20279233 1 17775287188046721055
20645477 70 18337679732059685087
20653085 51 17896872163140867652
20653091 64 18265892651919914954
20715346 28 17846216695849607263
21524375 3 18263086531021609220
230 275 18334583459733175416
23557571 272 17275102855839012629
3248919 1 18041286585698710351

> <PUBCHEM_SHAPE_MULTIPOLES>
230.3
5.32
1.79
1.04
2.47
0.01
0.18
2
-0.53
-1.3
-0.33
0.45
-0.24
0.01

> <PUBCHEM_SHAPE_SELFOVERLAP>
444.788

> <PUBCHEM_SHAPE_VOLUME>
141.1

> <PUBCHEM_COORDINATE_TYPE>
2
5
10

$$$$

