54704425
  -OEChem-07051213023D

 30 31  0     0  0  0  0  0  0999 V2000
    1.7937    0.9057   -0.0811 O   0  0  0  0  0  0  0  0  0  0  0  0
    4.5087   -2.2149    0.1954 O   0  0  0  0  0  0  0  0  0  0  0  0
    3.4562    2.4337   -0.2031 O   0  0  0  0  0  0  0  0  0  0  0  0
   -6.4958   -0.2338    0.0197 O   0  0  0  0  0  0  0  0  0  0  0  0
    4.1224    0.1619   -0.0060 C   0  0  0  0  0  0  0  0  0  0  0  0
    1.4013   -0.4444    0.0307 C   0  0  0  0  0  0  0  0  0  0  0  0
    3.6985   -1.1075    0.0987 C   0  0  0  0  0  0  0  0  0  0  0  0
   -2.3685    0.2051   -0.0199 C   0  0  0  0  0  0  0  0  0  0  0  0
    2.2977   -1.4324    0.1184 C   0  0  0  0  0  0  0  0  0  0  0  0
   -0.0189   -0.6459    0.0403 C   0  0  0  0  0  0  0  0  0  0  0  0
   -0.9035    0.3611   -0.0359 C   0  0  0  0  0  0  0  0  0  0  0  0
    3.1170    1.2582   -0.1045 C   0  0  0  0  0  0  0  0  0  0  0  0
    5.5555    0.6128   -0.0352 C   0  0  0  0  0  0  0  0  0  0  0  0
   -2.9421   -1.0264   -0.3367 C   0  0  0  0  0  0  0  0  0  0  0  0
   -3.1818    1.2889    0.3107 C   0  0  0  0  0  0  0  0  0  0  0  0
   -4.3290   -1.1739   -0.3231 C   0  0  0  0  0  0  0  0  0  0  0  0
   -4.5688    1.1415    0.3242 C   0  0  0  0  0  0  0  0  0  0  0  0
   -5.1424   -0.0898    0.0073 C   0  0  0  0  0  0  0  0  0  0  0  0
    1.9841   -2.4678    0.2038 H   0  0  0  0  0  0  0  0  0  0  0  0
   -0.3463   -1.6769    0.1374 H   0  0  0  0  0  0  0  0  0  0  0  0
   -0.5665    1.3930   -0.1061 H   0  0  0  0  0  0  0  0  0  0  0  0
    5.7744    1.1366   -0.9715 H   0  0  0  0  0  0  0  0  0  0  0  0
    6.2483   -0.2314    0.0409 H   0  0  0  0  0  0  0  0  0  0  0  0
    5.7632    1.2871    0.8022 H   0  0  0  0  0  0  0  0  0  0  0  0
   -2.3505   -1.8916   -0.6206 H   0  0  0  0  0  0  0  0  0  0  0  0
   -2.7524    2.2558    0.5616 H   0  0  0  0  0  0  0  0  0  0  0  0
   -4.7709   -2.1340   -0.5754 H   0  0  0  0  0  0  0  0  0  0  0  0
   -5.1915    1.9935    0.5835 H   0  0  0  0  0  0  0  0  0  0  0  0
    3.9682   -3.0199    0.2602 H   0  0  0  0  0  0  0  0  0  0  0  0
   -6.9006    0.6147    0.2691 H   0  0  0  0  0  0  0  0  0  0  0  0
  1  6  1  0  0  0  0
  1 12  1  0  0  0  0
  2  7  1  0  0  0  0
  2 29  1  0  0  0  0
  3 12  2  0  0  0  0
  4 18  1  0  0  0  0
  4 30  1  0  0  0  0
  5  7  2  0  0  0  0
  5 12  1  0  0  0  0
  5 13  1  0  0  0  0
  6  9  2  0  0  0  0
  6 10  1  0  0  0  0
  7  9  1  0  0  0  0
  8 11  1  0  0  0  0
  8 14  2  0  0  0  0
  8 15  1  0  0  0  0
  9 19  1  0  0  0  0
 10 11  2  0  0  0  0
 10 20  1  0  0  0  0
 11 21  1  0  0  0  0
 13 22  1  0  0  0  0
 13 23  1  0  0  0  0
 13 24  1  0  0  0  0
 14 16  1  0  0  0  0
 14 25  1  0  0  0  0
 15 17  2  0  0  0  0
 15 26  1  0  0  0  0
 16 18  2  0  0  0  0
 16 27  1  0  0  0  0
 17 18  1  0  0  0  0
 17 28  1  0  0  0  0
M  END
> <PUBCHEM_COMPOUND_CID>
54704425

> <PUBCHEM_CONFORMER_RMSD>
0.6

> <PUBCHEM_CONFORMER_DIVERSEORDER>
1
3
2

> <PUBCHEM_MMFF94_PARTIAL_CHARGES>
27
1 -0.23
10 -0.15
11 -0.18
12 0.71
13 0.14
14 -0.15
15 -0.15
16 -0.15
17 -0.15
18 0.08
19 0.15
2 -0.53
20 0.15
21 0.15
25 0.15
26 0.15
27 0.15
28 0.15
29 0.45
3 -0.57
30 0.45
4 -0.53
5 -0.12
6 0.08
7 0.08
8 0.03
9 -0.15

> <PUBCHEM_EFFECTIVE_ROTOR_COUNT>
2

> <PUBCHEM_PHARMACOPHORE_FEATURES>
5
1 2 donor
1 3 acceptor
1 4 donor
6 1 5 6 7 9 12 rings
6 8 14 15 16 17 18 rings

> <PUBCHEM_HEAVY_ATOM_COUNT>
18

> <PUBCHEM_ATOM_DEF_STEREO_COUNT>
0

> <PUBCHEM_ATOM_UDEF_STEREO_COUNT>
0

> <PUBCHEM_BOND_DEF_STEREO_COUNT>
1

> <PUBCHEM_BOND_UDEF_STEREO_COUNT>
0

> <PUBCHEM_ISOTOPIC_ATOM_COUNT>
0

> <PUBCHEM_COMPONENT_COUNT>
1

> <PUBCHEM_CACTVS_TAUTO_COUNT>
17

> <PUBCHEM_CONFORMER_ID>
0342B92900000001

> <PUBCHEM_MMFF94_ENERGY>
49.9933

> <PUBCHEM_FEATURE_SELFOVERLAP>
25.371

> <PUBCHEM_SHAPE_FINGERPRINT>
10354089 29 18410292506444262596
10595046 47 18336265652441733149
10912923 1 18114178640437478803
10937287 8 17123088522911443132
11287383 113 18343581820103613299
11471102 20 18413107277770569202
12107183 9 17760364796222213169
12236239 1 18186238445908751827
13167372 99 18262233438900598601
13167823 11 18410013243101701607
13533116 47 18341615944562983875
1420 363 17988917873702488075
14251764 18 18343869909899522600
14341114 176 18410006658684494431
14528608 73 18337670823854167484
15196674 1 18410293648420442073
15250474 111 18261689094387340279
17834072 33 18408605851053824175
17844677 252 18337383941603334161
18186145 218 17775289369415425243
18681886 176 18113622253457849250
200 152 18260550030573526659
20645477 70 18337953493164472406
21033648 29 17203061719862737485
21065198 48 18335980960502875929
21267235 1 18409440405922405959
23402539 116 18259991456906924037
23402655 69 18408041810194501494
23557571 272 13912313603562500882
23559900 14 18410296869640425217
29717793 49 18186804711998919215
300161 21 18408611356980325495
3004659 81 18409164454743220822
34797466 226 17458618982523827284
351380 180 18413389838767383393
3545911 37 18410573972308838221
4073 2 18059850623762844050
4214541 1 18409730703157587953
42630746 31 18410575081122511646
42788 4 18410012147979694347
4325135 7 18335702728337120215
474 4 17988358161616577932
5104073 3 18409729577533201003
522135 26 18413107269096271086
542803 24 17632855330476335565
54446538 1 18408323280802800993
7495541 125 17676493808921991819
77779 3 18410011035504010915
8272917 22 18408318913142788598
9709674 26 18409441501187123935
9971528 1 17918272056414857844
9981440 41 17404583268950360657

> <PUBCHEM_SHAPE_MULTIPOLES>
346.95
13.96
1.77
0.63
6.37
0.15
0
0.11
-0.13
-1.65
0
0.07
0
-0.6

> <PUBCHEM_SHAPE_SELFOVERLAP>
745.609

> <PUBCHEM_SHAPE_VOLUME>
190.5

> <PUBCHEM_COORDINATE_TYPE>
2
5
10

$$$$

