23724745
  -OEChem-07051213083D

 54 56  0     1  0  0  0  0  0999 V2000
    3.5926   -0.7891    0.4571 O   0  0  0  0  0  0  0  0  0  0  0  0
    6.0486   -3.3822   -0.3533 O   0  0  0  0  0  0  0  0  0  0  0  0
    7.6777   -1.0413    0.1179 O   0  0  0  0  0  0  0  0  0  0  0  0
    3.6520    1.5400    0.3299 O   0  0  0  0  0  0  0  0  0  0  0  0
    6.2628    1.3923   -0.7519 O   0  0  0  0  0  0  0  0  0  0  0  0
    1.8990   -2.9518    0.3544 O   0  0  0  0  0  0  0  0  0  0  0  0
   -0.2451    1.9018   -2.3860 O   0  0  0  0  0  0  0  0  0  0  0  0
   -0.5917    2.1938    2.3919 O   0  0  0  0  0  0  0  0  0  0  0  0
   -2.3893    3.3635   -0.1941 O   0  0  0  0  0  0  0  0  0  0  0  0
   -8.5691   -0.6339    0.5100 O   0  0  0  0  0  0  0  0  0  0  0  0
   -7.6797   -3.1893   -0.1232 O   0  0  0  0  0  0  0  0  0  0  0  0
    5.5705   -2.1711    0.2260 C   0  0  1  0  0  0  0  0  0  0  0  0
    6.3359   -0.9892   -0.3694 C   0  0  1  0  0  0  0  0  0  0  0  0
    4.0701   -2.0384   -0.0452 C   0  0  1  0  0  0  0  0  0  0  0  0
    5.6996    0.3413    0.0328 C   0  0  2  0  0  0  0  0  0  0  0  0
    4.1887    0.3277   -0.1988 C   0  0  1  0  0  0  0  0  0  0  0  0
    3.2726   -3.1442    0.6391 C   0  0  0  0  0  0  0  0  0  0  0  0
    2.2991    1.7094    0.2210 C   0  0  0  0  0  0  0  0  0  0  0  0
    1.5285    1.8675    1.3688 C   0  0  0  0  0  0  0  0  0  0  0  0
    1.7035    1.7216   -1.0365 C   0  0  0  0  0  0  0  0  0  0  0  0
    0.3237    1.8933   -1.1473 C   0  0  0  0  0  0  0  0  0  0  0  0
    0.1487    2.0392    1.2580 C   0  0  0  0  0  0  0  0  0  0  0  0
   -0.4538    2.0519    0.0000 C   0  0  0  0  0  0  0  0  0  0  0  0
   -1.8966    2.2302   -0.1157 C   0  0  0  0  0  0  0  0  0  0  0  0
   -2.7715    1.0106   -0.1059 C   0  0  0  0  0  0  0  0  0  0  0  0
   -4.1052    1.1295   -0.1823 C   0  0  0  0  0  0  0  0  0  0  0  0
   -5.0471   -0.0036   -0.1652 C   0  0  0  0  0  0  0  0  0  0  0  0
   -6.3732    0.2216    0.1669 C   0  0  0  0  0  0  0  0  0  0  0  0
   -4.5882   -1.2718   -0.4819 C   0  0  0  0  0  0  0  0  0  0  0  0
   -7.2649   -0.8510    0.1825 C   0  0  0  0  0  0  0  0  0  0  0  0
   -5.4799   -2.3443   -0.4658 C   0  0  0  0  0  0  0  0  0  0  0  0
   -6.8183   -2.1340   -0.1337 C   0  0  0  0  0  0  0  0  0  0  0  0
    5.7641   -2.2246    1.3043 H   0  0  0  0  0  0  0  0  0  0  0  0
    6.3997   -1.0720   -1.4614 H   0  0  0  0  0  0  0  0  0  0  0  0
    3.8581   -2.0847   -1.1221 H   0  0  0  0  0  0  0  0  0  0  0  0
    5.9283    0.5704    1.0805 H   0  0  0  0  0  0  0  0  0  0  0  0
    3.9837    0.2797   -1.2763 H   0  0  0  0  0  0  0  0  0  0  0  0
    3.5635   -4.1354    0.2797 H   0  0  0  0  0  0  0  0  0  0  0  0
    3.3957   -3.1128    1.7268 H   0  0  0  0  0  0  0  0  0  0  0  0
    8.0485   -1.9022   -0.1418 H   0  0  0  0  0  0  0  0  0  0  0  0
    5.8744   -3.3471   -1.3093 H   0  0  0  0  0  0  0  0  0  0  0  0
    6.0719    1.2062   -1.6871 H   0  0  0  0  0  0  0  0  0  0  0  0
    1.6540   -2.0654    0.6711 H   0  0  0  0  0  0  0  0  0  0  0  0
    2.0002    1.8564    2.3480 H   0  0  0  0  0  0  0  0  0  0  0  0
    2.3074    1.6168   -1.9337 H   0  0  0  0  0  0  0  0  0  0  0  0
    0.4484    1.7756   -3.0561 H   0  0  0  0  0  0  0  0  0  0  0  0
   -1.5263    2.3391    2.1743 H   0  0  0  0  0  0  0  0  0  0  0  0
   -2.2583    0.0608   -0.0097 H   0  0  0  0  0  0  0  0  0  0  0  0
   -4.5631    2.1135   -0.2505 H   0  0  0  0  0  0  0  0  0  0  0  0
   -6.7227    1.2208    0.4155 H   0  0  0  0  0  0  0  0  0  0  0  0
   -3.5618   -1.4787   -0.7675 H   0  0  0  0  0  0  0  0  0  0  0  0
   -5.1202   -3.3381   -0.7192 H   0  0  0  0  0  0  0  0  0  0  0  0
   -8.6958    0.3118    0.6984 H   0  0  0  0  0  0  0  0  0  0  0  0
   -7.1948   -3.9963   -0.3672 H   0  0  0  0  0  0  0  0  0  0  0  0
  1 14  1  0  0  0  0
  1 16  1  0  0  0  0
  2 12  1  0  0  0  0
  2 41  1  0  0  0  0
  3 13  1  0  0  0  0
  3 40  1  0  0  0  0
  4 16  1  0  0  0  0
  4 18  1  0  0  0  0
  5 15  1  0  0  0  0
  5 42  1  0  0  0  0
  6 17  1  0  0  0  0
  6 43  1  0  0  0  0
  7 21  1  0  0  0  0
  7 46  1  0  0  0  0
  8 22  1  0  0  0  0
  8 47  1  0  0  0  0
  9 24  2  0  0  0  0
 10 30  1  0  0  0  0
 10 53  1  0  0  0  0
 11 32  1  0  0  0  0
 11 54  1  0  0  0  0
 12 13  1  0  0  0  0
 12 14  1  0  0  0  0
 12 33  1  0  0  0  0
 13 15  1  0  0  0  0
 13 34  1  0  0  0  0
 14 17  1  0  0  0  0
 14 35  1  0  0  0  0
 15 16  1  0  0  0  0
 15 36  1  0  0  0  0
 16 37  1  0  0  0  0
 17 38  1  0  0  0  0
 17 39  1  0  0  0  0
 18 19  2  0  0  0  0
 18 20  1  0  0  0  0
 19 22  1  0  0  0  0
 19 44  1  0  0  0  0
 20 21  2  0  0  0  0
 20 45  1  0  0  0  0
 21 23  1  0  0  0  0
 22 23  2  0  0  0  0
 23 24  1  0  0  0  0
 24 25  1  0  0  0  0
 25 26  2  0  0  0  0
 25 48  1  0  0  0  0
 26 27  1  0  0  0  0
 26 49  1  0  0  0  0
 27 28  2  0  0  0  0
 27 29  1  0  0  0  0
 28 30  1  0  0  0  0
 28 50  1  0  0  0  0
 29 31  2  0  0  0  0
 29 51  1  0  0  0  0
 30 32  2  0  0  0  0
 31 32  1  0  0  0  0
 31 52  1  0  0  0  0
M  END
> <PUBCHEM_COMPOUND_CID>
23724745

> <PUBCHEM_CONFORMER_RMSD>
1

> <PUBCHEM_CONFORMER_DIVERSEORDER>
1
37
275
38
227
266
336
198
288
22
219
329
23
53
285
32
179
145
36
62
247
298
177
241
2
98
231
280
40
291
160
283
223
24
69
78
100
262
133
235
230
60
308
328
17
248
20
215
206
313
134
178
6
82
25
49
191
276
208
292
255
130
333
35
139
148
154
111
306
68
184
140
253
282
300
76
84
273
158
197
252
80
326
245
147
34
176
4
92
204
113
52
15
199
109
320
220
96
207
274
28
203
7
107
322
12
119
5
318
169
307
19
142
200
171
270
286
205
64
311
3
110
314
161
101
265
14
99
272
42
117
21
246
294
122
256
195
212
61
175
263
167
116
152
284
112
95
90
295
30
228
250
163
315
104
91
131
57
180
33
281
249
324
39
87
70
135
103
105
335
312
213
182
271
217
97
303
299
251
254
310
54
71
201
237
83
136
45
278
305
41
188
50
279
8
229
269
11
243
186
81
153
238
185
29
16
144
257
58
51
304
59
129
114
13
221
127
86
327
55
234
260
302
66
159
296
132
321
88
222
10
301
239
209
9
149
74
128
277
106
141
319
323
240
155
309
317
268
210
194
118
146
124
123
331
264
225
121
138
267
126
172
150
173
334
65
73
77
166
89
190
258
316
75
31
156
211
102
325
165
218
181
189
143
93
48
79
125
297
157
293
120
43
259
290
233
47
332
196
44
168
224
330
137
242
115
202
183
67
289
192
287
261
214
63
174
187
27
236
94
108
85
216
72
151
46
193
170
226
26
18
56
164
162
244
232

> <PUBCHEM_MMFF94_PARTIAL_CHARGES>
47
1 -0.56
10 -0.53
11 -0.53
12 0.28
13 0.28
14 0.28
15 0.28
16 0.56
17 0.28
18 0.08
19 -0.15
2 -0.68
20 -0.15
21 0.08
22 0.08
23 0.09
24 0.47
25 -0.14
26 -0.18
27 0.03
28 -0.15
29 -0.15
3 -0.68
30 0.08
31 -0.15
32 0.08
4 -0.36
40 0.4
41 0.4
42 0.4
43 0.4
44 0.15
45 0.15
46 0.45
47 0.45
48 0.15
49 0.15
5 -0.68
50 0.15
51 0.15
52 0.15
53 0.45
54 0.45
6 -0.68
7 -0.53
8 -0.53
9 -0.57

> <PUBCHEM_EFFECTIVE_ROTOR_COUNT>
7.2

> <PUBCHEM_PHARMACOPHORE_FEATURES>
18
1 1 acceptor
1 10 donor
1 11 donor
1 2 acceptor
1 2 donor
1 3 acceptor
1 3 donor
1 4 acceptor
1 5 acceptor
1 5 donor
1 6 acceptor
1 6 donor
1 7 donor
1 8 donor
1 9 acceptor
6 1 12 13 14 15 16 rings
6 18 19 20 21 22 23 rings
6 27 28 29 30 31 32 rings

> <PUBCHEM_HEAVY_ATOM_COUNT>
32

> <PUBCHEM_ATOM_DEF_STEREO_COUNT>
5

> <PUBCHEM_ATOM_UDEF_STEREO_COUNT>
0

> <PUBCHEM_BOND_DEF_STEREO_COUNT>
1

> <PUBCHEM_BOND_UDEF_STEREO_COUNT>
0

> <PUBCHEM_ISOTOPIC_ATOM_COUNT>
0

> <PUBCHEM_COMPONENT_COUNT>
1

> <PUBCHEM_CACTVS_TAUTO_COUNT>
106

> <PUBCHEM_CONFORMER_ID>
016A02C900000001

> <PUBCHEM_MMFF94_ENERGY>
107.0322

> <PUBCHEM_FEATURE_SELFOVERLAP>
91.404

> <PUBCHEM_SHAPE_FINGERPRINT>
10939801 23 18261393283104252684
11409948 8 18261406521111266424
11443803 9 17987235531420037892
11456790 92 17386552580916315507
11497681 19 18412823612450286876
11578080 2 12822145527675228950
117089 54 18055626227903231339
11796584 16 18263081179102494677
12633257 1 16588309328798490581
13248334 5 17977666412202751385
1361 2 18201996591536443812
1361 4 18410574002690386758
13690498 29 18273220828616621613
13782708 43 18410859884013470720
14068700 675 18409165515157356360
14420673 8 18409729526995899443
15238133 3 7565048502898743240
15352257 5 18412263926455829627
15475509 35 18260554411450958736
15721738 202 18260550051985313418
17134984 74 17989489623764564826
20028762 73 18264489662921404190
20567600 247 18412262822585762353
20721686 56 18342454825228614867
20775530 9 18339377343542280703
21033648 29 14562798989924580897
21133410 62 18130527274784866031
21197605 99 18409167710682177526
23522609 53 18121465099432030737
23559900 14 18410584993406819297
23569917 315 18265612269036970530
25269216 80 16487253288462199247
2748736 6 9583522001651353479
2838139 119 9943515311003402121
3004659 81 18059861619322206905
33382 64 18410012143331760609
3610482 184 15050907437326858021
4107672 100 18059862809487422261
437795 51 17894922798282706256
439807 62 18411418423420139667
44880168 125 16877663495616321998
46194498 28 17489591112671270197
463206 1 18337111146966772211
465052 167 18113335288938467148
5104073 3 17603866702279299649
5718773 13 18410013221816431535
636775 8 18114735028271573078
6697151 62 17604451647224668537
7970288 3 18267587914830976927

> <PUBCHEM_SHAPE_MULTIPOLES>
593.98
22.08
4.09
1.15
17.97
1.82
0.06
20.51
-0.54
-0.76
0.17
-0.17
-0.88
-0.47

> <PUBCHEM_SHAPE_SELFOVERLAP>
1278.843

> <PUBCHEM_SHAPE_VOLUME>
324

> <PUBCHEM_COORDINATE_TYPE>
2
5
10

$$$$

