17396285
  -OEChem-06241222553D

 38 40  0     1  0  0  0  0  0999 V2000
   -1.0475    3.0259   -0.7441 S   0  0  0  0  0  0  0  0  0  0  0  0
   -3.6133   -0.7999    1.9562 S   0  0  0  0  0  0  0  0  0  0  0  0
    2.3142    2.8146   -0.3135 O   0  0  0  0  0  0  0  0  0  0  0  0
   -1.8049   -1.5083   -2.5699 O   0  0  0  0  0  0  0  0  0  0  0  0
    1.2237    0.9125    0.5235 N   0  0  0  0  0  0  0  0  0  0  0  0
   -1.5159    0.5798   -1.6010 N   0  0  0  0  0  0  0  0  0  0  0  0
   -2.3201    1.1153    0.5854 N   0  0  0  0  0  0  0  0  0  0  0  0
    0.1152    3.0527    0.6365 C   0  0  1  0  0  0  0  0  0  0  0  0
    1.3516    2.2643    0.2145 C   0  0  0  0  0  0  0  0  0  0  0  0
    2.1611   -0.1204    0.2842 C   0  0  0  0  0  0  0  0  0  0  0  0
    0.4574    4.4950    0.9879 C   0  0  0  0  0  0  0  0  0  0  0  0
   -1.7105    1.4280   -0.5181 C   0  0  0  0  0  0  0  0  0  0  0  0
   -2.6514   -1.1121   -0.4007 C   0  0  0  0  0  0  0  0  0  0  0  0
   -2.7783   -0.1687    0.6051 C   0  0  0  0  0  0  0  0  0  0  0  0
   -1.9645   -0.7401   -1.6277 C   0  0  0  0  0  0  0  0  0  0  0  0
    1.8678   -1.4308    0.6615 C   0  0  0  0  0  0  0  0  0  0  0  0
    2.7924   -2.4480    0.4253 C   0  0  0  0  0  0  0  0  0  0  0  0
    3.3789    0.1727   -0.3294 C   0  0  0  0  0  0  0  0  0  0  0  0
   -3.2444   -2.3586   -0.0543 C   0  0  0  0  0  0  0  0  0  0  0  0
    4.0103   -2.1550   -0.1883 C   0  0  0  0  0  0  0  0  0  0  0  0
    4.3036   -0.8445   -0.5657 C   0  0  0  0  0  0  0  0  0  0  0  0
   -3.8047   -2.3256    1.2037 C   0  0  0  0  0  0  0  0  0  0  0  0
    2.4792   -3.8489    0.8290 C   0  0  0  0  0  0  0  0  0  0  0  0
   -0.3316    2.5965    1.5268 H   0  0  0  0  0  0  0  0  0  0  0  0
    0.8990    5.0358    0.1426 H   0  0  0  0  0  0  0  0  0  0  0  0
   -0.4288    5.0450    1.3232 H   0  0  0  0  0  0  0  0  0  0  0  0
    1.1905    4.5224    1.8023 H   0  0  0  0  0  0  0  0  0  0  0  0
    0.3651    0.6111    0.9785 H   0  0  0  0  0  0  0  0  0  0  0  0
   -1.0212    0.9376   -2.4126 H   0  0  0  0  0  0  0  0  0  0  0  0
    0.9184   -1.6601    1.1405 H   0  0  0  0  0  0  0  0  0  0  0  0
    3.6782    1.1599   -0.6514 H   0  0  0  0  0  0  0  0  0  0  0  0
   -3.2626   -3.2356   -0.6885 H   0  0  0  0  0  0  0  0  0  0  0  0
    4.7398   -2.9383   -0.3762 H   0  0  0  0  0  0  0  0  0  0  0  0
    5.2524   -0.6176   -1.0435 H   0  0  0  0  0  0  0  0  0  0  0  0
   -4.3180   -3.1260    1.7175 H   0  0  0  0  0  0  0  0  0  0  0  0
    2.7894   -4.0197    1.8647 H   0  0  0  0  0  0  0  0  0  0  0  0
    1.4061   -4.0523    0.7449 H   0  0  0  0  0  0  0  0  0  0  0  0
    2.9931   -4.5715    0.1860 H   0  0  0  0  0  0  0  0  0  0  0  0
  1  8  1  0  0  0  0
  1 12  1  0  0  0  0
  2 14  1  0  0  0  0
  2 22  1  0  0  0  0
  3  9  2  0  0  0  0
  4 15  2  0  0  0  0
  5  9  1  0  0  0  0
  5 10  1  0  0  0  0
  5 28  1  0  0  0  0
  6 12  1  0  0  0  0
  6 15  1  0  0  0  0
  6 29  1  0  0  0  0
  7 12  2  0  0  0  0
  7 14  1  0  0  0  0
  8  9  1  0  0  0  0
  8 11  1  0  0  0  0
  8 24  1  0  0  0  0
 10 16  1  0  0  0  0
 10 18  2  0  0  0  0
 11 25  1  0  0  0  0
 11 26  1  0  0  0  0
 11 27  1  0  0  0  0
 13 14  2  0  0  0  0
 13 15  1  0  0  0  0
 13 19  1  0  0  0  0
 16 17  2  0  0  0  0
 16 30  1  0  0  0  0
 17 20  1  0  0  0  0
 17 23  1  0  0  0  0
 18 21  1  0  0  0  0
 18 31  1  0  0  0  0
 19 22  2  0  0  0  0
 19 32  1  0  0  0  0
 20 21  2  0  0  0  0
 20 33  1  0  0  0  0
 21 34  1  0  0  0  0
 22 35  1  0  0  0  0
 23 36  1  0  0  0  0
 23 37  1  0  0  0  0
 23 38  1  0  0  0  0
M  END
> <PUBCHEM_COMPOUND_CID>
17396285

> <PUBCHEM_CONFORMER_RMSD>
0.8

> <PUBCHEM_CONFORMER_DIVERSEORDER>
1
235
69
35
97
67
80
231
21
76
136
245
11
106
127
130
54
36
255
216
145
93
205
31
120
51
116
107
65
132
100
153
58
134
113
24
222
103
174
99
151
170
74
5
219
221
234
48
52
171
129
79
183
249
68
4
86
166
14
81
149
248
18
233
154
238
186
96
28
253
119
239
210
184
162
138
212
95
64
78
215
147
258
61
150
12
23
49
101
240
15
185
229
109
156
53
90
190
218
71
182
191
217
16
128
206
60
47
252
188
172
198
192
42
161
111
40
41
117
9
38
141
144
177
160
224
26
131
207
6
140
139
2
59
187
104
159
257
110
115
176
33
8
201
84
55
227
225
39
66
178
22
105
89
30
10
70
123
209
180
195
228
241
34
50
92
181
213
237
197
91
83
112
3
137
7
246
167
196
118
208
254
211
88
230
44
236
232
13
63
37
121
135
82
56
256
94
163
124
165
168
175
77
72
204
199
43
203
169
152
27
29
114
25
87
45
220
189
223
57
247
251
108
158
62
143
243
200
46
122
85
98
125
155
193
173
75
157
126
226
20
244
202
194
19
146
242
179
32
142
250
148
133
164
102
214
73
17

> <PUBCHEM_MMFF94_PARTIAL_CHARGES>
30
1 -0.37
10 0.12
12 0.65
13 -0.09
14 0.17
15 0.72
16 -0.15
17 -0.14
18 -0.15
19 -0.15
2 -0.08
20 -0.15
21 -0.15
22 -0.11
23 0.14
28 0.37
29 0.37
3 -0.57
30 0.15
31 0.15
32 0.15
33 0.15
34 0.15
35 0.15
4 -0.57
5 -0.55
6 -0.49
7 -0.58
8 0.29
9 0.57

> <PUBCHEM_EFFECTIVE_ROTOR_COUNT>
5

> <PUBCHEM_PHARMACOPHORE_FEATURES>
8
1 11 hydrophobe
1 3 acceptor
1 4 acceptor
1 5 donor
1 6 donor
5 2 13 14 19 22 rings
6 10 16 17 18 20 21 rings
6 6 7 12 13 14 15 rings

> <PUBCHEM_HEAVY_ATOM_COUNT>
23

> <PUBCHEM_ATOM_DEF_STEREO_COUNT>
0

> <PUBCHEM_ATOM_UDEF_STEREO_COUNT>
1

> <PUBCHEM_BOND_DEF_STEREO_COUNT>
0

> <PUBCHEM_BOND_UDEF_STEREO_COUNT>
0

> <PUBCHEM_ISOTOPIC_ATOM_COUNT>
0

> <PUBCHEM_COMPONENT_COUNT>
1

> <PUBCHEM_CACTVS_TAUTO_COUNT>
8

> <PUBCHEM_CONFORMER_ID>
0109723D00000001

> <PUBCHEM_MMFF94_ENERGY>
52.5557

> <PUBCHEM_FEATURE_SELFOVERLAP>
40.676

> <PUBCHEM_SHAPE_FINGERPRINT>
10064457 181 17186710624832633321
10616163 171 18121778589347263878
107951 10 17112398473321521655
114674 6 18126004862493188034
11578080 2 17605302655769602601
11582403 64 5183230184760896467
11640471 11 12535088432776222247
12156800 1 16111130327027685707
12539773 59 17821721707160857691
12553582 1 18410015463557530778
12633257 1 18262498382563835955
12788726 201 17976552924249143145
13533116 47 18121491363884234355
13583140 156 17975969874681888553
14081887 123 17974034983056288968
14251757 5 18124592239354589076
17859628 97 16825872374779421792
19930381 70 18196931076494066347
20291156 8 18409163324802565362
21427221 339 17825078494785328633
23598288 3 18120654888389616294
23598291 2 18114733829189778283
23728640 28 17613737223939757906
238 59 17693415185235570551
445580 42 17838909478958056042
5309563 4 18411134697617438995
6287921 2 17977377235810452891
7097593 13 18262786364336781137

> <PUBCHEM_SHAPE_MULTIPOLES>
454.35
7.25
5.06
1.53
2.65
3.57
-0.54
-6.81
0.91
1.28
1.45
-1.52
-0.44
0.16

> <PUBCHEM_SHAPE_SELFOVERLAP>
954.869

> <PUBCHEM_SHAPE_VOLUME>
259.1

> <PUBCHEM_COORDINATE_TYPE>
2
5
10

$$$$

