177893
  -OEChem-07051212573D

 41 45  0     0  0  0  0  0  0999 V2000
    5.0749   -1.7207    0.0650 O   0  0  0  0  0  0  0  0  0  0  0  0
    5.9328    0.5292    0.1000 O   0  0  0  0  0  0  0  0  0  0  0  0
   -4.2251   -2.1282   -0.1677 O   0  0  0  0  0  0  0  0  0  0  0  0
   -6.0351   -0.0733   -0.1993 O   0  0  0  0  0  0  0  0  0  0  0  0
   -0.1592   -1.3587   -0.0637 N   0  3  0  0  0  0  0  0  0  0  0  0
    0.3885   -0.1254   -0.0425 C   0  0  0  0  0  0  0  0  0  0  0  0
   -0.4966    0.9903   -0.0579 C   0  0  0  0  0  0  0  0  0  0  0  0
    1.8095    0.0358   -0.0061 C   0  0  0  0  0  0  0  0  0  0  0  0
   -1.9147    0.7666   -0.0945 C   0  0  0  0  0  0  0  0  0  0  0  0
    2.3429    1.3579    0.0148 C   0  0  0  0  0  0  0  0  0  0  0  0
   -2.3902   -0.5609   -0.1142 C   0  0  0  0  0  0  0  0  0  0  0  0
   -1.4722   -1.5978   -0.0980 C   0  0  0  0  0  0  0  0  0  0  0  0
    0.0917    2.2704   -0.0357 C   0  0  0  0  0  0  0  0  0  0  0  0
    2.7284   -1.0447    0.0105 C   0  0  0  0  0  0  0  0  0  0  0  0
    1.4752    2.4498   -0.0004 C   0  0  0  0  0  0  0  0  0  0  0  0
    3.7316    1.5802    0.0508 C   0  0  0  0  0  0  0  0  0  0  0  0
    4.0852   -0.7866    0.0461 C   0  0  0  0  0  0  0  0  0  0  0  0
    4.5738    0.4915    0.0654 C   0  0  0  0  0  0  0  0  0  0  0  0
   -2.8957    1.7911   -0.1125 C   0  0  0  0  0  0  0  0  0  0  0  0
   -3.7669   -0.8395   -0.1495 C   0  0  0  0  0  0  0  0  0  0  0  0
    0.5425   -2.6415   -0.0520 C   0  0  0  0  0  0  0  0  0  0  0  0
   -4.7002    0.1918   -0.1658 C   0  0  0  0  0  0  0  0  0  0  0  0
   -4.2644    1.5084   -0.1472 C   0  0  0  0  0  0  0  0  0  0  0  0
    6.2452   -0.8787    0.0994 C   0  0  0  0  0  0  0  0  0  0  0  0
   -6.7019   -0.2069    1.0548 C   0  0  0  0  0  0  0  0  0  0  0  0
   -1.7995   -2.6299   -0.1354 H   0  0  0  0  0  0  0  0  0  0  0  0
   -0.5168    3.1711   -0.0455 H   0  0  0  0  0  0  0  0  0  0  0  0
    2.5727   -2.0999   -0.0013 H   0  0  0  0  0  0  0  0  0  0  0  0
    1.8632    3.4670    0.0152 H   0  0  0  0  0  0  0  0  0  0  0  0
    4.1429    2.5857    0.0669 H   0  0  0  0  0  0  0  0  0  0  0  0
   -2.6121    2.8403   -0.0993 H   0  0  0  0  0  0  0  0  0  0  0  0
    1.1054   -2.7415   -0.9845 H   0  0  0  0  0  0  0  0  0  0  0  0
    1.0616   -2.7477    0.9050 H   0  0  0  0  0  0  0  0  0  0  0  0
   -0.1316   -3.5068   -0.0687 H   0  0  0  0  0  0  0  0  0  0  0  0
   -4.9796    2.3264   -0.1603 H   0  0  0  0  0  0  0  0  0  0  0  0
    6.8638   -1.1010   -0.7776 H   0  0  0  0  0  0  0  0  0  0  0  0
    6.8192   -1.1117    1.0036 H   0  0  0  0  0  0  0  0  0  0  0  0
   -3.6717   -2.6769    0.4115 H   0  0  0  0  0  0  0  0  0  0  0  0
   -7.7548   -0.4290    0.8609 H   0  0  0  0  0  0  0  0  0  0  0  0
   -6.6398    0.7267    1.6228 H   0  0  0  0  0  0  0  0  0  0  0  0
   -6.2718   -1.0293    1.6352 H   0  0  0  0  0  0  0  0  0  0  0  0
  1 17  1  0  0  0  0
  1 24  1  0  0  0  0
  2 18  1  0  0  0  0
  2 24  1  0  0  0  0
  3 20  1  0  0  0  0
  3 38  1  0  0  0  0
  4 22  1  0  0  0  0
  4 25  1  0  0  0  0
  5  6  2  0  0  0  0
  5 12  1  0  0  0  0
  5 21  1  0  0  0  0
  6  7  1  0  0  0  0
  6  8  1  0  0  0  0
  7  9  2  0  0  0  0
  7 13  1  0  0  0  0
  8 10  1  0  0  0  0
  8 14  2  0  0  0  0
  9 11  1  0  0  0  0
  9 19  1  0  0  0  0
 10 15  1  0  0  0  0
 10 16  2  0  0  0  0
 11 12  2  0  0  0  0
 11 20  1  0  0  0  0
 12 26  1  0  0  0  0
 13 15  2  0  0  0  0
 13 27  1  0  0  0  0
 14 17  1  0  0  0  0
 14 28  1  0  0  0  0
 15 29  1  0  0  0  0
 16 18  1  0  0  0  0
 16 30  1  0  0  0  0
 17 18  2  0  0  0  0
 19 23  2  0  0  0  0
 19 31  1  0  0  0  0
 20 22  2  0  0  0  0
 21 32  1  0  0  0  0
 21 33  1  0  0  0  0
 21 34  1  0  0  0  0
 22 23  1  0  0  0  0
 23 35  1  0  0  0  0
 24 36  1  0  0  0  0
 24 37  1  0  0  0  0
 25 39  1  0  0  0  0
 25 40  1  0  0  0  0
 25 41  1  0  0  0  0
M  CHG  1   5   1
M  END
> <PUBCHEM_COMPOUND_CID>
177893

> <PUBCHEM_CONFORMER_RMSD>
0.6

> <PUBCHEM_CONFORMER_DIVERSEORDER>
1

> <PUBCHEM_MMFF94_PARTIAL_CHARGES>
28
1 -0.36
12 0.21
13 -0.15
14 -0.15
15 -0.15
16 -0.15
17 0.08
18 0.08
19 -0.15
2 -0.36
20 0.08
21 0.49
22 0.08
23 -0.15
24 0.56
25 0.28
26 0.15
27 0.15
28 0.15
29 0.15
3 -0.53
30 0.15
31 0.15
35 0.15
38 0.45
4 -0.36
5 -0.21
6 0.36

> <PUBCHEM_EFFECTIVE_ROTOR_COUNT>
1.6

> <PUBCHEM_PHARMACOPHORE_FEATURES>
9
1 1 acceptor
1 2 acceptor
1 3 donor
1 4 acceptor
5 1 2 17 18 24 rings
6 5 6 7 9 11 12 rings
6 6 7 8 10 13 15 rings
6 8 10 14 16 17 18 rings
6 9 11 19 20 22 23 rings

> <PUBCHEM_HEAVY_ATOM_COUNT>
25

> <PUBCHEM_ATOM_DEF_STEREO_COUNT>
0

> <PUBCHEM_ATOM_UDEF_STEREO_COUNT>
0

> <PUBCHEM_BOND_DEF_STEREO_COUNT>
0

> <PUBCHEM_BOND_UDEF_STEREO_COUNT>
0

> <PUBCHEM_ISOTOPIC_ATOM_COUNT>
0

> <PUBCHEM_COMPONENT_COUNT>
1

> <PUBCHEM_CACTVS_TAUTO_COUNT>
4

> <PUBCHEM_CONFORMER_ID>
0002B6E500000001

> <PUBCHEM_MMFF94_ENERGY>
128.4301

> <PUBCHEM_FEATURE_SELFOVERLAP>
45.897

> <PUBCHEM_SHAPE_FINGERPRINT>
10 15 18341339899369194288
10906281 52 18337371791504610374
10967382 1 18410576209970910284
1100329 8 18337673005591922227
11578080 2 4894457804773734945
11646440 116 18187079555145529737
12011746 2 18413110571398581733
12107183 9 17690845983054182832
12166972 35 18273210889466375084
12236239 1 17822010895950968493
12403259 226 18337115545023936665
12403259 415 18410303505471048425
12516196 113 18186805776839955256
12788726 201 17894895322644099784
12838862 33 18338537278088356696
13140716 1 18266172834491219123
13402501 40 18411700997502335254
13533116 47 17603585266315580622
13685833 64 18413386544495916345
13862211 1 18410579504274305214
14341114 176 18412540998975010833
14790565 3 18411133654040521884
14849402 71 18188767245476127665
15099037 51 18410857659373067510
15131766 46 14419574316141255642
15196674 1 18410576171653925140
15927050 60 17685496447196160580
17492 89 18123190100094633479
1813 80 17275107232469021556
18681886 176 18335711511186602921
19141452 34 18187930542775120663
19591789 44 18411141316071910118
200 152 18113340816392182040
20028762 73 18186807941730813519
21033648 29 17917448509479442525
21130935 74 18186802456914891283
21236236 1 18337110167724875561
21267235 1 18411131459433013726
21279426 13 18267024049268722228
21682296 61 18263356044008388255
21781051 124 17986648446921618003
21792934 111 18336840765700696480
23402539 116 18333457533993388134
23522609 53 18195496312562485237
23559900 14 18336554806567151457
3004659 81 18272369789736975212
3178227 256 18340757192106833659
335352 9 18410575080990539325
34797466 226 17240479187768391884
350125 39 18410854339321448397
3545911 37 18409729568816541517
3680242 22 18269556203283806442
4073 2 18059289864617147122
4093350 32 16805317761546129504
4214541 1 18410576201486789029
465052 167 18342735226014569154
5104073 3 18336828597836365945
6138700 20 18339642347425088102
9709674 26 18268991981729817299

> <PUBCHEM_SHAPE_MULTIPOLES>
486.03
13.78
2.41
0.65
1.84
0
-0.05
-2.26
-1.64
-0.33
0.08
0.33
0
0.05

> <PUBCHEM_SHAPE_SELFOVERLAP>
1120.497

> <PUBCHEM_SHAPE_VOLUME>
251.4

> <PUBCHEM_COORDINATE_TYPE>
2
5
10

$$$$

