185071
  -OEChem-07051212593D

 31 32  0     1  0  0  0  0  0999 V2000
    0.3461    2.0346    1.0789 O   0  0  0  0  0  0  0  0  0  0  0  0
    2.0811   -1.4422   -0.2264 O   0  0  0  0  0  0  0  0  0  0  0  0
    2.5173    0.7504    0.3557 O   0  0  0  0  0  0  0  0  0  0  0  0
   -1.8192    0.1383    0.7085 N   0  0  1  0  0  0  0  0  0  0  0  0
   -0.6193   -0.7140    0.5072 C   0  0  2  0  0  0  0  0  0  0  0  0
    0.3252    0.0935   -0.3906 C   0  0  1  0  0  0  0  0  0  0  0  0
   -0.1284    1.5357   -0.1724 C   0  0  1  0  0  0  0  0  0  0  0  0
   -1.6436    1.3604   -0.0981 C   0  0  0  0  0  0  0  0  0  0  0  0
   -1.1072   -2.0150   -0.1259 C   0  0  0  0  0  0  0  0  0  0  0  0
   -2.9923   -0.6427    0.3004 C   0  0  0  0  0  0  0  0  0  0  0  0
   -2.4674   -1.6603   -0.6959 C   0  0  0  0  0  0  0  0  0  0  0  0
    0.3093    2.4878   -1.2772 C   0  0  0  0  0  0  0  0  0  0  0  0
    1.7638   -0.1296   -0.0382 C   0  0  0  0  0  0  0  0  0  0  0  0
    3.4346   -1.7969    0.0740 C   0  0  0  0  0  0  0  0  0  0  0  0
   -0.1558   -0.9239    1.4791 H   0  0  0  0  0  0  0  0  0  0  0  0
    0.1875   -0.1706   -1.4484 H   0  0  0  0  0  0  0  0  0  0  0  0
   -2.1399    2.2031    0.3941 H   0  0  0  0  0  0  0  0  0  0  0  0
   -2.0602    1.2432   -1.1069 H   0  0  0  0  0  0  0  0  0  0  0  0
   -1.2326   -2.7774    0.6532 H   0  0  0  0  0  0  0  0  0  0  0  0
   -0.4357   -2.4205   -0.8882 H   0  0  0  0  0  0  0  0  0  0  0  0
   -3.8076   -0.0341   -0.1052 H   0  0  0  0  0  0  0  0  0  0  0  0
   -3.3857   -1.1618    1.1830 H   0  0  0  0  0  0  0  0  0  0  0  0
   -2.3568   -1.2093   -1.6890 H   0  0  0  0  0  0  0  0  0  0  0  0
   -3.1193   -2.5341   -0.7842 H   0  0  0  0  0  0  0  0  0  0  0  0
    1.3984    2.6007   -1.2950 H   0  0  0  0  0  0  0  0  0  0  0  0
   -0.0184    2.1441   -2.2636 H   0  0  0  0  0  0  0  0  0  0  0  0
   -0.1038    3.4890   -1.1097 H   0  0  0  0  0  0  0  0  0  0  0  0
   -0.0331    2.9204    1.2104 H   0  0  0  0  0  0  0  0  0  0  0  0
    3.5562   -2.8663   -0.1177 H   0  0  0  0  0  0  0  0  0  0  0  0
    3.6516   -1.6021    1.1286 H   0  0  0  0  0  0  0  0  0  0  0  0
    4.1233   -1.2436   -0.5715 H   0  0  0  0  0  0  0  0  0  0  0  0
  1  7  1  0  0  0  0
  1 28  1  0  0  0  0
  2 13  1  0  0  0  0
  2 14  1  0  0  0  0
  3 13  2  0  0  0  0
  4  5  1  0  0  0  0
  4  8  1  0  0  0  0
  4 10  1  0  0  0  0
  5  6  1  0  0  0  0
  5  9  1  0  0  0  0
  5 15  1  0  0  0  0
  6  7  1  0  0  0  0
  6 13  1  0  0  0  0
  6 16  1  0  0  0  0
  7  8  1  0  0  0  0
  7 12  1  0  0  0  0
  8 17  1  0  0  0  0
  8 18  1  0  0  0  0
  9 11  1  0  0  0  0
  9 19  1  0  0  0  0
  9 20  1  0  0  0  0
 10 11  1  0  0  0  0
 10 21  1  0  0  0  0
 10 22  1  0  0  0  0
 11 23  1  0  0  0  0
 11 24  1  0  0  0  0
 12 25  1  0  0  0  0
 12 26  1  0  0  0  0
 12 27  1  0  0  0  0
 14 29  1  0  0  0  0
 14 30  1  0  0  0  0
 14 31  1  0  0  0  0
M  END
> <PUBCHEM_COMPOUND_CID>
185071

> <PUBCHEM_CONFORMER_RMSD>
0.6

> <PUBCHEM_CONFORMER_DIVERSEORDER>
1
4
2
5
6
3

> <PUBCHEM_MMFF94_PARTIAL_CHARGES>
12
1 -0.68
10 0.27
13 0.66
14 0.28
2 -0.43
28 0.4
3 -0.57
4 -0.81
5 0.27
6 0.06
7 0.28
8 0.27

> <PUBCHEM_EFFECTIVE_ROTOR_COUNT>
3.2

> <PUBCHEM_PHARMACOPHORE_FEATURES>
6
1 1 acceptor
1 1 donor
1 3 acceptor
1 4 cation
5 4 5 6 7 8 rings
5 4 5 9 10 11 rings

> <PUBCHEM_HEAVY_ATOM_COUNT>
14

> <PUBCHEM_ATOM_DEF_STEREO_COUNT>
3

> <PUBCHEM_ATOM_UDEF_STEREO_COUNT>
0

> <PUBCHEM_BOND_DEF_STEREO_COUNT>
0

> <PUBCHEM_BOND_UDEF_STEREO_COUNT>
0

> <PUBCHEM_ISOTOPIC_ATOM_COUNT>
0

> <PUBCHEM_COMPONENT_COUNT>
1

> <PUBCHEM_CACTVS_TAUTO_COUNT>
1

> <PUBCHEM_CONFORMER_ID>
0002D2EF00000001

> <PUBCHEM_MMFF94_ENERGY>
34.1099

> <PUBCHEM_FEATURE_SELFOVERLAP>
30.875

> <PUBCHEM_SHAPE_FINGERPRINT>
12138202 97 17839186560029696326
12326174 3 17342394989971995897
12423570 1 13949463430359572033
12524768 44 18410575067499326386
13024252 1 16055450954975228136
13380535 220 18413107264627451541
14128692 85 18191297187339375741
14817 1 10547232333652205992
15219459 52 18268988683437696007
16945 1 18268423529986638709
20511035 2 18118118070219539415
20645477 70 17910683060105323791
20653085 51 10951777420744229604
20711985 344 17986965239239784480
20711985 365 18339642359924478462
20871998 184 18193552491783155526
21296965 67 18412826897557137235
21501502 16 18409165536969198520
2334 1 18411417314875524102
23388829 49 18119534232268401284
23402539 116 18117854406577531645
23419403 2 17390272274779039033
23552423 10 18051689941308600415
23559900 14 18046916158886158090
241688 4 18341614849277329321
2748010 2 18411984701588139133
5255222 1 17979920741244342712
7364860 26 18118399536284412568
81228 2 18269834379556665992

> <PUBCHEM_SHAPE_MULTIPOLES>
265.52
4.05
2.63
0.9
1.54
0.72
-0.05
-2.76
0.14
0.34
-0.5
-0.1
0.33
-0.16

> <PUBCHEM_SHAPE_SELFOVERLAP>
553.072

> <PUBCHEM_SHAPE_VOLUME>
154.1

> <PUBCHEM_COORDINATE_TYPE>
2
5
10

$$$$

