18636
  -OEChem-07051213113D

 22 24  0     0  0  0  0  0  0999 V2000
    2.3259    3.1357    0.0000 Cl  0  0  0  0  0  0  0  0  0  0  0  0
    2.3272   -3.1361    0.0001 Cl  0  0  0  0  0  0  0  0  0  0  0  0
   -2.3266    3.1357   -0.0004 Cl  0  0  0  0  0  0  0  0  0  0  0  0
   -2.3267   -3.1362   -0.0011 Cl  0  0  0  0  0  0  0  0  0  0  0  0
    5.0792    1.5744    0.0001 Cl  0  0  0  0  0  0  0  0  0  0  0  0
    5.0796   -1.5737    0.0002 Cl  0  0  0  0  0  0  0  0  0  0  0  0
   -5.0795    1.5741   -0.0002 Cl  0  0  0  0  0  0  0  0  0  0  0  0
   -5.0794   -1.5745    0.0021 Cl  0  0  0  0  0  0  0  0  0  0  0  0
    0.0000    1.4270    0.0000 O   0  0  0  0  0  0  0  0  0  0  0  0
   -0.0001   -1.4268   -0.0004 O   0  0  0  0  0  0  0  0  0  0  0  0
    1.1617    0.6971    0.0000 C   0  0  0  0  0  0  0  0  0  0  0  0
    1.1616   -0.6971   -0.0001 C   0  0  0  0  0  0  0  0  0  0  0  0
   -1.1617    0.6971   -0.0001 C   0  0  0  0  0  0  0  0  0  0  0  0
   -1.1616   -0.6969   -0.0003 C   0  0  0  0  0  0  0  0  0  0  0  0
    2.3669    1.3984    0.0002 C   0  0  0  0  0  0  0  0  0  0  0  0
    2.3668   -1.3985    0.0000 C   0  0  0  0  0  0  0  0  0  0  0  0
   -2.3667    1.3985    0.0002 C   0  0  0  0  0  0  0  0  0  0  0  0
   -2.3669   -1.3984   -0.0005 C   0  0  0  0  0  0  0  0  0  0  0  0
    3.5734    0.6980    0.0003 C   0  0  0  0  0  0  0  0  0  0  0  0
    3.5734   -0.6980    0.0003 C   0  0  0  0  0  0  0  0  0  0  0  0
   -3.5733    0.6981    0.0000 C   0  0  0  0  0  0  0  0  0  0  0  0
   -3.5734   -0.6979   -0.0003 C   0  0  0  0  0  0  0  0  0  0  0  0
  1 15  1  0  0  0  0
  2 16  1  0  0  0  0
  3 17  1  0  0  0  0
  4 18  1  0  0  0  0
  5 19  1  0  0  0  0
  6 20  1  0  0  0  0
  7 21  1  0  0  0  0
  8 22  1  0  0  0  0
  9 11  1  0  0  0  0
  9 13  1  0  0  0  0
 10 12  1  0  0  0  0
 10 14  1  0  0  0  0
 11 12  2  0  0  0  0
 11 15  1  0  0  0  0
 12 16  1  0  0  0  0
 13 14  2  0  0  0  0
 13 17  1  0  0  0  0
 14 18  1  0  0  0  0
 15 19  2  0  0  0  0
 16 20  2  0  0  0  0
 17 21  2  0  0  0  0
 18 22  2  0  0  0  0
 19 20  1  0  0  0  0
 21 22  1  0  0  0  0
M  END
> <PUBCHEM_COMPOUND_CID>
18636

> <PUBCHEM_CONFORMER_RMSD>
0.6

> <PUBCHEM_CONFORMER_DIVERSEORDER>
1

> <PUBCHEM_MMFF94_PARTIAL_CHARGES>
22
1 -0.18
10 -0.17
11 0.08
12 0.08
13 0.08
14 0.08
15 0.18
16 0.18
17 0.18
18 0.18
19 0.18
2 -0.18
20 0.18
21 0.18
22 0.18
3 -0.18
4 -0.18
5 -0.18
6 -0.18
7 -0.18
8 -0.18
9 -0.17

> <PUBCHEM_EFFECTIVE_ROTOR_COUNT>
0.4

> <PUBCHEM_PHARMACOPHORE_FEATURES>
5
1 10 acceptor
1 9 acceptor
6 11 12 15 16 19 20 rings
6 13 14 17 18 21 22 rings
6 9 10 11 12 13 14 rings

> <PUBCHEM_HEAVY_ATOM_COUNT>
22

> <PUBCHEM_ATOM_DEF_STEREO_COUNT>
0

> <PUBCHEM_ATOM_UDEF_STEREO_COUNT>
0

> <PUBCHEM_BOND_DEF_STEREO_COUNT>
0

> <PUBCHEM_BOND_UDEF_STEREO_COUNT>
0

> <PUBCHEM_ISOTOPIC_ATOM_COUNT>
0

> <PUBCHEM_COMPONENT_COUNT>
1

> <PUBCHEM_CACTVS_TAUTO_COUNT>
1

> <PUBCHEM_CONFORMER_ID>
000048CC00000001

> <PUBCHEM_MMFF94_ENERGY>
64.838

> <PUBCHEM_FEATURE_SELFOVERLAP>
25.449

> <PUBCHEM_SHAPE_FINGERPRINT>
10608611 8 18410858762958304736
10616163 171 18337952268639746679
10967382 1 18338517563708192774
1100329 8 17762056944480157993
12107183 9 17690280838303843018
12403259 226 18410860957686976261
12788726 201 17386276705464219777
13140716 1 18266458702586315049
138480 1 17618223253009674243
14178342 30 18338814372150725778
14223421 5 18410855442948299117
14341114 176 18410849971292073248
14790565 3 18410848863058992772
14866123 147 16533696968055730194
15042514 8 18412258411944895867
15196674 1 18410575088958046209
15442244 35 18266460004119771538
15536298 74 18335421266419358468
16945 1 18410575084663078918
17492 89 18410575127945970763
17804303 29 18410289228846184677
1813 80 17131833157518033308
18681886 176 18334863801340004770
19591789 44 18410855464423181059
200 152 18113902641380481487
20510252 161 18334856143212667649
20645477 70 18334011709587365894
21065198 57 18410573955086680128
21267235 1 18410847763547300035
21421861 104 17987808552132239498
221490 88 18340480059205058194
23227448 37 18409450263051536293
2334 1 17978228253420158983
23366157 5 18130784612007754074
23402539 116 18334864926552578799
23557571 272 18260821553842058693
23558518 356 18272644640914136656
23559900 14 18408610262048709688
2748010 2 18050567331024732200
3004659 81 18271803562723695502
335352 9 18338517546459726269
34934 24 18410579487010091907
350125 39 18410853265431989793
3545911 37 18409728418045023952
4214541 1 18410855477334417733
4280585 95 17757540130104614446
474 4 17631729353450226124
5104073 3 18410575088958047160
7364860 26 18409166610790098308
7832392 63 18338238270896660848
9709674 26 18410006632909825239
9981440 41 17620476805623574168

> <PUBCHEM_SHAPE_MULTIPOLES>
455.97
10.33
3.71
0.62
0
0
0
0
0
0
0
0
0
0

> <PUBCHEM_SHAPE_SELFOVERLAP>
940.429

> <PUBCHEM_SHAPE_VOLUME>
268.3

> <PUBCHEM_COORDINATE_TYPE>
2
5
10

$$$$

