441560
  -OEChem-07051212552D

 44 44  0     1  0  0  0  0  0999 V2000
    5.1350    0.0000    0.0000 O   0  0  0  0  0  0  0  0  0  0  0  0
    4.2690    2.5000    0.0000 O   0  0  0  0  0  0  0  0  0  0  0  0
    2.5369    1.5000    0.0000 O   0  0  0  0  0  0  0  0  0  0  0  0
    2.5369   -0.5000    0.0000 O   0  0  0  0  0  0  0  0  0  0  0  0
    6.0010    1.5000    0.0000 O   0  0  0  0  0  0  0  0  0  0  0  0
    5.1350   -2.0000    0.0000 O   0  0  0  0  0  0  0  0  0  0  0  0
    6.0010    2.5000    0.0000 O   0  0  0  0  0  0  0  0  0  0  0  0
    4.2690   -3.5000    0.0000 O   0  0  0  0  0  0  0  0  0  0  0  0
    6.8671    6.0000    0.0000 O   0  5  0  0  0  0  0  0  0  0  0  0
    5.1350    6.0000    0.0000 O   0  0  0  0  0  0  0  0  0  0  0  0
    6.8671   -6.0000    0.0000 O   0  5  0  0  0  0  0  0  0  0  0  0
    7.7331   -4.5000    0.0000 O   0  0  0  0  0  0  0  0  0  0  0  0
    6.0010    5.5000    0.0000 N   0  3  0  0  0  0  0  0  0  0  0  0
    6.8671   -5.0000    0.0000 N   0  3  0  0  0  0  0  0  0  0  0  0
    3.4030    1.0000    0.0000 C   0  0  1  0  0  0  0  0  0  0  0  0
    3.4030    0.0000    0.0000 C   0  0  1  0  0  0  0  0  0  0  0  0
    4.2690    1.5000    0.0000 C   0  0  2  0  0  0  0  0  0  0  0  0
    4.2690   -0.5000    0.0000 C   0  0  1  0  0  0  0  0  0  0  0  0
    5.1350    1.0000    0.0000 C   0  0  2  0  0  0  0  0  0  0  0  0
    4.2690   -1.5000    0.0000 C   0  0  0  0  0  0  0  0  0  0  0  0
    5.1350    3.0000    0.0000 C   0  0  0  0  0  0  0  0  0  0  0  0
    5.1350    4.0000    0.0000 C   0  0  0  0  0  0  0  0  0  0  0  0
    5.1350   -3.0000    0.0000 C   0  0  0  0  0  0  0  0  0  0  0  0
    6.0010   -3.5000    0.0000 C   0  0  0  0  0  0  0  0  0  0  0  0
    6.0010    4.5000    0.0000 C   0  0  0  0  0  0  0  0  0  0  0  0
    6.0010   -4.5000    0.0000 C   0  0  0  0  0  0  0  0  0  0  0  0
    3.4030    1.6200    0.0000 H   0  0  0  0  0  0  0  0  0  0  0  0
    3.4030   -0.6200    0.0000 H   0  0  0  0  0  0  0  0  0  0  0  0
    4.8059    1.8100    0.0000 H   0  0  0  0  0  0  0  0  0  0  0  0
    4.8059   -0.8100    0.0000 H   0  0  0  0  0  0  0  0  0  0  0  0
    5.1350    1.6200    0.0000 H   0  0  0  0  0  0  0  0  0  0  0  0
    3.6584   -1.3923    0.0000 H   0  0  0  0  0  0  0  0  0  0  0  0
    4.0569   -2.0826    0.0000 H   0  0  0  0  0  0  0  0  0  0  0  0
    2.0000    1.1900    0.0000 H   0  0  0  0  0  0  0  0  0  0  0  0
    2.5369   -1.1200    0.0000 H   0  0  0  0  0  0  0  0  0  0  0  0
    6.5380    1.1900    0.0000 H   0  0  0  0  0  0  0  0  0  0  0  0
    4.9230    4.5826    0.0000 H   0  0  0  0  0  0  0  0  0  0  0  0
    4.5244    3.8923    0.0000 H   0  0  0  0  0  0  0  0  0  0  0  0
    6.6116   -3.6077    0.0000 H   0  0  0  0  0  0  0  0  0  0  0  0
    6.2131   -2.9174    0.0000 H   0  0  0  0  0  0  0  0  0  0  0  0
    6.2131    3.9174    0.0000 H   0  0  0  0  0  0  0  0  0  0  0  0
    6.6116    4.6077    0.0000 H   0  0  0  0  0  0  0  0  0  0  0  0
    5.3905   -4.3923    0.0000 H   0  0  0  0  0  0  0  0  0  0  0  0
    5.7890   -5.0826    0.0000 H   0  0  0  0  0  0  0  0  0  0  0  0
  1 18  1  0  0  0  0
  1 19  1  0  0  0  0
 17  2  1  1  0  0  0
  2 21  1  0  0  0  0
 15  3  1  6  0  0  0
  3 34  1  0  0  0  0
 16  4  1  1  0  0  0
  4 35  1  0  0  0  0
 19  5  1  1  0  0  0
  5 36  1  0  0  0  0
  6 20  1  0  0  0  0
  6 23  1  0  0  0  0
  7 21  2  0  0  0  0
  8 23  2  0  0  0  0
  9 13  1  0  0  0  0
 10 13  2  0  0  0  0
 11 14  1  0  0  0  0
 12 14  2  0  0  0  0
 13 25  1  0  0  0  0
 14 26  1  0  0  0  0
 15 16  1  0  0  0  0
 15 17  1  0  0  0  0
 15 27  1  0  0  0  0
 16 18  1  0  0  0  0
 16 28  1  0  0  0  0
 17 19  1  0  0  0  0
 17 29  1  0  0  0  0
 18 20  1  6  0  0  0
 18 30  1  0  0  0  0
 19 31  1  0  0  0  0
 20 32  1  0  0  0  0
 20 33  1  0  0  0  0
 21 22  1  0  0  0  0
 22 25  1  0  0  0  0
 22 37  1  0  0  0  0
 22 38  1  0  0  0  0
 23 24  1  0  0  0  0
 24 26  1  0  0  0  0
 24 39  1  0  0  0  0
 24 40  1  0  0  0  0
 25 41  1  0  0  0  0
 25 42  1  0  0  0  0
 26 43  1  0  0  0  0
 26 44  1  0  0  0  0
M  CHG  4   9  -1  11  -1  13   1  14   1
M  END
> <PUBCHEM_COMPOUND_CID>
441560

> <PUBCHEM_COMPOUND_CANONICALIZED>
1

> <PUBCHEM_CACTVS_COMPLEXITY>
529

> <PUBCHEM_CACTVS_HBOND_ACCEPTOR>
12

> <PUBCHEM_CACTVS_HBOND_DONOR>
3

> <PUBCHEM_CACTVS_ROTATABLE_BOND>
9

> <PUBCHEM_CACTVS_SUBSKEYS>
AAADceBzPAAAAAAAAAAAAAAAAAAAAAAAAAAkAAAAAAAAAAAAAAAAHgAECAAACBTxgAcACAAQRgAJAACQCwAAAAAAAAAgAAEAAAAREAoAAAACQAAHAAAHAAHAYAwAAAAAAAAAAAAAAAAAAAAAAAAAAAAAAA==

> <PUBCHEM_IUPAC_OPENEYE_NAME>
[(2R,3S,4S,5R,6S)-3,4,6-trihydroxy-5-(3-nitropropanoyloxy)tetrahydropyran-2-yl]methyl 3-nitropropanoate

> <PUBCHEM_IUPAC_CAS_NAME>
3-nitropropanoic acid [(2R,3S,4S,5R,6S)-3,4,6-trihydroxy-5-(3-nitro-1-oxopropoxy)-2-oxanyl]methyl ester

> <PUBCHEM_IUPAC_NAME>
[(2R,3S,4S,5R,6S)-3,4,6-trihydroxy-5-(3-nitropropanoyloxy)oxan-2-yl]methyl 3-nitropropanoate

> <PUBCHEM_IUPAC_SYSTEMATIC_NAME>
[(2R,3S,4S,5R,6S)-5-(3-nitropropanoyloxy)-3,4,6-tris(oxidanyl)oxan-2-yl]methyl 3-nitropropanoate

> <PUBCHEM_IUPAC_TRADITIONAL_NAME>
3-nitropropionic acid [(2R,3S,4S,5R,6S)-3,4,6-trihydroxy-5-(3-nitropropanoyloxy)tetrahydropyran-2-yl]methyl ester

> <PUBCHEM_IUPAC_INCHI>
InChI=1S/C12H18N2O12/c15-7(1-3-13(20)21)24-5-6-9(17)10(18)11(12(19)25-6)26-8(16)2-4-14(22)23/h6,9-12,17-19H,1-5H2/t6-,9-,10+,11-,12+/m1/s1

> <PUBCHEM_IUPAC_INCHIKEY>
VDUXCWJUZIOGJA-JPXBYFMYSA-N

> <PUBCHEM_XLOGP3_AA>
-2.5

> <PUBCHEM_EXACT_MASS>
382.085974

> <PUBCHEM_MOLECULAR_FORMULA>
C12H18N2O12

> <PUBCHEM_MOLECULAR_WEIGHT>
382.27752

> <PUBCHEM_OPENEYE_CAN_SMILES>
C(C[N+](=O)[O-])C(=O)OCC1C(C(C(C(O1)O)OC(=O)CC[N+](=O)[O-])O)O

> <PUBCHEM_OPENEYE_ISO_SMILES>
C(C[N+](=O)[O-])C(=O)OC[C@@H]1[C@H]([C@@H]([C@H]([C@H](O1)O)OC(=O)CC[N+](=O)[O-])O)O

> <PUBCHEM_CACTVS_TPSA>
214

> <PUBCHEM_MONOISOTOPIC_WEIGHT>
382.085974

> <PUBCHEM_TOTAL_CHARGE>
0

> <PUBCHEM_HEAVY_ATOM_COUNT>
26

> <PUBCHEM_ATOM_DEF_STEREO_COUNT>
5

> <PUBCHEM_ATOM_UDEF_STEREO_COUNT>
0

> <PUBCHEM_BOND_DEF_STEREO_COUNT>
0

> <PUBCHEM_BOND_UDEF_STEREO_COUNT>
0

> <PUBCHEM_ISOTOPIC_ATOM_COUNT>
0

> <PUBCHEM_COMPONENT_COUNT>
1

> <PUBCHEM_CACTVS_TAUTO_COUNT>
4

> <PUBCHEM_COORDINATE_TYPE>
1
5
255

> <PUBCHEM_BONDANNOTATIONS>
18  20  6
17  2  5
15  3  6
16  4  5
19  5  5

$$$$

