11682
  -OEChem-06261205592D

 48 49  0     1  0  0  0  0  0999 V2000
    2.0000    0.0670    0.0000 O   0  0  0  0  0  0  0  0  0  0  0  0
    4.2320    0.9330    0.0000 N   0  3  0  0  0  0  0  0  0  0  0  0
    4.5981   -1.4330    0.0000 N   0  3  0  0  0  0  0  0  0  0  0  0
    3.7320    0.0670    0.0000 C   0  0  3  0  0  0  0  0  0  0  0  0
    4.5981   -0.4330    0.0000 C   0  0  0  0  0  0  0  0  0  0  0  0
    3.7320   -1.9330    0.0000 C   0  0  3  0  0  0  0  0  0  0  0  0
    3.3660    1.4330    0.0000 C   0  0  0  0  0  0  0  0  0  0  0  0
    5.0981    1.4330    0.0000 C   0  0  0  0  0  0  0  0  0  0  0  0
    2.8660   -0.4330    0.0000 C   0  0  0  0  0  0  0  0  0  0  0  0
    2.8660   -1.4330    0.0000 C   0  0  0  0  0  0  0  0  0  0  0  0
    2.8660    0.5670    0.0000 C   0  0  0  0  0  0  0  0  0  0  0  0
    5.0981    0.4330    0.0000 C   0  0  0  0  0  0  0  0  0  0  0  0
    5.0981    2.4330    0.0000 C   0  0  0  0  0  0  0  0  0  0  0  0
    3.3660    2.4330    0.0000 C   0  0  0  0  0  0  0  0  0  0  0  0
    4.2320    2.9330    0.0000 C   0  0  0  0  0  0  0  0  0  0  0  0
    5.0981   -2.2990    0.0000 C   0  0  0  0  0  0  0  0  0  0  0  0
    5.5981   -1.4330    0.0000 C   0  0  0  0  0  0  0  0  0  0  0  0
    3.7320   -2.9330    0.0000 C   0  0  0  0  0  0  0  0  0  0  0  0
    5.2087   -0.5407    0.0000 H   0  0  0  0  0  0  0  0  0  0  0  0
    4.8101    0.1496    0.0000 H   0  0  0  0  0  0  0  0  0  0  0  0
    4.2690   -2.2430    0.0000 H   0  0  0  0  0  0  0  0  0  0  0  0
    5.3101    0.8504    0.0000 H   0  0  0  0  0  0  0  0  0  0  0  0
    5.7087    1.5407    0.0000 H   0  0  0  0  0  0  0  0  0  0  0  0
    2.7554    1.5407    0.0000 H   0  0  0  0  0  0  0  0  0  0  0  0
    3.1540    0.8504    0.0000 H   0  0  0  0  0  0  0  0  0  0  0  0
    2.2554   -1.3254    0.0000 H   0  0  0  0  0  0  0  0  0  0  0  0
    2.6540   -2.0156    0.0000 H   0  0  0  0  0  0  0  0  0  0  0  0
    3.1760    1.1039    0.0000 H   0  0  0  0  0  0  0  0  0  0  0  0
    2.3291    0.8770    0.0000 H   0  0  0  0  0  0  0  0  0  0  0  0
    2.5560    0.0301    0.0000 H   0  0  0  0  0  0  0  0  0  0  0  0
    4.7881   -0.1039    0.0000 H   0  0  0  0  0  0  0  0  0  0  0  0
    5.6350    0.1230    0.0000 H   0  0  0  0  0  0  0  0  0  0  0  0
    5.4081    0.9699    0.0000 H   0  0  0  0  0  0  0  0  0  0  0  0
    3.1540    3.0156    0.0000 H   0  0  0  0  0  0  0  0  0  0  0  0
    2.7554    2.3253    0.0000 H   0  0  0  0  0  0  0  0  0  0  0  0
    5.7087    2.3253    0.0000 H   0  0  0  0  0  0  0  0  0  0  0  0
    5.3101    3.0156    0.0000 H   0  0  0  0  0  0  0  0  0  0  0  0
    4.6306    3.4080    0.0000 H   0  0  0  0  0  0  0  0  0  0  0  0
    3.8335    3.4080    0.0000 H   0  0  0  0  0  0  0  0  0  0  0  0
    5.5981   -2.0530    0.0000 H   0  0  0  0  0  0  0  0  0  0  0  0
    6.2181   -1.4330    0.0000 H   0  0  0  0  0  0  0  0  0  0  0  0
    5.5981   -0.8130    0.0000 H   0  0  0  0  0  0  0  0  0  0  0  0
    4.5611   -2.6090    0.0000 H   0  0  0  0  0  0  0  0  0  0  0  0
    5.4081   -2.8360    0.0000 H   0  0  0  0  0  0  0  0  0  0  0  0
    5.6350   -1.9890    0.0000 H   0  0  0  0  0  0  0  0  0  0  0  0
    3.1120   -2.9330    0.0000 H   0  0  0  0  0  0  0  0  0  0  0  0
    3.7320   -3.5530    0.0000 H   0  0  0  0  0  0  0  0  0  0  0  0
    4.3520   -2.9330    0.0000 H   0  0  0  0  0  0  0  0  0  0  0  0
  1  9  2  0  0  0  0
  2  4  1  0  0  0  0
  2  7  1  0  0  0  0
  2  8  1  0  0  0  0
  2 12  1  0  0  0  0
  3  5  1  0  0  0  0
  3  6  1  0  0  0  0
  3 16  1  0  0  0  0
  3 17  1  0  0  0  0
  4  5  1  0  0  0  0
  4  9  1  0  0  0  0
  4 11  1  0  0  0  0
  5 19  1  0  0  0  0
  5 20  1  0  0  0  0
  6 10  1  0  0  0  0
  6 18  1  0  0  0  0
  6 21  1  0  0  0  0
  7 14  1  0  0  0  0
  7 24  1  0  0  0  0
  7 25  1  0  0  0  0
  8 13  1  0  0  0  0
  8 22  1  0  0  0  0
  8 23  1  0  0  0  0
  9 10  1  0  0  0  0
 10 26  1  0  0  0  0
 10 27  1  0  0  0  0
 11 28  1  0  0  0  0
 11 29  1  0  0  0  0
 11 30  1  0  0  0  0
 12 31  1  0  0  0  0
 12 32  1  0  0  0  0
 12 33  1  0  0  0  0
 13 15  1  0  0  0  0
 13 36  1  0  0  0  0
 13 37  1  0  0  0  0
 14 15  1  0  0  0  0
 14 34  1  0  0  0  0
 14 35  1  0  0  0  0
 15 38  1  0  0  0  0
 15 39  1  0  0  0  0
 16 43  1  0  0  0  0
 16 44  1  0  0  0  0
 16 45  1  0  0  0  0
 17 40  1  0  0  0  0
 17 41  1  0  0  0  0
 17 42  1  0  0  0  0
 18 46  1  0  0  0  0
 18 47  1  0  0  0  0
 18 48  1  0  0  0  0
M  CHG  2   2   1   3   1
M  END
> <PUBCHEM_COMPOUND_CID>
11682

> <PUBCHEM_COMPOUND_CANONICALIZED>
1

> <PUBCHEM_CACTVS_COMPLEXITY>
344

> <PUBCHEM_CACTVS_HBOND_ACCEPTOR>
1

> <PUBCHEM_CACTVS_HBOND_DONOR>
0

> <PUBCHEM_CACTVS_ROTATABLE_BOND>
1

> <PUBCHEM_CACTVS_SUBSKEYS>
AAADceBzIAAAAAAAAAAAAAAAAAAAAAAAAAAsWAAAAAAAAAAAAAAAHgAAAAAADKzBgAQCAAMAAAAIAIAQAAAAAAAAAAAAAAGIAAAAQBoAgCAUAAAAAACAAAEQAAAMAAAAAAAAAAAAAAAAAAAAAAAAAAAAAA==

> <PUBCHEM_IUPAC_OPENEYE_NAME>
1,1,2,5-tetramethyl-5-(1-methylpiperidin-1-ium-1-yl)piperidin-1-ium-4-one

> <PUBCHEM_IUPAC_CAS_NAME>
1,1,2,5-tetramethyl-5-(1-methyl-1-piperidin-1-iumyl)-4-piperidin-1-iumone

> <PUBCHEM_IUPAC_NAME>
1,1,2,5-tetramethyl-5-(1-methylpiperidin-1-ium-1-yl)piperidin-1-ium-4-one

> <PUBCHEM_IUPAC_SYSTEMATIC_NAME>
1,1,2,5-tetramethyl-5-(1-methylpiperidin-1-ium-1-yl)piperidin-1-ium-4-one

> <PUBCHEM_IUPAC_TRADITIONAL_NAME>
1,1,2,5-tetramethyl-5-(1-methylpiperidin-1-ium-1-yl)piperidin-1-ium-4-one

> <PUBCHEM_IUPAC_INCHI>
InChI=1S/C15H30N2O/c1-13-11-14(18)15(2,12-16(13,3)4)17(5)9-7-6-8-10-17/h13H,6-12H2,1-5H3/q+2

> <PUBCHEM_IUPAC_INCHIKEY>
QSIWBFWQWCYEQE-UHFFFAOYSA-N

> <PUBCHEM_XLOGP3_AA>
1.4

> <PUBCHEM_EXACT_MASS>
254.235814

> <PUBCHEM_MOLECULAR_FORMULA>
C15H30N2O+2

> <PUBCHEM_MOLECULAR_WEIGHT>
254.4115

> <PUBCHEM_OPENEYE_CAN_SMILES>
CC1CC(=O)C(C[N+]1(C)C)(C)[N+]2(CCCCC2)C

> <PUBCHEM_OPENEYE_ISO_SMILES>
CC1CC(=O)C(C[N+]1(C)C)(C)[N+]2(CCCCC2)C

> <PUBCHEM_CACTVS_TPSA>
17.1

> <PUBCHEM_MONOISOTOPIC_WEIGHT>
254.235814

> <PUBCHEM_TOTAL_CHARGE>
2

> <PUBCHEM_HEAVY_ATOM_COUNT>
18

> <PUBCHEM_ATOM_DEF_STEREO_COUNT>
0

> <PUBCHEM_ATOM_UDEF_STEREO_COUNT>
2

> <PUBCHEM_BOND_DEF_STEREO_COUNT>
0

> <PUBCHEM_BOND_UDEF_STEREO_COUNT>
0

> <PUBCHEM_ISOTOPIC_ATOM_COUNT>
0

> <PUBCHEM_COMPONENT_COUNT>
1

> <PUBCHEM_CACTVS_TAUTO_COUNT>
2

> <PUBCHEM_COORDINATE_TYPE>
1
5
255

> <PUBCHEM_BONDANNOTATIONS>
4  11  3
6  18  3

$$$$

