17396331
  -OEChem-06241222552D

 32 33  0     0  0  0  0  0  0999 V2000
    5.4641   -3.1012    0.0000 Cl  0  0  0  0  0  0  0  0  0  0  0  0
    2.0000   -3.1012    0.0000 Cl  0  0  0  0  0  0  0  0  0  0  0  0
    6.3301    1.3988    0.0000 S   0  0  0  0  0  0  0  0  0  0  0  0
    4.5981    0.3988    0.0000 O   0  0  0  0  0  0  0  0  0  0  0  0
    8.1097    1.4921    0.0000 N   0  0  0  0  0  0  0  0  0  0  0  0
    5.4641   -1.1012    0.0000 N   0  0  0  0  0  0  0  0  0  0  0  0
    3.7320   -1.1012    0.0000 N   0  0  0  0  0  0  0  0  0  0  0  0
    7.3007    2.8933    0.0000 N   0  0  0  0  0  0  0  0  0  0  0  0
    7.1962    1.8988    0.0000 C   0  0  0  0  0  0  0  0  0  0  0  0
    6.3301    0.3988    0.0000 C   0  0  0  0  0  0  0  0  0  0  0  0
    4.5981   -1.6012    0.0000 C   0  0  0  0  0  0  0  0  0  0  0  0
    5.4641   -0.1012    0.0000 C   0  0  0  0  0  0  0  0  0  0  0  0
    2.8660   -1.6012    0.0000 C   0  0  0  0  0  0  0  0  0  0  0  0
    8.7788    2.2352    0.0000 C   0  0  0  0  0  0  0  0  0  0  0  0
    4.5981   -2.6012    0.0000 C   0  0  0  0  0  0  0  0  0  0  0  0
    8.3176    0.5139    0.0000 C   0  0  0  0  0  0  0  0  0  0  0  0
    2.8660   -2.6012    0.0000 C   0  0  0  0  0  0  0  0  0  0  0  0
    3.7320   -3.1012    0.0000 C   0  0  0  0  0  0  0  0  0  0  0  0
    8.2788    3.1012    0.0000 C   0  0  0  0  0  0  0  0  0  0  0  0
    2.0000   -1.1012    0.0000 C   0  0  0  0  0  0  0  0  0  0  0  0
    6.5422   -0.1838    0.0000 H   0  0  0  0  0  0  0  0  0  0  0  0
    6.9407    0.5064    0.0000 H   0  0  0  0  0  0  0  0  0  0  0  0
    6.0010   -1.4112    0.0000 H   0  0  0  0  0  0  0  0  0  0  0  0
    9.3954    2.1704    0.0000 H   0  0  0  0  0  0  0  0  0  0  0  0
    7.7112    0.3850    0.0000 H   0  0  0  0  0  0  0  0  0  0  0  0
    8.4465   -0.0926    0.0000 H   0  0  0  0  0  0  0  0  0  0  0  0
    8.9241    0.6428    0.0000 H   0  0  0  0  0  0  0  0  0  0  0  0
    3.7320   -3.7212    0.0000 H   0  0  0  0  0  0  0  0  0  0  0  0
    8.5310    3.6676    0.0000 H   0  0  0  0  0  0  0  0  0  0  0  0
    2.3100   -0.5643    0.0000 H   0  0  0  0  0  0  0  0  0  0  0  0
    1.4631   -0.7912    0.0000 H   0  0  0  0  0  0  0  0  0  0  0  0
    1.6900   -1.6382    0.0000 H   0  0  0  0  0  0  0  0  0  0  0  0
  1 15  1  0  0  0  0
  2 17  1  0  0  0  0
  3  9  1  0  0  0  0
  3 10  1  0  0  0  0
  4 12  2  0  0  0  0
  5  9  1  0  0  0  0
  5 14  1  0  0  0  0
  5 16  1  0  0  0  0
  6 11  1  0  0  0  0
  6 12  1  0  0  0  0
  6 23  1  0  0  0  0
  7 11  1  0  0  0  0
  7 13  2  0  0  0  0
  8  9  2  0  0  0  0
  8 19  1  0  0  0  0
 10 12  1  0  0  0  0
 10 21  1  0  0  0  0
 10 22  1  0  0  0  0
 11 15  2  0  0  0  0
 13 17  1  0  0  0  0
 13 20  1  0  0  0  0
 14 19  2  0  0  0  0
 14 24  1  0  0  0  0
 15 18  1  0  0  0  0
 16 25  1  0  0  0  0
 16 26  1  0  0  0  0
 16 27  1  0  0  0  0
 17 18  2  0  0  0  0
 18 28  1  0  0  0  0
 19 29  1  0  0  0  0
 20 30  1  0  0  0  0
 20 31  1  0  0  0  0
 20 32  1  0  0  0  0
M  END
> <PUBCHEM_COMPOUND_CID>
17396331

> <PUBCHEM_COMPOUND_CANONICALIZED>
1

> <PUBCHEM_CACTVS_COMPLEXITY>
349

> <PUBCHEM_CACTVS_HBOND_ACCEPTOR>
4

> <PUBCHEM_CACTVS_HBOND_DONOR>
1

> <PUBCHEM_CACTVS_ROTATABLE_BOND>
4

> <PUBCHEM_CACTVS_SUBSKEYS>
AAADccBzoABGAAAAAAAAAAAAAAAAAWAAAAAsAAAAAAAAAAAB4AAAHgYQAAAACArF1iS/sJfMEAioATd3dACC0C1xF7AJ2CA4dpiIaOLBmpHUIAholQLIyCcQAAAAAAAAAAAAAAAAAAAAAAAAAAAAAAAAAA==

> <PUBCHEM_IUPAC_OPENEYE_NAME>
N-(3,5-dichloro-6-methyl-2-pyridyl)-2-(1-methylimidazol-2-yl)sulfanyl-acetamide

> <PUBCHEM_IUPAC_CAS_NAME>
N-(3,5-dichloro-6-methyl-2-pyridinyl)-2-[(1-methyl-2-imidazolyl)thio]acetamide

> <PUBCHEM_IUPAC_NAME>
N-(3,5-dichloro-6-methylpyridin-2-yl)-2-(1-methylimidazol-2-yl)sulfanylacetamide

> <PUBCHEM_IUPAC_SYSTEMATIC_NAME>
N-[3,5-bis(chloranyl)-6-methyl-pyridin-2-yl]-2-(1-methylimidazol-2-yl)sulfanyl-ethanamide

> <PUBCHEM_IUPAC_TRADITIONAL_NAME>
N-(3,5-dichloro-6-methyl-2-pyridyl)-2-[(1-methylimidazol-2-yl)thio]acetamide

> <PUBCHEM_IUPAC_INCHI>
InChI=1S/C12H12Cl2N4OS/c1-7-8(13)5-9(14)11(16-7)17-10(19)6-20-12-15-3-4-18(12)2/h3-5H,6H2,1-2H3,(H,16,17,19)

> <PUBCHEM_IUPAC_INCHIKEY>
QONDAZYMXVOISN-UHFFFAOYSA-N

> <PUBCHEM_XLOGP3_AA>
2.7

> <PUBCHEM_EXACT_MASS>
330.010887

> <PUBCHEM_MOLECULAR_FORMULA>
C12H12Cl2N4OS

> <PUBCHEM_MOLECULAR_WEIGHT>
331.22088

> <PUBCHEM_OPENEYE_CAN_SMILES>
CC1=NC(=C(C=C1Cl)Cl)NC(=O)CSC2=NC=CN2C

> <PUBCHEM_OPENEYE_ISO_SMILES>
CC1=NC(=C(C=C1Cl)Cl)NC(=O)CSC2=NC=CN2C

> <PUBCHEM_CACTVS_TPSA>
85.1

> <PUBCHEM_MONOISOTOPIC_WEIGHT>
330.010887

> <PUBCHEM_TOTAL_CHARGE>
0

> <PUBCHEM_HEAVY_ATOM_COUNT>
20

> <PUBCHEM_ATOM_DEF_STEREO_COUNT>
0

> <PUBCHEM_ATOM_UDEF_STEREO_COUNT>
0

> <PUBCHEM_BOND_DEF_STEREO_COUNT>
0

> <PUBCHEM_BOND_UDEF_STEREO_COUNT>
0

> <PUBCHEM_ISOTOPIC_ATOM_COUNT>
0

> <PUBCHEM_COMPONENT_COUNT>
1

> <PUBCHEM_CACTVS_TAUTO_COUNT>
8

> <PUBCHEM_COORDINATE_TYPE>
1
5
255

> <PUBCHEM_BONDANNOTATIONS>
11  15  8
13  17  8
14  19  8
15  18  8
17  18  8
5  14  8
5  9  8
7  11  8
7  13  8
8  19  8
8  9  8

$$$$

