5280437
  -OEChem-07051212452D

 52 53  0     1  0  0  0  0  0999 V2000
    8.0627   -0.9400    0.0000 C   0  0  0  0  0  0  0  0  0  0  0  0
    7.1962   -0.4400    0.0000 C   0  0  3  0  0  0  0  0  0  0  0  0
    7.1962   -1.4400    0.0000 C   0  0  3  0  0  0  0  0  0  0  0  0
    6.3301    0.0600    0.0000 C   0  0  0  0  0  0  0  0  0  0  0  0
    8.5627   -1.8060    0.0000 C   0  0  0  0  0  0  0  0  0  0  0  0
    8.5627   -0.0740    0.0000 C   0  0  0  0  0  0  0  0  0  0  0  0
    6.3301   -1.9400    0.0000 C   0  0  0  0  0  0  0  0  0  0  0  0
    6.3301    1.0600    0.0000 C   0  0  0  0  0  0  0  0  0  0  0  0
    5.4641   -1.4400    0.0000 C   0  0  0  0  0  0  0  0  0  0  0  0
    5.4641    1.5600    0.0000 C   0  0  0  0  0  0  0  0  0  0  0  0
    4.5981   -1.9400    0.0000 C   0  0  0  0  0  0  0  0  0  0  0  0
    5.4641   -0.4400    0.0000 C   0  0  0  0  0  0  0  0  0  0  0  0
    4.5981    1.0600    0.0000 C   0  0  0  0  0  0  0  0  0  0  0  0
    5.4641    2.5600    0.0000 C   0  0  0  0  0  0  0  0  0  0  0  0
    3.7320   -1.4400    0.0000 C   0  0  0  0  0  0  0  0  0  0  0  0
    3.7320    1.5600    0.0000 C   0  0  0  0  0  0  0  0  0  0  0  0
    3.7320   -0.4400    0.0000 C   0  0  0  0  0  0  0  0  0  0  0  0
    2.8660    1.0600    0.0000 C   0  0  0  0  0  0  0  0  0  0  0  0
    2.8660    0.0600    0.0000 C   0  0  0  0  0  0  0  0  0  0  0  0
    2.0000   -0.4400    0.0000 C   0  0  0  0  0  0  0  0  0  0  0  0
    7.6211    0.2962    0.0000 H   0  0  0  0  0  0  0  0  0  0  0  0
    7.6211   -2.1762    0.0000 H   0  0  0  0  0  0  0  0  0  0  0  0
    5.7196    0.1677    0.0000 H   0  0  0  0  0  0  0  0  0  0  0  0
    6.1181   -0.5226    0.0000 H   0  0  0  0  0  0  0  0  0  0  0  0
    9.0996   -0.3840    0.0000 H   0  0  0  0  0  0  0  0  0  0  0  0
    8.8727    0.4630    0.0000 H   0  0  0  0  0  0  0  0  0  0  0  0
    8.0258    0.2360    0.0000 H   0  0  0  0  0  0  0  0  0  0  0  0
    8.0258   -2.1160    0.0000 H   0  0  0  0  0  0  0  0  0  0  0  0
    8.8727   -2.3430    0.0000 H   0  0  0  0  0  0  0  0  0  0  0  0
    9.0996   -1.4960    0.0000 H   0  0  0  0  0  0  0  0  0  0  0  0
    6.3301   -2.5600    0.0000 H   0  0  0  0  0  0  0  0  0  0  0  0
    6.9407    0.9523    0.0000 H   0  0  0  0  0  0  0  0  0  0  0  0
    6.5422    1.6426    0.0000 H   0  0  0  0  0  0  0  0  0  0  0  0
    4.1996   -2.4150    0.0000 H   0  0  0  0  0  0  0  0  0  0  0  0
    4.9966   -2.4150    0.0000 H   0  0  0  0  0  0  0  0  0  0  0  0
    6.0841   -0.4400    0.0000 H   0  0  0  0  0  0  0  0  0  0  0  0
    5.4641    0.1800    0.0000 H   0  0  0  0  0  0  0  0  0  0  0  0
    4.8441   -0.4400    0.0000 H   0  0  0  0  0  0  0  0  0  0  0  0
    4.5981    0.4400    0.0000 H   0  0  0  0  0  0  0  0  0  0  0  0
    6.0841    2.5600    0.0000 H   0  0  0  0  0  0  0  0  0  0  0  0
    5.4641    3.1800    0.0000 H   0  0  0  0  0  0  0  0  0  0  0  0
    4.8441    2.5600    0.0000 H   0  0  0  0  0  0  0  0  0  0  0  0
    3.1215   -1.3323    0.0000 H   0  0  0  0  0  0  0  0  0  0  0  0
    3.5200   -2.0226    0.0000 H   0  0  0  0  0  0  0  0  0  0  0  0
    4.1306    2.0349    0.0000 H   0  0  0  0  0  0  0  0  0  0  0  0
    3.3335    2.0349    0.0000 H   0  0  0  0  0  0  0  0  0  0  0  0
    4.2690   -0.1300    0.0000 H   0  0  0  0  0  0  0  0  0  0  0  0
    2.6540    1.6426    0.0000 H   0  0  0  0  0  0  0  0  0  0  0  0
    2.2554    0.9523    0.0000 H   0  0  0  0  0  0  0  0  0  0  0  0
    1.6900    0.0969    0.0000 H   0  0  0  0  0  0  0  0  0  0  0  0
    1.4631   -0.7500    0.0000 H   0  0  0  0  0  0  0  0  0  0  0  0
    2.3100   -0.9769    0.0000 H   0  0  0  0  0  0  0  0  0  0  0  0
  1  2  1  0  0  0  0
  1  3  1  0  0  0  0
  1  5  1  0  0  0  0
  1  6  1  0  0  0  0
  2  3  1  0  0  0  0
  2  4  1  0  0  0  0
  2 21  1  0  0  0  0
  3  7  1  0  0  0  0
  3 22  1  0  0  0  0
  4  8  1  0  0  0  0
  4 23  1  0  0  0  0
  4 24  1  0  0  0  0
  5 28  1  0  0  0  0
  5 29  1  0  0  0  0
  5 30  1  0  0  0  0
  6 25  1  0  0  0  0
  6 26  1  0  0  0  0
  6 27  1  0  0  0  0
  7  9  2  0  0  0  0
  7 31  1  0  0  0  0
  8 10  1  0  0  0  0
  8 32  1  0  0  0  0
  8 33  1  0  0  0  0
  9 11  1  0  0  0  0
  9 12  1  0  0  0  0
 10 13  2  0  0  0  0
 10 14  1  0  0  0  0
 11 15  1  0  0  0  0
 11 34  1  0  0  0  0
 11 35  1  0  0  0  0
 12 36  1  0  0  0  0
 12 37  1  0  0  0  0
 12 38  1  0  0  0  0
 13 16  1  0  0  0  0
 13 39  1  0  0  0  0
 14 40  1  0  0  0  0
 14 41  1  0  0  0  0
 14 42  1  0  0  0  0
 15 17  1  0  0  0  0
 15 43  1  0  0  0  0
 15 44  1  0  0  0  0
 16 18  1  0  0  0  0
 16 45  1  0  0  0  0
 16 46  1  0  0  0  0
 17 19  2  0  0  0  0
 17 47  1  0  0  0  0
 18 19  1  0  0  0  0
 18 48  1  0  0  0  0
 18 49  1  0  0  0  0
 19 20  1  0  0  0  0
 20 50  1  0  0  0  0
 20 51  1  0  0  0  0
 20 52  1  0  0  0  0
M  END
> <PUBCHEM_COMPOUND_CID>
5280437

> <PUBCHEM_COMPOUND_CANONICALIZED>
1

> <PUBCHEM_CACTVS_COMPLEXITY>
431

> <PUBCHEM_CACTVS_HBOND_ACCEPTOR>
0

> <PUBCHEM_CACTVS_HBOND_DONOR>
0

> <PUBCHEM_CACTVS_ROTATABLE_BOND>
0

> <PUBCHEM_CACTVS_SUBSKEYS>
AAADcfB4AAAAAAAAAAAAAAAAGAAAAAAAAAAAAAAAAAAAAAAAAAAAGAAAAAAADwCAAAACAAAAAACAAiBCAAAAAAAgAAAACAAAAAgAAAIAAQAAAAAAgAAIAAMAgMAPgAAAAAAAAAAAAAAAAAAAAAAAAAAAAA==

> <PUBCHEM_IUPAC_OPENEYE_NAME>
(4E,8E,12E)-4,8,12,15,15-pentamethylbicyclo[12.1.0]pentadeca-4,8,12-triene

> <PUBCHEM_IUPAC_CAS_NAME>
(4E,8E,12E)-4,8,12,15,15-pentamethylbicyclo[12.1.0]pentadeca-4,8,12-triene

> <PUBCHEM_IUPAC_NAME>
(4E,8E,12E)-4,8,12,15,15-pentamethylbicyclo[12.1.0]pentadeca-4,8,12-triene

> <PUBCHEM_IUPAC_SYSTEMATIC_NAME>
(4E,8E,12E)-4,8,12,15,15-pentamethylbicyclo[12.1.0]pentadeca-4,8,12-triene

> <PUBCHEM_IUPAC_TRADITIONAL_NAME>
(4E,8E,12E)-4,8,12,15,15-pentamethylbicyclo[12.1.0]pentadeca-4,8,12-triene

> <PUBCHEM_IUPAC_INCHI>
InChI=1S/C20H32/c1-15-8-6-10-16(2)12-13-18-19(20(18,4)5)14-17(3)11-7-9-15/h9-10,14,18-19H,6-8,11-13H2,1-5H3/b15-9+,16-10+,17-14+

> <PUBCHEM_IUPAC_INCHIKEY>
ZJMVJDFTNPZVMB-QOCMWZQCSA-N

> <PUBCHEM_XLOGP3_AA>
5.4

> <PUBCHEM_EXACT_MASS>
272.250401

> <PUBCHEM_MOLECULAR_FORMULA>
C20H32

> <PUBCHEM_MOLECULAR_WEIGHT>
272.46808

> <PUBCHEM_OPENEYE_CAN_SMILES>
CC1=CCCC(=CC2C(C2(C)C)CCC(=CCC1)C)C

> <PUBCHEM_OPENEYE_ISO_SMILES>
C/C/1=C\CC/C(=C/C2C(C2(C)C)CC/C(=C/CC1)/C)/C

> <PUBCHEM_CACTVS_TPSA>
0

> <PUBCHEM_MONOISOTOPIC_WEIGHT>
272.250401

> <PUBCHEM_TOTAL_CHARGE>
0

> <PUBCHEM_HEAVY_ATOM_COUNT>
20

> <PUBCHEM_ATOM_DEF_STEREO_COUNT>
0

> <PUBCHEM_ATOM_UDEF_STEREO_COUNT>
2

> <PUBCHEM_BOND_DEF_STEREO_COUNT>
3

> <PUBCHEM_BOND_UDEF_STEREO_COUNT>
0

> <PUBCHEM_ISOTOPIC_ATOM_COUNT>
0

> <PUBCHEM_COMPONENT_COUNT>
1

> <PUBCHEM_CACTVS_TAUTO_COUNT>
1

> <PUBCHEM_COORDINATE_TYPE>
1
5
255

> <PUBCHEM_BONDANNOTATIONS>
2  21  3
3  22  3

$$$$

