442507
  -OEChem-07051212583D

 23 24  0     1  0  0  0  0  0999 V2000
    3.6634   -0.6802    0.1564 O   0  0  0  0  0  0  0  0  0  0  0  0
    0.6168    2.2203   -0.0082 N   0  0  0  0  0  0  0  0  0  0  0  0
   -2.3003   -0.2388   -0.3262 C   0  0  2  0  0  0  0  0  0  0  0  0
   -1.9510   -1.6644    0.1532 C   0  0  0  0  0  0  0  0  0  0  0  0
   -0.4713   -1.8898   -0.1959 C   0  0  0  0  0  0  0  0  0  0  0  0
   -0.9739    0.4393   -0.1626 C   0  0  0  0  0  0  0  0  0  0  0  0
    0.0609   -0.4956   -0.0942 C   0  0  0  0  0  0  0  0  0  0  0  0
   -3.4414    0.3757    0.4689 C   0  0  0  0  0  0  0  0  0  0  0  0
    1.3766   -0.0912    0.0103 C   0  0  0  0  0  0  0  0  0  0  0  0
   -0.6570    1.7779   -0.1238 C   0  0  0  0  0  0  0  0  0  0  0  0
    1.5952    1.2776    0.0550 C   0  0  0  0  0  0  0  0  0  0  0  0
    2.4822   -1.0308    0.0670 C   0  0  0  0  0  0  0  0  0  0  0  0
   -2.5554   -0.2597   -1.3931 H   0  0  0  0  0  0  0  0  0  0  0  0
   -2.5994   -2.4232   -0.2972 H   0  0  0  0  0  0  0  0  0  0  0  0
   -2.0756   -1.7397    1.2430 H   0  0  0  0  0  0  0  0  0  0  0  0
   -0.3577   -2.2664   -1.2176 H   0  0  0  0  0  0  0  0  0  0  0  0
   -0.0094   -2.5797    0.5156 H   0  0  0  0  0  0  0  0  0  0  0  0
   -3.1970    0.4519    1.5344 H   0  0  0  0  0  0  0  0  0  0  0  0
   -3.6702    1.3849    0.1105 H   0  0  0  0  0  0  0  0  0  0  0  0
   -4.3487   -0.2293    0.3707 H   0  0  0  0  0  0  0  0  0  0  0  0
   -1.4132    2.5512   -0.1897 H   0  0  0  0  0  0  0  0  0  0  0  0
    2.5959    1.6914    0.1410 H   0  0  0  0  0  0  0  0  0  0  0  0
    2.2348   -2.1036    0.0213 H   0  0  0  0  0  0  0  0  0  0  0  0
  1 12  2  0  0  0  0
  2 10  2  0  0  0  0
  2 11  1  0  0  0  0
  3  4  1  0  0  0  0
  3  6  1  0  0  0  0
  3  8  1  0  0  0  0
  3 13  1  0  0  0  0
  4  5  1  0  0  0  0
  4 14  1  0  0  0  0
  4 15  1  0  0  0  0
  5  7  1  0  0  0  0
  5 16  1  0  0  0  0
  5 17  1  0  0  0  0
  6  7  2  0  0  0  0
  6 10  1  0  0  0  0
  7  9  1  0  0  0  0
  8 18  1  0  0  0  0
  8 19  1  0  0  0  0
  8 20  1  0  0  0  0
  9 11  2  0  0  0  0
  9 12  1  0  0  0  0
 10 21  1  0  0  0  0
 11 22  1  0  0  0  0
 12 23  1  0  0  0  0
M  END
> <PUBCHEM_COMPOUND_CID>
442507

> <PUBCHEM_CONFORMER_RMSD>
0.4

> <PUBCHEM_CONFORMER_DIVERSEORDER>
1
2
3
4

> <PUBCHEM_MMFF94_PARTIAL_CHARGES>
13
1 -0.57
10 0.16
11 0.16
12 0.42
2 -0.62
21 0.15
22 0.15
23 0.06
3 0.14
5 0.14
6 -0.14
7 -0.14
9 0.09

> <PUBCHEM_EFFECTIVE_ROTOR_COUNT>
1.6

> <PUBCHEM_PHARMACOPHORE_FEATURES>
4
1 1 acceptor
1 2 acceptor
5 3 4 5 6 7 rings
6 2 6 7 9 10 11 rings

> <PUBCHEM_HEAVY_ATOM_COUNT>
12

> <PUBCHEM_ATOM_DEF_STEREO_COUNT>
1

> <PUBCHEM_ATOM_UDEF_STEREO_COUNT>
0

> <PUBCHEM_BOND_DEF_STEREO_COUNT>
0

> <PUBCHEM_BOND_UDEF_STEREO_COUNT>
0

> <PUBCHEM_ISOTOPIC_ATOM_COUNT>
0

> <PUBCHEM_COMPONENT_COUNT>
1

> <PUBCHEM_CACTVS_TAUTO_COUNT>
1

> <PUBCHEM_CONFORMER_ID>
0006C08B00000001

> <PUBCHEM_MMFF94_ENERGY>
32.2791

> <PUBCHEM_FEATURE_SELFOVERLAP>
20.382

> <PUBCHEM_SHAPE_FINGERPRINT>
10130415 120 18342176673944005266
10219947 1 18408882970923147107
12032990 46 18411130368184662671
12423570 1 16453451821900015436
12524768 44 18409452448942086790
13380535 21 18126273151909503125
15375462 189 18131635603446990554
16945 1 18340777017127264759
17990270 104 18196375809994037378
193761 8 18050286955649508503
19973954 147 18194682558066614523
20511035 2 18189897504694633989
20588541 1 18336542823634567823
207724 885 18411978057426726065
20871998 184 18189058753685435950
21040471 1 18121497955983488301
21501502 16 18266175020228665559
2334 1 18194683657351499455
23402539 116 18261969546955261471
23402655 69 18049462614941813621
23463225 33 18412261765718034078
23552423 10 18054508002178792780
23559900 14 18336270158664435782
2748010 2 18338802182611591759
5084963 1 18186807975952595675
528886 8 18409172133785939627
7364860 26 18118686517657382936

> <PUBCHEM_SHAPE_MULTIPOLES>
236.1
4.34
2.07
0.64
0.64
0.39
0
-0.9
0.56
0.05
-0.04
-0.11
-0.01
-0.06

> <PUBCHEM_SHAPE_SELFOVERLAP>
507.636

> <PUBCHEM_SHAPE_VOLUME>
132.4

> <PUBCHEM_COORDINATE_TYPE>
2
5
10

$$$$

