484
  -OEChem-07051212502D

 11 11  0     0  0  0  0  0  0999 V2000
    2.8090   -0.4594    0.0000 N   0  0  0  0  0  0  0  0  0  0  0  0
    2.3090    1.0794    0.0000 N   0  0  0  0  0  0  0  0  0  0  0  0
    4.5691   -0.1807    0.0000 N   0  0  0  0  0  0  0  0  0  0  0  0
    3.6180    0.1284    0.0000 C   0  0  0  0  0  0  0  0  0  0  0  0
    3.3090    1.0794    0.0000 C   0  0  0  0  0  0  0  0  0  0  0  0
    2.0000    0.1284    0.0000 C   0  0  0  0  0  0  0  0  0  0  0  0
    2.8090   -1.0794    0.0000 H   0  0  0  0  0  0  0  0  0  0  0  0
    3.6734    1.5810    0.0000 H   0  0  0  0  0  0  0  0  0  0  0  0
    1.4103   -0.0632    0.0000 H   0  0  0  0  0  0  0  0  0  0  0  0
    5.0298    0.2342    0.0000 H   0  0  0  0  0  0  0  0  0  0  0  0
    4.6980   -0.7871    0.0000 H   0  0  0  0  0  0  0  0  0  0  0  0
  1  4  1  0  0  0  0
  1  6  1  0  0  0  0
  1  7  1  0  0  0  0
  2  5  1  0  0  0  0
  2  6  2  0  0  0  0
  3  4  1  0  0  0  0
  3 10  1  0  0  0  0
  3 11  1  0  0  0  0
  4  5  2  0  0  0  0
  5  8  1  0  0  0  0
  6  9  1  0  0  0  0
M  END
> <PUBCHEM_COMPOUND_CID>
484

> <PUBCHEM_COMPOUND_CANONICALIZED>
1

> <PUBCHEM_CACTVS_COMPLEXITY>
45.3

> <PUBCHEM_CACTVS_HBOND_ACCEPTOR>
2

> <PUBCHEM_CACTVS_HBOND_DONOR>
2

> <PUBCHEM_CACTVS_ROTATABLE_BOND>
0

> <PUBCHEM_CACTVS_SUBSKEYS>
AAADcYBDAAAAAAAAAAAAAAAAAAAAAWAAAAAAAAAAAAAAAAABgAAAHAAQAAAAAADBAgQtsBbJkACgABInZAAAgC2REqABQYAYMACASAAACAAQAAAIEAIAACAAAAAAAAAAAAAAAAAAAAAAAAAAAAAAAAAAAA==

> <PUBCHEM_IUPAC_OPENEYE_NAME>
1H-imidazol-5-amine

> <PUBCHEM_IUPAC_CAS_NAME>
1H-imidazol-5-amine

> <PUBCHEM_IUPAC_NAME>
1H-imidazol-5-amine

> <PUBCHEM_IUPAC_SYSTEMATIC_NAME>
1H-imidazol-5-amine

> <PUBCHEM_IUPAC_TRADITIONAL_NAME>
1H-imidazol-5-ylamine

> <PUBCHEM_IUPAC_INCHI>
InChI=1S/C3H5N3/c4-3-1-5-2-6-3/h1-2H,4H2,(H,5,6)

> <PUBCHEM_IUPAC_INCHIKEY>
QRZMXADUXZADTF-UHFFFAOYSA-N

> <PUBCHEM_XLOGP3_AA>
-0.3

> <PUBCHEM_EXACT_MASS>
83.048347

> <PUBCHEM_MOLECULAR_FORMULA>
C3H5N3

> <PUBCHEM_MOLECULAR_WEIGHT>
83.0919

> <PUBCHEM_OPENEYE_CAN_SMILES>
C1=C(NC=N1)N

> <PUBCHEM_OPENEYE_ISO_SMILES>
C1=C(NC=N1)N

> <PUBCHEM_CACTVS_TPSA>
54.7

> <PUBCHEM_MONOISOTOPIC_WEIGHT>
83.048347

> <PUBCHEM_TOTAL_CHARGE>
0

> <PUBCHEM_HEAVY_ATOM_COUNT>
6

> <PUBCHEM_ATOM_DEF_STEREO_COUNT>
0

> <PUBCHEM_ATOM_UDEF_STEREO_COUNT>
0

> <PUBCHEM_BOND_DEF_STEREO_COUNT>
0

> <PUBCHEM_BOND_UDEF_STEREO_COUNT>
0

> <PUBCHEM_ISOTOPIC_ATOM_COUNT>
0

> <PUBCHEM_COMPONENT_COUNT>
1

> <PUBCHEM_CACTVS_TAUTO_COUNT>
2

> <PUBCHEM_COORDINATE_TYPE>
1
5
255

> <PUBCHEM_BONDANNOTATIONS>
1  4  8
1  6  8
2  5  8
2  6  8
4  5  8

$$$$

