9920
  -OEChem-06261204113D

 46 49  0     1  0  0  0  0  0999 V2000
   -5.5519    0.3521    0.5255 S   0  0  0  0  0  0  0  0  0  0  0  0
    6.1338    1.1836    0.1741 O   0  0  0  0  0  0  0  0  0  0  0  0
   -4.6649   -0.1923   -0.7479 O   0  0  0  0  0  0  0  0  0  0  0  0
   -7.0824   -0.0671    0.1425 O   0  0  0  0  0  0  0  0  0  0  0  0
   -5.1716   -0.3866    1.7155 O   0  0  0  0  0  0  0  0  0  0  0  0
   -5.4861    1.8019    0.5213 O   0  0  0  0  0  0  0  0  0  0  0  0
    3.1997   -0.7943    0.4156 C   0  0  1  0  0  0  0  0  0  0  0  0
    3.7988    0.6219    0.5833 C   0  0  2  0  0  0  0  0  0  0  0  0
    1.6608   -0.8107    0.4282 C   0  0  1  0  0  0  0  0  0  0  0  0
    1.0279    0.2164   -0.5419 C   0  0  2  0  0  0  0  0  0  0  0  0
    3.0908    1.6751   -0.2824 C   0  0  0  0  0  0  0  0  0  0  0  0
    3.8654   -1.3336   -0.8571 C   0  0  0  0  0  0  0  0  0  0  0  0
    1.5662    1.6173   -0.1913 C   0  0  0  0  0  0  0  0  0  0  0  0
    1.0937   -2.2041    0.1467 C   0  0  0  0  0  0  0  0  0  0  0  0
    5.2013    0.4023    0.0283 C   0  0  0  0  0  0  0  0  0  0  0  0
    5.3200   -0.8957   -0.7306 C   0  0  0  0  0  0  0  0  0  0  0  0
    3.8558    1.0397    2.0529 C   0  0  0  0  0  0  0  0  0  0  0  0
   -0.4960    0.1116   -0.5647 C   0  0  0  0  0  0  0  0  0  0  0  0
   -0.3974   -2.2266    0.4645 C   0  0  0  0  0  0  0  0  0  0  0  0
   -1.1503   -1.0572   -0.1191 C   0  0  0  0  0  0  0  0  0  0  0  0
   -1.2799    1.1403   -1.1179 C   0  0  0  0  0  0  0  0  0  0  0  0
   -2.5528   -1.1399   -0.1727 C   0  0  0  0  0  0  0  0  0  0  0  0
   -2.6717    1.0414   -1.1759 C   0  0  0  0  0  0  0  0  0  0  0  0
   -3.3091   -0.0956   -0.6968 C   0  0  0  0  0  0  0  0  0  0  0  0
    3.5441   -1.4292    1.2466 H   0  0  0  0  0  0  0  0  0  0  0  0
    1.3569   -0.5373    1.4506 H   0  0  0  0  0  0  0  0  0  0  0  0
    1.3459   -0.0218   -1.5664 H   0  0  0  0  0  0  0  0  0  0  0  0
    3.3769    1.5549   -1.3363 H   0  0  0  0  0  0  0  0  0  0  0  0
    3.4310    2.6812   -0.0047 H   0  0  0  0  0  0  0  0  0  0  0  0
    3.4241   -0.9002   -1.7611 H   0  0  0  0  0  0  0  0  0  0  0  0
    3.7872   -2.4223   -0.9385 H   0  0  0  0  0  0  0  0  0  0  0  0
    1.2362    1.9088    0.8137 H   0  0  0  0  0  0  0  0  0  0  0  0
    1.1732    2.3751   -0.8770 H   0  0  0  0  0  0  0  0  0  0  0  0
    1.6018   -2.9626    0.7535 H   0  0  0  0  0  0  0  0  0  0  0  0
    1.2508   -2.4736   -0.9055 H   0  0  0  0  0  0  0  0  0  0  0  0
    5.7837   -0.7425   -1.7074 H   0  0  0  0  0  0  0  0  0  0  0  0
    5.8990   -1.6045   -0.1317 H   0  0  0  0  0  0  0  0  0  0  0  0
    4.4442    0.3291    2.6448 H   0  0  0  0  0  0  0  0  0  0  0  0
    4.3336    2.0194    2.1665 H   0  0  0  0  0  0  0  0  0  0  0  0
    2.8570    1.1001    2.4959 H   0  0  0  0  0  0  0  0  0  0  0  0
   -0.5371   -2.2120    1.5529 H   0  0  0  0  0  0  0  0  0  0  0  0
   -0.8202   -3.1668    0.0903 H   0  0  0  0  0  0  0  0  0  0  0  0
   -0.8221    2.0364   -1.5263 H   0  0  0  0  0  0  0  0  0  0  0  0
   -3.0554   -2.0332    0.1926 H   0  0  0  0  0  0  0  0  0  0  0  0
   -3.2487    1.8567   -1.6040 H   0  0  0  0  0  0  0  0  0  0  0  0
   -7.3596    0.1474   -0.7790 H   0  0  0  0  0  0  0  0  0  0  0  0
  1  3  1  0  0  0  0
  1  4  1  0  0  0  0
  1  5  2  0  0  0  0
  1  6  2  0  0  0  0
  2 15  2  0  0  0  0
  3 24  1  0  0  0  0
  4 46  1  0  0  0  0
  7  8  1  0  0  0  0
  7  9  1  0  0  0  0
  7 12  1  0  0  0  0
  7 25  1  0  0  0  0
  8 11  1  0  0  0  0
  8 15  1  0  0  0  0
  8 17  1  0  0  0  0
  9 10  1  0  0  0  0
  9 14  1  0  0  0  0
  9 26  1  0  0  0  0
 10 13  1  0  0  0  0
 10 18  1  0  0  0  0
 10 27  1  0  0  0  0
 11 13  1  0  0  0  0
 11 28  1  0  0  0  0
 11 29  1  0  0  0  0
 12 16  1  0  0  0  0
 12 30  1  0  0  0  0
 12 31  1  0  0  0  0
 13 32  1  0  0  0  0
 13 33  1  0  0  0  0
 14 19  1  0  0  0  0
 14 34  1  0  0  0  0
 14 35  1  0  0  0  0
 15 16  1  0  0  0  0
 16 36  1  0  0  0  0
 16 37  1  0  0  0  0
 17 38  1  0  0  0  0
 17 39  1  0  0  0  0
 17 40  1  0  0  0  0
 18 20  2  0  0  0  0
 18 21  1  0  0  0  0
 19 20  1  0  0  0  0
 19 41  1  0  0  0  0
 19 42  1  0  0  0  0
 20 22  1  0  0  0  0
 21 23  2  0  0  0  0
 21 43  1  0  0  0  0
 22 24  2  0  0  0  0
 22 44  1  0  0  0  0
 23 24  1  0  0  0  0
 23 45  1  0  0  0  0
M  END
> <PUBCHEM_COMPOUND_CID>
9920

> <PUBCHEM_CONFORMER_RMSD>
0.6

> <PUBCHEM_CONFORMER_DIVERSEORDER>
1
7
8
2
5
4
6
3

> <PUBCHEM_MMFF94_PARTIAL_CHARGES>
21
1 1.67
10 0.14
15 0.45
16 0.06
18 -0.14
19 0.14
2 -0.57
20 -0.14
21 -0.15
22 -0.15
23 -0.15
24 0.08
3 -0.27
4 -0.68
43 0.15
44 0.15
45 0.15
46 0.5
5 -0.65
6 -0.65
8 0.06

> <PUBCHEM_EFFECTIVE_ROTOR_COUNT>
3.2

> <PUBCHEM_PHARMACOPHORE_FEATURES>
9
1 2 acceptor
1 4 acceptor
1 5 acceptor
1 6 acceptor
4 1 4 5 6 anion
5 7 8 12 15 16 rings
6 18 20 21 22 23 24 rings
6 7 8 9 10 11 13 rings
6 9 10 14 18 19 20 rings

> <PUBCHEM_HEAVY_ATOM_COUNT>
24

> <PUBCHEM_ATOM_DEF_STEREO_COUNT>
3

> <PUBCHEM_ATOM_UDEF_STEREO_COUNT>
0

> <PUBCHEM_BOND_DEF_STEREO_COUNT>
0

> <PUBCHEM_BOND_UDEF_STEREO_COUNT>
0

> <PUBCHEM_ISOTOPIC_ATOM_COUNT>
0

> <PUBCHEM_COMPONENT_COUNT>
1

> <PUBCHEM_CACTVS_TAUTO_COUNT>
2

> <PUBCHEM_CONFORMER_ID>
000026C000000001

> <PUBCHEM_MMFF94_ENERGY>
62.8325

> <PUBCHEM_FEATURE_SELFOVERLAP>
45.908

> <PUBCHEM_SHAPE_FINGERPRINT>
10 15 17917434185990194376
10447042 23 8070033242306169992
11045977 3 18060413591486477747
11089746 13 17167866361141943449
11578080 2 17388551410596593490
11646440 116 18407758127325487408
11796584 16 13470684850399457433
11963148 33 17489588935471628251
12236239 1 17748827427659989719
12403259 415 18342747342085825412
12592029 89 18131357435473648554
12596602 18 17821729425665013867
12730499 353 18409444812870568742
12916748 109 18273215313603904004
13140716 1 18057883541567765339
13533116 47 17821727273359098462
13668630 136 11383831580526954113
14251752 14 14490468707473766252
14341114 176 18409444808216333740
14790565 3 18342168968767966853
14955137 171 18130497583031597173
15081414 286 18410011057148068500
15183329 4 15719106968226342083
15196674 1 18270971244673199446
15788980 27 15719396118109150631
1601671 61 18272373070617235774
1813 80 16845569833417189229
18186145 218 18336555975140750942
18608769 82 18343017753094990386
19141452 34 18335422326786164390
19784866 170 18202282533020178983
21033648 29 18339657697089766393
21267235 1 18342738572506437510
221357 26 18186522137537181460
22182313 1 18058455472756927607
22224240 67 18272089384006986139
22956985 138 16771003282773603106
23536379 177 16877942745720825007
23559900 14 18410577280420288350
23569914 2 16593705869064444441
23569943 247 18118399785499258158
2838139 119 16588303934488352745
3009799 131 7781515901982767835
335352 9 18412262827065599550
350125 39 18343580745982403612
3545911 37 18408887330072281590
3680242 22 18272940457224479354
38695281 34 18113899394475643751
465052 167 17275384304629096848
495365 180 17531823355190639226
5104073 3 18199475363606638920
5283173 99 6771601252135521395
542803 24 17530969085451497271
5718773 13 10159159241616698120
633830 44 18188220826956452846
7495541 125 15554441877583253324
8272917 22 17167857595599008926
9996256 80 18334858299355036247

> <PUBCHEM_SHAPE_MULTIPOLES>
468.41
14.21
1.88
1.19
11.71
0.37
0.37
-3.27
2.53
-0.7
0.06
-0.02
-0.22
0.7

> <PUBCHEM_SHAPE_SELFOVERLAP>
1006.676

> <PUBCHEM_SHAPE_VOLUME>
261

> <PUBCHEM_COORDINATE_TYPE>
2
5
10

$$$$

