442155
  -OEChem-07051212573D

 49 53  0     1  0  0  0  0  0999 V2000
   -0.6013    0.7862    1.0334 O   0  0  0  0  0  0  0  0  0  0  0  0
   -5.0164    1.0100    0.8979 O   0  0  0  0  0  0  0  0  0  0  0  0
   -6.0174   -0.9608   -0.0657 O   0  0  0  0  0  0  0  0  0  0  0  0
    4.6409   -1.9552    0.9725 O   0  0  0  0  0  0  0  0  0  0  0  0
    5.7698    0.5403    0.5158 O   0  0  0  0  0  0  0  0  0  0  0  0
   -2.2605    2.2862    1.6293 O   0  0  0  0  0  0  0  0  0  0  0  0
   -0.2744    0.5339   -1.7698 N   0  0  1  0  0  0  0  0  0  0  0  0
    0.3354   -0.4481   -0.8459 C   0  0  2  0  0  0  0  0  0  0  0  0
   -0.5130   -0.5353    0.4330 C   0  0  2  0  0  0  0  0  0  0  0  0
    1.7902   -0.1750   -0.5000 C   0  0  0  0  0  0  0  0  0  0  0  0
    0.0698    1.9140   -1.4062 C   0  0  0  0  0  0  0  0  0  0  0  0
    1.5754    2.1877   -1.3863 C   0  0  0  0  0  0  0  0  0  0  0  0
    2.3629    1.0904   -0.7202 C   0  0  0  0  0  0  0  0  0  0  0  0
   -1.9347   -0.8714    0.1928 C   0  0  0  0  0  0  0  0  0  0  0  0
   -2.7324    0.1684    0.6327 C   0  0  0  0  0  0  0  0  0  0  0  0
    0.0370    0.2391   -3.1689 C   0  0  0  0  0  0  0  0  0  0  0  0
    2.5735   -1.1902    0.0722 C   0  0  0  0  0  0  0  0  0  0  0  0
    3.7038    1.3154   -0.3772 C   0  0  0  0  0  0  0  0  0  0  0  0
   -1.8923    1.2267    1.1636 C   0  0  0  0  0  0  0  0  0  0  0  0
   -2.4985   -2.0185   -0.3634 C   0  0  0  0  0  0  0  0  0  0  0  0
   -4.0938    0.0913    0.5235 C   0  0  0  0  0  0  0  0  0  0  0  0
    3.9038   -0.9534    0.4172 C   0  0  0  0  0  0  0  0  0  0  0  0
    4.4684    0.2990    0.1931 C   0  0  0  0  0  0  0  0  0  0  0  0
   -4.6579   -1.0361   -0.0275 C   0  0  0  0  0  0  0  0  0  0  0  0
   -3.8919   -2.1036   -0.4780 C   0  0  0  0  0  0  0  0  0  0  0  0
   -6.2370    0.3388    0.5223 C   0  0  0  0  0  0  0  0  0  0  0  0
    5.3577   -2.8038    0.0781 C   0  0  0  0  0  0  0  0  0  0  0  0
    6.0328    1.0240    1.8318 C   0  0  0  0  0  0  0  0  0  0  0  0
    0.2984   -1.4366   -1.3267 H   0  0  0  0  0  0  0  0  0  0  0  0
   -0.0832   -1.2098    1.1824 H   0  0  0  0  0  0  0  0  0  0  0  0
   -0.3701    2.2721   -0.4811 H   0  0  0  0  0  0  0  0  0  0  0  0
   -0.3834    2.5897   -2.1457 H   0  0  0  0  0  0  0  0  0  0  0  0
    1.7540    3.1378   -0.8681 H   0  0  0  0  0  0  0  0  0  0  0  0
    1.9462    2.3009   -2.4128 H   0  0  0  0  0  0  0  0  0  0  0  0
   -0.4505    0.9608   -3.8337 H   0  0  0  0  0  0  0  0  0  0  0  0
   -0.3569   -0.7459   -3.4443 H   0  0  0  0  0  0  0  0  0  0  0  0
    1.1109    0.2451   -3.3823 H   0  0  0  0  0  0  0  0  0  0  0  0
    2.1407   -2.1721    0.2513 H   0  0  0  0  0  0  0  0  0  0  0  0
    4.1541    2.2880   -0.5629 H   0  0  0  0  0  0  0  0  0  0  0  0
   -1.8719   -2.8370   -0.7031 H   0  0  0  0  0  0  0  0  0  0  0  0
   -4.3565   -2.9845   -0.9078 H   0  0  0  0  0  0  0  0  0  0  0  0
   -6.7735    0.9644   -0.2003 H   0  0  0  0  0  0  0  0  0  0  0  0
   -6.8607    0.2186    1.4156 H   0  0  0  0  0  0  0  0  0  0  0  0
    5.8997   -3.5460    0.6705 H   0  0  0  0  0  0  0  0  0  0  0  0
    6.0811   -2.2259   -0.5055 H   0  0  0  0  0  0  0  0  0  0  0  0
    4.6667   -3.3266   -0.5909 H   0  0  0  0  0  0  0  0  0  0  0  0
    5.6984    0.3007    2.5821 H   0  0  0  0  0  0  0  0  0  0  0  0
    5.5387    1.9876    1.9916 H   0  0  0  0  0  0  0  0  0  0  0  0
    7.1123    1.1626    1.9363 H   0  0  0  0  0  0  0  0  0  0  0  0
  1  9  1  0  0  0  0
  1 19  1  0  0  0  0
  2 21  1  0  0  0  0
  2 26  1  0  0  0  0
  3 24  1  0  0  0  0
  3 26  1  0  0  0  0
  4 22  1  0  0  0  0
  4 27  1  0  0  0  0
  5 23  1  0  0  0  0
  5 28  1  0  0  0  0
  6 19  2  0  0  0  0
  7  8  1  0  0  0  0
  7 11  1  0  0  0  0
  7 16  1  0  0  0  0
  8  9  1  0  0  0  0
  8 10  1  0  0  0  0
  8 29  1  0  0  0  0
  9 14  1  0  0  0  0
  9 30  1  0  0  0  0
 10 13  1  0  0  0  0
 10 17  2  0  0  0  0
 11 12  1  0  0  0  0
 11 31  1  0  0  0  0
 11 32  1  0  0  0  0
 12 13  1  0  0  0  0
 12 33  1  0  0  0  0
 12 34  1  0  0  0  0
 13 18  2  0  0  0  0
 14 15  2  0  0  0  0
 14 20  1  0  0  0  0
 15 19  1  0  0  0  0
 15 21  1  0  0  0  0
 16 35  1  0  0  0  0
 16 36  1  0  0  0  0
 16 37  1  0  0  0  0
 17 22  1  0  0  0  0
 17 38  1  0  0  0  0
 18 23  1  0  0  0  0
 18 39  1  0  0  0  0
 20 25  2  0  0  0  0
 20 40  1  0  0  0  0
 21 24  2  0  0  0  0
 22 23  2  0  0  0  0
 24 25  1  0  0  0  0
 25 41  1  0  0  0  0
 26 42  1  0  0  0  0
 26 43  1  0  0  0  0
 27 44  1  0  0  0  0
 27 45  1  0  0  0  0
 27 46  1  0  0  0  0
 28 47  1  0  0  0  0
 28 48  1  0  0  0  0
 28 49  1  0  0  0  0
M  END
> <PUBCHEM_COMPOUND_CID>
442155

> <PUBCHEM_CONFORMER_RMSD>
0.8

> <PUBCHEM_CONFORMER_DIVERSEORDER>
1
4
2
3

> <PUBCHEM_MMFF94_PARTIAL_CHARGES>
32
1 -0.43
10 -0.14
11 0.27
12 0.14
13 -0.14
14 -0.14
15 0.09
16 0.27
17 -0.15
18 -0.15
19 0.63
2 -0.36
20 -0.15
21 0.08
22 0.08
23 0.08
24 0.08
25 -0.15
26 0.56
27 0.28
28 0.28
3 -0.36
38 0.15
39 0.15
4 -0.36
40 0.15
41 0.15
5 -0.36
6 -0.57
7 -0.81
8 0.41
9 0.42

> <PUBCHEM_EFFECTIVE_ROTOR_COUNT>
4.8

> <PUBCHEM_PHARMACOPHORE_FEATURES>
11
1 2 acceptor
1 3 acceptor
1 4 acceptor
1 5 acceptor
1 6 acceptor
1 7 cation
5 1 9 14 15 19 rings
5 2 3 21 24 26 rings
6 10 13 17 18 22 23 rings
6 14 15 20 21 24 25 rings
6 7 8 10 11 12 13 rings

> <PUBCHEM_HEAVY_ATOM_COUNT>
28

> <PUBCHEM_ATOM_DEF_STEREO_COUNT>
2

> <PUBCHEM_ATOM_UDEF_STEREO_COUNT>
0

> <PUBCHEM_BOND_DEF_STEREO_COUNT>
0

> <PUBCHEM_BOND_UDEF_STEREO_COUNT>
0

> <PUBCHEM_ISOTOPIC_ATOM_COUNT>
0

> <PUBCHEM_COMPONENT_COUNT>
1

> <PUBCHEM_CACTVS_TAUTO_COUNT>
1

> <PUBCHEM_CONFORMER_ID>
0006BF2B00000001

> <PUBCHEM_MMFF94_ENERGY>
109.0595

> <PUBCHEM_FEATURE_SELFOVERLAP>
56.084

> <PUBCHEM_SHAPE_FINGERPRINT>
10 15 17240773839973428944
10165383 225 4823220545853764552
10906281 52 17774149099354988852
11578080 2 18269017339323046469
12107183 9 17831574645668539994
12166972 35 18342170064237698145
12236239 1 18412543211036233715
12467345 10 18411136935347628155
12516196 113 18060138734627102038
12596602 18 18041280976682340722
12892183 10 18187086157158810760
12969540 114 14851608799280602781
13004483 165 18341901817533055093
13134695 92 17774994649039389621
13533116 47 18335701671949758450
13540713 4 18055655034501176948
13544653 18 17704071802624965870
13583140 156 18041576788043912560
13782708 43 14979379683170752209
13911987 19 15285358401117830009
14341114 176 18335135410423304650
14739800 52 18042124254640699976
15420108 30 17546440541347406737
15510800 12 15266240184141192608
17349148 13 18335129900001109559
17357779 13 17131839758866884446
17492 89 18199458866659113563
17980427 23 18040434369798513701
1813 80 16988840592547442574
18222031 100 18202277031188204318
19141452 34 18273215266064280171
20511986 3 18336277794446271235
20715895 44 18265044911977020469
21033648 29 16916520146785572357
21065198 48 18335134323980941888
21285901 2 16630531768768037486
21859007 373 18057047028527049653
23175994 123 15913323585591766031
23227448 37 16299524764336833992
23402539 116 18113618984966644485
23557571 272 17168685540523575145
23559900 14 17823393007467641902
23569943 247 17630332067234524835
2637199 183 8718835279505759348
3004659 81 18336256903340306158
3027735 51 16557638601737598032
314173 85 17346880061326450094
345986 75 17987815123216015464
34797466 226 16950838124759115968
3633792 109 18341905134002318239
404807 14 17106481975652571007
439807 62 18195526979657496943
5104073 3 18333722516549130587
9971528 1 17775281638579748933

> <PUBCHEM_SHAPE_MULTIPOLES>
536.03
13.37
2.28
1.68
0.14
0.55
0.89
3.72
-5.69
1.4
0.16
0.44
-0.85
-0.94

> <PUBCHEM_SHAPE_SELFOVERLAP>
1199.062

> <PUBCHEM_SHAPE_VOLUME>
286.8

> <PUBCHEM_COORDINATE_TYPE>
2
5
10

$$$$

