6857531
  -OEChem-07051213153D

 66 69  0     1  0  0  0  0  0999 V2000
   -1.3853   -0.1279    0.2739 C   0  0  1  0  0  0  0  0  0  0  0  0
   -0.5197    1.0445   -0.2369 C   0  0  2  0  0  0  0  0  0  0  0  0
    0.9312    0.9729    0.2518 C   0  0  1  0  0  0  0  0  0  0  0  0
    1.5618   -0.3645   -0.2567 C   0  0  1  0  0  0  0  0  0  0  0  0
    3.0745   -0.4953    0.1587 C   0  0  2  0  0  0  0  0  0  0  0  0
   -2.7454    0.2836   -0.3412 C   0  0  2  0  0  0  0  0  0  0  0  0
   -0.7925   -1.4286   -0.2863 C   0  0  0  0  0  0  0  0  0  0  0  0
    0.6876   -1.5944    0.1047 C   0  0  0  0  0  0  0  0  0  0  0  0
    3.8192    0.7639   -0.3912 C   0  0  1  0  0  0  0  0  0  0  0  0
   -1.3545    2.2779    0.0942 C   0  0  0  0  0  0  0  0  0  0  0  0
    1.7438    2.1870   -0.2206 C   0  0  0  0  0  0  0  0  0  0  0  0
   -2.8087    1.8104   -0.1011 C   0  0  0  0  0  0  0  0  0  0  0  0
    3.2240    2.0737    0.1375 C   0  0  0  0  0  0  0  0  0  0  0  0
    3.7179   -1.7481   -0.5013 C   0  0  0  0  0  0  0  0  0  0  0  0
   -1.4775   -0.2212    1.8178 C   0  0  0  0  0  0  0  0  0  0  0  0
   -3.9764   -0.4482    0.1742 C   0  0  1  0  0  0  0  0  0  0  0  0
    5.3368    0.7077   -0.1671 C   0  0  0  0  0  0  0  0  0  0  0  0
    3.2128   -0.6279    1.6971 C   0  0  0  0  0  0  0  0  0  0  0  0
    5.2380   -1.8206   -0.3300 C   0  0  0  0  0  0  0  0  0  0  0  0
    5.9367   -0.5481   -0.7936 C   0  0  0  0  0  0  0  0  0  0  0  0
   -5.2802    0.0269   -0.5000 C   0  0  0  0  0  0  0  0  0  0  0  0
   -3.8158   -1.9581   -0.0392 C   0  0  0  0  0  0  0  0  0  0  0  0
   -6.5332   -0.6569    0.0522 C   0  0  0  0  0  0  0  0  0  0  0  0
   -7.7953   -0.1087   -0.5967 C   0  0  0  0  0  0  0  0  0  0  0  0
   -0.4814    0.9929   -1.3383 H   0  0  0  0  0  0  0  0  0  0  0  0
    0.9360    0.9910    1.3461 H   0  0  0  0  0  0  0  0  0  0  0  0
    1.5473   -0.3139   -1.3574 H   0  0  0  0  0  0  0  0  0  0  0  0
   -2.6925    0.1323   -1.4305 H   0  0  0  0  0  0  0  0  0  0  0  0
   -0.8678   -1.4372   -1.3813 H   0  0  0  0  0  0  0  0  0  0  0  0
   -1.2988   -2.3252    0.0686 H   0  0  0  0  0  0  0  0  0  0  0  0
    0.7521   -1.8073    1.1762 H   0  0  0  0  0  0  0  0  0  0  0  0
    1.0682   -2.4839   -0.4098 H   0  0  0  0  0  0  0  0  0  0  0  0
    3.6750    0.7775   -1.4832 H   0  0  0  0  0  0  0  0  0  0  0  0
   -1.1174    3.1213   -0.5622 H   0  0  0  0  0  0  0  0  0  0  0  0
   -1.1939    2.6063    1.1271 H   0  0  0  0  0  0  0  0  0  0  0  0
    1.3426    3.1051    0.2245 H   0  0  0  0  0  0  0  0  0  0  0  0
    1.6471    2.2969   -1.3085 H   0  0  0  0  0  0  0  0  0  0  0  0
   -3.3984    2.0680    0.7860 H   0  0  0  0  0  0  0  0  0  0  0  0
   -3.2662    2.3158   -0.9590 H   0  0  0  0  0  0  0  0  0  0  0  0
    3.7566    2.9272   -0.2995 H   0  0  0  0  0  0  0  0  0  0  0  0
    3.3544    2.1511    1.2229 H   0  0  0  0  0  0  0  0  0  0  0  0
    3.4900   -1.7514   -1.5754 H   0  0  0  0  0  0  0  0  0  0  0  0
    3.2853   -2.6671   -0.0886 H   0  0  0  0  0  0  0  0  0  0  0  0
   -1.9613    0.6555    2.2602 H   0  0  0  0  0  0  0  0  0  0  0  0
   -2.0475   -1.0987    2.1371 H   0  0  0  0  0  0  0  0  0  0  0  0
   -0.4965   -0.3084    2.2924 H   0  0  0  0  0  0  0  0  0  0  0  0
   -4.0950   -0.2693    1.2503 H   0  0  0  0  0  0  0  0  0  0  0  0
    5.5770    0.7462    0.9011 H   0  0  0  0  0  0  0  0  0  0  0  0
    5.8112    1.5870   -0.6202 H   0  0  0  0  0  0  0  0  0  0  0  0
    2.7249    0.1870    2.2372 H   0  0  0  0  0  0  0  0  0  0  0  0
    2.7734   -1.5647    2.0553 H   0  0  0  0  0  0  0  0  0  0  0  0
    4.2565   -0.6338    2.0231 H   0  0  0  0  0  0  0  0  0  0  0  0
    5.6249   -2.6739   -0.8996 H   0  0  0  0  0  0  0  0  0  0  0  0
    5.4885   -2.0149    0.7190 H   0  0  0  0  0  0  0  0  0  0  0  0
    7.0049   -0.6052   -0.5555 H   0  0  0  0  0  0  0  0  0  0  0  0
    5.8610   -0.4757   -1.8859 H   0  0  0  0  0  0  0  0  0  0  0  0
   -5.2184   -0.1467   -1.5821 H   0  0  0  0  0  0  0  0  0  0  0  0
   -5.3907    1.1090   -0.3624 H   0  0  0  0  0  0  0  0  0  0  0  0
   -3.1520   -2.3932    0.7089 H   0  0  0  0  0  0  0  0  0  0  0  0
   -3.4516   -2.1924   -1.0448 H   0  0  0  0  0  0  0  0  0  0  0  0
   -4.7406   -2.5192    0.1006 H   0  0  0  0  0  0  0  0  0  0  0  0
   -6.5915   -0.5120    1.1369 H   0  0  0  0  0  0  0  0  0  0  0  0
   -6.5297   -1.7325   -0.1379 H   0  0  0  0  0  0  0  0  0  0  0  0
   -7.8977    0.9651   -0.4100 H   0  0  0  0  0  0  0  0  0  0  0  0
   -7.7820   -0.2699   -1.6794 H   0  0  0  0  0  0  0  0  0  0  0  0
   -8.6797   -0.6088   -0.1894 H   0  0  0  0  0  0  0  0  0  0  0  0
  1  2  1  0  0  0  0
  1  6  1  0  0  0  0
  1  7  1  0  0  0  0
  1 15  1  0  0  0  0
  2  3  1  0  0  0  0
  2 10  1  0  0  0  0
  2 25  1  0  0  0  0
  3  4  1  0  0  0  0
  3 11  1  0  0  0  0
  3 26  1  0  0  0  0
  4  5  1  0  0  0  0
  4  8  1  0  0  0  0
  4 27  1  0  0  0  0
  5  9  1  0  0  0  0
  5 14  1  0  0  0  0
  5 18  1  0  0  0  0
  6 12  1  0  0  0  0
  6 16  1  0  0  0  0
  6 28  1  0  0  0  0
  7  8  1  0  0  0  0
  7 29  1  0  0  0  0
  7 30  1  0  0  0  0
  8 31  1  0  0  0  0
  8 32  1  0  0  0  0
  9 13  1  0  0  0  0
  9 17  1  0  0  0  0
  9 33  1  0  0  0  0
 10 12  1  0  0  0  0
 10 34  1  0  0  0  0
 10 35  1  0  0  0  0
 11 13  1  0  0  0  0
 11 36  1  0  0  0  0
 11 37  1  0  0  0  0
 12 38  1  0  0  0  0
 12 39  1  0  0  0  0
 13 40  1  0  0  0  0
 13 41  1  0  0  0  0
 14 19  1  0  0  0  0
 14 42  1  0  0  0  0
 14 43  1  0  0  0  0
 15 44  1  0  0  0  0
 15 45  1  0  0  0  0
 15 46  1  0  0  0  0
 16 21  1  0  0  0  0
 16 22  1  0  0  0  0
 16 47  1  0  0  0  0
 17 20  1  0  0  0  0
 17 48  1  0  0  0  0
 17 49  1  0  0  0  0
 18 50  1  0  0  0  0
 18 51  1  0  0  0  0
 18 52  1  0  0  0  0
 19 20  1  0  0  0  0
 19 53  1  0  0  0  0
 19 54  1  0  0  0  0
 20 55  1  0  0  0  0
 20 56  1  0  0  0  0
 21 23  1  0  0  0  0
 21 57  1  0  0  0  0
 21 58  1  0  0  0  0
 22 59  1  0  0  0  0
 22 60  1  0  0  0  0
 22 61  1  0  0  0  0
 23 24  1  0  0  0  0
 23 62  1  0  0  0  0
 23 63  1  0  0  0  0
 24 64  1  0  0  0  0
 24 65  1  0  0  0  0
 24 66  1  0  0  0  0
M  END
> <PUBCHEM_COMPOUND_CID>
6857531

> <PUBCHEM_CONFORMER_RMSD>
0.8

> <PUBCHEM_CONFORMER_DIVERSEORDER>
1

> <PUBCHEM_MMFF94_PARTIAL_CHARGES>
0

> <PUBCHEM_EFFECTIVE_ROTOR_COUNT>
5.2

> <PUBCHEM_PHARMACOPHORE_FEATURES>
6
1 22 hydrophobe
1 24 hydrophobe
5 1 2 6 10 12 rings
6 1 2 3 4 7 8 rings
6 3 4 5 9 11 13 rings
6 5 9 14 17 19 20 rings

> <PUBCHEM_HEAVY_ATOM_COUNT>
24

> <PUBCHEM_ATOM_DEF_STEREO_COUNT>
8

> <PUBCHEM_ATOM_UDEF_STEREO_COUNT>
0

> <PUBCHEM_BOND_DEF_STEREO_COUNT>
0

> <PUBCHEM_BOND_UDEF_STEREO_COUNT>
0

> <PUBCHEM_ISOTOPIC_ATOM_COUNT>
0

> <PUBCHEM_COMPONENT_COUNT>
1

> <PUBCHEM_CACTVS_TAUTO_COUNT>
1

> <PUBCHEM_CONFORMER_ID>
0068A33B00000001

> <PUBCHEM_MMFF94_ENERGY>
79.2841

> <PUBCHEM_FEATURE_SELFOVERLAP>
30.536

> <PUBCHEM_SHAPE_FINGERPRINT>
10 15 18338244769968475712
10366900 7 17775560966283769104
10411042 1 18193838370109224918
10906281 52 18339343233270465211
11089746 13 12751233688270480775
11963148 33 18410581669403209063
12011746 2 18272647948234133238
12166972 35 17967813851181206208
12236239 1 18335699463813841325
12403259 226 18409171004289129648
12403259 415 18335430074896752928
12516196 113 18187085048493064337
12788726 201 18341054107449015889
12838862 33 18338815420117906036
13533116 47 18040716944138899144
13862211 1 18410856602974831246
14170010 4 18410575067668124948
14341114 176 18410852161646032615
15183329 4 18412268350741512973
15196674 1 18410572929085602428
15475509 35 14418678325454303892
16087824 20 18267585892493146789
17349148 13 17749387066030063094
17492 89 18119246422468916286
200 152 18113900472427427729
20028762 73 18187367644514879119
20645477 70 18413108347233451668
21150785 3 15339113529480087547
21236236 1 18335136544716910673
21267235 1 18409442600597797399
21279426 13 18340774840249155357
21682296 61 18115295821513822622
221357 26 18410575102022614580
22393880 68 18200882884482234460
23402539 116 18408608028618178191
23522609 53 18119496982097229777
23557571 272 18040994089677779405
23559900 14 18339645538015934121
2871803 45 18272090504281118352
29717793 49 18187079550855687453
3004659 81 18272091586792250933
335352 9 18410292493554144927
34797466 226 17385720280151455428
350125 39 18409447007498383309
3545911 37 18342458127852028853
4073 2 18059289842783666379
4214541 1 18410008879414857492
4325135 7 18260267451879930919
4340502 62 16415484835026218082
46194498 28 17775566407954936972
465052 167 18334008376312780175
5104073 3 18335140938125304048
5283173 99 18202009875738408669
9709674 26 18342452591517878050

> <PUBCHEM_SHAPE_MULTIPOLES>
493.91
14.8
2.17
0.97
14.67
0.55
-0.41
-4.01
3.32
-1.06
0.13
-0.25
-0.14
0.19

> <PUBCHEM_SHAPE_SELFOVERLAP>
1024.673

> <PUBCHEM_SHAPE_VOLUME>
278.4

> <PUBCHEM_COORDINATE_TYPE>
2
5
10

$$$$

