6854
  -OEChem-06261201323D

 22 24  0     0  0  0  0  0  0999 V2000
    0.0000    1.6351    0.0004 N   0  0  0  0  0  0  0  0  0  0  0  0
   -0.7155   -0.4768    0.0003 C   0  0  0  0  0  0  0  0  0  0  0  0
    0.7156   -0.4768    0.0004 C   0  0  0  0  0  0  0  0  0  0  0  0
   -1.1320    0.8546    0.0001 C   0  0  0  0  0  0  0  0  0  0  0  0
    1.1320    0.8547    0.0003 C   0  0  0  0  0  0  0  0  0  0  0  0
   -1.6969   -1.4903    0.0002 C   0  0  0  0  0  0  0  0  0  0  0  0
    1.6968   -1.4904    0.0003 C   0  0  0  0  0  0  0  0  0  0  0  0
   -2.4814    1.2258   -0.0002 C   0  0  0  0  0  0  0  0  0  0  0  0
    2.4814    1.2258    0.0000 C   0  0  0  0  0  0  0  0  0  0  0  0
   -3.0504   -1.1348   -0.0003 C   0  0  0  0  0  0  0  0  0  0  0  0
    3.0504   -1.1348   -0.0003 C   0  0  0  0  0  0  0  0  0  0  0  0
   -3.4347    0.2039   -0.0005 C   0  0  0  0  0  0  0  0  0  0  0  0
    3.4346    0.2040   -0.0007 C   0  0  0  0  0  0  0  0  0  0  0  0
   -0.0001    2.6458    0.0004 H   0  0  0  0  0  0  0  0  0  0  0  0
   -1.4130   -2.5389    0.0003 H   0  0  0  0  0  0  0  0  0  0  0  0
    1.4130   -2.5390    0.0004 H   0  0  0  0  0  0  0  0  0  0  0  0
   -2.7814    2.2684   -0.0003 H   0  0  0  0  0  0  0  0  0  0  0  0
    2.7814    2.2683   -0.0002 H   0  0  0  0  0  0  0  0  0  0  0  0
   -3.8088   -1.9132   -0.0004 H   0  0  0  0  0  0  0  0  0  0  0  0
    3.8088   -1.9132   -0.0006 H   0  0  0  0  0  0  0  0  0  0  0  0
   -4.4913    0.4591   -0.0008 H   0  0  0  0  0  0  0  0  0  0  0  0
    4.4913    0.4591   -0.0012 H   0  0  0  0  0  0  0  0  0  0  0  0
  1  4  1  0  0  0  0
  1  5  1  0  0  0  0
  1 14  1  0  0  0  0
  2  3  1  0  0  0  0
  2  4  1  0  0  0  0
  2  6  2  0  0  0  0
  3  5  1  0  0  0  0
  3  7  2  0  0  0  0
  4  8  2  0  0  0  0
  5  9  2  0  0  0  0
  6 10  1  0  0  0  0
  6 15  1  0  0  0  0
  7 11  1  0  0  0  0
  7 16  1  0  0  0  0
  8 12  1  0  0  0  0
  8 17  1  0  0  0  0
  9 13  1  0  0  0  0
  9 18  1  0  0  0  0
 10 12  2  0  0  0  0
 10 19  1  0  0  0  0
 11 13  2  0  0  0  0
 11 20  1  0  0  0  0
 12 21  1  0  0  0  0
 13 22  1  0  0  0  0
M  END
> <PUBCHEM_COMPOUND_CID>
6854

> <PUBCHEM_CONFORMER_RMSD>
0.4

> <PUBCHEM_CONFORMER_DIVERSEORDER>
1

> <PUBCHEM_MMFF94_PARTIAL_CHARGES>
20
1 0.03
10 -0.15
11 -0.15
12 -0.15
13 -0.15
14 0.27
15 0.15
16 0.15
17 0.15
18 0.15
19 0.15
20 0.15
21 0.15
22 0.15
4 -0.15
5 -0.15
6 -0.15
7 -0.15
8 -0.15
9 -0.15

> <PUBCHEM_EFFECTIVE_ROTOR_COUNT>
0

> <PUBCHEM_PHARMACOPHORE_FEATURES>
5
1 1 cation
1 1 donor
5 1 2 3 4 5 rings
6 2 4 6 8 10 12 rings
6 3 5 7 9 11 13 rings

> <PUBCHEM_HEAVY_ATOM_COUNT>
13

> <PUBCHEM_ATOM_DEF_STEREO_COUNT>
0

> <PUBCHEM_ATOM_UDEF_STEREO_COUNT>
0

> <PUBCHEM_BOND_DEF_STEREO_COUNT>
0

> <PUBCHEM_BOND_UDEF_STEREO_COUNT>
0

> <PUBCHEM_ISOTOPIC_ATOM_COUNT>
0

> <PUBCHEM_COMPONENT_COUNT>
1

> <PUBCHEM_CACTVS_TAUTO_COUNT>
1

> <PUBCHEM_CONFORMER_ID>
00001AC600000001

> <PUBCHEM_MMFF94_ENERGY>
28.2378

> <PUBCHEM_FEATURE_SELFOVERLAP>
25.551

> <PUBCHEM_SHAPE_FINGERPRINT>
10608611 8 18410860961981722689
10967382 1 18410855434374273222
11132069 177 18410018731974629248
11471102 20 18410860966318465957
11769659 78 18410580586516399462
12032990 46 18410849966865204579
12491281 212 18336251440205137953
13296908 3 18410853265405421123
13380535 76 18410857659151852583
14144814 61 18410011048140999619
14325111 11 18410856559639984449
15196674 1 18410855460128272231
15219456 202 18409731763544829760
15442244 35 18193838369254201930
15536298 74 18334012792061107178
16945 1 18410573989446548356
17844478 74 17988917886286728757
18186145 218 17918276471409220038
193761 8 17329991811726360097
200 152 18040727943840002335
20201158 50 18410856572524977298
20645477 70 18409453621827199263
20871998 184 18187080629309450519
21267235 1 18410565193353831459
21501502 16 18410573985151477124
21501925 9 18339372906703764690
2334 1 18410856533880554786
23402655 69 18335995250328698357
23463225 33 18412263947635111094
23552423 10 18272087167070384838
23559900 14 18263648519234827970
2748010 2 18410575084668379822
3312278 4 18410007723778251267
5104073 3 18410575084663079922
528886 8 18410016528619567562
53812653 166 18261117326976043832
69090 78 18335145301901733871
7364860 26 18263081024731487744
8809292 202 18272365352081496251
9709674 26 18409726248833845198

> <PUBCHEM_SHAPE_MULTIPOLES>
262.55
5.62
1.71
0.61
0
0.05
0
0.49
0
0
0
0
0.01
0

> <PUBCHEM_SHAPE_SELFOVERLAP>
596.957

> <PUBCHEM_SHAPE_VOLUME>
139.4

> <PUBCHEM_COORDINATE_TYPE>
2
5
10

$$$$

