11698
  -OEChem-06261206003D

 26 26  0     0  0  0  0  0  0999 V2000
   -1.1467    0.0326   -0.4663 P   0  0  0  0  0  0  0  0  0  0  0  0
    3.2977    0.2092    0.0487 O   0  0  0  0  0  0  0  0  0  0  0  0
   -1.8018   -1.4117   -0.1113 O   0  0  0  0  0  0  0  0  0  0  0  0
   -1.8947    1.0302    0.5761 O   0  0  0  0  0  0  0  0  0  0  0  0
   -1.3968    0.4155   -1.9000 O   0  0  0  0  0  0  0  0  0  0  0  0
    0.4449   -0.0162    0.0038 N   0  0  0  0  0  0  0  0  0  0  0  0
    1.3151   -0.9545   -0.7177 C   0  0  0  0  0  0  0  0  0  0  0  0
    1.1256    1.2768    0.1562 C   0  0  0  0  0  0  0  0  0  0  0  0
    2.6759   -1.0717   -0.0423 C   0  0  0  0  0  0  0  0  0  0  0  0
    2.4903    1.1043    0.8118 C   0  0  0  0  0  0  0  0  0  0  0  0
   -1.8259   -1.8788    1.2272 C   0  0  0  0  0  0  0  0  0  0  0  0
   -3.2835    1.2643    0.4140 C   0  0  0  0  0  0  0  0  0  0  0  0
    1.4389   -0.6102   -1.7518 H   0  0  0  0  0  0  0  0  0  0  0  0
    0.8496   -1.9454   -0.7519 H   0  0  0  0  0  0  0  0  0  0  0  0
    0.5245    1.9511    0.7750 H   0  0  0  0  0  0  0  0  0  0  0  0
    1.2389    1.7435   -0.8300 H   0  0  0  0  0  0  0  0  0  0  0  0
    3.3313   -1.7190   -0.6339 H   0  0  0  0  0  0  0  0  0  0  0  0
    2.5926   -1.5111    0.9592 H   0  0  0  0  0  0  0  0  0  0  0  0
    2.4004    0.7322    1.8397 H   0  0  0  0  0  0  0  0  0  0  0  0
    3.0086    2.0676    0.8530 H   0  0  0  0  0  0  0  0  0  0  0  0
   -0.8115   -1.9274    1.6307 H   0  0  0  0  0  0  0  0  0  0  0  0
   -2.2567   -2.8832    1.2363 H   0  0  0  0  0  0  0  0  0  0  0  0
   -2.4427   -1.2261    1.8491 H   0  0  0  0  0  0  0  0  0  0  0  0
   -3.4557    1.8300   -0.5052 H   0  0  0  0  0  0  0  0  0  0  0  0
   -3.6415    1.8489    1.2648 H   0  0  0  0  0  0  0  0  0  0  0  0
   -3.8316    0.3196    0.3748 H   0  0  0  0  0  0  0  0  0  0  0  0
  1  3  1  0  0  0  0
  1  4  1  0  0  0  0
  1  5  2  0  0  0  0
  1  6  1  0  0  0  0
  2  9  1  0  0  0  0
  2 10  1  0  0  0  0
  3 11  1  0  0  0  0
  4 12  1  0  0  0  0
  6  7  1  0  0  0  0
  6  8  1  0  0  0  0
  7  9  1  0  0  0  0
  7 13  1  0  0  0  0
  7 14  1  0  0  0  0
  8 10  1  0  0  0  0
  8 15  1  0  0  0  0
  8 16  1  0  0  0  0
  9 17  1  0  0  0  0
  9 18  1  0  0  0  0
 10 19  1  0  0  0  0
 10 20  1  0  0  0  0
 11 21  1  0  0  0  0
 11 22  1  0  0  0  0
 11 23  1  0  0  0  0
 12 24  1  0  0  0  0
 12 25  1  0  0  0  0
 12 26  1  0  0  0  0
M  END
> <PUBCHEM_COMPOUND_CID>
11698

> <PUBCHEM_CONFORMER_RMSD>
0.6

> <PUBCHEM_CONFORMER_DIVERSEORDER>
1
8
7
6
13
14
5
17
10
19
11
15
18
16
21
2
22
12
9
20
3
4

> <PUBCHEM_MMFF94_PARTIAL_CHARGES>
12
1 1.51
10 0.28
11 0.28
12 0.28
2 -0.56
3 -0.55
4 -0.55
5 -0.7
6 -0.81
7 0.27
8 0.27
9 0.28

> <PUBCHEM_EFFECTIVE_ROTOR_COUNT>
4.2

> <PUBCHEM_PHARMACOPHORE_FEATURES>
3
1 2 acceptor
1 5 acceptor
6 2 6 7 8 9 10 rings

> <PUBCHEM_HEAVY_ATOM_COUNT>
12

> <PUBCHEM_ATOM_DEF_STEREO_COUNT>
0

> <PUBCHEM_ATOM_UDEF_STEREO_COUNT>
0

> <PUBCHEM_BOND_DEF_STEREO_COUNT>
0

> <PUBCHEM_BOND_UDEF_STEREO_COUNT>
0

> <PUBCHEM_ISOTOPIC_ATOM_COUNT>
0

> <PUBCHEM_COMPONENT_COUNT>
1

> <PUBCHEM_CACTVS_TAUTO_COUNT>
1

> <PUBCHEM_CONFORMER_ID>
00002DB200000001

> <PUBCHEM_MMFF94_ENERGY>
10.1052

> <PUBCHEM_FEATURE_SELFOVERLAP>
15.223

> <PUBCHEM_SHAPE_FINGERPRINT>
12932764 1 17346887758050282048
13380535 76 18334576875522112175
14648413 74 18335701615814392800
15775835 57 17917993914095339899
16945 1 18200042857761974836
19973954 147 18336546010584606584
20201158 50 18334293210048841978
20653085 51 17168418380661981081
21501502 16 18341327795264629998
23235685 24 18336834177014895273
23235687 12 17917990542730758636
2748010 2 18334575716039055012
3248919 1 18339936930404310508
5084963 1 18058740087132977012

> <PUBCHEM_SHAPE_MULTIPOLES>
222.35
4.86
1.73
1.14
0.64
0.41
0.3
-0.77
-0.87
-0.62
-0.49
-0.47
0.09
0.55

> <PUBCHEM_SHAPE_SELFOVERLAP>
412.28

> <PUBCHEM_SHAPE_VOLUME>
141

> <PUBCHEM_COORDINATE_TYPE>
2
5
10

$$$$

