441161
  -OEChem-07051212523D

 26 27  0     1  0  0  0  0  0999 V2000
    0.9802    2.0568    0.2517 S   0  0  2  0  0  0  0  0  0  0  0  0
   -1.1159   -0.2760   -2.1864 O   0  0  0  0  0  0  0  0  0  0  0  0
    1.2007    2.2793   -1.3266 O   0  0  0  0  0  0  0  0  0  0  0  0
    2.1046    2.7477    0.9648 O   0  0  0  0  0  0  0  0  0  0  0  0
    0.4482   -0.6951    0.1542 C   0  0  0  0  0  0  0  0  0  0  0  0
   -0.9685   -0.3951    0.2096 C   0  0  0  0  0  0  0  0  0  0  0  0
    1.4169    0.3096    0.1662 C   0  0  0  0  0  0  0  0  0  0  0  0
    0.8356   -2.0341    0.0868 C   0  0  0  0  0  0  0  0  0  0  0  0
   -1.7038   -0.1955   -0.9588 C   0  0  0  0  0  0  0  0  0  0  0  0
   -1.5956   -0.3051    1.4523 C   0  0  0  0  0  0  0  0  0  0  0  0
    2.7701   -0.0243    0.1108 C   0  0  0  0  0  0  0  0  0  0  0  0
    2.1888   -2.3679    0.0315 C   0  0  0  0  0  0  0  0  0  0  0  0
    3.1560   -1.3629    0.0434 C   0  0  0  0  0  0  0  0  0  0  0  0
   -3.0661    0.0942   -0.8844 C   0  0  0  0  0  0  0  0  0  0  0  0
   -2.9580   -0.0156    1.5267 C   0  0  0  0  0  0  0  0  0  0  0  0
   -3.6933    0.1840    0.3583 C   0  0  0  0  0  0  0  0  0  0  0  0
    0.0968   -2.8323    0.0758 H   0  0  0  0  0  0  0  0  0  0  0  0
   -1.0380   -0.4570    2.3737 H   0  0  0  0  0  0  0  0  0  0  0  0
    3.5442    0.7386    0.1126 H   0  0  0  0  0  0  0  0  0  0  0  0
    2.4895   -3.4101   -0.0215 H   0  0  0  0  0  0  0  0  0  0  0  0
    4.2095   -1.6231   -0.0012 H   0  0  0  0  0  0  0  0  0  0  0  0
   -3.6519    0.2527   -1.7859 H   0  0  0  0  0  0  0  0  0  0  0  0
   -3.4463    0.0548    2.4943 H   0  0  0  0  0  0  0  0  0  0  0  0
   -4.7541    0.4097    0.4163 H   0  0  0  0  0  0  0  0  0  0  0  0
   -1.7846   -0.1065   -2.8720 H   0  0  0  0  0  0  0  0  0  0  0  0
    1.5888    3.1696   -1.4966 H   0  0  0  0  0  0  0  0  0  0  0  0
  1  3  1  0  0  0  0
  1  4  2  0  0  0  0
  1  7  1  0  0  0  0
  2  9  1  0  0  0  0
  2 25  1  0  0  0  0
  3 26  1  0  0  0  0
  5  6  1  0  0  0  0
  5  7  1  0  0  0  0
  5  8  2  0  0  0  0
  6  9  1  0  0  0  0
  6 10  2  0  0  0  0
  7 11  2  0  0  0  0
  8 12  1  0  0  0  0
  8 17  1  0  0  0  0
  9 14  2  0  0  0  0
 10 15  1  0  0  0  0
 10 18  1  0  0  0  0
 11 13  1  0  0  0  0
 11 19  1  0  0  0  0
 12 13  2  0  0  0  0
 12 20  1  0  0  0  0
 13 21  1  0  0  0  0
 14 16  1  0  0  0  0
 14 22  1  0  0  0  0
 15 16  2  0  0  0  0
 15 23  1  0  0  0  0
 16 24  1  0  0  0  0
M  END
> <PUBCHEM_COMPOUND_CID>
441161

> <PUBCHEM_CONFORMER_RMSD>
0.6

> <PUBCHEM_CONFORMER_DIVERSEORDER>
1
3
5
2
4

> <PUBCHEM_MMFF94_PARTIAL_CHARGES>
24
1 0.49
10 -0.15
11 -0.15
12 -0.15
13 -0.15
14 -0.15
15 -0.15
16 -0.15
17 0.15
18 0.15
19 0.15
2 -0.53
20 0.15
21 0.15
22 0.15
23 0.15
24 0.15
25 0.45
26 0.5
3 -0.55
4 -0.5
7 0.06
8 -0.15
9 0.08

> <PUBCHEM_EFFECTIVE_ROTOR_COUNT>
2

> <PUBCHEM_PHARMACOPHORE_FEATURES>
3
1 2 donor
6 5 7 8 11 12 13 rings
6 6 9 10 14 15 16 rings

> <PUBCHEM_HEAVY_ATOM_COUNT>
16

> <PUBCHEM_ATOM_DEF_STEREO_COUNT>
0

> <PUBCHEM_ATOM_UDEF_STEREO_COUNT>
0

> <PUBCHEM_BOND_DEF_STEREO_COUNT>
0

> <PUBCHEM_BOND_UDEF_STEREO_COUNT>
0

> <PUBCHEM_ISOTOPIC_ATOM_COUNT>
0

> <PUBCHEM_COMPONENT_COUNT>
1

> <PUBCHEM_CACTVS_TAUTO_COUNT>
3

> <PUBCHEM_CONFORMER_ID>
0006BB4900000001

> <PUBCHEM_MMFF94_ENERGY>
48.7082

> <PUBCHEM_FEATURE_SELFOVERLAP>
15.223

> <PUBCHEM_SHAPE_FINGERPRINT>
104564 63 18120645001374958972
11640471 11 17604147021640339993
12236239 1 17676210207815351395
12716301 132 16486151620101847525
13132413 78 18188202225527304128
13134695 92 18336551619811972996
13538477 17 17313396599508707799
13581323 91 16008756831037947447
13898156 1 17385729062615484807
14817 1 8420252180970886788
15219456 202 17917987269844242651
15375462 478 18042116716993343345
15775835 57 17968654900446456113
16945 1 18335139808132121154
17357990 137 17314205869978417969
17844478 74 17846210120080649199
1813 80 17897428713593427734
19049666 15 17844819267994156369
19765921 60 17606966079270207153
20645476 183 17821732710956351231
21041028 32 18264761237090655904
21061003 4 18341890856781972426
21639500 275 18337117777979078049
22112679 90 17167861946142332097
22892500 29 18341614841051287437
23175994 123 18128809918735241926
23419403 2 13600264627208835018
23526113 38 17702676586403677511
23559900 14 16629964464255919522
23598291 2 17967535648995695277
25 1 18339075995667365512
2748010 2 18124307203944857578
305870 269 18192151499374173368
3286 77 18343861117532034731
350125 39 17907849609770262746
474 4 18115882801735074344
568465 68 18059559326190633130
6992083 37 17822578333807864031
7364860 26 18335139761008767720
74978 22 18261110746838284627
77492 1 17676209095424051003
81228 2 17620469546895994426
84936 182 17823708464157663320

> <PUBCHEM_SHAPE_MULTIPOLES>
315.51
5.16
2.34
1.37
2.18
1.28
0.33
-0.86
-0.62
-2.65
-0.12
0.98
0.19
0.11

> <PUBCHEM_SHAPE_SELFOVERLAP>
672.509

> <PUBCHEM_SHAPE_VOLUME>
175.7

> <PUBCHEM_COORDINATE_TYPE>
2
5
10

$$$$

