61215
  -OEChem-07051213143D

 46 48  0     0  0  0  0  0  0999 V2000
   -2.7337   -0.6594   -0.1366 O   0  0  0  0  0  0  0  0  0  0  0  0
    2.7336    0.6594   -0.1367 O   0  0  0  0  0  0  0  0  0  0  0  0
   -0.7480   -2.5497   -0.1321 O   0  0  0  0  0  0  0  0  0  0  0  0
    0.7480    2.5495   -0.1319 O   0  0  0  0  0  0  0  0  0  0  0  0
   -5.4105   -0.1487    0.4794 O   0  0  0  0  0  0  0  0  0  0  0  0
    5.4107    0.1496    0.4793 O   0  0  0  0  0  0  0  0  0  0  0  0
   -1.9326    2.0536   -0.1364 N   0  0  0  0  0  0  0  0  0  0  0  0
    1.9326   -2.0540   -0.1359 N   0  0  0  0  0  0  0  0  0  0  0  0
   -3.0034    2.0265   -1.1270 C   0  0  0  0  0  0  0  0  0  0  0  0
   -1.8657    2.9827   -1.2594 C   0  0  0  0  0  0  0  0  0  0  0  0
    3.0032   -2.0274   -1.1267 C   0  0  0  0  0  0  0  0  0  0  0  0
    1.8654   -2.9834   -1.2586 C   0  0  0  0  0  0  0  0  0  0  0  0
   -1.0537    1.0080   -0.1350 C   0  0  0  0  0  0  0  0  0  0  0  0
    1.0537   -1.0084   -0.1346 C   0  0  0  0  0  0  0  0  0  0  0  0
   -1.4010   -0.2884   -0.1350 C   0  0  0  0  0  0  0  0  0  0  0  0
    1.4011    0.2881   -0.1349 C   0  0  0  0  0  0  0  0  0  0  0  0
   -0.3904   -1.3737   -0.1334 C   0  0  0  0  0  0  0  0  0  0  0  0
    0.3905    1.3734   -0.1334 C   0  0  0  0  0  0  0  0  0  0  0  0
   -3.2154   -0.7927    1.1850 C   0  0  0  0  0  0  0  0  0  0  0  0
    3.2155    0.7931    1.1849 C   0  0  0  0  0  0  0  0  0  0  0  0
   -4.6821   -1.1760    1.1408 C   0  0  0  0  0  0  0  0  0  0  0  0
    4.6820    1.1769    1.1405 C   0  0  0  0  0  0  0  0  0  0  0  0
   -6.7924   -0.4660    0.3891 C   0  0  0  0  0  0  0  0  0  0  0  0
    6.7926    0.4672    0.3888 C   0  0  0  0  0  0  0  0  0  0  0  0
   -3.0387    1.2090   -1.8327 H   0  0  0  0  0  0  0  0  0  0  0  0
   -3.9440    2.3939   -0.7441 H   0  0  0  0  0  0  0  0  0  0  0  0
   -2.0193    4.0111   -0.9680 H   0  0  0  0  0  0  0  0  0  0  0  0
   -1.1298    2.7862   -2.0263 H   0  0  0  0  0  0  0  0  0  0  0  0
    3.0385   -1.2099   -1.8325 H   0  0  0  0  0  0  0  0  0  0  0  0
    3.9438   -2.3947   -0.7438 H   0  0  0  0  0  0  0  0  0  0  0  0
    2.0188   -4.0118   -0.9671 H   0  0  0  0  0  0  0  0  0  0  0  0
    1.1295   -2.7870   -2.0255 H   0  0  0  0  0  0  0  0  0  0  0  0
   -2.6566   -1.5676    1.7237 H   0  0  0  0  0  0  0  0  0  0  0  0
   -3.1133    0.1588    1.7221 H   0  0  0  0  0  0  0  0  0  0  0  0
    2.6563    1.5679    1.7236 H   0  0  0  0  0  0  0  0  0  0  0  0
    3.1137   -0.1584    1.7222 H   0  0  0  0  0  0  0  0  0  0  0  0
   -4.8032   -2.1123    0.5836 H   0  0  0  0  0  0  0  0  0  0  0  0
   -5.0658   -1.3071    2.1585 H   0  0  0  0  0  0  0  0  0  0  0  0
    5.0658    1.3085    2.1581 H   0  0  0  0  0  0  0  0  0  0  0  0
    4.8027    2.1131    0.5830 H   0  0  0  0  0  0  0  0  0  0  0  0
   -7.2264   -0.5788    1.3873 H   0  0  0  0  0  0  0  0  0  0  0  0
   -6.9390   -1.3816   -0.1919 H   0  0  0  0  0  0  0  0  0  0  0  0
   -7.3014    0.3558   -0.1216 H   0  0  0  0  0  0  0  0  0  0  0  0
    6.9388    1.3828   -0.1925 H   0  0  0  0  0  0  0  0  0  0  0  0
    7.2267    0.5806    1.3869 H   0  0  0  0  0  0  0  0  0  0  0  0
    7.3017   -0.3547   -0.1217 H   0  0  0  0  0  0  0  0  0  0  0  0
  1 15  1  0  0  0  0
  1 19  1  0  0  0  0
  2 16  1  0  0  0  0
  2 20  1  0  0  0  0
  3 17  2  0  0  0  0
  4 18  2  0  0  0  0
  5 21  1  0  0  0  0
  5 23  1  0  0  0  0
  6 22  1  0  0  0  0
  6 24  1  0  0  0  0
  7  9  1  0  0  0  0
  7 10  1  0  0  0  0
  7 13  1  0  0  0  0
  8 11  1  0  0  0  0
  8 12  1  0  0  0  0
  8 14  1  0  0  0  0
  9 10  1  0  0  0  0
  9 25  1  0  0  0  0
  9 26  1  0  0  0  0
 10 27  1  0  0  0  0
 10 28  1  0  0  0  0
 11 12  1  0  0  0  0
 11 29  1  0  0  0  0
 11 30  1  0  0  0  0
 12 31  1  0  0  0  0
 12 32  1  0  0  0  0
 13 15  2  0  0  0  0
 13 18  1  0  0  0  0
 14 16  2  0  0  0  0
 14 17  1  0  0  0  0
 15 17  1  0  0  0  0
 16 18  1  0  0  0  0
 19 21  1  0  0  0  0
 19 33  1  0  0  0  0
 19 34  1  0  0  0  0
 20 22  1  0  0  0  0
 20 35  1  0  0  0  0
 20 36  1  0  0  0  0
 21 37  1  0  0  0  0
 21 38  1  0  0  0  0
 22 39  1  0  0  0  0
 22 40  1  0  0  0  0
 23 41  1  0  0  0  0
 23 42  1  0  0  0  0
 23 43  1  0  0  0  0
 24 44  1  0  0  0  0
 24 45  1  0  0  0  0
 24 46  1  0  0  0  0
M  END
> <PUBCHEM_COMPOUND_CID>
61215

> <PUBCHEM_CONFORMER_RMSD>
1

> <PUBCHEM_CONFORMER_DIVERSEORDER>
1
8
18
11
17
10
2
7
21
12
22
19
14
23
5
6
3
20
15
4
16
9
13

> <PUBCHEM_MMFF94_PARTIAL_CHARGES>
32
1 -0.36
10 -0.03
11 -0.03
12 -0.03
13 0.11
14 0.11
15 0.09
16 0.09
17 0.54
18 0.54
19 0.28
2 -0.36
20 0.28
21 0.28
22 0.28
23 0.28
24 0.28
25 0.1
26 0.1
27 0.1
28 0.1
29 0.1
3 -0.57
30 0.1
31 0.1
32 0.1
4 -0.57
5 -0.56
6 -0.56
7 -0.44
8 -0.44
9 -0.03

> <PUBCHEM_EFFECTIVE_ROTOR_COUNT>
11.2

> <PUBCHEM_PHARMACOPHORE_FEATURES>
9
1 1 acceptor
1 2 acceptor
1 3 acceptor
1 4 acceptor
1 5 acceptor
1 6 acceptor
1 7 cation
1 8 cation
6 13 14 15 16 17 18 rings

> <PUBCHEM_HEAVY_ATOM_COUNT>
24

> <PUBCHEM_ATOM_DEF_STEREO_COUNT>
0

> <PUBCHEM_ATOM_UDEF_STEREO_COUNT>
0

> <PUBCHEM_BOND_DEF_STEREO_COUNT>
0

> <PUBCHEM_BOND_UDEF_STEREO_COUNT>
0

> <PUBCHEM_ISOTOPIC_ATOM_COUNT>
0

> <PUBCHEM_COMPONENT_COUNT>
1

> <PUBCHEM_CACTVS_TAUTO_COUNT>
1

> <PUBCHEM_CONFORMER_ID>
0000EF1F00000001

> <PUBCHEM_MMFF94_ENERGY>
111.1597

> <PUBCHEM_FEATURE_SELFOVERLAP>
45.688

> <PUBCHEM_SHAPE_FINGERPRINT>
10 15 18341340990253925312
10165383 225 18040996198801848544
10906281 52 18200576013353430889
11680986 33 18265336303436573148
11796584 16 16343984680794284539
12403259 415 18260839176747385352
12507560 40 18337391646558197094
13140716 1 18050285868932923658
13402501 40 18410575084663079176
13540713 4 18266740375131521375
14790565 3 17907001890495460333
15042514 8 18195530285932689882
15099037 37 18202006529272900584
16945 1 18338516335278948638
17357779 13 18343302600485737327
18915476 22 18040999608774091070
19784866 240 15482675688375576699
20600515 1 17274535413471229055
21452121 103 18334573564149955907
22182313 1 18338799021436436878
22224240 67 18114186285358043938
2334 1 18338799017146750606
23402539 116 18341337682527570635
23557571 272 18273214226755898261
23559900 14 17904205081334237342
2748010 2 18338516472717902127
335352 9 18338797814550626653
350125 39 18408880767594303282
465052 167 17987792999585902178
5104073 3 18266741470348182248
621550 34 18335420187966154255
9709674 26 18193847156593869844

> <PUBCHEM_SHAPE_MULTIPOLES>
448.73
11.92
3.01
1.13
0
0
0.01
0
-4.51
0
1.35
0
0
2.29

> <PUBCHEM_SHAPE_SELFOVERLAP>
932.582

> <PUBCHEM_SHAPE_VOLUME>
256.9

> <PUBCHEM_COORDINATE_TYPE>
2
5
10

$$$$

