13026
  -OEChem-06261207403D

 18 18  0     0  0  0  0  0  0999 V2000
    2.4761   -0.1200   -0.0001 O   0  0  0  0  0  0  0  0  0  0  0  0
    0.9845   -2.4496   -0.0002 O   0  0  0  0  0  0  0  0  0  0  0  0
   -3.0334    0.1171   -0.0008 O   0  0  0  0  0  0  0  0  0  0  0  0
    0.4679    1.1781    0.0002 C   0  0  0  0  0  0  0  0  0  0  0  0
    1.1138   -0.0583    0.0000 C   0  0  0  0  0  0  0  0  0  0  0  0
   -0.9257    1.2371    0.0005 C   0  0  0  0  0  0  0  0  0  0  0  0
    0.3660   -1.2358    0.0000 C   0  0  0  0  0  0  0  0  0  0  0  0
   -1.6734    0.0596    0.0005 C   0  0  0  0  0  0  0  0  0  0  0  0
   -1.0277   -1.1768    0.0002 C   0  0  0  0  0  0  0  0  0  0  0  0
    1.2520    2.4486   -0.0004 C   0  0  0  0  0  0  0  0  0  0  0  0
   -1.4392    2.1954    0.0004 H   0  0  0  0  0  0  0  0  0  0  0  0
   -1.6050   -2.0982   -0.0001 H   0  0  0  0  0  0  0  0  0  0  0  0
    1.8792    2.5161    0.8947 H   0  0  0  0  0  0  0  0  0  0  0  0
    1.8786    2.5157   -0.8960 H   0  0  0  0  0  0  0  0  0  0  0  0
    0.5974    3.3274   -0.0004 H   0  0  0  0  0  0  0  0  0  0  0  0
    2.8692    0.7663    0.0001 H   0  0  0  0  0  0  0  0  0  0  0  0
    1.9463   -2.3027   -0.0004 H   0  0  0  0  0  0  0  0  0  0  0  0
   -3.3873   -0.7889   -0.0010 H   0  0  0  0  0  0  0  0  0  0  0  0
  1  5  1  0  0  0  0
  1 16  1  0  0  0  0
  2  7  1  0  0  0  0
  2 17  1  0  0  0  0
  3  8  1  0  0  0  0
  3 18  1  0  0  0  0
  4  5  1  0  0  0  0
  4  6  2  0  0  0  0
  4 10  1  0  0  0  0
  5  7  2  0  0  0  0
  6  8  1  0  0  0  0
  6 11  1  0  0  0  0
  7  9  1  0  0  0  0
  8  9  2  0  0  0  0
  9 12  1  0  0  0  0
 10 13  1  0  0  0  0
 10 14  1  0  0  0  0
 10 15  1  0  0  0  0
M  END
> <PUBCHEM_COMPOUND_CID>
13026

> <PUBCHEM_CONFORMER_RMSD>
0.4

> <PUBCHEM_CONFORMER_DIVERSEORDER>
1

> <PUBCHEM_MMFF94_PARTIAL_CHARGES>
15
1 -0.53
10 0.14
11 0.15
12 0.15
16 0.45
17 0.45
18 0.45
2 -0.53
3 -0.53
4 -0.14
5 0.08
6 -0.15
7 0.08
8 0.08
9 -0.15

> <PUBCHEM_EFFECTIVE_ROTOR_COUNT>
0

> <PUBCHEM_PHARMACOPHORE_FEATURES>
4
1 1 donor
1 2 donor
1 3 donor
6 4 5 6 7 8 9 rings

> <PUBCHEM_HEAVY_ATOM_COUNT>
10

> <PUBCHEM_ATOM_DEF_STEREO_COUNT>
0

> <PUBCHEM_ATOM_UDEF_STEREO_COUNT>
0

> <PUBCHEM_BOND_DEF_STEREO_COUNT>
0

> <PUBCHEM_BOND_UDEF_STEREO_COUNT>
0

> <PUBCHEM_ISOTOPIC_ATOM_COUNT>
0

> <PUBCHEM_COMPONENT_COUNT>
1

> <PUBCHEM_CACTVS_TAUTO_COUNT>
27

> <PUBCHEM_CONFORMER_ID>
000032E200000001

> <PUBCHEM_MMFF94_ENERGY>
23.9257

> <PUBCHEM_FEATURE_SELFOVERLAP>
20.302

> <PUBCHEM_SHAPE_FINGERPRINT>
12423570 1 12607104266614996760
16945 1 18410855473202993733
18185500 45 18337110180255849415
193761 8 17834394514783351046
21040471 1 17978510827945725985
23552423 10 18268714904799552735
241688 4 17834392697816993409
2748010 2 18123748656153456157
29004967 10 18341607170034007627
5084963 1 18114180778919702929

> <PUBCHEM_SHAPE_MULTIPOLES>
188.19
2.75
2.32
0.59
0.82
0.58
0
-0.85
0
-0.81
0
0
-0.03
0

> <PUBCHEM_SHAPE_SELFOVERLAP>
395.934

> <PUBCHEM_SHAPE_VOLUME>
107.1

> <PUBCHEM_COORDINATE_TYPE>
2
5
10

$$$$

