46173903
  -OEChem-07051213103D

 86 90  0     1  0  0  0  0  0999 V2000
    7.1063    1.0048    0.8482 O   0  0  0  0  0  0  0  0  0  0  0  0
   -5.9765   -1.8299    0.0725 O   0  0  0  0  0  0  0  0  0  0  0  0
    7.1623   -1.0080   -1.0224 O   0  0  0  0  0  0  0  0  0  0  0  0
    0.6460   -0.7186   -0.2552 C   0  0  2  0  0  0  0  0  0  0  0  0
    1.3697    0.6361    0.1230 C   0  0  1  0  0  0  0  0  0  0  0  0
    2.9126    0.7737   -0.2610 C   0  0  2  0  0  0  0  0  0  0  0  0
   -0.8020   -0.7917    0.4872 C   0  0  1  0  0  0  0  0  0  0  0  0
    3.6444   -0.5073    0.2897 C   0  0  1  0  0  0  0  0  0  0  0  0
    1.5451   -1.9099    0.1698 C   0  0  0  0  0  0  0  0  0  0  0  0
    3.0062   -1.7920   -0.2726 C   0  0  0  0  0  0  0  0  0  0  0  0
    5.2167   -0.4766    0.2579 C   0  0  2  0  0  0  0  0  0  0  0  0
    0.4892    1.8326   -0.2859 C   0  0  0  0  0  0  0  0  0  0  0  0
   -1.6362    0.4695    0.1360 C   0  0  0  0  0  0  0  0  0  0  0  0
    3.5073    2.0106    0.4842 C   0  0  0  0  0  0  0  0  0  0  0  0
   -1.5420   -2.1046    0.0850 C   0  0  0  0  0  0  0  0  0  0  0  0
   -0.8857    1.7717    0.3779 C   0  0  0  0  0  0  0  0  0  0  0  0
   -3.7314   -0.8967   -0.3729 C   0  0  1  0  0  0  0  0  0  0  0  0
    0.4290   -0.8234   -1.7970 C   0  0  0  0  0  0  0  0  0  0  0  0
   -2.9212    0.4134   -0.3072 C   0  0  0  0  0  0  0  0  0  0  0  0
    5.6961    0.8203    0.9730 C   0  0  2  0  0  0  0  0  0  0  0  0
    3.1206    1.0089   -1.7758 C   0  0  0  0  0  0  0  0  0  0  0  0
   -3.0293   -2.0510    0.3871 C   0  0  0  0  0  0  0  0  0  0  0  0
    5.0328    2.0916    0.4540 C   0  0  0  0  0  0  0  0  0  0  0  0
   -0.6800   -0.8290    2.0425 C   0  0  0  0  0  0  0  0  0  0  0  0
   -5.1246   -0.7065    0.3088 C   0  0  1  0  0  0  0  0  0  0  0  0
   -3.7150    1.6250   -0.7890 C   0  0  0  0  0  0  0  0  0  0  0  0
    5.8187   -0.5987   -1.1558 C   0  0  0  0  0  0  0  0  0  0  0  0
    5.7755   -1.6848    1.0633 C   0  0  0  0  0  0  0  0  0  0  0  0
   -5.0553    1.8254   -0.0507 C   0  0  0  0  0  0  0  0  0  0  0  0
   -5.8889    0.5356   -0.1567 C   0  0  0  0  0  0  0  0  0  0  0  0
   -3.8968   -1.3150   -1.8557 C   0  0  0  0  0  0  0  0  0  0  0  0
   -5.8333    2.9752   -0.7185 C   0  0  0  0  0  0  0  0  0  0  0  0
   -4.8090    2.2083    1.4219 C   0  0  0  0  0  0  0  0  0  0  0  0
   -6.9511   -1.9592    1.0945 C   0  0  0  0  0  0  0  0  0  0  0  0
    1.3953    0.6616    1.2198 H   0  0  0  0  0  0  0  0  0  0  0  0
    3.4075   -0.5252    1.3674 H   0  0  0  0  0  0  0  0  0  0  0  0
    1.5491   -2.0097    1.2605 H   0  0  0  0  0  0  0  0  0  0  0  0
    1.1414   -2.8529   -0.2182 H   0  0  0  0  0  0  0  0  0  0  0  0
    3.0800   -1.8430   -1.3621 H   0  0  0  0  0  0  0  0  0  0  0  0
    3.5245   -2.6783    0.1063 H   0  0  0  0  0  0  0  0  0  0  0  0
    0.3601    1.8847   -1.3716 H   0  0  0  0  0  0  0  0  0  0  0  0
    0.9563    2.7756    0.0147 H   0  0  0  0  0  0  0  0  0  0  0  0
    3.1913    1.9930    1.5357 H   0  0  0  0  0  0  0  0  0  0  0  0
    3.1130    2.9409    0.0589 H   0  0  0  0  0  0  0  0  0  0  0  0
   -1.1057   -2.9635    0.6104 H   0  0  0  0  0  0  0  0  0  0  0  0
   -1.4374   -2.3322   -0.9765 H   0  0  0  0  0  0  0  0  0  0  0  0
   -0.7637    1.9001    1.4610 H   0  0  0  0  0  0  0  0  0  0  0  0
   -1.4326    2.6590    0.0604 H   0  0  0  0  0  0  0  0  0  0  0  0
    1.3244   -0.6138   -2.3733 H   0  0  0  0  0  0  0  0  0  0  0  0
    0.1449   -1.8354   -2.1018 H   0  0  0  0  0  0  0  0  0  0  0  0
   -0.3482   -0.1441   -2.1586 H   0  0  0  0  0  0  0  0  0  0  0  0
    5.4808    0.7320    2.0462 H   0  0  0  0  0  0  0  0  0  0  0  0
    3.2160    0.0820   -2.3430 H   0  0  0  0  0  0  0  0  0  0  0  0
    4.0291    1.5757   -1.9924 H   0  0  0  0  0  0  0  0  0  0  0  0
    2.3132    1.5964   -2.2195 H   0  0  0  0  0  0  0  0  0  0  0  0
   -3.4837   -3.0146    0.1221 H   0  0  0  0  0  0  0  0  0  0  0  0
   -3.1739   -1.9492    1.4695 H   0  0  0  0  0  0  0  0  0  0  0  0
    5.4000    2.3337   -0.5491 H   0  0  0  0  0  0  0  0  0  0  0  0
    5.3526    2.9412    1.0720 H   0  0  0  0  0  0  0  0  0  0  0  0
   -0.0448   -0.0411    2.4520 H   0  0  0  0  0  0  0  0  0  0  0  0
   -1.6580   -0.7043    2.5229 H   0  0  0  0  0  0  0  0  0  0  0  0
   -0.2774   -1.7837    2.3968 H   0  0  0  0  0  0  0  0  0  0  0  0
   -4.9529   -0.6134    1.3903 H   0  0  0  0  0  0  0  0  0  0  0  0
   -3.9087    1.4880   -1.8616 H   0  0  0  0  0  0  0  0  0  0  0  0
   -3.1531    2.5585   -0.7424 H   0  0  0  0  0  0  0  0  0  0  0  0
    5.3017   -1.3583   -1.7489 H   0  0  0  0  0  0  0  0  0  0  0  0
    5.8037    0.3427   -1.7068 H   0  0  0  0  0  0  0  0  0  0  0  0
    5.2495   -1.7894    2.0198 H   0  0  0  0  0  0  0  0  0  0  0  0
    5.6643   -2.6302    0.5214 H   0  0  0  0  0  0  0  0  0  0  0  0
    6.8375   -1.5708    1.3102 H   0  0  0  0  0  0  0  0  0  0  0  0
   -6.2276    0.3857   -1.1908 H   0  0  0  0  0  0  0  0  0  0  0  0
   -6.8111    0.6641    0.4219 H   0  0  0  0  0  0  0  0  0  0  0  0
   -4.5423   -0.6278   -2.4117 H   0  0  0  0  0  0  0  0  0  0  0  0
   -2.9342   -1.3401   -2.3786 H   0  0  0  0  0  0  0  0  0  0  0  0
   -4.3430   -2.3121   -1.9435 H   0  0  0  0  0  0  0  0  0  0  0  0
    7.3503    1.7865    1.3725 H   0  0  0  0  0  0  0  0  0  0  0  0
   -5.2705    3.9144   -0.6716 H   0  0  0  0  0  0  0  0  0  0  0  0
   -5.7567    2.3414    1.9559 H   0  0  0  0  0  0  0  0  0  0  0  0
   -6.0319    2.7603   -1.7746 H   0  0  0  0  0  0  0  0  0  0  0  0
   -6.7981    3.1389   -0.2252 H   0  0  0  0  0  0  0  0  0  0  0  0
   -4.2301    1.4534    1.9625 H   0  0  0  0  0  0  0  0  0  0  0  0
   -4.2546    3.1514    1.4921 H   0  0  0  0  0  0  0  0  0  0  0  0
    7.5298   -1.0908   -1.9188 H   0  0  0  0  0  0  0  0  0  0  0  0
   -6.4843   -2.0317    2.0820 H   0  0  0  0  0  0  0  0  0  0  0  0
   -7.6778   -1.1439    1.0742 H   0  0  0  0  0  0  0  0  0  0  0  0
   -7.4986   -2.8896    0.9165 H   0  0  0  0  0  0  0  0  0  0  0  0
  1 20  1  0  0  0  0
  1 76  1  0  0  0  0
  2 25  1  0  0  0  0
  2 34  1  0  0  0  0
  3 27  1  0  0  0  0
  3 83  1  0  0  0  0
  4  5  1  0  0  0  0
  4  7  1  0  0  0  0
  4  9  1  0  0  0  0
  4 18  1  0  0  0  0
  5  6  1  0  0  0  0
  5 12  1  0  0  0  0
  5 35  1  0  0  0  0
  6  8  1  0  0  0  0
  6 14  1  0  0  0  0
  6 21  1  0  0  0  0
  7 13  1  0  0  0  0
  7 15  1  0  0  0  0
  7 24  1  0  0  0  0
  8 10  1  0  0  0  0
  8 11  1  0  0  0  0
  8 36  1  0  0  0  0
  9 10  1  0  0  0  0
  9 37  1  0  0  0  0
  9 38  1  0  0  0  0
 10 39  1  0  0  0  0
 10 40  1  0  0  0  0
 11 20  1  0  0  0  0
 11 27  1  0  0  0  0
 11 28  1  0  0  0  0
 12 16  1  0  0  0  0
 12 41  1  0  0  0  0
 12 42  1  0  0  0  0
 13 16  1  0  0  0  0
 13 19  2  0  0  0  0
 14 23  1  0  0  0  0
 14 43  1  0  0  0  0
 14 44  1  0  0  0  0
 15 22  1  0  0  0  0
 15 45  1  0  0  0  0
 15 46  1  0  0  0  0
 16 47  1  0  0  0  0
 16 48  1  0  0  0  0
 17 19  1  0  0  0  0
 17 22  1  0  0  0  0
 17 25  1  0  0  0  0
 17 31  1  0  0  0  0
 18 49  1  0  0  0  0
 18 50  1  0  0  0  0
 18 51  1  0  0  0  0
 19 26  1  0  0  0  0
 20 23  1  0  0  0  0
 20 52  1  0  0  0  0
 21 53  1  0  0  0  0
 21 54  1  0  0  0  0
 21 55  1  0  0  0  0
 22 56  1  0  0  0  0
 22 57  1  0  0  0  0
 23 58  1  0  0  0  0
 23 59  1  0  0  0  0
 24 60  1  0  0  0  0
 24 61  1  0  0  0  0
 24 62  1  0  0  0  0
 25 30  1  0  0  0  0
 25 63  1  0  0  0  0
 26 29  1  0  0  0  0
 26 64  1  0  0  0  0
 26 65  1  0  0  0  0
 27 66  1  0  0  0  0
 27 67  1  0  0  0  0
 28 68  1  0  0  0  0
 28 69  1  0  0  0  0
 28 70  1  0  0  0  0
 29 30  1  0  0  0  0
 29 32  1  0  0  0  0
 29 33  1  0  0  0  0
 30 71  1  0  0  0  0
 30 72  1  0  0  0  0
 31 73  1  0  0  0  0
 31 74  1  0  0  0  0
 31 75  1  0  0  0  0
 32 77  1  0  0  0  0
 32 79  1  0  0  0  0
 32 80  1  0  0  0  0
 33 78  1  0  0  0  0
 33 81  1  0  0  0  0
 33 82  1  0  0  0  0
 34 84  1  0  0  0  0
 34 85  1  0  0  0  0
 34 86  1  0  0  0  0
M  END
> <PUBCHEM_COMPOUND_CID>
46173903

> <PUBCHEM_CONFORMER_RMSD>
0.8

> <PUBCHEM_CONFORMER_DIVERSEORDER>
1

> <PUBCHEM_MMFF94_PARTIAL_CHARGES>
15
1 -0.68
13 -0.28
16 0.14
17 0.14
19 -0.28
2 -0.56
20 0.28
25 0.28
26 0.14
27 0.28
3 -0.68
34 0.28
7 0.14
76 0.4
83 0.4

> <PUBCHEM_EFFECTIVE_ROTOR_COUNT>
4.8

> <PUBCHEM_PHARMACOPHORE_FEATURES>
11
1 1 acceptor
1 1 donor
1 2 acceptor
1 3 acceptor
1 3 donor
3 29 32 33 hydrophobe
6 17 19 25 26 29 30 rings
6 4 5 6 8 9 10 rings
6 4 5 7 12 13 16 rings
6 6 8 11 14 20 23 rings
6 7 13 15 17 19 22 rings

> <PUBCHEM_HEAVY_ATOM_COUNT>
34

> <PUBCHEM_ATOM_DEF_STEREO_COUNT>
9

> <PUBCHEM_ATOM_UDEF_STEREO_COUNT>
0

> <PUBCHEM_BOND_DEF_STEREO_COUNT>
0

> <PUBCHEM_BOND_UDEF_STEREO_COUNT>
0

> <PUBCHEM_ISOTOPIC_ATOM_COUNT>
0

> <PUBCHEM_COMPONENT_COUNT>
1

> <PUBCHEM_CACTVS_TAUTO_COUNT>
1

> <PUBCHEM_CONFORMER_ID>
02C08ECF00000001

> <PUBCHEM_MMFF94_ENERGY>
156.5013

> <PUBCHEM_FEATURE_SELFOVERLAP>
55.889

> <PUBCHEM_SHAPE_FINGERPRINT>
10675989 125 17114671169101693965
10906281 52 18201141231313133546
11007060 377 18202560657838185121
11578080 2 17025451984647557376
12107698 1 18337111164557643399
12166972 35 18201434753372864724
12236239 1 18059857285204066770
12422481 6 17989205988123872565
12516196 113 18408604742968086088
12788726 201 17532092881009391113
13073987 5 18413392025127289795
13533116 47 17916872443096761082
13690498 29 17169005391433886031
13782708 43 17895198740545168551
13811026 1 18409454678293974440
14251764 18 17917992754928890838
14394314 77 18412262873683213185
144659 39 17968099724309526973
14790565 3 18411136974197584049
14856354 85 16271921597756698067
15021287 119 17275100635056434925
15131766 46 15911050779325074285
15183329 4 17418092118164355878
15196674 1 18410858754389345753
15238133 3 18272645758138624260
1577012 14 17918270974209654108
15788980 27 18260269637564616759
17349148 13 18130786759132472164
17844677 252 18409442562344271633
17980427 23 18273213075651838236
18608769 82 18338797815542663291
20511986 3 18335715965099304681
20715895 44 18338239378613439168
21033648 29 18114760243697676080
21130935 74 18342461473611162010
21236236 1 18410013230675456345
21267235 1 18411411795885078071
21279426 13 18336265725414083244
21781051 124 17488448694631612307
22149856 69 18336248077899671907
23402539 116 18410579500111076933
23522609 53 17915433160426704532
23559900 14 18335708221785486288
23569943 247 17344363382506595090
24771293 8 18190474775077309840
2747138 104 18128809764643973139
2838139 119 18335147444626379276
3004659 81 18343862217286223132
32027 91 16951950967928788086
335352 9 18411420643565070604
3383291 50 18201719492783502123
34797466 226 17822285752530886174
350125 39 18341050808935198572
3680242 22 18272090560490272514
404807 14 17179108017360184814
4073 2 18130223757998178914
4093350 32 17312820481718027518
4144715 1 18341040887260584315
469060 322 16773799195546455655
5104073 3 18411702101351122515
5283173 99 18411140259536647481
6086070 43 17313680273186914481
7226269 152 18261111915386108537
77296 10 18410855503083304602
9996256 80 18412544284693590163

> <PUBCHEM_SHAPE_MULTIPOLES>
682.1
17.74
2.73
1.36
5.18
0.64
-0.17
0.77
1.52
-2.5
0.23
0.08
-0.14
0.67

> <PUBCHEM_SHAPE_SELFOVERLAP>
1439.988

> <PUBCHEM_SHAPE_VOLUME>
379

> <PUBCHEM_COORDINATE_TYPE>
2
5
10

$$$$

