443844
  -OEChem-07051213033D

 31 32  0     1  0  0  0  0  0999 V2000
   -0.6193   -1.7642   -0.9154 O   0  0  0  0  0  0  0  0  0  0  0  0
   -2.8069   -0.1725    0.6215 O   0  0  0  0  0  0  0  0  0  0  0  0
   -1.9350    1.4553   -0.7666 O   0  0  0  0  0  0  0  0  0  0  0  0
    1.8746    0.5663    0.8276 N   0  0  1  0  0  0  0  0  0  0  0  0
    0.6722    1.0066    0.0916 C   0  0  2  0  0  0  0  0  0  0  0  0
    2.2265   -0.6933    0.1467 C   0  0  2  0  0  0  0  0  0  0  0  0
   -0.4837    0.1238    0.6237 C   0  0  2  0  0  0  0  0  0  0  0  0
    1.0184    0.7448   -1.3802 C   0  0  0  0  0  0  0  0  0  0  0  0
    2.0524   -0.3820   -1.3422 C   0  0  0  0  0  0  0  0  0  0  0  0
    1.2283   -1.7626    0.6487 C   0  0  0  0  0  0  0  0  0  0  0  0
   -0.2464   -1.3850    0.4097 C   0  0  2  0  0  0  0  0  0  0  0  0
    2.9530    1.5507    0.7973 C   0  0  0  0  0  0  0  0  0  0  0  0
   -1.8056    0.5655    0.0633 C   0  0  0  0  0  0  0  0  0  0  0  0
   -4.1284    0.1464    0.1743 C   0  0  0  0  0  0  0  0  0  0  0  0
    0.4404    2.0641    0.2682 H   0  0  0  0  0  0  0  0  0  0  0  0
    3.2445   -1.0278    0.3770 H   0  0  0  0  0  0  0  0  0  0  0  0
   -0.5401    0.3081    1.7078 H   0  0  0  0  0  0  0  0  0  0  0  0
    1.4726    1.6366   -1.8293 H   0  0  0  0  0  0  0  0  0  0  0  0
    0.1560    0.4811   -1.9985 H   0  0  0  0  0  0  0  0  0  0  0  0
    1.7392   -1.2526   -1.9267 H   0  0  0  0  0  0  0  0  0  0  0  0
    2.9950   -0.0246   -1.7739 H   0  0  0  0  0  0  0  0  0  0  0  0
    1.4574   -2.7213    0.1680 H   0  0  0  0  0  0  0  0  0  0  0  0
    1.3831   -1.8964    1.7277 H   0  0  0  0  0  0  0  0  0  0  0  0
   -0.8851   -1.9645    1.0866 H   0  0  0  0  0  0  0  0  0  0  0  0
    2.6374    2.4678    1.3068 H   0  0  0  0  0  0  0  0  0  0  0  0
    3.2815    1.8210   -0.2114 H   0  0  0  0  0  0  0  0  0  0  0  0
    3.8222    1.1712    1.3455 H   0  0  0  0  0  0  0  0  0  0  0  0
   -0.4918   -2.7250   -0.9933 H   0  0  0  0  0  0  0  0  0  0  0  0
   -4.3710    1.1847    0.4194 H   0  0  0  0  0  0  0  0  0  0  0  0
   -4.8310   -0.5104    0.6940 H   0  0  0  0  0  0  0  0  0  0  0  0
   -4.2157   -0.0276   -0.9024 H   0  0  0  0  0  0  0  0  0  0  0  0
  1 11  1  0  0  0  0
  1 28  1  0  0  0  0
  2 13  1  0  0  0  0
  2 14  1  0  0  0  0
  3 13  2  0  0  0  0
  4  5  1  0  0  0  0
  4  6  1  0  0  0  0
  4 12  1  0  0  0  0
  5  7  1  0  0  0  0
  5  8  1  0  0  0  0
  5 15  1  0  0  0  0
  6  9  1  0  0  0  0
  6 10  1  0  0  0  0
  6 16  1  0  0  0  0
  7 11  1  0  0  0  0
  7 13  1  0  0  0  0
  7 17  1  0  0  0  0
  8  9  1  0  0  0  0
  8 18  1  0  0  0  0
  8 19  1  0  0  0  0
  9 20  1  0  0  0  0
  9 21  1  0  0  0  0
 10 11  1  0  0  0  0
 10 22  1  0  0  0  0
 10 23  1  0  0  0  0
 11 24  1  0  0  0  0
 12 25  1  0  0  0  0
 12 26  1  0  0  0  0
 12 27  1  0  0  0  0
 14 29  1  0  0  0  0
 14 30  1  0  0  0  0
 14 31  1  0  0  0  0
M  END
> <PUBCHEM_COMPOUND_CID>
443844

> <PUBCHEM_CONFORMER_RMSD>
0.6

> <PUBCHEM_CONFORMER_DIVERSEORDER>
1
3
6
2
5
4

> <PUBCHEM_MMFF94_PARTIAL_CHARGES>
12
1 -0.68
11 0.28
12 0.27
13 0.66
14 0.28
2 -0.43
28 0.4
3 -0.57
4 -0.81
5 0.27
6 0.27
7 0.06

> <PUBCHEM_EFFECTIVE_ROTOR_COUNT>
3.2

> <PUBCHEM_PHARMACOPHORE_FEATURES>
5
1 1 acceptor
1 1 donor
1 3 acceptor
1 4 cation
8 4 5 6 7 8 9 10 11 rings

> <PUBCHEM_HEAVY_ATOM_COUNT>
14

> <PUBCHEM_ATOM_DEF_STEREO_COUNT>
2

> <PUBCHEM_ATOM_UDEF_STEREO_COUNT>
2

> <PUBCHEM_BOND_DEF_STEREO_COUNT>
0

> <PUBCHEM_BOND_UDEF_STEREO_COUNT>
0

> <PUBCHEM_ISOTOPIC_ATOM_COUNT>
0

> <PUBCHEM_COMPONENT_COUNT>
1

> <PUBCHEM_CACTVS_TAUTO_COUNT>
1

> <PUBCHEM_CONFORMER_ID>
0006C5C400000001

> <PUBCHEM_MMFF94_ENERGY>
33.3662

> <PUBCHEM_FEATURE_SELFOVERLAP>
25.371

> <PUBCHEM_SHAPE_FINGERPRINT>
1 1 18337390547141904519
12138202 97 17968659289891996020
12423570 1 17775297057717978524
12932764 1 18409726305058186429
13024252 1 17547889290019816832
13380536 305 18129925811157178044
13538477 17 17345747469665478858
14344429 50 18335136527114626050
15775835 57 18408323259290593067
16945 1 18060128834595622489
18186145 218 18113891689272191425
20511035 2 17912940657475148423
21040471 1 18343577430515122354
21501502 16 18043261153979171574
21730867 7 18410013255843899617
22344851 262 18271531875312768608
230 275 18343299262420610484
23402539 116 17895204289336738744
23419403 2 16258478105280357242
2748010 2 18200318864902452405
276578 36 18412255129872073787
430814 3 16197870490316149014
5084963 1 18200864179709502777
528886 8 17703492338601516582
5337951 7 17894625955232131500
7364860 26 18335139847066700402

> <PUBCHEM_SHAPE_MULTIPOLES>
265.52
4.67
1.67
1.15
4.35
0.38
-0.31
-1.17
0.61
-0.57
0.06
-0.54
-0.07
0.3

> <PUBCHEM_SHAPE_SELFOVERLAP>
551.783

> <PUBCHEM_SHAPE_VOLUME>
152.3

> <PUBCHEM_COORDINATE_TYPE>
2
5
10

$$$$

