10400039
  -OEChem-07051213092D

 32 32  0     0  0  0  0  0  0999 V2000
    2.3100   -0.3100    0.0000 O   0  0  0  0  0  0  0  0  0  0  0  0
    4.1760    1.1900    0.0000 O   0  0  0  0  0  0  0  0  0  0  0  0
    4.8100    0.5560    0.0000 O   0  0  0  0  0  0  0  0  0  0  0  0
    3.3100    2.6900    0.0000 O   0  0  0  0  0  0  0  0  0  0  0  0
    6.3100    1.4220    0.0000 O   0  0  0  0  0  0  0  0  0  0  0  0
    5.0420    2.6900    0.0000 N   0  0  0  0  0  0  0  0  0  0  0  0
    6.3100   -0.3100    0.0000 N   0  0  0  0  0  0  0  0  0  0  0  0
    3.3100   -0.3100    0.0000 C   0  0  0  0  0  0  0  0  0  0  0  0
    3.3100   -1.3100    0.0000 C   0  0  0  0  0  0  0  0  0  0  0  0
    3.3100    0.6900    0.0000 C   0  0  0  0  0  0  0  0  0  0  0  0
    4.3100   -0.3100    0.0000 C   0  0  0  0  0  0  0  0  0  0  0  0
    2.4440   -1.8100    0.0000 C   0  0  0  0  0  0  0  0  0  0  0  0
    4.1760   -1.8100    0.0000 C   0  0  0  0  0  0  0  0  0  0  0  0
    2.4440   -2.8100    0.0000 C   0  0  0  0  0  0  0  0  0  0  0  0
    4.1760   -2.8100    0.0000 C   0  0  0  0  0  0  0  0  0  0  0  0
    3.3100   -3.3100    0.0000 C   0  0  0  0  0  0  0  0  0  0  0  0
    4.1760    2.1900    0.0000 C   0  0  0  0  0  0  0  0  0  0  0  0
    5.8100    0.5560    0.0000 C   0  0  0  0  0  0  0  0  0  0  0  0
    3.0980    1.2726    0.0000 H   0  0  0  0  0  0  0  0  0  0  0  0
    2.6994    0.5823    0.0000 H   0  0  0  0  0  0  0  0  0  0  0  0
    4.2023   -0.9206    0.0000 H   0  0  0  0  0  0  0  0  0  0  0  0
    4.8926   -0.5221    0.0000 H   0  0  0  0  0  0  0  0  0  0  0  0
    1.9070   -1.5000    0.0000 H   0  0  0  0  0  0  0  0  0  0  0  0
    4.7130   -1.5000    0.0000 H   0  0  0  0  0  0  0  0  0  0  0  0
    2.0000    0.2269    0.0000 H   0  0  0  0  0  0  0  0  0  0  0  0
    1.9070   -3.1200    0.0000 H   0  0  0  0  0  0  0  0  0  0  0  0
    4.7130   -3.1200    0.0000 H   0  0  0  0  0  0  0  0  0  0  0  0
    3.3100   -3.9300    0.0000 H   0  0  0  0  0  0  0  0  0  0  0  0
    5.0420    3.3100    0.0000 H   0  0  0  0  0  0  0  0  0  0  0  0
    5.5790    2.3800    0.0000 H   0  0  0  0  0  0  0  0  0  0  0  0
    6.9300   -0.3100    0.0000 H   0  0  0  0  0  0  0  0  0  0  0  0
    6.0000   -0.8469    0.0000 H   0  0  0  0  0  0  0  0  0  0  0  0
  1  8  1  0  0  0  0
  1 25  1  0  0  0  0
  2 10  1  0  0  0  0
  2 17  1  0  0  0  0
  3 11  1  0  0  0  0
  3 18  1  0  0  0  0
  4 17  2  0  0  0  0
  5 18  2  0  0  0  0
  6 17  1  0  0  0  0
  6 29  1  0  0  0  0
  6 30  1  0  0  0  0
  7 18  1  0  0  0  0
  7 31  1  0  0  0  0
  7 32  1  0  0  0  0
  8  9  1  0  0  0  0
  8 10  1  0  0  0  0
  8 11  1  0  0  0  0
  9 12  2  0  0  0  0
  9 13  1  0  0  0  0
 10 19  1  0  0  0  0
 10 20  1  0  0  0  0
 11 21  1  0  0  0  0
 11 22  1  0  0  0  0
 12 14  1  0  0  0  0
 12 23  1  0  0  0  0
 13 15  2  0  0  0  0
 13 24  1  0  0  0  0
 14 16  2  0  0  0  0
 14 26  1  0  0  0  0
 15 16  1  0  0  0  0
 15 27  1  0  0  0  0
 16 28  1  0  0  0  0
M  END
> <PUBCHEM_COMPOUND_CID>
10400039

> <PUBCHEM_COMPOUND_CANONICALIZED>
1

> <PUBCHEM_CACTVS_COMPLEXITY>
284

> <PUBCHEM_CACTVS_HBOND_ACCEPTOR>
5

> <PUBCHEM_CACTVS_HBOND_DONOR>
3

> <PUBCHEM_CACTVS_ROTATABLE_BOND>
7

> <PUBCHEM_CACTVS_SUBSKEYS>
AAADccBzOAAAAAAAAAAAAAAAAAAAAAAAAAAwAAAAAAAAAAABAAAAHgAQCAAADESgmAIwCIBABgCIAiBCGAACAAAgAAAIiAAACIkJJiKAERCIcAAlwAELmAeAwOAOgAAAAAAAAAAAAAAAAAAAAAAAAAAAAA==

> <PUBCHEM_IUPAC_OPENEYE_NAME>
(3-carbamoyloxy-2-hydroxy-2-phenyl-propyl) carbamate

> <PUBCHEM_IUPAC_CAS_NAME>
carbamic acid (3-carbamoyloxy-2-hydroxy-2-phenylpropyl) ester

> <PUBCHEM_IUPAC_NAME>
(3-carbamoyloxy-2-hydroxy-2-phenylpropyl) carbamate

> <PUBCHEM_IUPAC_SYSTEMATIC_NAME>
(3-aminocarbonyloxy-2-oxidanyl-2-phenyl-propyl) carbamate

> <PUBCHEM_IUPAC_TRADITIONAL_NAME>
carbamic acid (3-carbamoyloxy-2-hydroxy-2-phenyl-propyl) ester

> <PUBCHEM_IUPAC_INCHI>
InChI=1S/C11H14N2O5/c12-9(14)17-6-11(16,7-18-10(13)15)8-4-2-1-3-5-8/h1-5,16H,6-7H2,(H2,12,14)(H2,13,15)

> <PUBCHEM_IUPAC_INCHIKEY>
VTXNIAJKDLEHGX-UHFFFAOYSA-N

> <PUBCHEM_XLOGP3_AA>
-0.5

> <PUBCHEM_EXACT_MASS>
254.090272

> <PUBCHEM_MOLECULAR_FORMULA>
C11H14N2O5

> <PUBCHEM_MOLECULAR_WEIGHT>
254.23926

> <PUBCHEM_OPENEYE_CAN_SMILES>
C1=CC=C(C=C1)C(COC(=O)N)(COC(=O)N)O

> <PUBCHEM_OPENEYE_ISO_SMILES>
C1=CC=C(C=C1)C(COC(=O)N)(COC(=O)N)O

> <PUBCHEM_CACTVS_TPSA>
125

> <PUBCHEM_MONOISOTOPIC_WEIGHT>
254.090272

> <PUBCHEM_TOTAL_CHARGE>
0

> <PUBCHEM_HEAVY_ATOM_COUNT>
18

> <PUBCHEM_ATOM_DEF_STEREO_COUNT>
0

> <PUBCHEM_ATOM_UDEF_STEREO_COUNT>
0

> <PUBCHEM_BOND_DEF_STEREO_COUNT>
0

> <PUBCHEM_BOND_UDEF_STEREO_COUNT>
0

> <PUBCHEM_ISOTOPIC_ATOM_COUNT>
0

> <PUBCHEM_COMPONENT_COUNT>
1

> <PUBCHEM_CACTVS_TAUTO_COUNT>
3

> <PUBCHEM_COORDINATE_TYPE>
1
5
255

> <PUBCHEM_BONDANNOTATIONS>
12  14  8
13  15  8
14  16  8
15  16  8
9  12  8
9  13  8

$$$$

