443743
  -OEChem-07051213032D

 41 45  0     1  0  0  0  0  0999 V2000
    3.7427   -0.9213    0.0000 O   0  0  0  0  0  0  0  0  0  0  0  0
    2.8197   -0.3335    0.0000 O   0  0  0  0  0  0  0  0  0  0  0  0
    2.0000    3.4098    0.0000 O   0  0  0  0  0  0  0  0  0  0  0  0
    3.4519    4.2480    0.0000 O   0  0  0  0  0  0  0  0  0  0  0  0
    5.4167   -3.6045    0.0000 O   0  0  0  0  0  0  0  0  0  0  0  0
    3.4640   -2.6814    0.0000 O   0  0  0  0  0  0  0  0  0  0  0  0
    7.4235   -3.1941    0.0000 O   0  0  0  0  0  0  0  0  0  0  0  0
    4.5518   -0.3335    0.0000 C   0  0  2  0  0  0  0  0  0  0  0  0
    5.3608   -0.9213    0.0000 C   0  0  0  0  0  0  0  0  0  0  0  0
    3.6857    0.1665    0.0000 C   0  0  0  0  0  0  0  0  0  0  0  0
    5.0518   -1.8724    0.0000 C   0  0  0  0  0  0  0  0  0  0  0  0
    5.4178    0.1665    0.0000 C   0  0  0  0  0  0  0  0  0  0  0  0
    3.6857    1.1665    0.0000 C   0  0  0  0  0  0  0  0  0  0  0  0
    4.5518    1.6665    0.0000 C   0  0  0  0  0  0  0  0  0  0  0  0
    5.4178    1.1665    0.0000 C   0  0  0  0  0  0  0  0  0  0  0  0
    4.0518   -1.8724    0.0000 C   0  0  0  0  0  0  0  0  0  0  0  0
    6.3762   -0.6891    0.0000 C   0  0  0  0  0  0  0  0  0  0  0  0
    5.7367   -2.6571    0.0000 C   0  0  0  0  0  0  0  0  0  0  0  0
    2.7757    1.6733    0.0000 C   0  0  0  0  0  0  0  0  0  0  0  0
    4.5678    2.7080    0.0000 C   0  0  0  0  0  0  0  0  0  0  0  0
    2.7677    2.7149    0.0000 C   0  0  0  0  0  0  0  0  0  0  0  0
    3.6698    3.2357    0.0000 C   0  0  0  0  0  0  0  0  0  0  0  0
    6.7572   -2.4484    0.0000 C   0  0  0  0  0  0  0  0  0  0  0  0
    7.0791   -1.4578    0.0000 C   0  0  0  0  0  0  0  0  0  0  0  0
    2.4220    4.3553    0.0000 C   0  0  0  0  0  0  0  0  0  0  0  0
    6.0772   -4.3553    0.0000 C   0  0  0  0  0  0  0  0  0  0  0  0
    8.4024   -2.9900    0.0000 C   0  0  0  0  0  0  0  0  0  0  0  0
    5.9547   -0.1435    0.0000 H   0  0  0  0  0  0  0  0  0  0  0  0
    5.9547    1.4765    0.0000 H   0  0  0  0  0  0  0  0  0  0  0  0
    6.5609   -0.0972    0.0000 H   0  0  0  0  0  0  0  0  0  0  0  0
    2.2424    1.3571    0.0000 H   0  0  0  0  0  0  0  0  0  0  0  0
    5.1083    3.0118    0.0000 H   0  0  0  0  0  0  0  0  0  0  0  0
    7.6851   -1.3265    0.0000 H   0  0  0  0  0  0  0  0  0  0  0  0
    2.5507    4.9618    0.0000 H   0  0  0  0  0  0  0  0  0  0  0  0
    1.8324    4.5471    0.0000 H   0  0  0  0  0  0  0  0  0  0  0  0
    5.6117   -4.7649    0.0000 H   0  0  0  0  0  0  0  0  0  0  0  0
    6.4867   -4.8209    0.0000 H   0  0  0  0  0  0  0  0  0  0  0  0
    6.5427   -3.9458    0.0000 H   0  0  0  0  0  0  0  0  0  0  0  0
    8.5290   -3.5969    0.0000 H   0  0  0  0  0  0  0  0  0  0  0  0
    9.0094   -2.8634    0.0000 H   0  0  0  0  0  0  0  0  0  0  0  0
    8.2759   -2.3830    0.0000 H   0  0  0  0  0  0  0  0  0  0  0  0
  8  1  1  6  0  0  0
  1 16  1  0  0  0  0
  2 10  2  0  0  0  0
  3 21  1  0  0  0  0
  3 25  1  0  0  0  0
  4 22  1  0  0  0  0
  4 25  1  0  0  0  0
  5 18  1  0  0  0  0
  5 26  1  0  0  0  0
  6 16  2  0  0  0  0
  7 23  1  0  0  0  0
  7 27  1  0  0  0  0
  8  9  1  0  0  0  0
  8 10  1  0  0  0  0
  8 12  1  0  0  0  0
  9 11  2  0  0  0  0
  9 17  1  0  0  0  0
 10 13  1  0  0  0  0
 11 16  1  0  0  0  0
 11 18  1  0  0  0  0
 12 15  2  0  0  0  0
 12 28  1  0  0  0  0
 13 14  1  0  0  0  0
 13 19  2  0  0  0  0
 14 15  1  0  0  0  0
 14 20  2  0  0  0  0
 15 29  1  0  0  0  0
 17 24  2  0  0  0  0
 17 30  1  0  0  0  0
 18 23  2  0  0  0  0
 19 21  1  0  0  0  0
 19 31  1  0  0  0  0
 20 22  1  0  0  0  0
 20 32  1  0  0  0  0
 21 22  2  0  0  0  0
 23 24  1  0  0  0  0
 24 33  1  0  0  0  0
 25 34  1  0  0  0  0
 25 35  1  0  0  0  0
 26 36  1  0  0  0  0
 26 37  1  0  0  0  0
 26 38  1  0  0  0  0
 27 39  1  0  0  0  0
 27 40  1  0  0  0  0
 27 41  1  0  0  0  0
M  END
> <PUBCHEM_COMPOUND_CID>
443743

> <PUBCHEM_COMPOUND_CANONICALIZED>
1

> <PUBCHEM_CACTVS_COMPLEXITY>
675

> <PUBCHEM_CACTVS_HBOND_ACCEPTOR>
7

> <PUBCHEM_CACTVS_HBOND_DONOR>
0

> <PUBCHEM_CACTVS_ROTATABLE_BOND>
2

> <PUBCHEM_CACTVS_SUBSKEYS>
AAADccB4OAAAAAAAAAAAAAAAAAAAASJAAAAwYIAAAAAAAEiBQAAAGgAAAAAADESAmAMyDoAABACIAqDSCAICCAAkIAAIiAFGiMgdJzaENR6iMWIl4BEOqYfK7vzuoAABAAAYQABAAAIAADCAAAAAAAAAAA==

> <PUBCHEM_IUPAC_OPENEYE_NAME>
(6R)-6',7'-dimethoxyspiro[benzo[f][1,3]benzodioxole-6,3'-isobenzofuran]-1',5-dione

> <PUBCHEM_IUPAC_CAS_NAME>
(6R)-6',7'-dimethoxyspiro[benzo[f][1,3]benzodioxole-6,3'-isobenzofuran]-1',5-dione

> <PUBCHEM_IUPAC_NAME>
(3R)-6,7-dimethoxyspiro[2-benzofuran-3,6'-benzo[f][1,3]benzodioxole]-1,5'-dione

> <PUBCHEM_IUPAC_SYSTEMATIC_NAME>
(3R)-6,7-dimethoxyspiro[2-benzofuran-3,6'-benzo[f][1,3]benzodioxole]-1,5'-dione

> <PUBCHEM_IUPAC_TRADITIONAL_NAME>
(6R)-6',7'-dimethoxyspiro[benzo[f][1,3]benzodioxole-6,3'-phthalan]-1',5-quinone

> <PUBCHEM_IUPAC_INCHI>
InChI=1S/C20H14O7/c1-23-13-4-3-12-16(17(13)24-2)19(22)27-20(12)6-5-10-7-14-15(26-9-25-14)8-11(10)18(20)21/h3-8H,9H2,1-2H3/t20-/m1/s1

> <PUBCHEM_IUPAC_INCHIKEY>
JEHSMJTYFMMHKE-HXUWFJFHSA-N

> <PUBCHEM_XLOGP3_AA>
3.2

> <PUBCHEM_EXACT_MASS>
366.073953

> <PUBCHEM_MOLECULAR_FORMULA>
C20H14O7

> <PUBCHEM_MOLECULAR_WEIGHT>
366.32096

> <PUBCHEM_OPENEYE_CAN_SMILES>
COC1=C(C2=C(C=C1)C3(C=CC4=CC5=C(C=C4C3=O)OCO5)OC2=O)OC

> <PUBCHEM_OPENEYE_ISO_SMILES>
COC1=C(C2=C(C=C1)[C@@]3(C=CC4=CC5=C(C=C4C3=O)OCO5)OC2=O)OC

> <PUBCHEM_CACTVS_TPSA>
80.3

> <PUBCHEM_MONOISOTOPIC_WEIGHT>
366.073953

> <PUBCHEM_TOTAL_CHARGE>
0

> <PUBCHEM_HEAVY_ATOM_COUNT>
27

> <PUBCHEM_ATOM_DEF_STEREO_COUNT>
1

> <PUBCHEM_ATOM_UDEF_STEREO_COUNT>
0

> <PUBCHEM_BOND_DEF_STEREO_COUNT>
0

> <PUBCHEM_BOND_UDEF_STEREO_COUNT>
0

> <PUBCHEM_ISOTOPIC_ATOM_COUNT>
0

> <PUBCHEM_COMPONENT_COUNT>
1

> <PUBCHEM_CACTVS_TAUTO_COUNT>
1

> <PUBCHEM_COORDINATE_TYPE>
1
5
255

> <PUBCHEM_BONDANNOTATIONS>
8  1  6
11  18  8
13  14  8
13  19  8
14  20  8
17  24  8
18  23  8
19  21  8
20  22  8
21  22  8
23  24  8
9  11  8
9  17  8

$$$$

