279064
  -OEChem-07051213003D

 42 44  0     1  0  0  0  0  0999 V2000
   -1.0459   -0.3601    0.4190 O   0  0  0  0  0  0  0  0  0  0  0  0
   -0.4857    1.6307   -0.5922 O   0  0  0  0  0  0  0  0  0  0  0  0
    4.5683    1.4264    0.3207 O   0  0  0  0  0  0  0  0  0  0  0  0
    5.0978   -1.3004    0.2363 O   0  0  0  0  0  0  0  0  0  0  0  0
   -4.9052   -1.0505   -0.7568 N   0  0  0  0  0  0  0  0  0  0  0  0
   -4.7626   -0.9728    0.7078 C   0  0  2  0  0  0  0  0  0  0  0  0
   -4.4018    0.2608   -1.2021 C   0  0  1  0  0  0  0  0  0  0  0  0
   -5.3327    0.4092    1.0276 C   0  0  0  0  0  0  0  0  0  0  0  0
   -5.0921    1.2295   -0.2418 C   0  0  0  0  0  0  0  0  0  0  0  0
   -3.2690   -1.1019    1.0459 C   0  0  0  0  0  0  0  0  0  0  0  0
   -2.8720    0.2554   -1.0560 C   0  0  0  0  0  0  0  0  0  0  0  0
   -2.4232   -0.0061    0.3873 C   0  0  0  0  0  0  0  0  0  0  0  0
   -0.1824    0.5525   -0.1053 C   0  0  0  0  0  0  0  0  0  0  0  0
    1.2171    0.0652   -0.0134 C   0  0  0  0  0  0  0  0  0  0  0  0
    2.2373    0.9859    0.1121 C   0  0  0  0  0  0  0  0  0  0  0  0
    1.4545   -1.2935   -0.0582 C   0  0  0  0  0  0  0  0  0  0  0  0
    3.5522    0.5278    0.1967 C   0  0  0  0  0  0  0  0  0  0  0  0
    2.7692   -1.7515    0.0265 C   0  0  0  0  0  0  0  0  0  0  0  0
    3.8179   -0.8409    0.1540 C   0  0  0  0  0  0  0  0  0  0  0  0
    4.2374    2.7998    0.3584 C   0  0  0  0  0  0  0  0  0  0  0  0
    5.8208   -1.4656   -0.9665 C   0  0  0  0  0  0  0  0  0  0  0  0
   -5.3300   -1.7668    1.2031 H   0  0  0  0  0  0  0  0  0  0  0  0
   -4.6804    0.4576   -2.2421 H   0  0  0  0  0  0  0  0  0  0  0  0
   -4.8683    0.8672    1.9068 H   0  0  0  0  0  0  0  0  0  0  0  0
   -6.4111    0.3443    1.2164 H   0  0  0  0  0  0  0  0  0  0  0  0
   -6.0570    1.5524   -0.6512 H   0  0  0  0  0  0  0  0  0  0  0  0
   -4.4977    2.1273   -0.0438 H   0  0  0  0  0  0  0  0  0  0  0  0
   -2.8997   -2.0888    0.7357 H   0  0  0  0  0  0  0  0  0  0  0  0
   -3.1227   -1.0636    2.1327 H   0  0  0  0  0  0  0  0  0  0  0  0
   -2.5184    1.2235   -1.4220 H   0  0  0  0  0  0  0  0  0  0  0  0
   -2.4358   -0.4983   -1.7256 H   0  0  0  0  0  0  0  0  0  0  0  0
   -2.5432    0.9124    0.9775 H   0  0  0  0  0  0  0  0  0  0  0  0
   -4.3379   -1.8062   -1.1378 H   0  0  0  0  0  0  0  0  0  0  0  0
    1.9744    2.0372    0.1448 H   0  0  0  0  0  0  0  0  0  0  0  0
    0.6573   -2.0222   -0.1708 H   0  0  0  0  0  0  0  0  0  0  0  0
    2.9695   -2.8189   -0.0099 H   0  0  0  0  0  0  0  0  0  0  0  0
    5.1730    3.3600    0.4588 H   0  0  0  0  0  0  0  0  0  0  0  0
    3.6259    3.0468    1.2331 H   0  0  0  0  0  0  0  0  0  0  0  0
    3.7696    3.1311   -0.5751 H   0  0  0  0  0  0  0  0  0  0  0  0
    5.3329   -2.2015   -1.6137 H   0  0  0  0  0  0  0  0  0  0  0  0
    6.8228   -1.8297   -0.7227 H   0  0  0  0  0  0  0  0  0  0  0  0
    5.9183   -0.5124   -1.4963 H   0  0  0  0  0  0  0  0  0  0  0  0
  1 12  1  0  0  0  0
  1 13  1  0  0  0  0
  2 13  2  0  0  0  0
  3 17  1  0  0  0  0
  3 20  1  0  0  0  0
  4 19  1  0  0  0  0
  4 21  1  0  0  0  0
  5  6  1  0  0  0  0
  5  7  1  0  0  0  0
  5 33  1  0  0  0  0
  6  8  1  0  0  0  0
  6 10  1  0  0  0  0
  6 22  1  0  0  0  0
  7  9  1  0  0  0  0
  7 11  1  0  0  0  0
  7 23  1  0  0  0  0
  8  9  1  0  0  0  0
  8 24  1  0  0  0  0
  8 25  1  0  0  0  0
  9 26  1  0  0  0  0
  9 27  1  0  0  0  0
 10 12  1  0  0  0  0
 10 28  1  0  0  0  0
 10 29  1  0  0  0  0
 11 12  1  0  0  0  0
 11 30  1  0  0  0  0
 11 31  1  0  0  0  0
 12 32  1  0  0  0  0
 13 14  1  0  0  0  0
 14 15  2  0  0  0  0
 14 16  1  0  0  0  0
 15 17  1  0  0  0  0
 15 34  1  0  0  0  0
 16 18  2  0  0  0  0
 16 35  1  0  0  0  0
 17 19  2  0  0  0  0
 18 19  1  0  0  0  0
 18 36  1  0  0  0  0
 20 37  1  0  0  0  0
 20 38  1  0  0  0  0
 20 39  1  0  0  0  0
 21 40  1  0  0  0  0
 21 41  1  0  0  0  0
 21 42  1  0  0  0  0
M  END
> <PUBCHEM_COMPOUND_CID>
279064

> <PUBCHEM_CONFORMER_RMSD>
0.8

> <PUBCHEM_CONFORMER_DIVERSEORDER>
5
17
16
46
25
47
49
23
37
8
26
43
7
20
13
38
21
6
42
44
19
30
15
18
34
32
14
27
39
31
40
48
22
33
41
10
2
29
36
24
12
28
45
3
35
1
9
4
11

> <PUBCHEM_MMFF94_PARTIAL_CHARGES>
21
1 -0.43
12 0.28
13 0.63
14 0.09
15 -0.15
16 -0.15
17 0.08
18 -0.15
19 0.08
2 -0.57
20 0.28
21 0.28
3 -0.36
33 0.36
34 0.15
35 0.15
36 0.15
4 -0.36
5 -0.9
6 0.27
7 0.27

> <PUBCHEM_EFFECTIVE_ROTOR_COUNT>
6.2

> <PUBCHEM_PHARMACOPHORE_FEATURES>
7
1 2 acceptor
1 3 acceptor
1 4 acceptor
1 5 cation
1 5 donor
6 14 15 16 17 18 19 rings
8 5 6 7 8 9 10 11 12 rings

> <PUBCHEM_HEAVY_ATOM_COUNT>
21

> <PUBCHEM_ATOM_DEF_STEREO_COUNT>
0

> <PUBCHEM_ATOM_UDEF_STEREO_COUNT>
2

> <PUBCHEM_BOND_DEF_STEREO_COUNT>
0

> <PUBCHEM_BOND_UDEF_STEREO_COUNT>
0

> <PUBCHEM_ISOTOPIC_ATOM_COUNT>
0

> <PUBCHEM_COMPONENT_COUNT>
1

> <PUBCHEM_CACTVS_TAUTO_COUNT>
1

> <PUBCHEM_CONFORMER_ID>
0004421800000005

> <PUBCHEM_MMFF94_ENERGY>
71.8149

> <PUBCHEM_FEATURE_SELFOVERLAP>
35.524

> <PUBCHEM_SHAPE_FINGERPRINT>
10366900 7 18131343150992638154
10912923 1 17676487216157618209
11045977 3 18342736304019757474
11315181 36 15502383326703292531
12107183 9 17539679618604373051
12236239 1 17458346342257635182
12403259 415 18060142050094149357
12596602 18 16588314868784114747
12616971 3 17894634750903206380
13167823 11 18259990357590747831
13631057 29 11167068317825259921
13675066 3 18059855039220916625
13760787 5 18114184124625464397
13955234 65 18335144159788515248
14341114 176 18412257333359439337
14386348 63 18130785668184476715
14528608 73 18335139752487469876
15081414 286 18340767053194320900
15196674 1 18411700963242992547
15375358 24 18202003205147308435
15788980 27 18113057146892807543
15880784 105 18259984847163498723
15961568 22 16916784020944489948
17834072 33 18187366510510786095
17844677 252 18410007749822822789
200 152 18187087273354520019
20645477 70 18408042922760076598
21033650 10 15122382341156102718
21065201 7 17131839767472669009
21267235 1 18337101354388368886
21452121 103 18338806624241077600
2297311 6 17561357405379628319
23402539 116 18334861640733727071
23557571 272 17346317149816731767
23559900 14 18202282494281012312
239999 70 18410291420018308606
26918003 58 18409166632027753139
2871803 45 18272372005449729906
29717793 49 17676486181007267988
312423 11 18187352255989532736
350125 39 18410854387119963604
3545911 37 18130785685469730443
4073 2 18131345280647739602
4214541 1 18413108390119769017
42630746 31 18334861589658388688
465052 167 18334853953017139278
5104073 3 18342739611223651929
5283173 99 17988370376640951973
542803 24 17603584123495239545
7495541 125 18273216417726971038
90127 26 18343864411492343489
9709674 26 18058725793540072307
9971528 1 18131069320641177852
9999458 23 18413388735826179158

> <PUBCHEM_SHAPE_MULTIPOLES>
403.71
14.32
1.94
0.98
1.04
0.79
0.09
-1.04
0.31
-2.73
-0.1
0.89
-0.07
0.94

> <PUBCHEM_SHAPE_SELFOVERLAP>
863.621

> <PUBCHEM_SHAPE_VOLUME>
225.2

> <PUBCHEM_COORDINATE_TYPE>
2
5
10

$$$$

