15625
  -OEChem-07051212533D

 22 24  0     0  0  0  0  0  0999 V2000
    5.0379    1.6173    0.0000 Cl  0  0  0  0  0  0  0  0  0  0  0  0
    5.0378   -1.6174    0.0004 Cl  0  0  0  0  0  0  0  0  0  0  0  0
   -5.0376    1.6176    0.0004 Cl  0  0  0  0  0  0  0  0  0  0  0  0
   -5.0379   -1.6174    0.0000 Cl  0  0  0  0  0  0  0  0  0  0  0  0
   -0.0001    1.4269   -0.0002 O   0  0  0  0  0  0  0  0  0  0  0  0
   -0.0001   -1.4269   -0.0002 O   0  0  0  0  0  0  0  0  0  0  0  0
    1.1616    0.6971   -0.0002 C   0  0  0  0  0  0  0  0  0  0  0  0
    1.1616   -0.6971   -0.0001 C   0  0  0  0  0  0  0  0  0  0  0  0
   -1.1617    0.6970   -0.0001 C   0  0  0  0  0  0  0  0  0  0  0  0
   -1.1616   -0.6970   -0.0002 C   0  0  0  0  0  0  0  0  0  0  0  0
    2.3668    1.3984   -0.0002 C   0  0  0  0  0  0  0  0  0  0  0  0
    2.3668   -1.3984    0.0001 C   0  0  0  0  0  0  0  0  0  0  0  0
   -2.3668    1.3984    0.0001 C   0  0  0  0  0  0  0  0  0  0  0  0
   -2.3668   -1.3985   -0.0001 C   0  0  0  0  0  0  0  0  0  0  0  0
    3.5734    0.6980    0.0000 C   0  0  0  0  0  0  0  0  0  0  0  0
    3.5734   -0.6980    0.0002 C   0  0  0  0  0  0  0  0  0  0  0  0
   -3.5734    0.6980    0.0001 C   0  0  0  0  0  0  0  0  0  0  0  0
   -3.5734   -0.6981    0.0000 C   0  0  0  0  0  0  0  0  0  0  0  0
    2.3559    2.4859   -0.0002 H   0  0  0  0  0  0  0  0  0  0  0  0
    2.3560   -2.4858    0.0001 H   0  0  0  0  0  0  0  0  0  0  0  0
   -2.3558    2.4858    0.0002 H   0  0  0  0  0  0  0  0  0  0  0  0
   -2.3559   -2.4859   -0.0003 H   0  0  0  0  0  0  0  0  0  0  0  0
  1 15  1  0  0  0  0
  2 16  1  0  0  0  0
  3 17  1  0  0  0  0
  4 18  1  0  0  0  0
  5  7  1  0  0  0  0
  5  9  1  0  0  0  0
  6  8  1  0  0  0  0
  6 10  1  0  0  0  0
  7  8  1  0  0  0  0
  7 11  2  0  0  0  0
  8 12  2  0  0  0  0
  9 10  1  0  0  0  0
  9 13  2  0  0  0  0
 10 14  2  0  0  0  0
 11 15  1  0  0  0  0
 11 19  1  0  0  0  0
 12 16  1  0  0  0  0
 12 20  1  0  0  0  0
 13 17  1  0  0  0  0
 13 21  1  0  0  0  0
 14 18  1  0  0  0  0
 14 22  1  0  0  0  0
 15 16  2  0  0  0  0
 17 18  2  0  0  0  0
M  END
> <PUBCHEM_COMPOUND_CID>
15625

> <PUBCHEM_CONFORMER_RMSD>
0.6

> <PUBCHEM_CONFORMER_DIVERSEORDER>
1

> <PUBCHEM_MMFF94_PARTIAL_CHARGES>
22
1 -0.18
10 0.08
11 -0.15
12 -0.15
13 -0.15
14 -0.15
15 0.18
16 0.18
17 0.18
18 0.18
19 0.15
2 -0.18
20 0.15
21 0.15
22 0.15
3 -0.18
4 -0.18
5 -0.17
6 -0.17
7 0.08
8 0.08
9 0.08

> <PUBCHEM_EFFECTIVE_ROTOR_COUNT>
0.4

> <PUBCHEM_PHARMACOPHORE_FEATURES>
5
1 5 acceptor
1 6 acceptor
6 5 6 7 8 9 10 rings
6 7 8 11 12 15 16 rings
6 9 10 13 14 17 18 rings

> <PUBCHEM_HEAVY_ATOM_COUNT>
18

> <PUBCHEM_ATOM_DEF_STEREO_COUNT>
0

> <PUBCHEM_ATOM_UDEF_STEREO_COUNT>
0

> <PUBCHEM_BOND_DEF_STEREO_COUNT>
0

> <PUBCHEM_BOND_UDEF_STEREO_COUNT>
0

> <PUBCHEM_ISOTOPIC_ATOM_COUNT>
0

> <PUBCHEM_COMPONENT_COUNT>
1

> <PUBCHEM_CACTVS_TAUTO_COUNT>
1

> <PUBCHEM_CONFORMER_ID>
00003D0900000001

> <PUBCHEM_MMFF94_ENERGY>
49.0377

> <PUBCHEM_FEATURE_SELFOVERLAP>
25.449

> <PUBCHEM_SHAPE_FINGERPRINT>
10014705 185 18343586261363762269
10062212 137 18408612469672533623
10608611 8 18410858758663408896
11471102 20 18410014342750174212
11806522 49 18340487772744658703
12032990 46 18410572885639920803
12107183 9 17834396004904862433
12236239 1 18410575088958046213
12403259 226 18410862057198571556
12507560 40 18410292492994871303
13073987 5 18410855447259090931
13167823 11 18410858762958337222
13288520 33 18409165549464022222
15196674 1 18410855464423129089
15442244 35 18266177425521082178
15536298 74 18408041814732048774
17804303 29 18409164428445649517
17834072 33 18335421248749028462
1813 80 17060338522213430316
18186145 218 17846222171690270910
200 152 18113903749555916375
20510252 161 18333447651305418529
20645477 70 18407758153675481222
21267235 1 18410566292865504707
21452121 103 18334305232390226288
221490 88 18341043030512003210
23402539 116 18334864934804890239
23402655 69 18334579044280156261
23463225 33 18412544314457544372
23557571 272 18187636973254647031
23559900 14 18408044031061787146
2871803 45 18272657831028007131
3004659 81 18342736351976450214
335352 9 18338517563639595453
34934 24 18410579482709609504
350125 39 18411699928788948396
3545911 37 18410572881408451932
4214541 1 18410575106538906981
474 4 17488457482398203220
5104073 3 18410575088958047145
633830 44 17775565334070278010
69090 78 18408045121561630119
77779 3 18410573985151451140
9709674 26 18411975832465316234

> <PUBCHEM_SHAPE_MULTIPOLES>
366.17
11.27
2.08
0.62
0
0
0
0
0
0
0
0
0
0

> <PUBCHEM_SHAPE_SELFOVERLAP>
780.059

> <PUBCHEM_SHAPE_VOLUME>
207.3

> <PUBCHEM_COORDINATE_TYPE>
2
5
10

$$$$

