5272
  -OEChem-06261200362D

 57 59  0     1  0  0  0  0  0999 V2000
    8.3944    3.8951    0.0000 O   0  0  0  0  0  0  0  0  0  0  0  0
    9.0027   -2.1407    0.0000 O   0  0  0  0  0  0  0  0  0  0  0  0
    7.5884   -0.7265    0.0000 N   0  0  0  0  0  0  0  0  0  0  0  0
    7.3296   -1.6924    0.0000 N   0  0  0  0  0  0  0  0  0  0  0  0
    7.7779   -3.3655    0.0000 N   0  0  0  0  0  0  0  0  0  0  0  0
    6.6402    1.8126    0.0000 C   0  0  3  0  0  0  0  0  0  0  0  0
    7.1402    0.9465    0.0000 C   0  0  3  0  0  0  0  0  0  0  0  0
    9.1310    2.9125    0.0000 C   0  0  3  0  0  0  0  0  0  0  0  0
    8.8722    1.9465    0.0000 C   0  0  3  0  0  0  0  0  0  0  0  0
   10.9630    2.1536    0.0000 C   0  0  0  0  0  0  0  0  0  0  0  0
   10.7042    1.1877    0.0000 C   0  0  0  0  0  0  0  0  0  0  0  0
    5.6742    2.0714    0.0000 C   0  0  0  0  0  0  0  0  0  0  0  0
    6.8813   -0.0194    0.0000 C   0  0  0  0  0  0  0  0  0  0  0  0
    5.4154    3.0373    0.0000 C   0  0  0  0  0  0  0  0  0  0  0  0
    4.4495    3.2961    0.0000 C   0  0  0  0  0  0  0  0  0  0  0  0
    4.1907    4.2620    0.0000 C   0  0  0  0  0  0  0  0  0  0  0  0
    8.0367   -2.3995    0.0000 C   0  0  0  0  0  0  0  0  0  0  0  0
    3.2247    4.5209    0.0000 C   0  0  0  0  0  0  0  0  0  0  0  0
    2.9659    5.4868    0.0000 C   0  0  0  0  0  0  0  0  0  0  0  0
    2.0000    5.7456    0.0000 C   0  0  0  0  0  0  0  0  0  0  0  0
    8.4850   -4.0726    0.0000 C   0  0  0  0  0  0  0  0  0  0  0  0
    8.2262   -5.0385    0.0000 C   0  0  0  0  0  0  0  0  0  0  0  0
    9.4510   -3.8138    0.0000 C   0  0  0  0  0  0  0  0  0  0  0  0
    8.9333   -5.7456    0.0000 C   0  0  0  0  0  0  0  0  0  0  0  0
   10.1581   -4.5209    0.0000 C   0  0  0  0  0  0  0  0  0  0  0  0
    9.8992   -5.4868    0.0000 C   0  0  0  0  0  0  0  0  0  0  0  0
    6.5748    2.6600    0.0000 H   0  0  0  0  0  0  0  0  0  0  0  0
    7.8145    0.4291    0.0000 H   0  0  0  0  0  0  0  0  0  0  0  0
    9.1409    2.0625    0.0000 H   0  0  0  0  0  0  0  0  0  0  0  0
    8.9278    1.0984    0.0000 H   0  0  0  0  0  0  0  0  0  0  0  0
   11.5543    1.9672    0.0000 H   0  0  0  0  0  0  0  0  0  0  0  0
   11.1750    2.7362    0.0000 H   0  0  0  0  0  0  0  0  0  0  0  0
   10.4921    0.6051    0.0000 H   0  0  0  0  0  0  0  0  0  0  0  0
   11.2955    1.0013    0.0000 H   0  0  0  0  0  0  0  0  0  0  0  0
    5.0566    2.0173    0.0000 H   0  0  0  0  0  0  0  0  0  0  0  0
    5.6202    1.4537    0.0000 H   0  0  0  0  0  0  0  0  0  0  0  0
    6.3194    0.2426    0.0000 H   0  0  0  0  0  0  0  0  0  0  0  0
    6.5257   -0.5273    0.0000 H   0  0  0  0  0  0  0  0  0  0  0  0
    5.8538    3.4757    0.0000 H   0  0  0  0  0  0  0  0  0  0  0  0
    8.1873   -0.5660    0.0000 H   0  0  0  0  0  0  0  0  0  0  0  0
    4.0111    2.8577    0.0000 H   0  0  0  0  0  0  0  0  0  0  0  0
    6.7308   -1.8529    0.0000 H   0  0  0  0  0  0  0  0  0  0  0  0
    4.8083    4.3161    0.0000 H   0  0  0  0  0  0  0  0  0  0  0  0
    4.2447    4.8797    0.0000 H   0  0  0  0  0  0  0  0  0  0  0  0
    2.6071    4.4668    0.0000 H   0  0  0  0  0  0  0  0  0  0  0  0
    3.1707    3.9032    0.0000 H   0  0  0  0  0  0  0  0  0  0  0  0
    3.5836    5.5408    0.0000 H   0  0  0  0  0  0  0  0  0  0  0  0
    3.0200    6.1044    0.0000 H   0  0  0  0  0  0  0  0  0  0  0  0
    7.1790   -3.5259    0.0000 H   0  0  0  0  0  0  0  0  0  0  0  0
    2.1605    6.3445    0.0000 H   0  0  0  0  0  0  0  0  0  0  0  0
    1.4011    5.9061    0.0000 H   0  0  0  0  0  0  0  0  0  0  0  0
    1.8395    5.1467    0.0000 H   0  0  0  0  0  0  0  0  0  0  0  0
    7.6273   -5.1990    0.0000 H   0  0  0  0  0  0  0  0  0  0  0  0
    9.6114   -3.2149    0.0000 H   0  0  0  0  0  0  0  0  0  0  0  0
    8.7728   -6.3445    0.0000 H   0  0  0  0  0  0  0  0  0  0  0  0
   10.7569   -4.3604    0.0000 H   0  0  0  0  0  0  0  0  0  0  0  0
   10.3376   -5.9252    0.0000 H   0  0  0  0  0  0  0  0  0  0  0  0
  1  8  1  0  0  0  0
  1  9  1  0  0  0  0
  2 17  2  0  0  0  0
  3  4  1  0  0  0  0
  3 13  1  0  0  0  0
  3 40  1  0  0  0  0
  4 17  1  0  0  0  0
  4 42  1  0  0  0  0
  5 17  1  0  0  0  0
  5 21  1  0  0  0  0
  5 49  1  0  0  0  0
  6  7  1  0  0  0  0
  6  8  1  0  0  0  0
  6 12  1  0  0  0  0
  6 27  1  0  0  0  0
  7  9  1  0  0  0  0
  7 13  1  0  0  0  0
  7 28  1  0  0  0  0
  8 10  1  0  0  0  0
  8 29  1  0  0  0  0
  9 11  1  0  0  0  0
  9 30  1  0  0  0  0
 10 11  1  0  0  0  0
 10 31  1  0  0  0  0
 10 32  1  0  0  0  0
 11 33  1  0  0  0  0
 11 34  1  0  0  0  0
 12 14  1  0  0  0  0
 12 35  1  0  0  0  0
 12 36  1  0  0  0  0
 13 37  1  0  0  0  0
 13 38  1  0  0  0  0
 14 15  2  3  0  0  0
 14 39  1  0  0  0  0
 15 16  1  0  0  0  0
 15 41  1  0  0  0  0
 16 18  1  0  0  0  0
 16 43  1  0  0  0  0
 16 44  1  0  0  0  0
 18 19  1  0  0  0  0
 18 45  1  0  0  0  0
 18 46  1  0  0  0  0
 19 20  1  0  0  0  0
 19 47  1  0  0  0  0
 19 48  1  0  0  0  0
 20 50  1  0  0  0  0
 20 51  1  0  0  0  0
 20 52  1  0  0  0  0
 21 22  2  0  0  0  0
 21 23  1  0  0  0  0
 22 24  1  0  0  0  0
 22 53  1  0  0  0  0
 23 25  2  0  0  0  0
 23 54  1  0  0  0  0
 24 26  2  0  0  0  0
 24 55  1  0  0  0  0
 25 26  1  0  0  0  0
 25 56  1  0  0  0  0
 26 57  1  0  0  0  0
M  END
> <PUBCHEM_COMPOUND_CID>
5272

> <PUBCHEM_COMPOUND_CANONICALIZED>
1

> <PUBCHEM_CACTVS_COMPLEXITY>
462

> <PUBCHEM_CACTVS_HBOND_ACCEPTOR>
3

> <PUBCHEM_CACTVS_HBOND_DONOR>
3

> <PUBCHEM_CACTVS_ROTATABLE_BOND>
9

> <PUBCHEM_CACTVS_SUBSKEYS>
AAADceB7MAAAAAAAAAAAAAAAAAAAASJAAAAwYAAAAAAAAAABAAAAHgAYAAAADRzhkAYzwILiBACIACRCUACCAAAhAgIeqIAAZIiIICLAkZGGIAh2lAJIyCewwLAOgAAAAAAAAAAAAAIAADAAAAAAAAAAAA==

> <PUBCHEM_IUPAC_OPENEYE_NAME>
1-[(2-hept-2-enyl-7-oxabicyclo[2.2.1]heptan-3-yl)methylamino]-3-phenyl-urea

> <PUBCHEM_IUPAC_CAS_NAME>
1-[(2-hept-2-enyl-7-oxabicyclo[2.2.1]heptan-3-yl)methylamino]-3-phenylurea

> <PUBCHEM_IUPAC_NAME>
1-[(2-hept-2-enyl-7-oxabicyclo[2.2.1]heptan-3-yl)methylamino]-3-phenylurea

> <PUBCHEM_IUPAC_SYSTEMATIC_NAME>
1-[(2-hept-2-enyl-7-oxabicyclo[2.2.1]heptan-3-yl)methylamino]-3-phenyl-urea

> <PUBCHEM_IUPAC_TRADITIONAL_NAME>
1-[(2-hept-2-enyl-7-oxabicyclo[2.2.1]heptan-3-yl)methylamino]-3-phenyl-urea

> <PUBCHEM_IUPAC_INCHI>
InChI=1S/C21H31N3O2/c1-2-3-4-5-9-12-17-18(20-14-13-19(17)26-20)15-22-24-21(25)23-16-10-7-6-8-11-16/h5-11,17-20,22H,2-4,12-15H2,1H3,(H2,23,24,25)

> <PUBCHEM_IUPAC_INCHIKEY>
TWRZKUKBDJMXKI-UHFFFAOYSA-N

> <PUBCHEM_XLOGP3_AA>
4.3

> <PUBCHEM_EXACT_MASS>
357.241627

> <PUBCHEM_MOLECULAR_FORMULA>
C21H31N3O2

> <PUBCHEM_MOLECULAR_WEIGHT>
357.48974

> <PUBCHEM_OPENEYE_CAN_SMILES>
CCCCC=CCC1C2CCC(C1CNNC(=O)NC3=CC=CC=C3)O2

> <PUBCHEM_OPENEYE_ISO_SMILES>
CCCCC=CCC1C2CCC(C1CNNC(=O)NC3=CC=CC=C3)O2

> <PUBCHEM_CACTVS_TPSA>
62.4

> <PUBCHEM_MONOISOTOPIC_WEIGHT>
357.241627

> <PUBCHEM_TOTAL_CHARGE>
0

> <PUBCHEM_HEAVY_ATOM_COUNT>
26

> <PUBCHEM_ATOM_DEF_STEREO_COUNT>
0

> <PUBCHEM_ATOM_UDEF_STEREO_COUNT>
4

> <PUBCHEM_BOND_DEF_STEREO_COUNT>
0

> <PUBCHEM_BOND_UDEF_STEREO_COUNT>
1

> <PUBCHEM_ISOTOPIC_ATOM_COUNT>
0

> <PUBCHEM_COMPONENT_COUNT>
1

> <PUBCHEM_CACTVS_TAUTO_COUNT>
3

> <PUBCHEM_COORDINATE_TYPE>
1
5
255

> <PUBCHEM_BONDANNOTATIONS>
14  15  1
21  22  8
21  23  8
22  24  8
23  25  8
24  26  8
25  26  8
6  27  3
7  28  3
8  29  3
9  30  3

$$$$

