12774
  -OEChem-07051213043D

 13 13  0     0  0  0  0  0  0999 V2000
   -0.1411    0.7045    0.0000 O   0  0  0  0  0  0  0  0  0  0  0  0
    3.1269   -0.5405    0.0008 O   0  5  0  0  0  0  0  0  0  0  0  0
    2.3476    1.5118   -0.0004 O   0  0  0  0  0  0  0  0  0  0  0  0
   -3.6728    0.2976    0.0001 O   0  0  0  0  0  0  0  0  0  0  0  0
    2.1465    0.2614    0.0001 N   0  3  0  0  0  0  0  0  0  0  0  0
    0.8413   -0.2342   -0.0004 C   0  0  0  0  0  0  0  0  0  0  0  0
   -1.3217    0.0316    0.0001 C   0  0  0  0  0  0  0  0  0  0  0  0
    0.3009   -1.4992   -0.0004 C   0  0  0  0  0  0  0  0  0  0  0  0
   -1.1039   -1.3265    0.0000 C   0  0  0  0  0  0  0  0  0  0  0  0
   -2.5237    0.7935    0.0003 C   0  0  0  0  0  0  0  0  0  0  0  0
    0.8452   -2.4330   -0.0005 H   0  0  0  0  0  0  0  0  0  0  0  0
   -1.8590   -2.0998    0.0001 H   0  0  0  0  0  0  0  0  0  0  0  0
   -2.4112    1.8909    0.0007 H   0  0  0  0  0  0  0  0  0  0  0  0
  1  6  1  0  0  0  0
  1  7  1  0  0  0  0
  2  5  1  0  0  0  0
  3  5  2  0  0  0  0
  4 10  2  0  0  0  0
  5  6  1  0  0  0  0
  6  8  2  0  0  0  0
  7  9  2  0  0  0  0
  7 10  1  0  0  0  0
  8  9  1  0  0  0  0
  8 11  1  0  0  0  0
  9 12  1  0  0  0  0
 10 13  1  0  0  0  0
M  CHG  2   2  -1   5   1
M  END
> <PUBCHEM_COMPOUND_CID>
12774

> <PUBCHEM_CONFORMER_RMSD>
0.4

> <PUBCHEM_CONFORMER_DIVERSEORDER>
1
2

> <PUBCHEM_MMFF94_PARTIAL_CHARGES>
13
1 -0.28
10 0.59
11 0.15
12 0.15
13 0.06
2 -0.52
3 -0.52
4 -0.57
5 0.96
6 0.22
7 0.05
8 -0.15
9 -0.15

> <PUBCHEM_EFFECTIVE_ROTOR_COUNT>
2

> <PUBCHEM_PHARMACOPHORE_FEATURES>
6
1 1 acceptor
1 2 acceptor
1 2 anion
1 3 acceptor
1 4 acceptor
5 1 6 7 8 9 rings

> <PUBCHEM_HEAVY_ATOM_COUNT>
10

> <PUBCHEM_ATOM_DEF_STEREO_COUNT>
0

> <PUBCHEM_ATOM_UDEF_STEREO_COUNT>
0

> <PUBCHEM_BOND_DEF_STEREO_COUNT>
0

> <PUBCHEM_BOND_UDEF_STEREO_COUNT>
0

> <PUBCHEM_ISOTOPIC_ATOM_COUNT>
0

> <PUBCHEM_COMPONENT_COUNT>
1

> <PUBCHEM_CACTVS_TAUTO_COUNT>
1

> <PUBCHEM_CONFORMER_ID>
000031E600000001

> <PUBCHEM_MMFF94_ENERGY>
11.6024

> <PUBCHEM_FEATURE_SELFOVERLAP>
30.538

> <PUBCHEM_SHAPE_FINGERPRINT>
10219947 1 18202560696323903373
11062470 55 5906042642985532971
12932764 1 17275117114813897798
14325111 11 18410855447496519457
14390081 3 18408324388935765025
21028194 46 18413386553270441133
21040471 1 18410573967977012614
23235685 24 18410298029218271853
23402655 69 18121235414019535325
23552423 10 18200032833297931790
29004967 10 8862936190951723518
369184 2 18337673018550716034
5084963 1 18187367665814855792

> <PUBCHEM_SHAPE_MULTIPOLES>
177.34
4.52
1.37
0.57
0.66
0.19
0
-1.3
0
-0.26
0
0.04
0.03
0

> <PUBCHEM_SHAPE_SELFOVERLAP>
371.792

> <PUBCHEM_SHAPE_VOLUME>
100.8

> <PUBCHEM_COORDINATE_TYPE>
2
5
10

$$$$

