114703
  -OEChem-07051212563D

 33 34  0     0  0  0  0  0  0999 V2000
   -2.1627   -1.0381    0.0826 O   0  0  0  0  0  0  0  0  0  0  0  0
    2.4876   -1.8358    0.2967 O   0  0  0  0  0  0  0  0  0  0  0  0
    3.9989    0.3369    0.7270 O   0  0  0  0  0  0  0  0  0  0  0  0
   -3.3073   -0.1634   -0.0174 C   0  0  0  0  0  0  0  0  0  0  0  0
   -3.0054    1.3138   -0.1116 C   0  0  0  0  0  0  0  0  0  0  0  0
   -0.9081   -0.4972    0.0867 C   0  0  0  0  0  0  0  0  0  0  0  0
   -0.6562    0.8734   -0.0016 C   0  0  0  0  0  0  0  0  0  0  0  0
   -4.1599   -0.4252    1.2298 C   0  0  0  0  0  0  0  0  0  0  0  0
   -4.0768   -0.6017   -1.2689 C   0  0  0  0  0  0  0  0  0  0  0  0
   -1.7650    1.8062   -0.1049 C   0  0  0  0  0  0  0  0  0  0  0  0
    0.6659    1.3339    0.0101 C   0  0  0  0  0  0  0  0  0  0  0  0
    0.1534   -1.4006    0.1860 C   0  0  0  0  0  0  0  0  0  0  0  0
    1.7243    0.4296    0.1093 C   0  0  0  0  0  0  0  0  0  0  0  0
    1.4681   -0.9370    0.1973 C   0  0  0  0  0  0  0  0  0  0  0  0
    3.0901    0.9356    0.1202 C   0  0  0  0  0  0  0  0  0  0  0  0
    3.4366    2.2224   -0.6188 C   0  0  0  0  0  0  0  0  0  0  0  0
    3.0163   -2.3528   -0.9225 C   0  0  0  0  0  0  0  0  0  0  0  0
   -3.8422    2.0038   -0.1885 H   0  0  0  0  0  0  0  0  0  0  0  0
   -4.4054   -1.4901    1.3186 H   0  0  0  0  0  0  0  0  0  0  0  0
   -3.6106   -0.1592    2.1409 H   0  0  0  0  0  0  0  0  0  0  0  0
   -5.0962    0.1435    1.2146 H   0  0  0  0  0  0  0  0  0  0  0  0
   -3.4671   -0.4639   -2.1700 H   0  0  0  0  0  0  0  0  0  0  0  0
   -4.3208   -1.6697   -1.2233 H   0  0  0  0  0  0  0  0  0  0  0  0
   -5.0094   -0.0409   -1.3957 H   0  0  0  0  0  0  0  0  0  0  0  0
   -1.5767    2.8708   -0.1740 H   0  0  0  0  0  0  0  0  0  0  0  0
    0.8531    2.4041   -0.0443 H   0  0  0  0  0  0  0  0  0  0  0  0
   -0.0456   -2.4675    0.2557 H   0  0  0  0  0  0  0  0  0  0  0  0
    3.2949    3.0773    0.0467 H   0  0  0  0  0  0  0  0  0  0  0  0
    2.8239    2.3318   -1.5177 H   0  0  0  0  0  0  0  0  0  0  0  0
    4.4822    2.1786   -0.9387 H   0  0  0  0  0  0  0  0  0  0  0  0
    3.3821   -1.5451   -1.5644 H   0  0  0  0  0  0  0  0  0  0  0  0
    2.2546   -2.9348   -1.4509 H   0  0  0  0  0  0  0  0  0  0  0  0
    3.8539   -3.0124   -0.6799 H   0  0  0  0  0  0  0  0  0  0  0  0
  1  4  1  0  0  0  0
  1  6  1  0  0  0  0
  2 14  1  0  0  0  0
  2 17  1  0  0  0  0
  3 15  2  0  0  0  0
  4  5  1  0  0  0  0
  4  8  1  0  0  0  0
  4  9  1  0  0  0  0
  5 10  2  0  0  0  0
  5 18  1  0  0  0  0
  6  7  1  0  0  0  0
  6 12  2  0  0  0  0
  7 10  1  0  0  0  0
  7 11  2  0  0  0  0
  8 19  1  0  0  0  0
  8 20  1  0  0  0  0
  8 21  1  0  0  0  0
  9 22  1  0  0  0  0
  9 23  1  0  0  0  0
  9 24  1  0  0  0  0
 10 25  1  0  0  0  0
 11 13  1  0  0  0  0
 11 26  1  0  0  0  0
 12 14  1  0  0  0  0
 12 27  1  0  0  0  0
 13 14  2  0  0  0  0
 13 15  1  0  0  0  0
 15 16  1  0  0  0  0
 16 28  1  0  0  0  0
 16 29  1  0  0  0  0
 16 30  1  0  0  0  0
 17 31  1  0  0  0  0
 17 32  1  0  0  0  0
 17 33  1  0  0  0  0
M  END
> <PUBCHEM_COMPOUND_CID>
114703

> <PUBCHEM_CONFORMER_RMSD>
0.6

> <PUBCHEM_CONFORMER_DIVERSEORDER>
1
3
2

> <PUBCHEM_MMFF94_PARTIAL_CHARGES>
19
1 -0.36
10 -0.18
11 -0.15
12 -0.15
13 0.09
14 0.08
15 0.42
16 0.06
17 0.28
18 0.15
2 -0.36
25 0.15
26 0.15
27 0.15
3 -0.57
4 0.42
5 -0.29
6 0.08
7 0.03

> <PUBCHEM_EFFECTIVE_ROTOR_COUNT>
2.4

> <PUBCHEM_PHARMACOPHORE_FEATURES>
6
1 1 acceptor
1 2 acceptor
1 3 acceptor
3 4 8 9 hydrophobe
6 1 4 5 6 7 10 rings
6 6 7 11 12 13 14 rings

> <PUBCHEM_HEAVY_ATOM_COUNT>
17

> <PUBCHEM_ATOM_DEF_STEREO_COUNT>
0

> <PUBCHEM_ATOM_UDEF_STEREO_COUNT>
0

> <PUBCHEM_BOND_DEF_STEREO_COUNT>
0

> <PUBCHEM_BOND_UDEF_STEREO_COUNT>
0

> <PUBCHEM_ISOTOPIC_ATOM_COUNT>
0

> <PUBCHEM_COMPONENT_COUNT>
1

> <PUBCHEM_CACTVS_TAUTO_COUNT>
2

> <PUBCHEM_CONFORMER_ID>
0001C00F00000001

> <PUBCHEM_MMFF94_ENERGY>
63.8453

> <PUBCHEM_FEATURE_SELFOVERLAP>
30.483

> <PUBCHEM_SHAPE_FINGERPRINT>
10608611 8 18341617061206923365
10967382 1 18411419471028338456
10980938 120 18334859407087086418
11132069 177 18338808809835930176
11471102 20 18411987931583010676
12032990 46 18339354279230291123
12932764 1 17531256045159635993
13140716 1 17978509737002888792
13221675 6 18336267851280255439
13296908 3 18342455980257727915
13380535 76 18340772550683186306
13583140 156 16773529780004611561
14144814 61 18411700997655381145
14250199 8 18410856602747796263
14289901 80 18261114084127957729
14576447 43 17970647190099584847
14787075 74 17914610558356687299
15196674 1 18410856598832623897
15219456 202 18337672013449149995
15309172 13 18334854996319197347
15375462 189 18186799154295582721
15442244 35 18193275419295492872
15536298 74 18334858359183624982
16945 1 18338234860428968185
18186145 218 17775282811190248755
19026448 5 17240482524551500179
19422 9 18113337543980445951
200 152 18261406524593973037
20279233 1 17704076192166061683
20281475 54 18187366519475390511
20645477 70 18337399330687557367
21267235 1 18411693296636776378
21501502 16 18335984271864723153
21501925 9 18340499953366927386
21524375 3 18341054004432973784
221490 88 18340477967350380050
2255824 54 18342174518314001930
2334 1 18411138073271400824
23366157 5 18059571434352000654
23402539 116 18339938029599362404
23402655 69 18336558183139147685
23463225 33 18343026601080872624
23559900 14 18337960115940388458
2748010 2 18340210811604541884
312423 11 18262507195514629147
335352 9 17978229688044958653
5104073 3 18339642342845018865
581208 293 18409172095204930932
633830 44 18271526493892748551
7364860 26 18334856143286370974
81539 233 18272370824381053422
9709674 26 18411698798447768931

> <PUBCHEM_SHAPE_MULTIPOLES>
332.24
7.63
2.21
0.9
1.8
0.15
-0.07
0.02
-0.21
-1.97
-0.42
0.46
0.16
0.09

> <PUBCHEM_SHAPE_SELFOVERLAP>
709.661

> <PUBCHEM_SHAPE_VOLUME>
186.6

> <PUBCHEM_COORDINATE_TYPE>
2
5
10

$$$$

