13523
  -OEChem-06241222393D

 29 28  0     0  0  0  0  0  0999 V2000
   -0.2246    0.1591   -1.3127 S   0  0  0  0  0  0  0  0  0  0  0  0
    3.2403   -0.2200   -1.7902 S   0  0  0  0  0  0  0  0  0  0  0  0
    1.7417   -0.0697   -0.5327 P   0  0  0  0  0  0  0  0  0  0  0  0
    1.9637    1.1307    0.5554 O   0  0  0  0  0  0  0  0  0  0  0  0
    1.6952   -1.3215    0.5183 O   0  0  0  0  0  0  0  0  0  0  0  0
   -3.5444    0.0390    0.8256 O   0  0  0  0  0  0  0  0  0  0  0  0
   -3.1877    0.3514   -1.4293 O   0  0  0  0  0  0  0  0  0  0  0  0
    2.0730    2.4773    0.1250 C   0  0  0  0  0  0  0  0  0  0  0  0
    1.5118   -2.6466    0.0476 C   0  0  0  0  0  0  0  0  0  0  0  0
   -1.3244    0.0166    0.1104 C   0  0  0  0  0  0  0  0  0  0  0  0
    2.2717    3.3667    1.3337 C   0  0  0  0  0  0  0  0  0  0  0  0
    1.5094   -3.5935    1.2287 C   0  0  0  0  0  0  0  0  0  0  0  0
   -2.7695    0.1605   -0.2959 C   0  0  0  0  0  0  0  0  0  0  0  0
   -4.9561    0.1499    0.6162 C   0  0  0  0  0  0  0  0  0  0  0  0
    2.9253    2.5837   -0.5518 H   0  0  0  0  0  0  0  0  0  0  0  0
    1.1621    2.7671   -0.4065 H   0  0  0  0  0  0  0  0  0  0  0  0
    0.5627   -2.7176   -0.4910 H   0  0  0  0  0  0  0  0  0  0  0  0
    2.3238   -2.9151   -0.6338 H   0  0  0  0  0  0  0  0  0  0  0  0
   -1.1821   -0.9647    0.5710 H   0  0  0  0  0  0  0  0  0  0  0  0
   -1.0746    0.8040    0.8268 H   0  0  0  0  0  0  0  0  0  0  0  0
    2.3591    4.4156    1.0372 H   0  0  0  0  0  0  0  0  0  0  0  0
    1.4318    3.2648    2.0289 H   0  0  0  0  0  0  0  0  0  0  0  0
    3.1748    3.0774    1.8811 H   0  0  0  0  0  0  0  0  0  0  0  0
    1.3699   -4.6274    0.9008 H   0  0  0  0  0  0  0  0  0  0  0  0
    2.4514   -3.5221    1.7823 H   0  0  0  0  0  0  0  0  0  0  0  0
    0.7083   -3.3337    1.9287 H   0  0  0  0  0  0  0  0  0  0  0  0
   -5.2021    1.1354    0.2092 H   0  0  0  0  0  0  0  0  0  0  0  0
   -5.4532    0.0355    1.5831 H   0  0  0  0  0  0  0  0  0  0  0  0
   -5.3029   -0.6431   -0.0531 H   0  0  0  0  0  0  0  0  0  0  0  0
  1  3  1  0  0  0  0
  1 10  1  0  0  0  0
  2  3  2  0  0  0  0
  3  4  1  0  0  0  0
  3  5  1  0  0  0  0
  4  8  1  0  0  0  0
  5  9  1  0  0  0  0
  6 13  1  0  0  0  0
  6 14  1  0  0  0  0
  7 13  2  0  0  0  0
  8 11  1  0  0  0  0
  8 15  1  0  0  0  0
  8 16  1  0  0  0  0
  9 12  1  0  0  0  0
  9 17  1  0  0  0  0
  9 18  1  0  0  0  0
 10 13  1  0  0  0  0
 10 19  1  0  0  0  0
 10 20  1  0  0  0  0
 11 21  1  0  0  0  0
 11 22  1  0  0  0  0
 11 23  1  0  0  0  0
 12 24  1  0  0  0  0
 12 25  1  0  0  0  0
 12 26  1  0  0  0  0
 14 27  1  0  0  0  0
 14 28  1  0  0  0  0
 14 29  1  0  0  0  0
M  END
> <PUBCHEM_COMPOUND_CID>
13523

> <PUBCHEM_CONFORMER_RMSD>
0.8

> <PUBCHEM_CONFORMER_DIVERSEORDER>
1
13
29
49
17
48
45
18
70
21
16
40
5
28
9
60
62
55
58
10
64
68
35
6
31
71
34
65
14
33
46
44
27
24
32
25
38
63
59
30
23
19
22
69
7
37
4
72
56
42
2
3
57
20
50
39
41
53
15
47
8
66
54
43
52
51
67
12
11
61
26
36

> <PUBCHEM_MMFF94_PARTIAL_CHARGES>
12
1 -0.48
10 0.29
13 0.66
14 0.28
2 -0.68
3 1.47
4 -0.55
5 -0.55
6 -0.43
7 -0.57
8 0.28
9 0.28

> <PUBCHEM_EFFECTIVE_ROTOR_COUNT>
8

> <PUBCHEM_PHARMACOPHORE_FEATURES>
1
1 7 acceptor

> <PUBCHEM_HEAVY_ATOM_COUNT>
14

> <PUBCHEM_ATOM_DEF_STEREO_COUNT>
0

> <PUBCHEM_ATOM_UDEF_STEREO_COUNT>
0

> <PUBCHEM_BOND_DEF_STEREO_COUNT>
0

> <PUBCHEM_BOND_UDEF_STEREO_COUNT>
0

> <PUBCHEM_ISOTOPIC_ATOM_COUNT>
0

> <PUBCHEM_COMPONENT_COUNT>
1

> <PUBCHEM_CACTVS_TAUTO_COUNT>
1

> <PUBCHEM_CONFORMER_ID>
000034D300000001

> <PUBCHEM_MMFF94_ENERGY>
5.7458

> <PUBCHEM_FEATURE_SELFOVERLAP>
5.074

> <PUBCHEM_SHAPE_FINGERPRINT>
10366900 7 18271230678036015433
12932764 1 18410577301325120685
13533116 47 18270674381556784555
18186145 218 18333732412222111453
20539784 86 18409727365524789981
20671657 1 18410012147658369827
21524375 3 17827096012596740404
2255824 54 18333449833064129286
23558518 356 17832147126001468430
23598291 2 17894915109652923245
298252 57 16843291560015792126
31174 14 18339644537694521631
4175511 335 18201430428456562942
81228 2 16828697015888190566

> <PUBCHEM_SHAPE_MULTIPOLES>
276.18
6.94
3.57
1.52
11.07
0.87
-0.35
-1.52
-0.07
-4.95
2.76
-0.75
-0.04
0.5

> <PUBCHEM_SHAPE_SELFOVERLAP>
471.338

> <PUBCHEM_SHAPE_VOLUME>
187.2

> <PUBCHEM_COORDINATE_TYPE>
2
5
10

$$$$

