441994
  -OEChem-07051212562D

 82 90  0     1  0  0  0  0  0999 V2000
    8.0078    0.5110    0.0000 O   0  0  0  0  0  0  0  0  0  0  0  0
    6.2760    1.2411    0.0000 O   0  0  0  0  0  0  0  0  0  0  0  0
    3.0386   -0.7747    0.0000 O   0  0  0  0  0  0  0  0  0  0  0  0
    7.0963    3.9228    0.0000 N   0  0  3  0  0  0  0  0  0  0  0  0
    6.4603    0.7475    0.0000 N   0  0  0  0  0  0  0  0  0  0  0  0
    4.9038   -2.0883    0.0000 N   0  0  0  0  0  0  0  0  0  0  0  0
    6.7402   -3.9698    0.0000 N   0  0  0  0  0  0  0  0  0  0  0  0
    7.7198    3.1410    0.0000 C   0  0  2  0  0  0  0  0  0  0  0  0
    7.4973    2.1661    0.0000 C   0  0  1  0  0  0  0  0  0  0  0  0
    9.2475    1.7452    0.0000 C   0  0  2  0  0  0  0  0  0  0  0  0
    8.7103    3.4633    0.0000 C   0  0  2  0  0  0  0  0  0  0  0  0
    8.2498    1.4459    0.0000 C   0  0  0  0  0  0  0  0  0  0  0  0
    9.4793    2.7608    0.0000 C   0  0  0  0  0  0  0  0  0  0  0  0
    8.8005    3.4550    0.0000 C   0  0  0  0  0  0  0  0  0  0  0  0
    6.5963    1.7322    0.0000 C   0  0  0  0  0  0  0  0  0  0  0  0
    6.0963    3.9228    0.0000 C   0  0  0  0  0  0  0  0  0  0  0  0
    8.9215    4.4408    0.0000 C   0  0  0  0  0  0  0  0  0  0  0  0
    5.6953    2.1661    0.0000 C   0  0  0  0  0  0  0  0  0  0  0  0
    7.2748    1.1912    0.0000 C   0  0  0  0  0  0  0  0  0  0  0  0
    5.4728    3.1410    0.0000 C   0  0  0  0  0  0  0  0  0  0  0  0
    5.0102    1.4458    0.0000 C   0  0  0  0  0  0  0  0  0  0  0  0
    5.4821    0.5708    0.0000 C   0  0  0  0  0  0  0  0  0  0  0  0
    9.8736    4.7466    0.0000 C   0  0  0  0  0  0  0  0  0  0  0  0
    4.9521   -0.3188    0.0000 C   0  0  0  0  0  0  0  0  0  0  0  0
    5.4369   -1.1934    0.0000 C   0  0  1  0  0  0  0  0  0  0  0  0
    3.9758    1.4918    0.0000 C   0  0  0  0  0  0  0  0  0  0  0  0
    6.4783   -1.2156    0.0000 C   0  0  0  0  0  0  0  0  0  0  0  0
    6.4191   -3.0148    0.0000 C   0  0  1  0  0  0  0  0  0  0  0  0
    5.3785   -2.9685    0.0000 C   0  0  0  0  0  0  0  0  0  0  0  0
    6.9727   -2.1325    0.0000 C   0  0  0  0  0  0  0  0  0  0  0  0
    3.9169   -0.2967    0.0000 C   0  0  0  0  0  0  0  0  0  0  0  0
    3.4254    0.6147    0.0000 C   0  0  0  0  0  0  0  0  0  0  0  0
    4.6880   -3.6919    0.0000 C   0  0  0  0  0  0  0  0  0  0  0  0
    3.9201   -2.2677    0.0000 C   0  0  0  0  0  0  0  0  0  0  0  0
    7.7853   -0.4639    0.0000 C   0  0  0  0  0  0  0  0  0  0  0  0
    3.7867   -3.2588    0.0000 C   0  0  0  0  0  0  0  0  0  0  0  0
    5.1001   -4.6114    0.0000 C   0  0  0  0  0  0  0  0  0  0  0  0
    6.0985   -4.7466    0.0000 C   0  0  0  0  0  0  0  0  0  0  0  0
    3.1054   -1.6186    0.0000 C   0  0  0  0  0  0  0  0  0  0  0  0
    2.8294   -3.6694    0.0000 C   0  0  0  0  0  0  0  0  0  0  0  0
    2.1389   -2.0070    0.0000 C   0  0  0  0  0  0  0  0  0  0  0  0
    2.0000   -3.0393    0.0000 C   0  0  0  0  0  0  0  0  0  0  0  0
    7.9089    3.9697    0.0000 H   0  0  0  0  0  0  0  0  0  0  0  0
    9.4625    0.9229    0.0000 H   0  0  0  0  0  0  0  0  0  0  0  0
    9.3010    3.6518    0.0000 H   0  0  0  0  0  0  0  0  0  0  0  0
    7.7508    1.0779    0.0000 H   0  0  0  0  0  0  0  0  0  0  0  0
    8.5270    0.8913    0.0000 H   0  0  0  0  0  0  0  0  0  0  0  0
   10.0512    2.5214    0.0000 H   0  0  0  0  0  0  0  0  0  0  0  0
    9.8130    3.2833    0.0000 H   0  0  0  0  0  0  0  0  0  0  0  0
    9.4185    3.5053    0.0000 H   0  0  0  0  0  0  0  0  0  0  0  0
    8.8583    4.0724    0.0000 H   0  0  0  0  0  0  0  0  0  0  0  0
    6.2343    4.5273    0.0000 H   0  0  0  0  0  0  0  0  0  0  0  0
    5.5377    4.1918    0.0000 H   0  0  0  0  0  0  0  0  0  0  0  0
    8.8373    5.0550    0.0000 H   0  0  0  0  0  0  0  0  0  0  0  0
    8.3020    4.4645    0.0000 H   0  0  0  0  0  0  0  0  0  0  0  0
    5.0863    3.6257    0.0000 H   0  0  0  0  0  0  0  0  0  0  0  0
    4.9142    2.8720    0.0000 H   0  0  0  0  0  0  0  0  0  0  0  0
    6.9077    0.3182    0.0000 H   0  0  0  0  0  0  0  0  0  0  0  0
   10.0632    4.1563    0.0000 H   0  0  0  0  0  0  0  0  0  0  0  0
   10.4639    4.9361    0.0000 H   0  0  0  0  0  0  0  0  0  0  0  0
    9.6840    5.3369    0.0000 H   0  0  0  0  0  0  0  0  0  0  0  0
    5.8761   -0.4657    0.0000 H   0  0  0  0  0  0  0  0  0  0  0  0
    3.6879    2.0409    0.0000 H   0  0  0  0  0  0  0  0  0  0  0  0
    7.0663   -1.0191    0.0000 H   0  0  0  0  0  0  0  0  0  0  0  0
    6.3853   -0.6027    0.0000 H   0  0  0  0  0  0  0  0  0  0  0  0
    7.2632   -3.1149    0.0000 H   0  0  0  0  0  0  0  0  0  0  0  0
    7.4338   -2.5470    0.0000 H   0  0  0  0  0  0  0  0  0  0  0  0
    7.4600   -1.7492    0.0000 H   0  0  0  0  0  0  0  0  0  0  0  0
    2.8058    0.6351    0.0000 H   0  0  0  0  0  0  0  0  0  0  0  0
    7.1808   -0.3260    0.0000 H   0  0  0  0  0  0  0  0  0  0  0  0
    7.6473   -1.0684    0.0000 H   0  0  0  0  0  0  0  0  0  0  0  0
    8.3897   -0.6019    0.0000 H   0  0  0  0  0  0  0  0  0  0  0  0
    7.3499   -4.0827    0.0000 H   0  0  0  0  0  0  0  0  0  0  0  0
    4.4972   -4.7563    0.0000 H   0  0  0  0  0  0  0  0  0  0  0  0
    5.1315   -5.2306    0.0000 H   0  0  0  0  0  0  0  0  0  0  0  0
    5.9035   -5.3351    0.0000 H   0  0  0  0  0  0  0  0  0  0  0  0
    6.6411   -5.0466    0.0000 H   0  0  0  0  0  0  0  0  0  0  0  0
    3.1952   -1.0051    0.0000 H   0  0  0  0  0  0  0  0  0  0  0  0
    2.5096   -0.4512    0.0000 H   0  0  0  0  0  0  0  0  0  0  0  0
    2.7538   -4.2848    0.0000 H   0  0  0  0  0  0  0  0  0  0  0  0
    1.6496   -1.6263    0.0000 H   0  0  0  0  0  0  0  0  0  0  0  0
    1.4274   -3.2772    0.0000 H   0  0  0  0  0  0  0  0  0  0  0  0
  1 19  1  0  0  0  0
  1 35  1  0  0  0  0
  2 19  2  0  0  0  0
  3 31  1  0  0  0  0
  3 79  1  0  0  0  0
  4  8  1  0  0  0  0
  4 14  1  0  0  0  0
  4 16  1  0  0  0  0
  5 15  1  0  0  0  0
  5 22  1  0  0  0  0
  5 58  1  0  0  0  0
  6 25  1  0  0  0  0
  6 29  1  0  0  0  0
  6 34  1  0  0  0  0
  7 28  1  0  0  0  0
  7 38  1  0  0  0  0
  7 73  1  0  0  0  0
  8  9  1  0  0  0  0
  8 11  1  0  0  0  0
  8 43  1  6  0  0  0
  9 12  1  0  0  0  0
  9 15  1  0  0  0  0
  9 19  1  6  0  0  0
 10 12  1  0  0  0  0
 10 13  1  0  0  0  0
 10 14  1  0  0  0  0
 10 44  1  6  0  0  0
 11 13  1  0  0  0  0
 11 17  1  1  0  0  0
 11 45  1  0  0  0  0
 12 46  1  0  0  0  0
 12 47  1  0  0  0  0
 13 48  1  0  0  0  0
 13 49  1  0  0  0  0
 14 50  1  0  0  0  0
 14 51  1  0  0  0  0
 15 18  2  0  0  0  0
 16 20  1  0  0  0  0
 16 52  1  0  0  0  0
 16 53  1  0  0  0  0
 17 23  1  0  0  0  0
 17 54  1  0  0  0  0
 17 55  1  0  0  0  0
 18 20  1  0  0  0  0
 18 21  1  0  0  0  0
 20 56  1  0  0  0  0
 20 57  1  0  0  0  0
 21 22  2  0  0  0  0
 21 26  1  0  0  0  0
 22 24  1  0  0  0  0
 23 59  1  0  0  0  0
 23 60  1  0  0  0  0
 23 61  1  0  0  0  0
 24 25  1  0  0  0  0
 24 31  2  0  0  0  0
 25 27  1  0  0  0  0
 25 62  1  6  0  0  0
 26 32  2  0  0  0  0
 26 63  1  0  0  0  0
 27 30  1  0  0  0  0
 27 64  1  0  0  0  0
 27 65  1  0  0  0  0
 28 29  1  0  0  0  0
 28 30  1  0  0  0  0
 28 66  1  6  0  0  0
 29 33  2  0  0  0  0
 30 67  1  0  0  0  0
 30 68  1  0  0  0  0
 31 32  1  0  0  0  0
 32 69  1  0  0  0  0
 33 36  1  0  0  0  0
 33 37  1  0  0  0  0
 34 36  1  0  0  0  0
 34 39  2  0  0  0  0
 35 70  1  0  0  0  0
 35 71  1  0  0  0  0
 35 72  1  0  0  0  0
 36 40  2  0  0  0  0
 37 38  1  0  0  0  0
 37 74  1  0  0  0  0
 37 75  1  0  0  0  0
 38 76  1  0  0  0  0
 38 77  1  0  0  0  0
 39 41  1  0  0  0  0
 39 78  1  0  0  0  0
 40 42  1  0  0  0  0
 40 80  1  0  0  0  0
 41 42  2  0  0  0  0
 41 81  1  0  0  0  0
 42 82  1  0  0  0  0
M  END
> <PUBCHEM_COMPOUND_CID>
441994

> <PUBCHEM_COMPOUND_CANONICALIZED>
1

> <PUBCHEM_CACTVS_COMPLEXITY>
1070

> <PUBCHEM_CACTVS_HBOND_ACCEPTOR>
5

> <PUBCHEM_CACTVS_HBOND_DONOR>
3

> <PUBCHEM_CACTVS_ROTATABLE_BOND>
4

> <PUBCHEM_CACTVS_SUBSKEYS>
AAADcfB/sAAAAAAAAAAAAAAAAAAAAWLAAAA8ePFiBYAAAFix/gAAHgAQCAAADyzBngYyzvPNlgCoAyTyTACCgCAhIiAI2aE+bJgIZvrC1ZOUcAhm0BnI2AeY2fOPoAACAgAKAABQAAQEABQAAAAAAAAAAA==

> <PUBCHEM_IUPAC_INCHI>
InChI=1S/C35H40N4O3/c1-3-20-16-19-17-35(34(41)42-2)32-24(13-15-38(18-19)33(20)35)22-8-11-28(40)29(30(22)37-32)27-10-9-25-31-23(12-14-36-25)21-6-4-5-7-26(21)39(27)31/h4-8,11,19-20,25,27,33,36-37,40H,3,9-10,12-18H2,1-2H3/t19-,20-,25+,27+,33-,35+/m0/s1

> <PUBCHEM_IUPAC_INCHIKEY>
HLAQOSKRDJCTPZ-BCVSJKHFSA-N

> <PUBCHEM_XLOGP3_AA>
4.9

> <PUBCHEM_EXACT_MASS>
564.310041

> <PUBCHEM_MOLECULAR_FORMULA>
C35H40N4O3

> <PUBCHEM_MOLECULAR_WEIGHT>
564.7171

> <PUBCHEM_OPENEYE_CAN_SMILES>
CCC1CC2CC3(C1N(C2)CCC4=C3NC5=C4C=CC(=C5C6CCC7C8=C(CCN7)C9=CC=CC=C9N68)O)C(=O)OC

> <PUBCHEM_OPENEYE_ISO_SMILES>
CC[C@H]1C[C@H]2C[C@@]3([C@H]1N(C2)CCC4=C3NC5=C4C=CC(=C5[C@H]6CC[C@@H]7C8=C(CCN7)C9=CC=CC=C9N68)O)C(=O)OC

> <PUBCHEM_CACTVS_TPSA>
82.5

> <PUBCHEM_MONOISOTOPIC_WEIGHT>
564.310041

> <PUBCHEM_TOTAL_CHARGE>
0

> <PUBCHEM_HEAVY_ATOM_COUNT>
42

> <PUBCHEM_ATOM_DEF_STEREO_COUNT>
6

> <PUBCHEM_ATOM_UDEF_STEREO_COUNT>
0

> <PUBCHEM_BOND_DEF_STEREO_COUNT>
0

> <PUBCHEM_BOND_UDEF_STEREO_COUNT>
0

> <PUBCHEM_ISOTOPIC_ATOM_COUNT>
0

> <PUBCHEM_COMPONENT_COUNT>
1

> <PUBCHEM_CACTVS_TAUTO_COUNT>
9

> <PUBCHEM_COORDINATE_TYPE>
1
5
255

> <PUBCHEM_BONDANNOTATIONS>
10  44  6
11  17  5
15  18  8
18  21  8
21  22  8
21  26  8
22  24  8
24  31  8
25  62  6
26  32  8
28  66  6
29  33  8
31  32  8
33  36  8
34  36  8
34  39  8
36  40  8
39  41  8
40  42  8
41  42  8
5  15  8
5  22  8
6  29  8
6  34  8
8  43  6
9  19  6

$$$$

