43359
  -OEChem-07051213132D

 39 40  0     0  0  0  0  0  0999 V2000
    2.8660    0.0761    0.0000 O   0  0  0  0  0  0  0  0  0  0  0  0
    5.4641   -0.4239    0.0000 O   0  0  0  0  0  0  0  0  0  0  0  0
    5.0981    2.6149    0.0000 O   0  0  0  0  0  0  0  0  0  0  0  0
    3.7320   -0.4239    0.0000 N   0  0  0  0  0  0  0  0  0  0  0  0
    3.7320   -1.4239    0.0000 C   0  0  0  0  0  0  0  0  0  0  0  0
    2.8660   -1.9239    0.0000 C   0  0  0  0  0  0  0  0  0  0  0  0
    4.5981   -1.9239    0.0000 C   0  0  0  0  0  0  0  0  0  0  0  0
    4.5981   -2.9239    0.0000 C   0  0  0  0  0  0  0  0  0  0  0  0
    2.8660   -2.9239    0.0000 C   0  0  0  0  0  0  0  0  0  0  0  0
    3.7320   -3.4239    0.0000 C   0  0  0  0  0  0  0  0  0  0  0  0
    4.5981    0.0761    0.0000 C   0  0  0  0  0  0  0  0  0  0  0  0
    4.5981    1.0761    0.0000 C   0  0  0  0  0  0  0  0  0  0  0  0
    5.4071    1.6639    0.0000 C   0  0  0  0  0  0  0  0  0  0  0  0
    3.7891    1.6639    0.0000 C   0  0  0  0  0  0  0  0  0  0  0  0
    2.0000   -0.4239    0.0000 C   0  0  0  0  0  0  0  0  0  0  0  0
    4.0981    2.6149    0.0000 C   0  0  0  0  0  0  0  0  0  0  0  0
    6.3582    1.3548    0.0000 C   0  0  0  0  0  0  0  0  0  0  0  0
    3.5103    3.4239    0.0000 C   0  0  0  0  0  0  0  0  0  0  0  0
    4.2690   -1.1139    0.0000 H   0  0  0  0  0  0  0  0  0  0  0  0
    2.6540   -1.3413    0.0000 H   0  0  0  0  0  0  0  0  0  0  0  0
    2.2554   -2.0316    0.0000 H   0  0  0  0  0  0  0  0  0  0  0  0
    5.2087   -2.0316    0.0000 H   0  0  0  0  0  0  0  0  0  0  0  0
    4.8101   -1.3413    0.0000 H   0  0  0  0  0  0  0  0  0  0  0  0
    4.8101   -3.5065    0.0000 H   0  0  0  0  0  0  0  0  0  0  0  0
    5.2087   -2.8163    0.0000 H   0  0  0  0  0  0  0  0  0  0  0  0
    2.2554   -2.8163    0.0000 H   0  0  0  0  0  0  0  0  0  0  0  0
    2.6540   -3.5065    0.0000 H   0  0  0  0  0  0  0  0  0  0  0  0
    3.3335   -3.8989    0.0000 H   0  0  0  0  0  0  0  0  0  0  0  0
    4.1306   -3.8989    0.0000 H   0  0  0  0  0  0  0  0  0  0  0  0
    3.1994    1.4723    0.0000 H   0  0  0  0  0  0  0  0  0  0  0  0
    1.6900    0.1130    0.0000 H   0  0  0  0  0  0  0  0  0  0  0  0
    1.4631   -0.7339    0.0000 H   0  0  0  0  0  0  0  0  0  0  0  0
    2.3100   -0.9609    0.0000 H   0  0  0  0  0  0  0  0  0  0  0  0
    6.1666    0.7652    0.0000 H   0  0  0  0  0  0  0  0  0  0  0  0
    6.9478    1.1632    0.0000 H   0  0  0  0  0  0  0  0  0  0  0  0
    6.5497    1.9445    0.0000 H   0  0  0  0  0  0  0  0  0  0  0  0
    4.0119    3.7884    0.0000 H   0  0  0  0  0  0  0  0  0  0  0  0
    3.1459    3.9255    0.0000 H   0  0  0  0  0  0  0  0  0  0  0  0
    3.0087    3.0595    0.0000 H   0  0  0  0  0  0  0  0  0  0  0  0
  1  4  1  0  0  0  0
  1 15  1  0  0  0  0
  2 11  2  0  0  0  0
  3 13  1  0  0  0  0
  3 16  1  0  0  0  0
  4  5  1  0  0  0  0
  4 11  1  0  0  0  0
  5  6  1  0  0  0  0
  5  7  1  0  0  0  0
  5 19  1  0  0  0  0
  6  9  1  0  0  0  0
  6 20  1  0  0  0  0
  6 21  1  0  0  0  0
  7  8  1  0  0  0  0
  7 22  1  0  0  0  0
  7 23  1  0  0  0  0
  8 10  1  0  0  0  0
  8 24  1  0  0  0  0
  8 25  1  0  0  0  0
  9 10  1  0  0  0  0
  9 26  1  0  0  0  0
  9 27  1  0  0  0  0
 10 28  1  0  0  0  0
 10 29  1  0  0  0  0
 11 12  1  0  0  0  0
 12 13  2  0  0  0  0
 12 14  1  0  0  0  0
 13 17  1  0  0  0  0
 14 16  2  0  0  0  0
 14 30  1  0  0  0  0
 15 31  1  0  0  0  0
 15 32  1  0  0  0  0
 15 33  1  0  0  0  0
 16 18  1  0  0  0  0
 17 34  1  0  0  0  0
 17 35  1  0  0  0  0
 17 36  1  0  0  0  0
 18 37  1  0  0  0  0
 18 38  1  0  0  0  0
 18 39  1  0  0  0  0
M  END
> <PUBCHEM_COMPOUND_CID>
43359

> <PUBCHEM_COMPOUND_CANONICALIZED>
1

> <PUBCHEM_CACTVS_COMPLEXITY>
289

> <PUBCHEM_CACTVS_HBOND_ACCEPTOR>
3

> <PUBCHEM_CACTVS_HBOND_DONOR>
0

> <PUBCHEM_CACTVS_ROTATABLE_BOND>
3

> <PUBCHEM_CACTVS_SUBSKEYS>
AAADceByMAAAAAAAAAAAAAAAAAAAASAAAAAwAAAAAAAAAAABgAAAHgAEAAAADCzBmAYyBIIQBECIAqFSEACCCAAkIAAgiAEODMgMJj6MtRuGGWjm5hGIqYe/AAAOAAAAAAAAAAAAAAAAAAAAAAAAAAAAAA==

> <PUBCHEM_IUPAC_OPENEYE_NAME>
N-cyclohexyl-N-methoxy-2,5-dimethyl-furan-3-carboxamide

> <PUBCHEM_IUPAC_CAS_NAME>
N-cyclohexyl-N-methoxy-2,5-dimethyl-3-furancarboxamide

> <PUBCHEM_IUPAC_NAME>
N-cyclohexyl-N-methoxy-2,5-dimethylfuran-3-carboxamide

> <PUBCHEM_IUPAC_SYSTEMATIC_NAME>
N-cyclohexyl-N-methoxy-2,5-dimethyl-furan-3-carboxamide

> <PUBCHEM_IUPAC_TRADITIONAL_NAME>
N-cyclohexyl-N-methoxy-2,5-dimethyl-3-furamide

> <PUBCHEM_IUPAC_INCHI>
InChI=1S/C14H21NO3/c1-10-9-13(11(2)18-10)14(16)15(17-3)12-7-5-4-6-8-12/h9,12H,4-8H2,1-3H3

> <PUBCHEM_IUPAC_INCHIKEY>
QTDRLOKFLJJHTG-UHFFFAOYSA-N

> <PUBCHEM_XLOGP3_AA>
3.1

> <PUBCHEM_EXACT_MASS>
251.152144

> <PUBCHEM_MOLECULAR_FORMULA>
C14H21NO3

> <PUBCHEM_MOLECULAR_WEIGHT>
251.32144

> <PUBCHEM_OPENEYE_CAN_SMILES>
CC1=CC(=C(O1)C)C(=O)N(C2CCCCC2)OC

> <PUBCHEM_OPENEYE_ISO_SMILES>
CC1=CC(=C(O1)C)C(=O)N(C2CCCCC2)OC

> <PUBCHEM_CACTVS_TPSA>
42.7

> <PUBCHEM_MONOISOTOPIC_WEIGHT>
251.152144

> <PUBCHEM_TOTAL_CHARGE>
0

> <PUBCHEM_HEAVY_ATOM_COUNT>
18

> <PUBCHEM_ATOM_DEF_STEREO_COUNT>
0

> <PUBCHEM_ATOM_UDEF_STEREO_COUNT>
0

> <PUBCHEM_BOND_DEF_STEREO_COUNT>
0

> <PUBCHEM_BOND_UDEF_STEREO_COUNT>
0

> <PUBCHEM_ISOTOPIC_ATOM_COUNT>
0

> <PUBCHEM_COMPONENT_COUNT>
1

> <PUBCHEM_CACTVS_TAUTO_COUNT>
1

> <PUBCHEM_COORDINATE_TYPE>
1
5
255

> <PUBCHEM_BONDANNOTATIONS>
12  13  8
12  14  8
14  16  8
3  13  8
3  16  8

$$$$

