12469
  -OEChem-06261206583D

 14 14  0     0  0  0  0  0  0999 V2000
    1.1632   -2.7440    0.0009 Cl  0  0  0  0  0  0  0  0  0  0  0  0
    1.1607    2.7449    0.0003 Cl  0  0  0  0  0  0  0  0  0  0  0  0
    2.8016    0.0011    0.0000 Cl  0  0  0  0  0  0  0  0  0  0  0  0
   -3.1365   -0.0010   -0.0001 N   0  0  0  0  0  0  0  0  0  0  0  0
   -1.7263   -0.0005    0.0003 C   0  0  0  0  0  0  0  0  0  0  0  0
   -1.0293    1.2077    0.0004 C   0  0  0  0  0  0  0  0  0  0  0  0
   -1.0286   -1.2084   -0.0003 C   0  0  0  0  0  0  0  0  0  0  0  0
    0.3664   -1.2081   -0.0007 C   0  0  0  0  0  0  0  0  0  0  0  0
    0.3655    1.2080   -0.0001 C   0  0  0  0  0  0  0  0  0  0  0  0
    1.0635    0.0002   -0.0006 C   0  0  0  0  0  0  0  0  0  0  0  0
   -1.5789    2.1468    0.0007 H   0  0  0  0  0  0  0  0  0  0  0  0
   -1.5777   -2.1478   -0.0002 H   0  0  0  0  0  0  0  0  0  0  0  0
   -3.6432    0.8743    0.0014 H   0  0  0  0  0  0  0  0  0  0  0  0
   -3.6427   -0.8765    0.0010 H   0  0  0  0  0  0  0  0  0  0  0  0
  1  8  1  0  0  0  0
  2  9  1  0  0  0  0
  3 10  1  0  0  0  0
  4  5  1  0  0  0  0
  4 13  1  0  0  0  0
  4 14  1  0  0  0  0
  5  6  2  0  0  0  0
  5  7  1  0  0  0  0
  6  9  1  0  0  0  0
  6 11  1  0  0  0  0
  7  8  2  0  0  0  0
  7 12  1  0  0  0  0
  8 10  1  0  0  0  0
  9 10  2  0  0  0  0
M  END
> <PUBCHEM_COMPOUND_CID>
12469

> <PUBCHEM_CONFORMER_RMSD>
0.4

> <PUBCHEM_CONFORMER_DIVERSEORDER>
1

> <PUBCHEM_MMFF94_PARTIAL_CHARGES>
14
1 -0.18
10 0.18
11 0.15
12 0.15
13 0.4
14 0.4
2 -0.18
3 -0.18
4 -0.9
5 0.1
6 -0.15
7 -0.15
8 0.18
9 0.18

> <PUBCHEM_EFFECTIVE_ROTOR_COUNT>
0

> <PUBCHEM_PHARMACOPHORE_FEATURES>
3
1 4 cation
1 4 donor
6 5 6 7 8 9 10 rings

> <PUBCHEM_HEAVY_ATOM_COUNT>
10

> <PUBCHEM_ATOM_DEF_STEREO_COUNT>
0

> <PUBCHEM_ATOM_UDEF_STEREO_COUNT>
0

> <PUBCHEM_BOND_DEF_STEREO_COUNT>
0

> <PUBCHEM_BOND_UDEF_STEREO_COUNT>
0

> <PUBCHEM_ISOTOPIC_ATOM_COUNT>
0

> <PUBCHEM_COMPONENT_COUNT>
1

> <PUBCHEM_CACTVS_TAUTO_COUNT>
1

> <PUBCHEM_CONFORMER_ID>
000030B500000001

> <PUBCHEM_MMFF94_ENERGY>
32.1865

> <PUBCHEM_FEATURE_SELFOVERLAP>
15.223

> <PUBCHEM_SHAPE_FINGERPRINT>
12423570 1 5905782097405645986
13380535 76 17831868953754407172
161256 15 18119807164808621086
16945 1 18410855460296953861
18185500 45 18337391646579321959
193761 8 17762055849522070500
20871998 184 16460221455047501148
21040471 1 17906171750383350821
2334 1 17978510828061465223
23552423 10 18338239241327245735
241688 4 17906450278964718713
2748010 2 18124312697023295887
5084963 1 18042123176239079905

> <PUBCHEM_SHAPE_MULTIPOLES>
206.42
3.14
2.84
0.62
0.99
0
0
0
0
-1.48
0
-0.04
0
0

> <PUBCHEM_SHAPE_SELFOVERLAP>
403.784

> <PUBCHEM_SHAPE_VOLUME>
125.1

> <PUBCHEM_COORDINATE_TYPE>
2
5
10

$$$$

