1531
  -OEChem-07051213013D

 18 17  0     0  0  0  0  0  0999 V2000
   -2.1637   -0.8538   -0.0477 O   0  0  0  0  0  0  0  0  0  0  0  0
    2.1714   -0.7782   -0.0089 O   0  0  0  0  0  0  0  0  0  0  0  0
    0.6244    1.5114    0.6040 N   0  0  0  0  0  0  0  0  0  0  0  0
   -0.0093    0.3201    0.0194 C   0  0  0  0  0  0  0  0  0  0  0  0
   -1.4633    0.2431    0.5271 C   0  0  0  0  0  0  0  0  0  0  0  0
    0.8206   -0.9163    0.4149 C   0  0  0  0  0  0  0  0  0  0  0  0
    0.0198    0.4736   -1.5090 C   0  0  0  0  0  0  0  0  0  0  0  0
   -2.0220    1.1578    0.2957 H   0  0  0  0  0  0  0  0  0  0  0  0
   -1.4860    0.1120    1.6150 H   0  0  0  0  0  0  0  0  0  0  0  0
    0.8186   -1.0683    1.5005 H   0  0  0  0  0  0  0  0  0  0  0  0
    0.4183   -1.8247   -0.0461 H   0  0  0  0  0  0  0  0  0  0  0  0
   -0.6114    1.3084   -1.8364 H   0  0  0  0  0  0  0  0  0  0  0  0
   -0.3388   -0.4318   -2.0110 H   0  0  0  0  0  0  0  0  0  0  0  0
    1.0331    0.6685   -1.8802 H   0  0  0  0  0  0  0  0  0  0  0  0
    0.6018    1.4498    1.6214 H   0  0  0  0  0  0  0  0  0  0  0  0
    0.0904    2.3444    0.3582 H   0  0  0  0  0  0  0  0  0  0  0  0
   -2.3289   -0.6429   -0.9819 H   0  0  0  0  0  0  0  0  0  0  0  0
    2.5193    0.0364    0.3925 H   0  0  0  0  0  0  0  0  0  0  0  0
  1  5  1  0  0  0  0
  1 17  1  0  0  0  0
  2  6  1  0  0  0  0
  2 18  1  0  0  0  0
  3  4  1  0  0  0  0
  3 15  1  0  0  0  0
  3 16  1  0  0  0  0
  4  5  1  0  0  0  0
  4  6  1  0  0  0  0
  4  7  1  0  0  0  0
  5  8  1  0  0  0  0
  5  9  1  0  0  0  0
  6 10  1  0  0  0  0
  6 11  1  0  0  0  0
  7 12  1  0  0  0  0
  7 13  1  0  0  0  0
  7 14  1  0  0  0  0
M  END
> <PUBCHEM_COMPOUND_CID>
1531

> <PUBCHEM_CONFORMER_RMSD>
0.4

> <PUBCHEM_CONFORMER_DIVERSEORDER>
4
5
9
8
2
6
3
7
1

> <PUBCHEM_MMFF94_PARTIAL_CHARGES>
10
1 -0.68
15 0.36
16 0.36
17 0.4
18 0.4
2 -0.68
3 -0.99
4 0.27
5 0.28
6 0.28

> <PUBCHEM_EFFECTIVE_ROTOR_COUNT>
2

> <PUBCHEM_PHARMACOPHORE_FEATURES>
6
1 1 acceptor
1 1 donor
1 2 acceptor
1 2 donor
1 3 cation
1 3 donor

> <PUBCHEM_HEAVY_ATOM_COUNT>
7

> <PUBCHEM_ATOM_DEF_STEREO_COUNT>
0

> <PUBCHEM_ATOM_UDEF_STEREO_COUNT>
0

> <PUBCHEM_BOND_DEF_STEREO_COUNT>
0

> <PUBCHEM_BOND_UDEF_STEREO_COUNT>
0

> <PUBCHEM_ISOTOPIC_ATOM_COUNT>
0

> <PUBCHEM_COMPONENT_COUNT>
1

> <PUBCHEM_CACTVS_TAUTO_COUNT>
1

> <PUBCHEM_CONFORMER_ID>
000005FB00000004

> <PUBCHEM_MMFF94_ENERGY>
7.445

> <PUBCHEM_FEATURE_SELFOVERLAP>
30.449

> <PUBCHEM_SHAPE_FINGERPRINT>
137420 1 8346247274625922405
139733 1 8214131954444295299
21040471 1 17766553556348718481
23552449 11 18340784640820848499
29004967 10 18261398879098563882
5943 1 9861248944616892188

> <PUBCHEM_SHAPE_MULTIPOLES>
127.34
2.16
1.21
1.05
0.18
0.11
0.26
-0.91
-0.03
-0.17
-0.07
0.01
0.38
0

> <PUBCHEM_SHAPE_SELFOVERLAP>
229.13

> <PUBCHEM_SHAPE_VOLUME>
83.2

> <PUBCHEM_COORDINATE_TYPE>
2
5
10

$$$$

