11789
  -OEChem-06261206072D

 34 37  0     0  0  0  0  0  0999 V2000
    4.6660    0.5000    0.0000 C   0  0  0  0  0  0  0  0  0  0  0  0
    4.6660   -0.5000    0.0000 C   0  0  0  0  0  0  0  0  0  0  0  0
    5.5321    1.0000    0.0000 C   0  0  0  0  0  0  0  0  0  0  0  0
    3.8000   -1.0000    0.0000 C   0  0  0  0  0  0  0  0  0  0  0  0
    3.8000   -2.0000    0.0000 C   0  0  0  0  0  0  0  0  0  0  0  0
    5.5321    2.0000    0.0000 C   0  0  0  0  0  0  0  0  0  0  0  0
    5.5321   -1.0000    0.0000 C   0  0  0  0  0  0  0  0  0  0  0  0
    3.8000    1.0000    0.0000 C   0  0  0  0  0  0  0  0  0  0  0  0
    2.9061   -0.4653    0.0000 C   0  0  0  0  0  0  0  0  0  0  0  0
    6.4260    0.4653    0.0000 C   0  0  0  0  0  0  0  0  0  0  0  0
    4.6660   -2.5000    0.0000 C   0  0  0  0  0  0  0  0  0  0  0  0
    4.6660    2.5000    0.0000 C   0  0  0  0  0  0  0  0  0  0  0  0
    5.5321   -2.0000    0.0000 C   0  0  0  0  0  0  0  0  0  0  0  0
    3.8000    2.0000    0.0000 C   0  0  0  0  0  0  0  0  0  0  0  0
    2.9061   -2.5347    0.0000 C   0  0  0  0  0  0  0  0  0  0  0  0
    6.4260    2.5347    0.0000 C   0  0  0  0  0  0  0  0  0  0  0  0
    7.3321    0.9792    0.0000 C   0  0  0  0  0  0  0  0  0  0  0  0
    2.0000   -0.9792    0.0000 C   0  0  0  0  0  0  0  0  0  0  0  0
    7.3321    2.0208    0.0000 C   0  0  0  0  0  0  0  0  0  0  0  0
    2.0000   -2.0208    0.0000 C   0  0  0  0  0  0  0  0  0  0  0  0
    6.0690   -0.6900    0.0000 H   0  0  0  0  0  0  0  0  0  0  0  0
    3.2631    0.6900    0.0000 H   0  0  0  0  0  0  0  0  0  0  0  0
    2.9132    0.1546    0.0000 H   0  0  0  0  0  0  0  0  0  0  0  0
    6.4188   -0.1546    0.0000 H   0  0  0  0  0  0  0  0  0  0  0  0
    4.6660   -3.1200    0.0000 H   0  0  0  0  0  0  0  0  0  0  0  0
    4.6660    3.1200    0.0000 H   0  0  0  0  0  0  0  0  0  0  0  0
    6.0690   -2.3100    0.0000 H   0  0  0  0  0  0  0  0  0  0  0  0
    3.2631    2.3100    0.0000 H   0  0  0  0  0  0  0  0  0  0  0  0
    2.9132   -3.1546    0.0000 H   0  0  0  0  0  0  0  0  0  0  0  0
    6.4188    3.1546    0.0000 H   0  0  0  0  0  0  0  0  0  0  0  0
    1.4643   -0.6671    0.0000 H   0  0  0  0  0  0  0  0  0  0  0  0
    7.8678    0.6671    0.0000 H   0  0  0  0  0  0  0  0  0  0  0  0
    1.4643   -2.3329    0.0000 H   0  0  0  0  0  0  0  0  0  0  0  0
    7.8678    2.3329    0.0000 H   0  0  0  0  0  0  0  0  0  0  0  0
  1  2  1  0  0  0  0
  1  3  1  0  0  0  0
  1  8  2  0  0  0  0
  2  4  1  0  0  0  0
  2  7  2  0  0  0  0
  3  6  1  0  0  0  0
  3 10  2  0  0  0  0
  4  5  1  0  0  0  0
  4  9  2  0  0  0  0
  5 11  1  0  0  0  0
  5 15  2  0  0  0  0
  6 12  1  0  0  0  0
  6 16  2  0  0  0  0
  7 13  1  0  0  0  0
  7 21  1  0  0  0  0
  8 14  1  0  0  0  0
  8 22  1  0  0  0  0
  9 18  1  0  0  0  0
  9 23  1  0  0  0  0
 10 17  1  0  0  0  0
 10 24  1  0  0  0  0
 11 13  2  0  0  0  0
 11 25  1  0  0  0  0
 12 14  2  0  0  0  0
 12 26  1  0  0  0  0
 13 27  1  0  0  0  0
 14 28  1  0  0  0  0
 15 20  1  0  0  0  0
 15 29  1  0  0  0  0
 16 19  1  0  0  0  0
 16 30  1  0  0  0  0
 17 19  2  0  0  0  0
 17 32  1  0  0  0  0
 18 20  2  0  0  0  0
 18 31  1  0  0  0  0
 19 34  1  0  0  0  0
 20 33  1  0  0  0  0
M  END
> <PUBCHEM_COMPOUND_CID>
11789

> <PUBCHEM_COMPOUND_CANONICALIZED>
1

> <PUBCHEM_CACTVS_COMPLEXITY>
288

> <PUBCHEM_CACTVS_HBOND_ACCEPTOR>
0

> <PUBCHEM_CACTVS_HBOND_DONOR>
0

> <PUBCHEM_CACTVS_ROTATABLE_BOND>
1

> <PUBCHEM_CACTVS_SUBSKEYS>
AAADccB4AAAAAAAAAAAAAAAAAAAAAAAAAAAwYMGAAAAAAADBVAAAGAAAAAAADACAGAAwAMAAAACAAiBCAAACAAAgAAAIiAAAAIgIICKAERCAIAAggAAIiAcAgMAOgAACAAAQAAAAAAQAACAAAAAAAAAAAA==

> <PUBCHEM_IUPAC_OPENEYE_NAME>
1-(1-naphthyl)naphthalene

> <PUBCHEM_IUPAC_CAS_NAME>
1-(1-naphthalenyl)naphthalene

> <PUBCHEM_IUPAC_NAME>
1-naphthalen-1-ylnaphthalene

> <PUBCHEM_IUPAC_SYSTEMATIC_NAME>
1-naphthalen-1-ylnaphthalene

> <PUBCHEM_IUPAC_TRADITIONAL_NAME>
1-(1-naphthyl)naphthalene

> <PUBCHEM_IUPAC_INCHI>
InChI=1S/C20H14/c1-3-11-17-15(7-1)9-5-13-19(17)20-14-6-10-16-8-2-4-12-18(16)20/h1-14H

> <PUBCHEM_IUPAC_INCHIKEY>
ZDZHCHYQNPQSGG-UHFFFAOYSA-N

> <PUBCHEM_XLOGP3_AA>
6

> <PUBCHEM_EXACT_MASS>
254.10955

> <PUBCHEM_MOLECULAR_FORMULA>
C20H14

> <PUBCHEM_MOLECULAR_WEIGHT>
254.32516

> <PUBCHEM_OPENEYE_CAN_SMILES>
C1=CC=C2C(=C1)C=CC=C2C3=CC=CC4=CC=CC=C43

> <PUBCHEM_OPENEYE_ISO_SMILES>
C1=CC=C2C(=C1)C=CC=C2C3=CC=CC4=CC=CC=C43

> <PUBCHEM_CACTVS_TPSA>
0

> <PUBCHEM_MONOISOTOPIC_WEIGHT>
254.10955

> <PUBCHEM_TOTAL_CHARGE>
0

> <PUBCHEM_HEAVY_ATOM_COUNT>
20

> <PUBCHEM_ATOM_DEF_STEREO_COUNT>
0

> <PUBCHEM_ATOM_UDEF_STEREO_COUNT>
0

> <PUBCHEM_BOND_DEF_STEREO_COUNT>
0

> <PUBCHEM_BOND_UDEF_STEREO_COUNT>
0

> <PUBCHEM_ISOTOPIC_ATOM_COUNT>
0

> <PUBCHEM_COMPONENT_COUNT>
1

> <PUBCHEM_CACTVS_TAUTO_COUNT>
1

> <PUBCHEM_COORDINATE_TYPE>
1
5
255

> <PUBCHEM_BONDANNOTATIONS>
1  3  8
1  8  8
10  17  8
11  13  8
12  14  8
15  20  8
16  19  8
17  19  8
18  20  8
2  4  8
2  7  8
3  10  8
3  6  8
4  5  8
4  9  8
5  11  8
5  15  8
6  12  8
6  16  8
7  13  8
8  14  8
9  18  8

$$$$

