46174034
  -OEChem-07051213112D

 84 88  0     1  0  0  0  0  0999 V2000
    6.8978   -3.9247    0.0000 O   0  0  0  0  0  0  0  0  0  0  0  0
    5.1190   -3.0306    0.0000 O   0  0  0  0  0  0  0  0  0  0  0  0
    5.1190   -1.2986    0.0000 O   0  0  0  0  0  0  0  0  0  0  0  0
    2.5016   -0.4576    0.0000 O   0  0  0  0  0  0  0  0  0  0  0  0
    3.5197   -1.8588    0.0000 O   0  0  0  0  0  0  0  0  0  0  0  0
   10.2553    3.9247    0.0000 O   0  0  0  0  0  0  0  0  0  0  0  0
   13.4082    1.1854    0.0000 O   0  0  0  0  0  0  0  0  0  0  0  0
    7.4856    0.4045    0.0000 N   0  0  0  0  0  0  0  0  0  0  0  0
    9.1041   -1.3598    0.0000 N   0  0  0  0  0  0  0  0  0  0  0  0
    8.5917    3.2860    0.0000 N   0  0  0  0  0  0  0  0  0  0  0  0
   12.1822   -1.1940    0.0000 N   0  0  0  0  0  0  0  0  0  0  0  0
    5.9467   -0.0955    0.0000 C   0  0  1  0  0  0  0  0  0  0  0  0
    5.9467    0.9045    0.0000 C   0  0  1  0  0  0  0  0  0  0  0  0
    6.8978   -0.4045    0.0000 C   0  0  0  0  0  0  0  0  0  0  0  0
    6.8978    1.2135    0.0000 C   0  0  0  0  0  0  0  0  0  0  0  0
    5.1377   -0.6833    0.0000 C   0  0  0  0  0  0  0  0  0  0  0  0
    7.2068   -1.3556    0.0000 C   0  0  0  0  0  0  0  0  0  0  0  0
    6.6190   -2.1646    0.0000 C   0  0  2  0  0  0  0  0  0  0  0  0
    5.1377    1.4923    0.0000 C   0  0  0  0  0  0  0  0  0  0  0  0
    8.1578   -1.6646    0.0000 C   0  0  0  0  0  0  0  0  0  0  0  0
    7.2068    2.1646    0.0000 C   0  0  0  0  0  0  0  0  0  0  0  0
    8.1578   -2.6646    0.0000 C   0  0  0  0  0  0  0  0  0  0  0  0
    4.2242   -0.2765    0.0000 C   0  0  0  0  0  0  0  0  0  0  0  0
    7.2068   -2.9736    0.0000 C   0  0  0  0  0  0  0  0  0  0  0  0
    8.1849    2.3725    0.0000 C   0  0  3  0  0  0  0  0  0  0  0  0
    9.1041   -2.9693    0.0000 C   0  0  0  0  0  0  0  0  0  0  0  0
    5.6190   -2.1646    0.0000 C   0  0  0  0  0  0  0  0  0  0  0  0
    9.6877   -2.1646    0.0000 C   0  0  0  0  0  0  0  0  0  0  0  0
    8.9281    1.7034    0.0000 C   0  0  0  0  0  0  0  0  0  0  0  0
    3.4151   -0.8643    0.0000 C   0  0  0  0  0  0  0  0  0  0  0  0
    9.7941    2.2034    0.0000 C   0  0  0  0  0  0  0  0  0  0  0  0
    9.4147   -3.9198    0.0000 C   0  0  0  0  0  0  0  0  0  0  0  0
    9.5862    3.1815    0.0000 C   0  0  0  0  0  0  0  0  0  0  0  0
   10.6877   -2.1646    0.0000 C   0  0  0  0  0  0  0  0  0  0  0  0
    8.8235    0.7088    0.0000 C   0  0  0  0  0  0  0  0  0  0  0  0
   11.1877   -1.2986    0.0000 C   0  0  0  0  0  0  0  0  0  0  0  0
   10.7077    1.7966    0.0000 C   0  0  0  0  0  0  0  0  0  0  0  0
   10.7809   -0.3850    0.0000 C   0  0  0  0  0  0  0  0  0  0  0  0
    4.1190   -3.0306    0.0000 C   0  0  0  0  0  0  0  0  0  0  0  0
   11.5241    0.2841    0.0000 C   0  0  0  0  0  0  0  0  0  0  0  0
   12.3901   -0.2159    0.0000 C   0  0  0  0  0  0  0  0  0  0  0  0
    9.8028   -0.1771    0.0000 C   0  0  0  0  0  0  0  0  0  0  0  0
   11.5167    2.3844    0.0000 C   0  0  0  0  0  0  0  0  0  0  0  0
   11.4196    1.2786    0.0000 C   0  0  0  0  0  0  0  0  0  0  0  0
    9.4938    0.7740    0.0000 C   0  0  0  0  0  0  0  0  0  0  0  0
   13.3037    0.1909    0.0000 C   0  0  0  0  0  0  0  0  0  0  0  0
    5.3943    0.1860    0.0000 H   0  0  0  0  0  0  0  0  0  0  0  0
    5.3943    0.6230    0.0000 H   0  0  0  0  0  0  0  0  0  0  0  0
    4.7910   -1.1973    0.0000 H   0  0  0  0  0  0  0  0  0  0  0  0
    5.5837   -1.1140    0.0000 H   0  0  0  0  0  0  0  0  0  0  0  0
    8.1056    0.4045    0.0000 H   0  0  0  0  0  0  0  0  0  0  0  0
    6.3375   -1.6122    0.0000 H   0  0  0  0  0  0  0  0  0  0  0  0
    5.5021    1.9939    0.0000 H   0  0  0  0  0  0  0  0  0  0  0  0
    4.6361    1.8567    0.0000 H   0  0  0  0  0  0  0  0  0  0  0  0
    4.7733    0.9907    0.0000 H   0  0  0  0  0  0  0  0  0  0  0  0
    6.7919    2.6253    0.0000 H   0  0  0  0  0  0  0  0  0  0  0  0
    4.5708    0.2375    0.0000 H   0  0  0  0  0  0  0  0  0  0  0  0
    3.7782    0.1541    0.0000 H   0  0  0  0  0  0  0  0  0  0  0  0
    7.7948    2.8543    0.0000 H   0  0  0  0  0  0  0  0  0  0  0  0
    8.2817    3.8230    0.0000 H   0  0  0  0  0  0  0  0  0  0  0  0
    8.8254   -4.1124    0.0000 H   0  0  0  0  0  0  0  0  0  0  0  0
    9.6073   -4.5092    0.0000 H   0  0  0  0  0  0  0  0  0  0  0  0
   10.0041   -3.7272    0.0000 H   0  0  0  0  0  0  0  0  0  0  0  0
   10.9977   -2.7015    0.0000 H   0  0  0  0  0  0  0  0  0  0  0  0
    8.2070    0.7736    0.0000 H   0  0  0  0  0  0  0  0  0  0  0  0
    8.7587    0.0922    0.0000 H   0  0  0  0  0  0  0  0  0  0  0  0
    9.4402    0.6440    0.0000 H   0  0  0  0  0  0  0  0  0  0  0  0
   10.7725    1.1800    0.0000 H   0  0  0  0  0  0  0  0  0  0  0  0
    2.0000   -0.8220    0.0000 H   0  0  0  0  0  0  0  0  0  0  0  0
   12.5971   -1.6548    0.0000 H   0  0  0  0  0  0  0  0  0  0  0  0
    4.1190   -2.4106    0.0000 H   0  0  0  0  0  0  0  0  0  0  0  0
    3.4990   -3.0306    0.0000 H   0  0  0  0  0  0  0  0  0  0  0  0
    4.1190   -3.6506    0.0000 H   0  0  0  0  0  0  0  0  0  0  0  0
    9.1888   -0.2634    0.0000 H   0  0  0  0  0  0  0  0  0  0  0  0
    9.7812   -0.7967    0.0000 H   0  0  0  0  0  0  0  0  0  0  0  0
   12.0831    2.1322    0.0000 H   0  0  0  0  0  0  0  0  0  0  0  0
   11.4519    3.0010    0.0000 H   0  0  0  0  0  0  0  0  0  0  0  0
   12.0362    1.3434    0.0000 H   0  0  0  0  0  0  0  0  0  0  0  0
   11.3547    1.8952    0.0000 H   0  0  0  0  0  0  0  0  0  0  0  0
   10.8029    1.2138    0.0000 H   0  0  0  0  0  0  0  0  0  0  0  0
   10.0834    0.9655    0.0000 H   0  0  0  0  0  0  0  0  0  0  0  0
    9.3022    1.3636    0.0000 H   0  0  0  0  0  0  0  0  0  0  0  0
    8.9041    0.5824    0.0000 H   0  0  0  0  0  0  0  0  0  0  0  0
   13.8052   -0.1736    0.0000 H   0  0  0  0  0  0  0  0  0  0  0  0
  1 24  2  0  0  0  0
  2 27  1  0  0  0  0
  2 39  1  0  0  0  0
  3 27  2  0  0  0  0
  4 30  1  0  0  0  0
  4 69  1  0  0  0  0
  5 30  2  0  0  0  0
  6 33  2  0  0  0  0
  7 46  2  0  0  0  0
  8 14  1  0  0  0  0
  8 15  1  0  0  0  0
  8 51  1  0  0  0  0
  9 20  2  0  0  0  0
  9 28  1  0  0  0  0
 10 25  1  0  0  0  0
 10 33  1  0  0  0  0
 10 60  1  0  0  0  0
 11 36  1  0  0  0  0
 11 41  1  0  0  0  0
 11 70  1  0  0  0  0
 12 13  1  0  0  0  0
 12 14  1  0  0  0  0
 12 16  1  1  0  0  0
 12 47  1  0  0  0  0
 13 15  1  0  0  0  0
 13 19  1  6  0  0  0
 13 48  1  0  0  0  0
 14 17  2  0  0  0  0
 15 21  2  0  0  0  0
 16 23  1  0  0  0  0
 16 49  1  0  0  0  0
 16 50  1  0  0  0  0
 17 18  1  0  0  0  0
 17 20  1  0  0  0  0
 18 24  1  0  0  0  0
 18 27  1  6  0  0  0
 18 52  1  0  0  0  0
 19 53  1  0  0  0  0
 19 54  1  0  0  0  0
 19 55  1  0  0  0  0
 20 22  1  0  0  0  0
 21 25  1  0  0  0  0
 21 56  1  0  0  0  0
 22 24  1  0  0  0  0
 22 26  2  0  0  0  0
 23 30  1  0  0  0  0
 23 57  1  0  0  0  0
 23 58  1  0  0  0  0
 25 29  1  0  0  0  0
 25 59  1  0  0  0  0
 26 28  1  0  0  0  0
 26 32  1  0  0  0  0
 28 34  2  0  0  0  0
 29 31  2  0  0  0  0
 29 35  1  0  0  0  0
 31 33  1  0  0  0  0
 31 37  1  0  0  0  0
 32 61  1  0  0  0  0
 32 62  1  0  0  0  0
 32 63  1  0  0  0  0
 34 36  1  0  0  0  0
 34 64  1  0  0  0  0
 35 65  1  0  0  0  0
 35 66  1  0  0  0  0
 35 67  1  0  0  0  0
 36 38  2  0  0  0  0
 37 43  2  0  0  0  0
 37 68  1  0  0  0  0
 38 40  1  0  0  0  0
 38 42  1  0  0  0  0
 39 71  1  0  0  0  0
 39 72  1  0  0  0  0
 39 73  1  0  0  0  0
 40 41  2  0  0  0  0
 40 44  1  0  0  0  0
 41 46  1  0  0  0  0
 42 45  1  0  0  0  0
 42 74  1  0  0  0  0
 42 75  1  0  0  0  0
 43 76  1  0  0  0  0
 43 77  1  0  0  0  0
 44 78  1  0  0  0  0
 44 79  1  0  0  0  0
 44 80  1  0  0  0  0
 45 81  1  0  0  0  0
 45 82  1  0  0  0  0
 45 83  1  0  0  0  0
 46 84  1  0  0  0  0
M  END
> <PUBCHEM_COMPOUND_CID>
46174034

> <PUBCHEM_COMPOUND_CANONICALIZED>
1

> <PUBCHEM_CACTVS_COMPLEXITY>
1610

> <PUBCHEM_CACTVS_HBOND_ACCEPTOR>
9

> <PUBCHEM_CACTVS_HBOND_DONOR>
4

> <PUBCHEM_CACTVS_ROTATABLE_BOND>
10

> <PUBCHEM_CACTVS_SUBSKEYS>
AAADcfB/uAAAAAAAAAAAAAAAAAAAAeLECBAAAAAAAAAQAAABgAAAHgAQCAAADSzhngYCiJLJlgCoA63y3ACCgCAnAiAImaG4RNgIIHbIlbGEQQhk9gDIyQeYWRIegAAAAAAAAAAAAAAAAAAAAAAAAAAAAA==

> <PUBCHEM_IUPAC_OPENEYE_NAME>
3-[(2Z,3S,4S,5Z)-2-[(2Z,5R)-2-[(3-ethyl-5-formyl-4-methyl-1H-pyrrol-2-yl)methylene]-5-methoxycarbonyl-3-methyl-4-oxo-cyclopenta[b]pyrrol-6-ylidene]-4-methyl-5-[(3-methyl-5-oxo-4-vinyl-1,2-dihydropyrrol-2-yl)methylene]pyrrolidin-3-yl]propanoic acid

> <PUBCHEM_IUPAC_CAS_NAME>
3-[(2Z,3S,4S,5Z)-5-[(4-ethenyl-3-methyl-5-oxo-1,2-dihydropyrrol-2-yl)methylidene]-2-[(2Z,5R)-2-[(3-ethyl-5-formyl-4-methyl-1H-pyrrol-2-yl)methylidene]-5-methoxycarbonyl-3-methyl-4-oxo-6-cyclopenta[b]pyrrolylidene]-4-methyl-3-pyrrolidinyl]propanoic acid

> <PUBCHEM_IUPAC_NAME>
3-[(2Z,3S,4S,5Z)-5-[(4-ethenyl-3-methyl-5-oxo-1,2-dihydropyrrol-2-yl)methylidene]-2-[(2Z,5R)-2-[(3-ethyl-5-formyl-4-methyl-1H-pyrrol-2-yl)methylidene]-5-methoxycarbonyl-3-methyl-4-oxocyclopenta[b]pyrrol-6-ylidene]-4-methylpyrrolidin-3-yl]propanoic acid

> <PUBCHEM_IUPAC_SYSTEMATIC_NAME>
3-[(2Z,3S,4S,5Z)-5-[(4-ethenyl-3-methyl-5-oxidanylidene-1,2-dihydropyrrol-2-yl)methylidene]-2-[(2Z,5R)-2-[(3-ethyl-5-methanoyl-4-methyl-1H-pyrrol-2-yl)methylidene]-5-methoxycarbonyl-3-methyl-4-oxidanylidene-cyclopenta[b]pyrrol-6-ylidene]-4-methyl-pyrrolidin-3-yl]propanoic acid

> <PUBCHEM_IUPAC_TRADITIONAL_NAME>
3-[(2Z,3S,4S,5Z)-2-[(2Z,5R)-5-carbomethoxy-2-[(3-ethyl-5-formyl-4-methyl-1H-pyrrol-2-yl)methylene]-4-keto-3-methyl-cyclopenta[b]pyrrol-6-ylidene]-5-[(5-keto-3-methyl-4-vinyl-3-pyrrolin-2-yl)methylene]-4-methyl-pyrrolidin-3-yl]propionic acid

> <PUBCHEM_IUPAC_INCHI>
InChI=1S/C35H38N4O7/c1-8-19-15(3)26(14-40)36-25(19)13-24-18(6)28-32(38-24)29(30(33(28)43)35(45)46-7)31-21(10-11-27(41)42)17(5)22(37-31)12-23-16(4)20(9-2)34(44)39-23/h9,12-14,17,21,23,30,36-37H,2,8,10-11H2,1,3-7H3,(H,39,44)(H,41,42)/b22-12-,24-13-,31-29-/t17-,21-,23?,30+/m0/s1

> <PUBCHEM_IUPAC_INCHIKEY>
DXHLVYCLKGYNBQ-GTQFCNRJSA-N

> <PUBCHEM_XLOGP3_AA>
2.8

> <PUBCHEM_EXACT_MASS>
626.27405

> <PUBCHEM_MOLECULAR_FORMULA>
C35H38N4O7

> <PUBCHEM_MOLECULAR_WEIGHT>
626.69882

> <PUBCHEM_OPENEYE_CAN_SMILES>
CCC1=C(NC(=C1C)C=O)C=C2C(=C3C(=O)C(C(=C4C(C(C(=CC5C(=C(C(=O)N5)C=C)C)N4)C)CCC(=O)O)C3=N2)C(=O)OC)C

> <PUBCHEM_OPENEYE_ISO_SMILES>
CCC1=C(NC(=C1C)C=O)/C=C\2/C(=C3C(=O)[C@@H](/C(=C/4\[C@H]([C@@H](/C(=C/C5C(=C(C(=O)N5)C=C)C)/N4)C)CCC(=O)O)/C3=N2)C(=O)OC)C

> <PUBCHEM_CACTVS_TPSA>
167

> <PUBCHEM_MONOISOTOPIC_WEIGHT>
626.27405

> <PUBCHEM_TOTAL_CHARGE>
0

> <PUBCHEM_HEAVY_ATOM_COUNT>
46

> <PUBCHEM_ATOM_DEF_STEREO_COUNT>
3

> <PUBCHEM_ATOM_UDEF_STEREO_COUNT>
1

> <PUBCHEM_BOND_DEF_STEREO_COUNT>
3

> <PUBCHEM_BOND_UDEF_STEREO_COUNT>
0

> <PUBCHEM_ISOTOPIC_ATOM_COUNT>
0

> <PUBCHEM_COMPONENT_COUNT>
1

> <PUBCHEM_CACTVS_TAUTO_COUNT>
1001

> <PUBCHEM_COORDINATE_TYPE>
1
5
255

> <PUBCHEM_BONDANNOTATIONS>
11  36  8
11  41  8
12  16  5
13  19  6
18  27  6
25  21  3
36  38  8
38  40  8
40  41  8

$$$$

