854013
  -OEChem-06241222463D

 32 32  0     0  0  0  0  0  0999 V2000
    0.3085    2.1776   -0.7630 S   0  0  0  0  0  0  0  0  0  0  0  0
   -2.6680    1.9532   -1.2096 S   0  0  0  0  0  0  0  0  0  0  0  0
   -1.5164   -2.2535   -0.1131 O   0  0  0  0  0  0  0  0  0  0  0  0
    3.3345   -0.1133   -0.0485 O   0  0  0  0  0  0  0  0  0  0  0  0
   -3.1680   -0.6911    0.2475 O   0  0  0  0  0  0  0  0  0  0  0  0
    3.1963    2.1557    0.3144 O   0  0  0  0  0  0  0  0  0  0  0  0
   -3.4323    3.0709    1.3032 N   0  0  0  0  0  0  0  0  0  0  0  0
    0.4436   -0.2162    0.1602 C   0  0  0  0  0  0  0  0  0  0  0  0
   -0.9254    0.0045   -0.1672 C   0  0  0  0  0  0  0  0  0  0  0  0
    1.2249    0.8847   -0.1139 C   0  0  0  0  0  0  0  0  0  0  0  0
   -1.1382    1.2655   -0.6789 C   0  0  0  0  0  0  0  0  0  0  0  0
    0.9679   -1.4832    0.7307 C   0  0  0  0  0  0  0  0  0  0  0  0
   -1.9783   -0.9675    0.0107 C   0  0  0  0  0  0  0  0  0  0  0  0
    2.6298    1.0650    0.0700 C   0  0  0  0  0  0  0  0  0  0  0  0
   -2.4693   -3.3106    0.0419 C   0  0  0  0  0  0  0  0  0  0  0  0
    4.7557   -0.0628    0.1169 C   0  0  0  0  0  0  0  0  0  0  0  0
   -1.7642   -4.6392   -0.1299 C   0  0  0  0  0  0  0  0  0  0  0  0
    5.3217   -1.4565   -0.0529 C   0  0  0  0  0  0  0  0  0  0  0  0
   -3.1228    2.6167    0.2814 C   0  0  0  0  0  0  0  0  0  0  0  0
    0.2545   -1.9480    1.4186 H   0  0  0  0  0  0  0  0  0  0  0  0
    1.2172   -2.1949   -0.0625 H   0  0  0  0  0  0  0  0  0  0  0  0
    1.8586   -1.3247    1.3461 H   0  0  0  0  0  0  0  0  0  0  0  0
   -2.9159   -3.2528    1.0405 H   0  0  0  0  0  0  0  0  0  0  0  0
   -3.2545   -3.2052   -0.7146 H   0  0  0  0  0  0  0  0  0  0  0  0
    5.1844    0.6081   -0.6354 H   0  0  0  0  0  0  0  0  0  0  0  0
    4.9905    0.3155    1.1177 H   0  0  0  0  0  0  0  0  0  0  0  0
   -2.4645   -5.4714   -0.0167 H   0  0  0  0  0  0  0  0  0  0  0  0
   -1.2963   -4.7019   -1.1178 H   0  0  0  0  0  0  0  0  0  0  0  0
   -0.9627   -4.7478    0.6083 H   0  0  0  0  0  0  0  0  0  0  0  0
    6.4084   -1.4550    0.0684 H   0  0  0  0  0  0  0  0  0  0  0  0
    4.8843   -2.1416    0.6809 H   0  0  0  0  0  0  0  0  0  0  0  0
    5.0765   -1.8537   -1.0435 H   0  0  0  0  0  0  0  0  0  0  0  0
  1 10  1  0  0  0  0
  1 11  1  0  0  0  0
  2 11  1  0  0  0  0
  2 19  1  0  0  0  0
  3 13  1  0  0  0  0
  3 15  1  0  0  0  0
  4 14  1  0  0  0  0
  4 16  1  0  0  0  0
  5 13  2  0  0  0  0
  6 14  2  0  0  0  0
  7 19  3  0  0  0  0
  8  9  1  0  0  0  0
  8 10  2  0  0  0  0
  8 12  1  0  0  0  0
  9 11  2  0  0  0  0
  9 13  1  0  0  0  0
 10 14  1  0  0  0  0
 12 20  1  0  0  0  0
 12 21  1  0  0  0  0
 12 22  1  0  0  0  0
 15 17  1  0  0  0  0
 15 23  1  0  0  0  0
 15 24  1  0  0  0  0
 16 18  1  0  0  0  0
 16 25  1  0  0  0  0
 16 26  1  0  0  0  0
 17 27  1  0  0  0  0
 17 28  1  0  0  0  0
 17 29  1  0  0  0  0
 18 30  1  0  0  0  0
 18 31  1  0  0  0  0
 18 32  1  0  0  0  0
M  END
> <PUBCHEM_COMPOUND_CID>
854013

> <PUBCHEM_CONFORMER_RMSD>
0.8

> <PUBCHEM_CONFORMER_DIVERSEORDER>
15
22
54
55
44
10
61
51
45
24
79
78
7
49
76
17
62
70
66
56
57
60
74
26
19
59
36
39
50
68
75
18
63
13
52
73
14
30
72
37
35
65
11
33
27
38
40
31
42
28
64
4
25
77
34
12
43
32
21
29
2
6
53
46
69
23
9
67
41
8
71
5
3
58
48
16
1
47
20

> <PUBCHEM_MMFF94_PARTIAL_CHARGES>
17
1 -0.08
10 -0.05
11 0.1
12 0.18
13 0.81
14 0.81
15 0.28
16 0.28
19 0.59
2 -0.09
3 -0.43
4 -0.43
5 -0.57
6 -0.57
7 -0.56
8 -0.18
9 -0.09

> <PUBCHEM_EFFECTIVE_ROTOR_COUNT>
7

> <PUBCHEM_PHARMACOPHORE_FEATURES>
4
1 5 acceptor
1 6 acceptor
1 7 acceptor
5 1 8 9 10 11 rings

> <PUBCHEM_HEAVY_ATOM_COUNT>
19

> <PUBCHEM_ATOM_DEF_STEREO_COUNT>
0

> <PUBCHEM_ATOM_UDEF_STEREO_COUNT>
0

> <PUBCHEM_BOND_DEF_STEREO_COUNT>
0

> <PUBCHEM_BOND_UDEF_STEREO_COUNT>
0

> <PUBCHEM_ISOTOPIC_ATOM_COUNT>
0

> <PUBCHEM_COMPONENT_COUNT>
1

> <PUBCHEM_CACTVS_TAUTO_COUNT>
1

> <PUBCHEM_CONFORMER_ID>
000D07FD0000000F

> <PUBCHEM_MMFF94_ENERGY>
31.6682

> <PUBCHEM_FEATURE_SELFOVERLAP>
20.297

> <PUBCHEM_SHAPE_FINGERPRINT>
10062212 137 18059586827420013306
12549972 3 17822308859307116544
12643181 29 18266456706587929390
13140716 1 18123745349345337875
14790565 3 17833826449830510896
14866123 147 18410855490394114323
15295992 7 17676497163117955104
15309172 13 18269273641791587429
16945 1 18338789005963274429
17804303 29 18411699915719475804
19141452 34 18337951194950696091
19591789 44 18268710683005203103
20286276 3 18337666422161489836
20510252 161 18267309720428877105
21478907 32 18268432334770244567
221490 88 17048238126098938515
2334 1 18342183318659260797
23402539 116 18334301933823480013
23557571 272 18192148200643890525
23558518 356 18271241604396152944
23559900 14 18336834182470282000
2748010 2 18199185268772833597
3091708 16 9127099353173239835
350125 39 18339641239275851713
458136 41 17905322180430518993
532947 4 17903354045679056807
53777708 50 18270392790199615172
54173680 148 18339927000276333557
81228 2 17986395494579730537
9709674 26 18408325467220534982

> <PUBCHEM_SHAPE_MULTIPOLES>
370.25
7.67
4.65
0.88
10.67
5.16
0
-0.8
-0.66
-5.52
-0.07
-0.55
-0.49
-0.38

> <PUBCHEM_SHAPE_SELFOVERLAP>
733.284

> <PUBCHEM_SHAPE_VOLUME>
219.6

> <PUBCHEM_COORDINATE_TYPE>
2
5
10

$$$$

