5282290
  -OEChem-07051213042D

125124  0     1  0  0  0  0  0999 V2000
    6.0010   -4.0000    0.0000 P   0  0  3  0  0  0  0  0  0  0  0  0
    9.4651   -2.0000    0.0000 O   0  0  0  0  0  0  0  0  0  0  0  0
    9.4651   -4.0000    0.0000 O   0  0  0  0  0  0  0  0  0  0  0  0
    8.5991   -0.5000    0.0000 O   0  0  0  0  0  0  0  0  0  0  0  0
    6.8671   -3.5000    0.0000 O   0  0  0  0  0  0  0  0  0  0  0  0
   10.3312   -2.5000    0.0000 O   0  0  0  0  0  0  0  0  0  0  0  0
    5.1350   -4.5000    0.0000 O   0  0  0  0  0  0  0  0  0  0  0  0
    5.5010   -3.1340    0.0000 O   0  0  0  0  0  0  0  0  0  0  0  0
    6.5010   -4.8660    0.0000 O   0  0  0  0  0  0  0  0  0  0  0  0
    2.5369   -4.0000    0.0000 N   0  0  0  0  0  0  0  0  0  0  0  0
   12.9292    4.0000    0.0000 C   0  0  0  0  0  0  0  0  0  0  0  0
   12.9292    5.0000    0.0000 C   0  0  0  0  0  0  0  0  0  0  0  0
   12.0632    3.5000    0.0000 C   0  0  0  0  0  0  0  0  0  0  0  0
   13.7953    5.5000    0.0000 C   0  0  0  0  0  0  0  0  0  0  0  0
   13.7953    6.5000    0.0000 C   0  0  0  0  0  0  0  0  0  0  0  0
   12.0632    2.5000    0.0000 C   0  0  0  0  0  0  0  0  0  0  0  0
   14.6613    7.0000    0.0000 C   0  0  0  0  0  0  0  0  0  0  0  0
   11.1972    2.0000    0.0000 C   0  0  0  0  0  0  0  0  0  0  0  0
   14.6613    8.0000    0.0000 C   0  0  0  0  0  0  0  0  0  0  0  0
   11.1972    1.0000    0.0000 C   0  0  0  0  0  0  0  0  0  0  0  0
   15.5273    8.5000    0.0000 C   0  0  0  0  0  0  0  0  0  0  0  0
   10.3312    0.5000    0.0000 C   0  0  0  0  0  0  0  0  0  0  0  0
   15.5273    9.5000    0.0000 C   0  0  0  0  0  0  0  0  0  0  0  0
   10.3312   -0.5000    0.0000 C   0  0  0  0  0  0  0  0  0  0  0  0
   13.7953   -3.5000    0.0000 C   0  0  0  0  0  0  0  0  0  0  0  0
   14.6613   -4.0000    0.0000 C   0  0  0  0  0  0  0  0  0  0  0  0
   12.9292   -4.0000    0.0000 C   0  0  0  0  0  0  0  0  0  0  0  0
   19.8574   -7.0000    0.0000 C   0  0  0  0  0  0  0  0  0  0  0  0
   18.9914   -6.5000    0.0000 C   0  0  0  0  0  0  0  0  0  0  0  0
   15.5273   -3.5000    0.0000 C   0  0  0  0  0  0  0  0  0  0  0  0
   19.8574   -8.0000    0.0000 C   0  0  0  0  0  0  0  0  0  0  0  0
   18.9914   -5.5000    0.0000 C   0  0  0  0  0  0  0  0  0  0  0  0
   12.0632   -3.5000    0.0000 C   0  0  0  0  0  0  0  0  0  0  0  0
   16.3933   -4.0000    0.0000 C   0  0  0  0  0  0  0  0  0  0  0  0
   20.7235   -8.5000    0.0000 C   0  0  0  0  0  0  0  0  0  0  0  0
   18.1254   -5.0000    0.0000 C   0  0  0  0  0  0  0  0  0  0  0  0
   16.3933   10.0000    0.0000 C   0  0  0  0  0  0  0  0  0  0  0  0
    9.4651   -1.0000    0.0000 C   0  0  0  0  0  0  0  0  0  0  0  0
   11.1972   -4.0000    0.0000 C   0  0  0  0  0  0  0  0  0  0  0  0
   17.2594   -3.5000    0.0000 C   0  0  0  0  0  0  0  0  0  0  0  0
   20.7235   -9.5000    0.0000 C   0  0  0  0  0  0  0  0  0  0  0  0
   18.1254   -4.0000    0.0000 C   0  0  0  0  0  0  0  0  0  0  0  0
    8.5991   -3.5000    0.0000 C   0  0  3  0  0  0  0  0  0  0  0  0
    8.5991   -2.5000    0.0000 C   0  0  0  0  0  0  0  0  0  0  0  0
   10.3312   -3.5000    0.0000 C   0  0  0  0  0  0  0  0  0  0  0  0
    7.7331   -4.0000    0.0000 C   0  0  0  0  0  0  0  0  0  0  0  0
   21.5895  -10.0000    0.0000 C   0  0  0  0  0  0  0  0  0  0  0  0
    4.2690   -4.0000    0.0000 C   0  0  0  0  0  0  0  0  0  0  0  0
    3.4030   -4.5000    0.0000 C   0  0  0  0  0  0  0  0  0  0  0  0
   13.1413    3.4174    0.0000 H   0  0  0  0  0  0  0  0  0  0  0  0
   13.5398    4.1077    0.0000 H   0  0  0  0  0  0  0  0  0  0  0  0
   12.7172    5.5826    0.0000 H   0  0  0  0  0  0  0  0  0  0  0  0
   12.3187    4.8923    0.0000 H   0  0  0  0  0  0  0  0  0  0  0  0
   11.8512    4.0826    0.0000 H   0  0  0  0  0  0  0  0  0  0  0  0
   11.4526    3.3923    0.0000 H   0  0  0  0  0  0  0  0  0  0  0  0
   14.0073    4.9174    0.0000 H   0  0  0  0  0  0  0  0  0  0  0  0
   14.4058    5.6077    0.0000 H   0  0  0  0  0  0  0  0  0  0  0  0
   12.2753    1.9174    0.0000 H   0  0  0  0  0  0  0  0  0  0  0  0
   12.6738    2.6077    0.0000 H   0  0  0  0  0  0  0  0  0  0  0  0
   13.5832    7.0826    0.0000 H   0  0  0  0  0  0  0  0  0  0  0  0
   13.1847    6.3923    0.0000 H   0  0  0  0  0  0  0  0  0  0  0  0
   14.8733    6.4174    0.0000 H   0  0  0  0  0  0  0  0  0  0  0  0
   15.2719    7.1077    0.0000 H   0  0  0  0  0  0  0  0  0  0  0  0
   10.9851    2.5826    0.0000 H   0  0  0  0  0  0  0  0  0  0  0  0
   10.5866    1.8923    0.0000 H   0  0  0  0  0  0  0  0  0  0  0  0
   14.4492    8.5826    0.0000 H   0  0  0  0  0  0  0  0  0  0  0  0
   14.0507    7.8923    0.0000 H   0  0  0  0  0  0  0  0  0  0  0  0
   11.4092    0.4174    0.0000 H   0  0  0  0  0  0  0  0  0  0  0  0
   11.8078    1.1077    0.0000 H   0  0  0  0  0  0  0  0  0  0  0  0
   15.7394    7.9174    0.0000 H   0  0  0  0  0  0  0  0  0  0  0  0
   16.1379    8.6077    0.0000 H   0  0  0  0  0  0  0  0  0  0  0  0
   10.1191    1.0826    0.0000 H   0  0  0  0  0  0  0  0  0  0  0  0
    9.7206    0.3923    0.0000 H   0  0  0  0  0  0  0  0  0  0  0  0
   15.3153   10.0826    0.0000 H   0  0  0  0  0  0  0  0  0  0  0  0
   14.9167    9.3923    0.0000 H   0  0  0  0  0  0  0  0  0  0  0  0
   10.5432   -1.0826    0.0000 H   0  0  0  0  0  0  0  0  0  0  0  0
   10.9417   -0.3923    0.0000 H   0  0  0  0  0  0  0  0  0  0  0  0
   14.1938   -3.0250    0.0000 H   0  0  0  0  0  0  0  0  0  0  0  0
   13.3967   -3.0250    0.0000 H   0  0  0  0  0  0  0  0  0  0  0  0
   14.2628   -4.4750    0.0000 H   0  0  0  0  0  0  0  0  0  0  0  0
   15.0598   -4.4750    0.0000 H   0  0  0  0  0  0  0  0  0  0  0  0
   12.5307   -4.4750    0.0000 H   0  0  0  0  0  0  0  0  0  0  0  0
   13.3278   -4.4750    0.0000 H   0  0  0  0  0  0  0  0  0  0  0  0
   20.4680   -7.1077    0.0000 H   0  0  0  0  0  0  0  0  0  0  0  0
   20.0695   -6.4174    0.0000 H   0  0  0  0  0  0  0  0  0  0  0  0
   18.3808   -6.3923    0.0000 H   0  0  0  0  0  0  0  0  0  0  0  0
   18.7794   -7.0826    0.0000 H   0  0  0  0  0  0  0  0  0  0  0  0
   15.9258   -3.0250    0.0000 H   0  0  0  0  0  0  0  0  0  0  0  0
   15.1288   -3.0250    0.0000 H   0  0  0  0  0  0  0  0  0  0  0  0
   19.2469   -7.8923    0.0000 H   0  0  0  0  0  0  0  0  0  0  0  0
   19.6454   -8.5826    0.0000 H   0  0  0  0  0  0  0  0  0  0  0  0
   19.6020   -5.6077    0.0000 H   0  0  0  0  0  0  0  0  0  0  0  0
   19.2035   -4.9174    0.0000 H   0  0  0  0  0  0  0  0  0  0  0  0
   12.4617   -3.0250    0.0000 H   0  0  0  0  0  0  0  0  0  0  0  0
   11.6647   -3.0250    0.0000 H   0  0  0  0  0  0  0  0  0  0  0  0
   15.9948   -4.4750    0.0000 H   0  0  0  0  0  0  0  0  0  0  0  0
   16.7919   -4.4750    0.0000 H   0  0  0  0  0  0  0  0  0  0  0  0
   21.3340   -8.6077    0.0000 H   0  0  0  0  0  0  0  0  0  0  0  0
   20.9355   -7.9174    0.0000 H   0  0  0  0  0  0  0  0  0  0  0  0
   17.5148   -4.8923    0.0000 H   0  0  0  0  0  0  0  0  0  0  0  0
   17.9133   -5.5826    0.0000 H   0  0  0  0  0  0  0  0  0  0  0  0
   16.7033    9.4631    0.0000 H   0  0  0  0  0  0  0  0  0  0  0  0
   16.9303   10.3100    0.0000 H   0  0  0  0  0  0  0  0  0  0  0  0
   16.0833   10.5369    0.0000 H   0  0  0  0  0  0  0  0  0  0  0  0
   10.7987   -4.4750    0.0000 H   0  0  0  0  0  0  0  0  0  0  0  0
   11.5957   -4.4750    0.0000 H   0  0  0  0  0  0  0  0  0  0  0  0
   17.2594   -2.8800    0.0000 H   0  0  0  0  0  0  0  0  0  0  0  0
   20.1129   -9.3923    0.0000 H   0  0  0  0  0  0  0  0  0  0  0  0
   20.5114  -10.0826    0.0000 H   0  0  0  0  0  0  0  0  0  0  0  0
   18.6623   -3.6900    0.0000 H   0  0  0  0  0  0  0  0  0  0  0  0
    8.5991   -4.3500    0.0000 H   0  0  0  0  0  0  0  0  0  0  0  0
    8.3871   -1.9174    0.0000 H   0  0  0  0  0  0  0  0  0  0  0  0
    7.9885   -2.6077    0.0000 H   0  0  0  0  0  0  0  0  0  0  0  0
    7.3346   -4.4750    0.0000 H   0  0  0  0  0  0  0  0  0  0  0  0
    8.1316   -4.4750    0.0000 H   0  0  0  0  0  0  0  0  0  0  0  0
   21.2795  -10.5369    0.0000 H   0  0  0  0  0  0  0  0  0  0  0  0
   22.1264  -10.3100    0.0000 H   0  0  0  0  0  0  0  0  0  0  0  0
   21.8995   -9.4631    0.0000 H   0  0  0  0  0  0  0  0  0  0  0  0
    4.6675   -3.5250    0.0000 H   0  0  0  0  0  0  0  0  0  0  0  0
    3.8705   -3.5250    0.0000 H   0  0  0  0  0  0  0  0  0  0  0  0
    5.8110   -2.5970    0.0000 H   0  0  0  0  0  0  0  0  0  0  0  0
    3.0044   -4.9750    0.0000 H   0  0  0  0  0  0  0  0  0  0  0  0
    3.8015   -4.9750    0.0000 H   0  0  0  0  0  0  0  0  0  0  0  0
    2.0000   -4.3100    0.0000 H   0  0  0  0  0  0  0  0  0  0  0  0
    2.5369   -3.3800    0.0000 H   0  0  0  0  0  0  0  0  0  0  0  0
  1  5  1  0  0  0  0
  1  7  1  0  0  0  0
  1  8  1  0  0  0  0
  1  9  2  0  0  0  0
  2 38  1  0  0  0  0
  2 44  1  0  0  0  0
  3 43  1  0  0  0  0
  3 45  1  0  0  0  0
  4 38  2  0  0  0  0
  5 46  1  0  0  0  0
  6 45  2  0  0  0  0
  7 48  1  0  0  0  0
  8121  1  0  0  0  0
 10 49  1  0  0  0  0
 10124  1  0  0  0  0
 10125  1  0  0  0  0
 11 12  1  0  0  0  0
 11 13  1  0  0  0  0
 11 50  1  0  0  0  0
 11 51  1  0  0  0  0
 12 14  1  0  0  0  0
 12 52  1  0  0  0  0
 12 53  1  0  0  0  0
 13 16  1  0  0  0  0
 13 54  1  0  0  0  0
 13 55  1  0  0  0  0
 14 15  1  0  0  0  0
 14 56  1  0  0  0  0
 14 57  1  0  0  0  0
 15 17  1  0  0  0  0
 15 60  1  0  0  0  0
 15 61  1  0  0  0  0
 16 18  1  0  0  0  0
 16 58  1  0  0  0  0
 16 59  1  0  0  0  0
 17 19  1  0  0  0  0
 17 62  1  0  0  0  0
 17 63  1  0  0  0  0
 18 20  1  0  0  0  0
 18 64  1  0  0  0  0
 18 65  1  0  0  0  0
 19 21  1  0  0  0  0
 19 66  1  0  0  0  0
 19 67  1  0  0  0  0
 20 22  1  0  0  0  0
 20 68  1  0  0  0  0
 20 69  1  0  0  0  0
 21 23  1  0  0  0  0
 21 70  1  0  0  0  0
 21 71  1  0  0  0  0
 22 24  1  0  0  0  0
 22 72  1  0  0  0  0
 22 73  1  0  0  0  0
 23 37  1  0  0  0  0
 23 74  1  0  0  0  0
 23 75  1  0  0  0  0
 24 38  1  0  0  0  0
 24 76  1  0  0  0  0
 24 77  1  0  0  0  0
 25 26  1  0  0  0  0
 25 27  1  0  0  0  0
 25 78  1  0  0  0  0
 25 79  1  0  0  0  0
 26 30  1  0  0  0  0
 26 80  1  0  0  0  0
 26 81  1  0  0  0  0
 27 33  1  0  0  0  0
 27 82  1  0  0  0  0
 27 83  1  0  0  0  0
 28 29  1  0  0  0  0
 28 31  1  0  0  0  0
 28 84  1  0  0  0  0
 28 85  1  0  0  0  0
 29 32  1  0  0  0  0
 29 86  1  0  0  0  0
 29 87  1  0  0  0  0
 30 34  1  0  0  0  0
 30 88  1  0  0  0  0
 30 89  1  0  0  0  0
 31 35  1  0  0  0  0
 31 90  1  0  0  0  0
 31 91  1  0  0  0  0
 32 36  1  0  0  0  0
 32 92  1  0  0  0  0
 32 93  1  0  0  0  0
 33 39  1  0  0  0  0
 33 94  1  0  0  0  0
 33 95  1  0  0  0  0
 34 40  1  0  0  0  0
 34 96  1  0  0  0  0
 34 97  1  0  0  0  0
 35 41  1  0  0  0  0
 35 98  1  0  0  0  0
 35 99  1  0  0  0  0
 36 42  1  0  0  0  0
 36100  1  0  0  0  0
 36101  1  0  0  0  0
 37102  1  0  0  0  0
 37103  1  0  0  0  0
 37104  1  0  0  0  0
 39 45  1  0  0  0  0
 39105  1  0  0  0  0
 39106  1  0  0  0  0
 40 42  2  0  0  0  0
 40107  1  0  0  0  0
 41 47  1  0  0  0  0
 41108  1  0  0  0  0
 41109  1  0  0  0  0
 42110  1  0  0  0  0
 43 44  1  0  0  0  0
 43 46  1  0  0  0  0
 43111  1  0  0  0  0
 44112  1  0  0  0  0
 44113  1  0  0  0  0
 46114  1  0  0  0  0
 46115  1  0  0  0  0
 47116  1  0  0  0  0
 47117  1  0  0  0  0
 47118  1  0  0  0  0
 48 49  1  0  0  0  0
 48119  1  0  0  0  0
 48120  1  0  0  0  0
 49122  1  0  0  0  0
 49123  1  0  0  0  0
M  END
> <PUBCHEM_COMPOUND_CID>
5282290

> <PUBCHEM_COMPOUND_CANONICALIZED>
1

> <PUBCHEM_CACTVS_COMPLEXITY>
825

> <PUBCHEM_CACTVS_HBOND_ACCEPTOR>
9

> <PUBCHEM_CACTVS_HBOND_DONOR>
2

> <PUBCHEM_CACTVS_ROTATABLE_BOND>
40

> <PUBCHEM_CACTVS_SUBSKEYS>
AAADcfB+PAIAAAAAAAAAAAAAAAAAAAAAAAAAAAAAAAAAAAAAAAAAHgAQCCAACBThgAYCCABABRCIQCDSCIAAAAAgAAAICIEAAAgDABIAAQACAAAFkAAKAAOIyKCAAAAAAAAAAAAAAAAAAAAAAAAAAAAAAA==

> <PUBCHEM_IUPAC_OPENEYE_NAME>
[1-[[2-aminoethoxy(hydroxy)phosphoryl]oxymethyl]-2-hexadecanoyloxy-ethyl] (Z)-octadec-9-enoate

> <PUBCHEM_IUPAC_CAS_NAME>
(Z)-9-octadecenoic acid [1-[2-aminoethoxy(hydroxy)phosphoryl]oxy-3-(1-oxohexadecoxy)propan-2-yl] ester

> <PUBCHEM_IUPAC_NAME>
[1-[2-aminoethoxy(hydroxy)phosphoryl]oxy-3-hexadecanoyloxypropan-2-yl] (Z)-octadec-9-enoate

> <PUBCHEM_IUPAC_SYSTEMATIC_NAME>
[1-[2-azanylethoxy(oxidanyl)phosphoryl]oxy-3-hexadecanoyloxy-propan-2-yl] (Z)-octadec-9-enoate

> <PUBCHEM_IUPAC_TRADITIONAL_NAME>
(Z)-octadec-9-enoic acid [1-[[2-aminoethoxy(hydroxy)phosphoryl]oxymethyl]-2-hexadecanoyloxy-ethyl] ester

> <PUBCHEM_IUPAC_INCHI>
InChI=1S/C39H76NO8P/c1-3-5-7-9-11-13-15-17-18-20-22-24-26-28-30-32-39(42)48-37(36-47-49(43,44)46-34-33-40)35-45-38(41)31-29-27-25-23-21-19-16-14-12-10-8-6-4-2/h17-18,37H,3-16,19-36,40H2,1-2H3,(H,43,44)/b18-17-

> <PUBCHEM_IUPAC_INCHIKEY>
FHQVHHIBKUMWTI-ZCXUNETKSA-N

> <PUBCHEM_XLOGP3_AA>
10.4

> <PUBCHEM_EXACT_MASS>
717.530855

> <PUBCHEM_MOLECULAR_FORMULA>
C39H76NO8P

> <PUBCHEM_MOLECULAR_WEIGHT>
717.996402

> <PUBCHEM_OPENEYE_CAN_SMILES>
CCCCCCCCCCCCCCCC(=O)OCC(COP(=O)(O)OCCN)OC(=O)CCCCCCCC=CCCCCCCCC

> <PUBCHEM_OPENEYE_ISO_SMILES>
CCCCCCCCCCCCCCCC(=O)OCC(COP(=O)(O)OCCN)OC(=O)CCCCCCC/C=C\CCCCCCCC

> <PUBCHEM_CACTVS_TPSA>
134

> <PUBCHEM_MONOISOTOPIC_WEIGHT>
717.530855

> <PUBCHEM_TOTAL_CHARGE>
0

> <PUBCHEM_HEAVY_ATOM_COUNT>
49

> <PUBCHEM_ATOM_DEF_STEREO_COUNT>
0

> <PUBCHEM_ATOM_UDEF_STEREO_COUNT>
1

> <PUBCHEM_BOND_DEF_STEREO_COUNT>
1

> <PUBCHEM_BOND_UDEF_STEREO_COUNT>
0

> <PUBCHEM_ISOTOPIC_ATOM_COUNT>
0

> <PUBCHEM_COMPONENT_COUNT>
1

> <PUBCHEM_CACTVS_TAUTO_COUNT>
1

> <PUBCHEM_COORDINATE_TYPE>
1
5
255

> <PUBCHEM_BONDANNOTATIONS>
43  111  3

$$$$

