6435
  -OEChem-06261201192D

 26 27  0     0  0  0  0  0  0999 V2000
    2.7320    0.0070    0.0000 O   0  0  0  0  0  0  0  0  0  0  0  0
    3.3660    1.3730    0.0000 O   0  0  0  0  0  0  0  0  0  0  0  0
    2.0000    0.0070    0.0000 O   0  0  0  0  0  0  0  0  0  0  0  0
    5.4641    0.0070    0.0000 O   0  0  0  0  0  0  0  0  0  0  0  0
    5.4401   -0.5667    0.0000 O   0  0  0  0  0  0  0  0  0  0  0  0
    3.3660    2.3730    0.0000 O   0  0  0  0  0  0  0  0  0  0  0  0
    3.7320   -2.9930    0.0000 O   0  0  0  0  0  0  0  0  0  0  0  0
    6.8301    2.3730    0.0000 O   0  0  0  0  0  0  0  0  0  0  0  0
    4.5981   -1.4930    0.0000 N   0  0  0  0  0  0  0  0  0  0  0  0
    2.8660   -1.4930    0.0000 N   0  0  0  0  0  0  0  0  0  0  0  0
    5.0981    2.3730    0.0000 N   0  0  0  0  0  0  0  0  0  0  0  0
    5.9641    0.8730    0.0000 N   0  0  0  0  0  0  0  0  0  0  0  0
    4.2320    0.8730    0.0000 C   0  0  0  0  0  0  0  0  0  0  0  0
    3.7320    0.0070    0.0000 C   0  0  0  0  0  0  0  0  0  0  0  0
    4.5981   -0.4930    0.0000 C   0  0  0  0  0  0  0  0  0  0  0  0
    2.8660   -0.4930    0.0000 C   0  0  0  0  0  0  0  0  0  0  0  0
    4.2320    1.8730    0.0000 C   0  0  0  0  0  0  0  0  0  0  0  0
    5.0981    0.3730    0.0000 C   0  0  0  0  0  0  0  0  0  0  0  0
    3.7320   -1.9930    0.0000 C   0  0  0  0  0  0  0  0  0  0  0  0
    5.9641    1.8730    0.0000 C   0  0  0  0  0  0  0  0  0  0  0  0
    5.1350   -1.8030    0.0000 H   0  0  0  0  0  0  0  0  0  0  0  0
    2.3291   -1.8030    0.0000 H   0  0  0  0  0  0  0  0  0  0  0  0
    5.0981    2.9930    0.0000 H   0  0  0  0  0  0  0  0  0  0  0  0
    6.5010    0.5630    0.0000 H   0  0  0  0  0  0  0  0  0  0  0  0
    2.4220    0.5439    0.0000 H   0  0  0  0  0  0  0  0  0  0  0  0
    2.8291    1.0630    0.0000 H   0  0  0  0  0  0  0  0  0  0  0  0
  1 14  1  0  0  0  0
  1 25  1  0  0  0  0
  2 13  1  0  0  0  0
  2 26  1  0  0  0  0
  3 16  2  0  0  0  0
  4 15  2  0  0  0  0
  5 18  2  0  0  0  0
  6 17  2  0  0  0  0
  7 19  2  0  0  0  0
  8 20  2  0  0  0  0
  9 15  1  0  0  0  0
  9 19  1  0  0  0  0
  9 21  1  0  0  0  0
 10 16  1  0  0  0  0
 10 19  1  0  0  0  0
 10 22  1  0  0  0  0
 11 17  1  0  0  0  0
 11 20  1  0  0  0  0
 11 23  1  0  0  0  0
 12 18  1  0  0  0  0
 12 20  1  0  0  0  0
 12 24  1  0  0  0  0
 13 14  1  0  0  0  0
 13 17  1  0  0  0  0
 13 18  1  0  0  0  0
 14 15  1  0  0  0  0
 14 16  1  0  0  0  0
M  END
> <PUBCHEM_COMPOUND_CID>
6435

> <PUBCHEM_COMPOUND_CANONICALIZED>
1

> <PUBCHEM_CACTVS_COMPLEXITY>
503

> <PUBCHEM_CACTVS_HBOND_ACCEPTOR>
8

> <PUBCHEM_CACTVS_HBOND_DONOR>
6

> <PUBCHEM_CACTVS_ROTATABLE_BOND>
1

> <PUBCHEM_CACTVS_SUBSKEYS>
AAADcYBzvAAAAAAAAAAAAAAAAAAAAAAAAAAsWAAAAAAAAAAAAAAADgAQCAAADEQBgAABAALAAgAIAAEQEAIAAAAAAAAAAAFAAACDABwIwAAEQAAKJSIRAAAFAAAIgAAAAAAAAAAAAAAAAAAAAAAAAAAAAA==

> <PUBCHEM_IUPAC_OPENEYE_NAME>
5-hydroxy-5-(5-hydroxy-2,4,6-trioxo-hexahydropyrimidin-5-yl)hexahydropyrimidine-2,4,6-trione

> <PUBCHEM_IUPAC_CAS_NAME>
5-hydroxy-5-(5-hydroxy-2,4,6-trioxo-1,3-diazinan-5-yl)-1,3-diazinane-2,4,6-trione

> <PUBCHEM_IUPAC_NAME>
5-hydroxy-5-(5-hydroxy-2,4,6-trioxo-1,3-diazinan-5-yl)-1,3-diazinane-2,4,6-trione

> <PUBCHEM_IUPAC_SYSTEMATIC_NAME>
5-oxidanyl-5-[5-oxidanyl-2,4,6-tris(oxidanylidene)-1,3-diazinan-5-yl]-1,3-diazinane-2,4,6-trione

> <PUBCHEM_IUPAC_TRADITIONAL_NAME>
alloxantin

> <PUBCHEM_IUPAC_INCHI>
InChI=1S/C8H6N4O8/c13-1-7(19,2(14)10-5(17)9-1)8(20)3(15)11-6(18)12-4(8)16/h19-20H,(H2,9,10,13,14,17)(H2,11,12,15,16,18)

> <PUBCHEM_IUPAC_INCHIKEY>
IWDDXZKCDHOOSF-UHFFFAOYSA-N

> <PUBCHEM_XLOGP3_AA>
-4

> <PUBCHEM_EXACT_MASS>
286.018563

> <PUBCHEM_MOLECULAR_FORMULA>
C8H6N4O8

> <PUBCHEM_MOLECULAR_WEIGHT>
286.15524

> <PUBCHEM_OPENEYE_CAN_SMILES>
C1(=O)C(C(=O)NC(=O)N1)(C2(C(=O)NC(=O)NC2=O)O)O

> <PUBCHEM_OPENEYE_ISO_SMILES>
C1(=O)C(C(=O)NC(=O)N1)(C2(C(=O)NC(=O)NC2=O)O)O

> <PUBCHEM_CACTVS_TPSA>
191

> <PUBCHEM_MONOISOTOPIC_WEIGHT>
286.018563

> <PUBCHEM_TOTAL_CHARGE>
0

> <PUBCHEM_HEAVY_ATOM_COUNT>
20

> <PUBCHEM_ATOM_DEF_STEREO_COUNT>
0

> <PUBCHEM_ATOM_UDEF_STEREO_COUNT>
0

> <PUBCHEM_BOND_DEF_STEREO_COUNT>
0

> <PUBCHEM_BOND_UDEF_STEREO_COUNT>
0

> <PUBCHEM_ISOTOPIC_ATOM_COUNT>
0

> <PUBCHEM_COMPONENT_COUNT>
1

> <PUBCHEM_CACTVS_TAUTO_COUNT>
15

> <PUBCHEM_COORDINATE_TYPE>
1
5
255

$$$$

