5281756
  -OEChem-07051212593D

 50 52  0     1  0  0  0  0  0999 V2000
   -1.2121    0.8501   -0.2969 O   0  0  0  0  0  0  0  0  0  0  0  0
    0.6229   -1.6418   -0.7651 O   0  0  0  0  0  0  0  0  0  0  0  0
    3.5008   -0.7195    1.1690 O   0  0  0  0  0  0  0  0  0  0  0  0
   -0.9914    2.7460   -1.6018 O   0  0  0  0  0  0  0  0  0  0  0  0
    1.4556   -2.4235    1.2403 O   0  0  0  0  0  0  0  0  0  0  0  0
    4.0298   -2.5990   -0.6686 O   0  0  0  0  0  0  0  0  0  0  0  0
   -3.7729   -0.9178    0.2869 N   0  0  2  0  0  0  0  0  0  0  0  0
   -2.6567   -1.0887   -0.6926 C   0  0  1  0  0  0  0  0  0  0  0  0
   -2.2663    0.3308   -1.1306 C   0  0  1  0  0  0  0  0  0  0  0  0
   -3.5603    1.1034   -0.8869 C   0  0  0  0  0  0  0  0  0  0  0  0
   -4.0474    0.5143    0.4270 C   0  0  0  0  0  0  0  0  0  0  0  0
   -1.6531   -1.9690   -0.0166 C   0  0  0  0  0  0  0  0  0  0  0  0
   -3.3475   -1.5667    1.5410 C   0  0  0  0  0  0  0  0  0  0  0  0
   -2.0563   -2.2452    1.2278 C   0  0  0  0  0  0  0  0  0  0  0  0
   -0.4771   -2.5641   -0.7120 C   0  0  0  0  0  0  0  0  0  0  0  0
    2.1967    0.7004   -0.3426 C   0  0  1  0  0  0  0  0  0  0  0  0
    2.6918   -0.7347   -0.0044 C   0  0  2  0  0  0  0  0  0  0  0  0
    1.3307    1.3033    0.7979 C   0  0  0  0  0  0  0  0  0  0  0  0
   -0.6690    2.0465   -0.6531 C   0  0  0  0  0  0  0  0  0  0  0  0
    0.4112    2.3900    0.3048 C   0  0  0  0  0  0  0  0  0  0  0  0
    1.5314   -1.6975    0.2562 C   0  0  0  0  0  0  0  0  0  0  0  0
    3.5499   -1.3471   -1.1170 C   0  0  0  0  0  0  0  0  0  0  0  0
    3.3574    1.6591   -0.6598 C   0  0  0  0  0  0  0  0  0  0  0  0
    0.5047    3.6748    0.6730 C   0  0  0  0  0  0  0  0  0  0  0  0
    1.5272    4.1959    1.6242 C   0  0  0  0  0  0  0  0  0  0  0  0
   -3.0839   -1.6195   -1.5537 H   0  0  0  0  0  0  0  0  0  0  0  0
   -1.9513    0.3545   -2.1800 H   0  0  0  0  0  0  0  0  0  0  0  0
   -4.2820    0.9002   -1.6876 H   0  0  0  0  0  0  0  0  0  0  0  0
   -3.4244    2.1848   -0.8024 H   0  0  0  0  0  0  0  0  0  0  0  0
   -3.4901    0.9724    1.2536 H   0  0  0  0  0  0  0  0  0  0  0  0
   -5.1136    0.7009    0.5859 H   0  0  0  0  0  0  0  0  0  0  0  0
   -4.0996   -2.3040    1.8397 H   0  0  0  0  0  0  0  0  0  0  0  0
   -3.2043   -0.8666    2.3715 H   0  0  0  0  0  0  0  0  0  0  0  0
   -1.5373   -2.8956    1.9171 H   0  0  0  0  0  0  0  0  0  0  0  0
   -0.1667   -3.5072   -0.2454 H   0  0  0  0  0  0  0  0  0  0  0  0
   -0.7443   -2.8120   -1.7451 H   0  0  0  0  0  0  0  0  0  0  0  0
    1.5876    0.6341   -1.2541 H   0  0  0  0  0  0  0  0  0  0  0  0
    1.9792    1.6299    1.6172 H   0  0  0  0  0  0  0  0  0  0  0  0
    0.7027    0.5276    1.2522 H   0  0  0  0  0  0  0  0  0  0  0  0
    4.4397   -0.7446   -1.3163 H   0  0  0  0  0  0  0  0  0  0  0  0
    3.0016   -1.4812   -2.0552 H   0  0  0  0  0  0  0  0  0  0  0  0
    3.9022    1.3465   -1.5551 H   0  0  0  0  0  0  0  0  0  0  0  0
    2.9911    2.6707   -0.8621 H   0  0  0  0  0  0  0  0  0  0  0  0
    4.0667    1.7194    0.1720 H   0  0  0  0  0  0  0  0  0  0  0  0
    3.8698   -1.6101    1.2972 H   0  0  0  0  0  0  0  0  0  0  0  0
   -0.2056    4.4059    0.2940 H   0  0  0  0  0  0  0  0  0  0  0  0
    3.2944   -3.2338   -0.7020 H   0  0  0  0  0  0  0  0  0  0  0  0
    1.7308    5.2468    1.3902 H   0  0  0  0  0  0  0  0  0  0  0  0
    2.4880    3.6795    1.5630 H   0  0  0  0  0  0  0  0  0  0  0  0
    1.1522    4.1512    2.6509 H   0  0  0  0  0  0  0  0  0  0  0  0
  1  9  1  0  0  0  0
  1 19  1  0  0  0  0
  2 15  1  0  0  0  0
  2 21  1  0  0  0  0
  3 17  1  0  0  0  0
  3 45  1  0  0  0  0
  4 19  2  0  0  0  0
  5 21  2  0  0  0  0
  6 22  1  0  0  0  0
  6 47  1  0  0  0  0
  7  8  1  0  0  0  0
  7 11  1  0  0  0  0
  7 13  1  0  0  0  0
  8  9  1  0  0  0  0
  8 12  1  0  0  0  0
  8 26  1  0  0  0  0
  9 10  1  0  0  0  0
  9 27  1  0  0  0  0
 10 11  1  0  0  0  0
 10 28  1  0  0  0  0
 10 29  1  0  0  0  0
 11 30  1  0  0  0  0
 11 31  1  0  0  0  0
 12 14  2  0  0  0  0
 12 15  1  0  0  0  0
 13 14  1  0  0  0  0
 13 32  1  0  0  0  0
 13 33  1  0  0  0  0
 14 34  1  0  0  0  0
 15 35  1  0  0  0  0
 15 36  1  0  0  0  0
 16 17  1  0  0  0  0
 16 18  1  0  0  0  0
 16 23  1  0  0  0  0
 16 37  1  0  0  0  0
 17 21  1  0  0  0  0
 17 22  1  0  0  0  0
 18 20  1  0  0  0  0
 18 38  1  0  0  0  0
 18 39  1  0  0  0  0
 19 20  1  0  0  0  0
 20 24  2  0  0  0  0
 22 40  1  0  0  0  0
 22 41  1  0  0  0  0
 23 42  1  0  0  0  0
 23 43  1  0  0  0  0
 23 44  1  0  0  0  0
 24 25  1  0  0  0  0
 24 46  1  0  0  0  0
 25 48  1  0  0  0  0
 25 49  1  0  0  0  0
 25 50  1  0  0  0  0
M  END
> <PUBCHEM_COMPOUND_CID>
5281756

> <PUBCHEM_CONFORMER_RMSD>
0.6

> <PUBCHEM_CONFORMER_DIVERSEORDER>
1
11
2
13
6
4
7
5
12
8
14
10
3
9

> <PUBCHEM_MMFF94_PARTIAL_CHARGES>
26
1 -0.43
11 0.27
12 -0.28
13 0.41
14 -0.29
15 0.42
17 0.34
18 0.14
19 0.71
2 -0.43
20 -0.12
21 0.66
22 0.28
24 -0.29
25 0.14
3 -0.68
34 0.15
4 -0.57
45 0.4
46 0.15
47 0.4
5 -0.57
6 -0.68
7 -0.81
8 0.41
9 0.28

> <PUBCHEM_EFFECTIVE_ROTOR_COUNT>
2.8

> <PUBCHEM_PHARMACOPHORE_FEATURES>
10
1 25 hydrophobe
1 3 acceptor
1 3 donor
1 4 acceptor
1 5 acceptor
1 6 acceptor
1 6 donor
1 7 cation
5 7 8 12 13 14 rings
5 7 8 9 10 11 rings

> <PUBCHEM_HEAVY_ATOM_COUNT>
25

> <PUBCHEM_ATOM_DEF_STEREO_COUNT>
4

> <PUBCHEM_ATOM_UDEF_STEREO_COUNT>
0

> <PUBCHEM_BOND_DEF_STEREO_COUNT>
1

> <PUBCHEM_BOND_UDEF_STEREO_COUNT>
0

> <PUBCHEM_ISOTOPIC_ATOM_COUNT>
0

> <PUBCHEM_COMPONENT_COUNT>
1

> <PUBCHEM_CACTVS_TAUTO_COUNT>
1

> <PUBCHEM_CONFORMER_ID>
005097DC00000001

> <PUBCHEM_MMFF94_ENERGY>
58.6985

> <PUBCHEM_FEATURE_SELFOVERLAP>
51.085

> <PUBCHEM_SHAPE_FINGERPRINT>
10006869 2 17400079068696987817
10366900 7 17988638558773217083
10382601 240 17837214775141445408
104564 63 18119807173219019146
10675989 125 17331141879473369356
10759866 29 17774152539265486614
1100329 8 18048026664781002888
11112241 14 16808148891827997384
12011746 2 18341893009151431663
12156800 1 15658518517116051085
12506688 2 18410853248399820180
12553582 1 18265899235930738777
12596599 1 17385442120182583591
12633257 1 18343580772195059379
12788726 201 17904765827193560041
13140716 1 18412829079410956410
13402501 40 18340770437706781429
13533116 47 18264203618103823521
14178342 30 17762624984429234993
14223421 5 18050845520668186931
14363568 33 18121477095474855722
14955137 171 18190998236647354347
16945 1 18059298784989757990
20600515 1 18267845345863281973
20775438 99 17615173976986088983
21141583 151 18410008870840571718
2334 1 18268713813909625062
23558518 356 17327737808425777071
23559900 14 18340490075343235550
238 59 18047505277399464277
2748010 2 18198072378137476653
5939293 188 18335424542999461432
6287921 2 17762887775981339643
81228 2 18047185542696201464
9862522 239 17326637807488753880

> <PUBCHEM_SHAPE_MULTIPOLES>
474.29
6.58
4.46
1.37
1.34
2.78
-0.18
-2.04
-0.13
-2.85
-0.92
0.17
0.24
1.5

> <PUBCHEM_SHAPE_SELFOVERLAP>
1000.53

> <PUBCHEM_SHAPE_VOLUME>
266.1

> <PUBCHEM_COORDINATE_TYPE>
2
5
10

$$$$

