10766
  -OEChem-06261204562D

 40 39  0     1  0  0  0  0  0999 V2000
    6.5380    3.8700    0.0000 Cl  0  0  0  0  0  0  0  0  0  0  0  0
    2.2690    4.1200    0.0000 O   0  0  0  0  0  0  0  0  0  0  0  0
    0.5369    4.1200    0.0000 O   0  0  0  0  0  0  0  0  0  0  0  0
    3.1350    6.6200    0.0000 N   0  0  0  0  0  0  0  0  0  0  0  0
    2.2690    5.1200    0.0000 C   0  0  3  0  0  0  0  0  0  0  0  0
    2.2690    6.1200    0.0000 C   0  0  0  0  0  0  0  0  0  0  0  0
    3.2690    5.1200    0.0000 C   0  0  0  0  0  0  0  0  0  0  0  0
    1.2690    5.1200    0.0000 C   0  0  0  0  0  0  0  0  0  0  0  0
    3.7690    4.2540    0.0000 C   0  0  0  0  0  0  0  0  0  0  0  0
    3.1350    7.6200    0.0000 C   0  0  0  0  0  0  0  0  0  0  0  0
    4.0010    6.1200    0.0000 C   0  0  0  0  0  0  0  0  0  0  0  0
    1.4030    3.6200    0.0000 C   0  0  0  0  0  0  0  0  0  0  0  0
    1.4030    2.6200    0.0000 C   0  0  0  0  0  0  0  0  0  0  0  0
    0.5369    2.1200    0.0000 C   0  0  0  0  0  0  0  0  0  0  0  0
    2.2690    2.1200    0.0000 C   0  0  0  0  0  0  0  0  0  0  0  0
    0.5369    1.1200    0.0000 C   0  0  0  0  0  0  0  0  0  0  0  0
    2.2690    1.1200    0.0000 C   0  0  0  0  0  0  0  0  0  0  0  0
    1.4030    0.6200    0.0000 C   0  0  0  0  0  0  0  0  0  0  0  0
    2.0569    6.7026    0.0000 H   0  0  0  0  0  0  0  0  0  0  0  0
    1.6584    6.0123    0.0000 H   0  0  0  0  0  0  0  0  0  0  0  0
    3.8516    5.3320    0.0000 H   0  0  0  0  0  0  0  0  0  0  0  0
    3.1613    5.7306    0.0000 H   0  0  0  0  0  0  0  0  0  0  0  0
    1.2690    5.7400    0.0000 H   0  0  0  0  0  0  0  0  0  0  0  0
    0.6490    5.1200    0.0000 H   0  0  0  0  0  0  0  0  0  0  0  0
    1.2690    4.5000    0.0000 H   0  0  0  0  0  0  0  0  0  0  0  0
    3.2320    3.9440    0.0000 H   0  0  0  0  0  0  0  0  0  0  0  0
    4.0790    3.7170    0.0000 H   0  0  0  0  0  0  0  0  0  0  0  0
    4.3059    4.5640    0.0000 H   0  0  0  0  0  0  0  0  0  0  0  0
    3.7550    7.6200    0.0000 H   0  0  0  0  0  0  0  0  0  0  0  0
    3.1350    8.2400    0.0000 H   0  0  0  0  0  0  0  0  0  0  0  0
    2.5150    7.6200    0.0000 H   0  0  0  0  0  0  0  0  0  0  0  0
    3.6910    5.5831    0.0000 H   0  0  0  0  0  0  0  0  0  0  0  0
    4.5380    5.8100    0.0000 H   0  0  0  0  0  0  0  0  0  0  0  0
    4.3110    6.6569    0.0000 H   0  0  0  0  0  0  0  0  0  0  0  0
    0.0000    2.4300    0.0000 H   0  0  0  0  0  0  0  0  0  0  0  0
    2.8059    2.4300    0.0000 H   0  0  0  0  0  0  0  0  0  0  0  0
    0.0000    0.8100    0.0000 H   0  0  0  0  0  0  0  0  0  0  0  0
    2.8059    0.8100    0.0000 H   0  0  0  0  0  0  0  0  0  0  0  0
    1.4030    0.0000    0.0000 H   0  0  0  0  0  0  0  0  0  0  0  0
    7.5380    3.8700    0.0000 H   0  0  0  0  0  0  0  0  0  0  0  0
  1 40  1  0  0  0  0
  2  5  1  0  0  0  0
  2 12  1  0  0  0  0
  3 12  2  0  0  0  0
  4  6  1  0  0  0  0
  4 10  1  0  0  0  0
  4 11  1  0  0  0  0
  5  6  1  0  0  0  0
  5  7  1  0  0  0  0
  5  8  1  0  0  0  0
  6 19  1  0  0  0  0
  6 20  1  0  0  0  0
  7  9  1  0  0  0  0
  7 21  1  0  0  0  0
  7 22  1  0  0  0  0
  8 23  1  0  0  0  0
  8 24  1  0  0  0  0
  8 25  1  0  0  0  0
  9 26  1  0  0  0  0
  9 27  1  0  0  0  0
  9 28  1  0  0  0  0
 10 29  1  0  0  0  0
 10 30  1  0  0  0  0
 10 31  1  0  0  0  0
 11 32  1  0  0  0  0
 11 33  1  0  0  0  0
 11 34  1  0  0  0  0
 12 13  1  0  0  0  0
 13 14  2  0  0  0  0
 13 15  1  0  0  0  0
 14 16  1  0  0  0  0
 14 35  1  0  0  0  0
 15 17  2  0  0  0  0
 15 36  1  0  0  0  0
 16 18  2  0  0  0  0
 16 37  1  0  0  0  0
 17 18  1  0  0  0  0
 17 38  1  0  0  0  0
 18 39  1  0  0  0  0
M  END
> <PUBCHEM_COMPOUND_CID>
10766

> <PUBCHEM_COMPOUND_CANONICALIZED>
1

> <PUBCHEM_CACTVS_COMPLEXITY>
247

> <PUBCHEM_CACTVS_HBOND_ACCEPTOR>
3

> <PUBCHEM_CACTVS_HBOND_DONOR>
1

> <PUBCHEM_CACTVS_ROTATABLE_BOND>
6

> <PUBCHEM_CACTVS_SUBSKEYS>
AAADceByMAAEAAAAAAAAAAAAAAAAAAAAAAAwAAAAAAAAAAABAAAAHgAAAAAADETBmAQyCIMABACIAiDSCAACAAAkAAAIiAEICMgKJjKAtRiHMQAkwAEYqYeIyCCOAAAAAAAAAAAAAAAAAAAAAAAAAAAAAA==

> <PUBCHEM_IUPAC_OPENEYE_NAME>
[1-[(dimethylamino)methyl]-1-methyl-propyl] benzoate hydrochloride

> <PUBCHEM_IUPAC_CAS_NAME>
benzoic acid [1-(dimethylamino)-2-methylbutan-2-yl] ester hydrochloride

> <PUBCHEM_IUPAC_NAME>
[1-(dimethylamino)-2-methylbutan-2-yl] benzoate hydrochloride

> <PUBCHEM_IUPAC_SYSTEMATIC_NAME>
[1-(dimethylamino)-2-methyl-butan-2-yl] benzoate hydrochloride

> <PUBCHEM_IUPAC_TRADITIONAL_NAME>
benzoic acid [1-[(dimethylamino)methyl]-1-methyl-propyl] ester hydrochloride

> <PUBCHEM_IUPAC_INCHI>
InChI=1S/C14H21NO2.ClH/c1-5-14(2,11-15(3)4)17-13(16)12-9-7-6-8-10-12;/h6-10H,5,11H2,1-4H3;1H

> <PUBCHEM_IUPAC_INCHIKEY>
YCAXNWFCHTZUMD-UHFFFAOYSA-N

> <PUBCHEM_EXACT_MASS>
271.133907

> <PUBCHEM_MOLECULAR_FORMULA>
C14H22ClNO2

> <PUBCHEM_MOLECULAR_WEIGHT>
271.78298

> <PUBCHEM_OPENEYE_CAN_SMILES>
CCC(C)(CN(C)C)OC(=O)C1=CC=CC=C1.Cl

> <PUBCHEM_OPENEYE_ISO_SMILES>
CCC(C)(CN(C)C)OC(=O)C1=CC=CC=C1.Cl

> <PUBCHEM_CACTVS_TPSA>
29.5

> <PUBCHEM_MONOISOTOPIC_WEIGHT>
271.133907

> <PUBCHEM_TOTAL_CHARGE>
0

> <PUBCHEM_HEAVY_ATOM_COUNT>
18

> <PUBCHEM_ATOM_DEF_STEREO_COUNT>
0

> <PUBCHEM_ATOM_UDEF_STEREO_COUNT>
1

> <PUBCHEM_BOND_DEF_STEREO_COUNT>
0

> <PUBCHEM_BOND_UDEF_STEREO_COUNT>
0

> <PUBCHEM_ISOTOPIC_ATOM_COUNT>
0

> <PUBCHEM_COMPONENT_COUNT>
2

> <PUBCHEM_CACTVS_TAUTO_COUNT>
1

> <PUBCHEM_COORDINATE_TYPE>
1
5
255

> <PUBCHEM_BONDANNOTATIONS>
13  14  8
13  15  8
14  16  8
15  17  8
16  18  8
17  18  8
5  8  3

$$$$

