440772
  -OEChem-07051212502D

 63 62  0     1  0  0  0  0  0999 V2000
    7.7331   -1.3450    0.0000 S   0  0  0  0  0  0  0  0  0  0  0  0
    6.8671   -0.8450    0.0000 O   0  0  0  0  0  0  0  0  0  0  0  0
    9.4651    1.6550    0.0000 O   0  0  0  0  0  0  0  0  0  0  0  0
   12.0632   -0.8450    0.0000 O   0  0  0  0  0  0  0  0  0  0  0  0
    2.5369    0.6550    0.0000 O   0  0  0  0  0  0  0  0  0  0  0  0
    3.4030   -0.8450    0.0000 O   0  0  0  0  0  0  0  0  0  0  0  0
   16.3933    0.6550    0.0000 N   0  0  0  0  0  0  0  0  0  0  0  0
    7.7331    0.6550    0.0000 N   0  0  0  0  0  0  0  0  0  0  0  0
   12.9292    0.6550    0.0000 N   0  0  0  0  0  0  0  0  0  0  0  0
   10.3312    0.1550    0.0000 N   0  0  0  0  0  0  0  0  0  0  0  0
    4.2690    1.6550    0.0000 N   0  0  0  0  0  0  0  0  0  0  0  0
   20.7235    0.1550    0.0000 N   0  0  0  0  0  0  0  0  0  0  0  0
   17.2594    0.1550    0.0000 C   0  0  0  0  0  0  0  0  0  0  0  0
   18.1254    0.6550    0.0000 C   0  0  0  0  0  0  0  0  0  0  0  0
   15.5273    0.1550    0.0000 C   0  0  0  0  0  0  0  0  0  0  0  0
   14.6613    0.6550    0.0000 C   0  0  0  0  0  0  0  0  0  0  0  0
   18.9914    0.1550    0.0000 C   0  0  0  0  0  0  0  0  0  0  0  0
   13.7953    0.1550    0.0000 C   0  0  0  0  0  0  0  0  0  0  0  0
    8.5991    0.1550    0.0000 C   0  0  2  0  0  0  0  0  0  0  0  0
    5.1350    0.1550    0.0000 C   0  0  0  0  0  0  0  0  0  0  0  0
    6.0010    0.6550    0.0000 C   0  0  0  0  0  0  0  0  0  0  0  0
    4.2690    0.6550    0.0000 C   0  0  1  0  0  0  0  0  0  0  0  0
   19.8574    0.6550    0.0000 C   0  0  0  0  0  0  0  0  0  0  0  0
    6.8671    0.1550    0.0000 C   0  0  0  0  0  0  0  0  0  0  0  0
    9.4651    0.6550    0.0000 C   0  0  0  0  0  0  0  0  0  0  0  0
    8.5991   -0.8450    0.0000 C   0  0  0  0  0  0  0  0  0  0  0  0
   11.1972    0.6550    0.0000 C   0  0  0  0  0  0  0  0  0  0  0  0
   12.0632    0.1550    0.0000 C   0  0  0  0  0  0  0  0  0  0  0  0
    3.4030    0.1550    0.0000 C   0  0  0  0  0  0  0  0  0  0  0  0
   16.8608   -0.3199    0.0000 H   0  0  0  0  0  0  0  0  0  0  0  0
   17.6579   -0.3199    0.0000 H   0  0  0  0  0  0  0  0  0  0  0  0
   18.5239    1.1300    0.0000 H   0  0  0  0  0  0  0  0  0  0  0  0
   17.7269    1.1300    0.0000 H   0  0  0  0  0  0  0  0  0  0  0  0
   15.1288   -0.3199    0.0000 H   0  0  0  0  0  0  0  0  0  0  0  0
   15.9258   -0.3199    0.0000 H   0  0  0  0  0  0  0  0  0  0  0  0
   15.0598    1.1300    0.0000 H   0  0  0  0  0  0  0  0  0  0  0  0
   14.2628    1.1300    0.0000 H   0  0  0  0  0  0  0  0  0  0  0  0
   16.3933    1.2750    0.0000 H   0  0  0  0  0  0  0  0  0  0  0  0
   18.5929   -0.3199    0.0000 H   0  0  0  0  0  0  0  0  0  0  0  0
   19.3899   -0.3199    0.0000 H   0  0  0  0  0  0  0  0  0  0  0  0
   13.3967   -0.3199    0.0000 H   0  0  0  0  0  0  0  0  0  0  0  0
   14.1938   -0.3199    0.0000 H   0  0  0  0  0  0  0  0  0  0  0  0
    8.5991    0.7750    0.0000 H   0  0  0  0  0  0  0  0  0  0  0  0
    4.7365   -0.3199    0.0000 H   0  0  0  0  0  0  0  0  0  0  0  0
    5.5335   -0.3199    0.0000 H   0  0  0  0  0  0  0  0  0  0  0  0
    6.3996    1.1300    0.0000 H   0  0  0  0  0  0  0  0  0  0  0  0
    5.6025    1.1300    0.0000 H   0  0  0  0  0  0  0  0  0  0  0  0
    4.8059    0.9650    0.0000 H   0  0  0  0  0  0  0  0  0  0  0  0
   20.2560    1.1300    0.0000 H   0  0  0  0  0  0  0  0  0  0  0  0
   19.4589    1.1300    0.0000 H   0  0  0  0  0  0  0  0  0  0  0  0
    7.7331    1.2750    0.0000 H   0  0  0  0  0  0  0  0  0  0  0  0
   12.9292    1.2750    0.0000 H   0  0  0  0  0  0  0  0  0  0  0  0
    8.8112   -1.4276    0.0000 H   0  0  0  0  0  0  0  0  0  0  0  0
    9.2097   -0.7373    0.0000 H   0  0  0  0  0  0  0  0  0  0  0  0
   11.5957    1.1300    0.0000 H   0  0  0  0  0  0  0  0  0  0  0  0
   10.7987    1.1300    0.0000 H   0  0  0  0  0  0  0  0  0  0  0  0
   10.3312   -0.4650    0.0000 H   0  0  0  0  0  0  0  0  0  0  0  0
    3.7320    1.9650    0.0000 H   0  0  0  0  0  0  0  0  0  0  0  0
    4.8059    1.9650    0.0000 H   0  0  0  0  0  0  0  0  0  0  0  0
   21.2604    0.4650    0.0000 H   0  0  0  0  0  0  0  0  0  0  0  0
   20.7235   -0.4650    0.0000 H   0  0  0  0  0  0  0  0  0  0  0  0
    7.7331   -1.9650    0.0000 H   0  0  0  0  0  0  0  0  0  0  0  0
    2.0000    0.3450    0.0000 H   0  0  0  0  0  0  0  0  0  0  0  0
  1 26  1  0  0  0  0
  1 62  1  0  0  0  0
  2 24  2  0  0  0  0
  3 25  2  0  0  0  0
  4 28  2  0  0  0  0
  5 29  1  0  0  0  0
  5 63  1  0  0  0  0
  6 29  2  0  0  0  0
  7 13  1  0  0  0  0
  7 15  1  0  0  0  0
  7 38  1  0  0  0  0
 19  8  1  6  0  0  0
  8 24  1  0  0  0  0
  8 51  1  0  0  0  0
  9 18  1  0  0  0  0
  9 28  1  0  0  0  0
  9 52  1  0  0  0  0
 10 25  1  0  0  0  0
 10 27  1  0  0  0  0
 10 57  1  0  0  0  0
 22 11  1  1  0  0  0
 11 58  1  0  0  0  0
 11 59  1  0  0  0  0
 12 23  1  0  0  0  0
 12 60  1  0  0  0  0
 12 61  1  0  0  0  0
 13 14  1  0  0  0  0
 13 30  1  0  0  0  0
 13 31  1  0  0  0  0
 14 17  1  0  0  0  0
 14 32  1  0  0  0  0
 14 33  1  0  0  0  0
 15 16  1  0  0  0  0
 15 34  1  0  0  0  0
 15 35  1  0  0  0  0
 16 18  1  0  0  0  0
 16 36  1  0  0  0  0
 16 37  1  0  0  0  0
 17 23  1  0  0  0  0
 17 39  1  0  0  0  0
 17 40  1  0  0  0  0
 18 41  1  0  0  0  0
 18 42  1  0  0  0  0
 19 25  1  0  0  0  0
 19 26  1  0  0  0  0
 19 43  1  0  0  0  0
 20 21  1  0  0  0  0
 20 22  1  0  0  0  0
 20 44  1  0  0  0  0
 20 45  1  0  0  0  0
 21 24  1  0  0  0  0
 21 46  1  0  0  0  0
 21 47  1  0  0  0  0
 22 29  1  0  0  0  0
 22 48  1  0  0  0  0
 23 49  1  0  0  0  0
 23 50  1  0  0  0  0
 26 53  1  0  0  0  0
 26 54  1  0  0  0  0
 27 28  1  0  0  0  0
 27 55  1  0  0  0  0
 27 56  1  0  0  0  0
M  END
> <PUBCHEM_COMPOUND_CID>
440772

> <PUBCHEM_COMPOUND_CANONICALIZED>
1

> <PUBCHEM_CACTVS_COMPLEXITY>
523

> <PUBCHEM_CACTVS_HBOND_ACCEPTOR>
9

> <PUBCHEM_CACTVS_HBOND_DONOR>
8

> <PUBCHEM_CACTVS_ROTATABLE_BOND>
17

> <PUBCHEM_CACTVS_SUBSKEYS>
AAADcfB7uABAAAAAAAAAAAAAAAAAAAAAAAAAAAAAAAAAAAAAAAAAHgQQCAAACCjFwASACALAAgQIAAGQGAAAAAAAAAAAAIGIAAACQBIAwCAUQAAEFgCAAACcFwIAAAAAAAAAAAAAAAAAAAAAAAAAAAAAAA==

> <PUBCHEM_IUPAC_OPENEYE_NAME>
(2S)-2-amino-5-[[(1R)-2-[[2-[3-(4-aminobutylamino)propylamino]-2-oxo-ethyl]amino]-2-oxo-1-(sulfanylmethyl)ethyl]amino]-5-oxo-pentanoic acid

> <PUBCHEM_IUPAC_CAS_NAME>
(2S)-2-amino-5-[[(2R)-1-[[2-[3-(4-aminobutylamino)propylamino]-2-oxoethyl]amino]-3-mercapto-1-oxopropan-2-yl]amino]-5-oxopentanoic acid

> <PUBCHEM_IUPAC_NAME>
(2S)-2-amino-5-[[(2R)-1-[[2-[3-(4-aminobutylamino)propylamino]-2-oxoethyl]amino]-1-oxo-3-sulfanylpropan-2-yl]amino]-5-oxopentanoic acid

> <PUBCHEM_IUPAC_SYSTEMATIC_NAME>
(2S)-2-azanyl-5-[[(2R)-1-[[2-[3-(4-azanylbutylamino)propylamino]-2-oxidanylidene-ethyl]amino]-1-oxidanylidene-3-sulfanyl-propan-2-yl]amino]-5-oxidanylidene-pentanoic acid

> <PUBCHEM_IUPAC_TRADITIONAL_NAME>
(2S)-2-amino-5-[[(1R)-2-[[2-[3-(4-aminobutylamino)propylamino]-2-keto-ethyl]amino]-2-keto-1-(mercaptomethyl)ethyl]amino]-5-keto-valeric acid

> <PUBCHEM_IUPAC_INCHI>
InChI=1S/C17H34N6O5S/c18-6-1-2-7-20-8-3-9-21-15(25)10-22-16(26)13(11-29)23-14(24)5-4-12(19)17(27)28/h12-13,20,29H,1-11,18-19H2,(H,21,25)(H,22,26)(H,23,24)(H,27,28)/t12-,13-/m0/s1

> <PUBCHEM_IUPAC_INCHIKEY>
NEDQLXHBVHSKNV-STQMWFEESA-N

> <PUBCHEM_XLOGP3_AA>
-5

> <PUBCHEM_EXACT_MASS>
434.231139

> <PUBCHEM_MOLECULAR_FORMULA>
C17H34N6O5S

> <PUBCHEM_MOLECULAR_WEIGHT>
434.55406

> <PUBCHEM_OPENEYE_CAN_SMILES>
C(CCNCCCNC(=O)CNC(=O)C(CS)NC(=O)CCC(C(=O)O)N)CN

> <PUBCHEM_OPENEYE_ISO_SMILES>
C(CCNCCCNC(=O)CNC(=O)[C@H](CS)NC(=O)CC[C@@H](C(=O)O)N)CN

> <PUBCHEM_CACTVS_TPSA>
190

> <PUBCHEM_MONOISOTOPIC_WEIGHT>
434.231139

> <PUBCHEM_TOTAL_CHARGE>
0

> <PUBCHEM_HEAVY_ATOM_COUNT>
29

> <PUBCHEM_ATOM_DEF_STEREO_COUNT>
2

> <PUBCHEM_ATOM_UDEF_STEREO_COUNT>
0

> <PUBCHEM_BOND_DEF_STEREO_COUNT>
0

> <PUBCHEM_BOND_UDEF_STEREO_COUNT>
0

> <PUBCHEM_ISOTOPIC_ATOM_COUNT>
0

> <PUBCHEM_COMPONENT_COUNT>
1

> <PUBCHEM_CACTVS_TAUTO_COUNT>
8

> <PUBCHEM_COORDINATE_TYPE>
1
5
255

> <PUBCHEM_BONDANNOTATIONS>
22  11  5
19  8  6

$$$$

