25271610
  -OEChem-07051213153D

 56 57  0     1  0  0  0  0  0999 V2000
    4.0088    1.8074    0.9368 P   0  0  0  0  0  0  0  0  0  0  0  0
   -0.7757   -0.5517   -0.5074 O   0  0  0  0  0  0  0  0  0  0  0  0
   -1.1683    1.4844    0.6347 O   0  0  0  0  0  0  0  0  0  0  0  0
    3.9015    0.5828   -0.1097 O   0  0  0  0  0  0  0  0  0  0  0  0
    1.5636    0.4434   -1.6565 O   0  0  0  0  0  0  0  0  0  0  0  0
   -0.0714   -3.3232   -0.4890 O   0  0  0  0  0  0  0  0  0  0  0  0
    2.5816   -3.8309   -1.4561 O   0  0  0  0  0  0  0  0  0  0  0  0
    4.5433   -2.2052   -0.1003 O   0  0  0  0  0  0  0  0  0  0  0  0
   -4.9258    0.6452   -0.8547 O   0  0  0  0  0  0  0  0  0  0  0  0
   -3.3472    2.7303   -2.0619 O   0  0  0  0  0  0  0  0  0  0  0  0
   -1.7708    4.1877    0.7922 O   0  0  0  0  0  0  0  0  0  0  0  0
    2.9201    2.8740    0.3963 O   0  0  0  0  0  0  0  0  0  0  0  0
    5.4224    2.4862    0.5419 O   0  0  0  0  0  0  0  0  0  0  0  0
    3.8706    1.4256    2.3816 O   0  0  0  0  0  0  0  0  0  0  0  0
   -3.6151   -1.8658    2.5873 O   0  0  0  0  0  0  0  0  0  0  0  0
   -3.3439   -1.4921    0.3055 N   0  0  0  0  0  0  0  0  0  0  0  0
    0.4994   -1.0202   -0.0699 C   0  0  2  0  0  0  0  0  0  0  0  0
    1.5460    0.0758   -0.2736 C   0  0  1  0  0  0  0  0  0  0  0  0
    0.8492   -2.2898   -0.8522 C   0  0  1  0  0  0  0  0  0  0  0  0
    2.9292   -0.4319    0.1377 C   0  0  1  0  0  0  0  0  0  0  0  0
    2.2618   -2.7868   -0.5317 C   0  0  2  0  0  0  0  0  0  0  0  0
    3.3242   -1.6889   -0.6424 C   0  0  2  0  0  0  0  0  0  0  0  0
   -1.4830    0.0924    0.5506 C   0  0  1  0  0  0  0  0  0  0  0  0
   -2.9936   -0.0919    0.3746 C   0  0  1  0  0  0  0  0  0  0  0  0
   -3.4969    0.6690   -0.8547 C   0  0  2  0  0  0  0  0  0  0  0  0
   -3.0293    2.1271   -0.8100 C   0  0  1  0  0  0  0  0  0  0  0  0
   -1.5229    2.2208   -0.5408 C   0  0  1  0  0  0  0  0  0  0  0  0
   -1.0693    3.6611   -0.3190 C   0  0  0  0  0  0  0  0  0  0  0  0
   -3.6250   -2.2586    1.4236 C   0  0  0  0  0  0  0  0  0  0  0  0
   -3.9838   -3.6763    1.0669 C   0  0  0  0  0  0  0  0  0  0  0  0
    0.4620   -1.2955    0.9930 H   0  0  0  0  0  0  0  0  0  0  0  0
    1.2809    0.9759    0.2834 H   0  0  0  0  0  0  0  0  0  0  0  0
    0.7111   -2.1442   -1.9292 H   0  0  0  0  0  0  0  0  0  0  0  0
    2.9387   -0.6625    1.2101 H   0  0  0  0  0  0  0  0  0  0  0  0
    2.2900   -3.2494    0.4624 H   0  0  0  0  0  0  0  0  0  0  0  0
    3.5489   -1.4547   -1.6888 H   0  0  0  0  0  0  0  0  0  0  0  0
   -1.2199   -0.3494    1.5196 H   0  0  0  0  0  0  0  0  0  0  0  0
   -3.4933    0.3282    1.2588 H   0  0  0  0  0  0  0  0  0  0  0  0
   -3.1733    0.1847   -1.7838 H   0  0  0  0  0  0  0  0  0  0  0  0
   -3.6004    2.6595   -0.0404 H   0  0  0  0  0  0  0  0  0  0  0  0
   -0.9591    1.8310   -1.3976 H   0  0  0  0  0  0  0  0  0  0  0  0
   -3.3291   -1.9416   -0.6058 H   0  0  0  0  0  0  0  0  0  0  0  0
    1.8078   -0.3237   -2.1972 H   0  0  0  0  0  0  0  0  0  0  0  0
   -0.0029   -3.4662    0.4704 H   0  0  0  0  0  0  0  0  0  0  0  0
   -1.2677    4.2839   -1.1965 H   0  0  0  0  0  0  0  0  0  0  0  0
    0.0004    3.6939   -0.0879 H   0  0  0  0  0  0  0  0  0  0  0  0
    2.5756   -3.4515   -2.3514 H   0  0  0  0  0  0  0  0  0  0  0  0
    4.3947   -2.4060    0.8395 H   0  0  0  0  0  0  0  0  0  0  0  0
   -5.2360    1.0634   -0.0335 H   0  0  0  0  0  0  0  0  0  0  0  0
   -2.8297    2.2811   -2.7519 H   0  0  0  0  0  0  0  0  0  0  0  0
   -1.4637    5.1016    0.9185 H   0  0  0  0  0  0  0  0  0  0  0  0
   -3.1912   -4.1210    0.4583 H   0  0  0  0  0  0  0  0  0  0  0  0
   -4.1014   -4.2681    1.9788 H   0  0  0  0  0  0  0  0  0  0  0  0
   -4.9238   -3.6882    0.5083 H   0  0  0  0  0  0  0  0  0  0  0  0
    2.7549    3.6890    0.9165 H   0  0  0  0  0  0  0  0  0  0  0  0
    5.7722    3.2129    1.1004 H   0  0  0  0  0  0  0  0  0  0  0  0
  1  4  1  0  0  0  0
  1 12  1  0  0  0  0
  1 13  1  0  0  0  0
  1 14  2  0  0  0  0
  2 17  1  0  0  0  0
  2 23  1  0  0  0  0
  3 23  1  0  0  0  0
  3 27  1  0  0  0  0
  4 20  1  0  0  0  0
  5 18  1  0  0  0  0
  5 43  1  0  0  0  0
  6 19  1  0  0  0  0
  6 44  1  0  0  0  0
  7 21  1  0  0  0  0
  7 47  1  0  0  0  0
  8 22  1  0  0  0  0
  8 48  1  0  0  0  0
  9 25  1  0  0  0  0
  9 49  1  0  0  0  0
 10 26  1  0  0  0  0
 10 50  1  0  0  0  0
 11 28  1  0  0  0  0
 11 51  1  0  0  0  0
 12 55  1  0  0  0  0
 13 56  1  0  0  0  0
 15 29  2  0  0  0  0
 16 24  1  0  0  0  0
 16 29  1  0  0  0  0
 16 42  1  0  0  0  0
 17 18  1  0  0  0  0
 17 19  1  0  0  0  0
 17 31  1  0  0  0  0
 18 20  1  0  0  0  0
 18 32  1  0  0  0  0
 19 21  1  0  0  0  0
 19 33  1  0  0  0  0
 20 22  1  0  0  0  0
 20 34  1  0  0  0  0
 21 22  1  0  0  0  0
 21 35  1  0  0  0  0
 22 36  1  0  0  0  0
 23 24  1  0  0  0  0
 23 37  1  0  0  0  0
 24 25  1  0  0  0  0
 24 38  1  0  0  0  0
 25 26  1  0  0  0  0
 25 39  1  0  0  0  0
 26 27  1  0  0  0  0
 26 40  1  0  0  0  0
 27 28  1  0  0  0  0
 27 41  1  0  0  0  0
 28 45  1  0  0  0  0
 28 46  1  0  0  0  0
 29 30  1  0  0  0  0
 30 52  1  0  0  0  0
 30 53  1  0  0  0  0
 30 54  1  0  0  0  0
M  END
> <PUBCHEM_COMPOUND_CID>
25271610

> <PUBCHEM_CONFORMER_RMSD>
1

> <PUBCHEM_CONFORMER_DIVERSEORDER>
1
20
16
39
13
8
51
6
29
53
15
42
36
55
14
57
56
30
2
23
31
49
37
44
9
54
58
34
33
28
47
46
59
21
25
18
10
48
7
35
3
52
40
45
19
12
50
17
41
11
38
32
22
43
5
27
24
26
4

> <PUBCHEM_MMFF94_PARTIAL_CHARGES>
40
1 1.51
10 -0.68
11 -0.68
12 -0.77
13 -0.77
14 -0.7
15 -0.57
16 -0.73
17 0.28
18 0.28
19 0.28
2 -0.56
20 0.28
21 0.28
22 0.28
23 0.56
24 0.3
25 0.28
26 0.28
27 0.28
28 0.28
29 0.57
3 -0.56
30 0.06
4 -0.55
42 0.37
43 0.4
44 0.4
47 0.4
48 0.4
49 0.4
5 -0.68
50 0.4
51 0.4
55 0.5
56 0.5
6 -0.68
7 -0.68
8 -0.68
9 -0.68

> <PUBCHEM_EFFECTIVE_ROTOR_COUNT>
9.4

> <PUBCHEM_PHARMACOPHORE_FEATURES>
24
1 10 acceptor
1 10 donor
1 11 acceptor
1 11 donor
1 12 acceptor
1 13 acceptor
1 14 acceptor
1 15 acceptor
1 16 donor
1 2 acceptor
1 3 acceptor
1 5 acceptor
1 5 donor
1 6 acceptor
1 6 donor
1 7 acceptor
1 7 donor
1 8 acceptor
1 8 donor
1 9 acceptor
1 9 donor
4 1 12 13 14 anion
6 17 18 19 20 21 22 rings
6 3 23 24 25 26 27 rings

> <PUBCHEM_HEAVY_ATOM_COUNT>
30

> <PUBCHEM_ATOM_DEF_STEREO_COUNT>
11

> <PUBCHEM_ATOM_UDEF_STEREO_COUNT>
0

> <PUBCHEM_BOND_DEF_STEREO_COUNT>
0

> <PUBCHEM_BOND_UDEF_STEREO_COUNT>
0

> <PUBCHEM_ISOTOPIC_ATOM_COUNT>
0

> <PUBCHEM_COMPONENT_COUNT>
1

> <PUBCHEM_CACTVS_TAUTO_COUNT>
2

> <PUBCHEM_CONFORMER_ID>
01819D3A00000001

> <PUBCHEM_MMFF94_ENERGY>
45.3459

> <PUBCHEM_FEATURE_SELFOVERLAP>
121.891

> <PUBCHEM_SHAPE_FINGERPRINT>
10366900 7 18337107994033229878
1100329 8 16755498137592313355
12403259 226 18409160030821358946
12403260 363 18191600833211529460
12553582 1 17982708819776906683
12596602 18 17417259715222732216
13034934 17 18263654969420930882
13140716 1 18411127052775748515
13583140 156 18408602595358312006
140371 6 18413102862444813309
14223421 5 18409444821248935078
14251764 38 18265062490824567080
15927050 60 16680055619266439941
19930381 70 18335712662333446116
20642791 268 17899948605455425635
20681677 76 18411138056328882498
21033648 29 18261684662181063680
21304303 282 17272888435505577655
23557571 272 18272364295861899789
23559900 14 18338523053135534372
3380486 145 18339911620673667107
350125 39 18335699498695929588
3886686 26 17697626594228248794
469060 322 17974585597405037655
5104073 3 18411976970652691018
6004065 56 18120659029350460795
6913067 236 18193564363357864675
9709674 26 18265612272091507415
9981440 41 18192174735062608593

> <PUBCHEM_SHAPE_MULTIPOLES>
534.08
9.39
5.23
1.54
3.18
0.21
0.5
0.11
2.12
-1.05
-0.14
-0.55
-0.11
4.01

> <PUBCHEM_SHAPE_SELFOVERLAP>
1080.457

> <PUBCHEM_SHAPE_VOLUME>
311.7

> <PUBCHEM_COORDINATE_TYPE>
2
5
10

$$$$

