13638
  -OEChem-06241222393D

 18 19  0     0  0  0  0  0  0999 V2000
   -1.6887    0.4252    0.0176 S   0  0  0  0  0  0  0  0  0  0  0  0
   -2.1024    0.7822    1.3579 O   0  0  0  0  0  0  0  0  0  0  0  0
   -2.1390    1.1270   -1.1648 O   0  0  0  0  0  0  0  0  0  0  0  0
   -1.8681   -1.2897   -0.2169 N   0  0  0  0  0  0  0  0  0  0  0  0
    0.0519    0.3739    0.0051 C   0  0  0  0  0  0  0  0  0  0  0  0
    0.5219   -0.9374    0.0021 C   0  0  0  0  0  0  0  0  0  0  0  0
   -0.5499   -1.9855    0.0059 C   0  0  0  0  0  0  0  0  0  0  0  0
    0.8774    1.4806   -0.0053 C   0  0  0  0  0  0  0  0  0  0  0  0
    1.8898   -1.1627    0.0064 C   0  0  0  0  0  0  0  0  0  0  0  0
    2.2518    1.2490   -0.0078 C   0  0  0  0  0  0  0  0  0  0  0  0
    2.7552   -0.0627    0.0000 C   0  0  0  0  0  0  0  0  0  0  0  0
   -0.3884   -2.7033   -0.8038 H   0  0  0  0  0  0  0  0  0  0  0  0
   -0.5816   -2.4993    0.9710 H   0  0  0  0  0  0  0  0  0  0  0  0
   -2.2934   -1.5578   -1.1151 H   0  0  0  0  0  0  0  0  0  0  0  0
    0.4828    2.4898   -0.0072 H   0  0  0  0  0  0  0  0  0  0  0  0
    2.2897   -2.1716    0.0107 H   0  0  0  0  0  0  0  0  0  0  0  0
    2.9416    2.0885   -0.0137 H   0  0  0  0  0  0  0  0  0  0  0  0
    3.8300   -0.2241    0.0001 H   0  0  0  0  0  0  0  0  0  0  0  0
  1  2  2  0  0  0  0
  1  3  2  0  0  0  0
  1  4  1  0  0  0  0
  1  5  1  0  0  0  0
  4  7  1  0  0  0  0
  4 14  1  0  0  0  0
  5  6  1  0  0  0  0
  5  8  2  0  0  0  0
  6  7  1  0  0  0  0
  6  9  2  0  0  0  0
  7 12  1  0  0  0  0
  7 13  1  0  0  0  0
  8 10  1  0  0  0  0
  8 15  1  0  0  0  0
  9 11  1  0  0  0  0
  9 16  1  0  0  0  0
 10 11  2  0  0  0  0
 10 17  1  0  0  0  0
 11 18  1  0  0  0  0
M  END
> <PUBCHEM_COMPOUND_CID>
13638

> <PUBCHEM_CONFORMER_RMSD>
0.4

> <PUBCHEM_CONFORMER_DIVERSEORDER>
1

> <PUBCHEM_MMFF94_PARTIAL_CHARGES>
16
1 1.45
10 -0.15
11 -0.15
14 0.42
15 0.15
16 0.15
17 0.15
18 0.15
2 -0.65
3 -0.65
4 -0.91
5 -0.01
6 -0.14
7 0.5
8 -0.15
9 -0.15

> <PUBCHEM_EFFECTIVE_ROTOR_COUNT>
0.4

> <PUBCHEM_PHARMACOPHORE_FEATURES>
5
1 2 acceptor
1 3 acceptor
1 4 donor
5 1 4 5 6 7 rings
6 5 6 8 9 10 11 rings

> <PUBCHEM_HEAVY_ATOM_COUNT>
11

> <PUBCHEM_ATOM_DEF_STEREO_COUNT>
0

> <PUBCHEM_ATOM_UDEF_STEREO_COUNT>
0

> <PUBCHEM_BOND_DEF_STEREO_COUNT>
0

> <PUBCHEM_BOND_UDEF_STEREO_COUNT>
0

> <PUBCHEM_ISOTOPIC_ATOM_COUNT>
0

> <PUBCHEM_COMPONENT_COUNT>
1

> <PUBCHEM_CACTVS_TAUTO_COUNT>
1

> <PUBCHEM_CONFORMER_ID>
0000354600000001

> <PUBCHEM_MMFF94_ENERGY>
17.3772

> <PUBCHEM_FEATURE_SELFOVERLAP>
25.448

> <PUBCHEM_SHAPE_FINGERPRINT>
11206711 2 18267586801706395478
12423570 1 13721788476423409365
12524768 44 18263359355675885430
15775835 57 18341888580391159852
16945 1 18337109093882279110
17844478 74 17917131858535525713
19973954 147 18337388215127227790
21040471 1 18411139112985639900
23552423 10 18271244902851785078
23559900 14 18261943112765885270
241688 4 18198626523191546313
2748010 2 18410291402374066510
369184 2 18202850937086135602
5084963 1 18339083679041968264
528886 8 18337113465890026232

> <PUBCHEM_SHAPE_MULTIPOLES>
213.5
3.48
1.84
0.82
0.53
0.44
-0.06
-0.61
0.01
-0.1
0.07
-0.46
-0.21
-0.01

> <PUBCHEM_SHAPE_SELFOVERLAP>
446.519

> <PUBCHEM_SHAPE_VOLUME>
121.7

> <PUBCHEM_COORDINATE_TYPE>
2
5
10

$$$$

