9664
  -OEChem-06261203553D

  6  5  0     0  0  0  0  0  0999 V2000
    2.1530    0.0080   -0.0001 Cl  0  0  0  0  0  0  0  0  0  0  0  0
   -1.7367    0.6191    0.0000 F   0  0  0  0  0  0  0  0  0  0  0  0
   -0.4747   -1.3438    0.0001 F   0  0  0  0  0  0  0  0  0  0  0  0
   -0.5348    0.0046   -0.0002 C   0  0  0  0  0  0  0  0  0  0  0  0
    0.5932    0.7121    0.0002 C   0  0  0  0  0  0  0  0  0  0  0  0
    0.6208    1.7933    0.0002 H   0  0  0  0  0  0  0  0  0  0  0  0
  1  5  1  0  0  0  0
  2  4  1  0  0  0  0
  3  4  1  0  0  0  0
  4  5  2  0  0  0  0
  5  6  1  0  0  0  0
M  END
> <PUBCHEM_COMPOUND_CID>
9664

> <PUBCHEM_CONFORMER_RMSD>
0.4

> <PUBCHEM_CONFORMER_DIVERSEORDER>
1

> <PUBCHEM_MMFF94_PARTIAL_CHARGES>
6
1 -0.14
2 -0.15
3 -0.15
4 0.3
5 -0.01
6 0.15

> <PUBCHEM_EFFECTIVE_ROTOR_COUNT>
0

> <PUBCHEM_PHARMACOPHORE_FEATURES>
0

> <PUBCHEM_HEAVY_ATOM_COUNT>
5

> <PUBCHEM_ATOM_DEF_STEREO_COUNT>
0

> <PUBCHEM_ATOM_UDEF_STEREO_COUNT>
0

> <PUBCHEM_BOND_DEF_STEREO_COUNT>
0

> <PUBCHEM_BOND_UDEF_STEREO_COUNT>
0

> <PUBCHEM_ISOTOPIC_ATOM_COUNT>
0

> <PUBCHEM_COMPONENT_COUNT>
1

> <PUBCHEM_CACTVS_TAUTO_COUNT>
1

> <PUBCHEM_CONFORMER_ID>
000025C000000001

> <PUBCHEM_MMFF94_ENERGY>
0.9413

> <PUBCHEM_FEATURE_SELFOVERLAP>
0

> <PUBCHEM_SHAPE_FINGERPRINT>
139733 1 9294474705286683842
16714656 1 18343016722539962852
20096714 4 18413388735066471632
21015797 1 9652992448691386697
21040471 1 18410575123439227300
5460574 1 9295289439086922976
5943 1 10496139067802141367

> <PUBCHEM_SHAPE_MULTIPOLES>
90.22
2.31
1.01
0.58
0.79
0.25
0
-0.18
0
-0.19
0
0.08
-0.02
0

> <PUBCHEM_SHAPE_SELFOVERLAP>
154.32

> <PUBCHEM_SHAPE_VOLUME>
60.9

> <PUBCHEM_COORDINATE_TYPE>
2
5
10

$$$$

