6193
  -OEChem-06261201102D

 75 78  0     1  0  0  0  0  0999 V2000
    9.5179    2.1125    0.0000 N   0  3  0  0  0  0  0  0  0  0  0  0
    2.8680   -2.1951    0.0000 N   0  3  0  0  0  0  0  0  0  0  0  0
    8.2610    0.8573    0.0000 C   0  0  1  0  0  0  0  0  0  0  0  0
    8.2610   -0.1427    0.0000 C   0  0  3  0  0  0  0  0  0  0  0  0
    7.3950   -0.6427    0.0000 C   0  0  1  0  0  0  0  0  0  0  0  0
    6.5290   -0.1427    0.0000 C   0  0  3  0  0  0  0  0  0  0  0  0
    5.6190   -0.6496    0.0000 C   0  0  2  0  0  0  0  0  0  0  0  0
    9.2072    1.1620    0.0000 C   0  0  1  0  0  0  0  0  0  0  0  0
    5.6110   -1.6912    0.0000 C   0  0  1  0  0  0  0  0  0  0  0  0
    7.3950    1.3572    0.0000 C   0  0  0  0  0  0  0  0  0  0  0  0
    6.5290    0.8573    0.0000 C   0  0  0  0  0  0  0  0  0  0  0  0
    9.2072   -0.4475    0.0000 C   0  0  0  0  0  0  0  0  0  0  0  0
    7.4111   -1.6842    0.0000 C   0  0  0  0  0  0  0  0  0  0  0  0
    9.7909    0.3573    0.0000 C   0  0  0  0  0  0  0  0  0  0  0  0
    6.5130   -2.2120    0.0000 C   0  0  0  0  0  0  0  0  0  0  0  0
    4.6921   -0.0855    0.0000 C   0  0  0  0  0  0  0  0  0  0  0  0
    4.6755   -2.2409    0.0000 C   0  0  0  0  0  0  0  0  0  0  0  0
    8.2610    1.8572    0.0000 C   0  0  0  0  0  0  0  0  0  0  0  0
    3.7359   -1.6984    0.0000 C   0  0  1  0  0  0  0  0  0  0  0  0
    5.6267    0.3504    0.0000 C   0  0  0  0  0  0  0  0  0  0  0  0
    3.7443   -0.6135    0.0000 C   0  0  0  0  0  0  0  0  0  0  0  0
    9.8286    3.0630    0.0000 C   0  0  0  0  0  0  0  0  0  0  0  0
   10.4684    1.8018    0.0000 C   0  0  0  0  0  0  0  0  0  0  0  0
    8.5674    2.4232    0.0000 C   0  0  0  0  0  0  0  0  0  0  0  0
    2.0000   -2.6917    0.0000 C   0  0  0  0  0  0  0  0  0  0  0  0
    2.3713   -1.3271    0.0000 C   0  0  0  0  0  0  0  0  0  0  0  0
    3.3646   -3.0630    0.0000 C   0  0  0  0  0  0  0  0  0  0  0  0
    8.3510   -0.9880    0.0000 H   0  0  0  0  0  0  0  0  0  0  0  0
    8.1344   -1.0621    0.0000 H   0  0  0  0  0  0  0  0  0  0  0  0
    7.2651    0.2823    0.0000 H   0  0  0  0  0  0  0  0  0  0  0  0
    9.8197    1.2582    0.0000 H   0  0  0  0  0  0  0  0  0  0  0  0
    5.6142   -2.5412    0.0000 H   0  0  0  0  0  0  0  0  0  0  0  0
    7.7935    1.8322    0.0000 H   0  0  0  0  0  0  0  0  0  0  0  0
    6.9965    1.8322    0.0000 H   0  0  0  0  0  0  0  0  0  0  0  0
    6.3169    1.4399    0.0000 H   0  0  0  0  0  0  0  0  0  0  0  0
    5.9184    0.7496    0.0000 H   0  0  0  0  0  0  0  0  0  0  0  0
    8.9562   -1.0144    0.0000 H   0  0  0  0  0  0  0  0  0  0  0  0
    9.7446   -0.7567    0.0000 H   0  0  0  0  0  0  0  0  0  0  0  0
    7.6291   -2.2646    0.0000 H   0  0  0  0  0  0  0  0  0  0  0  0
    8.0202   -1.5688    0.0000 H   0  0  0  0  0  0  0  0  0  0  0  0
   10.2517   -0.0575    0.0000 H   0  0  0  0  0  0  0  0  0  0  0  0
   10.2517    0.7720    0.0000 H   0  0  0  0  0  0  0  0  0  0  0  0
    6.1157   -2.6880    0.0000 H   0  0  0  0  0  0  0  0  0  0  0  0
    6.9140   -2.6849    0.0000 H   0  0  0  0  0  0  0  0  0  0  0  0
    5.1004    0.3811    0.0000 H   0  0  0  0  0  0  0  0  0  0  0  0
    4.3022    0.3965    0.0000 H   0  0  0  0  0  0  0  0  0  0  0  0
    4.2782   -2.7169    0.0000 H   0  0  0  0  0  0  0  0  0  0  0  0
    5.0765   -2.7138    0.0000 H   0  0  0  0  0  0  0  0  0  0  0  0
    8.8810    1.8572    0.0000 H   0  0  0  0  0  0  0  0  0  0  0  0
    8.2610    2.4772    0.0000 H   0  0  0  0  0  0  0  0  0  0  0  0
    7.6410    1.8572    0.0000 H   0  0  0  0  0  0  0  0  0  0  0  0
    3.7347   -2.3184    0.0000 H   0  0  0  0  0  0  0  0  0  0  0  0
    6.2467    0.3456    0.0000 H   0  0  0  0  0  0  0  0  0  0  0  0
    5.6315    0.9704    0.0000 H   0  0  0  0  0  0  0  0  0  0  0  0
    5.0067    0.3552    0.0000 H   0  0  0  0  0  0  0  0  0  0  0  0
    3.5397   -0.0282    0.0000 H   0  0  0  0  0  0  0  0  0  0  0  0
    3.1326   -0.7148    0.0000 H   0  0  0  0  0  0  0  0  0  0  0  0
    8.7600    3.0125    0.0000 H   0  0  0  0  0  0  0  0  0  0  0  0
    7.9781    2.6158    0.0000 H   0  0  0  0  0  0  0  0  0  0  0  0
    8.3748    1.8338    0.0000 H   0  0  0  0  0  0  0  0  0  0  0  0
   10.2758    1.2125    0.0000 H   0  0  0  0  0  0  0  0  0  0  0  0
   11.0578    1.6092    0.0000 H   0  0  0  0  0  0  0  0  0  0  0  0
   10.6610    2.3912    0.0000 H   0  0  0  0  0  0  0  0  0  0  0  0
   10.4179    2.8704    0.0000 H   0  0  0  0  0  0  0  0  0  0  0  0
   10.0212    3.6524    0.0000 H   0  0  0  0  0  0  0  0  0  0  0  0
    9.2392    3.2556    0.0000 H   0  0  0  0  0  0  0  0  0  0  0  0
    1.6921   -2.1536    0.0000 H   0  0  0  0  0  0  0  0  0  0  0  0
    1.4619   -2.9997    0.0000 H   0  0  0  0  0  0  0  0  0  0  0  0
    2.3079   -3.2299    0.0000 H   0  0  0  0  0  0  0  0  0  0  0  0
    2.9094   -1.0192    0.0000 H   0  0  0  0  0  0  0  0  0  0  0  0
    2.0634   -0.7890    0.0000 H   0  0  0  0  0  0  0  0  0  0  0  0
    1.8332   -1.6351    0.0000 H   0  0  0  0  0  0  0  0  0  0  0  0
    2.8265   -3.3710    0.0000 H   0  0  0  0  0  0  0  0  0  0  0  0
    3.6725   -3.6012    0.0000 H   0  0  0  0  0  0  0  0  0  0  0  0
    3.9027   -2.7551    0.0000 H   0  0  0  0  0  0  0  0  0  0  0  0
  8  1  1  6  0  0  0
  1 22  1  0  0  0  0
  1 23  1  0  0  0  0
  1 24  1  0  0  0  0
 19  2  1  6  0  0  0
  2 25  1  0  0  0  0
  2 26  1  0  0  0  0
  2 27  1  0  0  0  0
  3  4  1  0  0  0  0
  3  8  1  0  0  0  0
  3 10  1  0  0  0  0
  3 18  1  1  0  0  0
  4  5  1  0  0  0  0
  4 12  1  0  0  0  0
  4 28  1  0  0  0  0
  5  6  1  0  0  0  0
  5 13  1  0  0  0  0
  5 29  1  1  0  0  0
  6  7  1  0  0  0  0
  6 11  1  0  0  0  0
  6 30  1  0  0  0  0
  7  9  1  0  0  0  0
  7 16  1  0  0  0  0
  7 20  1  1  0  0  0
  8 14  1  0  0  0  0
  8 31  1  0  0  0  0
  9 15  1  0  0  0  0
  9 17  1  0  0  0  0
  9 32  1  6  0  0  0
 10 11  1  0  0  0  0
 10 33  1  0  0  0  0
 10 34  1  0  0  0  0
 11 35  1  0  0  0  0
 11 36  1  0  0  0  0
 12 14  1  0  0  0  0
 12 37  1  0  0  0  0
 12 38  1  0  0  0  0
 13 15  1  0  0  0  0
 13 39  1  0  0  0  0
 13 40  1  0  0  0  0
 14 41  1  0  0  0  0
 14 42  1  0  0  0  0
 15 43  1  0  0  0  0
 15 44  1  0  0  0  0
 16 21  1  0  0  0  0
 16 45  1  0  0  0  0
 16 46  1  0  0  0  0
 17 19  1  0  0  0  0
 17 47  1  0  0  0  0
 17 48  1  0  0  0  0
 18 49  1  0  0  0  0
 18 50  1  0  0  0  0
 18 51  1  0  0  0  0
 19 21  1  0  0  0  0
 19 52  1  0  0  0  0
 20 53  1  0  0  0  0
 20 54  1  0  0  0  0
 20 55  1  0  0  0  0
 21 56  1  0  0  0  0
 21 57  1  0  0  0  0
 22 64  1  0  0  0  0
 22 65  1  0  0  0  0
 22 66  1  0  0  0  0
 23 61  1  0  0  0  0
 23 62  1  0  0  0  0
 23 63  1  0  0  0  0
 24 58  1  0  0  0  0
 24 59  1  0  0  0  0
 24 60  1  0  0  0  0
 25 67  1  0  0  0  0
 25 68  1  0  0  0  0
 25 69  1  0  0  0  0
 26 70  1  0  0  0  0
 26 71  1  0  0  0  0
 26 72  1  0  0  0  0
 27 73  1  0  0  0  0
 27 74  1  0  0  0  0
 27 75  1  0  0  0  0
M  CHG  2   1   1   2   1
M  END
> <PUBCHEM_COMPOUND_CID>
6193

> <PUBCHEM_COMPOUND_CANONICALIZED>
1

> <PUBCHEM_CACTVS_COMPLEXITY>
570

> <PUBCHEM_CACTVS_HBOND_ACCEPTOR>
0

> <PUBCHEM_CACTVS_HBOND_DONOR>
0

> <PUBCHEM_CACTVS_ROTATABLE_BOND>
2

> <PUBCHEM_CACTVS_SUBSKEYS>
AAADcfB7AAAAAAAAAAAAAAAAAAAAAYAAAAAwYMAAAAAAAGDAAAAAHAAAAAAADyjBAAQCAAMAAAAAAAAAAAAAAAAAAAAAAAAIAAAAAAIAgAAEAAAAAAAAAAEQgMAPgAAAAAAAAACQAASAACAAACAACQAAAA==

> <PUBCHEM_IUPAC_OPENEYE_NAME>
[(3R,5S,8R,10S,13S,17R)-10,13-dimethyl-3-(trimethylammonio)-2,3,4,5,6,7,8,9,11,12,14,15,16,17-tetradecahydro-1H-cyclopenta[a]phenanthren-17-yl]-trimethyl-ammonium

> <PUBCHEM_IUPAC_CAS_NAME>
[(3R,5S,8R,10S,13S,17R)-10,13-dimethyl-3-(trimethylammonio)-2,3,4,5,6,7,8,9,11,12,14,15,16,17-tetradecahydro-1H-cyclopenta[a]phenanthren-17-yl]-trimethylammonium

> <PUBCHEM_IUPAC_NAME>
[(3R,5S,8R,10S,13S,17R)-10,13-dimethyl-3-(trimethylazaniumyl)-2,3,4,5,6,7,8,9,11,12,14,15,16,17-tetradecahydro-1H-cyclopenta[a]phenanthren-17-yl]-trimethylazanium

> <PUBCHEM_IUPAC_SYSTEMATIC_NAME>
[(3R,5S,8R,10S,13S,17R)-10,13-dimethyl-3-(trimethylazaniumyl)-2,3,4,5,6,7,8,9,11,12,14,15,16,17-tetradecahydro-1H-cyclopenta[a]phenanthren-17-yl]-trimethyl-azanium

> <PUBCHEM_IUPAC_TRADITIONAL_NAME>
[(3R,5S,8R,10S,13S,17R)-10,13-dimethyl-3-(trimethylammonio)-2,3,4,5,6,7,8,9,11,12,14,15,16,17-tetradecahydro-1H-cyclopenta[a]phenanthren-17-yl]-trimethyl-ammonium

> <PUBCHEM_IUPAC_INCHI>
InChI=1S/C25H48N2/c1-24-15-13-19(26(3,4)5)17-18(24)9-10-20-21-11-12-23(27(6,7)8)25(21,2)16-14-22(20)24/h18-23H,9-17H2,1-8H3/q+2/t18-,19+,20-,21?,22?,23+,24-,25-/m0/s1

> <PUBCHEM_IUPAC_INCHIKEY>
NUVCEIRFHNIQFJ-SDWGFMLGSA-N

> <PUBCHEM_XLOGP3>
5.6

> <PUBCHEM_EXACT_MASS>
376.38175

> <PUBCHEM_MOLECULAR_FORMULA>
C25H48N2+2

> <PUBCHEM_MOLECULAR_WEIGHT>
376.66202

> <PUBCHEM_OPENEYE_CAN_SMILES>
CC12CCC(CC1CCC3C2CCC4(C3CCC4[N+](C)(C)C)C)[N+](C)(C)C

> <PUBCHEM_OPENEYE_ISO_SMILES>
C[C@]12CC[C@H](C[C@@H]1CC[C@@H]3C2CC[C@]4(C3CC[C@H]4[N+](C)(C)C)C)[N+](C)(C)C

> <PUBCHEM_CACTVS_TPSA>
0

> <PUBCHEM_MONOISOTOPIC_WEIGHT>
376.38175

> <PUBCHEM_TOTAL_CHARGE>
2

> <PUBCHEM_HEAVY_ATOM_COUNT>
27

> <PUBCHEM_ATOM_DEF_STEREO_COUNT>
6

> <PUBCHEM_ATOM_UDEF_STEREO_COUNT>
2

> <PUBCHEM_BOND_DEF_STEREO_COUNT>
0

> <PUBCHEM_BOND_UDEF_STEREO_COUNT>
0

> <PUBCHEM_ISOTOPIC_ATOM_COUNT>
0

> <PUBCHEM_COMPONENT_COUNT>
1

> <PUBCHEM_CACTVS_TAUTO_COUNT>
1

> <PUBCHEM_COORDINATE_TYPE>
1
5
255

> <PUBCHEM_BONDANNOTATIONS>
8  1  6
19  2  6
3  18  5
4  28  3
5  29  5
6  30  3
7  20  5
9  32  6

$$$$

