13519
  -OEChem-06241222393D

 19 18  0     1  0  0  0  0  0999 V2000
    0.3257   -1.7263    0.6311 O   0  0  0  0  0  0  0  0  0  0  0  0
    0.0109   -0.4674    0.0129 C   0  0  2  0  0  0  0  0  0  0  0  0
   -1.4329   -0.1079    0.4324 C   0  0  0  0  0  0  0  0  0  0  0  0
    0.1143   -0.6831   -1.5034 C   0  0  0  0  0  0  0  0  0  0  0  0
   -1.9442    1.2328   -0.0791 C   0  0  0  0  0  0  0  0  0  0  0  0
    0.9971    0.5277    0.5842 C   0  0  0  0  0  0  0  0  0  0  0  0
    1.9291    1.2241   -0.0781 C   0  0  0  0  0  0  0  0  0  0  0  0
   -1.5111   -0.1154    1.5283 H   0  0  0  0  0  0  0  0  0  0  0  0
   -2.1140   -0.9015    0.0972 H   0  0  0  0  0  0  0  0  0  0  0  0
    1.0985   -1.0812   -1.7780 H   0  0  0  0  0  0  0  0  0  0  0  0
   -0.6151   -1.4314   -1.8354 H   0  0  0  0  0  0  0  0  0  0  0  0
   -0.0579    0.2369   -2.0706 H   0  0  0  0  0  0  0  0  0  0  0  0
   -2.9662    1.4006    0.2766 H   0  0  0  0  0  0  0  0  0  0  0  0
   -1.9666    1.2628   -1.1721 H   0  0  0  0  0  0  0  0  0  0  0  0
   -1.3289    2.0634    0.2792 H   0  0  0  0  0  0  0  0  0  0  0  0
    0.9448    0.6824    1.6614 H   0  0  0  0  0  0  0  0  0  0  0  0
    0.2043   -1.6367    1.5920 H   0  0  0  0  0  0  0  0  0  0  0  0
    2.5809    1.9060    0.4580 H   0  0  0  0  0  0  0  0  0  0  0  0
    2.0686    1.1401   -1.1489 H   0  0  0  0  0  0  0  0  0  0  0  0
  1  2  1  0  0  0  0
  1 17  1  0  0  0  0
  2  3  1  0  0  0  0
  2  4  1  0  0  0  0
  2  6  1  0  0  0  0
  3  5  1  0  0  0  0
  3  8  1  0  0  0  0
  3  9  1  0  0  0  0
  4 10  1  0  0  0  0
  4 11  1  0  0  0  0
  4 12  1  0  0  0  0
  5 13  1  0  0  0  0
  5 14  1  0  0  0  0
  5 15  1  0  0  0  0
  6  7  2  0  0  0  0
  6 16  1  0  0  0  0
  7 18  1  0  0  0  0
  7 19  1  0  0  0  0
M  END
> <PUBCHEM_COMPOUND_CID>
13519

> <PUBCHEM_CONFORMER_RMSD>
0.4

> <PUBCHEM_CONFORMER_DIVERSEORDER>
1
6
7
3
2
4
5

> <PUBCHEM_MMFF94_PARTIAL_CHARGES>
8
1 -0.68
16 0.15
17 0.4
18 0.15
19 0.15
2 0.42
6 -0.29
7 -0.3

> <PUBCHEM_EFFECTIVE_ROTOR_COUNT>
2

> <PUBCHEM_PHARMACOPHORE_FEATURES>
4
1 1 acceptor
1 1 donor
1 5 hydrophobe
1 7 hydrophobe

> <PUBCHEM_HEAVY_ATOM_COUNT>
7

> <PUBCHEM_ATOM_DEF_STEREO_COUNT>
0

> <PUBCHEM_ATOM_UDEF_STEREO_COUNT>
1

> <PUBCHEM_BOND_DEF_STEREO_COUNT>
0

> <PUBCHEM_BOND_UDEF_STEREO_COUNT>
0

> <PUBCHEM_ISOTOPIC_ATOM_COUNT>
0

> <PUBCHEM_COMPONENT_COUNT>
1

> <PUBCHEM_CACTVS_TAUTO_COUNT>
1

> <PUBCHEM_CONFORMER_ID>
000034CF00000001

> <PUBCHEM_MMFF94_ENERGY>
10.2142

> <PUBCHEM_FEATURE_SELFOVERLAP>
20.297

> <PUBCHEM_SHAPE_FINGERPRINT>
137420 1 11228994315237920435
16714656 1 17972311811442442541
20096714 4 18408608058371777657
21040471 1 18410858720145710560
24536 1 17836666123213266712
5084963 1 18261952955475497817
5943 1 8132727171524754670

> <PUBCHEM_SHAPE_MULTIPOLES>
138.19
2.19
1.51
1.06
0.12
0.15
-0.32
-1.33
0.03
-0.05
0.04
-0.05
0.34
0.05

> <PUBCHEM_SHAPE_SELFOVERLAP>
249.357

> <PUBCHEM_SHAPE_VOLUME>
90.1

> <PUBCHEM_COORDINATE_TYPE>
2
5
10

$$$$

