11709249
  -OEChem-07051213123D

 40 41  0     0  0  0  0  0  0999 V2000
    1.8576    1.6467    1.4504 Cl  0  0  0  0  0  0  0  0  0  0  0  0
   -0.5636   -0.7499    1.5333 O   0  0  0  0  0  0  0  0  0  0  0  0
   -1.1412   -1.6503   -0.5256 N   0  0  0  0  0  0  0  0  0  0  0  0
    1.0614   -1.6348    0.1309 N   0  0  0  0  0  0  0  0  0  0  0  0
   -2.5619   -1.4115   -0.4250 C   0  0  0  0  0  0  0  0  0  0  0  0
   -2.8877    0.0825   -0.2973 C   0  0  0  0  0  0  0  0  0  0  0  0
   -3.0730   -2.1742    0.8112 C   0  0  0  0  0  0  0  0  0  0  0  0
   -3.2195   -1.9929   -1.6903 C   0  0  0  0  0  0  0  0  0  0  0  0
   -4.0079    0.4501    0.4083 C   0  0  0  0  0  0  0  0  0  0  0  0
   -2.0460    0.9893   -0.8943 C   0  0  0  0  0  0  0  0  0  0  0  0
   -0.2434   -1.2947    0.4777 C   0  0  0  0  0  0  0  0  0  0  0  0
    2.1982   -1.3817    0.9858 C   0  0  0  0  0  0  0  0  0  0  0  0
   -4.3044    1.8082    0.5240 C   0  0  0  0  0  0  0  0  0  0  0  0
   -2.3423    2.3475   -0.7785 C   0  0  0  0  0  0  0  0  0  0  0  0
   -3.4716    2.7568   -0.0693 C   0  0  0  0  0  0  0  0  0  0  0  0
    3.1914   -0.4539    0.3383 C   0  0  0  0  0  0  0  0  0  0  0  0
    3.1040    0.9228    0.5008 C   0  0  0  0  0  0  0  0  0  0  0  0
    4.2032   -1.0166   -0.4304 C   0  0  0  0  0  0  0  0  0  0  0  0
    4.0428    1.7506   -0.1151 C   0  0  0  0  0  0  0  0  0  0  0  0
    5.1420   -0.1887   -1.0463 C   0  0  0  0  0  0  0  0  0  0  0  0
    5.0618    1.1947   -0.8886 C   0  0  0  0  0  0  0  0  0  0  0  0
   -2.6567   -3.1901    0.8363 H   0  0  0  0  0  0  0  0  0  0  0  0
   -2.8081   -1.6995    1.7622 H   0  0  0  0  0  0  0  0  0  0  0  0
   -4.1619   -2.3025    0.7976 H   0  0  0  0  0  0  0  0  0  0  0  0
   -3.0101   -3.0645   -1.7905 H   0  0  0  0  0  0  0  0  0  0  0  0
   -2.8460   -1.5009   -2.5967 H   0  0  0  0  0  0  0  0  0  0  0  0
   -4.3079   -1.8637   -1.6722 H   0  0  0  0  0  0  0  0  0  0  0  0
   -0.7701   -2.0823   -1.3669 H   0  0  0  0  0  0  0  0  0  0  0  0
   -4.6971   -0.2504    0.8632 H   0  0  0  0  0  0  0  0  0  0  0  0
   -1.1742    0.6992   -1.4713 H   0  0  0  0  0  0  0  0  0  0  0  0
    1.2215   -2.1003   -0.7573 H   0  0  0  0  0  0  0  0  0  0  0  0
    2.6678   -2.3559    1.1709 H   0  0  0  0  0  0  0  0  0  0  0  0
    1.8801   -1.0248    1.9705 H   0  0  0  0  0  0  0  0  0  0  0  0
   -5.1870    2.1274    1.0707 H   0  0  0  0  0  0  0  0  0  0  0  0
   -1.6969    3.0861   -1.2448 H   0  0  0  0  0  0  0  0  0  0  0  0
   -3.7038    3.8141    0.0186 H   0  0  0  0  0  0  0  0  0  0  0  0
    4.2766   -2.0924   -0.5641 H   0  0  0  0  0  0  0  0  0  0  0  0
    3.9943    2.8307   -0.0022 H   0  0  0  0  0  0  0  0  0  0  0  0
    5.9350   -0.6214   -1.6492 H   0  0  0  0  0  0  0  0  0  0  0  0
    5.7927    1.8391   -1.3684 H   0  0  0  0  0  0  0  0  0  0  0  0
  1 17  1  0  0  0  0
  2 11  2  0  0  0  0
  3  5  1  0  0  0  0
  3 11  1  0  0  0  0
  3 28  1  0  0  0  0
  4 11  1  0  0  0  0
  4 12  1  0  0  0  0
  4 31  1  0  0  0  0
  5  6  1  0  0  0  0
  5  7  1  0  0  0  0
  5  8  1  0  0  0  0
  6  9  2  0  0  0  0
  6 10  1  0  0  0  0
  7 22  1  0  0  0  0
  7 23  1  0  0  0  0
  7 24  1  0  0  0  0
  8 25  1  0  0  0  0
  8 26  1  0  0  0  0
  8 27  1  0  0  0  0
  9 13  1  0  0  0  0
  9 29  1  0  0  0  0
 10 14  2  0  0  0  0
 10 30  1  0  0  0  0
 12 16  1  0  0  0  0
 12 32  1  0  0  0  0
 12 33  1  0  0  0  0
 13 15  2  0  0  0  0
 13 34  1  0  0  0  0
 14 15  1  0  0  0  0
 14 35  1  0  0  0  0
 15 36  1  0  0  0  0
 16 17  1  0  0  0  0
 16 18  2  0  0  0  0
 17 19  2  0  0  0  0
 18 20  1  0  0  0  0
 18 37  1  0  0  0  0
 19 21  1  0  0  0  0
 19 38  1  0  0  0  0
 20 21  2  0  0  0  0
 20 39  1  0  0  0  0
 21 40  1  0  0  0  0
M  END
> <PUBCHEM_COMPOUND_CID>
11709249

> <PUBCHEM_CONFORMER_RMSD>
0.8

> <PUBCHEM_CONFORMER_DIVERSEORDER>
2
116
43
84
38
65
62
51
91
118
24
90
83
77
49
117
82
37
1
75
35
74
4
108
96
57
73
92
40
56
105
94
97
58
53
29
17
39
67
44
70
22
64
76
106
85
112
26
59
63
25
93
16
54
81
7
100
34
95
115
41
102
27
21
98
87
32
78
20
42
69
113
110
80
18
89
31
79
3
48
14
23
114
99
13
52
107
45
28
5
15
111
72
30
103
71
46
19
11
68
104
55
47
6
61
101
66
36
50
60
88
33
86
12
9
109
8
10

> <PUBCHEM_MMFF94_PARTIAL_CHARGES>
30
1 -0.18
10 -0.15
11 0.69
12 0.44
13 -0.15
14 -0.15
15 -0.15
16 -0.14
17 0.18
18 -0.15
19 -0.15
2 -0.57
20 -0.15
21 -0.15
28 0.37
29 0.15
3 -0.73
30 0.15
31 0.37
34 0.15
35 0.15
36 0.15
37 0.15
38 0.15
39 0.15
4 -0.73
40 0.15
5 0.44
6 -0.14
9 -0.15

> <PUBCHEM_EFFECTIVE_ROTOR_COUNT>
6

> <PUBCHEM_PHARMACOPHORE_FEATURES>
6
1 2 acceptor
1 3 donor
1 4 donor
3 5 7 8 hydrophobe
6 16 17 18 19 20 21 rings
6 6 9 10 13 14 15 rings

> <PUBCHEM_HEAVY_ATOM_COUNT>
21

> <PUBCHEM_ATOM_DEF_STEREO_COUNT>
0

> <PUBCHEM_ATOM_UDEF_STEREO_COUNT>
0

> <PUBCHEM_BOND_DEF_STEREO_COUNT>
0

> <PUBCHEM_BOND_UDEF_STEREO_COUNT>
0

> <PUBCHEM_ISOTOPIC_ATOM_COUNT>
0

> <PUBCHEM_COMPONENT_COUNT>
1

> <PUBCHEM_CACTVS_TAUTO_COUNT>
3

> <PUBCHEM_CONFORMER_ID>
00B2AB4100000002

> <PUBCHEM_MMFF94_ENERGY>
59.9296

> <PUBCHEM_FEATURE_SELFOVERLAP>
30.497

> <PUBCHEM_SHAPE_FINGERPRINT>
10366900 7 18341900640780977715
10498660 4 18201733824740604492
10646746 165 18411982460121671294
10670039 82 18272086063928629916
10759866 29 18200874097189890200
11615756 256 18342178881736744716
12173636 292 18336841839532093583
12596602 18 16128366052266728880
12633257 1 18269005347815663954
13224815 77 18130514067194946768
13944108 23 17040637764910099477
14251751 93 18342178894511123716
14251757 17 18187919633995889012
14251757 5 18188203320580811160
14251764 75 17978505661554626697
1454969 45 18335424600079144261
15183329 4 17775570849789773278
15210252 30 18272363149597112892
15575132 122 18131072684049184677
16994733 274 15983729756811157367
18186145 218 17530966835052534946
18785283 64 17831293170866519015
19862831 5 17821445768354332306
19930381 70 17403175894155737169
21652331 79 18344147003207984749
21864079 5 18343589555160254792
221357 26 18261394399431674374
22182937 141 18410290345917600377
22393880 68 18187365411616388806
23227448 37 18412261748727965245
23402655 69 18407755937556297540
23557571 272 18335130956426297607
23559900 14 17969786474311357254
2637199 183 18271522087298423050
312423 11 18200611270508193251
44062 13 18040997340920634726
46194498 28 17968933064319581188
469060 322 14332832743786858083
474 4 17703787015996348302
5048184 11 18341898549079286813
5104073 3 18343868809971216002
5161694 15 17894352189589997832
5281201 14 18259979345637310398
6287921 2 18049727317121738288
633830 44 18273215309351556818
7399639 24 17463991054919464978
7808743 9 18342174496385393792

> <PUBCHEM_SHAPE_MULTIPOLES>
418.21
10.82
2.86
1.27
8.1
0.64
0.01
3.24
-2.37
-2.62
-0.11
0.01
-0.18
-0.26

> <PUBCHEM_SHAPE_SELFOVERLAP>
876.544

> <PUBCHEM_SHAPE_VOLUME>
236.5

> <PUBCHEM_COORDINATE_TYPE>
2
5
10

$$$$

