50986257
  -OEChem-07051213152D

 83 87  0     1  0  0  0  0  0999 V2000
   10.2413    5.5451    0.0000 O   0  0  0  0  0  0  0  0  0  0  0  0
    8.5931    5.0127    0.0000 O   0  0  0  0  0  0  0  0  0  0  0  0
    9.8755   -1.2770    0.0000 O   0  0  0  0  0  0  0  0  0  0  0  0
   14.2715    2.1728    0.0000 O   0  0  0  0  0  0  0  0  0  0  0  0
   13.2510    0.7733    0.0000 O   0  0  0  0  0  0  0  0  0  0  0  0
    2.0000   -4.0528    0.0000 O   0  0  0  0  0  0  0  0  0  0  0  0
    9.2891    3.0435    0.0000 N   0  0  0  0  0  0  0  0  0  0  0  0
    7.6675    1.2872    0.0000 N   0  0  0  0  0  0  0  0  0  0  0  0
    5.9865   -1.3013    0.0000 N   0  0  0  0  0  0  0  0  0  0  0  0
    3.5878   -3.2438    0.0000 N   0  0  0  0  0  0  0  0  0  0  0  0
   10.8271    2.5409    0.0000 C   0  0  1  0  0  0  0  0  0  0  0  0
   10.8288    3.5409    0.0000 C   0  0  1  0  0  0  0  0  0  0  0  0
    9.8783    3.8515    0.0000 C   0  0  1  0  0  0  0  0  0  0  0  0
    9.8755    2.2335    0.0000 C   0  0  0  0  0  0  0  0  0  0  0  0
   11.6351    1.9517    0.0000 C   0  0  0  0  0  0  0  0  0  0  0  0
    9.5648    1.2830    0.0000 C   0  0  0  0  0  0  0  0  0  0  0  0
   11.6388    4.1272    0.0000 C   0  0  0  0  0  0  0  0  0  0  0  0
    8.6186    0.9782    0.0000 C   0  0  0  0  0  0  0  0  0  0  0  0
   10.1484    0.4782    0.0000 C   0  0  0  0  0  0  0  0  0  0  0  0
    8.6186   -0.0218    0.0000 C   0  0  0  0  0  0  0  0  0  0  0  0
   12.5493    2.3568    0.0000 C   0  0  0  0  0  0  0  0  0  0  0  0
    9.5709    4.8031    0.0000 C   0  0  0  0  0  0  0  0  0  0  0  0
    9.5648   -0.3265    0.0000 C   0  0  0  0  0  0  0  0  0  0  0  0
    7.6675   -0.3308    0.0000 C   0  0  0  0  0  0  0  0  0  0  0  0
    7.0797    0.4782    0.0000 C   0  0  0  0  0  0  0  0  0  0  0  0
    6.0797    0.4782    0.0000 C   0  0  0  0  0  0  0  0  0  0  0  0
    5.5797   -0.3878    0.0000 C   0  0  0  0  0  0  0  0  0  0  0  0
    7.3585   -1.2818    0.0000 C   0  0  0  0  0  0  0  0  0  0  0  0
   13.3573    1.7676    0.0000 C   0  0  0  0  0  0  0  0  0  0  0  0
    4.5852   -0.4923    0.0000 C   0  0  0  0  0  0  0  0  0  0  0  0
    5.2433   -1.9705    0.0000 C   0  0  0  0  0  0  0  0  0  0  0  0
    4.3773   -1.4705    0.0000 C   0  0  0  0  0  0  0  0  0  0  0  0
    5.3479   -2.9650    0.0000 C   0  0  0  0  0  0  0  0  0  0  0  0
    4.5388   -3.5528    0.0000 C   0  0  3  0  0  0  0  0  0  0  0  0
    3.9161    0.2508    0.0000 C   0  0  0  0  0  0  0  0  0  0  0  0
    4.5388   -4.5528    0.0000 C   0  0  0  0  0  0  0  0  0  0  0  0
    3.4638   -1.8772    0.0000 C   0  0  0  0  0  0  0  0  0  0  0  0
    3.5878   -4.8618    0.0000 C   0  0  0  0  0  0  0  0  0  0  0  0
    2.9379    0.0429    0.0000 C   0  0  0  0  0  0  0  0  0  0  0  0
    3.0000   -4.0528    0.0000 C   0  0  0  0  0  0  0  0  0  0  0  0
    5.3479   -5.1406    0.0000 C   0  0  0  0  0  0  0  0  0  0  0  0
    3.2788   -5.8128    0.0000 C   0  0  0  0  0  0  0  0  0  0  0  0
    5.2433   -6.1351    0.0000 C   0  0  0  0  0  0  0  0  0  0  0  0
   10.7290    1.9287    0.0000 H   0  0  0  0  0  0  0  0  0  0  0  0
   11.3807    3.2584    0.0000 H   0  0  0  0  0  0  0  0  0  0  0  0
    9.2661    3.9496    0.0000 H   0  0  0  0  0  0  0  0  0  0  0  0
    8.6691    3.0446    0.0000 H   0  0  0  0  0  0  0  0  0  0  0  0
   11.1883    1.5218    0.0000 H   0  0  0  0  0  0  0  0  0  0  0  0
   11.9809    1.4371    0.0000 H   0  0  0  0  0  0  0  0  0  0  0  0
   12.0024    3.6250    0.0000 H   0  0  0  0  0  0  0  0  0  0  0  0
   12.1410    4.4908    0.0000 H   0  0  0  0  0  0  0  0  0  0  0  0
   11.2753    4.6295    0.0000 H   0  0  0  0  0  0  0  0  0  0  0  0
   10.6093    0.0635    0.0000 H   0  0  0  0  0  0  0  0  0  0  0  0
   10.6093    0.8930    0.0000 H   0  0  0  0  0  0  0  0  0  0  0  0
   12.9960    2.7868    0.0000 H   0  0  0  0  0  0  0  0  0  0  0  0
   12.2035    2.8714    0.0000 H   0  0  0  0  0  0  0  0  0  0  0  0
    7.4759    1.8769    0.0000 H   0  0  0  0  0  0  0  0  0  0  0  0
    6.1874    1.0888    0.0000 H   0  0  0  0  0  0  0  0  0  0  0  0
    5.4971    0.6903    0.0000 H   0  0  0  0  0  0  0  0  0  0  0  0
    6.7688   -1.0902    0.0000 H   0  0  0  0  0  0  0  0  0  0  0  0
    7.1669   -1.8715    0.0000 H   0  0  0  0  0  0  0  0  0  0  0  0
    7.9482   -1.4734    0.0000 H   0  0  0  0  0  0  0  0  0  0  0  0
    6.5929   -1.4302    0.0000 H   0  0  0  0  0  0  0  0  0  0  0  0
   10.0507    6.1351    0.0000 H   0  0  0  0  0  0  0  0  0  0  0  0
    5.6196   -3.5222    0.0000 H   0  0  0  0  0  0  0  0  0  0  0  0
    5.9438   -2.7941    0.0000 H   0  0  0  0  0  0  0  0  0  0  0  0
    4.4059   -2.7132    0.0000 H   0  0  0  0  0  0  0  0  0  0  0  0
    4.4419    0.5794    0.0000 H   0  0  0  0  0  0  0  0  0  0  0  0
    3.6838    0.8257    0.0000 H   0  0  0  0  0  0  0  0  0  0  0  0
    3.2116   -1.3108    0.0000 H   0  0  0  0  0  0  0  0  0  0  0  0
    2.8974   -2.1294    0.0000 H   0  0  0  0  0  0  0  0  0  0  0  0
    3.7159   -2.4436    0.0000 H   0  0  0  0  0  0  0  0  0  0  0  0
    3.3962   -2.6541    0.0000 H   0  0  0  0  0  0  0  0  0  0  0  0
   14.7725    1.8075    0.0000 H   0  0  0  0  0  0  0  0  0  0  0  0
    2.8090    0.6494    0.0000 H   0  0  0  0  0  0  0  0  0  0  0  0
    2.3315   -0.0860    0.0000 H   0  0  0  0  0  0  0  0  0  0  0  0
    3.0668   -0.5635    0.0000 H   0  0  0  0  0  0  0  0  0  0  0  0
    5.9143   -4.8884    0.0000 H   0  0  0  0  0  0  0  0  0  0  0  0
    2.6891   -5.6213    0.0000 H   0  0  0  0  0  0  0  0  0  0  0  0
    3.0872   -6.4025    0.0000 H   0  0  0  0  0  0  0  0  0  0  0  0
    3.8684   -6.0044    0.0000 H   0  0  0  0  0  0  0  0  0  0  0  0
    4.6769   -6.3873    0.0000 H   0  0  0  0  0  0  0  0  0  0  0  0
    5.7449   -6.4995    0.0000 H   0  0  0  0  0  0  0  0  0  0  0  0
  1 22  1  0  0  0  0
  1 64  1  0  0  0  0
  2 22  2  0  0  0  0
  3 23  2  0  0  0  0
  4 29  1  0  0  0  0
  4 74  1  0  0  0  0
  5 29  2  0  0  0  0
  6 40  2  0  0  0  0
  7 13  1  0  0  0  0
  7 14  1  0  0  0  0
  7 47  1  0  0  0  0
  8 18  1  0  0  0  0
  8 25  1  0  0  0  0
  8 57  1  0  0  0  0
  9 27  1  0  0  0  0
  9 31  1  0  0  0  0
  9 63  1  0  0  0  0
 10 34  1  0  0  0  0
 10 40  1  0  0  0  0
 10 73  1  0  0  0  0
 11 12  1  0  0  0  0
 11 14  1  0  0  0  0
 11 15  1  6  0  0  0
 11 44  1  0  0  0  0
 12 13  1  0  0  0  0
 12 17  1  1  0  0  0
 12 45  1  0  0  0  0
 13 22  1  6  0  0  0
 13 46  1  0  0  0  0
 14 16  2  0  0  0  0
 15 21  1  0  0  0  0
 15 48  1  0  0  0  0
 15 49  1  0  0  0  0
 16 18  1  0  0  0  0
 16 19  1  0  0  0  0
 17 50  1  0  0  0  0
 17 51  1  0  0  0  0
 17 52  1  0  0  0  0
 18 20  2  0  0  0  0
 19 23  1  0  0  0  0
 19 53  1  0  0  0  0
 19 54  1  0  0  0  0
 20 23  1  0  0  0  0
 20 24  1  0  0  0  0
 21 29  1  0  0  0  0
 21 55  1  0  0  0  0
 21 56  1  0  0  0  0
 24 25  2  0  0  0  0
 24 28  1  0  0  0  0
 25 26  1  0  0  0  0
 26 27  1  0  0  0  0
 26 58  1  0  0  0  0
 26 59  1  0  0  0  0
 27 30  2  0  0  0  0
 28 60  1  0  0  0  0
 28 61  1  0  0  0  0
 28 62  1  0  0  0  0
 30 32  1  0  0  0  0
 30 35  1  0  0  0  0
 31 32  2  0  0  0  0
 31 33  1  0  0  0  0
 32 37  1  0  0  0  0
 33 34  1  0  0  0  0
 33 65  1  0  0  0  0
 33 66  1  0  0  0  0
 34 36  1  0  0  0  0
 34 67  1  0  0  0  0
 35 39  1  0  0  0  0
 35 68  1  0  0  0  0
 35 69  1  0  0  0  0
 36 38  2  0  0  0  0
 36 41  1  0  0  0  0
 37 70  1  0  0  0  0
 37 71  1  0  0  0  0
 37 72  1  0  0  0  0
 38 40  1  0  0  0  0
 38 42  1  0  0  0  0
 39 75  1  0  0  0  0
 39 76  1  0  0  0  0
 39 77  1  0  0  0  0
 41 43  2  0  0  0  0
 41 78  1  0  0  0  0
 42 79  1  0  0  0  0
 42 80  1  0  0  0  0
 42 81  1  0  0  0  0
 43 82  1  0  0  0  0
 43 83  1  0  0  0  0
M  END
> <PUBCHEM_COMPOUND_CID>
50986257

> <PUBCHEM_COMPOUND_CANONICALIZED>
1

> <PUBCHEM_CACTVS_COMPLEXITY>
1260

> <PUBCHEM_CACTVS_HBOND_ACCEPTOR>
7

> <PUBCHEM_CACTVS_HBOND_DONOR>
6

> <PUBCHEM_CACTVS_ROTATABLE_BOND>
10

> <PUBCHEM_CACTVS_SUBSKEYS>
AAADcfB/uAAAAAAAAAAAAAAAAAAAAeLFiBAAAAAAAAAWAAAB4AAAHgAQCAAADSzBngQCiJLJkgCoA6XyXACCgCAlACAImaG4RNgKIHrA1LGEYYhklgDYyUec2fKOgAAAAAAAAAAAAAAAAAAAAAAAAQAAAA==

> <PUBCHEM_IUPAC_OPENEYE_NAME>
(2S,3S,4S,5Z)-4-(2-carboxyethyl)-5-[2-[[3-ethyl-4-methyl-5-[(4-methyl-5-oxo-3-vinyl-1,2-dihydropyrrol-2-yl)methyl]-1H-pyrrol-2-yl]methyl]-3-methyl-4-oxo-1H-cyclopenta[b]pyrrol-6-ylidene]-3-methyl-pyrrolidine-2-carboxylic acid

> <PUBCHEM_IUPAC_CAS_NAME>
(2S,3S,4S,5Z)-4-(2-carboxyethyl)-5-[2-[[5-[(3-ethenyl-4-methyl-5-oxo-1,2-dihydropyrrol-2-yl)methyl]-3-ethyl-4-methyl-1H-pyrrol-2-yl]methyl]-3-methyl-4-oxo-1H-cyclopenta[b]pyrrol-6-ylidene]-3-methyl-2-pyrrolidinecarboxylic acid

> <PUBCHEM_IUPAC_NAME>
(2S,3S,4S,5Z)-4-(2-carboxyethyl)-5-[2-[[5-[(3-ethenyl-4-methyl-5-oxo-1,2-dihydropyrrol-2-yl)methyl]-3-ethyl-4-methyl-1H-pyrrol-2-yl]methyl]-3-methyl-4-oxo-1H-cyclopenta[b]pyrrol-6-ylidene]-3-methylpyrrolidine-2-carboxylic acid

> <PUBCHEM_IUPAC_SYSTEMATIC_NAME>
(2S,3S,4S,5Z)-5-[2-[[5-[(3-ethenyl-4-methyl-5-oxidanylidene-1,2-dihydropyrrol-2-yl)methyl]-3-ethyl-4-methyl-1H-pyrrol-2-yl]methyl]-3-methyl-4-oxidanylidene-1H-cyclopenta[b]pyrrol-6-ylidene]-4-(3-hydroxy-3-oxopropyl)-3-methyl-pyrrolidine-2-carboxylic acid

> <PUBCHEM_IUPAC_TRADITIONAL_NAME>
(2S,3S,4S,5Z)-4-(2-carboxyethyl)-5-[2-[[3-ethyl-5-[(5-keto-4-methyl-3-vinyl-3-pyrrolin-2-yl)methyl]-4-methyl-1H-pyrrol-2-yl]methyl]-4-keto-3-methyl-1H-cyclopenta[b]pyrrol-6-ylidene]-3-methyl-proline

> <PUBCHEM_IUPAC_INCHI>
InChI=1S/C33H40N4O6/c1-7-18-14(3)22(12-25-19(8-2)16(5)32(41)36-25)34-24(18)13-23-17(6)28-26(38)11-21(31(28)35-23)30-20(9-10-27(39)40)15(4)29(37-30)33(42)43/h8,15,20,25,29,34-35,37H,2,7,9-13H2,1,3-6H3,(H,36,41)(H,39,40)(H,42,43)/b30-21-/t15-,20-,25?,29-/m0/s1

> <PUBCHEM_IUPAC_INCHIKEY>
QUHVVVWAQMRCSJ-IXXPHHLHSA-N

> <PUBCHEM_XLOGP3_AA>
3.1

> <PUBCHEM_EXACT_MASS>
588.294785

> <PUBCHEM_MOLECULAR_FORMULA>
C33H40N4O6

> <PUBCHEM_MOLECULAR_WEIGHT>
588.6939

> <PUBCHEM_OPENEYE_CAN_SMILES>
CCC1=C(NC(=C1C)CC2C(=C(C(=O)N2)C)C=C)CC3=C(C4=C(N3)C(=C5C(C(C(N5)C(=O)O)C)CCC(=O)O)CC4=O)C

> <PUBCHEM_OPENEYE_ISO_SMILES>
CCC1=C(NC(=C1C)CC2C(=C(C(=O)N2)C)C=C)CC3=C(C4=C(N3)/C(=C\5/[C@H]([C@@H]([C@H](N5)C(=O)O)C)CCC(=O)O)/CC4=O)C

> <PUBCHEM_CACTVS_TPSA>
164

> <PUBCHEM_MONOISOTOPIC_WEIGHT>
588.294785

> <PUBCHEM_TOTAL_CHARGE>
0

> <PUBCHEM_HEAVY_ATOM_COUNT>
43

> <PUBCHEM_ATOM_DEF_STEREO_COUNT>
3

> <PUBCHEM_ATOM_UDEF_STEREO_COUNT>
1

> <PUBCHEM_BOND_DEF_STEREO_COUNT>
1

> <PUBCHEM_BOND_UDEF_STEREO_COUNT>
0

> <PUBCHEM_ISOTOPIC_ATOM_COUNT>
0

> <PUBCHEM_COMPONENT_COUNT>
1

> <PUBCHEM_CACTVS_TAUTO_COUNT>
42

> <PUBCHEM_COORDINATE_TYPE>
1
5
255

> <PUBCHEM_BONDANNOTATIONS>
11  15  6
12  17  5
13  22  6
18  20  8
20  24  8
24  25  8
27  30  8
30  32  8
31  32  8
34  67  3
8  18  8
8  25  8
9  27  8
9  31  8

$$$$

