5376891
  -OEChem-07051213073D

 28 30  0     0  0  0  0  0  0999 V2000
    1.0373    1.8452   -0.0207 O   0  0  0  0  0  0  0  0  0  0  0  0
   -0.3491   -1.9920   -0.0634 O   0  0  0  0  0  0  0  0  0  0  0  0
    5.5494    0.3685    0.0345 O   0  0  0  0  0  0  0  0  0  0  0  0
    1.5010   -0.5372   -0.0106 C   0  0  0  0  0  0  0  0  0  0  0  0
   -0.8628    0.3326   -0.0236 C   0  0  0  0  0  0  0  0  0  0  0  0
    1.9174    0.7936   -0.0082 C   0  0  0  0  0  0  0  0  0  0  0  0
    0.0575   -0.8377   -0.0307 C   0  0  0  0  0  0  0  0  0  0  0  0
   -2.3260    0.1730   -0.0031 C   0  0  0  0  0  0  0  0  0  0  0  0
    2.4435   -1.5688    0.0017 C   0  0  0  0  0  0  0  0  0  0  0  0
   -0.3050    1.5527   -0.0181 C   0  0  0  0  0  0  0  0  0  0  0  0
    3.2783    1.1006    0.0062 C   0  0  0  0  0  0  0  0  0  0  0  0
    4.2209    0.0725    0.0189 C   0  0  0  0  0  0  0  0  0  0  0  0
    3.8042   -1.2592    0.0168 C   0  0  0  0  0  0  0  0  0  0  0  0
   -3.0411    0.1110   -1.2013 C   0  0  0  0  0  0  0  0  0  0  0  0
   -3.0044    0.0831    1.2144 C   0  0  0  0  0  0  0  0  0  0  0  0
   -4.4276   -0.0400   -1.1819 C   0  0  0  0  0  0  0  0  0  0  0  0
   -4.3909   -0.0681    1.2336 C   0  0  0  0  0  0  0  0  0  0  0  0
   -5.1025   -0.1296    0.0354 C   0  0  0  0  0  0  0  0  0  0  0  0
    2.1398   -2.6118   -0.0003 H   0  0  0  0  0  0  0  0  0  0  0  0
   -0.8742    2.4742   -0.0083 H   0  0  0  0  0  0  0  0  0  0  0  0
    3.6052    2.1374    0.0080 H   0  0  0  0  0  0  0  0  0  0  0  0
    4.5314   -2.0670    0.0266 H   0  0  0  0  0  0  0  0  0  0  0  0
   -2.5296    0.1783   -2.1585 H   0  0  0  0  0  0  0  0  0  0  0  0
   -2.4641    0.1285    2.1570 H   0  0  0  0  0  0  0  0  0  0  0  0
   -4.9818   -0.0883   -2.1147 H   0  0  0  0  0  0  0  0  0  0  0  0
   -4.9166   -0.1381    2.1813 H   0  0  0  0  0  0  0  0  0  0  0  0
   -6.1821   -0.2474    0.0505 H   0  0  0  0  0  0  0  0  0  0  0  0
    6.0572   -0.4610    0.0420 H   0  0  0  0  0  0  0  0  0  0  0  0
  1  6  1  0  0  0  0
  1 10  1  0  0  0  0
  2  7  2  0  0  0  0
  3 12  1  0  0  0  0
  3 28  1  0  0  0  0
  4  6  2  0  0  0  0
  4  7  1  0  0  0  0
  4  9  1  0  0  0  0
  5  7  1  0  0  0  0
  5  8  1  0  0  0  0
  5 10  2  0  0  0  0
  6 11  1  0  0  0  0
  8 14  2  0  0  0  0
  8 15  1  0  0  0  0
  9 13  2  0  0  0  0
  9 19  1  0  0  0  0
 10 20  1  0  0  0  0
 11 12  2  0  0  0  0
 11 21  1  0  0  0  0
 12 13  1  0  0  0  0
 13 22  1  0  0  0  0
 14 16  1  0  0  0  0
 14 23  1  0  0  0  0
 15 17  2  0  0  0  0
 15 24  1  0  0  0  0
 16 18  2  0  0  0  0
 16 25  1  0  0  0  0
 17 18  1  0  0  0  0
 17 26  1  0  0  0  0
 18 27  1  0  0  0  0
M  END
> <PUBCHEM_COMPOUND_CID>
5376891

> <PUBCHEM_CONFORMER_RMSD>
0.6

> <PUBCHEM_CONFORMER_DIVERSEORDER>
1
2

> <PUBCHEM_MMFF94_PARTIAL_CHARGES>
28
1 -0.16
10 -0.07
11 -0.15
12 0.08
13 -0.15
14 -0.15
15 -0.15
16 -0.15
17 -0.15
18 -0.15
19 0.15
2 -0.57
20 0.15
21 0.15
22 0.15
23 0.15
24 0.15
25 0.15
26 0.15
27 0.15
28 0.45
3 -0.53
4 0.09
5 -0.01
6 0.08
7 0.47
8 0.03
9 -0.15

> <PUBCHEM_EFFECTIVE_ROTOR_COUNT>
1

> <PUBCHEM_PHARMACOPHORE_FEATURES>
6
1 1 acceptor
1 2 acceptor
1 3 donor
6 1 4 5 6 7 10 rings
6 4 6 9 11 12 13 rings
6 8 14 15 16 17 18 rings

> <PUBCHEM_HEAVY_ATOM_COUNT>
18

> <PUBCHEM_ATOM_DEF_STEREO_COUNT>
0

> <PUBCHEM_ATOM_UDEF_STEREO_COUNT>
0

> <PUBCHEM_BOND_DEF_STEREO_COUNT>
0

> <PUBCHEM_BOND_UDEF_STEREO_COUNT>
0

> <PUBCHEM_ISOTOPIC_ATOM_COUNT>
0

> <PUBCHEM_COMPONENT_COUNT>
1

> <PUBCHEM_CACTVS_TAUTO_COUNT>
5

> <PUBCHEM_CONFORMER_ID>
00520B7B00000001

> <PUBCHEM_MMFF94_ENERGY>
55.4939

> <PUBCHEM_FEATURE_SELFOVERLAP>
30.474

> <PUBCHEM_SHAPE_FINGERPRINT>
10 15 17988087686937543728
11287383 113 16917063339456758988
11401426 45 18408046203666535333
11471102 20 18411702084471894022
11796584 16 16558756749360438090
12107183 9 16811210275459239203
12236239 1 17748826324122341961
13140716 1 18194403290930045112
13583140 156 17132122320428200571
13760787 19 15285358439745889086
13760787 5 18409446985796440356
13862211 1 18410298034014717350
14386348 63 17989484121800305043
15196674 1 18338517559650712748
15788980 27 17418375783426642215
15848702 151 17749945677929586599
16945 1 18410575072226712840
1813 80 18262222413223651828
18186145 218 18334012787259789887
19489759 90 16200435775476507551
200 152 18261116279278167445
20279233 1 17775000198084082651
20645477 70 18340774843890118102
21033648 29 18130241396849004333
21267235 1 18410567427459382006
21641784 216 18130207355429139276
23175994 123 18202841059162898125
23184049 59 18408599266568233486
23402539 116 17894351089772512365
23402655 69 18334863847967278237
23536379 177 15864064386788800118
23557571 272 16917073286659065301
23559900 14 16916789638381553162
26918003 58 18202562877966797401
2748010 2 18195252345798011804
2871803 45 18272370923075643274
34797466 226 16199851934581060982
34934 24 18411144597975589394
4340502 62 16702302360443221738
5104073 3 18267589185745755888
537710 114 18411414008194032332
542803 24 17240481407553859761
602551 16 15141257493892350357
69090 78 18334860502172118534
7495541 125 17203035297149994421
77492 1 17676487237959599637

> <PUBCHEM_SHAPE_MULTIPOLES>
352.82
10.35
1.47
0.94
0.52
0.09
0.02
0.34
0.15
-1.14
-0.02
1.26
0
0.02

> <PUBCHEM_SHAPE_SELFOVERLAP>
788.026

> <PUBCHEM_SHAPE_VOLUME>
186.3

> <PUBCHEM_COORDINATE_TYPE>
2
5
10

$$$$

