65309
  -OEChem-07051212492D

 37 37  0     1  0  0  0  0  0999 V2000
    6.0010   -0.6900    0.0000 O   0  0  0  0  0  0  0  0  0  0  0  0
    5.1350    1.8100    0.0000 O   0  0  0  0  0  0  0  0  0  0  0  0
    8.5991    0.8100    0.0000 O   0  0  0  0  0  0  0  0  0  0  0  0
    4.2690   -0.6900    0.0000 O   0  0  0  0  0  0  0  0  0  0  0  0
    2.5369    0.3100    0.0000 O   0  0  0  0  0  0  0  0  0  0  0  0
    8.5991    1.8100    0.0000 O   0  0  0  0  0  0  0  0  0  0  0  0
    7.7331   -2.6900    0.0000 O   0  0  0  0  0  0  0  0  0  0  0  0
    6.0010   -2.6900    0.0000 O   0  0  0  0  0  0  0  0  0  0  0  0
    6.8671    1.8100    0.0000 N   0  0  0  0  0  0  0  0  0  0  0  0
    6.0010    0.3100    0.0000 C   0  0  2  0  0  0  0  0  0  0  0  0
    6.8671    0.8100    0.0000 C   0  0  1  0  0  0  0  0  0  0  0  0
    5.1350    0.8100    0.0000 C   0  0  1  0  0  0  0  0  0  0  0  0
    7.7331    0.3100    0.0000 C   0  0  2  0  0  0  0  0  0  0  0  0
    4.2690    0.3100    0.0000 C   0  0  1  0  0  0  0  0  0  0  0  0
    7.7331   -0.6900    0.0000 C   0  0  0  0  0  0  0  0  0  0  0  0
    6.8671   -1.1900    0.0000 C   0  0  0  0  0  0  0  0  0  0  0  0
    3.4030    0.8100    0.0000 C   0  0  0  0  0  0  0  0  0  0  0  0
    7.7331    2.3100    0.0000 C   0  0  0  0  0  0  0  0  0  0  0  0
    6.8671   -2.1900    0.0000 C   0  0  0  0  0  0  0  0  0  0  0  0
    7.7331    3.3100    0.0000 C   0  0  0  0  0  0  0  0  0  0  0  0
    5.2649   -0.1150    0.0000 H   0  0  0  0  0  0  0  0  0  0  0  0
    6.3301    1.1200    0.0000 H   0  0  0  0  0  0  0  0  0  0  0  0
    5.6720    1.1200    0.0000 H   0  0  0  0  0  0  0  0  0  0  0  0
    7.7331    0.9300    0.0000 H   0  0  0  0  0  0  0  0  0  0  0  0
    4.8059    0.0000    0.0000 H   0  0  0  0  0  0  0  0  0  0  0  0
    6.3301    2.1200    0.0000 H   0  0  0  0  0  0  0  0  0  0  0  0
    8.2700   -1.0000    0.0000 H   0  0  0  0  0  0  0  0  0  0  0  0
    3.8015    1.2850    0.0000 H   0  0  0  0  0  0  0  0  0  0  0  0
    3.0044    1.2850    0.0000 H   0  0  0  0  0  0  0  0  0  0  0  0
    4.5981    2.1200    0.0000 H   0  0  0  0  0  0  0  0  0  0  0  0
    9.1360    0.5000    0.0000 H   0  0  0  0  0  0  0  0  0  0  0  0
    3.7320   -1.0000    0.0000 H   0  0  0  0  0  0  0  0  0  0  0  0
    8.3531    3.3100    0.0000 H   0  0  0  0  0  0  0  0  0  0  0  0
    7.7331    3.9300    0.0000 H   0  0  0  0  0  0  0  0  0  0  0  0
    7.1131    3.3100    0.0000 H   0  0  0  0  0  0  0  0  0  0  0  0
    2.0000    0.6200    0.0000 H   0  0  0  0  0  0  0  0  0  0  0  0
    7.7331   -3.3100    0.0000 H   0  0  0  0  0  0  0  0  0  0  0  0
  1 10  1  0  0  0  0
  1 16  1  0  0  0  0
 12  2  1  1  0  0  0
  2 30  1  0  0  0  0
 13  3  1  1  0  0  0
  3 31  1  0  0  0  0
 14  4  1  6  0  0  0
  4 32  1  0  0  0  0
  5 17  1  0  0  0  0
  5 36  1  0  0  0  0
  6 18  2  0  0  0  0
  7 19  1  0  0  0  0
  7 37  1  0  0  0  0
  8 19  2  0  0  0  0
 11  9  1  6  0  0  0
  9 18  1  0  0  0  0
  9 26  1  0  0  0  0
 10 11  1  0  0  0  0
 10 12  1  0  0  0  0
 10 21  1  6  0  0  0
 11 13  1  0  0  0  0
 11 22  1  0  0  0  0
 12 14  1  0  0  0  0
 12 23  1  0  0  0  0
 13 15  1  0  0  0  0
 13 24  1  0  0  0  0
 14 17  1  0  0  0  0
 14 25  1  0  0  0  0
 15 16  2  0  0  0  0
 15 27  1  0  0  0  0
 16 19  1  0  0  0  0
 17 28  1  0  0  0  0
 17 29  1  0  0  0  0
 18 20  1  0  0  0  0
 20 33  1  0  0  0  0
 20 34  1  0  0  0  0
 20 35  1  0  0  0  0
M  END
> <PUBCHEM_COMPOUND_CID>
65309

> <PUBCHEM_COMPOUND_CANONICALIZED>
1

> <PUBCHEM_CACTVS_COMPLEXITY>
409

> <PUBCHEM_CACTVS_HBOND_ACCEPTOR>
8

> <PUBCHEM_CACTVS_HBOND_DONOR>
6

> <PUBCHEM_CACTVS_ROTATABLE_BOND>
5

> <PUBCHEM_CACTVS_SUBSKEYS>
AAADceByPAAAAAAAAAAAAAAAAAAAAAAAAAAgAAAAAAAAAAAAAAAAHgAQCAAACDzhgAYCCALABgCIACHSGAIACAAgIAAACIBIAEgDFAIAgAQHUAAHlgCbEYPw8CcAAAAAAAAAAAAAAAAAAAAAAAAAAAAAAA==

> <PUBCHEM_IUPAC_OPENEYE_NAME>
(2R,3R,4S)-3-acetamido-4-hydroxy-2-[(1R,2R)-1,2,3-trihydroxypropyl]-3,4-dihydro-2H-pyran-6-carboxylic acid

> <PUBCHEM_IUPAC_CAS_NAME>
(2R,3R,4S)-3-acetamido-4-hydroxy-2-[(1R,2R)-1,2,3-trihydroxypropyl]-3,4-dihydro-2H-pyran-6-carboxylic acid

> <PUBCHEM_IUPAC_NAME>
(2R,3R,4S)-3-acetamido-4-hydroxy-2-[(1R,2R)-1,2,3-trihydroxypropyl]-3,4-dihydro-2H-pyran-6-carboxylic acid

> <PUBCHEM_IUPAC_SYSTEMATIC_NAME>
(2R,3R,4S)-3-acetamido-4-oxidanyl-2-[(1R,2R)-1,2,3-tris(oxidanyl)propyl]-3,4-dihydro-2H-pyran-6-carboxylic acid

> <PUBCHEM_IUPAC_TRADITIONAL_NAME>
(2R,3R,4S)-3-acetamido-4-hydroxy-2-[(1R,2R)-1,2,3-trihydroxypropyl]-3,4-dihydro-2H-pyran-6-carboxylic acid

> <PUBCHEM_IUPAC_INCHI>
InChI=1S/C11H17NO8/c1-4(14)12-8-5(15)2-7(11(18)19)20-10(8)9(17)6(16)3-13/h2,5-6,8-10,13,15-17H,3H2,1H3,(H,12,14)(H,18,19)/t5-,6+,8+,9+,10+/m0/s1

> <PUBCHEM_IUPAC_INCHIKEY>
JINJZWSZQKHCIP-UFGQHTETSA-N

> <PUBCHEM_XLOGP3_AA>
-2.5

> <PUBCHEM_EXACT_MASS>
291.095417

> <PUBCHEM_MOLECULAR_FORMULA>
C11H17NO8

> <PUBCHEM_MOLECULAR_WEIGHT>
291.25458

> <PUBCHEM_OPENEYE_CAN_SMILES>
CC(=O)NC1C(C=C(OC1C(C(CO)O)O)C(=O)O)O

> <PUBCHEM_OPENEYE_ISO_SMILES>
CC(=O)N[C@@H]1[C@H](C=C(O[C@H]1[C@@H]([C@@H](CO)O)O)C(=O)O)O

> <PUBCHEM_CACTVS_TPSA>
157

> <PUBCHEM_MONOISOTOPIC_WEIGHT>
291.095417

> <PUBCHEM_TOTAL_CHARGE>
0

> <PUBCHEM_HEAVY_ATOM_COUNT>
20

> <PUBCHEM_ATOM_DEF_STEREO_COUNT>
5

> <PUBCHEM_ATOM_UDEF_STEREO_COUNT>
0

> <PUBCHEM_BOND_DEF_STEREO_COUNT>
0

> <PUBCHEM_BOND_UDEF_STEREO_COUNT>
0

> <PUBCHEM_ISOTOPIC_ATOM_COUNT>
0

> <PUBCHEM_COMPONENT_COUNT>
1

> <PUBCHEM_CACTVS_TAUTO_COUNT>
2

> <PUBCHEM_COORDINATE_TYPE>
1
5
255

> <PUBCHEM_BONDANNOTATIONS>
10  21  6
12  2  5
13  3  5
14  4  6
11  9  6

$$$$

