17396575
  -OEChem-06241222573D

 40 41  0     0  0  0  0  0  0999 V2000
    3.4448    1.3378    0.7874 S   0  0  0  0  0  0  0  0  0  0  0  0
   -2.8261   -2.9564    0.2001 O   0  0  0  0  0  0  0  0  0  0  0  0
   -4.6303   -0.8573   -0.0462 O   0  0  0  0  0  0  0  0  0  0  0  0
   -1.9068    3.2003    0.2688 O   0  0  0  0  0  0  0  0  0  0  0  0
    1.7025   -2.0209    0.2261 O   0  0  0  0  0  0  0  0  0  0  0  0
    0.0706    2.6654   -0.7816 O   0  0  0  0  0  0  0  0  0  0  0  0
    0.8308    0.1273   -0.0033 N   0  0  0  0  0  0  0  0  0  0  0  0
   -0.5470   -0.1067   -0.0169 C   0  0  0  0  0  0  0  0  0  0  0  0
   -1.4528    0.9470   -0.1400 C   0  0  0  0  0  0  0  0  0  0  0  0
   -1.0124   -1.4166    0.0968 C   0  0  0  0  0  0  0  0  0  0  0  0
   -2.3834   -1.6730    0.0876 C   0  0  0  0  0  0  0  0  0  0  0  0
   -3.2892   -0.6193   -0.0356 C   0  0  0  0  0  0  0  0  0  0  0  0
   -2.8238    0.6907   -0.1494 C   0  0  0  0  0  0  0  0  0  0  0  0
    3.2306   -0.2317    0.1371 C   0  0  0  0  0  0  0  0  0  0  0  0
    1.8757   -0.8092    0.1141 C   0  0  0  0  0  0  0  0  0  0  0  0
    4.4174   -0.7756   -0.3024 C   0  0  0  0  0  0  0  0  0  0  0  0
   -0.9992    2.3268   -0.2623 C   0  0  0  0  0  0  0  0  0  0  0  0
    5.5173    0.1078   -0.1024 C   0  0  0  0  0  0  0  0  0  0  0  0
    4.5504   -2.1202   -0.9137 C   0  0  0  0  0  0  0  0  0  0  0  0
    5.1291    1.2932    0.4821 C   0  0  0  0  0  0  0  0  0  0  0  0
   -1.8355   -3.9753    0.3219 C   0  0  0  0  0  0  0  0  0  0  0  0
   -5.4885    0.2745   -0.1756 C   0  0  0  0  0  0  0  0  0  0  0  0
   -1.5740    4.5913    0.2075 C   0  0  0  0  0  0  0  0  0  0  0  0
   -0.3320   -2.2388    0.1917 H   0  0  0  0  0  0  0  0  0  0  0  0
   -3.4968    1.5322   -0.2687 H   0  0  0  0  0  0  0  0  0  0  0  0
    1.1167    1.0999   -0.0814 H   0  0  0  0  0  0  0  0  0  0  0  0
    6.5436   -0.1085   -0.3708 H   0  0  0  0  0  0  0  0  0  0  0  0
    4.3704   -2.9012   -0.1677 H   0  0  0  0  0  0  0  0  0  0  0  0
    3.8362   -2.2494   -1.7337 H   0  0  0  0  0  0  0  0  0  0  0  0
    5.5539   -2.2758   -1.3238 H   0  0  0  0  0  0  0  0  0  0  0  0
    5.7539    2.1352    0.7446 H   0  0  0  0  0  0  0  0  0  0  0  0
   -2.3676   -4.9294    0.4005 H   0  0  0  0  0  0  0  0  0  0  0  0
   -1.2516   -3.8667    1.2424 H   0  0  0  0  0  0  0  0  0  0  0  0
   -1.2075   -4.0409   -0.5733 H   0  0  0  0  0  0  0  0  0  0  0  0
   -5.3878    0.9585    0.6741 H   0  0  0  0  0  0  0  0  0  0  0  0
   -5.3508    0.7784   -1.1385 H   0  0  0  0  0  0  0  0  0  0  0  0
   -6.5176   -0.0995   -0.1594 H   0  0  0  0  0  0  0  0  0  0  0  0
   -0.6512    4.7831    0.7630 H   0  0  0  0  0  0  0  0  0  0  0  0
   -1.4711    4.9086   -0.8344 H   0  0  0  0  0  0  0  0  0  0  0  0
   -2.3875    5.1567    0.6695 H   0  0  0  0  0  0  0  0  0  0  0  0
  1 14  1  0  0  0  0
  1 20  1  0  0  0  0
  2 11  1  0  0  0  0
  2 21  1  0  0  0  0
  3 12  1  0  0  0  0
  3 22  1  0  0  0  0
  4 17  1  0  0  0  0
  4 23  1  0  0  0  0
  5 15  2  0  0  0  0
  6 17  2  0  0  0  0
  7  8  1  0  0  0  0
  7 15  1  0  0  0  0
  7 26  1  0  0  0  0
  8  9  1  0  0  0  0
  8 10  2  0  0  0  0
  9 13  2  0  0  0  0
  9 17  1  0  0  0  0
 10 11  1  0  0  0  0
 10 24  1  0  0  0  0
 11 12  2  0  0  0  0
 12 13  1  0  0  0  0
 13 25  1  0  0  0  0
 14 15  1  0  0  0  0
 14 16  2  0  0  0  0
 16 18  1  0  0  0  0
 16 19  1  0  0  0  0
 18 20  2  0  0  0  0
 18 27  1  0  0  0  0
 19 28  1  0  0  0  0
 19 29  1  0  0  0  0
 19 30  1  0  0  0  0
 20 31  1  0  0  0  0
 21 32  1  0  0  0  0
 21 33  1  0  0  0  0
 21 34  1  0  0  0  0
 22 35  1  0  0  0  0
 22 36  1  0  0  0  0
 22 37  1  0  0  0  0
 23 38  1  0  0  0  0
 23 39  1  0  0  0  0
 23 40  1  0  0  0  0
M  END
> <PUBCHEM_COMPOUND_CID>
17396575

> <PUBCHEM_CONFORMER_RMSD>
0.8

> <PUBCHEM_CONFORMER_DIVERSEORDER>
1
17
37
21
15
13
31
18
7
42
35
38
2
41
22
14
24
4
20
39
12
40
6
27
16
3
25
30
28
32
19
11
36
23
26
9
33
5
34
29
10
8

> <PUBCHEM_MMFF94_PARTIAL_CHARGES>
28
1 -0.08
10 -0.15
11 0.08
12 0.08
13 -0.15
14 -0.05
15 0.71
16 -0.18
17 0.63
18 -0.15
19 0.18
2 -0.36
20 -0.11
21 0.28
22 0.28
23 0.28
24 0.15
25 0.15
26 0.37
27 0.15
3 -0.36
31 0.15
4 -0.43
5 -0.57
6 -0.57
7 -0.55
8 0.12
9 0.09

> <PUBCHEM_EFFECTIVE_ROTOR_COUNT>
7

> <PUBCHEM_PHARMACOPHORE_FEATURES>
7
1 2 acceptor
1 3 acceptor
1 5 acceptor
1 6 acceptor
1 7 donor
5 1 14 16 18 20 rings
6 8 9 10 11 12 13 rings

> <PUBCHEM_HEAVY_ATOM_COUNT>
23

> <PUBCHEM_ATOM_DEF_STEREO_COUNT>
0

> <PUBCHEM_ATOM_UDEF_STEREO_COUNT>
0

> <PUBCHEM_BOND_DEF_STEREO_COUNT>
0

> <PUBCHEM_BOND_UDEF_STEREO_COUNT>
0

> <PUBCHEM_ISOTOPIC_ATOM_COUNT>
0

> <PUBCHEM_COMPONENT_COUNT>
1

> <PUBCHEM_CACTVS_TAUTO_COUNT>
3

> <PUBCHEM_CONFORMER_ID>
0109735F00000001

> <PUBCHEM_MMFF94_ENERGY>
86.123

> <PUBCHEM_FEATURE_SELFOVERLAP>
35.525

> <PUBCHEM_SHAPE_FINGERPRINT>
10319926 262 18265352736767646274
10411042 1 18123187896576113011
10498660 4 18342183271430555204
10670039 82 18271228509621344356
10906281 52 18336246995378093109
1100329 8 18268708321126403945
11552529 35 17532652326053668510
12107183 9 17621890107793604418
12173636 292 18267306623662186500
12236239 1 17418377982555522762
12390115 104 18116982493472278393
12553582 1 18340219513477497315
12788726 201 18343026622281429105
12969540 114 18270701838860838343
13140716 1 18267868272208855408
138480 1 15888841146370258312
14081887 123 18338529572726903120
14790565 3 18338794641219284241
14955137 171 18269258102900195035
15196674 1 18337954592696978196
15961568 22 18270116800218219892
17980427 23 17458329824684197681
1813 80 17561365054352665228
19141452 34 18335419019951444391
19591789 44 18123187067784003282
20510252 161 18263646319705164041
20600515 1 18262219050675474853
20645477 70 17385718145526433478
21029758 11 18410300185972576933
21267235 1 18340760473050598451
22122407 14 16081641167346076155
221357 26 18261110807526762156
22182937 141 18117837926604154080
2297311 6 18410282610665526606
23366157 5 17483119245839144045
23402539 116 18334864909235734999
23557571 272 18335135410502497460
23558518 356 18126838519945206435
23559900 14 18408887309204158418
23845131 108 17763170746177168105
266924 87 18122634013983631109
283562 15 18337675342729565873
3178227 256 18270950268960573219
335352 9 18340207402212827487
34934 24 18341339920105564955
350125 39 18194681698782946648
3545911 37 18410292502217945086
4214541 1 18337390560627777300
5104073 3 18263087781099679816
7399639 24 18116445756516264616
9709674 26 18335418002297429030

> <PUBCHEM_SHAPE_MULTIPOLES>
442.85
10.62
4.35
0.73
7.25
2.08
-0.01
-1.74
-0.37
-3.59
0.26
0.35
0.02
0.92

> <PUBCHEM_SHAPE_SELFOVERLAP>
929.053

> <PUBCHEM_SHAPE_VOLUME>
252.8

> <PUBCHEM_COORDINATE_TYPE>
2
5
10

$$$$

