239803
  -OEChem-07051213063D

 47 50  0     1  0  0  0  0  0999 V2000
   -5.5811   -1.4189   -0.1281 Cl  0  0  0  0  0  0  0  0  0  0  0  0
   -4.6309    1.4012    0.8464 O   0  0  0  0  0  0  0  0  0  0  0  0
    5.8137   -0.3541    1.0224 O   0  0  0  0  0  0  0  0  0  0  0  0
   -0.4070   -0.6789   -0.3426 C   0  0  2  0  0  0  0  0  0  0  0  0
    0.4861    0.5049    0.1514 C   0  0  1  0  0  0  0  0  0  0  0  0
   -1.7868   -0.5433    0.3060 C   0  0  1  0  0  0  0  0  0  0  0  0
   -2.4801    0.7751   -0.0985 C   0  0  2  0  0  0  0  0  0  0  0  0
    1.9524    0.4462   -0.4268 C   0  0  2  0  0  0  0  0  0  0  0  0
   -0.2113    1.8830   -0.0339 C   0  0  0  0  0  0  0  0  0  0  0  0
   -1.6621    1.9242    0.4811 C   0  0  0  0  0  0  0  0  0  0  0  0
    0.2540   -2.0172    0.0069 C   0  0  0  0  0  0  0  0  0  0  0  0
   -2.8515   -1.6105    0.0667 C   0  0  0  0  0  0  0  0  0  0  0  0
    2.5285   -0.9604   -0.2176 C   0  0  0  0  0  0  0  0  0  0  0  0
   -3.8384    0.5215    0.5356 C   0  0  0  0  0  0  0  0  0  0  0  0
    1.6440   -2.1213   -0.6078 C   0  0  0  0  0  0  0  0  0  0  0  0
   -4.0953   -0.9667    0.7000 C   0  0  1  0  0  0  0  0  0  0  0  0
    2.8187    1.4945    0.3303 C   0  0  0  0  0  0  0  0  0  0  0  0
   -2.7285    0.9698   -1.6059 C   0  0  0  0  0  0  0  0  0  0  0  0
    1.9911    0.7627   -1.9390 C   0  0  0  0  0  0  0  0  0  0  0  0
    4.3151    1.2948    0.1475 C   0  0  0  0  0  0  0  0  0  0  0  0
    3.7598   -1.2036    0.2621 C   0  0  0  0  0  0  0  0  0  0  0  0
    4.7095   -0.1029    0.5438 C   0  0  0  0  0  0  0  0  0  0  0  0
   -0.5143   -0.6352   -1.4319 H   0  0  0  0  0  0  0  0  0  0  0  0
    0.5790    0.3724    1.2421 H   0  0  0  0  0  0  0  0  0  0  0  0
   -1.6217   -0.5328    1.3976 H   0  0  0  0  0  0  0  0  0  0  0  0
   -0.2075    2.1671   -1.0910 H   0  0  0  0  0  0  0  0  0  0  0  0
    0.3508    2.6602    0.4957 H   0  0  0  0  0  0  0  0  0  0  0  0
   -1.6587    1.8726    1.5777 H   0  0  0  0  0  0  0  0  0  0  0  0
   -2.1159    2.8901    0.2276 H   0  0  0  0  0  0  0  0  0  0  0  0
   -0.3566   -2.8484   -0.3643 H   0  0  0  0  0  0  0  0  0  0  0  0
    0.3216   -2.1332    1.0964 H   0  0  0  0  0  0  0  0  0  0  0  0
   -2.6094   -2.5572    0.5604 H   0  0  0  0  0  0  0  0  0  0  0  0
   -2.9747   -1.8149   -1.0027 H   0  0  0  0  0  0  0  0  0  0  0  0
    1.5597   -2.1513   -1.7012 H   0  0  0  0  0  0  0  0  0  0  0  0
    2.0882   -3.0786   -0.3086 H   0  0  0  0  0  0  0  0  0  0  0  0
   -4.1676   -1.2009    1.7668 H   0  0  0  0  0  0  0  0  0  0  0  0
    2.5993    1.4417    1.4060 H   0  0  0  0  0  0  0  0  0  0  0  0
    2.5629    2.5120    0.0114 H   0  0  0  0  0  0  0  0  0  0  0  0
   -1.8047    0.9968   -2.1896 H   0  0  0  0  0  0  0  0  0  0  0  0
   -3.3604    0.1829   -2.0311 H   0  0  0  0  0  0  0  0  0  0  0  0
   -3.2537    1.9162   -1.7835 H   0  0  0  0  0  0  0  0  0  0  0  0
    2.9869    0.5849   -2.3619 H   0  0  0  0  0  0  0  0  0  0  0  0
    1.2905    0.1461   -2.5104 H   0  0  0  0  0  0  0  0  0  0  0  0
    1.7440    1.8107   -2.1385 H   0  0  0  0  0  0  0  0  0  0  0  0
    4.8524    2.0027    0.7885 H   0  0  0  0  0  0  0  0  0  0  0  0
    4.6262    1.4687   -0.8872 H   0  0  0  0  0  0  0  0  0  0  0  0
    4.1286   -2.2134    0.4085 H   0  0  0  0  0  0  0  0  0  0  0  0
  1 16  1  0  0  0  0
  2 14  2  0  0  0  0
  3 22  2  0  0  0  0
  4  5  1  0  0  0  0
  4  6  1  0  0  0  0
  4 11  1  0  0  0  0
  4 23  1  0  0  0  0
  5  8  1  0  0  0  0
  5  9  1  0  0  0  0
  5 24  1  0  0  0  0
  6  7  1  0  0  0  0
  6 12  1  0  0  0  0
  6 25  1  0  0  0  0
  7 10  1  0  0  0  0
  7 14  1  0  0  0  0
  7 18  1  0  0  0  0
  8 13  1  0  0  0  0
  8 17  1  0  0  0  0
  8 19  1  0  0  0  0
  9 10  1  0  0  0  0
  9 26  1  0  0  0  0
  9 27  1  0  0  0  0
 10 28  1  0  0  0  0
 10 29  1  0  0  0  0
 11 15  1  0  0  0  0
 11 30  1  0  0  0  0
 11 31  1  0  0  0  0
 12 16  1  0  0  0  0
 12 32  1  0  0  0  0
 12 33  1  0  0  0  0
 13 15  1  0  0  0  0
 13 21  2  0  0  0  0
 14 16  1  0  0  0  0
 15 34  1  0  0  0  0
 15 35  1  0  0  0  0
 16 36  1  0  0  0  0
 17 20  1  0  0  0  0
 17 37  1  0  0  0  0
 17 38  1  0  0  0  0
 18 39  1  0  0  0  0
 18 40  1  0  0  0  0
 18 41  1  0  0  0  0
 19 42  1  0  0  0  0
 19 43  1  0  0  0  0
 19 44  1  0  0  0  0
 20 22  1  0  0  0  0
 20 45  1  0  0  0  0
 20 46  1  0  0  0  0
 21 22  1  0  0  0  0
 21 47  1  0  0  0  0
M  END
> <PUBCHEM_COMPOUND_CID>
239803

> <PUBCHEM_CONFORMER_RMSD>
0.6

> <PUBCHEM_CONFORMER_DIVERSEORDER>
1

> <PUBCHEM_MMFF94_PARTIAL_CHARGES>
13
1 -0.29
13 -0.28
14 0.45
15 0.14
16 0.35
2 -0.57
20 0.06
21 -0.14
22 0.49
3 -0.57
47 0.15
7 0.06
8 0.14

> <PUBCHEM_EFFECTIVE_ROTOR_COUNT>
1.6

> <PUBCHEM_PHARMACOPHORE_FEATURES>
6
1 2 acceptor
1 3 acceptor
5 6 7 12 14 16 rings
6 4 5 6 7 9 10 rings
6 4 5 8 11 13 15 rings
6 8 13 17 20 21 22 rings

> <PUBCHEM_HEAVY_ATOM_COUNT>
22

> <PUBCHEM_ATOM_DEF_STEREO_COUNT>
6

> <PUBCHEM_ATOM_UDEF_STEREO_COUNT>
0

> <PUBCHEM_BOND_DEF_STEREO_COUNT>
0

> <PUBCHEM_BOND_UDEF_STEREO_COUNT>
0

> <PUBCHEM_ISOTOPIC_ATOM_COUNT>
0

> <PUBCHEM_COMPONENT_COUNT>
1

> <PUBCHEM_CACTVS_TAUTO_COUNT>
10

> <PUBCHEM_CONFORMER_ID>
0003A8BB00000001

> <PUBCHEM_MMFF94_ENERGY>
63.5719

> <PUBCHEM_FEATURE_SELFOVERLAP>
30.544

> <PUBCHEM_SHAPE_FINGERPRINT>
10062212 137 18413109437817567155
10967382 1 18409444748070876286
11132069 177 18412818110222575311
11578080 2 16771277065537362278
12107183 9 17834677479997630762
12166972 35 18060139803926616956
12236239 1 18060419114709068032
12403259 226 18340491170322642484
12403259 415 18410862044772469220
12403260 363 18338238167464134813
12403814 3 17989486316850502669
12839892 36 18408895048382337306
13140716 1 18337953385462800760
13214271 11 18259704514948593765
13224815 77 18409446990122913223
13583140 156 17202782478252890556
13675066 3 18272929427342254914
13862211 1 18337956697136085667
14178342 30 18338508754699081481
14223421 5 18264486354909427732
14251764 18 18342461413966162578
14341114 176 18409444825992276034
14787075 74 18338518542918733298
15163728 17 14636254149019328689
15196674 1 18409445899285687467
15536298 74 18261104222956976998
15788980 27 17131834269977924357
16945 1 18266739279978196734
17349148 13 18201718453168462452
17492 89 18339361988576008818
1813 80 17275102864729562662
19050596 39 18411976970599559465
192875 21 17489584541397310301
19862831 5 9223232940170671094
200 152 18334582326294488439
20028762 73 18114748126862601079
20715895 44 18056203715993668013
21033648 29 18269012975883933744
21267235 1 18410566271406421066
21421861 104 18057323001238970250
21637258 2 15769508607667441386
23402539 116 18335146383769112917
23557571 272 18113890550741854679
23558518 356 18125147479704720065
23559900 14 18263081192356499094
26918003 58 18412547625771997065
2838139 119 15069206484941484650
296302 2 15936412251458682532
3286 77 18338797810767530973
335352 9 18337668740678789565
34934 24 18336549425579225635
350125 39 18412824655404743836
392239 28 18260824895221159417
42 15 18272368676686434752
4214541 1 18411418423214632377
474229 33 18409168787959151014
5104073 3 18337385036973080267
5283173 99 18130239254340715013
7364860 26 18116708702524135782
9709674 26 18409720790009455183

> <PUBCHEM_SHAPE_MULTIPOLES>
442.88
10.5
2.14
1.07
0.19
0.17
0.43
1.32
-2.64
-0.4
0.01
0.1
-0.24
-0.11

> <PUBCHEM_SHAPE_SELFOVERLAP>
946.469

> <PUBCHEM_SHAPE_VOLUME>
247

> <PUBCHEM_COORDINATE_TYPE>
2
5
10

$$$$

