43270
  -OEChem-07051213112D

 33 38  0     1  0  0  0  0  0999 V2000
    6.3479    0.8390    0.0000 O   0  0  0  0  0  0  0  0  0  0  0  0
    5.4814    0.3390    0.0000 C   0  0  3  0  0  0  0  0  0  0  0  0
    5.4814    1.3390    0.0000 C   0  0  3  0  0  0  0  0  0  0  0  0
    4.6153   -0.1610    0.0000 C   0  0  0  0  0  0  0  0  0  0  0  0
    4.6153    1.8390    0.0000 C   0  0  0  0  0  0  0  0  0  0  0  0
    3.7493    0.3390    0.0000 C   0  0  0  0  0  0  0  0  0  0  0  0
    3.7493    1.3390    0.0000 C   0  0  0  0  0  0  0  0  0  0  0  0
    4.6314   -1.2025    0.0000 C   0  0  0  0  0  0  0  0  0  0  0  0
    2.8393   -0.1678    0.0000 C   0  0  0  0  0  0  0  0  0  0  0  0
    2.8911    1.8360    0.0000 C   0  0  0  0  0  0  0  0  0  0  0  0
    4.6252    2.8502    0.0000 C   0  0  0  0  0  0  0  0  0  0  0  0
    3.7334   -1.7302    0.0000 C   0  0  0  0  0  0  0  0  0  0  0  0
    2.8313   -1.2094    0.0000 C   0  0  0  0  0  0  0  0  0  0  0  0
    2.0000    0.3604    0.0000 C   0  0  0  0  0  0  0  0  0  0  0  0
    2.0256    1.3518    0.0000 C   0  0  0  0  0  0  0  0  0  0  0  0
    2.8776    2.8471    0.0000 C   0  0  0  0  0  0  0  0  0  0  0  0
    3.7505    3.3577    0.0000 C   0  0  0  0  0  0  0  0  0  0  0  0
    5.5833   -1.7231    0.0000 C   0  0  0  0  0  0  0  0  0  0  0  0
    3.7250   -2.8152    0.0000 C   0  0  0  0  0  0  0  0  0  0  0  0
    5.6001   -2.8080    0.0000 C   0  0  0  0  0  0  0  0  0  0  0  0
    4.6646   -3.3577    0.0000 C   0  0  0  0  0  0  0  0  0  0  0  0
    5.7913   -0.1979    0.0000 H   0  0  0  0  0  0  0  0  0  0  0  0
    5.7913    1.8760    0.0000 H   0  0  0  0  0  0  0  0  0  0  0  0
    5.1640    3.1570    0.0000 H   0  0  0  0  0  0  0  0  0  0  0  0
    2.2932   -1.5173    0.0000 H   0  0  0  0  0  0  0  0  0  0  0  0
    1.4534    0.0677    0.0000 H   0  0  0  0  0  0  0  0  0  0  0  0
    1.4949    1.6723    0.0000 H   0  0  0  0  0  0  0  0  0  0  0  0
    2.3378    3.1520    0.0000 H   0  0  0  0  0  0  0  0  0  0  0  0
    3.7494    3.9777    0.0000 H   0  0  0  0  0  0  0  0  0  0  0  0
    6.1142   -1.4028    0.0000 H   0  0  0  0  0  0  0  0  0  0  0  0
    3.1869   -3.1231    0.0000 H   0  0  0  0  0  0  0  0  0  0  0  0
    6.1405   -3.1117    0.0000 H   0  0  0  0  0  0  0  0  0  0  0  0
    4.6670   -3.9777    0.0000 H   0  0  0  0  0  0  0  0  0  0  0  0
  1  2  1  0  0  0  0
  1  3  1  0  0  0  0
  2  3  1  0  0  0  0
  2  4  1  0  0  0  0
  2 22  1  0  0  0  0
  3  5  1  0  0  0  0
  3 23  1  0  0  0  0
  4  6  2  0  0  0  0
  4  8  1  0  0  0  0
  5  7  1  0  0  0  0
  5 11  2  0  0  0  0
  6  7  1  0  0  0  0
  6  9  1  0  0  0  0
  7 10  2  0  0  0  0
  8 12  1  0  0  0  0
  8 18  2  0  0  0  0
  9 13  2  0  0  0  0
  9 14  1  0  0  0  0
 10 15  1  0  0  0  0
 10 16  1  0  0  0  0
 11 17  1  0  0  0  0
 11 24  1  0  0  0  0
 12 13  1  0  0  0  0
 12 19  2  0  0  0  0
 13 25  1  0  0  0  0
 14 15  2  0  0  0  0
 14 26  1  0  0  0  0
 15 27  1  0  0  0  0
 16 17  2  0  0  0  0
 16 28  1  0  0  0  0
 17 29  1  0  0  0  0
 18 20  1  0  0  0  0
 18 30  1  0  0  0  0
 19 21  1  0  0  0  0
 19 31  1  0  0  0  0
 20 21  2  0  0  0  0
 20 32  1  0  0  0  0
 21 33  1  0  0  0  0
M  END
> <PUBCHEM_COMPOUND_CID>
43270

> <PUBCHEM_COMPOUND_CANONICALIZED>
1

> <PUBCHEM_CACTVS_COMPLEXITY>
445

> <PUBCHEM_CACTVS_HBOND_ACCEPTOR>
1

> <PUBCHEM_CACTVS_HBOND_DONOR>
0

> <PUBCHEM_CACTVS_ROTATABLE_BOND>
0

> <PUBCHEM_CACTVS_SUBSKEYS>
AAADccB4IAAAAAAAAAAAAAAAEgAAAAAAAAAwYMGDBIAAAADBVAAAGgAAAAAADBSgmAIwAMAABACAAiBCAAACAAAgAAAIiAAACIgIJiKAMRiCMAAkwAEIqAeAwPAOwAACAAAQAADAAAYAADAAAAAAAAAAAA==

> <PUBCHEM_IUPAC_INCHI>
InChI=1S/C20H12O/c1-2-6-14-12(4-1)10-13-9-8-11-5-3-7-15-16(11)17(13)18(14)20-19(15)21-20/h1-10,19-20H

> <PUBCHEM_IUPAC_INCHIKEY>
ISBWKKKMLFVMHH-UHFFFAOYSA-N

> <PUBCHEM_XLOGP3_AA>
4.7

> <PUBCHEM_EXACT_MASS>
268.088815

> <PUBCHEM_MOLECULAR_FORMULA>
C20H12O

> <PUBCHEM_MOLECULAR_WEIGHT>
268.30868

> <PUBCHEM_OPENEYE_CAN_SMILES>
C1=CC=C2C(=C1)C=C3C=CC4=C5C3=C2C6C(C5=CC=C4)O6

> <PUBCHEM_OPENEYE_ISO_SMILES>
C1=CC=C2C(=C1)C=C3C=CC4=C5C3=C2C6C(C5=CC=C4)O6

> <PUBCHEM_CACTVS_TPSA>
12.5

> <PUBCHEM_MONOISOTOPIC_WEIGHT>
268.088815

> <PUBCHEM_TOTAL_CHARGE>
0

> <PUBCHEM_HEAVY_ATOM_COUNT>
21

> <PUBCHEM_ATOM_DEF_STEREO_COUNT>
0

> <PUBCHEM_ATOM_UDEF_STEREO_COUNT>
2

> <PUBCHEM_BOND_DEF_STEREO_COUNT>
0

> <PUBCHEM_BOND_UDEF_STEREO_COUNT>
0

> <PUBCHEM_ISOTOPIC_ATOM_COUNT>
0

> <PUBCHEM_COMPONENT_COUNT>
1

> <PUBCHEM_CACTVS_TAUTO_COUNT>
1

> <PUBCHEM_COORDINATE_TYPE>
1
5
255

> <PUBCHEM_BONDANNOTATIONS>
2  1  3
3  1  3
10  15  8
10  16  8
11  17  8
12  13  8
12  19  8
14  15  8
16  17  8
18  20  8
19  21  8
20  21  8
4  6  8
4  8  8
5  11  8
5  7  8
6  7  8
6  9  8
7  10  8
8  12  8
8  18  8
9  13  8
9  14  8

$$$$

