5029
  -OEChem-07051212543D

 46 48  0     1  0  0  0  0  0999 V2000
    1.7075   -1.1417   -0.8490 S   0  0  1  0  0  0  0  0  0  0  0  0
   -4.0107   -0.5597   -0.7901 O   0  0  0  0  0  0  0  0  0  0  0  0
   -7.6703    2.5194   -0.3245 O   0  0  0  0  0  0  0  0  0  0  0  0
    1.9469   -2.6323   -0.7108 O   0  0  0  0  0  0  0  0  0  0  0  0
    4.4705   -0.7188   -0.8340 N   0  0  0  0  0  0  0  0  0  0  0  0
    3.2805    0.8601    0.1816 N   0  0  0  0  0  0  0  0  0  0  0  0
   -0.8221   -2.4294    1.1122 N   0  0  0  0  0  0  0  0  0  0  0  0
    0.6889   -0.6330    0.5660 C   0  0  0  0  0  0  0  0  0  0  0  0
   -0.6858   -1.2332    0.5043 C   0  0  0  0  0  0  0  0  0  0  0  0
   -1.7052   -0.5614   -0.1431 C   0  0  0  0  0  0  0  0  0  0  0  0
   -2.9591   -1.1619   -0.1689 C   0  0  0  0  0  0  0  0  0  0  0  0
    3.2275   -0.2778   -0.4740 C   0  0  0  0  0  0  0  0  0  0  0  0
    5.3867    0.1951   -0.3804 C   0  0  0  0  0  0  0  0  0  0  0  0
   -5.1495   -0.2537    0.0126 C   0  0  0  0  0  0  0  0  0  0  0  0
   -5.8459    0.9663   -0.5675 C   0  0  0  0  0  0  0  0  0  0  0  0
    4.6193    1.1708    0.2498 C   0  0  0  0  0  0  0  0  0  0  0  0
   -1.4802    0.7595   -0.7980 C   0  0  0  0  0  0  0  0  0  0  0  0
   -3.1457   -2.3954    0.4452 C   0  0  0  0  0  0  0  0  0  0  0  0
   -7.0669    1.3659    0.2460 C   0  0  0  0  0  0  0  0  0  0  0  0
    6.7784    0.2504   -0.4646 C   0  0  0  0  0  0  0  0  0  0  0  0
   -2.0551   -2.9822    1.0666 C   0  0  0  0  0  0  0  0  0  0  0  0
    5.2615    2.2745    0.8362 C   0  0  0  0  0  0  0  0  0  0  0  0
    7.4012    1.3558    0.1246 C   0  0  0  0  0  0  0  0  0  0  0  0
    6.6580    2.3508    0.7637 C   0  0  0  0  0  0  0  0  0  0  0  0
   -8.8304    2.9120    0.3963 C   0  0  0  0  0  0  0  0  0  0  0  0
    0.6588    0.4588    0.6242 H   0  0  0  0  0  0  0  0  0  0  0  0
    1.1941   -0.9793    1.4759 H   0  0  0  0  0  0  0  0  0  0  0  0
   -4.8500   -0.0486    1.0486 H   0  0  0  0  0  0  0  0  0  0  0  0
   -5.8269   -1.1152    0.0067 H   0  0  0  0  0  0  0  0  0  0  0  0
   -5.1430    1.8075   -0.6244 H   0  0  0  0  0  0  0  0  0  0  0  0
   -6.1341    0.7761   -1.6092 H   0  0  0  0  0  0  0  0  0  0  0  0
    4.6792   -1.5672   -1.3436 H   0  0  0  0  0  0  0  0  0  0  0  0
   -1.2819    1.5298   -0.0456 H   0  0  0  0  0  0  0  0  0  0  0  0
   -2.3470    1.0953   -1.3766 H   0  0  0  0  0  0  0  0  0  0  0  0
   -0.6453    0.7151   -1.5039 H   0  0  0  0  0  0  0  0  0  0  0  0
   -4.1066   -2.8981    0.4387 H   0  0  0  0  0  0  0  0  0  0  0  0
   -7.7914    0.5429    0.2569 H   0  0  0  0  0  0  0  0  0  0  0  0
   -6.7718    1.5857    1.2789 H   0  0  0  0  0  0  0  0  0  0  0  0
    7.3529   -0.5231   -0.9613 H   0  0  0  0  0  0  0  0  0  0  0  0
   -2.1475   -3.9451    1.5582 H   0  0  0  0  0  0  0  0  0  0  0  0
    4.6932    3.0528    1.3352 H   0  0  0  0  0  0  0  0  0  0  0  0
    8.4843    1.4411    0.0837 H   0  0  0  0  0  0  0  0  0  0  0  0
    7.1705    3.1979    1.2123 H   0  0  0  0  0  0  0  0  0  0  0  0
   -8.5737    3.1611    1.4305 H   0  0  0  0  0  0  0  0  0  0  0  0
   -9.5827    2.1176    0.3750 H   0  0  0  0  0  0  0  0  0  0  0  0
   -9.2488    3.8012   -0.0829 H   0  0  0  0  0  0  0  0  0  0  0  0
  1  4  2  0  0  0  0
  1  8  1  0  0  0  0
  1 12  1  0  0  0  0
  2 11  1  0  0  0  0
  2 14  1  0  0  0  0
  3 19  1  0  0  0  0
  3 25  1  0  0  0  0
  5 12  1  0  0  0  0
  5 13  1  0  0  0  0
  5 32  1  0  0  0  0
  6 12  2  0  0  0  0
  6 16  1  0  0  0  0
  7  9  2  0  0  0  0
  7 21  1  0  0  0  0
  8  9  1  0  0  0  0
  8 26  1  0  0  0  0
  8 27  1  0  0  0  0
  9 10  1  0  0  0  0
 10 11  2  0  0  0  0
 10 17  1  0  0  0  0
 11 18  1  0  0  0  0
 13 16  1  0  0  0  0
 13 20  2  0  0  0  0
 14 15  1  0  0  0  0
 14 28  1  0  0  0  0
 14 29  1  0  0  0  0
 15 19  1  0  0  0  0
 15 30  1  0  0  0  0
 15 31  1  0  0  0  0
 16 22  2  0  0  0  0
 17 33  1  0  0  0  0
 17 34  1  0  0  0  0
 17 35  1  0  0  0  0
 18 21  2  0  0  0  0
 18 36  1  0  0  0  0
 19 37  1  0  0  0  0
 19 38  1  0  0  0  0
 20 23  1  0  0  0  0
 20 39  1  0  0  0  0
 21 40  1  0  0  0  0
 22 24  1  0  0  0  0
 22 41  1  0  0  0  0
 23 24  2  0  0  0  0
 23 42  1  0  0  0  0
 24 43  1  0  0  0  0
 25 44  1  0  0  0  0
 25 45  1  0  0  0  0
 25 46  1  0  0  0  0
M  END
> <PUBCHEM_COMPOUND_CID>
5029

> <PUBCHEM_CONFORMER_RMSD>
0.8

> <PUBCHEM_CONFORMER_DIVERSEORDER>
1
128
318
392
409
269
82
111
251
119
217
236
334
332
368
218
201
386
95
27
374
240
197
149
83
151
74
222
17
8
42
16
63
345
255
135
123
328
121
385
26
106
40
425
249
379
401
299
9
435
316
108
350
30
365
273
162
29
127
54
117
258
205
363
45
413
182
49
89
256
214
185
211
73
35
38
15
330
161
41
408
186
120
61
360
245
434
271
248
6
309
140
343
390
94
326
194
223
279
383
306
70
85
339
7
436
28
338
373
141
170
356
163
110
48
88
142
221
147
359
246
145
304
357
202
263
87
154
377
278
12
241
39
96
196
267
382
152
137
11
44
308
79
220
136
348
231
371
139
71
297
138
227
100
157
156
130
67
153
2
264
431
277
354
323
230
55
275
415
212
216
46
10
206
69
331
165
155
167
315
5
20
56
404
189
233
298
280
219
116
122
410
344
158
14
43
421
284
312
291
427
22
329
204
295
53
209
133
311
347
193
168
375
25
341
261
355
76
107
406
294
57
84
388
235
393
18
190
179
378
243
349
112
176
387
411
253
160
183
398
407
105
274
174
301
288
290
307
250
303
437
114
177
429
381
146
134
47
184
391
247
92
66
268
109
178
412
432
164
65
169
238
327
13
64
384
32
242
19
276
195
50
33
402
439
282
335
419
266
24
4
286
98
296
397
34
131
36
188
366
324
159
58
336
225
78
208
101
3
333
59
340
239
319
51
86
405
224
80
423
237
180
166
77
305
337
270
325
396
321
376
281
287
192
91
68
313
418
244
60
203
352
199
322
23
310
403
215
102
272
228
150
293
420
213
426
428
320
395
400
97
370
438
317
124
99
417
342
422
265
75
191
113
430
254
144
257
132
181
433
187
232
302
103
260
285
198
52
115
81
72
226
37
353
93
31
416
200
394
234
362
104
129
143
171
172
126
21
283
369
173
292
314
440
125
424
364
380
300
399
210
414
351
118
207
148
358
62
259
372
346
90
252
289
175
229
262
367
361
389

> <PUBCHEM_MMFF94_PARTIAL_CHARGES>
31
1 0.3
10 -0.14
11 0.08
12 0.2
13 -0.15
14 0.28
16 0.23
17 0.14
18 -0.15
19 0.28
2 -0.36
20 -0.15
21 0.16
22 -0.15
23 -0.15
24 -0.15
25 0.28
3 -0.56
32 0.27
36 0.15
39 0.15
4 -0.5
40 0.15
41 0.15
42 0.15
43 0.15
5 0.03
6 -0.57
7 -0.62
8 0.34
9 0.17

> <PUBCHEM_EFFECTIVE_ROTOR_COUNT>
8

> <PUBCHEM_PHARMACOPHORE_FEATURES>
9
1 2 acceptor
1 3 acceptor
1 4 acceptor
1 5 donor
1 7 acceptor
3 5 6 12 cation
5 5 6 12 13 16 rings
6 13 16 20 22 23 24 rings
6 7 9 10 11 18 21 rings

> <PUBCHEM_HEAVY_ATOM_COUNT>
25

> <PUBCHEM_ATOM_DEF_STEREO_COUNT>
0

> <PUBCHEM_ATOM_UDEF_STEREO_COUNT>
1

> <PUBCHEM_BOND_DEF_STEREO_COUNT>
0

> <PUBCHEM_BOND_UDEF_STEREO_COUNT>
0

> <PUBCHEM_ISOTOPIC_ATOM_COUNT>
0

> <PUBCHEM_COMPONENT_COUNT>
1

> <PUBCHEM_CACTVS_TAUTO_COUNT>
1

> <PUBCHEM_CONFORMER_ID>
000013A500000001

> <PUBCHEM_MMFF94_ENERGY>
63.0616

> <PUBCHEM_FEATURE_SELFOVERLAP>
45.776

> <PUBCHEM_SHAPE_FINGERPRINT>
10 15 17988922306425391513
10835480 77 18333167267044490510
11135609 201 18200601401706873381
11409948 41 16009296739277667908
12236239 1 15357962440362172062
12616971 3 15841556219800933758
12895837 130 18262801753072532741
13402501 40 18336830793166312884
13533116 47 18131079264123685362
13690498 29 16806463396759074663
13862211 1 8214135266628796087
14556957 393 15430303699192986913
15183329 4 16877661284008863449
15778101 99 18413389813419845611
19489759 90 17845097273059739882
20621476 66 18343863299011359245
20715895 44 18410854343721787272
21033648 29 18059851757650027358
21298829 104 18410011044252811925
21424621 283 18412824720504285193
21756936 100 18412827972174765015
22224240 67 18060416946309583851
23559900 14 18272922831027622702
24771293 8 18343021095391891533
4073 2 18201155435107832314
4516262 110 18269281317720539525
465052 167 12103576281820650936
5104073 3 17918279739990557691
5385378 56 17917997225526136026
5758199 1 18343301496768922953
5969126 39 18122066391075273407
636775 72 18410296869778497609
9980921 177 18270977855013231058

> <PUBCHEM_SHAPE_MULTIPOLES>
485.79
23.24
3.18
0.95
14.49
0.05
0.04
-26.6
0.67
3.93
0.9
-0.19
0.21
1.59

> <PUBCHEM_SHAPE_SELFOVERLAP>
1017.288

> <PUBCHEM_SHAPE_VOLUME>
276.9

> <PUBCHEM_COORDINATE_TYPE>
2
5
10

$$$$

