443404
  -OEChem-07051213023D

 38 40  0     1  0  0  0  0  0999 V2000
   -4.3027    0.2128   -0.7165 O   0  0  0  0  0  0  0  0  0  0  0  0
    2.6220   -0.6429   -0.6338 N   0  0  2  0  0  0  0  0  0  0  0  0
    0.4961    1.3296   -0.1893 C   0  0  1  0  0  0  0  0  0  0  0  0
    1.6179    1.0333    0.8531 C   0  0  2  0  0  0  0  0  0  0  0  0
    2.0328   -0.4476    0.7084 C   0  0  1  0  0  0  0  0  0  0  0  0
    1.0997    1.0647   -1.5970 C   0  0  0  0  0  0  0  0  0  0  0  0
   -0.6969    0.3795    0.0020 C   0  0  0  0  0  0  0  0  0  0  0  0
    0.8453   -1.3682    1.0636 C   0  0  0  0  0  0  0  0  0  0  0  0
    1.7158   -0.3331   -1.7404 C   0  0  0  0  0  0  0  0  0  0  0  0
   -0.5053   -0.8996    0.5712 C   0  0  0  0  0  0  0  0  0  0  0  0
    0.0954    2.8192   -0.1077 C   0  0  0  0  0  0  0  0  0  0  0  0
    1.2521    1.3956    2.3016 C   0  0  0  0  0  0  0  0  0  0  0  0
    3.2474   -1.9497   -0.8095 C   0  0  0  0  0  0  0  0  0  0  0  0
   -1.9880    0.7261   -0.4368 C   0  0  0  0  0  0  0  0  0  0  0  0
   -1.5982   -1.7702    0.7221 C   0  0  0  0  0  0  0  0  0  0  0  0
   -3.0635   -0.1517   -0.2867 C   0  0  0  0  0  0  0  0  0  0  0  0
   -2.8699   -1.3978    0.2960 C   0  0  0  0  0  0  0  0  0  0  0  0
    2.4947    1.6526    0.6077 H   0  0  0  0  0  0  0  0  0  0  0  0
    2.8337   -0.6438    1.4343 H   0  0  0  0  0  0  0  0  0  0  0  0
    1.8832    1.8088   -1.7988 H   0  0  0  0  0  0  0  0  0  0  0  0
    0.3400    1.1992   -2.3780 H   0  0  0  0  0  0  0  0  0  0  0  0
    0.7830   -1.4350    2.1585 H   0  0  0  0  0  0  0  0  0  0  0  0
    1.0267   -2.3899    0.7127 H   0  0  0  0  0  0  0  0  0  0  0  0
    0.9260   -1.0886   -1.8314 H   0  0  0  0  0  0  0  0  0  0  0  0
    2.2712   -0.3567   -2.6866 H   0  0  0  0  0  0  0  0  0  0  0  0
   -0.5016    3.1302   -0.9724 H   0  0  0  0  0  0  0  0  0  0  0  0
   -0.4925    3.0337    0.7916 H   0  0  0  0  0  0  0  0  0  0  0  0
    0.9820    3.4640   -0.0923 H   0  0  0  0  0  0  0  0  0  0  0  0
    2.0394    1.0669    2.9887 H   0  0  0  0  0  0  0  0  0  0  0  0
    1.1577    2.4799    2.4191 H   0  0  0  0  0  0  0  0  0  0  0  0
    0.3112    0.9446    2.6292 H   0  0  0  0  0  0  0  0  0  0  0  0
    3.8378   -1.9651   -1.7327 H   0  0  0  0  0  0  0  0  0  0  0  0
    2.5193   -2.7652   -0.8658 H   0  0  0  0  0  0  0  0  0  0  0  0
    3.9454   -2.1626    0.0076 H   0  0  0  0  0  0  0  0  0  0  0  0
   -2.1740    1.6851   -0.9124 H   0  0  0  0  0  0  0  0  0  0  0  0
   -1.4578   -2.7497    1.1736 H   0  0  0  0  0  0  0  0  0  0  0  0
   -3.6978   -2.0902    0.4205 H   0  0  0  0  0  0  0  0  0  0  0  0
   -4.9253   -0.5124   -0.5361 H   0  0  0  0  0  0  0  0  0  0  0  0
  1 16  1  0  0  0  0
  1 38  1  0  0  0  0
  2  5  1  0  0  0  0
  2  9  1  0  0  0  0
  2 13  1  0  0  0  0
  3  4  1  0  0  0  0
  3  6  1  0  0  0  0
  3  7  1  0  0  0  0
  3 11  1  0  0  0  0
  4  5  1  0  0  0  0
  4 12  1  0  0  0  0
  4 18  1  0  0  0  0
  5  8  1  0  0  0  0
  5 19  1  0  0  0  0
  6  9  1  0  0  0  0
  6 20  1  0  0  0  0
  6 21  1  0  0  0  0
  7 10  2  0  0  0  0
  7 14  1  0  0  0  0
  8 10  1  0  0  0  0
  8 22  1  0  0  0  0
  8 23  1  0  0  0  0
  9 24  1  0  0  0  0
  9 25  1  0  0  0  0
 10 15  1  0  0  0  0
 11 26  1  0  0  0  0
 11 27  1  0  0  0  0
 11 28  1  0  0  0  0
 12 29  1  0  0  0  0
 12 30  1  0  0  0  0
 12 31  1  0  0  0  0
 13 32  1  0  0  0  0
 13 33  1  0  0  0  0
 13 34  1  0  0  0  0
 14 16  2  0  0  0  0
 14 35  1  0  0  0  0
 15 17  2  0  0  0  0
 15 36  1  0  0  0  0
 16 17  1  0  0  0  0
 17 37  1  0  0  0  0
M  END
> <PUBCHEM_COMPOUND_CID>
443404

> <PUBCHEM_CONFORMER_RMSD>
0.6

> <PUBCHEM_CONFORMER_DIVERSEORDER>
1

> <PUBCHEM_MMFF94_PARTIAL_CHARGES>
17
1 -0.53
10 -0.14
13 0.27
14 -0.15
15 -0.15
16 0.08
17 -0.15
2 -0.81
3 0.14
35 0.15
36 0.15
37 0.15
38 0.45
5 0.27
7 -0.14
8 0.14
9 0.27

> <PUBCHEM_EFFECTIVE_ROTOR_COUNT>
1

> <PUBCHEM_PHARMACOPHORE_FEATURES>
5
1 1 donor
1 2 cation
6 2 3 4 5 6 9 rings
6 3 4 5 7 8 10 rings
6 7 10 14 15 16 17 rings

> <PUBCHEM_HEAVY_ATOM_COUNT>
17

> <PUBCHEM_ATOM_DEF_STEREO_COUNT>
3

> <PUBCHEM_ATOM_UDEF_STEREO_COUNT>
0

> <PUBCHEM_BOND_DEF_STEREO_COUNT>
0

> <PUBCHEM_BOND_UDEF_STEREO_COUNT>
0

> <PUBCHEM_ISOTOPIC_ATOM_COUNT>
0

> <PUBCHEM_COMPONENT_COUNT>
1

> <PUBCHEM_CACTVS_TAUTO_COUNT>
3

> <PUBCHEM_CONFORMER_ID>
0006C40C00000001

> <PUBCHEM_MMFF94_ENERGY>
52.6288

> <PUBCHEM_FEATURE_SELFOVERLAP>
26.888

> <PUBCHEM_SHAPE_FINGERPRINT>
104564 63 18052535766324178833
10863032 1 18270952458502096996
10948715 1 17770497534860160332
12326174 3 17168973479357254152
12423570 1 14376709502533276024
12654903 92 18131345332298012758
12725867 57 18409170991356397676
13134695 92 17749395866307594720
13464514 151 18127679448878078436
13571099 22 18407762521430003951
14115302 16 18131062762067705311
141345 1 16241757879180386960
144361 1 17775558749727164114
14648413 74 18126561219872172081
14817 1 13605773824962528736
15001771 113 18270384105379557860
16945 1 18197497539756622050
17990270 104 18268430122803506139
1813 80 15575534965176413372
18186145 218 18410584994007218709
20233049 118 17846229876951348837
20473742 2 17386020437723927976
20559304 39 17774452589854043587
20645476 183 16917345926898870075
21069387 34 17095242531780415143
21524375 3 17186439036585892409
22802520 49 17985526880472798355
2334 1 17841993291472662459
23419403 2 17897471564371389216
23493267 7 16773789355349164385
23559900 14 18341608227413717950
25 1 13254789149051748478
2748010 2 17985829229328021699
528886 8 17418088827887188518
549884 4 18201994391905980999
5845 1 13079694602235175100
7364860 26 18194959639001916917
74978 22 18340482271229045659
81228 2 17682090494884983784
9981440 41 16480748366913463700

> <PUBCHEM_SHAPE_MULTIPOLES>
339
4.69
2.23
1.57
3.64
0.61
-0.27
-1.96
1.26
-0.63
-0.2
-1.01
0.33
0.78

> <PUBCHEM_SHAPE_SELFOVERLAP>
729.443

> <PUBCHEM_SHAPE_VOLUME>
186

> <PUBCHEM_COORDINATE_TYPE>
2
5
10

$$$$

