56928167
  -OEChem-07051213153D

 65 66  0     1  0  0  0  0  0999 V2000
    5.7146   -0.6845    0.5833 Cl  0  0  0  0  0  0  0  0  0  0  0  0
   -2.9725   -2.0611   -0.8697 O   0  0  0  0  0  0  0  0  0  0  0  0
    1.9154   -5.0475    0.4038 O   0  0  0  0  0  0  0  0  0  0  0  0
   -5.3906    2.5358   -0.4808 O   0  0  0  0  0  0  0  0  0  0  0  0
   -5.2190   -0.0724   -1.1357 O   0  0  0  0  0  0  0  0  0  0  0  0
    1.0884   -1.1667   -1.9020 O   0  0  0  0  0  0  0  0  0  0  0  0
    6.0027    2.2139    1.1100 O   0  0  0  0  0  0  0  0  0  0  0  0
    3.0981   -1.1764   -0.6790 N   0  0  0  0  0  0  0  0  0  0  0  0
   -1.9775   -2.1886    1.3590 C   0  0  2  0  0  0  0  0  0  0  0  0
   -2.6649   -1.2960    0.2950 C   0  0  2  0  0  0  0  0  0  0  0  0
   -3.9740   -0.6927    0.8159 C   0  0  0  0  0  0  0  0  0  0  0  0
   -0.5494   -2.5348    0.9751 C   0  0  0  0  0  0  0  0  0  0  0  0
   -0.0231   -3.5942    0.3248 C   0  0  0  0  0  0  0  0  0  0  0  0
   -2.8277   -3.3825    1.8121 C   0  0  0  0  0  0  0  0  0  0  0  0
    1.4922   -3.7003    0.1828 C   0  0  2  0  0  0  0  0  0  0  0  0
   -4.5759    0.3112   -0.1565 C   0  0  0  0  0  0  0  0  0  0  0  0
    2.0011   -3.2571   -1.1944 C   0  0  0  0  0  0  0  0  0  0  0  0
   -4.3349    1.7919    0.1093 C   0  0  1  0  0  0  0  0  0  0  0  0
   -0.8159   -4.7120   -0.2949 C   0  0  0  0  0  0  0  0  0  0  0  0
    2.0010   -1.7435   -1.3175 C   0  0  0  0  0  0  0  0  0  0  0  0
   -3.0328    2.1875   -0.5138 C   0  0  0  0  0  0  0  0  0  0  0  0
    1.6596    3.6234   -0.6609 C   0  0  0  0  0  0  0  0  0  0  0  0
    2.6912    2.5505   -0.3913 C   0  0  0  0  0  0  0  0  0  0  0  0
    3.3337    0.1965   -0.4332 C   0  0  0  0  0  0  0  0  0  0  0  0
    0.3945    3.4371    0.1608 C   0  0  0  0  0  0  0  0  0  0  0  0
    2.4204    1.2120   -0.7313 C   0  0  0  0  0  0  0  0  0  0  0  0
   -1.9888    2.6617    0.1836 C   0  0  0  0  0  0  0  0  0  0  0  0
   -0.7232    2.9810   -0.4389 C   0  0  0  0  0  0  0  0  0  0  0  0
    3.9072    2.8684    0.2224 C   0  0  0  0  0  0  0  0  0  0  0  0
    4.5425    0.5367    0.1880 C   0  0  0  0  0  0  0  0  0  0  0  0
    4.8304    1.8646    0.5065 C   0  0  0  0  0  0  0  0  0  0  0  0
    0.5237    3.7865    1.6200 C   0  0  0  0  0  0  0  0  0  0  0  0
   -6.5460    2.5517    0.3474 C   0  0  0  0  0  0  0  0  0  0  0  0
   -1.8646   -1.5676    2.2610 H   0  0  0  0  0  0  0  0  0  0  0  0
   -1.9760   -0.5001   -0.0105 H   0  0  0  0  0  0  0  0  0  0  0  0
   -4.7357   -1.4677    0.9642 H   0  0  0  0  0  0  0  0  0  0  0  0
   -3.8217   -0.1997    1.7819 H   0  0  0  0  0  0  0  0  0  0  0  0
    0.1591   -1.7829    1.3286 H   0  0  0  0  0  0  0  0  0  0  0  0
   -3.2534   -3.9417    0.9752 H   0  0  0  0  0  0  0  0  0  0  0  0
   -3.6687   -3.0392    2.4249 H   0  0  0  0  0  0  0  0  0  0  0  0
   -2.2451   -4.0742    2.4304 H   0  0  0  0  0  0  0  0  0  0  0  0
    1.9747   -3.1049    0.9682 H   0  0  0  0  0  0  0  0  0  0  0  0
    1.3980   -3.6786   -2.0070 H   0  0  0  0  0  0  0  0  0  0  0  0
    3.0205   -3.6264   -1.3649 H   0  0  0  0  0  0  0  0  0  0  0  0
   -4.3197    1.9667    1.1922 H   0  0  0  0  0  0  0  0  0  0  0  0
   -0.3498   -5.0532   -1.2251 H   0  0  0  0  0  0  0  0  0  0  0  0
   -1.8278   -4.4088   -0.5662 H   0  0  0  0  0  0  0  0  0  0  0  0
   -0.8714   -5.5642    0.3895 H   0  0  0  0  0  0  0  0  0  0  0  0
   -3.2783   -1.4467   -1.5581 H   0  0  0  0  0  0  0  0  0  0  0  0
   -2.9486    2.0591   -1.5915 H   0  0  0  0  0  0  0  0  0  0  0  0
    2.8878   -5.0562    0.3938 H   0  0  0  0  0  0  0  0  0  0  0  0
    2.0754    4.6190   -0.4590 H   0  0  0  0  0  0  0  0  0  0  0  0
    1.4404    3.6189   -1.7370 H   0  0  0  0  0  0  0  0  0  0  0  0
    3.8173   -1.8077   -0.3326 H   0  0  0  0  0  0  0  0  0  0  0  0
    1.4684    0.9932   -1.2017 H   0  0  0  0  0  0  0  0  0  0  0  0
   -2.0846    2.7774    1.2576 H   0  0  0  0  0  0  0  0  0  0  0  0
   -0.6777    2.7794   -1.5091 H   0  0  0  0  0  0  0  0  0  0  0  0
    4.1239    3.9007    0.4866 H   0  0  0  0  0  0  0  0  0  0  0  0
    0.9535    4.7881    1.7293 H   0  0  0  0  0  0  0  0  0  0  0  0
   -0.4301    3.7956    2.1521 H   0  0  0  0  0  0  0  0  0  0  0  0
    1.1809    3.0728    2.1269 H   0  0  0  0  0  0  0  0  0  0  0  0
   -7.3284    3.1128   -0.1711 H   0  0  0  0  0  0  0  0  0  0  0  0
   -6.3323    3.0568    1.2946 H   0  0  0  0  0  0  0  0  0  0  0  0
   -6.9157    1.5392    0.5349 H   0  0  0  0  0  0  0  0  0  0  0  0
    6.0170    3.1760    1.2514 H   0  0  0  0  0  0  0  0  0  0  0  0
  1 30  1  0  0  0  0
  2 10  1  0  0  0  0
  2 49  1  0  0  0  0
  3 15  1  0  0  0  0
  3 51  1  0  0  0  0
  4 18  1  0  0  0  0
  4 33  1  0  0  0  0
  5 16  2  0  0  0  0
  6 20  2  0  0  0  0
  7 31  1  0  0  0  0
  7 65  1  0  0  0  0
  8 20  1  0  0  0  0
  8 24  1  0  0  0  0
  8 54  1  0  0  0  0
  9 10  1  0  0  0  0
  9 12  1  0  0  0  0
  9 14  1  0  0  0  0
  9 34  1  0  0  0  0
 10 11  1  0  0  0  0
 10 35  1  0  0  0  0
 11 16  1  0  0  0  0
 11 36  1  0  0  0  0
 11 37  1  0  0  0  0
 12 13  2  0  0  0  0
 12 38  1  0  0  0  0
 13 15  1  0  0  0  0
 13 19  1  0  0  0  0
 14 39  1  0  0  0  0
 14 40  1  0  0  0  0
 14 41  1  0  0  0  0
 15 17  1  0  0  0  0
 15 42  1  0  0  0  0
 16 18  1  0  0  0  0
 17 20  1  0  0  0  0
 17 43  1  0  0  0  0
 17 44  1  0  0  0  0
 18 21  1  0  0  0  0
 18 45  1  0  0  0  0
 19 46  1  0  0  0  0
 19 47  1  0  0  0  0
 19 48  1  0  0  0  0
 21 27  2  0  0  0  0
 21 50  1  0  0  0  0
 22 23  1  0  0  0  0
 22 25  1  0  0  0  0
 22 52  1  0  0  0  0
 22 53  1  0  0  0  0
 23 26  2  0  0  0  0
 23 29  1  0  0  0  0
 24 26  1  0  0  0  0
 24 30  2  0  0  0  0
 25 28  2  0  0  0  0
 25 32  1  0  0  0  0
 26 55  1  0  0  0  0
 27 28  1  0  0  0  0
 27 56  1  0  0  0  0
 28 57  1  0  0  0  0
 29 31  2  0  0  0  0
 29 58  1  0  0  0  0
 30 31  1  0  0  0  0
 32 59  1  0  0  0  0
 32 60  1  0  0  0  0
 32 61  1  0  0  0  0
 33 62  1  0  0  0  0
 33 63  1  0  0  0  0
 33 64  1  0  0  0  0
M  END
> <PUBCHEM_COMPOUND_CID>
56928167

> <PUBCHEM_CONFORMER_RMSD>
0.8

> <PUBCHEM_CONFORMER_DIVERSEORDER>
1
4
3
2

> <PUBCHEM_MMFF94_PARTIAL_CHARGES>
42
1 -0.18
10 0.28
11 0.06
12 -0.29
13 -0.28
15 0.42
16 0.45
17 0.06
18 0.48
19 0.14
2 -0.68
20 0.57
21 -0.29
22 0.28
23 -0.14
24 0.12
25 -0.28
26 -0.15
27 -0.15
28 -0.15
29 -0.15
3 -0.68
30 0.18
31 0.08
32 0.14
33 0.28
38 0.15
4 -0.56
49 0.4
5 -0.57
50 0.15
51 0.4
54 0.37
55 0.15
56 0.15
57 0.15
58 0.15
6 -0.57
65 0.45
7 -0.53
8 -0.55
9 0.14

> <PUBCHEM_EFFECTIVE_ROTOR_COUNT>
2.6

> <PUBCHEM_PHARMACOPHORE_FEATURES>
10
1 2 acceptor
1 2 donor
1 3 acceptor
1 3 donor
1 4 acceptor
1 5 acceptor
1 6 acceptor
1 7 donor
1 8 donor
6 23 24 26 29 30 31 rings

> <PUBCHEM_HEAVY_ATOM_COUNT>
33

> <PUBCHEM_ATOM_DEF_STEREO_COUNT>
4

> <PUBCHEM_ATOM_UDEF_STEREO_COUNT>
0

> <PUBCHEM_BOND_DEF_STEREO_COUNT>
3

> <PUBCHEM_BOND_UDEF_STEREO_COUNT>
0

> <PUBCHEM_ISOTOPIC_ATOM_COUNT>
0

> <PUBCHEM_COMPONENT_COUNT>
1

> <PUBCHEM_CACTVS_TAUTO_COUNT>
21

> <PUBCHEM_CONFORMER_ID>
0364A7A700000001

> <PUBCHEM_MMFF94_ENERGY>
76.0187

> <PUBCHEM_FEATURE_SELFOVERLAP>
50.752

> <PUBCHEM_SHAPE_FINGERPRINT>
10439779 11 18338246951004506472
10675989 125 18051414260375043713
114674 6 18267298927302571780
12107183 9 18342189843253336266
12925494 130 18342174488428358491
13122387 1 17907291413944711285
13402501 40 18410573959529769177
14466204 15 18410578344923181730
14647877 51 18122343742687512282
14725015 67 18049727313153468131
15320467 1 18411418388612027877
15351339 4 18052824934057361217
15400415 2 18411136892520463205
15475509 84 17763469409543554518
16067689 391 17465347075159214118
17093844 170 18410854391066777848
19930381 70 18267865163079755397
20028762 73 18261680376077514892
20764821 26 18339914918449011821
21133410 38 17969773267355228001
238918 7 18262233327215111284
325973 47 18339358561354772752
354706 109 18119837753312996377
373842 8 18196661906994343186
463206 1 18410290302731102457
5081480 168 17390463581507873670
508706 21 18341611456506528821
5265222 85 18198327486194757373
6036956 94 17765996095754606781
6371009 1 18194693574621098063
6669772 16 18339646737050365957
9981440 41 18341331111222671315

> <PUBCHEM_SHAPE_MULTIPOLES>
640.8
11.76
7.31
1.27
3.75
4.71
0.08
-8.56
1.2
-0.1
0.88
0.02
0.44
1.6

> <PUBCHEM_SHAPE_SELFOVERLAP>
1308.566

> <PUBCHEM_SHAPE_VOLUME>
368.4

> <PUBCHEM_COORDINATE_TYPE>
2
5
10

$$$$

