5282337
  -OEChem-07051213042D

 43 45  0     0  0  0  0  0  0999 V2000
    4.5981   -0.5761    0.0000 S   0  0  0  0  0  0  0  0  0  0  0  0
    6.3776    0.5172    0.0000 S   0  0  0  0  0  0  0  0  0  0  0  0
    2.8660   -3.5761    0.0000 O   0  0  0  0  0  0  0  0  0  0  0  0
    5.5981   -0.5761    0.0000 O   0  0  0  0  0  0  0  0  0  0  0  0
    3.5981   -0.5761    0.0000 O   0  0  0  0  0  0  0  0  0  0  0  0
    4.5981   -4.5761    0.0000 O   0  0  0  0  0  0  0  0  0  0  0  0
    9.7560    5.0761    0.0000 O   0  5  0  0  0  0  0  0  0  0  0  0
    9.9371    3.3535    0.0000 O   0  0  0  0  0  0  0  0  0  0  0  0
    4.5981    0.4239    0.0000 N   0  0  0  0  0  0  0  0  0  0  0  0
    5.5686    1.9185    0.0000 N   0  0  0  0  0  0  0  0  0  0  0  0
    9.3493    4.1625    0.0000 N   0  3  0  0  0  0  0  0  0  0  0  0
    4.5981   -1.5761    0.0000 C   0  0  0  0  0  0  0  0  0  0  0  0
    3.7320   -2.0761    0.0000 C   0  0  0  0  0  0  0  0  0  0  0  0
    5.4641   -2.0761    0.0000 C   0  0  0  0  0  0  0  0  0  0  0  0
    3.7320   -3.0761    0.0000 C   0  0  0  0  0  0  0  0  0  0  0  0
    5.4641    0.9239    0.0000 C   0  0  0  0  0  0  0  0  0  0  0  0
    4.5981   -3.5761    0.0000 C   0  0  0  0  0  0  0  0  0  0  0  0
    6.5468    2.1264    0.0000 C   0  0  0  0  0  0  0  0  0  0  0  0
    6.9535    3.0399    0.0000 C   0  0  0  0  0  0  0  0  0  0  0  0
    5.4641   -3.0761    0.0000 C   0  0  0  0  0  0  0  0  0  0  0  0
    7.0468    1.2603    0.0000 C   0  0  0  0  0  0  0  0  0  0  0  0
    7.9480    3.1444    0.0000 C   0  0  0  0  0  0  0  0  0  0  0  0
    6.3657    3.8489    0.0000 C   0  0  0  0  0  0  0  0  0  0  0  0
    8.3548    4.0580    0.0000 C   0  0  0  0  0  0  0  0  0  0  0  0
    6.7725    4.7625    0.0000 C   0  0  0  0  0  0  0  0  0  0  0  0
    7.7670    4.8670    0.0000 C   0  0  0  0  0  0  0  0  0  0  0  0
    2.0000   -3.0761    0.0000 C   0  0  0  0  0  0  0  0  0  0  0  0
    5.4641   -5.0761    0.0000 C   0  0  0  0  0  0  0  0  0  0  0  0
    3.1951   -1.7661    0.0000 H   0  0  0  0  0  0  0  0  0  0  0  0
    4.0611    0.7339    0.0000 H   0  0  0  0  0  0  0  0  0  0  0  0
    6.0010   -1.7661    0.0000 H   0  0  0  0  0  0  0  0  0  0  0  0
    6.0010   -3.3861    0.0000 H   0  0  0  0  0  0  0  0  0  0  0  0
    7.6634    1.1955    0.0000 H   0  0  0  0  0  0  0  0  0  0  0  0
    8.3125    2.6428    0.0000 H   0  0  0  0  0  0  0  0  0  0  0  0
    5.7491    3.7841    0.0000 H   0  0  0  0  0  0  0  0  0  0  0  0
    6.4080    5.2641    0.0000 H   0  0  0  0  0  0  0  0  0  0  0  0
    8.0192    5.4334    0.0000 H   0  0  0  0  0  0  0  0  0  0  0  0
    2.3100   -2.5391    0.0000 H   0  0  0  0  0  0  0  0  0  0  0  0
    1.4631   -2.7661    0.0000 H   0  0  0  0  0  0  0  0  0  0  0  0
    1.6900   -3.6130    0.0000 H   0  0  0  0  0  0  0  0  0  0  0  0
    5.1541   -5.6130    0.0000 H   0  0  0  0  0  0  0  0  0  0  0  0
    6.0010   -5.3861    0.0000 H   0  0  0  0  0  0  0  0  0  0  0  0
    5.7741   -4.5391    0.0000 H   0  0  0  0  0  0  0  0  0  0  0  0
  1  4  2  0  0  0  0
  1  5  2  0  0  0  0
  1  9  1  0  0  0  0
  1 12  1  0  0  0  0
  2 16  1  0  0  0  0
  2 21  1  0  0  0  0
  3 15  1  0  0  0  0
  3 27  1  0  0  0  0
  6 17  1  0  0  0  0
  6 28  1  0  0  0  0
  7 11  1  0  0  0  0
  8 11  2  0  0  0  0
  9 16  1  0  0  0  0
  9 30  1  0  0  0  0
 10 16  2  0  0  0  0
 10 18  1  0  0  0  0
 11 24  1  0  0  0  0
 12 13  2  0  0  0  0
 12 14  1  0  0  0  0
 13 15  1  0  0  0  0
 13 29  1  0  0  0  0
 14 20  2  0  0  0  0
 14 31  1  0  0  0  0
 15 17  2  0  0  0  0
 17 20  1  0  0  0  0
 18 19  1  0  0  0  0
 18 21  2  0  0  0  0
 19 22  2  0  0  0  0
 19 23  1  0  0  0  0
 20 32  1  0  0  0  0
 21 33  1  0  0  0  0
 22 24  1  0  0  0  0
 22 34  1  0  0  0  0
 23 25  2  0  0  0  0
 23 35  1  0  0  0  0
 24 26  2  0  0  0  0
 25 26  1  0  0  0  0
 25 36  1  0  0  0  0
 26 37  1  0  0  0  0
 27 38  1  0  0  0  0
 27 39  1  0  0  0  0
 27 40  1  0  0  0  0
 28 41  1  0  0  0  0
 28 42  1  0  0  0  0
 28 43  1  0  0  0  0
M  CHG  2   7  -1  11   1
M  END
> <PUBCHEM_COMPOUND_CID>
5282337

> <PUBCHEM_COMPOUND_CANONICALIZED>
1

> <PUBCHEM_CACTVS_COMPLEXITY>
638

> <PUBCHEM_CACTVS_HBOND_ACCEPTOR>
9

> <PUBCHEM_CACTVS_HBOND_DONOR>
1

> <PUBCHEM_CACTVS_ROTATABLE_BOND>
6

> <PUBCHEM_CACTVS_SUBSKEYS>
AAADccB7OABgAAAAAAAAAAAAAAAAAWAAAAAwYAAAAAAAAAAB0AAAHgQUQAAADAyF3gKz15JYVAqlAyRiZ3DC+LlhKjkoiDw27JqNJqKksZuEMCpkwBMK6CeQwIAOAIAARAAAQAABAACIAACAAAAAAAAAAA==

> <PUBCHEM_IUPAC_OPENEYE_NAME>
3,4-dimethoxy-N-[4-(3-nitrophenyl)thiazol-2-yl]benzenesulfonamide

> <PUBCHEM_IUPAC_CAS_NAME>
3,4-dimethoxy-N-[4-(3-nitrophenyl)-2-thiazolyl]benzenesulfonamide

> <PUBCHEM_IUPAC_NAME>
3,4-dimethoxy-N-[4-(3-nitrophenyl)-1,3-thiazol-2-yl]benzenesulfonamide

> <PUBCHEM_IUPAC_SYSTEMATIC_NAME>
3,4-dimethoxy-N-[4-(3-nitrophenyl)-1,3-thiazol-2-yl]benzenesulfonamide

> <PUBCHEM_IUPAC_TRADITIONAL_NAME>
3,4-dimethoxy-N-[4-(3-nitrophenyl)thiazol-2-yl]benzenesulfonamide

> <PUBCHEM_IUPAC_INCHI>
InChI=1S/C17H15N3O6S2/c1-25-15-7-6-13(9-16(15)26-2)28(23,24)19-17-18-14(10-27-17)11-4-3-5-12(8-11)20(21)22/h3-10H,1-2H3,(H,18,19)

> <PUBCHEM_IUPAC_INCHIKEY>
NDPBMCKQJOZAQX-UHFFFAOYSA-N

> <PUBCHEM_XLOGP3_AA>
3.2

> <PUBCHEM_EXACT_MASS>
421.040227

> <PUBCHEM_MOLECULAR_FORMULA>
C17H15N3O6S2

> <PUBCHEM_MOLECULAR_WEIGHT>
421.4475

> <PUBCHEM_OPENEYE_CAN_SMILES>
COC1=C(C=C(C=C1)S(=O)(=O)NC2=NC(=CS2)C3=CC(=CC=C3)[N+](=O)[O-])OC

> <PUBCHEM_OPENEYE_ISO_SMILES>
COC1=C(C=C(C=C1)S(=O)(=O)NC2=NC(=CS2)C3=CC(=CC=C3)[N+](=O)[O-])OC

> <PUBCHEM_CACTVS_TPSA>
160

> <PUBCHEM_MONOISOTOPIC_WEIGHT>
421.040227

> <PUBCHEM_TOTAL_CHARGE>
0

> <PUBCHEM_HEAVY_ATOM_COUNT>
28

> <PUBCHEM_ATOM_DEF_STEREO_COUNT>
0

> <PUBCHEM_ATOM_UDEF_STEREO_COUNT>
0

> <PUBCHEM_BOND_DEF_STEREO_COUNT>
0

> <PUBCHEM_BOND_UDEF_STEREO_COUNT>
0

> <PUBCHEM_ISOTOPIC_ATOM_COUNT>
0

> <PUBCHEM_COMPONENT_COUNT>
1

> <PUBCHEM_CACTVS_TAUTO_COUNT>
2

> <PUBCHEM_COORDINATE_TYPE>
1
5
255

> <PUBCHEM_BONDANNOTATIONS>
10  16  8
10  18  8
12  13  8
12  14  8
13  15  8
14  20  8
15  17  8
17  20  8
18  21  8
19  22  8
19  23  8
2  16  8
2  21  8
22  24  8
23  25  8
24  26  8
25  26  8

$$$$

