40479
  -OEChem-07051213113D

 22 23  0     0  0  0  0  0  0999 V2000
   -0.6792   -0.0133   -2.8116 Cl  0  0  0  0  0  0  0  0  0  0  0  0
    3.4404    2.7456    0.1917 Cl  0  0  0  0  0  0  0  0  0  0  0  0
    3.4405   -2.7436    0.2152 Cl  0  0  0  0  0  0  0  0  0  0  0  0
   -3.8806    0.0095    2.5532 Cl  0  0  0  0  0  0  0  0  0  0  0  0
    5.0767    0.0015    0.3102 Cl  0  0  0  0  0  0  0  0  0  0  0  0
   -5.4018    0.0001   -0.3022 Cl  0  0  0  0  0  0  0  0  0  0  0  0
    0.5583    0.0000    0.0122 C   0  0  0  0  0  0  0  0  0  0  0  0
   -0.8856   -0.0004   -0.0824 C   0  0  0  0  0  0  0  0  0  0  0  0
    1.2542   -1.2077    0.0633 C   0  0  0  0  0  0  0  0  0  0  0  0
    1.2541    1.2083    0.0532 C   0  0  0  0  0  0  0  0  0  0  0  0
   -1.5451   -0.0058   -1.3139 C   0  0  0  0  0  0  0  0  0  0  0  0
   -1.6275    0.0049    1.1006 C   0  0  0  0  0  0  0  0  0  0  0  0
    2.6460    1.2088    0.1453 C   0  0  0  0  0  0  0  0  0  0  0  0
    2.6460   -1.2072    0.1554 C   0  0  0  0  0  0  0  0  0  0  0  0
   -3.0217    0.0047    1.0530 C   0  0  0  0  0  0  0  0  0  0  0  0
   -2.9392   -0.0058   -1.3616 C   0  0  0  0  0  0  0  0  0  0  0  0
    3.3420    0.0010    0.1964 C   0  0  0  0  0  0  0  0  0  0  0  0
   -3.6775   -0.0004   -0.1781 C   0  0  0  0  0  0  0  0  0  0  0  0
    0.7098   -2.1499    0.0311 H   0  0  0  0  0  0  0  0  0  0  0  0
    0.7095    2.1501    0.0131 H   0  0  0  0  0  0  0  0  0  0  0  0
   -1.1180    0.0088    2.0629 H   0  0  0  0  0  0  0  0  0  0  0  0
   -3.4503   -0.0100   -2.3223 H   0  0  0  0  0  0  0  0  0  0  0  0
  1 11  1  0  0  0  0
  2 13  1  0  0  0  0
  3 14  1  0  0  0  0
  4 15  1  0  0  0  0
  5 17  1  0  0  0  0
  6 18  1  0  0  0  0
  7  8  1  0  0  0  0
  7  9  2  0  0  0  0
  7 10  1  0  0  0  0
  8 11  1  0  0  0  0
  8 12  2  0  0  0  0
  9 14  1  0  0  0  0
  9 19  1  0  0  0  0
 10 13  2  0  0  0  0
 10 20  1  0  0  0  0
 11 16  2  0  0  0  0
 12 15  1  0  0  0  0
 12 21  1  0  0  0  0
 13 17  1  0  0  0  0
 14 17  2  0  0  0  0
 15 18  2  0  0  0  0
 16 18  1  0  0  0  0
 16 22  1  0  0  0  0
M  END
> <PUBCHEM_COMPOUND_CID>
40479

> <PUBCHEM_CONFORMER_RMSD>
0.6

> <PUBCHEM_CONFORMER_DIVERSEORDER>
1
2
3

> <PUBCHEM_MMFF94_PARTIAL_CHARGES>
20
1 -0.18
10 -0.15
11 0.18
12 -0.15
13 0.18
14 0.18
15 0.18
16 -0.15
17 0.18
18 0.18
19 0.15
2 -0.18
20 0.15
21 0.15
22 0.15
3 -0.18
4 -0.18
5 -0.18
6 -0.18
9 -0.15

> <PUBCHEM_EFFECTIVE_ROTOR_COUNT>
1

> <PUBCHEM_PHARMACOPHORE_FEATURES>
2
6 7 9 10 13 14 17 rings
6 8 11 12 15 16 18 rings

> <PUBCHEM_HEAVY_ATOM_COUNT>
18

> <PUBCHEM_ATOM_DEF_STEREO_COUNT>
0

> <PUBCHEM_ATOM_UDEF_STEREO_COUNT>
0

> <PUBCHEM_BOND_DEF_STEREO_COUNT>
0

> <PUBCHEM_BOND_UDEF_STEREO_COUNT>
0

> <PUBCHEM_ISOTOPIC_ATOM_COUNT>
0

> <PUBCHEM_COMPONENT_COUNT>
1

> <PUBCHEM_CACTVS_TAUTO_COUNT>
1

> <PUBCHEM_CONFORMER_ID>
00009E1F00000001

> <PUBCHEM_MMFF94_ENERGY>
49.3552

> <PUBCHEM_FEATURE_SELFOVERLAP>
10.149

> <PUBCHEM_SHAPE_FINGERPRINT>
10366900 7 17846501443285344808
11471102 20 18411702080398524776
12236239 1 17676490544461879891
12670546 56 17822012033663771129
12916748 109 15864065443018504025
13140716 1 18267030449513661834
13538477 17 17168720634479447631
13544592 145 17703226325380685371
13583140 156 18261954029749941961
14289901 80 18411421691790090273
14386348 63 17561362898178758019
14739800 52 16009900263507760698
15042514 8 15864929616677775391
15219456 202 17989208122622202912
15342168 16 18126286333454869908
16752209 62 16008750204045555413
16945 1 18410864261259891336
1813 80 17970055863434395278
18175812 5 17775567511539588895
18186145 218 18335981961589153276
18785283 64 18058160640722277460
19049666 15 17559129871746114836
19422 9 17821730520074585111
19784866 34 18118973490493250752
200 152 18334864926362602995
20279233 1 17775565351208118283
20600515 1 16271931484845006981
20645476 183 17749398005433144327
20645477 70 18341620364137143630
21065201 7 16271931535946608339
21486144 27 18271812276489516004
2255824 54 18334576845900608742
2297311 6 16200151032045606494
23048698 100 18187365415563222465
23402539 116 15698000716943989939
23526113 38 17916599772465026498
23557571 272 16988851604469088580
23559900 14 16558757857646745954
23598291 2 17749676186133314196
2838139 119 18191872447666976401
31174 14 18343024415000365854
3268164 11 14851611011837840889
3286 77 18272090555783971662
4409770 3 15735673623180590103
474 4 18189341160828747256
602551 16 16200145457093712808
6049 1 17775002431324632332
621550 5 17701802496540536406
633830 44 18042391449056509100
7615 1 17676217869852144249
77492 1 17676491639652160117
8272917 22 18334292106294994703
9981440 41 16379201832237225496

> <PUBCHEM_SHAPE_MULTIPOLES>
381.65
9.71
1.83
1.82
2.28
0
0.47
0.01
-2.4
-3.65
-0.22
2.5
0
-0.02

> <PUBCHEM_SHAPE_SELFOVERLAP>
772.625

> <PUBCHEM_SHAPE_VOLUME>
215.2

> <PUBCHEM_COORDINATE_TYPE>
2
5
10

$$$$

