442684
  -OEChem-07051212592D

 66 71  0     1  0  0  0  0  0999 V2000
    4.3217   -0.1721    0.0000 O   0  0  0  0  0  0  0  0  0  0  0  0
    9.5458    2.8626    0.0000 O   0  0  0  0  0  0  0  0  0  0  0  0
    6.9198   -0.6721    0.0000 O   0  0  0  0  0  0  0  0  0  0  0  0
   11.3159    0.8038    0.0000 O   0  0  0  0  0  0  0  0  0  0  0  0
    7.7858   -0.1721    0.0000 O   0  0  0  0  0  0  0  0  0  0  0  0
    6.0538    2.8279    0.0000 O   0  0  0  0  0  0  0  0  0  0  0  0
    2.5357    2.8730    0.0000 O   0  0  0  0  0  0  0  0  0  0  0  0
    5.1877   -4.6721    0.0000 O   0  0  0  0  0  0  0  0  0  0  0  0
   13.9159    2.3621    0.0000 O   0  0  0  0  0  0  0  0  0  0  0  0
   13.9082    4.3621    0.0000 O   0  0  0  0  0  0  0  0  0  0  0  0
    6.0538    0.8279    0.0000 C   0  0  1  0  0  0  0  0  0  0  0  0
    6.0538   -0.1721    0.0000 C   0  0  1  0  0  0  0  0  0  0  0  0
    5.1877   -0.6721    0.0000 C   0  0  1  0  0  0  0  0  0  0  0  0
    6.9198    1.3279    0.0000 C   0  0  0  0  0  0  0  0  0  0  0  0
    5.1877    1.3279    0.0000 C   0  0  0  0  0  0  0  0  0  0  0  0
    8.6518    1.3279    0.0000 C   0  0  0  0  0  0  0  0  0  0  0  0
    9.5458    0.7933    0.0000 C   0  0  0  0  0  0  0  0  0  0  0  0
   10.4518    1.3071    0.0000 C   0  0  1  0  0  0  0  0  0  0  0  0
    7.7858    0.8279    0.0000 C   0  0  0  0  0  0  0  0  0  0  0  0
   10.4518    2.3487    0.0000 C   0  0  1  0  0  0  0  0  0  0  0  0
    4.3217    0.8279    0.0000 C   0  0  0  0  0  0  0  0  0  0  0  0
    8.6518    2.3279    0.0000 C   0  0  0  0  0  0  0  0  0  0  0  0
    6.9198    2.3279    0.0000 C   0  0  0  0  0  0  0  0  0  0  0  0
    5.1877   -1.6721    0.0000 C   0  0  0  0  0  0  0  0  0  0  0  0
    7.7858    2.8279    0.0000 C   0  0  0  0  0  0  0  0  0  0  0  0
    5.2038    2.3694    0.0000 C   0  0  0  0  0  0  0  0  0  0  0  0
   11.3159    2.8521    0.0000 C   0  0  0  0  0  0  0  0  0  0  0  0
    3.4117    1.3348    0.0000 C   0  0  0  0  0  0  0  0  0  0  0  0
    4.3058    2.8972    0.0000 C   0  0  0  0  0  0  0  0  0  0  0  0
    4.3217   -2.1721    0.0000 C   0  0  0  0  0  0  0  0  0  0  0  0
    6.0538   -2.1721    0.0000 C   0  0  0  0  0  0  0  0  0  0  0  0
    3.4037    2.3764    0.0000 C   0  0  0  0  0  0  0  0  0  0  0  0
   12.1839    2.3554    0.0000 C   0  0  0  0  0  0  0  0  0  0  0  0
   11.3121    3.8521    0.0000 C   0  0  0  0  0  0  0  0  0  0  0  0
    4.3217   -3.1721    0.0000 C   0  0  0  0  0  0  0  0  0  0  0  0
    6.0538   -3.1721    0.0000 C   0  0  0  0  0  0  0  0  0  0  0  0
    5.1877   -3.6721    0.0000 C   0  0  0  0  0  0  0  0  0  0  0  0
   13.0480    2.8588    0.0000 C   0  0  0  0  0  0  0  0  0  0  0  0
   12.1762    4.3554    0.0000 C   0  0  0  0  0  0  0  0  0  0  0  0
   13.0441    3.8587    0.0000 C   0  0  0  0  0  0  0  0  0  0  0  0
    6.7899    0.4029    0.0000 H   0  0  0  0  0  0  0  0  0  0  0  0
    6.0538   -0.7921    0.0000 H   0  0  0  0  0  0  0  0  0  0  0  0
    4.6508   -0.9821    0.0000 H   0  0  0  0  0  0  0  0  0  0  0  0
    9.1412    0.3235    0.0000 H   0  0  0  0  0  0  0  0  0  0  0  0
    9.9394    0.3142    0.0000 H   0  0  0  0  0  0  0  0  0  0  0  0
   10.4483    0.6871    0.0000 H   0  0  0  0  0  0  0  0  0  0  0  0
   10.4483    2.9687    0.0000 H   0  0  0  0  0  0  0  0  0  0  0  0
    7.7858    3.4479    0.0000 H   0  0  0  0  0  0  0  0  0  0  0  0
    5.7443    2.6732    0.0000 H   0  0  0  0  0  0  0  0  0  0  0  0
    6.9198   -1.2921    0.0000 H   0  0  0  0  0  0  0  0  0  0  0  0
    2.8784    1.0186    0.0000 H   0  0  0  0  0  0  0  0  0  0  0  0
    4.3082    3.5172    0.0000 H   0  0  0  0  0  0  0  0  0  0  0  0
    3.7848   -1.8621    0.0000 H   0  0  0  0  0  0  0  0  0  0  0  0
    6.5907   -1.8621    0.0000 H   0  0  0  0  0  0  0  0  0  0  0  0
   11.3136    0.1838    0.0000 H   0  0  0  0  0  0  0  0  0  0  0  0
    8.3227   -0.4821    0.0000 H   0  0  0  0  0  0  0  0  0  0  0  0
    6.0538    3.4479    0.0000 H   0  0  0  0  0  0  0  0  0  0  0  0
   12.1863    1.7354    0.0000 H   0  0  0  0  0  0  0  0  0  0  0  0
   10.7740    4.1600    0.0000 H   0  0  0  0  0  0  0  0  0  0  0  0
    3.7848   -3.4821    0.0000 H   0  0  0  0  0  0  0  0  0  0  0  0
    6.5907   -3.4821    0.0000 H   0  0  0  0  0  0  0  0  0  0  0  0
   12.1738    4.9754    0.0000 H   0  0  0  0  0  0  0  0  0  0  0  0
    2.0000    2.5610    0.0000 H   0  0  0  0  0  0  0  0  0  0  0  0
    4.6508   -4.9821    0.0000 H   0  0  0  0  0  0  0  0  0  0  0  0
   14.4517    2.6742    0.0000 H   0  0  0  0  0  0  0  0  0  0  0  0
   13.9058    4.9821    0.0000 H   0  0  0  0  0  0  0  0  0  0  0  0
  1 13  1  0  0  0  0
  1 21  1  0  0  0  0
  2 20  1  0  0  0  0
  2 22  1  0  0  0  0
 12  3  1  6  0  0  0
  3 50  1  0  0  0  0
 18  4  1  1  0  0  0
  4 55  1  0  0  0  0
  5 19  1  0  0  0  0
  5 56  1  0  0  0  0
  6 23  1  0  0  0  0
  6 57  1  0  0  0  0
  7 32  1  0  0  0  0
  7 63  1  0  0  0  0
  8 37  1  0  0  0  0
  8 64  1  0  0  0  0
  9 38  1  0  0  0  0
  9 65  1  0  0  0  0
 10 40  1  0  0  0  0
 10 66  1  0  0  0  0
 11 12  1  0  0  0  0
 11 14  1  0  0  0  0
 11 15  1  0  0  0  0
 11 41  1  1  0  0  0
 12 13  1  0  0  0  0
 12 42  1  0  0  0  0
 13 24  1  1  0  0  0
 13 43  1  0  0  0  0
 14 19  1  0  0  0  0
 14 23  2  0  0  0  0
 15 21  2  0  0  0  0
 15 26  1  0  0  0  0
 16 17  1  0  0  0  0
 16 19  2  0  0  0  0
 16 22  1  0  0  0  0
 17 18  1  0  0  0  0
 17 44  1  0  0  0  0
 17 45  1  0  0  0  0
 18 20  1  0  0  0  0
 18 46  1  0  0  0  0
 20 27  1  6  0  0  0
 20 47  1  0  0  0  0
 21 28  1  0  0  0  0
 22 25  2  0  0  0  0
 23 25  1  0  0  0  0
 24 30  2  0  0  0  0
 24 31  1  0  0  0  0
 25 48  1  0  0  0  0
 26 29  2  0  0  0  0
 26 49  1  0  0  0  0
 27 33  2  0  0  0  0
 27 34  1  0  0  0  0
 28 32  2  0  0  0  0
 28 51  1  0  0  0  0
 29 32  1  0  0  0  0
 29 52  1  0  0  0  0
 30 35  1  0  0  0  0
 30 53  1  0  0  0  0
 31 36  2  0  0  0  0
 31 54  1  0  0  0  0
 33 38  1  0  0  0  0
 33 58  1  0  0  0  0
 34 39  2  0  0  0  0
 34 59  1  0  0  0  0
 35 37  2  0  0  0  0
 35 60  1  0  0  0  0
 36 37  1  0  0  0  0
 36 61  1  0  0  0  0
 38 40  2  0  0  0  0
 39 40  1  0  0  0  0
 39 62  1  0  0  0  0
M  END
> <PUBCHEM_COMPOUND_CID>
442684

> <PUBCHEM_COMPOUND_CANONICALIZED>
1

> <PUBCHEM_CACTVS_COMPLEXITY>
852

> <PUBCHEM_CACTVS_HBOND_ACCEPTOR>
10

> <PUBCHEM_CACTVS_HBOND_DONOR>
8

> <PUBCHEM_CACTVS_ROTATABLE_BOND>
3

> <PUBCHEM_CACTVS_SUBSKEYS>
AAADceB4PAAAAAAAAAAAAAAAAAAAAAAAAAA0aMGCAAAAAACRVAAAGgAACAAADRSgmAIwBoAABgCAAiBCAAACCAAgIAAIiAAGiIgNNyKGMRqCeCGlwBULuAfA4PwOoAADCAAIQABAAAYQABCAAAAAAAAAAA==

> <PUBCHEM_IUPAC_OPENEYE_NAME>
(2R,3S)-6-[(2R,3S,4R)-3,7-dihydroxy-2-(4-hydroxyphenyl)chroman-4-yl]-2-(3,4-dihydroxyphenyl)chromane-3,5,7-triol

> <PUBCHEM_IUPAC_CAS_NAME>
(2R,3S)-6-[(2R,3S,4R)-3,7-dihydroxy-2-(4-hydroxyphenyl)-3,4-dihydro-2H-1-benzopyran-4-yl]-2-(3,4-dihydroxyphenyl)-3,4-dihydro-2H-1-benzopyran-3,5,7-triol

> <PUBCHEM_IUPAC_NAME>
(2R,3S)-6-[(2R,3S,4R)-3,7-dihydroxy-2-(4-hydroxyphenyl)-3,4-dihydro-2H-chromen-4-yl]-2-(3,4-dihydroxyphenyl)-3,4-dihydro-2H-chromene-3,5,7-triol

> <PUBCHEM_IUPAC_SYSTEMATIC_NAME>
(2R,3S)-2-[3,4-bis(oxidanyl)phenyl]-6-[(2R,3S,4R)-2-(4-hydroxyphenyl)-3,7-bis(oxidanyl)-3,4-dihydro-2H-chromen-4-yl]-3,4-dihydro-2H-chromene-3,5,7-triol

> <PUBCHEM_IUPAC_TRADITIONAL_NAME>
(2R,3S)-6-[(2R,3S,4R)-3,7-dihydroxy-2-(4-hydroxyphenyl)chroman-4-yl]-2-(3,4-dihydroxyphenyl)chroman-3,5,7-triol

> <PUBCHEM_IUPAC_INCHI>
InChI=1S/C30H26O10/c31-15-4-1-13(2-5-15)30-28(38)25(17-7-6-16(32)10-23(17)40-30)26-21(35)12-24-18(27(26)37)11-22(36)29(39-24)14-3-8-19(33)20(34)9-14/h1-10,12,22,25,28-38H,11H2/t22-,25+,28-,29+,30+/m0/s1

> <PUBCHEM_IUPAC_INCHIKEY>
KTNXYFUXAOFFIX-ITWKGUDMSA-N

> <PUBCHEM_XLOGP3_AA>
3.1

> <PUBCHEM_EXACT_MASS>
546.152597

> <PUBCHEM_MOLECULAR_FORMULA>
C30H26O10

> <PUBCHEM_MOLECULAR_WEIGHT>
546.52144

> <PUBCHEM_OPENEYE_CAN_SMILES>
C1C(C(OC2=CC(=C(C(=C21)O)C3C(C(OC4=C3C=CC(=C4)O)C5=CC=C(C=C5)O)O)O)C6=CC(=C(C=C6)O)O)O

> <PUBCHEM_OPENEYE_ISO_SMILES>
C1[C@@H]([C@H](OC2=CC(=C(C(=C21)O)[C@@H]3[C@@H]([C@H](OC4=C3C=CC(=C4)O)C5=CC=C(C=C5)O)O)O)C6=CC(=C(C=C6)O)O)O

> <PUBCHEM_CACTVS_TPSA>
180

> <PUBCHEM_MONOISOTOPIC_WEIGHT>
546.152597

> <PUBCHEM_TOTAL_CHARGE>
0

> <PUBCHEM_HEAVY_ATOM_COUNT>
40

> <PUBCHEM_ATOM_DEF_STEREO_COUNT>
5

> <PUBCHEM_ATOM_UDEF_STEREO_COUNT>
0

> <PUBCHEM_BOND_DEF_STEREO_COUNT>
0

> <PUBCHEM_BOND_UDEF_STEREO_COUNT>
0

> <PUBCHEM_ISOTOPIC_ATOM_COUNT>
0

> <PUBCHEM_COMPONENT_COUNT>
1

> <PUBCHEM_CACTVS_TAUTO_COUNT>
414

> <PUBCHEM_COORDINATE_TYPE>
1
5
255

> <PUBCHEM_BONDANNOTATIONS>
11  41  5
13  24  5
14  19  8
14  23  8
15  21  8
15  26  8
16  19  8
16  22  8
20  27  6
21  28  8
22  25  8
23  25  8
24  30  8
24  31  8
26  29  8
27  33  8
27  34  8
28  32  8
29  32  8
12  3  6
30  35  8
31  36  8
33  38  8
34  39  8
35  37  8
36  37  8
38  40  8
39  40  8
18  4  5

$$$$

