582815
  -OEChem-06241222443D

 39 42  0     1  0  0  0  0  0999 V2000
   -4.1561   -0.7408   -0.9044 O   0  0  0  0  0  0  0  0  0  0  0  0
   -2.0133   -0.7718    0.0576 N   0  0  0  0  0  0  0  0  0  0  0  0
    0.6312   -0.5466   -1.0284 N   0  0  0  0  0  0  0  0  0  0  0  0
   -0.2322    0.3822    1.9596 N   0  0  0  0  0  0  0  0  0  0  0  0
    2.5116   -2.1752    0.3306 N   0  0  0  0  0  0  0  0  0  0  0  0
   -0.8862   -1.5689    0.5786 C   0  0  1  0  0  0  0  0  0  0  0  0
    0.1807   -1.8123   -0.4892 C   0  0  2  0  0  0  0  0  0  0  0  0
   -1.8336    0.6543    0.1050 C   0  0  0  0  0  0  0  0  0  0  0  0
   -0.2389   -0.8940    1.7603 C   0  0  0  0  0  0  0  0  0  0  0  0
    1.3114   -2.6099    0.1106 C   0  0  0  0  0  0  0  0  0  0  0  0
    1.8888   -0.0552   -0.7279 C   0  0  0  0  0  0  0  0  0  0  0  0
   -0.9189    1.1852    1.0354 C   0  0  0  0  0  0  0  0  0  0  0  0
   -3.1847   -1.3561   -0.4568 C   0  0  0  0  0  0  0  0  0  0  0  0
    2.8166   -0.8566   -0.0452 C   0  0  0  0  0  0  0  0  0  0  0  0
   -2.5112    1.5355   -0.7524 C   0  0  0  0  0  0  0  0  0  0  0  0
   -0.7144    2.5713    1.0998 C   0  0  0  0  0  0  0  0  0  0  0  0
    2.2585    1.2408   -1.1134 C   0  0  0  0  0  0  0  0  0  0  0  0
   -3.2699   -2.8646   -0.3975 C   0  0  0  0  0  0  0  0  0  0  0  0
    4.0876   -0.3486    0.2521 C   0  0  0  0  0  0  0  0  0  0  0  0
   -2.2947    2.9138   -0.6799 C   0  0  0  0  0  0  0  0  0  0  0  0
   -1.3985    3.4323    0.2466 C   0  0  0  0  0  0  0  0  0  0  0  0
    3.5261    1.7397   -0.8130 C   0  0  0  0  0  0  0  0  0  0  0  0
    4.4402    0.9454   -0.1281 C   0  0  0  0  0  0  0  0  0  0  0  0
   -1.2492   -2.5280    0.9611 H   0  0  0  0  0  0  0  0  0  0  0  0
   -0.2401   -2.4071   -1.3075 H   0  0  0  0  0  0  0  0  0  0  0  0
    0.0139   -0.0036   -1.6193 H   0  0  0  0  0  0  0  0  0  0  0  0
    0.2950   -1.5377    2.4794 H   0  0  0  0  0  0  0  0  0  0  0  0
    1.0799   -3.6491    0.4002 H   0  0  0  0  0  0  0  0  0  0  0  0
   -3.1795    1.1901   -1.5331 H   0  0  0  0  0  0  0  0  0  0  0  0
   -0.0180    2.9869    1.8247 H   0  0  0  0  0  0  0  0  0  0  0  0
    1.5550    1.8747   -1.6487 H   0  0  0  0  0  0  0  0  0  0  0  0
   -4.1698   -3.1969   -0.9248 H   0  0  0  0  0  0  0  0  0  0  0  0
   -3.3422   -3.1952    0.6419 H   0  0  0  0  0  0  0  0  0  0  0  0
   -2.4100   -3.3247   -0.8889 H   0  0  0  0  0  0  0  0  0  0  0  0
    4.8129   -0.9635    0.7797 H   0  0  0  0  0  0  0  0  0  0  0  0
   -2.8197    3.5803   -1.3584 H   0  0  0  0  0  0  0  0  0  0  0  0
   -1.2297    4.5034    0.3027 H   0  0  0  0  0  0  0  0  0  0  0  0
    3.7983    2.7471   -1.1137 H   0  0  0  0  0  0  0  0  0  0  0  0
    5.4280    1.3307    0.1064 H   0  0  0  0  0  0  0  0  0  0  0  0
  1 13  2  0  0  0  0
  2  6  1  0  0  0  0
  2  8  1  0  0  0  0
  2 13  1  0  0  0  0
  3  7  1  0  0  0  0
  3 11  1  0  0  0  0
  3 26  1  0  0  0  0
  4  9  2  0  0  0  0
  4 12  1  0  0  0  0
  5 10  2  0  0  0  0
  5 14  1  0  0  0  0
  6  7  1  0  0  0  0
  6  9  1  0  0  0  0
  6 24  1  0  0  0  0
  7 10  1  0  0  0  0
  7 25  1  0  0  0  0
  8 12  1  0  0  0  0
  8 15  2  0  0  0  0
  9 27  1  0  0  0  0
 10 28  1  0  0  0  0
 11 14  1  0  0  0  0
 11 17  2  0  0  0  0
 12 16  2  0  0  0  0
 13 18  1  0  0  0  0
 14 19  2  0  0  0  0
 15 20  1  0  0  0  0
 15 29  1  0  0  0  0
 16 21  1  0  0  0  0
 16 30  1  0  0  0  0
 17 22  1  0  0  0  0
 17 31  1  0  0  0  0
 18 32  1  0  0  0  0
 18 33  1  0  0  0  0
 18 34  1  0  0  0  0
 19 23  1  0  0  0  0
 19 35  1  0  0  0  0
 20 21  2  0  0  0  0
 20 36  1  0  0  0  0
 21 37  1  0  0  0  0
 22 23  2  0  0  0  0
 22 38  1  0  0  0  0
 23 39  1  0  0  0  0
M  END
> <PUBCHEM_COMPOUND_CID>
582815

> <PUBCHEM_CONFORMER_RMSD>
0.6

> <PUBCHEM_CONFORMER_DIVERSEORDER>
1
26
27
13
12
29
36
7
34
11
16
23
3
32
8
20
10
9
28
15
19
6
33
21
4
25
22
5
17
14
30
35
2
18
24
31

> <PUBCHEM_MMFF94_PARTIAL_CHARGES>
34
1 -0.57
10 0.33
11 0.1
12 0.18
13 0.57
14 0.18
15 -0.15
16 -0.15
17 -0.15
18 0.06
19 -0.15
2 -0.48
20 -0.15
21 -0.15
22 -0.15
23 -0.15
26 0.4
27 0.06
28 0.06
29 0.15
3 -0.87
30 0.15
31 0.15
35 0.15
36 0.15
37 0.15
38 0.15
39 0.15
4 -0.63
5 -0.63
6 0.36
7 0.43
8 0.12
9 0.33

> <PUBCHEM_EFFECTIVE_ROTOR_COUNT>
2.8

> <PUBCHEM_PHARMACOPHORE_FEATURES>
9
1 1 acceptor
1 3 cation
1 3 donor
1 4 acceptor
1 5 acceptor
6 11 14 17 19 22 23 rings
6 2 4 6 8 9 12 rings
6 3 5 7 10 11 14 rings
6 8 12 15 16 20 21 rings

> <PUBCHEM_HEAVY_ATOM_COUNT>
23

> <PUBCHEM_ATOM_DEF_STEREO_COUNT>
0

> <PUBCHEM_ATOM_UDEF_STEREO_COUNT>
2

> <PUBCHEM_BOND_DEF_STEREO_COUNT>
0

> <PUBCHEM_BOND_UDEF_STEREO_COUNT>
0

> <PUBCHEM_ISOTOPIC_ATOM_COUNT>
0

> <PUBCHEM_COMPONENT_COUNT>
1

> <PUBCHEM_CACTVS_TAUTO_COUNT>
7

> <PUBCHEM_CONFORMER_ID>
0008E49F00000001

> <PUBCHEM_MMFF94_ENERGY>
89.1791

> <PUBCHEM_FEATURE_SELFOVERLAP>
45.73

> <PUBCHEM_SHAPE_FINGERPRINT>
10863032 1 18265622154826670284
10948715 1 18198904910155544168
11370993 70 18268156537766517212
11640471 11 17986668379632223160
12035758 1 17763460617444962931
12054548 360 18262809458296784303
12403259 226 18334013852902400024
12403260 363 18341899584751350420
12403814 3 18339350951147497785
12788726 201 18341615901570619354
13140716 1 18123736565709787312
14142880 1 17969762168584611633
14787075 74 17985265171020402139
14790565 3 18047187729541956593
15420108 30 16752136930081413672
15848702 105 18269560455238151450
16945 1 18272640230025207311
17349148 13 18059859437388876978
17492 54 18051125891643013741
17492 89 18339924938634905563
192875 21 18201721713217692276
19930381 70 18123473769535654629
20510252 161 18336260167805354408
20600515 1 17461698624419877214
20691752 17 17902255337320739703
20715895 44 18199762495303380045
20905425 154 18407761443060845020
23227448 37 18339080518188995621
23352939 185 18187642441196414433
23402539 116 18261957327915833126
23419403 2 17192415178708990298
23557571 272 18113620113809761682
23558518 356 18201428224884950378
23559900 14 18044385048411009482
350125 39 18194667383662256170
4340502 62 17130691959771723097
474 4 17982163727880660392
7164475 11 18337675320563762895
7495541 125 17909262486697540835
7832392 63 17981044437843713398
9709674 26 18411131480813327086
9981440 41 18343022173201485306

> <PUBCHEM_SHAPE_MULTIPOLES>
447.54
6.47
3.61
1.26
3.5
1.14
0.42
-0.34
-1.83
-2.27
-0.07
-0.17
0.2
-0.64

> <PUBCHEM_SHAPE_SELFOVERLAP>
993.106

> <PUBCHEM_SHAPE_VOLUME>
235.5

> <PUBCHEM_COORDINATE_TYPE>
2
5
10

$$$$

