854012
  -OEChem-06241222463D

 42 43  0     0  0  0  0  0  0999 V2000
   -4.7133    1.4255   -1.1081 O   0  0  0  0  0  0  0  0  0  0  0  0
    6.0823    0.4339   -0.1641 O   0  0  0  0  0  0  0  0  0  0  0  0
   -5.8739   -0.4952    0.5321 O   0  0  0  0  0  0  0  0  0  0  0  0
   -0.0348    0.7432    1.4458 O   0  0  0  0  0  0  0  0  0  0  0  0
   -0.3298   -0.6366   -0.5101 C   0  0  0  0  0  0  0  0  0  0  0  0
   -1.8128   -0.5962   -0.2341 C   0  0  0  0  0  0  0  0  0  0  0  0
    0.5224    0.1604    0.4928 C   0  0  0  0  0  0  0  0  0  0  0  0
    1.9653    0.2309    0.3234 C   0  0  0  0  0  0  0  0  0  0  0  0
   -2.5834    0.4051   -0.8040 C   0  0  0  0  0  0  0  0  0  0  0  0
   -2.3780   -1.5606    0.5856 C   0  0  0  0  0  0  0  0  0  0  0  0
   -3.9539    0.4429   -0.5479 C   0  0  0  0  0  0  0  0  0  0  0  0
   -4.5365   -0.5211    0.2749 C   0  0  0  0  0  0  0  0  0  0  0  0
   -3.7485   -1.5229    0.8417 C   0  0  0  0  0  0  0  0  0  0  0  0
    2.5738   -0.4239   -0.7474 C   0  0  0  0  0  0  0  0  0  0  0  0
    2.7404    0.9533    1.2307 C   0  0  0  0  0  0  0  0  0  0  0  0
    4.7325    0.3662   -0.0037 C   0  0  0  0  0  0  0  0  0  0  0  0
    3.9574   -0.3562   -0.9109 C   0  0  0  0  0  0  0  0  0  0  0  0
    4.1239    1.0210    1.0671 C   0  0  0  0  0  0  0  0  0  0  0  0
    6.7191   -0.6815   -0.7854 C   0  0  0  0  0  0  0  0  0  0  0  0
   -4.8661    2.6312   -0.3619 C   0  0  0  0  0  0  0  0  0  0  0  0
    8.1335   -0.7983   -0.2583 C   0  0  0  0  0  0  0  0  0  0  0  0
   -6.7195   -1.2209   -0.3582 C   0  0  0  0  0  0  0  0  0  0  0  0
    0.0034   -1.6819   -0.4996 H   0  0  0  0  0  0  0  0  0  0  0  0
   -0.1520   -0.2391   -1.5170 H   0  0  0  0  0  0  0  0  0  0  0  0
   -2.1318    1.1583   -1.4441 H   0  0  0  0  0  0  0  0  0  0  0  0
   -1.7723   -2.3431    1.0337 H   0  0  0  0  0  0  0  0  0  0  0  0
   -4.1955   -2.2762    1.4848 H   0  0  0  0  0  0  0  0  0  0  0  0
    2.0117   -0.9936   -1.4804 H   0  0  0  0  0  0  0  0  0  0  0  0
    2.2904    1.4723    2.0729 H   0  0  0  0  0  0  0  0  0  0  0  0
    4.3886   -0.8567   -1.7729 H   0  0  0  0  0  0  0  0  0  0  0  0
    4.7227    1.5853    1.7767 H   0  0  0  0  0  0  0  0  0  0  0  0
    6.2050   -1.6240   -0.5582 H   0  0  0  0  0  0  0  0  0  0  0  0
    6.7393   -0.5265   -1.8698 H   0  0  0  0  0  0  0  0  0  0  0  0
   -5.3491    2.4308    0.5997 H   0  0  0  0  0  0  0  0  0  0  0  0
   -5.5003    3.3117   -0.9366 H   0  0  0  0  0  0  0  0  0  0  0  0
   -3.8943    3.1090   -0.2022 H   0  0  0  0  0  0  0  0  0  0  0  0
    8.6563   -1.6393   -0.7225 H   0  0  0  0  0  0  0  0  0  0  0  0
    8.6960    0.1199   -0.4571 H   0  0  0  0  0  0  0  0  0  0  0  0
    8.1301   -0.9401    0.8276 H   0  0  0  0  0  0  0  0  0  0  0  0
   -6.6309   -0.8314   -1.3773 H   0  0  0  0  0  0  0  0  0  0  0  0
   -7.7537   -1.0973   -0.0255 H   0  0  0  0  0  0  0  0  0  0  0  0
   -6.4707   -2.2867   -0.3399 H   0  0  0  0  0  0  0  0  0  0  0  0
  1 11  1  0  0  0  0
  1 20  1  0  0  0  0
  2 16  1  0  0  0  0
  2 19  1  0  0  0  0
  3 12  1  0  0  0  0
  3 22  1  0  0  0  0
  4  7  2  0  0  0  0
  5  6  1  0  0  0  0
  5  7  1  0  0  0  0
  5 23  1  0  0  0  0
  5 24  1  0  0  0  0
  6  9  2  0  0  0  0
  6 10  1  0  0  0  0
  7  8  1  0  0  0  0
  8 14  2  0  0  0  0
  8 15  1  0  0  0  0
  9 11  1  0  0  0  0
  9 25  1  0  0  0  0
 10 13  2  0  0  0  0
 10 26  1  0  0  0  0
 11 12  2  0  0  0  0
 12 13  1  0  0  0  0
 13 27  1  0  0  0  0
 14 17  1  0  0  0  0
 14 28  1  0  0  0  0
 15 18  2  0  0  0  0
 15 29  1  0  0  0  0
 16 17  2  0  0  0  0
 16 18  1  0  0  0  0
 17 30  1  0  0  0  0
 18 31  1  0  0  0  0
 19 21  1  0  0  0  0
 19 32  1  0  0  0  0
 19 33  1  0  0  0  0
 20 34  1  0  0  0  0
 20 35  1  0  0  0  0
 20 36  1  0  0  0  0
 21 37  1  0  0  0  0
 21 38  1  0  0  0  0
 21 39  1  0  0  0  0
 22 40  1  0  0  0  0
 22 41  1  0  0  0  0
 22 42  1  0  0  0  0
M  END
> <PUBCHEM_COMPOUND_CID>
854012

> <PUBCHEM_CONFORMER_RMSD>
0.8

> <PUBCHEM_CONFORMER_DIVERSEORDER>
1
25
181
164
71
118
153
201
200
209
86
174
173
46
22
76
216
91
30
111
48
107
192
219
24
172
126
79
83
161
33
196
185
47
89
220
154
129
183
97
50
202
72
96
134
81
149
35
34
169
87
162
60
141
143
44
11
213
37
150
138
158
142
171
182
75
211
112
51
78
10
14
23
187
190
39
125
31
198
208
93
217
114
82
194
124
36
151
108
214
16
63
205
206
195
88
128
73
98
12
99
130
74
38
215
92
115
3
32
84
54
95
65
186
27
53
140
122
80
180
127
26
210
69
40
136
137
204
55
170
105
166
121
28
56
19
58
41
2
90
184
188
8
159
85
4
191
207
193
18
168
103
155
77
212
133
7
116
100
70
189
132
157
104
21
163
203
102
109
179
59
119
62
221
5
139
17
94
199
218
156
29
15
9
49
131
175
66
20
113
152
197
43
178
57
177
101
45
117
144
67
146
160
135
68
176
110
6
147
123
42
106
64
120
145
148
61
52
167
13
165

> <PUBCHEM_MMFF94_PARTIAL_CHARGES>
28
1 -0.36
10 -0.15
11 0.08
12 0.08
13 -0.15
14 -0.15
15 -0.15
16 0.08
17 -0.15
18 -0.15
19 0.28
2 -0.36
20 0.28
22 0.28
25 0.15
26 0.15
27 0.15
28 0.15
29 0.15
3 -0.36
30 0.15
31 0.15
4 -0.57
5 0.2
6 -0.14
7 0.42
8 0.09
9 -0.15

> <PUBCHEM_EFFECTIVE_ROTOR_COUNT>
7

> <PUBCHEM_PHARMACOPHORE_FEATURES>
6
1 1 acceptor
1 2 acceptor
1 3 acceptor
1 4 acceptor
6 6 9 10 11 12 13 rings
6 8 14 15 16 17 18 rings

> <PUBCHEM_HEAVY_ATOM_COUNT>
22

> <PUBCHEM_ATOM_DEF_STEREO_COUNT>
0

> <PUBCHEM_ATOM_UDEF_STEREO_COUNT>
0

> <PUBCHEM_BOND_DEF_STEREO_COUNT>
0

> <PUBCHEM_BOND_UDEF_STEREO_COUNT>
0

> <PUBCHEM_ISOTOPIC_ATOM_COUNT>
0

> <PUBCHEM_COMPONENT_COUNT>
1

> <PUBCHEM_CACTVS_TAUTO_COUNT>
2

> <PUBCHEM_CONFORMER_ID>
000D07FC00000001

> <PUBCHEM_MMFF94_ENERGY>
86.0757

> <PUBCHEM_FEATURE_SELFOVERLAP>
30.45

> <PUBCHEM_SHAPE_FINGERPRINT>
10670039 82 18059580216974838269
11089746 13 14851607674431707618
11315181 36 17346874529587842869
11719270 70 18259987107050071918
11796584 16 18412824699325529866
12091667 2 18411699885211437215
12166972 35 18336263457503039600
12236239 1 16271933701074433347
12390115 104 18341048627471730705
12516196 113 15647050460962917658
12616971 3 14851886911403448521
13533116 47 7781255304990043076
13668630 136 17022896839541019455
13964095 4 18341611542796005052
14251752 14 18342458166754680218
14251764 18 17489592272871277370
14251764 46 18343301457713381686
14573314 32 18410012156437701893
14933364 13 18272649035288328572
15183329 4 17561367296789706642
15778101 99 18340486776866588765
17844677 252 18412539886235940544
19489759 90 18343864412003831823
200 152 16225763025664091906
20281389 69 18411983542348227048
20645477 70 17458056079978518358
21033648 29 18114476595109109729
21065198 48 16558763342119431833
21150785 3 17418087707923987286
21236236 1 17313376880971103985
21267235 1 17988920042576465803
21315763 28 18341894082692522628
21792961 116 18261110815483596570
220451 1 16917071070840854234
22224240 67 11671778244313832036
2297311 6 18273213088737037037
23035841 295 17918275350997619362
23198884 109 17989485216705787577
23402539 116 17775849004128718022
23536379 177 18060419127778534198
23557571 272 18413102866385709733
23559900 14 18408889546808169344
26918003 58 17894625929489032970
3004659 81 18412826881078504960
335352 9 17603864473670540926
3545911 37 18411136926578468763
4073 2 17632287931538514026
4325135 7 14764349327602352210
5104073 3 18130508656053177779
5265222 85 18199455577399596710
542803 24 16845575314090805208
54446538 1 17917991655058788237

> <PUBCHEM_SHAPE_MULTIPOLES>
429.27
19.12
1.57
1.09
15.92
0.64
0.13
-2.58
-3.13
-2.44
0.01
0.15
0.14
1.6

> <PUBCHEM_SHAPE_SELFOVERLAP>
904.062

> <PUBCHEM_SHAPE_VOLUME>
242.7

> <PUBCHEM_COORDINATE_TYPE>
2
5
10

$$$$

