17395282
  -OEChem-06241222492D

 35 36  0     0  0  0  0  0  0999 V2000
    3.7320    0.5194    0.0000 S   0  0  0  0  0  0  0  0  0  0  0  0
    2.0000   -0.4806    0.0000 O   0  0  0  0  0  0  0  0  0  0  0  0
    3.6750   -2.5684    0.0000 N   0  0  0  0  0  0  0  0  0  0  0  0
    5.4641    0.5194    0.0000 N   0  0  0  0  0  0  0  0  0  0  0  0
    2.8660    3.0194    0.0000 N   0  0  0  0  0  0  0  0  0  0  0  0
    2.8660   -1.9806    0.0000 C   0  0  0  0  0  0  0  0  0  0  0  0
    2.8660   -0.9806    0.0000 C   0  0  0  0  0  0  0  0  0  0  0  0
    3.7320   -0.4806    0.0000 C   0  0  0  0  0  0  0  0  0  0  0  0
    2.0570   -2.5684    0.0000 C   0  0  0  0  0  0  0  0  0  0  0  0
    3.3660   -3.5194    0.0000 C   0  0  0  0  0  0  0  0  0  0  0  0
    5.4641    2.5194    0.0000 C   0  0  0  0  0  0  0  0  0  0  0  0
    4.5981    1.0194    0.0000 C   0  0  0  0  0  0  0  0  0  0  0  0
    4.5981    2.0194    0.0000 C   0  0  0  0  0  0  0  0  0  0  0  0
    2.3660   -3.5194    0.0000 C   0  0  0  0  0  0  0  0  0  0  0  0
    4.6261   -2.2594    0.0000 C   0  0  0  0  0  0  0  0  0  0  0  0
    6.3301    1.0194    0.0000 C   0  0  0  0  0  0  0  0  0  0  0  0
    6.3301    2.0194    0.0000 C   0  0  0  0  0  0  0  0  0  0  0  0
    5.4641    3.5194    0.0000 C   0  0  0  0  0  0  0  0  0  0  0  0
    7.1962    0.5194    0.0000 C   0  0  0  0  0  0  0  0  0  0  0  0
    3.7320    2.5194    0.0000 C   0  0  0  0  0  0  0  0  0  0  0  0
    3.9441   -1.0632    0.0000 H   0  0  0  0  0  0  0  0  0  0  0  0
    4.3426   -0.3729    0.0000 H   0  0  0  0  0  0  0  0  0  0  0  0
    1.4674   -2.3768    0.0000 H   0  0  0  0  0  0  0  0  0  0  0  0
    3.7304   -4.0210    0.0000 H   0  0  0  0  0  0  0  0  0  0  0  0
    2.0016   -4.0210    0.0000 H   0  0  0  0  0  0  0  0  0  0  0  0
    4.8177   -2.8490    0.0000 H   0  0  0  0  0  0  0  0  0  0  0  0
    5.2158   -2.0678    0.0000 H   0  0  0  0  0  0  0  0  0  0  0  0
    4.4345   -1.6697    0.0000 H   0  0  0  0  0  0  0  0  0  0  0  0
    6.8671    2.3294    0.0000 H   0  0  0  0  0  0  0  0  0  0  0  0
    6.0841    3.5194    0.0000 H   0  0  0  0  0  0  0  0  0  0  0  0
    5.4641    4.1394    0.0000 H   0  0  0  0  0  0  0  0  0  0  0  0
    4.8441    3.5194    0.0000 H   0  0  0  0  0  0  0  0  0  0  0  0
    6.8862   -0.0175    0.0000 H   0  0  0  0  0  0  0  0  0  0  0  0
    7.7331    0.2094    0.0000 H   0  0  0  0  0  0  0  0  0  0  0  0
    7.5062    1.0564    0.0000 H   0  0  0  0  0  0  0  0  0  0  0  0
  1  8  1  0  0  0  0
  1 12  1  0  0  0  0
  2  7  2  0  0  0  0
  3  6  1  0  0  0  0
  3 10  1  0  0  0  0
  3 15  1  0  0  0  0
  4 12  1  0  0  0  0
  4 16  2  0  0  0  0
  5 20  3  0  0  0  0
  6  7  1  0  0  0  0
  6  9  2  0  0  0  0
  7  8  1  0  0  0  0
  8 21  1  0  0  0  0
  8 22  1  0  0  0  0
  9 14  1  0  0  0  0
  9 23  1  0  0  0  0
 10 14  2  0  0  0  0
 10 24  1  0  0  0  0
 11 13  1  0  0  0  0
 11 17  2  0  0  0  0
 11 18  1  0  0  0  0
 12 13  2  0  0  0  0
 13 20  1  0  0  0  0
 14 25  1  0  0  0  0
 15 26  1  0  0  0  0
 15 27  1  0  0  0  0
 15 28  1  0  0  0  0
 16 17  1  0  0  0  0
 16 19  1  0  0  0  0
 17 29  1  0  0  0  0
 18 30  1  0  0  0  0
 18 31  1  0  0  0  0
 18 32  1  0  0  0  0
 19 33  1  0  0  0  0
 19 34  1  0  0  0  0
 19 35  1  0  0  0  0
M  END
> <PUBCHEM_COMPOUND_CID>
17395282

> <PUBCHEM_COMPOUND_CANONICALIZED>
1

> <PUBCHEM_CACTVS_COMPLEXITY>
405

> <PUBCHEM_CACTVS_HBOND_ACCEPTOR>
4

> <PUBCHEM_CACTVS_HBOND_DONOR>
0

> <PUBCHEM_CACTVS_ROTATABLE_BOND>
4

> <PUBCHEM_CACTVS_SUBSKEYS>
AAADccBzIABAAAAAAAAAAAAAAAAAAWAAAAAsAAAAAAAAAAAB4AAAHgQAAAAADAzF3gS+gZMMEAi4B7R3RACi0CB3CjAI2DG4ZNgIoPLglbGEIQhggADoyY8YAQAOgAAAAAAAAAAAAAAAAAAAAAAAAAAAAA==

> <PUBCHEM_IUPAC_OPENEYE_NAME>
4,6-dimethyl-2-[2-(1-methylpyrrol-2-yl)-2-oxo-ethyl]sulfanyl-pyridine-3-carbonitrile

> <PUBCHEM_IUPAC_CAS_NAME>
4,6-dimethyl-2-[[2-(1-methyl-2-pyrrolyl)-2-oxoethyl]thio]-3-pyridinecarbonitrile

> <PUBCHEM_IUPAC_NAME>
4,6-dimethyl-2-[2-(1-methylpyrrol-2-yl)-2-oxoethyl]sulfanylpyridine-3-carbonitrile

> <PUBCHEM_IUPAC_SYSTEMATIC_NAME>
4,6-dimethyl-2-[2-(1-methylpyrrol-2-yl)-2-oxidanylidene-ethyl]sulfanyl-pyridine-3-carbonitrile

> <PUBCHEM_IUPAC_TRADITIONAL_NAME>
2-[[2-keto-2-(1-methylpyrrol-2-yl)ethyl]thio]-4,6-dimethyl-nicotinonitrile

> <PUBCHEM_IUPAC_INCHI>
InChI=1S/C15H15N3OS/c1-10-7-11(2)17-15(12(10)8-16)20-9-14(19)13-5-4-6-18(13)3/h4-7H,9H2,1-3H3

> <PUBCHEM_IUPAC_INCHIKEY>
MVUWFSJSNHJADM-UHFFFAOYSA-N

> <PUBCHEM_XLOGP3_AA>
2.7

> <PUBCHEM_EXACT_MASS>
285.093583

> <PUBCHEM_MOLECULAR_FORMULA>
C15H15N3OS

> <PUBCHEM_MOLECULAR_WEIGHT>
285.3641

> <PUBCHEM_OPENEYE_CAN_SMILES>
CC1=CC(=NC(=C1C#N)SCC(=O)C2=CC=CN2C)C

> <PUBCHEM_OPENEYE_ISO_SMILES>
CC1=CC(=NC(=C1C#N)SCC(=O)C2=CC=CN2C)C

> <PUBCHEM_CACTVS_TPSA>
84

> <PUBCHEM_MONOISOTOPIC_WEIGHT>
285.093583

> <PUBCHEM_TOTAL_CHARGE>
0

> <PUBCHEM_HEAVY_ATOM_COUNT>
20

> <PUBCHEM_ATOM_DEF_STEREO_COUNT>
0

> <PUBCHEM_ATOM_UDEF_STEREO_COUNT>
0

> <PUBCHEM_BOND_DEF_STEREO_COUNT>
0

> <PUBCHEM_BOND_UDEF_STEREO_COUNT>
0

> <PUBCHEM_ISOTOPIC_ATOM_COUNT>
0

> <PUBCHEM_COMPONENT_COUNT>
1

> <PUBCHEM_CACTVS_TAUTO_COUNT>
2

> <PUBCHEM_COORDINATE_TYPE>
1
5
255

> <PUBCHEM_BONDANNOTATIONS>
10  14  8
11  13  8
11  17  8
12  13  8
16  17  8
3  10  8
3  6  8
4  12  8
4  16  8
6  9  8
9  14  8

$$$$

