13100
  -OEChem-06261207453D

 38 39  0     0  0  0  0  0  0999 V2000
   -6.7241    1.1088    0.2177 O   0  0  0  0  0  0  0  0  0  0  0  0
    6.7166    1.1085   -0.2599 O   0  0  0  0  0  0  0  0  0  0  0  0
   -0.4021   -0.0001   -0.6291 C   0  0  0  0  0  0  0  0  0  0  0  0
    0.4079    0.0006    0.6825 C   0  0  0  0  0  0  0  0  0  0  0  0
   -1.8803    0.0107   -0.4306 C   0  0  0  0  0  0  0  0  0  0  0  0
    1.9006    0.0113    0.4594 C   0  0  0  0  0  0  0  0  0  0  0  0
   -2.5790   -1.1925   -0.3312 C   0  0  0  0  0  0  0  0  0  0  0  0
    2.5800   -1.1921    0.3535 C   0  0  0  0  0  0  0  0  0  0  0  0
   -2.5638    1.2234   -0.3434 C   0  0  0  0  0  0  0  0  0  0  0  0
    2.5651    1.2238    0.3631 C   0  0  0  0  0  0  0  0  0  0  0  0
   -4.6448    0.0297   -0.0573 C   0  0  0  0  0  0  0  0  0  0  0  0
    4.6416    0.0297    0.0474 C   0  0  0  0  0  0  0  0  0  0  0  0
   -3.9613   -1.1829   -0.1446 C   0  0  0  0  0  0  0  0  0  0  0  0
    3.9595   -1.1828    0.1463 C   0  0  0  0  0  0  0  0  0  0  0  0
   -3.9461    1.2330   -0.1566 C   0  0  0  0  0  0  0  0  0  0  0  0
    3.9445    1.2331    0.1558 C   0  0  0  0  0  0  0  0  0  0  0  0
   -6.0863    0.0403    0.1355 C   0  0  0  0  0  0  0  0  0  0  0  0
    6.0800    0.0400   -0.1669 C   0  0  0  0  0  0  0  0  0  0  0  0
   -6.8570   -1.2712    0.2430 C   0  0  0  0  0  0  0  0  0  0  0  0
    6.8490   -1.2715   -0.2844 C   0  0  0  0  0  0  0  0  0  0  0  0
   -0.1221   -0.8741   -1.2331 H   0  0  0  0  0  0  0  0  0  0  0  0
   -0.1122    0.8657   -1.2403 H   0  0  0  0  0  0  0  0  0  0  0  0
    0.1366   -0.8747    1.2883 H   0  0  0  0  0  0  0  0  0  0  0  0
    0.1267    0.8689    1.2938 H   0  0  0  0  0  0  0  0  0  0  0  0
   -2.0569   -2.1436   -0.3954 H   0  0  0  0  0  0  0  0  0  0  0  0
    2.0564   -2.1410    0.4271 H   0  0  0  0  0  0  0  0  0  0  0  0
   -2.0303    2.1674   -0.4172 H   0  0  0  0  0  0  0  0  0  0  0  0
    2.0300    2.1656    0.4440 H   0  0  0  0  0  0  0  0  0  0  0  0
   -4.4656   -2.1414   -0.0722 H   0  0  0  0  0  0  0  0  0  0  0  0
    4.4626   -2.1414    0.0674 H   0  0  0  0  0  0  0  0  0  0  0  0
   -4.4561    2.1905   -0.0914 H   0  0  0  0  0  0  0  0  0  0  0  0
    4.4535    2.1905    0.0818 H   0  0  0  0  0  0  0  0  0  0  0  0
   -6.5132   -1.8418    1.1096 H   0  0  0  0  0  0  0  0  0  0  0  0
   -6.7512   -1.8487   -0.6790 H   0  0  0  0  0  0  0  0  0  0  0  0
   -7.9200   -1.0509    0.3836 H   0  0  0  0  0  0  0  0  0  0  0  0
    6.4924   -1.8432   -1.1450 H   0  0  0  0  0  0  0  0  0  0  0  0
    6.7572   -1.8479    0.6397 H   0  0  0  0  0  0  0  0  0  0  0  0
    7.9099   -1.0514   -0.4411 H   0  0  0  0  0  0  0  0  0  0  0  0
  1 17  2  0  0  0  0
  2 18  2  0  0  0  0
  3  4  1  0  0  0  0
  3  5  1  0  0  0  0
  3 21  1  0  0  0  0
  3 22  1  0  0  0  0
  4  6  1  0  0  0  0
  4 23  1  0  0  0  0
  4 24  1  0  0  0  0
  5  7  2  0  0  0  0
  5  9  1  0  0  0  0
  6  8  2  0  0  0  0
  6 10  1  0  0  0  0
  7 13  1  0  0  0  0
  7 25  1  0  0  0  0
  8 14  1  0  0  0  0
  8 26  1  0  0  0  0
  9 15  2  0  0  0  0
  9 27  1  0  0  0  0
 10 16  2  0  0  0  0
 10 28  1  0  0  0  0
 11 13  2  0  0  0  0
 11 15  1  0  0  0  0
 11 17  1  0  0  0  0
 12 14  2  0  0  0  0
 12 16  1  0  0  0  0
 12 18  1  0  0  0  0
 13 29  1  0  0  0  0
 14 30  1  0  0  0  0
 15 31  1  0  0  0  0
 16 32  1  0  0  0  0
 17 19  1  0  0  0  0
 18 20  1  0  0  0  0
 19 33  1  0  0  0  0
 19 34  1  0  0  0  0
 19 35  1  0  0  0  0
 20 36  1  0  0  0  0
 20 37  1  0  0  0  0
 20 38  1  0  0  0  0
M  END
> <PUBCHEM_COMPOUND_CID>
13100

> <PUBCHEM_CONFORMER_RMSD>
0.8

> <PUBCHEM_CONFORMER_DIVERSEORDER>
1
8
4
7
2
10
3
6
5
12
9
11

> <PUBCHEM_MMFF94_PARTIAL_CHARGES>
28
1 -0.57
10 -0.15
11 0.09
12 0.09
13 -0.15
14 -0.15
15 -0.15
16 -0.15
17 0.42
18 0.42
19 0.06
2 -0.57
20 0.06
25 0.15
26 0.15
27 0.15
28 0.15
29 0.15
3 0.14
30 0.15
31 0.15
32 0.15
4 0.14
5 -0.14
6 -0.14
7 -0.15
8 -0.15
9 -0.15

> <PUBCHEM_EFFECTIVE_ROTOR_COUNT>
5

> <PUBCHEM_PHARMACOPHORE_FEATURES>
4
1 1 acceptor
1 2 acceptor
6 5 7 9 11 13 15 rings
6 6 8 10 12 14 16 rings

> <PUBCHEM_HEAVY_ATOM_COUNT>
20

> <PUBCHEM_ATOM_DEF_STEREO_COUNT>
0

> <PUBCHEM_ATOM_UDEF_STEREO_COUNT>
0

> <PUBCHEM_BOND_DEF_STEREO_COUNT>
0

> <PUBCHEM_BOND_UDEF_STEREO_COUNT>
0

> <PUBCHEM_ISOTOPIC_ATOM_COUNT>
0

> <PUBCHEM_COMPONENT_COUNT>
1

> <PUBCHEM_CACTVS_TAUTO_COUNT>
3

> <PUBCHEM_CONFORMER_ID>
0000332C00000001

> <PUBCHEM_MMFF94_ENERGY>
55.6038

> <PUBCHEM_FEATURE_SELFOVERLAP>
20.297

> <PUBCHEM_SHAPE_FINGERPRINT>
10299344 5 18410572889945587011
10354089 29 18410858763506690608
10968037 39 18202565073291119351
11315181 36 18410853253454176545
11524674 6 16660364758062132207
12091667 2 16630809915977919637
12107183 9 17690283037580364665
12166972 35 18412261718442414456
12236239 1 18410855464423168065
12516196 113 18409450275810123145
12730499 353 18273213106291608786
13073987 5 18336830900265916104
13288520 33 18411700976908356383
13533116 47 4967623732655575908
14123256 10 17846780706717855810
14170010 4 18411983538438459544
1420 363 17704069598916404714
14251764 18 18333450932686650199
14251764 46 18410576188469706474
14341114 176 18409728443545945281
14617045 38 18411980273424615994
14933364 13 18410855460138971141
15183329 4 18113898281677530906
17844677 252 18409725166470386065
19489759 90 5978389417841549947
20281389 69 18412547621835940168
21267235 1 18410289215940151177
221357 26 18410014347013902224
22224240 67 16630809881111837832
2297311 6 18409445903733869469
23035841 295 18202566180691224283
23536379 177 18408604773138313240
23559900 14 18336553711434718217
29717793 49 17603580833872200180
3004659 81 18410857663910712528
347723 3 15647052668106699939
34797466 226 18040709248000681524
3545911 37 18410857663451698368
4073 2 18131346367754701778
4214541 1 18409732876105117093
4325135 7 18202845452729396902
4463277 17 18410856559650540453
5104073 3 18337962297388039320
542803 24 17489871535385844956
54446538 1 18410856559645590508

> <PUBCHEM_SHAPE_MULTIPOLES>
399.85
19.76
1.46
0.72
0.14
0.02
0
1.55
-0.23
0
0
-0.02
0.01
0.12

> <PUBCHEM_SHAPE_SELFOVERLAP>
848.302

> <PUBCHEM_SHAPE_VOLUME>
224.5

> <PUBCHEM_COORDINATE_TYPE>
2
5
10

$$$$

