104807
  -OEChem-07051212543D

 22 21  0     0  0  0  0  0  0999 V2000
    4.5589    0.3497   -0.0046 S   0  0  0  0  0  0  0  0  0  0  0  0
    0.5793   -0.4402    0.0085 N   0  0  0  0  0  0  0  0  0  0  0  0
   -4.3462   -0.2677    0.0018 N   0  0  0  0  0  0  0  0  0  0  0  0
   -0.5858    0.4362    0.0043 C   0  0  0  0  0  0  0  0  0  0  0  0
   -1.8965   -0.3536    0.0060 C   0  0  0  0  0  0  0  0  0  0  0  0
    1.8123    0.3345    0.0175 C   0  0  0  0  0  0  0  0  0  0  0  0
   -3.1346    0.5445   -0.0174 C   0  0  0  0  0  0  0  0  0  0  0  0
    3.0127   -0.6032   -0.0161 C   0  0  0  0  0  0  0  0  0  0  0  0
   -0.5665    1.0839    0.8894 H   0  0  0  0  0  0  0  0  0  0  0  0
   -0.5640    1.0843   -0.8807 H   0  0  0  0  0  0  0  0  0  0  0  0
   -1.9284   -0.9958    0.8963 H   0  0  0  0  0  0  0  0  0  0  0  0
   -1.9164   -1.0211   -0.8660 H   0  0  0  0  0  0  0  0  0  0  0  0
    0.5556   -1.0459   -0.8113 H   0  0  0  0  0  0  0  0  0  0  0  0
    1.8504    0.9528    0.9231 H   0  0  0  0  0  0  0  0  0  0  0  0
    1.8401    1.0027   -0.8526 H   0  0  0  0  0  0  0  0  0  0  0  0
   -3.1295    1.1717   -0.9155 H   0  0  0  0  0  0  0  0  0  0  0  0
   -3.1337    1.2075    0.8542 H   0  0  0  0  0  0  0  0  0  0  0  0
    3.0001   -1.2223   -0.9195 H   0  0  0  0  0  0  0  0  0  0  0  0
    3.0122   -1.2706    0.8523 H   0  0  0  0  0  0  0  0  0  0  0  0
   -4.3697   -0.8686   -0.8211 H   0  0  0  0  0  0  0  0  0  0  0  0
   -5.1613    0.3404   -0.0652 H   0  0  0  0  0  0  0  0  0  0  0  0
    4.3771    0.9272    1.1921 H   0  0  0  0  0  0  0  0  0  0  0  0
  1  8  1  0  0  0  0
  1 22  1  0  0  0  0
  2  4  1  0  0  0  0
  2  6  1  0  0  0  0
  2 13  1  0  0  0  0
  3  7  1  0  0  0  0
  3 20  1  0  0  0  0
  3 21  1  0  0  0  0
  4  5  1  0  0  0  0
  4  9  1  0  0  0  0
  4 10  1  0  0  0  0
  5  7  1  0  0  0  0
  5 11  1  0  0  0  0
  5 12  1  0  0  0  0
  6  8  1  0  0  0  0
  6 14  1  0  0  0  0
  6 15  1  0  0  0  0
  7 16  1  0  0  0  0
  7 17  1  0  0  0  0
  8 18  1  0  0  0  0
  8 19  1  0  0  0  0
M  END
> <PUBCHEM_COMPOUND_CID>
104807

> <PUBCHEM_CONFORMER_RMSD>
0.6

> <PUBCHEM_CONFORMER_DIVERSEORDER>
1
59
85
12
27
78
61
84
47
16
57
55
26
6
25
83
23
56
82
3
48
53
29
14
75
4
81
79
45
19
69
62
34
80
2
63
9
64
76
67
13
71
43
21
74
72
60
65
50
37
5
70
66
18
36
10
8
77
24
52
22
73
31
20
58
68
41
28
15
44
33
51
54
39
32
11
17
35
46
30
38
40
42
7
49

> <PUBCHEM_MMFF94_PARTIAL_CHARGES>
11
1 -0.41
13 0.36
2 -0.9
20 0.36
21 0.36
22 0.18
3 -0.99
4 0.27
6 0.27
7 0.27
8 0.23

> <PUBCHEM_EFFECTIVE_ROTOR_COUNT>
5

> <PUBCHEM_PHARMACOPHORE_FEATURES>
4
1 2 cation
1 2 donor
1 3 cation
1 3 donor

> <PUBCHEM_HEAVY_ATOM_COUNT>
8

> <PUBCHEM_ATOM_DEF_STEREO_COUNT>
0

> <PUBCHEM_ATOM_UDEF_STEREO_COUNT>
0

> <PUBCHEM_BOND_DEF_STEREO_COUNT>
0

> <PUBCHEM_BOND_UDEF_STEREO_COUNT>
0

> <PUBCHEM_ISOTOPIC_ATOM_COUNT>
0

> <PUBCHEM_COMPONENT_COUNT>
1

> <PUBCHEM_CACTVS_TAUTO_COUNT>
1

> <PUBCHEM_CONFORMER_ID>
0001996700000001

> <PUBCHEM_MMFF94_ENERGY>
-5.738

> <PUBCHEM_FEATURE_SELFOVERLAP>
20.297

> <PUBCHEM_SHAPE_FINGERPRINT>
11062470 55 18411136939642504328
12932764 1 15647348488532440708
14123238 8 18411419501029650108
14325111 11 18410855490309068354
17834076 25 17603302652723805832
18342897 14 17967248715131473065
190213 19 15698277828275859328
20645477 70 18261671592743365806
20719005 15 18411138034922455330
22485316 2 18202568383998962531
42788 4 18410575089047820941

> <PUBCHEM_SHAPE_MULTIPOLES>
158.52
9.04
0.79
0.61
0.43
0.02
0
0.34
-0.04
0.12
0
0.09
0.01
0.01

> <PUBCHEM_SHAPE_SELFOVERLAP>
265.338

> <PUBCHEM_SHAPE_VOLUME>
109

> <PUBCHEM_COORDINATE_TYPE>
2
5
10

$$$$

