253756
  -OEChem-07051213063D

 35 37  0     1  0  0  0  0  0999 V2000
    5.3207    1.4901   -0.3240 O   0  0  0  0  0  0  0  0  0  0  0  0
   -5.5923    0.0477   -0.3082 O   0  0  0  0  0  0  0  0  0  0  0  0
    2.2983   -0.2126    0.3645 C   0  0  1  0  0  0  0  0  0  0  0  0
    0.8610   -0.3875   -0.0967 C   0  0  1  0  0  0  0  0  0  0  0  0
    3.2166   -1.3379   -0.1145 C   0  0  0  0  0  0  0  0  0  0  0  0
    0.2796   -1.7102    0.4108 C   0  0  0  0  0  0  0  0  0  0  0  0
   -0.0092    0.7817    0.3880 C   0  0  0  0  0  0  0  0  0  0  0  0
    2.9497    1.0567   -0.1882 C   0  0  0  0  0  0  0  0  0  0  0  0
    4.6235   -0.7851    0.0791 C   0  0  0  0  0  0  0  0  0  0  0  0
   -1.1195   -1.9350   -0.1606 C   0  0  0  0  0  0  0  0  0  0  0  0
   -1.4865    0.5591    0.1746 C   0  0  0  0  0  0  0  0  0  0  0  0
    4.4108    0.6863   -0.1650 C   0  0  0  0  0  0  0  0  0  0  0  0
   -2.0134   -0.7265   -0.0443 C   0  0  0  0  0  0  0  0  0  0  0  0
   -2.3580    1.6559    0.2540 C   0  0  0  0  0  0  0  0  0  0  0  0
   -3.3973   -0.8838   -0.2161 C   0  0  0  0  0  0  0  0  0  0  0  0
   -3.7325    1.4850    0.0921 C   0  0  0  0  0  0  0  0  0  0  0  0
   -4.2516    0.2158   -0.1456 C   0  0  0  0  0  0  0  0  0  0  0  0
    0.8357   -0.4056   -1.1962 H   0  0  0  0  0  0  0  0  0  0  0  0
    2.3375   -0.1795    1.4632 H   0  0  0  0  0  0  0  0  0  0  0  0
    3.0451   -1.5590   -1.1756 H   0  0  0  0  0  0  0  0  0  0  0  0
    3.0885   -2.2652    0.4518 H   0  0  0  0  0  0  0  0  0  0  0  0
    0.2345   -1.7008    1.5079 H   0  0  0  0  0  0  0  0  0  0  0  0
    0.8979   -2.5666    0.1234 H   0  0  0  0  0  0  0  0  0  0  0  0
    0.2881    1.6974   -0.1378 H   0  0  0  0  0  0  0  0  0  0  0  0
    0.1502    0.9497    1.4612 H   0  0  0  0  0  0  0  0  0  0  0  0
    2.7624    1.9234    0.4505 H   0  0  0  0  0  0  0  0  0  0  0  0
    2.6578    1.2633   -1.2222 H   0  0  0  0  0  0  0  0  0  0  0  0
    5.3297   -1.2095   -0.6374 H   0  0  0  0  0  0  0  0  0  0  0  0
    4.9733   -0.9289    1.1053 H   0  0  0  0  0  0  0  0  0  0  0  0
   -1.5768   -2.7871    0.3566 H   0  0  0  0  0  0  0  0  0  0  0  0
   -1.0392   -2.1970   -1.2231 H   0  0  0  0  0  0  0  0  0  0  0  0
   -1.9672    2.6530    0.4432 H   0  0  0  0  0  0  0  0  0  0  0  0
   -3.8108   -1.8720   -0.4060 H   0  0  0  0  0  0  0  0  0  0  0  0
   -4.3865    2.3506    0.1540 H   0  0  0  0  0  0  0  0  0  0  0  0
   -6.0304    0.9125   -0.2285 H   0  0  0  0  0  0  0  0  0  0  0  0
  1 12  2  0  0  0  0
  2 17  1  0  0  0  0
  2 35  1  0  0  0  0
  3  4  1  0  0  0  0
  3  5  1  0  0  0  0
  3  8  1  0  0  0  0
  3 19  1  0  0  0  0
  4  6  1  0  0  0  0
  4  7  1  0  0  0  0
  4 18  1  0  0  0  0
  5  9  1  0  0  0  0
  5 20  1  0  0  0  0
  5 21  1  0  0  0  0
  6 10  1  0  0  0  0
  6 22  1  0  0  0  0
  6 23  1  0  0  0  0
  7 11  1  0  0  0  0
  7 24  1  0  0  0  0
  7 25  1  0  0  0  0
  8 12  1  0  0  0  0
  8 26  1  0  0  0  0
  8 27  1  0  0  0  0
  9 12  1  0  0  0  0
  9 28  1  0  0  0  0
  9 29  1  0  0  0  0
 10 13  1  0  0  0  0
 10 30  1  0  0  0  0
 10 31  1  0  0  0  0
 11 13  2  0  0  0  0
 11 14  1  0  0  0  0
 13 15  1  0  0  0  0
 14 16  2  0  0  0  0
 14 32  1  0  0  0  0
 15 17  2  0  0  0  0
 15 33  1  0  0  0  0
 16 17  1  0  0  0  0
 16 34  1  0  0  0  0
M  END
> <PUBCHEM_COMPOUND_CID>
253756

> <PUBCHEM_CONFORMER_RMSD>
0.6

> <PUBCHEM_CONFORMER_DIVERSEORDER>
1
15
12
16
8
5
10
4
13
11
2
3
14
6
7
9

> <PUBCHEM_MMFF94_PARTIAL_CHARGES>
17
1 -0.57
10 0.14
11 -0.14
12 0.45
13 -0.14
14 -0.15
15 -0.15
16 -0.15
17 0.08
2 -0.53
32 0.15
33 0.15
34 0.15
35 0.45
7 0.14
8 0.06
9 0.06

> <PUBCHEM_EFFECTIVE_ROTOR_COUNT>
2.6

> <PUBCHEM_PHARMACOPHORE_FEATURES>
5
1 1 acceptor
1 2 donor
5 3 5 8 9 12 rings
6 11 13 14 15 16 17 rings
6 4 6 7 10 11 13 rings

> <PUBCHEM_HEAVY_ATOM_COUNT>
17

> <PUBCHEM_ATOM_DEF_STEREO_COUNT>
0

> <PUBCHEM_ATOM_UDEF_STEREO_COUNT>
2

> <PUBCHEM_BOND_DEF_STEREO_COUNT>
0

> <PUBCHEM_BOND_UDEF_STEREO_COUNT>
0

> <PUBCHEM_ISOTOPIC_ATOM_COUNT>
0

> <PUBCHEM_COMPONENT_COUNT>
1

> <PUBCHEM_CACTVS_TAUTO_COUNT>
27

> <PUBCHEM_CONFORMER_ID>
0003DF3C00000001

> <PUBCHEM_MMFF94_ENERGY>
35.5577

> <PUBCHEM_FEATURE_SELFOVERLAP>
25.393

> <PUBCHEM_SHAPE_FINGERPRINT>
10014705 185 18272654566884504365
10498660 4 18341615978912237637
12107183 9 17619068768887016424
12236239 1 18202848759627367779
12390115 104 18042106817300032633
12670546 56 17131560542974574640
12916748 109 18411414020656681171
15196674 1 18410292540239518064
15536298 74 18335982060157077766
17834072 33 18335141981364331012
18186145 218 18272091634195166358
200 152 17530967994461251715
20300324 65 18186522094608412613
20510252 161 18260827141626347889
20645477 56 18411700954763782280
20645477 70 18188205515767658566
21267235 1 18410003368692313283
21524375 3 18411699915207831203
21652331 79 18413671322313195940
23366157 5 17984415510393416930
23402539 116 18334301950433831807
23402655 69 18334575741919602564
23557571 272 18116706327064446686
23559900 14 18333169462648374642
245318 6 16768996335320357156
3004659 81 18411698829424955174
34797466 226 17530958043349574860
351380 180 18409168813670614228
3545911 37 18410853248742315300
4028521 119 18341618135080336941
4214541 1 18410012156195063084
4340502 62 16845569838150058307
4463277 17 18408885153404953937
474 4 17703222919714193212
474229 33 18410011035694265779
4990 188 17967529107792073926
5104073 3 18411981369057567098
542803 24 17458059369786102304
633830 44 18338236075857500382
69090 78 18407761443098047414
77779 3 18410291428138426470
9709674 26 18335976519586358854

> <PUBCHEM_SHAPE_MULTIPOLES>
338.11
10.66
1.8
0.66
2.48
0.17
-0.02
-2.79
1.23
0.08
-0.02
0.02
0.01
-0.36

> <PUBCHEM_SHAPE_SELFOVERLAP>
727.918

> <PUBCHEM_SHAPE_VOLUME>
186.9

> <PUBCHEM_COORDINATE_TYPE>
2
5
10

$$$$

