189481
  -OEChem-07051213153D

 54 55  0     1  0  0  0  0  0999 V2000
   -3.0398    1.5371    1.8812 O   0  0  0  0  0  0  0  0  0  0  0  0
   -0.4267   -0.4749   -0.9273 O   0  0  0  0  0  0  0  0  0  0  0  0
   -4.2319   -2.1998   -1.4316 O   0  0  0  0  0  0  0  0  0  0  0  0
   -2.4923    2.2416   -0.2598 N   0  0  0  0  0  0  0  0  0  0  0  0
   -2.0932   -0.9478    0.6201 N   0  0  0  0  0  0  0  0  0  0  0  0
    3.0335   -3.0488   -1.0219 N   0  0  0  0  0  0  0  0  0  0  0  0
    3.9748    3.2858   -1.1167 N   0  0  0  0  0  0  0  0  0  0  0  0
   -6.2324   -2.1404   -0.3011 N   0  0  0  0  0  0  0  0  0  0  0  0
   -3.1049   -0.0789    0.0747 C   0  0  2  0  0  0  0  0  0  0  0  0
   -0.7214    3.7736    0.4584 C   0  0  0  0  0  0  0  0  0  0  0  0
    0.1903    3.3819   -0.7045 C   0  0  0  0  0  0  0  0  0  0  0  0
   -2.1910    3.6020    0.0931 C   0  0  0  0  0  0  0  0  0  0  0  0
    1.6666    3.5169   -0.3250 C   0  0  0  0  0  0  0  0  0  0  0  0
    1.3777   -2.2625    0.2300 C   0  0  0  0  0  0  0  0  0  0  0  0
   -2.9000    1.3031    0.6824 C   0  0  0  0  0  0  0  0  0  0  0  0
    0.0240   -2.0727    0.8386 C   0  0  0  0  0  0  0  0  0  0  0  0
   -4.5148   -0.5923    0.3678 C   0  0  0  0  0  0  0  0  0  0  0  0
    2.5546   -1.5220    0.5327 C   0  0  0  0  0  0  0  0  0  0  0  0
   -0.8237   -1.0756    0.0681 C   0  0  0  0  0  0  0  0  0  0  0  0
    3.5786   -2.0353   -0.2662 C   0  0  0  0  0  0  0  0  0  0  0  0
    2.5740    3.1598   -1.5011 C   0  0  0  0  0  0  0  0  0  0  0  0
    1.7040   -3.1936   -0.7291 C   0  0  0  0  0  0  0  0  0  0  0  0
    2.8479   -0.4612    1.4125 C   0  0  0  0  0  0  0  0  0  0  0  0
    4.8864   -1.5386   -0.2293 C   0  0  0  0  0  0  0  0  0  0  0  0
   -4.9455   -1.7168   -0.5574 C   0  0  0  0  0  0  0  0  0  0  0  0
    4.1516    0.0457    1.4602 C   0  0  0  0  0  0  0  0  0  0  0  0
    5.1537   -0.4863    0.6510 C   0  0  0  0  0  0  0  0  0  0  0  0
   -2.9536   -0.0238   -1.0101 H   0  0  0  0  0  0  0  0  0  0  0  0
   -0.4834    3.1568    1.3339 H   0  0  0  0  0  0  0  0  0  0  0  0
   -0.5395    4.8179    0.7378 H   0  0  0  0  0  0  0  0  0  0  0  0
   -0.0274    4.0189   -1.5705 H   0  0  0  0  0  0  0  0  0  0  0  0
    0.0024    2.3465   -1.0100 H   0  0  0  0  0  0  0  0  0  0  0  0
   -2.4495    4.2287   -0.7670 H   0  0  0  0  0  0  0  0  0  0  0  0
   -2.8211    3.9087    0.9349 H   0  0  0  0  0  0  0  0  0  0  0  0
    1.8862    2.8608    0.5268 H   0  0  0  0  0  0  0  0  0  0  0  0
    1.8673    4.5458   -0.0004 H   0  0  0  0  0  0  0  0  0  0  0  0
   -0.5078   -3.0319    0.8657 H   0  0  0  0  0  0  0  0  0  0  0  0
    0.1189   -1.7235    1.8734 H   0  0  0  0  0  0  0  0  0  0  0  0
   -5.2385    0.2236    0.2409 H   0  0  0  0  0  0  0  0  0  0  0  0
   -4.5988   -0.9427    1.4043 H   0  0  0  0  0  0  0  0  0  0  0  0
   -2.3936    1.9719   -1.2339 H   0  0  0  0  0  0  0  0  0  0  0  0
   -2.3011   -1.4411    1.4840 H   0  0  0  0  0  0  0  0  0  0  0  0
    2.3845    2.1300   -1.8229 H   0  0  0  0  0  0  0  0  0  0  0  0
    2.3700    3.8189   -2.3520 H   0  0  0  0  0  0  0  0  0  0  0  0
    1.1108   -3.9458   -1.2303 H   0  0  0  0  0  0  0  0  0  0  0  0
    3.5419   -3.6049   -1.6954 H   0  0  0  0  0  0  0  0  0  0  0  0
    2.0781   -0.0327    2.0481 H   0  0  0  0  0  0  0  0  0  0  0  0
    5.6671   -1.9519   -0.8591 H   0  0  0  0  0  0  0  0  0  0  0  0
    4.3830    0.8652    2.1354 H   0  0  0  0  0  0  0  0  0  0  0  0
    6.1592   -0.0766    0.7036 H   0  0  0  0  0  0  0  0  0  0  0  0
    4.5658    3.0917   -1.9240 H   0  0  0  0  0  0  0  0  0  0  0  0
    4.1709    4.2479   -0.8433 H   0  0  0  0  0  0  0  0  0  0  0  0
   -6.6529   -2.8885   -0.8424 H   0  0  0  0  0  0  0  0  0  0  0  0
   -6.8046   -1.7278    0.4287 H   0  0  0  0  0  0  0  0  0  0  0  0
  1 15  2  0  0  0  0
  2 19  2  0  0  0  0
  3 25  2  0  0  0  0
  4 12  1  0  0  0  0
  4 15  1  0  0  0  0
  4 41  1  0  0  0  0
  5  9  1  0  0  0  0
  5 19  1  0  0  0  0
  5 42  1  0  0  0  0
  6 20  1  0  0  0  0
  6 22  1  0  0  0  0
  6 46  1  0  0  0  0
  7 21  1  0  0  0  0
  7 51  1  0  0  0  0
  7 52  1  0  0  0  0
  8 25  1  0  0  0  0
  8 53  1  0  0  0  0
  8 54  1  0  0  0  0
  9 15  1  0  0  0  0
  9 17  1  0  0  0  0
  9 28  1  0  0  0  0
 10 11  1  0  0  0  0
 10 12  1  0  0  0  0
 10 29  1  0  0  0  0
 10 30  1  0  0  0  0
 11 13  1  0  0  0  0
 11 31  1  0  0  0  0
 11 32  1  0  0  0  0
 12 33  1  0  0  0  0
 12 34  1  0  0  0  0
 13 21  1  0  0  0  0
 13 35  1  0  0  0  0
 13 36  1  0  0  0  0
 14 16  1  0  0  0  0
 14 18  1  0  0  0  0
 14 22  2  0  0  0  0
 16 19  1  0  0  0  0
 16 37  1  0  0  0  0
 16 38  1  0  0  0  0
 17 25  1  0  0  0  0
 17 39  1  0  0  0  0
 17 40  1  0  0  0  0
 18 20  1  0  0  0  0
 18 23  2  0  0  0  0
 20 24  2  0  0  0  0
 21 43  1  0  0  0  0
 21 44  1  0  0  0  0
 22 45  1  0  0  0  0
 23 26  1  0  0  0  0
 23 47  1  0  0  0  0
 24 27  1  0  0  0  0
 24 48  1  0  0  0  0
 26 27  2  0  0  0  0
 26 49  1  0  0  0  0
 27 50  1  0  0  0  0
M  END
> <PUBCHEM_COMPOUND_CID>
189481

> <PUBCHEM_CONFORMER_RMSD>
1.2

> <PUBCHEM_CONFORMER_DIVERSEORDER>
1
9
100
101
49
163
113
161
136
108
18
35
61
48
169
177
131
120
164
145
144
95
60
98
94
65
217
127
28
178
226
106
21
134
72
126
114
84
116
139
58
74
208
70
110
63
221
93
200
189
118
124
202
51
111
174
165
223
214
206
67
153
156
129
233
37
231
109
132
96
59
68
211
62
92
147
181
232
201
31
83
88
130
150
194
218
122
56
234
138
78
4
86
225
187
203
204
199
141
125
23
228
43
215
222
133
11
77
186
209
45
188
205
15
53
158
180
224
40
197
34
135
196
121
146
166
73
16
123
25
107
91
44
30
176
162
192
190
207
22
154
75
151
13
128
155
167
2
179
89
171
38
87
119
175
220
157
105
14
71
69
170
160
41
20
152
230
219
46
33
212
80
17
57
103
142
104
193
85
159
24
112
210
32
191
50
229
168
42
184
173
79
82
99
143
172
198
55
183
66
54
76
27
137
81
97
227
6
148
90
47
64
102
149
216
235
12
140
182
3
5
195
52
115
39
26
213
36
185
8
117
10
7
19
29

> <PUBCHEM_MMFF94_PARTIAL_CHARGES>
35
1 -0.57
12 0.3
14 -0.18
15 0.57
16 0.24
17 0.06
19 0.57
2 -0.57
20 -0.15
21 0.27
22 -0.3
23 -0.15
24 -0.15
25 0.57
26 -0.15
27 -0.15
3 -0.57
4 -0.73
41 0.37
42 0.37
45 0.15
46 0.27
47 0.15
48 0.15
49 0.15
5 -0.73
50 0.15
51 0.36
52 0.36
53 0.37
54 0.37
6 0.03
7 -0.99
8 -0.8
9 0.36

> <PUBCHEM_EFFECTIVE_ROTOR_COUNT>
13

> <PUBCHEM_PHARMACOPHORE_FEATURES>
12
1 1 acceptor
1 2 acceptor
1 3 acceptor
1 4 donor
1 5 donor
1 6 cation
1 6 donor
1 7 cation
1 7 donor
1 8 donor
5 6 14 18 20 22 rings
6 18 20 23 24 26 27 rings

> <PUBCHEM_HEAVY_ATOM_COUNT>
27

> <PUBCHEM_ATOM_DEF_STEREO_COUNT>
1

> <PUBCHEM_ATOM_UDEF_STEREO_COUNT>
0

> <PUBCHEM_BOND_DEF_STEREO_COUNT>
0

> <PUBCHEM_BOND_UDEF_STEREO_COUNT>
0

> <PUBCHEM_ISOTOPIC_ATOM_COUNT>
0

> <PUBCHEM_COMPONENT_COUNT>
1

> <PUBCHEM_CACTVS_TAUTO_COUNT>
8

> <PUBCHEM_CONFORMER_ID>
0002E42900000001

> <PUBCHEM_MMFF94_ENERGY>
32.6964

> <PUBCHEM_FEATURE_SELFOVERLAP>
60.984

> <PUBCHEM_SHAPE_FINGERPRINT>
10498660 4 18125726935217180432
10670039 82 18340476864208183334
11513181 2 18262224612673805302
15961568 22 18411420605363921740
19026451 147 18341055111986000875
21344244 246 18051419461886296919
23559900 14 18336277764682291163
25019877 29 17459200603396508070
6287921 2 18336258050534502072
7399639 24 18115045068221863322

> <PUBCHEM_SHAPE_MULTIPOLES>
513.13
10.78
5.58
1.27
4.86
5.62
-0.12
-6.53
0.11
-0.72
1.85
-0.39
0.21
-1.57

> <PUBCHEM_SHAPE_SELFOVERLAP>
1058.58

> <PUBCHEM_SHAPE_VOLUME>
293.7

> <PUBCHEM_COORDINATE_TYPE>
2
5
10

$$$$

