8314
  -OEChem-07051213113D

 17 16  0     1  0  0  0  0  0999 V2000
   -1.8717   -0.4600   -0.8524 O   0  0  0  0  0  0  0  0  0  0  0  0
   -0.8275   -1.0862    1.0619 O   0  0  0  0  0  0  0  0  0  0  0  0
    0.1716    0.6593   -0.3160 C   0  0  2  0  0  0  0  0  0  0  0  0
    1.5706    0.2854    0.1994 C   0  0  0  0  0  0  0  0  0  0  0  0
   -0.2719    2.0017    0.2604 C   0  0  0  0  0  0  0  0  0  0  0  0
    2.0928   -1.0100   -0.4093 C   0  0  0  0  0  0  0  0  0  0  0  0
   -0.8639   -0.3900    0.0559 C   0  0  0  0  0  0  0  0  0  0  0  0
    0.2123    0.7275   -1.4104 H   0  0  0  0  0  0  0  0  0  0  0  0
    1.5621    0.1849    1.2917 H   0  0  0  0  0  0  0  0  0  0  0  0
    2.2737    1.0920   -0.0412 H   0  0  0  0  0  0  0  0  0  0  0  0
   -0.3336    1.9646    1.3538 H   0  0  0  0  0  0  0  0  0  0  0  0
   -1.2628    2.2798   -0.1148 H   0  0  0  0  0  0  0  0  0  0  0  0
    0.4287    2.7963   -0.0162 H   0  0  0  0  0  0  0  0  0  0  0  0
    1.4793   -1.8701   -0.1263 H   0  0  0  0  0  0  0  0  0  0  0  0
    2.1152   -0.9473   -1.5019 H   0  0  0  0  0  0  0  0  0  0  0  0
    3.1132   -1.2017   -0.0617 H   0  0  0  0  0  0  0  0  0  0  0  0
   -2.5430   -1.1302   -0.6022 H   0  0  0  0  0  0  0  0  0  0  0  0
  1  7  1  0  0  0  0
  1 17  1  0  0  0  0
  2  7  2  0  0  0  0
  3  4  1  0  0  0  0
  3  5  1  0  0  0  0
  3  7  1  0  0  0  0
  3  8  1  0  0  0  0
  4  6  1  0  0  0  0
  4  9  1  0  0  0  0
  4 10  1  0  0  0  0
  5 11  1  0  0  0  0
  5 12  1  0  0  0  0
  5 13  1  0  0  0  0
  6 14  1  0  0  0  0
  6 15  1  0  0  0  0
  6 16  1  0  0  0  0
M  END
> <PUBCHEM_COMPOUND_CID>
8314

> <PUBCHEM_CONFORMER_RMSD>
0.4

> <PUBCHEM_CONFORMER_DIVERSEORDER>
1
3
10
8
7
4
9
6
5
2

> <PUBCHEM_MMFF94_PARTIAL_CHARGES>
5
1 -0.65
17 0.5
2 -0.57
3 0.06
7 0.66

> <PUBCHEM_EFFECTIVE_ROTOR_COUNT>
2

> <PUBCHEM_PHARMACOPHORE_FEATURES>
5
1 1 acceptor
1 2 acceptor
1 5 hydrophobe
1 6 hydrophobe
3 1 2 7 anion

> <PUBCHEM_HEAVY_ATOM_COUNT>
7

> <PUBCHEM_ATOM_DEF_STEREO_COUNT>
0

> <PUBCHEM_ATOM_UDEF_STEREO_COUNT>
1

> <PUBCHEM_BOND_DEF_STEREO_COUNT>
0

> <PUBCHEM_BOND_UDEF_STEREO_COUNT>
0

> <PUBCHEM_ISOTOPIC_ATOM_COUNT>
0

> <PUBCHEM_COMPONENT_COUNT>
1

> <PUBCHEM_CACTVS_TAUTO_COUNT>
1

> <PUBCHEM_CONFORMER_ID>
0000207A00000001

> <PUBCHEM_MMFF94_ENERGY>
4.1192

> <PUBCHEM_FEATURE_SELFOVERLAP>
25.43

> <PUBCHEM_SHAPE_FINGERPRINT>
139733 1 9439410116109715300
20096714 4 10159706789162410478
21040471 1 17131015116661729295
24536 1 18273205417988567990
29004967 10 18337108943352715042
5943 1 8704816871297143353

> <PUBCHEM_SHAPE_MULTIPOLES>
132.32
2.25
1.61
0.85
1.05
0.76
0.06
-0.77
-0.39
-0.4
0.17
-0.19
-0.2
0.05

> <PUBCHEM_SHAPE_SELFOVERLAP>
240.025

> <PUBCHEM_SHAPE_VOLUME>
85.3

> <PUBCHEM_COORDINATE_TYPE>
2
5
10

$$$$

