854342
  -OEChem-06241222483D

 35 36  0     0  0  0  0  0  0999 V2000
    4.9142    0.2242    0.2605 O   0  0  0  0  0  0  0  0  0  0  0  0
   -4.3296   -1.7348    0.1603 O   0  0  0  0  0  0  0  0  0  0  0  0
   -2.5639    1.4006   -0.2217 N   0  0  0  0  0  0  0  0  0  0  0  0
   -1.2576    1.7165   -0.2167 N   0  0  0  0  0  0  0  0  0  0  0  0
   -5.2090    0.3642   -0.1704 N   0  0  0  0  0  0  0  0  0  0  0  0
   -6.5026   -0.1247   -0.1733 N   0  0  0  0  0  0  0  0  0  0  0  0
   -0.6572    0.5382   -0.0135 C   0  0  0  0  0  0  0  0  0  0  0  0
   -1.5801   -0.5212    0.1098 C   0  0  0  0  0  0  0  0  0  0  0  0
    0.7747    0.4570    0.0569 C   0  0  0  0  0  0  0  0  0  0  0  0
   -2.8107    0.0728   -0.0298 C   0  0  0  0  0  0  0  0  0  0  0  0
   -1.2942   -1.9501    0.3378 C   0  0  0  0  0  0  0  0  0  0  0  0
    1.5186    0.2365   -1.1022 C   0  0  0  0  0  0  0  0  0  0  0  0
    1.4218    0.5990    1.2845 C   0  0  0  0  0  0  0  0  0  0  0  0
    3.5567    0.2998    0.1938 C   0  0  0  0  0  0  0  0  0  0  0  0
    2.9096    0.1578   -1.0337 C   0  0  0  0  0  0  0  0  0  0  0  0
    2.8128    0.5204    1.3528 C   0  0  0  0  0  0  0  0  0  0  0  0
   -4.1145   -0.5065    0.0057 C   0  0  0  0  0  0  0  0  0  0  0  0
    5.5662   -0.6037   -0.7014 C   0  0  0  0  0  0  0  0  0  0  0  0
    6.8449   -1.1459   -0.0993 C   0  0  0  0  0  0  0  0  0  0  0  0
   -0.2219   -2.1508    0.4215 H   0  0  0  0  0  0  0  0  0  0  0  0
   -1.7651   -2.2942    1.2646 H   0  0  0  0  0  0  0  0  0  0  0  0
   -1.6777   -2.5563   -0.4895 H   0  0  0  0  0  0  0  0  0  0  0  0
   -3.2294    2.1500   -0.3626 H   0  0  0  0  0  0  0  0  0  0  0  0
    1.0296    0.1296   -2.0677 H   0  0  0  0  0  0  0  0  0  0  0  0
    0.8566    0.7711    2.1975 H   0  0  0  0  0  0  0  0  0  0  0  0
    3.4524    0.0127   -1.9630 H   0  0  0  0  0  0  0  0  0  0  0  0
    3.3114    0.6316    2.3118 H   0  0  0  0  0  0  0  0  0  0  0  0
    4.9471   -1.4634   -0.9868 H   0  0  0  0  0  0  0  0  0  0  0  0
    5.7989   -0.0075   -1.5906 H   0  0  0  0  0  0  0  0  0  0  0  0
   -5.0980    1.3635   -0.3060 H   0  0  0  0  0  0  0  0  0  0  0  0
    7.3775   -1.7783   -0.8151 H   0  0  0  0  0  0  0  0  0  0  0  0
    7.5043   -0.3271    0.2068 H   0  0  0  0  0  0  0  0  0  0  0  0
    6.6294   -1.7334    0.7994 H   0  0  0  0  0  0  0  0  0  0  0  0
   -7.0104    0.3813    0.5510 H   0  0  0  0  0  0  0  0  0  0  0  0
   -6.9216    0.1557   -1.0590 H   0  0  0  0  0  0  0  0  0  0  0  0
  1 14  1  0  0  0  0
  1 18  1  0  0  0  0
  2 17  2  0  0  0  0
  3  4  1  0  0  0  0
  3 10  1  0  0  0  0
  3 23  1  0  0  0  0
  4  7  2  0  0  0  0
  5  6  1  0  0  0  0
  5 17  1  0  0  0  0
  5 30  1  0  0  0  0
  6 34  1  0  0  0  0
  6 35  1  0  0  0  0
  7  8  1  0  0  0  0
  7  9  1  0  0  0  0
  8 10  2  0  0  0  0
  8 11  1  0  0  0  0
  9 12  2  0  0  0  0
  9 13  1  0  0  0  0
 10 17  1  0  0  0  0
 11 20  1  0  0  0  0
 11 21  1  0  0  0  0
 11 22  1  0  0  0  0
 12 15  1  0  0  0  0
 12 24  1  0  0  0  0
 13 16  2  0  0  0  0
 13 25  1  0  0  0  0
 14 15  2  0  0  0  0
 14 16  1  0  0  0  0
 15 26  1  0  0  0  0
 16 27  1  0  0  0  0
 18 19  1  0  0  0  0
 18 28  1  0  0  0  0
 18 29  1  0  0  0  0
 19 31  1  0  0  0  0
 19 32  1  0  0  0  0
 19 33  1  0  0  0  0
M  END
> <PUBCHEM_COMPOUND_CID>
854342

> <PUBCHEM_CONFORMER_RMSD>
0.6

> <PUBCHEM_CONFORMER_DIVERSEORDER>
1
31
24
34
30
10
7
27
22
20
32
26
19
14
35
9
13
15
36
16
21
23
29
12
11
33
5
28
17
25
8
6
3
4
18
2

> <PUBCHEM_MMFF94_PARTIAL_CHARGES>
26
1 -0.36
10 -0.24
11 0.18
12 -0.15
13 -0.15
14 0.08
15 -0.15
16 -0.15
17 0.71
18 0.28
2 -0.57
23 0.27
24 0.15
25 0.15
26 0.15
27 0.15
3 0.3
30 0.37
34 0.36
35 0.36
4 -0.71
5 -0.42
6 -0.73
7 0.23
8 -0.18
9 0.05

> <PUBCHEM_EFFECTIVE_ROTOR_COUNT>
5

> <PUBCHEM_PHARMACOPHORE_FEATURES>
8
1 1 acceptor
1 2 acceptor
1 3 donor
1 4 acceptor
1 5 donor
1 6 donor
5 3 4 7 8 10 rings
6 9 12 13 14 15 16 rings

> <PUBCHEM_HEAVY_ATOM_COUNT>
19

> <PUBCHEM_ATOM_DEF_STEREO_COUNT>
0

> <PUBCHEM_ATOM_UDEF_STEREO_COUNT>
0

> <PUBCHEM_BOND_DEF_STEREO_COUNT>
0

> <PUBCHEM_BOND_UDEF_STEREO_COUNT>
0

> <PUBCHEM_ISOTOPIC_ATOM_COUNT>
0

> <PUBCHEM_COMPONENT_COUNT>
1

> <PUBCHEM_CACTVS_TAUTO_COUNT>
6

> <PUBCHEM_CONFORMER_ID>
000D094600000001

> <PUBCHEM_MMFF94_ENERGY>
45.7696

> <PUBCHEM_FEATURE_SELFOVERLAP>
42.097

> <PUBCHEM_SHAPE_FINGERPRINT>
106641 1 15647346225702224454
11315181 36 18410005533877927136
11796584 16 18409164407477890782
12236239 1 17489869340641849404
13288520 33 18411980273524433628
13760787 19 16773801368509919507
13862211 1 18411136892894139095
14115302 16 18060133193918843180
14386348 63 18113334202163534871
15042514 8 18269270167400434859
15048467 5 12607405502762577503
1813 80 15647316547441468048
19141452 34 17676771977090467215
200 152 16271932609873282277
20279233 1 17822283574607894830
20374829 77 18335137579059964223
21150785 3 17989197141387710182
21267235 1 18273208678216931307
21641784 216 13757792698125569886
22224240 67 15068630396514325030
2297311 6 18411415128784961620
23035841 295 18273215304766010587
23175994 123 17530682104295448256
23402539 116 18410296895652841741
23402655 69 14620524418916826607
23557571 272 18335419109829480540
23559900 14 18339365158551380424
26918003 58 16588023494028735623
29717793 49 17989201560502914806
3004659 81 18131633370327408892
335352 9 18412826876620046541
34797466 226 18334563622102610244
465052 167 17894346679700877766
474 4 14057584297103229210
542803 24 16200435775413360021
69090 78 17530688676011895575
7495541 125 18113617846631720344

> <PUBCHEM_SHAPE_MULTIPOLES>
359.35
13.76
1.35
0.97
3.06
0.35
-0.1
4.34
1.31
-0.65
-0.09
0.81
-0.12
0.52

> <PUBCHEM_SHAPE_SELFOVERLAP>
765.115

> <PUBCHEM_SHAPE_VOLUME>
202.1

> <PUBCHEM_COORDINATE_TYPE>
2
5
10

$$$$

