12643
  -OEChem-06261207113D

 35 35  0     0  0  0  0  0  0999 V2000
    1.9619   -0.6854    0.8021 O   0  0  0  0  0  0  0  0  0  0  0  0
    2.5955    0.7477   -0.9157 O   0  0  0  0  0  0  0  0  0  0  0  0
    4.0203    0.3263    0.8660 N   0  0  0  0  0  0  0  0  0  0  0  0
   -2.6876    0.6379    0.0873 C   0  0  0  0  0  0  0  0  0  0  0  0
   -3.1284    0.5430    1.5660 C   0  0  0  0  0  0  0  0  0  0  0  0
   -2.4004    2.1120   -0.2789 C   0  0  0  0  0  0  0  0  0  0  0  0
   -1.5039   -0.2678   -0.2154 C   0  0  0  0  0  0  0  0  0  0  0  0
   -3.6250   -0.8435    1.9591 C   0  0  0  0  0  0  0  0  0  0  0  0
   -2.0808    2.3148   -1.7554 C   0  0  0  0  0  0  0  0  0  0  0  0
   -0.3105   -0.0494    0.4428 C   0  0  0  0  0  0  0  0  0  0  0  0
   -1.6582   -1.2821   -1.1389 C   0  0  0  0  0  0  0  0  0  0  0  0
    0.7750   -0.8806    0.1655 C   0  0  0  0  0  0  0  0  0  0  0  0
   -0.5729   -2.1132   -1.4161 C   0  0  0  0  0  0  0  0  0  0  0  0
    0.6436   -1.9125   -0.7639 C   0  0  0  0  0  0  0  0  0  0  0  0
    2.8494    0.1916    0.1486 C   0  0  0  0  0  0  0  0  0  0  0  0
    5.1220    1.1611    0.4468 C   0  0  0  0  0  0  0  0  0  0  0  0
   -3.5435    0.3188   -0.5244 H   0  0  0  0  0  0  0  0  0  0  0  0
   -2.3178    0.8392    2.2423 H   0  0  0  0  0  0  0  0  0  0  0  0
   -3.9478    1.2526    1.7382 H   0  0  0  0  0  0  0  0  0  0  0  0
   -3.2841    2.7166   -0.0379 H   0  0  0  0  0  0  0  0  0  0  0  0
   -1.5773    2.5150    0.3232 H   0  0  0  0  0  0  0  0  0  0  0  0
   -2.8241   -1.5874    1.9117 H   0  0  0  0  0  0  0  0  0  0  0  0
   -4.0030   -0.8284    2.9865 H   0  0  0  0  0  0  0  0  0  0  0  0
   -4.4397   -1.1686    1.3044 H   0  0  0  0  0  0  0  0  0  0  0  0
   -1.9823    3.3833   -1.9730 H   0  0  0  0  0  0  0  0  0  0  0  0
   -1.1395    1.8331   -2.0365 H   0  0  0  0  0  0  0  0  0  0  0  0
   -2.8789    1.9141   -2.3884 H   0  0  0  0  0  0  0  0  0  0  0  0
   -0.1959    0.7505    1.1682 H   0  0  0  0  0  0  0  0  0  0  0  0
   -2.6002   -1.4479   -1.6525 H   0  0  0  0  0  0  0  0  0  0  0  0
   -0.6750   -2.9167   -2.1396 H   0  0  0  0  0  0  0  0  0  0  0  0
    1.4849   -2.5641   -0.9840 H   0  0  0  0  0  0  0  0  0  0  0  0
    4.1124   -0.1890    1.7359 H   0  0  0  0  0  0  0  0  0  0  0  0
    6.0057    0.5283    0.3345 H   0  0  0  0  0  0  0  0  0  0  0  0
    5.3052    1.9019    1.2290 H   0  0  0  0  0  0  0  0  0  0  0  0
    4.9040    1.6650   -0.4976 H   0  0  0  0  0  0  0  0  0  0  0  0
  1 12  1  0  0  0  0
  1 15  1  0  0  0  0
  2 15  2  0  0  0  0
  3 15  1  0  0  0  0
  3 16  1  0  0  0  0
  3 32  1  0  0  0  0
  4  5  1  0  0  0  0
  4  6  1  0  0  0  0
  4  7  1  0  0  0  0
  4 17  1  0  0  0  0
  5  8  1  0  0  0  0
  5 18  1  0  0  0  0
  5 19  1  0  0  0  0
  6  9  1  0  0  0  0
  6 20  1  0  0  0  0
  6 21  1  0  0  0  0
  7 10  2  0  0  0  0
  7 11  1  0  0  0  0
  8 22  1  0  0  0  0
  8 23  1  0  0  0  0
  8 24  1  0  0  0  0
  9 25  1  0  0  0  0
  9 26  1  0  0  0  0
  9 27  1  0  0  0  0
 10 12  1  0  0  0  0
 10 28  1  0  0  0  0
 11 13  2  0  0  0  0
 11 29  1  0  0  0  0
 12 14  2  0  0  0  0
 13 14  1  0  0  0  0
 13 30  1  0  0  0  0
 14 31  1  0  0  0  0
 16 33  1  0  0  0  0
 16 34  1  0  0  0  0
 16 35  1  0  0  0  0
M  END
> <PUBCHEM_COMPOUND_CID>
12643

> <PUBCHEM_CONFORMER_RMSD>
0.8

> <PUBCHEM_CONFORMER_DIVERSEORDER>
1
48
58
55
21
70
65
39
33
57
37
60
24
74
38
56
8
50
7
59
14
51
29
40
71
68
73
6
17
35
15
9
64
66
13
32
4
54
72
69
61
41
27
16
75
46
10
2
44
62
30
49
31
34
18
25
43
5
3
22
52
11
19
20
45
67
42
28
53
47
36
63
26
12
23

> <PUBCHEM_MMFF94_PARTIAL_CHARGES>
17
1 -0.23
10 -0.15
11 -0.15
12 0.08
13 -0.15
14 -0.15
15 0.78
16 0.3
2 -0.57
28 0.15
29 0.15
3 -0.73
30 0.15
31 0.15
32 0.37
4 0.14
7 -0.14

> <PUBCHEM_EFFECTIVE_ROTOR_COUNT>
6

> <PUBCHEM_PHARMACOPHORE_FEATURES>
5
1 2 acceptor
1 3 donor
1 8 hydrophobe
1 9 hydrophobe
6 7 10 11 12 13 14 rings

> <PUBCHEM_HEAVY_ATOM_COUNT>
16

> <PUBCHEM_ATOM_DEF_STEREO_COUNT>
0

> <PUBCHEM_ATOM_UDEF_STEREO_COUNT>
0

> <PUBCHEM_BOND_DEF_STEREO_COUNT>
0

> <PUBCHEM_BOND_UDEF_STEREO_COUNT>
0

> <PUBCHEM_ISOTOPIC_ATOM_COUNT>
0

> <PUBCHEM_COMPONENT_COUNT>
1

> <PUBCHEM_CACTVS_TAUTO_COUNT>
2

> <PUBCHEM_CONFORMER_ID>
0000316300000001

> <PUBCHEM_MMFF94_ENERGY>
34.4097

> <PUBCHEM_FEATURE_SELFOVERLAP>
25.371

> <PUBCHEM_SHAPE_FINGERPRINT>
10803635 8 5833999334431259984
11132069 177 18336533954885674387
11221954 11 17836654389088788461
11543360 7 5039368038930837600
12173636 292 17458058278943562905
12363563 72 11743832564758414712
12403814 3 18412546479289957649
12892183 10 17703794725884754920
13214271 11 18060140937808343709
13296909 8 16845290583513157501
13583140 156 18058456563435890930
13675066 3 18343867736398176968
14289901 80 17561069341480058530
14614273 12 18261121759303191607
15279308 16 18199749305215940969
15309172 13 18113612409044718731
15342168 16 17968371372696878705
15375462 478 17918270943844274045
15775835 57 18334580144060646864
16945 1 18343575235771211351
1741750 31 17821449045456739418
17834072 14 12894786957385688555
18186145 218 17749103418163838974
18219364 16 18259989279438003161
18380122 1 18267849735678612435
200 152 17059783213033422843
20645477 56 18260547784553641544
21296965 12 18340215201361759981
21524375 3 18334298656083347046
22959321 28 18201432567054720981
23402539 116 18130791118814512571
23557571 272 17985804121081032645
23559900 14 17700675514212621487
25 1 16950556714191168506
27216 239 18341899614420930897
2748010 2 18193550301539550495
3286 77 16486968449840624652
6049 1 18052798528233934431
633830 44 17168413978214955684
81228 2 17898866638083725263
9925002 15 17903350408136604247

> <PUBCHEM_SHAPE_MULTIPOLES>
312.55
7.22
2.18
1.62
9.05
0.15
0.1
3.67
3.29
-1.02
-1.25
-1.57
0.02
0.78

> <PUBCHEM_SHAPE_SELFOVERLAP>
629.805

> <PUBCHEM_SHAPE_VOLUME>
182.4

> <PUBCHEM_COORDINATE_TYPE>
2
5
10

$$$$

