442293
  -OEChem-07051212573D

 39 41  0     1  0  0  0  0  0999 V2000
    2.7575   -2.1077    1.2253 O   0  0  0  0  0  0  0  0  0  0  0  0
    2.6736    1.7629    1.1745 O   0  0  0  0  0  0  0  0  0  0  0  0
   -2.8639    0.8281    1.0384 O   0  0  0  0  0  0  0  0  0  0  0  0
   -4.7671    0.0319    0.0207 O   0  0  0  0  0  0  0  0  0  0  0  0
    1.1785   -0.5742    0.2320 C   0  0  2  0  0  0  0  0  0  0  0  0
    1.3886    0.7047   -0.5974 C   0  0  2  0  0  0  0  0  0  0  0  0
    2.5348   -1.3008    0.0702 C   0  0  1  0  0  0  0  0  0  0  0  0
    2.7765    1.1492   -0.1077 C   0  0  2  0  0  0  0  0  0  0  0  0
    3.5776   -0.1565    0.0194 C   0  0  0  0  0  0  0  0  0  0  0  0
   -0.0612   -1.3442   -0.2158 C   0  0  0  0  0  0  0  0  0  0  0  0
   -1.3331   -0.8668    0.4908 C   0  0  1  0  0  0  0  0  0  0  0  0
    0.3127    1.7672   -0.5758 C   0  0  0  0  0  0  0  0  0  0  0  0
   -1.4336    0.5981    0.9193 C   0  0  1  0  0  0  0  0  0  0  0  0
    2.6481   -2.2043   -1.1617 C   0  0  0  0  0  0  0  0  0  0  0  0
   -0.8706    1.6968    0.0611 C   0  0  0  0  0  0  0  0  0  0  0  0
   -2.6197   -1.0429   -0.2440 C   0  0  0  0  0  0  0  0  0  0  0  0
    0.6302    2.9969   -1.3949 C   0  0  0  0  0  0  0  0  0  0  0  0
   -3.5725   -0.0282    0.2471 C   0  0  0  0  0  0  0  0  0  0  0  0
   -2.9565   -1.9101   -1.2017 C   0  0  0  0  0  0  0  0  0  0  0  0
    1.0612   -0.3250    1.2968 H   0  0  0  0  0  0  0  0  0  0  0  0
    1.4906    0.4100   -1.6530 H   0  0  0  0  0  0  0  0  0  0  0  0
    3.2719    1.8499   -0.7875 H   0  0  0  0  0  0  0  0  0  0  0  0
    4.2192   -0.2675   -0.8629 H   0  0  0  0  0  0  0  0  0  0  0  0
    4.2247   -0.1474    0.9035 H   0  0  0  0  0  0  0  0  0  0  0  0
    0.0570   -2.4109    0.0139 H   0  0  0  0  0  0  0  0  0  0  0  0
   -0.1674   -1.2774   -1.3059 H   0  0  0  0  0  0  0  0  0  0  0  0
   -1.4280   -1.4646    1.4109 H   0  0  0  0  0  0  0  0  0  0  0  0
   -1.0254    0.7210    1.9301 H   0  0  0  0  0  0  0  0  0  0  0  0
    2.4456   -1.6662   -2.0923 H   0  0  0  0  0  0  0  0  0  0  0  0
    3.6556   -2.6319   -1.2272 H   0  0  0  0  0  0  0  0  0  0  0  0
    1.9668   -3.0589   -1.0950 H   0  0  0  0  0  0  0  0  0  0  0  0
   -1.5191    2.5707   -0.0133 H   0  0  0  0  0  0  0  0  0  0  0  0
    2.7593   -1.5296    2.0071 H   0  0  0  0  0  0  0  0  0  0  0  0
    1.4732    3.5452   -0.9640 H   0  0  0  0  0  0  0  0  0  0  0  0
   -0.2152    3.6909   -1.4539 H   0  0  0  0  0  0  0  0  0  0  0  0
    0.8871    2.7121   -2.4208 H   0  0  0  0  0  0  0  0  0  0  0  0
    2.2327    2.6212    1.0600 H   0  0  0  0  0  0  0  0  0  0  0  0
   -2.2509   -2.6526   -1.5584 H   0  0  0  0  0  0  0  0  0  0  0  0
   -3.9433   -1.9087   -1.6523 H   0  0  0  0  0  0  0  0  0  0  0  0
  1  7  1  0  0  0  0
  1 33  1  0  0  0  0
  2  8  1  0  0  0  0
  2 37  1  0  0  0  0
  3 13  1  0  0  0  0
  3 18  1  0  0  0  0
  4 18  2  0  0  0  0
  5  6  1  0  0  0  0
  5  7  1  0  0  0  0
  5 10  1  0  0  0  0
  5 20  1  0  0  0  0
  6  8  1  0  0  0  0
  6 12  1  0  0  0  0
  6 21  1  0  0  0  0
  7  9  1  0  0  0  0
  7 14  1  0  0  0  0
  8  9  1  0  0  0  0
  8 22  1  0  0  0  0
  9 23  1  0  0  0  0
  9 24  1  0  0  0  0
 10 11  1  0  0  0  0
 10 25  1  0  0  0  0
 10 26  1  0  0  0  0
 11 13  1  0  0  0  0
 11 16  1  0  0  0  0
 11 27  1  0  0  0  0
 12 15  2  0  0  0  0
 12 17  1  0  0  0  0
 13 15  1  0  0  0  0
 13 28  1  0  0  0  0
 14 29  1  0  0  0  0
 14 30  1  0  0  0  0
 14 31  1  0  0  0  0
 15 32  1  0  0  0  0
 16 18  1  0  0  0  0
 16 19  2  0  0  0  0
 17 34  1  0  0  0  0
 17 35  1  0  0  0  0
 17 36  1  0  0  0  0
 19 38  1  0  0  0  0
 19 39  1  0  0  0  0
M  END
> <PUBCHEM_COMPOUND_CID>
442293

> <PUBCHEM_CONFORMER_RMSD>
0.6

> <PUBCHEM_CONFORMER_DIVERSEORDER>
2
1

> <PUBCHEM_MMFF94_PARTIAL_CHARGES>
20
1 -0.68
11 0.14
12 -0.28
13 0.42
15 -0.29
16 -0.12
17 0.14
18 0.71
19 -0.3
2 -0.68
3 -0.43
32 0.15
33 0.4
37 0.4
38 0.15
39 0.15
4 -0.57
6 0.14
7 0.28
8 0.28

> <PUBCHEM_EFFECTIVE_ROTOR_COUNT>
1

> <PUBCHEM_PHARMACOPHORE_FEATURES>
8
1 1 acceptor
1 1 donor
1 2 acceptor
1 2 donor
1 4 acceptor
5 3 11 13 16 18 rings
5 5 6 7 8 9 rings
7 5 6 10 11 12 13 15 rings

> <PUBCHEM_HEAVY_ATOM_COUNT>
19

> <PUBCHEM_ATOM_DEF_STEREO_COUNT>
6

> <PUBCHEM_ATOM_UDEF_STEREO_COUNT>
0

> <PUBCHEM_BOND_DEF_STEREO_COUNT>
0

> <PUBCHEM_BOND_UDEF_STEREO_COUNT>
0

> <PUBCHEM_ISOTOPIC_ATOM_COUNT>
0

> <PUBCHEM_COMPONENT_COUNT>
1

> <PUBCHEM_CACTVS_TAUTO_COUNT>
1

> <PUBCHEM_CONFORMER_ID>
0006BFB500000002

> <PUBCHEM_MMFF94_ENERGY>
62.0039

> <PUBCHEM_FEATURE_SELFOVERLAP>
40.668

> <PUBCHEM_SHAPE_FINGERPRINT>
10062212 137 18261959544599083439
10922523 26 18413671309897662701
10967382 1 18412259532203002442
10989021 7 18411701031835797299
11132069 177 18334299794270532730
11578080 2 18117306755098042177
116883 192 18266739262819543732
12011746 2 18410287021660295156
12251169 10 18187646937610545578
12553582 1 18270962465649867578
13083527 12 18126317240302717402
13140716 1 18339360880499962963
13571099 22 18412541011822866021
13675066 3 18413103940596856689
14178342 30 18195254316787093658
14181834 199 17986954037959925684
14289901 80 15791444920496670989
14787075 74 16956483945005848728
15442244 35 18262232356109669938
15536298 74 18260827090060099858
16945 1 18129659686367254813
17357779 13 18270127931802162812
17492 89 18334011658000941767
18186145 218 18202004330645361831
19591789 44 15667295042457123528
20645477 70 18410009940314036175
21267235 1 18336816550574828359
21501502 16 18337670918628160984
2255824 54 18343293752331114542
23184049 29 18126010601043897874
23184049 59 18337944692707352531
2334 1 18412824698443970532
23388829 49 18336265622171279325
23402539 116 18411708672994326846
23419403 2 17468254011581595065
23463225 33 18411415128784623723
23559900 14 17749108894009797170
2748010 2 18270403917926888716
296302 2 18060137583401955852
3286 77 17458917048990656186
34934 24 18411703170713556461
474 4 18199749128869217112
5104073 3 18408317792356609731
6992083 37 18263069058920458947
7364860 26 18187079555604257114
7832392 63 18409445869373884133
81228 2 17986948750939859076
9709674 26 18334570213954515831
9981440 41 17474393469916336441

> <PUBCHEM_SHAPE_MULTIPOLES>
367.53
6.38
2.68
1.13
3.72
0.7
0.09
-1.83
-0.42
-1.37
0.85
-0.15
0.05
-0.49

> <PUBCHEM_SHAPE_SELFOVERLAP>
786.814

> <PUBCHEM_SHAPE_VOLUME>
205.1

> <PUBCHEM_COORDINATE_TYPE>
2
5
10

$$$$

