91692
  -OEChem-07051213003D

 44 46  0     0  0  0  0  0  0999 V2000
    1.7290   -5.2252    1.3503 Cl  0  0  0  0  0  0  0  0  0  0  0  0
   -0.4844    2.4540    0.3917 O   0  0  0  0  0  0  0  0  0  0  0  0
    0.9658    1.0724   -0.7705 N   0  0  0  0  0  0  0  0  0  0  0  0
   -1.3774    0.7483   -0.9144 N   0  0  0  0  0  0  0  0  0  0  0  0
    2.1534    1.7410   -0.3221 C   0  0  0  0  0  0  0  0  0  0  0  0
    2.2879    1.7546    1.1943 C   0  0  0  0  0  0  0  0  0  0  0  0
    2.1766    3.2215   -0.6915 C   0  0  0  0  0  0  0  0  0  0  0  0
    3.3303    2.8355    1.4312 C   0  0  0  0  0  0  0  0  0  0  0  0
    3.0465    3.8960    0.3703 C   0  0  0  0  0  0  0  0  0  0  0  0
    1.1633   -0.0701   -1.6712 C   0  0  0  0  0  0  0  0  0  0  0  0
   -0.3306    1.4929   -0.3652 C   0  0  0  0  0  0  0  0  0  0  0  0
    1.3053   -1.3634   -0.9137 C   0  0  0  0  0  0  0  0  0  0  0  0
    2.5652   -1.7867   -0.5144 C   0  0  0  0  0  0  0  0  0  0  0  0
    0.1741   -2.1139   -0.6249 C   0  0  0  0  0  0  0  0  0  0  0  0
   -2.6461    0.4858   -0.3404 C   0  0  0  0  0  0  0  0  0  0  0  0
    2.6966   -2.9846    0.1880 C   0  0  0  0  0  0  0  0  0  0  0  0
    0.3055   -3.3118    0.0775 C   0  0  0  0  0  0  0  0  0  0  0  0
    1.5669   -3.7473    0.4838 C   0  0  0  0  0  0  0  0  0  0  0  0
   -3.5602   -0.2797   -1.0434 C   0  0  0  0  0  0  0  0  0  0  0  0
   -2.9422    1.0015    0.9094 C   0  0  0  0  0  0  0  0  0  0  0  0
   -4.8093   -0.5378   -0.4788 C   0  0  0  0  0  0  0  0  0  0  0  0
   -4.1913    0.7434    1.4740 C   0  0  0  0  0  0  0  0  0  0  0  0
   -5.1249   -0.0262    0.7799 C   0  0  0  0  0  0  0  0  0  0  0  0
    3.0451    1.2636   -0.7484 H   0  0  0  0  0  0  0  0  0  0  0  0
    2.6146    0.7847    1.5838 H   0  0  0  0  0  0  0  0  0  0  0  0
    1.3692    2.0178    1.7248 H   0  0  0  0  0  0  0  0  0  0  0  0
    1.1934    3.6995   -0.7132 H   0  0  0  0  0  0  0  0  0  0  0  0
    2.5994    3.3621   -1.6931 H   0  0  0  0  0  0  0  0  0  0  0  0
    4.3356    2.4237    1.2811 H   0  0  0  0  0  0  0  0  0  0  0  0
    3.2859    3.2417    2.4461 H   0  0  0  0  0  0  0  0  0  0  0  0
    2.5106    4.7454    0.8088 H   0  0  0  0  0  0  0  0  0  0  0  0
    3.9784    4.2817   -0.0563 H   0  0  0  0  0  0  0  0  0  0  0  0
    2.0658    0.1113   -2.2708 H   0  0  0  0  0  0  0  0  0  0  0  0
    0.3793   -0.1541   -2.4269 H   0  0  0  0  0  0  0  0  0  0  0  0
   -1.2493    0.3214   -1.8231 H   0  0  0  0  0  0  0  0  0  0  0  0
    3.4532   -1.2034   -0.7401 H   0  0  0  0  0  0  0  0  0  0  0  0
   -0.8122   -1.8152   -0.9577 H   0  0  0  0  0  0  0  0  0  0  0  0
    3.6858   -3.3115    0.4982 H   0  0  0  0  0  0  0  0  0  0  0  0
   -0.5829   -3.8993    0.2949 H   0  0  0  0  0  0  0  0  0  0  0  0
   -3.3244   -0.6834   -2.0240 H   0  0  0  0  0  0  0  0  0  0  0  0
   -2.2500    1.5812    1.5060 H   0  0  0  0  0  0  0  0  0  0  0  0
   -5.5360   -1.1376   -1.0189 H   0  0  0  0  0  0  0  0  0  0  0  0
   -4.4357    1.1361    2.4568 H   0  0  0  0  0  0  0  0  0  0  0  0
   -6.0969   -0.2284    1.2202 H   0  0  0  0  0  0  0  0  0  0  0  0
  1 18  1  0  0  0  0
  2 11  2  0  0  0  0
  3  5  1  0  0  0  0
  3 10  1  0  0  0  0
  3 11  1  0  0  0  0
  4 11  1  0  0  0  0
  4 15  1  0  0  0  0
  4 35  1  0  0  0  0
  5  6  1  0  0  0  0
  5  7  1  0  0  0  0
  5 24  1  0  0  0  0
  6  8  1  0  0  0  0
  6 25  1  0  0  0  0
  6 26  1  0  0  0  0
  7  9  1  0  0  0  0
  7 27  1  0  0  0  0
  7 28  1  0  0  0  0
  8  9  1  0  0  0  0
  8 29  1  0  0  0  0
  8 30  1  0  0  0  0
  9 31  1  0  0  0  0
  9 32  1  0  0  0  0
 10 12  1  0  0  0  0
 10 33  1  0  0  0  0
 10 34  1  0  0  0  0
 12 13  2  0  0  0  0
 12 14  1  0  0  0  0
 13 16  1  0  0  0  0
 13 36  1  0  0  0  0
 14 17  2  0  0  0  0
 14 37  1  0  0  0  0
 15 19  2  0  0  0  0
 15 20  1  0  0  0  0
 16 18  2  0  0  0  0
 16 38  1  0  0  0  0
 17 18  1  0  0  0  0
 17 39  1  0  0  0  0
 19 21  1  0  0  0  0
 19 40  1  0  0  0  0
 20 22  2  0  0  0  0
 20 41  1  0  0  0  0
 21 23  2  0  0  0  0
 21 42  1  0  0  0  0
 22 23  1  0  0  0  0
 22 43  1  0  0  0  0
 23 44  1  0  0  0  0
M  END
> <PUBCHEM_COMPOUND_CID>
91692

> <PUBCHEM_CONFORMER_RMSD>
0.8

> <PUBCHEM_CONFORMER_DIVERSEORDER>
1
18
26
51
46
88
78
38
20
39
61
47
75
41
11
44
35
50
80
45
60
72
82
19
43
36
17
93
65
22
42
83
69
48
71
63
29
86
25
67
33
34
73
77
27
24
32
91
90
52
10
14
56
62
66
64
92
13
7
85
74
68
16
15
23
70
5
3
40
89
76
53
30
49
81
12
84
6
59
9
8
54
2
21
57
55
58
37
87
31
28
4
79

> <PUBCHEM_MMFF94_PARTIAL_CHARGES>
29
1 -0.18
10 0.44
11 0.69
12 -0.14
13 -0.15
14 -0.15
15 0.12
16 -0.15
17 -0.15
18 0.18
19 -0.15
2 -0.57
20 -0.15
21 -0.15
22 -0.15
23 -0.15
3 -0.66
35 0.37
36 0.15
37 0.15
38 0.15
39 0.15
4 -0.55
40 0.15
41 0.15
42 0.15
43 0.15
44 0.15
5 0.3

> <PUBCHEM_EFFECTIVE_ROTOR_COUNT>
7

> <PUBCHEM_PHARMACOPHORE_FEATURES>
5
1 2 acceptor
1 4 donor
5 5 6 7 8 9 rings
6 12 13 14 16 17 18 rings
6 15 19 20 21 22 23 rings

> <PUBCHEM_HEAVY_ATOM_COUNT>
23

> <PUBCHEM_ATOM_DEF_STEREO_COUNT>
0

> <PUBCHEM_ATOM_UDEF_STEREO_COUNT>
0

> <PUBCHEM_BOND_DEF_STEREO_COUNT>
0

> <PUBCHEM_BOND_UDEF_STEREO_COUNT>
0

> <PUBCHEM_ISOTOPIC_ATOM_COUNT>
0

> <PUBCHEM_COMPONENT_COUNT>
1

> <PUBCHEM_CACTVS_TAUTO_COUNT>
2

> <PUBCHEM_CONFORMER_ID>
0001662C00000001

> <PUBCHEM_MMFF94_ENERGY>
69.3818

> <PUBCHEM_FEATURE_SELFOVERLAP>
25.371

> <PUBCHEM_SHAPE_FINGERPRINT>
10074138 170 17543376872513852128
10090160 65 18191028911214397341
1100329 8 18409729530816301566
11070050 100 18116423757044772769
11477941 20 9667217882893305483
12160290 23 17470746407095009180
12549972 3 17987511697162809241
12553582 1 18120365725416404927
12788726 201 17259606574737545362
13004483 165 17475512158345540281
13052359 8 17763469417542794868
13140716 1 18339078194374402250
13533116 47 18338786902062107347
138480 1 18266459986786856526
13955234 65 18411130347152587561
14081887 123 17187019020638170106
14178342 30 18265606585976527589
14787075 74 18338785836567736086
14844126 61 17116922963839125411
14866123 147 17979082583310046170
14955137 171 18116418426964464990
15375462 189 18266729376121534207
15475509 35 17912889973473619379
15927050 60 18191867825922742574
17138139 8 17248112933585458695
17868525 174 18122054575366748833
20600515 1 17320705289273842337
21049683 118 17608397660594689937
21120745 212 17544175539152296294
21421861 104 18261942063807967025
21796203 349 17905852076062995011
2255824 54 18336535084171780181
22956985 138 18270691964372692242
23419403 2 17914079704350906494
23558518 356 17975978653094038022
23559900 14 18131343142328909133
3091708 16 9185372369580201780
3421961 26 18340762754047205515
4058900 60 18265601118093640241
4340502 62 18263358084850596125
4409770 3 17331123793143662646
4616759 239 16394404229759645058
474 4 18262515862822579213
5104073 3 18189036708393785665
7097593 13 18046895254720763081
79837 15 18050006584405364834

> <PUBCHEM_SHAPE_MULTIPOLES>
459.37
7.57
6.11
1.37
12.21
5.08
0.14
-2.21
1.98
-9.52
2.42
0
-0.05
-0.22

> <PUBCHEM_SHAPE_SELFOVERLAP>
970.187

> <PUBCHEM_SHAPE_VOLUME>
257.8

> <PUBCHEM_COORDINATE_TYPE>
2
5
10

$$$$

