3948
  -OEChem-06251223472D

 44 46  0     1  0  0  0  0  0999 V2000
    6.3301   -1.7450    0.0000 F   0  0  0  0  0  0  0  0  0  0  0  0
    4.5981    1.2550    0.0000 F   0  0  0  0  0  0  0  0  0  0  0  0
    8.0785    2.2896    0.0000 O   0  0  0  0  0  0  0  0  0  0  0  0
   10.7282    0.7825    0.0000 O   0  0  0  0  0  0  0  0  0  0  0  0
    9.8564    2.2791    0.0000 O   0  0  0  0  0  0  0  0  0  0  0  0
    4.5981   -0.7450    0.0000 N   0  0  3  0  0  0  0  0  0  0  0  0
    2.8660   -1.7450    0.0000 N   0  0  0  0  0  0  0  0  0  0  0  0
    8.0901   -0.7797    0.0000 N   0  0  0  0  0  0  0  0  0  0  0  0
    2.8660   -0.7450    0.0000 C   0  0  3  0  0  0  0  0  0  0  0  0
    3.7320   -0.2450    0.0000 C   0  0  0  0  0  0  0  0  0  0  0  0
    4.5981   -1.7450    0.0000 C   0  0  0  0  0  0  0  0  0  0  0  0
    3.7320   -2.2450    0.0000 C   0  0  0  0  0  0  0  0  0  0  0  0
    5.4641   -0.2450    0.0000 C   0  0  0  0  0  0  0  0  0  0  0  0
    2.0000   -0.2450    0.0000 C   0  0  0  0  0  0  0  0  0  0  0  0
    6.3301   -0.7450    0.0000 C   0  0  0  0  0  0  0  0  0  0  0  0
    7.1962   -0.2450    0.0000 C   0  0  0  0  0  0  0  0  0  0  0  0
    5.4641    0.7550    0.0000 C   0  0  0  0  0  0  0  0  0  0  0  0
    7.1962    0.7550    0.0000 C   0  0  0  0  0  0  0  0  0  0  0  0
    6.3301    1.2550    0.0000 C   0  0  0  0  0  0  0  0  0  0  0  0
    8.0785   -1.7796    0.0000 C   0  0  0  0  0  0  0  0  0  0  0  0
    8.0901    1.2896    0.0000 C   0  0  0  0  0  0  0  0  0  0  0  0
    8.9962   -0.2658    0.0000 C   0  0  0  0  0  0  0  0  0  0  0  0
    8.9962    0.7758    0.0000 C   0  0  0  0  0  0  0  0  0  0  0  0
    8.9387   -2.2896    0.0000 C   0  0  0  0  0  0  0  0  0  0  0  0
    9.8602    1.2791    0.0000 C   0  0  0  0  0  0  0  0  0  0  0  0
    2.3291   -1.0550    0.0000 H   0  0  0  0  0  0  0  0  0  0  0  0
    4.1306    0.2299    0.0000 H   0  0  0  0  0  0  0  0  0  0  0  0
    3.3335    0.2299    0.0000 H   0  0  0  0  0  0  0  0  0  0  0  0
    4.8101   -2.3276    0.0000 H   0  0  0  0  0  0  0  0  0  0  0  0
    5.2087   -1.6374    0.0000 H   0  0  0  0  0  0  0  0  0  0  0  0
    3.3335   -2.7200    0.0000 H   0  0  0  0  0  0  0  0  0  0  0  0
    4.1306   -2.7200    0.0000 H   0  0  0  0  0  0  0  0  0  0  0  0
    2.3291   -2.0550    0.0000 H   0  0  0  0  0  0  0  0  0  0  0  0
    2.3100    0.2919    0.0000 H   0  0  0  0  0  0  0  0  0  0  0  0
    1.4631    0.0650    0.0000 H   0  0  0  0  0  0  0  0  0  0  0  0
    1.6900   -0.7819    0.0000 H   0  0  0  0  0  0  0  0  0  0  0  0
    6.3301    1.8750    0.0000 H   0  0  0  0  0  0  0  0  0  0  0  0
    7.4692   -1.6649    0.0000 H   0  0  0  0  0  0  0  0  0  0  0  0
    7.8598   -2.3597    0.0000 H   0  0  0  0  0  0  0  0  0  0  0  0
    9.5319   -0.5779    0.0000 H   0  0  0  0  0  0  0  0  0  0  0  0
    8.6225   -2.8229    0.0000 H   0  0  0  0  0  0  0  0  0  0  0  0
    9.4720   -2.6058    0.0000 H   0  0  0  0  0  0  0  0  0  0  0  0
    9.2549   -1.7563    0.0000 H   0  0  0  0  0  0  0  0  0  0  0  0
   11.2639    1.0946    0.0000 H   0  0  0  0  0  0  0  0  0  0  0  0
  1 15  1  0  0  0  0
  2 17  1  0  0  0  0
  3 21  2  0  0  0  0
  4 25  1  0  0  0  0
  4 44  1  0  0  0  0
  5 25  2  0  0  0  0
  6 10  1  0  0  0  0
  6 11  1  0  0  0  0
  6 13  1  0  0  0  0
  7  9  1  0  0  0  0
  7 12  1  0  0  0  0
  7 33  1  0  0  0  0
  8 16  1  0  0  0  0
  8 20  1  0  0  0  0
  8 22  1  0  0  0  0
  9 10  1  0  0  0  0
  9 14  1  0  0  0  0
  9 26  1  0  0  0  0
 10 27  1  0  0  0  0
 10 28  1  0  0  0  0
 11 12  1  0  0  0  0
 11 29  1  0  0  0  0
 11 30  1  0  0  0  0
 12 31  1  0  0  0  0
 12 32  1  0  0  0  0
 13 15  1  0  0  0  0
 13 17  2  0  0  0  0
 14 34  1  0  0  0  0
 14 35  1  0  0  0  0
 14 36  1  0  0  0  0
 15 16  2  0  0  0  0
 16 18  1  0  0  0  0
 17 19  1  0  0  0  0
 18 19  2  0  0  0  0
 18 21  1  0  0  0  0
 19 37  1  0  0  0  0
 20 24  1  0  0  0  0
 20 38  1  0  0  0  0
 20 39  1  0  0  0  0
 21 23  1  0  0  0  0
 22 23  2  0  0  0  0
 22 40  1  0  0  0  0
 23 25  1  0  0  0  0
 24 41  1  0  0  0  0
 24 42  1  0  0  0  0
 24 43  1  0  0  0  0
M  END
> <PUBCHEM_COMPOUND_CID>
3948

> <PUBCHEM_COMPOUND_CANONICALIZED>
1

> <PUBCHEM_CACTVS_COMPLEXITY>
586

> <PUBCHEM_CACTVS_HBOND_ACCEPTOR>
8

> <PUBCHEM_CACTVS_HBOND_DONOR>
2

> <PUBCHEM_CACTVS_ROTATABLE_BOND>
3

> <PUBCHEM_CACTVS_SUBSKEYS>
AAADceB7MYAAAAAAAAAAAAAAAAAAAAAAAAA8QIAAAAAAAACBAAAAHwAQCAAADCzBmAwyyIPAAgCIAqTWSACCAAAlAAAAiIEIRMgIZD7I1NGUYYhksADI2ceY2aOeCAAAAAQCAAAQAAAACAQAAAAAAAAAAA==

> <PUBCHEM_IUPAC_OPENEYE_NAME>
1-ethyl-6,8-difluoro-7-(3-methylpiperazin-1-yl)-4-oxo-quinoline-3-carboxylic acid

> <PUBCHEM_IUPAC_CAS_NAME>
1-ethyl-6,8-difluoro-7-(3-methyl-1-piperazinyl)-4-oxo-3-quinolinecarboxylic acid

> <PUBCHEM_IUPAC_NAME>
1-ethyl-6,8-difluoro-7-(3-methylpiperazin-1-yl)-4-oxoquinoline-3-carboxylic acid

> <PUBCHEM_IUPAC_SYSTEMATIC_NAME>
1-ethyl-6,8-bis(fluoranyl)-7-(3-methylpiperazin-1-yl)-4-oxidanylidene-quinoline-3-carboxylic acid

> <PUBCHEM_IUPAC_TRADITIONAL_NAME>
1-ethyl-6,8-difluoro-4-keto-7-(3-methylpiperazino)quinoline-3-carboxylic acid

> <PUBCHEM_IUPAC_INCHI>
InChI=1S/C17H19F2N3O3/c1-3-21-8-11(17(24)25)16(23)10-6-12(18)15(13(19)14(10)21)22-5-4-20-9(2)7-22/h6,8-9,20H,3-5,7H2,1-2H3,(H,24,25)

> <PUBCHEM_IUPAC_INCHIKEY>
ZEKZLJVOYLTDKK-UHFFFAOYSA-N

> <PUBCHEM_XLOGP3>
-0.8

> <PUBCHEM_EXACT_MASS>
351.139448

> <PUBCHEM_MOLECULAR_FORMULA>
C17H19F2N3O3

> <PUBCHEM_MOLECULAR_WEIGHT>
351.347866

> <PUBCHEM_OPENEYE_CAN_SMILES>
CCN1C=C(C(=O)C2=CC(=C(C(=C21)F)N3CCNC(C3)C)F)C(=O)O

> <PUBCHEM_OPENEYE_ISO_SMILES>
CCN1C=C(C(=O)C2=CC(=C(C(=C21)F)N3CCNC(C3)C)F)C(=O)O

> <PUBCHEM_CACTVS_TPSA>
72.9

> <PUBCHEM_MONOISOTOPIC_WEIGHT>
351.139448

> <PUBCHEM_TOTAL_CHARGE>
0

> <PUBCHEM_HEAVY_ATOM_COUNT>
25

> <PUBCHEM_ATOM_DEF_STEREO_COUNT>
0

> <PUBCHEM_ATOM_UDEF_STEREO_COUNT>
1

> <PUBCHEM_BOND_DEF_STEREO_COUNT>
0

> <PUBCHEM_BOND_UDEF_STEREO_COUNT>
0

> <PUBCHEM_ISOTOPIC_ATOM_COUNT>
0

> <PUBCHEM_COMPONENT_COUNT>
1

> <PUBCHEM_CACTVS_TAUTO_COUNT>
1

> <PUBCHEM_COORDINATE_TYPE>
1
5
255

> <PUBCHEM_BONDANNOTATIONS>
13  15  8
13  17  8
15  16  8
16  18  8
17  19  8
18  19  8
18  21  8
21  23  8
22  23  8
8  16  8
8  22  8
9  14  3

$$$$

