13085
  -OEChem-06261207443D

 30 31  0     0  0  0  0  0  0999 V2000
   -1.3751    1.9476   -0.3117 O   0  0  0  0  0  0  0  0  0  0  0  0
    1.3950   -1.9404   -0.3118 O   0  0  0  0  0  0  0  0  0  0  0  0
   -0.6517   -0.1829    0.2369 N   0  0  0  0  0  0  0  0  0  0  0  0
    0.6719    0.1903    0.2365 N   0  0  0  0  0  0  0  0  0  0  0  0
   -3.0186    0.2989   -0.0140 C   0  0  0  0  0  0  0  0  0  0  0  0
    3.0387   -0.2922   -0.0137 C   0  0  0  0  0  0  0  0  0  0  0  0
   -1.6400    0.7601   -0.0500 C   0  0  0  0  0  0  0  0  0  0  0  0
    1.6298   -0.7631   -0.0510 C   0  0  0  0  0  0  0  0  0  0  0  0
   -4.0471    1.1961    0.2739 C   0  0  0  0  0  0  0  0  0  0  0  0
    4.0367   -1.1998    0.2736 C   0  0  0  0  0  0  0  0  0  0  0  0
   -3.3125   -1.0409   -0.2670 C   0  0  0  0  0  0  0  0  0  0  0  0
    3.3027    1.0376   -0.2672 C   0  0  0  0  0  0  0  0  0  0  0  0
   -5.3695    0.7536    0.3088 C   0  0  0  0  0  0  0  0  0  0  0  0
    5.3592   -0.7574    0.3091 C   0  0  0  0  0  0  0  0  0  0  0  0
   -4.6348   -1.4835   -0.2322 C   0  0  0  0  0  0  0  0  0  0  0  0
    4.6252    1.4799   -0.2320 C   0  0  0  0  0  0  0  0  0  0  0  0
   -5.6633   -0.5863    0.0557 C   0  0  0  0  0  0  0  0  0  0  0  0
    5.6534    0.5823    0.0562 C   0  0  0  0  0  0  0  0  0  0  0  0
   -3.8389    2.2432    0.4783 H   0  0  0  0  0  0  0  0  0  0  0  0
    3.8238   -2.2448    0.4777 H   0  0  0  0  0  0  0  0  0  0  0  0
   -2.5445   -1.7655   -0.5217 H   0  0  0  0  0  0  0  0  0  0  0  0
    2.5348    1.7592   -0.5255 H   0  0  0  0  0  0  0  0  0  0  0  0
   -0.8433   -1.1380    0.5206 H   0  0  0  0  0  0  0  0  0  0  0  0
    0.8669    1.1424    0.5261 H   0  0  0  0  0  0  0  0  0  0  0  0
   -6.1705    1.4519    0.5337 H   0  0  0  0  0  0  0  0  0  0  0  0
    6.1598   -1.4559    0.5344 H   0  0  0  0  0  0  0  0  0  0  0  0
   -4.8649   -2.5254   -0.4354 H   0  0  0  0  0  0  0  0  0  0  0  0
    4.8557    2.5215   -0.4360 H   0  0  0  0  0  0  0  0  0  0  0  0
   -6.6930   -0.9307    0.0815 H   0  0  0  0  0  0  0  0  0  0  0  0
    6.6831    0.9265    0.0823 H   0  0  0  0  0  0  0  0  0  0  0  0
  1  7  2  0  0  0  0
  2  8  2  0  0  0  0
  3  4  1  0  0  0  0
  3  7  1  0  0  0  0
  3 23  1  0  0  0  0
  4  8  1  0  0  0  0
  4 24  1  0  0  0  0
  5  7  1  0  0  0  0
  5  9  2  0  0  0  0
  5 11  1  0  0  0  0
  6  8  1  0  0  0  0
  6 10  2  0  0  0  0
  6 12  1  0  0  0  0
  9 13  1  0  0  0  0
  9 19  1  0  0  0  0
 10 14  1  0  0  0  0
 10 20  1  0  0  0  0
 11 15  2  0  0  0  0
 11 21  1  0  0  0  0
 12 16  2  0  0  0  0
 12 22  1  0  0  0  0
 13 17  2  0  0  0  0
 13 25  1  0  0  0  0
 14 18  2  0  0  0  0
 14 26  1  0  0  0  0
 15 17  1  0  0  0  0
 15 27  1  0  0  0  0
 16 18  1  0  0  0  0
 16 28  1  0  0  0  0
 17 29  1  0  0  0  0
 18 30  1  0  0  0  0
M  END
> <PUBCHEM_COMPOUND_CID>
13085

> <PUBCHEM_CONFORMER_RMSD>
0.6

> <PUBCHEM_CONFORMER_DIVERSEORDER>
1
4
3
5
2

> <PUBCHEM_MMFF94_PARTIAL_CHARGES>
30
1 -0.57
10 -0.15
11 -0.15
12 -0.15
13 -0.15
14 -0.15
15 -0.15
16 -0.15
17 -0.15
18 -0.15
19 0.15
2 -0.57
20 0.15
21 0.15
22 0.15
23 0.37
24 0.37
25 0.15
26 0.15
27 0.15
28 0.15
29 0.15
3 -0.43
30 0.15
4 -0.43
5 0.09
6 0.09
7 0.54
8 0.54
9 -0.15

> <PUBCHEM_EFFECTIVE_ROTOR_COUNT>
5

> <PUBCHEM_PHARMACOPHORE_FEATURES>
6
1 1 acceptor
1 2 acceptor
1 3 donor
1 4 donor
6 5 9 11 13 15 17 rings
6 6 10 12 14 16 18 rings

> <PUBCHEM_HEAVY_ATOM_COUNT>
18

> <PUBCHEM_ATOM_DEF_STEREO_COUNT>
0

> <PUBCHEM_ATOM_UDEF_STEREO_COUNT>
0

> <PUBCHEM_BOND_DEF_STEREO_COUNT>
0

> <PUBCHEM_BOND_UDEF_STEREO_COUNT>
0

> <PUBCHEM_ISOTOPIC_ATOM_COUNT>
0

> <PUBCHEM_COMPONENT_COUNT>
1

> <PUBCHEM_CACTVS_TAUTO_COUNT>
3

> <PUBCHEM_CONFORMER_ID>
0000331D00000001

> <PUBCHEM_MMFF94_ENERGY>
51.6006

> <PUBCHEM_FEATURE_SELFOVERLAP>
31.976

> <PUBCHEM_SHAPE_FINGERPRINT>
10595046 47 18410856546765469752
10968037 39 18410856547556793023
11287383 113 18411698781373063626
11315181 36 18259702290097590361
12107183 9 17617940669777576705
12166972 35 17917989478006527300
12236239 1 18410573989446418453
13167823 11 18411984684493049202
13533116 47 17203337757790484434
1420 363 18131345306596709195
14341114 176 18411696616931066452
14528608 73 18409727327097002692
15196674 1 18410575084663078959
17834072 33 18408041797051169137
17844677 252 18409160043421580136
19489759 90 15267347331614041165
200 152 18334013895535438521
20645477 70 18411418458007218550
21267235 1 18411411821617744222
23402539 116 18201723959221571023
23536379 177 18410856576819659073
23557571 272 18335416915101023421
23559900 14 18262247612535353025
239999 70 18187358874734732718
26918003 58 17704068491078593009
300161 21 18413112779449556607
3004659 81 18411417337036227802
34797466 226 17313094211956574148
351380 180 18272089396585685952
3545911 37 18413669111000793092
4073 2 18059568057822203250
4214541 1 18410012169528637225
42788 4 18410573989451693218
4325135 7 18410575071783452069
474229 33 18410012117635822702
5104073 3 18410575093258295672
5283173 99 17916880135135339813
542803 24 18272651250900408041
7495541 125 18113623352595034888
77779 3 18409166640369605197

> <PUBCHEM_SHAPE_MULTIPOLES>
348.73
15.12
1.66
0.65
0.13
0
0
-0.03
-0.72
0
0.12
0
0
-0.5

> <PUBCHEM_SHAPE_SELFOVERLAP>
748.699

> <PUBCHEM_SHAPE_VOLUME>
191.5

> <PUBCHEM_COORDINATE_TYPE>
2
5
10

$$$$

