6218
  -OEChem-06261201112D

 59 59  0     0  0  0  0  0  0999 V2000
    3.5059    0.0000    0.0000 Cl  0  0  0  0  0  0  0  0  0  0  0  0
    5.0369    5.8410    0.0000 O   0  0  0  0  0  0  0  0  0  0  0  0
    3.5369    4.9750    0.0000 O   0  0  0  0  0  0  0  0  0  0  0  0
    2.0369    7.5730    0.0000 N   0  0  0  0  0  0  0  0  0  0  0  0
    5.5369    4.9750    0.0000 C   0  0  0  0  0  0  0  0  0  0  0  0
    6.0369    5.8410    0.0000 C   0  0  0  0  0  0  0  0  0  0  0  0
    4.6709    4.4750    0.0000 C   0  0  0  0  0  0  0  0  0  0  0  0
    6.4030    4.4750    0.0000 C   0  0  0  0  0  0  0  0  0  0  0  0
    5.5369    6.7070    0.0000 C   0  0  0  0  0  0  0  0  0  0  0  0
    7.0369    5.8410    0.0000 C   0  0  0  0  0  0  0  0  0  0  0  0
    6.4030    3.4750    0.0000 C   0  0  0  0  0  0  0  0  0  0  0  0
    4.6709    3.4750    0.0000 C   0  0  0  0  0  0  0  0  0  0  0  0
    6.0369    7.5730    0.0000 C   0  0  0  0  0  0  0  0  0  0  0  0
    7.5369    6.7070    0.0000 C   0  0  0  0  0  0  0  0  0  0  0  0
    5.5369    2.9750    0.0000 C   0  0  0  0  0  0  0  0  0  0  0  0
    7.0369    7.5730    0.0000 C   0  0  0  0  0  0  0  0  0  0  0  0
    4.0369    5.8410    0.0000 C   0  0  0  0  0  0  0  0  0  0  0  0
    3.5369    6.7070    0.0000 C   0  0  0  0  0  0  0  0  0  0  0  0
    2.5369    6.7070    0.0000 C   0  0  0  0  0  0  0  0  0  0  0  0
    1.0369    7.5730    0.0000 C   0  0  0  0  0  0  0  0  0  0  0  0
    2.5369    8.4390    0.0000 C   0  0  0  0  0  0  0  0  0  0  0  0
    0.5369    8.4390    0.0000 C   0  0  0  0  0  0  0  0  0  0  0  0
    2.0369    9.3051    0.0000 C   0  0  0  0  0  0  0  0  0  0  0  0
    6.3469    5.3040    0.0000 H   0  0  0  0  0  0  0  0  0  0  0  0
    4.4589    5.0576    0.0000 H   0  0  0  0  0  0  0  0  0  0  0  0
    4.0603    4.3673    0.0000 H   0  0  0  0  0  0  0  0  0  0  0  0
    7.0135    4.3673    0.0000 H   0  0  0  0  0  0  0  0  0  0  0  0
    6.6150    5.0576    0.0000 H   0  0  0  0  0  0  0  0  0  0  0  0
    5.0620    7.1055    0.0000 H   0  0  0  0  0  0  0  0  0  0  0  0
    5.0620    6.3085    0.0000 H   0  0  0  0  0  0  0  0  0  0  0  0
    6.9293    5.2304    0.0000 H   0  0  0  0  0  0  0  0  0  0  0  0
    7.6195    5.6289    0.0000 H   0  0  0  0  0  0  0  0  0  0  0  0
    4.0603    3.5826    0.0000 H   0  0  0  0  0  0  0  0  0  0  0  0
    4.4589    2.8923    0.0000 H   0  0  0  0  0  0  0  0  0  0  0  0
    6.6150    2.8923    0.0000 H   0  0  0  0  0  0  0  0  0  0  0  0
    7.0135    3.5826    0.0000 H   0  0  0  0  0  0  0  0  0  0  0  0
    8.0119    6.3085    0.0000 H   0  0  0  0  0  0  0  0  0  0  0  0
    8.0119    7.1055    0.0000 H   0  0  0  0  0  0  0  0  0  0  0  0
    6.1446    8.1836    0.0000 H   0  0  0  0  0  0  0  0  0  0  0  0
    5.4543    7.7851    0.0000 H   0  0  0  0  0  0  0  0  0  0  0  0
    5.1384    2.5000    0.0000 H   0  0  0  0  0  0  0  0  0  0  0  0
    5.9355    2.5000    0.0000 H   0  0  0  0  0  0  0  0  0  0  0  0
    7.6195    7.7851    0.0000 H   0  0  0  0  0  0  0  0  0  0  0  0
    6.9293    8.1836    0.0000 H   0  0  0  0  0  0  0  0  0  0  0  0
    4.1195    6.9190    0.0000 H   0  0  0  0  0  0  0  0  0  0  0  0
    3.4293    7.3176    0.0000 H   0  0  0  0  0  0  0  0  0  0  0  0
    1.9543    6.4950    0.0000 H   0  0  0  0  0  0  0  0  0  0  0  0
    2.6446    6.0964    0.0000 H   0  0  0  0  0  0  0  0  0  0  0  0
    3.0119    8.0405    0.0000 H   0  0  0  0  0  0  0  0  0  0  0  0
    3.0119    8.8376    0.0000 H   0  0  0  0  0  0  0  0  0  0  0  0
    0.4543    7.3610    0.0000 H   0  0  0  0  0  0  0  0  0  0  0  0
    1.1446    6.9624    0.0000 H   0  0  0  0  0  0  0  0  0  0  0  0
    2.5739    9.6151    0.0000 H   0  0  0  0  0  0  0  0  0  0  0  0
    1.7269    9.8420    0.0000 H   0  0  0  0  0  0  0  0  0  0  0  0
    1.5000    8.9951    0.0000 H   0  0  0  0  0  0  0  0  0  0  0  0
    1.0739    8.7490    0.0000 H   0  0  0  0  0  0  0  0  0  0  0  0
    0.2269    8.9760    0.0000 H   0  0  0  0  0  0  0  0  0  0  0  0
    0.0000    8.1290    0.0000 H   0  0  0  0  0  0  0  0  0  0  0  0
    4.5059    0.0000    0.0000 H   0  0  0  0  0  0  0  0  0  0  0  0
  1 59  1  0  0  0  0
  2  5  1  0  0  0  0
  2 17  1  0  0  0  0
  3 17  2  0  0  0  0
  4 19  1  0  0  0  0
  4 20  1  0  0  0  0
  4 21  1  0  0  0  0
  5  6  1  0  0  0  0
  5  7  1  0  0  0  0
  5  8  1  0  0  0  0
  6  9  1  0  0  0  0
  6 10  1  0  0  0  0
  6 24  1  0  0  0  0
  7 12  1  0  0  0  0
  7 25  1  0  0  0  0
  7 26  1  0  0  0  0
  8 11  1  0  0  0  0
  8 27  1  0  0  0  0
  8 28  1  0  0  0  0
  9 13  1  0  0  0  0
  9 29  1  0  0  0  0
  9 30  1  0  0  0  0
 10 14  1  0  0  0  0
 10 31  1  0  0  0  0
 10 32  1  0  0  0  0
 11 15  1  0  0  0  0
 11 35  1  0  0  0  0
 11 36  1  0  0  0  0
 12 15  1  0  0  0  0
 12 33  1  0  0  0  0
 12 34  1  0  0  0  0
 13 16  1  0  0  0  0
 13 39  1  0  0  0  0
 13 40  1  0  0  0  0
 14 16  1  0  0  0  0
 14 37  1  0  0  0  0
 14 38  1  0  0  0  0
 15 41  1  0  0  0  0
 15 42  1  0  0  0  0
 16 43  1  0  0  0  0
 16 44  1  0  0  0  0
 17 18  1  0  0  0  0
 18 19  1  0  0  0  0
 18 45  1  0  0  0  0
 18 46  1  0  0  0  0
 19 47  1  0  0  0  0
 19 48  1  0  0  0  0
 20 22  1  0  0  0  0
 20 51  1  0  0  0  0
 20 52  1  0  0  0  0
 21 23  1  0  0  0  0
 21 49  1  0  0  0  0
 21 50  1  0  0  0  0
 22 56  1  0  0  0  0
 22 57  1  0  0  0  0
 22 58  1  0  0  0  0
 23 53  1  0  0  0  0
 23 54  1  0  0  0  0
 23 55  1  0  0  0  0
M  END
> <PUBCHEM_COMPOUND_CID>
6218

> <PUBCHEM_COMPOUND_CANONICALIZED>
1

> <PUBCHEM_CACTVS_COMPLEXITY>
326

> <PUBCHEM_CACTVS_HBOND_ACCEPTOR>
3

> <PUBCHEM_CACTVS_HBOND_DONOR>
1

> <PUBCHEM_CACTVS_ROTATABLE_BOND>
8

> <PUBCHEM_CACTVS_SUBSKEYS>
AAADcfB6MAAEAAAAAAAAAAAAAAAAAAAAAAAwYAAAAAAAAAAAAAAAHgAAAAAADUTBgAQCCAMABAAIAACQCAAAAAAAAAAAAAEIAAAAAAoAAAAGAAAGAACAAAGAwOAOgAAAAAAAAAAAAAAAAAAAAAAAAAAAAA==

> <PUBCHEM_IUPAC_OPENEYE_NAME>
(1-cyclohexylcyclohexyl) 3-(diethylamino)propanoate hydrochloride

> <PUBCHEM_IUPAC_CAS_NAME>
3-(diethylamino)propanoic acid (1-cyclohexylcyclohexyl) ester hydrochloride

> <PUBCHEM_IUPAC_NAME>
(1-cyclohexylcyclohexyl) 3-(diethylamino)propanoate hydrochloride

> <PUBCHEM_IUPAC_SYSTEMATIC_NAME>
(1-cyclohexylcyclohexyl) 3-(diethylamino)propanoate hydrochloride

> <PUBCHEM_IUPAC_TRADITIONAL_NAME>
3-(diethylamino)propionic acid (1-cyclohexylcyclohexyl) ester hydrochloride

> <PUBCHEM_IUPAC_INCHI>
InChI=1S/C19H35NO2.ClH/c1-3-20(4-2)16-13-18(21)22-19(14-9-6-10-15-19)17-11-7-5-8-12-17;/h17H,3-16H2,1-2H3;1H

> <PUBCHEM_IUPAC_INCHIKEY>
AULRFYJVPYOPHU-UHFFFAOYSA-N

> <PUBCHEM_EXACT_MASS>
345.243457

> <PUBCHEM_MOLECULAR_FORMULA>
C19H36ClNO2

> <PUBCHEM_MOLECULAR_WEIGHT>
345.94764

> <PUBCHEM_OPENEYE_CAN_SMILES>
CCN(CC)CCC(=O)OC1(CCCCC1)C2CCCCC2.Cl

> <PUBCHEM_OPENEYE_ISO_SMILES>
CCN(CC)CCC(=O)OC1(CCCCC1)C2CCCCC2.Cl

> <PUBCHEM_CACTVS_TPSA>
29.5

> <PUBCHEM_MONOISOTOPIC_WEIGHT>
345.243457

> <PUBCHEM_TOTAL_CHARGE>
0

> <PUBCHEM_HEAVY_ATOM_COUNT>
23

> <PUBCHEM_ATOM_DEF_STEREO_COUNT>
0

> <PUBCHEM_ATOM_UDEF_STEREO_COUNT>
0

> <PUBCHEM_BOND_DEF_STEREO_COUNT>
0

> <PUBCHEM_BOND_UDEF_STEREO_COUNT>
0

> <PUBCHEM_ISOTOPIC_ATOM_COUNT>
0

> <PUBCHEM_COMPONENT_COUNT>
2

> <PUBCHEM_CACTVS_TAUTO_COUNT>
1

> <PUBCHEM_COORDINATE_TYPE>
1
5
255

$$$$

