1549439
  -OEChem-07051213152D

 24 23  0     1  0  0  0  0  0999 V2000
    3.4030   -1.1900    0.0000 O   0  0  0  0  0  0  0  0  0  0  0  0
    6.0010   -0.6900    0.0000 O   0  0  0  0  0  0  0  0  0  0  0  0
    2.5369    0.3100    0.0000 O   0  0  0  0  0  0  0  0  0  0  0  0
    3.4030    1.8100    0.0000 O   0  0  0  0  0  0  0  0  0  0  0  0
    5.1350    0.8100    0.0000 N   0  0  0  0  0  0  0  0  0  0  0  0
    7.7331    0.3100    0.0000 N   0  0  0  0  0  0  0  0  0  0  0  0
    4.2690    0.3100    0.0000 C   0  0  2  0  0  0  0  0  0  0  0  0
    6.8671    0.8100    0.0000 C   0  0  1  0  0  0  0  0  0  0  0  0
    6.0010    0.3100    0.0000 C   0  0  0  0  0  0  0  0  0  0  0  0
    4.2690   -0.6900    0.0000 C   0  0  0  0  0  0  0  0  0  0  0  0
    6.8671    1.8100    0.0000 C   0  0  0  0  0  0  0  0  0  0  0  0
    3.4030    0.8100    0.0000 C   0  0  0  0  0  0  0  0  0  0  0  0
    4.2690    0.9300    0.0000 H   0  0  0  0  0  0  0  0  0  0  0  0
    7.4040    1.1200    0.0000 H   0  0  0  0  0  0  0  0  0  0  0  0
    5.1350    1.4300    0.0000 H   0  0  0  0  0  0  0  0  0  0  0  0
    4.4810   -1.2726    0.0000 H   0  0  0  0  0  0  0  0  0  0  0  0
    4.8796   -0.5823    0.0000 H   0  0  0  0  0  0  0  0  0  0  0  0
    7.4871    1.8100    0.0000 H   0  0  0  0  0  0  0  0  0  0  0  0
    6.8671    2.4300    0.0000 H   0  0  0  0  0  0  0  0  0  0  0  0
    6.2471    1.8100    0.0000 H   0  0  0  0  0  0  0  0  0  0  0  0
    8.2700    0.6200    0.0000 H   0  0  0  0  0  0  0  0  0  0  0  0
    7.7331   -0.3100    0.0000 H   0  0  0  0  0  0  0  0  0  0  0  0
    3.4030   -1.8100    0.0000 H   0  0  0  0  0  0  0  0  0  0  0  0
    2.0000    0.6200    0.0000 H   0  0  0  0  0  0  0  0  0  0  0  0
  1 10  1  0  0  0  0
  1 23  1  0  0  0  0
  2  9  2  0  0  0  0
  3 12  1  0  0  0  0
  3 24  1  0  0  0  0
  4 12  2  0  0  0  0
  7  5  1  6  0  0  0
  5  9  1  0  0  0  0
  5 15  1  0  0  0  0
  8  6  1  1  0  0  0
  6 21  1  0  0  0  0
  6 22  1  0  0  0  0
  7 10  1  0  0  0  0
  7 12  1  0  0  0  0
  7 13  1  0  0  0  0
  8  9  1  0  0  0  0
  8 11  1  0  0  0  0
  8 14  1  0  0  0  0
 10 16  1  0  0  0  0
 10 17  1  0  0  0  0
 11 18  1  0  0  0  0
 11 19  1  0  0  0  0
 11 20  1  0  0  0  0
M  END
> <PUBCHEM_COMPOUND_CID>
1549439

> <PUBCHEM_COMPOUND_CANONICALIZED>
1

> <PUBCHEM_CACTVS_COMPLEXITY>
182

> <PUBCHEM_CACTVS_HBOND_ACCEPTOR>
5

> <PUBCHEM_CACTVS_HBOND_DONOR>
4

> <PUBCHEM_CACTVS_ROTATABLE_BOND>
4

> <PUBCHEM_CACTVS_SUBSKEYS>
AAADccBjOAAAAAAAAAAAAAAAAAAAAAAAAAAAAAAAAAAAAAAAAAAAHgAQCAAACCjhgAYCCALAAgAIAAGQGAAAAAAAAAAAAIGIAAACUAQAACAUQAABNgCQAAAAAAAAAAAAAAAAAAAAAAAAAAAAAAAAAAAAAA==

> <PUBCHEM_IUPAC_OPENEYE_NAME>
(2R)-2-[[(2R)-2-aminopropanoyl]amino]-3-hydroxy-propanoic acid

> <PUBCHEM_IUPAC_CAS_NAME>
(2R)-2-[[(2R)-2-amino-1-oxopropyl]amino]-3-hydroxypropanoic acid

> <PUBCHEM_IUPAC_NAME>
(2R)-2-[[(2R)-2-aminopropanoyl]amino]-3-hydroxypropanoic acid

> <PUBCHEM_IUPAC_SYSTEMATIC_NAME>
(2R)-2-[[(2R)-2-azanylpropanoyl]amino]-3-oxidanyl-propanoic acid

> <PUBCHEM_IUPAC_TRADITIONAL_NAME>
(2R)-2-[[(2R)-2-aminopropanoyl]amino]-3-hydroxy-propionic acid

> <PUBCHEM_IUPAC_INCHI>
InChI=1S/C6H12N2O4/c1-3(7)5(10)8-4(2-9)6(11)12/h3-4,9H,2,7H2,1H3,(H,8,10)(H,11,12)/t3-,4-/m1/s1

> <PUBCHEM_IUPAC_INCHIKEY>
IPWKGIFRRBGCJO-QWWZWVQMSA-N

> <PUBCHEM_XLOGP3_AA>
-4.3

> <PUBCHEM_EXACT_MASS>
176.079707

> <PUBCHEM_MOLECULAR_FORMULA>
C6H12N2O4

> <PUBCHEM_MOLECULAR_WEIGHT>
176.17048

> <PUBCHEM_OPENEYE_CAN_SMILES>
CC(C(=O)NC(CO)C(=O)O)N

> <PUBCHEM_OPENEYE_ISO_SMILES>
C[C@H](C(=O)N[C@H](CO)C(=O)O)N

> <PUBCHEM_CACTVS_TPSA>
113

> <PUBCHEM_MONOISOTOPIC_WEIGHT>
176.079707

> <PUBCHEM_TOTAL_CHARGE>
0

> <PUBCHEM_HEAVY_ATOM_COUNT>
12

> <PUBCHEM_ATOM_DEF_STEREO_COUNT>
2

> <PUBCHEM_ATOM_UDEF_STEREO_COUNT>
0

> <PUBCHEM_BOND_DEF_STEREO_COUNT>
0

> <PUBCHEM_BOND_UDEF_STEREO_COUNT>
0

> <PUBCHEM_ISOTOPIC_ATOM_COUNT>
0

> <PUBCHEM_COMPONENT_COUNT>
1

> <PUBCHEM_CACTVS_TAUTO_COUNT>
2

> <PUBCHEM_COORDINATE_TYPE>
1
5
255

> <PUBCHEM_BONDANNOTATIONS>
7  5  6
8  6  5

$$$$

