125257
  -OEChem-07051213112D

 50 52  0     1  0  0  0  0  0999 V2000
    6.3981    0.8969    0.0000 O   0  0  0  0  0  0  0  0  0  0  0  0
    6.3981   -1.1031    0.0000 O   0  0  0  0  0  0  0  0  0  0  0  0
    4.6497   -2.1377    0.0000 O   0  0  0  0  0  0  0  0  0  0  0  0
    2.8680    0.9210    0.0000 O   0  0  0  0  0  0  0  0  0  0  0  0
    8.1580   -1.1378    0.0000 O   0  0  0  0  0  0  0  0  0  0  0  0
    7.2641    1.3969    0.0000 O   0  0  0  0  0  0  0  0  0  0  0  0
    8.1465    1.9315    0.0000 O   0  0  0  0  0  0  0  0  0  0  0  0
    4.6497    1.9315    0.0000 N   0  0  0  0  0  0  0  0  0  0  0  0
    2.8680   -1.1272    0.0000 N   0  0  0  0  0  0  0  0  0  0  0  0
    5.5320    0.3969    0.0000 C   0  0  1  0  0  0  0  0  0  0  0  0
    5.5320   -0.6031    0.0000 C   0  0  1  0  0  0  0  0  0  0  0  0
    4.6381    0.9316    0.0000 C   0  0  2  0  0  0  0  0  0  0  0  0
    4.6381   -1.1378    0.0000 C   0  0  2  0  0  0  0  0  0  0  0  0
    3.7320   -0.6239    0.0000 C   0  0  1  0  0  0  0  0  0  0  0  0
    3.7320    0.4177    0.0000 C   0  0  2  0  0  0  0  0  0  0  0  0
    7.2641    0.3969    0.0000 C   0  0  2  0  0  0  0  0  0  0  0  0
    7.2641   -0.6031    0.0000 C   0  0  2  0  0  0  0  0  0  0  0  0
    8.1580    0.9316    0.0000 C   0  0  0  0  0  0  0  0  0  0  0  0
    9.0641   -0.6239    0.0000 C   0  0  1  0  0  0  0  0  0  0  0  0
    9.0641    0.4177    0.0000 C   0  0  0  0  0  0  0  0  0  0  0  0
    3.7895    2.4415    0.0000 C   0  0  0  0  0  0  0  0  0  0  0  0
    2.0000   -0.6306    0.0000 C   0  0  0  0  0  0  0  0  0  0  0  0
    9.9282   -1.1272    0.0000 C   0  0  0  0  0  0  0  0  0  0  0  0
    9.0067    2.4415    0.0000 C   0  0  0  0  0  0  0  0  0  0  0  0
    5.5386    1.2469    0.0000 H   0  0  0  0  0  0  0  0  0  0  0  0
    5.5386   -1.4531    0.0000 H   0  0  0  0  0  0  0  0  0  0  0  0
    4.1042    1.2467    0.0000 H   0  0  0  0  0  0  0  0  0  0  0  0
    5.1792   -1.4405    0.0000 H   0  0  0  0  0  0  0  0  0  0  0  0
    3.7356   -1.2439    0.0000 H   0  0  0  0  0  0  0  0  0  0  0  0
    3.7356    1.0377    0.0000 H   0  0  0  0  0  0  0  0  0  0  0  0
    7.2575   -1.4531    0.0000 H   0  0  0  0  0  0  0  0  0  0  0  0
    5.1902    2.2353    0.0000 H   0  0  0  0  0  0  0  0  0  0  0  0
    2.8703   -1.7472    0.0000 H   0  0  0  0  0  0  0  0  0  0  0  0
    5.1902   -2.4415    0.0000 H   0  0  0  0  0  0  0  0  0  0  0  0
    2.3298    0.6131    0.0000 H   0  0  0  0  0  0  0  0  0  0  0  0
    9.0605   -1.2439    0.0000 H   0  0  0  0  0  0  0  0  0  0  0  0
    9.5998    0.7298    0.0000 H   0  0  0  0  0  0  0  0  0  0  0  0
    4.1057    2.9748    0.0000 H   0  0  0  0  0  0  0  0  0  0  0  0
    3.2562    2.7577    0.0000 H   0  0  0  0  0  0  0  0  0  0  0  0
    3.4733    1.9082    0.0000 H   0  0  0  0  0  0  0  0  0  0  0  0
    6.7272    1.7069    0.0000 H   0  0  0  0  0  0  0  0  0  0  0  0
    2.3079   -0.0925    0.0000 H   0  0  0  0  0  0  0  0  0  0  0  0
    1.4619   -0.3227    0.0000 H   0  0  0  0  0  0  0  0  0  0  0  0
    1.6921   -1.1687    0.0000 H   0  0  0  0  0  0  0  0  0  0  0  0
    9.6161   -1.6630    0.0000 H   0  0  0  0  0  0  0  0  0  0  0  0
   10.4639   -1.4393    0.0000 H   0  0  0  0  0  0  0  0  0  0  0  0
   10.2403   -0.5915    0.0000 H   0  0  0  0  0  0  0  0  0  0  0  0
    9.3229    1.9082    0.0000 H   0  0  0  0  0  0  0  0  0  0  0  0
    9.5400    2.7577    0.0000 H   0  0  0  0  0  0  0  0  0  0  0  0
    8.6905    2.9748    0.0000 H   0  0  0  0  0  0  0  0  0  0  0  0
  1 10  1  0  0  0  0
  1 16  1  0  0  0  0
  2 11  1  0  0  0  0
  2 17  1  0  0  0  0
 13  3  1  1  0  0  0
  3 34  1  0  0  0  0
 15  4  1  6  0  0  0
  4 35  1  0  0  0  0
  5 17  1  0  0  0  0
  5 19  1  0  0  0  0
 16  6  1  6  0  0  0
  6 41  1  0  0  0  0
  7 18  1  0  0  0  0
  7 24  1  0  0  0  0
 12  8  1  6  0  0  0
  8 21  1  0  0  0  0
  8 32  1  0  0  0  0
 14  9  1  6  0  0  0
  9 22  1  0  0  0  0
  9 33  1  0  0  0  0
 10 11  1  0  0  0  0
 10 12  1  0  0  0  0
 10 25  1  6  0  0  0
 11 13  1  0  0  0  0
 11 26  1  1  0  0  0
 12 15  1  0  0  0  0
 12 27  1  0  0  0  0
 13 14  1  0  0  0  0
 13 28  1  0  0  0  0
 14 15  1  0  0  0  0
 14 29  1  0  0  0  0
 15 30  1  0  0  0  0
 16 17  1  0  0  0  0
 16 18  1  0  0  0  0
 17 31  1  6  0  0  0
 18 20  2  0  0  0  0
 19 20  1  0  0  0  0
 19 23  1  1  0  0  0
 19 36  1  0  0  0  0
 20 37  1  0  0  0  0
 21 38  1  0  0  0  0
 21 39  1  0  0  0  0
 21 40  1  0  0  0  0
 22 42  1  0  0  0  0
 22 43  1  0  0  0  0
 22 44  1  0  0  0  0
 23 45  1  0  0  0  0
 23 46  1  0  0  0  0
 23 47  1  0  0  0  0
 24 48  1  0  0  0  0
 24 49  1  0  0  0  0
 24 50  1  0  0  0  0
M  END
> <PUBCHEM_COMPOUND_CID>
125257

> <PUBCHEM_COMPOUND_CANONICALIZED>
1

> <PUBCHEM_CACTVS_COMPLEXITY>
504

> <PUBCHEM_CACTVS_HBOND_ACCEPTOR>
9

> <PUBCHEM_CACTVS_HBOND_DONOR>
5

> <PUBCHEM_CACTVS_ROTATABLE_BOND>
3

> <PUBCHEM_CACTVS_SUBSKEYS>
AAADceBzOAAAAAAAAAAAAAAAAAAAAAAAAAA0QIAAAAAAAACQAAAAHgAQCAAACDzxgAcCCALABgCAACBCAAAACAAgIAAACIAIAAgTFAIA4AAnUAAHUAAfMAPwcA8AAAAAAAAAAAACgAAUCACgAAAAAAAAAA==

> <PUBCHEM_IUPAC_INCHI>
InChI=1S/C15H26N2O7/c1-6-5-7(21-4)15(20)14(22-6)23-13-11(19)8(16-2)10(18)9(17-3)12(13)24-15/h5-6,8-14,16-20H,1-4H3/t6-,8-,9+,10+,11+,12-,13-,14+,15+/m1/s1

> <PUBCHEM_IUPAC_INCHIKEY>
JXUOVTMVWNHOAJ-XLBYJKOOSA-N

> <PUBCHEM_XLOGP3_AA>
-2.7

> <PUBCHEM_EXACT_MASS>
346.174001

> <PUBCHEM_MOLECULAR_FORMULA>
C15H26N2O7

> <PUBCHEM_MOLECULAR_WEIGHT>
346.37614

> <PUBCHEM_OPENEYE_CAN_SMILES>
CC1C=C(C2(C(O1)OC3C(C(C(C(C3O2)NC)O)NC)O)O)OC

> <PUBCHEM_OPENEYE_ISO_SMILES>
C[C@@H]1C=C([C@]2([C@@H](O1)O[C@@H]3[C@H]([C@@H]([C@@H]([C@@H]([C@H]3O2)NC)O)NC)O)O)OC

> <PUBCHEM_CACTVS_TPSA>
122

> <PUBCHEM_MONOISOTOPIC_WEIGHT>
346.174001

> <PUBCHEM_TOTAL_CHARGE>
0

> <PUBCHEM_HEAVY_ATOM_COUNT>
24

> <PUBCHEM_ATOM_DEF_STEREO_COUNT>
9

> <PUBCHEM_ATOM_UDEF_STEREO_COUNT>
0

> <PUBCHEM_BOND_DEF_STEREO_COUNT>
0

> <PUBCHEM_BOND_UDEF_STEREO_COUNT>
0

> <PUBCHEM_ISOTOPIC_ATOM_COUNT>
0

> <PUBCHEM_COMPONENT_COUNT>
1

> <PUBCHEM_CACTVS_TAUTO_COUNT>
1

> <PUBCHEM_COORDINATE_TYPE>
1
5
255

> <PUBCHEM_BONDANNOTATIONS>
10  25  6
11  26  5
17  31  6
19  23  5
13  3  5
15  4  6
16  6  6
12  8  6
14  9  6

$$$$

