240982
  -OEChem-07051213063D

 52 55  0     1  0  0  0  0  0999 V2000
   -0.8188    0.2808    2.4740 S   0  0  0  0  0  0  0  0  0  0  0  0
   -0.9399    2.7461    0.0795 O   0  0  0  0  0  0  0  0  0  0  0  0
   -5.9068    0.8414   -0.2132 O   0  0  0  0  0  0  0  0  0  0  0  0
    5.1011   -0.1257    0.5211 O   0  0  0  0  0  0  0  0  0  0  0  0
    5.1732   -0.0630   -1.8057 O   0  0  0  0  0  0  0  0  0  0  0  0
   -2.9114   -0.8691    0.1769 C   0  0  1  0  0  0  0  0  0  0  0  0
   -1.3970   -0.8999   -0.0402 C   0  0  1  0  0  0  0  0  0  0  0  0
   -0.6941    0.3583    0.5944 C   0  0  2  0  0  0  0  0  0  0  0  0
   -3.5310    0.3853   -0.4729 C   0  0  2  0  0  0  0  0  0  0  0  0
    0.8383    0.3756    0.1210 C   0  0  2  0  0  0  0  0  0  0  0  0
   -3.0243    1.6070    0.2734 C   0  0  0  0  0  0  0  0  0  0  0  0
   -3.7662   -2.0204   -0.3445 C   0  0  0  0  0  0  0  0  0  0  0  0
   -0.7517   -2.2148    0.4169 C   0  0  0  0  0  0  0  0  0  0  0  0
   -1.4931    1.6582    0.2537 C   0  0  0  0  0  0  0  0  0  0  0  0
   -4.9937    0.0286   -0.2754 C   0  0  0  0  0  0  0  0  0  0  0  0
   -5.1934   -1.4753   -0.1965 C   0  0  0  0  0  0  0  0  0  0  0  0
    1.4739   -1.0207    0.3267 C   0  0  0  0  0  0  0  0  0  0  0  0
    1.7142    1.4232    0.8868 C   0  0  0  0  0  0  0  0  0  0  0  0
   -3.3154    0.5517   -1.9887 C   0  0  0  0  0  0  0  0  0  0  0  0
    0.7458   -2.1470    0.4552 C   0  0  0  0  0  0  0  0  0  0  0  0
    0.9279    0.6962   -1.4031 C   0  0  0  0  0  0  0  0  0  0  0  0
    3.2029    1.3775    0.5141 C   0  0  0  0  0  0  0  0  0  0  0  0
    2.9280   -1.1015    0.4034 C   0  0  0  0  0  0  0  0  0  0  0  0
    3.7264   -0.0246    0.4654 C   0  0  0  0  0  0  0  0  0  0  0  0
    5.7101   -0.1340   -0.7076 C   0  0  0  0  0  0  0  0  0  0  0  0
    7.1950   -0.2340   -0.5148 C   0  0  0  0  0  0  0  0  0  0  0  0
   -3.1005   -0.8420    1.2612 H   0  0  0  0  0  0  0  0  0  0  0  0
   -1.2515   -0.8700   -1.1249 H   0  0  0  0  0  0  0  0  0  0  0  0
   -3.3618    1.6136    1.3160 H   0  0  0  0  0  0  0  0  0  0  0  0
   -3.4114    2.5243   -0.1864 H   0  0  0  0  0  0  0  0  0  0  0  0
   -3.6322   -2.9385    0.2361 H   0  0  0  0  0  0  0  0  0  0  0  0
   -3.5404   -2.2533   -1.3906 H   0  0  0  0  0  0  0  0  0  0  0  0
   -1.0420   -3.0152   -0.2751 H   0  0  0  0  0  0  0  0  0  0  0  0
   -1.1184   -2.5150    1.4054 H   0  0  0  0  0  0  0  0  0  0  0  0
   -5.6109   -1.7254    0.7831 H   0  0  0  0  0  0  0  0  0  0  0  0
   -5.8443   -1.8277   -0.9994 H   0  0  0  0  0  0  0  0  0  0  0  0
    1.6582    1.2573    1.9689 H   0  0  0  0  0  0  0  0  0  0  0  0
    1.3548    2.4424    0.7142 H   0  0  0  0  0  0  0  0  0  0  0  0
   -3.9020    1.3991   -2.3645 H   0  0  0  0  0  0  0  0  0  0  0  0
   -2.2697    0.7468   -2.2447 H   0  0  0  0  0  0  0  0  0  0  0  0
   -3.6403   -0.3253   -2.5577 H   0  0  0  0  0  0  0  0  0  0  0  0
    1.2465   -3.0998    0.6172 H   0  0  0  0  0  0  0  0  0  0  0  0
    0.5599    1.7016   -1.6277 H   0  0  0  0  0  0  0  0  0  0  0  0
    1.9557    0.6485   -1.7796 H   0  0  0  0  0  0  0  0  0  0  0  0
    0.3628   -0.0087   -2.0187 H   0  0  0  0  0  0  0  0  0  0  0  0
   -0.0065   -0.7672    2.6642 H   0  0  0  0  0  0  0  0  0  0  0  0
    3.7639    1.9558    1.2587 H   0  0  0  0  0  0  0  0  0  0  0  0
    3.3699    1.8678   -0.4517 H   0  0  0  0  0  0  0  0  0  0  0  0
    3.3799   -2.0905    0.4122 H   0  0  0  0  0  0  0  0  0  0  0  0
    7.4381   -1.1534    0.0239 H   0  0  0  0  0  0  0  0  0  0  0  0
    7.5574    0.6405    0.0314 H   0  0  0  0  0  0  0  0  0  0  0  0
    7.6863   -0.2643   -1.4915 H   0  0  0  0  0  0  0  0  0  0  0  0
  1  8  1  0  0  0  0
  1 46  1  0  0  0  0
  2 14  2  0  0  0  0
  3 15  2  0  0  0  0
  4 24  1  0  0  0  0
  4 25  1  0  0  0  0
  5 25  2  0  0  0  0
  6  7  1  0  0  0  0
  6  9  1  0  0  0  0
  6 12  1  0  0  0  0
  6 27  1  0  0  0  0
  7  8  1  0  0  0  0
  7 13  1  0  0  0  0
  7 28  1  0  0  0  0
  8 10  1  0  0  0  0
  8 14  1  0  0  0  0
  9 11  1  0  0  0  0
  9 15  1  0  0  0  0
  9 19  1  0  0  0  0
 10 17  1  0  0  0  0
 10 18  1  0  0  0  0
 10 21  1  0  0  0  0
 11 14  1  0  0  0  0
 11 29  1  0  0  0  0
 11 30  1  0  0  0  0
 12 16  1  0  0  0  0
 12 31  1  0  0  0  0
 12 32  1  0  0  0  0
 13 20  1  0  0  0  0
 13 33  1  0  0  0  0
 13 34  1  0  0  0  0
 15 16  1  0  0  0  0
 16 35  1  0  0  0  0
 16 36  1  0  0  0  0
 17 20  2  0  0  0  0
 17 23  1  0  0  0  0
 18 22  1  0  0  0  0
 18 37  1  0  0  0  0
 18 38  1  0  0  0  0
 19 39  1  0  0  0  0
 19 40  1  0  0  0  0
 19 41  1  0  0  0  0
 20 42  1  0  0  0  0
 21 43  1  0  0  0  0
 21 44  1  0  0  0  0
 21 45  1  0  0  0  0
 22 24  1  0  0  0  0
 22 47  1  0  0  0  0
 22 48  1  0  0  0  0
 23 24  2  0  0  0  0
 23 49  1  0  0  0  0
 25 26  1  0  0  0  0
 26 50  1  0  0  0  0
 26 51  1  0  0  0  0
 26 52  1  0  0  0  0
M  END
> <PUBCHEM_COMPOUND_CID>
240982

> <PUBCHEM_CONFORMER_RMSD>
0.6

> <PUBCHEM_CONFORMER_DIVERSEORDER>
1
3
4
2

> <PUBCHEM_MMFF94_PARTIAL_CHARGES>
23
1 -0.41
10 0.14
11 0.06
13 0.14
14 0.45
15 0.45
16 0.06
17 -0.14
2 -0.57
20 -0.29
22 0.14
23 -0.15
24 -0.06
25 0.66
26 0.06
3 -0.57
4 -0.23
42 0.15
46 0.18
49 0.15
5 -0.57
8 0.29
9 0.06

> <PUBCHEM_EFFECTIVE_ROTOR_COUNT>
3.2

> <PUBCHEM_PHARMACOPHORE_FEATURES>
7
1 2 acceptor
1 3 acceptor
1 5 acceptor
5 6 9 12 15 16 rings
6 10 17 18 22 23 24 rings
6 6 7 8 9 11 14 rings
6 7 8 10 13 17 20 rings

> <PUBCHEM_HEAVY_ATOM_COUNT>
26

> <PUBCHEM_ATOM_DEF_STEREO_COUNT>
5

> <PUBCHEM_ATOM_UDEF_STEREO_COUNT>
0

> <PUBCHEM_BOND_DEF_STEREO_COUNT>
0

> <PUBCHEM_BOND_UDEF_STEREO_COUNT>
0

> <PUBCHEM_ISOTOPIC_ATOM_COUNT>
0

> <PUBCHEM_COMPONENT_COUNT>
1

> <PUBCHEM_CACTVS_TAUTO_COUNT>
4

> <PUBCHEM_CONFORMER_ID>
0003AD5600000001

> <PUBCHEM_MMFF94_ENERGY>
82.0604

> <PUBCHEM_FEATURE_SELFOVERLAP>
35.612

> <PUBCHEM_SHAPE_FINGERPRINT>
10670039 82 18342169025440896084
10863032 1 18411146848311488883
10906281 52 18058712706515959555
11315181 36 18040710356075525760
12011746 2 18410855469224492110
12166972 35 17989203707422437308
12236239 1 17775288274235603618
12403259 415 18342469122652295661
12788726 201 18339083803554153817
12954195 1 18187637063786739168
13288520 33 18333168371067447745
13533116 47 16773528754298504856
15183329 4 18411412947875310286
15196674 1 18337958887521557249
15788980 27 16732704934660880276
1601671 61 18202288013287620558
16945 1 18122640593604652539
17349148 13 18060421308983688672
17980427 23 15697714917098801815
1813 80 4823220536952321384
18681886 176 18339647746167038584
200 152 17385724694723370242
21033650 10 17843945169504287540
21267235 1 18337951195673324187
221357 26 18187367640187587136
22393880 68 18408893931405308436
23175994 123 17022904536285775337
23198884 109 16702303451470370322
23402539 116 18333737896657893519
23557571 272 18114176458309339993
23559900 14 18262807263547624616
25147074 1 18198060481310097738
2838139 119 16200432459793417446
296302 2 16630807724869482506
3004659 81 18413109438260646376
335352 9 18409733959243861157
34797466 226 18040710347443607444
350125 39 18412828005547936297
3545911 37 18413110563294034567
484989 97 17985548845796166299
5104073 3 18410300172818410243
542803 24 17203331108795974402
5486654 2 18411983567875314231

> <PUBCHEM_SHAPE_MULTIPOLES>
515.44
12.62
2.05
1.38
12.11
0.07
-0.12
1.32
4.43
-1.36
-0.24
0.12
-0.24
0.13

> <PUBCHEM_SHAPE_SELFOVERLAP>
1103.38

> <PUBCHEM_SHAPE_VOLUME>
289.1

> <PUBCHEM_COORDINATE_TYPE>
2
5
10

$$$$

