166290
  -OEChem-07051213102D

 41 42  0     1  0  0  0  0  0999 V2000
    7.2192   -0.0202    0.0000 S   0  0  0  0  0  0  0  0  0  0  0  0
    2.9665   -1.2329    0.0000 O   0  0  0  0  0  0  0  0  0  0  0  0
    6.9186   -1.9882    0.0000 O   0  0  0  0  0  0  0  0  0  0  0  0
    5.2713   -2.5234    0.0000 O   0  0  0  0  0  0  0  0  0  0  0  0
   10.7192    0.8458    0.0000 O   0  0  0  0  0  0  0  0  0  0  0  0
    4.6804   -0.5202    0.0000 N   0  0  0  0  0  0  0  0  0  0  0  0
    9.2192    1.7118    0.0000 N   0  0  0  0  0  0  0  0  0  0  0  0
    4.6804    0.4798    0.0000 C   0  0  1  0  0  0  0  0  0  0  0  0
    3.6721    0.4839    0.0000 C   0  0  2  0  0  0  0  0  0  0  0  0
    5.6314    0.7888    0.0000 C   0  0  0  0  0  0  0  0  0  0  0  0
    3.6721   -0.5244    0.0000 C   0  0  0  0  0  0  0  0  0  0  0  0
    2.9665    1.1925    0.0000 C   0  0  0  0  0  0  0  0  0  0  0  0
    5.6314   -0.8292    0.0000 C   0  0  0  0  0  0  0  0  0  0  0  0
    6.2192   -0.0202    0.0000 C   0  0  0  0  0  0  0  0  0  0  0  0
    3.2273    2.1579    0.0000 C   0  0  0  0  0  0  0  0  0  0  0  0
    2.0000    0.9357    0.0000 C   0  0  0  0  0  0  0  0  0  0  0  0
    5.9405   -1.7803    0.0000 C   0  0  0  0  0  0  0  0  0  0  0  0
    7.7192    0.8458    0.0000 C   0  0  0  0  0  0  0  0  0  0  0  0
    8.7192    0.8458    0.0000 C   0  0  0  0  0  0  0  0  0  0  0  0
   10.2192    1.7118    0.0000 C   0  0  0  0  0  0  0  0  0  0  0  0
   10.7192    2.5779    0.0000 C   0  0  0  0  0  0  0  0  0  0  0  0
    4.5491    1.3196    0.0000 H   0  0  0  0  0  0  0  0  0  0  0  0
    3.0991    0.2473    0.0000 H   0  0  0  0  0  0  0  0  0  0  0  0
    6.1684    1.0988    0.0000 H   0  0  0  0  0  0  0  0  0  0  0  0
    5.3793    1.3552    0.0000 H   0  0  0  0  0  0  0  0  0  0  0  0
    2.5290    1.6318    0.0000 H   0  0  0  0  0  0  0  0  0  0  0  0
    3.8258    1.9962    0.0000 H   0  0  0  0  0  0  0  0  0  0  0  0
    3.3890    2.7564    0.0000 H   0  0  0  0  0  0  0  0  0  0  0  0
    2.6287    2.3196    0.0000 H   0  0  0  0  0  0  0  0  0  0  0  0
    1.8408    1.5348    0.0000 H   0  0  0  0  0  0  0  0  0  0  0  0
    1.4008    0.7764    0.0000 H   0  0  0  0  0  0  0  0  0  0  0  0
    2.1592    0.3364    0.0000 H   0  0  0  0  0  0  0  0  0  0  0  0
    7.8269    1.4564    0.0000 H   0  0  0  0  0  0  0  0  0  0  0  0
    7.1366    1.0579    0.0000 H   0  0  0  0  0  0  0  0  0  0  0  0
    8.6116    0.2352    0.0000 H   0  0  0  0  0  0  0  0  0  0  0  0
    9.3018    0.6338    0.0000 H   0  0  0  0  0  0  0  0  0  0  0  0
    7.1102   -2.5779    0.0000 H   0  0  0  0  0  0  0  0  0  0  0  0
    8.9092    2.2488    0.0000 H   0  0  0  0  0  0  0  0  0  0  0  0
   11.2562    2.2679    0.0000 H   0  0  0  0  0  0  0  0  0  0  0  0
   11.0292    3.1148    0.0000 H   0  0  0  0  0  0  0  0  0  0  0  0
   10.1823    2.8879    0.0000 H   0  0  0  0  0  0  0  0  0  0  0  0
  1 14  1  0  0  0  0
  1 18  1  0  0  0  0
  2 11  2  0  0  0  0
  3 17  1  0  0  0  0
  3 37  1  0  0  0  0
  4 17  2  0  0  0  0
  5 20  2  0  0  0  0
  6  8  1  0  0  0  0
  6 11  1  0  0  0  0
  6 13  1  0  0  0  0
  7 19  1  0  0  0  0
  7 20  1  0  0  0  0
  7 38  1  0  0  0  0
  8  9  1  0  0  0  0
  8 10  1  0  0  0  0
  8 22  1  6  0  0  0
  9 11  1  0  0  0  0
  9 12  1  6  0  0  0
  9 23  1  0  0  0  0
 10 14  1  0  0  0  0
 10 24  1  0  0  0  0
 10 25  1  0  0  0  0
 12 15  1  0  0  0  0
 12 16  1  0  0  0  0
 12 26  1  0  0  0  0
 13 14  2  0  0  0  0
 13 17  1  0  0  0  0
 15 27  1  0  0  0  0
 15 28  1  0  0  0  0
 15 29  1  0  0  0  0
 16 30  1  0  0  0  0
 16 31  1  0  0  0  0
 16 32  1  0  0  0  0
 18 19  1  0  0  0  0
 18 33  1  0  0  0  0
 18 34  1  0  0  0  0
 19 35  1  0  0  0  0
 19 36  1  0  0  0  0
 20 21  1  0  0  0  0
 21 39  1  0  0  0  0
 21 40  1  0  0  0  0
 21 41  1  0  0  0  0
M  END
> <PUBCHEM_COMPOUND_CID>
166290

> <PUBCHEM_COMPOUND_CANONICALIZED>
1

> <PUBCHEM_CACTVS_COMPLEXITY>
515

> <PUBCHEM_CACTVS_HBOND_ACCEPTOR>
5

> <PUBCHEM_CACTVS_HBOND_DONOR>
2

> <PUBCHEM_CACTVS_ROTATABLE_BOND>
6

> <PUBCHEM_CACTVS_SUBSKEYS>
AAADceBzOABAAAAAAAAAAAAAAABYAQAAAAAAAAAABAAAAAAAAAAAHgQQCAAADSjFwASCCAPAAgiIAAXQWAAAAAAgABAACIGIAEgCBBoggCAEEAAAlgC4EQMYAAAOgAAAAAAAAAAAAAAAAAAAAAAAAAAAAA==

> <PUBCHEM_IUPAC_OPENEYE_NAME>
(5R,6R)-3-(2-acetamidoethylsulfanyl)-6-isopropyl-7-oxo-1-azabicyclo[3.2.0]hept-2-ene-2-carboxylic acid

> <PUBCHEM_IUPAC_CAS_NAME>
(5R,6R)-3-(2-acetamidoethylthio)-7-oxo-6-propan-2-yl-1-azabicyclo[3.2.0]hept-2-ene-2-carboxylic acid

> <PUBCHEM_IUPAC_NAME>
(5R,6R)-3-(2-acetamidoethylsulfanyl)-7-oxo-6-propan-2-yl-1-azabicyclo[3.2.0]hept-2-ene-2-carboxylic acid

> <PUBCHEM_IUPAC_SYSTEMATIC_NAME>
(5R,6R)-3-(2-acetamidoethylsulfanyl)-7-oxidanylidene-6-propan-2-yl-1-azabicyclo[3.2.0]hept-2-ene-2-carboxylic acid

> <PUBCHEM_IUPAC_TRADITIONAL_NAME>
(5R,6R)-3-(2-acetamidoethylthio)-6-isopropyl-7-keto-1-azabicyclo[3.2.0]hept-2-ene-2-carboxylic acid

> <PUBCHEM_IUPAC_INCHI>
InChI=1S/C14H20N2O4S/c1-7(2)11-9-6-10(21-5-4-15-8(3)17)12(14(19)20)16(9)13(11)18/h7,9,11H,4-6H2,1-3H3,(H,15,17)(H,19,20)/t9-,11-/m1/s1

> <PUBCHEM_IUPAC_INCHIKEY>
SUMQHCXEWHRKGG-MWLCHTKSSA-N

> <PUBCHEM_XLOGP3_AA>
0.6

> <PUBCHEM_EXACT_MASS>
312.114378

> <PUBCHEM_MOLECULAR_FORMULA>
C14H20N2O4S

> <PUBCHEM_MOLECULAR_WEIGHT>
312.3846

> <PUBCHEM_OPENEYE_CAN_SMILES>
CC(C)C1C2CC(=C(N2C1=O)C(=O)O)SCCNC(=O)C

> <PUBCHEM_OPENEYE_ISO_SMILES>
CC(C)[C@@H]1[C@H]2CC(=C(N2C1=O)C(=O)O)SCCNC(=O)C

> <PUBCHEM_CACTVS_TPSA>
112

> <PUBCHEM_MONOISOTOPIC_WEIGHT>
312.114378

> <PUBCHEM_TOTAL_CHARGE>
0

> <PUBCHEM_HEAVY_ATOM_COUNT>
21

> <PUBCHEM_ATOM_DEF_STEREO_COUNT>
2

> <PUBCHEM_ATOM_UDEF_STEREO_COUNT>
0

> <PUBCHEM_BOND_DEF_STEREO_COUNT>
0

> <PUBCHEM_BOND_UDEF_STEREO_COUNT>
0

> <PUBCHEM_ISOTOPIC_ATOM_COUNT>
0

> <PUBCHEM_COMPONENT_COUNT>
1

> <PUBCHEM_CACTVS_TAUTO_COUNT>
4

> <PUBCHEM_COORDINATE_TYPE>
1
5
255

> <PUBCHEM_BONDANNOTATIONS>
8  22  6
9  12  6

$$$$

