10062
  -OEChem-07051213153D

 60 64  0     1  0  0  0  0  0999 V2000
    1.3987   -1.4274    0.4073 O   0  0  0  0  0  0  0  0  0  0  0  0
   -7.2797   -0.6574   -0.1632 O   0  0  0  0  0  0  0  0  0  0  0  0
    5.2051   -1.4273   -0.0261 O   0  0  0  0  0  0  0  0  0  0  0  0
    7.2032   -1.0025    0.9715 O   0  0  0  0  0  0  0  0  0  0  0  0
    0.5730   -0.4314   -0.2149 C   0  0  2  0  0  0  0  0  0  0  0  0
    1.2004    0.9775   -0.0294 C   0  0  1  0  0  0  0  0  0  0  0  0
   -0.8622   -0.5636    0.3642 C   0  0  1  0  0  0  0  0  0  0  0  0
   -1.8199    0.5733   -0.0872 C   0  0  1  0  0  0  0  0  0  0  0  0
   -3.2741    0.4363    0.5121 C   0  0  2  0  0  0  0  0  0  0  0  0
    2.4041    0.9597   -1.0241 C   0  0  2  0  0  0  0  0  0  0  0  0
    0.1959    2.0744   -0.4786 C   0  0  0  0  0  0  0  0  0  0  0  0
   -1.1774    1.9479    0.1788 C   0  0  0  0  0  0  0  0  0  0  0  0
    0.6824   -0.6751   -1.7313 C   0  0  0  0  0  0  0  0  0  0  0  0
    1.9064    0.1169   -2.2131 C   0  0  0  0  0  0  0  0  0  0  0  0
   -1.4769   -1.9413    0.0479 C   0  0  0  0  0  0  0  0  0  0  0  0
   -3.7804   -0.9942    0.2899 C   0  0  0  0  0  0  0  0  0  0  0  0
    1.6373    1.2714    1.4203 C   0  0  0  0  0  0  0  0  0  0  0  0
   -2.8477   -2.1083    0.6919 C   0  0  0  0  0  0  0  0  0  0  0  0
   -4.2056    1.4657   -0.2035 C   0  0  0  0  0  0  0  0  0  0  0  0
   -3.3068    0.7248    2.0322 C   0  0  0  0  0  0  0  0  0  0  0  0
    3.6913    0.3969   -0.4931 C   0  0  0  0  0  0  0  0  0  0  0  0
   -5.6859    1.1363   -0.0477 C   0  0  0  0  0  0  0  0  0  0  0  0
   -4.9876   -1.2746   -0.2354 C   0  0  0  0  0  0  0  0  0  0  0  0
   -5.9981   -0.2408   -0.6255 C   0  0  1  0  0  0  0  0  0  0  0  0
    4.6516    1.3019    0.0829 C   0  0  0  0  0  0  0  0  0  0  0  0
    4.0030   -0.9027   -0.5217 C   0  0  0  0  0  0  0  0  0  0  0  0
    5.8125    0.8524    0.5694 C   0  0  0  0  0  0  0  0  0  0  0  0
    6.1376   -0.5888    0.5262 C   0  0  0  0  0  0  0  0  0  0  0  0
   -0.7649   -0.5121    1.4573 H   0  0  0  0  0  0  0  0  0  0  0  0
   -1.9294    0.4830   -1.1778 H   0  0  0  0  0  0  0  0  0  0  0  0
    2.6068    1.9748   -1.3938 H   0  0  0  0  0  0  0  0  0  0  0  0
    0.0534    2.0530   -1.5663 H   0  0  0  0  0  0  0  0  0  0  0  0
    0.6082    3.0672   -0.2564 H   0  0  0  0  0  0  0  0  0  0  0  0
   -1.0853    2.1314    1.2537 H   0  0  0  0  0  0  0  0  0  0  0  0
   -1.8123    2.7469   -0.2191 H   0  0  0  0  0  0  0  0  0  0  0  0
   -0.1993   -0.3240   -2.2765 H   0  0  0  0  0  0  0  0  0  0  0  0
    0.8114   -1.7382   -1.9649 H   0  0  0  0  0  0  0  0  0  0  0  0
    2.6543   -0.5274   -2.6865 H   0  0  0  0  0  0  0  0  0  0  0  0
    1.5781    0.7938   -3.0138 H   0  0  0  0  0  0  0  0  0  0  0  0
   -0.8211   -2.7421    0.4092 H   0  0  0  0  0  0  0  0  0  0  0  0
   -1.5722   -2.0749   -1.0370 H   0  0  0  0  0  0  0  0  0  0  0  0
    2.3562    0.5427    1.8065 H   0  0  0  0  0  0  0  0  0  0  0  0
    2.0961    2.2636    1.4966 H   0  0  0  0  0  0  0  0  0  0  0  0
    0.7868    1.2521    2.1089 H   0  0  0  0  0  0  0  0  0  0  0  0
   -2.7465   -2.1206    1.7837 H   0  0  0  0  0  0  0  0  0  0  0  0
   -3.2518   -3.0884    0.4107 H   0  0  0  0  0  0  0  0  0  0  0  0
   -3.9747    1.4986   -1.2769 H   0  0  0  0  0  0  0  0  0  0  0  0
   -4.0300    2.4776    0.1808 H   0  0  0  0  0  0  0  0  0  0  0  0
    1.2814   -1.3639    1.3699 H   0  0  0  0  0  0  0  0  0  0  0  0
   -2.5705    0.1337    2.5853 H   0  0  0  0  0  0  0  0  0  0  0  0
   -3.1059    1.7798    2.2469 H   0  0  0  0  0  0  0  0  0  0  0  0
   -4.2874    0.4932    2.4641 H   0  0  0  0  0  0  0  0  0  0  0  0
   -5.9838    1.1938    1.0067 H   0  0  0  0  0  0  0  0  0  0  0  0
   -6.2948    1.8904   -0.5614 H   0  0  0  0  0  0  0  0  0  0  0  0
   -5.2724   -2.3122   -0.3943 H   0  0  0  0  0  0  0  0  0  0  0  0
   -6.0449   -0.1898   -1.7189 H   0  0  0  0  0  0  0  0  0  0  0  0
    4.4227    2.3617    0.1196 H   0  0  0  0  0  0  0  0  0  0  0  0
    3.4202   -1.7157   -0.9281 H   0  0  0  0  0  0  0  0  0  0  0  0
   -7.2459   -0.7242    0.8067 H   0  0  0  0  0  0  0  0  0  0  0  0
    6.5404    1.5271    1.0048 H   0  0  0  0  0  0  0  0  0  0  0  0
  1  5  1  0  0  0  0
  1 49  1  0  0  0  0
  2 24  1  0  0  0  0
  2 59  1  0  0  0  0
  3 26  1  0  0  0  0
  3 28  1  0  0  0  0
  4 28  2  0  0  0  0
  5  6  1  0  0  0  0
  5  7  1  0  0  0  0
  5 13  1  0  0  0  0
  6 10  1  0  0  0  0
  6 11  1  0  0  0  0
  6 17  1  0  0  0  0
  7  8  1  0  0  0  0
  7 15  1  0  0  0  0
  7 29  1  0  0  0  0
  8  9  1  0  0  0  0
  8 12  1  0  0  0  0
  8 30  1  0  0  0  0
  9 16  1  0  0  0  0
  9 19  1  0  0  0  0
  9 20  1  0  0  0  0
 10 14  1  0  0  0  0
 10 21  1  0  0  0  0
 10 31  1  0  0  0  0
 11 12  1  0  0  0  0
 11 32  1  0  0  0  0
 11 33  1  0  0  0  0
 12 34  1  0  0  0  0
 12 35  1  0  0  0  0
 13 14  1  0  0  0  0
 13 36  1  0  0  0  0
 13 37  1  0  0  0  0
 14 38  1  0  0  0  0
 14 39  1  0  0  0  0
 15 18  1  0  0  0  0
 15 40  1  0  0  0  0
 15 41  1  0  0  0  0
 16 18  1  0  0  0  0
 16 23  2  0  0  0  0
 17 42  1  0  0  0  0
 17 43  1  0  0  0  0
 17 44  1  0  0  0  0
 18 45  1  0  0  0  0
 18 46  1  0  0  0  0
 19 22  1  0  0  0  0
 19 47  1  0  0  0  0
 19 48  1  0  0  0  0
 20 50  1  0  0  0  0
 20 51  1  0  0  0  0
 20 52  1  0  0  0  0
 21 25  1  0  0  0  0
 21 26  2  0  0  0  0
 22 24  1  0  0  0  0
 22 53  1  0  0  0  0
 22 54  1  0  0  0  0
 23 24  1  0  0  0  0
 23 55  1  0  0  0  0
 24 56  1  0  0  0  0
 25 27  2  0  0  0  0
 25 57  1  0  0  0  0
 26 58  1  0  0  0  0
 27 28  1  0  0  0  0
 27 60  1  0  0  0  0
M  END
> <PUBCHEM_COMPOUND_CID>
10062

> <PUBCHEM_CONFORMER_RMSD>
0.8

> <PUBCHEM_CONFORMER_DIVERSEORDER>
1
6
4
16
13
5
12
10
11
2
15
3
14
8
9
7

> <PUBCHEM_MMFF94_PARTIAL_CHARGES>
22
1 -0.68
10 0.14
16 -0.28
18 0.14
2 -0.68
21 -0.14
23 -0.29
24 0.42
25 -0.15
26 -0.07
27 -0.14
28 0.71
3 -0.23
4 -0.57
49 0.4
5 0.28
55 0.15
57 0.15
58 0.15
59 0.4
60 0.15
9 0.14

> <PUBCHEM_EFFECTIVE_ROTOR_COUNT>
3

> <PUBCHEM_PHARMACOPHORE_FEATURES>
10
1 1 acceptor
1 1 donor
1 2 acceptor
1 2 donor
1 4 acceptor
5 5 6 10 13 14 rings
6 3 21 25 26 27 28 rings
6 5 6 7 8 11 12 rings
6 7 8 9 15 16 18 rings
6 9 16 19 22 23 24 rings

> <PUBCHEM_HEAVY_ATOM_COUNT>
28

> <PUBCHEM_ATOM_DEF_STEREO_COUNT>
5

> <PUBCHEM_ATOM_UDEF_STEREO_COUNT>
2

> <PUBCHEM_BOND_DEF_STEREO_COUNT>
0

> <PUBCHEM_BOND_UDEF_STEREO_COUNT>
0

> <PUBCHEM_ISOTOPIC_ATOM_COUNT>
0

> <PUBCHEM_COMPONENT_COUNT>
1

> <PUBCHEM_CACTVS_TAUTO_COUNT>
1

> <PUBCHEM_CONFORMER_ID>
0000274E00000001

> <PUBCHEM_MMFF94_ENERGY>
99.5308

> <PUBCHEM_FEATURE_SELFOVERLAP>
50.945

> <PUBCHEM_SHAPE_FINGERPRINT>
10 15 18040446465080066520
106641 1 17240491286543169018
10906281 52 18189594125590714805
11045977 3 18333732399474327088
11315181 36 18114178618598794993
11578080 2 16227761822424899530
11646440 116 18261662706582260833
11719270 70 17894911845293214094
11796584 16 17989205915120088338
12011746 2 18410295804826178113
12107698 1 17313387812195583057
12166972 35 18060135402007157693
12236239 1 17632294544975376277
12516196 113 18186522107076979552
13533116 47 18340769338448802866
13590594 115 16128657465750193412
13862211 1 18413107264247396349
13914758 101 17846504759506577565
14251764 18 18408605847080655648
14856354 85 14333403463257125955
15142383 8 16415489259027149110
15183329 4 18059853973736808935
15196674 1 18411697673150168828
15788980 27 18060131033487145612
15849732 13 17704073984093922759
17349148 13 18186793669395615541
17492 89 17982448188197238979
17857418 61 18342177778193887378
17980427 23 17603572028952276145
1813 80 16988560213198920414
18608769 82 18270957948277910195
19377110 9 16008741429263969075
19489759 90 18130788971198950069
200 152 17458060457182961349
20028762 73 18334858325014505726
20511986 3 18339655480875734702
21267235 1 18341888580939786011
21279426 13 18338799047232627455
21521721 280 9871745814913474998
21781051 124 17774142506765365091
21859007 373 17917163791443786085
22079108 93 14923946734782363734
22224240 67 16443071586162402774
23402539 116 18408606963350231229
23559900 14 18263933146522478969
23569917 315 18410285913301471439
23622692 88 15697999634975961707
3004659 81 18202561779045902676
335352 9 18342457028224382775
3383291 50 18273210864261210747
34797466 226 15864063239727083664
3633792 109 18272098240250532503
404807 14 17254547722034352506
4073 2 17917144988794024898
4098825 35 9655309154736866016
4325135 7 16515684437693160452
4340502 62 15719390637910300884
5104073 3 18337943494063493336
559249 180 18272653454461548947
633830 44 15625654990803635700
7226269 152 18411698802763880865
7495541 125 18113620045407147080
9981440 41 18342449362172671875

> <PUBCHEM_SHAPE_MULTIPOLES>
552.75
15.32
1.93
1.3
3.11
0.04
0.17
2.6
-2.07
-0.52
-0.18
0.38
-0.1
-0.15

> <PUBCHEM_SHAPE_SELFOVERLAP>
1203.986

> <PUBCHEM_SHAPE_VOLUME>
297.4

> <PUBCHEM_COORDINATE_TYPE>
2
5
10

$$$$

