164735
  -OEChem-07051212443D

 38 37  0     1  0  0  0  0  0999 V2000
    4.4239    1.9962   -0.1343 P   0  0  0  0  0  0  0  0  0  0  0  0
   -4.4074    2.0492    0.0893 P   0  0  0  0  0  0  0  0  0  0  0  0
    1.3139   -2.1948    1.6672 O   0  0  0  0  0  0  0  0  0  0  0  0
   -0.1169   -1.4366   -1.6228 O   0  0  0  0  0  0  0  0  0  0  0  0
    3.6636   -2.2016    0.2517 O   0  0  0  0  0  0  0  0  0  0  0  0
   -1.3884   -3.4715   -0.0691 O   0  0  0  0  0  0  0  0  0  0  0  0
    4.0006    0.4655   -0.4253 O   0  0  0  0  0  0  0  0  0  0  0  0
   -3.9890    0.5188   -0.2424 O   0  0  0  0  0  0  0  0  0  0  0  0
   -3.4113   -2.0163   -0.8151 O   0  0  0  0  0  0  0  0  0  0  0  0
    3.1458    2.8253   -0.6764 O   0  0  0  0  0  0  0  0  0  0  0  0
    4.3012    2.1322    1.4725 O   0  0  0  0  0  0  0  0  0  0  0  0
    5.7432    2.4143   -0.7147 O   0  0  0  0  0  0  0  0  0  0  0  0
   -4.3732    2.0942    1.7053 O   0  0  0  0  0  0  0  0  0  0  0  0
   -3.1012    2.9034   -0.3343 O   0  0  0  0  0  0  0  0  0  0  0  0
   -5.6977    2.5003   -0.5303 O   0  0  0  0  0  0  0  0  0  0  0  0
    1.2770   -2.1333    0.2410 C   0  0  1  0  0  0  0  0  0  0  0  0
   -0.0334   -1.4471   -0.2002 C   0  0  2  0  0  0  0  0  0  0  0  0
    2.5579   -1.4652   -0.2942 C   0  0  1  0  0  0  0  0  0  0  0  0
   -1.3015   -2.1177    0.3579 C   0  0  1  0  0  0  0  0  0  0  0  0
    2.7576   -0.0008    0.0967 C   0  0  0  0  0  0  0  0  0  0  0  0
   -2.5782   -1.4277   -0.1242 C   0  0  0  0  0  0  0  0  0  0  0  0
   -2.7867    0.0130    0.3020 C   0  0  0  0  0  0  0  0  0  0  0  0
    1.2720   -3.1719   -0.1140 H   0  0  0  0  0  0  0  0  0  0  0  0
   -0.0248   -0.4084    0.1456 H   0  0  0  0  0  0  0  0  0  0  0  0
    2.6230   -1.5617   -1.3839 H   0  0  0  0  0  0  0  0  0  0  0  0
   -1.3096   -2.1131    1.4524 H   0  0  0  0  0  0  0  0  0  0  0  0
    2.7824    0.0984    1.1865 H   0  0  0  0  0  0  0  0  0  0  0  0
    1.9505    0.6179   -0.3036 H   0  0  0  0  0  0  0  0  0  0  0  0
    2.1461   -2.6305    1.9188 H   0  0  0  0  0  0  0  0  0  0  0  0
    0.5660   -0.8309   -1.9563 H   0  0  0  0  0  0  0  0  0  0  0  0
    3.5869   -3.1192   -0.0612 H   0  0  0  0  0  0  0  0  0  0  0  0
   -1.9546    0.6184   -0.0626 H   0  0  0  0  0  0  0  0  0  0  0  0
   -2.8298    0.0449    1.3941 H   0  0  0  0  0  0  0  0  0  0  0  0
   -1.2895   -3.4848   -1.0366 H   0  0  0  0  0  0  0  0  0  0  0  0
    3.1897    3.8050   -0.6975 H   0  0  0  0  0  0  0  0  0  0  0  0
    4.5687    2.9738    1.8993 H   0  0  0  0  0  0  0  0  0  0  0  0
   -4.6820    2.9044    2.1642 H   0  0  0  0  0  0  0  0  0  0  0  0
   -3.1401    3.8825   -0.2915 H   0  0  0  0  0  0  0  0  0  0  0  0
  1  7  1  0  0  0  0
  1 10  1  0  0  0  0
  1 11  1  0  0  0  0
  1 12  2  0  0  0  0
  2  8  1  0  0  0  0
  2 13  1  0  0  0  0
  2 14  1  0  0  0  0
  2 15  2  0  0  0  0
  3 16  1  0  0  0  0
  3 29  1  0  0  0  0
  4 17  1  0  0  0  0
  4 30  1  0  0  0  0
  5 18  1  0  0  0  0
  5 31  1  0  0  0  0
  6 19  1  0  0  0  0
  6 34  1  0  0  0  0
  7 20  1  0  0  0  0
  8 22  1  0  0  0  0
  9 21  2  0  0  0  0
 10 35  1  0  0  0  0
 11 36  1  0  0  0  0
 13 37  1  0  0  0  0
 14 38  1  0  0  0  0
 16 17  1  0  0  0  0
 16 18  1  0  0  0  0
 16 23  1  0  0  0  0
 17 19  1  0  0  0  0
 17 24  1  0  0  0  0
 18 20  1  0  0  0  0
 18 25  1  0  0  0  0
 19 21  1  0  0  0  0
 19 26  1  0  0  0  0
 20 27  1  0  0  0  0
 20 28  1  0  0  0  0
 21 22  1  0  0  0  0
 22 32  1  0  0  0  0
 22 33  1  0  0  0  0
M  END
> <PUBCHEM_COMPOUND_CID>
164735

> <PUBCHEM_CONFORMER_RMSD>
1

> <PUBCHEM_CONFORMER_DIVERSEORDER>
1
29
53
30
46
18
14
65
57
68
21
59
48
51
24
34
44
8
6
9
42
4
67
60
69
28
45
61
58
2
52
62
15
10
12
17
32
50
38
40
7
55
27
23
36
33
63
43
25
37
39
26
3
49
13
64
66
31
47
5
11
16
35
54
41
70
22
19
56
20

> <PUBCHEM_MMFF94_PARTIAL_CHARGES>
30
1 1.51
10 -0.77
11 -0.77
12 -0.7
13 -0.77
14 -0.77
15 -0.7
16 0.28
17 0.28
18 0.28
19 0.34
2 1.51
20 0.28
21 0.45
22 0.34
29 0.4
3 -0.68
30 0.4
31 0.4
34 0.4
35 0.5
36 0.5
37 0.5
38 0.5
4 -0.68
5 -0.68
6 -0.68
7 -0.55
8 -0.55
9 -0.57

> <PUBCHEM_EFFECTIVE_ROTOR_COUNT>
10

> <PUBCHEM_PHARMACOPHORE_FEATURES>
17
1 10 acceptor
1 11 acceptor
1 12 acceptor
1 13 acceptor
1 14 acceptor
1 15 acceptor
1 3 acceptor
1 3 donor
1 4 acceptor
1 4 donor
1 5 acceptor
1 5 donor
1 6 acceptor
1 6 donor
1 9 acceptor
4 1 10 11 12 anion
4 2 13 14 15 anion

> <PUBCHEM_HEAVY_ATOM_COUNT>
22

> <PUBCHEM_ATOM_DEF_STEREO_COUNT>
4

> <PUBCHEM_ATOM_UDEF_STEREO_COUNT>
0

> <PUBCHEM_BOND_DEF_STEREO_COUNT>
0

> <PUBCHEM_BOND_UDEF_STEREO_COUNT>
0

> <PUBCHEM_ISOTOPIC_ATOM_COUNT>
0

> <PUBCHEM_COMPONENT_COUNT>
1

> <PUBCHEM_CACTVS_TAUTO_COUNT>
6

> <PUBCHEM_CONFORMER_ID>
0002837F00000001

> <PUBCHEM_MMFF94_ENERGY>
-29.3192

> <PUBCHEM_FEATURE_SELFOVERLAP>
86.366

> <PUBCHEM_SHAPE_FINGERPRINT>
10670039 82 18269265769359036644
10937287 8 18410856577057406067
12107183 9 18270130140169967266
12173636 292 18264775367665376854
12390115 104 18337939121776079925
12633257 1 18270691990062932602
13583140 156 17844234349773692107
13878862 14 17914636066098809013
14251757 17 17459189565013987912
14251764 38 18195806272004278948
14251764 75 18335972151583734401
14466204 15 17836935864191807378
14739800 52 18192171321053985210
14848178 96 18409732888858208777
14957384 54 18126853917746068363
15163728 17 17968078850795023695
17834072 32 18409163346425185741
193927 3 10375877385143238968
20775530 9 9187470774647836665
21315764 268 18128257985620958989
21388113 180 18127983116399499637
21734292 116 18410856589968967345
21864079 5 18411419522631470403
23227448 37 18409167736161239997
23559900 14 17969223506977703990
245318 6 18059274509940700941
2838139 119 18189338974932668116
316301 35 9079124328286026604
3472631 163 18335703909780180959
5104073 3 18131353015905133738
633830 44 18411141367601559670
7288768 16 17917992737290144706
7808743 9 18411419466796512464
8199 26 18411136935173587151
9981440 41 18341054012427323259

> <PUBCHEM_SHAPE_MULTIPOLES>
384.15
11.77
4.42
1.08
0.44
0.68
0.27
13.46
-0.19
-0.4
0.05
0.02
0.09
-0.82

> <PUBCHEM_SHAPE_SELFOVERLAP>
722.243

> <PUBCHEM_SHAPE_VOLUME>
238.5

> <PUBCHEM_COORDINATE_TYPE>
2
5
10

$$$$

