12946
  -OEChem-06261207342D

 25 25  0     1  0  0  0  0  0999 V2000
    2.0000   -0.7694    0.0000 Hg  0  0  0  0  0  0  0  0  0  0  0  0
    3.7320   -1.7694    0.0000 O   0  0  0  0  0  0  0  0  0  0  0  0
    6.3582    1.0094    0.0000 O   0  0  0  0  0  0  0  0  0  0  0  0
    2.8380    1.0094    0.0000 O   0  0  0  0  0  0  0  0  0  0  0  0
    4.5981    0.7306    0.0000 N   0  0  0  0  0  0  0  0  0  0  0  0
    4.5981   -0.2694    0.0000 C   0  0  0  0  0  0  0  0  0  0  0  0
    3.7320   -0.7694    0.0000 C   0  0  3  0  0  0  0  0  0  0  0  0
    5.0981    2.2694    0.0000 C   0  0  0  0  0  0  0  0  0  0  0  0
    4.0981    2.2694    0.0000 C   0  0  0  0  0  0  0  0  0  0  0  0
    5.4071    1.3184    0.0000 C   0  0  0  0  0  0  0  0  0  0  0  0
    3.7891    1.3184    0.0000 C   0  0  0  0  0  0  0  0  0  0  0  0
    2.8660   -0.2694    0.0000 C   0  0  0  0  0  0  0  0  0  0  0  0
    2.8660   -2.2694    0.0000 C   0  0  0  0  0  0  0  0  0  0  0  0
    4.8101   -0.8520    0.0000 H   0  0  0  0  0  0  0  0  0  0  0  0
    5.2087   -0.1618    0.0000 H   0  0  0  0  0  0  0  0  0  0  0  0
    4.2690   -1.0794    0.0000 H   0  0  0  0  0  0  0  0  0  0  0  0
    4.1629    2.8860    0.0000 H   0  0  0  0  0  0  0  0  0  0  0  0
    3.4916    2.3983    0.0000 H   0  0  0  0  0  0  0  0  0  0  0  0
    5.7045    2.3983    0.0000 H   0  0  0  0  0  0  0  0  0  0  0  0
    5.0333    2.8860    0.0000 H   0  0  0  0  0  0  0  0  0  0  0  0
    3.2646    0.2055    0.0000 H   0  0  0  0  0  0  0  0  0  0  0  0
    2.4675    0.2055    0.0000 H   0  0  0  0  0  0  0  0  0  0  0  0
    2.5560   -1.7325    0.0000 H   0  0  0  0  0  0  0  0  0  0  0  0
    2.3291   -2.5794    0.0000 H   0  0  0  0  0  0  0  0  0  0  0  0
    3.1760   -2.8064    0.0000 H   0  0  0  0  0  0  0  0  0  0  0  0
  1 12  1  0  0  0  0
  2  7  1  0  0  0  0
  2 13  1  0  0  0  0
  3 10  2  0  0  0  0
  4 11  2  0  0  0  0
  5  6  1  0  0  0  0
  5 10  1  0  0  0  0
  5 11  1  0  0  0  0
  6  7  1  0  0  0  0
  6 14  1  0  0  0  0
  6 15  1  0  0  0  0
  7 12  1  0  0  0  0
  7 16  1  0  0  0  0
  8  9  1  0  0  0  0
  8 10  1  0  0  0  0
  8 19  1  0  0  0  0
  8 20  1  0  0  0  0
  9 11  1  0  0  0  0
  9 17  1  0  0  0  0
  9 18  1  0  0  0  0
 12 21  1  0  0  0  0
 12 22  1  0  0  0  0
 13 23  1  0  0  0  0
 13 24  1  0  0  0  0
 13 25  1  0  0  0  0
M  END
> <PUBCHEM_COMPOUND_CID>
12946

> <PUBCHEM_COMPOUND_CANONICALIZED>
1

> <PUBCHEM_CACTVS_COMPLEXITY>
203

> <PUBCHEM_CACTVS_HBOND_ACCEPTOR>
3

> <PUBCHEM_CACTVS_HBOND_DONOR>
0

> <PUBCHEM_CACTVS_ROTATABLE_BOND>
4

> <PUBCHEM_CACTVS_SUBSKEYS>
AAADccByMAAAAAAAAAAAAQAAAAAAAWAAAAAAAAAAAAAAAAAAAAAAHgAAAAAACBThgAYCAAMABAAIAAEQEAAAAAAAAAAAAAEIAAACABAAgAAFAAAABiCQAAAFAAAAAAAAAAAAAAAAAAAAAAAAAAAAAAAAAA==

> <PUBCHEM_IUPAC_OPENEYE_NAME>
[3-(2,5-dioxopyrrolidin-1-yl)-2-methoxy-propyl]mercury

> <PUBCHEM_IUPAC_CAS_NAME>
[3-(2,5-dioxo-1-pyrrolidinyl)-2-methoxypropyl]mercury

> <PUBCHEM_IUPAC_NAME>
[3-(2,5-dioxopyrrolidin-1-yl)-2-methoxypropyl]mercury

> <PUBCHEM_IUPAC_SYSTEMATIC_NAME>
[3-[2,5-bis(oxidanylidene)pyrrolidin-1-yl]-2-methoxy-propyl]mercury

> <PUBCHEM_IUPAC_TRADITIONAL_NAME>
(2-methoxy-3-succinimido-propyl)mercury

> <PUBCHEM_IUPAC_INCHI>
InChI=1S/C8H12NO3.Hg/c1-6(12-2)5-9-7(10)3-4-8(9)11;/h6H,1,3-5H2,2H3;

> <PUBCHEM_IUPAC_INCHIKEY>
LHRJTLIDQNEKMW-UHFFFAOYSA-N

> <PUBCHEM_EXACT_MASS>
372.052361

> <PUBCHEM_MOLECULAR_FORMULA>
C8H12HgNO3

> <PUBCHEM_MOLECULAR_WEIGHT>
370.77578

> <PUBCHEM_OPENEYE_CAN_SMILES>
COC(CN1C(=O)CCC1=O)C[Hg]

> <PUBCHEM_OPENEYE_ISO_SMILES>
COC(CN1C(=O)CCC1=O)C[Hg]

> <PUBCHEM_CACTVS_TPSA>
46.6

> <PUBCHEM_MONOISOTOPIC_WEIGHT>
372.052361

> <PUBCHEM_TOTAL_CHARGE>
0

> <PUBCHEM_HEAVY_ATOM_COUNT>
13

> <PUBCHEM_ATOM_DEF_STEREO_COUNT>
0

> <PUBCHEM_ATOM_UDEF_STEREO_COUNT>
1

> <PUBCHEM_BOND_DEF_STEREO_COUNT>
0

> <PUBCHEM_BOND_UDEF_STEREO_COUNT>
0

> <PUBCHEM_ISOTOPIC_ATOM_COUNT>
0

> <PUBCHEM_COMPONENT_COUNT>
1

> <PUBCHEM_CACTVS_TAUTO_COUNT>
3

> <PUBCHEM_COORDINATE_TYPE>
1
5
255

> <PUBCHEM_BONDANNOTATIONS>
7  12  3

$$$$

