443827
  -OEChem-07051213033D

 48 51  0     1  0  0  0  0  0999 V2000
   -3.4994    0.4487   -2.2356 O   0  0  0  0  0  0  0  0  0  0  0  0
   -3.2599   -0.7506    1.8414 O   0  0  0  0  0  0  0  0  0  0  0  0
   -2.1661    3.0428    0.4919 O   0  0  0  0  0  0  0  0  0  0  0  0
    0.2900    2.7773    0.4221 O   0  0  0  0  0  0  0  0  0  0  0  0
   -3.4186   -2.8677    0.9308 O   0  0  0  0  0  0  0  0  0  0  0  0
    1.9852   -2.8446   -0.6852 O   0  0  0  0  0  0  0  0  0  0  0  0
    2.7416    2.3303    0.4085 O   0  0  0  0  0  0  0  0  0  0  0  0
    5.2884    2.0434    0.4274 O   0  0  0  0  0  0  0  0  0  0  0  0
   -3.8199    0.0800   -0.8837 C   0  0  1  0  0  0  0  0  0  0  0  0
   -2.7982   -0.9852   -0.4436 C   0  0  1  0  0  0  0  0  0  0  0  0
   -3.7560    1.3313   -0.0052 C   0  0  0  0  0  0  0  0  0  0  0  0
   -1.4104   -0.4030   -0.2927 C   0  0  0  0  0  0  0  0  0  0  0  0
   -5.2510   -0.4741   -0.9176 C   0  0  0  0  0  0  0  0  0  0  0  0
   -1.2017    0.9504    0.0018 C   0  0  0  0  0  0  0  0  0  0  0  0
   -2.3530    1.8716    0.1706 C   0  0  0  0  0  0  0  0  0  0  0  0
   -0.2949   -1.2472   -0.4285 C   0  0  0  0  0  0  0  0  0  0  0  0
   -3.1945   -1.6686    0.8354 C   0  0  0  0  0  0  0  0  0  0  0  0
    0.0992    1.4532    0.1461 C   0  0  0  0  0  0  0  0  0  0  0  0
    1.0050   -0.7471   -0.2846 C   0  0  0  0  0  0  0  0  0  0  0  0
    1.2014    0.6025    0.0015 C   0  0  0  0  0  0  0  0  0  0  0  0
   -6.2120    0.5350   -1.5079 C   0  0  0  0  0  0  0  0  0  0  0  0
    2.1584   -1.6578   -0.4368 C   0  0  0  0  0  0  0  0  0  0  0  0
    2.5675    1.1444    0.1563 C   0  0  0  0  0  0  0  0  0  0  0  0
    3.5241   -1.1170   -0.2832 C   0  0  0  0  0  0  0  0  0  0  0  0
    3.7215    0.2352    0.0034 C   0  0  0  0  0  0  0  0  0  0  0  0
    5.0210    0.7359    0.1474 C   0  0  0  0  0  0  0  0  0  0  0  0
    4.6260   -1.9687   -0.4260 C   0  0  0  0  0  0  0  0  0  0  0  0
   -3.6294   -1.2685    3.1234 C   0  0  0  0  0  0  0  0  0  0  0  0
    6.1163   -0.1163    0.0043 C   0  0  0  0  0  0  0  0  0  0  0  0
    5.9193   -1.4657   -0.2817 C   0  0  0  0  0  0  0  0  0  0  0  0
   -2.7510   -1.7565   -1.2259 H   0  0  0  0  0  0  0  0  0  0  0  0
   -4.2100    1.1980    0.9802 H   0  0  0  0  0  0  0  0  0  0  0  0
   -4.2967    2.1462   -0.5045 H   0  0  0  0  0  0  0  0  0  0  0  0
   -5.5975   -0.7560    0.0830 H   0  0  0  0  0  0  0  0  0  0  0  0
   -5.2837   -1.3771   -1.5404 H   0  0  0  0  0  0  0  0  0  0  0  0
   -0.4564   -2.3005   -0.6488 H   0  0  0  0  0  0  0  0  0  0  0  0
   -3.5605   -0.3480   -2.7899 H   0  0  0  0  0  0  0  0  0  0  0  0
   -6.3436    1.4081   -0.8625 H   0  0  0  0  0  0  0  0  0  0  0  0
   -5.9109    0.8757   -2.5030 H   0  0  0  0  0  0  0  0  0  0  0  0
   -7.2010    0.0747   -1.6141 H   0  0  0  0  0  0  0  0  0  0  0  0
    1.1798    3.0579    0.1600 H   0  0  0  0  0  0  0  0  0  0  0  0
    4.4989   -3.0247   -0.6490 H   0  0  0  0  0  0  0  0  0  0  0  0
   -3.6438   -0.4376    3.8337 H   0  0  0  0  0  0  0  0  0  0  0  0
   -2.8946   -2.0059    3.4598 H   0  0  0  0  0  0  0  0  0  0  0  0
   -4.6294   -1.7102    3.0787 H   0  0  0  0  0  0  0  0  0  0  0  0
    7.1321    0.2551    0.1128 H   0  0  0  0  0  0  0  0  0  0  0  0
    6.7736   -2.1273   -0.3926 H   0  0  0  0  0  0  0  0  0  0  0  0
    6.2501    2.1757    0.4847 H   0  0  0  0  0  0  0  0  0  0  0  0
  1  9  1  0  0  0  0
  1 37  1  0  0  0  0
  2 17  1  0  0  0  0
  2 28  1  0  0  0  0
  3 15  2  0  0  0  0
  4 18  1  0  0  0  0
  4 41  1  0  0  0  0
  5 17  2  0  0  0  0
  6 22  2  0  0  0  0
  7 23  2  0  0  0  0
  8 26  1  0  0  0  0
  8 48  1  0  0  0  0
  9 10  1  0  0  0  0
  9 11  1  0  0  0  0
  9 13  1  0  0  0  0
 10 12  1  0  0  0  0
 10 17  1  0  0  0  0
 10 31  1  0  0  0  0
 11 15  1  0  0  0  0
 11 32  1  0  0  0  0
 11 33  1  0  0  0  0
 12 14  1  0  0  0  0
 12 16  2  0  0  0  0
 13 21  1  0  0  0  0
 13 34  1  0  0  0  0
 13 35  1  0  0  0  0
 14 15  1  0  0  0  0
 14 18  2  0  0  0  0
 16 19  1  0  0  0  0
 16 36  1  0  0  0  0
 18 20  1  0  0  0  0
 19 20  2  0  0  0  0
 19 22  1  0  0  0  0
 20 23  1  0  0  0  0
 21 38  1  0  0  0  0
 21 39  1  0  0  0  0
 21 40  1  0  0  0  0
 22 24  1  0  0  0  0
 23 25  1  0  0  0  0
 24 25  2  0  0  0  0
 24 27  1  0  0  0  0
 25 26  1  0  0  0  0
 26 29  2  0  0  0  0
 27 30  2  0  0  0  0
 27 42  1  0  0  0  0
 28 43  1  0  0  0  0
 28 44  1  0  0  0  0
 28 45  1  0  0  0  0
 29 30  1  0  0  0  0
 29 46  1  0  0  0  0
 30 47  1  0  0  0  0
M  END
> <PUBCHEM_COMPOUND_CID>
443827

> <PUBCHEM_CONFORMER_RMSD>
0.8

> <PUBCHEM_CONFORMER_DIVERSEORDER>
1
2

> <PUBCHEM_MMFF94_PARTIAL_CHARGES>
35
1 -0.68
10 0.2
11 0.06
12 -0.14
14 0.09
15 0.42
16 -0.15
17 0.66
18 0.08
19 0.09
2 -0.43
20 0.09
22 0.4
23 0.4
24 0.09
25 0.09
26 0.08
27 -0.15
28 0.28
29 -0.15
3 -0.57
30 -0.15
36 0.15
37 0.4
4 -0.53
41 0.45
42 0.15
46 0.15
47 0.15
48 0.45
5 -0.57
6 -0.57
7 -0.57
8 -0.53
9 0.28

> <PUBCHEM_EFFECTIVE_ROTOR_COUNT>
3.6

> <PUBCHEM_PHARMACOPHORE_FEATURES>
13
1 1 acceptor
1 1 donor
1 21 hydrophobe
1 3 acceptor
1 4 donor
1 5 acceptor
1 6 acceptor
1 7 acceptor
1 8 donor
6 12 14 16 18 19 20 rings
6 19 20 22 23 24 25 rings
6 24 25 26 27 29 30 rings
6 9 10 11 12 14 15 rings

> <PUBCHEM_HEAVY_ATOM_COUNT>
30

> <PUBCHEM_ATOM_DEF_STEREO_COUNT>
2

> <PUBCHEM_ATOM_UDEF_STEREO_COUNT>
0

> <PUBCHEM_BOND_DEF_STEREO_COUNT>
0

> <PUBCHEM_BOND_UDEF_STEREO_COUNT>
0

> <PUBCHEM_ISOTOPIC_ATOM_COUNT>
0

> <PUBCHEM_COMPONENT_COUNT>
1

> <PUBCHEM_CACTVS_TAUTO_COUNT>
191

> <PUBCHEM_CONFORMER_ID>
0006C5B300000001

> <PUBCHEM_MMFF94_ENERGY>
96.2764

> <PUBCHEM_FEATURE_SELFOVERLAP>
66.029

> <PUBCHEM_SHAPE_FINGERPRINT>
10 15 18335717005694798296
10366900 7 18261118477800256955
10675989 125 17116922968039504116
10835480 77 18341058419211494052
10906281 52 18262225716617614757
11135609 12 17987782039146010329
11315181 36 18343300370632819356
11796584 16 17275106141600108466
12166972 35 17458352913773947897
12236239 1 17240767276450997399
12516196 113 18040723558209056752
12788726 201 18266470969577746369
13140716 1 18192137411738608464
13224815 77 18409725175318289754
13402501 40 18412548716825442239
13544653 18 18408881828298439564
13583140 156 17775570831623343698
14068700 675 15936991647395768437
14294032 229 15286177594196663299
14341114 176 18413384328530044854
14840074 17 17894351055417828596
15196674 1 18334577984024607756
15788980 27 18130786746242405926
17349148 13 18339650026340972556
17844677 252 18335977632283010036
18927931 339 18337099146558862222
200 152 17894919541626278909
20028762 73 17967822677967072046
20721686 56 18409169905161967784
21033648 29 18200322021793053280
21033650 10 14635967017212141802
21236236 1 18260550077823915797
21267235 1 18333730238530796830
21424621 283 17487906820652307629
21682296 61 17896311592747600174
221490 88 18410288095528654440
23559900 14 18339370673215632833
3004659 81 18342744039899279836
335352 9 18408044013280707173
3380486 145 18268699516744368043
350125 39 18333734645178174972
392239 28 18411412887329193122
4015057 19 18337680724276387681
4073 2 18202843236758556226
460360 51 18190720107323189772
497634 4 16660364796552780367
5104073 3 18336264630735331232
5283173 99 18200040675660574301
9709674 26 18191018100617877822

> <PUBCHEM_SHAPE_MULTIPOLES>
570.43
13.24
2.75
1.42
6.83
0.43
0.83
-1.62
-1.94
0.38
0.58
-2.81
-0.58
1.72

> <PUBCHEM_SHAPE_SELFOVERLAP>
1283.605

> <PUBCHEM_SHAPE_VOLUME>
295.7

> <PUBCHEM_COORDINATE_TYPE>
2
5
10

$$$$

