5064
  -OEChem-06261200303D

 29 30  0     1  0  0  0  0  0999 V2000
    1.3304   -0.6562    0.8012 O   0  0  0  0  0  0  0  0  0  0  0  0
    1.6867    2.7577   -0.2151 O   0  0  0  0  0  0  0  0  0  0  0  0
    3.4166    0.7150   -1.7762 O   0  0  0  0  0  0  0  0  0  0  0  0
    3.0112   -2.9135    0.7473 O   0  0  0  0  0  0  0  0  0  0  0  0
   -3.3384   -1.8728   -1.1584 O   0  0  0  0  0  0  0  0  0  0  0  0
   -0.6420    0.6348    0.5899 N   0  0  0  0  0  0  0  0  0  0  0  0
   -1.2369   -0.3633   -0.0798 N   0  0  0  0  0  0  0  0  0  0  0  0
   -2.7649    1.1234    0.7496 N   0  0  0  0  0  0  0  0  0  0  0  0
   -4.8951   -0.3929   -0.3552 N   0  0  0  0  0  0  0  0  0  0  0  0
    2.8332    0.6345   -0.4896 C   0  0  1  0  0  0  0  0  0  0  0  0
    1.5112    1.3707   -0.4456 C   0  0  1  0  0  0  0  0  0  0  0  0
    2.4037   -0.7833   -0.1474 C   0  0  1  0  0  0  0  0  0  0  0  0
    0.8125    0.6861    0.7237 C   0  0  2  0  0  0  0  0  0  0  0  0
    3.5167   -1.6207    0.4567 C   0  0  0  0  0  0  0  0  0  0  0  0
   -1.5559    1.5142    1.0796 C   0  0  0  0  0  0  0  0  0  0  0  0
   -2.5209   -0.0212    0.0458 C   0  0  0  0  0  0  0  0  0  0  0  0
   -3.5679   -0.8126   -0.5263 C   0  0  0  0  0  0  0  0  0  0  0  0
    0.9625    1.2531   -1.3883 H   0  0  0  0  0  0  0  0  0  0  0  0
    3.5385    1.0485    0.2401 H   0  0  0  0  0  0  0  0  0  0  0  0
    1.9952   -1.3032   -1.0234 H   0  0  0  0  0  0  0  0  0  0  0  0
    1.0227    1.1840    1.6780 H   0  0  0  0  0  0  0  0  0  0  0  0
    3.8690   -1.1835    1.3968 H   0  0  0  0  0  0  0  0  0  0  0  0
    4.3578   -1.7173   -0.2366 H   0  0  0  0  0  0  0  0  0  0  0  0
    0.8034    3.1508   -0.1118 H   0  0  0  0  0  0  0  0  0  0  0  0
    2.7934    0.3380   -2.4202 H   0  0  0  0  0  0  0  0  0  0  0  0
   -1.2958    2.3946    1.6500 H   0  0  0  0  0  0  0  0  0  0  0  0
    3.7420   -3.4268    1.1320 H   0  0  0  0  0  0  0  0  0  0  0  0
   -5.1296    0.4530    0.1546 H   0  0  0  0  0  0  0  0  0  0  0  0
   -5.6654   -0.9295   -0.7398 H   0  0  0  0  0  0  0  0  0  0  0  0
  1 12  1  0  0  0  0
  1 13  1  0  0  0  0
  2 11  1  0  0  0  0
  2 24  1  0  0  0  0
  3 10  1  0  0  0  0
  3 25  1  0  0  0  0
  4 14  1  0  0  0  0
  4 27  1  0  0  0  0
  5 17  2  0  0  0  0
  6  7  1  0  0  0  0
  6 13  1  0  0  0  0
  6 15  1  0  0  0  0
  7 16  2  0  0  0  0
  8 15  2  0  0  0  0
  8 16  1  0  0  0  0
  9 17  1  0  0  0  0
  9 28  1  0  0  0  0
  9 29  1  0  0  0  0
 10 11  1  0  0  0  0
 10 12  1  0  0  0  0
 10 19  1  0  0  0  0
 11 13  1  0  0  0  0
 11 18  1  0  0  0  0
 12 14  1  0  0  0  0
 12 20  1  0  0  0  0
 13 21  1  0  0  0  0
 14 22  1  0  0  0  0
 14 23  1  0  0  0  0
 15 26  1  0  0  0  0
 16 17  1  0  0  0  0
M  END
> <PUBCHEM_COMPOUND_CID>
5064

> <PUBCHEM_CONFORMER_RMSD>
0.6

> <PUBCHEM_CONFORMER_DIVERSEORDER>
3
334
1
329
382
274
385
187
96
252
426
211
105
167
196
245
454
379
82
134
461
253
361
367
343
181
173
373
399
360
190
87
386
60
258
442
41
122
410
266
185
423
163
441
375
207
183
50
61
450
24
416
407
68
106
308
47
263
27
301
350
147
39
52
216
200
440
273
340
170
100
406
248
307
332
159
402
205
169
443
280
228
45
117
453
469
4
168
388
433
353
446
44
255
135
97
305
256
279
201
322
415
40
412
312
298
73
62
429
264
341
25
165
132
276
203
246
93
380
177
267
278
357
311
22
465
381
36
389
131
80
421
313
413
394
363
463
284
6
208
212
140
460
66
226
48
12
54
89
427
78
18
202
403
366
424
387
180
368
139
114
436
320
74
362
164
338
98
143
94
377
299
126
354
225
342
464
152
287
75
317
383
113
390
33
456
224
31
150
326
345
79
206
339
193
182
333
121
230
160
349
271
462
42
467
222
71
146
229
250
76
304
92
455
272
162
419
209
115
459
277
452
88
20
244
215
323
374
310
439
281
30
91
392
111
336
300
130
123
127
55
257
133
67
414
346
186
99
365
217
292
157
231
35
17
282
309
38
56
58
370
291
70
448
166
51
221
195
337
364
330
397
15
241
109
265
29
174
451
108
434
199
65
63
297
104
268
251
444
270
405
32
400
290
95
315
158
72
249
85
240
347
192
316
437
327
153
286
155
431
213
149
430
438
16
393
234
11
175
391
275
156
325
348
101
447
77
5
34
378
28
468
260
118
197
107
420
83
136
120
37
259
14
395
10
303
176
376
235
352
458
7
236
172
283
102
64
161
128
194
227
408
409
19
358
293
404
220
344
112
396
204
81
324
269
116
369
243
219
69
148
425
26
435
239
23
9
90
119
144
428
289
154
84
285
2
21
359
184
318
59
57
351
125
294
218
233
129
302
449
288
124
445
8
103
261
43
328
242
142
398
232
466
296
179
401
191
321
457
198
254
306
432
214
13
295
319
171
141
372
262
46
49
356
237
417
331
53
210
355
422
384
110
151
314
411
178
189
86
335
138
223
188
238
137
247
145
371
418

> <PUBCHEM_MMFF94_PARTIAL_CHARGES>
23
1 -0.56
10 0.28
11 0.28
12 0.28
13 0.54
14 0.28
15 0.04
16 0.43
17 0.72
2 -0.68
24 0.4
25 0.4
26 0.15
27 0.4
28 0.37
29 0.37
3 -0.68
4 -0.68
5 -0.57
6 0.31
7 -0.71
8 -0.57
9 -0.8

> <PUBCHEM_EFFECTIVE_ROTOR_COUNT>
4

> <PUBCHEM_PHARMACOPHORE_FEATURES>
13
1 1 acceptor
1 2 acceptor
1 2 donor
1 3 acceptor
1 3 donor
1 4 acceptor
1 4 donor
1 5 acceptor
1 9 donor
3 6 8 15 cation
3 7 8 16 cation
5 1 10 11 12 13 rings
5 6 7 8 15 16 rings

> <PUBCHEM_HEAVY_ATOM_COUNT>
17

> <PUBCHEM_ATOM_DEF_STEREO_COUNT>
0

> <PUBCHEM_ATOM_UDEF_STEREO_COUNT>
4

> <PUBCHEM_BOND_DEF_STEREO_COUNT>
0

> <PUBCHEM_BOND_UDEF_STEREO_COUNT>
0

> <PUBCHEM_ISOTOPIC_ATOM_COUNT>
0

> <PUBCHEM_COMPONENT_COUNT>
1

> <PUBCHEM_CACTVS_TAUTO_COUNT>
2

> <PUBCHEM_CONFORMER_ID>
000013C800000003

> <PUBCHEM_MMFF94_ENERGY>
31.3901

> <PUBCHEM_FEATURE_SELFOVERLAP>
68.72

> <PUBCHEM_SHAPE_FINGERPRINT>
10062212 137 18262242230619330563
11578080 2 18192457322610740728
11769659 78 18335144219058148947
11806522 49 18408892828126299290
12553582 1 18040431066947264983
12616999 72 18060135388763325438
13083527 12 18129397037176305530
13296908 3 15502371261649456640
14576447 43 18410011014045187270
15342816 4 17969227729003662407
15477762 27 18413110558729996530
16752209 62 18041005081052679081
16945 1 18270105830248779192
18186145 218 17132124537111262617
19422 9 18338793515362320155
20281475 54 18262242119224402979
20559304 39 18408044013523254370
20645477 70 18060700602138385003
20671657 53 18412548738242321197
21634736 98 18263081028704312070
22112679 90 18192700362077470048
2255824 54 18339075982793182092
22646028 28 18335986449281403379
232386 152 17895483612698215018
23402655 69 18341893000192361749
23463225 33 18265050408759413586
23532345 88 18059289971969963982
23557571 272 17167860885079857320
23559900 14 18187939360485365256
23598291 2 18266729354298258568
2748010 2 17622988120071728616
5281201 14 17418097637123478567
603831 33 18408318865475745796
633830 44 17131832105583594857
6992083 37 18047460407528346369
7364860 26 18335144146371084032
8030462 33 18411409592513977920
81228 2 15503763320716582729

> <PUBCHEM_SHAPE_MULTIPOLES>
300.58
7.56
2.28
1.08
4.84
0.35
-0.19
3.45
-1.66
-1.62
0.19
-0.33
-0.05
-1.72

> <PUBCHEM_SHAPE_SELFOVERLAP>
631.629

> <PUBCHEM_SHAPE_VOLUME>
170.6

> <PUBCHEM_COORDINATE_TYPE>
2
5
10

$$$$

