43507
  -OEChem-07051212522D

 56 59  0     1  0  0  0  0  0999 V2000
    8.3342   -0.3657    0.0000 S   0  0  0  0  0  0  0  0  0  0  0  0
    5.7361    1.1343    0.0000 S   0  0  0  0  0  0  0  0  0  0  0  0
   10.9141    1.8470    0.0000 O   0  0  0  0  0  0  0  0  0  0  0  0
    7.4682    3.1343    0.0000 O   0  0  0  0  0  0  0  0  0  0  0  0
   12.1414    0.6438    0.0000 O   0  0  0  0  0  0  0  0  0  0  0  0
    9.2002    3.1343    0.0000 O   0  0  0  0  0  0  0  0  0  0  0  0
    2.5896   -1.0377    0.0000 O   0  0  0  0  0  0  0  0  0  0  0  0
    2.0544    0.6096    0.0000 O   0  0  0  0  0  0  0  0  0  0  0  0
    9.2002    1.1343    0.0000 N   0  0  0  0  0  0  0  0  0  0  0  0
   10.9141   -0.5784    0.0000 N   0  0  0  0  0  0  0  0  0  0  0  0
    3.9565    1.2276    0.0000 N   0  0  0  0  0  0  0  0  0  0  0  0
    4.7656    2.6288    0.0000 N   0  0  0  0  0  0  0  0  0  0  0  0
   14.7032   -3.1558    0.0000 N   0  0  0  0  0  0  0  0  0  0  0  0
    3.2874    1.9707    0.0000 N   0  0  0  0  0  0  0  0  0  0  0  0
    3.7874    2.8368    0.0000 N   0  0  0  0  0  0  0  0  0  0  0  0
    9.2002    0.1343    0.0000 C   0  0  1  0  0  0  0  0  0  0  0  0
   10.2085    0.1302    0.0000 C   0  0  1  0  0  0  0  0  0  0  0  0
   10.2085    1.1385    0.0000 C   0  0  0  0  0  0  0  0  0  0  0  0
    8.3342    1.6343    0.0000 C   0  0  0  0  0  0  0  0  0  0  0  0
    7.4682    1.1343    0.0000 C   0  0  0  0  0  0  0  0  0  0  0  0
    7.4682    0.1343    0.0000 C   0  0  0  0  0  0  0  0  0  0  0  0
    6.6021    1.6343    0.0000 C   0  0  0  0  0  0  0  0  0  0  0  0
   11.8806   -0.3215    0.0000 C   0  0  0  0  0  0  0  0  0  0  0  0
    8.3342    2.6343    0.0000 C   0  0  0  0  0  0  0  0  0  0  0  0
   12.5862   -1.0301    0.0000 C   0  0  0  0  0  0  0  0  0  0  0  0
   13.5527   -0.7733    0.0000 C   0  0  0  0  0  0  0  0  0  0  0  0
   14.2584   -1.4818    0.0000 C   0  0  0  0  0  0  0  0  0  0  0  0
   13.8135    0.1921    0.0000 C   0  0  0  0  0  0  0  0  0  0  0  0
    4.8701    1.6343    0.0000 C   0  0  0  0  0  0  0  0  0  0  0  0
   13.9976   -2.4472    0.0000 C   0  0  0  0  0  0  0  0  0  0  0  0
   15.2248   -1.2250    0.0000 C   0  0  0  0  0  0  0  0  0  0  0  0
   14.7800    0.4490    0.0000 C   0  0  0  0  0  0  0  0  0  0  0  0
   15.4856   -0.2596    0.0000 C   0  0  0  0  0  0  0  0  0  0  0  0
    3.7486    0.2494    0.0000 C   0  0  0  0  0  0  0  0  0  0  0  0
    2.7976   -0.0596    0.0000 C   0  0  0  0  0  0  0  0  0  0  0  0
    9.4185   -0.6872    0.0000 H   0  0  0  0  0  0  0  0  0  0  0  0
    9.9695   -0.4419    0.0000 H   0  0  0  0  0  0  0  0  0  0  0  0
    6.8576    0.2420    0.0000 H   0  0  0  0  0  0  0  0  0  0  0  0
    7.2561   -0.4483    0.0000 H   0  0  0  0  0  0  0  0  0  0  0  0
   10.7524   -1.1769    0.0000 H   0  0  0  0  0  0  0  0  0  0  0  0
    7.0007    2.1093    0.0000 H   0  0  0  0  0  0  0  0  0  0  0  0
    6.2036    2.1093    0.0000 H   0  0  0  0  0  0  0  0  0  0  0  0
   12.0776   -1.3847    0.0000 H   0  0  0  0  0  0  0  0  0  0  0  0
   12.8471   -1.5926    0.0000 H   0  0  0  0  0  0  0  0  0  0  0  0
    7.4682    3.7543    0.0000 H   0  0  0  0  0  0  0  0  0  0  0  0
   13.3760    0.6314    0.0000 H   0  0  0  0  0  0  0  0  0  0  0  0
   13.4362   -2.1840    0.0000 H   0  0  0  0  0  0  0  0  0  0  0  0
   13.6409   -2.9544    0.0000 H   0  0  0  0  0  0  0  0  0  0  0  0
   15.6623   -1.6643    0.0000 H   0  0  0  0  0  0  0  0  0  0  0  0
   14.9417    1.0475    0.0000 H   0  0  0  0  0  0  0  0  0  0  0  0
   16.0848   -0.1004    0.0000 H   0  0  0  0  0  0  0  0  0  0  0  0
    3.8349   -0.3645    0.0000 H   0  0  0  0  0  0  0  0  0  0  0  0
    4.3682    0.2278    0.0000 H   0  0  0  0  0  0  0  0  0  0  0  0
   14.5415   -3.7543    0.0000 H   0  0  0  0  0  0  0  0  0  0  0  0
   15.3024   -2.9965    0.0000 H   0  0  0  0  0  0  0  0  0  0  0  0
    2.0000   -1.2293    0.0000 H   0  0  0  0  0  0  0  0  0  0  0  0
  1 16  1  0  0  0  0
  1 21  1  0  0  0  0
  2 22  1  0  0  0  0
  2 29  1  0  0  0  0
  3 18  2  0  0  0  0
  4 24  1  0  0  0  0
  4 45  1  0  0  0  0
  5 23  2  0  0  0  0
  6 24  2  0  0  0  0
  7 35  1  0  0  0  0
  7 56  1  0  0  0  0
  8 35  2  0  0  0  0
  9 16  1  0  0  0  0
  9 18  1  0  0  0  0
  9 19  1  0  0  0  0
 17 10  1  1  0  0  0
 10 23  1  0  0  0  0
 10 40  1  0  0  0  0
 11 14  1  0  0  0  0
 11 29  1  0  0  0  0
 11 34  1  0  0  0  0
 12 15  1  0  0  0  0
 12 29  2  0  0  0  0
 13 30  1  0  0  0  0
 13 54  1  0  0  0  0
 13 55  1  0  0  0  0
 14 15  2  0  0  0  0
 16 17  1  0  0  0  0
 16 36  1  6  0  0  0
 17 18  1  0  0  0  0
 17 37  1  0  0  0  0
 19 20  2  0  0  0  0
 19 24  1  0  0  0  0
 20 21  1  0  0  0  0
 20 22  1  0  0  0  0
 21 38  1  0  0  0  0
 21 39  1  0  0  0  0
 22 41  1  0  0  0  0
 22 42  1  0  0  0  0
 23 25  1  0  0  0  0
 25 26  1  0  0  0  0
 25 43  1  0  0  0  0
 25 44  1  0  0  0  0
 26 27  1  0  0  0  0
 26 28  2  0  0  0  0
 27 30  1  0  0  0  0
 27 31  2  0  0  0  0
 28 32  1  0  0  0  0
 28 46  1  0  0  0  0
 30 47  1  0  0  0  0
 30 48  1  0  0  0  0
 31 33  1  0  0  0  0
 31 49  1  0  0  0  0
 32 33  2  0  0  0  0
 32 50  1  0  0  0  0
 33 51  1  0  0  0  0
 34 35  1  0  0  0  0
 34 52  1  0  0  0  0
 34 53  1  0  0  0  0
M  END
> <PUBCHEM_COMPOUND_CID>
43507

> <PUBCHEM_COMPOUND_CANONICALIZED>
1

> <PUBCHEM_CACTVS_COMPLEXITY>
905

> <PUBCHEM_CACTVS_HBOND_ACCEPTOR>
12

> <PUBCHEM_CACTVS_HBOND_DONOR>
4

> <PUBCHEM_CACTVS_ROTATABLE_BOND>
10

> <PUBCHEM_CACTVS_SUBSKEYS>
AAADceB7uABgAAAAAAAAAAAAAABYAWAAAAAwQAAAAAAQAAABwAAAHgQYCAAADCjF2ASxGIfIAgiqAiXSfACCEANggJAdyIGIBMiKZDqgnTGUMABglgK4mQcYiYCOgAAAAAAQAAAAAAAAACAAAAAAAAAAAA==

> <PUBCHEM_IUPAC_OPENEYE_NAME>
(6R,7R)-7-[[2-[2-(aminomethyl)phenyl]acetyl]amino]-3-[[1-(carboxymethyl)tetrazol-5-yl]sulfanylmethyl]-8-oxo-5-thia-1-azabicyclo[4.2.0]oct-2-ene-2-carboxylic acid

> <PUBCHEM_IUPAC_CAS_NAME>
(6R,7R)-7-[[2-[2-(aminomethyl)phenyl]-1-oxoethyl]amino]-3-[[[1-(carboxymethyl)-5-tetrazolyl]thio]methyl]-8-oxo-5-thia-1-azabicyclo[4.2.0]oct-2-ene-2-carboxylic acid

> <PUBCHEM_IUPAC_NAME>
(6R,7R)-7-[[2-[2-(aminomethyl)phenyl]acetyl]amino]-3-[[1-(carboxymethyl)tetrazol-5-yl]sulfanylmethyl]-8-oxo-5-thia-1-azabicyclo[4.2.0]oct-2-ene-2-carboxylic acid

> <PUBCHEM_IUPAC_SYSTEMATIC_NAME>
(6R,7R)-7-[2-[2-(aminomethyl)phenyl]ethanoylamino]-3-[[1-(2-hydroxy-2-oxoethyl)-1,2,3,4-tetrazol-5-yl]sulfanylmethyl]-8-oxidanylidene-5-thia-1-azabicyclo[4.2.0]oct-2-ene-2-carboxylic acid

> <PUBCHEM_IUPAC_TRADITIONAL_NAME>
(6R,7R)-7-[[2-[2-(aminomethyl)phenyl]acetyl]amino]-3-[[[1-(carboxymethyl)tetrazol-5-yl]thio]methyl]-8-keto-5-thia-1-azabicyclo[4.2.0]oct-2-ene-2-carboxylic acid

> <PUBCHEM_IUPAC_INCHI>
InChI=1S/C20H21N7O6S2/c21-6-11-4-2-1-3-10(11)5-13(28)22-15-17(31)27-16(19(32)33)12(8-34-18(15)27)9-35-20-23-24-25-26(20)7-14(29)30/h1-4,15,18H,5-9,21H2,(H,22,28)(H,29,30)(H,32,33)/t15-,18-/m1/s1

> <PUBCHEM_IUPAC_INCHIKEY>
SLAYUXIURFNXPG-CRAIPNDOSA-N

> <PUBCHEM_XLOGP3>
-3.2

> <PUBCHEM_EXACT_MASS>
519.099473

> <PUBCHEM_MOLECULAR_FORMULA>
C20H21N7O6S2

> <PUBCHEM_MOLECULAR_WEIGHT>
519.55404

> <PUBCHEM_OPENEYE_CAN_SMILES>
C1C(=C(N2C(S1)C(C2=O)NC(=O)CC3=CC=CC=C3CN)C(=O)O)CSC4=NN=NN4CC(=O)O

> <PUBCHEM_OPENEYE_ISO_SMILES>
C1C(=C(N2[C@H](S1)[C@@H](C2=O)NC(=O)CC3=CC=CC=C3CN)C(=O)O)CSC4=NN=NN4CC(=O)O

> <PUBCHEM_CACTVS_TPSA>
244

> <PUBCHEM_MONOISOTOPIC_WEIGHT>
519.099473

> <PUBCHEM_TOTAL_CHARGE>
0

> <PUBCHEM_HEAVY_ATOM_COUNT>
35

> <PUBCHEM_ATOM_DEF_STEREO_COUNT>
2

> <PUBCHEM_ATOM_UDEF_STEREO_COUNT>
0

> <PUBCHEM_BOND_DEF_STEREO_COUNT>
0

> <PUBCHEM_BOND_UDEF_STEREO_COUNT>
0

> <PUBCHEM_ISOTOPIC_ATOM_COUNT>
0

> <PUBCHEM_COMPONENT_COUNT>
1

> <PUBCHEM_CACTVS_TAUTO_COUNT>
4

> <PUBCHEM_COORDINATE_TYPE>
1
5
255

> <PUBCHEM_BONDANNOTATIONS>
17  10  5
11  14  8
11  29  8
12  15  8
12  29  8
14  15  8
16  36  6
26  27  8
26  28  8
27  31  8
28  32  8
31  33  8
32  33  8

$$$$

