440118
  -OEChem-07051212482D

 33 33  0     1  0  0  0  0  0999 V2000
    5.1350    3.0950    0.0000 S   0  0  0  0  0  0  0  0  0  0  0  0
    5.1350   -2.9050    0.0000 S   0  0  0  0  0  0  0  0  0  0  0  0
    5.1350    0.0950    0.0000 O   0  0  0  0  0  0  0  0  0  0  0  0
    2.5369    1.5950    0.0000 O   0  0  0  0  0  0  0  0  0  0  0  0
    2.5369   -0.4050    0.0000 O   0  0  0  0  0  0  0  0  0  0  0  0
    6.0010    1.5950    0.0000 O   0  0  0  0  0  0  0  0  0  0  0  0
    5.1350   -1.9050    0.0000 O   0  0  0  0  0  0  0  0  0  0  0  0
    6.0010    3.5950    0.0000 O   0  0  0  0  0  0  0  0  0  0  0  0
    4.6350    3.9610    0.0000 O   0  0  0  0  0  0  0  0  0  0  0  0
    5.6350    2.2290    0.0000 O   0  0  0  0  0  0  0  0  0  0  0  0
    5.1350   -3.9050    0.0000 O   0  0  0  0  0  0  0  0  0  0  0  0
    6.1350   -2.9050    0.0000 O   0  0  0  0  0  0  0  0  0  0  0  0
    4.1350   -2.9050    0.0000 O   0  0  0  0  0  0  0  0  0  0  0  0
    4.2690    2.5950    0.0000 N   0  0  0  0  0  0  0  0  0  0  0  0
    4.2690    1.5950    0.0000 C   0  0  2  0  0  0  0  0  0  0  0  0
    3.4030    1.0950    0.0000 C   0  0  2  0  0  0  0  0  0  0  0  0
    3.4030    0.0950    0.0000 C   0  0  1  0  0  0  0  0  0  0  0  0
    4.2690   -0.4050    0.0000 C   0  0  1  0  0  0  0  0  0  0  0  0
    5.1350    1.0950    0.0000 C   0  0  3  0  0  0  0  0  0  0  0  0
    4.2690   -1.4050    0.0000 C   0  0  0  0  0  0  0  0  0  0  0  0
    4.8059    1.9050    0.0000 H   0  0  0  0  0  0  0  0  0  0  0  0
    3.4030    1.7150    0.0000 H   0  0  0  0  0  0  0  0  0  0  0  0
    3.4030   -0.5250    0.0000 H   0  0  0  0  0  0  0  0  0  0  0  0
    4.8059   -0.7150    0.0000 H   0  0  0  0  0  0  0  0  0  0  0  0
    5.1350    1.9450    0.0000 H   0  0  0  0  0  0  0  0  0  0  0  0
    3.6584   -1.2973    0.0000 H   0  0  0  0  0  0  0  0  0  0  0  0
    4.0569   -1.9876    0.0000 H   0  0  0  0  0  0  0  0  0  0  0  0
    3.7320    2.9050    0.0000 H   0  0  0  0  0  0  0  0  0  0  0  0
    2.0000    1.2850    0.0000 H   0  0  0  0  0  0  0  0  0  0  0  0
    2.5369   -1.0250    0.0000 H   0  0  0  0  0  0  0  0  0  0  0  0
    6.5380    1.2850    0.0000 H   0  0  0  0  0  0  0  0  0  0  0  0
    6.0010    4.2150    0.0000 H   0  0  0  0  0  0  0  0  0  0  0  0
    5.6720   -4.2150    0.0000 H   0  0  0  0  0  0  0  0  0  0  0  0
  1  8  1  0  0  0  0
  1  9  2  0  0  0  0
  1 10  2  0  0  0  0
  1 14  1  0  0  0  0
  2  7  1  0  0  0  0
  2 11  1  0  0  0  0
  2 12  2  0  0  0  0
  2 13  2  0  0  0  0
  3 18  1  0  0  0  0
  3 19  1  0  0  0  0
 16  4  1  6  0  0  0
  4 29  1  0  0  0  0
 17  5  1  1  0  0  0
  5 30  1  0  0  0  0
  6 19  1  0  0  0  0
  6 31  1  0  0  0  0
  7 20  1  0  0  0  0
  8 32  1  0  0  0  0
 11 33  1  0  0  0  0
 15 14  1  1  0  0  0
 14 28  1  0  0  0  0
 15 16  1  0  0  0  0
 15 19  1  0  0  0  0
 15 21  1  0  0  0  0
 16 17  1  0  0  0  0
 16 22  1  0  0  0  0
 17 18  1  0  0  0  0
 17 23  1  0  0  0  0
 18 20  1  6  0  0  0
 18 24  1  0  0  0  0
 19 25  1  0  0  0  0
 20 26  1  0  0  0  0
 20 27  1  0  0  0  0
M  END
> <PUBCHEM_COMPOUND_CID>
440118

> <PUBCHEM_COMPOUND_CANONICALIZED>
1

> <PUBCHEM_CACTVS_COMPLEXITY>
518

> <PUBCHEM_CACTVS_HBOND_ACCEPTOR>
12

> <PUBCHEM_CACTVS_HBOND_DONOR>
6

> <PUBCHEM_CACTVS_ROTATABLE_BOND>
5

> <PUBCHEM_CACTVS_SUBSKEYS>
AAADccBiPABgAAAAAAAAAAAAAAAAAAAAAAAkAAAAAAAAAAAAAAAAHgAQSAAACDzxgAcACABABoAAAAAAADAAAAAAAAAAAIAAAAATEAIAgAADQAAHEAAHAAHwcAUAAAAAAAAAAAAAAAAAAAAAAAAAAAAAAA==

> <PUBCHEM_IUPAC_OPENEYE_NAME>
[(3R,4R,5S,6R)-2,4,5-trihydroxy-6-(sulfooxymethyl)tetrahydropyran-3-yl]sulfamic acid

> <PUBCHEM_IUPAC_CAS_NAME>
[(3R,4R,5S,6R)-2,4,5-trihydroxy-6-(sulfooxymethyl)-3-oxanyl]sulfamic acid

> <PUBCHEM_IUPAC_NAME>
[(3R,4R,5S,6R)-2,4,5-trihydroxy-6-(sulfooxymethyl)oxan-3-yl]sulfamic acid

> <PUBCHEM_IUPAC_SYSTEMATIC_NAME>
[(3R,4R,5S,6R)-2,4,5-tris(oxidanyl)-6-(sulfooxymethyl)oxan-3-yl]sulfamic acid

> <PUBCHEM_IUPAC_TRADITIONAL_NAME>
[(3R,4R,5S,6R)-2,4,5-trihydroxy-6-(sulfoxymethyl)tetrahydropyran-3-yl]sulfamic acid

> <PUBCHEM_IUPAC_INCHI>
InChI=1S/C6H13NO11S2/c8-4-2(1-17-20(14,15)16)18-6(10)3(5(4)9)7-19(11,12)13/h2-10H,1H2,(H,11,12,13)(H,14,15,16)/t2-,3-,4-,5-,6?/m1/s1

> <PUBCHEM_IUPAC_INCHIKEY>
DQTRACMFIGDHSN-IVMDWMLBSA-N

> <PUBCHEM_XLOGP3_AA>
-4.2

> <PUBCHEM_EXACT_MASS>
338.993002

> <PUBCHEM_MOLECULAR_FORMULA>
C6H13NO11S2

> <PUBCHEM_MOLECULAR_WEIGHT>
339.29752

> <PUBCHEM_OPENEYE_CAN_SMILES>
C(C1C(C(C(C(O1)O)NS(=O)(=O)O)O)O)OS(=O)(=O)O

> <PUBCHEM_OPENEYE_ISO_SMILES>
C([C@@H]1[C@H]([C@@H]([C@H](C(O1)O)NS(=O)(=O)O)O)O)OS(=O)(=O)O

> <PUBCHEM_CACTVS_TPSA>
217

> <PUBCHEM_MONOISOTOPIC_WEIGHT>
338.993002

> <PUBCHEM_TOTAL_CHARGE>
0

> <PUBCHEM_HEAVY_ATOM_COUNT>
20

> <PUBCHEM_ATOM_DEF_STEREO_COUNT>
4

> <PUBCHEM_ATOM_UDEF_STEREO_COUNT>
1

> <PUBCHEM_BOND_DEF_STEREO_COUNT>
0

> <PUBCHEM_BOND_UDEF_STEREO_COUNT>
0

> <PUBCHEM_ISOTOPIC_ATOM_COUNT>
0

> <PUBCHEM_COMPONENT_COUNT>
1

> <PUBCHEM_CACTVS_TAUTO_COUNT>
1

> <PUBCHEM_COORDINATE_TYPE>
1
5
255

> <PUBCHEM_BONDANNOTATIONS>
15  14  5
18  20  6
19  25  3
16  4  6
17  5  5

$$$$

