10752315
  -OEChem-07051213102D

 41 42  0     1  0  0  0  0  0999 V2000
    2.8660   -2.4050    0.0000 O   0  0  0  0  0  0  0  0  0  0  0  0
    2.0000    2.0950    0.0000 O   0  0  0  0  0  0  0  0  0  0  0  0
    3.7320   -0.9050    0.0000 C   0  0  2  0  0  0  0  0  0  0  0  0
    4.6260   -1.4397    0.0000 C   0  0  0  0  0  0  0  0  0  0  0  0
    5.5321    0.1158    0.0000 C   0  0  2  0  0  0  0  0  0  0  0  0
    3.7320    0.0950    0.0000 C   0  0  0  0  0  0  0  0  0  0  0  0
    2.8660   -1.4050    0.0000 C   0  0  1  0  0  0  0  0  0  0  0  0
    5.5321   -0.9258    0.0000 C   0  0  0  0  0  0  0  0  0  0  0  0
    4.6260    0.6297    0.0000 C   0  0  0  0  0  0  0  0  0  0  0  0
    3.7320   -1.9050    0.0000 C   0  0  0  0  0  0  0  0  0  0  0  0
    6.3961    0.6192    0.0000 C   0  0  0  0  0  0  0  0  0  0  0  0
    2.0000   -0.9050    0.0000 C   0  0  0  0  0  0  0  0  0  0  0  0
    2.8660    0.5950    0.0000 C   0  0  0  0  0  0  0  0  0  0  0  0
    2.0000    0.0950    0.0000 C   0  0  0  0  0  0  0  0  0  0  0  0
    7.2641    0.1225    0.0000 C   0  0  0  0  0  0  0  0  0  0  0  0
    6.3923    1.6191    0.0000 C   0  0  0  0  0  0  0  0  0  0  0  0
    2.8660    1.5950    0.0000 C   0  0  0  0  0  0  0  0  0  0  0  0
    4.2214   -1.9094    0.0000 H   0  0  0  0  0  0  0  0  0  0  0  0
    5.0196   -1.9187    0.0000 H   0  0  0  0  0  0  0  0  0  0  0  0
    6.0696   -0.1931    0.0000 H   0  0  0  0  0  0  0  0  0  0  0  0
    3.4030   -1.7150    0.0000 H   0  0  0  0  0  0  0  0  0  0  0  0
    5.7411   -1.5095    0.0000 H   0  0  0  0  0  0  0  0  0  0  0  0
    6.1429   -0.8197    0.0000 H   0  0  0  0  0  0  0  0  0  0  0  0
    4.6188    1.2496    0.0000 H   0  0  0  0  0  0  0  0  0  0  0  0
    3.1120   -1.9050    0.0000 H   0  0  0  0  0  0  0  0  0  0  0  0
    3.7320   -2.5250    0.0000 H   0  0  0  0  0  0  0  0  0  0  0  0
    4.3520   -1.9050    0.0000 H   0  0  0  0  0  0  0  0  0  0  0  0
    6.9319    0.9312    0.0000 H   0  0  0  0  0  0  0  0  0  0  0  0
    1.3894   -0.7973    0.0000 H   0  0  0  0  0  0  0  0  0  0  0  0
    1.7880   -1.4876    0.0000 H   0  0  0  0  0  0  0  0  0  0  0  0
    1.4631    0.4050    0.0000 H   0  0  0  0  0  0  0  0  0  0  0  0
    6.9562   -0.4156    0.0000 H   0  0  0  0  0  0  0  0  0  0  0  0
    7.8022   -0.1854    0.0000 H   0  0  0  0  0  0  0  0  0  0  0  0
    7.5720    0.6606    0.0000 H   0  0  0  0  0  0  0  0  0  0  0  0
    7.0123    1.6215    0.0000 H   0  0  0  0  0  0  0  0  0  0  0  0
    6.3899    2.2391    0.0000 H   0  0  0  0  0  0  0  0  0  0  0  0
    5.7723    1.6168    0.0000 H   0  0  0  0  0  0  0  0  0  0  0  0
    2.3291   -2.7150    0.0000 H   0  0  0  0  0  0  0  0  0  0  0  0
    3.4766    1.4873    0.0000 H   0  0  0  0  0  0  0  0  0  0  0  0
    3.0781    2.1776    0.0000 H   0  0  0  0  0  0  0  0  0  0  0  0
    2.0000    2.7150    0.0000 H   0  0  0  0  0  0  0  0  0  0  0  0
  7  1  1  6  0  0  0
  1 38  1  0  0  0  0
  2 17  1  0  0  0  0
  2 41  1  0  0  0  0
  3  4  1  0  0  0  0
  3  6  1  0  0  0  0
  3  7  1  0  0  0  0
  3 10  1  6  0  0  0
  4  8  1  0  0  0  0
  4 18  1  0  0  0  0
  4 19  1  0  0  0  0
  5  8  1  0  0  0  0
  5  9  1  0  0  0  0
  5 11  1  6  0  0  0
  5 20  1  0  0  0  0
  6  9  2  0  0  0  0
  6 13  1  0  0  0  0
  7 12  1  0  0  0  0
  7 21  1  0  0  0  0
  8 22  1  0  0  0  0
  8 23  1  0  0  0  0
  9 24  1  0  0  0  0
 10 25  1  0  0  0  0
 10 26  1  0  0  0  0
 10 27  1  0  0  0  0
 11 15  1  0  0  0  0
 11 16  1  0  0  0  0
 11 28  1  0  0  0  0
 12 14  1  0  0  0  0
 12 29  1  0  0  0  0
 12 30  1  0  0  0  0
 13 14  2  0  0  0  0
 13 17  1  0  0  0  0
 14 31  1  0  0  0  0
 15 32  1  0  0  0  0
 15 33  1  0  0  0  0
 15 34  1  0  0  0  0
 16 35  1  0  0  0  0
 16 36  1  0  0  0  0
 16 37  1  0  0  0  0
 17 39  1  0  0  0  0
 17 40  1  0  0  0  0
M  END
> <PUBCHEM_COMPOUND_CID>
10752315

> <PUBCHEM_COMPOUND_CANONICALIZED>
1

> <PUBCHEM_CACTVS_COMPLEXITY>
354

> <PUBCHEM_CACTVS_HBOND_ACCEPTOR>
2

> <PUBCHEM_CACTVS_HBOND_DONOR>
2

> <PUBCHEM_CACTVS_ROTATABLE_BOND>
2

> <PUBCHEM_CACTVS_SUBSKEYS>
AAADceBwMAAAAAAAAAAAAAAAAAAAAAAAAAAgQAAAAAAAAACAAAAAGgAACAAADxSggAICAAAAAgCAAiBCAAAAAAAgAAAACAAAAAgIFAIAAQAAUAAEwAAIkAOA4PQPgAAAAAAAAAAAAAAAAAAAAAAAAAAAAA==

> <PUBCHEM_IUPAC_OPENEYE_NAME>
(1R,6S,8aR)-4-(hydroxymethyl)-6-isopropyl-8a-methyl-2,6,7,8-tetrahydro-1H-naphthalen-1-ol

> <PUBCHEM_IUPAC_CAS_NAME>
(1R,6S,8aR)-4-(hydroxymethyl)-8a-methyl-6-propan-2-yl-2,6,7,8-tetrahydro-1H-naphthalen-1-ol

> <PUBCHEM_IUPAC_NAME>
(1R,6S,8aR)-4-(hydroxymethyl)-8a-methyl-6-propan-2-yl-2,6,7,8-tetrahydro-1H-naphthalen-1-ol

> <PUBCHEM_IUPAC_SYSTEMATIC_NAME>
(1R,6S,8aR)-4-(hydroxymethyl)-8a-methyl-6-propan-2-yl-2,6,7,8-tetrahydro-1H-naphthalen-1-ol

> <PUBCHEM_IUPAC_TRADITIONAL_NAME>
(1R,6S,8aR)-6-isopropyl-8a-methyl-4-methylol-2,6,7,8-tetrahydro-1H-naphthalen-1-ol

> <PUBCHEM_IUPAC_INCHI>
InChI=1S/C15H24O2/c1-10(2)11-6-7-15(3)13(8-11)12(9-16)4-5-14(15)17/h4,8,10-11,14,16-17H,5-7,9H2,1-3H3/t11-,14-,15-/m1/s1

> <PUBCHEM_IUPAC_INCHIKEY>
LDJXWXVSJIWCST-KCPJHIHWSA-N

> <PUBCHEM_XLOGP3_AA>
2.2

> <PUBCHEM_EXACT_MASS>
236.17763

> <PUBCHEM_MOLECULAR_FORMULA>
C15H24O2

> <PUBCHEM_MOLECULAR_WEIGHT>
236.34986

> <PUBCHEM_OPENEYE_CAN_SMILES>
CC(C)C1CCC2(C(CC=C(C2=C1)CO)O)C

> <PUBCHEM_OPENEYE_ISO_SMILES>
CC(C)[C@@H]1CC[C@]2([C@@H](CC=C(C2=C1)CO)O)C

> <PUBCHEM_CACTVS_TPSA>
40.5

> <PUBCHEM_MONOISOTOPIC_WEIGHT>
236.17763

> <PUBCHEM_TOTAL_CHARGE>
0

> <PUBCHEM_HEAVY_ATOM_COUNT>
17

> <PUBCHEM_ATOM_DEF_STEREO_COUNT>
3

> <PUBCHEM_ATOM_UDEF_STEREO_COUNT>
0

> <PUBCHEM_BOND_DEF_STEREO_COUNT>
0

> <PUBCHEM_BOND_UDEF_STEREO_COUNT>
0

> <PUBCHEM_ISOTOPIC_ATOM_COUNT>
0

> <PUBCHEM_COMPONENT_COUNT>
1

> <PUBCHEM_CACTVS_TAUTO_COUNT>
1

> <PUBCHEM_COORDINATE_TYPE>
1
5
255

> <PUBCHEM_BONDANNOTATIONS>
7  1  6
3  10  6
5  11  6

$$$$

