439944
  -OEChem-07051212483D

 25 24  0     1  0  0  0  0  0999 V2000
    0.5766   -1.4629    1.0754 O   0  0  0  0  0  0  0  0  0  0  0  0
   -0.7205    1.0205   -1.2656 O   0  0  0  0  0  0  0  0  0  0  0  0
    1.8715    1.5396   -0.6351 O   0  0  0  0  0  0  0  0  0  0  0  0
   -2.4536    1.8268    0.7261 O   0  0  0  0  0  0  0  0  0  0  0  0
    3.5173   -0.8003   -0.6841 O   0  0  0  0  0  0  0  0  0  0  0  0
   -2.1182   -1.6371    0.6742 O   0  0  0  0  0  0  0  0  0  0  0  0
   -2.3687   -0.9824   -1.4764 O   0  0  0  0  0  0  0  0  0  0  0  0
    0.6217   -0.4381    0.0861 C   0  0  1  0  0  0  0  0  0  0  0  0
   -0.7734    0.2253   -0.0704 C   0  0  1  0  0  0  0  0  0  0  0  0
    1.7823    0.5418    0.3789 C   0  0  1  0  0  0  0  0  0  0  0  0
   -1.2590    1.1419    1.0625 C   0  0  0  0  0  0  0  0  0  0  0  0
    3.1506   -0.1332    0.5152 C   0  0  0  0  0  0  0  0  0  0  0  0
   -1.8265   -0.8418   -0.3867 C   0  0  0  0  0  0  0  0  0  0  0  0
    0.8474   -0.9379   -0.8657 H   0  0  0  0  0  0  0  0  0  0  0  0
    1.5954    1.0512    1.3314 H   0  0  0  0  0  0  0  0  0  0  0  0
   -1.4297    0.5756    1.9839 H   0  0  0  0  0  0  0  0  0  0  0  0
   -0.5130    1.9152    1.2691 H   0  0  0  0  0  0  0  0  0  0  0  0
    3.9246    0.6138    0.7215 H   0  0  0  0  0  0  0  0  0  0  0  0
    3.1551   -0.8637    1.3296 H   0  0  0  0  0  0  0  0  0  0  0  0
    0.4110   -1.0368    1.9335 H   0  0  0  0  0  0  0  0  0  0  0  0
   -1.5639    1.4983   -1.3476 H   0  0  0  0  0  0  0  0  0  0  0  0
    1.0462    2.0523   -0.6219 H   0  0  0  0  0  0  0  0  0  0  0  0
   -2.6897    2.3843    1.4870 H   0  0  0  0  0  0  0  0  0  0  0  0
    3.4815   -0.1466   -1.4032 H   0  0  0  0  0  0  0  0  0  0  0  0
   -2.7950   -2.3112    0.4508 H   0  0  0  0  0  0  0  0  0  0  0  0
  1  8  1  0  0  0  0
  1 20  1  0  0  0  0
  2  9  1  0  0  0  0
  2 21  1  0  0  0  0
  3 10  1  0  0  0  0
  3 22  1  0  0  0  0
  4 11  1  0  0  0  0
  4 23  1  0  0  0  0
  5 12  1  0  0  0  0
  5 24  1  0  0  0  0
  6 13  1  0  0  0  0
  6 25  1  0  0  0  0
  7 13  2  0  0  0  0
  8  9  1  0  0  0  0
  8 10  1  0  0  0  0
  8 14  1  0  0  0  0
  9 11  1  0  0  0  0
  9 13  1  0  0  0  0
 10 12  1  0  0  0  0
 10 15  1  0  0  0  0
 11 16  1  0  0  0  0
 11 17  1  0  0  0  0
 12 18  1  0  0  0  0
 12 19  1  0  0  0  0
M  END
> <PUBCHEM_COMPOUND_CID>
439944

> <PUBCHEM_CONFORMER_RMSD>
0.6

> <PUBCHEM_CONFORMER_DIVERSEORDER>
1
46
20
39
28
35
44
37
48
38
47
14
6
30
33
50
24
21
25
42
51
2
40
9
27
11
10
49
7
41
29
31
12
34
5
22
52
23
4
26
8
43
16
36
17
18
13
19
32
45
3
15

> <PUBCHEM_MMFF94_PARTIAL_CHARGES>
19
1 -0.68
10 0.28
11 0.28
12 0.28
13 0.66
2 -0.68
20 0.4
21 0.4
22 0.4
23 0.4
24 0.4
25 0.5
3 -0.68
4 -0.68
5 -0.68
6 -0.65
7 -0.57
8 0.28
9 0.34

> <PUBCHEM_EFFECTIVE_ROTOR_COUNT>
5

> <PUBCHEM_PHARMACOPHORE_FEATURES>
13
1 1 acceptor
1 1 donor
1 2 acceptor
1 2 donor
1 3 acceptor
1 3 donor
1 4 acceptor
1 4 donor
1 5 acceptor
1 5 donor
1 6 acceptor
1 7 acceptor
3 6 7 13 anion

> <PUBCHEM_HEAVY_ATOM_COUNT>
13

> <PUBCHEM_ATOM_DEF_STEREO_COUNT>
3

> <PUBCHEM_ATOM_UDEF_STEREO_COUNT>
0

> <PUBCHEM_BOND_DEF_STEREO_COUNT>
0

> <PUBCHEM_BOND_UDEF_STEREO_COUNT>
0

> <PUBCHEM_ISOTOPIC_ATOM_COUNT>
0

> <PUBCHEM_COMPONENT_COUNT>
1

> <PUBCHEM_CACTVS_TAUTO_COUNT>
1

> <PUBCHEM_CONFORMER_ID>
0006B68800000001

> <PUBCHEM_MMFF94_ENERGY>
28.2099

> <PUBCHEM_FEATURE_SELFOVERLAP>
66.073

> <PUBCHEM_SHAPE_FINGERPRINT>
12423570 1 16403148559581590825
12716758 59 17822294633990348528
12897270 3 17845671269077955950
12932764 1 16917069949485118112
13024252 1 13830132806194426931
15310529 11 17240487966285516256
15775835 57 18201435934604395672
16945 1 17988659500637359587
18511873 20 18190732223304956952
19837323 101 16878492566049003993
21524375 3 17898843823539131137
23552423 10 18411982446925578378
2748010 2 17772475586068694758
29004967 10 5472867007861828622
3248919 1 18411985732765346960
369184 2 17022625260369119514
5084963 1 18342466910960006696

> <PUBCHEM_SHAPE_MULTIPOLES>
226.45
4.42
1.65
1.15
2.92
0.24
-0.14
-0.56
-0.32
-0.89
0.19
-0.35
-0.04
-0.41

> <PUBCHEM_SHAPE_SELFOVERLAP>
439.543

> <PUBCHEM_SHAPE_VOLUME>
135.9

> <PUBCHEM_COORDINATE_TYPE>
2
5
10

$$$$

