442035
  -OEChem-07051212563D

 47 51  0     1  0  0  0  0  0999 V2000
    1.8106   -2.3393   -1.1169 O   0  0  0  0  0  0  0  0  0  0  0  0
    1.6352    2.3045    0.3937 O   0  0  0  0  0  0  0  0  0  0  0  0
    4.1723   -0.5458    1.0528 O   0  0  0  0  0  0  0  0  0  0  0  0
    3.9007    2.1415    0.6520 O   0  0  0  0  0  0  0  0  0  0  0  0
   -3.6624   -0.6902   -0.1062 O   0  0  0  0  0  0  0  0  0  0  0  0
   -3.7040   -2.9569   -0.0975 O   0  0  0  0  0  0  0  0  0  0  0  0
    0.6372   -0.7750    0.4726 C   0  0  2  0  0  0  0  0  0  0  0  0
    1.1663    0.2422   -0.5874 C   0  0  2  0  0  0  0  0  0  0  0  0
    1.3465   -2.1025    0.2230 C   0  0  2  0  0  0  0  0  0  0  0  0
    2.6934    0.4450   -0.6459 C   0  0  2  0  0  0  0  0  0  0  0  0
    2.8066   -2.0834   -0.1197 C   0  0  2  0  0  0  0  0  0  0  0  0
    3.5462   -0.7816   -0.2099 C   0  0  2  0  0  0  0  0  0  0  0  0
    0.6325    1.6497   -0.3951 C   0  0  1  0  0  0  0  0  0  0  0  0
   -0.8953   -0.7968    0.2920 C   0  0  0  0  0  0  0  0  0  0  0  0
    0.9289   -0.4162    1.9545 C   0  0  0  0  0  0  0  0  0  0  0  0
   -0.7396    1.7508    0.2742 C   0  0  0  0  0  0  0  0  0  0  0  0
    2.8510    1.6961    0.2122 C   0  0  0  0  0  0  0  0  0  0  0  0
    3.1129    0.8448   -2.0797 C   0  0  0  0  0  0  0  0  0  0  0  0
   -1.5795    0.4956    0.1813 C   0  0  0  0  0  0  0  0  0  0  0  0
   -1.6110   -1.9284    0.1903 C   0  0  0  0  0  0  0  0  0  0  0  0
   -2.9143    0.5077   -0.0057 C   0  0  0  0  0  0  0  0  0  0  0  0
   -3.0685   -1.9115   -0.0141 C   0  0  0  0  0  0  0  0  0  0  0  0
   -3.7845    1.7242   -0.0937 C   0  0  0  0  0  0  0  0  0  0  0  0
   -4.4646    1.7908   -1.4575 C   0  0  0  0  0  0  0  0  0  0  0  0
   -4.8169    1.7347    1.0307 C   0  0  0  0  0  0  0  0  0  0  0  0
    0.8126   -0.1099   -1.5700 H   0  0  0  0  0  0  0  0  0  0  0  0
    0.9972   -2.9372    0.8162 H   0  0  0  0  0  0  0  0  0  0  0  0
    3.4274   -2.9154    0.1853 H   0  0  0  0  0  0  0  0  0  0  0  0
    4.3694   -0.9253   -0.9202 H   0  0  0  0  0  0  0  0  0  0  0  0
    0.5885    2.1762   -1.3575 H   0  0  0  0  0  0  0  0  0  0  0  0
    1.9983   -0.3687    2.1685 H   0  0  0  0  0  0  0  0  0  0  0  0
    0.5006    0.5337    2.2771 H   0  0  0  0  0  0  0  0  0  0  0  0
    0.5181   -1.1869    2.6200 H   0  0  0  0  0  0  0  0  0  0  0  0
   -1.2349    2.6042   -0.1992 H   0  0  0  0  0  0  0  0  0  0  0  0
   -0.6402    2.0408    1.3270 H   0  0  0  0  0  0  0  0  0  0  0  0
    2.9230    0.0293   -2.7864 H   0  0  0  0  0  0  0  0  0  0  0  0
    2.5799    1.7316   -2.4392 H   0  0  0  0  0  0  0  0  0  0  0  0
    4.1818    1.0864   -2.1203 H   0  0  0  0  0  0  0  0  0  0  0  0
    4.7756   -1.2880    1.2285 H   0  0  0  0  0  0  0  0  0  0  0  0
   -1.1601   -2.9116    0.2509 H   0  0  0  0  0  0  0  0  0  0  0  0
   -3.2085    2.6455    0.0209 H   0  0  0  0  0  0  0  0  0  0  0  0
   -5.1408    0.9443   -1.6224 H   0  0  0  0  0  0  0  0  0  0  0  0
   -3.7253    1.7956   -2.2664 H   0  0  0  0  0  0  0  0  0  0  0  0
   -5.0581    2.7076   -1.5466 H   0  0  0  0  0  0  0  0  0  0  0  0
   -4.3308    1.6875    2.0117 H   0  0  0  0  0  0  0  0  0  0  0  0
   -5.5136    0.8921    0.9577 H   0  0  0  0  0  0  0  0  0  0  0  0
   -5.4103    2.6554    0.9990 H   0  0  0  0  0  0  0  0  0  0  0  0
  1  9  1  0  0  0  0
  1 11  1  0  0  0  0
  2 13  1  0  0  0  0
  2 17  1  0  0  0  0
  3 12  1  0  0  0  0
  3 39  1  0  0  0  0
  4 17  2  0  0  0  0
  5 21  1  0  0  0  0
  5 22  1  0  0  0  0
  6 22  2  0  0  0  0
  7  8  1  0  0  0  0
  7  9  1  0  0  0  0
  7 14  1  0  0  0  0
  7 15  1  0  0  0  0
  8 10  1  0  0  0  0
  8 13  1  0  0  0  0
  8 26  1  0  0  0  0
  9 11  1  0  0  0  0
  9 27  1  0  0  0  0
 10 12  1  0  0  0  0
 10 17  1  0  0  0  0
 10 18  1  0  0  0  0
 11 12  1  0  0  0  0
 11 28  1  0  0  0  0
 12 29  1  0  0  0  0
 13 16  1  0  0  0  0
 13 30  1  0  0  0  0
 14 19  1  0  0  0  0
 14 20  2  0  0  0  0
 15 31  1  0  0  0  0
 15 32  1  0  0  0  0
 15 33  1  0  0  0  0
 16 19  1  0  0  0  0
 16 34  1  0  0  0  0
 16 35  1  0  0  0  0
 18 36  1  0  0  0  0
 18 37  1  0  0  0  0
 18 38  1  0  0  0  0
 19 21  2  0  0  0  0
 20 22  1  0  0  0  0
 20 40  1  0  0  0  0
 21 23  1  0  0  0  0
 23 24  1  0  0  0  0
 23 25  1  0  0  0  0
 23 41  1  0  0  0  0
 24 42  1  0  0  0  0
 24 43  1  0  0  0  0
 24 44  1  0  0  0  0
 25 45  1  0  0  0  0
 25 46  1  0  0  0  0
 25 47  1  0  0  0  0
M  END
> <PUBCHEM_COMPOUND_CID>
442035

> <PUBCHEM_CONFORMER_RMSD>
0.6

> <PUBCHEM_CONFORMER_DIVERSEORDER>
1

> <PUBCHEM_MMFF94_PARTIAL_CHARGES>
24
1 -0.3
10 0.06
11 -0.05
12 0.38
13 0.28
14 -0.14
16 0.14
17 0.66
19 -0.14
2 -0.43
20 -0.14
21 -0.06
22 0.71
23 0.14
27 0.1
28 0.1
3 -0.68
39 0.4
4 -0.57
40 0.15
5 -0.23
6 -0.57
7 0.23
9 -0.05

> <PUBCHEM_EFFECTIVE_ROTOR_COUNT>
1.8

> <PUBCHEM_PHARMACOPHORE_FEATURES>
10
1 1 acceptor
1 3 acceptor
1 3 donor
1 4 acceptor
1 6 acceptor
3 23 24 25 hydrophobe
5 2 8 10 13 17 rings
6 5 14 19 20 21 22 rings
6 7 8 13 14 16 19 rings
7 1 7 8 9 10 11 12 rings

> <PUBCHEM_HEAVY_ATOM_COUNT>
25

> <PUBCHEM_ATOM_DEF_STEREO_COUNT>
7

> <PUBCHEM_ATOM_UDEF_STEREO_COUNT>
0

> <PUBCHEM_BOND_DEF_STEREO_COUNT>
0

> <PUBCHEM_BOND_UDEF_STEREO_COUNT>
0

> <PUBCHEM_ISOTOPIC_ATOM_COUNT>
0

> <PUBCHEM_COMPONENT_COUNT>
1

> <PUBCHEM_CACTVS_TAUTO_COUNT>
1

> <PUBCHEM_CONFORMER_ID>
0006BEB300000001

> <PUBCHEM_MMFF94_ENERGY>
85.9268

> <PUBCHEM_FEATURE_SELFOVERLAP>
50.945

> <PUBCHEM_SHAPE_FINGERPRINT>
10062212 137 18343868809507277563
10411042 1 16897646291240477339
10616163 171 18337104562639261871
10646746 165 18410573942418263924
10756046 5 18412820296234640575
10863032 1 18408884027194906156
10948715 1 18265336097589587152
10967382 1 18194680590771236835
1100329 8 18267866262275294595
11370993 70 18408611352616935951
11578080 2 17459200598863676915
116883 192 18047184439026503246
12403260 363 18196098741869965712
12422481 6 18127436581910680280
12553582 1 18263350537844399485
12633257 1 18341622563191567258
13140716 1 18341330071529017827
13224815 77 18408885101131980451
13944108 23 16831515051670017013
14178342 30 18339648836629958241
14223421 5 18410573946739572503
14787075 74 17463973458232997568
14790565 3 18051970325744290084
15196674 1 18411138009147402840
15536298 74 18408322185406448168
1601671 61 18410571825268211028
16945 1 18262505000902489480
17349148 13 18188501292726624929
17492 89 18410573946534662666
18186145 218 18114727253505229272
20691752 17 17132117931034972866
20715895 44 18126579039881601957
20739085 24 17908112706714562225
20905425 154 18410006611503196950
21033648 144 18409739473386179709
21033648 29 17845940753213364957
21267235 1 18411408510398802371
21421861 104 17844250846431891658
21501502 16 18341890770893169423
221490 88 18410566263011769234
22393880 68 18335690616582203766
2334 1 18340761550913309962
23557571 272 18334010588442697826
23558518 356 18200872860244849931
23559900 14 18261394511539154682
23566358 2 18410578366667108807
2748010 2 18265886956845995252
335352 9 18338515373237955438
34934 24 18340210785787115790
350125 39 18411412896182429675
4280585 95 17902777893640162174
474 4 17632286852820811606
495365 180 18041294226155470568
5104073 3 18411982446672306738
633830 44 16845849096427823309
7364860 26 18335421304863132576
7832392 63 18410853269911229109
9709674 26 18334855051980075863
9981440 41 17767680560484909784

> <PUBCHEM_SHAPE_MULTIPOLES>
479.27
8.29
2.96
1.23
5.28
0.88
-0.11
-2.18
-0.55
0.74
-0.13
-0.45
-0.28
0.1

> <PUBCHEM_SHAPE_SELFOVERLAP>
1062.418

> <PUBCHEM_SHAPE_VOLUME>
254

> <PUBCHEM_COORDINATE_TYPE>
2
5
10

$$$$

