56928078
  -OEChem-07051213023D

 49 53  0     1  0  0  0  0  0999 V2000
   -1.7715   -1.9803    0.7613 O   0  0  0  0  0  0  0  0  0  0  0  0
   -3.9122   -0.3936    0.4057 O   0  0  0  0  0  0  0  0  0  0  0  0
    3.9955    1.7162   -0.2701 O   0  0  0  0  0  0  0  0  0  0  0  0
    3.3377   -2.8699   -0.0127 O   0  0  0  0  0  0  0  0  0  0  0  0
    4.8622   -1.0117   -0.1658 O   0  0  0  0  0  0  0  0  0  0  0  0
   -5.7333   -1.2381   -0.7377 O   0  0  0  0  0  0  0  0  0  0  0  0
   -0.2567    2.4641   -0.0512 N   0  0  1  0  0  0  0  0  0  0  0  0
   -0.7030    0.1533    0.0793 C   0  0  1  0  0  0  0  0  0  0  0  0
   -0.9227    1.3889   -0.8263 C   0  0  1  0  0  0  0  0  0  0  0  0
   -0.9341    0.7283    1.4923 C   0  0  0  0  0  0  0  0  0  0  0  0
   -1.6450   -1.0255   -0.2960 C   0  0  2  0  0  0  0  0  0  0  0  0
   -2.3835    1.7421   -1.1212 C   0  0  0  0  0  0  0  0  0  0  0  0
   -0.6412    2.2244    1.3570 C   0  0  0  0  0  0  0  0  0  0  0  0
    0.8121   -0.1860   -0.0176 C   0  0  0  0  0  0  0  0  0  0  0  0
   -3.0770   -0.6494   -0.7233 C   0  0  2  0  0  0  0  0  0  0  0  0
   -3.1216    0.5332   -1.6857 C   0  0  0  0  0  0  0  0  0  0  0  0
    1.2065    2.3261   -0.2188 C   0  0  0  0  0  0  0  0  0  0  0  0
    1.7287    0.9069   -0.1128 C   0  0  0  0  0  0  0  0  0  0  0  0
    1.3215   -1.4943    0.0170 C   0  0  0  0  0  0  0  0  0  0  0  0
    3.1141    0.6880   -0.1671 C   0  0  0  0  0  0  0  0  0  0  0  0
    2.6916   -1.6711   -0.0367 C   0  0  0  0  0  0  0  0  0  0  0  0
    3.5622   -0.6127   -0.1234 C   0  0  0  0  0  0  0  0  0  0  0  0
   -5.2231   -0.7395    0.2565 C   0  0  0  0  0  0  0  0  0  0  0  0
    4.7128   -2.4439   -0.0939 C   0  0  0  0  0  0  0  0  0  0  0  0
   -5.9741   -0.4156    1.5123 C   0  0  0  0  0  0  0  0  0  0  0  0
    4.9543    1.8604    0.7787 C   0  0  0  0  0  0  0  0  0  0  0  0
   -0.4392    1.2564   -1.8063 H   0  0  0  0  0  0  0  0  0  0  0  0
   -0.2962    0.2605    2.2512 H   0  0  0  0  0  0  0  0  0  0  0  0
   -1.9730    0.6003    1.8145 H   0  0  0  0  0  0  0  0  0  0  0  0
   -1.1975   -1.5463   -1.1537 H   0  0  0  0  0  0  0  0  0  0  0  0
   -2.4258    2.5688   -1.8410 H   0  0  0  0  0  0  0  0  0  0  0  0
   -2.9067    2.0890   -0.2221 H   0  0  0  0  0  0  0  0  0  0  0  0
   -1.5468    2.7996    1.5836 H   0  0  0  0  0  0  0  0  0  0  0  0
    0.1185    2.5593    2.0729 H   0  0  0  0  0  0  0  0  0  0  0  0
   -3.4683   -1.5319   -1.2488 H   0  0  0  0  0  0  0  0  0  0  0  0
   -4.1581    0.8215   -1.8947 H   0  0  0  0  0  0  0  0  0  0  0  0
   -2.6651    0.2453   -2.6407 H   0  0  0  0  0  0  0  0  0  0  0  0
    1.7208    2.9738    0.5022 H   0  0  0  0  0  0  0  0  0  0  0  0
    1.4628    2.7057   -1.2166 H   0  0  0  0  0  0  0  0  0  0  0  0
    0.6773   -2.3616    0.0975 H   0  0  0  0  0  0  0  0  0  0  0  0
   -2.3047   -2.7220    0.4279 H   0  0  0  0  0  0  0  0  0  0  0  0
    5.1664   -2.8895   -0.9866 H   0  0  0  0  0  0  0  0  0  0  0  0
    5.2462   -2.8085    0.7915 H   0  0  0  0  0  0  0  0  0  0  0  0
   -5.5592   -0.9833    2.3489 H   0  0  0  0  0  0  0  0  0  0  0  0
   -7.0246   -0.6941    1.3889 H   0  0  0  0  0  0  0  0  0  0  0  0
   -5.9192    0.6579    1.7101 H   0  0  0  0  0  0  0  0  0  0  0  0
    5.2369    2.9156    0.8340 H   0  0  0  0  0  0  0  0  0  0  0  0
    5.8517    1.2783    0.5517 H   0  0  0  0  0  0  0  0  0  0  0  0
    4.5412    1.5635    1.7489 H   0  0  0  0  0  0  0  0  0  0  0  0
  1 11  1  0  0  0  0
  1 41  1  0  0  0  0
  2 15  1  0  0  0  0
  2 23  1  0  0  0  0
  3 20  1  0  0  0  0
  3 26  1  0  0  0  0
  4 21  1  0  0  0  0
  4 24  1  0  0  0  0
  5 22  1  0  0  0  0
  5 24  1  0  0  0  0
  6 23  2  0  0  0  0
  7  9  1  0  0  0  0
  7 13  1  0  0  0  0
  7 17  1  0  0  0  0
  8  9  1  0  0  0  0
  8 10  1  0  0  0  0
  8 11  1  0  0  0  0
  8 14  1  0  0  0  0
  9 12  1  0  0  0  0
  9 27  1  0  0  0  0
 10 13  1  0  0  0  0
 10 28  1  0  0  0  0
 10 29  1  0  0  0  0
 11 15  1  0  0  0  0
 11 30  1  0  0  0  0
 12 16  1  0  0  0  0
 12 31  1  0  0  0  0
 12 32  1  0  0  0  0
 13 33  1  0  0  0  0
 13 34  1  0  0  0  0
 14 18  1  0  0  0  0
 14 19  2  0  0  0  0
 15 16  1  0  0  0  0
 15 35  1  0  0  0  0
 16 36  1  0  0  0  0
 16 37  1  0  0  0  0
 17 18  1  0  0  0  0
 17 38  1  0  0  0  0
 17 39  1  0  0  0  0
 18 20  2  0  0  0  0
 19 21  1  0  0  0  0
 19 40  1  0  0  0  0
 20 22  1  0  0  0  0
 21 22  2  0  0  0  0
 23 25  1  0  0  0  0
 24 42  1  0  0  0  0
 24 43  1  0  0  0  0
 25 44  1  0  0  0  0
 25 45  1  0  0  0  0
 25 46  1  0  0  0  0
 26 47  1  0  0  0  0
 26 48  1  0  0  0  0
 26 49  1  0  0  0  0
M  END
> <PUBCHEM_COMPOUND_CID>
56928078

> <PUBCHEM_CONFORMER_RMSD>
0.8

> <PUBCHEM_CONFORMER_DIVERSEORDER>
1
2
3

> <PUBCHEM_MMFF94_PARTIAL_CHARGES>
25
1 -0.68
11 0.28
13 0.27
14 -0.14
15 0.28
17 0.41
18 -0.14
19 -0.15
2 -0.43
20 0.08
21 0.08
22 0.08
23 0.66
24 0.56
25 0.06
26 0.28
3 -0.36
4 -0.36
40 0.15
41 0.4
5 -0.36
6 -0.57
7 -0.81
8 0.14
9 0.27

> <PUBCHEM_EFFECTIVE_ROTOR_COUNT>
5

> <PUBCHEM_PHARMACOPHORE_FEATURES>
11
1 1 acceptor
1 1 donor
1 3 acceptor
1 4 acceptor
1 5 acceptor
1 6 acceptor
1 7 cation
5 4 5 21 22 24 rings
6 14 18 19 20 21 22 rings
6 8 9 11 12 15 16 rings
8 7 8 9 10 13 14 17 18 rings

> <PUBCHEM_HEAVY_ATOM_COUNT>
26

> <PUBCHEM_ATOM_DEF_STEREO_COUNT>
4

> <PUBCHEM_ATOM_UDEF_STEREO_COUNT>
0

> <PUBCHEM_BOND_DEF_STEREO_COUNT>
0

> <PUBCHEM_BOND_UDEF_STEREO_COUNT>
0

> <PUBCHEM_ISOTOPIC_ATOM_COUNT>
0

> <PUBCHEM_COMPONENT_COUNT>
1

> <PUBCHEM_CACTVS_TAUTO_COUNT>
1

> <PUBCHEM_CONFORMER_ID>
0364A74E00000001

> <PUBCHEM_MMFF94_ENERGY>
93.3286

> <PUBCHEM_FEATURE_SELFOVERLAP>
56.011

> <PUBCHEM_SHAPE_FINGERPRINT>
10906281 52 18128804253831848480
10967382 1 18411139096032559158
11112241 14 16808997693282149488
11578080 2 17460346384000394017
12035758 1 18129380406540917177
12166972 35 17774714364137865446
12236239 1 17676482826790764387
12403259 226 18197222653608006996
12422481 6 17533481573027506851
12553582 1 18334868237439984254
12596602 18 17313381184876318451
12788726 201 17386273363858149169
12916754 54 18337389465126241222
13004483 165 18334862748371085376
13009979 54 17678735868287984890
13103583 49 17749100089870347707
13140716 1 17976543806149754696
13224815 77 18335423486938692544
13533116 47 18333729122298281098
13544653 18 18411979161412688655
13911987 19 18125710189715525212
14251764 30 18059564777226980787
15196674 1 18411421738781691877
16945 1 18339936908797871765
17349148 13 18341624728314039720
17492 89 18265617769876798262
17980427 23 5544613410413486745
17980427 26 17462864081340168821
1813 80 18261098704013555917
18785283 64 17913483545927149533
200 152 18261116304673379494
20645477 70 18409448102984069390
21267235 1 18410284848370218718
21279426 13 18270406104645341909
21285901 2 17989212542275257583
21792934 111 18336557109017554593
221357 26 18342464763624169079
221490 88 18340209703982865132
22182313 1 18201176393983870853
22393880 68 17844820371700667838
22950370 63 18333731308431411871
23559900 14 18265348372711321762
25147074 1 18263342824621193112
3004659 81 18273498996178136318
312423 11 18188761868671989668
314194 84 18335140856642536295
3380486 145 18126268771227640563
3411729 13 15865212169153135912
345986 75 18186803629667329859
34934 24 18188493450147984494
350125 39 18336261336379330904
46194498 28 17632295618838825701
463206 1 18336832965961127926
5104073 3 18340210798820081704
9709674 26 18342178873384187054

> <PUBCHEM_SHAPE_MULTIPOLES>
494.87
10.96
2.75
1.15
5.19
0.03
-0.1
-4.76
-1.17
-2.67
-0.13
1.32
0.35
0.55

> <PUBCHEM_SHAPE_SELFOVERLAP>
1096.478

> <PUBCHEM_SHAPE_VOLUME>
263.9

> <PUBCHEM_COORDINATE_TYPE>
2
5
10

$$$$

