11849
  -OEChem-06261206113D

 25 25  0     0  0  0  0  0  0999 V2000
   -3.5133   -0.1161   -0.0011 O   0  5  0  0  0  0  0  0  0  0  0  0
    3.5133   -0.1158   -0.0005 O   0  5  0  0  0  0  0  0  0  0  0  0
   -2.4208   -2.0202   -0.0006 O   0  0  0  0  0  0  0  0  0  0  0  0
    2.4209   -2.0200    0.0004 O   0  0  0  0  0  0  0  0  0  0  0  0
   -2.4441   -0.7681   -0.0003 N   0  3  0  0  0  0  0  0  0  0  0  0
    2.4441   -0.7679   -0.0003 N   0  3  0  0  0  0  0  0  0  0  0  0
    0.0001   -0.7562    0.0003 C   0  0  0  0  0  0  0  0  0  0  0  0
   -1.2080   -0.0589    0.0005 C   0  0  0  0  0  0  0  0  0  0  0  0
    1.2079   -0.0588   -0.0002 C   0  0  0  0  0  0  0  0  0  0  0  0
   -1.2081    1.3360    0.0003 C   0  0  0  0  0  0  0  0  0  0  0  0
    1.2078    1.3361   -0.0005 C   0  0  0  0  0  0  0  0  0  0  0  0
   -0.0002    2.0335   -0.0001 C   0  0  0  0  0  0  0  0  0  0  0  0
    0.0004   -2.2554    0.0011 C   0  0  0  0  0  0  0  0  0  0  0  0
   -2.4836    2.1160    0.0009 C   0  0  0  0  0  0  0  0  0  0  0  0
    2.4836    2.1159    0.0000 C   0  0  0  0  0  0  0  0  0  0  0  0
   -0.0002    3.1210    0.0000 H   0  0  0  0  0  0  0  0  0  0  0  0
    0.3129   -2.6439   -0.9748 H   0  0  0  0  0  0  0  0  0  0  0  0
    0.6561   -2.5925    0.8139 H   0  0  0  0  0  0  0  0  0  0  0  0
   -0.8032   -2.8960    0.3405 H   0  0  0  0  0  0  0  0  0  0  0  0
   -3.0674    1.9539    0.9133 H   0  0  0  0  0  0  0  0  0  0  0  0
   -2.2668    3.1928    0.0019 H   0  0  0  0  0  0  0  0  0  0  0  0
   -3.0672    1.9555   -0.9117 H   0  0  0  0  0  0  0  0  0  0  0  0
    3.0669    1.9544    0.9127 H   0  0  0  0  0  0  0  0  0  0  0  0
    3.0674    1.9548   -0.9124 H   0  0  0  0  0  0  0  0  0  0  0  0
    2.2668    3.1926    0.0001 H   0  0  0  0  0  0  0  0  0  0  0  0
  1  5  1  0  0  0  0
  2  6  1  0  0  0  0
  3  5  2  0  0  0  0
  4  6  2  0  0  0  0
  5  8  1  0  0  0  0
  6  9  1  0  0  0  0
  7  8  2  0  0  0  0
  7  9  1  0  0  0  0
  7 13  1  0  0  0  0
  8 10  1  0  0  0  0
  9 11  2  0  0  0  0
 10 12  2  0  0  0  0
 10 14  1  0  0  0  0
 11 12  1  0  0  0  0
 11 15  1  0  0  0  0
 12 16  1  0  0  0  0
 13 17  1  0  0  0  0
 13 18  1  0  0  0  0
 13 19  1  0  0  0  0
 14 20  1  0  0  0  0
 14 21  1  0  0  0  0
 14 22  1  0  0  0  0
 15 23  1  0  0  0  0
 15 24  1  0  0  0  0
 15 25  1  0  0  0  0
M  CHG  4   1  -1   2  -1   5   1   6   1
M  END
> <PUBCHEM_COMPOUND_CID>
11849

> <PUBCHEM_CONFORMER_RMSD>
0.6

> <PUBCHEM_CONFORMER_DIVERSEORDER>
1

> <PUBCHEM_MMFF94_PARTIAL_CHARGES>
16
1 -0.52
10 -0.14
11 -0.14
12 -0.15
13 0.14
14 0.14
15 0.14
16 0.15
2 -0.52
3 -0.52
4 -0.52
5 0.91
6 0.91
7 -0.14
8 0.13
9 0.13

> <PUBCHEM_EFFECTIVE_ROTOR_COUNT>
2

> <PUBCHEM_PHARMACOPHORE_FEATURES>
7
1 1 acceptor
1 1 anion
1 2 acceptor
1 2 anion
1 3 acceptor
1 4 acceptor
6 7 8 9 10 11 12 rings

> <PUBCHEM_HEAVY_ATOM_COUNT>
15

> <PUBCHEM_ATOM_DEF_STEREO_COUNT>
0

> <PUBCHEM_ATOM_UDEF_STEREO_COUNT>
0

> <PUBCHEM_BOND_DEF_STEREO_COUNT>
0

> <PUBCHEM_BOND_UDEF_STEREO_COUNT>
0

> <PUBCHEM_ISOTOPIC_ATOM_COUNT>
0

> <PUBCHEM_COMPONENT_COUNT>
1

> <PUBCHEM_CACTVS_TAUTO_COUNT>
1

> <PUBCHEM_CONFORMER_ID>
00002E4900000001

> <PUBCHEM_MMFF94_ENERGY>
98.039

> <PUBCHEM_FEATURE_SELFOVERLAP>
35.684

> <PUBCHEM_SHAPE_FINGERPRINT>
10967382 1 18410573972351016741
11132069 177 18267027343724889816
11206711 2 18412541037223418109
12382932 28 18120938562009585808
12423570 1 11849159671319411061
13140716 1 18410292557440928441
15442244 35 18266178511989487512
15536298 74 18261672584817182408
16945 1 18410855464423129092
193761 8 18410856559640062405
20588541 1 18051693239569125121
21501502 16 18410571786128591844
2334 1 18410573955113456589
23463225 33 18340486763311280032
23552423 10 18342737403436426580
23559900 14 18190742141123136110
2748010 2 18411421712922340653
2897 32 18340205168012188212
5084963 1 18187083953154850768
528886 8 18266184005136744528
53812653 166 18263649630824294856
7364860 26 18334575711860385456
8809292 202 18272366434508089915

> <PUBCHEM_SHAPE_MULTIPOLES>
275.25
4.56
2.74
0.58
0
0.07
0
0.14
0
0
0
0
-0.04
0

> <PUBCHEM_SHAPE_SELFOVERLAP>
588.784

> <PUBCHEM_SHAPE_VOLUME>
154.1

> <PUBCHEM_COORDINATE_TYPE>
2
5
10

$$$$

