11068
  -OEChem-06261205172D

 50 52  0     1  0  0  0  0  0999 V2000
    3.9366    0.0000    0.0000 Br  0  0  0  0  0  0  0  0  0  0  0  0
    4.8029    6.8094    0.0000 O   0  0  0  0  0  0  0  0  0  0  0  0
    7.4670    8.2852    0.0000 O   0  0  0  0  0  0  0  0  0  0  0  0
    2.5960    4.8036    0.0000 N   0  0  3  0  0  0  0  0  0  0  0  0
    3.9369   10.3094    0.0000 N   0  0  0  0  0  0  0  0  0  0  0  0
    2.0960    5.6696    0.0000 C   0  0  3  0  0  0  0  0  0  0  0  0
    3.0709    6.8094    0.0000 C   0  0  3  0  0  0  0  0  0  0  0  0
    2.1049    7.0682    0.0000 C   0  0  0  0  0  0  0  0  0  0  0  0
    4.7867    5.2518    0.0000 C   0  0  3  0  0  0  0  0  0  0  0  0
    0.5229    4.4625    0.0000 C   0  0  0  0  0  0  0  0  0  0  0  0
    4.5279    4.2859    0.0000 C   0  0  0  0  0  0  0  0  0  0  0  0
    1.0229    3.5965    0.0000 C   0  0  0  0  0  0  0  0  0  0  0  0
    3.9369    7.3094    0.0000 C   0  0  3  0  0  0  0  0  0  0  0  0
    5.6527    5.7518    0.0000 C   0  0  0  0  0  0  0  0  0  0  0  0
    3.9369    8.3094    0.0000 C   0  0  0  0  0  0  0  0  0  0  0  0
    6.5188    5.2518    0.0000 C   0  0  0  0  0  0  0  0  0  0  0  0
    4.8029    8.8094    0.0000 C   0  0  0  0  0  0  0  0  0  0  0  0
    3.0709    8.8094    0.0000 C   0  0  0  0  0  0  0  0  0  0  0  0
    4.8029    9.8094    0.0000 C   0  0  0  0  0  0  0  0  0  0  0  0
    5.6969    8.2747    0.0000 C   0  0  0  0  0  0  0  0  0  0  0  0
    3.0709    9.8094    0.0000 C   0  0  0  0  0  0  0  0  0  0  0  0
    5.6969   10.3440    0.0000 C   0  0  0  0  0  0  0  0  0  0  0  0
    6.6029    8.7886    0.0000 C   0  0  0  0  0  0  0  0  0  0  0  0
    6.6029    9.8302    0.0000 C   0  0  0  0  0  0  0  0  0  0  0  0
    8.3350    8.7819    0.0000 C   0  0  0  0  0  0  0  0  0  0  0  0
    2.3065    4.8461    0.0000 H   0  0  0  0  0  0  0  0  0  0  0  0
    3.7527    6.3019    0.0000 H   0  0  0  0  0  0  0  0  0  0  0  0
    2.2139    7.6785    0.0000 H   0  0  0  0  0  0  0  0  0  0  0  0
    1.4875    7.1248    0.0000 H   0  0  0  0  0  0  0  0  0  0  0  0
    4.6305    6.0874    0.0000 H   0  0  0  0  0  0  0  0  0  0  0  0
    0.1673    4.9704    0.0000 H   0  0  0  0  0  0  0  0  0  0  0  0
    0.0000    4.1294    0.0000 H   0  0  0  0  0  0  0  0  0  0  0  0
    4.3674    3.6870    0.0000 H   0  0  0  0  0  0  0  0  0  0  0  0
    5.1268    4.1255    0.0000 H   0  0  0  0  0  0  0  0  0  0  0  0
    0.5000    3.2633    0.0000 H   0  0  0  0  0  0  0  0  0  0  0  0
    1.3785    3.0886    0.0000 H   0  0  0  0  0  0  0  0  0  0  0  0
    3.9369    6.4594    0.0000 H   0  0  0  0  0  0  0  0  0  0  0  0
    5.6527    6.3718    0.0000 H   0  0  0  0  0  0  0  0  0  0  0  0
    5.3399    7.1194    0.0000 H   0  0  0  0  0  0  0  0  0  0  0  0
    6.5188    4.6318    0.0000 H   0  0  0  0  0  0  0  0  0  0  0  0
    7.0557    5.5618    0.0000 H   0  0  0  0  0  0  0  0  0  0  0  0
    2.5339    8.4994    0.0000 H   0  0  0  0  0  0  0  0  0  0  0  0
    5.6897    7.6548    0.0000 H   0  0  0  0  0  0  0  0  0  0  0  0
    2.5339   10.1194    0.0000 H   0  0  0  0  0  0  0  0  0  0  0  0
    5.6897   10.9640    0.0000 H   0  0  0  0  0  0  0  0  0  0  0  0
    7.1387   10.1423    0.0000 H   0  0  0  0  0  0  0  0  0  0  0  0
    8.6429    8.2438    0.0000 H   0  0  0  0  0  0  0  0  0  0  0  0
    8.8731    9.0898    0.0000 H   0  0  0  0  0  0  0  0  0  0  0  0
    8.0270    9.3200    0.0000 H   0  0  0  0  0  0  0  0  0  0  0  0
    4.9366    0.0000    0.0000 H   0  0  0  0  0  0  0  0  0  0  0  0
  1 50  1  0  0  0  0
  2 13  1  0  0  0  0
  2 39  1  0  0  0  0
  3 23  1  0  0  0  0
  3 25  1  0  0  0  0
  4  7  1  0  0  0  0
  4 11  1  0  0  0  0
  4 12  1  0  0  0  0
  5 19  2  0  0  0  0
  5 21  1  0  0  0  0
  6  8  1  0  0  0  0
  6  9  1  0  0  0  0
  6 10  1  0  0  0  0
  6 26  1  0  0  0  0
  7  8  1  0  0  0  0
  7 13  1  0  0  0  0
  7 27  1  0  0  0  0
  8 28  1  0  0  0  0
  8 29  1  0  0  0  0
  9 11  1  0  0  0  0
  9 14  1  0  0  0  0
  9 30  1  0  0  0  0
 10 12  1  0  0  0  0
 10 31  1  0  0  0  0
 10 32  1  0  0  0  0
 11 33  1  0  0  0  0
 11 34  1  0  0  0  0
 12 35  1  0  0  0  0
 12 36  1  0  0  0  0
 13 15  1  0  0  0  0
 13 37  1  0  0  0  0
 14 16  2  0  0  0  0
 14 38  1  0  0  0  0
 15 17  2  0  0  0  0
 15 18  1  0  0  0  0
 16 40  1  0  0  0  0
 16 41  1  0  0  0  0
 17 19  1  0  0  0  0
 17 20  1  0  0  0  0
 18 21  2  0  0  0  0
 18 42  1  0  0  0  0
 19 22  1  0  0  0  0
 20 23  2  0  0  0  0
 20 43  1  0  0  0  0
 21 44  1  0  0  0  0
 22 24  2  0  0  0  0
 22 45  1  0  0  0  0
 23 24  1  0  0  0  0
 24 46  1  0  0  0  0
 25 47  1  0  0  0  0
 25 48  1  0  0  0  0
 25 49  1  0  0  0  0
M  END
> <PUBCHEM_COMPOUND_CID>
11068

> <PUBCHEM_COMPOUND_CANONICALIZED>
1

> <PUBCHEM_CACTVS_COMPLEXITY>
457

> <PUBCHEM_CACTVS_HBOND_ACCEPTOR>
4

> <PUBCHEM_CACTVS_HBOND_DONOR>
1

> <PUBCHEM_CACTVS_ROTATABLE_BOND>
4

> <PUBCHEM_CACTVS_SUBSKEYS>
AAADceB7MAAAEAAAAAAAAAAAAAAAAAAAAAA8WLFiAAAAAACx8AAAHgAACAAADTzhngY+xvMIFgCgAzRnRACCiCAxIiAI2CA+bJgONuLEsZuEcChkwBHY+Aew4PwOgEABAAACAAAAgAIAAAQAAAAAAAAAAA==

> <PUBCHEM_IUPAC_OPENEYE_NAME>
(6-methoxy-4-quinolyl)-(5-vinylquinuclidin-2-yl)methanol hydrobromide

> <PUBCHEM_IUPAC_CAS_NAME>
(5-ethenyl-1-azabicyclo[2.2.2]octan-2-yl)-(6-methoxy-4-quinolinyl)methanol hydrobromide

> <PUBCHEM_IUPAC_NAME>
(5-ethenyl-1-azabicyclo[2.2.2]octan-2-yl)-(6-methoxyquinolin-4-yl)methanol hydrobromide

> <PUBCHEM_IUPAC_SYSTEMATIC_NAME>
(5-ethenyl-1-azabicyclo[2.2.2]octan-2-yl)-(6-methoxyquinolin-4-yl)methanol hydrobromide

> <PUBCHEM_IUPAC_TRADITIONAL_NAME>
(6-methoxy-4-quinolyl)-(5-vinylquinuclidin-2-yl)methanol hydrobromide

> <PUBCHEM_IUPAC_INCHI>
InChI=1S/C20H24N2O2.BrH/c1-3-13-12-22-9-7-14(13)10-19(22)20(23)16-6-8-21-18-5-4-15(24-2)11-17(16)18;/h3-6,8,11,13-14,19-20,23H,1,7,9-10,12H2,2H3;1H

> <PUBCHEM_IUPAC_INCHIKEY>
HDZGBIRSORQVNB-UHFFFAOYSA-N

> <PUBCHEM_EXACT_MASS>
404.10994

> <PUBCHEM_MOLECULAR_FORMULA>
C20H25BrN2O2

> <PUBCHEM_MOLECULAR_WEIGHT>
405.3287

> <PUBCHEM_OPENEYE_CAN_SMILES>
COC1=CC2=C(C=CN=C2C=C1)C(C3CC4CCN3CC4C=C)O.Br

> <PUBCHEM_OPENEYE_ISO_SMILES>
COC1=CC2=C(C=CN=C2C=C1)C(C3CC4CCN3CC4C=C)O.Br

> <PUBCHEM_CACTVS_TPSA>
45.6

> <PUBCHEM_MONOISOTOPIC_WEIGHT>
404.10994

> <PUBCHEM_TOTAL_CHARGE>
0

> <PUBCHEM_HEAVY_ATOM_COUNT>
25

> <PUBCHEM_ATOM_DEF_STEREO_COUNT>
0

> <PUBCHEM_ATOM_UDEF_STEREO_COUNT>
4

> <PUBCHEM_BOND_DEF_STEREO_COUNT>
0

> <PUBCHEM_BOND_UDEF_STEREO_COUNT>
0

> <PUBCHEM_ISOTOPIC_ATOM_COUNT>
0

> <PUBCHEM_COMPONENT_COUNT>
2

> <PUBCHEM_CACTVS_TAUTO_COUNT>
1

> <PUBCHEM_COORDINATE_TYPE>
1
5
255

> <PUBCHEM_BONDANNOTATIONS>
13  37  3
15  17  8
15  18  8
17  19  8
17  20  8
18  21  8
19  22  8
20  23  8
22  24  8
23  24  8
5  19  8
5  21  8
6  26  3
7  27  3
9  30  3

$$$$

