50192
  -OEChem-07051212532D

105110  0     1  0  0  0  0  0999 V2000
   11.3541    2.0580    0.0000 O   0  0  0  0  0  0  0  0  0  0  0  0
    4.7042   -2.2495    0.0000 O   0  0  0  0  0  0  0  0  0  0  0  0
    9.7078    2.5961    0.0000 O   0  0  0  0  0  0  0  0  0  0  0  0
    5.5644   -3.7529    0.0000 O   0  0  0  0  0  0  0  0  0  0  0  0
   12.6271    0.3028    0.0000 N   0  0  0  0  0  0  0  0  0  0  0  0
    4.7203   -0.1579    0.0000 N   0  0  0  0  0  0  0  0  0  0  0  0
   14.6271    0.3028    0.0000 N   0  3  0  0  0  0  0  0  0  0  0  0
    2.9999    0.8620    0.0000 N   0  3  0  0  0  0  0  0  0  0  0  0
    9.2312   -0.6972    0.0000 C   0  0  2  0  0  0  0  0  0  0  0  0
    8.3652   -0.1972    0.0000 C   0  0  1  0  0  0  0  0  0  0  0  0
   10.0973   -0.1972    0.0000 C   0  0  1  0  0  0  0  0  0  0  0  0
   10.0973    0.8028    0.0000 C   0  0  2  0  0  0  0  0  0  0  0  0
    7.4552   -0.7041    0.0000 C   0  0  2  0  0  0  0  0  0  0  0  0
    7.4472   -1.7456    0.0000 C   0  0  1  0  0  0  0  0  0  0  0  0
    8.3652    0.8028    0.0000 C   0  0  0  0  0  0  0  0  0  0  0  0
    9.2312    1.3028    0.0000 C   0  0  0  0  0  0  0  0  0  0  0  0
   11.0435    1.1075    0.0000 C   0  0  2  0  0  0  0  0  0  0  0  0
   11.0435   -0.5019    0.0000 C   0  0  0  0  0  0  0  0  0  0  0  0
    9.2473   -1.7387    0.0000 C   0  0  0  0  0  0  0  0  0  0  0  0
   11.6271    0.3028    0.0000 C   0  0  2  0  0  0  0  0  0  0  0  0
    8.3493   -2.2665    0.0000 C   0  0  0  0  0  0  0  0  0  0  0  0
    6.5284   -0.1400    0.0000 C   0  0  0  0  0  0  0  0  0  0  0  0
    6.5118   -2.2954    0.0000 C   0  0  0  0  0  0  0  0  0  0  0  0
    5.5805   -0.6679    0.0000 C   0  0  1  0  0  0  0  0  0  0  0  0
   10.0973    1.8028    0.0000 C   0  0  0  0  0  0  0  0  0  0  0  0
    7.4629    0.2959    0.0000 C   0  0  0  0  0  0  0  0  0  0  0  0
    5.5721   -1.7529    0.0000 C   0  0  1  0  0  0  0  0  0  0  0  0
   13.1271   -0.5632    0.0000 C   0  0  0  0  0  0  0  0  0  0  0  0
   13.1271    1.1688    0.0000 C   0  0  0  0  0  0  0  0  0  0  0  0
    4.7319    0.8420    0.0000 C   0  0  0  0  0  0  0  0  0  0  0  0
    3.8486   -0.6479    0.0000 C   0  0  0  0  0  0  0  0  0  0  0  0
   14.1271   -0.5632    0.0000 C   0  0  0  0  0  0  0  0  0  0  0  0
   14.1271    1.1688    0.0000 C   0  0  0  0  0  0  0  0  0  0  0  0
    3.8717    1.3520    0.0000 C   0  0  0  0  0  0  0  0  0  0  0  0
    2.9884   -0.1379    0.0000 C   0  0  0  0  0  0  0  0  0  0  0  0
   10.6863    2.8024    0.0000 C   0  0  0  0  0  0  0  0  0  0  0  0
   15.4931   -0.1972    0.0000 C   0  0  0  0  0  0  0  0  0  0  0  0
   15.4931    0.8028    0.0000 C   0  0  0  0  0  0  0  0  0  0  0  0
    4.7003   -3.2495    0.0000 C   0  0  0  0  0  0  0  0  0  0  0  0
    2.0000    0.8736    0.0000 C   0  0  0  0  0  0  0  0  0  0  0  0
    2.5100    1.7338    0.0000 C   0  0  0  0  0  0  0  0  0  0  0  0
   10.9970    3.7529    0.0000 C   0  0  0  0  0  0  0  0  0  0  0  0
    3.8324   -3.7462    0.0000 C   0  0  0  0  0  0  0  0  0  0  0  0
    9.9706   -1.1165    0.0000 H   0  0  0  0  0  0  0  0  0  0  0  0
    9.1013    0.2278    0.0000 H   0  0  0  0  0  0  0  0  0  0  0  0
   10.1872   -1.0424    0.0000 H   0  0  0  0  0  0  0  0  0  0  0  0
    7.4505   -2.5956    0.0000 H   0  0  0  0  0  0  0  0  0  0  0  0
    8.1532    1.3854    0.0000 H   0  0  0  0  0  0  0  0  0  0  0  0
    7.7546    0.6951    0.0000 H   0  0  0  0  0  0  0  0  0  0  0  0
    9.6298    1.7777    0.0000 H   0  0  0  0  0  0  0  0  0  0  0  0
    8.8327    1.7777    0.0000 H   0  0  0  0  0  0  0  0  0  0  0  0
   11.6560    1.2037    0.0000 H   0  0  0  0  0  0  0  0  0  0  0  0
   10.7925   -1.0688    0.0000 H   0  0  0  0  0  0  0  0  0  0  0  0
   11.5809   -0.8112    0.0000 H   0  0  0  0  0  0  0  0  0  0  0  0
    9.4653   -2.3191    0.0000 H   0  0  0  0  0  0  0  0  0  0  0  0
    9.8564   -1.6232    0.0000 H   0  0  0  0  0  0  0  0  0  0  0  0
   11.9088   -0.2495    0.0000 H   0  0  0  0  0  0  0  0  0  0  0  0
    7.9520   -2.7424    0.0000 H   0  0  0  0  0  0  0  0  0  0  0  0
    8.7502   -2.7394    0.0000 H   0  0  0  0  0  0  0  0  0  0  0  0
    6.9366    0.3267    0.0000 H   0  0  0  0  0  0  0  0  0  0  0  0
    6.1384    0.3421    0.0000 H   0  0  0  0  0  0  0  0  0  0  0  0
    6.1144   -2.7714    0.0000 H   0  0  0  0  0  0  0  0  0  0  0  0
    6.9127   -2.7683    0.0000 H   0  0  0  0  0  0  0  0  0  0  0  0
    5.0406   -0.9727    0.0000 H   0  0  0  0  0  0  0  0  0  0  0  0
   10.7173    1.8028    0.0000 H   0  0  0  0  0  0  0  0  0  0  0  0
   10.0973    2.4228    0.0000 H   0  0  0  0  0  0  0  0  0  0  0  0
    9.4773    1.8028    0.0000 H   0  0  0  0  0  0  0  0  0  0  0  0
    8.0829    0.2911    0.0000 H   0  0  0  0  0  0  0  0  0  0  0  0
    7.4677    0.9159    0.0000 H   0  0  0  0  0  0  0  0  0  0  0  0
    6.8429    0.3007    0.0000 H   0  0  0  0  0  0  0  0  0  0  0  0
    5.5709   -2.3729    0.0000 H   0  0  0  0  0  0  0  0  0  0  0  0
   13.2348    1.7794    0.0000 H   0  0  0  0  0  0  0  0  0  0  0  0
   12.5445    1.3809    0.0000 H   0  0  0  0  0  0  0  0  0  0  0  0
   12.5445   -0.7753    0.0000 H   0  0  0  0  0  0  0  0  0  0  0  0
   13.2348   -1.1738    0.0000 H   0  0  0  0  0  0  0  0  0  0  0  0
    5.3412    0.7273    0.0000 H   0  0  0  0  0  0  0  0  0  0  0  0
    4.9506    1.4221    0.0000 H   0  0  0  0  0  0  0  0  0  0  0  0
    3.4446   -1.1182    0.0000 H   0  0  0  0  0  0  0  0  0  0  0  0
    4.2416   -1.1274    0.0000 H   0  0  0  0  0  0  0  0  0  0  0  0
   14.7097    1.3809    0.0000 H   0  0  0  0  0  0  0  0  0  0  0  0
   14.0194    1.7794    0.0000 H   0  0  0  0  0  0  0  0  0  0  0  0
   14.0194   -1.1738    0.0000 H   0  0  0  0  0  0  0  0  0  0  0  0
   14.7097   -0.7753    0.0000 H   0  0  0  0  0  0  0  0  0  0  0  0
    4.2757    1.8223    0.0000 H   0  0  0  0  0  0  0  0  0  0  0  0
    2.3791   -0.0232    0.0000 H   0  0  0  0  0  0  0  0  0  0  0  0
    2.7696   -0.7180    0.0000 H   0  0  0  0  0  0  0  0  0  0  0  0
    3.4787    1.8315    0.0000 H   0  0  0  0  0  0  0  0  0  0  0  0
   15.8031    0.2659    0.0000 H   0  0  0  0  0  0  0  0  0  0  0  0
   15.1831   -0.7341    0.0000 H   0  0  0  0  0  0  0  0  0  0  0  0
   16.0301   -0.5072    0.0000 H   0  0  0  0  0  0  0  0  0  0  0  0
   15.8031    0.3397    0.0000 H   0  0  0  0  0  0  0  0  0  0  0  0
   16.0301    1.1128    0.0000 H   0  0  0  0  0  0  0  0  0  0  0  0
   15.1831    1.3397    0.0000 H   0  0  0  0  0  0  0  0  0  0  0  0
    2.0072    1.4936    0.0000 H   0  0  0  0  0  0  0  0  0  0  0  0
    1.3800    0.8808    0.0000 H   0  0  0  0  0  0  0  0  0  0  0  0
    1.9928    0.2536    0.0000 H   0  0  0  0  0  0  0  0  0  0  0  0
    3.0505    2.0375    0.0000 H   0  0  0  0  0  0  0  0  0  0  0  0
    2.2062    2.2743    0.0000 H   0  0  0  0  0  0  0  0  0  0  0  0
    1.9695    1.4300    0.0000 H   0  0  0  0  0  0  0  0  0  0  0  0
   11.5863    3.5603    0.0000 H   0  0  0  0  0  0  0  0  0  0  0  0
   11.1896    4.3422    0.0000 H   0  0  0  0  0  0  0  0  0  0  0  0
   10.4076    3.9455    0.0000 H   0  0  0  0  0  0  0  0  0  0  0  0
    3.5244   -3.2081    0.0000 H   0  0  0  0  0  0  0  0  0  0  0  0
    3.2942   -4.0541    0.0000 H   0  0  0  0  0  0  0  0  0  0  0  0
    4.1403   -4.2843    0.0000 H   0  0  0  0  0  0  0  0  0  0  0  0
 17  1  1  1  0  0  0
  1 36  1  0  0  0  0
 27  2  1  6  0  0  0
  2 39  1  0  0  0  0
  3 36  2  0  0  0  0
  4 39  2  0  0  0  0
 20  5  1  1  0  0  0
  5 28  1  0  0  0  0
  5 29  1  0  0  0  0
 24  6  1  1  0  0  0
  6 30  1  0  0  0  0
  6 31  1  0  0  0  0
  7 32  1  0  0  0  0
  7 33  1  0  0  0  0
  7 37  1  0  0  0  0
  7 38  1  0  0  0  0
  8 34  1  0  0  0  0
  8 35  1  0  0  0  0
  8 40  1  0  0  0  0
  8 41  1  0  0  0  0
  9 10  1  0  0  0  0
  9 11  1  0  0  0  0
  9 19  1  0  0  0  0
  9 44  1  1  0  0  0
 10 13  1  0  0  0  0
 10 15  1  0  0  0  0
 10 45  1  6  0  0  0
 11 12  1  0  0  0  0
 11 18  1  0  0  0  0
 11 46  1  6  0  0  0
 12 16  1  0  0  0  0
 12 17  1  0  0  0  0
 12 25  1  1  0  0  0
 13 14  1  0  0  0  0
 13 22  1  0  0  0  0
 13 26  1  1  0  0  0
 14 21  1  0  0  0  0
 14 23  1  0  0  0  0
 14 47  1  6  0  0  0
 15 16  1  0  0  0  0
 15 48  1  0  0  0  0
 15 49  1  0  0  0  0
 16 50  1  0  0  0  0
 16 51  1  0  0  0  0
 17 20  1  0  0  0  0
 17 52  1  0  0  0  0
 18 20  1  0  0  0  0
 18 53  1  0  0  0  0
 18 54  1  0  0  0  0
 19 21  1  0  0  0  0
 19 55  1  0  0  0  0
 19 56  1  0  0  0  0
 20 57  1  0  0  0  0
 21 58  1  0  0  0  0
 21 59  1  0  0  0  0
 22 24  1  0  0  0  0
 22 60  1  0  0  0  0
 22 61  1  0  0  0  0
 23 27  1  0  0  0  0
 23 62  1  0  0  0  0
 23 63  1  0  0  0  0
 24 27  1  0  0  0  0
 24 64  1  0  0  0  0
 25 65  1  0  0  0  0
 25 66  1  0  0  0  0
 25 67  1  0  0  0  0
 26 68  1  0  0  0  0
 26 69  1  0  0  0  0
 26 70  1  0  0  0  0
 27 71  1  0  0  0  0
 28 32  1  0  0  0  0
 28 74  1  0  0  0  0
 28 75  1  0  0  0  0
 29 33  1  0  0  0  0
 29 72  1  0  0  0  0
 29 73  1  0  0  0  0
 30 34  1  0  0  0  0
 30 76  1  0  0  0  0
 30 77  1  0  0  0  0
 31 35  1  0  0  0  0
 31 78  1  0  0  0  0
 31 79  1  0  0  0  0
 32 82  1  0  0  0  0
 32 83  1  0  0  0  0
 33 80  1  0  0  0  0
 33 81  1  0  0  0  0
 34 84  1  0  0  0  0
 34 87  1  0  0  0  0
 35 85  1  0  0  0  0
 35 86  1  0  0  0  0
 36 42  1  0  0  0  0
 37 89  1  0  0  0  0
 37 90  1  0  0  0  0
 37 91  1  0  0  0  0
 38 88  1  0  0  0  0
 38 92  1  0  0  0  0
 38 93  1  0  0  0  0
 39 43  1  0  0  0  0
 40 94  1  0  0  0  0
 40 95  1  0  0  0  0
 40 96  1  0  0  0  0
 41 97  1  0  0  0  0
 41 98  1  0  0  0  0
 41 99  1  0  0  0  0
 42100  1  0  0  0  0
 42101  1  0  0  0  0
 42102  1  0  0  0  0
 43103  1  0  0  0  0
 43104  1  0  0  0  0
 43105  1  0  0  0  0
M  CHG  2   7   1   8   1
M  END
> <PUBCHEM_COMPOUND_CID>
50192

> <PUBCHEM_COMPOUND_CANONICALIZED>
1

> <PUBCHEM_CACTVS_COMPLEXITY>
1060

> <PUBCHEM_CACTVS_HBOND_ACCEPTOR>
6

> <PUBCHEM_CACTVS_HBOND_DONOR>
0

> <PUBCHEM_CACTVS_ROTATABLE_BOND>
6

> <PUBCHEM_CACTVS_SUBSKEYS>
AAADcfB/uAAAAAAAAAAAAAAAAAAAAYAAAAA8eMECAAAAAGDAAAAAHgAAAAAADzzhgAYCCAMABAAIAACQCAAAAAAAAAAAAAAIAAACQAIAgAAXAAAEAACQAAGQ0PIPgAAAAAAAAADQAAaAACAgAKAADAgAAA==

> <PUBCHEM_IUPAC_OPENEYE_NAME>
[(2S,3S,5S,8R,9S,10S,13S,14S,16S,17R)-17-acetoxy-2,16-bis(4,4-dimethylpiperazin-4-ium-1-yl)-10,13-dimethyl-2,3,4,5,6,7,8,9,11,12,14,15,16,17-tetradecahydro-1H-cyclopenta[a]phenanthren-3-yl] acetate

> <PUBCHEM_IUPAC_CAS_NAME>
acetic acid [(2S,3S,5S,8R,9S,10S,13S,14S,16S,17R)-17-acetyloxy-2,16-bis(4,4-dimethyl-1-piperazin-4-iumyl)-10,13-dimethyl-2,3,4,5,6,7,8,9,11,12,14,15,16,17-tetradecahydro-1H-cyclopenta[a]phenanthren-3-yl] ester

> <PUBCHEM_IUPAC_NAME>
[(2S,3S,5S,8R,9S,10S,13S,14S,16S,17R)-17-acetyloxy-2,16-bis(4,4-dimethylpiperazin-4-ium-1-yl)-10,13-dimethyl-2,3,4,5,6,7,8,9,11,12,14,15,16,17-tetradecahydro-1H-cyclopenta[a]phenanthren-3-yl] acetate

> <PUBCHEM_IUPAC_SYSTEMATIC_NAME>
[(2S,3S,5S,8R,9S,10S,13S,14S,16S,17R)-17-acetyloxy-2,16-bis(4,4-dimethylpiperazin-4-ium-1-yl)-10,13-dimethyl-2,3,4,5,6,7,8,9,11,12,14,15,16,17-tetradecahydro-1H-cyclopenta[a]phenanthren-3-yl] ethanoate

> <PUBCHEM_IUPAC_TRADITIONAL_NAME>
acetic acid [(2S,3S,5S,8R,9S,10S,13S,14S,16S,17R)-17-acetoxy-2,16-bis(4,4-dimethylpiperazin-4-ium-1-yl)-10,13-dimethyl-2,3,4,5,6,7,8,9,11,12,14,15,16,17-tetradecahydro-1H-cyclopenta[a]phenanthren-3-yl] ester

> <PUBCHEM_IUPAC_INCHI>
InChI=1S/C35H62N4O4/c1-24(40)42-32-21-26-9-10-27-28(35(26,4)23-31(32)37-15-19-39(7,8)20-16-37)11-12-34(3)29(27)22-30(33(34)43-25(2)41)36-13-17-38(5,6)18-14-36/h26-33H,9-23H2,1-8H3/q+2/t26-,27+,28-,29-,30-,31-,32-,33-,34-,35-/m0/s1

> <PUBCHEM_IUPAC_INCHIKEY>
OWWLUIWOFHMHOQ-XGHATYIMSA-N

> <PUBCHEM_XLOGP3_AA>
4.5

> <PUBCHEM_EXACT_MASS>
602.477106

> <PUBCHEM_MOLECULAR_FORMULA>
C35H62N4O4+2

> <PUBCHEM_MOLECULAR_WEIGHT>
602.89118

> <PUBCHEM_OPENEYE_CAN_SMILES>
CC(=O)OC1CC2CCC3C(C2(CC1N4CC[N+](CC4)(C)C)C)CCC5(C3CC(C5OC(=O)C)N6CC[N+](CC6)(C)C)C

> <PUBCHEM_OPENEYE_ISO_SMILES>
CC(=O)O[C@H]1C[C@@H]2CC[C@@H]3[C@@H]([C@]2(C[C@@H]1N4CC[N+](CC4)(C)C)C)CC[C@]5([C@H]3C[C@@H]([C@@H]5OC(=O)C)N6CC[N+](CC6)(C)C)C

> <PUBCHEM_CACTVS_TPSA>
59.1

> <PUBCHEM_MONOISOTOPIC_WEIGHT>
602.477106

> <PUBCHEM_TOTAL_CHARGE>
2

> <PUBCHEM_HEAVY_ATOM_COUNT>
43

> <PUBCHEM_ATOM_DEF_STEREO_COUNT>
10

> <PUBCHEM_ATOM_UDEF_STEREO_COUNT>
0

> <PUBCHEM_BOND_DEF_STEREO_COUNT>
0

> <PUBCHEM_BOND_UDEF_STEREO_COUNT>
0

> <PUBCHEM_ISOTOPIC_ATOM_COUNT>
0

> <PUBCHEM_COMPONENT_COUNT>
1

> <PUBCHEM_CACTVS_TAUTO_COUNT>
1

> <PUBCHEM_COORDINATE_TYPE>
1
5
255

> <PUBCHEM_BONDANNOTATIONS>
17  1  5
10  45  6
11  46  6
12  25  5
13  26  5
14  47  6
27  2  6
20  5  5
24  6  5
9  44  5

$$$$

