1788
  -OEChem-07051212513D

 45 47  0     0  0  0  0  0  0999 V2000
   -1.9107    2.6925   -0.8558 Cl  0  0  0  0  0  0  0  0  0  0  0  0
   -0.8276   -0.0648   -1.3641 O   0  0  0  0  0  0  0  0  0  0  0  0
    7.0488   -1.0223   -0.3932 O   0  0  0  0  0  0  0  0  0  0  0  0
   -6.7247   -1.1884    0.5562 O   0  0  0  0  0  0  0  0  0  0  0  0
   -6.8498    1.0886    0.7220 N   0  0  0  0  0  0  0  0  0  0  0  0
    8.2843   -0.3926   -0.4847 N   0  0  0  0  0  0  0  0  0  0  0  0
    2.5263   -0.8654    0.1283 C   0  0  0  0  0  0  0  0  0  0  0  0
    3.9186   -0.2707   -0.0900 C   0  0  0  0  0  0  0  0  0  0  0  0
    1.4798   -0.1596   -0.7313 C   0  0  0  0  0  0  0  0  0  0  0  0
    4.9616   -0.9569    0.7967 C   0  0  0  0  0  0  0  0  0  0  0  0
    0.0985   -0.7734   -0.5521 C   0  0  0  0  0  0  0  0  0  0  0  0
    6.3421   -0.3986    0.5596 C   0  0  0  0  0  0  0  0  0  0  0  0
   -2.1254   -0.0179   -0.9254 C   0  0  0  0  0  0  0  0  0  0  0  0
    7.0210    0.6146    1.1204 C   0  0  0  0  0  0  0  0  0  0  0  0
   -4.7617    0.0165   -0.0366 C   0  0  0  0  0  0  0  0  0  0  0  0
   -6.1547    0.0341    0.4334 C   0  0  0  0  0  0  0  0  0  0  0  0
    8.2442    0.5815    0.4287 C   0  0  0  0  0  0  0  0  0  0  0  0
   -2.7460    1.1969   -0.6536 C   0  0  0  0  0  0  0  0  0  0  0  0
   -2.8125   -1.2159   -0.7565 C   0  0  0  0  0  0  0  0  0  0  0  0
   -4.0677    1.2143   -0.2081 C   0  0  0  0  0  0  0  0  0  0  0  0
   -4.1341   -1.1987   -0.3107 C   0  0  0  0  0  0  0  0  0  0  0  0
   -8.0951   -0.9184    0.8055 C   0  0  0  0  0  0  0  0  0  0  0  0
   -8.1222    0.5390    1.2022 C   0  0  0  0  0  0  0  0  0  0  0  0
    9.4070    1.4655    0.6091 C   0  0  0  0  0  0  0  0  0  0  0  0
    2.2504   -0.7788    1.1863 H   0  0  0  0  0  0  0  0  0  0  0  0
    2.5431   -1.9347   -0.1153 H   0  0  0  0  0  0  0  0  0  0  0  0
    4.2016   -0.3751   -1.1453 H   0  0  0  0  0  0  0  0  0  0  0  0
    3.8995    0.8049    0.1268 H   0  0  0  0  0  0  0  0  0  0  0  0
    1.7621   -0.2073   -1.7905 H   0  0  0  0  0  0  0  0  0  0  0  0
    1.4397    0.9075   -0.4793 H   0  0  0  0  0  0  0  0  0  0  0  0
    4.6998   -0.8244    1.8535 H   0  0  0  0  0  0  0  0  0  0  0  0
    4.9704   -2.0363    0.6019 H   0  0  0  0  0  0  0  0  0  0  0  0
    0.1106   -1.8248   -0.8614 H   0  0  0  0  0  0  0  0  0  0  0  0
   -0.1903   -0.7222    0.5058 H   0  0  0  0  0  0  0  0  0  0  0  0
    6.7030    1.2844    1.9053 H   0  0  0  0  0  0  0  0  0  0  0  0
   -2.3398   -2.1694   -0.9751 H   0  0  0  0  0  0  0  0  0  0  0  0
   -8.6643   -1.1062   -0.1109 H   0  0  0  0  0  0  0  0  0  0  0  0
   -8.4737   -1.5699    1.5984 H   0  0  0  0  0  0  0  0  0  0  0  0
   -8.9771    1.0600    0.7609 H   0  0  0  0  0  0  0  0  0  0  0  0
   -8.1783    0.6521    2.2906 H   0  0  0  0  0  0  0  0  0  0  0  0
   -4.5504    2.1657    0.0039 H   0  0  0  0  0  0  0  0  0  0  0  0
   -4.6442   -2.1503   -0.1905 H   0  0  0  0  0  0  0  0  0  0  0  0
    9.2238    2.2104    1.3904 H   0  0  0  0  0  0  0  0  0  0  0  0
    9.6335    2.0017   -0.3183 H   0  0  0  0  0  0  0  0  0  0  0  0
   10.2914    0.8881    0.8976 H   0  0  0  0  0  0  0  0  0  0  0  0
  1 18  1  0  0  0  0
  2 11  1  0  0  0  0
  2 13  1  0  0  0  0
  3  6  1  0  0  0  0
  3 12  1  0  0  0  0
  4 16  1  0  0  0  0
  4 22  1  0  0  0  0
  5 16  2  0  0  0  0
  5 23  1  0  0  0  0
  6 17  2  0  0  0  0
  7  8  1  0  0  0  0
  7  9  1  0  0  0  0
  7 25  1  0  0  0  0
  7 26  1  0  0  0  0
  8 10  1  0  0  0  0
  8 27  1  0  0  0  0
  8 28  1  0  0  0  0
  9 11  1  0  0  0  0
  9 29  1  0  0  0  0
  9 30  1  0  0  0  0
 10 12  1  0  0  0  0
 10 31  1  0  0  0  0
 10 32  1  0  0  0  0
 11 33  1  0  0  0  0
 11 34  1  0  0  0  0
 12 14  2  0  0  0  0
 13 18  2  0  0  0  0
 13 19  1  0  0  0  0
 14 17  1  0  0  0  0
 14 35  1  0  0  0  0
 15 16  1  0  0  0  0
 15 20  2  0  0  0  0
 15 21  1  0  0  0  0
 17 24  1  0  0  0  0
 18 20  1  0  0  0  0
 19 21  2  0  0  0  0
 19 36  1  0  0  0  0
 20 41  1  0  0  0  0
 21 42  1  0  0  0  0
 22 23  1  0  0  0  0
 22 37  1  0  0  0  0
 22 38  1  0  0  0  0
 23 39  1  0  0  0  0
 23 40  1  0  0  0  0
 24 43  1  0  0  0  0
 24 44  1  0  0  0  0
 24 45  1  0  0  0  0
M  END
> <PUBCHEM_COMPOUND_CID>
1788

> <PUBCHEM_CONFORMER_RMSD>
1

> <PUBCHEM_CONFORMER_DIVERSEORDER>
1
145
304
121
164
154
40
264
292
21
136
54
106
42
221
4
286
273
23
149
90
33
64
227
133
103
108
309
118
6
283
190
200
52
57
131
279
114
80
96
86
300
101
253
78
250
270
325
179
139
152
281
61
213
223
291
62
183
67
217
311
203
138
56
176
263
306
278
89
248
172
178
126
259
82
194
97
41
233
284
7
55
39
189
237
3
298
302
29
314
319
115
144
261
17
156
151
294
268
171
34
148
215
241
303
98
8
44
275
163
228
165
140
100
113
208
255
249
141
251
45
162
59
76
60
327
16
135
73
258
66
93
102
51
94
310
134
2
271
27
288
49
301
24
242
128
186
111
160
99
71
169
120
12
295
123
18
26
230
92
175
214
166
50
25
180
195
83
236
37
323
265
11
72
125
257
220
244
32
84
229
287
110
53
231
234
218
132
47
170
58
87
119
150
254
158
91
198
74
297
318
193
267
10
225
262
232
15
206
201
235
48
187
197
19
109
280
240
157
307
117
31
199
65
313
207
188
285
224
142
159
320
290
105
222
209
79
289
308
143
321
13
205
28
299
293
211
124
239
22
75
155
276
137
196
77
324
266
174
191
274
116
245
36
70
226
81
43
35
184
104
30
129
316
326
204
269
315
185
272
219
243
46
181
112
246
147
68
9
127
192
305
88
317
130
168
153
282
322
256
5
182
260
210
247
38
252
277
14
146
122
216
238
161
95
328
20
202
177
69
312
173
85
167
63
107
296
212

> <PUBCHEM_MMFF94_PARTIAL_CHARGES>
25
1 -0.18
10 0.18
11 0.28
12 -0.04
13 0.08
14 -0.15
15 0.09
16 0.51
17 0.11
18 0.18
19 -0.15
2 -0.36
20 -0.15
21 -0.15
22 0.28
23 0.25
24 0.18
3 -0.02
35 0.15
36 0.15
4 -0.43
41 0.15
42 0.15
5 -0.7
6 -0.41

> <PUBCHEM_EFFECTIVE_ROTOR_COUNT>
8.6

> <PUBCHEM_PHARMACOPHORE_FEATURES>
6
1 2 acceptor
1 6 acceptor
4 7 8 9 10 hydrophobe
5 3 6 12 14 17 rings
5 4 5 16 22 23 rings
6 13 15 18 19 20 21 rings

> <PUBCHEM_HEAVY_ATOM_COUNT>
24

> <PUBCHEM_ATOM_DEF_STEREO_COUNT>
0

> <PUBCHEM_ATOM_UDEF_STEREO_COUNT>
0

> <PUBCHEM_BOND_DEF_STEREO_COUNT>
0

> <PUBCHEM_BOND_UDEF_STEREO_COUNT>
0

> <PUBCHEM_ISOTOPIC_ATOM_COUNT>
0

> <PUBCHEM_COMPONENT_COUNT>
1

> <PUBCHEM_CACTVS_TAUTO_COUNT>
1

> <PUBCHEM_CONFORMER_ID>
000006FC00000001

> <PUBCHEM_MMFF94_ENERGY>
47.1983

> <PUBCHEM_FEATURE_SELFOVERLAP>
30.446

> <PUBCHEM_SHAPE_FINGERPRINT>
10 15 18334013899619623435
10066227 49 11599737189815640704
10165383 225 17385443228764193343
10299344 5 18131349709086010314
10369192 42 17240485818548914549
106641 1 18273495658692953354
11315181 36 17917713517867615981
11638347 137 16702311174602278042
11719270 70 11240003365402821984
12082328 90 13254808936040421007
12643181 29 13973959892560208689
13073987 5 18059300984524703314
13177829 20 18272933821378648258
13885169 127 11383841475715041279
14117953 113 6771867389984127552
14150022 121 18187361082300807529
14251764 18 18060137643663542154
14251764 46 15482672381709798211
14617042 71 18261957328939843176
14849402 71 18200312118364185020
14933364 13 18260270746578665596
15183329 4 7348892183130828198
155225 1 16153420680602211355
15690457 1 13470691443216227256
15706992 2 17604140454576997346
18335252 98 18342458162692055490
2026 5 12966863363776305280
20721686 146 16878777357722149369
21095086 128 17346600811971337682
21095123 145 16298671595196094647
21095123 293 16950278507647927056
21150785 3 12103845652878050554
21315763 28 11743843569129732974
21360443 120 6627756582416808541
21585482 111 15575260121697514091
21795232 338 18116154376675588819
22224240 67 17988925574236354722
23576562 1 5977517505189224587
28498 318 7709462728098988968
3711267 37 17530958056508972648
5758199 1 18413390938770121946
5969126 39 14620801504801549679
6201320 82 5111191339015593347
636775 72 17749665316473629985
6394761 36 14345794946464550474
9953998 17 18408885123076549179
9962374 69 16558182701238169631

> <PUBCHEM_SHAPE_MULTIPOLES>
468.21
31.37
1.61
1.08
37.35
0.9
0.03
2.01
12.89
-0.83
-0.21
-0.45
0.08
0.67

> <PUBCHEM_SHAPE_SELFOVERLAP>
977.659

> <PUBCHEM_SHAPE_VOLUME>
267.2

> <PUBCHEM_COORDINATE_TYPE>
2
5
10

$$$$

