441038
  -OEChem-07051212513D

 34 34  0     1  0  0  0  0  0999 V2000
   -2.7021   -0.4788   -0.1644 O   0  0  0  0  0  0  0  0  0  0  0  0
    1.3515   -0.0413   -0.6988 O   0  0  0  0  0  0  0  0  0  0  0  0
   -0.2058    2.1848    0.2482 O   0  0  0  0  0  0  0  0  0  0  0  0
   -2.5402   -2.8014   -0.1931 O   0  0  0  0  0  0  0  0  0  0  0  0
   -4.4268    1.5633    0.4511 O   0  0  0  0  0  0  0  0  0  0  0  0
    4.4898    0.5553    0.9463 O   0  0  0  0  0  0  0  0  0  0  0  0
    3.6671   -1.2694   -0.1241 O   0  0  0  0  0  0  0  0  0  0  0  0
    0.3057   -2.6147    0.2249 N   0  0  0  0  0  0  0  0  0  0  0  0
    0.1441   -0.1751    0.0533 C   0  0  1  0  0  0  0  0  0  0  0  0
   -0.7820    0.9964   -0.2872 C   0  0  1  0  0  0  0  0  0  0  0  0
   -0.5117   -1.5154   -0.2969 C   0  0  2  0  0  0  0  0  0  0  0  0
   -2.1789    0.7682    0.2983 C   0  0  1  0  0  0  0  0  0  0  0  0
   -1.9321   -1.5986    0.2747 C   0  0  1  0  0  0  0  0  0  0  0  0
   -3.1646    1.8543   -0.1211 C   0  0  0  0  0  0  0  0  0  0  0  0
    2.3078    0.7413   -0.0020 C   0  0  2  0  0  0  0  0  0  0  0  0
    2.6475    1.9445   -0.8642 C   0  0  0  0  0  0  0  0  0  0  0  0
    3.5310   -0.1133    0.2551 C   0  0  0  0  0  0  0  0  0  0  0  0
    0.3591   -0.1724    1.1325 H   0  0  0  0  0  0  0  0  0  0  0  0
   -0.8291    1.1078   -1.3781 H   0  0  0  0  0  0  0  0  0  0  0  0
   -0.5489   -1.6279   -1.3882 H   0  0  0  0  0  0  0  0  0  0  0  0
   -2.1437    0.7477    1.3960 H   0  0  0  0  0  0  0  0  0  0  0  0
   -1.9224   -1.6255    1.3722 H   0  0  0  0  0  0  0  0  0  0  0  0
   -3.2886    1.8857   -1.2085 H   0  0  0  0  0  0  0  0  0  0  0  0
   -2.8547    2.8430    0.2277 H   0  0  0  0  0  0  0  0  0  0  0  0
    0.3591   -2.5536    1.2412 H   0  0  0  0  0  0  0  0  0  0  0  0
    1.2626   -2.5165   -0.1130 H   0  0  0  0  0  0  0  0  0  0  0  0
    1.9519    1.0812    0.9781 H   0  0  0  0  0  0  0  0  0  0  0  0
   -0.6853    2.9421   -0.1271 H   0  0  0  0  0  0  0  0  0  0  0  0
   -3.2382   -3.0336    0.4428 H   0  0  0  0  0  0  0  0  0  0  0  0
    3.1694    1.6284   -1.7756 H   0  0  0  0  0  0  0  0  0  0  0  0
    3.3047    2.6409   -0.3336 H   0  0  0  0  0  0  0  0  0  0  0  0
    1.7581    2.4871   -1.1939 H   0  0  0  0  0  0  0  0  0  0  0  0
   -4.6963    0.6831    0.1370 H   0  0  0  0  0  0  0  0  0  0  0  0
    5.2833   -0.0001    1.1014 H   0  0  0  0  0  0  0  0  0  0  0  0
  1 12  1  0  0  0  0
  1 13  1  0  0  0  0
  2  9  1  0  0  0  0
  2 15  1  0  0  0  0
  3 10  1  0  0  0  0
  3 28  1  0  0  0  0
  4 13  1  0  0  0  0
  4 29  1  0  0  0  0
  5 14  1  0  0  0  0
  5 33  1  0  0  0  0
  6 17  1  0  0  0  0
  6 34  1  0  0  0  0
  7 17  2  0  0  0  0
  8 11  1  0  0  0  0
  8 25  1  0  0  0  0
  8 26  1  0  0  0  0
  9 10  1  0  0  0  0
  9 11  1  0  0  0  0
  9 18  1  0  0  0  0
 10 12  1  0  0  0  0
 10 19  1  0  0  0  0
 11 13  1  0  0  0  0
 11 20  1  0  0  0  0
 12 14  1  0  0  0  0
 12 21  1  0  0  0  0
 13 22  1  0  0  0  0
 14 23  1  0  0  0  0
 14 24  1  0  0  0  0
 15 16  1  0  0  0  0
 15 17  1  0  0  0  0
 15 27  1  0  0  0  0
 16 30  1  0  0  0  0
 16 31  1  0  0  0  0
 16 32  1  0  0  0  0
M  END
> <PUBCHEM_COMPOUND_CID>
441038

> <PUBCHEM_CONFORMER_RMSD>
0.6

> <PUBCHEM_CONFORMER_DIVERSEORDER>
1
44
57
61
64
76
63
73
84
45
88
50
16
56
83
68
81
48
74
38
91
26
75
55
21
59
82
20
77
79
85
46
62
51
30
92
18
87
23
49
5
66
22
10
53
7
42
43
67
36
33
35
60
39
54
80
89
25
32
41
13
90
86
71
15
9
65
70
78
58
47
72
14
69
34
12
2
37
8
24
11
29
28
31
40
6
4
27
17
52
3
19

> <PUBCHEM_MMFF94_PARTIAL_CHARGES>
22
1 -0.56
10 0.28
11 0.27
12 0.28
13 0.56
14 0.28
15 0.34
17 0.66
2 -0.56
25 0.36
26 0.36
28 0.4
29 0.4
3 -0.68
33 0.4
34 0.5
4 -0.68
5 -0.68
6 -0.65
7 -0.57
8 -0.99
9 0.28

> <PUBCHEM_EFFECTIVE_ROTOR_COUNT>
5.2

> <PUBCHEM_PHARMACOPHORE_FEATURES>
14
1 1 acceptor
1 2 acceptor
1 3 acceptor
1 3 donor
1 4 acceptor
1 4 donor
1 5 acceptor
1 5 donor
1 6 acceptor
1 7 acceptor
1 8 cation
1 8 donor
3 6 7 17 anion
6 1 9 10 11 12 13 rings

> <PUBCHEM_HEAVY_ATOM_COUNT>
17

> <PUBCHEM_ATOM_DEF_STEREO_COUNT>
5

> <PUBCHEM_ATOM_UDEF_STEREO_COUNT>
1

> <PUBCHEM_BOND_DEF_STEREO_COUNT>
0

> <PUBCHEM_BOND_UDEF_STEREO_COUNT>
0

> <PUBCHEM_ISOTOPIC_ATOM_COUNT>
0

> <PUBCHEM_COMPONENT_COUNT>
1

> <PUBCHEM_CACTVS_TAUTO_COUNT>
1

> <PUBCHEM_CONFORMER_ID>
0006BACE00000001

> <PUBCHEM_MMFF94_ENERGY>
35.8181

> <PUBCHEM_FEATURE_SELFOVERLAP>
71.162

> <PUBCHEM_SHAPE_FINGERPRINT>
10967382 1 18267020750607179454
11132069 177 18410294722141154152
11680986 33 18195515111654847619
12251169 10 18343020012458706620
12500047 106 18335427850504094072
12553582 1 17833264221041159934
12592029 89 18199743807652378483
13140716 1 18412262822274740368
13380535 76 18336827597531069335
13544592 145 18189328147267426070
14178342 30 18341066142037049778
14897335 6 18337674221463338279
15196674 1 18410293622982915210
15442244 35 18341613690026542868
16945 1 18339632468467141805
17804303 29 18336542824246367614
17846911 113 18335703887741328873
18186145 218 18337672013644588980
18511873 20 18343584066271347112
20510252 161 18262233305175902483
20645476 183 17915436355707493700
20711985 365 18339643326381927238
21501502 16 18269552737102903300
21524375 3 18410292553651953653
2334 1 18339073766252187444
23402539 116 18261121802221306853
23419403 2 16951983738919217331
23463225 33 18413670205906256246
23557571 272 18113896018630718262
23558518 356 18128535951197639680
23559900 14 18261110803558712574
23598291 2 17989203699233188828
2748010 2 18194945560710901007
335352 9 18266739267346613150
5104073 3 18411987927752261392
53812653 166 18334577979476478473
69090 78 18410577318331058909
6992083 37 18131350786816892460
7364860 26 17974286826436705399
81228 2 18054798286444657409
9709674 26 18334292067809328038

> <PUBCHEM_SHAPE_MULTIPOLES>
303.79
6.9
2.72
0.73
2.63
1.05
0.01
-2
-1.08
-1.67
0.14
0.29
-0.12
-0.37

> <PUBCHEM_SHAPE_SELFOVERLAP>
608.189

> <PUBCHEM_SHAPE_VOLUME>
176.2

> <PUBCHEM_COORDINATE_TYPE>
2
5
10

$$$$

