11953832
  -OEChem-07051212492D

 86 88  0     1  0  0  0  0  0999 V2000
   10.3988    2.2030    0.0000 P   0  0  0  0  0  0  0  0  0  0  0  0
    7.6316    0.0938    0.0000 O   0  0  0  0  0  0  0  0  0  0  0  0
    5.8520    0.0006    0.0000 O   0  0  0  0  0  0  0  0  0  0  0  0
    6.0794    2.1642    0.0000 O   0  0  0  0  0  0  0  0  0  0  0  0
    7.5928    2.6812    0.0000 O   0  0  0  0  0  0  0  0  0  0  0  0
    7.2384    3.4514    0.0000 O   0  0  0  0  0  0  0  0  0  0  0  0
    7.5841   -0.9994    0.0000 O   0  0  0  0  0  0  0  0  0  0  0  0
    4.1200   -2.9994    0.0000 O   0  0  0  0  0  0  0  0  0  0  0  0
    7.5841   -2.9994    0.0000 O   0  0  0  0  0  0  0  0  0  0  0  0
    9.5328    1.7030    0.0000 O   0  0  0  0  0  0  0  0  0  0  0  0
    5.0090    5.4588    0.0000 O   0  0  0  0  0  0  0  0  0  0  0  0
    6.9111    6.0768    0.0000 O   0  0  0  0  0  0  0  0  0  0  0  0
    9.1405    4.0694    0.0000 O   0  0  0  0  0  0  0  0  0  0  0  0
   11.2648    2.7030    0.0000 O   0  0  0  0  0  0  0  0  0  0  0  0
   10.8988    1.3370    0.0000 O   0  0  0  0  0  0  0  0  0  0  0  0
    9.8988    3.0690    0.0000 O   0  0  0  0  0  0  0  0  0  0  0  0
    4.1200   -0.9994    0.0000 N   0  0  0  0  0  0  0  0  0  0  0  0
    4.5932    3.5025    0.0000 N   0  0  0  0  0  0  0  0  0  0  0  0
    5.8520   -3.9994    0.0000 N   0  0  0  0  0  0  0  0  0  0  0  0
    2.6200   -0.1333    0.0000 N   0  0  0  0  0  0  0  0  0  0  0  0
    2.6200   -1.8655    0.0000 N   0  0  0  0  0  0  0  0  0  0  0  0
    5.8520   -5.7315    0.0000 N   0  0  0  0  0  0  0  0  0  0  0  0
    7.3520   -4.8654    0.0000 N   0  0  0  0  0  0  0  0  0  0  0  0
    7.8008    1.7030    0.0000 C   0  0  1  0  0  0  0  0  0  0  0  0
    6.8226    1.4951    0.0000 C   0  0  2  0  0  0  0  0  0  0  0  0
    6.7181    0.5006    0.0000 C   0  0  1  0  0  0  0  0  0  0  0  0
    8.3008    0.8370    0.0000 C   0  0  2  0  0  0  0  0  0  0  0  0
    5.8520   -0.9994    0.0000 C   0  0  2  0  0  0  0  0  0  0  0  0
    4.9860   -1.4994    0.0000 C   0  0  2  0  0  0  0  0  0  0  0  0
    6.7181   -1.4994    0.0000 C   0  0  1  0  0  0  0  0  0  0  0  0
    4.9860   -2.4994    0.0000 C   0  0  1  0  0  0  0  0  0  0  0  0
    6.7181   -2.4994    0.0000 C   0  0  2  0  0  0  0  0  0  0  0  0
    5.8520   -2.9994    0.0000 C   0  0  2  0  0  0  0  0  0  0  0  0
    8.6668    2.2030    0.0000 C   0  0  0  0  0  0  0  0  0  0  0  0
    6.2874    3.1424    0.0000 C   0  0  2  0  0  0  0  0  0  0  0  0
    5.5442    3.8115    0.0000 C   0  0  2  0  0  0  0  0  0  0  0  0
    5.7521    4.7896    0.0000 C   0  0  1  0  0  0  0  0  0  0  0  0
    9.2953    0.7325    0.0000 C   0  0  0  0  0  0  0  0  0  0  0  0
    6.7032    5.0987    0.0000 C   0  0  2  0  0  0  0  0  0  0  0  0
    7.4463    4.4295    0.0000 C   0  0  2  0  0  0  0  0  0  0  0  0
    8.3974    4.7386    0.0000 C   0  0  0  0  0  0  0  0  0  0  0  0
    3.1200   -0.9994    0.0000 C   0  0  0  0  0  0  0  0  0  0  0  0
    3.8500    4.1716    0.0000 C   0  0  0  0  0  0  0  0  0  0  0  0
    6.3520   -4.8654    0.0000 C   0  0  0  0  0  0  0  0  0  0  0  0
    6.9831    2.0940    0.0000 H   0  0  0  0  0  0  0  0  0  0  0  0
    6.7505   -0.1186    0.0000 H   0  0  0  0  0  0  0  0  0  0  0  0
    8.5229    0.2582    0.0000 H   0  0  0  0  0  0  0  0  0  0  0  0
    6.3890   -0.6894    0.0000 H   0  0  0  0  0  0  0  0  0  0  0  0
    4.9860   -0.8794    0.0000 H   0  0  0  0  0  0  0  0  0  0  0  0
    6.7181   -0.8794    0.0000 H   0  0  0  0  0  0  0  0  0  0  0  0
    4.9860   -3.1194    0.0000 H   0  0  0  0  0  0  0  0  0  0  0  0
    6.7181   -3.1194    0.0000 H   0  0  0  0  0  0  0  0  0  0  0  0
    6.3890   -3.3094    0.0000 H   0  0  0  0  0  0  0  0  0  0  0  0
    9.0653    2.6780    0.0000 H   0  0  0  0  0  0  0  0  0  0  0  0
    8.2682    2.6780    0.0000 H   0  0  0  0  0  0  0  0  0  0  0  0
    5.6977    2.9508    0.0000 H   0  0  0  0  0  0  0  0  0  0  0  0
    5.4153    3.2051    0.0000 H   0  0  0  0  0  0  0  0  0  0  0  0
    5.1625    4.5981    0.0000 H   0  0  0  0  0  0  0  0  0  0  0  0
    9.2305    0.1159    0.0000 H   0  0  0  0  0  0  0  0  0  0  0  0
    9.9119    0.6676    0.0000 H   0  0  0  0  0  0  0  0  0  0  0  0
    9.3601    1.3491    0.0000 H   0  0  0  0  0  0  0  0  0  0  0  0
    7.2928    5.2903    0.0000 H   0  0  0  0  0  0  0  0  0  0  0  0
    7.9071    4.0147    0.0000 H   0  0  0  0  0  0  0  0  0  0  0  0
    7.0032    2.8728    0.0000 H   0  0  0  0  0  0  0  0  0  0  0  0
    8.1210   -1.3094    0.0000 H   0  0  0  0  0  0  0  0  0  0  0  0
    4.4643    2.8960    0.0000 H   0  0  0  0  0  0  0  0  0  0  0  0
    4.1200   -3.6194    0.0000 H   0  0  0  0  0  0  0  0  0  0  0  0
    8.1210   -2.6894    0.0000 H   0  0  0  0  0  0  0  0  0  0  0  0
    8.8860    5.1203    0.0000 H   0  0  0  0  0  0  0  0  0  0  0  0
    8.1063    5.2860    0.0000 H   0  0  0  0  0  0  0  0  0  0  0  0
    5.1379    6.0652    0.0000 H   0  0  0  0  0  0  0  0  0  0  0  0
    7.5008    6.2684    0.0000 H   0  0  0  0  0  0  0  0  0  0  0  0
    4.2649    4.6324    0.0000 H   0  0  0  0  0  0  0  0  0  0  0  0
    3.3893    4.5865    0.0000 H   0  0  0  0  0  0  0  0  0  0  0  0
    3.4352    3.7109    0.0000 H   0  0  0  0  0  0  0  0  0  0  0  0
    9.7302    4.2610    0.0000 H   0  0  0  0  0  0  0  0  0  0  0  0
    2.0000   -1.8655    0.0000 H   0  0  0  0  0  0  0  0  0  0  0  0
    2.9300   -2.4024    0.0000 H   0  0  0  0  0  0  0  0  0  0  0  0
    2.0000   -0.1333    0.0000 H   0  0  0  0  0  0  0  0  0  0  0  0
    2.9300    0.4035    0.0000 H   0  0  0  0  0  0  0  0  0  0  0  0
    5.2320   -5.7315    0.0000 H   0  0  0  0  0  0  0  0  0  0  0  0
    6.1620   -6.2684    0.0000 H   0  0  0  0  0  0  0  0  0  0  0  0
    7.6620   -5.4024    0.0000 H   0  0  0  0  0  0  0  0  0  0  0  0
    7.6620   -4.3285    0.0000 H   0  0  0  0  0  0  0  0  0  0  0  0
   11.8018    2.3930    0.0000 H   0  0  0  0  0  0  0  0  0  0  0  0
   11.5188    1.3370    0.0000 H   0  0  0  0  0  0  0  0  0  0  0  0
  1 10  1  0  0  0  0
  1 14  1  0  0  0  0
  1 15  1  0  0  0  0
  1 16  2  0  0  0  0
  2 26  1  0  0  0  0
  2 27  1  0  0  0  0
 26  3  1  1  0  0  0
 28  3  1  1  0  0  0
 25  4  1  6  0  0  0
 35  4  1  1  0  0  0
 24  5  1  6  0  0  0
  5 64  1  0  0  0  0
  6 35  1  0  0  0  0
  6 40  1  0  0  0  0
 30  7  1  6  0  0  0
  7 65  1  0  0  0  0
 31  8  1  1  0  0  0
  8 67  1  0  0  0  0
 32  9  1  1  0  0  0
  9 68  1  0  0  0  0
 10 34  1  0  0  0  0
 37 11  1  6  0  0  0
 11 71  1  0  0  0  0
 39 12  1  1  0  0  0
 12 72  1  0  0  0  0
 13 41  1  0  0  0  0
 13 76  1  0  0  0  0
 14 85  1  0  0  0  0
 15 86  1  0  0  0  0
 29 17  1  6  0  0  0
 17 42  2  0  0  0  0
 36 18  1  1  0  0  0
 18 43  1  0  0  0  0
 18 66  1  0  0  0  0
 33 19  1  6  0  0  0
 19 44  2  0  0  0  0
 20 42  1  0  0  0  0
 20 79  1  0  0  0  0
 20 80  1  0  0  0  0
 21 42  1  0  0  0  0
 21 77  1  0  0  0  0
 21 78  1  0  0  0  0
 22 44  1  0  0  0  0
 22 81  1  0  0  0  0
 22 82  1  0  0  0  0
 23 44  1  0  0  0  0
 23 83  1  0  0  0  0
 23 84  1  0  0  0  0
 24 25  1  0  0  0  0
 24 27  1  0  0  0  0
 24 34  1  0  0  0  0
 25 26  1  0  0  0  0
 25 45  1  0  0  0  0
 26 46  1  0  0  0  0
 27 38  1  6  0  0  0
 27 47  1  0  0  0  0
 28 29  1  0  0  0  0
 28 30  1  0  0  0  0
 28 48  1  0  0  0  0
 29 31  1  0  0  0  0
 29 49  1  0  0  0  0
 30 32  1  0  0  0  0
 30 50  1  0  0  0  0
 31 33  1  0  0  0  0
 31 51  1  0  0  0  0
 32 33  1  0  0  0  0
 32 52  1  0  0  0  0
 33 53  1  0  0  0  0
 34 54  1  0  0  0  0
 34 55  1  0  0  0  0
 35 36  1  0  0  0  0
 35 56  1  0  0  0  0
 36 37  1  0  0  0  0
 36 57  1  0  0  0  0
 37 39  1  0  0  0  0
 37 58  1  0  0  0  0
 38 59  1  0  0  0  0
 38 60  1  0  0  0  0
 38 61  1  0  0  0  0
 39 40  1  0  0  0  0
 39 62  1  0  0  0  0
 40 41  1  6  0  0  0
 40 63  1  0  0  0  0
 41 69  1  0  0  0  0
 41 70  1  0  0  0  0
 43 73  1  0  0  0  0
 43 74  1  0  0  0  0
 43 75  1  0  0  0  0
M  END
> <PUBCHEM_COMPOUND_CID>
11953832

> <PUBCHEM_COMPOUND_CANONICALIZED>
1

> <PUBCHEM_CACTVS_COMPLEXITY>
1080

> <PUBCHEM_CACTVS_HBOND_ACCEPTOR>
18

> <PUBCHEM_CACTVS_HBOND_DONOR>
14

> <PUBCHEM_CACTVS_ROTATABLE_BOND>
11

> <PUBCHEM_CACTVS_SUBSKEYS>
AAADcfB7vAIAAAAAAAAAAAAAAAAAASAAAAA0QAAAAAAAAAAAAAAAHgAQCCAADHzxgAcDCALABxAgQAAAJIAAAAEAAAAAAIAIAAATEAIAwAAnQAAHEAAXAAHwcA8KAAAAAAAAAAACgAAUCACgAAAAAAAAAA==

> <PUBCHEM_IUPAC_OPENEYE_NAME>
[(2S,3R,4R,5R)-5-[(1R,2S,3R,4R,5S,6R)-2,4-diguanidino-3,5,6-trihydroxy-cyclohexoxy]-4-[(2S,3S,4S,5R,6S)-4,5-dihydroxy-6-(hydroxymethyl)-3-(methylamino)tetrahydropyran-2-yl]oxy-3-hydroxy-2-methyl-tetrahydrofuran-3-yl]methyl dihydrogen phosphate

> <PUBCHEM_IUPAC_CAS_NAME>
[(2S,3R,4R,5R)-5-[(1R,2S,3R,4R,5S,6R)-2,4-bis(diaminomethylideneamino)-3,5,6-trihydroxycyclohexyl]oxy-4-[[(2S,3S,4S,5R,6S)-4,5-dihydroxy-6-(hydroxymethyl)-3-(methylamino)-2-oxanyl]oxy]-3-hydroxy-2-methyl-3-oxolanyl]methyl dihydrogen phosphate

> <PUBCHEM_IUPAC_NAME>
[(2S,3R,4R,5R)-5-[(1R,2S,3R,4R,5S,6R)-2,4-bis(diaminomethylideneamino)-3,5,6-trihydroxycyclohexyl]oxy-4-[(2S,3S,4S,5R,6S)-4,5-dihydroxy-6-(hydroxymethyl)-3-(methylamino)oxan-2-yl]oxy-3-hydroxy-2-methyloxolan-3-yl]methyl dihydrogen phosphate

> <PUBCHEM_IUPAC_SYSTEMATIC_NAME>
[(2S,3R,4R,5R)-5-[(1R,2S,3R,4R,5S,6R)-2,4-bis[bis(azanyl)methylideneamino]-3,5,6-tris(oxidanyl)cyclohexyl]oxy-4-[(2S,3S,4S,5R,6S)-6-(hydroxymethyl)-3-(methylamino)-4,5-bis(oxidanyl)oxan-2-yl]oxy-2-methyl-3-oxidanyl-oxolan-3-yl]methyl dihydrogen phosphate

> <PUBCHEM_IUPAC_TRADITIONAL_NAME>
[(2S,3R,4R,5R)-5-[(1R,2S,3R,4R,5S,6R)-2,4-diguanidino-3,5,6-trihydroxy-cyclohexoxy]-4-[(2S,3S,4S,5R,6S)-4,5-dihydroxy-3-(methylamino)-6-methylol-tetrahydropyran-2-yl]oxy-3-hydroxy-2-methyl-tetrahydrofuran-3-yl]methyl dihydrogen phosphate

> <PUBCHEM_IUPAC_INCHI>
InChI=1S/C21H42N7O15P/c1-5-21(35,4-39-44(36,37)38)16(43-17-9(26-2)13(33)10(30)6(3-29)41-17)18(40-5)42-15-8(28-20(24)25)11(31)7(27-19(22)23)12(32)14(15)34/h5-18,26,29-35H,3-4H2,1-2H3,(H4,22,23,27)(H4,24,25,28)(H2,36,37,38)/t5-,6-,7+,8-,9-,10-,11+,12-,13-,14+,15+,16-,17-,18-,21+/m0/s1

> <PUBCHEM_IUPAC_INCHIKEY>
SEGYNYCECWFUID-HZYVHMACSA-N

> <PUBCHEM_XLOGP3_AA>
-11.6

> <PUBCHEM_EXACT_MASS>
663.24765

> <PUBCHEM_MOLECULAR_FORMULA>
C21H42N7O15P

> <PUBCHEM_MOLECULAR_WEIGHT>
663.569842

> <PUBCHEM_OPENEYE_CAN_SMILES>
CC1C(C(C(O1)OC2C(C(C(C(C2O)O)N=C(N)N)O)N=C(N)N)OC3C(C(C(C(O3)CO)O)O)NC)(COP(=O)(O)O)O

> <PUBCHEM_OPENEYE_ISO_SMILES>
C[C@H]1[C@@]([C@H]([C@@H](O1)O[C@@H]2[C@H]([C@@H]([C@H]([C@@H]([C@H]2O)O)N=C(N)N)O)N=C(N)N)O[C@H]3[C@H]([C@@H]([C@H]([C@@H](O3)CO)O)O)NC)(COP(=O)(O)O)O

> <PUBCHEM_CACTVS_TPSA>
386

> <PUBCHEM_MONOISOTOPIC_WEIGHT>
663.24765

> <PUBCHEM_TOTAL_CHARGE>
0

> <PUBCHEM_HEAVY_ATOM_COUNT>
44

> <PUBCHEM_ATOM_DEF_STEREO_COUNT>
15

> <PUBCHEM_ATOM_UDEF_STEREO_COUNT>
0

> <PUBCHEM_BOND_DEF_STEREO_COUNT>
0

> <PUBCHEM_BOND_UDEF_STEREO_COUNT>
0

> <PUBCHEM_ISOTOPIC_ATOM_COUNT>
0

> <PUBCHEM_COMPONENT_COUNT>
1

> <PUBCHEM_CACTVS_TAUTO_COUNT>
4

> <PUBCHEM_COORDINATE_TYPE>
1
5
255

> <PUBCHEM_BONDANNOTATIONS>
37  11  6
39  12  5
29  17  6
36  18  5
33  19  6
27  38  6
26  3  5
28  3  5
25  4  6
35  4  5
40  41  6
24  5  6
30  7  6
31  8  5
32  9  5

$$$$

