442052
  -OEChem-07051212562D

 54 55  0     1  0  0  0  0  0999 V2000
    2.0000    0.4973    0.0000 O   0  0  0  0  0  0  0  0  0  0  0  0
    6.3175   -3.0471    0.0000 O   0  0  0  0  0  0  0  0  0  0  0  0
    4.5981    0.9973    0.0000 C   0  0  1  0  0  0  0  0  0  0  0  0
    4.5981    1.9973    0.0000 C   0  0  2  0  0  0  0  0  0  0  0  0
    3.7320    2.4973    0.0000 C   0  0  0  0  0  0  0  0  0  0  0  0
    5.4920    0.4626    0.0000 C   0  0  2  0  0  0  0  0  0  0  0  0
    5.4920    2.5320    0.0000 C   0  0  0  0  0  0  0  0  0  0  0  0
    3.7320    0.4973    0.0000 C   0  0  0  0  0  0  0  0  0  0  0  0
    2.8660    1.9973    0.0000 C   0  0  0  0  0  0  0  0  0  0  0  0
    6.3981    2.0181    0.0000 C   0  0  0  0  0  0  0  0  0  0  0  0
    6.3981    0.9765    0.0000 C   0  0  0  0  0  0  0  0  0  0  0  0
    4.5981   -0.0027    0.0000 C   0  0  0  0  0  0  0  0  0  0  0  0
    5.4804   -0.5373    0.0000 C   0  0  0  0  0  0  0  0  0  0  0  0
    2.8660    0.9973    0.0000 C   0  0  0  0  0  0  0  0  0  0  0  0
    3.2320    3.3633    0.0000 C   0  0  0  0  0  0  0  0  0  0  0  0
    4.2320    3.3633    0.0000 C   0  0  0  0  0  0  0  0  0  0  0  0
    6.3406   -1.0473    0.0000 C   0  0  0  0  0  0  0  0  0  0  0  0
    7.2622    0.4732    0.0000 C   0  0  0  0  0  0  0  0  0  0  0  0
    6.3291   -2.0472    0.0000 C   0  0  2  0  0  0  0  0  0  0  0  0
    5.3291   -2.0356    0.0000 C   0  0  0  0  0  0  0  0  0  0  0  0
    7.3290   -2.0588    0.0000 C   0  0  0  0  0  0  0  0  0  0  0  0
    7.8190   -2.9305    0.0000 C   0  0  0  0  0  0  0  0  0  0  0  0
    4.5915    2.8473    0.0000 H   0  0  0  0  0  0  0  0  0  0  0  0
    4.9510    0.1599    0.0000 H   0  0  0  0  0  0  0  0  0  0  0  0
    5.8856    3.0110    0.0000 H   0  0  0  0  0  0  0  0  0  0  0  0
    5.0874    3.0018    0.0000 H   0  0  0  0  0  0  0  0  0  0  0  0
    3.3335    0.0224    0.0000 H   0  0  0  0  0  0  0  0  0  0  0  0
    4.1306    0.0224    0.0000 H   0  0  0  0  0  0  0  0  0  0  0  0
    2.6540    2.5799    0.0000 H   0  0  0  0  0  0  0  0  0  0  0  0
    2.2554    1.8896    0.0000 H   0  0  0  0  0  0  0  0  0  0  0  0
    7.0089    1.9120    0.0000 H   0  0  0  0  0  0  0  0  0  0  0  0
    6.6071    2.6018    0.0000 H   0  0  0  0  0  0  0  0  0  0  0  0
    3.9781   -0.0027    0.0000 H   0  0  0  0  0  0  0  0  0  0  0  0
    4.5981   -0.6227    0.0000 H   0  0  0  0  0  0  0  0  0  0  0  0
    5.2181   -0.0027    0.0000 H   0  0  0  0  0  0  0  0  0  0  0  0
    4.8712   -0.4226    0.0000 H   0  0  0  0  0  0  0  0  0  0  0  0
    5.2617   -1.1174    0.0000 H   0  0  0  0  0  0  0  0  0  0  0  0
    3.7690    3.6733    0.0000 H   0  0  0  0  0  0  0  0  0  0  0  0
    2.9220    3.9003    0.0000 H   0  0  0  0  0  0  0  0  0  0  0  0
    2.6951    3.0533    0.0000 H   0  0  0  0  0  0  0  0  0  0  0  0
    4.7690    3.0533    0.0000 H   0  0  0  0  0  0  0  0  0  0  0  0
    4.5420    3.9003    0.0000 H   0  0  0  0  0  0  0  0  0  0  0  0
    3.6951    3.6733    0.0000 H   0  0  0  0  0  0  0  0  0  0  0  0
    6.9499   -1.1620    0.0000 H   0  0  0  0  0  0  0  0  0  0  0  0
    6.5594   -0.4672    0.0000 H   0  0  0  0  0  0  0  0  0  0  0  0
    7.2598   -0.1468    0.0000 H   0  0  0  0  0  0  0  0  0  0  0  0
    7.8003    0.7811    0.0000 H   0  0  0  0  0  0  0  0  0  0  0  0
    5.3363   -1.4157    0.0000 H   0  0  0  0  0  0  0  0  0  0  0  0
    4.7092   -2.0285    0.0000 H   0  0  0  0  0  0  0  0  0  0  0  0
    5.3220   -2.6556    0.0000 H   0  0  0  0  0  0  0  0  0  0  0  0
    7.6452   -1.5254    0.0000 H   0  0  0  0  0  0  0  0  0  0  0  0
    6.8508   -3.3633    0.0000 H   0  0  0  0  0  0  0  0  0  0  0  0
    7.5028   -3.4638    0.0000 H   0  0  0  0  0  0  0  0  0  0  0  0
    8.4389   -2.9377    0.0000 H   0  0  0  0  0  0  0  0  0  0  0  0
  1 14  2  0  0  0  0
 19  2  1  1  0  0  0
  2 52  1  0  0  0  0
  3  4  1  0  0  0  0
  3  6  1  0  0  0  0
  3  8  1  0  0  0  0
  3 12  1  6  0  0  0
  4  5  1  0  0  0  0
  4  7  1  0  0  0  0
  4 23  1  1  0  0  0
  5  9  1  0  0  0  0
  5 15  1  0  0  0  0
  5 16  1  0  0  0  0
  6 11  1  0  0  0  0
  6 13  1  6  0  0  0
  6 24  1  0  0  0  0
  7 10  1  0  0  0  0
  7 25  1  0  0  0  0
  7 26  1  0  0  0  0
  8 14  1  0  0  0  0
  8 27  1  0  0  0  0
  8 28  1  0  0  0  0
  9 14  1  0  0  0  0
  9 29  1  0  0  0  0
  9 30  1  0  0  0  0
 10 11  1  0  0  0  0
 10 31  1  0  0  0  0
 10 32  1  0  0  0  0
 11 18  2  0  0  0  0
 12 33  1  0  0  0  0
 12 34  1  0  0  0  0
 12 35  1  0  0  0  0
 13 17  1  0  0  0  0
 13 36  1  0  0  0  0
 13 37  1  0  0  0  0
 15 38  1  0  0  0  0
 15 39  1  0  0  0  0
 15 40  1  0  0  0  0
 16 41  1  0  0  0  0
 16 42  1  0  0  0  0
 16 43  1  0  0  0  0
 17 19  1  0  0  0  0
 17 44  1  0  0  0  0
 17 45  1  0  0  0  0
 18 46  1  0  0  0  0
 18 47  1  0  0  0  0
 19 20  1  0  0  0  0
 19 21  1  0  0  0  0
 20 48  1  0  0  0  0
 20 49  1  0  0  0  0
 20 50  1  0  0  0  0
 21 22  2  0  0  0  0
 21 51  1  0  0  0  0
 22 53  1  0  0  0  0
 22 54  1  0  0  0  0
M  END
> <PUBCHEM_COMPOUND_CID>
442052

> <PUBCHEM_COMPOUND_CANONICALIZED>
1

> <PUBCHEM_CACTVS_COMPLEXITY>
490

> <PUBCHEM_CACTVS_HBOND_ACCEPTOR>
2

> <PUBCHEM_CACTVS_HBOND_DONOR>
1

> <PUBCHEM_CACTVS_ROTATABLE_BOND>
4

> <PUBCHEM_CACTVS_SUBSKEYS>
AAADcfB4MAAAAAAAAAAAAAAAAAAAAAAAAAAwYAAAAAAAAADAAAAAGgAACAAAD0SAgAACAAAAAgCIAqBSAAAAAAAgAAAIAAEAAAgABBIAAQAAQAAEgAAAEAGIyPCPgAAAAAAAAAAAAAQAACAAAAAAAAAAAA==

> <PUBCHEM_IUPAC_OPENEYE_NAME>
(4aS,8S,8aS)-8-[(3S)-3-hydroxy-3-methyl-pent-4-enyl]-4,4,8a-trimethyl-7-methylene-decalin-2-one

> <PUBCHEM_IUPAC_CAS_NAME>
(4aS,8S,8aS)-8-[(3S)-3-hydroxy-3-methylpent-4-enyl]-4,4,8a-trimethyl-7-methylene-1,3,4a,5,6,8-hexahydronaphthalen-2-one

> <PUBCHEM_IUPAC_NAME>
(4aS,8S,8aS)-8-[(3S)-3-hydroxy-3-methylpent-4-enyl]-4,4,8a-trimethyl-7-methylidene-1,3,4a,5,6,8-hexahydronaphthalen-2-one

> <PUBCHEM_IUPAC_SYSTEMATIC_NAME>
(4aS,8S,8aS)-4,4,8a-trimethyl-7-methylidene-8-[(3S)-3-methyl-3-oxidanyl-pent-4-enyl]-1,3,4a,5,6,8-hexahydronaphthalen-2-one

> <PUBCHEM_IUPAC_TRADITIONAL_NAME>
(4aS,8S,8aS)-8-[(3S)-3-hydroxy-3-methyl-pent-4-enyl]-4,4,8a-trimethyl-7-methylene-decalin-2-one

> <PUBCHEM_IUPAC_INCHI>
InChI=1S/C20H32O2/c1-7-19(5,22)11-10-16-14(2)8-9-17-18(3,4)12-15(21)13-20(16,17)6/h7,16-17,22H,1-2,8-13H2,3-6H3/t16-,17-,19+,20+/m0/s1

> <PUBCHEM_IUPAC_INCHIKEY>
UPIJHQOLJKUYGG-RAUXBKROSA-N

> <PUBCHEM_XLOGP3_AA>
3.8

> <PUBCHEM_EXACT_MASS>
304.24023

> <PUBCHEM_MOLECULAR_FORMULA>
C20H32O2

> <PUBCHEM_MOLECULAR_WEIGHT>
304.46688

> <PUBCHEM_OPENEYE_CAN_SMILES>
CC1(CC(=O)CC2(C1CCC(=C)C2CCC(C)(C=C)O)C)C

> <PUBCHEM_OPENEYE_ISO_SMILES>
C[C@]12CC(=O)CC([C@@H]1CCC(=C)[C@@H]2CC[C@@](C)(C=C)O)(C)C

> <PUBCHEM_CACTVS_TPSA>
37.3

> <PUBCHEM_MONOISOTOPIC_WEIGHT>
304.24023

> <PUBCHEM_TOTAL_CHARGE>
0

> <PUBCHEM_HEAVY_ATOM_COUNT>
22

> <PUBCHEM_ATOM_DEF_STEREO_COUNT>
4

> <PUBCHEM_ATOM_UDEF_STEREO_COUNT>
0

> <PUBCHEM_BOND_DEF_STEREO_COUNT>
0

> <PUBCHEM_BOND_UDEF_STEREO_COUNT>
0

> <PUBCHEM_ISOTOPIC_ATOM_COUNT>
0

> <PUBCHEM_COMPONENT_COUNT>
1

> <PUBCHEM_CACTVS_TAUTO_COUNT>
3

> <PUBCHEM_COORDINATE_TYPE>
1
5
255

> <PUBCHEM_BONDANNOTATIONS>
19  2  5
3  12  6
4  23  5
6  13  6

$$$$

