60172
  -OEChem-07051213012D

 30 31  0     0  0  0  0  0  0999 V2000
    7.5673   -2.6502    0.0000 P   0  0  0  0  0  0  0  0  0  0  0  0
    6.2781   -1.4934    0.0000 O   0  0  0  0  0  0  0  0  0  0  0  0
    7.8779   -3.6007    0.0000 O   0  0  0  0  0  0  0  0  0  0  0  0
    8.5178   -2.3395    0.0000 O   0  0  0  0  0  0  0  0  0  0  0  0
    6.6168   -2.9608    0.0000 O   0  0  0  0  0  0  0  0  0  0  0  0
    4.6783    0.6138    0.0000 N   0  0  0  0  0  0  0  0  0  0  0  0
    4.6783    2.2233    0.0000 N   0  0  0  0  0  0  0  0  0  0  0  0
    2.8660    0.4186    0.0000 N   0  0  0  0  0  0  0  0  0  0  0  0
    2.0000    1.9186    0.0000 N   0  0  0  0  0  0  0  0  0  0  0  0
    2.8660    3.4186    0.0000 N   0  0  0  0  0  0  0  0  0  0  0  0
    4.9889   -0.3367    0.0000 C   0  0  0  0  0  0  0  0  0  0  0  0
    5.9674   -0.5429    0.0000 C   0  0  0  0  0  0  0  0  0  0  0  0
    3.7320    0.9186    0.0000 C   0  0  0  0  0  0  0  0  0  0  0  0
    3.7320    1.9186    0.0000 C   0  0  0  0  0  0  0  0  0  0  0  0
    5.2619    1.4186    0.0000 C   0  0  0  0  0  0  0  0  0  0  0  0
    7.2566   -1.6997    0.0000 C   0  0  0  0  0  0  0  0  0  0  0  0
    2.8660    2.4186    0.0000 C   0  0  0  0  0  0  0  0  0  0  0  0
    2.0000    0.9186    0.0000 C   0  0  0  0  0  0  0  0  0  0  0  0
    4.3751   -0.4240    0.0000 H   0  0  0  0  0  0  0  0  0  0  0  0
    4.9684   -0.9564    0.0000 H   0  0  0  0  0  0  0  0  0  0  0  0
    6.5812   -0.4556    0.0000 H   0  0  0  0  0  0  0  0  0  0  0  0
    5.9880    0.0767    0.0000 H   0  0  0  0  0  0  0  0  0  0  0  0
    5.8819    1.4186    0.0000 H   0  0  0  0  0  0  0  0  0  0  0  0
    7.8704   -1.6123    0.0000 H   0  0  0  0  0  0  0  0  0  0  0  0
    7.2772   -1.0800    0.0000 H   0  0  0  0  0  0  0  0  0  0  0  0
    1.4631    0.6086    0.0000 H   0  0  0  0  0  0  0  0  0  0  0  0
    2.3291    3.7286    0.0000 H   0  0  0  0  0  0  0  0  0  0  0  0
    3.4030    3.7286    0.0000 H   0  0  0  0  0  0  0  0  0  0  0  0
    8.4846   -3.7286    0.0000 H   0  0  0  0  0  0  0  0  0  0  0  0
    8.6456   -1.7328    0.0000 H   0  0  0  0  0  0  0  0  0  0  0  0
  1  3  1  0  0  0  0
  1  4  1  0  0  0  0
  1  5  2  0  0  0  0
  1 16  1  0  0  0  0
  2 12  1  0  0  0  0
  2 16  1  0  0  0  0
  3 29  1  0  0  0  0
  4 30  1  0  0  0  0
  6 11  1  0  0  0  0
  6 13  1  0  0  0  0
  6 15  1  0  0  0  0
  7 14  1  0  0  0  0
  7 15  2  0  0  0  0
  8 13  1  0  0  0  0
  8 18  2  0  0  0  0
  9 17  2  0  0  0  0
  9 18  1  0  0  0  0
 10 17  1  0  0  0  0
 10 27  1  0  0  0  0
 10 28  1  0  0  0  0
 11 12  1  0  0  0  0
 11 19  1  0  0  0  0
 11 20  1  0  0  0  0
 12 21  1  0  0  0  0
 12 22  1  0  0  0  0
 13 14  2  0  0  0  0
 14 17  1  0  0  0  0
 15 23  1  0  0  0  0
 16 24  1  0  0  0  0
 16 25  1  0  0  0  0
 18 26  1  0  0  0  0
M  END
> <PUBCHEM_COMPOUND_CID>
60172

> <PUBCHEM_COMPOUND_CANONICALIZED>
1

> <PUBCHEM_CACTVS_COMPLEXITY>
327

> <PUBCHEM_CACTVS_HBOND_ACCEPTOR>
8

> <PUBCHEM_CACTVS_HBOND_DONOR>
3

> <PUBCHEM_CACTVS_ROTATABLE_BOND>
5

> <PUBCHEM_CACTVS_SUBSKEYS>
AAADccBzuAIAAAAAAAAAAAAAAAAAAWAAAAAsAAAAAAAAAFgB+AAAHggQCCAACAjhlwYF8L9MFBCgQQZhZICAgC0REKABUCAoVBCCSABASEAVBAgIAALQACAAAAAAAAAAAAAAAAAAAAAAAAAAAAAAAAAAAA==

> <PUBCHEM_IUPAC_OPENEYE_NAME>
2-(6-aminopurin-9-yl)ethoxymethylphosphonic acid

> <PUBCHEM_IUPAC_CAS_NAME>
2-(6-aminopurin-9-yl)ethoxymethylphosphonic acid

> <PUBCHEM_IUPAC_NAME>
2-(6-aminopurin-9-yl)ethoxymethylphosphonic acid

> <PUBCHEM_IUPAC_SYSTEMATIC_NAME>
2-(6-aminopurin-9-yl)ethoxymethylphosphonic acid

> <PUBCHEM_IUPAC_TRADITIONAL_NAME>
2-adenin-9-ylethoxymethylphosphonic acid

> <PUBCHEM_IUPAC_INCHI>
InChI=1S/C8H12N5O4P/c9-7-6-8(11-3-10-7)13(4-12-6)1-2-17-5-18(14,15)16/h3-4H,1-2,5H2,(H2,9,10,11)(H2,14,15,16)

> <PUBCHEM_IUPAC_INCHIKEY>
SUPKOOSCJHTBAH-UHFFFAOYSA-N

> <PUBCHEM_XLOGP3>
-2

> <PUBCHEM_EXACT_MASS>
273.062691

> <PUBCHEM_MOLECULAR_FORMULA>
C8H12N5O4P

> <PUBCHEM_MOLECULAR_WEIGHT>
273.185742

> <PUBCHEM_OPENEYE_CAN_SMILES>
C1=NC2=C(C(=N1)N)N=CN2CCOCP(=O)(O)O

> <PUBCHEM_OPENEYE_ISO_SMILES>
C1=NC2=C(C(=N1)N)N=CN2CCOCP(=O)(O)O

> <PUBCHEM_CACTVS_TPSA>
136

> <PUBCHEM_MONOISOTOPIC_WEIGHT>
273.062691

> <PUBCHEM_TOTAL_CHARGE>
0

> <PUBCHEM_HEAVY_ATOM_COUNT>
18

> <PUBCHEM_ATOM_DEF_STEREO_COUNT>
0

> <PUBCHEM_ATOM_UDEF_STEREO_COUNT>
0

> <PUBCHEM_BOND_DEF_STEREO_COUNT>
0

> <PUBCHEM_BOND_UDEF_STEREO_COUNT>
0

> <PUBCHEM_ISOTOPIC_ATOM_COUNT>
0

> <PUBCHEM_COMPONENT_COUNT>
1

> <PUBCHEM_CACTVS_TAUTO_COUNT>
3

> <PUBCHEM_COORDINATE_TYPE>
1
5
255

> <PUBCHEM_BONDANNOTATIONS>
13  14  8
14  17  8
6  13  8
6  15  8
7  14  8
7  15  8
8  13  8
8  18  8
9  17  8
9  18  8

$$$$

