442978
  -OEChem-07051213002D

 64 67  0     1  0  0  0  0  0999 V2000
    2.5357   -2.7092    0.0000 O   0  0  0  0  0  0  0  0  0  0  0  0
   10.1642    1.8046    0.0000 N   0  0  0  0  0  0  0  0  0  0  0  0
    7.9288    0.3431    0.0000 C   0  0  1  0  0  0  0  0  0  0  0  0
    7.9288   -0.6569    0.0000 C   0  0  2  0  0  0  0  0  0  0  0  0
    7.0628   -1.1569    0.0000 C   0  0  1  0  0  0  0  0  0  0  0  0
    6.1968   -0.6569    0.0000 C   0  0  1  0  0  0  0  0  0  0  0  0
    8.8750    0.6478    0.0000 C   0  0  2  0  0  0  0  0  0  0  0  0
    7.0628    0.8431    0.0000 C   0  0  0  0  0  0  0  0  0  0  0  0
    5.2868   -1.1638    0.0000 C   0  0  2  0  0  0  0  0  0  0  0  0
    8.8750   -0.9616    0.0000 C   0  0  0  0  0  0  0  0  0  0  0  0
    6.1968    0.3431    0.0000 C   0  0  0  0  0  0  0  0  0  0  0  0
    9.4586   -0.1569    0.0000 C   0  0  0  0  0  0  0  0  0  0  0  0
    7.0789   -2.1984    0.0000 C   0  0  0  0  0  0  0  0  0  0  0  0
    7.9288    1.3431    0.0000 C   0  0  0  0  0  0  0  0  0  0  0  0
    9.1857    1.5983    0.0000 C   0  0  2  0  0  0  0  0  0  0  0  0
    5.2787   -2.2054    0.0000 C   0  0  0  0  0  0  0  0  0  0  0  0
    4.3599   -0.5997    0.0000 C   0  0  0  0  0  0  0  0  0  0  0  0
    6.1808   -2.7262    0.0000 C   0  0  0  0  0  0  0  0  0  0  0  0
    5.2945   -0.1638    0.0000 C   0  0  0  0  0  0  0  0  0  0  0  0
    4.3433   -2.7551    0.0000 C   0  0  0  0  0  0  0  0  0  0  0  0
    3.4120   -1.1276    0.0000 C   0  0  0  0  0  0  0  0  0  0  0  0
    3.4037   -2.2126    0.0000 C   0  0  2  0  0  0  0  0  0  0  0  0
    8.5179    2.3426    0.0000 C   0  0  0  0  0  0  0  0  0  0  0  0
   10.4749    2.7551    0.0000 C   0  0  0  0  0  0  0  0  0  0  0  0
   10.8321    1.0603    0.0000 C   0  0  0  0  0  0  0  0  0  0  0  0
    8.0188   -1.5021    0.0000 H   0  0  0  0  0  0  0  0  0  0  0  0
    7.8022   -1.5762    0.0000 H   0  0  0  0  0  0  0  0  0  0  0  0
    6.9329   -0.2319    0.0000 H   0  0  0  0  0  0  0  0  0  0  0  0
    9.7148    0.7797    0.0000 H   0  0  0  0  0  0  0  0  0  0  0  0
    7.4613    1.3180    0.0000 H   0  0  0  0  0  0  0  0  0  0  0  0
    6.6643    1.3180    0.0000 H   0  0  0  0  0  0  0  0  0  0  0  0
    8.6240   -1.5286    0.0000 H   0  0  0  0  0  0  0  0  0  0  0  0
    9.4124   -1.2709    0.0000 H   0  0  0  0  0  0  0  0  0  0  0  0
    5.9847    0.9257    0.0000 H   0  0  0  0  0  0  0  0  0  0  0  0
    5.5862    0.2354    0.0000 H   0  0  0  0  0  0  0  0  0  0  0  0
    9.9195   -0.5716    0.0000 H   0  0  0  0  0  0  0  0  0  0  0  0
    9.9195    0.2578    0.0000 H   0  0  0  0  0  0  0  0  0  0  0  0
    7.2969   -2.7788    0.0000 H   0  0  0  0  0  0  0  0  0  0  0  0
    7.6880   -2.0829    0.0000 H   0  0  0  0  0  0  0  0  0  0  0  0
    8.5488    1.3431    0.0000 H   0  0  0  0  0  0  0  0  0  0  0  0
    7.9288    1.9631    0.0000 H   0  0  0  0  0  0  0  0  0  0  0  0
    7.3088    1.3431    0.0000 H   0  0  0  0  0  0  0  0  0  0  0  0
    9.3783    2.1877    0.0000 H   0  0  0  0  0  0  0  0  0  0  0  0
    4.7681   -0.1330    0.0000 H   0  0  0  0  0  0  0  0  0  0  0  0
    3.9700   -0.1176    0.0000 H   0  0  0  0  0  0  0  0  0  0  0  0
    6.1832   -3.3462    0.0000 H   0  0  0  0  0  0  0  0  0  0  0  0
    5.9145   -0.1686    0.0000 H   0  0  0  0  0  0  0  0  0  0  0  0
    5.2993    0.4562    0.0000 H   0  0  0  0  0  0  0  0  0  0  0  0
    4.6745   -0.1590    0.0000 H   0  0  0  0  0  0  0  0  0  0  0  0
    3.9460   -3.2311    0.0000 H   0  0  0  0  0  0  0  0  0  0  0  0
    4.7443   -3.2280    0.0000 H   0  0  0  0  0  0  0  0  0  0  0  0
    3.2075   -0.5423    0.0000 H   0  0  0  0  0  0  0  0  0  0  0  0
    2.8004   -1.2290    0.0000 H   0  0  0  0  0  0  0  0  0  0  0  0
    3.4025   -2.8326    0.0000 H   0  0  0  0  0  0  0  0  0  0  0  0
    8.9793    2.7567    0.0000 H   0  0  0  0  0  0  0  0  0  0  0  0
    8.1038    2.8041    0.0000 H   0  0  0  0  0  0  0  0  0  0  0  0
    8.0564    1.9286    0.0000 H   0  0  0  0  0  0  0  0  0  0  0  0
   11.0642    2.5625    0.0000 H   0  0  0  0  0  0  0  0  0  0  0  0
   10.6675    3.3444    0.0000 H   0  0  0  0  0  0  0  0  0  0  0  0
    9.8856    2.9477    0.0000 H   0  0  0  0  0  0  0  0  0  0  0  0
   10.3706    0.6462    0.0000 H   0  0  0  0  0  0  0  0  0  0  0  0
   11.2461    0.5988    0.0000 H   0  0  0  0  0  0  0  0  0  0  0  0
   11.2935    1.4743    0.0000 H   0  0  0  0  0  0  0  0  0  0  0  0
    2.0000   -2.3972    0.0000 H   0  0  0  0  0  0  0  0  0  0  0  0
 22  1  1  1  0  0  0
  1 64  1  0  0  0  0
 15  2  1  6  0  0  0
  2 24  1  0  0  0  0
  2 25  1  0  0  0  0
  3  4  1  0  0  0  0
  3  7  1  0  0  0  0
  3  8  1  0  0  0  0
  3 14  1  1  0  0  0
  4  5  1  0  0  0  0
  4 10  1  0  0  0  0
  4 26  1  6  0  0  0
  5  6  1  0  0  0  0
  5 13  1  0  0  0  0
  5 27  1  1  0  0  0
  6  9  1  0  0  0  0
  6 11  1  0  0  0  0
  6 28  1  6  0  0  0
  7 12  1  0  0  0  0
  7 15  1  0  0  0  0
  7 29  1  6  0  0  0
  8 11  1  0  0  0  0
  8 30  1  0  0  0  0
  8 31  1  0  0  0  0
  9 16  1  0  0  0  0
  9 17  1  0  0  0  0
  9 19  1  1  0  0  0
 10 12  1  0  0  0  0
 10 32  1  0  0  0  0
 10 33  1  0  0  0  0
 11 34  1  0  0  0  0
 11 35  1  0  0  0  0
 12 36  1  0  0  0  0
 12 37  1  0  0  0  0
 13 18  1  0  0  0  0
 13 38  1  0  0  0  0
 13 39  1  0  0  0  0
 14 40  1  0  0  0  0
 14 41  1  0  0  0  0
 14 42  1  0  0  0  0
 15 23  1  0  0  0  0
 15 43  1  0  0  0  0
 16 18  2  0  0  0  0
 16 20  1  0  0  0  0
 17 21  1  0  0  0  0
 17 44  1  0  0  0  0
 17 45  1  0  0  0  0
 18 46  1  0  0  0  0
 19 47  1  0  0  0  0
 19 48  1  0  0  0  0
 19 49  1  0  0  0  0
 20 22  1  0  0  0  0
 20 50  1  0  0  0  0
 20 51  1  0  0  0  0
 21 22  1  0  0  0  0
 21 52  1  0  0  0  0
 21 53  1  0  0  0  0
 22 54  1  0  0  0  0
 23 55  1  0  0  0  0
 23 56  1  0  0  0  0
 23 57  1  0  0  0  0
 24 58  1  0  0  0  0
 24 59  1  0  0  0  0
 24 60  1  0  0  0  0
 25 61  1  0  0  0  0
 25 62  1  0  0  0  0
 25 63  1  0  0  0  0
M  END
> <PUBCHEM_COMPOUND_CID>
442978

> <PUBCHEM_COMPOUND_CANONICALIZED>
1

> <PUBCHEM_CACTVS_COMPLEXITY>
554

> <PUBCHEM_CACTVS_HBOND_ACCEPTOR>
2

> <PUBCHEM_CACTVS_HBOND_DONOR>
1

> <PUBCHEM_CACTVS_ROTATABLE_BOND>
2

> <PUBCHEM_CACTVS_SUBSKEYS>
AAADcfB6IAAAAAAAAAAAAAAAAAAAAYAAAAAwYIAAAAAAAGCAAAAAHgAACAAADzzhgAYCAAMAAgCAAiBCAAAAAAAgAAAACAAIAAgAEAIAgQAEQAAEwAAIAAOQwPAPgAAAAAAAAADAAAQAACAAAQAACAAAAA==

> <PUBCHEM_IUPAC_OPENEYE_NAME>
(3S,8S,9S,10R,13S,14S,17S)-17-[(1S)-1-(dimethylamino)ethyl]-10,13-dimethyl-2,3,4,7,8,9,11,12,14,15,16,17-dodecahydro-1H-cyclopenta[a]phenanthren-3-ol

> <PUBCHEM_IUPAC_CAS_NAME>
(3S,8S,9S,10R,13S,14S,17S)-17-[(1S)-1-(dimethylamino)ethyl]-10,13-dimethyl-2,3,4,7,8,9,11,12,14,15,16,17-dodecahydro-1H-cyclopenta[a]phenanthren-3-ol

> <PUBCHEM_IUPAC_NAME>
(3S,8S,9S,10R,13S,14S,17S)-17-[(1S)-1-(dimethylamino)ethyl]-10,13-dimethyl-2,3,4,7,8,9,11,12,14,15,16,17-dodecahydro-1H-cyclopenta[a]phenanthren-3-ol

> <PUBCHEM_IUPAC_SYSTEMATIC_NAME>
(3S,8S,9S,10R,13S,14S,17S)-17-[(1S)-1-(dimethylamino)ethyl]-10,13-dimethyl-2,3,4,7,8,9,11,12,14,15,16,17-dodecahydro-1H-cyclopenta[a]phenanthren-3-ol

> <PUBCHEM_IUPAC_TRADITIONAL_NAME>
(3S,8S,9S,10R,13S,14S,17S)-17-[(1S)-1-(dimethylamino)ethyl]-10,13-dimethyl-2,3,4,7,8,9,11,12,14,15,16,17-dodecahydro-1H-cyclopenta[a]phenanthren-3-ol

> <PUBCHEM_IUPAC_INCHI>
InChI=1S/C23H39NO/c1-15(24(4)5)19-8-9-20-18-7-6-16-14-17(25)10-12-22(16,2)21(18)11-13-23(19,20)3/h6,15,17-21,25H,7-14H2,1-5H3/t15-,17-,18-,19+,20-,21-,22-,23+/m0/s1

> <PUBCHEM_IUPAC_INCHIKEY>
UJGXCOFZMJCRLN-VBFLNORGSA-N

> <PUBCHEM_XLOGP3>
5.3

> <PUBCHEM_EXACT_MASS>
345.303165

> <PUBCHEM_MOLECULAR_FORMULA>
C23H39NO

> <PUBCHEM_MOLECULAR_WEIGHT>
345.56186

> <PUBCHEM_OPENEYE_CAN_SMILES>
CC(C1CCC2C1(CCC3C2CC=C4C3(CCC(C4)O)C)C)N(C)C

> <PUBCHEM_OPENEYE_ISO_SMILES>
C[C@@H]([C@H]1CC[C@@H]2[C@@]1(CC[C@H]3[C@H]2CC=C4[C@@]3(CC[C@@H](C4)O)C)C)N(C)C

> <PUBCHEM_CACTVS_TPSA>
23.5

> <PUBCHEM_MONOISOTOPIC_WEIGHT>
345.303165

> <PUBCHEM_TOTAL_CHARGE>
0

> <PUBCHEM_HEAVY_ATOM_COUNT>
25

> <PUBCHEM_ATOM_DEF_STEREO_COUNT>
8

> <PUBCHEM_ATOM_UDEF_STEREO_COUNT>
0

> <PUBCHEM_BOND_DEF_STEREO_COUNT>
0

> <PUBCHEM_BOND_UDEF_STEREO_COUNT>
0

> <PUBCHEM_ISOTOPIC_ATOM_COUNT>
0

> <PUBCHEM_COMPONENT_COUNT>
1

> <PUBCHEM_CACTVS_TAUTO_COUNT>
1

> <PUBCHEM_COORDINATE_TYPE>
1
5
255

> <PUBCHEM_BONDANNOTATIONS>
22  1  5
15  2  6
3  14  5
4  26  6
5  27  5
6  28  6
7  29  6
9  19  5

$$$$

