10729
  -OEChem-07051212492D

 18 19  0     0  0  0  0  0  0999 V2000
    4.2690    1.8273    0.0000 O   0  0  0  0  0  0  0  0  0  0  0  0
    7.7991   -1.1968    0.0000 O   0  0  0  0  0  0  0  0  0  0  0  0
    4.2690   -1.1727    0.0000 N   0  0  0  0  0  0  0  0  0  0  0  0
    6.0290   -1.2074    0.0000 N   0  0  0  0  0  0  0  0  0  0  0  0
    6.0290    0.8620    0.0000 N   0  0  0  0  0  0  0  0  0  0  0  0
    3.4030    0.3273    0.0000 N   0  0  0  0  0  0  0  0  0  0  0  0
    2.5369   -1.1727    0.0000 N   0  0  0  0  0  0  0  0  0  0  0  0
    5.1350   -0.6727    0.0000 C   0  0  0  0  0  0  0  0  0  0  0  0
    5.1350    0.3273    0.0000 C   0  0  0  0  0  0  0  0  0  0  0  0
    3.4030   -0.6727    0.0000 C   0  0  0  0  0  0  0  0  0  0  0  0
    4.2690    0.8273    0.0000 C   0  0  0  0  0  0  0  0  0  0  0  0
    6.9350   -0.6935    0.0000 C   0  0  0  0  0  0  0  0  0  0  0  0
    6.9350    0.3481    0.0000 C   0  0  0  0  0  0  0  0  0  0  0  0
    4.2690   -1.7927    0.0000 H   0  0  0  0  0  0  0  0  0  0  0  0
    6.0218   -1.8273    0.0000 H   0  0  0  0  0  0  0  0  0  0  0  0
    7.4708    0.6602    0.0000 H   0  0  0  0  0  0  0  0  0  0  0  0
    2.0000   -0.8627    0.0000 H   0  0  0  0  0  0  0  0  0  0  0  0
    2.5369   -1.7927    0.0000 H   0  0  0  0  0  0  0  0  0  0  0  0
  1 11  2  0  0  0  0
  2 12  2  0  0  0  0
  3  8  1  0  0  0  0
  3 10  1  0  0  0  0
  3 14  1  0  0  0  0
  4  8  1  0  0  0  0
  4 12  1  0  0  0  0
  4 15  1  0  0  0  0
  5  9  1  0  0  0  0
  5 13  2  0  0  0  0
  6 10  2  0  0  0  0
  6 11  1  0  0  0  0
  7 10  1  0  0  0  0
  7 17  1  0  0  0  0
  7 18  1  0  0  0  0
  8  9  2  0  0  0  0
  9 11  1  0  0  0  0
 12 13  1  0  0  0  0
 13 16  1  0  0  0  0
M  END
> <PUBCHEM_COMPOUND_CID>
10729

> <PUBCHEM_COMPOUND_CANONICALIZED>
1

> <PUBCHEM_CACTVS_COMPLEXITY>
392

> <PUBCHEM_CACTVS_HBOND_ACCEPTOR>
3

> <PUBCHEM_CACTVS_HBOND_DONOR>
3

> <PUBCHEM_CACTVS_ROTATABLE_BOND>
0

> <PUBCHEM_CACTVS_SUBSKEYS>
AAADcYBjsAAAAAAAAAAAAAAAAAAAAAAAAAAgQAAAAAAAAACAAAAAHgAQAAAACAjBgAQBAALAAACoABVxdACAAAEAAAABAACAAECAQAAAAAAAAAAIEQIAAEAAAAAAAAAAAAAAAAAAAAAAAAAAAAAAAAAAAA==

> <PUBCHEM_IUPAC_OPENEYE_NAME>
2-amino-1,8-dihydropteridine-4,7-dione

> <PUBCHEM_IUPAC_CAS_NAME>
2-amino-1,8-dihydropteridine-4,7-dione

> <PUBCHEM_IUPAC_NAME>
2-amino-1,8-dihydropteridine-4,7-dione

> <PUBCHEM_IUPAC_SYSTEMATIC_NAME>
2-azanyl-1,8-dihydropteridine-4,7-dione

> <PUBCHEM_IUPAC_TRADITIONAL_NAME>
2-amino-1,8-dihydropteridine-4,7-quinone

> <PUBCHEM_IUPAC_INCHI>
InChI=1S/C6H5N5O2/c7-6-10-4-3(5(13)11-6)8-1-2(12)9-4/h1H,(H4,7,9,10,11,12,13)

> <PUBCHEM_IUPAC_INCHIKEY>
GLKCOBIIZKYKFN-UHFFFAOYSA-N

> <PUBCHEM_XLOGP3_AA>
-2.1

> <PUBCHEM_EXACT_MASS>
179.044324

> <PUBCHEM_MOLECULAR_FORMULA>
C6H5N5O2

> <PUBCHEM_MOLECULAR_WEIGHT>
179.1362

> <PUBCHEM_OPENEYE_CAN_SMILES>
C1=NC2=C(NC1=O)NC(=NC2=O)N

> <PUBCHEM_OPENEYE_ISO_SMILES>
C1=NC2=C(NC1=O)NC(=NC2=O)N

> <PUBCHEM_CACTVS_TPSA>
109

> <PUBCHEM_MONOISOTOPIC_WEIGHT>
179.044324

> <PUBCHEM_TOTAL_CHARGE>
0

> <PUBCHEM_HEAVY_ATOM_COUNT>
13

> <PUBCHEM_ATOM_DEF_STEREO_COUNT>
0

> <PUBCHEM_ATOM_UDEF_STEREO_COUNT>
0

> <PUBCHEM_BOND_DEF_STEREO_COUNT>
0

> <PUBCHEM_BOND_UDEF_STEREO_COUNT>
0

> <PUBCHEM_ISOTOPIC_ATOM_COUNT>
0

> <PUBCHEM_COMPONENT_COUNT>
1

> <PUBCHEM_CACTVS_TAUTO_COUNT>
40

> <PUBCHEM_COORDINATE_TYPE>
1
5
255

> <PUBCHEM_BONDANNOTATIONS>
12  13  8
3  10  8
3  8  8
4  12  8
4  8  8
5  13  8
5  9  8
6  10  8
6  11  8
8  9  8
9  11  8

$$$$

