155166
  -OEChem-07051213112D

 23 24  0     0  0  0  0  0  0999 V2000
    5.4641   -0.5000    0.0000 Br  0  0  0  0  0  0  0  0  0  0  0  0
    2.0000   -0.5000    0.0000 Br  0  0  0  0  0  0  0  0  0  0  0  0
    5.4641   -2.5000    0.0000 Br  0  0  0  0  0  0  0  0  0  0  0  0
    5.4641    3.5000    0.0000 Br  0  0  0  0  0  0  0  0  0  0  0  0
    7.1962    2.5000    0.0000 Br  0  0  0  0  0  0  0  0  0  0  0  0
    3.7320   -3.5000    0.0000 Br  0  0  0  0  0  0  0  0  0  0  0  0
    3.7320    0.5000    0.0000 O   0  0  0  0  0  0  0  0  0  0  0  0
    3.7320   -0.5000    0.0000 C   0  0  0  0  0  0  0  0  0  0  0  0
    4.5981    1.0000    0.0000 C   0  0  0  0  0  0  0  0  0  0  0  0
    2.8660   -1.0000    0.0000 C   0  0  0  0  0  0  0  0  0  0  0  0
    5.4641    0.5000    0.0000 C   0  0  0  0  0  0  0  0  0  0  0  0
    4.5981    2.0000    0.0000 C   0  0  0  0  0  0  0  0  0  0  0  0
    4.5981   -1.0000    0.0000 C   0  0  0  0  0  0  0  0  0  0  0  0
    4.5981   -2.0000    0.0000 C   0  0  0  0  0  0  0  0  0  0  0  0
    5.4641    2.5000    0.0000 C   0  0  0  0  0  0  0  0  0  0  0  0
    6.3301    1.0000    0.0000 C   0  0  0  0  0  0  0  0  0  0  0  0
    2.8660   -2.0000    0.0000 C   0  0  0  0  0  0  0  0  0  0  0  0
    3.7320   -2.5000    0.0000 C   0  0  0  0  0  0  0  0  0  0  0  0
    6.3301    2.0000    0.0000 C   0  0  0  0  0  0  0  0  0  0  0  0
    5.1350   -0.6900    0.0000 H   0  0  0  0  0  0  0  0  0  0  0  0
    4.0611    2.3100    0.0000 H   0  0  0  0  0  0  0  0  0  0  0  0
    2.3291   -2.3100    0.0000 H   0  0  0  0  0  0  0  0  0  0  0  0
    6.8671    0.6900    0.0000 H   0  0  0  0  0  0  0  0  0  0  0  0
  1 11  1  0  0  0  0
  2 10  1  0  0  0  0
  3 14  1  0  0  0  0
  4 15  1  0  0  0  0
  5 19  1  0  0  0  0
  6 18  1  0  0  0  0
  7  8  1  0  0  0  0
  7  9  1  0  0  0  0
  8 10  1  0  0  0  0
  8 13  2  0  0  0  0
  9 11  1  0  0  0  0
  9 12  2  0  0  0  0
 10 17  2  0  0  0  0
 11 16  2  0  0  0  0
 12 15  1  0  0  0  0
 12 21  1  0  0  0  0
 13 14  1  0  0  0  0
 13 20  1  0  0  0  0
 14 18  2  0  0  0  0
 15 19  2  0  0  0  0
 16 19  1  0  0  0  0
 16 23  1  0  0  0  0
 17 18  1  0  0  0  0
 17 22  1  0  0  0  0
M  END
> <PUBCHEM_COMPOUND_CID>
155166

> <PUBCHEM_COMPOUND_CANONICALIZED>
1

> <PUBCHEM_CACTVS_COMPLEXITY>
276

> <PUBCHEM_CACTVS_HBOND_ACCEPTOR>
1

> <PUBCHEM_CACTVS_HBOND_DONOR>
0

> <PUBCHEM_CACTVS_ROTATABLE_BOND>
2

> <PUBCHEM_CACTVS_SUBSKEYS>
AAADcYBwIAAAHAAAAAAAAAAAAAAAAAAAAAAwYAAAAAAAAAABQAAAGgBAAAABqASAkAAwBoAABACAACBCAAACCAAgIAQAiAAGCKgMJiKEMBqCOCCkwBEIqheAQAAAABAEAIAgBAEAIAgBAEAIAgAAAAAAAA==

> <PUBCHEM_IUPAC_OPENEYE_NAME>
1,2,4-tribromo-5-(2,4,5-tribromophenoxy)benzene

> <PUBCHEM_IUPAC_CAS_NAME>
1,2,4-tribromo-5-(2,4,5-tribromophenoxy)benzene

> <PUBCHEM_IUPAC_NAME>
1,2,4-tribromo-5-(2,4,5-tribromophenoxy)benzene

> <PUBCHEM_IUPAC_SYSTEMATIC_NAME>
1,2,4-tris(bromanyl)-5-[2,4,5-tris(bromanyl)phenoxy]benzene

> <PUBCHEM_IUPAC_TRADITIONAL_NAME>
1,2,4-tribromo-5-(2,4,5-tribromophenoxy)benzene

> <PUBCHEM_IUPAC_INCHI>
InChI=1S/C12H4Br6O/c13-5-1-9(17)11(3-7(5)15)19-12-4-8(16)6(14)2-10(12)18/h1-4H

> <PUBCHEM_IUPAC_INCHIKEY>
RZXIRSKYBISPGF-UHFFFAOYSA-N

> <PUBCHEM_XLOGP3_AA>
7.6

> <PUBCHEM_EXACT_MASS>
643.530098

> <PUBCHEM_MOLECULAR_FORMULA>
C12H4Br6O

> <PUBCHEM_MOLECULAR_WEIGHT>
643.58356

> <PUBCHEM_OPENEYE_CAN_SMILES>
C1=C(C(=CC(=C1Br)Br)Br)OC2=CC(=C(C=C2Br)Br)Br

> <PUBCHEM_OPENEYE_ISO_SMILES>
C1=C(C(=CC(=C1Br)Br)Br)OC2=CC(=C(C=C2Br)Br)Br

> <PUBCHEM_CACTVS_TPSA>
9.2

> <PUBCHEM_MONOISOTOPIC_WEIGHT>
637.536237

> <PUBCHEM_TOTAL_CHARGE>
0

> <PUBCHEM_HEAVY_ATOM_COUNT>
19

> <PUBCHEM_ATOM_DEF_STEREO_COUNT>
0

> <PUBCHEM_ATOM_UDEF_STEREO_COUNT>
0

> <PUBCHEM_BOND_DEF_STEREO_COUNT>
0

> <PUBCHEM_BOND_UDEF_STEREO_COUNT>
0

> <PUBCHEM_ISOTOPIC_ATOM_COUNT>
0

> <PUBCHEM_COMPONENT_COUNT>
1

> <PUBCHEM_CACTVS_TAUTO_COUNT>
1

> <PUBCHEM_COORDINATE_TYPE>
1
5
255

> <PUBCHEM_BONDANNOTATIONS>
10  17  8
11  16  8
12  15  8
13  14  8
14  18  8
15  19  8
16  19  8
17  18  8
8  10  8
8  13  8
9  11  8
9  12  8

$$$$

