11701090
  -OEChem-07051212473D

 28 27  0     1  0  0  0  0  0999 V2000
    0.0736   -1.5211    0.5865 O   0  0  0  0  0  0  0  0  0  0  0  0
    2.1420    0.2029    1.3036 O   0  0  0  0  0  0  0  0  0  0  0  0
   -1.9732    0.3033   -0.0126 N   0  3  0  0  0  0  0  0  0  0  0  0
    3.4948    0.9204   -0.4108 N   0  0  0  0  0  0  0  0  0  0  0  0
   -0.5633    0.5595   -0.4000 C   0  0  0  0  0  0  0  0  0  0  0  0
    0.1933   -0.7506   -0.6097 C   0  0  1  0  0  0  0  0  0  0  0  0
   -2.7344    1.6225    0.1769 C   0  0  0  0  0  0  0  0  0  0  0  0
   -2.6950   -0.5134   -1.0931 C   0  0  0  0  0  0  0  0  0  0  0  0
   -2.0425   -0.4811    1.3047 C   0  0  0  0  0  0  0  0  0  0  0  0
    1.6723   -0.5558   -0.9565 C   0  0  0  0  0  0  0  0  0  0  0  0
    2.4323    0.2133    0.1110 C   0  0  0  0  0  0  0  0  0  0  0  0
   -0.1215    1.1620    0.4016 H   0  0  0  0  0  0  0  0  0  0  0  0
   -0.5615    1.1579   -1.3191 H   0  0  0  0  0  0  0  0  0  0  0  0
   -0.2453   -1.3330   -1.4257 H   0  0  0  0  0  0  0  0  0  0  0  0
   -2.2484    2.1823    0.9814 H   0  0  0  0  0  0  0  0  0  0  0  0
   -2.6868    2.1798   -0.7633 H   0  0  0  0  0  0  0  0  0  0  0  0
   -3.7737    1.3988    0.4352 H   0  0  0  0  0  0  0  0  0  0  0  0
   -2.5521   -0.0131   -2.0554 H   0  0  0  0  0  0  0  0  0  0  0  0
   -2.3071   -1.5344   -1.1156 H   0  0  0  0  0  0  0  0  0  0  0  0
   -3.7593   -0.5449   -0.8387 H   0  0  0  0  0  0  0  0  0  0  0  0
   -1.2725   -0.1168    1.9915 H   0  0  0  0  0  0  0  0  0  0  0  0
   -3.0211   -0.2767    1.7554 H   0  0  0  0  0  0  0  0  0  0  0  0
   -2.0199   -1.5586    1.1222 H   0  0  0  0  0  0  0  0  0  0  0  0
    1.7545   -0.0367   -1.9184 H   0  0  0  0  0  0  0  0  0  0  0  0
    2.1672   -1.5297   -1.0521 H   0  0  0  0  0  0  0  0  0  0  0  0
    0.5389   -2.3624    0.4411 H   0  0  0  0  0  0  0  0  0  0  0  0
    3.7267    0.9090   -1.3989 H   0  0  0  0  0  0  0  0  0  0  0  0
    4.0921    1.4796    0.1892 H   0  0  0  0  0  0  0  0  0  0  0  0
  1  6  1  0  0  0  0
  1 26  1  0  0  0  0
  2 11  2  0  0  0  0
  3  5  1  0  0  0  0
  3  7  1  0  0  0  0
  3  8  1  0  0  0  0
  3  9  1  0  0  0  0
  4 11  1  0  0  0  0
  4 27  1  0  0  0  0
  4 28  1  0  0  0  0
  5  6  1  0  0  0  0
  5 12  1  0  0  0  0
  5 13  1  0  0  0  0
  6 10  1  0  0  0  0
  6 14  1  0  0  0  0
  7 15  1  0  0  0  0
  7 16  1  0  0  0  0
  7 17  1  0  0  0  0
  8 18  1  0  0  0  0
  8 19  1  0  0  0  0
  8 20  1  0  0  0  0
  9 21  1  0  0  0  0
  9 22  1  0  0  0  0
  9 23  1  0  0  0  0
 10 11  1  0  0  0  0
 10 24  1  0  0  0  0
 10 25  1  0  0  0  0
M  CHG  1   3   1
M  END
> <PUBCHEM_COMPOUND_CID>
11701090

> <PUBCHEM_CONFORMER_RMSD>
0.6

> <PUBCHEM_CONFORMER_DIVERSEORDER>
2
7
6
9
5
3
8
10
1
4

> <PUBCHEM_MMFF94_PARTIAL_CHARGES>
14
1 -0.68
10 0.06
11 0.57
2 -0.57
26 0.4
27 0.37
28 0.37
3 -1.01
4 -0.8
5 0.5
6 0.28
7 0.5
8 0.5
9 0.5

> <PUBCHEM_EFFECTIVE_ROTOR_COUNT>
4

> <PUBCHEM_PHARMACOPHORE_FEATURES>
5
1 1 acceptor
1 1 donor
1 2 acceptor
1 3 cation
1 4 donor

> <PUBCHEM_HEAVY_ATOM_COUNT>
11

> <PUBCHEM_ATOM_DEF_STEREO_COUNT>
1

> <PUBCHEM_ATOM_UDEF_STEREO_COUNT>
0

> <PUBCHEM_BOND_DEF_STEREO_COUNT>
0

> <PUBCHEM_BOND_UDEF_STEREO_COUNT>
0

> <PUBCHEM_ISOTOPIC_ATOM_COUNT>
0

> <PUBCHEM_COMPONENT_COUNT>
1

> <PUBCHEM_CACTVS_TAUTO_COUNT>
2

> <PUBCHEM_CONFORMER_ID>
00B28B6200000002

> <PUBCHEM_MMFF94_ENERGY>
40.1693

> <PUBCHEM_FEATURE_SELFOVERLAP>
25.376

> <PUBCHEM_SHAPE_FINGERPRINT>
10857977 72 18200863007373328547
12897270 3 16515688848598199421
12932764 1 17749106698980958431
14325111 11 18335138708794436796
14390081 3 18187929529384339085
14577589 140 13901917721106034467
15310529 11 14057003793180300100
15775835 57 18113898285962045893
16945 1 18115317673932416727
18186145 218 16443061690736983520
20653085 51 16443336538420888106
21028194 46 17894635829219507246
23235685 24 18413386544601430836
23402539 116 15913062984515219407
23552423 10 14129882825557388349
3248919 1 18202847660047181254
369184 2 16702305654598663125
5084963 1 17822013073082695156

> <PUBCHEM_SHAPE_MULTIPOLES>
204.67
4.95
1.27
1.17
1.51
0.11
0.33
1.55
-0.57
-0.45
-0.09
-0.21
-0.12
0.05

> <PUBCHEM_SHAPE_SELFOVERLAP>
381.912

> <PUBCHEM_SHAPE_VOLUME>
129.5

> <PUBCHEM_COORDINATE_TYPE>
2
5
10

$$$$

