442811
  -OEChem-07051212592D

 40 42  0     1  0  0  0  0  0999 V2000
    6.8671    2.2327    0.0000 O   0  0  0  0  0  0  0  0  0  0  0  0
    4.2690    1.7327    0.0000 O   0  0  0  0  0  0  0  0  0  0  0  0
    2.5369    0.7327    0.0000 O   0  0  0  0  0  0  0  0  0  0  0  0
    2.5369   -1.2673    0.0000 O   0  0  0  0  0  0  0  0  0  0  0  0
   10.3972    2.2568    0.0000 O   0  0  0  0  0  0  0  0  0  0  0  0
    6.0010    0.7327    0.0000 C   0  0  2  0  0  0  0  0  0  0  0  0
    6.8671    0.2327    0.0000 C   0  0  0  0  0  0  0  0  0  0  0  0
    6.0010    1.7327    0.0000 C   0  0  0  0  0  0  0  0  0  0  0  0
    5.1350    0.2327    0.0000 C   0  0  0  0  0  0  0  0  0  0  0  0
    7.7331    0.7327    0.0000 C   0  0  0  0  0  0  0  0  0  0  0  0
    7.7331    1.7327    0.0000 C   0  0  0  0  0  0  0  0  0  0  0  0
    4.2690    0.7327    0.0000 C   0  0  0  0  0  0  0  0  0  0  0  0
    5.1350   -0.7673    0.0000 C   0  0  0  0  0  0  0  0  0  0  0  0
    8.6270    0.1980    0.0000 C   0  0  0  0  0  0  0  0  0  0  0  0
    8.6270    2.2673    0.0000 C   0  0  0  0  0  0  0  0  0  0  0  0
    3.4030    0.2327    0.0000 C   0  0  0  0  0  0  0  0  0  0  0  0
    4.2690   -1.2673    0.0000 C   0  0  0  0  0  0  0  0  0  0  0  0
    9.5331    0.7119    0.0000 C   0  0  0  0  0  0  0  0  0  0  0  0
    3.4030   -0.7673    0.0000 C   0  0  0  0  0  0  0  0  0  0  0  0
    9.5331    1.7535    0.0000 C   0  0  0  0  0  0  0  0  0  0  0  0
    3.4030    2.2327    0.0000 C   0  0  0  0  0  0  0  0  0  0  0  0
    2.5369   -2.2673    0.0000 C   0  0  0  0  0  0  0  0  0  0  0  0
    5.2649    1.1577    0.0000 H   0  0  0  0  0  0  0  0  0  0  0  0
    6.4685   -0.2423    0.0000 H   0  0  0  0  0  0  0  0  0  0  0  0
    7.2656   -0.2423    0.0000 H   0  0  0  0  0  0  0  0  0  0  0  0
    5.7890    2.3153    0.0000 H   0  0  0  0  0  0  0  0  0  0  0  0
    5.3905    1.6250    0.0000 H   0  0  0  0  0  0  0  0  0  0  0  0
    5.6720   -1.0773    0.0000 H   0  0  0  0  0  0  0  0  0  0  0  0
    8.6199   -0.4220    0.0000 H   0  0  0  0  0  0  0  0  0  0  0  0
    8.6199    2.8873    0.0000 H   0  0  0  0  0  0  0  0  0  0  0  0
    4.2690   -1.8873    0.0000 H   0  0  0  0  0  0  0  0  0  0  0  0
   10.0688    0.3998    0.0000 H   0  0  0  0  0  0  0  0  0  0  0  0
    2.0000    0.4227    0.0000 H   0  0  0  0  0  0  0  0  0  0  0  0
    3.7130    2.7696    0.0000 H   0  0  0  0  0  0  0  0  0  0  0  0
    2.8660    2.5427    0.0000 H   0  0  0  0  0  0  0  0  0  0  0  0
    3.0930    1.6957    0.0000 H   0  0  0  0  0  0  0  0  0  0  0  0
   10.9353    1.9489    0.0000 H   0  0  0  0  0  0  0  0  0  0  0  0
    1.9169   -2.2673    0.0000 H   0  0  0  0  0  0  0  0  0  0  0  0
    2.5369   -2.8873    0.0000 H   0  0  0  0  0  0  0  0  0  0  0  0
    3.1569   -2.2673    0.0000 H   0  0  0  0  0  0  0  0  0  0  0  0
  1  8  1  0  0  0  0
  1 11  1  0  0  0  0
  2 12  1  0  0  0  0
  2 21  1  0  0  0  0
  3 16  1  0  0  0  0
  3 33  1  0  0  0  0
  4 19  1  0  0  0  0
  4 22  1  0  0  0  0
  5 20  1  0  0  0  0
  5 37  1  0  0  0  0
  6  7  1  0  0  0  0
  6  8  1  0  0  0  0
  6  9  1  0  0  0  0
  6 23  1  6  0  0  0
  7 10  1  0  0  0  0
  7 24  1  0  0  0  0
  7 25  1  0  0  0  0
  8 26  1  0  0  0  0
  8 27  1  0  0  0  0
  9 12  2  0  0  0  0
  9 13  1  0  0  0  0
 10 11  2  0  0  0  0
 10 14  1  0  0  0  0
 11 15  1  0  0  0  0
 12 16  1  0  0  0  0
 13 17  2  0  0  0  0
 13 28  1  0  0  0  0
 14 18  2  0  0  0  0
 14 29  1  0  0  0  0
 15 20  2  0  0  0  0
 15 30  1  0  0  0  0
 16 19  2  0  0  0  0
 17 19  1  0  0  0  0
 17 31  1  0  0  0  0
 18 20  1  0  0  0  0
 18 32  1  0  0  0  0
 21 34  1  0  0  0  0
 21 35  1  0  0  0  0
 21 36  1  0  0  0  0
 22 38  1  0  0  0  0
 22 39  1  0  0  0  0
 22 40  1  0  0  0  0
M  END
> <PUBCHEM_COMPOUND_CID>
442811

> <PUBCHEM_COMPOUND_CANONICALIZED>
1

> <PUBCHEM_CACTVS_COMPLEXITY>
363

> <PUBCHEM_CACTVS_HBOND_ACCEPTOR>
5

> <PUBCHEM_CACTVS_HBOND_DONOR>
2

> <PUBCHEM_CACTVS_ROTATABLE_BOND>
3

> <PUBCHEM_CACTVS_SUBSKEYS>
AAADceB4OAAAAAAAAAAAAAAAAAAAAAAAAAA0YIAAAAAAAACRQAAAGgAACAAADQSgmAIyBoAABgCAAiBCAAACCAAgIAAIiAAGiIgNJyKGMRqCeCOlwBULuAfA4PwOoAABCAAIQABAAAIQABCAAAAAAAAAAA==

> <PUBCHEM_IUPAC_OPENEYE_NAME>
(3S)-3-(3-hydroxy-2,4-dimethoxy-phenyl)chroman-7-ol

> <PUBCHEM_IUPAC_CAS_NAME>
(3S)-3-(3-hydroxy-2,4-dimethoxyphenyl)-3,4-dihydro-2H-1-benzopyran-7-ol

> <PUBCHEM_IUPAC_NAME>
(3S)-3-(3-hydroxy-2,4-dimethoxyphenyl)-3,4-dihydro-2H-chromen-7-ol

> <PUBCHEM_IUPAC_SYSTEMATIC_NAME>
(3S)-3-(2,4-dimethoxy-3-oxidanyl-phenyl)-3,4-dihydro-2H-chromen-7-ol

> <PUBCHEM_IUPAC_TRADITIONAL_NAME>
(3S)-3-(3-hydroxy-2,4-dimethoxy-phenyl)chroman-7-ol

> <PUBCHEM_IUPAC_INCHI>
InChI=1S/C17H18O5/c1-20-14-6-5-13(17(21-2)16(14)19)11-7-10-3-4-12(18)8-15(10)22-9-11/h3-6,8,11,18-19H,7,9H2,1-2H3/t11-/m1/s1

> <PUBCHEM_IUPAC_INCHIKEY>
NUNFZNIXYWTZMW-LLVKDONJSA-N

> <PUBCHEM_XLOGP3_AA>
2.9

> <PUBCHEM_EXACT_MASS>
302.115424

> <PUBCHEM_MOLECULAR_FORMULA>
C17H18O5

> <PUBCHEM_MOLECULAR_WEIGHT>
302.32182

> <PUBCHEM_OPENEYE_CAN_SMILES>
COC1=C(C(=C(C=C1)C2CC3=C(C=C(C=C3)O)OC2)OC)O

> <PUBCHEM_OPENEYE_ISO_SMILES>
COC1=C(C(=C(C=C1)[C@@H]2CC3=C(C=C(C=C3)O)OC2)OC)O

> <PUBCHEM_CACTVS_TPSA>
68.2

> <PUBCHEM_MONOISOTOPIC_WEIGHT>
302.115424

> <PUBCHEM_TOTAL_CHARGE>
0

> <PUBCHEM_HEAVY_ATOM_COUNT>
22

> <PUBCHEM_ATOM_DEF_STEREO_COUNT>
1

> <PUBCHEM_ATOM_UDEF_STEREO_COUNT>
0

> <PUBCHEM_BOND_DEF_STEREO_COUNT>
0

> <PUBCHEM_BOND_UDEF_STEREO_COUNT>
0

> <PUBCHEM_ISOTOPIC_ATOM_COUNT>
0

> <PUBCHEM_COMPONENT_COUNT>
1

> <PUBCHEM_CACTVS_TAUTO_COUNT>
27

> <PUBCHEM_COORDINATE_TYPE>
1
5
255

> <PUBCHEM_BONDANNOTATIONS>
10  11  8
10  14  8
11  15  8
12  16  8
13  17  8
14  18  8
15  20  8
16  19  8
17  19  8
18  20  8
6  23  6
9  12  8
9  13  8

$$$$

