232989
  -OEChem-07051213073D

 51 54  0     1  0  0  0  0  0999 V2000
    5.2637   -1.3677    0.0403 O   0  0  0  0  0  0  0  0  0  0  0  0
   -5.5101    0.4255    0.4480 O   0  0  0  0  0  0  0  0  0  0  0  0
    2.2439    0.6700    0.3653 C   0  0  1  0  0  0  0  0  0  0  0  0
    0.8285    0.8574   -0.1837 C   0  0  1  0  0  0  0  0  0  0  0  0
    2.8925   -0.6454   -0.1107 C   0  0  2  0  0  0  0  0  0  0  0  0
   -0.0602   -0.3246    0.3074 C   0  0  1  0  0  0  0  0  0  0  0  0
   -1.5001   -0.1800   -0.2613 C   0  0  2  0  0  0  0  0  0  0  0  0
    2.0536   -1.8108    0.4281 C   0  0  0  0  0  0  0  0  0  0  0  0
    0.5805   -1.7004   -0.0051 C   0  0  0  0  0  0  0  0  0  0  0  0
   -2.0986    1.1917    0.1419 C   0  0  1  0  0  0  0  0  0  0  0  0
    0.2226    2.1995    0.2412 C   0  0  0  0  0  0  0  0  0  0  0  0
    4.2783   -0.4892    0.5481 C   0  0  2  0  0  0  0  0  0  0  0  0
    3.3078    1.7222    0.0626 C   0  0  0  0  0  0  0  0  0  0  0  0
   -1.1973    2.3532   -0.2923 C   0  0  0  0  0  0  0  0  0  0  0  0
    4.6393    0.9922    0.3185 C   0  0  0  0  0  0  0  0  0  0  0  0
   -2.4405   -1.3099    0.2080 C   0  0  0  0  0  0  0  0  0  0  0  0
    3.0283   -0.7789   -1.6484 C   0  0  0  0  0  0  0  0  0  0  0  0
   -3.5037    1.3800   -0.4332 C   0  0  0  0  0  0  0  0  0  0  0  0
   -3.8616   -1.1600   -0.3475 C   0  0  2  0  0  0  0  0  0  0  0  0
   -4.3935    0.2287   -0.0281 C   0  0  0  0  0  0  0  0  0  0  0  0
   -4.7736   -2.2535    0.2010 C   0  0  0  0  0  0  0  0  0  0  0  0
    2.1542    0.6373    1.4643 H   0  0  0  0  0  0  0  0  0  0  0  0
    0.8574    0.8486   -1.2804 H   0  0  0  0  0  0  0  0  0  0  0  0
   -0.1293   -0.2563    1.4037 H   0  0  0  0  0  0  0  0  0  0  0  0
   -1.4391   -0.2269   -1.3583 H   0  0  0  0  0  0  0  0  0  0  0  0
    2.0912   -1.8238    1.5253 H   0  0  0  0  0  0  0  0  0  0  0  0
    2.4650   -2.7712    0.0952 H   0  0  0  0  0  0  0  0  0  0  0  0
    0.4906   -1.9137   -1.0765 H   0  0  0  0  0  0  0  0  0  0  0  0
    0.0300   -2.4932    0.5139 H   0  0  0  0  0  0  0  0  0  0  0  0
   -2.1772    1.2164    1.2388 H   0  0  0  0  0  0  0  0  0  0  0  0
    0.8323    3.0285   -0.1363 H   0  0  0  0  0  0  0  0  0  0  0  0
    0.2144    2.2814    1.3354 H   0  0  0  0  0  0  0  0  0  0  0  0
    4.2028   -0.6734    1.6277 H   0  0  0  0  0  0  0  0  0  0  0  0
    3.2080    2.6029    0.7052 H   0  0  0  0  0  0  0  0  0  0  0  0
    3.2524    2.0624   -0.9774 H   0  0  0  0  0  0  0  0  0  0  0  0
   -1.6139    3.3026    0.0651 H   0  0  0  0  0  0  0  0  0  0  0  0
   -1.1675    2.4134   -1.3878 H   0  0  0  0  0  0  0  0  0  0  0  0
    5.3233    1.1213   -0.5278 H   0  0  0  0  0  0  0  0  0  0  0  0
    5.1451    1.3977    1.2019 H   0  0  0  0  0  0  0  0  0  0  0  0
   -2.4675   -1.3240    1.3057 H   0  0  0  0  0  0  0  0  0  0  0  0
   -2.0532   -2.2819   -0.1164 H   0  0  0  0  0  0  0  0  0  0  0  0
    3.5003   -1.7332   -1.9100 H   0  0  0  0  0  0  0  0  0  0  0  0
    2.0653   -0.7494   -2.1647 H   0  0  0  0  0  0  0  0  0  0  0  0
    3.6469    0.0129   -2.0825 H   0  0  0  0  0  0  0  0  0  0  0  0
   -3.4881    1.4292   -1.5278 H   0  0  0  0  0  0  0  0  0  0  0  0
   -3.9438    2.3118   -0.0602 H   0  0  0  0  0  0  0  0  0  0  0  0
   -3.8374   -1.2466   -1.4412 H   0  0  0  0  0  0  0  0  0  0  0  0
    6.1097   -1.1291    0.4559 H   0  0  0  0  0  0  0  0  0  0  0  0
   -5.7806   -2.1703   -0.2221 H   0  0  0  0  0  0  0  0  0  0  0  0
   -4.3860   -3.2467   -0.0482 H   0  0  0  0  0  0  0  0  0  0  0  0
   -4.8665   -2.1860    1.2907 H   0  0  0  0  0  0  0  0  0  0  0  0
  1 12  1  0  0  0  0
  1 48  1  0  0  0  0
  2 20  2  0  0  0  0
  3  4  1  0  0  0  0
  3  5  1  0  0  0  0
  3 13  1  0  0  0  0
  3 22  1  0  0  0  0
  4  6  1  0  0  0  0
  4 11  1  0  0  0  0
  4 23  1  0  0  0  0
  5  8  1  0  0  0  0
  5 12  1  0  0  0  0
  5 17  1  0  0  0  0
  6  7  1  0  0  0  0
  6  9  1  0  0  0  0
  6 24  1  0  0  0  0
  7 10  1  0  0  0  0
  7 16  1  0  0  0  0
  7 25  1  0  0  0  0
  8  9  1  0  0  0  0
  8 26  1  0  0  0  0
  8 27  1  0  0  0  0
  9 28  1  0  0  0  0
  9 29  1  0  0  0  0
 10 14  1  0  0  0  0
 10 18  1  0  0  0  0
 10 30  1  0  0  0  0
 11 14  1  0  0  0  0
 11 31  1  0  0  0  0
 11 32  1  0  0  0  0
 12 15  1  0  0  0  0
 12 33  1  0  0  0  0
 13 15  1  0  0  0  0
 13 34  1  0  0  0  0
 13 35  1  0  0  0  0
 14 36  1  0  0  0  0
 14 37  1  0  0  0  0
 15 38  1  0  0  0  0
 15 39  1  0  0  0  0
 16 19  1  0  0  0  0
 16 40  1  0  0  0  0
 16 41  1  0  0  0  0
 17 42  1  0  0  0  0
 17 43  1  0  0  0  0
 17 44  1  0  0  0  0
 18 20  1  0  0  0  0
 18 45  1  0  0  0  0
 18 46  1  0  0  0  0
 19 20  1  0  0  0  0
 19 21  1  0  0  0  0
 19 47  1  0  0  0  0
 21 49  1  0  0  0  0
 21 50  1  0  0  0  0
 21 51  1  0  0  0  0
M  END
> <PUBCHEM_COMPOUND_CID>
232989

> <PUBCHEM_CONFORMER_RMSD>
0.6

> <PUBCHEM_CONFORMER_DIVERSEORDER>
1
2

> <PUBCHEM_MMFF94_PARTIAL_CHARGES>
7
1 -0.68
12 0.28
18 0.06
19 0.06
2 -0.57
20 0.45
48 0.4

> <PUBCHEM_EFFECTIVE_ROTOR_COUNT>
2

> <PUBCHEM_PHARMACOPHORE_FEATURES>
7
1 1 acceptor
1 1 donor
1 2 acceptor
5 3 5 12 13 15 rings
6 3 4 5 6 8 9 rings
6 4 6 7 10 11 14 rings
6 7 10 16 18 19 20 rings

> <PUBCHEM_HEAVY_ATOM_COUNT>
21

> <PUBCHEM_ATOM_DEF_STEREO_COUNT>
8

> <PUBCHEM_ATOM_UDEF_STEREO_COUNT>
0

> <PUBCHEM_BOND_DEF_STEREO_COUNT>
0

> <PUBCHEM_BOND_UDEF_STEREO_COUNT>
0

> <PUBCHEM_ISOTOPIC_ATOM_COUNT>
0

> <PUBCHEM_COMPONENT_COUNT>
1

> <PUBCHEM_CACTVS_TAUTO_COUNT>
3

> <PUBCHEM_CONFORMER_ID>
00038E1D00000001

> <PUBCHEM_MMFF94_ENERGY>
62.1178

> <PUBCHEM_FEATURE_SELFOVERLAP>
35.613

> <PUBCHEM_SHAPE_FINGERPRINT>
10498660 4 18412546534813400133
10616163 171 18409450323202352535
108634 29 18270672070100111706
10967382 1 18411139134133441776
11132069 177 18410294717956924097
11806522 49 18340207397221482045
12107183 9 17762340618601456987
12166972 35 17704068499911140588
12236239 1 17894631457180170329
12403259 226 18339931501861417744
12403259 415 18340778104223963372
12553582 1 18340498832554393329
12596599 1 18041260124167972187
128620 24 18411419509624931031
13140716 1 18410009897353800865
13224815 77 18410291419274172297
13862211 1 18411707577434749051
14115302 16 17703501130331064470
14178342 30 18049170152953034104
14252887 29 17967244300026275502
14341114 176 18411696599424182176
14787075 74 18340487746800827112
14790565 3 17547006326048399252
15196674 1 18411139112695528569
15352361 1 18411139104459034803
15536298 74 18334858307369795264
15788980 27 17775286075196439267
16945 1 18194680595245597648
17349148 13 17632578262072793098
17492 89 18339928228759189538
1813 80 17489587848765000869
19141452 34 18186801362103997055
19591789 44 18410578340354063691
200 152 18186804660348541515
20261772 1 18041283162277654694
20645477 70 18259702315477127502
21267235 1 18411411826139597355
21421861 104 18058175114012804050
21452121 103 18261967241296451440
221490 88 18340483374481811419
23402539 116 18409737248239412799
23557571 272 18188488094165614708
23559900 14 18264213693543510742
239999 70 18261106375083635182
2871803 45 18342182175828746822
3004659 81 18201722864105182656
335352 9 18410857685512234117
34934 24 18411707612316408455
350125 39 18410857655658667160
351380 180 18411703183994201314
3545911 37 18411419544169305035
4214541 1 18411139160241031041
5104073 3 18409169896007564017
7495541 125 17822297838078149536
77779 3 18410293609696930777
9709674 26 18411132532853532562

> <PUBCHEM_SHAPE_MULTIPOLES>
420.43
10.57
2.37
0.82
2.73
0.28
0.21
-2.56
-0.57
0.62
-0.05
-0.4
-0.11
0.32

> <PUBCHEM_SHAPE_SELFOVERLAP>
892.432

> <PUBCHEM_SHAPE_VOLUME>
232.6

> <PUBCHEM_COORDINATE_TYPE>
2
5
10

$$$$

