51090867
  -OEChem-06241223003D

 40 42  0     0  0  0  0  0  0999 V2000
    2.2721    1.7598    0.1217 O   0  0  0  0  0  0  0  0  0  0  0  0
   -3.7857   -1.5236   -0.7594 N   0  0  0  0  0  0  0  0  0  0  0  0
   -1.9151   -1.0206    0.2522 N   0  0  0  0  0  0  0  0  0  0  0  0
   -3.7486   -0.1843   -0.8301 N   0  0  0  0  0  0  0  0  0  0  0  0
    0.2145    0.6371   -0.0678 N   0  0  0  0  0  0  0  0  0  0  0  0
    3.7635   -0.5950   -0.1050 N   0  0  0  0  0  0  0  0  0  0  0  0
    4.5054   -0.1488   -1.1301 N   0  0  0  0  0  0  0  0  0  0  0  0
    5.8102   -0.7953    0.6341 N   0  0  0  0  0  0  0  0  0  0  0  0
   -2.4829   -3.4537    0.0990 C   0  0  0  0  0  0  0  0  0  0  0  0
   -2.6923   -2.0129   -0.1150 C   0  0  0  0  0  0  0  0  0  0  0  0
   -2.0964    1.4063   -0.0141 C   0  0  0  0  0  0  0  0  0  0  0  0
   -2.5980    0.0704   -0.2038 C   0  0  0  0  0  0  0  0  0  0  0  0
   -2.4399   -3.8466    1.5959 C   0  0  0  0  0  0  0  0  0  0  0  0
   -1.2129   -3.9950   -0.6015 C   0  0  0  0  0  0  0  0  0  0  0  0
   -0.7272    1.6646    0.0502 C   0  0  0  0  0  0  0  0  0  0  0  0
   -3.0101    2.4534    0.1061 C   0  0  0  0  0  0  0  0  0  0  0  0
   -0.2717    2.9700    0.2348 C   0  0  0  0  0  0  0  0  0  0  0  0
    2.2604   -0.6297   -0.1948 C   0  0  0  0  0  0  0  0  0  0  0  0
    1.6129    0.7357   -0.0253 C   0  0  0  0  0  0  0  0  0  0  0  0
   -2.5545    3.7588    0.2908 C   0  0  0  0  0  0  0  0  0  0  0  0
   -1.1854    4.0172    0.3551 C   0  0  0  0  0  0  0  0  0  0  0  0
    4.5463   -0.9774    0.9393 C   0  0  0  0  0  0  0  0  0  0  0  0
    5.7357   -0.2904   -0.6325 C   0  0  0  0  0  0  0  0  0  0  0  0
   -3.3315   -3.9986   -0.3380 H   0  0  0  0  0  0  0  0  0  0  0  0
   -1.2464   -3.7840   -1.6760 H   0  0  0  0  0  0  0  0  0  0  0  0
   -1.5926   -3.3718    2.1031 H   0  0  0  0  0  0  0  0  0  0  0  0
   -2.3464   -4.9314    1.7114 H   0  0  0  0  0  0  0  0  0  0  0  0
   -3.3560   -3.5269    2.1044 H   0  0  0  0  0  0  0  0  0  0  0  0
   -1.1263   -5.0784   -0.4691 H   0  0  0  0  0  0  0  0  0  0  0  0
   -0.3097   -3.5247   -0.1968 H   0  0  0  0  0  0  0  0  0  0  0  0
   -4.5712   -2.0188   -1.1650 H   0  0  0  0  0  0  0  0  0  0  0  0
   -4.0837    2.2845    0.0686 H   0  0  0  0  0  0  0  0  0  0  0  0
   -0.1571   -0.2982   -0.2080 H   0  0  0  0  0  0  0  0  0  0  0  0
    0.7660    3.2616    0.2969 H   0  0  0  0  0  0  0  0  0  0  0  0
    2.0291   -1.0481   -1.1796 H   0  0  0  0  0  0  0  0  0  0  0  0
    1.9241   -1.3127    0.5920 H   0  0  0  0  0  0  0  0  0  0  0  0
   -3.2657    4.5741    0.3864 H   0  0  0  0  0  0  0  0  0  0  0  0
   -0.8323    5.0343    0.4995 H   0  0  0  0  0  0  0  0  0  0  0  0
    4.1569   -1.3680    1.8688 H   0  0  0  0  0  0  0  0  0  0  0  0
    6.6054   -0.0171   -1.2111 H   0  0  0  0  0  0  0  0  0  0  0  0
  1 19  2  0  0  0  0
  2  4  1  0  0  0  0
  2 10  1  0  0  0  0
  2 31  1  0  0  0  0
  3 10  2  0  0  0  0
  3 12  1  0  0  0  0
  4 12  2  0  0  0  0
  5 15  1  0  0  0  0
  5 19  1  0  0  0  0
  5 33  1  0  0  0  0
  6  7  1  0  0  0  0
  6 18  1  0  0  0  0
  6 22  1  0  0  0  0
  7 23  2  0  0  0  0
  8 22  2  0  0  0  0
  8 23  1  0  0  0  0
  9 10  1  0  0  0  0
  9 13  1  0  0  0  0
  9 14  1  0  0  0  0
  9 24  1  0  0  0  0
 11 12  1  0  0  0  0
 11 15  1  0  0  0  0
 11 16  2  0  0  0  0
 13 26  1  0  0  0  0
 13 27  1  0  0  0  0
 13 28  1  0  0  0  0
 14 25  1  0  0  0  0
 14 29  1  0  0  0  0
 14 30  1  0  0  0  0
 15 17  2  0  0  0  0
 16 20  1  0  0  0  0
 16 32  1  0  0  0  0
 17 21  1  0  0  0  0
 17 34  1  0  0  0  0
 18 19  1  0  0  0  0
 18 35  1  0  0  0  0
 18 36  1  0  0  0  0
 20 21  2  0  0  0  0
 20 37  1  0  0  0  0
 21 38  1  0  0  0  0
 22 39  1  0  0  0  0
 23 40  1  0  0  0  0
M  END
> <PUBCHEM_COMPOUND_CID>
51090867

> <PUBCHEM_CONFORMER_RMSD>
0.8

> <PUBCHEM_CONFORMER_DIVERSEORDER>
1
65
165
147
149
37
145
28
97
174
67
176
13
138
16
47
8
82
19
134
105
128
48
83
121
72
84
181
182
36
24
52
4
99
10
39
58
168
22
111
124
35
123
53
107
173
61
133
17
101
11
27
141
89
14
151
172
90
59
80
146
117
171
64
5
68
9
25
77
54
119
158
76
131
34
44
2
169
46
88
132
21
184
152
69
143
166
175
66
125
43
137
95
93
183
130
160
71
91
63
70
51
106
103
153
79
40
155
55
179
75
135
62
104
142
41
7
144
177
113
109
116
45
56
92
33
120
167
115
96
31
20
3
185
180
38
57
73
150
78
139
30
161
148
162
156
164
74
170
159
108
23
163
32
114
60
12
49
136
186
26
15
126
100
18
42
118
87
102
81
86
154
127
94
29
112
98
129
6
157
85
110
50
140
178
122

> <PUBCHEM_MMFF94_PARTIAL_CHARGES>
29
1 -0.57
10 0.01
11 0.05
12 0.46
15 0.12
16 -0.15
17 -0.15
18 0.32
19 0.57
2 0.3
20 -0.15
21 -0.15
22 0.04
23 0.37
3 -0.57
31 0.27
32 0.15
33 0.37
34 0.15
37 0.15
38 0.15
39 0.15
4 -0.71
40 0.15
5 -0.55
6 0.31
7 -0.71
8 -0.57
9 0.18

> <PUBCHEM_EFFECTIVE_ROTOR_COUNT>
6

> <PUBCHEM_PHARMACOPHORE_FEATURES>
11
1 1 acceptor
1 2 donor
1 5 donor
3 2 3 10 cation
3 3 4 12 cation
3 6 8 22 cation
3 7 8 23 cation
3 9 13 14 hydrophobe
5 2 3 4 10 12 rings
5 6 7 8 22 23 rings
6 11 15 16 17 20 21 rings

> <PUBCHEM_HEAVY_ATOM_COUNT>
23

> <PUBCHEM_ATOM_DEF_STEREO_COUNT>
0

> <PUBCHEM_ATOM_UDEF_STEREO_COUNT>
0

> <PUBCHEM_BOND_DEF_STEREO_COUNT>
0

> <PUBCHEM_BOND_UDEF_STEREO_COUNT>
0

> <PUBCHEM_ISOTOPIC_ATOM_COUNT>
0

> <PUBCHEM_COMPONENT_COUNT>
1

> <PUBCHEM_CACTVS_TAUTO_COUNT>
77

> <PUBCHEM_CONFORMER_ID>
030B95B300000001

> <PUBCHEM_MMFF94_ENERGY>
45.2227

> <PUBCHEM_FEATURE_SELFOVERLAP>
61.316

> <PUBCHEM_SHAPE_FINGERPRINT>
10319926 262 18190203333233374018
10411042 1 18193838141547796679
10616163 171 18337107964395785126
107951 10 18119237617674404119
11036077 51 18268147733046325387
11056379 131 18336537318024532284
114674 6 17192633706687852323
12523318 42 18336000739275647978
12553582 1 18411142394346214843
12757275 245 18410292531829132972
12788726 201 18338808904415024611
12969540 37 17475520473476026437
12990986 174 18338800009695938418
13140716 1 18339637820107448307
138480 1 16320620432123397263
14251757 5 18411979165517797246
14363568 33 17403998345996461010
14790565 3 17759517059810070448
14844126 61 18412266137952725938
14863182 85 16181851473630682263
14866123 147 18408882954318200227
15042514 8 18411692184667287419
152267 14 18046914783853116990
15250474 111 18271534208050327034
15463212 79 18199473349093026872
15927050 60 17902511824794660661
16719943 64 18339646749497398331
167882 2 17259912239550705597
17859628 70 17114936700652828123
20511986 3 17845950618710480280
20775438 99 16818600780979808823
221490 88 18125156026942567098
23366157 5 16973633517859742553
23557571 272 18115016511332205580
23559900 14 18337402534543606608
23728640 28 18339920527913612529
238078 22 18339353085508847348
3178227 256 18338502158779730969
445580 42 18201996620857208835
5364581 5 18189355489309217208
602551 16 18336271227768154530
9709674 26 18265623073986822205
9981440 41 18124593343335050017

> <PUBCHEM_SHAPE_MULTIPOLES>
432.59
9.65
5.55
0.91
19.33
0.84
-0.13
3.4
0.6
-7.82
-1.17
0.08
0.58
-0.09

> <PUBCHEM_SHAPE_SELFOVERLAP>
929.493

> <PUBCHEM_SHAPE_VOLUME>
242.5

> <PUBCHEM_COORDINATE_TYPE>
2
5
10

$$$$

