440907
  -OEChem-07051212512D

 43 46  0     1  0  0  0  0  0999 V2000
    5.5482    2.7424    0.0000 O   0  0  0  0  0  0  0  0  0  0  0  0
    5.0238   -2.2072    0.0000 O   0  0  0  0  0  0  0  0  0  0  0  0
    2.8718    2.2039    0.0000 O   0  0  0  0  0  0  0  0  0  0  0  0
    7.3898   -0.8412    0.0000 O   0  0  0  0  0  0  0  0  0  0  0  0
    6.8898   -3.7072    0.0000 O   0  0  0  0  0  0  0  0  0  0  0  0
    3.7320    3.7072    0.0000 O   0  0  0  0  0  0  0  0  0  0  0  0
    4.6578    0.1588    0.0000 C   0  0  1  0  0  0  0  0  0  0  0  0
    5.5238   -1.3412    0.0000 C   0  0  2  0  0  0  0  0  0  0  0  0
    3.7478    0.6656    0.0000 C   0  0  2  0  0  0  0  0  0  0  0  0
    4.6578   -0.8412    0.0000 C   0  0  0  0  0  0  0  0  0  0  0  0
    5.5399    1.7003    0.0000 C   0  0  2  0  0  0  0  0  0  0  0  0
    4.6418    2.2281    0.0000 C   0  0  1  0  0  0  0  0  0  0  0  0
    5.5238    0.6588    0.0000 C   0  0  0  0  0  0  0  0  0  0  0  0
    3.7398    1.7072    0.0000 C   0  0  2  0  0  0  0  0  0  0  0  0
    6.0238   -2.2072    0.0000 C   0  0  2  0  0  0  0  0  0  0  0  0
    6.3898   -0.8412    0.0000 C   0  0  0  0  0  0  0  0  0  0  0  0
    3.7918   -0.3412    0.0000 C   0  0  0  0  0  0  0  0  0  0  0  0
    6.3898    0.1588    0.0000 C   0  0  0  0  0  0  0  0  0  0  0  0
    2.8876    0.1557    0.0000 C   0  0  0  0  0  0  0  0  0  0  0  0
    7.0238   -2.2072    0.0000 C   0  0  0  0  0  0  0  0  0  0  0  0
    6.0238   -3.2072    0.0000 C   0  0  0  0  0  0  0  0  0  0  0  0
    2.8680    3.2039    0.0000 C   0  0  0  0  0  0  0  0  0  0  0  0
    2.0000    3.7006    0.0000 C   0  0  0  0  0  0  0  0  0  0  0  0
    3.7561    0.0457    0.0000 H   0  0  0  0  0  0  0  0  0  0  0  0
    4.0472   -0.7335    0.0000 H   0  0  0  0  0  0  0  0  0  0  0  0
    4.4457   -1.4238    0.0000 H   0  0  0  0  0  0  0  0  0  0  0  0
    6.1598    1.6931    0.0000 H   0  0  0  0  0  0  0  0  0  0  0  0
    4.3338    2.7662    0.0000 H   0  0  0  0  0  0  0  0  0  0  0  0
    3.7386    2.3272    0.0000 H   0  0  0  0  0  0  0  0  0  0  0  0
    3.4818    0.1957    0.0000 H   0  0  0  0  0  0  0  0  0  0  0  0
    3.2548   -0.6512    0.0000 H   0  0  0  0  0  0  0  0  0  0  0  0
    4.1018   -0.8781    0.0000 H   0  0  0  0  0  0  0  0  0  0  0  0
    6.9268    0.4688    0.0000 H   0  0  0  0  0  0  0  0  0  0  0  0
    2.5714    0.6890    0.0000 H   0  0  0  0  0  0  0  0  0  0  0  0
    2.3543   -0.1605    0.0000 H   0  0  0  0  0  0  0  0  0  0  0  0
    3.2038   -0.3777    0.0000 H   0  0  0  0  0  0  0  0  0  0  0  0
    7.0238   -2.8272    0.0000 H   0  0  0  0  0  0  0  0  0  0  0  0
    7.6438   -2.2072    0.0000 H   0  0  0  0  0  0  0  0  0  0  0  0
    7.0238   -1.5872    0.0000 H   0  0  0  0  0  0  0  0  0  0  0  0
    5.4869   -3.5172    0.0000 H   0  0  0  0  0  0  0  0  0  0  0  0
    2.3079    4.2387    0.0000 H   0  0  0  0  0  0  0  0  0  0  0  0
    1.4619    4.0085    0.0000 H   0  0  0  0  0  0  0  0  0  0  0  0
    1.6921    3.1624    0.0000 H   0  0  0  0  0  0  0  0  0  0  0  0
 11  1  1  1  0  0  0
 12  1  1  1  0  0  0
  8  2  1  1  0  0  0
  2 15  1  0  0  0  0
 14  3  1  1  0  0  0
  3 22  1  0  0  0  0
  4 16  2  0  0  0  0
  5 21  2  0  0  0  0
  6 22  2  0  0  0  0
  7  9  1  0  0  0  0
  7 10  1  0  0  0  0
  7 13  1  0  0  0  0
  7 17  1  1  0  0  0
  8 10  1  0  0  0  0
  8 15  1  0  0  0  0
  8 16  1  0  0  0  0
  9 14  1  0  0  0  0
  9 19  1  1  0  0  0
  9 24  1  0  0  0  0
 10 25  1  0  0  0  0
 10 26  1  0  0  0  0
 11 12  1  0  0  0  0
 11 13  1  0  0  0  0
 11 27  1  0  0  0  0
 12 14  1  0  0  0  0
 12 28  1  0  0  0  0
 13 18  2  0  0  0  0
 14 29  1  0  0  0  0
 15 20  1  6  0  0  0
 15 21  1  0  0  0  0
 16 18  1  0  0  0  0
 17 30  1  0  0  0  0
 17 31  1  0  0  0  0
 17 32  1  0  0  0  0
 18 33  1  0  0  0  0
 19 34  1  0  0  0  0
 19 35  1  0  0  0  0
 19 36  1  0  0  0  0
 20 37  1  0  0  0  0
 20 38  1  0  0  0  0
 20 39  1  0  0  0  0
 21 40  1  0  0  0  0
 22 23  1  0  0  0  0
 23 41  1  0  0  0  0
 23 42  1  0  0  0  0
 23 43  1  0  0  0  0
M  END
> <PUBCHEM_COMPOUND_CID>
440907

> <PUBCHEM_COMPOUND_CANONICALIZED>
1

> <PUBCHEM_CACTVS_COMPLEXITY>
668

> <PUBCHEM_CACTVS_HBOND_ACCEPTOR>
6

> <PUBCHEM_CACTVS_HBOND_DONOR>
0

> <PUBCHEM_CACTVS_ROTATABLE_BOND>
3

> <PUBCHEM_CACTVS_SUBSKEYS>
AAADceB4OAAAAAAAAAAAAAAAEiQAAAAAAAAwQAAABIAAAACAAAAAGgAAAAAAD1SggAICCAAABACIAqjSiAIAAAAgAAAACAFAAEgBBBYAIQQCEAAF4AAKIQOJ6PyPgAAAAAAAAABAAAIQADCAAAAAAAAAAA==

> <PUBCHEM_IUPAC_OPENEYE_NAME>
[(1aR,2R,3R,3'S,3aR,5R,7bS)-3'-formyl-3,3',3a-trimethyl-6-oxo-spiro[2,3,4,7b-tetrahydro-1aH-naphtho[1,2-b]oxirene-5,2'-oxirane]-2-yl] acetate

> <PUBCHEM_IUPAC_CAS_NAME>
acetic acid [(1aR,2R,3R,3'S,3aR,5R,7bS)-3'-formyl-3,3',3a-trimethyl-6-oxo-2-spiro[2,3,4,7b-tetrahydro-1aH-naphtho[1,2-b]oxirene-5,2'-oxirane]yl] ester

> <PUBCHEM_IUPAC_NAME>
[(1aR,2R,3R,3'S,3aR,5R,7bS)-3'-formyl-3,3',3a-trimethyl-6-oxospiro[2,3,4,7b-tetrahydro-1aH-naphtho[1,2-b]oxirene-5,2'-oxirane]-2-yl] acetate

> <PUBCHEM_IUPAC_SYSTEMATIC_NAME>
[(1aR,2R,3R,3'S,3aR,5R,7bS)-3'-methanoyl-3,3',3a-trimethyl-6-oxidanylidene-spiro[2,3,4,7b-tetrahydro-1aH-naphtho[1,2-b]oxirene-5,2'-oxirane]-2-yl] ethanoate

> <PUBCHEM_IUPAC_TRADITIONAL_NAME>
acetic acid [(1aR,2R,3R,3'S,3aR,5R,7bS)-3'-formyl-6-keto-3,3',3a-trimethyl-spiro[2,3,4,7b-tetrahydro-1aH-naphtho[1,2-b]oxirene-5,2'-oxirane]-2-yl] ester

> <PUBCHEM_IUPAC_INCHI>
InChI=1S/C17H20O6/c1-8-12(21-9(2)19)14-13(22-14)10-5-11(20)17(6-15(8,10)3)16(4,7-18)23-17/h5,7-8,12-14H,6H2,1-4H3/t8-,12+,13-,14+,15+,16+,17-/m0/s1

> <PUBCHEM_IUPAC_INCHIKEY>
GSPFUBNBRPVALJ-VIEAGMIOSA-N

> <PUBCHEM_XLOGP3_AA>
0.2

> <PUBCHEM_EXACT_MASS>
320.125988

> <PUBCHEM_MOLECULAR_FORMULA>
C17H20O6

> <PUBCHEM_MOLECULAR_WEIGHT>
320.3371

> <PUBCHEM_OPENEYE_CAN_SMILES>
CC1C(C2C(O2)C3=CC(=O)C4(CC13C)C(O4)(C)C=O)OC(=O)C

> <PUBCHEM_OPENEYE_ISO_SMILES>
C[C@H]1[C@H]([C@@H]2[C@@H](O2)C3=CC(=O)[C@@]4(C[C@]13C)[C@@](O4)(C)C=O)OC(=O)C

> <PUBCHEM_CACTVS_TPSA>
85.5

> <PUBCHEM_MONOISOTOPIC_WEIGHT>
320.125988

> <PUBCHEM_TOTAL_CHARGE>
0

> <PUBCHEM_HEAVY_ATOM_COUNT>
23

> <PUBCHEM_ATOM_DEF_STEREO_COUNT>
7

> <PUBCHEM_ATOM_UDEF_STEREO_COUNT>
0

> <PUBCHEM_BOND_DEF_STEREO_COUNT>
0

> <PUBCHEM_BOND_UDEF_STEREO_COUNT>
0

> <PUBCHEM_ISOTOPIC_ATOM_COUNT>
0

> <PUBCHEM_COMPONENT_COUNT>
1

> <PUBCHEM_CACTVS_TAUTO_COUNT>
1

> <PUBCHEM_COORDINATE_TYPE>
1
5
255

> <PUBCHEM_BONDANNOTATIONS>
11  1  5
12  1  5
15  20  6
8  2  5
14  3  5
7  17  5
9  19  5

$$$$

