3415
  -OEChem-07051212512D

 10  9  0     0  0  0  0  0  0999 V2000
    3.4030   -0.3170    0.0000 P   0  0  0  0  0  0  0  0  0  0  0  0
    2.5369   -0.8170    0.0000 O   0  0  0  0  0  0  0  0  0  0  0  0
    2.9030    0.5490    0.0000 O   0  0  0  0  0  0  0  0  0  0  0  0
    3.9030   -1.1830    0.0000 O   0  0  0  0  0  0  0  0  0  0  0  0
    5.1350   -0.3170    0.0000 O   0  0  0  0  0  0  0  0  0  0  0  0
    4.2690    1.1830    0.0000 O   0  0  0  0  0  0  0  0  0  0  0  0
    4.2690    0.1830    0.0000 C   0  0  0  0  0  0  0  0  0  0  0  0
    2.0000   -0.5070    0.0000 H   0  0  0  0  0  0  0  0  0  0  0  0
    2.2830    0.5490    0.0000 H   0  0  0  0  0  0  0  0  0  0  0  0
    5.6720   -0.0070    0.0000 H   0  0  0  0  0  0  0  0  0  0  0  0
  1  2  1  0  0  0  0
  1  3  1  0  0  0  0
  1  4  2  0  0  0  0
  1  7  1  0  0  0  0
  2  8  1  0  0  0  0
  3  9  1  0  0  0  0
  5  7  1  0  0  0  0
  5 10  1  0  0  0  0
  6  7  2  0  0  0  0
M  END
> <PUBCHEM_COMPOUND_CID>
3415

> <PUBCHEM_COMPOUND_CANONICALIZED>
1

> <PUBCHEM_CACTVS_COMPLEXITY>
120

> <PUBCHEM_CACTVS_HBOND_ACCEPTOR>
5

> <PUBCHEM_CACTVS_HBOND_DONOR>
3

> <PUBCHEM_CACTVS_ROTATABLE_BOND>
1

> <PUBCHEM_CACTVS_SUBSKEYS>
AAADcQAAOAIAAAAAAAAAAAAAAAAAAAAAAAAAAAAAAAAAAAAAAAAAAggACCAAAAAAAAAACAAAAhAIQAAACIAAAAAAAAAAAAAAAAAAAAAAAAAAAAAAAAAAAAAAAAAAAAAAAAAAAAAAAAAAAAAAAAAAAAAAAA==

> <PUBCHEM_IUPAC_OPENEYE_NAME>
phosphonoformic acid

> <PUBCHEM_IUPAC_CAS_NAME>
phosphonoformic acid

> <PUBCHEM_IUPAC_NAME>
phosphonoformic acid

> <PUBCHEM_IUPAC_SYSTEMATIC_NAME>
phosphonomethanoic acid

> <PUBCHEM_IUPAC_TRADITIONAL_NAME>
phosphonoformic acid

> <PUBCHEM_IUPAC_INCHI>
InChI=1S/CH3O5P/c2-1(3)7(4,5)6/h(H,2,3)(H2,4,5,6)

> <PUBCHEM_IUPAC_INCHIKEY>
ZJAOAACCNHFJAH-UHFFFAOYSA-N

> <PUBCHEM_XLOGP3>
-2

> <PUBCHEM_EXACT_MASS>
125.97181

> <PUBCHEM_MOLECULAR_FORMULA>
CH3O5P

> <PUBCHEM_MOLECULAR_WEIGHT>
126.005282

> <PUBCHEM_OPENEYE_CAN_SMILES>
C(=O)(O)P(=O)(O)O

> <PUBCHEM_OPENEYE_ISO_SMILES>
C(=O)(O)P(=O)(O)O

> <PUBCHEM_CACTVS_TPSA>
94.8

> <PUBCHEM_MONOISOTOPIC_WEIGHT>
125.97181

> <PUBCHEM_TOTAL_CHARGE>
0

> <PUBCHEM_HEAVY_ATOM_COUNT>
7

> <PUBCHEM_ATOM_DEF_STEREO_COUNT>
0

> <PUBCHEM_ATOM_UDEF_STEREO_COUNT>
0

> <PUBCHEM_BOND_DEF_STEREO_COUNT>
0

> <PUBCHEM_BOND_UDEF_STEREO_COUNT>
0

> <PUBCHEM_ISOTOPIC_ATOM_COUNT>
0

> <PUBCHEM_COMPONENT_COUNT>
1

> <PUBCHEM_CACTVS_TAUTO_COUNT>
1

> <PUBCHEM_COORDINATE_TYPE>
1
5
255

$$$$

