21596475
  -OEChem-07051213113D

 51 54  0     1  0  0  0  0  0999 V2000
    1.6698   -2.0665   -0.4766 O   0  0  0  0  0  0  0  0  0  0  0  0
    4.7336    0.8998    0.2120 O   0  0  0  0  0  0  0  0  0  0  0  0
    3.8815   -1.5956   -0.9185 O   0  0  0  0  0  0  0  0  0  0  0  0
    0.5981    0.8266   -0.5640 C   0  0  1  0  0  0  0  0  0  0  0  0
    1.1081   -0.0920    0.5999 C   0  0  2  0  0  0  0  0  0  0  0  0
    2.6290   -0.2345    0.6985 C   0  0  2  0  0  0  0  0  0  0  0  0
   -0.9672    0.8209   -0.5227 C   0  0  1  0  0  0  0  0  0  0  0  0
    0.6626   -1.5273    0.3932 C   0  0  1  0  0  0  0  0  0  0  0  0
    1.2356    2.2130   -0.3573 C   0  0  0  0  0  0  0  0  0  0  0  0
    3.3598    1.1164    0.5267 C   0  0  2  0  0  0  0  0  0  0  0  0
   -1.5053   -0.6041   -0.4517 C   0  0  0  0  0  0  0  0  0  0  0  0
    2.7610    2.1295   -0.4517 C   0  0  0  0  0  0  0  0  0  0  0  0
   -1.6458    1.6321    0.5917 C   0  0  0  0  0  0  0  0  0  0  0  0
    0.9742    0.3630   -2.0149 C   0  0  0  0  0  0  0  0  0  0  0  0
   -0.7396   -1.6641   -0.1277 C   0  0  0  0  0  0  0  0  0  0  0  0
    2.8431   -1.3416   -0.3286 C   0  0  0  0  0  0  0  0  0  0  0  0
   -2.9897   -0.7058   -0.6842 C   0  0  0  0  0  0  0  0  0  0  0  0
   -3.7576    0.1371    0.3696 C   0  0  2  0  0  0  0  0  0  0  0  0
    3.0796   -0.8420    2.0513 C   0  0  0  0  0  0  0  0  0  0  0  0
   -3.1796    1.5758    0.4490 C   0  0  0  0  0  0  0  0  0  0  0  0
   -3.6843   -0.5410    1.7534 C   0  0  0  0  0  0  0  0  0  0  0  0
   -5.2105    0.2245   -0.0305 C   0  0  0  0  0  0  0  0  0  0  0  0
   -5.8563   -0.7243   -0.7169 C   0  0  0  0  0  0  0  0  0  0  0  0
    0.7104    0.2929    1.5485 H   0  0  0  0  0  0  0  0  0  0  0  0
   -1.3108    1.2561   -1.4735 H   0  0  0  0  0  0  0  0  0  0  0  0
    0.7048   -2.0912    1.3331 H   0  0  0  0  0  0  0  0  0  0  0  0
    0.9693    2.6163    0.6273 H   0  0  0  0  0  0  0  0  0  0  0  0
    0.8617    2.9261   -1.1019 H   0  0  0  0  0  0  0  0  0  0  0  0
    3.3553    1.6179    1.5040 H   0  0  0  0  0  0  0  0  0  0  0  0
    3.0880    1.9165   -1.4753 H   0  0  0  0  0  0  0  0  0  0  0  0
    3.1872    3.1188   -0.2382 H   0  0  0  0  0  0  0  0  0  0  0  0
   -1.3401    2.6828    0.5359 H   0  0  0  0  0  0  0  0  0  0  0  0
   -1.3536    1.2687    1.5830 H   0  0  0  0  0  0  0  0  0  0  0  0
    0.4912   -0.5737   -2.3079 H   0  0  0  0  0  0  0  0  0  0  0  0
    0.6527    1.1162   -2.7455 H   0  0  0  0  0  0  0  0  0  0  0  0
    2.0457    0.2229   -2.1673 H   0  0  0  0  0  0  0  0  0  0  0  0
   -1.1749   -2.6593   -0.1015 H   0  0  0  0  0  0  0  0  0  0  0  0
   -3.1998   -0.3526   -1.7031 H   0  0  0  0  0  0  0  0  0  0  0  0
   -3.2894   -1.7606   -0.6422 H   0  0  0  0  0  0  0  0  0  0  0  0
   -3.6320    2.1245    1.2856 H   0  0  0  0  0  0  0  0  0  0  0  0
   -3.4523    2.1293   -0.4610 H   0  0  0  0  0  0  0  0  0  0  0  0
    2.7336   -0.2287    2.8909 H   0  0  0  0  0  0  0  0  0  0  0  0
    2.7102   -1.8608    2.2091 H   0  0  0  0  0  0  0  0  0  0  0  0
    4.1729   -0.9031    2.1069 H   0  0  0  0  0  0  0  0  0  0  0  0
    4.7768    0.5131   -0.6789 H   0  0  0  0  0  0  0  0  0  0  0  0
   -2.6577   -0.6152    2.1260 H   0  0  0  0  0  0  0  0  0  0  0  0
   -4.2599    0.0202    2.4995 H   0  0  0  0  0  0  0  0  0  0  0  0
   -4.0931   -1.5582    1.7220 H   0  0  0  0  0  0  0  0  0  0  0  0
   -5.7797    1.0902    0.3015 H   0  0  0  0  0  0  0  0  0  0  0  0
   -6.9100   -0.5931   -0.9442 H   0  0  0  0  0  0  0  0  0  0  0  0
   -5.4012   -1.6441   -1.0595 H   0  0  0  0  0  0  0  0  0  0  0  0
  1  8  1  0  0  0  0
  1 16  1  0  0  0  0
  2 10  1  0  0  0  0
  2 45  1  0  0  0  0
  3 16  2  0  0  0  0
  4  5  1  0  0  0  0
  4  7  1  0  0  0  0
  4  9  1  0  0  0  0
  4 14  1  0  0  0  0
  5  6  1  0  0  0  0
  5  8  1  0  0  0  0
  5 24  1  0  0  0  0
  6 10  1  0  0  0  0
  6 16  1  0  0  0  0
  6 19  1  0  0  0  0
  7 11  1  0  0  0  0
  7 13  1  0  0  0  0
  7 25  1  0  0  0  0
  8 15  1  0  0  0  0
  8 26  1  0  0  0  0
  9 12  1  0  0  0  0
  9 27  1  0  0  0  0
  9 28  1  0  0  0  0
 10 12  1  0  0  0  0
 10 29  1  0  0  0  0
 11 15  2  0  0  0  0
 11 17  1  0  0  0  0
 12 30  1  0  0  0  0
 12 31  1  0  0  0  0
 13 20  1  0  0  0  0
 13 32  1  0  0  0  0
 13 33  1  0  0  0  0
 14 34  1  0  0  0  0
 14 35  1  0  0  0  0
 14 36  1  0  0  0  0
 15 37  1  0  0  0  0
 17 18  1  0  0  0  0
 17 38  1  0  0  0  0
 17 39  1  0  0  0  0
 18 20  1  0  0  0  0
 18 21  1  0  0  0  0
 18 22  1  0  0  0  0
 19 42  1  0  0  0  0
 19 43  1  0  0  0  0
 19 44  1  0  0  0  0
 20 40  1  0  0  0  0
 20 41  1  0  0  0  0
 21 46  1  0  0  0  0
 21 47  1  0  0  0  0
 21 48  1  0  0  0  0
 22 23  2  0  0  0  0
 22 49  1  0  0  0  0
 23 50  1  0  0  0  0
 23 51  1  0  0  0  0
M  END
> <PUBCHEM_COMPOUND_CID>
21596475

> <PUBCHEM_CONFORMER_RMSD>
0.6

> <PUBCHEM_CONFORMER_DIVERSEORDER>
1
2

> <PUBCHEM_MMFF94_PARTIAL_CHARGES>
19
1 -0.43
10 0.28
11 -0.28
15 -0.29
16 0.66
17 0.14
18 0.14
2 -0.68
22 -0.29
23 -0.3
3 -0.57
37 0.15
45 0.4
49 0.15
50 0.15
51 0.15
6 0.06
7 0.14
8 0.42

> <PUBCHEM_EFFECTIVE_ROTOR_COUNT>
2.6

> <PUBCHEM_PHARMACOPHORE_FEATURES>
8
1 2 acceptor
1 2 donor
1 23 hydrophobe
1 3 acceptor
5 1 5 6 8 16 rings
6 4 5 6 9 10 12 rings
6 4 5 7 8 11 15 rings
6 7 11 13 17 18 20 rings

> <PUBCHEM_HEAVY_ATOM_COUNT>
23

> <PUBCHEM_ATOM_DEF_STEREO_COUNT>
7

> <PUBCHEM_ATOM_UDEF_STEREO_COUNT>
0

> <PUBCHEM_BOND_DEF_STEREO_COUNT>
0

> <PUBCHEM_BOND_UDEF_STEREO_COUNT>
0

> <PUBCHEM_ISOTOPIC_ATOM_COUNT>
0

> <PUBCHEM_COMPONENT_COUNT>
1

> <PUBCHEM_CACTVS_TAUTO_COUNT>
1

> <PUBCHEM_CONFORMER_ID>
0149893B00000001

> <PUBCHEM_MMFF94_ENERGY>
79.9372

> <PUBCHEM_FEATURE_SELFOVERLAP>
40.949

> <PUBCHEM_SHAPE_FINGERPRINT>
10366900 7 17845929723314725355
10863032 1 17822010895824511006
10948715 1 18187365368598241516
10967382 1 18410292484494847916
11471102 20 18411982455362506279
11796584 16 15410898478761892721
12011746 2 18343017787802544100
12236239 1 17967534571760633615
12251169 10 18341898463132000400
12507560 40 17749962166388053032
12633257 1 18200611202252264648
12670546 56 17894347791416886297
13140716 1 18197223550728644834
13224815 77 18411417319634669697
13533116 47 17312822710484775231
13583140 156 17346323661345828851
14178342 30 18049453822193666433
14223421 5 18341890788236672825
14289901 80 18187646937752814697
14787075 74 18335708200246800649
15196674 1 18335701684749926193
15375358 24 18060702784424512715
15536298 74 18334011709222985516
1601671 61 18412260602219746892
16945 1 18341342183521369566
17349148 13 18342178877937480699
1813 80 17845931948350313020
18222031 100 18341054106974248515
200 152 18335708234975829877
20028762 73 18260838102631606263
20645477 70 18342741793267400205
20691752 17 18058999700478438977
20715895 44 17977391856787112993
21033648 29 17823433745464721897
21267235 1 18335695074463065279
22149856 69 18188195526333267203
22182313 1 18200326518724292740
23184049 59 18273218581683535004
23402539 116 18041567940463855245
23557571 272 17312819373205047417
23559900 14 18334574650523266183
26918003 58 17917715673693337153
2748010 2 18050016789416595054
2838139 119 14707793714055871850
296302 2 18273217482599253105
350125 39 18335979873654870117
474 4 18341613668129778129
5104073 3 18409728508392364393
5283173 99 17987815128149558965
7364860 26 18407755928491862788
9709674 26 18413385449891107603
9999458 23 17703510983271053796

> <PUBCHEM_SHAPE_MULTIPOLES>
455.72
9.23
2.06
1.34
8.38
0.33
-0.17
-0.51
-0.67
-1.35
0.13
-0.27
-0.22
-0.27

> <PUBCHEM_SHAPE_SELFOVERLAP>
987.688

> <PUBCHEM_SHAPE_VOLUME>
248.8

> <PUBCHEM_COORDINATE_TYPE>
2
5
10

$$$$

