32921
  -OEChem-07051213133D

 22 22  0     0  0  0  0  0  0999 V2000
   -0.7902   -1.2374    0.3470 S   0  0  0  0  0  0  0  0  0  0  0  0
   -3.8425    1.2514   -0.2608 F   0  0  0  0  0  0  0  0  0  0  0  0
   -3.8495   -0.8975   -0.5545 F   0  0  0  0  0  0  0  0  0  0  0  0
   -3.5560   -0.0762    1.4375 F   0  0  0  0  0  0  0  0  0  0  0  0
    4.1024   -0.6562    0.1687 O   0  0  0  0  0  0  0  0  0  0  0  0
    1.7856   -0.9679   -0.1169 N   0  0  0  0  0  0  0  0  0  0  0  0
    2.7241    1.1804    0.1689 N   0  0  0  0  0  0  0  0  0  0  0  0
    0.2932    0.8538   -0.6630 N   0  0  0  0  0  0  0  0  0  0  0  0
   -1.0605    1.1318   -0.5909 N   0  0  0  0  0  0  0  0  0  0  0  0
    0.5131   -0.3206   -0.2100 C   0  0  0  0  0  0  0  0  0  0  0  0
    1.8719   -2.4344   -0.2215 C   0  0  0  0  0  0  0  0  0  0  0  0
    2.9624   -0.1926    0.0762 C   0  0  0  0  0  0  0  0  0  0  0  0
   -1.7393    0.1252   -0.0832 C   0  0  0  0  0  0  0  0  0  0  0  0
   -3.2006    0.1019    0.1256 C   0  0  0  0  0  0  0  0  0  0  0  0
    3.7858    2.1384    0.3770 C   0  0  0  0  0  0  0  0  0  0  0  0
    1.5528   -2.8873    0.7219 H   0  0  0  0  0  0  0  0  0  0  0  0
    2.9078   -2.7356   -0.4040 H   0  0  0  0  0  0  0  0  0  0  0  0
    1.2627   -2.7893   -1.0583 H   0  0  0  0  0  0  0  0  0  0  0  0
    1.7824    1.5497    0.1933 H   0  0  0  0  0  0  0  0  0  0  0  0
    4.6540    1.8743   -0.2322 H   0  0  0  0  0  0  0  0  0  0  0  0
    4.0632    2.1251    1.4341 H   0  0  0  0  0  0  0  0  0  0  0  0
    3.4208    3.1300    0.1001 H   0  0  0  0  0  0  0  0  0  0  0  0
  1 10  1  0  0  0  0
  1 13  1  0  0  0  0
  2 14  1  0  0  0  0
  3 14  1  0  0  0  0
  4 14  1  0  0  0  0
  5 12  2  0  0  0  0
  6 10  1  0  0  0  0
  6 11  1  0  0  0  0
  6 12  1  0  0  0  0
  7 12  1  0  0  0  0
  7 15  1  0  0  0  0
  7 19  1  0  0  0  0
  8  9  1  0  0  0  0
  8 10  2  0  0  0  0
  9 13  2  0  0  0  0
 11 16  1  0  0  0  0
 11 17  1  0  0  0  0
 11 18  1  0  0  0  0
 13 14  1  0  0  0  0
 15 20  1  0  0  0  0
 15 21  1  0  0  0  0
 15 22  1  0  0  0  0
M  END
> <PUBCHEM_COMPOUND_CID>
32921

> <PUBCHEM_CONFORMER_RMSD>
0.6

> <PUBCHEM_CONFORMER_DIVERSEORDER>
4
6
9
1
8
5
2
7
10
3
12
11

> <PUBCHEM_MMFF94_PARTIAL_CHARGES>
16
1 -0.08
10 0.44
11 0.3
12 0.69
13 0.2
14 1.2
15 0.3
19 0.37
2 -0.34
3 -0.34
4 -0.34
5 -0.57
6 -0.42
7 -0.73
8 -0.34
9 -0.34

> <PUBCHEM_EFFECTIVE_ROTOR_COUNT>
4

> <PUBCHEM_PHARMACOPHORE_FEATURES>
4
1 5 acceptor
1 7 donor
1 9 acceptor
5 1 8 9 10 13 rings

> <PUBCHEM_HEAVY_ATOM_COUNT>
15

> <PUBCHEM_ATOM_DEF_STEREO_COUNT>
0

> <PUBCHEM_ATOM_UDEF_STEREO_COUNT>
0

> <PUBCHEM_BOND_DEF_STEREO_COUNT>
0

> <PUBCHEM_BOND_UDEF_STEREO_COUNT>
0

> <PUBCHEM_ISOTOPIC_ATOM_COUNT>
0

> <PUBCHEM_COMPONENT_COUNT>
1

> <PUBCHEM_CACTVS_TAUTO_COUNT>
2

> <PUBCHEM_CONFORMER_ID>
0000809900000004

> <PUBCHEM_MMFF94_ENERGY>
30.8496

> <PUBCHEM_FEATURE_SELFOVERLAP>
20.297

> <PUBCHEM_SHAPE_FINGERPRINT>
10219947 1 18342175548715340668
10608611 8 18341054102642410076
10980938 120 18335422352808844040
11132069 177 18271531888107934672
11471102 20 18408608084579197412
11615757 297 18113053843883641488
11806522 49 18267309733756728231
12251169 10 18342748416323319978
13296908 3 17846490461344216763
13380535 76 18341052917416117586
13675066 3 18130215056368043481
14251717 144 18408609145077637854
14252887 29 18201987850786983347
14289901 80 18260269667893190515
14325111 11 18411139142944928981
14415576 193 18410011035530527796
14445660 50 18187076265638131539
15219456 202 18413953888332789076
15375358 24 18131075939338391143
15501101 241 18342174488095886524
15536298 74 18408040693534692012
15775835 57 18187646839211400068
16945 1 18412538816751777478
17834072 33 18260274031959622013
18175812 5 18343582932362999342
18186145 218 18114174276307613623
190213 19 17167864179177049175
19026448 5 17531245062949274631
19422 9 17748825219751537007
200 152 18187093870614145375
20201158 50 18341048600984443698
20279233 1 18131346440731942667
20528008 55 18342178847186926867
20645477 56 18129663131717230901
20645477 70 18264776643460275575
21501925 9 17846492583168642281
22854114 59 18409731742312813936
23402539 116 18271536372038136550
23532345 42 17489304153279492276
23557571 272 17131557253193052991
23559900 14 18263932192776072690
2748010 2 18057608861255665151
3248919 1 16950845920319930631
449060 50 18408317765885042137
449060 62 18412542081433370020
5104073 3 18412545405284273393
581208 293 18409733962795101110
69090 78 18410299085812277983
7364860 26 18335983177054465542
81228 2 17416682660085001605

> <PUBCHEM_SHAPE_MULTIPOLES>
264.93
7.48
1.93
0.77
1.52
0.28
0.13
-2.05
0.93
-1.79
-0.04
0.41
-0.02
0.33

> <PUBCHEM_SHAPE_SELFOVERLAP>
530.538

> <PUBCHEM_SHAPE_VOLUME>
159.2

> <PUBCHEM_COORDINATE_TYPE>
2
5
10

$$$$

