17395675
  -OEChem-06241222513D

 36 37  0     0  0  0  0  0  0999 V2000
   -3.7256    2.6518    0.7215 Cl  0  0  0  0  0  0  0  0  0  0  0  0
   -0.9901   -1.8004   -0.4716 O   0  0  0  0  0  0  0  0  0  0  0  0
    5.0835    0.0769    0.2006 N   0  0  0  0  0  0  0  0  0  0  0  0
    4.7107    1.3072   -0.1913 N   0  0  0  0  0  0  0  0  0  0  0  0
   -1.9276    0.2857    0.0779 N   0  0  0  0  0  0  0  0  0  0  0  0
    4.0580   -0.8213    0.2468 C   0  0  0  0  0  0  0  0  0  0  0  0
    2.9363   -0.1304   -0.1416 C   0  0  0  0  0  0  0  0  0  0  0  0
    3.3980    1.1744   -0.3990 C   0  0  0  0  0  0  0  0  0  0  0  0
    4.2527   -2.2284    0.6507 C   0  0  0  0  0  0  0  0  0  0  0  0
    1.5700   -0.6714   -0.2522 C   0  0  0  0  0  0  0  0  0  0  0  0
    6.4701   -0.1698    0.5222 C   0  0  0  0  0  0  0  0  0  0  0  0
    2.6182    2.3420   -0.8491 C   0  0  0  0  0  0  0  0  0  0  0  0
    0.4512    0.0387   -0.0451 C   0  0  0  0  0  0  0  0  0  0  0  0
   -0.8866   -0.6159   -0.1752 C   0  0  0  0  0  0  0  0  0  0  0  0
   -3.3035    0.0395    0.0513 C   0  0  0  0  0  0  0  0  0  0  0  0
   -4.2283    1.0461    0.3293 C   0  0  0  0  0  0  0  0  0  0  0  0
   -3.7451   -1.2464   -0.2604 C   0  0  0  0  0  0  0  0  0  0  0  0
   -5.5945    0.7667    0.2955 C   0  0  0  0  0  0  0  0  0  0  0  0
   -5.1113   -1.5257   -0.2941 C   0  0  0  0  0  0  0  0  0  0  0  0
   -6.0360   -0.5194   -0.0162 C   0  0  0  0  0  0  0  0  0  0  0  0
    3.2992   -2.7404    0.8120 H   0  0  0  0  0  0  0  0  0  0  0  0
    4.8169   -2.2957    1.5867 H   0  0  0  0  0  0  0  0  0  0  0  0
    4.7997   -2.7775   -0.1226 H   0  0  0  0  0  0  0  0  0  0  0  0
    1.5029   -1.7301   -0.4902 H   0  0  0  0  0  0  0  0  0  0  0  0
    6.8054   -1.0552   -0.0231 H   0  0  0  0  0  0  0  0  0  0  0  0
    7.0729    0.6924    0.2243 H   0  0  0  0  0  0  0  0  0  0  0  0
    6.5487   -0.3250    1.6009 H   0  0  0  0  0  0  0  0  0  0  0  0
    2.0724    2.7889   -0.0122 H   0  0  0  0  0  0  0  0  0  0  0  0
    3.2695    3.1177   -1.2674 H   0  0  0  0  0  0  0  0  0  0  0  0
    1.9045    2.0687   -1.6327 H   0  0  0  0  0  0  0  0  0  0  0  0
    0.4739    1.0843    0.2365 H   0  0  0  0  0  0  0  0  0  0  0  0
   -1.6744    1.2436    0.3122 H   0  0  0  0  0  0  0  0  0  0  0  0
   -3.1038   -2.0846   -0.4884 H   0  0  0  0  0  0  0  0  0  0  0  0
   -6.3283    1.5395    0.5098 H   0  0  0  0  0  0  0  0  0  0  0  0
   -5.4568   -2.5266   -0.5365 H   0  0  0  0  0  0  0  0  0  0  0  0
   -7.0997   -0.7371   -0.0424 H   0  0  0  0  0  0  0  0  0  0  0  0
  1 16  1  0  0  0  0
  2 14  2  0  0  0  0
  3  4  1  0  0  0  0
  3  6  1  0  0  0  0
  3 11  1  0  0  0  0
  4  8  2  0  0  0  0
  5 14  1  0  0  0  0
  5 15  1  0  0  0  0
  5 32  1  0  0  0  0
  6  7  2  0  0  0  0
  6  9  1  0  0  0  0
  7  8  1  0  0  0  0
  7 10  1  0  0  0  0
  8 12  1  0  0  0  0
  9 21  1  0  0  0  0
  9 22  1  0  0  0  0
  9 23  1  0  0  0  0
 10 13  2  0  0  0  0
 10 24  1  0  0  0  0
 11 25  1  0  0  0  0
 11 26  1  0  0  0  0
 11 27  1  0  0  0  0
 12 28  1  0  0  0  0
 12 29  1  0  0  0  0
 12 30  1  0  0  0  0
 13 14  1  0  0  0  0
 13 31  1  0  0  0  0
 15 16  1  0  0  0  0
 15 17  2  0  0  0  0
 16 18  2  0  0  0  0
 17 19  1  0  0  0  0
 17 33  1  0  0  0  0
 18 20  1  0  0  0  0
 18 34  1  0  0  0  0
 19 20  2  0  0  0  0
 19 35  1  0  0  0  0
 20 36  1  0  0  0  0
M  END
> <PUBCHEM_COMPOUND_CID>
17395675

> <PUBCHEM_CONFORMER_RMSD>
0.6

> <PUBCHEM_CONFORMER_DIVERSEORDER>
1
25
46
29
6
41
13
22
26
36
47
39
28
17
5
43
35
8
19
49
48
45
16
23
50
24
12
20
40
32
37
4
42
27
44
10
34
30
21
9
15
33
31
2
14
11
7
18
38
3

> <PUBCHEM_MMFF94_PARTIAL_CHARGES>
27
1 -0.18
10 -0.1
11 0.26
12 0.18
13 -0.14
14 0.62
15 0.12
16 0.18
17 -0.15
18 -0.15
19 -0.15
2 -0.57
20 -0.15
24 0.15
3 0.31
31 0.15
32 0.37
33 0.15
34 0.15
35 0.15
36 0.15
4 -0.71
5 -0.55
6 -0.33
7 -0.05
8 0.11
9 0.18

> <PUBCHEM_EFFECTIVE_ROTOR_COUNT>
4

> <PUBCHEM_PHARMACOPHORE_FEATURES>
5
1 2 acceptor
1 4 acceptor
1 5 donor
5 3 4 6 7 8 rings
6 15 16 17 18 19 20 rings

> <PUBCHEM_HEAVY_ATOM_COUNT>
20

> <PUBCHEM_ATOM_DEF_STEREO_COUNT>
0

> <PUBCHEM_ATOM_UDEF_STEREO_COUNT>
0

> <PUBCHEM_BOND_DEF_STEREO_COUNT>
1

> <PUBCHEM_BOND_UDEF_STEREO_COUNT>
0

> <PUBCHEM_ISOTOPIC_ATOM_COUNT>
0

> <PUBCHEM_COMPONENT_COUNT>
1

> <PUBCHEM_CACTVS_TAUTO_COUNT>
2

> <PUBCHEM_CONFORMER_ID>
01096FDB00000001

> <PUBCHEM_MMFF94_ENERGY>
47.0948

> <PUBCHEM_FEATURE_SELFOVERLAP>
25.371

> <PUBCHEM_SHAPE_FINGERPRINT>
10354089 29 18413388735572691934
10595046 47 18410573959518829921
10688039 33 17561367309516853772
10937287 8 16908320903625349244
11315181 36 18343863295317590169
12107183 9 17762902464780048595
12166972 35 18335419054422232216
12236239 1 18411138021736892582
12596602 18 17775281621700560089
12916748 109 18334006198996248503
13073987 5 18409450318754411170
13167372 99 18337388344024128889
13167823 11 18411703196679045819
13533116 47 18131073774596259930
13785724 45 17688026831363439394
14251764 18 18272373053827866936
14341114 176 18412821399988182475
14849402 71 18269553841580067356
15196674 1 18410009957272352653
15250474 111 18335998479585780111
17834072 33 18411982442630663027
17844677 252 18410285934753961585
19489759 90 18411419514399842353
20645477 70 18412545444503967806
21033648 29 16845027727082616549
21065198 48 18411701018977223762
21267235 1 18413105087611723806
23402539 116 18333736797351896791
23536379 177 18410575101890648523
23559900 14 18341897350714365498
3004659 81 18408882958386547726
34797466 226 17095515154528835117
351380 180 18342455941566124897
3545911 37 18410573977094448422
4073 2 17917424276962624770
4214541 1 18410855473461619021
4325135 7 18260831484365661911
5104073 3 18410574010958295963
542803 24 18333731312225128295
54446538 1 18410856555572006889
7495541 125 17895196554295506073

> <PUBCHEM_SHAPE_MULTIPOLES>
392.65
16.24
2.2
0.75
0.73
0.77
0.01
-0.53
2.01
-0.34
0.04
0.12
0.11
-1.53

> <PUBCHEM_SHAPE_SELFOVERLAP>
820.812

> <PUBCHEM_SHAPE_VOLUME>
224

> <PUBCHEM_COORDINATE_TYPE>
2
5
10

$$$$

