443566
  -OEChem-07051213023D

 83 85  0     1  0  0  0  0  0999 V2000
   -5.4078    1.9300   -0.7161 O   0  0  0  0  0  0  0  0  0  0  0  0
    2.3854    0.7988   -0.6351 O   0  0  0  0  0  0  0  0  0  0  0  0
   -1.2603    2.9432   -1.8918 O   0  0  0  0  0  0  0  0  0  0  0  0
   -4.9393    0.4909    1.8174 O   0  0  0  0  0  0  0  0  0  0  0  0
   -0.8458   -1.4174   -0.8015 O   0  0  0  0  0  0  0  0  0  0  0  0
   -3.3590   -1.7973    2.5705 O   0  0  0  0  0  0  0  0  0  0  0  0
    2.8640   -0.2045    1.4639 O   0  0  0  0  0  0  0  0  0  0  0  0
    6.3805   -1.1014   -0.5250 O   0  0  0  0  0  0  0  0  0  0  0  0
    6.4003    0.8040    1.6380 O   0  0  0  0  0  0  0  0  0  0  0  0
    1.0070   -2.0542   -2.0244 O   0  0  0  0  0  0  0  0  0  0  0  0
   -4.1554    1.4378   -0.1921 C   0  0  2  0  0  0  0  0  0  0  0  0
   -3.2389    2.5785    0.2180 C   0  0  0  0  0  0  0  0  0  0  0  0
   -1.7624    2.1181    0.3437 C   0  0  1  0  0  0  0  0  0  0  0  0
   -4.5330    1.3062   -1.6566 C   0  0  0  0  0  0  0  0  0  0  0  0
   -0.7991    2.9664   -0.5327 C   0  0  1  0  0  0  0  0  0  0  0  0
    0.7002    2.5409   -0.5757 C   0  0  2  0  0  0  0  0  0  0  0  0
   -4.3751    0.2929    0.7459 C   0  0  0  0  0  0  0  0  0  0  0  0
   -3.8690   -1.0856    0.3090 C   0  0  1  0  0  0  0  0  0  0  0  0
    0.9676    1.0089   -0.6419 C   0  0  1  0  0  0  0  0  0  0  0  0
   -2.7740   -1.5718    1.2826 C   0  0  2  0  0  0  0  0  0  0  0  0
   -1.3754    2.1111    1.8260 C   0  0  0  0  0  0  0  0  0  0  0  0
    0.3605    0.2945   -1.8706 C   0  0  2  0  0  0  0  0  0  0  0  0
   -1.9167   -2.8132    0.8883 C   0  0  2  0  0  0  0  0  0  0  0  0
    1.4964    3.1919    0.5695 C   0  0  0  0  0  0  0  0  0  0  0  0
   -5.0853   -2.0017    0.1933 C   0  0  0  0  0  0  0  0  0  0  0  0
   -1.2221   -2.7784   -0.5003 C   0  0  1  0  0  0  0  0  0  0  0  0
    2.7290   -0.3993    0.0546 C   0  0  2  0  0  0  0  0  0  0  0  0
    3.9711   -1.0633   -0.5347 C   0  0  0  0  0  0  0  0  0  0  0  0
    0.2464   -1.1992   -1.5930 C   0  0  0  0  0  0  0  0  0  0  0  0
    1.1284    0.5359   -3.1710 C   0  0  0  0  0  0  0  0  0  0  0  0
    5.2487   -0.3136   -0.1618 C   0  0  1  0  0  0  0  0  0  0  0  0
   -2.5814   -4.1648    1.1791 C   0  0  0  0  0  0  0  0  0  0  0  0
    5.2945   -0.0457    1.3429 C   0  0  2  0  0  0  0  0  0  0  0  0
    3.9897    0.6000    1.8244 C   0  0  2  0  0  0  0  0  0  0  0  0
   -2.0410   -3.3335   -1.6653 C   0  0  0  0  0  0  0  0  0  0  0  0
    3.9703    0.7599    3.3416 C   0  0  0  0  0  0  0  0  0  0  0  0
    6.4009   -1.3652   -1.9195 C   0  0  0  0  0  0  0  0  0  0  0  0
   -3.6051    2.9936    1.1657 H   0  0  0  0  0  0  0  0  0  0  0  0
   -3.3256    3.3965   -0.5080 H   0  0  0  0  0  0  0  0  0  0  0  0
   -1.7144    1.0879   -0.0199 H   0  0  0  0  0  0  0  0  0  0  0  0
   -4.0375    1.9406   -2.3809 H   0  0  0  0  0  0  0  0  0  0  0  0
   -4.8354    0.3444   -2.0498 H   0  0  0  0  0  0  0  0  0  0  0  0
   -0.8727    4.0135   -0.2129 H   0  0  0  0  0  0  0  0  0  0  0  0
    1.1365    2.9734   -1.4876 H   0  0  0  0  0  0  0  0  0  0  0  0
   -3.4273   -0.9624   -0.6825 H   0  0  0  0  0  0  0  0  0  0  0  0
    0.5496    0.5761    0.2748 H   0  0  0  0  0  0  0  0  0  0  0  0
   -2.0658   -0.7474    1.4281 H   0  0  0  0  0  0  0  0  0  0  0  0
   -0.4489    1.5612    2.0019 H   0  0  0  0  0  0  0  0  0  0  0  0
   -1.2522    3.1303    2.2067 H   0  0  0  0  0  0  0  0  0  0  0  0
   -2.1441    1.6178    2.4311 H   0  0  0  0  0  0  0  0  0  0  0  0
   -0.6674    0.6256   -2.0484 H   0  0  0  0  0  0  0  0  0  0  0  0
   -1.0845   -2.7720    1.6104 H   0  0  0  0  0  0  0  0  0  0  0  0
    1.3601    2.6744    1.5215 H   0  0  0  0  0  0  0  0  0  0  0  0
    2.5670    3.1873    0.3403 H   0  0  0  0  0  0  0  0  0  0  0  0
    1.2103    4.2403    0.7039 H   0  0  0  0  0  0  0  0  0  0  0  0
   -5.5022   -2.2548    1.1736 H   0  0  0  0  0  0  0  0  0  0  0  0
   -5.8837   -1.5170   -0.3806 H   0  0  0  0  0  0  0  0  0  0  0  0
   -4.8385   -2.9300   -0.3258 H   0  0  0  0  0  0  0  0  0  0  0  0
   -0.3116   -3.3875   -0.4164 H   0  0  0  0  0  0  0  0  0  0  0  0
    1.9383   -1.1409   -0.0152 H   0  0  0  0  0  0  0  0  0  0  0  0
   -0.7487    3.6038   -2.3892 H   0  0  0  0  0  0  0  0  0  0  0  0
    3.8548   -1.1254   -1.6219 H   0  0  0  0  0  0  0  0  0  0  0  0
    4.0464   -2.0915   -0.1565 H   0  0  0  0  0  0  0  0  0  0  0  0
    5.3053    0.6442   -0.6964 H   0  0  0  0  0  0  0  0  0  0  0  0
    0.6423    0.0156   -4.0041 H   0  0  0  0  0  0  0  0  0  0  0  0
    1.1612    1.6011   -3.4180 H   0  0  0  0  0  0  0  0  0  0  0  0
    2.1568    0.1641   -3.1180 H   0  0  0  0  0  0  0  0  0  0  0  0
   -2.8796   -4.2439    2.2296 H   0  0  0  0  0  0  0  0  0  0  0  0
   -3.4686   -4.3357    0.5673 H   0  0  0  0  0  0  0  0  0  0  0  0
   -1.8800   -4.9839    0.9846 H   0  0  0  0  0  0  0  0  0  0  0  0
    5.4612   -0.9927    1.8723 H   0  0  0  0  0  0  0  0  0  0  0  0
    3.8832    1.5987    1.3867 H   0  0  0  0  0  0  0  0  0  0  0  0
   -3.7184   -0.9526    2.8895 H   0  0  0  0  0  0  0  0  0  0  0  0
   -2.3072   -4.3829   -1.5129 H   0  0  0  0  0  0  0  0  0  0  0  0
   -2.9540   -2.7603   -1.8376 H   0  0  0  0  0  0  0  0  0  0  0  0
   -1.4675   -3.2717   -2.5969 H   0  0  0  0  0  0  0  0  0  0  0  0
    4.0505   -0.2131    3.8388 H   0  0  0  0  0  0  0  0  0  0  0  0
    4.7841    1.4018    3.6915 H   0  0  0  0  0  0  0  0  0  0  0  0
    3.0197    1.1992    3.6641 H   0  0  0  0  0  0  0  0  0  0  0  0
    7.2004    0.3700    1.2956 H   0  0  0  0  0  0  0  0  0  0  0  0
    7.4102   -1.6984   -2.1797 H   0  0  0  0  0  0  0  0  0  0  0  0
    6.1802   -0.4695   -2.5090 H   0  0  0  0  0  0  0  0  0  0  0  0
    5.7178   -2.1800   -2.1755 H   0  0  0  0  0  0  0  0  0  0  0  0
  1 11  1  0  0  0  0
  1 14  1  0  0  0  0
  2 19  1  0  0  0  0
  2 27  1  0  0  0  0
  3 15  1  0  0  0  0
  3 61  1  0  0  0  0
  4 17  2  0  0  0  0
  5 26  1  0  0  0  0
  5 29  1  0  0  0  0
  6 20  1  0  0  0  0
  6 73  1  0  0  0  0
  7 27  1  0  0  0  0
  7 34  1  0  0  0  0
  8 31  1  0  0  0  0
  8 37  1  0  0  0  0
  9 33  1  0  0  0  0
  9 80  1  0  0  0  0
 10 29  2  0  0  0  0
 11 12  1  0  0  0  0
 11 14  1  0  0  0  0
 11 17  1  0  0  0  0
 12 13  1  0  0  0  0
 12 38  1  0  0  0  0
 12 39  1  0  0  0  0
 13 15  1  0  0  0  0
 13 21  1  0  0  0  0
 13 40  1  0  0  0  0
 14 41  1  0  0  0  0
 14 42  1  0  0  0  0
 15 16  1  0  0  0  0
 15 43  1  0  0  0  0
 16 19  1  0  0  0  0
 16 24  1  0  0  0  0
 16 44  1  0  0  0  0
 17 18  1  0  0  0  0
 18 20  1  0  0  0  0
 18 25  1  0  0  0  0
 18 45  1  0  0  0  0
 19 22  1  0  0  0  0
 19 46  1  0  0  0  0
 20 23  1  0  0  0  0
 20 47  1  0  0  0  0
 21 48  1  0  0  0  0
 21 49  1  0  0  0  0
 21 50  1  0  0  0  0
 22 29  1  0  0  0  0
 22 30  1  0  0  0  0
 22 51  1  0  0  0  0
 23 26  1  0  0  0  0
 23 32  1  0  0  0  0
 23 52  1  0  0  0  0
 24 53  1  0  0  0  0
 24 54  1  0  0  0  0
 24 55  1  0  0  0  0
 25 56  1  0  0  0  0
 25 57  1  0  0  0  0
 25 58  1  0  0  0  0
 26 35  1  0  0  0  0
 26 59  1  0  0  0  0
 27 28  1  0  0  0  0
 27 60  1  0  0  0  0
 28 31  1  0  0  0  0
 28 62  1  0  0  0  0
 28 63  1  0  0  0  0
 30 65  1  0  0  0  0
 30 66  1  0  0  0  0
 30 67  1  0  0  0  0
 31 33  1  0  0  0  0
 31 64  1  0  0  0  0
 32 68  1  0  0  0  0
 32 69  1  0  0  0  0
 32 70  1  0  0  0  0
 33 34  1  0  0  0  0
 33 71  1  0  0  0  0
 34 36  1  0  0  0  0
 34 72  1  0  0  0  0
 35 74  1  0  0  0  0
 35 75  1  0  0  0  0
 35 76  1  0  0  0  0
 36 77  1  0  0  0  0
 36 78  1  0  0  0  0
 36 79  1  0  0  0  0
 37 81  1  0  0  0  0
 37 82  1  0  0  0  0
 37 83  1  0  0  0  0
M  END
> <PUBCHEM_COMPOUND_CID>
443566

> <PUBCHEM_CONFORMER_RMSD>
1

> <PUBCHEM_CONFORMER_DIVERSEORDER>
1
20
24
2
21
14
18
8
6
13
22
19
9
4
23
17
5
12
7
16
10
15
11
3

> <PUBCHEM_MMFF94_PARTIAL_CHARGES>
31
1 -0.3
10 -0.57
11 0.05
12 0.09
14 -0.05
15 0.28
17 0.51
18 0.06
19 0.28
2 -0.56
20 0.28
22 0.06
26 0.28
27 0.56
29 0.66
3 -0.68
31 0.28
33 0.28
34 0.28
37 0.28
4 -0.57
41 0.1
42 0.1
5 -0.43
6 -0.68
61 0.4
7 -0.56
73 0.4
8 -0.56
80 0.4
9 -0.68

> <PUBCHEM_EFFECTIVE_ROTOR_COUNT>
6.8

> <PUBCHEM_PHARMACOPHORE_FEATURES>
13
1 1 acceptor
1 10 acceptor
1 2 acceptor
1 3 acceptor
1 3 donor
1 4 acceptor
1 6 acceptor
1 6 donor
1 7 acceptor
1 8 acceptor
1 9 acceptor
1 9 donor
6 7 27 28 31 33 34 rings

> <PUBCHEM_HEAVY_ATOM_COUNT>
37

> <PUBCHEM_ATOM_DEF_STEREO_COUNT>
14

> <PUBCHEM_ATOM_UDEF_STEREO_COUNT>
0

> <PUBCHEM_BOND_DEF_STEREO_COUNT>
0

> <PUBCHEM_BOND_UDEF_STEREO_COUNT>
0

> <PUBCHEM_ISOTOPIC_ATOM_COUNT>
0

> <PUBCHEM_COMPONENT_COUNT>
1

> <PUBCHEM_CACTVS_TAUTO_COUNT>
2

> <PUBCHEM_CONFORMER_ID>
0006C4AE00000001

> <PUBCHEM_MMFF94_ENERGY>
111.2963

> <PUBCHEM_FEATURE_SELFOVERLAP>
66.01

> <PUBCHEM_SHAPE_FINGERPRINT>
10010297 198 17904485099989915500
12128747 34 18188765167154807838
12422481 6 18114456773676509840
12633257 1 18341317908756291027
12712778 12 18343305842373733699
12717326 68 17464261521768909070
12788726 201 17846498162305026656
13402501 40 18262234533562935652
13726171 33 17909787086645513397
13782708 43 17968372468187826638
14840074 17 17345750922771887296
15001296 14 17986948540654889880
15219462 58 14421742509710820551
15328829 1 17559933520874015606
16728300 4 17632028541151965899
19315092 285 16341148932985373731
20429585 67 12823295719267971270
20511986 3 16917073278159125632
20600515 1 18263066778240401997
20764821 26 18263350405417468141
21033648 29 17968106312678797058
23559900 14 18410573976947288200
23569943 247 15215261417644872486
238918 7 18261391203981703519
3383291 50 18413111633031574731
3493558 16 5761643836707947448
35225 105 18123497065495913811
392239 28 17240484749028308592
45266715 3 18266464381166863207
469060 322 17274834557995902556
563151 74 16082236016918065346

> <PUBCHEM_SHAPE_MULTIPOLES>
702.75
12.63
4.14
2.61
12.79
1.07
-0.25
2.02
-3.17
-4.46
0.15
1.63
0.08
2.36

> <PUBCHEM_SHAPE_SELFOVERLAP>
1421.099

> <PUBCHEM_SHAPE_VOLUME>
408.2

> <PUBCHEM_COORDINATE_TYPE>
2
5
10

$$$$

