5281763
  -OEChem-07051212593D

 26 27  0     0  0  0  0  0  0999 V2000
    2.4487   -1.7707   -0.1470 O   0  0  0  0  0  0  0  0  0  0  0  0
    3.2227    0.5104   -0.0742 O   0  0  0  0  0  0  0  0  0  0  0  0
   -1.2473    2.2203    0.4128 O   0  0  0  0  0  0  0  0  0  0  0  0
    1.4274   -0.8829   -0.0047 C   0  0  0  0  0  0  0  0  0  0  0  0
    1.8694    0.4197    0.0371 C   0  0  0  0  0  0  0  0  0  0  0  0
   -0.8183   -0.1443    0.2321 C   0  0  0  0  0  0  0  0  0  0  0  0
   -0.3667    1.1865    0.2747 C   0  0  0  0  0  0  0  0  0  0  0  0
    0.0875   -1.1984    0.0907 C   0  0  0  0  0  0  0  0  0  0  0  0
    0.9959    1.4786    0.1763 C   0  0  0  0  0  0  0  0  0  0  0  0
    3.5833   -0.8813   -0.1894 C   0  0  0  0  0  0  0  0  0  0  0  0
   -2.2389   -0.4523    0.3364 C   0  0  0  0  0  0  0  0  0  0  0  0
   -2.8643   -1.4999   -0.2431 C   0  0  0  0  0  0  0  0  0  0  0  0
   -1.7713    2.7861   -0.7855 C   0  0  0  0  0  0  0  0  0  0  0  0
   -4.3281   -1.7719   -0.1162 C   0  0  0  0  0  0  0  0  0  0  0  0
   -0.2171   -2.2394    0.0705 H   0  0  0  0  0  0  0  0  0  0  0  0
    1.3557    2.5013    0.2085 H   0  0  0  0  0  0  0  0  0  0  0  0
    4.2611   -1.1375    0.6330 H   0  0  0  0  0  0  0  0  0  0  0  0
    4.1103   -1.0297   -1.1390 H   0  0  0  0  0  0  0  0  0  0  0  0
   -2.8334    0.2379    0.9309 H   0  0  0  0  0  0  0  0  0  0  0  0
   -2.3130   -2.2006   -0.8644 H   0  0  0  0  0  0  0  0  0  0  0  0
   -0.9686    3.2381   -1.3769 H   0  0  0  0  0  0  0  0  0  0  0  0
   -2.4846    3.5682   -0.5114 H   0  0  0  0  0  0  0  0  0  0  0  0
   -2.2940    2.0306   -1.3804 H   0  0  0  0  0  0  0  0  0  0  0  0
   -4.7957   -1.7634   -1.1054 H   0  0  0  0  0  0  0  0  0  0  0  0
   -4.4860   -2.7579    0.3313 H   0  0  0  0  0  0  0  0  0  0  0  0
   -4.8350   -1.0289    0.5075 H   0  0  0  0  0  0  0  0  0  0  0  0
  1  4  1  0  0  0  0
  1 10  1  0  0  0  0
  2  5  1  0  0  0  0
  2 10  1  0  0  0  0
  3  7  1  0  0  0  0
  3 13  1  0  0  0  0
  4  5  2  0  0  0  0
  4  8  1  0  0  0  0
  5  9  1  0  0  0  0
  6  7  1  0  0  0  0
  6  8  2  0  0  0  0
  6 11  1  0  0  0  0
  7  9  2  0  0  0  0
  8 15  1  0  0  0  0
  9 16  1  0  0  0  0
 10 17  1  0  0  0  0
 10 18  1  0  0  0  0
 11 12  2  0  0  0  0
 11 19  1  0  0  0  0
 12 14  1  0  0  0  0
 12 20  1  0  0  0  0
 13 21  1  0  0  0  0
 13 22  1  0  0  0  0
 13 23  1  0  0  0  0
 14 24  1  0  0  0  0
 14 25  1  0  0  0  0
 14 26  1  0  0  0  0
M  END
> <PUBCHEM_COMPOUND_CID>
5281763

> <PUBCHEM_CONFORMER_RMSD>
0.6

> <PUBCHEM_CONFORMER_DIVERSEORDER>
1
2

> <PUBCHEM_MMFF94_PARTIAL_CHARGES>
18
1 -0.36
10 0.56
11 -0.18
12 -0.29
13 0.28
14 0.14
15 0.15
16 0.15
19 0.15
2 -0.36
20 0.15
3 -0.36
4 0.08
5 0.08
6 0.03
7 0.08
8 -0.15
9 -0.15

> <PUBCHEM_EFFECTIVE_ROTOR_COUNT>
2.6

> <PUBCHEM_PHARMACOPHORE_FEATURES>
6
1 1 acceptor
1 14 hydrophobe
1 2 acceptor
1 3 acceptor
5 1 2 4 5 10 rings
6 4 5 6 7 8 9 rings

> <PUBCHEM_HEAVY_ATOM_COUNT>
14

> <PUBCHEM_ATOM_DEF_STEREO_COUNT>
0

> <PUBCHEM_ATOM_UDEF_STEREO_COUNT>
0

> <PUBCHEM_BOND_DEF_STEREO_COUNT>
1

> <PUBCHEM_BOND_UDEF_STEREO_COUNT>
0

> <PUBCHEM_ISOTOPIC_ATOM_COUNT>
0

> <PUBCHEM_COMPONENT_COUNT>
1

> <PUBCHEM_CACTVS_TAUTO_COUNT>
1

> <PUBCHEM_CONFORMER_ID>
005097E300000001

> <PUBCHEM_MMFF94_ENERGY>
45.3366

> <PUBCHEM_FEATURE_SELFOVERLAP>
30.601

> <PUBCHEM_SHAPE_FINGERPRINT>
10967382 1 18193838128551351962
11206711 2 18412537738867960652
11471102 20 18265900163912732471
11578080 2 17387156229215007385
12032990 46 18338794512027179107
12138202 97 18053102010401497861
13380535 76 17904207270954382382
14576447 43 17972043539538546367
15477762 27 18120939404382767047
15848700 24 18337118852179909575
161256 15 18335708182629386728
16945 1 18341602677677537986
17357779 13 18339942432552796965
193761 8 18122343755150375571
20201158 50 18342175510061089819
20645477 70 18263928744065189719
20871998 184 18113619031541371927
20871998 22 18187634817133994447
21296965 67 18409168775300693163
21501502 16 18340199795282465880
21524375 3 17409927359391159337
2334 1 18338514243993898154
23402539 116 18412552002433439822
23559900 14 17901952165087446350
2748010 2 18263925599990282116
2871803 45 18411983559095625086
54173680 148 18193556898456439906
7364860 26 17831017927733750561
81228 2 18343016709750247097

> <PUBCHEM_SHAPE_MULTIPOLES>
270.51
5.77
2.58
0.68
1.49
1.71
0.02
-3.78
0.59
1.53
0.37
0.13
0.13
0.2

> <PUBCHEM_SHAPE_SELFOVERLAP>
577.56

> <PUBCHEM_SHAPE_VOLUME>
152

> <PUBCHEM_COORDINATE_TYPE>
2
5
10

$$$$

