247856
  -OEChem-07051213062D

 54 57  0     1  0  0  0  0  0999 V2000
    7.3810   -2.6622    0.0000 Cl  0  0  0  0  0  0  0  0  0  0  0  0
   10.3820    2.6622    0.0000 O   0  0  0  0  0  0  0  0  0  0  0  0
    3.7320   -1.6453    0.0000 O   0  0  0  0  0  0  0  0  0  0  0  0
    2.8718   -0.1420    0.0000 O   0  0  0  0  0  0  0  0  0  0  0  0
    9.1251    0.4070    0.0000 C   0  0  1  0  0  0  0  0  0  0  0  0
    8.2591   -0.0930    0.0000 C   0  0  1  0  0  0  0  0  0  0  0  0
    9.1251    1.4070    0.0000 C   0  0  2  0  0  0  0  0  0  0  0  0
    6.4750   -1.1414    0.0000 C   0  0  2  0  0  0  0  0  0  0  0  0
    7.3931    0.4070    0.0000 C   0  0  0  0  0  0  0  0  0  0  0  0
    8.2752   -1.1345    0.0000 C   0  0  0  0  0  0  0  0  0  0  0  0
    6.4831   -0.0998    0.0000 C   0  0  0  0  0  0  0  0  0  0  0  0
    8.2591    1.9070    0.0000 C   0  0  0  0  0  0  0  0  0  0  0  0
   10.0713    0.1023    0.0000 C   0  0  0  0  0  0  0  0  0  0  0  0
    7.3771   -1.6623    0.0000 C   0  0  1  0  0  0  0  0  0  0  0  0
    7.3931    1.4070    0.0000 C   0  0  0  0  0  0  0  0  0  0  0  0
   10.0713    1.7117    0.0000 C   0  0  0  0  0  0  0  0  0  0  0  0
    5.5396   -1.6912    0.0000 C   0  0  0  0  0  0  0  0  0  0  0  0
   10.6550    0.9070    0.0000 C   0  0  0  0  0  0  0  0  0  0  0  0
    5.5562    0.4642    0.0000 C   0  0  0  0  0  0  0  0  0  0  0  0
    9.1251    2.4070    0.0000 C   0  0  0  0  0  0  0  0  0  0  0  0
    4.6000   -1.1487    0.0000 C   0  0  2  0  0  0  0  0  0  0  0  0
    4.6084   -0.0637    0.0000 C   0  0  0  0  0  0  0  0  0  0  0  0
    6.4673   -2.1414    0.0000 C   0  0  0  0  0  0  0  0  0  0  0  0
    2.8680   -1.1420    0.0000 C   0  0  0  0  0  0  0  0  0  0  0  0
    2.0000   -1.6386    0.0000 C   0  0  0  0  0  0  0  0  0  0  0  0
    9.2151   -0.4382    0.0000 H   0  0  0  0  0  0  0  0  0  0  0  0
    8.9985   -0.5123    0.0000 H   0  0  0  0  0  0  0  0  0  0  0  0
    8.4932   -1.7149    0.0000 H   0  0  0  0  0  0  0  0  0  0  0  0
    8.8843   -1.0190    0.0000 H   0  0  0  0  0  0  0  0  0  0  0  0
    8.6576    2.3819    0.0000 H   0  0  0  0  0  0  0  0  0  0  0  0
    7.8606    2.3819    0.0000 H   0  0  0  0  0  0  0  0  0  0  0  0
    9.8203   -0.4646    0.0000 H   0  0  0  0  0  0  0  0  0  0  0  0
   10.6087   -0.2070    0.0000 H   0  0  0  0  0  0  0  0  0  0  0  0
    7.9158   -1.9692    0.0000 H   0  0  0  0  0  0  0  0  0  0  0  0
    7.1810    1.9896    0.0000 H   0  0  0  0  0  0  0  0  0  0  0  0
    6.7825    1.2993    0.0000 H   0  0  0  0  0  0  0  0  0  0  0  0
    5.1423   -2.1671    0.0000 H   0  0  0  0  0  0  0  0  0  0  0  0
    5.9406   -2.1641    0.0000 H   0  0  0  0  0  0  0  0  0  0  0  0
   11.1158    0.4923    0.0000 H   0  0  0  0  0  0  0  0  0  0  0  0
   11.1158    1.3217    0.0000 H   0  0  0  0  0  0  0  0  0  0  0  0
    5.9644    0.9309    0.0000 H   0  0  0  0  0  0  0  0  0  0  0  0
    5.1663    0.9463    0.0000 H   0  0  0  0  0  0  0  0  0  0  0  0
    9.7451    2.4070    0.0000 H   0  0  0  0  0  0  0  0  0  0  0  0
    9.1251    3.0270    0.0000 H   0  0  0  0  0  0  0  0  0  0  0  0
    8.5051    2.4070    0.0000 H   0  0  0  0  0  0  0  0  0  0  0  0
    4.0648   -0.8356    0.0000 H   0  0  0  0  0  0  0  0  0  0  0  0
    4.4038    0.5216    0.0000 H   0  0  0  0  0  0  0  0  0  0  0  0
    3.9967   -0.1651    0.0000 H   0  0  0  0  0  0  0  0  0  0  0  0
    5.8473   -2.1366    0.0000 H   0  0  0  0  0  0  0  0  0  0  0  0
    6.4626   -2.7614    0.0000 H   0  0  0  0  0  0  0  0  0  0  0  0
    7.0873   -2.1462    0.0000 H   0  0  0  0  0  0  0  0  0  0  0  0
    1.6921   -1.1005    0.0000 H   0  0  0  0  0  0  0  0  0  0  0  0
    1.4619   -1.9466    0.0000 H   0  0  0  0  0  0  0  0  0  0  0  0
    2.3079   -2.1768    0.0000 H   0  0  0  0  0  0  0  0  0  0  0  0
 14  1  1  1  0  0  0
  2 16  2  0  0  0  0
 21  3  1  1  0  0  0
  3 24  1  0  0  0  0
  4 24  2  0  0  0  0
  5  6  1  0  0  0  0
  5  7  1  0  0  0  0
  5 13  1  0  0  0  0
  5 26  1  6  0  0  0
  6  9  1  0  0  0  0
  6 10  1  0  0  0  0
  6 27  1  1  0  0  0
  7 12  1  0  0  0  0
  7 16  1  0  0  0  0
  7 20  1  1  0  0  0
  8 11  1  0  0  0  0
  8 14  1  0  0  0  0
  8 17  1  0  0  0  0
  8 23  1  1  0  0  0
  9 11  2  0  0  0  0
  9 15  1  0  0  0  0
 10 14  1  0  0  0  0
 10 28  1  0  0  0  0
 10 29  1  0  0  0  0
 11 19  1  0  0  0  0
 12 15  1  0  0  0  0
 12 30  1  0  0  0  0
 12 31  1  0  0  0  0
 13 18  1  0  0  0  0
 13 32  1  0  0  0  0
 13 33  1  0  0  0  0
 14 34  1  0  0  0  0
 15 35  1  0  0  0  0
 15 36  1  0  0  0  0
 16 18  1  0  0  0  0
 17 21  1  0  0  0  0
 17 37  1  0  0  0  0
 17 38  1  0  0  0  0
 18 39  1  0  0  0  0
 18 40  1  0  0  0  0
 19 22  1  0  0  0  0
 19 41  1  0  0  0  0
 19 42  1  0  0  0  0
 20 43  1  0  0  0  0
 20 44  1  0  0  0  0
 20 45  1  0  0  0  0
 21 22  1  0  0  0  0
 21 46  1  0  0  0  0
 22 47  1  0  0  0  0
 22 48  1  0  0  0  0
 23 49  1  0  0  0  0
 23 50  1  0  0  0  0
 23 51  1  0  0  0  0
 24 25  1  0  0  0  0
 25 52  1  0  0  0  0
 25 53  1  0  0  0  0
 25 54  1  0  0  0  0
M  END
> <PUBCHEM_COMPOUND_CID>
247856

> <PUBCHEM_COMPOUND_CANONICALIZED>
1

> <PUBCHEM_CACTVS_COMPLEXITY>
654

> <PUBCHEM_CACTVS_HBOND_ACCEPTOR>
3

> <PUBCHEM_CACTVS_HBOND_DONOR>
0

> <PUBCHEM_CACTVS_ROTATABLE_BOND>
2

> <PUBCHEM_CACTVS_SUBSKEYS>
AAADceB4MAAEAAAAAAAAAAAAAAAAAYAAAAAwYIAAAAAAAGCAAAAAGgIAAAAADxeggEICCAAABACIAoDQCAAAAAAgAAAACAEAAggAABIBAAACAAAEgAAIAAOIyPCPgAAAAAAAAAAAAAYAACAAAAAACAAAAA==

> <PUBCHEM_IUPAC_OPENEYE_NAME>
[(3S,5R,6R,8S,13S,14S)-6-chloro-5,13-dimethyl-17-oxo-1,2,3,4,6,7,8,11,12,14,15,16-dodecahydrocyclopenta[a]phenanthren-3-yl] acetate

> <PUBCHEM_IUPAC_CAS_NAME>
acetic acid [(3S,5R,6R,8S,13S,14S)-6-chloro-5,13-dimethyl-17-oxo-1,2,3,4,6,7,8,11,12,14,15,16-dodecahydrocyclopenta[a]phenanthren-3-yl] ester

> <PUBCHEM_IUPAC_NAME>
[(3S,5R,6R,8S,13S,14S)-6-chloro-5,13-dimethyl-17-oxo-1,2,3,4,6,7,8,11,12,14,15,16-dodecahydrocyclopenta[a]phenanthren-3-yl] acetate

> <PUBCHEM_IUPAC_SYSTEMATIC_NAME>
[(3S,5R,6R,8S,13S,14S)-6-chloranyl-5,13-dimethyl-17-oxidanylidene-1,2,3,4,6,7,8,11,12,14,15,16-dodecahydrocyclopenta[a]phenanthren-3-yl] ethanoate

> <PUBCHEM_IUPAC_TRADITIONAL_NAME>
acetic acid [(3S,5R,6R,8S,13S,14S)-6-chloro-17-keto-5,13-dimethyl-1,2,3,4,6,7,8,11,12,14,15,16-dodecahydrocyclopenta[a]phenanthren-3-yl] ester

> <PUBCHEM_IUPAC_INCHI>
InChI=1S/C21H29ClO3/c1-12(23)25-13-4-5-16-14-8-9-20(2)17(6-7-19(20)24)15(14)10-18(22)21(16,3)11-13/h13,15,17-18H,4-11H2,1-3H3/t13-,15+,17-,18+,20-,21+/m0/s1

> <PUBCHEM_IUPAC_INCHIKEY>
CLXNUVCBDCPVIW-DROYVCBLSA-N

> <PUBCHEM_XLOGP3_AA>
3.2

> <PUBCHEM_EXACT_MASS>
364.180522

> <PUBCHEM_MOLECULAR_FORMULA>
C21H29ClO3

> <PUBCHEM_MOLECULAR_WEIGHT>
364.90616

> <PUBCHEM_OPENEYE_CAN_SMILES>
CC(=O)OC1CCC2=C3CCC4(C(C3CC(C2(C1)C)Cl)CCC4=O)C

> <PUBCHEM_OPENEYE_ISO_SMILES>
CC(=O)O[C@H]1CCC2=C3CC[C@]4([C@H]([C@@H]3C[C@H]([C@@]2(C1)C)Cl)CCC4=O)C

> <PUBCHEM_CACTVS_TPSA>
43.4

> <PUBCHEM_MONOISOTOPIC_WEIGHT>
364.180522

> <PUBCHEM_TOTAL_CHARGE>
0

> <PUBCHEM_HEAVY_ATOM_COUNT>
25

> <PUBCHEM_ATOM_DEF_STEREO_COUNT>
6

> <PUBCHEM_ATOM_UDEF_STEREO_COUNT>
0

> <PUBCHEM_BOND_DEF_STEREO_COUNT>
0

> <PUBCHEM_BOND_UDEF_STEREO_COUNT>
0

> <PUBCHEM_ISOTOPIC_ATOM_COUNT>
0

> <PUBCHEM_COMPONENT_COUNT>
1

> <PUBCHEM_CACTVS_TAUTO_COUNT>
2

> <PUBCHEM_COORDINATE_TYPE>
1
5
255

> <PUBCHEM_BONDANNOTATIONS>
14  1  5
21  3  5
5  26  6
6  27  5
7  20  5
8  23  5

$$$$

