442942
  -OEChem-07051213002D

 41 44  0     1  0  0  0  0  0999 V2000
    7.0578   -1.5695    0.0000 O   0  0  0  0  0  0  0  0  0  0  0  0
    9.1563   -1.0580    0.0000 O   0  0  0  0  0  0  0  0  0  0  0  0
    2.8520   -0.3627    0.0000 N   0  0  3  0  0  0  0  0  0  0  0  0
    7.7826    0.0584    0.0000 N   0  0  0  0  0  0  0  0  0  0  0  0
    3.7656   -0.7694    0.0000 C   0  0  2  0  0  0  0  0  0  0  0  0
    5.3007    0.4737    0.0000 C   0  0  1  0  0  0  0  0  0  0  0  0
    5.5596    1.4397    0.0000 C   0  0  2  0  0  0  0  0  0  0  0  0
    4.8229    2.4223    0.0000 C   0  0  0  0  0  0  0  0  0  0  0  0
    2.9566    0.6318    0.0000 C   0  0  0  0  0  0  0  0  0  0  0  0
    3.8904   -1.8035    0.0000 C   0  0  0  0  0  0  0  0  0  0  0  0
    7.4242    0.9920    0.0000 C   0  0  0  0  0  0  0  0  0  0  0  0
    2.0000   -0.9619    0.0000 C   0  0  0  0  0  0  0  0  0  0  0  0
    7.0054   -0.5709    0.0000 C   0  0  0  0  0  0  0  0  0  0  0  0
    3.0525   -2.4223    0.0000 C   0  0  0  0  0  0  0  0  0  0  0  0
    2.1009   -1.9986    0.0000 C   0  0  0  0  0  0  0  0  0  0  0  0
    8.8088   -0.1204    0.0000 C   0  0  3  0  0  0  0  0  0  0  0  0
    8.0672    1.8115    0.0000 C   0  0  0  0  0  0  0  0  0  0  0  0
    9.4705    0.6840    0.0000 C   0  0  0  0  0  0  0  0  0  0  0  0
    9.0972    1.6565    0.0000 C   0  0  0  0  0  0  0  0  0  0  0  0
    4.5421   -1.1151    0.0000 H   0  0  0  0  0  0  0  0  0  0  0  0
    5.0807   -0.3473    0.0000 H   0  0  0  0  0  0  0  0  0  0  0  0
    5.7796    2.2607    0.0000 H   0  0  0  0  0  0  0  0  0  0  0  0
    5.1408    2.9546    0.0000 H   0  0  0  0  0  0  0  0  0  0  0  0
    4.2098    2.5142    0.0000 H   0  0  0  0  0  0  0  0  0  0  0  0
    2.8543    1.2434    0.0000 H   0  0  0  0  0  0  0  0  0  0  0  0
    2.3368    0.6129    0.0000 H   0  0  0  0  0  0  0  0  0  0  0  0
    4.1679   -2.3580    0.0000 H   0  0  0  0  0  0  0  0  0  0  0  0
    4.4842   -1.6250    0.0000 H   0  0  0  0  0  0  0  0  0  0  0  0
    1.7354   -0.4012    0.0000 H   0  0  0  0  0  0  0  0  0  0  0  0
    1.4023   -1.1266    0.0000 H   0  0  0  0  0  0  0  0  0  0  0  0
    2.7071   -2.9372    0.0000 H   0  0  0  0  0  0  0  0  0  0  0  0
    3.5007   -2.8507    0.0000 H   0  0  0  0  0  0  0  0  0  0  0  0
    1.4826   -1.9522    0.0000 H   0  0  0  0  0  0  0  0  0  0  0  0
    1.9494   -2.5998    0.0000 H   0  0  0  0  0  0  0  0  0  0  0  0
    9.6470   -0.2614    0.0000 H   0  0  0  0  0  0  0  0  0  0  0  0
    7.8383    2.3877    0.0000 H   0  0  0  0  0  0  0  0  0  0  0  0
    9.8748    0.2140    0.0000 H   0  0  0  0  0  0  0  0  0  0  0  0
   10.0028    1.0020    0.0000 H   0  0  0  0  0  0  0  0  0  0  0  0
    9.7055    1.7764    0.0000 H   0  0  0  0  0  0  0  0  0  0  0  0
    9.0832    2.2763    0.0000 H   0  0  0  0  0  0  0  0  0  0  0  0
    9.7675   -1.1621    0.0000 H   0  0  0  0  0  0  0  0  0  0  0  0
  1 13  2  0  0  0  0
  2 16  1  0  0  0  0
  2 41  1  0  0  0  0
  3  5  1  0  0  0  0
  3  9  1  0  0  0  0
  3 12  1  0  0  0  0
  4 11  1  0  0  0  0
  4 13  1  0  0  0  0
  4 16  1  0  0  0  0
  5  6  1  0  0  0  0
  5 10  1  0  0  0  0
  5 20  1  1  0  0  0
  6  8  1  0  0  0  0
  6 13  1  0  0  0  0
  6 21  1  6  0  0  0
  7  8  1  0  0  0  0
  7  9  1  0  0  0  0
  7 11  1  0  0  0  0
  7 22  1  6  0  0  0
  8 23  1  0  0  0  0
  8 24  1  0  0  0  0
  9 25  1  0  0  0  0
  9 26  1  0  0  0  0
 10 14  1  0  0  0  0
 10 27  1  0  0  0  0
 10 28  1  0  0  0  0
 11 17  2  0  0  0  0
 12 15  1  0  0  0  0
 12 29  1  0  0  0  0
 12 30  1  0  0  0  0
 14 15  1  0  0  0  0
 14 31  1  0  0  0  0
 14 32  1  0  0  0  0
 15 33  1  0  0  0  0
 15 34  1  0  0  0  0
 16 18  1  0  0  0  0
 16 35  1  0  0  0  0
 17 19  1  0  0  0  0
 17 36  1  0  0  0  0
 18 19  1  0  0  0  0
 18 37  1  0  0  0  0
 18 38  1  0  0  0  0
 19 39  1  0  0  0  0
 19 40  1  0  0  0  0
M  END
> <PUBCHEM_COMPOUND_CID>
442942

> <PUBCHEM_COMPOUND_CANONICALIZED>
1

> <PUBCHEM_CACTVS_COMPLEXITY>
434

> <PUBCHEM_CACTVS_HBOND_ACCEPTOR>
3

> <PUBCHEM_CACTVS_HBOND_DONOR>
1

> <PUBCHEM_CACTVS_ROTATABLE_BOND>
0

> <PUBCHEM_CACTVS_SUBSKEYS>
AAADceBzMAAAAAAAAAAAAAAAAAAAAAAAAAAsWLEAAAAWAACwAAAAHgAACAAADSjhgAYAAAMAAgCIACVSUAAAAAAgAgAACAEIAAgAEBoAwQAEQAAEhgCIAAMYicCOAAAAAAAAAAAAAAAAAAAAAAAAAAAAAA==

> <PUBCHEM_IUPAC_INCHI>
InChI=1S/C15H22N2O2/c18-14-6-3-5-12-10-8-11(15(19)17(12)14)13-4-1-2-7-16(13)9-10/h5,10-11,13-14,18H,1-4,6-9H2/t10-,11-,13+,14?/m1/s1

> <PUBCHEM_IUPAC_INCHIKEY>
JHXYFYGGFKMUPN-SOUXNPJUSA-N

> <PUBCHEM_XLOGP3_AA>
0.9

> <PUBCHEM_EXACT_MASS>
262.168128

> <PUBCHEM_MOLECULAR_FORMULA>
C15H22N2O2

> <PUBCHEM_MOLECULAR_WEIGHT>
262.34738

> <PUBCHEM_OPENEYE_CAN_SMILES>
C1CCN2CC3CC(C2C1)C(=O)N4C3=CCCC4O

> <PUBCHEM_OPENEYE_ISO_SMILES>
C1CCN2C[C@H]3C[C@H]([C@@H]2C1)C(=O)N4C3=CCCC4O

> <PUBCHEM_CACTVS_TPSA>
43.8

> <PUBCHEM_MONOISOTOPIC_WEIGHT>
262.168128

> <PUBCHEM_TOTAL_CHARGE>
0

> <PUBCHEM_HEAVY_ATOM_COUNT>
19

> <PUBCHEM_ATOM_DEF_STEREO_COUNT>
3

> <PUBCHEM_ATOM_UDEF_STEREO_COUNT>
1

> <PUBCHEM_BOND_DEF_STEREO_COUNT>
0

> <PUBCHEM_BOND_UDEF_STEREO_COUNT>
0

> <PUBCHEM_ISOTOPIC_ATOM_COUNT>
0

> <PUBCHEM_COMPONENT_COUNT>
1

> <PUBCHEM_CACTVS_TAUTO_COUNT>
1

> <PUBCHEM_COORDINATE_TYPE>
1
5
255

> <PUBCHEM_BONDANNOTATIONS>
16  35  3
5  20  5
6  21  6
7  22  6

$$$$

