74843
  -OEChem-07051213053D

 37 38  0     0  0  0  0  0  0999 V2000
    6.1020   -3.0196   -0.0265 Cl  0  0  0  0  0  0  0  0  0  0  0  0
   -6.0724   -3.0475    0.0246 Cl  0  0  0  0  0  0  0  0  0  0  0  0
    4.6781   -0.8389    0.4502 O   0  0  0  0  0  0  0  0  0  0  0  0
   -4.6585   -0.8598   -0.4496 O   0  0  0  0  0  0  0  0  0  0  0  0
    3.6411   -2.4782   -0.8156 O   0  0  0  0  0  0  0  0  0  0  0  0
   -3.6140   -2.4958    0.8143 O   0  0  0  0  0  0  0  0  0  0  0  0
    0.0026    2.2867    0.0021 C   0  0  0  0  0  0  0  0  0  0  0  0
    1.2382    1.4603    0.1202 C   0  0  0  0  0  0  0  0  0  0  0  0
   -1.2903    1.4135   -0.1230 C   0  0  0  0  0  0  0  0  0  0  0  0
   -0.0669    3.2585    1.2322 C   0  0  0  0  0  0  0  0  0  0  0  0
   -0.0521    3.2563   -1.2385 C   0  0  0  0  0  0  0  0  0  0  0  0
    1.3830    0.5702    1.1843 C   0  0  0  0  0  0  0  0  0  0  0  0
   -1.3698    0.5652   -1.1821 C   0  0  0  0  0  0  0  0  0  0  0  0
    2.2497    1.5782   -0.8330 C   0  0  0  0  0  0  0  0  0  0  0  0
   -2.2411    1.5670    0.8363 C   0  0  0  0  0  0  0  0  0  0  0  0
    2.5393   -0.2021    1.2951 C   0  0  0  0  0  0  0  0  0  0  0  0
   -2.5226   -0.2122   -1.2938 C   0  0  0  0  0  0  0  0  0  0  0  0
    3.4058    0.8058   -0.7222 C   0  0  0  0  0  0  0  0  0  0  0  0
   -3.3938    0.7894    0.7247 C   0  0  0  0  0  0  0  0  0  0  0  0
    3.5507   -0.0843    0.3417 C   0  0  0  0  0  0  0  0  0  0  0  0
   -3.5346   -0.1001   -0.3404 C   0  0  0  0  0  0  0  0  0  0  0  0
    4.6313   -2.0956   -0.1979 C   0  0  0  0  0  0  0  0  0  0  0  0
   -4.6059   -2.1170    0.1971 C   0  0  0  0  0  0  0  0  0  0  0  0
    0.8406    3.8756    1.2760 H   0  0  0  0  0  0  0  0  0  0  0  0
   -0.9127    3.9539    1.1676 H   0  0  0  0  0  0  0  0  0  0  0  0
   -0.1225    2.7312    2.1918 H   0  0  0  0  0  0  0  0  0  0  0  0
    0.7574    3.9957   -1.2012 H   0  0  0  0  0  0  0  0  0  0  0  0
    0.0266    2.7270   -2.1950 H   0  0  0  0  0  0  0  0  0  0  0  0
   -0.9970    3.8146   -1.2603 H   0  0  0  0  0  0  0  0  0  0  0  0
    0.6077    0.4578    1.9373 H   0  0  0  0  0  0  0  0  0  0  0  0
   -0.5883    0.4640   -1.9266 H   0  0  0  0  0  0  0  0  0  0  0  0
    2.1887    2.2547   -1.6782 H   0  0  0  0  0  0  0  0  0  0  0  0
   -2.1887    2.2342    1.6849 H   0  0  0  0  0  0  0  0  0  0  0  0
    2.6456   -0.8942    2.1260 H   0  0  0  0  0  0  0  0  0  0  0  0
   -2.6254   -0.9041   -2.1253 H   0  0  0  0  0  0  0  0  0  0  0  0
    4.1907    0.9023   -1.4677 H   0  0  0  0  0  0  0  0  0  0  0  0
   -4.1787    0.8804    1.4708 H   0  0  0  0  0  0  0  0  0  0  0  0
  1 22  1  0  0  0  0
  2 23  1  0  0  0  0
  3 20  1  0  0  0  0
  3 22  1  0  0  0  0
  4 21  1  0  0  0  0
  4 23  1  0  0  0  0
  5 22  2  0  0  0  0
  6 23  2  0  0  0  0
  7  8  1  0  0  0  0
  7  9  1  0  0  0  0
  7 10  1  0  0  0  0
  7 11  1  0  0  0  0
  8 12  2  0  0  0  0
  8 14  1  0  0  0  0
  9 13  2  0  0  0  0
  9 15  1  0  0  0  0
 10 24  1  0  0  0  0
 10 25  1  0  0  0  0
 10 26  1  0  0  0  0
 11 27  1  0  0  0  0
 11 28  1  0  0  0  0
 11 29  1  0  0  0  0
 12 16  1  0  0  0  0
 12 30  1  0  0  0  0
 13 17  1  0  0  0  0
 13 31  1  0  0  0  0
 14 18  2  0  0  0  0
 14 32  1  0  0  0  0
 15 19  2  0  0  0  0
 15 33  1  0  0  0  0
 16 20  2  0  0  0  0
 16 34  1  0  0  0  0
 17 21  2  0  0  0  0
 17 35  1  0  0  0  0
 18 20  1  0  0  0  0
 18 36  1  0  0  0  0
 19 21  1  0  0  0  0
 19 37  1  0  0  0  0
M  END
> <PUBCHEM_COMPOUND_CID>
74843

> <PUBCHEM_CONFORMER_RMSD>
0.8

> <PUBCHEM_CONFORMER_DIVERSEORDER>
1
17
26
32
7
18
13
28
5
37
20
14
27
41
15
2
45
55
61
33
43
23
48
8
22
59
4
49
47
42
40
44
21
57
52
35
56
39
50
31
29
25
51
54
60
6
36
11
9
24
38
19
12
34
16
3
53
46
30
10
58

> <PUBCHEM_MMFF94_PARTIAL_CHARGES>
29
1 -0.21
12 -0.15
13 -0.15
14 -0.15
15 -0.15
16 -0.15
17 -0.15
18 -0.15
19 -0.15
2 -0.21
20 0.08
21 0.08
22 0.93
23 0.93
3 -0.23
30 0.15
31 0.15
32 0.15
33 0.15
34 0.15
35 0.15
36 0.15
37 0.15
4 -0.23
5 -0.57
6 -0.57
7 0.29
8 -0.14
9 -0.14

> <PUBCHEM_EFFECTIVE_ROTOR_COUNT>
6

> <PUBCHEM_PHARMACOPHORE_FEATURES>
5
1 5 acceptor
1 6 acceptor
3 7 10 11 hydrophobe
6 8 12 14 16 18 20 rings
6 9 13 15 17 19 21 rings

> <PUBCHEM_HEAVY_ATOM_COUNT>
23

> <PUBCHEM_ATOM_DEF_STEREO_COUNT>
0

> <PUBCHEM_ATOM_UDEF_STEREO_COUNT>
0

> <PUBCHEM_BOND_DEF_STEREO_COUNT>
0

> <PUBCHEM_BOND_UDEF_STEREO_COUNT>
0

> <PUBCHEM_ISOTOPIC_ATOM_COUNT>
0

> <PUBCHEM_COMPONENT_COUNT>
1

> <PUBCHEM_CACTVS_TAUTO_COUNT>
1

> <PUBCHEM_CONFORMER_ID>
0001245B00000001

> <PUBCHEM_MMFF94_ENERGY>
91.9393

> <PUBCHEM_FEATURE_SELFOVERLAP>
25.371

> <PUBCHEM_SHAPE_FINGERPRINT>
10042902 136 18410285952197809006
11578080 2 18266199312385649369
11640471 11 10303548194643486997
117089 54 18410564089574467679
11796584 16 18130521776967198247
12107183 9 18335126619242402737
12403259 118 6266603343788457187
12760667 363 18262244446437171277
12892183 10 17894635833298638784
12969540 37 18122067494221601793
13009979 54 18261946422967709088
13103583 49 17822278107188315483
13383661 66 17823119294104776054
13533116 47 18121781630685113611
13583140 156 16735542908171004336
13911852 28 18408325458646723383
13955234 65 17831014625031111409
13965767 371 6555420790440636576
14251740 57 18409451349741877274
14251764 30 18410573985157343011
14251764 75 10159707927487922255
14848178 5 18410863156709777095
14848178 96 10231764382968632791
14863182 85 17977669701719815184
14866123 147 18265049314196790233
15061688 2 9295289456055977473
15209294 21 8141214525972230344
15352361 1 18410856559666514147
15475509 35 18046344124760128651
17492 89 18409730646853319828
17780758 139 17678183900286137248
17834072 32 9583520918850200391
17859628 70 18050285873613162105
17980427 26 8646497258817134472
1813 80 18343578568587010836
18335252 114 9582424680303820563
19141452 34 18193832875791154896
19319366 153 17831296099606889108
193927 3 18410854360621945195
20645477 70 17984428443119485797
20775438 99 17763480412939563707
20775530 9 18410866459577038191
21033648 29 15213288773035167369
21307412 95 18340215210231380319
21713013 43 17846790597879800405
22620623 9 17274555324739316509
22950370 63 18410849962575531521
23379529 103 18412258441661741050
23402539 116 17270870978003360494
23503958 8 18260545645248530401
23559900 14 18198071287843589117
2838139 119 10591457505274164158
3004659 81 18131073731540734058
314194 84 18190184494504330805
3421961 26 18263928743648185393
3472631 163 10592051254110680027
46194498 28 17202208404598053957
465052 167 18264483980425814711
484985 159 18123755515216377325
5104073 3 17967530177117780769
5309563 4 18408323297819438799
5486654 36 18187644764293745200
56616090 13 8718559311119850741
7970288 3 18410576184180799938
88748 71 18340201904259179203
9981440 41 10087338029408893236

> <PUBCHEM_SHAPE_MULTIPOLES>
453.59
12.02
4.07
1.2
0.39
0.87
0
17.57
0
-0.11
0
0
-0.48
0.2

> <PUBCHEM_SHAPE_SELFOVERLAP>
951.316

> <PUBCHEM_SHAPE_VOLUME>
255.7

> <PUBCHEM_COORDINATE_TYPE>
2
5
10

$$$$

