2724505
  -OEChem-07051213103D

 26 26  0     1  0  0  0  0  0999 V2000
   -2.9503    1.7263    0.5911 O   0  0  0  0  0  0  0  0  0  0  0  0
   -3.5760    0.4649   -1.1856 O   0  0  0  0  0  0  0  0  0  0  0  0
   -2.7615   -1.8289   -0.0765 N   0  0  0  0  0  0  0  0  0  0  0  0
   -0.9670   -0.4730    0.8877 C   0  0  0  0  0  0  0  0  0  0  0  0
   -0.1753   -0.3354   -0.4222 C   0  0  0  0  0  0  0  0  0  0  0  0
   -2.4840   -0.6185    0.7019 C   0  0  1  0  0  0  0  0  0  0  0  0
    1.3061   -0.1155   -0.2378 C   0  0  0  0  0  0  0  0  0  0  0  0
    1.7945    1.1780   -0.1380 C   0  0  0  0  0  0  0  0  0  0  0  0
    2.1532   -1.2109   -0.1717 C   0  0  0  0  0  0  0  0  0  0  0  0
   -3.0544    0.5513   -0.0805 C   0  0  0  0  0  0  0  0  0  0  0  0
    3.1640    1.3811    0.0322 C   0  0  0  0  0  0  0  0  0  0  0  0
    3.5226   -1.0078   -0.0013 C   0  0  0  0  0  0  0  0  0  0  0  0
    4.0280    0.2883    0.1008 C   0  0  0  0  0  0  0  0  0  0  0  0
   -0.5844   -1.3328    1.4539 H   0  0  0  0  0  0  0  0  0  0  0  0
   -0.7703    0.4080    1.5129 H   0  0  0  0  0  0  0  0  0  0  0  0
   -0.3195   -1.2284   -1.0442 H   0  0  0  0  0  0  0  0  0  0  0  0
   -0.5718    0.4959   -1.0191 H   0  0  0  0  0  0  0  0  0  0  0  0
   -2.9947   -0.6839    1.6683 H   0  0  0  0  0  0  0  0  0  0  0  0
    1.1293    2.0354   -0.1876 H   0  0  0  0  0  0  0  0  0  0  0  0
    1.7687   -2.2240   -0.2479 H   0  0  0  0  0  0  0  0  0  0  0  0
   -3.7690   -1.9738   -0.1335 H   0  0  0  0  0  0  0  0  0  0  0  0
   -2.3858   -2.6413    0.4114 H   0  0  0  0  0  0  0  0  0  0  0  0
    3.5575    2.3903    0.1123 H   0  0  0  0  0  0  0  0  0  0  0  0
    4.1954   -1.8587    0.0526 H   0  0  0  0  0  0  0  0  0  0  0  0
    5.0942    0.4465    0.2338 H   0  0  0  0  0  0  0  0  0  0  0  0
   -3.3302    2.4736    0.0817 H   0  0  0  0  0  0  0  0  0  0  0  0
  1 10  1  0  0  0  0
  1 26  1  0  0  0  0
  2 10  2  0  0  0  0
  3  6  1  0  0  0  0
  3 21  1  0  0  0  0
  3 22  1  0  0  0  0
  4  5  1  0  0  0  0
  4  6  1  0  0  0  0
  4 14  1  0  0  0  0
  4 15  1  0  0  0  0
  5  7  1  0  0  0  0
  5 16  1  0  0  0  0
  5 17  1  0  0  0  0
  6 10  1  0  0  0  0
  6 18  1  0  0  0  0
  7  8  2  0  0  0  0
  7  9  1  0  0  0  0
  8 11  1  0  0  0  0
  8 19  1  0  0  0  0
  9 12  2  0  0  0  0
  9 20  1  0  0  0  0
 11 13  2  0  0  0  0
 11 23  1  0  0  0  0
 12 13  1  0  0  0  0
 12 24  1  0  0  0  0
 13 25  1  0  0  0  0
M  END
> <PUBCHEM_COMPOUND_CID>
2724505

> <PUBCHEM_CONFORMER_RMSD>
0.6

> <PUBCHEM_CONFORMER_DIVERSEORDER>
1
25
7
24
6
26
21
15
19
28
2
29
11
12
10
23
18
5
3
27
14
4
9
32
22
8
31
16
13
17
30
20

> <PUBCHEM_MMFF94_PARTIAL_CHARGES>
20
1 -0.65
10 0.66
11 -0.15
12 -0.15
13 -0.15
19 0.15
2 -0.57
20 0.15
21 0.36
22 0.36
23 0.15
24 0.15
25 0.15
26 0.5
3 -0.99
5 0.14
6 0.33
7 -0.14
8 -0.15
9 -0.15

> <PUBCHEM_EFFECTIVE_ROTOR_COUNT>
4

> <PUBCHEM_PHARMACOPHORE_FEATURES>
6
1 1 acceptor
1 2 acceptor
1 3 cation
1 3 donor
3 1 2 10 anion
6 7 8 9 11 12 13 rings

> <PUBCHEM_HEAVY_ATOM_COUNT>
13

> <PUBCHEM_ATOM_DEF_STEREO_COUNT>
1

> <PUBCHEM_ATOM_UDEF_STEREO_COUNT>
0

> <PUBCHEM_BOND_DEF_STEREO_COUNT>
0

> <PUBCHEM_BOND_UDEF_STEREO_COUNT>
0

> <PUBCHEM_ISOTOPIC_ATOM_COUNT>
0

> <PUBCHEM_COMPONENT_COUNT>
1

> <PUBCHEM_CACTVS_TAUTO_COUNT>
1

> <PUBCHEM_CONFORMER_ID>
0029929900000001

> <PUBCHEM_MMFF94_ENERGY>
22.0139

> <PUBCHEM_FEATURE_SELFOVERLAP>
30.505

> <PUBCHEM_SHAPE_FINGERPRINT>
10608611 8 18412545383883542360
11471102 20 18411421726476817780
12162725 195 18335137609188038697
124424 183 18273216417283755474
12500047 106 18131073731345717698
12932764 1 18338500967907302682
13296908 3 18411974754528537418
13922767 16 18409452496740498088
14144814 61 18408881845520344434
14325111 11 18410571760574747626
15442244 35 18193273233352194626
18186145 218 18343297097904766898
200 152 18187090520608343247
20201158 50 18412544340248434138
20279233 1 18131070437158406238
20645477 56 18341890810022524769
20645477 70 18336828684116104054
22959321 105 18334575689905520559
23402539 116 18334583451734104213
23402655 69 18408888459728035708
3248919 1 17385994092046536854
4028521 119 18131080371882102925
69090 78 18412547613351331671
93112 12 18410573985167431342

> <PUBCHEM_SHAPE_MULTIPOLES>
250.81
7.59
1.56
0.83
0.27
0.06
0.02
0.84
0.29
0.18
-0.06
0.48
0.02
0.1

> <PUBCHEM_SHAPE_SELFOVERLAP>
510.542

> <PUBCHEM_SHAPE_VOLUME>
145.1

> <PUBCHEM_COORDINATE_TYPE>
2
5
10

$$$$

