44474866
  -OEChem-07051213072D

 55 54  0     1  0  0  0  0  0999 V2000
    6.0010    0.5000    0.0000 O   0  0  0  0  0  0  0  0  0  0  0  0
    7.7331    0.5000    0.0000 O   0  0  0  0  0  0  0  0  0  0  0  0
    4.2690    0.5000    0.0000 O   0  0  0  0  0  0  0  0  0  0  0  0
    8.5991   -2.0000    0.0000 O   0  0  0  0  0  0  0  0  0  0  0  0
    2.5369   -2.5000    0.0000 O   0  0  0  0  0  0  0  0  0  0  0  0
    9.4651    0.5000    0.0000 O   0  0  0  0  0  0  0  0  0  0  0  0
   12.0632   -2.0000    0.0000 O   0  0  0  0  0  0  0  0  0  0  0  0
   11.1972    2.5000    0.0000 O   0  0  0  0  0  0  0  0  0  0  0  0
    6.8671   -2.0000    0.0000 N   0  0  0  0  0  0  0  0  0  0  0  0
    2.5369   -0.5000    0.0000 N   0  0  0  0  0  0  0  0  0  0  0  0
   10.3312   -1.0000    0.0000 N   0  0  0  0  0  0  0  0  0  0  0  0
   12.0632    1.0000    0.0000 N   0  0  0  0  0  0  0  0  0  0  0  0
   12.9292   -0.5000    0.0000 N   0  0  0  0  0  0  0  0  0  0  0  0
   12.9292    2.5000    0.0000 N   0  0  0  0  0  0  0  0  0  0  0  0
    6.8671   -1.0000    0.0000 C   0  0  1  0  0  0  0  0  0  0  0  0
    6.0010   -0.5000    0.0000 C   0  0  2  0  0  0  0  0  0  0  0  0
    5.1350   -1.0000    0.0000 C   0  0  0  0  0  0  0  0  0  0  0  0
    7.7331   -0.5000    0.0000 C   0  0  1  0  0  0  0  0  0  0  0  0
    4.2690   -0.5000    0.0000 C   0  0  1  0  0  0  0  0  0  0  0  0
    3.4030   -1.0000    0.0000 C   0  0  1  0  0  0  0  0  0  0  0  0
    8.5991   -1.0000    0.0000 C   0  0  2  0  0  0  0  0  0  0  0  0
    3.4030   -2.0000    0.0000 C   0  0  0  0  0  0  0  0  0  0  0  0
    9.4651   -0.5000    0.0000 C   0  0  0  0  0  0  0  0  0  0  0  0
   11.1972   -0.5000    0.0000 C   0  0  1  0  0  0  0  0  0  0  0  0
   11.1972    0.5000    0.0000 C   0  0  0  0  0  0  0  0  0  0  0  0
   12.0632   -1.0000    0.0000 C   0  0  0  0  0  0  0  0  0  0  0  0
   12.0632    2.0000    0.0000 C   0  0  0  0  0  0  0  0  0  0  0  0
    6.3301   -1.3100    0.0000 H   0  0  0  0  0  0  0  0  0  0  0  0
    6.5380   -0.1900    0.0000 H   0  0  0  0  0  0  0  0  0  0  0  0
    4.7365   -1.4750    0.0000 H   0  0  0  0  0  0  0  0  0  0  0  0
    5.5335   -1.4750    0.0000 H   0  0  0  0  0  0  0  0  0  0  0  0
    8.2700   -0.1900    0.0000 H   0  0  0  0  0  0  0  0  0  0  0  0
    4.8059   -0.1900    0.0000 H   0  0  0  0  0  0  0  0  0  0  0  0
    3.4030   -0.3800    0.0000 H   0  0  0  0  0  0  0  0  0  0  0  0
    8.0622   -1.3100    0.0000 H   0  0  0  0  0  0  0  0  0  0  0  0
    6.3301   -2.3100    0.0000 H   0  0  0  0  0  0  0  0  0  0  0  0
    7.4040   -2.3100    0.0000 H   0  0  0  0  0  0  0  0  0  0  0  0
    3.6150   -2.5826    0.0000 H   0  0  0  0  0  0  0  0  0  0  0  0
    4.0135   -1.8923    0.0000 H   0  0  0  0  0  0  0  0  0  0  0  0
    5.4641    0.8100    0.0000 H   0  0  0  0  0  0  0  0  0  0  0  0
    8.2700    0.8100    0.0000 H   0  0  0  0  0  0  0  0  0  0  0  0
    3.7320    0.8100    0.0000 H   0  0  0  0  0  0  0  0  0  0  0  0
    2.0000   -0.8100    0.0000 H   0  0  0  0  0  0  0  0  0  0  0  0
    2.5369    0.1200    0.0000 H   0  0  0  0  0  0  0  0  0  0  0  0
   10.3312   -1.6200    0.0000 H   0  0  0  0  0  0  0  0  0  0  0  0
   10.6603   -0.1900    0.0000 H   0  0  0  0  0  0  0  0  0  0  0  0
    9.1360   -2.3100    0.0000 H   0  0  0  0  0  0  0  0  0  0  0  0
   10.9851    1.0826    0.0000 H   0  0  0  0  0  0  0  0  0  0  0  0
   10.5866    0.3923    0.0000 H   0  0  0  0  0  0  0  0  0  0  0  0
    2.5369   -3.1200    0.0000 H   0  0  0  0  0  0  0  0  0  0  0  0
   12.6002    0.6900    0.0000 H   0  0  0  0  0  0  0  0  0  0  0  0
   13.4662   -0.8100    0.0000 H   0  0  0  0  0  0  0  0  0  0  0  0
   12.9292    0.1200    0.0000 H   0  0  0  0  0  0  0  0  0  0  0  0
   12.9292    3.1200    0.0000 H   0  0  0  0  0  0  0  0  0  0  0  0
   13.4662    2.1900    0.0000 H   0  0  0  0  0  0  0  0  0  0  0  0
 16  1  1  6  0  0  0
  1 40  1  0  0  0  0
 18  2  1  6  0  0  0
  2 41  1  0  0  0  0
 19  3  1  1  0  0  0
  3 42  1  0  0  0  0
 21  4  1  6  0  0  0
  4 47  1  0  0  0  0
  5 22  1  0  0  0  0
  5 50  1  0  0  0  0
  6 23  2  0  0  0  0
  7 26  2  0  0  0  0
  8 27  2  0  0  0  0
 15  9  1  1  0  0  0
  9 36  1  0  0  0  0
  9 37  1  0  0  0  0
 20 10  1  1  0  0  0
 10 43  1  0  0  0  0
 10 44  1  0  0  0  0
 11 23  1  0  0  0  0
 24 11  1  1  0  0  0
 11 45  1  0  0  0  0
 12 25  1  0  0  0  0
 12 27  1  0  0  0  0
 12 51  1  0  0  0  0
 13 26  1  0  0  0  0
 13 52  1  0  0  0  0
 13 53  1  0  0  0  0
 14 27  1  0  0  0  0
 14 54  1  0  0  0  0
 14 55  1  0  0  0  0
 15 16  1  0  0  0  0
 15 18  1  0  0  0  0
 15 28  1  0  0  0  0
 16 17  1  0  0  0  0
 16 29  1  0  0  0  0
 17 19  1  0  0  0  0
 17 30  1  0  0  0  0
 17 31  1  0  0  0  0
 18 21  1  0  0  0  0
 18 32  1  0  0  0  0
 19 20  1  0  0  0  0
 19 33  1  0  0  0  0
 20 22  1  0  0  0  0
 20 34  1  0  0  0  0
 21 23  1  0  0  0  0
 21 35  1  0  0  0  0
 22 38  1  0  0  0  0
 22 39  1  0  0  0  0
 24 25  1  0  0  0  0
 24 26  1  0  0  0  0
 24 46  1  0  0  0  0
 25 48  1  0  0  0  0
 25 49  1  0  0  0  0
M  END
> <PUBCHEM_COMPOUND_CID>
44474866

> <PUBCHEM_COMPOUND_CANONICALIZED>
1

> <PUBCHEM_CACTVS_COMPLEXITY>
509

> <PUBCHEM_CACTVS_HBOND_ACCEPTOR>
10

> <PUBCHEM_CACTVS_HBOND_DONOR>
11

> <PUBCHEM_CACTVS_ROTATABLE_BOND>
12

> <PUBCHEM_CACTVS_SUBSKEYS>
AAADceBzvAAAAAAAAAAAAAAAAAAAAAAAAAAAAAAAAAAAAAAAAAAAHgAQCAAACDzhgAYBAALAAgAIAAEQEAIAAAAAAAAAAIHIAACDUB4AwCAUQAAHNgKRAAH8/KbAAAAAAAAAAAAAAAAAAAAAAAAAAAAAAA==

> <PUBCHEM_IUPAC_OPENEYE_NAME>
(2R,3S,4S,5S,7S,8R)-4,8-diamino-N-[(1S)-2-amino-2-oxo-1-(ureidomethyl)ethyl]-2,3,5,7,9-pentahydroxy-nonanamide

> <PUBCHEM_IUPAC_CAS_NAME>
(2R,3S,4S,5S,7S,8R)-4,8-diamino-N-[(2S)-1-amino-3-(carbamoylamino)-1-oxopropan-2-yl]-2,3,5,7,9-pentahydroxynonanamide

> <PUBCHEM_IUPAC_NAME>
(2R,3S,4S,5S,7S,8R)-4,8-diamino-N-[(2S)-1-amino-3-(carbamoylamino)-1-oxopropan-2-yl]-2,3,5,7,9-pentahydroxynonanamide

> <PUBCHEM_IUPAC_SYSTEMATIC_NAME>
(2R,3S,4S,5S,7S,8R)-N-[(2S)-3-(aminocarbonylamino)-1-azanyl-1-oxidanylidene-propan-2-yl]-4,8-bis(azanyl)-2,3,5,7,9-pentakis(oxidanyl)nonanamide

> <PUBCHEM_IUPAC_TRADITIONAL_NAME>
(2R,3S,4S,5S,7S,8R)-4,8-diamino-N-[(1S)-2-amino-2-keto-1-(ureidomethyl)ethyl]-2,3,5,7,9-pentahydroxy-pelargonamide

> <PUBCHEM_IUPAC_INCHI>
InChI=1S/C13H28N6O8/c14-4(3-20)6(21)1-7(22)8(15)9(23)10(24)12(26)19-5(11(16)25)2-18-13(17)27/h4-10,20-24H,1-3,14-15H2,(H2,16,25)(H,19,26)(H3,17,18,27)/t4-,5+,6+,7+,8+,9+,10-/m1/s1

> <PUBCHEM_IUPAC_INCHIKEY>
FYIPKJHNWFVEIR-FXQWNPMTSA-N

> <PUBCHEM_XLOGP3_AA>
-7.3

> <PUBCHEM_EXACT_MASS>
396.196862

> <PUBCHEM_MOLECULAR_FORMULA>
C13H28N6O8

> <PUBCHEM_MOLECULAR_WEIGHT>
396.39682

> <PUBCHEM_OPENEYE_CAN_SMILES>
C(C(C(CO)N)O)C(C(C(C(C(=O)NC(CNC(=O)N)C(=O)N)O)O)N)O

> <PUBCHEM_OPENEYE_ISO_SMILES>
C([C@@H]([C@@H](CO)N)O)[C@@H]([C@@H]([C@@H]([C@H](C(=O)N[C@@H](CNC(=O)N)C(=O)N)O)O)N)O

> <PUBCHEM_CACTVS_TPSA>
281

> <PUBCHEM_MONOISOTOPIC_WEIGHT>
396.196862

> <PUBCHEM_TOTAL_CHARGE>
0

> <PUBCHEM_HEAVY_ATOM_COUNT>
27

> <PUBCHEM_ATOM_DEF_STEREO_COUNT>
7

> <PUBCHEM_ATOM_UDEF_STEREO_COUNT>
0

> <PUBCHEM_BOND_DEF_STEREO_COUNT>
0

> <PUBCHEM_BOND_UDEF_STEREO_COUNT>
0

> <PUBCHEM_ISOTOPIC_ATOM_COUNT>
0

> <PUBCHEM_COMPONENT_COUNT>
1

> <PUBCHEM_CACTVS_TAUTO_COUNT>
18

> <PUBCHEM_COORDINATE_TYPE>
1
5
255

> <PUBCHEM_BONDANNOTATIONS>
16  1  6
20  10  5
24  11  5
18  2  6
19  3  5
21  4  6
15  9  5

$$$$

