440380
  -OEChem-07051212493D

 40 39  0     1  0  0  0  0  0999 V2000
    1.5744    2.0769   -1.0895 S   0  0  0  0  0  0  0  0  0  0  0  0
   -1.5580   -1.5794   -1.4818 O   0  0  0  0  0  0  0  0  0  0  0  0
    1.6970   -0.3799    1.7887 O   0  0  0  0  0  0  0  0  0  0  0  0
   -4.8243    1.6844    1.4717 O   0  0  0  0  0  0  0  0  0  0  0  0
   -6.0079    1.6966   -0.4622 O   0  0  0  0  0  0  0  0  0  0  0  0
    6.3563    1.7549   -0.0111 O   0  0  0  0  0  0  0  0  0  0  0  0
    5.5922   -0.0310   -1.1867 O   0  0  0  0  0  0  0  0  0  0  0  0
   -0.3208   -0.3031    0.0135 N   0  0  0  0  0  0  0  0  0  0  0  0
    3.2465   -1.0795    0.2101 N   0  0  0  0  0  0  0  0  0  0  0  0
   -6.4586   -1.0055   -0.1572 N   0  0  0  0  0  0  0  0  0  0  0  0
    0.9854   -0.6142   -0.5196 C   0  0  1  0  0  0  0  0  0  0  0  0
   -4.0205   -0.8748   -0.3424 C   0  0  0  0  0  0  0  0  0  0  0  0
   -2.7155   -0.3177    0.2302 C   0  0  0  0  0  0  0  0  0  0  0  0
   -5.2551   -0.4338    0.4517 C   0  0  1  0  0  0  0  0  0  0  0  0
   -1.4930   -0.8187   -0.5200 C   0  0  0  0  0  0  0  0  0  0  0  0
    1.4029    0.3464   -1.6357 C   0  0  0  0  0  0  0  0  0  0  0  0
    1.9871   -0.6772    0.6316 C   0  0  0  0  0  0  0  0  0  0  0  0
    4.3702   -1.1923    1.1103 C   0  0  0  0  0  0  0  0  0  0  0  0
   -5.4240    1.0743    0.4163 C   0  0  0  0  0  0  0  0  0  0  0  0
    5.1582    0.1074    1.2077 C   0  0  0  0  0  0  0  0  0  0  0  0
    5.7076    0.5662   -0.1257 C   0  0  0  0  0  0  0  0  0  0  0  0
    0.9348   -1.6247   -0.9464 H   0  0  0  0  0  0  0  0  0  0  0  0
   -3.9686   -1.9716   -0.3565 H   0  0  0  0  0  0  0  0  0  0  0  0
   -4.1088   -0.5540   -1.3896 H   0  0  0  0  0  0  0  0  0  0  0  0
   -2.6145   -0.6066    1.2830 H   0  0  0  0  0  0  0  0  0  0  0  0
   -2.7061    0.7765    0.1729 H   0  0  0  0  0  0  0  0  0  0  0  0
   -5.2012   -0.7666    1.4939 H   0  0  0  0  0  0  0  0  0  0  0  0
   -0.3772    0.3387    0.7995 H   0  0  0  0  0  0  0  0  0  0  0  0
    0.6562    0.3327   -2.4374 H   0  0  0  0  0  0  0  0  0  0  0  0
    2.3569    0.0482   -2.0810 H   0  0  0  0  0  0  0  0  0  0  0  0
    3.3952   -1.3333   -0.7616 H   0  0  0  0  0  0  0  0  0  0  0  0
    4.0105   -1.4854    2.1024 H   0  0  0  0  0  0  0  0  0  0  0  0
    5.0054   -1.9982    0.7271 H   0  0  0  0  0  0  0  0  0  0  0  0
   -6.3964   -2.0231   -0.1395 H   0  0  0  0  0  0  0  0  0  0  0  0
   -6.5044   -0.7481   -1.1429 H   0  0  0  0  0  0  0  0  0  0  0  0
    6.0007   -0.0308    1.8937 H   0  0  0  0  0  0  0  0  0  0  0  0
    4.5114    0.9033    1.5945 H   0  0  0  0  0  0  0  0  0  0  0  0
    0.3081    2.2321   -0.6759 H   0  0  0  0  0  0  0  0  0  0  0  0
   -4.9253    2.6594    1.4360 H   0  0  0  0  0  0  0  0  0  0  0  0
    6.7125    2.0610   -0.8724 H   0  0  0  0  0  0  0  0  0  0  0  0
  1 16  1  0  0  0  0
  1 38  1  0  0  0  0
  2 15  2  0  0  0  0
  3 17  2  0  0  0  0
  4 19  1  0  0  0  0
  4 39  1  0  0  0  0
  5 19  2  0  0  0  0
  6 21  1  0  0  0  0
  6 40  1  0  0  0  0
  7 21  2  0  0  0  0
  8 11  1  0  0  0  0
  8 15  1  0  0  0  0
  8 28  1  0  0  0  0
  9 17  1  0  0  0  0
  9 18  1  0  0  0  0
  9 31  1  0  0  0  0
 10 14  1  0  0  0  0
 10 34  1  0  0  0  0
 10 35  1  0  0  0  0
 11 16  1  0  0  0  0
 11 17  1  0  0  0  0
 11 22  1  0  0  0  0
 12 13  1  0  0  0  0
 12 14  1  0  0  0  0
 12 23  1  0  0  0  0
 12 24  1  0  0  0  0
 13 15  1  0  0  0  0
 13 25  1  0  0  0  0
 13 26  1  0  0  0  0
 14 19  1  0  0  0  0
 14 27  1  0  0  0  0
 16 29  1  0  0  0  0
 16 30  1  0  0  0  0
 18 20  1  0  0  0  0
 18 32  1  0  0  0  0
 18 33  1  0  0  0  0
 20 21  1  0  0  0  0
 20 36  1  0  0  0  0
 20 37  1  0  0  0  0
M  END
> <PUBCHEM_COMPOUND_CID>
440380

> <PUBCHEM_CONFORMER_RMSD>
1

> <PUBCHEM_CONFORMER_DIVERSEORDER>
1
11
122
72
64
61
103
66
78
75
108
110
54
49
52
38
68
95
32
125
23
15
124
9
13
40
79
116
83
37
6
31
62
86
111
8
106
48
34
60
76
41
35
58
88
105
91
117
5
47
98
92
50
2
101
69
43
42
21
27
44
107
102
82
126
70
115
89
39
71
63
81
46
59
18
90
73
20
56
26
120
24
65
114
93
22
123
4
100
109
19
118
12
80
127
67
96
97
57
29
14
36
113
119
104
17
51
77
10
85
121
7
55
28
30
99
25
16
112
74
33
45
3
84
53
94
87

> <PUBCHEM_MMFF94_PARTIAL_CHARGES>
27
1 -0.41
10 -0.99
11 0.36
13 0.06
14 0.33
15 0.57
16 0.23
17 0.57
18 0.3
19 0.66
2 -0.57
20 0.06
21 0.66
28 0.37
3 -0.57
31 0.37
34 0.36
35 0.36
38 0.18
39 0.5
4 -0.65
40 0.5
5 -0.57
6 -0.65
7 -0.57
8 -0.73
9 -0.73

> <PUBCHEM_EFFECTIVE_ROTOR_COUNT>
12

> <PUBCHEM_PHARMACOPHORE_FEATURES>
12
1 10 cation
1 10 donor
1 2 acceptor
1 3 acceptor
1 4 acceptor
1 5 acceptor
1 6 acceptor
1 7 acceptor
1 8 donor
1 9 donor
3 4 5 19 anion
3 6 7 21 anion

> <PUBCHEM_HEAVY_ATOM_COUNT>
21

> <PUBCHEM_ATOM_DEF_STEREO_COUNT>
2

> <PUBCHEM_ATOM_UDEF_STEREO_COUNT>
0

> <PUBCHEM_BOND_DEF_STEREO_COUNT>
0

> <PUBCHEM_BOND_UDEF_STEREO_COUNT>
0

> <PUBCHEM_ISOTOPIC_ATOM_COUNT>
0

> <PUBCHEM_COMPONENT_COUNT>
1

> <PUBCHEM_CACTVS_TAUTO_COUNT>
4

> <PUBCHEM_CONFORMER_ID>
0006B83C00000001

> <PUBCHEM_MMFF94_ENERGY>
24.1112

> <PUBCHEM_FEATURE_SELFOVERLAP>
61.01

> <PUBCHEM_SHAPE_FINGERPRINT>
10591671 39 17749106669375045179
10763959 59 16443068304791597272
12011746 2 16008746909747642930
12236239 1 18413109467586906707
12507557 5 18342174492987140861
12596602 18 18272653467430646059
13533116 47 17274830207437034962
13899415 154 18202275880385070924
14251751 18 13686288072040707361
14251764 18 18131630085083596391
14849402 71 17916577635750591036
15048467 5 18333734594265775832
15183329 4 4823213900858771652
15461852 350 17967541160424946149
15527383 91 17703792504774694148
17834072 8 14779544565845513034
18785283 64 16056021438865724932
20281389 69 17967819340106984954
21521721 280 16056591046123988196
21709351 56 15502670264751621165
2215653 11 15068619375432934326
23402539 116 16805616871141073191
23559900 14 14996576057339368898
23622692 88 18412829057915144591
3014965 18 16515678996565877558
34797466 226 18113893824134532348
3545911 37 15574714677656483959
4340502 62 14189578533656134672
4463277 17 18343585144176126740
542803 24 18411140242467333707
6328613 192 18334575724502882872
7495541 125 13110956522547862454

> <PUBCHEM_SHAPE_MULTIPOLES>
385.86
17.01
1.7
1.36
5.91
0.88
-0.03
3.56
-3.67
-0.19
0.04
-0.18
0.01
-1.44

> <PUBCHEM_SHAPE_SELFOVERLAP>
742.112

> <PUBCHEM_SHAPE_VOLUME>
234.8

> <PUBCHEM_COORDINATE_TYPE>
2
5
10

$$$$

