56927801
  -OEChem-07051213152D

 55 56  0     1  0  0  0  0  0999 V2000
    2.7320   -2.8683    0.0000 O   0  0  0  0  0  0  0  0  0  0  0  0
    3.7320    0.5958    0.0000 C   0  0  1  0  0  0  0  0  0  0  0  0
    4.5981    1.0958    0.0000 C   0  0  1  0  0  0  0  0  0  0  0  0
    2.8660    1.0958    0.0000 C   0  0  2  0  0  0  0  0  0  0  0  0
    4.5981    2.0958    0.0000 C   0  0  0  0  0  0  0  0  0  0  0  0
    5.4920    2.6305    0.0000 C   0  0  0  0  0  0  0  0  0  0  0  0
    5.4920    0.5612    0.0000 C   0  0  0  0  0  0  0  0  0  0  0  0
    3.2320   -0.2702    0.0000 C   0  0  0  0  0  0  0  0  0  0  0  0
    2.8660    2.0958    0.0000 C   0  0  0  0  0  0  0  0  0  0  0  0
    6.3981    2.1166    0.0000 C   0  0  0  0  0  0  0  0  0  0  0  0
    6.3981    1.0750    0.0000 C   0  0  0  0  0  0  0  0  0  0  0  0
    4.2320   -0.2702    0.0000 C   0  0  0  0  0  0  0  0  0  0  0  0
    3.7320    2.5958    0.0000 C   0  0  0  0  0  0  0  0  0  0  0  0
    2.0000    0.5958    0.0000 C   0  0  0  0  0  0  0  0  0  0  0  0
    3.7320   -1.1362    0.0000 C   0  0  0  0  0  0  0  0  0  0  0  0
    5.9820    3.5022    0.0000 C   0  0  0  0  0  0  0  0  0  0  0  0
    4.9820    3.4907    0.0000 C   0  0  0  0  0  0  0  0  0  0  0  0
    3.2320   -2.0022    0.0000 C   0  0  2  0  0  0  0  0  0  0  0  0
    2.3660   -1.5022    0.0000 C   0  0  0  0  0  0  0  0  0  0  0  0
    4.0981   -2.5022    0.0000 C   0  0  0  0  0  0  0  0  0  0  0  0
    4.0981   -3.5022    0.0000 C   0  0  0  0  0  0  0  0  0  0  0  0
    4.5915    0.2459    0.0000 H   0  0  0  0  0  0  0  0  0  0  0  0
    2.3291    1.4058    0.0000 H   0  0  0  0  0  0  0  0  0  0  0  0
    5.0874    0.0914    0.0000 H   0  0  0  0  0  0  0  0  0  0  0  0
    5.8856    0.0822    0.0000 H   0  0  0  0  0  0  0  0  0  0  0  0
    2.7571    0.1283    0.0000 H   0  0  0  0  0  0  0  0  0  0  0  0
    2.7571   -0.6687    0.0000 H   0  0  0  0  0  0  0  0  0  0  0  0
    2.6540    2.6784    0.0000 H   0  0  0  0  0  0  0  0  0  0  0  0
    2.2554    1.9882    0.0000 H   0  0  0  0  0  0  0  0  0  0  0  0
    7.0089    2.0106    0.0000 H   0  0  0  0  0  0  0  0  0  0  0  0
    6.6071    2.7003    0.0000 H   0  0  0  0  0  0  0  0  0  0  0  0
    6.6071    0.4913    0.0000 H   0  0  0  0  0  0  0  0  0  0  0  0
    7.0089    1.1811    0.0000 H   0  0  0  0  0  0  0  0  0  0  0  0
    3.6951   -0.5802    0.0000 H   0  0  0  0  0  0  0  0  0  0  0  0
    4.5420   -0.8071    0.0000 H   0  0  0  0  0  0  0  0  0  0  0  0
    4.7690    0.0398    0.0000 H   0  0  0  0  0  0  0  0  0  0  0  0
    3.7320    3.2158    0.0000 H   0  0  0  0  0  0  0  0  0  0  0  0
    1.6900    1.1328    0.0000 H   0  0  0  0  0  0  0  0  0  0  0  0
    1.4631    0.2858    0.0000 H   0  0  0  0  0  0  0  0  0  0  0  0
    2.3100    0.0589    0.0000 H   0  0  0  0  0  0  0  0  0  0  0  0
    4.2070   -1.5348    0.0000 H   0  0  0  0  0  0  0  0  0  0  0  0
    4.2070   -0.7377    0.0000 H   0  0  0  0  0  0  0  0  0  0  0  0
    6.5225    3.1985    0.0000 H   0  0  0  0  0  0  0  0  0  0  0  0
    6.2857    4.0427    0.0000 H   0  0  0  0  0  0  0  0  0  0  0  0
    5.4415    3.8060    0.0000 H   0  0  0  0  0  0  0  0  0  0  0  0
    5.5154    3.8069    0.0000 H   0  0  0  0  0  0  0  0  0  0  0  0
    4.6658    4.0240    0.0000 H   0  0  0  0  0  0  0  0  0  0  0  0
    4.4487    3.1745    0.0000 H   0  0  0  0  0  0  0  0  0  0  0  0
    2.6760   -0.9653    0.0000 H   0  0  0  0  0  0  0  0  0  0  0  0
    1.8291   -1.1922    0.0000 H   0  0  0  0  0  0  0  0  0  0  0  0
    2.0560   -2.0392    0.0000 H   0  0  0  0  0  0  0  0  0  0  0  0
    4.6350   -2.1922    0.0000 H   0  0  0  0  0  0  0  0  0  0  0  0
    3.0420   -3.4052    0.0000 H   0  0  0  0  0  0  0  0  0  0  0  0
    3.5611   -3.8122    0.0000 H   0  0  0  0  0  0  0  0  0  0  0  0
    4.6350   -3.8122    0.0000 H   0  0  0  0  0  0  0  0  0  0  0  0
 18  1  1  1  0  0  0
  1 53  1  0  0  0  0
  2  3  1  0  0  0  0
  2  4  1  0  0  0  0
  2  8  1  0  0  0  0
  2 12  1  1  0  0  0
  3  5  1  0  0  0  0
  3  7  1  0  0  0  0
  3 22  1  6  0  0  0
  4  9  1  0  0  0  0
  4 14  1  1  0  0  0
  4 23  1  0  0  0  0
  5  6  1  0  0  0  0
  5 13  2  0  0  0  0
  6 10  1  0  0  0  0
  6 16  1  0  0  0  0
  6 17  1  0  0  0  0
  7 11  1  0  0  0  0
  7 24  1  0  0  0  0
  7 25  1  0  0  0  0
  8 15  1  0  0  0  0
  8 26  1  0  0  0  0
  8 27  1  0  0  0  0
  9 13  1  0  0  0  0
  9 28  1  0  0  0  0
  9 29  1  0  0  0  0
 10 11  1  0  0  0  0
 10 30  1  0  0  0  0
 10 31  1  0  0  0  0
 11 32  1  0  0  0  0
 11 33  1  0  0  0  0
 12 34  1  0  0  0  0
 12 35  1  0  0  0  0
 12 36  1  0  0  0  0
 13 37  1  0  0  0  0
 14 38  1  0  0  0  0
 14 39  1  0  0  0  0
 14 40  1  0  0  0  0
 15 18  1  0  0  0  0
 15 41  1  0  0  0  0
 15 42  1  0  0  0  0
 16 43  1  0  0  0  0
 16 44  1  0  0  0  0
 16 45  1  0  0  0  0
 17 46  1  0  0  0  0
 17 47  1  0  0  0  0
 17 48  1  0  0  0  0
 18 19  1  0  0  0  0
 18 20  1  0  0  0  0
 19 49  1  0  0  0  0
 19 50  1  0  0  0  0
 19 51  1  0  0  0  0
 20 21  2  0  0  0  0
 20 52  1  0  0  0  0
 21 54  1  0  0  0  0
 21 55  1  0  0  0  0
M  END
> <PUBCHEM_COMPOUND_CID>
56927801

> <PUBCHEM_COMPOUND_CANONICALIZED>
1

> <PUBCHEM_CACTVS_COMPLEXITY>
433

> <PUBCHEM_CACTVS_HBOND_ACCEPTOR>
1

> <PUBCHEM_CACTVS_HBOND_DONOR>
1

> <PUBCHEM_CACTVS_ROTATABLE_BOND>
4

> <PUBCHEM_CACTVS_SUBSKEYS>
AAADcfB4IAAAAAAAAAAAAAAAAAAAAAAAAAAwQAAAAAAAAACAAAAAGgAACAAAD0SAgAACAAAAAgCAAiBCAAAAAAAgAAAICAAAAAgABAIAAQAAQAAEgAAIEAOAwPAPgAAAAAAAAAAAAAQAAAAAAAAAAAAAAA==

> <PUBCHEM_IUPAC_OPENEYE_NAME>
(3S)-5-[(1R,2S,8aS)-1,2,5,5-tetramethyl-2,3,6,7,8,8a-hexahydronaphthalen-1-yl]-3-methyl-pent-1-en-3-ol

> <PUBCHEM_IUPAC_CAS_NAME>
(3S)-5-[(1R,2S,8aS)-1,2,5,5-tetramethyl-2,3,6,7,8,8a-hexahydronaphthalen-1-yl]-3-methyl-1-penten-3-ol

> <PUBCHEM_IUPAC_NAME>
(3S)-5-[(1R,2S,8aS)-1,2,5,5-tetramethyl-2,3,6,7,8,8a-hexahydronaphthalen-1-yl]-3-methylpent-1-en-3-ol

> <PUBCHEM_IUPAC_SYSTEMATIC_NAME>
(3S)-5-[(1R,2S,8aS)-1,2,5,5-tetramethyl-2,3,6,7,8,8a-hexahydronaphthalen-1-yl]-3-methyl-pent-1-en-3-ol

> <PUBCHEM_IUPAC_TRADITIONAL_NAME>
(3S)-5-[(1R,2S,8aS)-1,2,5,5-tetramethyl-2,3,6,7,8,8a-hexahydronaphthalen-1-yl]-3-methyl-pent-1-en-3-ol

> <PUBCHEM_IUPAC_INCHI>
InChI=1S/C20H34O/c1-7-19(5,21)13-14-20(6)15(2)10-11-16-17(20)9-8-12-18(16,3)4/h7,11,15,17,21H,1,8-10,12-14H2,2-6H3/t15-,17+,19+,20+/m0/s1

> <PUBCHEM_IUPAC_INCHIKEY>
TXBORCBWDUAHAC-JQERWDHBSA-N

> <PUBCHEM_XLOGP3_AA>
5.6

> <PUBCHEM_EXACT_MASS>
290.260966

> <PUBCHEM_MOLECULAR_FORMULA>
C20H34O

> <PUBCHEM_MOLECULAR_WEIGHT>
290.48336

> <PUBCHEM_OPENEYE_CAN_SMILES>
CC1CC=C2C(C1(C)CCC(C)(C=C)O)CCCC2(C)C

> <PUBCHEM_OPENEYE_ISO_SMILES>
C[C@H]1CC=C2[C@H]([C@]1(C)CC[C@@](C)(C=C)O)CCCC2(C)C

> <PUBCHEM_CACTVS_TPSA>
20.2

> <PUBCHEM_MONOISOTOPIC_WEIGHT>
290.260966

> <PUBCHEM_TOTAL_CHARGE>
0

> <PUBCHEM_HEAVY_ATOM_COUNT>
21

> <PUBCHEM_ATOM_DEF_STEREO_COUNT>
4

> <PUBCHEM_ATOM_UDEF_STEREO_COUNT>
0

> <PUBCHEM_BOND_DEF_STEREO_COUNT>
0

> <PUBCHEM_BOND_UDEF_STEREO_COUNT>
0

> <PUBCHEM_ISOTOPIC_ATOM_COUNT>
0

> <PUBCHEM_COMPONENT_COUNT>
1

> <PUBCHEM_CACTVS_TAUTO_COUNT>
1

> <PUBCHEM_COORDINATE_TYPE>
1
5
255

> <PUBCHEM_BONDANNOTATIONS>
18  1  5
2  12  5
3  22  6
4  14  5

$$$$

