39425
  -OEChem-07051213122D

 36 38  0     0  0  0  0  0  0999 V2000
    2.9511    0.0526    0.0000 N   0  3  0  0  0  0  0  0  0  0  0  0
    3.2601    1.0036    0.0000 N   0  0  0  0  0  0  0  0  0  0  0  0
    3.7601   -0.5352    0.0000 C   0  0  0  0  0  0  0  0  0  0  0  0
    4.2601    1.0036    0.0000 C   0  0  0  0  0  0  0  0  0  0  0  0
    4.5691    0.0526    0.0000 C   0  0  0  0  0  0  0  0  0  0  0  0
    3.7601   -1.5352    0.0000 C   0  0  0  0  0  0  0  0  0  0  0  0
    4.8479    1.8126    0.0000 C   0  0  0  0  0  0  0  0  0  0  0  0
    2.0000   -0.2564    0.0000 C   0  0  0  0  0  0  0  0  0  0  0  0
    2.6723    1.8126    0.0000 C   0  0  0  0  0  0  0  0  0  0  0  0
    2.8940   -2.0352    0.0000 C   0  0  0  0  0  0  0  0  0  0  0  0
    4.6261   -2.0352    0.0000 C   0  0  0  0  0  0  0  0  0  0  0  0
    5.8424    1.7081    0.0000 C   0  0  0  0  0  0  0  0  0  0  0  0
    4.4411    2.7262    0.0000 C   0  0  0  0  0  0  0  0  0  0  0  0
    2.8940   -3.0352    0.0000 C   0  0  0  0  0  0  0  0  0  0  0  0
    4.6261   -3.0352    0.0000 C   0  0  0  0  0  0  0  0  0  0  0  0
    6.4302    2.5171    0.0000 C   0  0  0  0  0  0  0  0  0  0  0  0
    5.0289    3.5352    0.0000 C   0  0  0  0  0  0  0  0  0  0  0  0
    3.7601   -3.5352    0.0000 C   0  0  0  0  0  0  0  0  0  0  0  0
    6.0234    3.4307    0.0000 C   0  0  0  0  0  0  0  0  0  0  0  0
    5.1588   -0.1390    0.0000 H   0  0  0  0  0  0  0  0  0  0  0  0
    1.8084    0.3332    0.0000 H   0  0  0  0  0  0  0  0  0  0  0  0
    1.4103   -0.4480    0.0000 H   0  0  0  0  0  0  0  0  0  0  0  0
    2.1916   -0.8461    0.0000 H   0  0  0  0  0  0  0  0  0  0  0  0
    3.1739    2.1771    0.0000 H   0  0  0  0  0  0  0  0  0  0  0  0
    2.3079    2.3142    0.0000 H   0  0  0  0  0  0  0  0  0  0  0  0
    2.1707    1.4482    0.0000 H   0  0  0  0  0  0  0  0  0  0  0  0
    2.3571   -1.7252    0.0000 H   0  0  0  0  0  0  0  0  0  0  0  0
    5.1630   -1.7252    0.0000 H   0  0  0  0  0  0  0  0  0  0  0  0
    6.0946    1.1417    0.0000 H   0  0  0  0  0  0  0  0  0  0  0  0
    3.8245    2.7910    0.0000 H   0  0  0  0  0  0  0  0  0  0  0  0
    2.3571   -3.3452    0.0000 H   0  0  0  0  0  0  0  0  0  0  0  0
    5.1630   -3.3452    0.0000 H   0  0  0  0  0  0  0  0  0  0  0  0
    7.0468    2.4523    0.0000 H   0  0  0  0  0  0  0  0  0  0  0  0
    4.7767    4.1016    0.0000 H   0  0  0  0  0  0  0  0  0  0  0  0
    3.7601   -4.1552    0.0000 H   0  0  0  0  0  0  0  0  0  0  0  0
    6.3879    3.9323    0.0000 H   0  0  0  0  0  0  0  0  0  0  0  0
  1  2  1  0  0  0  0
  1  3  2  0  0  0  0
  1  8  1  0  0  0  0
  2  4  1  0  0  0  0
  2  9  1  0  0  0  0
  3  5  1  0  0  0  0
  3  6  1  0  0  0  0
  4  5  2  0  0  0  0
  4  7  1  0  0  0  0
  5 20  1  0  0  0  0
  6 10  2  0  0  0  0
  6 11  1  0  0  0  0
  7 12  2  0  0  0  0
  7 13  1  0  0  0  0
  8 21  1  0  0  0  0
  8 22  1  0  0  0  0
  8 23  1  0  0  0  0
  9 24  1  0  0  0  0
  9 25  1  0  0  0  0
  9 26  1  0  0  0  0
 10 14  1  0  0  0  0
 10 27  1  0  0  0  0
 11 15  2  0  0  0  0
 11 28  1  0  0  0  0
 12 16  1  0  0  0  0
 12 29  1  0  0  0  0
 13 17  2  0  0  0  0
 13 30  1  0  0  0  0
 14 18  2  0  0  0  0
 14 31  1  0  0  0  0
 15 18  1  0  0  0  0
 15 32  1  0  0  0  0
 16 19  2  0  0  0  0
 16 33  1  0  0  0  0
 17 19  1  0  0  0  0
 17 34  1  0  0  0  0
 18 35  1  0  0  0  0
 19 36  1  0  0  0  0
M  CHG  1   1   1
M  END
> <PUBCHEM_COMPOUND_CID>
39425

> <PUBCHEM_COMPOUND_CANONICALIZED>
1

> <PUBCHEM_CACTVS_COMPLEXITY>
251

> <PUBCHEM_CACTVS_HBOND_ACCEPTOR>
0

> <PUBCHEM_CACTVS_HBOND_DONOR>
0

> <PUBCHEM_CACTVS_ROTATABLE_BOND>
2

> <PUBCHEM_CACTVS_SUBSKEYS>
AAADceB7AAAAAAAAAAAAAAAAAAAAAWAAAAAwYAAAAAAAAAAB0AAAHAAIAAAADAiBHgQygJIIAACiAyRiRACSBAAhggAY2CA4ZJgIIKLA0dGEpAhgiABIyAcQgMAOAAAAAAAAAAAAAAAAAAAAAAAAAAAAAA==

> <PUBCHEM_IUPAC_OPENEYE_NAME>
1,2-dimethyl-3,5-diphenyl-pyrazol-1-ium

> <PUBCHEM_IUPAC_CAS_NAME>
1,2-dimethyl-3,5-diphenylpyrazol-1-ium

> <PUBCHEM_IUPAC_NAME>
1,2-dimethyl-3,5-diphenylpyrazol-1-ium

> <PUBCHEM_IUPAC_SYSTEMATIC_NAME>
1,2-dimethyl-3,5-diphenyl-pyrazol-1-ium

> <PUBCHEM_IUPAC_TRADITIONAL_NAME>
1,2-dimethyl-3,5-diphenyl-pyrazol-1-ium

> <PUBCHEM_IUPAC_INCHI>
InChI=1S/C17H17N2/c1-18-16(14-9-5-3-6-10-14)13-17(19(18)2)15-11-7-4-8-12-15/h3-13H,1-2H3/q+1

> <PUBCHEM_IUPAC_INCHIKEY>
LBGPXIPGGRQBJW-UHFFFAOYSA-N

> <PUBCHEM_XLOGP3_AA>
4.3

> <PUBCHEM_EXACT_MASS>
249.139174

> <PUBCHEM_MOLECULAR_FORMULA>
C17H17N2+

> <PUBCHEM_MOLECULAR_WEIGHT>
249.33028

> <PUBCHEM_OPENEYE_CAN_SMILES>
CN1C(=CC(=[N+]1C)C2=CC=CC=C2)C3=CC=CC=C3

> <PUBCHEM_OPENEYE_ISO_SMILES>
CN1C(=CC(=[N+]1C)C2=CC=CC=C2)C3=CC=CC=C3

> <PUBCHEM_CACTVS_TPSA>
8.8

> <PUBCHEM_MONOISOTOPIC_WEIGHT>
249.139174

> <PUBCHEM_TOTAL_CHARGE>
1

> <PUBCHEM_HEAVY_ATOM_COUNT>
19

> <PUBCHEM_ATOM_DEF_STEREO_COUNT>
0

> <PUBCHEM_ATOM_UDEF_STEREO_COUNT>
0

> <PUBCHEM_BOND_DEF_STEREO_COUNT>
0

> <PUBCHEM_BOND_UDEF_STEREO_COUNT>
0

> <PUBCHEM_ISOTOPIC_ATOM_COUNT>
0

> <PUBCHEM_COMPONENT_COUNT>
1

> <PUBCHEM_CACTVS_TAUTO_COUNT>
1

> <PUBCHEM_COORDINATE_TYPE>
1
5
255

> <PUBCHEM_BONDANNOTATIONS>
1  2  8
1  3  8
10  14  8
11  15  8
12  16  8
13  17  8
14  18  8
15  18  8
16  19  8
17  19  8
2  4  8
3  5  8
4  5  8
6  10  8
6  11  8
7  12  8
7  13  8

$$$$

