86211
  -OEChem-07051213122D

 47 49  0     1  0  0  0  0  0999 V2000
    3.8064   -3.8664    0.0000 Cl  0  0  0  0  0  0  0  0  0  0  0  0
    3.7825    1.7327    0.0000 O   0  0  0  0  0  0  0  0  0  0  0  0
    3.6180    2.9153    0.0000 N   0  0  0  0  0  0  0  0  0  0  0  0
    2.8090    2.3275    0.0000 N   0  0  0  0  0  0  0  0  0  0  0  0
    2.3090    3.8664    0.0000 N   0  0  0  0  0  0  0  0  0  0  0  0
    4.7770    1.6282    0.0000 C   0  0  3  0  0  0  0  0  0  0  0  0
    5.7552    1.8361    0.0000 C   0  0  3  0  0  0  0  0  0  0  0  0
    4.6725    0.6336    0.0000 C   0  0  3  0  0  0  0  0  0  0  0  0
    6.2552    0.9700    0.0000 C   0  0  0  0  0  0  0  0  0  0  0  0
    5.5860    0.2269    0.0000 C   0  0  0  0  0  0  0  0  0  0  0  0
    6.1619    2.7496    0.0000 C   0  0  0  0  0  0  0  0  0  0  0  0
    4.5691    2.6063    0.0000 C   0  0  0  0  0  0  0  0  0  0  0  0
    3.8064    0.1336    0.0000 C   0  0  0  0  0  0  0  0  0  0  0  0
    7.1564    2.8541    0.0000 C   0  0  0  0  0  0  0  0  0  0  0  0
    5.5741    3.5586    0.0000 C   0  0  0  0  0  0  0  0  0  0  0  0
    3.8064   -0.8664    0.0000 C   0  0  0  0  0  0  0  0  0  0  0  0
    3.3090    3.8664    0.0000 C   0  0  0  0  0  0  0  0  0  0  0  0
    2.9404   -1.3664    0.0000 C   0  0  0  0  0  0  0  0  0  0  0  0
    4.6725   -1.3664    0.0000 C   0  0  0  0  0  0  0  0  0  0  0  0
    2.9404   -2.3664    0.0000 C   0  0  0  0  0  0  0  0  0  0  0  0
    4.6725   -2.3664    0.0000 C   0  0  0  0  0  0  0  0  0  0  0  0
    2.0000    2.9153    0.0000 C   0  0  0  0  0  0  0  0  0  0  0  0
    3.8064   -2.8664    0.0000 C   0  0  0  0  0  0  0  0  0  0  0  0
    6.6040    1.8806    0.0000 H   0  0  0  0  0  0  0  0  0  0  0  0
    4.7170   -0.2152    0.0000 H   0  0  0  0  0  0  0  0  0  0  0  0
    6.6700    0.5093    0.0000 H   0  0  0  0  0  0  0  0  0  0  0  0
    6.7567    1.3345    0.0000 H   0  0  0  0  0  0  0  0  0  0  0  0
    5.2760   -0.3100    0.0000 H   0  0  0  0  0  0  0  0  0  0  0  0
    6.0876   -0.1375    0.0000 H   0  0  0  0  0  0  0  0  0  0  0  0
    5.5453    2.6848    0.0000 H   0  0  0  0  0  0  0  0  0  0  0  0
    5.1887    2.6279    0.0000 H   0  0  0  0  0  0  0  0  0  0  0  0
    4.6554    3.2203    0.0000 H   0  0  0  0  0  0  0  0  0  0  0  0
    3.5944    0.7162    0.0000 H   0  0  0  0  0  0  0  0  0  0  0  0
    3.1959    0.0260    0.0000 H   0  0  0  0  0  0  0  0  0  0  0  0
    3.4180    1.2311    0.0000 H   0  0  0  0  0  0  0  0  0  0  0  0
    7.2212    2.2375    0.0000 H   0  0  0  0  0  0  0  0  0  0  0  0
    7.7730    2.9189    0.0000 H   0  0  0  0  0  0  0  0  0  0  0  0
    7.0916    3.4707    0.0000 H   0  0  0  0  0  0  0  0  0  0  0  0
    6.0757    3.9230    0.0000 H   0  0  0  0  0  0  0  0  0  0  0  0
    5.2097    4.0602    0.0000 H   0  0  0  0  0  0  0  0  0  0  0  0
    5.0725    3.1942    0.0000 H   0  0  0  0  0  0  0  0  0  0  0  0
    3.6734    4.3680    0.0000 H   0  0  0  0  0  0  0  0  0  0  0  0
    2.4035   -1.0564    0.0000 H   0  0  0  0  0  0  0  0  0  0  0  0
    5.2094   -1.0564    0.0000 H   0  0  0  0  0  0  0  0  0  0  0  0
    2.4035   -2.6764    0.0000 H   0  0  0  0  0  0  0  0  0  0  0  0
    5.2094   -2.6764    0.0000 H   0  0  0  0  0  0  0  0  0  0  0  0
    1.4103    2.7237    0.0000 H   0  0  0  0  0  0  0  0  0  0  0  0
  1 23  1  0  0  0  0
  2  6  1  0  0  0  0
  2 35  1  0  0  0  0
  3  4  1  0  0  0  0
  3 12  1  0  0  0  0
  3 17  1  0  0  0  0
  4 22  2  0  0  0  0
  5 17  2  0  0  0  0
  5 22  1  0  0  0  0
  6  7  1  0  0  0  0
  6  8  1  0  0  0  0
  6 12  1  0  0  0  0
  7  9  1  0  0  0  0
  7 11  1  0  0  0  0
  7 24  1  0  0  0  0
  8 10  1  0  0  0  0
  8 13  1  0  0  0  0
  8 25  1  0  0  0  0
  9 10  1  0  0  0  0
  9 26  1  0  0  0  0
  9 27  1  0  0  0  0
 10 28  1  0  0  0  0
 10 29  1  0  0  0  0
 11 14  1  0  0  0  0
 11 15  1  0  0  0  0
 11 30  1  0  0  0  0
 12 31  1  0  0  0  0
 12 32  1  0  0  0  0
 13 16  1  0  0  0  0
 13 33  1  0  0  0  0
 13 34  1  0  0  0  0
 14 36  1  0  0  0  0
 14 37  1  0  0  0  0
 14 38  1  0  0  0  0
 15 39  1  0  0  0  0
 15 40  1  0  0  0  0
 15 41  1  0  0  0  0
 16 18  2  0  0  0  0
 16 19  1  0  0  0  0
 17 42  1  0  0  0  0
 18 20  1  0  0  0  0
 18 43  1  0  0  0  0
 19 21  2  0  0  0  0
 19 44  1  0  0  0  0
 20 23  2  0  0  0  0
 20 45  1  0  0  0  0
 21 23  1  0  0  0  0
 21 46  1  0  0  0  0
 22 47  1  0  0  0  0
M  END
> <PUBCHEM_COMPOUND_CID>
86211

> <PUBCHEM_COMPOUND_CANONICALIZED>
1

> <PUBCHEM_CACTVS_COMPLEXITY>
387

> <PUBCHEM_CACTVS_HBOND_ACCEPTOR>
3

> <PUBCHEM_CACTVS_HBOND_DONOR>
1

> <PUBCHEM_CACTVS_ROTATABLE_BOND>
5

> <PUBCHEM_CACTVS_SUBSKEYS>
AAADceB7IAAEAAAAAAAAAAAAAAAAAeIAAAAwAAAAAAAAAAABwAAAHgIICAAADUbBmCQ3EIYIEgCiAiBDJAASAAswhYAdyAAIAoiKKCKBmxCEYAAsgAIYiAeQwOAOhAAAAAAAAAAIAAAAAAAAAQAADAAAAA==

> <PUBCHEM_IUPAC_OPENEYE_NAME>
2-[(4-chlorophenyl)methyl]-5-isopropyl-1-(1,2,4-triazol-1-ylmethyl)cyclopentanol

> <PUBCHEM_IUPAC_CAS_NAME>
2-[(4-chlorophenyl)methyl]-5-propan-2-yl-1-(1,2,4-triazol-1-ylmethyl)-1-cyclopentanol

> <PUBCHEM_IUPAC_NAME>
2-[(4-chlorophenyl)methyl]-5-propan-2-yl-1-(1,2,4-triazol-1-ylmethyl)cyclopentan-1-ol

> <PUBCHEM_IUPAC_SYSTEMATIC_NAME>
2-[(4-chlorophenyl)methyl]-5-propan-2-yl-1-(1,2,4-triazol-1-ylmethyl)cyclopentan-1-ol

> <PUBCHEM_IUPAC_TRADITIONAL_NAME>
2-(4-chlorobenzyl)-5-isopropyl-1-(1,2,4-triazol-1-ylmethyl)cyclopentanol

> <PUBCHEM_IUPAC_INCHI>
InChI=1S/C18H24ClN3O/c1-13(2)17-8-5-15(9-14-3-6-16(19)7-4-14)18(17,23)10-22-12-20-11-21-22/h3-4,6-7,11-13,15,17,23H,5,8-10H2,1-2H3

> <PUBCHEM_IUPAC_INCHIKEY>
QTYCMDBMOLSEAM-UHFFFAOYSA-N

> <PUBCHEM_XLOGP3_AA>
4.1

> <PUBCHEM_EXACT_MASS>
333.16079

> <PUBCHEM_MOLECULAR_FORMULA>
C18H24ClN3O

> <PUBCHEM_MOLECULAR_WEIGHT>
333.85566

> <PUBCHEM_OPENEYE_CAN_SMILES>
CC(C)C1CCC(C1(CN2C=NC=N2)O)CC3=CC=C(C=C3)Cl

> <PUBCHEM_OPENEYE_ISO_SMILES>
CC(C)C1CCC(C1(CN2C=NC=N2)O)CC3=CC=C(C=C3)Cl

> <PUBCHEM_CACTVS_TPSA>
50.9

> <PUBCHEM_MONOISOTOPIC_WEIGHT>
333.16079

> <PUBCHEM_TOTAL_CHARGE>
0

> <PUBCHEM_HEAVY_ATOM_COUNT>
23

> <PUBCHEM_ATOM_DEF_STEREO_COUNT>
0

> <PUBCHEM_ATOM_UDEF_STEREO_COUNT>
3

> <PUBCHEM_BOND_DEF_STEREO_COUNT>
0

> <PUBCHEM_BOND_UDEF_STEREO_COUNT>
0

> <PUBCHEM_ISOTOPIC_ATOM_COUNT>
0

> <PUBCHEM_COMPONENT_COUNT>
1

> <PUBCHEM_CACTVS_TAUTO_COUNT>
1

> <PUBCHEM_COORDINATE_TYPE>
1
5
255

> <PUBCHEM_BONDANNOTATIONS>
16  18  8
16  19  8
18  20  8
19  21  8
20  23  8
21  23  8
3  17  8
3  4  8
4  22  8
5  17  8
5  22  8
6  12  3
7  24  3
8  25  3

$$$$

