17396330
  -OEChem-06241222552D

 35 36  0     1  0  0  0  0  0999 V2000
    2.8660   -4.6739    0.0000 Cl  0  0  0  0  0  0  0  0  0  0  0  0
    4.5981    1.3261    0.0000 S   0  0  0  0  0  0  0  0  0  0  0  0
    4.5981   -0.6739    0.0000 O   0  0  0  0  0  0  0  0  0  0  0  0
    3.7891    2.9139    0.0000 N   0  0  0  0  0  0  0  0  0  0  0  0
    2.8660   -0.6739    0.0000 N   0  0  0  0  0  0  0  0  0  0  0  0
    5.4071    2.9139    0.0000 N   0  0  0  0  0  0  0  0  0  0  0  0
    5.0981    3.8649    0.0000 N   0  0  0  0  0  0  0  0  0  0  0  0
    3.7320    0.8261    0.0000 C   0  0  3  0  0  0  0  0  0  0  0  0
    4.5981    2.3261    0.0000 C   0  0  0  0  0  0  0  0  0  0  0  0
    3.7320   -0.1739    0.0000 C   0  0  0  0  0  0  0  0  0  0  0  0
    2.8660    1.3261    0.0000 C   0  0  0  0  0  0  0  0  0  0  0  0
    4.0981    3.8649    0.0000 C   0  0  0  0  0  0  0  0  0  0  0  0
    2.8660   -1.6739    0.0000 C   0  0  0  0  0  0  0  0  0  0  0  0
    2.8380    2.6048    0.0000 C   0  0  0  0  0  0  0  0  0  0  0  0
    3.5103    4.6739    0.0000 C   0  0  0  0  0  0  0  0  0  0  0  0
    2.0000   -2.1739    0.0000 C   0  0  0  0  0  0  0  0  0  0  0  0
    3.7320   -2.1739    0.0000 C   0  0  0  0  0  0  0  0  0  0  0  0
    2.0000   -3.1739    0.0000 C   0  0  0  0  0  0  0  0  0  0  0  0
    3.7320   -3.1739    0.0000 C   0  0  0  0  0  0  0  0  0  0  0  0
    2.8660   -3.6739    0.0000 C   0  0  0  0  0  0  0  0  0  0  0  0
    3.7320    1.4461    0.0000 H   0  0  0  0  0  0  0  0  0  0  0  0
    3.1760    1.8630    0.0000 H   0  0  0  0  0  0  0  0  0  0  0  0
    2.3291    1.6361    0.0000 H   0  0  0  0  0  0  0  0  0  0  0  0
    2.5560    0.7891    0.0000 H   0  0  0  0  0  0  0  0  0  0  0  0
    2.3291   -0.3639    0.0000 H   0  0  0  0  0  0  0  0  0  0  0  0
    2.6464    3.1945    0.0000 H   0  0  0  0  0  0  0  0  0  0  0  0
    2.2484    2.4132    0.0000 H   0  0  0  0  0  0  0  0  0  0  0  0
    3.0296    2.0152    0.0000 H   0  0  0  0  0  0  0  0  0  0  0  0
    4.0119    5.0384    0.0000 H   0  0  0  0  0  0  0  0  0  0  0  0
    3.1459    5.1755    0.0000 H   0  0  0  0  0  0  0  0  0  0  0  0
    3.0087    4.3095    0.0000 H   0  0  0  0  0  0  0  0  0  0  0  0
    1.4631   -1.8639    0.0000 H   0  0  0  0  0  0  0  0  0  0  0  0
    4.2690   -1.8639    0.0000 H   0  0  0  0  0  0  0  0  0  0  0  0
    1.4631   -3.4839    0.0000 H   0  0  0  0  0  0  0  0  0  0  0  0
    4.2690   -3.4839    0.0000 H   0  0  0  0  0  0  0  0  0  0  0  0
  1 20  1  0  0  0  0
  2  8  1  0  0  0  0
  2  9  1  0  0  0  0
  3 10  2  0  0  0  0
  4  9  1  0  0  0  0
  4 12  1  0  0  0  0
  4 14  1  0  0  0  0
  5 10  1  0  0  0  0
  5 13  1  0  0  0  0
  5 25  1  0  0  0  0
  6  7  1  0  0  0  0
  6  9  2  0  0  0  0
  7 12  2  0  0  0  0
  8 10  1  0  0  0  0
  8 11  1  0  0  0  0
  8 21  1  0  0  0  0
 11 22  1  0  0  0  0
 11 23  1  0  0  0  0
 11 24  1  0  0  0  0
 12 15  1  0  0  0  0
 13 16  2  0  0  0  0
 13 17  1  0  0  0  0
 14 26  1  0  0  0  0
 14 27  1  0  0  0  0
 14 28  1  0  0  0  0
 15 29  1  0  0  0  0
 15 30  1  0  0  0  0
 15 31  1  0  0  0  0
 16 18  1  0  0  0  0
 16 32  1  0  0  0  0
 17 19  2  0  0  0  0
 17 33  1  0  0  0  0
 18 20  2  0  0  0  0
 18 34  1  0  0  0  0
 19 20  1  0  0  0  0
 19 35  1  0  0  0  0
M  END
> <PUBCHEM_COMPOUND_CID>
17396330

> <PUBCHEM_COMPOUND_CANONICALIZED>
1

> <PUBCHEM_CACTVS_COMPLEXITY>
338

> <PUBCHEM_CACTVS_HBOND_ACCEPTOR>
4

> <PUBCHEM_CACTVS_HBOND_DONOR>
1

> <PUBCHEM_CACTVS_ROTATABLE_BOND>
4

> <PUBCHEM_CACTVS_SUBSKEYS>
AAADccBzoABEAAAAAAAAAAAAAAAAAWAAAAAwAAAAAAAAAAABwAAAHgYYAAAACAqF0ySz0IfMEAiqACdydACS0AthB7AdyAEYZoiIKCLBm5GEIAhgnALIyAcQAAAAAABAAAAAAAAAAIAAAAAAAAAAAAAAAA==

> <PUBCHEM_IUPAC_OPENEYE_NAME>
N-(4-chlorophenyl)-2-[(4,5-dimethyl-1,2,4-triazol-3-yl)sulfanyl]propanamide

> <PUBCHEM_IUPAC_CAS_NAME>
N-(4-chlorophenyl)-2-[(4,5-dimethyl-1,2,4-triazol-3-yl)thio]propanamide

> <PUBCHEM_IUPAC_NAME>
N-(4-chlorophenyl)-2-[(4,5-dimethyl-1,2,4-triazol-3-yl)sulfanyl]propanamide

> <PUBCHEM_IUPAC_SYSTEMATIC_NAME>
N-(4-chlorophenyl)-2-[(4,5-dimethyl-1,2,4-triazol-3-yl)sulfanyl]propanamide

> <PUBCHEM_IUPAC_TRADITIONAL_NAME>
N-(4-chlorophenyl)-2-[(4,5-dimethyl-1,2,4-triazol-3-yl)thio]propionamide

> <PUBCHEM_IUPAC_INCHI>
InChI=1S/C13H15ClN4OS/c1-8(20-13-17-16-9(2)18(13)3)12(19)15-11-6-4-10(14)5-7-11/h4-8H,1-3H3,(H,15,19)

> <PUBCHEM_IUPAC_INCHIKEY>
UAQWZBOYBQHJLV-UHFFFAOYSA-N

> <PUBCHEM_XLOGP3_AA>
2.6

> <PUBCHEM_EXACT_MASS>
310.06551

> <PUBCHEM_MOLECULAR_FORMULA>
C13H15ClN4OS

> <PUBCHEM_MOLECULAR_WEIGHT>
310.8024

> <PUBCHEM_OPENEYE_CAN_SMILES>
CC1=NN=C(N1C)SC(C)C(=O)NC2=CC=C(C=C2)Cl

> <PUBCHEM_OPENEYE_ISO_SMILES>
CC1=NN=C(N1C)SC(C)C(=O)NC2=CC=C(C=C2)Cl

> <PUBCHEM_CACTVS_TPSA>
85.1

> <PUBCHEM_MONOISOTOPIC_WEIGHT>
310.06551

> <PUBCHEM_TOTAL_CHARGE>
0

> <PUBCHEM_HEAVY_ATOM_COUNT>
20

> <PUBCHEM_ATOM_DEF_STEREO_COUNT>
0

> <PUBCHEM_ATOM_UDEF_STEREO_COUNT>
1

> <PUBCHEM_BOND_DEF_STEREO_COUNT>
0

> <PUBCHEM_BOND_UDEF_STEREO_COUNT>
0

> <PUBCHEM_ISOTOPIC_ATOM_COUNT>
0

> <PUBCHEM_COMPONENT_COUNT>
1

> <PUBCHEM_CACTVS_TAUTO_COUNT>
3

> <PUBCHEM_COORDINATE_TYPE>
1
5
255

> <PUBCHEM_BONDANNOTATIONS>
13  16  8
13  17  8
16  18  8
17  19  8
18  20  8
19  20  8
4  12  8
4  9  8
6  7  8
6  9  8
7  12  8
8  11  3

$$$$

