441845
  -OEChem-07051212562D

 81 87  0     1  0  0  0  0  0999 V2000
    2.7168   -1.3839    0.0000 O   0  0  0  0  0  0  0  0  0  0  0  0
    2.5810   -2.0910    0.0000 O   0  0  0  0  0  0  0  0  0  0  0  0
    6.2351   -2.4286    0.0000 O   0  0  0  0  0  0  0  0  0  0  0  0
    4.4613    3.6858    0.0000 O   0  0  0  0  0  0  0  0  0  0  0  0
    6.2950   -5.0349    0.0000 O   0  0  0  0  0  0  0  0  0  0  0  0
    5.3215    5.1891    0.0000 O   0  0  0  0  0  0  0  0  0  0  0  0
    5.6408   -6.6925    0.0000 O   0  0  0  0  0  0  0  0  0  0  0  0
    6.1972    2.6925    0.0000 O   0  0  0  0  0  0  0  0  0  0  0  0
    7.9253    3.6992    0.0000 O   0  0  0  0  0  0  0  0  0  0  0  0
    7.9176    5.6991    0.0000 O   0  0  0  0  0  0  0  0  0  0  0  0
    3.5831   -0.8834    0.0000 C   0  0  1  0  0  0  0  0  0  0  0  0
    4.4492   -0.3834    0.0000 C   0  0  1  0  0  0  0  0  0  0  0  0
    3.5671   -1.9250    0.0000 C   0  0  1  0  0  0  0  0  0  0  0  0
    2.7171   -0.3834    0.0000 C   0  0  2  0  0  0  0  0  0  0  0  0
    4.4651   -2.4527    0.0000 C   0  0  2  0  0  0  0  0  0  0  0  0
    4.4492    0.6166    0.0000 C   0  0  2  0  0  0  0  0  0  0  0  0
    3.5831    1.1166    0.0000 C   0  0  1  0  0  0  0  0  0  0  0  0
    2.7171    0.6166    0.0000 C   0  0  0  0  0  0  0  0  0  0  0  0
    5.3592   -0.8903    0.0000 C   0  0  0  0  0  0  0  0  0  0  0  0
    5.3672   -1.9319    0.0000 C   0  0  1  0  0  0  0  0  0  0  0  0
    2.7940   -2.6139    0.0000 C   0  0  0  0  0  0  0  0  0  0  0  0
    4.2394   -3.4633    0.0000 C   0  0  2  0  0  0  0  0  0  0  0  0
    3.2087   -3.5627    0.0000 C   0  0  0  0  0  0  0  0  0  0  0  0
    5.3592    1.1234    0.0000 C   0  0  0  0  0  0  0  0  0  0  0  0
    3.5671    2.1581    0.0000 C   0  0  0  0  0  0  0  0  0  0  0  0
    5.3273   -2.9594    0.0000 C   0  0  0  0  0  0  0  0  0  0  0  0
    5.3152    0.1166    0.0000 C   0  0  0  0  0  0  0  0  0  0  0  0
    5.3672    2.1650    0.0000 C   0  0  0  0  0  0  0  0  0  0  0  0
    4.4651    2.6858    0.0000 C   0  0  2  0  0  0  0  0  0  0  0  0
    4.9015   -4.2127    0.0000 C   0  0  0  0  0  0  0  0  0  0  0  0
    5.8970   -4.1176    0.0000 C   0  0  0  0  0  0  0  0  0  0  0  0
    4.6844   -5.1888    0.0000 C   0  0  0  0  0  0  0  0  0  0  0  0
    5.3254    4.1891    0.0000 C   0  0  2  0  0  0  0  0  0  0  0  0
    5.5456   -5.6970    0.0000 C   0  0  0  0  0  0  0  0  0  0  0  0
    6.1933    3.6925    0.0000 C   0  0  1  0  0  0  0  0  0  0  0  0
    7.0574    4.1958    0.0000 C   0  0  1  0  0  0  0  0  0  0  0  0
    6.1856    5.6925    0.0000 C   0  0  1  0  0  0  0  0  0  0  0  0
    7.0535    5.1958    0.0000 C   0  0  1  0  0  0  0  0  0  0  0  0
    6.1817    6.6925    0.0000 C   0  0  0  0  0  0  0  0  0  0  0  0
    5.1820    0.0472    0.0000 H   0  0  0  0  0  0  0  0  0  0  0  0
    1.8671   -0.3833    0.0000 H   0  0  0  0  0  0  0  0  0  0  0  0
    2.8438    1.5359    0.0000 H   0  0  0  0  0  0  0  0  0  0  0  0
    2.5051    1.1992    0.0000 H   0  0  0  0  0  0  0  0  0  0  0  0
    2.1065    0.5089    0.0000 H   0  0  0  0  0  0  0  0  0  0  0  0
    5.9708   -0.9917    0.0000 H   0  0  0  0  0  0  0  0  0  0  0  0
    5.5637   -0.3050    0.0000 H   0  0  0  0  0  0  0  0  0  0  0  0
    5.3684   -2.5519    0.0000 H   0  0  0  0  0  0  0  0  0  0  0  0
    2.4325   -2.1102    0.0000 H   0  0  0  0  0  0  0  0  0  0  0  0
    2.2552   -2.9205    0.0000 H   0  0  0  0  0  0  0  0  0  0  0  0
    4.0120   -4.0401    0.0000 H   0  0  0  0  0  0  0  0  0  0  0  0
    2.6177   -3.7499    0.0000 H   0  0  0  0  0  0  0  0  0  0  0  0
    3.3328   -4.1701    0.0000 H   0  0  0  0  0  0  0  0  0  0  0  0
    5.5637    0.5381    0.0000 H   0  0  0  0  0  0  0  0  0  0  0  0
    5.9708    1.2248    0.0000 H   0  0  0  0  0  0  0  0  0  0  0  0
    3.3490    2.7385    0.0000 H   0  0  0  0  0  0  0  0  0  0  0  0
    2.9579    2.0426    0.0000 H   0  0  0  0  0  0  0  0  0  0  0  0
    5.0131   -3.4939    0.0000 H   0  0  0  0  0  0  0  0  0  0  0  0
    5.8618   -3.2735    0.0000 H   0  0  0  0  0  0  0  0  0  0  0  0
    5.6414   -2.4248    0.0000 H   0  0  0  0  0  0  0  0  0  0  0  0
    5.0052   -0.4204    0.0000 H   0  0  0  0  0  0  0  0  0  0  0  0
    5.8521   -0.1934    0.0000 H   0  0  0  0  0  0  0  0  0  0  0  0
    5.6252    0.6535    0.0000 H   0  0  0  0  0  0  0  0  0  0  0  0
    2.0000   -1.8745    0.0000 H   0  0  0  0  0  0  0  0  0  0  0  0
    5.9772    2.0542    0.0000 H   0  0  0  0  0  0  0  0  0  0  0  0
    5.5807    2.7471    0.0000 H   0  0  0  0  0  0  0  0  0  0  0  0
    5.0014    2.9968    0.0000 H   0  0  0  0  0  0  0  0  0  0  0  0
    6.7709   -2.1165    0.0000 H   0  0  0  0  0  0  0  0  0  0  0  0
    6.4884   -3.9316    0.0000 H   0  0  0  0  0  0  0  0  0  0  0  0
    5.7738   -3.5099    0.0000 H   0  0  0  0  0  0  0  0  0  0  0  0
    4.1156   -5.4357    0.0000 H   0  0  0  0  0  0  0  0  0  0  0  0
    5.3277    3.5691    0.0000 H   0  0  0  0  0  0  0  0  0  0  0  0
    6.7314    3.3846    0.0000 H   0  0  0  0  0  0  0  0  0  0  0  0
    7.0598    3.5758    0.0000 H   0  0  0  0  0  0  0  0  0  0  0  0
    5.6475    6.0004    0.0000 H   0  0  0  0  0  0  0  0  0  0  0  0
    7.0511    5.8158    0.0000 H   0  0  0  0  0  0  0  0  0  0  0  0
    6.7353    2.3846    0.0000 H   0  0  0  0  0  0  0  0  0  0  0  0
    6.8017    6.6948    0.0000 H   0  0  0  0  0  0  0  0  0  0  0  0
    6.1793    7.3125    0.0000 H   0  0  0  0  0  0  0  0  0  0  0  0
    5.5617    6.6901    0.0000 H   0  0  0  0  0  0  0  0  0  0  0  0
    8.4611    4.0112    0.0000 H   0  0  0  0  0  0  0  0  0  0  0  0
    7.9152    6.3191    0.0000 H   0  0  0  0  0  0  0  0  0  0  0  0
 11  1  1  1  0  0  0
  1 14  1  0  0  0  0
 13  2  1  1  0  0  0
  2 63  1  0  0  0  0
 20  3  1  1  0  0  0
  3 67  1  0  0  0  0
 29  4  1  1  0  0  0
 33  4  1  6  0  0  0
  5 31  1  0  0  0  0
  5 34  1  0  0  0  0
  6 33  1  0  0  0  0
  6 37  1  0  0  0  0
  7 34  2  0  0  0  0
 35  8  1  1  0  0  0
  8 76  1  0  0  0  0
 36  9  1  1  0  0  0
  9 80  1  0  0  0  0
 38 10  1  1  0  0  0
 10 81  1  0  0  0  0
 11 12  1  0  0  0  0
 11 13  1  0  0  0  0
 11 14  1  0  0  0  0
 12 16  1  0  0  0  0
 12 19  1  0  0  0  0
 12 40  1  6  0  0  0
 13 15  1  0  0  0  0
 13 21  1  0  0  0  0
 14 18  1  0  0  0  0
 14 41  1  6  0  0  0
 15 20  1  0  0  0  0
 15 22  1  0  0  0  0
 15 26  1  1  0  0  0
 16 17  1  0  0  0  0
 16 24  1  0  0  0  0
 16 27  1  1  0  0  0
 17 18  1  0  0  0  0
 17 25  1  0  0  0  0
 17 42  1  6  0  0  0
 18 43  1  0  0  0  0
 18 44  1  0  0  0  0
 19 20  1  0  0  0  0
 19 45  1  0  0  0  0
 19 46  1  0  0  0  0
 20 47  1  0  0  0  0
 21 23  1  0  0  0  0
 21 48  1  0  0  0  0
 21 49  1  0  0  0  0
 22 23  1  0  0  0  0
 22 30  1  1  0  0  0
 22 50  1  0  0  0  0
 23 51  1  0  0  0  0
 23 52  1  0  0  0  0
 24 28  1  0  0  0  0
 24 53  1  0  0  0  0
 24 54  1  0  0  0  0
 25 29  1  0  0  0  0
 25 55  1  0  0  0  0
 25 56  1  0  0  0  0
 26 57  1  0  0  0  0
 26 58  1  0  0  0  0
 26 59  1  0  0  0  0
 27 60  1  0  0  0  0
 27 61  1  0  0  0  0
 27 62  1  0  0  0  0
 28 29  1  0  0  0  0
 28 64  1  0  0  0  0
 28 65  1  0  0  0  0
 29 66  1  0  0  0  0
 30 31  1  0  0  0  0
 30 32  2  0  0  0  0
 31 68  1  0  0  0  0
 31 69  1  0  0  0  0
 32 34  1  0  0  0  0
 32 70  1  0  0  0  0
 33 35  1  0  0  0  0
 33 71  1  0  0  0  0
 35 36  1  0  0  0  0
 35 72  1  0  0  0  0
 36 38  1  0  0  0  0
 36 73  1  0  0  0  0
 37 38  1  0  0  0  0
 37 39  1  6  0  0  0
 37 74  1  0  0  0  0
 38 75  1  0  0  0  0
 39 77  1  0  0  0  0
 39 78  1  0  0  0  0
 39 79  1  0  0  0  0
M  END
> <PUBCHEM_COMPOUND_CID>
441845

> <PUBCHEM_COMPOUND_CANONICALIZED>
1

> <PUBCHEM_CACTVS_COMPLEXITY>
1080

> <PUBCHEM_CACTVS_HBOND_ACCEPTOR>
10

> <PUBCHEM_CACTVS_HBOND_DONOR>
5

> <PUBCHEM_CACTVS_ROTATABLE_BOND>
3

> <PUBCHEM_CACTVS_SUBSKEYS>
AAADcfB4PAAAAAAAAAAAAAAAEgAAAYIAAAA0YMEABIAAAGDAAAAAGgAACAAAD1SwgAMCCAAABgCIAiDSCAAAAAAgAAAACAAAAEgRFAIAIQAiUAAFgAAPIQPA4PwPgAAAAAAAAADCAAYQADCAAYAADAAAAA==

> <PUBCHEM_IUPAC_INCHI>
InChI=1S/C29H42O10/c1-13-22(32)23(33)24(34)25(37-13)38-16-4-6-26(2)15(9-16)10-20-29(39-20)18(26)11-19(30)27(3)17(5-7-28(27,29)35)14-8-21(31)36-12-14/h8,13,15-20,22-25,30,32-35H,4-7,9-12H2,1-3H3/t13-,15-,16+,17-,18-,19-,20+,22-,23-,24-,25+,26+,27+,28-,29-/m1/s1

> <PUBCHEM_IUPAC_INCHIKEY>
BEDAFJYDKDOALK-FHLCUQDTSA-N

> <PUBCHEM_XLOGP3_AA>
-0.3

> <PUBCHEM_EXACT_MASS>
550.277798

> <PUBCHEM_MOLECULAR_FORMULA>
C29H42O10

> <PUBCHEM_MOLECULAR_WEIGHT>
550.63778

> <PUBCHEM_OPENEYE_CAN_SMILES>
CC1C(C(C(C(O1)OC2CCC3(C(C2)CC4C5(C3CC(C6(C5(CCC6C7=CC(=O)OC7)O)C)O)O4)C)O)O)O

> <PUBCHEM_OPENEYE_ISO_SMILES>
C[C@@H]1[C@H]([C@H]([C@H]([C@@H](O1)O[C@H]2CC[C@]3([C@H](C2)C[C@H]4[C@@]5([C@@H]3C[C@H]([C@]6([C@@]5(CC[C@@H]6C7=CC(=O)OC7)O)C)O)O4)C)O)O)O

> <PUBCHEM_CACTVS_TPSA>
158

> <PUBCHEM_MONOISOTOPIC_WEIGHT>
550.277798

> <PUBCHEM_TOTAL_CHARGE>
0

> <PUBCHEM_HEAVY_ATOM_COUNT>
39

> <PUBCHEM_ATOM_DEF_STEREO_COUNT>
15

> <PUBCHEM_ATOM_UDEF_STEREO_COUNT>
0

> <PUBCHEM_BOND_DEF_STEREO_COUNT>
0

> <PUBCHEM_BOND_UDEF_STEREO_COUNT>
0

> <PUBCHEM_ISOTOPIC_ATOM_COUNT>
0

> <PUBCHEM_COMPONENT_COUNT>
1

> <PUBCHEM_CACTVS_TAUTO_COUNT>
1

> <PUBCHEM_COORDINATE_TYPE>
1
5
255

> <PUBCHEM_BONDANNOTATIONS>
11  1  5
38  10  5
12  40  6
14  41  6
15  26  5
16  27  5
17  42  6
13  2  5
22  30  5
20  3  5
37  39  6
29  4  5
33  4  6
35  8  5
36  9  5

$$$$

