5380
  -OEChem-06261200393D

 36 37  0     0  0  0  0  0  0999 V2000
    3.2833   -0.2300    0.0061 O   0  0  0  0  0  0  0  0  0  0  0  0
    3.5085   -1.8913   -1.6038 O   0  0  0  0  0  0  0  0  0  0  0  0
    1.6109   -2.9602    0.2836 O   0  0  0  0  0  0  0  0  0  0  0  0
    0.6056   -0.9069   -0.3374 N   0  0  0  0  0  0  0  0  0  0  0  0
   -5.1965    0.8379    0.2674 N   0  0  0  0  0  0  0  0  0  0  0  0
   -3.5360    2.0751   -0.6488 N   0  0  0  0  0  0  0  0  0  0  0  0
   -5.5881    2.0466   -0.1598 N   0  0  0  0  0  0  0  0  0  0  0  0
   -4.6368    2.8142   -0.7095 N   0  0  0  0  0  0  0  0  0  0  0  0
    4.7806    1.5645    0.5266 C   0  0  0  0  0  0  0  0  0  0  0  0
    6.0989    2.2501    0.1791 C   0  0  0  0  0  0  0  0  0  0  0  0
    4.5280    0.3513   -0.3571 C   0  0  0  0  0  0  0  0  0  0  0  0
    6.3267    3.4860    1.0347 C   0  0  0  0  0  0  0  0  0  0  0  0
   -0.7490   -1.0536    0.0412 C   0  0  0  0  0  0  0  0  0  0  0  0
   -2.9726   -0.1620    0.1771 C   0  0  0  0  0  0  0  0  0  0  0  0
   -1.6365   -0.0163   -0.1957 C   0  0  0  0  0  0  0  0  0  0  0  0
   -1.1617   -2.2326    0.6406 C   0  0  0  0  0  0  0  0  0  0  0  0
   -3.4035   -1.3428    0.7818 C   0  0  0  0  0  0  0  0  0  0  0  0
   -2.4979   -2.3782    1.0135 C   0  0  0  0  0  0  0  0  0  0  0  0
    2.9261   -1.3242   -0.7004 C   0  0  0  0  0  0  0  0  0  0  0  0
    1.6156   -1.8315   -0.1782 C   0  0  0  0  0  0  0  0  0  0  0  0
   -3.9056    0.9037   -0.0611 C   0  0  0  0  0  0  0  0  0  0  0  0
    3.9464    2.2693    0.4196 H   0  0  0  0  0  0  0  0  0  0  0  0
    4.7783    1.2558    1.5795 H   0  0  0  0  0  0  0  0  0  0  0  0
    6.9314    1.5518    0.3243 H   0  0  0  0  0  0  0  0  0  0  0  0
    6.1004    2.5416   -0.8777 H   0  0  0  0  0  0  0  0  0  0  0  0
    4.4949    0.6541   -1.4105 H   0  0  0  0  0  0  0  0  0  0  0  0
    5.3290   -0.3852   -0.2215 H   0  0  0  0  0  0  0  0  0  0  0  0
    5.5278    4.2194    0.8854 H   0  0  0  0  0  0  0  0  0  0  0  0
    6.3609    3.2263    2.0976 H   0  0  0  0  0  0  0  0  0  0  0  0
    7.2768    3.9604    0.7702 H   0  0  0  0  0  0  0  0  0  0  0  0
   -1.2818    0.8966   -0.6682 H   0  0  0  0  0  0  0  0  0  0  0  0
   -0.5166   -3.0736    0.8514 H   0  0  0  0  0  0  0  0  0  0  0  0
   -4.4368   -1.4910    1.0854 H   0  0  0  0  0  0  0  0  0  0  0  0
    0.8457   -0.0170   -0.7693 H   0  0  0  0  0  0  0  0  0  0  0  0
   -2.8340   -3.2974    1.4847 H   0  0  0  0  0  0  0  0  0  0  0  0
   -6.5480    2.3623   -0.0716 H   0  0  0  0  0  0  0  0  0  0  0  0
  1 11  1  0  0  0  0
  1 19  1  0  0  0  0
  2 19  2  0  0  0  0
  3 20  2  0  0  0  0
  4 13  1  0  0  0  0
  4 20  1  0  0  0  0
  4 34  1  0  0  0  0
  5  7  1  0  0  0  0
  5 21  2  0  0  0  0
  6  8  2  0  0  0  0
  6 21  1  0  0  0  0
  7  8  1  0  0  0  0
  7 36  1  0  0  0  0
  9 10  1  0  0  0  0
  9 11  1  0  0  0  0
  9 22  1  0  0  0  0
  9 23  1  0  0  0  0
 10 12  1  0  0  0  0
 10 24  1  0  0  0  0
 10 25  1  0  0  0  0
 11 26  1  0  0  0  0
 11 27  1  0  0  0  0
 12 28  1  0  0  0  0
 12 29  1  0  0  0  0
 12 30  1  0  0  0  0
 13 15  1  0  0  0  0
 13 16  2  0  0  0  0
 14 15  2  0  0  0  0
 14 17  1  0  0  0  0
 14 21  1  0  0  0  0
 15 31  1  0  0  0  0
 16 18  1  0  0  0  0
 16 32  1  0  0  0  0
 17 18  2  0  0  0  0
 17 33  1  0  0  0  0
 18 35  1  0  0  0  0
 19 20  1  0  0  0  0
M  END
> <PUBCHEM_COMPOUND_CID>
5380

> <PUBCHEM_CONFORMER_RMSD>
0.8

> <PUBCHEM_CONFORMER_DIVERSEORDER>
1
42
8
45
89
59
72
80
31
78
69
68
38
44
23
41
87
90
6
36
16
12
49
76
65
60
20
97
14
82
9
67
94
26
39
52
93
3
75
43
13
61
92
84
18
56
25
62
37
70
2
28
85
81
11
35
34
63
17
22
19
51
29
66
77
5
33
88
53
54
32
95
47
86
7
50
21
55
83
27
71
15
30
98
64
48
46
24
79
74
4
73
96
10
57
58
40
91

> <PUBCHEM_MMFF94_PARTIAL_CHARGES>
24
1 -0.43
11 0.28
13 0.12
14 0.05
15 -0.15
16 -0.15
17 -0.15
18 -0.15
19 0.72
2 -0.57
20 0.63
21 0.46
3 -0.57
31 0.15
32 0.15
33 0.15
34 0.37
35 0.15
36 0.27
4 -0.55
5 -0.71
6 -0.23
7 0.57
8 -0.42

> <PUBCHEM_EFFECTIVE_ROTOR_COUNT>
8

> <PUBCHEM_PHARMACOPHORE_FEATURES>
7
1 12 hydrophobe
1 2 acceptor
1 3 acceptor
1 4 donor
3 5 6 21 cation
5 5 6 7 8 21 rings
6 13 14 15 16 17 18 rings

> <PUBCHEM_HEAVY_ATOM_COUNT>
21

> <PUBCHEM_ATOM_DEF_STEREO_COUNT>
0

> <PUBCHEM_ATOM_UDEF_STEREO_COUNT>
0

> <PUBCHEM_BOND_DEF_STEREO_COUNT>
0

> <PUBCHEM_BOND_UDEF_STEREO_COUNT>
0

> <PUBCHEM_ISOTOPIC_ATOM_COUNT>
0

> <PUBCHEM_COMPONENT_COUNT>
1

> <PUBCHEM_CACTVS_TAUTO_COUNT>
4

> <PUBCHEM_CONFORMER_ID>
0000150400000001

> <PUBCHEM_MMFF94_ENERGY>
36.1518

> <PUBCHEM_FEATURE_SELFOVERLAP>
35.522

> <PUBCHEM_SHAPE_FINGERPRINT>
10319926 262 18272937103287947178
11089746 13 18339927141952719374
12403259 118 18128818530587775692
12403259 415 18337659846403224238
12633257 1 15985099678872772582
12769317 202 18114186320002807360
13402501 40 18410014325576268304
13955234 65 18198057195217790602
14123256 34 11167675304299672848
14178342 30 17846210025470647154
14251764 30 9367079869496375856
14429114 114 18265054806943938913
14739800 52 18272380797126362120
14848178 96 18335984267469581360
1768 210 18341068371104198701
20645477 56 18200867487240846887
21302155 148 18198618840165636092
21388113 180 18335702715658530992
21521721 280 18336540634261355545
23559900 14 18264768946937221250
270888 7 18336831897057472960
2838139 119 18408610274996707372
2916195 48 18413388761163225593
34797466 226 18040713718924116439
4371632 12 16300945298488454272
495365 180 18115316707633944442
5104073 3 18130785680848080130
53917941 68 18130798880195131895
5969126 39 18120378662180095423
7808743 9 18340492162343588880
7970288 3 9583250439602145536
9981440 41 18272649009028330778

> <PUBCHEM_SHAPE_MULTIPOLES>
389.66
14.7
3.8
0.94
13.29
1.26
-0.04
17.25
1.52
0.87
0.23
0.42
-0.17
3.14

> <PUBCHEM_SHAPE_SELFOVERLAP>
817.561

> <PUBCHEM_SHAPE_VOLUME>
219

> <PUBCHEM_COORDINATE_TYPE>
2
5
10

$$$$

