442163
  -OEChem-07051212572D

 71 73  0     1  0  0  0  0  0999 V2000
    4.2690   -2.1004    0.0000 O   0  0  0  0  0  0  0  0  0  0  0  0
   13.8439    1.4471    0.0000 O   0  0  0  0  0  0  0  0  0  0  0  0
   15.5875   -1.5462    0.0000 O   0  0  0  0  0  0  0  0  0  0  0  0
   12.1196   -0.5596    0.0000 O   0  0  0  0  0  0  0  0  0  0  0  0
   16.4323    3.9571    0.0000 O   0  0  0  0  0  0  0  0  0  0  0  0
   14.7273   -3.0495    0.0000 O   0  0  0  0  0  0  0  0  0  0  0  0
   17.3041    2.4604    0.0000 O   0  0  0  0  0  0  0  0  0  0  0  0
   13.8285    5.4471    0.0000 O   0  0  0  0  0  0  0  0  0  0  0  0
   12.9682    3.9438    0.0000 O   0  0  0  0  0  0  0  0  0  0  0  0
    6.0290   -3.0657    0.0000 N   0  0  0  0  0  0  0  0  0  0  0  0
    6.0290   -5.1350    0.0000 N   0  0  0  0  0  0  0  0  0  0  0  0
    8.6671   -3.5729    0.0000 N   0  0  0  0  0  0  0  0  0  0  0  0
    4.2690   -5.1004    0.0000 N   0  0  0  0  0  0  0  0  0  0  0  0
   12.9914   -2.0562    0.0000 N   0  0  0  0  0  0  0  0  0  0  0  0
    3.4030   -3.6004    0.0000 N   0  0  0  0  0  0  0  0  0  0  0  0
   15.5759    1.4538    0.0000 N   0  0  0  0  0  0  0  0  0  0  0  0
    2.5369   -5.1004    0.0000 N   0  0  0  0  0  0  0  0  0  0  0  0
    6.9350   -3.5796    0.0000 C   0  0  3  0  0  0  0  0  0  0  0  0
    6.9350   -4.6212    0.0000 C   0  0  0  0  0  0  0  0  0  0  0  0
    7.7991   -3.0762    0.0000 C   0  0  0  0  0  0  0  0  0  0  0  0
    5.1350   -3.6004    0.0000 C   0  0  0  0  0  0  0  0  0  0  0  0
    5.1350   -4.6004    0.0000 C   0  0  0  0  0  0  0  0  0  0  0  0
    4.2690   -3.1004    0.0000 C   0  0  0  0  0  0  0  0  0  0  0  0
    9.5312   -3.0696    0.0000 C   0  0  0  0  0  0  0  0  0  0  0  0
   13.8516   -0.5529    0.0000 C   0  0  0  0  0  0  0  0  0  0  0  0
   13.8555   -1.5529    0.0000 C   0  0  3  0  0  0  0  0  0  0  0  0
   14.7157   -0.0495    0.0000 C   0  0  0  0  0  0  0  0  0  0  0  0
   15.5721    2.4538    0.0000 C   0  0  3  0  0  0  0  0  0  0  0  0
    3.4030   -4.6004    0.0000 C   0  0  0  0  0  0  0  0  0  0  0  0
   14.7041    2.9504    0.0000 C   0  0  0  0  0  0  0  0  0  0  0  0
   10.3991   -3.5662    0.0000 C   0  0  0  0  0  0  0  0  0  0  0  0
    9.5273   -2.0696    0.0000 C   0  0  0  0  0  0  0  0  0  0  0  0
   14.7118    0.9504    0.0000 C   0  0  0  0  0  0  0  0  0  0  0  0
   11.2593   -2.0629    0.0000 C   0  0  0  0  0  0  0  0  0  0  0  0
   11.2632   -3.0629    0.0000 C   0  0  0  0  0  0  0  0  0  0  0  0
   10.3914   -1.5662    0.0000 C   0  0  0  0  0  0  0  0  0  0  0  0
   12.1234   -1.5596    0.0000 C   0  0  0  0  0  0  0  0  0  0  0  0
   14.7003    3.9504    0.0000 C   0  0  0  0  0  0  0  0  0  0  0  0
   14.7234   -2.0495    0.0000 C   0  0  0  0  0  0  0  0  0  0  0  0
   16.4362    2.9571    0.0000 C   0  0  0  0  0  0  0  0  0  0  0  0
   13.8323    4.4471    0.0000 C   0  0  0  0  0  0  0  0  0  0  0  0
    6.9314   -2.9596    0.0000 H   0  0  0  0  0  0  0  0  0  0  0  0
    7.1441   -5.2049    0.0000 H   0  0  0  0  0  0  0  0  0  0  0  0
    7.5459   -4.5151    0.0000 H   0  0  0  0  0  0  0  0  0  0  0  0
    8.1958   -2.5997    0.0000 H   0  0  0  0  0  0  0  0  0  0  0  0
    7.3988   -2.6028    0.0000 H   0  0  0  0  0  0  0  0  0  0  0  0
    6.0218   -2.4458    0.0000 H   0  0  0  0  0  0  0  0  0  0  0  0
    6.0218   -5.7550    0.0000 H   0  0  0  0  0  0  0  0  0  0  0  0
    8.6694   -4.1929    0.0000 H   0  0  0  0  0  0  0  0  0  0  0  0
    4.2690   -5.7204    0.0000 H   0  0  0  0  0  0  0  0  0  0  0  0
   13.6373    0.0289    0.0000 H   0  0  0  0  0  0  0  0  0  0  0  0
   13.2414   -0.6629    0.0000 H   0  0  0  0  0  0  0  0  0  0  0  0
   13.8579   -2.1729    0.0000 H   0  0  0  0  0  0  0  0  0  0  0  0
   14.9300   -0.6313    0.0000 H   0  0  0  0  0  0  0  0  0  0  0  0
   15.3259    0.0605    0.0000 H   0  0  0  0  0  0  0  0  0  0  0  0
   16.1102    2.1458    0.0000 H   0  0  0  0  0  0  0  0  0  0  0  0
   14.0931    3.0557    0.0000 H   0  0  0  0  0  0  0  0  0  0  0  0
   14.4943    2.3670    0.0000 H   0  0  0  0  0  0  0  0  0  0  0  0
   10.4015   -4.1862    0.0000 H   0  0  0  0  0  0  0  0  0  0  0  0
    8.9892   -1.7616    0.0000 H   0  0  0  0  0  0  0  0  0  0  0  0
   12.9938   -2.6762    0.0000 H   0  0  0  0  0  0  0  0  0  0  0  0
   16.1141    1.1458    0.0000 H   0  0  0  0  0  0  0  0  0  0  0  0
   11.8013   -3.3708    0.0000 H   0  0  0  0  0  0  0  0  0  0  0  0
   10.3890   -0.9462    0.0000 H   0  0  0  0  0  0  0  0  0  0  0  0
   15.3113    3.8451    0.0000 H   0  0  0  0  0  0  0  0  0  0  0  0
   14.9101    4.5338    0.0000 H   0  0  0  0  0  0  0  0  0  0  0  0
    2.0000   -4.7904    0.0000 H   0  0  0  0  0  0  0  0  0  0  0  0
    2.5369   -5.7204    0.0000 H   0  0  0  0  0  0  0  0  0  0  0  0
   16.1256   -1.8541    0.0000 H   0  0  0  0  0  0  0  0  0  0  0  0
   16.9681    4.2692    0.0000 H   0  0  0  0  0  0  0  0  0  0  0  0
   13.2904    5.7550    0.0000 H   0  0  0  0  0  0  0  0  0  0  0  0
  1 23  2  0  0  0  0
  2 33  2  0  0  0  0
  3 39  1  0  0  0  0
  3 69  1  0  0  0  0
  4 37  2  0  0  0  0
  5 40  1  0  0  0  0
  5 70  1  0  0  0  0
  6 39  2  0  0  0  0
  7 40  2  0  0  0  0
  8 41  1  0  0  0  0
  8 71  1  0  0  0  0
  9 41  2  0  0  0  0
 10 18  1  0  0  0  0
 10 21  1  0  0  0  0
 10 47  1  0  0  0  0
 11 19  1  0  0  0  0
 11 22  1  0  0  0  0
 11 48  1  0  0  0  0
 12 20  1  0  0  0  0
 12 24  1  0  0  0  0
 12 49  1  0  0  0  0
 13 22  1  0  0  0  0
 13 29  1  0  0  0  0
 13 50  1  0  0  0  0
 14 26  1  0  0  0  0
 14 37  1  0  0  0  0
 14 61  1  0  0  0  0
 15 23  1  0  0  0  0
 15 29  2  0  0  0  0
 16 28  1  0  0  0  0
 16 33  1  0  0  0  0
 16 62  1  0  0  0  0
 17 29  1  0  0  0  0
 17 67  1  0  0  0  0
 17 68  1  0  0  0  0
 18 19  1  0  0  0  0
 18 20  1  0  0  0  0
 18 42  1  0  0  0  0
 19 43  1  0  0  0  0
 19 44  1  0  0  0  0
 20 45  1  0  0  0  0
 20 46  1  0  0  0  0
 21 22  2  0  0  0  0
 21 23  1  0  0  0  0
 24 31  2  0  0  0  0
 24 32  1  0  0  0  0
 25 26  1  0  0  0  0
 25 27  1  0  0  0  0
 25 51  1  0  0  0  0
 25 52  1  0  0  0  0
 26 39  1  0  0  0  0
 26 53  1  0  0  0  0
 27 33  1  0  0  0  0
 27 54  1  0  0  0  0
 27 55  1  0  0  0  0
 28 30  1  0  0  0  0
 28 40  1  0  0  0  0
 28 56  1  0  0  0  0
 30 38  1  0  0  0  0
 30 57  1  0  0  0  0
 30 58  1  0  0  0  0
 31 35  1  0  0  0  0
 31 59  1  0  0  0  0
 32 36  2  0  0  0  0
 32 60  1  0  0  0  0
 34 35  2  0  0  0  0
 34 36  1  0  0  0  0
 34 37  1  0  0  0  0
 35 63  1  0  0  0  0
 36 64  1  0  0  0  0
 38 41  1  0  0  0  0
 38 65  1  0  0  0  0
 38 66  1  0  0  0  0
M  END
> <PUBCHEM_COMPOUND_CID>
442163

> <PUBCHEM_COMPOUND_CANONICALIZED>
1

> <PUBCHEM_CACTVS_COMPLEXITY>
1120

> <PUBCHEM_CACTVS_HBOND_ACCEPTOR>
12

> <PUBCHEM_CACTVS_HBOND_DONOR>
10

> <PUBCHEM_CACTVS_ROTATABLE_BOND>
14

> <PUBCHEM_CACTVS_SUBSKEYS>
AAADceB7/AAAAAAAAAAAAAAAAAAAAAAAAAAwQIAAAAAAAACBAAAAHgAQCAAADCjBmAQxyILAAgCoAiXSfACCAAElAgAJiIGIZMiKYDLA1bGUYQhslgLYyce8vwKeCAAAAAAAAAAQAAAAAAAAAAAAAAAAAA==

> <PUBCHEM_IUPAC_OPENEYE_NAME>
2-[[4-[[4-[(2-amino-4-oxo-5,6,7,8-tetrahydro-1H-pteridin-6-yl)methylamino]benzoyl]amino]-4-carboxy-butanoyl]amino]pentanedioic acid

> <PUBCHEM_IUPAC_CAS_NAME>
2-[[4-[[[4-[(2-amino-4-oxo-5,6,7,8-tetrahydro-1H-pteridin-6-yl)methylamino]phenyl]-oxomethyl]amino]-4-carboxy-1-oxobutyl]amino]pentanedioic acid

> <PUBCHEM_IUPAC_NAME>
2-[[4-[[4-[(2-amino-4-oxo-5,6,7,8-tetrahydro-1H-pteridin-6-yl)methylamino]benzoyl]amino]-4-carboxybutanoyl]amino]pentanedioic acid

> <PUBCHEM_IUPAC_SYSTEMATIC_NAME>
2-[[4-[[4-[(2-azanyl-4-oxidanylidene-5,6,7,8-tetrahydro-1H-pteridin-6-yl)methylamino]phenyl]carbonylamino]-5-oxidanyl-5-oxidanylidene-pentanoyl]amino]pentanedioic acid

> <PUBCHEM_IUPAC_TRADITIONAL_NAME>
2-[[4-[[4-[(2-amino-4-keto-5,6,7,8-tetrahydro-1H-pteridin-6-yl)methylamino]benzoyl]amino]-4-carboxy-butanoyl]amino]glutaric acid

> <PUBCHEM_IUPAC_INCHI>
InChI=1S/C24H30N8O9/c25-24-31-19-18(21(37)32-24)28-13(10-27-19)9-26-12-3-1-11(2-4-12)20(36)30-15(23(40)41)5-7-16(33)29-14(22(38)39)6-8-17(34)35/h1-4,13-15,26,28H,5-10H2,(H,29,33)(H,30,36)(H,34,35)(H,38,39)(H,40,41)(H4,25,27,31,32,37)

> <PUBCHEM_IUPAC_INCHIKEY>
ZAOGJXDWOQXFBW-UHFFFAOYSA-N

> <PUBCHEM_XLOGP3_AA>
-1.4

> <PUBCHEM_EXACT_MASS>
574.213575

> <PUBCHEM_MOLECULAR_FORMULA>
C24H30N8O9

> <PUBCHEM_MOLECULAR_WEIGHT>
574.5432

> <PUBCHEM_OPENEYE_CAN_SMILES>
C1C(NC2=C(N1)NC(=NC2=O)N)CNC3=CC=C(C=C3)C(=O)NC(CCC(=O)NC(CCC(=O)O)C(=O)O)C(=O)O

> <PUBCHEM_OPENEYE_ISO_SMILES>
C1C(NC2=C(N1)NC(=NC2=O)N)CNC3=CC=C(C=C3)C(=O)NC(CCC(=O)NC(CCC(=O)O)C(=O)O)C(=O)O

> <PUBCHEM_CACTVS_TPSA>
274

> <PUBCHEM_MONOISOTOPIC_WEIGHT>
574.213575

> <PUBCHEM_TOTAL_CHARGE>
0

> <PUBCHEM_HEAVY_ATOM_COUNT>
41

> <PUBCHEM_ATOM_DEF_STEREO_COUNT>
0

> <PUBCHEM_ATOM_UDEF_STEREO_COUNT>
3

> <PUBCHEM_BOND_DEF_STEREO_COUNT>
0

> <PUBCHEM_BOND_UDEF_STEREO_COUNT>
0

> <PUBCHEM_ISOTOPIC_ATOM_COUNT>
0

> <PUBCHEM_COMPONENT_COUNT>
1

> <PUBCHEM_CACTVS_TAUTO_COUNT>
170

> <PUBCHEM_COORDINATE_TYPE>
1
5
255

> <PUBCHEM_BONDANNOTATIONS>
13  22  8
13  29  8
15  23  8
15  29  8
18  20  3
21  22  8
21  23  8
24  31  8
24  32  8
26  25  3
28  30  3
31  35  8
32  36  8
34  35  8
34  36  8

$$$$

