446894
  -OEChem-07051212453D

 39 39  0     1  0  0  0  0  0999 V2000
    4.5762    1.9493    0.3787 P   0  0  0  0  0  0  0  0  0  0  0  0
    3.7715   -1.7409   -1.7196 O   0  0  0  0  0  0  0  0  0  0  0  0
    2.4853   -3.0339    0.4378 O   0  0  0  0  0  0  0  0  0  0  0  0
    3.9356    0.8089   -0.5694 O   0  0  0  0  0  0  0  0  0  0  0  0
    0.2306   -2.0053    1.3231 O   0  0  0  0  0  0  0  0  0  0  0  0
    3.2854    2.5216    1.1669 O   0  0  0  0  0  0  0  0  0  0  0  0
    5.3633    1.1094    1.5146 O   0  0  0  0  0  0  0  0  0  0  0  0
    5.3939    2.9857   -0.3351 O   0  0  0  0  0  0  0  0  0  0  0  0
   -4.6126    0.9255    2.4340 O   0  0  0  0  0  0  0  0  0  0  0  0
   -3.3711   -0.9628    2.1900 O   0  0  0  0  0  0  0  0  0  0  0  0
   -1.6671   -0.6570    0.0154 N   0  0  0  0  0  0  0  0  0  0  0  0
    1.7535   -2.2874   -0.5255 C   0  0  2  0  0  0  0  0  0  0  0  0
    2.6537   -1.1640   -1.0475 C   0  0  1  0  0  0  0  0  0  0  0  0
    0.4625   -1.7948    0.1314 C   0  0  0  0  0  0  0  0  0  0  0  0
    3.1464   -0.2090    0.0393 C   0  0  0  0  0  0  0  0  0  0  0  0
   -0.5102   -1.0415   -0.7535 C   0  0  0  0  0  0  0  0  0  0  0  0
   -2.7434    0.0440   -0.5082 C   0  0  0  0  0  0  0  0  0  0  0  0
   -3.8534    0.3986    0.2827 C   0  0  0  0  0  0  0  0  0  0  0  0
   -2.7459    0.4210   -1.8644 C   0  0  0  0  0  0  0  0  0  0  0  0
   -4.9257    1.1042   -0.2633 C   0  0  0  0  0  0  0  0  0  0  0  0
   -3.8181    1.1267   -2.4102 C   0  0  0  0  0  0  0  0  0  0  0  0
   -4.9080    1.4683   -1.6097 C   0  0  0  0  0  0  0  0  0  0  0  0
   -3.9024    0.0332    1.6927 C   0  0  0  0  0  0  0  0  0  0  0  0
    1.4937   -2.9755   -1.3377 H   0  0  0  0  0  0  0  0  0  0  0  0
    2.1237   -0.5826   -1.8095 H   0  0  0  0  0  0  0  0  0  0  0  0
    3.7724   -0.7421    0.7616 H   0  0  0  0  0  0  0  0  0  0  0  0
    2.3032    0.2512    0.5622 H   0  0  0  0  0  0  0  0  0  0  0  0
   -0.0045   -0.1513   -1.1387 H   0  0  0  0  0  0  0  0  0  0  0  0
   -0.7919   -1.7061   -1.5771 H   0  0  0  0  0  0  0  0  0  0  0  0
   -1.6906   -0.9020    0.9984 H   0  0  0  0  0  0  0  0  0  0  0  0
    4.2620   -2.2745   -1.0711 H   0  0  0  0  0  0  0  0  0  0  0  0
    1.9550   -3.8166    0.6661 H   0  0  0  0  0  0  0  0  0  0  0  0
   -1.9197    0.1772   -2.5269 H   0  0  0  0  0  0  0  0  0  0  0  0
   -5.7959    1.3737    0.3296 H   0  0  0  0  0  0  0  0  0  0  0  0
   -3.8054    1.4097   -3.4587 H   0  0  0  0  0  0  0  0  0  0  0  0
   -5.7441    2.0150   -2.0360 H   0  0  0  0  0  0  0  0  0  0  0  0
    3.3938    3.3019    1.7514 H   0  0  0  0  0  0  0  0  0  0  0  0
    5.8920    1.5951    2.1829 H   0  0  0  0  0  0  0  0  0  0  0  0
   -4.6406    0.6729    3.3815 H   0  0  0  0  0  0  0  0  0  0  0  0
  1  4  1  0  0  0  0
  1  6  1  0  0  0  0
  1  7  1  0  0  0  0
  1  8  2  0  0  0  0
  2 13  1  0  0  0  0
  2 31  1  0  0  0  0
  3 12  1  0  0  0  0
  3 32  1  0  0  0  0
  4 15  1  0  0  0  0
  5 14  2  0  0  0  0
  6 37  1  0  0  0  0
  7 38  1  0  0  0  0
  9 23  1  0  0  0  0
  9 39  1  0  0  0  0
 10 23  2  0  0  0  0
 11 16  1  0  0  0  0
 11 17  1  0  0  0  0
 11 30  1  0  0  0  0
 12 13  1  0  0  0  0
 12 14  1  0  0  0  0
 12 24  1  0  0  0  0
 13 15  1  0  0  0  0
 13 25  1  0  0  0  0
 14 16  1  0  0  0  0
 15 26  1  0  0  0  0
 15 27  1  0  0  0  0
 16 28  1  0  0  0  0
 16 29  1  0  0  0  0
 17 18  1  0  0  0  0
 17 19  2  0  0  0  0
 18 20  2  0  0  0  0
 18 23  1  0  0  0  0
 19 21  1  0  0  0  0
 19 33  1  0  0  0  0
 20 22  1  0  0  0  0
 20 34  1  0  0  0  0
 21 22  2  0  0  0  0
 21 35  1  0  0  0  0
 22 36  1  0  0  0  0
M  END
> <PUBCHEM_COMPOUND_CID>
446894

> <PUBCHEM_CONFORMER_RMSD>
1

> <PUBCHEM_CONFORMER_DIVERSEORDER>
1
64
94
113
78
184
147
39
28
30
129
81
11
185
36
124
159
18
93
111
150
105
100
167
107
134
57
51
142
149
65
33
183
179
25
61
169
31
173
97
136
121
20
73
96
6
171
8
102
22
187
115
10
110
152
29
104
108
70
56
131
168
17
79
4
141
164
165
120
47
49
43
92
114
48
83
125
174
21
182
162
86
127
37
157
163
145
50
158
155
148
15
2
77
112
119
71
13
153
91
135
95
186
116
166
54
178
89
34
74
172
85
87
76
181
123
26
144
52
19
154
24
143
139
106
68
7
75
88
59
84
27
140
67
156
176
66
55
161
98
146
23
63
46
103
180
132
9
58
101
138
99
80
41
109
151
62
177
128
53
175
82
130
35
5
137
160
14
38
126
32
90
122
12
45
118
40
44
69
72
42
117
16
170
133
60
3

> <PUBCHEM_MMFF94_PARTIAL_CHARGES>
33
1 1.51
10 -0.57
11 -0.87
12 0.34
13 0.28
14 0.45
15 0.28
16 0.43
17 0.1
18 0.09
19 -0.15
2 -0.68
20 -0.15
21 -0.15
22 -0.15
23 0.63
3 -0.68
30 0.4
31 0.4
32 0.4
33 0.15
34 0.15
35 0.15
36 0.15
37 0.5
38 0.5
39 0.5
4 -0.55
5 -0.57
6 -0.77
7 -0.77
8 -0.7
9 -0.65

> <PUBCHEM_EFFECTIVE_ROTOR_COUNT>
9

> <PUBCHEM_PHARMACOPHORE_FEATURES>
15
1 10 acceptor
1 11 cation
1 11 donor
1 2 acceptor
1 2 donor
1 3 acceptor
1 3 donor
1 5 acceptor
1 6 acceptor
1 7 acceptor
1 8 acceptor
1 9 acceptor
3 9 10 23 anion
4 1 6 7 8 anion
6 17 18 19 20 21 22 rings

> <PUBCHEM_HEAVY_ATOM_COUNT>
23

> <PUBCHEM_ATOM_DEF_STEREO_COUNT>
2

> <PUBCHEM_ATOM_UDEF_STEREO_COUNT>
0

> <PUBCHEM_BOND_DEF_STEREO_COUNT>
0

> <PUBCHEM_BOND_UDEF_STEREO_COUNT>
0

> <PUBCHEM_ISOTOPIC_ATOM_COUNT>
0

> <PUBCHEM_COMPONENT_COUNT>
1

> <PUBCHEM_CACTVS_TAUTO_COUNT>
15

> <PUBCHEM_CONFORMER_ID>
0006D1AE00000001

> <PUBCHEM_MMFF94_ENERGY>
26.8121

> <PUBCHEM_FEATURE_SELFOVERLAP>
76.226

> <PUBCHEM_SHAPE_FINGERPRINT>
10319926 262 16988846120028102842
10615611 76 17386549367331283369
11112241 14 18410300172855982245
11595378 159 15841543050987890943
12403259 415 18201992244559678006
12616971 3 17677045870980583403
12769317 202 18334304145426000208
12892183 10 16702030738337719928
13034934 17 18202280273571865197
13583140 156 15768952163782423388
13590594 115 17900530479060989786
14081887 123 17131828807180372591
14848178 96 18261959553078228624
15021287 119 17388520877310511110
1768 210 17533509923880541368
20554085 129 16701476688073975301
21033648 29 17988640843684502549
21033650 10 15068608392732514882
21065201 7 16271352149533614247
21315763 76 18114196228086293856
21388113 180 18343589516617111852
21401589 2 18268148656717443368
21728266 224 14907890545212907545
21864079 5 17969218009292211057
22122407 14 18045205288491178513
22849339 104 14201404880751256925
23557571 272 17274809307656446183
23559900 14 17058926865132009447
268830 7 18189045551087745939
2838139 119 17458625588874482312
312425 83 15936671740598577460
341906 21 16917064481870411655
4463277 69 10015584982737435514
474 4 18333736797225334946
5104073 3 16987988552671910449
543368 44 17386011646005182729
573450 72 15123784102765105199
574716 61 17530967986003413397
633830 44 17896026797339085159
7064713 232 15554735477110371761
7808743 9 17701521940924106902

> <PUBCHEM_SHAPE_MULTIPOLES>
419.37
13
2.83
2.1
3.58
0.02
-0.4
-9.8
-1.07
4.86
-0.13
-2.73
-0.26
2.22

> <PUBCHEM_SHAPE_SELFOVERLAP>
846.196

> <PUBCHEM_SHAPE_VOLUME>
244.6

> <PUBCHEM_COORDINATE_TYPE>
2
5
10

$$$$

