2723650
  -OEChem-07051213053D

 12 12  0     0  0  0  0  0  0999 V2000
    2.3894    0.0001    0.0003 S   0  0  0  0  0  0  0  0  0  0  0  0
   -0.0835   -1.1280    0.0142 N   0  0  0  0  0  0  0  0  0  0  0  0
   -0.0837    1.1279   -0.0146 N   0  0  0  0  0  0  0  0  0  0  0  0
   -1.4776   -0.7615   -0.0212 C   0  0  0  0  0  0  0  0  0  0  0  0
   -1.4776    0.7615    0.0215 C   0  0  0  0  0  0  0  0  0  0  0  0
    0.7329    0.0000   -0.0002 C   0  0  0  0  0  0  0  0  0  0  0  0
   -1.9903   -1.2045    0.8369 H   0  0  0  0  0  0  0  0  0  0  0  0
   -1.9172   -1.1476   -0.9454 H   0  0  0  0  0  0  0  0  0  0  0  0
   -1.9908    1.2044   -0.8364 H   0  0  0  0  0  0  0  0  0  0  0  0
   -1.9168    1.1476    0.9460 H   0  0  0  0  0  0  0  0  0  0  0  0
    0.2614   -2.0825    0.0223 H   0  0  0  0  0  0  0  0  0  0  0  0
    0.2613    2.0824   -0.0224 H   0  0  0  0  0  0  0  0  0  0  0  0
  1  6  2  0  0  0  0
  2  4  1  0  0  0  0
  2  6  1  0  0  0  0
  2 11  1  0  0  0  0
  3  5  1  0  0  0  0
  3  6  1  0  0  0  0
  3 12  1  0  0  0  0
  4  5  1  0  0  0  0
  4  7  1  0  0  0  0
  4  8  1  0  0  0  0
  5  9  1  0  0  0  0
  5 10  1  0  0  0  0
M  END
> <PUBCHEM_COMPOUND_CID>
2723650

> <PUBCHEM_CONFORMER_RMSD>
0.4

> <PUBCHEM_CONFORMER_DIVERSEORDER>
1

> <PUBCHEM_MMFF94_PARTIAL_CHARGES>
8
1 -0.38
11 0.37
12 0.37
2 -0.73
3 -0.73
4 0.3
5 0.3
6 0.5

> <PUBCHEM_EFFECTIVE_ROTOR_COUNT>
0.8

> <PUBCHEM_PHARMACOPHORE_FEATURES>
4
1 1 acceptor
1 2 donor
1 3 donor
5 2 3 4 5 6 rings

> <PUBCHEM_HEAVY_ATOM_COUNT>
6

> <PUBCHEM_ATOM_DEF_STEREO_COUNT>
0

> <PUBCHEM_ATOM_UDEF_STEREO_COUNT>
0

> <PUBCHEM_BOND_DEF_STEREO_COUNT>
0

> <PUBCHEM_BOND_UDEF_STEREO_COUNT>
0

> <PUBCHEM_ISOTOPIC_ATOM_COUNT>
0

> <PUBCHEM_COMPONENT_COUNT>
1

> <PUBCHEM_CACTVS_TAUTO_COUNT>
2

> <PUBCHEM_CONFORMER_ID>
00298F4200000001

> <PUBCHEM_MMFF94_ENERGY>
8.5716

> <PUBCHEM_FEATURE_SELFOVERLAP>
20.359

> <PUBCHEM_SHAPE_FINGERPRINT>
139733 1 9295025560411713574
16714656 1 18410852166051763156
20096714 4 18339079418492458880
21015797 1 9222069669837632523
21040471 1 18266458904460515553
23552423 10 18272646883335776214
29004967 10 18339918212725831682
5460574 1 9295292741990451234

> <PUBCHEM_SHAPE_MULTIPOLES>
117.36
2.65
1.15
0.6
1.37
0
0
0
0
-0.33
0
0.04
0
-0.01

> <PUBCHEM_SHAPE_SELFOVERLAP>
218.785

> <PUBCHEM_SHAPE_VOLUME>
76.2

> <PUBCHEM_COORDINATE_TYPE>
2
5
10

$$$$

