5281734
  -OEChem-07051212593D

 51 53  0     1  0  0  0  0  0999 V2000
   -0.9699    0.9944   -0.2710 O   0  0  0  0  0  0  0  0  0  0  0  0
   -4.8288   -1.1489   -0.0739 O   0  5  0  0  0  0  0  0  0  0  0  0
    0.6791   -1.7076   -0.7494 O   0  0  0  0  0  0  0  0  0  0  0  0
    3.6131   -0.8963    1.1452 O   0  0  0  0  0  0  0  0  0  0  0  0
   -0.5575    2.8424   -1.6004 O   0  0  0  0  0  0  0  0  0  0  0  0
    1.4698   -2.4616    1.2836 O   0  0  0  0  0  0  0  0  0  0  0  0
    4.0198   -2.8728   -0.6811 O   0  0  0  0  0  0  0  0  0  0  0  0
   -3.6660   -0.5429    0.3142 N   0  3  1  0  0  0  0  0  0  0  0  0
   -2.5304   -0.8471   -0.6789 C   0  0  1  0  0  0  0  0  0  0  0  0
   -2.0138    0.5235   -1.1446 C   0  0  1  0  0  0  0  0  0  0  0  0
   -3.8333    0.9534    0.3167 C   0  0  0  0  0  0  0  0  0  0  0  0
   -3.2607    1.3952   -1.0173 C   0  0  0  0  0  0  0  0  0  0  0  0
   -3.1843   -1.1084    1.6392 C   0  0  0  0  0  0  0  0  0  0  0  0
   -1.5992   -1.7761    0.0456 C   0  0  0  0  0  0  0  0  0  0  0  0
   -1.9775   -1.9250    1.3210 C   0  0  0  0  0  0  0  0  0  0  0  0
   -0.5007   -2.5202   -0.6338 C   0  0  0  0  0  0  0  0  0  0  0  0
   -0.3166    2.1310   -0.6365 C   0  0  0  0  0  0  0  0  0  0  0  0
    2.3998    0.5412   -0.3849 C   0  0  1  0  0  0  0  0  0  0  0  0
    2.8118   -0.9158   -0.0344 C   0  0  2  0  0  0  0  0  0  0  0  0
    1.6275    1.2154    0.7839 C   0  0  0  0  0  0  0  0  0  0  0  0
    0.7876    2.3781    0.3229 C   0  0  0  0  0  0  0  0  0  0  0  0
    1.5900   -1.7856    0.2686 C   0  0  0  0  0  0  0  0  0  0  0  0
    3.6153   -1.6001   -1.1454 C   0  0  0  0  0  0  0  0  0  0  0  0
    3.6073    1.4147   -0.7677 C   0  0  0  0  0  0  0  0  0  0  0  0
    0.9783    3.6457    0.7111 C   0  0  0  0  0  0  0  0  0  0  0  0
    2.0391    4.0733    1.6674 C   0  0  0  0  0  0  0  0  0  0  0  0
   -3.0186   -1.3658   -1.5147 H   0  0  0  0  0  0  0  0  0  0  0  0
   -1.6311    0.4735   -2.1702 H   0  0  0  0  0  0  0  0  0  0  0  0
   -3.2555    1.3700    1.1472 H   0  0  0  0  0  0  0  0  0  0  0  0
   -4.8940    1.1890    0.4410 H   0  0  0  0  0  0  0  0  0  0  0  0
   -3.9653    1.1701   -1.8265 H   0  0  0  0  0  0  0  0  0  0  0  0
   -3.0591    2.4691   -1.0159 H   0  0  0  0  0  0  0  0  0  0  0  0
   -3.9951   -1.7160    2.0521 H   0  0  0  0  0  0  0  0  0  0  0  0
   -2.9412   -0.2903    2.3215 H   0  0  0  0  0  0  0  0  0  0  0  0
   -1.4911   -2.5722    2.0366 H   0  0  0  0  0  0  0  0  0  0  0  0
   -0.2717   -3.4621   -0.1204 H   0  0  0  0  0  0  0  0  0  0  0  0
   -0.8094   -2.7949   -1.6483 H   0  0  0  0  0  0  0  0  0  0  0  0
    1.7500    0.5018   -1.2692 H   0  0  0  0  0  0  0  0  0  0  0  0
    2.3305    1.4878    1.5777 H   0  0  0  0  0  0  0  0  0  0  0  0
    0.9499    0.4968    1.2606 H   0  0  0  0  0  0  0  0  0  0  0  0
    4.5341   -1.0528   -1.3725 H   0  0  0  0  0  0  0  0  0  0  0  0
    3.0307   -1.7207   -2.0631 H   0  0  0  0  0  0  0  0  0  0  0  0
    4.3575    1.4347    0.0294 H   0  0  0  0  0  0  0  0  0  0  0  0
    4.0864    1.0555   -1.6831 H   0  0  0  0  0  0  0  0  0  0  0  0
    3.3023    2.4472   -0.9664 H   0  0  0  0  0  0  0  0  0  0  0  0
    0.3217    4.4330    0.3478 H   0  0  0  0  0  0  0  0  0  0  0  0
    3.9479   -1.7966    1.2978 H   0  0  0  0  0  0  0  0  0  0  0  0
    4.5263   -3.2932   -1.3967 H   0  0  0  0  0  0  0  0  0  0  0  0
    2.2889    5.1234    1.4798 H   0  0  0  0  0  0  0  0  0  0  0  0
    2.9718    3.5139    1.5594 H   0  0  0  0  0  0  0  0  0  0  0  0
    1.6805    3.9961    2.6980 H   0  0  0  0  0  0  0  0  0  0  0  0
  1 10  1  0  0  0  0
  1 17  1  0  0  0  0
  2  8  1  0  0  0  0
  3 16  1  0  0  0  0
  3 22  1  0  0  0  0
  4 19  1  0  0  0  0
  4 47  1  0  0  0  0
  5 17  2  0  0  0  0
  6 22  2  0  0  0  0
  7 23  1  0  0  0  0
  7 48  1  0  0  0  0
  8  9  1  0  0  0  0
  8 11  1  0  0  0  0
  8 13  1  0  0  0  0
  9 10  1  0  0  0  0
  9 14  1  0  0  0  0
  9 27  1  0  0  0  0
 10 12  1  0  0  0  0
 10 28  1  0  0  0  0
 11 12  1  0  0  0  0
 11 29  1  0  0  0  0
 11 30  1  0  0  0  0
 12 31  1  0  0  0  0
 12 32  1  0  0  0  0
 13 15  1  0  0  0  0
 13 33  1  0  0  0  0
 13 34  1  0  0  0  0
 14 15  2  0  0  0  0
 14 16  1  0  0  0  0
 15 35  1  0  0  0  0
 16 36  1  0  0  0  0
 16 37  1  0  0  0  0
 17 21  1  0  0  0  0
 18 19  1  0  0  0  0
 18 20  1  0  0  0  0
 18 24  1  0  0  0  0
 18 38  1  0  0  0  0
 19 22  1  0  0  0  0
 19 23  1  0  0  0  0
 20 21  1  0  0  0  0
 20 39  1  0  0  0  0
 20 40  1  0  0  0  0
 21 25  2  0  0  0  0
 23 41  1  0  0  0  0
 23 42  1  0  0  0  0
 24 43  1  0  0  0  0
 24 44  1  0  0  0  0
 24 45  1  0  0  0  0
 25 26  1  0  0  0  0
 25 46  1  0  0  0  0
 26 49  1  0  0  0  0
 26 50  1  0  0  0  0
 26 51  1  0  0  0  0
M  CHG  2   2  -1   8   1
M  END
> <PUBCHEM_COMPOUND_CID>
5281734

> <PUBCHEM_CONFORMER_RMSD>
0.6

> <PUBCHEM_CONFORMER_DIVERSEORDER>
1
5
11
2
15
13
12
4
9
19
17
10
18
16
7
8
6
14
3

> <PUBCHEM_MMFF94_PARTIAL_CHARGES>
27
1 -0.43
10 0.28
11 0.26
13 0.39
14 -0.28
15 -0.29
16 0.42
17 0.71
19 0.34
2 -0.75
20 0.14
21 -0.12
22 0.66
23 0.28
25 -0.29
26 0.14
3 -0.43
35 0.15
4 -0.68
46 0.15
47 0.4
48 0.4
5 -0.57
6 -0.57
7 -0.68
8 -0.02
9 0.39

> <PUBCHEM_EFFECTIVE_ROTOR_COUNT>
2.8

> <PUBCHEM_PHARMACOPHORE_FEATURES>
10
1 2 anion
1 26 hydrophobe
1 4 acceptor
1 4 donor
1 5 acceptor
1 6 acceptor
1 7 acceptor
1 7 donor
5 8 9 10 11 12 rings
5 8 9 13 14 15 rings

> <PUBCHEM_HEAVY_ATOM_COUNT>
26

> <PUBCHEM_ATOM_DEF_STEREO_COUNT>
4

> <PUBCHEM_ATOM_UDEF_STEREO_COUNT>
1

> <PUBCHEM_BOND_DEF_STEREO_COUNT>
1

> <PUBCHEM_BOND_UDEF_STEREO_COUNT>
0

> <PUBCHEM_ISOTOPIC_ATOM_COUNT>
0

> <PUBCHEM_COMPONENT_COUNT>
1

> <PUBCHEM_CACTVS_TAUTO_COUNT>
1

> <PUBCHEM_CONFORMER_ID>
005097C600000001

> <PUBCHEM_MMFF94_ENERGY>
64.4872

> <PUBCHEM_FEATURE_SELFOVERLAP>
51.064

> <PUBCHEM_SHAPE_FINGERPRINT>
10006869 2 17256245372688086465
10366900 7 18060413612661335427
104564 63 18048311442629086442
10675989 125 17043194112391267532
10759866 29 17702655700521270014
1100329 8 17975688708052189201
11112241 14 16952829241855083304
11370993 70 17757839918135533505
12011746 2 18341891862226235215
12403259 226 18412546526571722607
12506688 2 18411134740682981076
12553582 1 18335426755140097884
12596599 1 17458062681258843471
12633257 1 18272366503517632947
12788726 201 17833551575753979536
13140716 1 18120662589118271808
13402501 40 18341613754419332469
13533116 47 18336261224958192025
138480 1 18408041814473793808
14178342 30 17762344613106119073
14223421 5 18050842222012218219
14363568 33 18193534715303653994
14713325 29 15900351242665605604
14790565 3 17906448832263308068
14955137 171 18118938469324248299
15196674 1 18411979182671370799
15635459 17 18339080393349775812
19930381 70 18118972378154217289
20691752 17 17775567563480058039
20775438 99 17759851028356959271
20905425 154 18198348557271948111
21141583 151 18338232769022553118
22182313 1 18129681707403190117
2334 1 18341051809303713478
23558518 356 17111283568631163910
23559900 14 18130506332465262173
238 59 18120406231178815429
2748010 2 18270692943456079757
35225 105 17253396490161686009
3524813 1 18341333305649752557
5939293 188 18335707139068157360
6287921 2 17834663912101002858

> <PUBCHEM_SHAPE_MULTIPOLES>
489
7.08
4.33
1.39
2.38
2.55
-0.22
-2.14
-0.01
-3.48
-0.79
0.05
0.29
1.5

> <PUBCHEM_SHAPE_SELFOVERLAP>
1030.608

> <PUBCHEM_SHAPE_VOLUME>
273.3

> <PUBCHEM_COORDINATE_TYPE>
2
5
10

$$$$

