12369
  -OEChem-06261206523D

 23 22  0     0  0  0  0  0  0999 V2000
    4.7329    0.4250    0.0490 Br  0  0  0  0  0  0  0  0  0  0  0  0
   -0.6609    0.4459   -0.0130 C   0  0  0  0  0  0  0  0  0  0  0  0
    0.5611   -0.4754   -0.0236 C   0  0  0  0  0  0  0  0  0  0  0  0
   -1.9619   -0.3598    0.0102 C   0  0  0  0  0  0  0  0  0  0  0  0
    1.8914    0.2824   -0.0333 C   0  0  0  0  0  0  0  0  0  0  0  0
   -3.1843    0.5576   -0.0181 C   0  0  0  0  0  0  0  0  0  0  0  0
    3.1005   -0.6382   -0.0095 C   0  0  0  0  0  0  0  0  0  0  0  0
   -4.4788   -0.2375    0.0385 C   0  0  0  0  0  0  0  0  0  0  0  0
   -0.6184    1.1028    0.8640 H   0  0  0  0  0  0  0  0  0  0  0  0
   -0.6398    1.0891   -0.9009 H   0  0  0  0  0  0  0  0  0  0  0  0
    0.5155   -1.1293   -0.9033 H   0  0  0  0  0  0  0  0  0  0  0  0
    0.5280   -1.1276    0.8581 H   0  0  0  0  0  0  0  0  0  0  0  0
   -1.9923   -1.0364   -0.8526 H   0  0  0  0  0  0  0  0  0  0  0  0
   -1.9899   -0.9841    0.9116 H   0  0  0  0  0  0  0  0  0  0  0  0
    1.9325    0.9245   -0.9225 H   0  0  0  0  0  0  0  0  0  0  0  0
    1.9224    0.9541    0.8342 H   0  0  0  0  0  0  0  0  0  0  0  0
   -3.1508    1.2489    0.8319 H   0  0  0  0  0  0  0  0  0  0  0  0
   -3.1733    1.1646   -0.9308 H   0  0  0  0  0  0  0  0  0  0  0  0
    3.1118   -1.2753    0.8789 H   0  0  0  0  0  0  0  0  0  0  0  0
    3.1594   -1.2592   -0.9073 H   0  0  0  0  0  0  0  0  0  0  0  0
   -5.3397    0.4379    0.0161 H   0  0  0  0  0  0  0  0  0  0  0  0
   -4.5586   -0.9182   -0.8151 H   0  0  0  0  0  0  0  0  0  0  0  0
   -4.5357   -0.8298    0.9573 H   0  0  0  0  0  0  0  0  0  0  0  0
  1  7  1  0  0  0  0
  2  3  1  0  0  0  0
  2  4  1  0  0  0  0
  2  9  1  0  0  0  0
  2 10  1  0  0  0  0
  3  5  1  0  0  0  0
  3 11  1  0  0  0  0
  3 12  1  0  0  0  0
  4  6  1  0  0  0  0
  4 13  1  0  0  0  0
  4 14  1  0  0  0  0
  5  7  1  0  0  0  0
  5 15  1  0  0  0  0
  5 16  1  0  0  0  0
  6  8  1  0  0  0  0
  6 17  1  0  0  0  0
  6 18  1  0  0  0  0
  7 19  1  0  0  0  0
  7 20  1  0  0  0  0
  8 21  1  0  0  0  0
  8 22  1  0  0  0  0
  8 23  1  0  0  0  0
M  END
> <PUBCHEM_COMPOUND_CID>
12369

> <PUBCHEM_CONFORMER_RMSD>
0.6

> <PUBCHEM_CONFORMER_DIVERSEORDER>
1
54
43
53
72
8
46
23
52
13
48
64
41
2
6
65
28
75
12
26
19
15
24
73
62
21
5
17
63
34
45
9
51
22
40
67
25
3
18
7
70
66
29
74
14
33
11
71
68
4
59
36
31
57
69
55
38
16
56
42
30
44
49
39
50
37
27
20
61
58
32
35
47
10
60

> <PUBCHEM_MMFF94_PARTIAL_CHARGES>
2
1 -0.23
7 0.23

> <PUBCHEM_EFFECTIVE_ROTOR_COUNT>
5

> <PUBCHEM_PHARMACOPHORE_FEATURES>
3
1 1 hydrophobe
1 8 hydrophobe
5 2 3 4 5 6 hydrophobe

> <PUBCHEM_HEAVY_ATOM_COUNT>
8

> <PUBCHEM_ATOM_DEF_STEREO_COUNT>
0

> <PUBCHEM_ATOM_UDEF_STEREO_COUNT>
0

> <PUBCHEM_BOND_DEF_STEREO_COUNT>
0

> <PUBCHEM_BOND_UDEF_STEREO_COUNT>
0

> <PUBCHEM_ISOTOPIC_ATOM_COUNT>
0

> <PUBCHEM_COMPONENT_COUNT>
1

> <PUBCHEM_CACTVS_TAUTO_COUNT>
1

> <PUBCHEM_CONFORMER_ID>
0000305100000001

> <PUBCHEM_MMFF94_ENERGY>
-2.7287

> <PUBCHEM_FEATURE_SELFOVERLAP>
15.223

> <PUBCHEM_SHAPE_FINGERPRINT>
11062470 55 18410292514680710856
12932764 1 15141255384968455196
14123238 8 18411419501029656606
14325111 11 18410574010989943630
17834072 33 18335422309642873932
17834076 25 17385442120245535608
18342897 14 18113335318844644872
190213 19 17203324528795235691
20645477 70 18188769569501437638
20719005 15 18411138034901343338
22485316 2 18202286909080287139
23402539 116 13542469739425151131
42788 4 18410573989451745153

> <PUBCHEM_SHAPE_MULTIPOLES>
170.58
9.88
0.83
0.63
0.92
0
0
0.65
0.2
0.16
0
0.08
0.01
0.02

> <PUBCHEM_SHAPE_SELFOVERLAP>
282.343

> <PUBCHEM_SHAPE_VOLUME>
117.9

> <PUBCHEM_COORDINATE_TYPE>
2
5
10

$$$$

