583017
  -OEChem-06241222443D

 31 31  0     1  0  0  0  0  0999 V2000
    1.5774   -2.9392    0.3722 O   0  0  0  0  0  0  0  0  0  0  0  0
    2.0794    1.9687    0.9485 O   0  5  0  0  0  0  0  0  0  0  0  0
    3.9898    0.8749    1.0395 O   0  0  0  0  0  0  0  0  0  0  0  0
    2.9193    1.1787    0.4919 N   0  3  0  0  0  0  0  0  0  0  0  0
    2.6100   -0.9870   -0.5904 C   0  0  0  0  0  0  0  0  0  0  0  0
    2.6118    0.5282   -0.8013 C   0  0  2  0  0  0  0  0  0  0  0  0
    1.5115   -1.5120    0.3510 C   0  0  1  0  0  0  0  0  0  0  0  0
    3.6822    0.9722   -1.7858 C   0  0  0  0  0  0  0  0  0  0  0  0
    0.1287   -1.1371   -0.1035 C   0  0  0  0  0  0  0  0  0  0  0  0
   -0.7444   -0.4712    0.6688 C   0  0  0  0  0  0  0  0  0  0  0  0
   -2.1118   -0.0967    0.2729 C   0  0  0  0  0  0  0  0  0  0  0  0
   -2.4416   -0.0504   -1.0728 C   0  0  0  0  0  0  0  0  0  0  0  0
   -3.0458    0.2025    1.2526 C   0  0  0  0  0  0  0  0  0  0  0  0
   -3.7375    0.3040   -1.4481 C   0  0  0  0  0  0  0  0  0  0  0  0
   -4.3416    0.5568    0.8774 C   0  0  0  0  0  0  0  0  0  0  0  0
   -4.6874    0.6076   -0.4730 C   0  0  0  0  0  0  0  0  0  0  0  0
    3.5847   -1.3400   -0.2255 H   0  0  0  0  0  0  0  0  0  0  0  0
    2.4915   -1.4769   -1.5677 H   0  0  0  0  0  0  0  0  0  0  0  0
    1.6356    0.8926   -1.1386 H   0  0  0  0  0  0  0  0  0  0  0  0
    1.6944   -1.1673    1.3751 H   0  0  0  0  0  0  0  0  0  0  0  0
    3.7171    2.0645   -1.8693 H   0  0  0  0  0  0  0  0  0  0  0  0
    3.4715    0.5699   -2.7828 H   0  0  0  0  0  0  0  0  0  0  0  0
    4.6825    0.6288   -1.4979 H   0  0  0  0  0  0  0  0  0  0  0  0
   -0.1386   -1.4743   -1.1008 H   0  0  0  0  0  0  0  0  0  0  0  0
   -0.4471   -0.1811    1.6741 H   0  0  0  0  0  0  0  0  0  0  0  0
    2.4621   -3.1867    0.6911 H   0  0  0  0  0  0  0  0  0  0  0  0
   -1.7298   -0.2562   -1.8659 H   0  0  0  0  0  0  0  0  0  0  0  0
   -2.7922    0.1663    2.3088 H   0  0  0  0  0  0  0  0  0  0  0  0
   -4.0060    0.3488   -2.4996 H   0  0  0  0  0  0  0  0  0  0  0  0
   -5.0815    0.7933    1.6365 H   0  0  0  0  0  0  0  0  0  0  0  0
   -5.6961    0.8848   -0.7652 H   0  0  0  0  0  0  0  0  0  0  0  0
  1  7  1  0  0  0  0
  1 26  1  0  0  0  0
  2  4  1  0  0  0  0
  3  4  2  0  0  0  0
  4  6  1  0  0  0  0
  5  6  1  0  0  0  0
  5  7  1  0  0  0  0
  5 17  1  0  0  0  0
  5 18  1  0  0  0  0
  6  8  1  0  0  0  0
  6 19  1  0  0  0  0
  7  9  1  0  0  0  0
  7 20  1  0  0  0  0
  8 21  1  0  0  0  0
  8 22  1  0  0  0  0
  8 23  1  0  0  0  0
  9 10  2  0  0  0  0
  9 24  1  0  0  0  0
 10 11  1  0  0  0  0
 10 25  1  0  0  0  0
 11 12  2  0  0  0  0
 11 13  1  0  0  0  0
 12 14  1  0  0  0  0
 12 27  1  0  0  0  0
 13 15  2  0  0  0  0
 13 28  1  0  0  0  0
 14 16  2  0  0  0  0
 14 29  1  0  0  0  0
 15 16  1  0  0  0  0
 15 30  1  0  0  0  0
 16 31  1  0  0  0  0
M  CHG  2   2  -1   4   1
M  END
> <PUBCHEM_COMPOUND_CID>
583017

> <PUBCHEM_CONFORMER_RMSD>
0.6

> <PUBCHEM_CONFORMER_DIVERSEORDER>
1
43
105
83
54
30
44
63
50
56
73
74
34
37
69
95
31
11
52
9
103
68
15
104
64
108
42
93
72
77
81
65
96
78
14
3
67
102
36
45
100
66
99
48
35
71
59
40
10
107
87
6
23
70
38
21
4
25
20
92
80
39
60
76
91
106
85
17
32
46
82
51
84
28
12
94
49
19
5
33
8
61
101
29
75
22
57
16
47
58
18
53
26
86
98
90
88
79
55
13
41
24
97
109
7
27
62
89
2

> <PUBCHEM_MMFF94_PARTIAL_CHARGES>
22
1 -0.68
10 -0.18
11 0.03
12 -0.15
13 -0.15
14 -0.15
15 -0.15
16 -0.15
2 -0.52
24 0.15
25 0.15
26 0.4
27 0.15
28 0.15
29 0.15
3 -0.52
30 0.15
31 0.15
4 0.8
6 0.24
7 0.42
9 -0.29

> <PUBCHEM_EFFECTIVE_ROTOR_COUNT>
5

> <PUBCHEM_PHARMACOPHORE_FEATURES>
6
1 1 acceptor
1 1 donor
1 2 acceptor
1 2 anion
1 3 acceptor
6 11 12 13 14 15 16 rings

> <PUBCHEM_HEAVY_ATOM_COUNT>
16

> <PUBCHEM_ATOM_DEF_STEREO_COUNT>
0

> <PUBCHEM_ATOM_UDEF_STEREO_COUNT>
2

> <PUBCHEM_BOND_DEF_STEREO_COUNT>
0

> <PUBCHEM_BOND_UDEF_STEREO_COUNT>
1

> <PUBCHEM_ISOTOPIC_ATOM_COUNT>
0

> <PUBCHEM_COMPONENT_COUNT>
1

> <PUBCHEM_CACTVS_TAUTO_COUNT>
2

> <PUBCHEM_CONFORMER_ID>
0008E56900000001

> <PUBCHEM_MMFF94_ENERGY>
33.4515

> <PUBCHEM_FEATURE_SELFOVERLAP>
30.525

> <PUBCHEM_SHAPE_FINGERPRINT>
10465860 71 16370722638823086449
10799339 124 12247691495149423823
10980938 120 18412826910310014471
11543360 7 16081087052203444569
11615757 297 18261390083343073731
12173636 292 18335699473147710975
12707595 3 7565344236412567126
13583140 156 14979684217294027167
13675066 3 12247682673407904079
14289901 80 17846775222187160603
1798214 55 18341046341741760884
1813 80 17610614589722554958
18186145 218 18186515492837529341
18915474 69 16081090359513035029
21486144 27 18272647978520801183
21639500 275 18409737278483447311
22079108 93 18337660959137130723
22096605 113 18411708694379310631
22854114 111 18409449206299690115
22943178 12 17632006568041113611
23559900 14 16056309660951746275
23598291 2 17678727067256507731
25 1 18409720755907828866
3060560 45 17749104513222426430
3082319 5 16515681130652790245
42 15 13830136100255111793
449060 62 18342448266243185399
474 4 18334863766257573425
5374978 207 15841548587659469885
633830 44 18187354398661216116
7364860 26 18336830913193580962
7615 1 18043253642086697931
81228 2 17548973360908380610
81539 233 18202844357391683306
90316 7 13758078532472571031

> <PUBCHEM_SHAPE_MULTIPOLES>
306.68
9.1
1.76
1.41
3.89
1
-0.16
-3.72
-0.68
-2.09
0.13
-0.01
-0.5
0.23

> <PUBCHEM_SHAPE_SELFOVERLAP>
622.871

> <PUBCHEM_SHAPE_VOLUME>
179

> <PUBCHEM_COORDINATE_TYPE>
2
5
10

$$$$

