56928123
  -OEChem-07051213152D

 81 83  0     1  0  0  0  0  0999 V2000
   15.0786    2.5116    0.0000 O   0  0  0  0  0  0  0  0  0  0  0  0
   12.4266    0.9665    0.0000 C   0  0  1  0  0  0  0  0  0  0  0  0
   13.2926    0.4665    0.0000 C   0  0  2  0  0  0  0  0  0  0  0  0
   14.2026    0.9733    0.0000 C   0  0  0  0  0  0  0  0  0  0  0  0
   11.5606    0.4665    0.0000 C   0  0  0  0  0  0  0  0  0  0  0  0
   10.6144   -0.8382    0.0000 C   0  0  2  0  0  0  0  0  0  0  0  0
   11.5606   -0.5335    0.0000 C   0  0  0  0  0  0  0  0  0  0  0  0
   13.2926   -0.5335    0.0000 C   0  0  0  0  0  0  0  0  0  0  0  0
   12.4106    2.0080    0.0000 C   0  0  0  0  0  0  0  0  0  0  0  0
   14.2107    2.0149    0.0000 C   0  0  2  0  0  0  0  0  0  0  0  0
   12.4266   -1.0335    0.0000 C   0  0  0  0  0  0  0  0  0  0  0  0
   10.6144    0.7712    0.0000 C   0  0  0  0  0  0  0  0  0  0  0  0
   10.0308   -0.0335    0.0000 C   0  0  0  0  0  0  0  0  0  0  0  0
   13.3086    2.5358    0.0000 C   0  0  0  0  0  0  0  0  0  0  0  0
   11.5606    1.4665    0.0000 C   0  0  0  0  0  0  0  0  0  0  0  0
    9.8043   -1.4246    0.0000 C   0  0  2  0  0  0  0  0  0  0  0  0
   15.2026    0.9618    0.0000 C   0  0  0  0  0  0  0  0  0  0  0  0
   14.6926    0.1016    0.0000 C   0  0  0  0  0  0  0  0  0  0  0  0
   10.9217   -1.7898    0.0000 C   0  0  0  0  0  0  0  0  0  0  0  0
    8.8915   -1.0163    0.0000 C   0  0  0  0  0  0  0  0  0  0  0  0
    9.9071   -2.4193    0.0000 C   0  0  0  0  0  0  0  0  0  0  0  0
    8.0815   -1.6027    0.0000 C   0  0  0  0  0  0  0  0  0  0  0  0
    7.1686   -1.1944    0.0000 C   0  0  0  0  0  0  0  0  0  0  0  0
    6.3586   -1.7808    0.0000 C   0  0  0  0  0  0  0  0  0  0  0  0
    5.4458   -1.3724    0.0000 C   0  0  0  0  0  0  0  0  0  0  0  0
    6.4614   -2.7755    0.0000 C   0  0  0  0  0  0  0  0  0  0  0  0
    4.6357   -1.9588    0.0000 C   0  0  0  0  0  0  0  0  0  0  0  0
    3.7229   -1.5505    0.0000 C   0  0  0  0  0  0  0  0  0  0  0  0
    2.9128   -2.1369    0.0000 C   0  0  0  0  0  0  0  0  0  0  0  0
    2.0000   -1.7286    0.0000 C   0  0  0  0  0  0  0  0  0  0  0  0
    3.0156   -3.1316    0.0000 C   0  0  0  0  0  0  0  0  0  0  0  0
   14.0255    0.0358    0.0000 H   0  0  0  0  0  0  0  0  0  0  0  0
   13.5047   -1.1161    0.0000 H   0  0  0  0  0  0  0  0  0  0  0  0
   13.9032   -0.4258    0.0000 H   0  0  0  0  0  0  0  0  0  0  0  0
   12.1925    2.5884    0.0000 H   0  0  0  0  0  0  0  0  0  0  0  0
   11.8014    1.8925    0.0000 H   0  0  0  0  0  0  0  0  0  0  0  0
   14.2119    2.6349    0.0000 H   0  0  0  0  0  0  0  0  0  0  0  0
   12.0281   -1.5084    0.0000 H   0  0  0  0  0  0  0  0  0  0  0  0
   12.8251   -1.5084    0.0000 H   0  0  0  0  0  0  0  0  0  0  0  0
   10.8654    1.3381    0.0000 H   0  0  0  0  0  0  0  0  0  0  0  0
   10.0770    1.0804    0.0000 H   0  0  0  0  0  0  0  0  0  0  0  0
    9.5699    0.3812    0.0000 H   0  0  0  0  0  0  0  0  0  0  0  0
    9.5699   -0.4482    0.0000 H   0  0  0  0  0  0  0  0  0  0  0  0
   13.7059    3.0117    0.0000 H   0  0  0  0  0  0  0  0  0  0  0  0
   12.9076    3.0086    0.0000 H   0  0  0  0  0  0  0  0  0  0  0  0
   11.8706    2.0034    0.0000 H   0  0  0  0  0  0  0  0  0  0  0  0
   11.0237    1.7765    0.0000 H   0  0  0  0  0  0  0  0  0  0  0  0
   11.2506    0.9296    0.0000 H   0  0  0  0  0  0  0  0  0  0  0  0
   10.3703   -1.6778    0.0000 H   0  0  0  0  0  0  0  0  0  0  0  0
   15.1954    0.3418    0.0000 H   0  0  0  0  0  0  0  0  0  0  0  0
   15.8225    0.9546    0.0000 H   0  0  0  0  0  0  0  0  0  0  0  0
   14.1521   -0.2022    0.0000 H   0  0  0  0  0  0  0  0  0  0  0  0
   14.9964   -0.4389    0.0000 H   0  0  0  0  0  0  0  0  0  0  0  0
   15.2331    0.4054    0.0000 H   0  0  0  0  0  0  0  0  0  0  0  0
   15.2097    1.5817    0.0000 H   0  0  0  0  0  0  0  0  0  0  0  0
   10.3318   -1.9804    0.0000 H   0  0  0  0  0  0  0  0  0  0  0  0
   11.1123   -2.3798    0.0000 H   0  0  0  0  0  0  0  0  0  0  0  0
   11.5117   -1.5993    0.0000 H   0  0  0  0  0  0  0  0  0  0  0  0
    9.2391   -0.5029    0.0000 H   0  0  0  0  0  0  0  0  0  0  0  0
    8.4462   -0.5848    0.0000 H   0  0  0  0  0  0  0  0  0  0  0  0
    9.2904   -2.4831    0.0000 H   0  0  0  0  0  0  0  0  0  0  0  0
    9.9709   -3.0360    0.0000 H   0  0  0  0  0  0  0  0  0  0  0  0
   10.5239   -2.3556    0.0000 H   0  0  0  0  0  0  0  0  0  0  0  0
   15.0810    3.1316    0.0000 H   0  0  0  0  0  0  0  0  0  0  0  0
    7.7339   -2.1161    0.0000 H   0  0  0  0  0  0  0  0  0  0  0  0
    8.5267   -2.0342    0.0000 H   0  0  0  0  0  0  0  0  0  0  0  0
    7.1049   -0.5777    0.0000 H   0  0  0  0  0  0  0  0  0  0  0  0
    5.7933   -0.8590    0.0000 H   0  0  0  0  0  0  0  0  0  0  0  0
    5.0005   -0.9410    0.0000 H   0  0  0  0  0  0  0  0  0  0  0  0
    5.8447   -2.8392    0.0000 H   0  0  0  0  0  0  0  0  0  0  0  0
    6.5251   -3.3922    0.0000 H   0  0  0  0  0  0  0  0  0  0  0  0
    7.0781   -2.7117    0.0000 H   0  0  0  0  0  0  0  0  0  0  0  0
    4.2881   -2.4722    0.0000 H   0  0  0  0  0  0  0  0  0  0  0  0
    5.0810   -2.3903    0.0000 H   0  0  0  0  0  0  0  0  0  0  0  0
    3.6591   -0.9338    0.0000 H   0  0  0  0  0  0  0  0  0  0  0  0
    2.3989   -3.1953    0.0000 H   0  0  0  0  0  0  0  0  0  0  0  0
    3.0794   -3.7483    0.0000 H   0  0  0  0  0  0  0  0  0  0  0  0
    3.6324   -3.0678    0.0000 H   0  0  0  0  0  0  0  0  0  0  0  0
    2.2532   -1.1626    0.0000 H   0  0  0  0  0  0  0  0  0  0  0  0
    1.4340   -1.4754    0.0000 H   0  0  0  0  0  0  0  0  0  0  0  0
    1.7468   -2.2945    0.0000 H   0  0  0  0  0  0  0  0  0  0  0  0
 10  1  1  6  0  0  0
  1 64  1  0  0  0  0
  2  3  1  0  0  0  0
  2  5  1  0  0  0  0
  2  9  1  0  0  0  0
  2 15  1  6  0  0  0
  3  4  1  0  0  0  0
  3  8  1  0  0  0  0
  3 32  1  1  0  0  0
  4 10  1  0  0  0  0
  4 17  1  0  0  0  0
  4 18  1  0  0  0  0
  5  7  2  0  0  0  0
  5 12  1  0  0  0  0
  6  7  1  0  0  0  0
  6 13  1  0  0  0  0
  6 16  1  0  0  0  0
  6 19  1  6  0  0  0
  7 11  1  0  0  0  0
  8 11  1  0  0  0  0
  8 33  1  0  0  0  0
  8 34  1  0  0  0  0
  9 14  1  0  0  0  0
  9 35  1  0  0  0  0
  9 36  1  0  0  0  0
 10 14  1  0  0  0  0
 10 37  1  0  0  0  0
 11 38  1  0  0  0  0
 11 39  1  0  0  0  0
 12 13  1  0  0  0  0
 12 40  1  0  0  0  0
 12 41  1  0  0  0  0
 13 42  1  0  0  0  0
 13 43  1  0  0  0  0
 14 44  1  0  0  0  0
 14 45  1  0  0  0  0
 15 46  1  0  0  0  0
 15 47  1  0  0  0  0
 15 48  1  0  0  0  0
 16 20  1  0  0  0  0
 16 21  1  1  0  0  0
 16 49  1  0  0  0  0
 17 50  1  0  0  0  0
 17 51  1  0  0  0  0
 17 55  1  0  0  0  0
 18 52  1  0  0  0  0
 18 53  1  0  0  0  0
 18 54  1  0  0  0  0
 19 56  1  0  0  0  0
 19 57  1  0  0  0  0
 19 58  1  0  0  0  0
 20 22  1  0  0  0  0
 20 59  1  0  0  0  0
 20 60  1  0  0  0  0
 21 61  1  0  0  0  0
 21 62  1  0  0  0  0
 21 63  1  0  0  0  0
 22 23  1  0  0  0  0
 22 65  1  0  0  0  0
 22 66  1  0  0  0  0
 23 24  2  0  0  0  0
 23 67  1  0  0  0  0
 24 25  1  0  0  0  0
 24 26  1  0  0  0  0
 25 27  1  0  0  0  0
 25 68  1  0  0  0  0
 25 69  1  0  0  0  0
 26 70  1  0  0  0  0
 26 71  1  0  0  0  0
 26 72  1  0  0  0  0
 27 28  1  0  0  0  0
 27 73  1  0  0  0  0
 27 74  1  0  0  0  0
 28 29  2  0  0  0  0
 28 75  1  0  0  0  0
 29 30  1  0  0  0  0
 29 31  1  0  0  0  0
 30 79  1  0  0  0  0
 30 80  1  0  0  0  0
 30 81  1  0  0  0  0
 31 76  1  0  0  0  0
 31 77  1  0  0  0  0
 31 78  1  0  0  0  0
M  END
> <PUBCHEM_COMPOUND_CID>
56928123

> <PUBCHEM_COMPOUND_CANONICALIZED>
1

> <PUBCHEM_CACTVS_COMPLEXITY>
746

> <PUBCHEM_CACTVS_HBOND_ACCEPTOR>
1

> <PUBCHEM_CACTVS_HBOND_DONOR>
1

> <PUBCHEM_CACTVS_ROTATABLE_BOND>
7

> <PUBCHEM_CACTVS_SUBSKEYS>
AAADcfB4IAAAAAAAAAAAAAAAAAAAAQAAAAAwQAAAAAAAAGCAAAAAGgAACAAADxSggAICAAAAAgCAAiBCAAAAAAAgAAAACAAAAAgAEAIAAQAAQAAEgAAIAAOAwPAPgAAAAAAAAABAAAYAADAAAAAAAAAAAA==

> <PUBCHEM_IUPAC_OPENEYE_NAME>
(3R,5aR,7S,9aS)-3,6,6,9a-tetramethyl-3-[(1S,4E)-1,5,9-trimethyldeca-4,8-dienyl]-1,2,4,5,5a,7,8,9-octahydrocyclopenta[a]naphthalen-7-ol

> <PUBCHEM_IUPAC_CAS_NAME>
(3R,5aR,7S,9aS)-3-[(2S,5E)-6,10-dimethylundeca-5,9-dien-2-yl]-3,6,6,9a-tetramethyl-1,2,4,5,5a,7,8,9-octahydrocyclopenta[a]naphthalen-7-ol

> <PUBCHEM_IUPAC_NAME>
(3R,5aR,7S,9aS)-3-[(2S,5E)-6,10-dimethylundeca-5,9-dien-2-yl]-3,6,6,9a-tetramethyl-1,2,4,5,5a,7,8,9-octahydrocyclopenta[a]naphthalen-7-ol

> <PUBCHEM_IUPAC_SYSTEMATIC_NAME>
(3R,5aR,7S,9aS)-3-[(2S,5E)-6,10-dimethylundeca-5,9-dien-2-yl]-3,6,6,9a-tetramethyl-1,2,4,5,5a,7,8,9-octahydrocyclopenta[a]naphthalen-7-ol

> <PUBCHEM_IUPAC_TRADITIONAL_NAME>
(3R,5aR,7S,9aS)-3,6,6,9a-tetramethyl-3-[(1S,4E)-1,5,9-trimethyldeca-4,8-dienyl]-1,2,4,5,5a,7,8,9-octahydrobenz[e]inden-7-ol

> <PUBCHEM_IUPAC_INCHI>
InChI=1S/C30H50O/c1-21(2)11-9-12-22(3)13-10-14-23(4)29(7)19-17-25-24(29)15-16-26-28(5,6)27(31)18-20-30(25,26)8/h11,13,23,26-27,31H,9-10,12,14-20H2,1-8H3/b22-13+/t23-,26-,27-,29+,30+/m0/s1

> <PUBCHEM_IUPAC_INCHIKEY>
DGAGPZOBTQYNRE-NQCQTZSJSA-N

> <PUBCHEM_XLOGP3_AA>
9

> <PUBCHEM_EXACT_MASS>
426.386166

> <PUBCHEM_MOLECULAR_FORMULA>
C30H50O

> <PUBCHEM_MOLECULAR_WEIGHT>
426.7174

> <PUBCHEM_OPENEYE_CAN_SMILES>
CC(CCC=C(C)CCC=C(C)C)C1(CCC2=C1CCC3C2(CCC(C3(C)C)O)C)C

> <PUBCHEM_OPENEYE_ISO_SMILES>
C[C@@H](CC/C=C(\C)/CCC=C(C)C)[C@]1(CCC2=C1CC[C@@H]3[C@@]2(CC[C@@H](C3(C)C)O)C)C

> <PUBCHEM_CACTVS_TPSA>
20.2

> <PUBCHEM_MONOISOTOPIC_WEIGHT>
426.386166

> <PUBCHEM_TOTAL_CHARGE>
0

> <PUBCHEM_HEAVY_ATOM_COUNT>
31

> <PUBCHEM_ATOM_DEF_STEREO_COUNT>
5

> <PUBCHEM_ATOM_UDEF_STEREO_COUNT>
0

> <PUBCHEM_BOND_DEF_STEREO_COUNT>
1

> <PUBCHEM_BOND_UDEF_STEREO_COUNT>
0

> <PUBCHEM_ISOTOPIC_ATOM_COUNT>
0

> <PUBCHEM_COMPONENT_COUNT>
1

> <PUBCHEM_CACTVS_TAUTO_COUNT>
1

> <PUBCHEM_COORDINATE_TYPE>
1
5
255

> <PUBCHEM_BONDANNOTATIONS>
10  1  6
16  21  5
2  15  6
3  32  5
6  19  6

$$$$

