5284376
  -OEChem-07051213133D

 32 31  0     0  0  0  0  0  0999 V2000
    4.0132    0.0560   -1.7361 Cl  0  0  0  0  0  0  0  0  0  0  0  0
    5.7739   -0.7473    0.7524 Cl  0  0  0  0  0  0  0  0  0  0  0  0
    0.7993   -0.3732   -0.0861 S   0  0  0  0  0  0  0  0  0  0  0  0
   -0.6028    1.8208    0.1111 O   0  0  0  0  0  0  0  0  0  0  0  0
   -1.8902   -0.1140    0.0194 N   0  0  0  0  0  0  0  0  0  0  0  0
   -1.9444   -1.5742   -0.0704 C   0  0  0  0  0  0  0  0  0  0  0  0
   -3.1877    0.5476    0.0901 C   0  0  0  0  0  0  0  0  0  0  0  0
   -2.6689   -1.9999   -1.3408 C   0  0  0  0  0  0  0  0  0  0  0  0
   -2.6099   -2.1618    1.1679 C   0  0  0  0  0  0  0  0  0  0  0  0
   -3.3785    1.4681   -1.1084 C   0  0  0  0  0  0  0  0  0  0  0  0
   -3.3276    1.3117    1.4008 C   0  0  0  0  0  0  0  0  0  0  0  0
   -0.6793    0.5963    0.0364 C   0  0  0  0  0  0  0  0  0  0  0  0
    2.0611    0.9177   -0.0254 C   0  0  0  0  0  0  0  0  0  0  0  0
    3.4334    0.3198   -0.1156 C   0  0  0  0  0  0  0  0  0  0  0  0
    4.2084   -0.0676    0.9045 C   0  0  0  0  0  0  0  0  0  0  0  0
   -0.9607   -2.0364   -0.1216 H   0  0  0  0  0  0  0  0  0  0  0  0
   -4.0007   -0.1826    0.0617 H   0  0  0  0  0  0  0  0  0  0  0  0
   -2.6035   -3.0867   -1.4668 H   0  0  0  0  0  0  0  0  0  0  0  0
   -3.7328   -1.7456   -1.3438 H   0  0  0  0  0  0  0  0  0  0  0  0
   -2.2118   -1.5380   -2.2230 H   0  0  0  0  0  0  0  0  0  0  0  0
   -2.1097   -1.8157    2.0792 H   0  0  0  0  0  0  0  0  0  0  0  0
   -2.5436   -3.2556    1.1501 H   0  0  0  0  0  0  0  0  0  0  0  0
   -3.6712   -1.9108    1.2536 H   0  0  0  0  0  0  0  0  0  0  0  0
   -4.3957    1.8755   -1.1160 H   0  0  0  0  0  0  0  0  0  0  0  0
   -2.6919    2.3197   -1.1047 H   0  0  0  0  0  0  0  0  0  0  0  0
   -3.2309    0.9270   -2.0491 H   0  0  0  0  0  0  0  0  0  0  0  0
   -3.1444    0.6573    2.2598 H   0  0  0  0  0  0  0  0  0  0  0  0
   -4.3419    1.7139    1.4998 H   0  0  0  0  0  0  0  0  0  0  0  0
   -2.6376    2.1573    1.4756 H   0  0  0  0  0  0  0  0  0  0  0  0
    1.9605    1.4613    0.9212 H   0  0  0  0  0  0  0  0  0  0  0  0
    1.9017    1.6432   -0.8308 H   0  0  0  0  0  0  0  0  0  0  0  0
    3.9145    0.0361    1.9411 H   0  0  0  0  0  0  0  0  0  0  0  0
  1 14  1  0  0  0  0
  2 15  1  0  0  0  0
  3 12  1  0  0  0  0
  3 13  1  0  0  0  0
  4 12  2  0  0  0  0
  5  6  1  0  0  0  0
  5  7  1  0  0  0  0
  5 12  1  0  0  0  0
  6  8  1  0  0  0  0
  6  9  1  0  0  0  0
  6 16  1  0  0  0  0
  7 10  1  0  0  0  0
  7 11  1  0  0  0  0
  7 17  1  0  0  0  0
  8 18  1  0  0  0  0
  8 19  1  0  0  0  0
  8 20  1  0  0  0  0
  9 21  1  0  0  0  0
  9 22  1  0  0  0  0
  9 23  1  0  0  0  0
 10 24  1  0  0  0  0
 10 25  1  0  0  0  0
 10 26  1  0  0  0  0
 11 27  1  0  0  0  0
 11 28  1  0  0  0  0
 11 29  1  0  0  0  0
 13 14  1  0  0  0  0
 13 30  1  0  0  0  0
 13 31  1  0  0  0  0
 14 15  2  0  0  0  0
 15 32  1  0  0  0  0
M  END
> <PUBCHEM_COMPOUND_CID>
5284376

> <PUBCHEM_CONFORMER_RMSD>
0.8

> <PUBCHEM_CONFORMER_DIVERSEORDER>
1
22
35
37
27
12
34
21
20
33
3
24
26
28
11
36
2
38
19
23
4
8
9
6
5
25
39
31
7
13
30
32
10
29
16
17
14
18
15

> <PUBCHEM_MMFF94_PARTIAL_CHARGES>
11
1 -0.14
12 0.77
13 0.37
15 -0.01
2 -0.14
3 -0.37
32 0.15
4 -0.57
5 -0.66
6 0.3
7 0.3

> <PUBCHEM_EFFECTIVE_ROTOR_COUNT>
6

> <PUBCHEM_PHARMACOPHORE_FEATURES>
2
3 6 8 9 hydrophobe
3 7 10 11 hydrophobe

> <PUBCHEM_HEAVY_ATOM_COUNT>
15

> <PUBCHEM_ATOM_DEF_STEREO_COUNT>
0

> <PUBCHEM_ATOM_UDEF_STEREO_COUNT>
0

> <PUBCHEM_BOND_DEF_STEREO_COUNT>
1

> <PUBCHEM_BOND_UDEF_STEREO_COUNT>
0

> <PUBCHEM_ISOTOPIC_ATOM_COUNT>
0

> <PUBCHEM_COMPONENT_COUNT>
1

> <PUBCHEM_CACTVS_TAUTO_COUNT>
1

> <PUBCHEM_CONFORMER_ID>
0050A21800000001

> <PUBCHEM_MMFF94_ENERGY>
28.8484

> <PUBCHEM_FEATURE_SELFOVERLAP>
10.149

> <PUBCHEM_SHAPE_FINGERPRINT>
10014705 185 18412553101876599797
10062212 137 18342461426260642890
11132069 177 18260828211236533140
11315181 36 18114189622790251968
11405975 8 18334575729092970168
12346177 29 18335709325106251983
124424 183 18334583442506067248
12616971 3 17489583472646701044
12932764 1 18131632266231072740
13167823 11 17704070686097083666
13296908 3 17968088690696798476
15375358 24 17676207996149579292
17834072 33 18060134333087522516
18186145 218 18411131420810372308
19050596 39 18343018891857000554
19422 9 17846495886030310282
19433438 15 17632857542558618548
20279233 1 17603303756720298702
20281475 54 17917710163281749734
20645477 56 18040149630419440897
21339142 126 18201445817002773900
21339142 149 17168143451500344233
22485316 2 18342181068391939704
23402539 116 18336559294944989436
23557571 272 17894633617348597898
23559900 14 18114731716756835716
23598291 2 17346596340187416702
312423 11 18199741454089479572
4175511 318 18342741840364458181
5104073 3 18410577250044184200
559249 180 18270974534460301690
573450 72 18411708681589315562
633830 44 16200431377635939184

> <PUBCHEM_SHAPE_MULTIPOLES>
305.43
10.19
1.95
1.37
13.57
0.66
0.26
0.8
-1
-2.63
-0.04
0.03
0.15
-0.44

> <PUBCHEM_SHAPE_SELFOVERLAP>
551.707

> <PUBCHEM_SHAPE_VOLUME>
198.9

> <PUBCHEM_COORDINATE_TYPE>
2
5
10

$$$$

