12768
  -OEChem-06261207213D

 25 26  0     0  0  0  0  0  0999 V2000
    3.1984    0.0000    0.0000 Br  0  0  0  0  0  0  0  0  0  0  0  0
   -1.3516   -0.0001    0.0001 C   0  0  0  0  0  0  0  0  0  0  0  0
    1.2509    0.0000    0.0000 C   0  0  0  0  0  0  0  0  0  0  0  0
   -0.8042   -1.4459    0.0539 C   0  0  0  0  0  0  0  0  0  0  0  0
   -0.8043    0.7697    1.2250 C   0  0  0  0  0  0  0  0  0  0  0  0
   -0.8044    0.6762   -1.2790 C   0  0  0  0  0  0  0  0  0  0  0  0
    0.7321   -1.4435    0.0507 C   0  0  0  0  0  0  0  0  0  0  0  0
    0.7319    0.7657    1.2247 C   0  0  0  0  0  0  0  0  0  0  0  0
    0.7319    0.6780   -1.2755 C   0  0  0  0  0  0  0  0  0  0  0  0
   -2.8807   -0.0001    0.0000 C   0  0  0  0  0  0  0  0  0  0  0  0
   -1.1701   -2.0264   -0.8025 H   0  0  0  0  0  0  0  0  0  0  0  0
   -1.1667   -1.9593    0.9534 H   0  0  0  0  0  0  0  0  0  0  0  0
   -1.1703    0.3185    2.1560 H   0  0  0  0  0  0  0  0  0  0  0  0
   -1.1668    1.8054    1.2197 H   0  0  0  0  0  0  0  0  0  0  0  0
   -1.1704    1.7080   -1.3536 H   0  0  0  0  0  0  0  0  0  0  0  0
   -1.1667    0.1538   -2.1734 H   0  0  0  0  0  0  0  0  0  0  0  0
    1.0999   -1.9622    0.9454 H   0  0  0  0  0  0  0  0  0  0  0  0
    1.0966   -2.0223   -0.8078 H   0  0  0  0  0  0  0  0  0  0  0  0
    1.0998    1.7999    1.2267 H   0  0  0  0  0  0  0  0  0  0  0  0
    1.0963    0.3115    2.1552 H   0  0  0  0  0  0  0  0  0  0  0  0
    1.0998    0.1628   -2.1721 H   0  0  0  0  0  0  0  0  0  0  0  0
    1.0963    1.7109   -1.3472 H   0  0  0  0  0  0  0  0  0  0  0  0
   -3.2755   -0.5434   -0.8655 H   0  0  0  0  0  0  0  0  0  0  0  0
   -3.2756   -0.4779    0.9032 H   0  0  0  0  0  0  0  0  0  0  0  0
   -3.2756    1.0211   -0.0378 H   0  0  0  0  0  0  0  0  0  0  0  0
  1  3  1  0  0  0  0
  2  4  1  0  0  0  0
  2  5  1  0  0  0  0
  2  6  1  0  0  0  0
  2 10  1  0  0  0  0
  3  7  1  0  0  0  0
  3  8  1  0  0  0  0
  3  9  1  0  0  0  0
  4  7  1  0  0  0  0
  4 11  1  0  0  0  0
  4 12  1  0  0  0  0
  5  8  1  0  0  0  0
  5 13  1  0  0  0  0
  5 14  1  0  0  0  0
  6  9  1  0  0  0  0
  6 15  1  0  0  0  0
  6 16  1  0  0  0  0
  7 17  1  0  0  0  0
  7 18  1  0  0  0  0
  8 19  1  0  0  0  0
  8 20  1  0  0  0  0
  9 21  1  0  0  0  0
  9 22  1  0  0  0  0
 10 23  1  0  0  0  0
 10 24  1  0  0  0  0
 10 25  1  0  0  0  0
M  END
> <PUBCHEM_COMPOUND_CID>
12768

> <PUBCHEM_CONFORMER_RMSD>
0.4

> <PUBCHEM_CONFORMER_DIVERSEORDER>
1

> <PUBCHEM_MMFF94_PARTIAL_CHARGES>
2
1 -0.23
3 0.23

> <PUBCHEM_EFFECTIVE_ROTOR_COUNT>
1.2

> <PUBCHEM_PHARMACOPHORE_FEATURES>
2
1 1 hydrophobe
8 2 3 4 5 6 7 8 9 rings

> <PUBCHEM_HEAVY_ATOM_COUNT>
10

> <PUBCHEM_ATOM_DEF_STEREO_COUNT>
0

> <PUBCHEM_ATOM_UDEF_STEREO_COUNT>
0

> <PUBCHEM_BOND_DEF_STEREO_COUNT>
0

> <PUBCHEM_BOND_UDEF_STEREO_COUNT>
0

> <PUBCHEM_ISOTOPIC_ATOM_COUNT>
0

> <PUBCHEM_COMPONENT_COUNT>
1

> <PUBCHEM_CACTVS_TAUTO_COUNT>
1

> <PUBCHEM_CONFORMER_ID>
000031E000000001

> <PUBCHEM_MMFF94_ENERGY>
31.7924

> <PUBCHEM_FEATURE_SELFOVERLAP>
10.148

> <PUBCHEM_SHAPE_FINGERPRINT>
10219947 1 18060699498289227871
12423570 1 18060418018906806207
13024252 1 14692853592627417602
137420 1 9128769261837377409
14993402 34 18060137609145392590
16945 1 18411418410108060802
21040471 1 18411418367411647403
23235685 24 18410579487015113346
29004967 10 17632285804743296234
369184 2 17967816050541655554
5084963 1 18343584027352786882
528886 8 18060142024350621671

> <PUBCHEM_SHAPE_MULTIPOLES>
211.74
3.38
1.24
1.24
1.08
0.43
-0.09
0
0
-0.03
0.09
-0.03
-0.43
0

> <PUBCHEM_SHAPE_SELFOVERLAP>
425.031

> <PUBCHEM_SHAPE_VOLUME>
127.8

> <PUBCHEM_COORDINATE_TYPE>
2
5
10

$$$$

