443651
  -OEChem-07051213022D

 57 60  0     1  0  0  0  0  0999 V2000
    4.2690   -1.8450    0.0000 O   0  0  0  0  0  0  0  0  0  0  0  0
    5.1350   -0.3450    0.0000 O   0  0  0  0  0  0  0  0  0  0  0  0
    6.8671   -3.3450    0.0000 O   0  0  0  0  0  0  0  0  0  0  0  0
    5.1350   -4.3450    0.0000 O   0  0  0  0  0  0  0  0  0  0  0  0
    6.8671   -1.3450    0.0000 O   0  0  0  0  0  0  0  0  0  0  0  0
    2.5369   -2.8450    0.0000 O   0  0  0  0  0  0  0  0  0  0  0  0
    6.8671    1.6550    0.0000 O   0  3  0  0  0  0  0  0  0  0  0  0
    8.6155   -1.3796    0.0000 O   0  0  0  0  0  0  0  0  0  0  0  0
    4.2690    4.1550    0.0000 O   0  0  0  0  0  0  0  0  0  0  0  0
   10.3972    1.6792    0.0000 O   0  0  0  0  0  0  0  0  0  0  0  0
    2.5369    1.1550    0.0000 O   0  0  0  0  0  0  0  0  0  0  0  0
    2.5369    3.1550    0.0000 O   0  0  0  0  0  0  0  0  0  0  0  0
    6.0010   -2.8450    0.0000 C   0  0  1  0  0  0  0  0  0  0  0  0
    5.1350   -3.3450    0.0000 C   0  0  1  0  0  0  0  0  0  0  0  0
    6.0010   -1.8450    0.0000 C   0  0  2  0  0  0  0  0  0  0  0  0
    4.2690   -2.8450    0.0000 C   0  0  1  0  0  0  0  0  0  0  0  0
    5.1350   -1.3450    0.0000 C   0  0  1  0  0  0  0  0  0  0  0  0
    3.4030   -3.3450    0.0000 C   0  0  0  0  0  0  0  0  0  0  0  0
    6.0010    0.1550    0.0000 C   0  0  0  0  0  0  0  0  0  0  0  0
    6.0010    1.1550    0.0000 C   0  0  0  0  0  0  0  0  0  0  0  0
    6.8671   -0.3450    0.0000 C   0  0  0  0  0  0  0  0  0  0  0  0
    7.7331    0.1550    0.0000 C   0  0  0  0  0  0  0  0  0  0  0  0
    5.1350    1.6550    0.0000 C   0  0  0  0  0  0  0  0  0  0  0  0
    7.7331    1.1550    0.0000 C   0  0  0  0  0  0  0  0  0  0  0  0
    8.6270   -0.3797    0.0000 C   0  0  0  0  0  0  0  0  0  0  0  0
    8.6270    1.6897    0.0000 C   0  0  0  0  0  0  0  0  0  0  0  0
    5.1350    2.6550    0.0000 C   0  0  0  0  0  0  0  0  0  0  0  0
    4.2690    1.1550    0.0000 C   0  0  0  0  0  0  0  0  0  0  0  0
    9.5331    0.1342    0.0000 C   0  0  0  0  0  0  0  0  0  0  0  0
    9.5331    1.1758    0.0000 C   0  0  0  0  0  0  0  0  0  0  0  0
    4.2690    3.1550    0.0000 C   0  0  0  0  0  0  0  0  0  0  0  0
    3.4030    1.6550    0.0000 C   0  0  0  0  0  0  0  0  0  0  0  0
    3.4030    2.6550    0.0000 C   0  0  0  0  0  0  0  0  0  0  0  0
    5.1350    4.6550    0.0000 C   0  0  0  0  0  0  0  0  0  0  0  0
    6.5380   -2.5350    0.0000 H   0  0  0  0  0  0  0  0  0  0  0  0
    5.6720   -3.6550    0.0000 H   0  0  0  0  0  0  0  0  0  0  0  0
    6.5380   -2.1550    0.0000 H   0  0  0  0  0  0  0  0  0  0  0  0
    3.7320   -2.5350    0.0000 H   0  0  0  0  0  0  0  0  0  0  0  0
    5.6720   -1.0350    0.0000 H   0  0  0  0  0  0  0  0  0  0  0  0
    3.0044   -3.8200    0.0000 H   0  0  0  0  0  0  0  0  0  0  0  0
    3.8015   -3.8200    0.0000 H   0  0  0  0  0  0  0  0  0  0  0  0
    6.8671   -3.9650    0.0000 H   0  0  0  0  0  0  0  0  0  0  0  0
    4.5981   -4.6550    0.0000 H   0  0  0  0  0  0  0  0  0  0  0  0
    7.4040   -1.6550    0.0000 H   0  0  0  0  0  0  0  0  0  0  0  0
    2.0000   -3.1550    0.0000 H   0  0  0  0  0  0  0  0  0  0  0  0
    6.8671   -0.9650    0.0000 H   0  0  0  0  0  0  0  0  0  0  0  0
    8.6199    2.3096    0.0000 H   0  0  0  0  0  0  0  0  0  0  0  0
    5.6720    2.9650    0.0000 H   0  0  0  0  0  0  0  0  0  0  0  0
    4.2690    0.5350    0.0000 H   0  0  0  0  0  0  0  0  0  0  0  0
   10.0688   -0.1779    0.0000 H   0  0  0  0  0  0  0  0  0  0  0  0
    9.1488   -1.6958    0.0000 H   0  0  0  0  0  0  0  0  0  0  0  0
   10.9353    1.3712    0.0000 H   0  0  0  0  0  0  0  0  0  0  0  0
    2.0000    1.4650    0.0000 H   0  0  0  0  0  0  0  0  0  0  0  0
    2.5369    3.7750    0.0000 H   0  0  0  0  0  0  0  0  0  0  0  0
    5.4450    4.1181    0.0000 H   0  0  0  0  0  0  0  0  0  0  0  0
    5.6720    4.9650    0.0000 H   0  0  0  0  0  0  0  0  0  0  0  0
    4.8250    5.1919    0.0000 H   0  0  0  0  0  0  0  0  0  0  0  0
  1 16  1  0  0  0  0
  1 17  1  0  0  0  0
 17  2  1  1  0  0  0
  2 19  1  0  0  0  0
 13  3  1  1  0  0  0
  3 42  1  0  0  0  0
 14  4  1  6  0  0  0
  4 43  1  0  0  0  0
 15  5  1  6  0  0  0
  5 44  1  0  0  0  0
  6 18  1  0  0  0  0
  6 45  1  0  0  0  0
  7 20  2  0  0  0  0
  7 24  1  0  0  0  0
  8 25  1  0  0  0  0
  8 51  1  0  0  0  0
  9 31  1  0  0  0  0
  9 34  1  0  0  0  0
 10 30  1  0  0  0  0
 10 52  1  0  0  0  0
 11 32  1  0  0  0  0
 11 53  1  0  0  0  0
 12 33  1  0  0  0  0
 12 54  1  0  0  0  0
 13 14  1  0  0  0  0
 13 15  1  0  0  0  0
 13 35  1  0  0  0  0
 14 16  1  0  0  0  0
 14 36  1  0  0  0  0
 15 17  1  0  0  0  0
 15 37  1  0  0  0  0
 16 18  1  1  0  0  0
 16 38  1  0  0  0  0
 17 39  1  0  0  0  0
 18 40  1  0  0  0  0
 18 41  1  0  0  0  0
 19 20  1  0  0  0  0
 19 21  2  0  0  0  0
 20 23  1  0  0  0  0
 21 22  1  0  0  0  0
 21 46  1  0  0  0  0
 22 24  1  0  0  0  0
 22 25  2  0  0  0  0
 23 27  1  0  0  0  0
 23 28  2  0  0  0  0
 24 26  2  0  0  0  0
 25 29  1  0  0  0  0
 26 30  1  0  0  0  0
 26 47  1  0  0  0  0
 27 31  2  0  0  0  0
 27 48  1  0  0  0  0
 28 32  1  0  0  0  0
 28 49  1  0  0  0  0
 29 30  2  0  0  0  0
 29 50  1  0  0  0  0
 31 33  1  0  0  0  0
 32 33  2  0  0  0  0
 34 55  1  0  0  0  0
 34 56  1  0  0  0  0
 34 57  1  0  0  0  0
M  CHG  1   7   1
M  END
> <PUBCHEM_COMPOUND_CID>
443651

> <PUBCHEM_COMPOUND_CANONICALIZED>
1

> <PUBCHEM_CACTVS_COMPLEXITY>
668

> <PUBCHEM_CACTVS_HBOND_ACCEPTOR>
11

> <PUBCHEM_CACTVS_HBOND_DONOR>
8

> <PUBCHEM_CACTVS_ROTATABLE_BOND>
5

> <PUBCHEM_CACTVS_SUBSKEYS>
AAADceB4PAAAAAAAAAAAAAAAAAAAAAAAAAA0aIEAAAAAAACR9AAAGgAACAAADBSwmAMyDsAABkCIAqBSAAICCAAkIAAAiAFGiMgdNzaGNR6ieWOl4BUPuYfK7PzOIAABCAAIQABAAAIQABCAAAAAAAAAAA==

> <PUBCHEM_IUPAC_OPENEYE_NAME>
(2S,3R,4S,5S,6R)-2-[2-(3,4-dihydroxy-5-methoxy-phenyl)-5,7-dihydroxy-chromenylium-3-yl]oxy-6-(hydroxymethyl)tetrahydropyran-3,4,5-triol

> <PUBCHEM_IUPAC_CAS_NAME>
(2S,3R,4S,5S,6R)-2-[[2-(3,4-dihydroxy-5-methoxyphenyl)-5,7-dihydroxy-1-benzopyrylium-3-yl]oxy]-6-(hydroxymethyl)oxane-3,4,5-triol

> <PUBCHEM_IUPAC_NAME>
(2S,3R,4S,5S,6R)-2-[2-(3,4-dihydroxy-5-methoxyphenyl)-5,7-dihydroxychromenylium-3-yl]oxy-6-(hydroxymethyl)oxane-3,4,5-triol

> <PUBCHEM_IUPAC_SYSTEMATIC_NAME>
(2R,3S,4S,5R,6S)-2-(hydroxymethyl)-6-[2-[3-methoxy-4,5-bis(oxidanyl)phenyl]-5,7-bis(oxidanyl)chromenylium-3-yl]oxy-oxane-3,4,5-triol

> <PUBCHEM_IUPAC_TRADITIONAL_NAME>
(2S,3R,4S,5S,6R)-2-[[2-(3,4-dihydroxy-5-methoxy-phenyl)-5,7-dihydroxy-1-benzopyrylium-3-yl]oxy]-6-methylol-tetrahydropyran-3,4,5-triol

> <PUBCHEM_IUPAC_INCHI>
InChI=1S/C22H22O12/c1-31-14-3-8(2-12(26)17(14)27)21-15(6-10-11(25)4-9(24)5-13(10)32-21)33-22-20(30)19(29)18(28)16(7-23)34-22/h2-6,16,18-20,22-23,28-30H,7H2,1H3,(H3-,24,25,26,27)/p+1/t16-,18-,19+,20-,22-/m1/s1

> <PUBCHEM_IUPAC_INCHIKEY>
CCQDWIRWKWIUKK-QKYBYQKWSA-O

> <PUBCHEM_EXACT_MASS>
479.118951

> <PUBCHEM_MOLECULAR_FORMULA>
C22H23O12+

> <PUBCHEM_MOLECULAR_WEIGHT>
479.41082

> <PUBCHEM_OPENEYE_CAN_SMILES>
COC1=CC(=CC(=C1O)O)C2=C(C=C3C(=CC(=CC3=[O+]2)O)O)OC4C(C(C(C(O4)CO)O)O)O

> <PUBCHEM_OPENEYE_ISO_SMILES>
COC1=CC(=CC(=C1O)O)C2=C(C=C3C(=CC(=CC3=[O+]2)O)O)O[C@H]4[C@@H]([C@H]([C@@H]([C@H](O4)CO)O)O)O

> <PUBCHEM_CACTVS_TPSA>
191

> <PUBCHEM_MONOISOTOPIC_WEIGHT>
479.118951

> <PUBCHEM_TOTAL_CHARGE>
1

> <PUBCHEM_HEAVY_ATOM_COUNT>
34

> <PUBCHEM_ATOM_DEF_STEREO_COUNT>
5

> <PUBCHEM_ATOM_UDEF_STEREO_COUNT>
0

> <PUBCHEM_BOND_DEF_STEREO_COUNT>
0

> <PUBCHEM_BOND_UDEF_STEREO_COUNT>
0

> <PUBCHEM_ISOTOPIC_ATOM_COUNT>
0

> <PUBCHEM_COMPONENT_COUNT>
1

> <PUBCHEM_CACTVS_TAUTO_COUNT>
171

> <PUBCHEM_COORDINATE_TYPE>
1
5
255

> <PUBCHEM_BONDANNOTATIONS>
16  18  5
19  20  8
19  21  8
17  2  5
21  22  8
22  24  8
22  25  8
23  27  8
23  28  8
24  26  8
25  29  8
26  30  8
27  31  8
28  32  8
29  30  8
13  3  5
31  33  8
32  33  8
14  4  6
15  5  6
7  20  8
7  24  8

$$$$

