17395524
  -OEChem-06241222503D

 46 48  0     0  0  0  0  0  0999 V2000
    2.1305    1.4284   -2.0149 O   0  0  0  0  0  0  0  0  0  0  0  0
   -0.2556   -0.7045   -0.0441 O   0  0  0  0  0  0  0  0  0  0  0  0
   -4.5610    1.9283    0.5997 O   0  0  0  0  0  0  0  0  0  0  0  0
    3.6560    0.5891   -0.4480 N   0  0  0  0  0  0  0  0  0  0  0  0
    1.6477    1.1484    0.2712 N   0  0  0  0  0  0  0  0  0  0  0  0
    2.3445    0.6899    1.3570 N   0  0  0  0  0  0  0  0  0  0  0  0
   -1.9822    0.8582    0.2966 N   0  0  0  0  0  0  0  0  0  0  0  0
    5.8816   -1.6250   -0.0170 C   0  0  0  0  0  0  0  0  0  0  0  0
    5.2126   -1.1284   -1.3012 C   0  0  0  0  0  0  0  0  0  0  0  0
    4.9933   -1.5976    1.2291 C   0  0  0  0  0  0  0  0  0  0  0  0
    4.8347    0.3498   -1.2658 C   0  0  0  0  0  0  0  0  0  0  0  0
    4.6271   -0.1909    1.6943 C   0  0  0  0  0  0  0  0  0  0  0  0
    3.5116    0.3775    0.8751 C   0  0  0  0  0  0  0  0  0  0  0  0
    2.4455    1.0959   -0.8810 C   0  0  0  0  0  0  0  0  0  0  0  0
    0.2856    1.5977    0.3863 C   0  0  0  0  0  0  0  0  0  0  0  0
   -0.6632    0.4326    0.1698 C   0  0  0  0  0  0  0  0  0  0  0  0
   -3.1208    0.0595    0.1623 C   0  0  0  0  0  0  0  0  0  0  0  0
   -4.3953    0.6054    0.3161 C   0  0  0  0  0  0  0  0  0  0  0  0
   -2.9734   -1.2975   -0.1258 C   0  0  0  0  0  0  0  0  0  0  0  0
   -4.1005   -2.1083   -0.2595 C   0  0  0  0  0  0  0  0  0  0  0  0
   -5.5222   -0.2056    0.1823 C   0  0  0  0  0  0  0  0  0  0  0  0
   -5.3749   -1.5624   -0.1055 C   0  0  0  0  0  0  0  0  0  0  0  0
   -3.9440   -3.5588   -0.5688 C   0  0  0  0  0  0  0  0  0  0  0  0
   -4.6777    2.8182   -0.5082 C   0  0  0  0  0  0  0  0  0  0  0  0
    6.2024   -2.6612   -0.1823 H   0  0  0  0  0  0  0  0  0  0  0  0
    6.7950   -1.0465    0.1693 H   0  0  0  0  0  0  0  0  0  0  0  0
    4.3304   -1.7417   -1.5216 H   0  0  0  0  0  0  0  0  0  0  0  0
    5.9206   -1.2808   -2.1251 H   0  0  0  0  0  0  0  0  0  0  0  0
    4.0887   -2.1920    1.0510 H   0  0  0  0  0  0  0  0  0  0  0  0
    5.5428   -2.0918    2.0399 H   0  0  0  0  0  0  0  0  0  0  0  0
    4.6270    0.7001   -2.2824 H   0  0  0  0  0  0  0  0  0  0  0  0
    5.6586    0.9475   -0.8606 H   0  0  0  0  0  0  0  0  0  0  0  0
    5.4930    0.4778    1.6437 H   0  0  0  0  0  0  0  0  0  0  0  0
    4.2969   -0.2287    2.7389 H   0  0  0  0  0  0  0  0  0  0  0  0
    0.0969    2.3511   -0.3858 H   0  0  0  0  0  0  0  0  0  0  0  0
    0.1299    2.0358    1.3772 H   0  0  0  0  0  0  0  0  0  0  0  0
   -2.1494    1.8400    0.5050 H   0  0  0  0  0  0  0  0  0  0  0  0
   -2.0282   -1.7990   -0.2665 H   0  0  0  0  0  0  0  0  0  0  0  0
   -6.5181    0.2125    0.3017 H   0  0  0  0  0  0  0  0  0  0  0  0
   -6.2620   -2.1816   -0.2084 H   0  0  0  0  0  0  0  0  0  0  0  0
   -3.6150   -3.6897   -1.6048 H   0  0  0  0  0  0  0  0  0  0  0  0
   -3.2075   -4.0172    0.0999 H   0  0  0  0  0  0  0  0  0  0  0  0
   -4.8841   -4.1055   -0.4390 H   0  0  0  0  0  0  0  0  0  0  0  0
   -3.7935    2.7602   -1.1507 H   0  0  0  0  0  0  0  0  0  0  0  0
   -5.5775    2.5892   -1.0879 H   0  0  0  0  0  0  0  0  0  0  0  0
   -4.7617    3.8374   -0.1214 H   0  0  0  0  0  0  0  0  0  0  0  0
  1 14  2  0  0  0  0
  2 16  2  0  0  0  0
  3 18  1  0  0  0  0
  3 24  1  0  0  0  0
  4 11  1  0  0  0  0
  4 13  1  0  0  0  0
  4 14  1  0  0  0  0
  5  6  1  0  0  0  0
  5 14  1  0  0  0  0
  5 15  1  0  0  0  0
  6 13  2  0  0  0  0
  7 16  1  0  0  0  0
  7 17  1  0  0  0  0
  7 37  1  0  0  0  0
  8  9  1  0  0  0  0
  8 10  1  0  0  0  0
  8 25  1  0  0  0  0
  8 26  1  0  0  0  0
  9 11  1  0  0  0  0
  9 27  1  0  0  0  0
  9 28  1  0  0  0  0
 10 12  1  0  0  0  0
 10 29  1  0  0  0  0
 10 30  1  0  0  0  0
 11 31  1  0  0  0  0
 11 32  1  0  0  0  0
 12 13  1  0  0  0  0
 12 33  1  0  0  0  0
 12 34  1  0  0  0  0
 15 16  1  0  0  0  0
 15 35  1  0  0  0  0
 15 36  1  0  0  0  0
 17 18  2  0  0  0  0
 17 19  1  0  0  0  0
 18 21  1  0  0  0  0
 19 20  2  0  0  0  0
 19 38  1  0  0  0  0
 20 22  1  0  0  0  0
 20 23  1  0  0  0  0
 21 22  2  0  0  0  0
 21 39  1  0  0  0  0
 22 40  1  0  0  0  0
 23 41  1  0  0  0  0
 23 42  1  0  0  0  0
 23 43  1  0  0  0  0
 24 44  1  0  0  0  0
 24 45  1  0  0  0  0
 24 46  1  0  0  0  0
M  END
> <PUBCHEM_COMPOUND_CID>
17395524

> <PUBCHEM_CONFORMER_RMSD>
0.8

> <PUBCHEM_CONFORMER_DIVERSEORDER>
5
159
41
46
13
57
12
88
119
62
102
148
75
162
99
90
158
23
67
132
165
144
31
118
122
153
130
143
11
120
82
80
147
116
29
81
137
2
22
17
173
8
33
53
105
45
171
163
92
160
155
64
9
77
59
134
26
84
145
37
127
131
51
15
71
21
58
146
100
61
154
47
139
95
32
85
168
129
169
152
128
86
167
103
14
18
166
27
55
83
108
56
91
157
54
73
35
38
172
176
175
161
110
40
72
135
174
121
43
30
111
48
1
156
89
98
49
28
142
52
68
44
25
96
76
3
16
74
106
101
141
19
113
78
107
149
114
42
66
115
20
39
123
117
87
36
94
170
164
70
7
138
10
124
79
50
34
24
109
4
97
69
140
150
136
93
126
63
125
133
112
65
60
151
6
104

> <PUBCHEM_MMFF94_PARTIAL_CHARGES>
25
1 -0.57
11 0.3
12 0.06
13 0.45
14 0.69
15 0.36
16 0.57
17 0.12
18 0.08
19 -0.15
2 -0.57
20 -0.14
21 -0.15
22 -0.15
23 0.14
24 0.28
3 -0.36
37 0.37
38 0.15
39 0.15
4 -0.42
40 0.15
5 -0.3
6 -0.51
7 -0.55

> <PUBCHEM_EFFECTIVE_ROTOR_COUNT>
6

> <PUBCHEM_PHARMACOPHORE_FEATURES>
7
1 1 acceptor
1 2 acceptor
1 3 acceptor
1 7 donor
5 4 5 6 13 14 rings
6 17 18 19 20 21 22 rings
7 4 8 9 10 11 12 13 rings

> <PUBCHEM_HEAVY_ATOM_COUNT>
24

> <PUBCHEM_ATOM_DEF_STEREO_COUNT>
0

> <PUBCHEM_ATOM_UDEF_STEREO_COUNT>
0

> <PUBCHEM_BOND_DEF_STEREO_COUNT>
0

> <PUBCHEM_BOND_UDEF_STEREO_COUNT>
0

> <PUBCHEM_ISOTOPIC_ATOM_COUNT>
0

> <PUBCHEM_COMPONENT_COUNT>
1

> <PUBCHEM_CACTVS_TAUTO_COUNT>
2

> <PUBCHEM_CONFORMER_ID>
01096F4400000005

> <PUBCHEM_MMFF94_ENERGY>
70.4989

> <PUBCHEM_FEATURE_SELFOVERLAP>
35.567

> <PUBCHEM_SHAPE_FINGERPRINT>
10595046 47 18270113492159315948
11524674 6 17167861959523386007
11545043 162 18113621183478190953
11796584 16 18334573585925336126
12107183 9 18126853934762537577
12236239 1 18201997746565888160
13167823 11 18343022164194922643
13675066 3 17676491613988072321
13782708 43 17531529755410936887
14251751 18 18261112958973418946
14251758 9 18260552263576738452
14420673 8 18334855060353998662
14528608 73 9871749100473947786
15042514 8 18265330604790976963
15183329 4 18201999962304438654
15250474 111 18342464715900058899
15348495 7 17821734905178101019
15788980 27 18342172271803058361
17349148 13 18411411808722143395
17492 89 18192994807887140711
17844677 252 18408602539402391929
17857418 61 18412549799067841666
21033648 29 16225763038723320745
21065201 7 18334582313056087425
21315763 178 18059861696752665170
22061861 79 15698006244704102138
221357 26 16271931514656472932
23522609 53 17915715747931820004
23559900 14 18113617889418038544
3004659 81 18341608222791579510
338550 245 18411699863800475910
4214541 1 18408885148761911497
4340502 62 13984662546728227180
44062 13 18408323263907592975
465052 167 17676201382332401836
497634 4 16271921585409437475
508706 21 18335415768814325711
5104073 3 18040995090468210451
531348 171 18200877395851471105
559249 180 18412266177050263387
633830 44 17203608189963320753
960060 61 17489866029870871718

> <PUBCHEM_SHAPE_MULTIPOLES>
456.38
15.89
2.7
1.27
2.3
1.1
0.11
5.47
0.15
-4.11
0.51
2.15
-0.14
-0.81

> <PUBCHEM_SHAPE_SELFOVERLAP>
966.845

> <PUBCHEM_SHAPE_VOLUME>
255.8

> <PUBCHEM_COORDINATE_TYPE>
2
5
10

$$$$

