11102033
  -OEChem-07051213153D

 68 67  0     0  0  0  0  0  0999 V2000
  -15.0310   -1.8638   -0.0968 O   0  0  0  0  0  0  0  0  0  0  0  0
   15.3907    0.2330   -0.1485 O   0  0  0  0  0  0  0  0  0  0  0  0
   -3.0872    1.1493    0.0682 C   0  0  0  0  0  0  0  0  0  0  0  0
    2.9955   -0.1433    0.0922 C   0  0  0  0  0  0  0  0  0  0  0  0
   -8.0808    0.5251   -0.0064 C   0  0  0  0  0  0  0  0  0  0  0  0
    8.0244   -0.4174    0.0177 C   0  0  0  0  0  0  0  0  0  0  0  0
   -4.3559    0.4125    0.0667 C   0  0  0  0  0  0  0  0  0  0  0  0
    4.3561    0.3728    0.0296 C   0  0  0  0  0  0  0  0  0  0  0  0
   -1.9380    0.4409    0.1014 C   0  0  0  0  0  0  0  0  0  0  0  0
    1.8719    0.6026    0.0597 C   0  0  0  0  0  0  0  0  0  0  0  0
   -6.7913    0.1238    0.0234 C   0  0  0  0  0  0  0  0  0  0  0  0
    6.8478    0.2449   -0.0078 C   0  0  0  0  0  0  0  0  0  0  0  0
   -5.5917    0.9409    0.0364 C   0  0  0  0  0  0  0  0  0  0  0  0
    5.5109   -0.3135    0.0573 C   0  0  0  0  0  0  0  0  0  0  0  0
   -0.5833    0.9546    0.0804 C   0  0  0  0  0  0  0  0  0  0  0  0
    0.4945    0.1548    0.1177 C   0  0  0  0  0  0  0  0  0  0  0  0
   -3.1624    2.6552    0.0182 C   0  0  0  0  0  0  0  0  0  0  0  0
    2.9217   -1.6384    0.2514 C   0  0  0  0  0  0  0  0  0  0  0  0
   -9.2250   -0.3876   -0.0173 C   0  0  0  0  0  0  0  0  0  0  0  0
    9.3295    0.2391   -0.0539 C   0  0  0  0  0  0  0  0  0  0  0  0
   -8.3723    2.0082   -0.0217 C   0  0  0  0  0  0  0  0  0  0  0  0
    8.0038   -1.9268    0.0752 C   0  0  0  0  0  0  0  0  0  0  0  0
  -10.5235   -0.0388   -0.0466 C   0  0  0  0  0  0  0  0  0  0  0  0
   10.5278   -0.3688   -0.0327 C   0  0  0  0  0  0  0  0  0  0  0  0
  -11.5964   -1.0151   -0.0507 C   0  0  0  0  0  0  0  0  0  0  0  0
   11.7959    0.3274   -0.0929 C   0  0  0  0  0  0  0  0  0  0  0  0
  -12.9147   -0.7518   -0.0790 C   0  0  0  0  0  0  0  0  0  0  0  0
   13.0405   -0.1818   -0.0784 C   0  0  0  0  0  0  0  0  0  0  0  0
  -13.5927    0.5831   -0.1153 C   0  0  0  0  0  0  0  0  0  0  0  0
   13.2929   -1.6602   -0.0249 C   0  0  0  0  0  0  0  0  0  0  0  0
  -13.8082   -1.9453   -0.0746 C   0  0  0  0  0  0  0  0  0  0  0  0
   14.2505    0.6842   -0.1483 C   0  0  0  0  0  0  0  0  0  0  0  0
   -4.2657   -0.6737    0.0895 H   0  0  0  0  0  0  0  0  0  0  0  0
    4.4181    1.4578   -0.0584 H   0  0  0  0  0  0  0  0  0  0  0  0
   -2.0028   -0.6473    0.1377 H   0  0  0  0  0  0  0  0  0  0  0  0
    1.9893    1.6827   -0.0330 H   0  0  0  0  0  0  0  0  0  0  0  0
   -6.6055   -0.9510    0.0382 H   0  0  0  0  0  0  0  0  0  0  0  0
    6.8772    1.3326   -0.0731 H   0  0  0  0  0  0  0  0  0  0  0  0
   -5.6931    2.0166    0.0115 H   0  0  0  0  0  0  0  0  0  0  0  0
    5.4388   -1.3877    0.1522 H   0  0  0  0  0  0  0  0  0  0  0  0
   -0.4341    2.0269    0.0162 H   0  0  0  0  0  0  0  0  0  0  0  0
    0.3132   -0.9130    0.1743 H   0  0  0  0  0  0  0  0  0  0  0  0
   -3.6698    2.9843   -0.8955 H   0  0  0  0  0  0  0  0  0  0  0  0
   -3.7112    3.0409    0.8848 H   0  0  0  0  0  0  0  0  0  0  0  0
   -2.1875    3.1466    0.0277 H   0  0  0  0  0  0  0  0  0  0  0  0
    3.3689   -2.1401   -0.6152 H   0  0  0  0  0  0  0  0  0  0  0  0
    1.9170   -2.0510    0.3457 H   0  0  0  0  0  0  0  0  0  0  0  0
    3.4512   -1.9582    1.1571 H   0  0  0  0  0  0  0  0  0  0  0  0
   -8.9665   -1.4459    0.0023 H   0  0  0  0  0  0  0  0  0  0  0  0
    9.2964    1.3253   -0.1301 H   0  0  0  0  0  0  0  0  0  0  0  0
   -7.5150    2.6785    0.0127 H   0  0  0  0  0  0  0  0  0  0  0  0
   -8.9912    2.2761    0.8432 H   0  0  0  0  0  0  0  0  0  0  0  0
   -8.9240    2.2706   -0.9323 H   0  0  0  0  0  0  0  0  0  0  0  0
    8.4315   -2.2690    1.0249 H   0  0  0  0  0  0  0  0  0  0  0  0
    7.0362   -2.4149   -0.0262 H   0  0  0  0  0  0  0  0  0  0  0  0
    8.6081   -2.3416   -0.7411 H   0  0  0  0  0  0  0  0  0  0  0  0
  -10.8058    1.0073   -0.0673 H   0  0  0  0  0  0  0  0  0  0  0  0
   10.5713   -1.4477    0.0587 H   0  0  0  0  0  0  0  0  0  0  0  0
  -11.2649   -2.0529   -0.0268 H   0  0  0  0  0  0  0  0  0  0  0  0
   11.7053    1.4126   -0.1500 H   0  0  0  0  0  0  0  0  0  0  0  0
  -14.2125    0.6678   -1.0144 H   0  0  0  0  0  0  0  0  0  0  0  0
  -12.8973    1.4251   -0.1213 H   0  0  0  0  0  0  0  0  0  0  0  0
  -14.2395    0.7022    0.7606 H   0  0  0  0  0  0  0  0  0  0  0  0
   13.5976   -1.9518    0.9856 H   0  0  0  0  0  0  0  0  0  0  0  0
   14.0993   -1.9362   -0.7142 H   0  0  0  0  0  0  0  0  0  0  0  0
   12.4377   -2.2741   -0.3149 H   0  0  0  0  0  0  0  0  0  0  0  0
  -13.3069   -2.9276   -0.0488 H   0  0  0  0  0  0  0  0  0  0  0  0
   14.0567    1.7687   -0.1988 H   0  0  0  0  0  0  0  0  0  0  0  0
  1 31  2  0  0  0  0
  2 32  2  0  0  0  0
  3  7  1  0  0  0  0
  3  9  2  0  0  0  0
  3 17  1  0  0  0  0
  4  8  1  0  0  0  0
  4 10  2  0  0  0  0
  4 18  1  0  0  0  0
  5 11  2  0  0  0  0
  5 19  1  0  0  0  0
  5 21  1  0  0  0  0
  6 12  2  0  0  0  0
  6 20  1  0  0  0  0
  6 22  1  0  0  0  0
  7 13  2  0  0  0  0
  7 33  1  0  0  0  0
  8 14  2  0  0  0  0
  8 34  1  0  0  0  0
  9 15  1  0  0  0  0
  9 35  1  0  0  0  0
 10 16  1  0  0  0  0
 10 36  1  0  0  0  0
 11 13  1  0  0  0  0
 11 37  1  0  0  0  0
 12 14  1  0  0  0  0
 12 38  1  0  0  0  0
 13 39  1  0  0  0  0
 14 40  1  0  0  0  0
 15 16  2  0  0  0  0
 15 41  1  0  0  0  0
 16 42  1  0  0  0  0
 17 43  1  0  0  0  0
 17 44  1  0  0  0  0
 17 45  1  0  0  0  0
 18 46  1  0  0  0  0
 18 47  1  0  0  0  0
 18 48  1  0  0  0  0
 19 23  2  0  0  0  0
 19 49  1  0  0  0  0
 20 24  2  0  0  0  0
 20 50  1  0  0  0  0
 21 51  1  0  0  0  0
 21 52  1  0  0  0  0
 21 53  1  0  0  0  0
 22 54  1  0  0  0  0
 22 55  1  0  0  0  0
 22 56  1  0  0  0  0
 23 25  1  0  0  0  0
 23 57  1  0  0  0  0
 24 26  1  0  0  0  0
 24 58  1  0  0  0  0
 25 27  2  0  0  0  0
 25 59  1  0  0  0  0
 26 28  2  0  0  0  0
 26 60  1  0  0  0  0
 27 29  1  0  0  0  0
 27 31  1  0  0  0  0
 28 30  1  0  0  0  0
 28 32  1  0  0  0  0
 29 61  1  0  0  0  0
 29 62  1  0  0  0  0
 29 63  1  0  0  0  0
 30 64  1  0  0  0  0
 30 65  1  0  0  0  0
 30 66  1  0  0  0  0
 31 67  1  0  0  0  0
 32 68  1  0  0  0  0
M  END
> <PUBCHEM_COMPOUND_CID>
11102033

> <PUBCHEM_CONFORMER_RMSD>
1.2

> <PUBCHEM_CONFORMER_DIVERSEORDER>
1
14
20
19
24
26
3
28
18
9
6
15
27
30
17
12
4
10
29
7
21
25
13
16
31
5
22
23
8
11
2

> <PUBCHEM_MMFF94_PARTIAL_CHARGES>
50
1 -0.57
10 -0.15
11 -0.15
12 -0.15
13 -0.15
14 -0.15
15 -0.15
16 -0.15
17 0.14
18 0.14
19 -0.15
2 -0.57
20 -0.15
21 0.14
22 0.14
23 -0.15
24 -0.15
25 -0.15
26 -0.15
27 -0.12
28 -0.12
29 0.14
3 -0.14
30 0.14
31 0.5
32 0.5
33 0.15
34 0.15
35 0.15
36 0.15
37 0.15
38 0.15
39 0.15
4 -0.14
40 0.15
41 0.15
42 0.15
49 0.15
5 -0.14
50 0.15
57 0.15
58 0.15
59 0.15
6 -0.14
60 0.15
67 0.06
68 0.06
7 -0.15
8 -0.15
9 -0.15

> <PUBCHEM_EFFECTIVE_ROTOR_COUNT>
12

> <PUBCHEM_PHARMACOPHORE_FEATURES>
8
1 1 acceptor
1 17 hydrophobe
1 18 hydrophobe
1 2 acceptor
1 21 hydrophobe
1 22 hydrophobe
1 29 hydrophobe
1 30 hydrophobe

> <PUBCHEM_HEAVY_ATOM_COUNT>
32

> <PUBCHEM_ATOM_DEF_STEREO_COUNT>
0

> <PUBCHEM_ATOM_UDEF_STEREO_COUNT>
0

> <PUBCHEM_BOND_DEF_STEREO_COUNT>
11

> <PUBCHEM_BOND_UDEF_STEREO_COUNT>
0

> <PUBCHEM_ISOTOPIC_ATOM_COUNT>
0

> <PUBCHEM_COMPONENT_COUNT>
1

> <PUBCHEM_CACTVS_TAUTO_COUNT>
1

> <PUBCHEM_CONFORMER_ID>
00A9675100000001

> <PUBCHEM_MMFF94_ENERGY>
67.0635

> <PUBCHEM_FEATURE_SELFOVERLAP>
40.595

> <PUBCHEM_SHAPE_FINGERPRINT>
12013929 94 18335419080523669571
12498461 61 17458631070323916903
12559415 90 12319744669349733534
14251764 46 18202001045480378208
14251920 1 18410573989446418436
14251920 17 18411982460643956032
15061470 23 18272370910259950036
15247644 1 18407477761532189271
15274700 256 18333731325975680969
16728433 110 18408887317203866576
20580484 106 16226045588802818867
21043394 1 18410855460128168292
21057603 130 18202285775842086775
21057603 192 11599737185489668246
21133665 82 18273495664618618555
22082594 50 18191022517364679505
232437 2 18408604769175609737
23528940 14 17894633605925413639
23581129 1 18411981364794292800
24893992 56 18410014335173115984
3092352 35 18410573985151451150
3991529 128 6050444803554047103
67123 10 18411136957550549152
9663363 56 14836404731079995140

> <PUBCHEM_SHAPE_MULTIPOLES>
646.81
83.07
1.69
0.62
12.45
0.02
0
29.16
5.25
-3.22
-0.01
0.02
0
-0.3

> <PUBCHEM_SHAPE_SELFOVERLAP>
1277.2

> <PUBCHEM_SHAPE_VOLUME>
382.2

> <PUBCHEM_COORDINATE_TYPE>
2
5
10

$$$$

