598
  -OEChem-07051212482D

 13 12  0     0  0  0  0  0  0999 V2000
    3.4030    0.0000    0.0000 S   0  0  0  0  0  0  0  0  0  0  0  0
    6.0010    0.5000    0.0000 S   0  0  0  0  0  0  0  0  0  0  0  0
    2.5369   -0.5000    0.0000 O   0  0  0  0  0  0  0  0  0  0  0  0
    2.9030    0.8660    0.0000 O   0  0  0  0  0  0  0  0  0  0  0  0
    3.9030   -0.8660    0.0000 O   0  0  0  0  0  0  0  0  0  0  0  0
    4.2690    0.5000    0.0000 C   0  0  0  0  0  0  0  0  0  0  0  0
    5.1350    0.0000    0.0000 C   0  0  0  0  0  0  0  0  0  0  0  0
    4.6675    0.9749    0.0000 H   0  0  0  0  0  0  0  0  0  0  0  0
    3.8705    0.9749    0.0000 H   0  0  0  0  0  0  0  0  0  0  0  0
    4.7365   -0.4749    0.0000 H   0  0  0  0  0  0  0  0  0  0  0  0
    5.5335   -0.4749    0.0000 H   0  0  0  0  0  0  0  0  0  0  0  0
    2.0000   -0.1900    0.0000 H   0  0  0  0  0  0  0  0  0  0  0  0
    6.5380    0.1900    0.0000 H   0  0  0  0  0  0  0  0  0  0  0  0
  1  3  1  0  0  0  0
  1  4  2  0  0  0  0
  1  5  2  0  0  0  0
  1  6  1  0  0  0  0
  2  7  1  0  0  0  0
  2 13  1  0  0  0  0
  3 12  1  0  0  0  0
  6  7  1  0  0  0  0
  6  8  1  0  0  0  0
  6  9  1  0  0  0  0
  7 10  1  0  0  0  0
  7 11  1  0  0  0  0
M  END
> <PUBCHEM_COMPOUND_CID>
598

> <PUBCHEM_COMPOUND_CANONICALIZED>
1

> <PUBCHEM_CACTVS_COMPLEXITY>
118

> <PUBCHEM_CACTVS_HBOND_ACCEPTOR>
4

> <PUBCHEM_CACTVS_HBOND_DONOR>
2

> <PUBCHEM_CACTVS_ROTATABLE_BOND>
2

> <PUBCHEM_CACTVS_SUBSKEYS>
AAADcYBAMABgAAAAAAAAAAAAAAAAAAAAAAAAAAAAAAAAAAAAAAAAGAQACAAAAACEQACAAAAAAIYAAAAAAHBAAAAAAAAAAAAAAAAAAAAAAAAAAAAAAAAAAAAAAAAAAAAAAAAAAAAAAAAAAAAAAAAAAAAAAA==

> <PUBCHEM_IUPAC_OPENEYE_NAME>
2-sulfanylethanesulfonic acid

> <PUBCHEM_IUPAC_CAS_NAME>
2-mercaptoethanesulfonic acid

> <PUBCHEM_IUPAC_NAME>
2-sulfanylethanesulfonic acid

> <PUBCHEM_IUPAC_SYSTEMATIC_NAME>
2-sulfanylethanesulfonic acid

> <PUBCHEM_IUPAC_TRADITIONAL_NAME>
2-mercaptoethanesulfonic acid

> <PUBCHEM_IUPAC_INCHI>
InChI=1S/C2H6O3S2/c3-7(4,5)2-1-6/h6H,1-2H2,(H,3,4,5)

> <PUBCHEM_IUPAC_INCHIKEY>
ZNEWHQLOPFWXOF-UHFFFAOYSA-N

> <PUBCHEM_XLOGP3_AA>
-0.6

> <PUBCHEM_EXACT_MASS>
141.975836

> <PUBCHEM_MOLECULAR_FORMULA>
C2H6O3S2

> <PUBCHEM_MOLECULAR_WEIGHT>
142.19724

> <PUBCHEM_OPENEYE_CAN_SMILES>
C(CS(=O)(=O)O)S

> <PUBCHEM_OPENEYE_ISO_SMILES>
C(CS(=O)(=O)O)S

> <PUBCHEM_CACTVS_TPSA>
63.8

> <PUBCHEM_MONOISOTOPIC_WEIGHT>
141.975836

> <PUBCHEM_TOTAL_CHARGE>
0

> <PUBCHEM_HEAVY_ATOM_COUNT>
7

> <PUBCHEM_ATOM_DEF_STEREO_COUNT>
0

> <PUBCHEM_ATOM_UDEF_STEREO_COUNT>
0

> <PUBCHEM_BOND_DEF_STEREO_COUNT>
0

> <PUBCHEM_BOND_UDEF_STEREO_COUNT>
0

> <PUBCHEM_ISOTOPIC_ATOM_COUNT>
0

> <PUBCHEM_COMPONENT_COUNT>
1

> <PUBCHEM_CACTVS_TAUTO_COUNT>
1

> <PUBCHEM_COORDINATE_TYPE>
1
5
255

$$$$

