7847045
  -OEChem-06241222483D

 46 48  0     1  0  0  0  0  0999 V2000
   -2.9929    1.9077   -3.3246 Cl  0  0  0  0  0  0  0  0  0  0  0  0
    2.7334    0.7921   -1.7665 S   0  0  0  0  0  0  0  0  0  0  0  0
    0.7404   -3.5748    0.3236 O   0  0  0  0  0  0  0  0  0  0  0  0
   -0.6447   -1.8207    1.9536 O   0  0  0  0  0  0  0  0  0  0  0  0
    0.6975   -2.4222   -1.6743 O   0  0  0  0  0  0  0  0  0  0  0  0
   -2.4910   -2.0355    0.5552 N   0  0  0  0  0  0  0  0  0  0  0  0
    2.9992   -0.2612    0.5728 N   0  0  0  0  0  0  0  0  0  0  0  0
   -3.2463   -0.9117    1.0594 C   0  0  1  0  0  0  0  0  0  0  0  0
   -2.8520    0.3754    0.3677 C   0  0  0  0  0  0  0  0  0  0  0  0
   -4.7433   -1.1974    0.9578 C   0  0  0  0  0  0  0  0  0  0  0  0
    3.5135   -1.8038   -1.2864 C   0  0  0  0  0  0  0  0  0  0  0  0
    2.8087   -2.9949   -0.6111 C   0  0  0  0  0  0  0  0  0  0  0  0
    3.1036   -0.5036   -0.7130 C   0  0  0  0  0  0  0  0  0  0  0  0
   -3.0773    0.5298   -1.0002 C   0  0  0  0  0  0  0  0  0  0  0  0
   -2.2630    1.4073    1.0983 C   0  0  0  0  0  0  0  0  0  0  0  0
   -1.2470   -2.3943    1.0500 C   0  0  0  0  0  0  0  0  0  0  0  0
    2.3960    1.7916   -0.4027 C   0  0  0  0  0  0  0  0  0  0  0  0
    2.5941    1.0513    0.7668 C   0  0  0  0  0  0  0  0  0  0  0  0
   -0.6903   -3.6082    0.3371 C   0  0  0  0  0  0  0  0  0  0  0  0
    1.3041   -2.9450   -0.7496 C   0  0  0  0  0  0  0  0  0  0  0  0
   -2.7140    1.7163   -1.6372 C   0  0  0  0  0  0  0  0  0  0  0  0
   -1.8995    2.5937    0.4613 C   0  0  0  0  0  0  0  0  0  0  0  0
   -2.1251    2.7482   -0.9065 C   0  0  0  0  0  0  0  0  0  0  0  0
    1.9854    3.1340   -0.3699 C   0  0  0  0  0  0  0  0  0  0  0  0
    2.3729    1.6794    2.0118 C   0  0  0  0  0  0  0  0  0  0  0  0
    1.7734    3.7315    0.8750 C   0  0  0  0  0  0  0  0  0  0  0  0
    1.9641    3.0154    2.0517 C   0  0  0  0  0  0  0  0  0  0  0  0
   -3.0100   -0.8207    2.1277 H   0  0  0  0  0  0  0  0  0  0  0  0
   -2.8732   -2.5449   -0.2367 H   0  0  0  0  0  0  0  0  0  0  0  0
   -5.3314   -0.3591    1.3470 H   0  0  0  0  0  0  0  0  0  0  0  0
   -5.0036   -2.0909    1.5366 H   0  0  0  0  0  0  0  0  0  0  0  0
   -5.0606   -1.3798   -0.0751 H   0  0  0  0  0  0  0  0  0  0  0  0
    4.5968   -1.9200   -1.1593 H   0  0  0  0  0  0  0  0  0  0  0  0
    3.3175   -1.8461   -2.3651 H   0  0  0  0  0  0  0  0  0  0  0  0
    3.1560   -3.9333   -1.0568 H   0  0  0  0  0  0  0  0  0  0  0  0
    3.0686   -3.0094    0.4547 H   0  0  0  0  0  0  0  0  0  0  0  0
   -3.5303   -0.2743   -1.5754 H   0  0  0  0  0  0  0  0  0  0  0  0
   -2.0797    1.3025    2.1642 H   0  0  0  0  0  0  0  0  0  0  0  0
   -0.9923   -4.4945    0.9053 H   0  0  0  0  0  0  0  0  0  0  0  0
   -1.0962   -3.7170   -0.6749 H   0  0  0  0  0  0  0  0  0  0  0  0
   -1.4441    3.3981    1.0310 H   0  0  0  0  0  0  0  0  0  0  0  0
   -1.8363    3.6782   -1.3893 H   0  0  0  0  0  0  0  0  0  0  0  0
    1.8329    3.6987   -1.2844 H   0  0  0  0  0  0  0  0  0  0  0  0
    2.5179    1.1290    2.9371 H   0  0  0  0  0  0  0  0  0  0  0  0
    1.4537    4.7691    0.9226 H   0  0  0  0  0  0  0  0  0  0  0  0
    1.7930    3.4964    3.0108 H   0  0  0  0  0  0  0  0  0  0  0  0
  1 21  1  0  0  0  0
  2 13  1  0  0  0  0
  2 17  1  0  0  0  0
  3 19  1  0  0  0  0
  3 20  1  0  0  0  0
  4 16  2  0  0  0  0
  5 20  2  0  0  0  0
  6  8  1  0  0  0  0
  6 16  1  0  0  0  0
  6 29  1  0  0  0  0
  7 13  2  0  0  0  0
  7 18  1  0  0  0  0
  8  9  1  0  0  0  0
  8 10  1  0  0  0  0
  8 28  1  0  0  0  0
  9 14  2  0  0  0  0
  9 15  1  0  0  0  0
 10 30  1  0  0  0  0
 10 31  1  0  0  0  0
 10 32  1  0  0  0  0
 11 12  1  0  0  0  0
 11 13  1  0  0  0  0
 11 33  1  0  0  0  0
 11 34  1  0  0  0  0
 12 20  1  0  0  0  0
 12 35  1  0  0  0  0
 12 36  1  0  0  0  0
 14 21  1  0  0  0  0
 14 37  1  0  0  0  0
 15 22  2  0  0  0  0
 15 38  1  0  0  0  0
 16 19  1  0  0  0  0
 17 18  1  0  0  0  0
 17 24  2  0  0  0  0
 18 25  2  0  0  0  0
 19 39  1  0  0  0  0
 19 40  1  0  0  0  0
 21 23  2  0  0  0  0
 22 23  1  0  0  0  0
 22 41  1  0  0  0  0
 23 42  1  0  0  0  0
 24 26  1  0  0  0  0
 24 43  1  0  0  0  0
 25 27  1  0  0  0  0
 25 44  1  0  0  0  0
 26 27  2  0  0  0  0
 26 45  1  0  0  0  0
 27 46  1  0  0  0  0
M  END
> <PUBCHEM_COMPOUND_CID>
7847045

> <PUBCHEM_CONFORMER_RMSD>
1.2

> <PUBCHEM_CONFORMER_DIVERSEORDER>
2
371
203
144
123
211
384
45
282
260
85
106
183
14
233
12
353
164
20
101
373
156
197
68
157
327
122
245
314
71
17
154
334
187
270
347
165
284
21
35
178
18
111
135
354
6
223
113
75
174
27
312
70
108
61
320
92
236
344
58
41
220
133
129
217
293
210
385
208
147
127
352
170
13
350
9
132
240
30
38
313
189
364
5
265
72
73
341
76
214
324
188
10
280
249
256
198
199
257
74
356
367
366
194
357
229
205
172
134
119
286
274
329
234
180
117
23
227
87
290
175
328
235
90
390
308
25
114
138
263
67
380
379
252
377
182
362
292
342
204
89
289
34
16
31
382
148
100
326
177
258
104
56
283
291
295
231
267
222
276
49
116
391
333
19
7
32
259
47
281
112
126
179
319
330
193
388
242
22
218
131
81
278
310
105
59
186
338
143
202
361
360
150
301
124
238
264
300
97
52
316
343
368
66
82
299
169
273
317
78
340
184
272
358
279
57
298
84
46
207
152
1
332
387
28
247
79
155
254
212
224
146
287
381
53
228
195
250
337
121
64
378
86
345
271
94
50
372
389
40
261
303
42
305
297
376
160
166
109
162
63
266
359
140
225
185
246
142
307
83
158
26
349
60
8
130
51
226
365
171
149
191
151
321
15
322
370
167
243
54
219
348
315
262
115
374
269
285
209
331
36
351
302
369
216
268
137
323
200
277
255
77
65
335
88
239
33
363
141
103
69
98
318
80
107
136
91
201
237
4
311
325
346
3
375
181
221
192
355
251
173
230
11
275
244
29
24
304
161
99
190
248
95
232
163
118
309
153
196
215
110
120
339
288
168
93
139
44
128
253
48
383
206
125
62
55
96
176
213
336
296
145
39
306
43
102
294
241
386
159
37

> <PUBCHEM_MMFF94_PARTIAL_CHARGES>
35
1 -0.18
11 0.18
12 0.06
13 0.2
14 -0.15
15 -0.15
16 0.57
17 0.04
18 0.23
19 0.34
2 -0.08
20 0.66
21 0.18
22 -0.15
23 -0.15
24 -0.15
25 -0.15
26 -0.15
27 -0.15
29 0.37
3 -0.43
37 0.15
38 0.15
4 -0.57
41 0.15
42 0.15
43 0.15
44 0.15
45 0.15
46 0.15
5 -0.57
6 -0.73
7 -0.57
8 0.44
9 -0.14

> <PUBCHEM_EFFECTIVE_ROTOR_COUNT>
9

> <PUBCHEM_PHARMACOPHORE_FEATURES>
7
1 4 acceptor
1 5 acceptor
1 6 donor
1 7 acceptor
5 2 7 13 17 18 rings
6 17 18 24 25 26 27 rings
6 9 14 15 21 22 23 rings

> <PUBCHEM_HEAVY_ATOM_COUNT>
27

> <PUBCHEM_ATOM_DEF_STEREO_COUNT>
1

> <PUBCHEM_ATOM_UDEF_STEREO_COUNT>
0

> <PUBCHEM_BOND_DEF_STEREO_COUNT>
0

> <PUBCHEM_BOND_UDEF_STEREO_COUNT>
0

> <PUBCHEM_ISOTOPIC_ATOM_COUNT>
0

> <PUBCHEM_COMPONENT_COUNT>
1

> <PUBCHEM_CACTVS_TAUTO_COUNT>
4

> <PUBCHEM_CONFORMER_ID>
0077BC8500000002

> <PUBCHEM_MMFF94_ENERGY>
45.8844

> <PUBCHEM_FEATURE_SELFOVERLAP>
35.591

> <PUBCHEM_SHAPE_FINGERPRINT>
11513181 2 16601789113473617548
12100795 323 17977667511085358544
12156800 1 12167217418436205898
12403259 226 18339909489653145267
12539773 59 16885544996864826529
12553582 1 17902507422041764328
13122387 1 18122901190376000522
13402501 40 18410845538833004778
13422730 73 17840621349958571261
1361 2 17975692793151305739
13615921 28 18046058534497535676
13773456 30 18195271964818931429
14114206 34 17831285469710271532
14114207 22 5963416637455496378
14725015 67 18342745113156119403
17921350 177 16486135178940327590
17977149 70 17690815905958040716
19026451 147 17757871031110429239
19930381 70 18335132043242687395
20764821 26 18195511812977091346
20765182 5 15307595641538094921
20775438 99 17908747043772727991
21285901 2 17985840237614012205
21315764 21 16694421305708103173
23536364 44 17902750302785271446
23559900 14 18413102840737556557
238 59 18263381285620396623
3493558 16 16669435690400017630
35225 105 18128269886642701988
3524813 1 18341596148963816398
463206 1 17975698612204114313

> <PUBCHEM_SHAPE_MULTIPOLES>
533.8
6.97
5.42
2.28
2.88
1.54
-1.02
-0.27
-0.86
-1.97
0.59
0.77
-1.26
3.21

> <PUBCHEM_SHAPE_SELFOVERLAP>
1115.313

> <PUBCHEM_SHAPE_VOLUME>
303.7

> <PUBCHEM_COORDINATE_TYPE>
2
5
10

$$$$

