62758
  -OEChem-07051213143D

 30 32  0     0  0  0  0  0  0999 V2000
    0.3938   -0.3857    0.0000 C   0  0  0  0  0  0  0  0  0  0  0  0
    1.2126    0.7737    0.0000 C   0  0  0  0  0  0  0  0  0  0  0  0
   -1.0382   -0.2345    0.0000 C   0  0  0  0  0  0  0  0  0  0  0  0
    1.0611   -1.6361    0.0001 C   0  0  0  0  0  0  0  0  0  0  0  0
   -1.5963    1.0707    0.0000 C   0  0  0  0  0  0  0  0  0  0  0  0
    2.6134    0.6597   -0.0002 C   0  0  0  0  0  0  0  0  0  0  0  0
    0.6259    2.0418    0.0001 C   0  0  0  0  0  0  0  0  0  0  0  0
   -0.7574    2.1880    0.0000 C   0  0  0  0  0  0  0  0  0  0  0  0
    2.4551   -1.7354   -0.0001 C   0  0  0  0  0  0  0  0  0  0  0  0
    3.2314   -0.5870   -0.0004 C   0  0  0  0  0  0  0  0  0  0  0  0
   -1.9528   -1.3176    0.0002 C   0  0  0  0  0  0  0  0  0  0  0  0
    0.4180   -2.9872    0.0001 C   0  0  0  0  0  0  0  0  0  0  0  0
   -2.9899    1.2523   -0.0002 C   0  0  0  0  0  0  0  0  0  0  0  0
    3.5149    1.8574    0.0004 C   0  0  0  0  0  0  0  0  0  0  0  0
   -3.3365   -1.1229    0.0002 C   0  0  0  0  0  0  0  0  0  0  0  0
   -3.8551    0.1626   -0.0002 C   0  0  0  0  0  0  0  0  0  0  0  0
    1.2153    2.9551    0.0001 H   0  0  0  0  0  0  0  0  0  0  0  0
   -1.1729    3.1941   -0.0001 H   0  0  0  0  0  0  0  0  0  0  0  0
    2.9662   -2.6950   -0.0001 H   0  0  0  0  0  0  0  0  0  0  0  0
    4.3139   -0.6816   -0.0004 H   0  0  0  0  0  0  0  0  0  0  0  0
   -1.7063   -2.3605    0.0004 H   0  0  0  0  0  0  0  0  0  0  0  0
    1.1571   -3.7999    0.0001 H   0  0  0  0  0  0  0  0  0  0  0  0
   -0.1534   -3.1532    0.9187 H   0  0  0  0  0  0  0  0  0  0  0  0
   -0.1535   -3.1532   -0.9185 H   0  0  0  0  0  0  0  0  0  0  0  0
   -3.4173    2.2535   -0.0004 H   0  0  0  0  0  0  0  0  0  0  0  0
    4.5738    1.5748    0.0002 H   0  0  0  0  0  0  0  0  0  0  0  0
    3.3498    2.4654   -0.8953 H   0  0  0  0  0  0  0  0  0  0  0  0
    3.3498    2.4645    0.8969 H   0  0  0  0  0  0  0  0  0  0  0  0
   -4.0065   -1.9781    0.0003 H   0  0  0  0  0  0  0  0  0  0  0  0
   -4.9295    0.3191   -0.0004 H   0  0  0  0  0  0  0  0  0  0  0  0
  1  2  1  0  0  0  0
  1  3  1  0  0  0  0
  1  4  2  0  0  0  0
  2  6  2  0  0  0  0
  2  7  1  0  0  0  0
  3  5  1  0  0  0  0
  3 11  2  0  0  0  0
  4  9  1  0  0  0  0
  4 12  1  0  0  0  0
  5  8  1  0  0  0  0
  5 13  2  0  0  0  0
  6 10  1  0  0  0  0
  6 14  1  0  0  0  0
  7  8  2  0  0  0  0
  7 17  1  0  0  0  0
  8 18  1  0  0  0  0
  9 10  2  0  0  0  0
  9 19  1  0  0  0  0
 10 20  1  0  0  0  0
 11 15  1  0  0  0  0
 11 21  1  0  0  0  0
 12 22  1  0  0  0  0
 12 23  1  0  0  0  0
 12 24  1  0  0  0  0
 13 16  1  0  0  0  0
 13 25  1  0  0  0  0
 14 26  1  0  0  0  0
 14 27  1  0  0  0  0
 14 28  1  0  0  0  0
 15 16  2  0  0  0  0
 15 29  1  0  0  0  0
 16 30  1  0  0  0  0
M  END
> <PUBCHEM_COMPOUND_CID>
62758

> <PUBCHEM_CONFORMER_RMSD>
0.4

> <PUBCHEM_CONFORMER_DIVERSEORDER>
1

> <PUBCHEM_MMFF94_PARTIAL_CHARGES>
20
10 -0.15
11 -0.15
12 0.14
13 -0.15
14 0.14
15 -0.15
16 -0.15
17 0.15
18 0.15
19 0.15
20 0.15
21 0.15
25 0.15
29 0.15
30 0.15
4 -0.14
6 -0.14
7 -0.15
8 -0.15
9 -0.15

> <PUBCHEM_EFFECTIVE_ROTOR_COUNT>
0

> <PUBCHEM_PHARMACOPHORE_FEATURES>
3
6 1 2 3 5 7 8 rings
6 1 2 4 6 9 10 rings
6 3 5 11 13 15 16 rings

> <PUBCHEM_HEAVY_ATOM_COUNT>
16

> <PUBCHEM_ATOM_DEF_STEREO_COUNT>
0

> <PUBCHEM_ATOM_UDEF_STEREO_COUNT>
0

> <PUBCHEM_BOND_DEF_STEREO_COUNT>
0

> <PUBCHEM_BOND_UDEF_STEREO_COUNT>
0

> <PUBCHEM_ISOTOPIC_ATOM_COUNT>
0

> <PUBCHEM_COMPONENT_COUNT>
1

> <PUBCHEM_CACTVS_TAUTO_COUNT>
1

> <PUBCHEM_CONFORMER_ID>
0000F52600000001

> <PUBCHEM_MMFF94_ENERGY>
69.4443

> <PUBCHEM_FEATURE_SELFOVERLAP>
15.272

> <PUBCHEM_SHAPE_FINGERPRINT>
10411042 1 17257652751866866575
10608611 8 18340491157110569541
10967382 1 18338798918362522118
10980938 120 18410573980861778114
11132069 177 18410863161052126448
11471102 20 18410860966677253021
11578080 2 16842768419866713958
11806522 49 18265618689104762039
12382932 28 18409166640554228217
13140716 1 18410855503109509690
13221675 6 18337953497068698711
13380535 76 18412827958224122891
13897977 150 18410858788828224917
14144814 61 18410292519033765521
14178342 30 17976832196276779552
14251717 144 18410017619662670991
14790565 3 18195512701972985909
15196674 1 18410575080610795685
15219456 202 18413109476429944869
15309172 13 18337944606465128315
15442244 35 18121499325824731298
15536298 74 18334012796155705380
16945 1 18122626321090613572
18186145 218 18408880750319651148
193761 8 17906172102491268484
19591789 44 18194397793118542390
200 152 18114474400723316365
20201158 50 18340487858728485067
20510252 161 18260825968989707665
20645477 70 18336270136651380135
21267235 1 18410283740073438415
21501502 16 18337952401862542313
221490 88 18412254056331177434
22721475 48 18338231694958819819
2334 1 18410855425852858442
23402539 116 18262809466976214366
23463225 33 18412828009900672496
23559900 14 18265059218111877570
2748010 2 18411417302043350358
2871803 45 18411705391533519055
335352 9 18122625230084550765
34934 24 18409175398140374117
43471831 8 18413111662542145778
5104073 3 18411418423335822561
528886 8 18410016507012745376
53812653 166 18262521390250005176
7364860 26 18263362645599715566
8809292 202 18272364308515135131
9709674 26 18337950203013821303

> <PUBCHEM_SHAPE_MULTIPOLES>
329.27
5.74
2.76
0.62
1.32
0.68
0
-0.64
0
-0.86
0
0
0
0

> <PUBCHEM_SHAPE_SELFOVERLAP>
739.573

> <PUBCHEM_SHAPE_VOLUME>
162.8

> <PUBCHEM_COORDINATE_TYPE>
2
5
10

$$$$

