19536
  -OEChem-07051213033D

 32 32  0     0  0  0  0  0  0999 V2000
    1.5940   -0.1395   -1.4730 O   0  0  0  0  0  0  0  0  0  0  0  0
   -1.3454    2.6898   -0.5698 O   0  0  0  0  0  0  0  0  0  0  0  0
   -0.1868    0.7829    0.2688 N   0  0  0  0  0  0  0  0  0  0  0  0
    3.1569   -0.7844    0.1156 N   0  0  0  0  0  0  0  0  0  0  0  0
    1.0244    0.2487    0.8228 C   0  0  0  0  0  0  0  0  0  0  0  0
   -1.3416   -0.1125    0.1577 C   0  0  0  0  0  0  0  0  0  0  0  0
    1.9358   -0.2353   -0.2912 C   0  0  0  0  0  0  0  0  0  0  0  0
   -0.3414    2.1567   -0.0906 C   0  0  0  0  0  0  0  0  0  0  0  0
   -2.5765    0.4323    0.3341 C   0  0  0  0  0  0  0  0  0  0  0  0
   -1.0955   -1.4231   -0.1147 C   0  0  0  0  0  0  0  0  0  0  0  0
    4.1402   -1.2960   -0.8359 C   0  0  0  0  0  0  0  0  0  0  0  0
    3.5380   -0.8867    1.5187 C   0  0  0  0  0  0  0  0  0  0  0  0
   -3.6759   -0.4197    0.2279 C   0  0  0  0  0  0  0  0  0  0  0  0
   -2.1950   -2.2749   -0.2209 C   0  0  0  0  0  0  0  0  0  0  0  0
    0.8540    3.0350    0.2003 C   0  0  0  0  0  0  0  0  0  0  0  0
   -3.4852   -1.7732   -0.0496 C   0  0  0  0  0  0  0  0  0  0  0  0
    0.7963   -0.5690    1.5152 H   0  0  0  0  0  0  0  0  0  0  0  0
    1.5475    1.0108    1.4047 H   0  0  0  0  0  0  0  0  0  0  0  0
   -2.7731    1.4542    0.6309 H   0  0  0  0  0  0  0  0  0  0  0  0
   -0.1129   -1.8512   -0.2636 H   0  0  0  0  0  0  0  0  0  0  0  0
    4.3132   -2.3560   -0.6292 H   0  0  0  0  0  0  0  0  0  0  0  0
    5.0718   -0.7355   -0.7165 H   0  0  0  0  0  0  0  0  0  0  0  0
    3.7852   -1.1853   -1.8636 H   0  0  0  0  0  0  0  0  0  0  0  0
    3.5651    0.1131    1.9605 H   0  0  0  0  0  0  0  0  0  0  0  0
    4.5255   -1.3467    1.6197 H   0  0  0  0  0  0  0  0  0  0  0  0
    2.8049   -1.5000    2.0497 H   0  0  0  0  0  0  0  0  0  0  0  0
   -4.6798   -0.0336    0.3797 H   0  0  0  0  0  0  0  0  0  0  0  0
   -2.0472   -3.3289   -0.4382 H   0  0  0  0  0  0  0  0  0  0  0  0
    1.7582    2.6356   -0.2647 H   0  0  0  0  0  0  0  0  0  0  0  0
    0.9886    3.1415    1.2798 H   0  0  0  0  0  0  0  0  0  0  0  0
    0.6800    4.0310   -0.2198 H   0  0  0  0  0  0  0  0  0  0  0  0
   -4.3409   -2.4372   -0.1285 H   0  0  0  0  0  0  0  0  0  0  0  0
  1  7  2  0  0  0  0
  2  8  2  0  0  0  0
  3  5  1  0  0  0  0
  3  6  1  0  0  0  0
  3  8  1  0  0  0  0
  4  7  1  0  0  0  0
  4 11  1  0  0  0  0
  4 12  1  0  0  0  0
  5  7  1  0  0  0  0
  5 17  1  0  0  0  0
  5 18  1  0  0  0  0
  6  9  2  0  0  0  0
  6 10  1  0  0  0  0
  8 15  1  0  0  0  0
  9 13  1  0  0  0  0
  9 19  1  0  0  0  0
 10 14  2  0  0  0  0
 10 20  1  0  0  0  0
 11 21  1  0  0  0  0
 11 22  1  0  0  0  0
 11 23  1  0  0  0  0
 12 24  1  0  0  0  0
 12 25  1  0  0  0  0
 12 26  1  0  0  0  0
 13 16  2  0  0  0  0
 13 27  1  0  0  0  0
 14 16  1  0  0  0  0
 14 28  1  0  0  0  0
 15 29  1  0  0  0  0
 15 30  1  0  0  0  0
 15 31  1  0  0  0  0
 16 32  1  0  0  0  0
M  END
> <PUBCHEM_COMPOUND_CID>
19536

> <PUBCHEM_CONFORMER_RMSD>
0.6

> <PUBCHEM_CONFORMER_DIVERSEORDER>
1
13
27
30
4
22
15
19
18
20
17
8
25
14
23
21
10
6
24
16
29
31
9
12
7
2
28
26
5
11
3

> <PUBCHEM_MMFF94_PARTIAL_CHARGES>
21
1 -0.57
10 -0.15
11 0.3
12 0.3
13 -0.15
14 -0.15
15 0.06
16 -0.15
19 0.15
2 -0.57
20 0.15
27 0.15
28 0.15
3 -0.48
32 0.15
4 -0.66
5 0.36
6 0.12
7 0.57
8 0.57
9 -0.15

> <PUBCHEM_EFFECTIVE_ROTOR_COUNT>
5

> <PUBCHEM_PHARMACOPHORE_FEATURES>
3
1 1 acceptor
1 2 acceptor
6 6 9 10 13 14 16 rings

> <PUBCHEM_HEAVY_ATOM_COUNT>
16

> <PUBCHEM_ATOM_DEF_STEREO_COUNT>
0

> <PUBCHEM_ATOM_UDEF_STEREO_COUNT>
0

> <PUBCHEM_BOND_DEF_STEREO_COUNT>
0

> <PUBCHEM_BOND_UDEF_STEREO_COUNT>
0

> <PUBCHEM_ISOTOPIC_ATOM_COUNT>
0

> <PUBCHEM_COMPONENT_COUNT>
1

> <PUBCHEM_CACTVS_TAUTO_COUNT>
1

> <PUBCHEM_CONFORMER_ID>
00004C5000000001

> <PUBCHEM_MMFF94_ENERGY>
65.3578

> <PUBCHEM_FEATURE_SELFOVERLAP>
15.223

> <PUBCHEM_SHAPE_FINGERPRINT>
10130415 120 18342736295419299299
10989021 7 18337671910533582177
11578080 2 17416154774413416060
12553582 1 18412826888777480675
13140716 1 18336819785228099411
15279308 51 18116717305433138111
15375462 189 18202280294825331410
15442244 35 18336541621497256265
16752209 62 18198632214118132899
16945 1 18339083794990234987
17804303 29 18187358818483055803
20361792 2 18340209596260750271
20510252 161 18263082287414638008
20645477 70 18050858719477695239
20871998 22 18337111168019355776
20871999 31 18412822516568916452
21029758 27 18342444929417567139
21296965 67 18411702071265297249
21501502 16 18046059368296222847
22959321 94 18341618143744371538
2297311 6 18335408111135316078
232386 152 18411132507078324390
23366157 5 17985268465091311637
23402539 116 18261682566073089919
23419403 2 14785243282397714927
23532345 42 18261115140885110778
23552423 10 17906731397992107799
23557571 272 18261108621504628392
23559900 14 18262801916766813606
23598294 1 18196937883964086736
2748010 2 18267877086009299797
43471831 8 17473831619347461081
5902787 121 18339362959290657146
6992083 37 18262500560075130361
7364860 26 18046907069843491537
74978 22 18267304227540141251
77492 1 17560515235170150562
81228 2 18263628727181347153
81539 233 17693383243574683660
90316 7 18339928224241974664

> <PUBCHEM_SHAPE_MULTIPOLES>
307.57
6.36
2.82
0.99
2.15
2.26
0.06
-4.62
0.28
-0.53
-0.29
0.89
-0.18
0.06

> <PUBCHEM_SHAPE_SELFOVERLAP>
628.569

> <PUBCHEM_SHAPE_VOLUME>
177.9

> <PUBCHEM_COORDINATE_TYPE>
2
5
10

$$$$

