442188
  -OEChem-07051212573D

 48 51  0     1  0  0  0  0  0999 V2000
   -2.2881    1.9302    0.8791 O   0  0  0  0  0  0  0  0  0  0  0  0
   -4.9130    2.2663    0.2988 O   0  0  0  0  0  0  0  0  0  0  0  0
    4.6305    2.0844   -0.4884 O   0  0  0  0  0  0  0  0  0  0  0  0
    5.5754   -0.4385    0.1897 O   0  0  0  0  0  0  0  0  0  0  0  0
   -0.3518   -1.8981   -0.0126 N   0  0  2  0  0  0  0  0  0  0  0  0
   -0.8733   -0.5908    0.4568 C   0  0  1  0  0  0  0  0  0  0  0  0
   -0.0024    0.5122   -0.1937 C   0  0  0  0  0  0  0  0  0  0  0  0
   -1.2554   -2.9957    0.3424 C   0  0  0  0  0  0  0  0  0  0  0  0
   -2.3580   -0.3851    0.1627 C   0  0  0  0  0  0  0  0  0  0  0  0
    0.9927   -2.1429    0.5368 C   0  0  0  0  0  0  0  0  0  0  0  0
   -2.5664   -2.8361   -0.4233 C   0  0  0  0  0  0  0  0  0  0  0  0
   -3.1646   -1.4682   -0.2354 C   0  0  0  0  0  0  0  0  0  0  0  0
    1.4807    0.2589   -0.0748 C   0  0  0  0  0  0  0  0  0  0  0  0
    1.9586   -1.0219    0.2429 C   0  0  0  0  0  0  0  0  0  0  0  0
   -2.9654    0.8670    0.3555 C   0  0  0  0  0  0  0  0  0  0  0  0
   -4.5287   -1.2717   -0.4967 C   0  0  0  0  0  0  0  0  0  0  0  0
    2.3908    1.2937   -0.3294 C   0  0  0  0  0  0  0  0  0  0  0  0
    3.3392   -1.2410    0.3401 C   0  0  0  0  0  0  0  0  0  0  0  0
   -4.3266    1.0510    0.1064 C   0  0  0  0  0  0  0  0  0  0  0  0
   -5.1064   -0.0159   -0.3268 C   0  0  0  0  0  0  0  0  0  0  0  0
    3.7633    1.0629   -0.2421 C   0  0  0  0  0  0  0  0  0  0  0  0
    4.2371   -0.2024    0.0955 C   0  0  0  0  0  0  0  0  0  0  0  0
   -4.9287    3.1606   -0.8118 C   0  0  0  0  0  0  0  0  0  0  0  0
    5.0174    2.8886    0.6241 C   0  0  0  0  0  0  0  0  0  0  0  0
    6.2430   -0.8674   -0.9955 C   0  0  0  0  0  0  0  0  0  0  0  0
   -0.7676   -0.5392    1.5512 H   0  0  0  0  0  0  0  0  0  0  0  0
   -0.1804    1.4817    0.2774 H   0  0  0  0  0  0  0  0  0  0  0  0
   -0.2469    0.6083   -1.2604 H   0  0  0  0  0  0  0  0  0  0  0  0
   -1.4401   -3.0196    1.4248 H   0  0  0  0  0  0  0  0  0  0  0  0
   -0.8157   -3.9616    0.0648 H   0  0  0  0  0  0  0  0  0  0  0  0
    1.3895   -3.0629    0.0891 H   0  0  0  0  0  0  0  0  0  0  0  0
    0.9510   -2.2859    1.6248 H   0  0  0  0  0  0  0  0  0  0  0  0
   -3.2702   -3.6026   -0.0771 H   0  0  0  0  0  0  0  0  0  0  0  0
   -2.3975   -2.9971   -1.4956 H   0  0  0  0  0  0  0  0  0  0  0  0
   -5.1488   -2.1014   -0.8265 H   0  0  0  0  0  0  0  0  0  0  0  0
    2.0266    2.2833   -0.5960 H   0  0  0  0  0  0  0  0  0  0  0  0
    3.7145   -2.2264    0.6072 H   0  0  0  0  0  0  0  0  0  0  0  0
   -6.1664    0.1191   -0.5233 H   0  0  0  0  0  0  0  0  0  0  0  0
   -2.9011    2.6759    0.9963 H   0  0  0  0  0  0  0  0  0  0  0  0
   -5.5200    2.7404   -1.6314 H   0  0  0  0  0  0  0  0  0  0  0  0
   -3.9110    3.3732   -1.1544 H   0  0  0  0  0  0  0  0  0  0  0  0
   -5.3921    4.0975   -0.4907 H   0  0  0  0  0  0  0  0  0  0  0  0
    5.5213    2.2810    1.3823 H   0  0  0  0  0  0  0  0  0  0  0  0
    4.1448    3.3857    1.0596 H   0  0  0  0  0  0  0  0  0  0  0  0
    5.7140    3.6527    0.2686 H   0  0  0  0  0  0  0  0  0  0  0  0
    6.1552   -0.1116   -1.7824 H   0  0  0  0  0  0  0  0  0  0  0  0
    5.8328   -1.8211   -1.3427 H   0  0  0  0  0  0  0  0  0  0  0  0
    7.3018   -1.0066   -0.7610 H   0  0  0  0  0  0  0  0  0  0  0  0
  1 15  1  0  0  0  0
  1 39  1  0  0  0  0
  2 19  1  0  0  0  0
  2 23  1  0  0  0  0
  3 21  1  0  0  0  0
  3 24  1  0  0  0  0
  4 22  1  0  0  0  0
  4 25  1  0  0  0  0
  5  6  1  0  0  0  0
  5  8  1  0  0  0  0
  5 10  1  0  0  0  0
  6  7  1  0  0  0  0
  6  9  1  0  0  0  0
  6 26  1  0  0  0  0
  7 13  1  0  0  0  0
  7 27  1  0  0  0  0
  7 28  1  0  0  0  0
  8 11  1  0  0  0  0
  8 29  1  0  0  0  0
  8 30  1  0  0  0  0
  9 12  2  0  0  0  0
  9 15  1  0  0  0  0
 10 14  1  0  0  0  0
 10 31  1  0  0  0  0
 10 32  1  0  0  0  0
 11 12  1  0  0  0  0
 11 33  1  0  0  0  0
 11 34  1  0  0  0  0
 12 16  1  0  0  0  0
 13 14  1  0  0  0  0
 13 17  2  0  0  0  0
 14 18  2  0  0  0  0
 15 19  2  0  0  0  0
 16 20  2  0  0  0  0
 16 35  1  0  0  0  0
 17 21  1  0  0  0  0
 17 36  1  0  0  0  0
 18 22  1  0  0  0  0
 18 37  1  0  0  0  0
 19 20  1  0  0  0  0
 20 38  1  0  0  0  0
 21 22  2  0  0  0  0
 23 40  1  0  0  0  0
 23 41  1  0  0  0  0
 23 42  1  0  0  0  0
 24 43  1  0  0  0  0
 24 44  1  0  0  0  0
 24 45  1  0  0  0  0
 25 46  1  0  0  0  0
 25 47  1  0  0  0  0
 25 48  1  0  0  0  0
M  END
> <PUBCHEM_COMPOUND_CID>
442188

> <PUBCHEM_CONFORMER_RMSD>
0.8

> <PUBCHEM_CONFORMER_DIVERSEORDER>
2
3
1
4

> <PUBCHEM_MMFF94_PARTIAL_CHARGES>
30
1 -0.53
10 0.41
11 0.14
12 -0.14
13 -0.14
14 -0.14
15 0.08
16 -0.15
17 -0.15
18 -0.15
19 0.08
2 -0.36
20 -0.15
21 0.08
22 0.08
23 0.28
24 0.28
25 0.28
3 -0.36
35 0.15
36 0.15
37 0.15
38 0.15
39 0.45
4 -0.36
5 -0.81
6 0.41
7 0.14
8 0.27
9 -0.14

> <PUBCHEM_EFFECTIVE_ROTOR_COUNT>
3.8

> <PUBCHEM_PHARMACOPHORE_FEATURES>
9
1 1 donor
1 2 acceptor
1 3 acceptor
1 4 acceptor
1 5 cation
6 13 14 17 18 21 22 rings
6 5 6 7 10 13 14 rings
6 5 6 8 9 11 12 rings
6 9 12 15 16 19 20 rings

> <PUBCHEM_HEAVY_ATOM_COUNT>
25

> <PUBCHEM_ATOM_DEF_STEREO_COUNT>
1

> <PUBCHEM_ATOM_UDEF_STEREO_COUNT>
0

> <PUBCHEM_BOND_DEF_STEREO_COUNT>
0

> <PUBCHEM_BOND_UDEF_STEREO_COUNT>
0

> <PUBCHEM_ISOTOPIC_ATOM_COUNT>
0

> <PUBCHEM_COMPONENT_COUNT>
1

> <PUBCHEM_CACTVS_TAUTO_COUNT>
9

> <PUBCHEM_CONFORMER_ID>
0006BF4C00000002

> <PUBCHEM_MMFF94_ENERGY>
103.8485

> <PUBCHEM_FEATURE_SELFOVERLAP>
45.74

> <PUBCHEM_SHAPE_FINGERPRINT>
10411042 1 17546165204164395715
10595046 47 18338520737684055190
12107183 9 18125449858419239930
12236239 1 18410012126204281502
12403259 415 18410856559666559728
12788726 201 17677613240666187353
14251764 75 18190734439988740497
14528608 73 18410855439070056884
14739800 52 18192451688013938888
14767858 380 18262537961278020213
14790565 3 18412824694069881965
15183329 4 18410854373950186278
15196674 1 18339079294202248834
17844677 252 18337665330743839988
17959699 21 18411138013426610984
18608769 82 18338515228116922363
18681886 176 18260271833052690282
20511986 3 18270699583375038964
20715895 44 17980208805313471213
20775438 99 16525865709942049951
21033648 144 18270692978105631046
21267235 1 18411130308435104075
21279426 13 18335419088807954428
21304253 335 18273210906677249924
21421861 104 17630619023132472738
21709351 56 18411985775293300077
22393880 68 18408886252104062092
23402539 116 18334017198207014173
23559900 14 18114463461241562338
2838139 119 18411423933615338773
3004659 81 18411980252835424676
335352 9 18411980299864131766
34797466 226 17604138221452797540
350125 39 18342458201019856420
3545911 37 18408882962291085971
4073 2 18129378208039861818
4214541 1 18410011030918893324
474 4 17846496976698653012
5104073 3 18343304721782863522
5283173 99 18408887304471542736
559249 180 18409168844052312150
6328613 192 18201709623428099340
633830 44 18342179930136247374
9709674 26 18334568027958509166
9981440 41 18342458093271329731

> <PUBCHEM_SHAPE_MULTIPOLES>
486.03
13.37
3.34
0.79
7.56
0.72
-0.04
6.64
-2.1
-1.98
0.01
0.12
0.08
0.25

> <PUBCHEM_SHAPE_SELFOVERLAP>
1060.403

> <PUBCHEM_SHAPE_VOLUME>
264.8

> <PUBCHEM_COORDINATE_TYPE>
2
5
10

$$$$

