42107
  -OEChem-07051213042D

 74 76  0     1  0  0  0  0  0999 V2000
    8.1667   -3.5715    0.0000 S   0  0  0  0  0  0  0  0  0  0  0  0
    6.4346   -3.5715    0.0000 S   0  0  0  0  0  0  0  0  0  0  0  0
    9.1667   -3.5715    0.0000 O   0  0  0  0  0  0  0  0  0  0  0  0
    5.4346   -3.5715    0.0000 O   0  0  0  0  0  0  0  0  0  0  0  0
    5.6686   -2.9287    0.0000 O   0  0  0  0  0  0  0  0  0  0  0  0
    8.9327   -2.9287    0.0000 O   0  0  0  0  0  0  0  0  0  0  0  0
   10.3007   -1.3394    0.0000 O   0  0  0  0  0  0  0  0  0  0  0  0
    9.3007    0.3926    0.0000 O   0  0  0  0  0  0  0  0  0  0  0  0
    4.8191    4.0454    0.0000 O   0  0  0  0  0  0  0  0  0  0  0  0
    2.9397    4.7295    0.0000 O   0  0  0  0  0  0  0  0  0  0  0  0
    4.7476   -0.5366    0.0000 N   0  0  3  0  0  0  0  0  0  0  0  0
    7.3007   -3.0715    0.0000 C   0  0  0  0  0  0  0  0  0  0  0  0
    6.8007   -2.2054    0.0000 C   0  0  0  0  0  0  0  0  0  0  0  0
    8.1667   -4.5715    0.0000 C   0  0  0  0  0  0  0  0  0  0  0  0
    6.4346   -4.5715    0.0000 C   0  0  0  0  0  0  0  0  0  0  0  0
    7.3007   -5.0715    0.0000 C   0  0  0  0  0  0  0  0  0  0  0  0
    7.8007   -2.2054    0.0000 C   0  0  0  0  0  0  0  0  0  0  0  0
    5.8610   -1.8633    0.0000 C   0  0  0  0  0  0  0  0  0  0  0  0
    5.6873   -0.8786    0.0000 C   0  0  0  0  0  0  0  0  0  0  0  0
    8.8007   -2.2054    0.0000 C   0  0  0  0  0  0  0  0  0  0  0  0
    7.3007   -1.3394    0.0000 C   0  0  0  0  0  0  0  0  0  0  0  0
    9.3007   -1.3394    0.0000 C   0  0  0  0  0  0  0  0  0  0  0  0
    7.8007   -0.4734    0.0000 C   0  0  0  0  0  0  0  0  0  0  0  0
    8.8007   -0.4734    0.0000 C   0  0  0  0  0  0  0  0  0  0  0  0
    4.5740    0.4482    0.0000 C   0  0  0  0  0  0  0  0  0  0  0  0
    3.9816   -1.1793    0.0000 C   0  0  0  0  0  0  0  0  0  0  0  0
    3.6343    0.7902    0.0000 C   0  0  0  0  0  0  0  0  0  0  0  0
    3.4606    1.7750    0.0000 C   0  0  0  0  0  0  0  0  0  0  0  0
   10.8007   -0.4734    0.0000 C   0  0  0  0  0  0  0  0  0  0  0  0
    8.8007    1.2586    0.0000 C   0  0  0  0  0  0  0  0  0  0  0  0
    4.2267    2.4178    0.0000 C   0  0  0  0  0  0  0  0  0  0  0  0
    2.5209    2.1170    0.0000 C   0  0  0  0  0  0  0  0  0  0  0  0
    4.0530    3.4026    0.0000 C   0  0  0  0  0  0  0  0  0  0  0  0
    2.3473    3.1019    0.0000 C   0  0  0  0  0  0  0  0  0  0  0  0
    3.1133    3.7446    0.0000 C   0  0  0  0  0  0  0  0  0  0  0  0
    4.6454    5.0302    0.0000 C   0  0  0  0  0  0  0  0  0  0  0  0
    2.0000    5.0715    0.0000 C   0  0  0  0  0  0  0  0  0  0  0  0
    7.4040   -2.0625    0.0000 H   0  0  0  0  0  0  0  0  0  0  0  0
    6.8368   -1.5865    0.0000 H   0  0  0  0  0  0  0  0  0  0  0  0
    8.3787   -5.1541    0.0000 H   0  0  0  0  0  0  0  0  0  0  0  0
    8.7773   -4.4638    0.0000 H   0  0  0  0  0  0  0  0  0  0  0  0
    5.8240   -4.4638    0.0000 H   0  0  0  0  0  0  0  0  0  0  0  0
    6.2226   -5.1541    0.0000 H   0  0  0  0  0  0  0  0  0  0  0  0
    6.9021   -5.5464    0.0000 H   0  0  0  0  0  0  0  0  0  0  0  0
    7.6992   -5.5464    0.0000 H   0  0  0  0  0  0  0  0  0  0  0  0
    5.2410   -1.8633    0.0000 H   0  0  0  0  0  0  0  0  0  0  0  0
    5.7533   -2.4739    0.0000 H   0  0  0  0  0  0  0  0  0  0  0  0
    6.3073   -0.8786    0.0000 H   0  0  0  0  0  0  0  0  0  0  0  0
    5.7950   -0.2680    0.0000 H   0  0  0  0  0  0  0  0  0  0  0  0
    9.1107   -2.7424    0.0000 H   0  0  0  0  0  0  0  0  0  0  0  0
    6.6807   -1.3394    0.0000 H   0  0  0  0  0  0  0  0  0  0  0  0
    7.4907    0.0635    0.0000 H   0  0  0  0  0  0  0  0  0  0  0  0
    5.1940    0.4482    0.0000 H   0  0  0  0  0  0  0  0  0  0  0  0
    4.6816    1.0588    0.0000 H   0  0  0  0  0  0  0  0  0  0  0  0
    3.5831   -0.7043    0.0000 H   0  0  0  0  0  0  0  0  0  0  0  0
    3.5066   -1.5778    0.0000 H   0  0  0  0  0  0  0  0  0  0  0  0
    4.3801   -1.6543    0.0000 H   0  0  0  0  0  0  0  0  0  0  0  0
    3.0143    0.7902    0.0000 H   0  0  0  0  0  0  0  0  0  0  0  0
    3.5266    0.1796    0.0000 H   0  0  0  0  0  0  0  0  0  0  0  0
   11.3376   -0.7834    0.0000 H   0  0  0  0  0  0  0  0  0  0  0  0
   11.1107    0.0635    0.0000 H   0  0  0  0  0  0  0  0  0  0  0  0
   10.2637   -0.1634    0.0000 H   0  0  0  0  0  0  0  0  0  0  0  0
    9.3376    1.5687    0.0000 H   0  0  0  0  0  0  0  0  0  0  0  0
    8.4907    1.7956    0.0000 H   0  0  0  0  0  0  0  0  0  0  0  0
    8.2637    0.9487    0.0000 H   0  0  0  0  0  0  0  0  0  0  0  0
    4.8093    2.2058    0.0000 H   0  0  0  0  0  0  0  0  0  0  0  0
    2.0460    1.7185    0.0000 H   0  0  0  0  0  0  0  0  0  0  0  0
    1.7647    3.3139    0.0000 H   0  0  0  0  0  0  0  0  0  0  0  0
    5.2560    5.1379    0.0000 H   0  0  0  0  0  0  0  0  0  0  0  0
    4.5378    5.6408    0.0000 H   0  0  0  0  0  0  0  0  0  0  0  0
    4.0348    4.9226    0.0000 H   0  0  0  0  0  0  0  0  0  0  0  0
    2.2120    5.6541    0.0000 H   0  0  0  0  0  0  0  0  0  0  0  0
    1.4174    5.2835    0.0000 H   0  0  0  0  0  0  0  0  0  0  0  0
    1.7880    4.4889    0.0000 H   0  0  0  0  0  0  0  0  0  0  0  0
  1  3  2  0  0  0  0
  1  6  2  0  0  0  0
  1 12  1  0  0  0  0
  1 14  1  0  0  0  0
  2  4  2  0  0  0  0
  2  5  2  0  0  0  0
  2 12  1  0  0  0  0
  2 15  1  0  0  0  0
  7 22  1  0  0  0  0
  7 29  1  0  0  0  0
  8 24  1  0  0  0  0
  8 30  1  0  0  0  0
  9 33  1  0  0  0  0
  9 36  1  0  0  0  0
 10 35  1  0  0  0  0
 10 37  1  0  0  0  0
 11 19  1  0  0  0  0
 11 25  1  0  0  0  0
 11 26  1  0  0  0  0
 12 13  1  0  0  0  0
 12 17  1  0  0  0  0
 13 18  1  0  0  0  0
 13 38  1  0  0  0  0
 13 39  1  0  0  0  0
 14 16  1  0  0  0  0
 14 40  1  0  0  0  0
 14 41  1  0  0  0  0
 15 16  1  0  0  0  0
 15 42  1  0  0  0  0
 15 43  1  0  0  0  0
 16 44  1  0  0  0  0
 16 45  1  0  0  0  0
 17 20  2  0  0  0  0
 17 21  1  0  0  0  0
 18 19  1  0  0  0  0
 18 46  1  0  0  0  0
 18 47  1  0  0  0  0
 19 48  1  0  0  0  0
 19 49  1  0  0  0  0
 20 22  1  0  0  0  0
 20 50  1  0  0  0  0
 21 23  2  0  0  0  0
 21 51  1  0  0  0  0
 22 24  2  0  0  0  0
 23 24  1  0  0  0  0
 23 52  1  0  0  0  0
 25 27  1  0  0  0  0
 25 53  1  0  0  0  0
 25 54  1  0  0  0  0
 26 55  1  0  0  0  0
 26 56  1  0  0  0  0
 26 57  1  0  0  0  0
 27 28  1  0  0  0  0
 27 58  1  0  0  0  0
 27 59  1  0  0  0  0
 28 31  2  0  0  0  0
 28 32  1  0  0  0  0
 29 60  1  0  0  0  0
 29 61  1  0  0  0  0
 29 62  1  0  0  0  0
 30 63  1  0  0  0  0
 30 64  1  0  0  0  0
 30 65  1  0  0  0  0
 31 33  1  0  0  0  0
 31 66  1  0  0  0  0
 32 34  2  0  0  0  0
 32 67  1  0  0  0  0
 33 35  2  0  0  0  0
 34 35  1  0  0  0  0
 34 68  1  0  0  0  0
 36 69  1  0  0  0  0
 36 70  1  0  0  0  0
 36 71  1  0  0  0  0
 37 72  1  0  0  0  0
 37 73  1  0  0  0  0
 37 74  1  0  0  0  0
M  END
> <PUBCHEM_COMPOUND_CID>
42107

> <PUBCHEM_COMPOUND_CANONICALIZED>
1

> <PUBCHEM_CACTVS_COMPLEXITY>
880

> <PUBCHEM_CACTVS_HBOND_ACCEPTOR>
9

> <PUBCHEM_CACTVS_HBOND_DONOR>
0

> <PUBCHEM_CACTVS_ROTATABLE_BOND>
12

> <PUBCHEM_CACTVS_SUBSKEYS>
AAADcfB6PABgAAAAAAAAAAAAAAAAAAAAAAA0YIAAAAAAAAABQAAAHgQAAAAADATF2AayBoMABAqAAiBCAHBCCQAgIBAIiAAOiIgNJiKksRuEMCIkwBGqqAeQ0LIOIAABAAAAQABAAAIAAACAAAAAAAAAAA==

> <PUBCHEM_IUPAC_OPENEYE_NAME>
N-[2-(3,4-dimethoxyphenyl)ethyl]-3-[2-(3,4-dimethoxyphenyl)-1,1,3,3-tetraoxo-1,3-dithian-2-yl]-N-methyl-propan-1-amine

> <PUBCHEM_IUPAC_CAS_NAME>
N-[2-(3,4-dimethoxyphenyl)ethyl]-3-[2-(3,4-dimethoxyphenyl)-1,1,3,3-tetraoxo-1,3-dithian-2-yl]-N-methyl-1-propanamine

> <PUBCHEM_IUPAC_NAME>
N-[2-(3,4-dimethoxyphenyl)ethyl]-3-[2-(3,4-dimethoxyphenyl)-1,1,3,3-tetraoxo-1,3-dithian-2-yl]-N-methylpropan-1-amine

> <PUBCHEM_IUPAC_SYSTEMATIC_NAME>
N-[2-(3,4-dimethoxyphenyl)ethyl]-3-[2-(3,4-dimethoxyphenyl)-1,1,3,3-tetrakis(oxidanylidene)-1,3-dithian-2-yl]-N-methyl-propan-1-amine

> <PUBCHEM_IUPAC_TRADITIONAL_NAME>
3-[2-(3,4-dimethoxyphenyl)-1,1,3,3-tetraketo-1,3-dithian-2-yl]propyl-homoveratryl-methyl-amine

> <PUBCHEM_IUPAC_INCHI>
InChI=1S/C26H37NO8S2/c1-27(15-12-20-8-10-22(32-2)24(18-20)34-4)14-6-13-26(36(28,29)16-7-17-37(26,30)31)21-9-11-23(33-3)25(19-21)35-5/h8-11,18-19H,6-7,12-17H2,1-5H3

> <PUBCHEM_IUPAC_INCHIKEY>
ZROUQTNYPCANTN-UHFFFAOYSA-N

> <PUBCHEM_XLOGP3_AA>
3.1

> <PUBCHEM_EXACT_MASS>
555.196059

> <PUBCHEM_MOLECULAR_FORMULA>
C26H37NO8S2

> <PUBCHEM_MOLECULAR_WEIGHT>
555.70388

> <PUBCHEM_OPENEYE_CAN_SMILES>
CN(CCCC1(S(=O)(=O)CCCS1(=O)=O)C2=CC(=C(C=C2)OC)OC)CCC3=CC(=C(C=C3)OC)OC

> <PUBCHEM_OPENEYE_ISO_SMILES>
CN(CCCC1(S(=O)(=O)CCCS1(=O)=O)C2=CC(=C(C=C2)OC)OC)CCC3=CC(=C(C=C3)OC)OC

> <PUBCHEM_CACTVS_TPSA>
125

> <PUBCHEM_MONOISOTOPIC_WEIGHT>
555.196059

> <PUBCHEM_TOTAL_CHARGE>
0

> <PUBCHEM_HEAVY_ATOM_COUNT>
37

> <PUBCHEM_ATOM_DEF_STEREO_COUNT>
0

> <PUBCHEM_ATOM_UDEF_STEREO_COUNT>
0

> <PUBCHEM_BOND_DEF_STEREO_COUNT>
0

> <PUBCHEM_BOND_UDEF_STEREO_COUNT>
0

> <PUBCHEM_ISOTOPIC_ATOM_COUNT>
0

> <PUBCHEM_COMPONENT_COUNT>
1

> <PUBCHEM_CACTVS_TAUTO_COUNT>
1

> <PUBCHEM_COORDINATE_TYPE>
1
5
255

> <PUBCHEM_BONDANNOTATIONS>
17  20  8
17  21  8
20  22  8
21  23  8
22  24  8
23  24  8
28  31  8
28  32  8
31  33  8
32  34  8
33  35  8
34  35  8

$$$$

