5284267
  -OEChem-07051213102D

 74 77  0     1  0  0  0  0  0999 V2000
    7.4149   -3.5293    0.0000 O   0  0  0  0  0  0  0  0  0  0  0  0
    2.0000   -3.5502    0.0000 O   0  0  0  0  0  0  0  0  0  0  0  0
   11.5390    4.0214    0.0000 O   0  0  0  0  0  0  0  0  0  0  0  0
    7.3931   -0.4978    0.0000 C   0  0  1  0  0  0  0  0  0  0  0  0
    7.3931   -1.4978    0.0000 C   0  0  2  0  0  0  0  0  0  0  0  0
    6.5271   -1.9978    0.0000 C   0  0  1  0  0  0  0  0  0  0  0  0
    5.6610   -1.4978    0.0000 C   0  0  1  0  0  0  0  0  0  0  0  0
    8.3393   -0.1931    0.0000 C   0  0  2  0  0  0  0  0  0  0  0  0
    6.5271    0.0022    0.0000 C   0  0  0  0  0  0  0  0  0  0  0  0
    8.3393   -1.8026    0.0000 C   0  0  0  0  0  0  0  0  0  0  0  0
    4.7510   -2.0047    0.0000 C   0  0  2  0  0  0  0  0  0  0  0  0
    5.6610   -0.4978    0.0000 C   0  0  0  0  0  0  0  0  0  0  0  0
    8.9229   -0.9978    0.0000 C   0  0  0  0  0  0  0  0  0  0  0  0
    6.5431   -3.0394    0.0000 C   0  0  1  0  0  0  0  0  0  0  0  0
    8.6500    0.7574    0.0000 C   0  0  1  0  0  0  0  0  0  0  0  0
    7.3931    0.5022    0.0000 C   0  0  0  0  0  0  0  0  0  0  0  0
    4.7430   -3.0463    0.0000 C   0  0  0  0  0  0  0  0  0  0  0  0
    5.6451   -3.5671    0.0000 C   0  0  0  0  0  0  0  0  0  0  0  0
    3.8242   -1.4406    0.0000 C   0  0  0  0  0  0  0  0  0  0  0  0
    4.7587   -1.0047    0.0000 C   0  0  0  0  0  0  0  0  0  0  0  0
    9.6285    0.9636    0.0000 C   0  0  0  0  0  0  0  0  0  0  0  0
    7.9821    1.5017    0.0000 C   0  0  0  0  0  0  0  0  0  0  0  0
    2.8763   -1.9686    0.0000 C   0  0  0  0  0  0  0  0  0  0  0  0
    3.8076   -3.5960    0.0000 C   0  0  0  0  0  0  0  0  0  0  0  0
    2.8680   -3.0535    0.0000 C   0  0  0  0  0  0  0  0  0  0  0  0
    9.9391    1.9142    0.0000 C   0  0  0  0  0  0  0  0  0  0  0  0
   10.9176    2.1204    0.0000 C   0  0  0  0  0  0  0  0  0  0  0  0
   11.2283    3.0709    0.0000 C   0  0  0  0  0  0  0  0  0  0  0  0
   12.1788    2.7602    0.0000 C   0  0  0  0  0  0  0  0  0  0  0  0
   10.2778    3.3816    0.0000 C   0  0  0  0  0  0  0  0  0  0  0  0
    7.4830   -2.3431    0.0000 H   0  0  0  0  0  0  0  0  0  0  0  0
    7.2664   -2.4172    0.0000 H   0  0  0  0  0  0  0  0  0  0  0  0
    6.3972   -1.0728    0.0000 H   0  0  0  0  0  0  0  0  0  0  0  0
    9.1790   -0.0612    0.0000 H   0  0  0  0  0  0  0  0  0  0  0  0
    6.9256    0.4771    0.0000 H   0  0  0  0  0  0  0  0  0  0  0  0
    6.1285    0.4771    0.0000 H   0  0  0  0  0  0  0  0  0  0  0  0
    8.0883   -2.3695    0.0000 H   0  0  0  0  0  0  0  0  0  0  0  0
    8.8767   -2.1118    0.0000 H   0  0  0  0  0  0  0  0  0  0  0  0
    5.4490    0.0848    0.0000 H   0  0  0  0  0  0  0  0  0  0  0  0
    5.0504   -0.6055    0.0000 H   0  0  0  0  0  0  0  0  0  0  0  0
    9.3838   -1.4126    0.0000 H   0  0  0  0  0  0  0  0  0  0  0  0
    9.3838   -0.5831    0.0000 H   0  0  0  0  0  0  0  0  0  0  0  0
    6.5491   -3.6593    0.0000 H   0  0  0  0  0  0  0  0  0  0  0  0
    8.0433    0.6296    0.0000 H   0  0  0  0  0  0  0  0  0  0  0  0
    8.0131    0.5022    0.0000 H   0  0  0  0  0  0  0  0  0  0  0  0
    7.3931    1.1222    0.0000 H   0  0  0  0  0  0  0  0  0  0  0  0
    6.7731    0.5022    0.0000 H   0  0  0  0  0  0  0  0  0  0  0  0
    5.2478   -4.0431    0.0000 H   0  0  0  0  0  0  0  0  0  0  0  0
    6.0460   -4.0400    0.0000 H   0  0  0  0  0  0  0  0  0  0  0  0
    4.2324   -0.9740    0.0000 H   0  0  0  0  0  0  0  0  0  0  0  0
    3.4343   -0.9586    0.0000 H   0  0  0  0  0  0  0  0  0  0  0  0
    5.3787   -1.0095    0.0000 H   0  0  0  0  0  0  0  0  0  0  0  0
    4.7635   -0.3847    0.0000 H   0  0  0  0  0  0  0  0  0  0  0  0
    4.1388   -0.9999    0.0000 H   0  0  0  0  0  0  0  0  0  0  0  0
    9.6490    0.3440    0.0000 H   0  0  0  0  0  0  0  0  0  0  0  0
   10.2423    0.8763    0.0000 H   0  0  0  0  0  0  0  0  0  0  0  0
    8.4436    1.9158    0.0000 H   0  0  0  0  0  0  0  0  0  0  0  0
    7.5681    1.9632    0.0000 H   0  0  0  0  0  0  0  0  0  0  0  0
    7.5207    1.0876    0.0000 H   0  0  0  0  0  0  0  0  0  0  0  0
    2.6718   -1.3833    0.0000 H   0  0  0  0  0  0  0  0  0  0  0  0
    2.2647   -2.0699    0.0000 H   0  0  0  0  0  0  0  0  0  0  0  0
    3.8100   -4.2160    0.0000 H   0  0  0  0  0  0  0  0  0  0  0  0
    7.4220   -4.1493    0.0000 H   0  0  0  0  0  0  0  0  0  0  0  0
    9.9186    2.5338    0.0000 H   0  0  0  0  0  0  0  0  0  0  0  0
    9.3253    2.0015    0.0000 H   0  0  0  0  0  0  0  0  0  0  0  0
   10.9382    1.5007    0.0000 H   0  0  0  0  0  0  0  0  0  0  0  0
   11.5315    2.0330    0.0000 H   0  0  0  0  0  0  0  0  0  0  0  0
   11.9862    2.1709    0.0000 H   0  0  0  0  0  0  0  0  0  0  0  0
   12.7681    2.5676    0.0000 H   0  0  0  0  0  0  0  0  0  0  0  0
   12.3714    3.3496    0.0000 H   0  0  0  0  0  0  0  0  0  0  0  0
   10.4704    3.9709    0.0000 H   0  0  0  0  0  0  0  0  0  0  0  0
    9.6885    3.5742    0.0000 H   0  0  0  0  0  0  0  0  0  0  0  0
   10.0852    2.7922    0.0000 H   0  0  0  0  0  0  0  0  0  0  0  0
   12.1456    4.1493    0.0000 H   0  0  0  0  0  0  0  0  0  0  0  0
 14  1  1  6  0  0  0
  1 63  1  0  0  0  0
  2 25  2  0  0  0  0
  3 28  1  0  0  0  0
  3 74  1  0  0  0  0
  4  5  1  0  0  0  0
  4  8  1  0  0  0  0
  4  9  1  0  0  0  0
  4 16  1  1  0  0  0
  5  6  1  0  0  0  0
  5 10  1  0  0  0  0
  5 31  1  6  0  0  0
  6  7  1  0  0  0  0
  6 14  1  0  0  0  0
  6 32  1  1  0  0  0
  7 11  1  0  0  0  0
  7 12  1  0  0  0  0
  7 33  1  6  0  0  0
  8 13  1  0  0  0  0
  8 15  1  0  0  0  0
  8 34  1  6  0  0  0
  9 12  1  0  0  0  0
  9 35  1  0  0  0  0
  9 36  1  0  0  0  0
 10 13  1  0  0  0  0
 10 37  1  0  0  0  0
 10 38  1  0  0  0  0
 11 17  1  0  0  0  0
 11 19  1  0  0  0  0
 11 20  1  1  0  0  0
 12 39  1  0  0  0  0
 12 40  1  0  0  0  0
 13 41  1  0  0  0  0
 13 42  1  0  0  0  0
 14 18  1  0  0  0  0
 14 43  1  0  0  0  0
 15 21  1  0  0  0  0
 15 22  1  6  0  0  0
 15 44  1  0  0  0  0
 16 45  1  0  0  0  0
 16 46  1  0  0  0  0
 16 47  1  0  0  0  0
 17 18  1  0  0  0  0
 17 24  2  0  0  0  0
 18 48  1  0  0  0  0
 18 49  1  0  0  0  0
 19 23  1  0  0  0  0
 19 50  1  0  0  0  0
 19 51  1  0  0  0  0
 20 52  1  0  0  0  0
 20 53  1  0  0  0  0
 20 54  1  0  0  0  0
 21 26  1  0  0  0  0
 21 55  1  0  0  0  0
 21 56  1  0  0  0  0
 22 57  1  0  0  0  0
 22 58  1  0  0  0  0
 22 59  1  0  0  0  0
 23 25  1  0  0  0  0
 23 60  1  0  0  0  0
 23 61  1  0  0  0  0
 24 25  1  0  0  0  0
 24 62  1  0  0  0  0
 26 27  1  0  0  0  0
 26 64  1  0  0  0  0
 26 65  1  0  0  0  0
 27 28  1  0  0  0  0
 27 66  1  0  0  0  0
 27 67  1  0  0  0  0
 28 29  1  0  0  0  0
 28 30  1  0  0  0  0
 29 68  1  0  0  0  0
 29 69  1  0  0  0  0
 29 70  1  0  0  0  0
 30 71  1  0  0  0  0
 30 72  1  0  0  0  0
 30 73  1  0  0  0  0
M  END
> <PUBCHEM_COMPOUND_CID>
5284267

> <PUBCHEM_COMPOUND_CANONICALIZED>
1

> <PUBCHEM_CACTVS_COMPLEXITY>
709

> <PUBCHEM_CACTVS_HBOND_ACCEPTOR>
3

> <PUBCHEM_CACTVS_HBOND_DONOR>
2

> <PUBCHEM_CACTVS_ROTATABLE_BOND>
5

> <PUBCHEM_CACTVS_SUBSKEYS>
AAADcfB4MAAAAAAAAAAAAAAAAAAAAYAAAAAwYIAAAAAAAGDAAAAAGgAACAAAD1SggAICAAAAAgCIAqBSAAAAAAAgAAAACAEAAEgAEBIAAQAAQAAEwAAIAQOIyPCPgAAAAAAAAADAAAYAADAAAQAACAAAAA==

> <PUBCHEM_IUPAC_OPENEYE_NAME>
(7R,8S,9S,10R,13R,14S,17R)-7-hydroxy-17-[(1R)-5-hydroxy-1,5-dimethyl-hexyl]-10,13-dimethyl-1,2,6,7,8,9,11,12,14,15,16,17-dodecahydrocyclopenta[a]phenanthren-3-one

> <PUBCHEM_IUPAC_CAS_NAME>
(7R,8S,9S,10R,13R,14S,17R)-7-hydroxy-17-[(2R)-6-hydroxy-6-methylheptan-2-yl]-10,13-dimethyl-1,2,6,7,8,9,11,12,14,15,16,17-dodecahydrocyclopenta[a]phenanthren-3-one

> <PUBCHEM_IUPAC_NAME>
(7R,8S,9S,10R,13R,14S,17R)-7-hydroxy-17-[(2R)-6-hydroxy-6-methylheptan-2-yl]-10,13-dimethyl-1,2,6,7,8,9,11,12,14,15,16,17-dodecahydrocyclopenta[a]phenanthren-3-one

> <PUBCHEM_IUPAC_SYSTEMATIC_NAME>
(7R,8S,9S,10R,13R,14S,17R)-10,13-dimethyl-17-[(2R)-6-methyl-6-oxidanyl-heptan-2-yl]-7-oxidanyl-1,2,6,7,8,9,11,12,14,15,16,17-dodecahydrocyclopenta[a]phenanthren-3-one

> <PUBCHEM_IUPAC_TRADITIONAL_NAME>
(7R,8S,9S,10R,13R,14S,17R)-7-hydroxy-17-[(1R)-5-hydroxy-1,5-dimethyl-hexyl]-10,13-dimethyl-1,2,6,7,8,9,11,12,14,15,16,17-dodecahydrocyclopenta[a]phenanthren-3-one

> <PUBCHEM_IUPAC_INCHI>
InChI=1S/C27H44O3/c1-17(7-6-12-25(2,3)30)20-8-9-21-24-22(11-14-27(20,21)5)26(4)13-10-19(28)15-18(26)16-23(24)29/h15,17,20-24,29-30H,6-14,16H2,1-5H3/t17-,20-,21+,22+,23-,24+,26+,27-/m1/s1

> <PUBCHEM_IUPAC_INCHIKEY>
POUKDTOWHPHYQU-HENOKILYSA-N

> <PUBCHEM_XLOGP3_AA>
5.6

> <PUBCHEM_EXACT_MASS>
416.329045

> <PUBCHEM_MOLECULAR_FORMULA>
C27H44O3

> <PUBCHEM_MOLECULAR_WEIGHT>
416.63646

> <PUBCHEM_OPENEYE_CAN_SMILES>
CC(CCCC(C)(C)O)C1CCC2C1(CCC3C2C(CC4=CC(=O)CCC34C)O)C

> <PUBCHEM_OPENEYE_ISO_SMILES>
C[C@H](CCCC(C)(C)O)[C@H]1CC[C@@H]2[C@@]1(CC[C@H]3[C@H]2[C@@H](CC4=CC(=O)CC[C@]34C)O)C

> <PUBCHEM_CACTVS_TPSA>
57.5

> <PUBCHEM_MONOISOTOPIC_WEIGHT>
416.329045

> <PUBCHEM_TOTAL_CHARGE>
0

> <PUBCHEM_HEAVY_ATOM_COUNT>
30

> <PUBCHEM_ATOM_DEF_STEREO_COUNT>
8

> <PUBCHEM_ATOM_UDEF_STEREO_COUNT>
0

> <PUBCHEM_BOND_DEF_STEREO_COUNT>
0

> <PUBCHEM_BOND_UDEF_STEREO_COUNT>
0

> <PUBCHEM_ISOTOPIC_ATOM_COUNT>
0

> <PUBCHEM_COMPONENT_COUNT>
1

> <PUBCHEM_CACTVS_TAUTO_COUNT>
5

> <PUBCHEM_COORDINATE_TYPE>
1
5
255

> <PUBCHEM_BONDANNOTATIONS>
14  1  6
11  20  5
15  22  6
4  16  5
5  31  6
6  32  5
7  33  6
8  34  6

$$$$

