13187056
  -OEChem-07051213113D

 65 66  0     1  0  0  0  0  0999 V2000
    0.7301   -0.0783    0.0147 O   0  0  0  0  0  0  0  0  0  0  0  0
   -3.0068    2.0109    1.8272 O   0  0  0  0  0  0  0  0  0  0  0  0
   -1.9883    0.8796   -2.2306 O   0  0  0  0  0  0  0  0  0  0  0  0
    2.6623   -0.7945   -1.1365 O   0  0  0  0  0  0  0  0  0  0  0  0
   -3.2519   -2.2577    0.4334 O   0  0  0  0  0  0  0  0  0  0  0  0
   -3.6409   -0.0360   -0.1510 N   0  0  0  0  0  0  0  0  0  0  0  0
   -0.3100    3.1651   -1.4222 N   0  0  0  0  0  0  0  0  0  0  0  0
    0.1198   -2.7847    0.7125 N   0  0  0  0  0  0  0  0  0  0  0  0
    5.8973    0.2393    0.2905 N   0  0  0  0  0  0  0  0  0  0  0  0
   -5.7181   -3.1166   -0.0723 N   0  0  0  0  0  0  0  0  0  0  0  0
    0.0235    0.7719   -0.8903 C   0  0  1  0  0  0  0  0  0  0  0  0
   -2.2974    0.4306    0.1250 C   0  0  1  0  0  0  0  0  0  0  0  0
   -1.3971    0.2256   -1.1069 C   0  0  1  0  0  0  0  0  0  0  0  0
    0.0559    2.2207   -0.3646 C   0  0  2  0  0  0  0  0  0  0  0  0
   -2.3032    1.8951    0.5900 C   0  0  2  0  0  0  0  0  0  0  0  0
   -0.8791    2.4033    0.8375 C   0  0  0  0  0  0  0  0  0  0  0  0
    1.3549   -1.1504   -0.6712 C   0  0  1  0  0  0  0  0  0  0  0  0
    1.4408   -2.3944    0.2252 C   0  0  1  0  0  0  0  0  0  0  0  0
    2.4054   -2.1571    1.3901 C   0  0  0  0  0  0  0  0  0  0  0  0
    3.5807   -0.4876   -0.0810 C   0  0  1  0  0  0  0  0  0  0  0  0
    3.7549   -1.6858    0.8543 C   0  0  0  0  0  0  0  0  0  0  0  0
   -4.5781    0.9805   -0.6309 C   0  0  0  0  0  0  0  0  0  0  0  0
   -4.0203   -1.3800    0.0305 C   0  0  0  0  0  0  0  0  0  0  0  0
    4.9065   -0.0987   -0.7217 C   0  0  0  0  0  0  0  0  0  0  0  0
   -3.4460    3.3422    2.0493 C   0  0  0  0  0  0  0  0  0  0  0  0
   -5.4678   -1.6988   -0.3049 C   0  0  0  0  0  0  0  0  0  0  0  0
    7.1675    0.6011   -0.3239 C   0  0  0  0  0  0  0  0  0  0  0  0
    8.2052    0.9549    0.7279 C   0  0  0  0  0  0  0  0  0  0  0  0
    0.5564    0.7807   -1.8530 H   0  0  0  0  0  0  0  0  0  0  0  0
   -1.9053   -0.1901    0.9419 H   0  0  0  0  0  0  0  0  0  0  0  0
   -1.3712   -0.8438   -1.3441 H   0  0  0  0  0  0  0  0  0  0  0  0
    1.0760    2.4571   -0.0369 H   0  0  0  0  0  0  0  0  0  0  0  0
   -2.7504    2.5551   -0.1615 H   0  0  0  0  0  0  0  0  0  0  0  0
   -0.8805    3.4583    1.1359 H   0  0  0  0  0  0  0  0  0  0  0  0
   -0.4573    1.8701    1.7012 H   0  0  0  0  0  0  0  0  0  0  0  0
    0.7799   -1.4322   -1.5627 H   0  0  0  0  0  0  0  0  0  0  0  0
    1.8453   -3.2202   -0.3753 H   0  0  0  0  0  0  0  0  0  0  0  0
    2.0018   -1.4021    2.0771 H   0  0  0  0  0  0  0  0  0  0  0  0
    2.5415   -3.0777    1.9704 H   0  0  0  0  0  0  0  0  0  0  0  0
    3.1913    0.3716    0.4811 H   0  0  0  0  0  0  0  0  0  0  0  0
    0.3514    3.0896   -2.1938 H   0  0  0  0  0  0  0  0  0  0  0  0
   -0.2351    4.1193   -1.0721 H   0  0  0  0  0  0  0  0  0  0  0  0
    4.2175   -2.5178    0.3075 H   0  0  0  0  0  0  0  0  0  0  0  0
    4.4092   -1.4437    1.6988 H   0  0  0  0  0  0  0  0  0  0  0  0
   -1.4258    0.7004   -3.0032 H   0  0  0  0  0  0  0  0  0  0  0  0
   -4.9377    1.5717    0.2147 H   0  0  0  0  0  0  0  0  0  0  0  0
   -5.4609    0.5518   -1.1052 H   0  0  0  0  0  0  0  0  0  0  0  0
   -4.1268    1.6220   -1.3901 H   0  0  0  0  0  0  0  0  0  0  0  0
    4.7390    0.7497   -1.3979 H   0  0  0  0  0  0  0  0  0  0  0  0
    5.2627   -0.9260   -1.3496 H   0  0  0  0  0  0  0  0  0  0  0  0
    0.1934   -3.6456    1.2527 H   0  0  0  0  0  0  0  0  0  0  0  0
   -0.4914   -2.9893   -0.0769 H   0  0  0  0  0  0  0  0  0  0  0  0
   -2.6098    4.0163    2.2492 H   0  0  0  0  0  0  0  0  0  0  0  0
   -4.0425    3.7133    1.2100 H   0  0  0  0  0  0  0  0  0  0  0  0
   -4.0843    3.3386    2.9378 H   0  0  0  0  0  0  0  0  0  0  0  0
   -6.1388   -1.0997    0.3176 H   0  0  0  0  0  0  0  0  0  0  0  0
   -5.6482   -1.4994   -1.3649 H   0  0  0  0  0  0  0  0  0  0  0  0
    5.5575    1.0114    0.8632 H   0  0  0  0  0  0  0  0  0  0  0  0
    7.0377    1.4597   -0.9935 H   0  0  0  0  0  0  0  0  0  0  0  0
    7.5490   -0.2352   -0.9212 H   0  0  0  0  0  0  0  0  0  0  0  0
   -6.6894   -3.3280   -0.2976 H   0  0  0  0  0  0  0  0  0  0  0  0
   -5.6076   -3.3240    0.9197 H   0  0  0  0  0  0  0  0  0  0  0  0
    9.1550    1.2154    0.2500 H   0  0  0  0  0  0  0  0  0  0  0  0
    8.3868    0.1117    1.4030 H   0  0  0  0  0  0  0  0  0  0  0  0
    7.8836    1.8121    1.3290 H   0  0  0  0  0  0  0  0  0  0  0  0
  1 11  1  0  0  0  0
  1 17  1  0  0  0  0
  2 15  1  0  0  0  0
  2 25  1  0  0  0  0
  3 13  1  0  0  0  0
  3 45  1  0  0  0  0
  4 17  1  0  0  0  0
  4 20  1  0  0  0  0
  5 23  2  0  0  0  0
  6 12  1  0  0  0  0
  6 22  1  0  0  0  0
  6 23  1  0  0  0  0
  7 14  1  0  0  0  0
  7 41  1  0  0  0  0
  7 42  1  0  0  0  0
  8 18  1  0  0  0  0
  8 51  1  0  0  0  0
  8 52  1  0  0  0  0
  9 24  1  0  0  0  0
  9 27  1  0  0  0  0
  9 58  1  0  0  0  0
 10 26  1  0  0  0  0
 10 61  1  0  0  0  0
 10 62  1  0  0  0  0
 11 13  1  0  0  0  0
 11 14  1  0  0  0  0
 11 29  1  0  0  0  0
 12 13  1  0  0  0  0
 12 15  1  0  0  0  0
 12 30  1  0  0  0  0
 13 31  1  0  0  0  0
 14 16  1  0  0  0  0
 14 32  1  0  0  0  0
 15 16  1  0  0  0  0
 15 33  1  0  0  0  0
 16 34  1  0  0  0  0
 16 35  1  0  0  0  0
 17 18  1  0  0  0  0
 17 36  1  0  0  0  0
 18 19  1  0  0  0  0
 18 37  1  0  0  0  0
 19 21  1  0  0  0  0
 19 38  1  0  0  0  0
 19 39  1  0  0  0  0
 20 21  1  0  0  0  0
 20 24  1  0  0  0  0
 20 40  1  0  0  0  0
 21 43  1  0  0  0  0
 21 44  1  0  0  0  0
 22 46  1  0  0  0  0
 22 47  1  0  0  0  0
 22 48  1  0  0  0  0
 23 26  1  0  0  0  0
 24 49  1  0  0  0  0
 24 50  1  0  0  0  0
 25 53  1  0  0  0  0
 25 54  1  0  0  0  0
 25 55  1  0  0  0  0
 26 56  1  0  0  0  0
 26 57  1  0  0  0  0
 27 28  1  0  0  0  0
 27 59  1  0  0  0  0
 27 60  1  0  0  0  0
 28 63  1  0  0  0  0
 28 64  1  0  0  0  0
 28 65  1  0  0  0  0
M  END
> <PUBCHEM_COMPOUND_CID>
13187056

> <PUBCHEM_CONFORMER_RMSD>
1

> <PUBCHEM_CONFORMER_DIVERSEORDER>
1
22
17
23
7
26
24
41
21
29
38
33
14
39
20
36
30
40
19
5
42
32
31
2
10
35
8
16
13
18
43
11
28
12
3
15
6
34
9
4
27
37
25

> <PUBCHEM_MMFF94_PARTIAL_CHARGES>
32
1 -0.56
10 -0.99
11 0.28
12 0.3
13 0.28
14 0.27
15 0.28
17 0.56
18 0.27
2 -0.56
20 0.28
22 0.3
23 0.57
24 0.27
25 0.28
26 0.33
27 0.27
3 -0.68
4 -0.56
41 0.36
42 0.36
45 0.4
5 -0.57
51 0.36
52 0.36
58 0.36
6 -0.66
61 0.36
62 0.36
7 -0.99
8 -0.99
9 -0.9

> <PUBCHEM_EFFECTIVE_ROTOR_COUNT>
11.4

> <PUBCHEM_PHARMACOPHORE_FEATURES>
16
1 1 acceptor
1 10 cation
1 10 donor
1 2 acceptor
1 3 acceptor
1 3 donor
1 4 acceptor
1 5 acceptor
1 7 cation
1 7 donor
1 8 cation
1 8 donor
1 9 cation
1 9 donor
6 11 12 13 14 15 16 rings
6 4 17 18 19 20 21 rings

> <PUBCHEM_HEAVY_ATOM_COUNT>
28

> <PUBCHEM_ATOM_DEF_STEREO_COUNT>
8

> <PUBCHEM_ATOM_UDEF_STEREO_COUNT>
0

> <PUBCHEM_BOND_DEF_STEREO_COUNT>
0

> <PUBCHEM_BOND_UDEF_STEREO_COUNT>
0

> <PUBCHEM_ISOTOPIC_ATOM_COUNT>
0

> <PUBCHEM_COMPONENT_COUNT>
1

> <PUBCHEM_CACTVS_TAUTO_COUNT>
1

> <PUBCHEM_CONFORMER_ID>
00C937F000000001

> <PUBCHEM_MMFF94_ENERGY>
55.8142

> <PUBCHEM_FEATURE_SELFOVERLAP>
81.23

> <PUBCHEM_SHAPE_FINGERPRINT>
10366900 7 17822305616585903139
1100329 8 18125720093498217398
11578080 2 17772768292390673100
12553582 1 18056458772309340981
12633257 1 17903638827801236307
12788726 201 18334294284318420907
13224815 77 18268149945117961062
13631057 29 18409731733749363403
14068700 675 18337108939537880039
14341114 328 18337952410853306312
14787075 74 18272933787082538342
15183329 4 5978392703496676318
15927050 60 17471573231317629620
18336668 15 18130225952272819023
19377110 9 18343023328690047578
20511986 3 17988372584169141589
20681651 13 18127980899889568339
21033648 29 16154000169625538667
21304303 282 14332305124070980909
21756936 100 18187370939513553334
23559900 14 18341060610393361997
2838139 119 17749119855705703824
3380486 145 17845646079369611189
392239 28 18410285887751999352
469060 322 18131064956986157460
5081480 168 13984674637657031048
5104073 3 18261956374997492010
5486654 2 18343300358180804518
9996256 80 18411699929089719626

> <PUBCHEM_SHAPE_MULTIPOLES>
521.98
14.58
3.6
1.42
24.21
0.33
0.07
-1.14
1.53
-4.3
1.28
-0.66
0.84
-1.35

> <PUBCHEM_SHAPE_SELFOVERLAP>
1044.236

> <PUBCHEM_SHAPE_VOLUME>
305.4

> <PUBCHEM_COORDINATE_TYPE>
2
5
10

$$$$

