93525
  -OEChem-07051213122D

 40 41  0     0  0  0  0  0  0999 V2000
    4.4487   -1.2183    0.0000 S   0  0  0  0  0  0  0  0  0  0  0  0
    3.9487   -2.0844    0.0000 O   0  0  0  0  0  0  0  0  0  0  0  0
    4.9487   -0.3523    0.0000 O   0  0  0  0  0  0  0  0  0  0  0  0
    4.0134    1.9235    0.0000 O   0  0  0  0  0  0  0  0  0  0  0  0
    5.1724    0.6363    0.0000 O   0  0  0  0  0  0  0  0  0  0  0  0
    6.1808   -0.2183    0.0000 O   0  0  0  0  0  0  0  0  0  0  0  0
   10.5109   -1.7183    0.0000 O   0  0  0  0  0  0  0  0  0  0  0  0
    8.7788    1.2817    0.0000 O   0  0  0  0  0  0  0  0  0  0  0  0
    2.6691   -1.1251    0.0000 N   0  0  0  0  0  0  0  0  0  0  0  0
    5.3147   -1.7183    0.0000 N   0  0  0  0  0  0  0  0  0  0  0  0
    2.0000   -0.3819    0.0000 N   0  0  0  0  0  0  0  0  0  0  0  0
    7.0468   -1.7183    0.0000 N   0  0  0  0  0  0  0  0  0  0  0  0
    8.7788   -1.7183    0.0000 N   0  0  0  0  0  0  0  0  0  0  0  0
    7.9128   -0.2183    0.0000 N   0  0  0  0  0  0  0  0  0  0  0  0
    3.5827   -0.7183    0.0000 C   0  0  0  0  0  0  0  0  0  0  0  0
    3.4782    0.2762    0.0000 C   0  0  0  0  0  0  0  0  0  0  0  0
    2.5000    0.4841    0.0000 C   0  0  0  0  0  0  0  0  0  0  0  0
    2.4612   -2.1032    0.0000 C   0  0  0  0  0  0  0  0  0  0  0  0
    4.2213    0.9453    0.0000 C   0  0  0  0  0  0  0  0  0  0  0  0
    6.1808   -1.2183    0.0000 C   0  0  0  0  0  0  0  0  0  0  0  0
    7.9128   -1.2183    0.0000 C   0  0  0  0  0  0  0  0  0  0  0  0
    9.6448   -1.2183    0.0000 C   0  0  0  0  0  0  0  0  0  0  0  0
    8.7788    0.2817    0.0000 C   0  0  0  0  0  0  0  0  0  0  0  0
    9.6448   -0.2183    0.0000 C   0  0  0  0  0  0  0  0  0  0  0  0
   11.3769   -1.2183    0.0000 C   0  0  0  0  0  0  0  0  0  0  0  0
    9.6448    1.7817    0.0000 C   0  0  0  0  0  0  0  0  0  0  0  0
    2.2478    1.0505    0.0000 H   0  0  0  0  0  0  0  0  0  0  0  0
    5.3147   -2.3383    0.0000 H   0  0  0  0  0  0  0  0  0  0  0  0
    1.8548   -1.9743    0.0000 H   0  0  0  0  0  0  0  0  0  0  0  0
    2.3323   -2.7097    0.0000 H   0  0  0  0  0  0  0  0  0  0  0  0
    3.0677   -2.2321    0.0000 H   0  0  0  0  0  0  0  0  0  0  0  0
    7.0468   -2.3383    0.0000 H   0  0  0  0  0  0  0  0  0  0  0  0
   10.1818    0.0917    0.0000 H   0  0  0  0  0  0  0  0  0  0  0  0
    4.4741    2.3383    0.0000 H   0  0  0  0  0  0  0  0  0  0  0  0
   11.6869   -1.7553    0.0000 H   0  0  0  0  0  0  0  0  0  0  0  0
   11.9138   -0.9083    0.0000 H   0  0  0  0  0  0  0  0  0  0  0  0
   11.0669   -0.6814    0.0000 H   0  0  0  0  0  0  0  0  0  0  0  0
    9.9548    1.2447    0.0000 H   0  0  0  0  0  0  0  0  0  0  0  0
   10.1818    2.0917    0.0000 H   0  0  0  0  0  0  0  0  0  0  0  0
    9.3348    2.3186    0.0000 H   0  0  0  0  0  0  0  0  0  0  0  0
  1  2  2  0  0  0  0
  1  3  2  0  0  0  0
  1 10  1  0  0  0  0
  1 15  1  0  0  0  0
  4 19  1  0  0  0  0
  4 34  1  0  0  0  0
  5 19  2  0  0  0  0
  6 20  2  0  0  0  0
  7 22  1  0  0  0  0
  7 25  1  0  0  0  0
  8 23  1  0  0  0  0
  8 26  1  0  0  0  0
  9 11  1  0  0  0  0
  9 15  1  0  0  0  0
  9 18  1  0  0  0  0
 10 20  1  0  0  0  0
 10 28  1  0  0  0  0
 11 17  2  0  0  0  0
 12 20  1  0  0  0  0
 12 21  1  0  0  0  0
 12 32  1  0  0  0  0
 13 21  1  0  0  0  0
 13 22  2  0  0  0  0
 14 21  2  0  0  0  0
 14 23  1  0  0  0  0
 15 16  2  0  0  0  0
 16 17  1  0  0  0  0
 16 19  1  0  0  0  0
 17 27  1  0  0  0  0
 18 29  1  0  0  0  0
 18 30  1  0  0  0  0
 18 31  1  0  0  0  0
 22 24  1  0  0  0  0
 23 24  2  0  0  0  0
 24 33  1  0  0  0  0
 25 35  1  0  0  0  0
 25 36  1  0  0  0  0
 25 37  1  0  0  0  0
 26 38  1  0  0  0  0
 26 39  1  0  0  0  0
 26 40  1  0  0  0  0
M  END
> <PUBCHEM_COMPOUND_CID>
93525

> <PUBCHEM_COMPOUND_CANONICALIZED>
1

> <PUBCHEM_CACTVS_COMPLEXITY>
614

> <PUBCHEM_CACTVS_HBOND_ACCEPTOR>
10

> <PUBCHEM_CACTVS_HBOND_DONOR>
3

> <PUBCHEM_CACTVS_ROTATABLE_BOND>
6

> <PUBCHEM_CACTVS_SUBSKEYS>
AAADccBzuABAAAAAAAAAAAAAAAAAAWAAAAAsAAAAAAAAAAAB4AAAHgQYSAAADADB2gY/nZbIFgKqAjD3fHDYnDkFoqARUDE+bFCEDYhEaEgExKwLCQ5AMOAAAAAAAAAAAAAAAAAAAAAAAAAAAAAAAAAAAA==

> <PUBCHEM_IUPAC_OPENEYE_NAME>
5-[(4,6-dimethoxypyrimidin-2-yl)carbamoylsulfamoyl]-1-methyl-pyrazole-4-carboxylic acid

> <PUBCHEM_IUPAC_CAS_NAME>
5-[[[(4,6-dimethoxy-2-pyrimidinyl)amino]-oxomethyl]sulfamoyl]-1-methyl-4-pyrazolecarboxylic acid

> <PUBCHEM_IUPAC_NAME>
5-[(4,6-dimethoxypyrimidin-2-yl)carbamoylsulfamoyl]-1-methylpyrazole-4-carboxylic acid

> <PUBCHEM_IUPAC_SYSTEMATIC_NAME>
5-[(4,6-dimethoxypyrimidin-2-yl)carbamoylsulfamoyl]-1-methyl-pyrazole-4-carboxylic acid

> <PUBCHEM_IUPAC_TRADITIONAL_NAME>
5-[(4,6-dimethoxypyrimidin-2-yl)carbamoylsulfamoyl]-1-methyl-pyrazole-4-carboxylic acid

> <PUBCHEM_IUPAC_INCHI>
InChI=1S/C12H14N6O7S/c1-18-9(6(5-13-18)10(19)20)26(22,23)17-12(21)16-11-14-7(24-2)4-8(15-11)25-3/h4-5H,1-3H3,(H,19,20)(H2,14,15,16,17,21)

> <PUBCHEM_IUPAC_INCHIKEY>
VXMNDQDDWDDKOQ-UHFFFAOYSA-N

> <PUBCHEM_XLOGP3_AA>
0

> <PUBCHEM_EXACT_MASS>
386.064468

> <PUBCHEM_MOLECULAR_FORMULA>
C12H14N6O7S

> <PUBCHEM_MOLECULAR_WEIGHT>
386.34056

> <PUBCHEM_OPENEYE_CAN_SMILES>
CN1C(=C(C=N1)C(=O)O)S(=O)(=O)NC(=O)NC2=NC(=CC(=N2)OC)OC

> <PUBCHEM_OPENEYE_ISO_SMILES>
CN1C(=C(C=N1)C(=O)O)S(=O)(=O)NC(=O)NC2=NC(=CC(=N2)OC)OC

> <PUBCHEM_CACTVS_TPSA>
183

> <PUBCHEM_MONOISOTOPIC_WEIGHT>
386.064468

> <PUBCHEM_TOTAL_CHARGE>
0

> <PUBCHEM_HEAVY_ATOM_COUNT>
26

> <PUBCHEM_ATOM_DEF_STEREO_COUNT>
0

> <PUBCHEM_ATOM_UDEF_STEREO_COUNT>
0

> <PUBCHEM_BOND_DEF_STEREO_COUNT>
0

> <PUBCHEM_BOND_UDEF_STEREO_COUNT>
0

> <PUBCHEM_ISOTOPIC_ATOM_COUNT>
0

> <PUBCHEM_COMPONENT_COUNT>
1

> <PUBCHEM_CACTVS_TAUTO_COUNT>
5

> <PUBCHEM_COORDINATE_TYPE>
1
5
255

> <PUBCHEM_BONDANNOTATIONS>
11  17  8
13  21  8
13  22  8
14  21  8
14  23  8
15  16  8
16  17  8
22  24  8
23  24  8
9  11  8
9  15  8

$$$$

