28487
  -OEChem-07051213063D

 14 14  0     0  0  0  0  0  0999 V2000
    3.3674   -0.3788   -0.0006 Br  0  0  0  0  0  0  0  0  0  0  0  0
   -1.6540   -1.8499    0.0000 O   0  0  0  0  0  0  0  0  0  0  0  0
   -2.5632    0.7762   -0.0009 O   0  0  0  0  0  0  0  0  0  0  0  0
   -0.7717   -0.8122    0.0003 C   0  0  0  0  0  0  0  0  0  0  0  0
   -1.2280    0.5060    0.0004 C   0  0  0  0  0  0  0  0  0  0  0  0
    0.5981   -1.0761    0.0002 C   0  0  0  0  0  0  0  0  0  0  0  0
   -0.3148    1.5602    0.0003 C   0  0  0  0  0  0  0  0  0  0  0  0
    1.5114   -0.0218    0.0001 C   0  0  0  0  0  0  0  0  0  0  0  0
    1.0549    1.2964    0.0001 C   0  0  0  0  0  0  0  0  0  0  0  0
    0.9513   -2.1048    0.0000 H   0  0  0  0  0  0  0  0  0  0  0  0
   -0.6640    2.5892    0.0000 H   0  0  0  0  0  0  0  0  0  0  0  0
    1.7532    2.1293   -0.0001 H   0  0  0  0  0  0  0  0  0  0  0  0
   -1.1594   -2.6873   -0.0002 H   0  0  0  0  0  0  0  0  0  0  0  0
   -3.0462   -0.0685   -0.0011 H   0  0  0  0  0  0  0  0  0  0  0  0
  1  8  1  0  0  0  0
  2  4  1  0  0  0  0
  2 13  1  0  0  0  0
  3  5  1  0  0  0  0
  3 14  1  0  0  0  0
  4  5  2  0  0  0  0
  4  6  1  0  0  0  0
  5  7  1  0  0  0  0
  6  8  2  0  0  0  0
  6 10  1  0  0  0  0
  7  9  2  0  0  0  0
  7 11  1  0  0  0  0
  8  9  1  0  0  0  0
  9 12  1  0  0  0  0
M  END
> <PUBCHEM_COMPOUND_CID>
28487

> <PUBCHEM_CONFORMER_RMSD>
0.4

> <PUBCHEM_CONFORMER_DIVERSEORDER>
1

> <PUBCHEM_MMFF94_PARTIAL_CHARGES>
14
1 -0.11
10 0.15
11 0.15
12 0.15
13 0.45
14 0.45
2 -0.53
3 -0.53
4 0.08
5 0.08
6 -0.15
7 -0.15
8 0.11
9 -0.15

> <PUBCHEM_EFFECTIVE_ROTOR_COUNT>
0

> <PUBCHEM_PHARMACOPHORE_FEATURES>
4
1 1 hydrophobe
1 2 donor
1 3 donor
6 4 5 6 7 8 9 rings

> <PUBCHEM_HEAVY_ATOM_COUNT>
9

> <PUBCHEM_ATOM_DEF_STEREO_COUNT>
0

> <PUBCHEM_ATOM_UDEF_STEREO_COUNT>
0

> <PUBCHEM_BOND_DEF_STEREO_COUNT>
0

> <PUBCHEM_BOND_UDEF_STEREO_COUNT>
0

> <PUBCHEM_ISOTOPIC_ATOM_COUNT>
0

> <PUBCHEM_COMPONENT_COUNT>
1

> <PUBCHEM_CACTVS_TAUTO_COUNT>
8

> <PUBCHEM_CONFORMER_ID>
00006F4700000001

> <PUBCHEM_MMFF94_ENERGY>
18.4397

> <PUBCHEM_FEATURE_SELFOVERLAP>
20.301

> <PUBCHEM_SHAPE_FINGERPRINT>
14128692 85 18340481150100221708
15310529 11 16630247016878504904
16714656 1 18339359772656811076
16945 1 18410855503252076964
18185500 45 18413673512862314554
193761 8 18050286968465871044
20871998 184 18187363203549830094
21040471 1 18338516459854267841
23235685 24 18336833103309974980
23402655 69 17977966884151602701
23552423 10 18200875050619908060
2748010 2 18266181634383375348
369184 2 18413111688533138218
5084963 1 18188768327817597218

> <PUBCHEM_SHAPE_MULTIPOLES>
179.42
3.68
1.67
0.61
2.23
0.12
0
0.35
0
-0.61
0
0.1
-0.01
0

> <PUBCHEM_SHAPE_SELFOVERLAP>
361.123

> <PUBCHEM_SHAPE_VOLUME>
109

> <PUBCHEM_COORDINATE_TYPE>
2
5
10

$$$$

