12111
  -OEChem-07051213053D

 27 28  0     0  0  0  0  0  0999 V2000
   -4.7307    0.0004    1.4064 O   0  0  0  0  0  0  0  0  0  0  0  0
    4.7280   -0.0003    1.4064 O   0  0  0  0  0  0  0  0  0  0  0  0
   -0.0014    0.0000   -1.6701 C   0  0  0  0  0  0  0  0  0  0  0  0
   -1.2515    0.0001   -0.8573 C   0  0  0  0  0  0  0  0  0  0  0  0
    1.2693   -0.0001   -0.8440 C   0  0  0  0  0  0  0  0  0  0  0  0
   -1.8363    1.2080   -0.4771 C   0  0  0  0  0  0  0  0  0  0  0  0
    1.8336   -1.2080   -0.4770 C   0  0  0  0  0  0  0  0  0  0  0  0
   -1.8357   -1.2080   -0.4766 C   0  0  0  0  0  0  0  0  0  0  0  0
    1.8330    1.2080   -0.4766 C   0  0  0  0  0  0  0  0  0  0  0  0
   -3.0053    1.2077    0.2840 C   0  0  0  0  0  0  0  0  0  0  0  0
    3.0026   -1.2077    0.2841 C   0  0  0  0  0  0  0  0  0  0  0  0
   -3.0047   -1.2082    0.2843 C   0  0  0  0  0  0  0  0  0  0  0  0
    3.0020    1.2083    0.2844 C   0  0  0  0  0  0  0  0  0  0  0  0
   -3.5896   -0.0004    0.6647 C   0  0  0  0  0  0  0  0  0  0  0  0
    3.5868    0.0005    0.6647 C   0  0  0  0  0  0  0  0  0  0  0  0
    0.0043   -0.8649   -2.3483 H   0  0  0  0  0  0  0  0  0  0  0  0
    0.0044    0.8647   -2.3485 H   0  0  0  0  0  0  0  0  0  0  0  0
   -1.3924    2.1566   -0.7672 H   0  0  0  0  0  0  0  0  0  0  0  0
    1.3866   -2.1537   -0.7690 H   0  0  0  0  0  0  0  0  0  0  0  0
   -1.3912   -2.1565   -0.7663 H   0  0  0  0  0  0  0  0  0  0  0  0
    1.3855    2.1535   -0.7683 H   0  0  0  0  0  0  0  0  0  0  0  0
   -3.4511    2.1554    0.5736 H   0  0  0  0  0  0  0  0  0  0  0  0
    3.4484   -2.1555    0.5737 H   0  0  0  0  0  0  0  0  0  0  0  0
   -3.4553   -2.1525    0.5776 H   0  0  0  0  0  0  0  0  0  0  0  0
    3.4525    2.1526    0.5776 H   0  0  0  0  0  0  0  0  0  0  0  0
   -4.9946    0.9208    1.5778 H   0  0  0  0  0  0  0  0  0  0  0  0
    4.9918   -0.9207    1.5779 H   0  0  0  0  0  0  0  0  0  0  0  0
  1 14  1  0  0  0  0
  1 26  1  0  0  0  0
  2 15  1  0  0  0  0
  2 27  1  0  0  0  0
  3  4  1  0  0  0  0
  3  5  1  0  0  0  0
  3 16  1  0  0  0  0
  3 17  1  0  0  0  0
  4  6  2  0  0  0  0
  4  8  1  0  0  0  0
  5  7  2  0  0  0  0
  5  9  1  0  0  0  0
  6 10  1  0  0  0  0
  6 18  1  0  0  0  0
  7 11  1  0  0  0  0
  7 19  1  0  0  0  0
  8 12  2  0  0  0  0
  8 20  1  0  0  0  0
  9 13  2  0  0  0  0
  9 21  1  0  0  0  0
 10 14  2  0  0  0  0
 10 22  1  0  0  0  0
 11 15  2  0  0  0  0
 11 23  1  0  0  0  0
 12 14  1  0  0  0  0
 12 24  1  0  0  0  0
 13 15  1  0  0  0  0
 13 25  1  0  0  0  0
M  END
> <PUBCHEM_COMPOUND_CID>
12111

> <PUBCHEM_CONFORMER_RMSD>
0.6

> <PUBCHEM_CONFORMER_DIVERSEORDER>
1
2
3

> <PUBCHEM_MMFF94_PARTIAL_CHARGES>
25
1 -0.53
10 -0.15
11 -0.15
12 -0.15
13 -0.15
14 0.08
15 0.08
18 0.15
19 0.15
2 -0.53
20 0.15
21 0.15
22 0.15
23 0.15
24 0.15
25 0.15
26 0.45
27 0.45
3 0.29
4 -0.14
5 -0.14
6 -0.15
7 -0.15
8 -0.15
9 -0.15

> <PUBCHEM_EFFECTIVE_ROTOR_COUNT>
2

> <PUBCHEM_PHARMACOPHORE_FEATURES>
4
1 1 donor
1 2 donor
6 4 6 8 10 12 14 rings
6 5 7 9 11 13 15 rings

> <PUBCHEM_HEAVY_ATOM_COUNT>
15

> <PUBCHEM_ATOM_DEF_STEREO_COUNT>
0

> <PUBCHEM_ATOM_UDEF_STEREO_COUNT>
0

> <PUBCHEM_BOND_DEF_STEREO_COUNT>
0

> <PUBCHEM_BOND_UDEF_STEREO_COUNT>
0

> <PUBCHEM_ISOTOPIC_ATOM_COUNT>
0

> <PUBCHEM_COMPONENT_COUNT>
1

> <PUBCHEM_CACTVS_TAUTO_COUNT>
3

> <PUBCHEM_CONFORMER_ID>
00002F4F00000001

> <PUBCHEM_MMFF94_ENERGY>
37.9396

> <PUBCHEM_FEATURE_SELFOVERLAP>
20.297

> <PUBCHEM_SHAPE_FINGERPRINT>
10366900 7 18337671910354110706
10498660 4 5039949615999289603
10799339 124 18410574015216222297
11046707 91 16200157620398753408
11132069 177 18259980475118601263
12251169 10 18410575080373386615
12363563 72 15554728871455691551
12382932 28 18408041818467950988
12507560 40 18262518207642042676
12633257 1 18410856529575018947
12696612 119 18411417280737579148
12707595 3 14549016563512911316
12892183 10 18338517546459726041
13296908 3 15770062704722652631
13581323 91 18273491286511107247
13693222 15 18202003196446551957
13705890 14 12535627193821855574
13764800 53 16153700990799064255
14576447 43 11815900054860103920
15239191 94 15913325809946949216
15375462 189 17846508053720100506
15653759 3 18343302591036147644
15775835 57 16153431657425627086
17804303 29 18197768002215984191
1813 80 16917061209416796134
18186145 218 5472866964600848141
19050596 39 18410292471525316099
19862831 5 9295287244136906925
200 152 18263101954196526303
20361792 2 15697998522331668599
20523700 14 8286198348833477737
20645476 183 6627745561752077741
20645477 70 14045451203317361851
20671657 53 13398633861630730110
20767249 442 15719389546724739483
20871999 31 9655580708069895843
21065199 12 18410575114727850185
21713013 43 11095873857214560537
21731228 192 18040437680775141934
22646028 28 15770057232934304227
22926399 37 13840262598384329595
231179 274 15140680280648047938
23402539 116 18334585637977979093
23403322 49 14333138493502026224
23500284 214 16515404053675072487
23557571 272 5400504853271555733
23559900 14 17897138377903604119
25 1 6338966584915850884
26918003 58 17917996066269476921
27216 239 17023193669273583323
4028521 119 5833993836661819435
42 15 18059851775029914977
4280585 95 10228716571687825648
465052 167 15123206825027599353
474 4 14418139491214422730
5374978 207 18412536605381690169
7097593 13 18410016563063987726
90316 7 18201430420099152645

> <PUBCHEM_SHAPE_MULTIPOLES>
296.95
8.26
1.41
1.24
0.03
0
-0.06
0
4.79
0
-0.05
0
0
0

> <PUBCHEM_SHAPE_SELFOVERLAP>
641.015

> <PUBCHEM_SHAPE_VOLUME>
163.5

> <PUBCHEM_COORDINATE_TYPE>
2
5
10

$$$$

