3679
  -OEChem-06251223352D

 50 53  0     1  0  0  0  0  0999 V2000
    7.0468   -0.0981    0.0000 S   0  0  0  0  0  0  0  0  0  0  0  0
    4.4487    1.4019    0.0000 S   0  0  0  0  0  0  0  0  0  0  0  0
    9.6267    2.1146    0.0000 O   0  0  0  0  0  0  0  0  0  0  0  0
   10.8540    0.9114    0.0000 O   0  0  0  0  0  0  0  0  0  0  0  0
   11.0380   -1.7279    0.0000 O   0  0  0  0  0  0  0  0  0  0  0  0
    6.1808    3.4019    0.0000 O   0  5  0  0  0  0  0  0  0  0  0  0
    7.9128    3.4019    0.0000 O   0  0  0  0  0  0  0  0  0  0  0  0
   11.4829   -3.4019    0.0000 O   0  0  0  0  0  0  0  0  0  0  0  0
    7.9128    1.4019    0.0000 N   0  0  0  0  0  0  0  0  0  0  0  0
    9.6267   -0.3108    0.0000 N   0  0  0  0  0  0  0  0  0  0  0  0
    2.6691    1.4952    0.0000 N   0  0  0  0  0  0  0  0  0  0  0  0
    3.4782    2.8964    0.0000 N   0  0  0  0  0  0  0  0  0  0  0  0
    2.0000    2.2383    0.0000 N   0  0  0  0  0  0  0  0  0  0  0  0
    2.5000    3.1043    0.0000 N   0  0  0  0  0  0  0  0  0  0  0  0
    7.9128    0.4019    0.0000 C   0  0  3  0  0  0  0  0  0  0  0  0
    8.9211    0.3977    0.0000 C   0  0  3  0  0  0  0  0  0  0  0  0
    8.9211    1.4060    0.0000 C   0  0  0  0  0  0  0  0  0  0  0  0
    7.0468    1.9019    0.0000 C   0  0  0  0  0  0  0  0  0  0  0  0
    6.1808    1.4019    0.0000 C   0  0  0  0  0  0  0  0  0  0  0  0
    6.1808    0.4019    0.0000 C   0  0  0  0  0  0  0  0  0  0  0  0
    5.3147    1.9019    0.0000 C   0  0  0  0  0  0  0  0  0  0  0  0
   10.5932   -0.0540    0.0000 C   0  0  0  0  0  0  0  0  0  0  0  0
    7.0468    2.9019    0.0000 C   0  0  0  0  0  0  0  0  0  0  0  0
   11.2988   -0.7625    0.0000 C   0  0  3  0  0  0  0  0  0  0  0  0
   12.2653   -0.5057    0.0000 C   0  0  0  0  0  0  0  0  0  0  0  0
    3.5827    1.9019    0.0000 C   0  0  0  0  0  0  0  0  0  0  0  0
   12.9710   -1.2143    0.0000 C   0  0  0  0  0  0  0  0  0  0  0  0
   12.5261    0.4597    0.0000 C   0  0  0  0  0  0  0  0  0  0  0  0
   13.9374   -0.9574    0.0000 C   0  0  0  0  0  0  0  0  0  0  0  0
   13.4926    0.7165    0.0000 C   0  0  0  0  0  0  0  0  0  0  0  0
   11.7437   -2.4365    0.0000 C   0  0  0  0  0  0  0  0  0  0  0  0
   14.1982    0.0080    0.0000 C   0  0  0  0  0  0  0  0  0  0  0  0
    2.4612    0.5170    0.0000 C   0  0  0  0  0  0  0  0  0  0  0  0
    8.1311   -0.4196    0.0000 H   0  0  0  0  0  0  0  0  0  0  0  0
    8.5934   -0.3866    0.0000 H   0  0  0  0  0  0  0  0  0  0  0  0
    5.5702    0.5095    0.0000 H   0  0  0  0  0  0  0  0  0  0  0  0
    5.9687   -0.1807    0.0000 H   0  0  0  0  0  0  0  0  0  0  0  0
    9.4650   -0.9094    0.0000 H   0  0  0  0  0  0  0  0  0  0  0  0
    5.7133    2.3768    0.0000 H   0  0  0  0  0  0  0  0  0  0  0  0
    4.9162    2.3768    0.0000 H   0  0  0  0  0  0  0  0  0  0  0  0
   11.8986   -1.3648    0.0000 H   0  0  0  0  0  0  0  0  0  0  0  0
   12.8093   -1.8128    0.0000 H   0  0  0  0  0  0  0  0  0  0  0  0
   12.0886    0.8990    0.0000 H   0  0  0  0  0  0  0  0  0  0  0  0
   14.3749   -1.3967    0.0000 H   0  0  0  0  0  0  0  0  0  0  0  0
   13.6543    1.3151    0.0000 H   0  0  0  0  0  0  0  0  0  0  0  0
   12.3429   -2.2773    0.0000 H   0  0  0  0  0  0  0  0  0  0  0  0
   14.7974    0.1672    0.0000 H   0  0  0  0  0  0  0  0  0  0  0  0
    1.8548    0.6459    0.0000 H   0  0  0  0  0  0  0  0  0  0  0  0
    2.3323   -0.0895    0.0000 H   0  0  0  0  0  0  0  0  0  0  0  0
    3.0677    0.3881    0.0000 H   0  0  0  0  0  0  0  0  0  0  0  0
  1 15  1  0  0  0  0
  1 20  1  0  0  0  0
  2 21  1  0  0  0  0
  2 26  1  0  0  0  0
  3 17  2  0  0  0  0
  4 22  2  0  0  0  0
  5 24  1  0  0  0  0
  5 31  1  0  0  0  0
  6 23  1  0  0  0  0
  7 23  2  0  0  0  0
  8 31  2  0  0  0  0
  9 15  1  0  0  0  0
  9 17  1  0  0  0  0
  9 18  1  0  0  0  0
 10 16  1  0  0  0  0
 10 22  1  0  0  0  0
 10 38  1  0  0  0  0
 11 13  1  0  0  0  0
 11 26  1  0  0  0  0
 11 33  1  0  0  0  0
 12 14  1  0  0  0  0
 12 26  2  0  0  0  0
 13 14  2  0  0  0  0
 15 16  1  0  0  0  0
 15 34  1  0  0  0  0
 16 17  1  0  0  0  0
 16 35  1  0  0  0  0
 18 19  2  0  0  0  0
 18 23  1  0  0  0  0
 19 20  1  0  0  0  0
 19 21  1  0  0  0  0
 20 36  1  0  0  0  0
 20 37  1  0  0  0  0
 21 39  1  0  0  0  0
 21 40  1  0  0  0  0
 22 24  1  0  0  0  0
 24 25  1  0  0  0  0
 24 41  1  0  0  0  0
 25 27  2  0  0  0  0
 25 28  1  0  0  0  0
 27 29  1  0  0  0  0
 27 42  1  0  0  0  0
 28 30  2  0  0  0  0
 28 43  1  0  0  0  0
 29 32  2  0  0  0  0
 29 44  1  0  0  0  0
 30 32  1  0  0  0  0
 30 45  1  0  0  0  0
 31 46  1  0  0  0  0
 32 47  1  0  0  0  0
 33 48  1  0  0  0  0
 33 49  1  0  0  0  0
 33 50  1  0  0  0  0
M  CHG  1   6  -1
M  END
> <PUBCHEM_COMPOUND_CID>
3679

> <PUBCHEM_COMPOUND_CANONICALIZED>
1

> <PUBCHEM_CACTVS_COMPLEXITY>
832

> <PUBCHEM_CACTVS_HBOND_ACCEPTOR>
11

> <PUBCHEM_CACTVS_HBOND_DONOR>
1

> <PUBCHEM_CACTVS_ROTATABLE_BOND>
8

> <PUBCHEM_CACTVS_SUBSKEYS>
AAADceB7uABgAAAAAAAAAAAAAABYAWAAAAAwQAAAAAAQAAABwAAAHgQYAAAADDzl2AezGIfIBAiqAiXS/AICEANggJANyIHICMiKZjqgtT2VMAAk1gG4qQeYyKCOAAAAAAAAAAAAAAAAAAAAAAAAAAAAAA==

> <PUBCHEM_IUPAC_OPENEYE_NAME>
7-[(2-formyloxy-2-phenyl-acetyl)amino]-3-[(1-methyltetrazol-5-yl)sulfanylmethyl]-8-oxo-5-thia-1-azabicyclo[4.2.0]oct-2-ene-2-carboxylate

> <PUBCHEM_IUPAC_CAS_NAME>
7-[(2-formyloxy-1-oxo-2-phenylethyl)amino]-3-[[(1-methyl-5-tetrazolyl)thio]methyl]-8-oxo-5-thia-1-azabicyclo[4.2.0]oct-2-ene-2-carboxylate

> <PUBCHEM_IUPAC_NAME>
7-[(2-formyloxy-2-phenylacetyl)amino]-3-[(1-methyltetrazol-5-yl)sulfanylmethyl]-8-oxo-5-thia-1-azabicyclo[4.2.0]oct-2-ene-2-carboxylate

> <PUBCHEM_IUPAC_SYSTEMATIC_NAME>
7-[(2-methanoyloxy-2-phenyl-ethanoyl)amino]-3-[(1-methyl-1,2,3,4-tetrazol-5-yl)sulfanylmethyl]-8-oxidanylidene-5-thia-1-azabicyclo[4.2.0]oct-2-ene-2-carboxylate

> <PUBCHEM_IUPAC_TRADITIONAL_NAME>
7-[(2-formyloxy-2-phenyl-acetyl)amino]-8-keto-3-[[(1-methyltetrazol-5-yl)thio]methyl]-5-thia-1-azabicyclo[4.2.0]oct-2-ene-2-carboxylate

> <PUBCHEM_IUPAC_INCHI>
InChI=1S/C19H18N6O6S2/c1-24-19(21-22-23-24)33-8-11-7-32-17-12(16(28)25(17)13(11)18(29)30)20-15(27)14(31-9-26)10-5-3-2-4-6-10/h2-6,9,12,14,17H,7-8H2,1H3,(H,20,27)(H,29,30)/p-1

> <PUBCHEM_IUPAC_INCHIKEY>
RRJHESVQVSRQEX-UHFFFAOYSA-M

> <PUBCHEM_XLOGP3>
0.4

> <PUBCHEM_EXACT_MASS>
489.065099

> <PUBCHEM_MOLECULAR_FORMULA>
C19H17N6O6S2-

> <PUBCHEM_MOLECULAR_WEIGHT>
489.50488

> <PUBCHEM_OPENEYE_CAN_SMILES>
CN1C(=NN=N1)SCC2=C(N3C(C(C3=O)NC(=O)C(C4=CC=CC=C4)OC=O)SC2)C(=O)[O-]

> <PUBCHEM_OPENEYE_ISO_SMILES>
CN1C(=NN=N1)SCC2=C(N3C(C(C3=O)NC(=O)C(C4=CC=CC=C4)OC=O)SC2)C(=O)[O-]

> <PUBCHEM_CACTVS_TPSA>
210

> <PUBCHEM_MONOISOTOPIC_WEIGHT>
489.065099

> <PUBCHEM_TOTAL_CHARGE>
-1

> <PUBCHEM_HEAVY_ATOM_COUNT>
33

> <PUBCHEM_ATOM_DEF_STEREO_COUNT>
0

> <PUBCHEM_ATOM_UDEF_STEREO_COUNT>
3

> <PUBCHEM_BOND_DEF_STEREO_COUNT>
0

> <PUBCHEM_BOND_UDEF_STEREO_COUNT>
0

> <PUBCHEM_ISOTOPIC_ATOM_COUNT>
0

> <PUBCHEM_COMPONENT_COUNT>
1

> <PUBCHEM_CACTVS_TAUTO_COUNT>
4

> <PUBCHEM_COORDINATE_TYPE>
1
5
255

> <PUBCHEM_BONDANNOTATIONS>
11  13  8
11  26  8
12  14  8
12  26  8
13  14  8
15  34  3
16  35  3
24  41  3
25  27  8
25  28  8
27  29  8
28  30  8
29  32  8
30  32  8

$$$$

