178939
  -OEChem-07051212563D

 30 32  0     0  0  0  0  0  0999 V2000
    1.1009   -1.4558    0.0965 O   0  0  0  0  0  0  0  0  0  0  0  0
   -1.5872   -2.5496    0.2473 O   0  0  0  0  0  0  0  0  0  0  0  0
   -3.1214    2.0029    0.2634 O   0  0  0  0  0  0  0  0  0  0  0  0
   -3.6605   -0.6984    0.3270 O   0  0  0  0  0  0  0  0  0  0  0  0
    0.2749    0.6494    0.1096 C   0  0  0  0  0  0  0  0  0  0  0  0
    1.6967    0.7250    0.0361 C   0  0  0  0  0  0  0  0  0  0  0  0
   -0.0355   -0.7065    0.1439 C   0  0  0  0  0  0  0  0  0  0  0  0
    2.1506   -0.5903    0.0308 C   0  0  0  0  0  0  0  0  0  0  0  0
   -1.3334   -1.2098    0.2164 C   0  0  0  0  0  0  0  0  0  0  0  0
   -0.7810    1.5785    0.1506 C   0  0  0  0  0  0  0  0  0  0  0  0
   -2.0969    1.1021    0.2233 C   0  0  0  0  0  0  0  0  0  0  0  0
   -2.3656   -0.2681    0.2554 C   0  0  0  0  0  0  0  0  0  0  0  0
    2.6470    1.7607   -0.0270 C   0  0  0  0  0  0  0  0  0  0  0  0
    3.4950   -0.9532   -0.0331 C   0  0  0  0  0  0  0  0  0  0  0  0
    4.0066    1.4266   -0.0921 C   0  0  0  0  0  0  0  0  0  0  0  0
    4.4204    0.0926   -0.0951 C   0  0  0  0  0  0  0  0  0  0  0  0
   -1.1399   -3.3181   -0.8668 C   0  0  0  0  0  0  0  0  0  0  0  0
   -3.6707    2.4120   -0.9864 C   0  0  0  0  0  0  0  0  0  0  0  0
   -0.5809    2.6460    0.1268 H   0  0  0  0  0  0  0  0  0  0  0  0
    2.3415    2.8028   -0.0258 H   0  0  0  0  0  0  0  0  0  0  0  0
    3.8086   -1.9903   -0.0349 H   0  0  0  0  0  0  0  0  0  0  0  0
    4.7493    2.2188   -0.1411 H   0  0  0  0  0  0  0  0  0  0  0  0
    5.4818   -0.1374   -0.1465 H   0  0  0  0  0  0  0  0  0  0  0  0
   -3.6611   -1.6714    0.3381 H   0  0  0  0  0  0  0  0  0  0  0  0
   -1.7439   -4.2287   -0.9146 H   0  0  0  0  0  0  0  0  0  0  0  0
   -0.0943   -3.6083   -0.7317 H   0  0  0  0  0  0  0  0  0  0  0  0
   -1.2649   -2.7718   -1.8080 H   0  0  0  0  0  0  0  0  0  0  0  0
   -4.0800    1.5536   -1.5284 H   0  0  0  0  0  0  0  0  0  0  0  0
   -2.9100    2.9120   -1.5944 H   0  0  0  0  0  0  0  0  0  0  0  0
   -4.4810    3.1193   -0.7898 H   0  0  0  0  0  0  0  0  0  0  0  0
  1  7  1  0  0  0  0
  1  8  1  0  0  0  0
  2  9  1  0  0  0  0
  2 17  1  0  0  0  0
  3 11  1  0  0  0  0
  3 18  1  0  0  0  0
  4 12  1  0  0  0  0
  4 24  1  0  0  0  0
  5  6  1  0  0  0  0
  5  7  1  0  0  0  0
  5 10  2  0  0  0  0
  6  8  1  0  0  0  0
  6 13  2  0  0  0  0
  7  9  2  0  0  0  0
  8 14  2  0  0  0  0
  9 12  1  0  0  0  0
 10 11  1  0  0  0  0
 10 19  1  0  0  0  0
 11 12  2  0  0  0  0
 13 15  1  0  0  0  0
 13 20  1  0  0  0  0
 14 16  1  0  0  0  0
 14 21  1  0  0  0  0
 15 16  2  0  0  0  0
 15 22  1  0  0  0  0
 16 23  1  0  0  0  0
 17 25  1  0  0  0  0
 17 26  1  0  0  0  0
 17 27  1  0  0  0  0
 18 28  1  0  0  0  0
 18 29  1  0  0  0  0
 18 30  1  0  0  0  0
M  END
> <PUBCHEM_COMPOUND_CID>
178939

> <PUBCHEM_CONFORMER_RMSD>
0.6

> <PUBCHEM_CONFORMER_DIVERSEORDER>
1
2

> <PUBCHEM_MMFF94_PARTIAL_CHARGES>
22
1 -0.28
10 -0.15
11 0.08
12 0.08
13 -0.15
14 -0.15
15 -0.15
16 -0.15
17 0.28
18 0.28
19 0.15
2 -0.36
20 0.15
21 0.15
22 0.15
23 0.15
24 0.45
3 -0.36
4 -0.53
7 0.14
8 0.14
9 0.08

> <PUBCHEM_EFFECTIVE_ROTOR_COUNT>
2

> <PUBCHEM_PHARMACOPHORE_FEATURES>
7
1 1 acceptor
1 2 acceptor
1 3 acceptor
1 4 donor
5 1 5 6 7 8 rings
6 5 7 9 10 11 12 rings
6 6 8 13 14 15 16 rings

> <PUBCHEM_HEAVY_ATOM_COUNT>
18

> <PUBCHEM_ATOM_DEF_STEREO_COUNT>
0

> <PUBCHEM_ATOM_UDEF_STEREO_COUNT>
0

> <PUBCHEM_BOND_DEF_STEREO_COUNT>
0

> <PUBCHEM_BOND_UDEF_STEREO_COUNT>
0

> <PUBCHEM_ISOTOPIC_ATOM_COUNT>
0

> <PUBCHEM_COMPONENT_COUNT>
1

> <PUBCHEM_CACTVS_TAUTO_COUNT>
3

> <PUBCHEM_CONFORMER_ID>
0002BAFB00000001

> <PUBCHEM_MMFF94_ENERGY>
60.0125

> <PUBCHEM_FEATURE_SELFOVERLAP>
35.724

> <PUBCHEM_SHAPE_FINGERPRINT>
10411042 1 17689997838836171154
10608611 8 18410293584286277944
10616163 171 18336541595711966014
10967382 1 18410008827938352090
11132069 177 18336548192744354792
12173636 292 18410014316605798397
12500047 106 18410016537378495464
12507560 14 17978804733021989186
12553582 1 17688589360151193622
12730499 353 18054509377486874965
13140716 1 17906162950285258801
13380535 76 18335702801145939662
13583140 156 17060346227200467401
14178342 30 18268165183957352706
15042514 8 18195238928225772707
15196674 1 18411980282441532712
15309172 13 18337380660206005377
15442244 35 18411982503140032954
15669948 3 18337957792294665482
16752209 62 18337969925593029467
16945 1 18337395920055898848
18186145 218 18262791994675051888
200 152 17822300105805414541
20510252 161 18261105288108905761
20645477 56 18408881806850009424
21267235 1 18339631274856824930
21501502 16 18340487764555520792
21524375 3 18270682085957875953
22182313 1 18266159786159131727
2334 1 18410574002658588921
23402539 116 18261680281456508527
23557571 272 18187916236808665844
23558518 356 18057043497968765504
23559900 14 18261110816512270602
238 59 17265011696885687357
25 1 18195814200429420349
2748010 2 18339350976637550949
3060560 45 18122632909438590316
3071541 12 17616247430898715369
335352 9 18267584804868323590
350125 39 18411131433827214649
352729 6 18336261353031724947
5104073 3 18412543232410850680
559249 180 18270405005234168050
633830 44 17897157151142844533
69090 78 18408885118296135803
7364860 26 17904763632481056803
7832392 63 18412545405796124820
81228 2 18124885559982776193
8272917 22 17903920307553299677
8809292 202 18341045199460094194
9709674 26 18335132086118818982

> <PUBCHEM_SHAPE_MULTIPOLES>
346.95
7.03
2.92
0.72
3.22
1.44
0.09
-3.04
0.52
-2.36
0.68
-0.28
0
0.27

> <PUBCHEM_SHAPE_SELFOVERLAP>
774.903

> <PUBCHEM_SHAPE_VOLUME>
188

> <PUBCHEM_COORDINATE_TYPE>
2
5
10

$$$$

