242487
  -OEChem-07051213073D

 49 52  0     1  0  0  0  0  0999 V2000
   -5.5222    1.2478   -0.2982 O   0  0  0  0  0  0  0  0  0  0  0  0
    5.8837    0.4520   -0.2190 O   0  0  0  0  0  0  0  0  0  0  0  0
    0.2160   -0.5513   -0.3328 C   0  0  1  0  0  0  0  0  0  0  0  0
   -0.6782    0.5822    0.2497 C   0  0  2  0  0  0  0  0  0  0  0  0
   -2.1029    0.4440   -0.2978 C   0  0  1  0  0  0  0  0  0  0  0  0
   -2.7409   -0.9207    0.0318 C   0  0  2  0  0  0  0  0  0  0  0  0
    1.6909   -0.4734    0.2325 C   0  0  2  0  0  0  0  0  0  0  0  0
   -0.4367   -1.9558   -0.2100 C   0  0  0  0  0  0  0  0  0  0  0  0
   -1.9057   -2.0022   -0.6640 C   0  0  0  0  0  0  0  0  0  0  0  0
   -0.0902    1.9555   -0.1076 C   0  0  0  0  0  0  0  0  0  0  0  0
   -3.1493    1.4691    0.1300 C   0  0  0  0  0  0  0  0  0  0  0  0
   -4.1577   -0.7415   -0.5429 C   0  0  0  0  0  0  0  0  0  0  0  0
    2.2032    0.9737    0.2228 C   0  0  0  0  0  0  0  0  0  0  0  0
    2.6083   -1.3456   -0.6758 C   0  0  0  0  0  0  0  0  0  0  0  0
   -2.8581   -1.2276    1.5448 C   0  0  0  0  0  0  0  0  0  0  0  0
   -4.4163    0.7254   -0.2425 C   0  0  0  0  0  0  0  0  0  0  0  0
    1.3936    2.0340    0.0563 C   0  0  0  0  0  0  0  0  0  0  0  0
    1.7647   -0.9960    1.6875 C   0  0  0  0  0  0  0  0  0  0  0  0
    3.6890    1.1810    0.4045 C   0  0  0  0  0  0  0  0  0  0  0  0
    4.1041   -1.1588   -0.4252 C   0  0  0  0  0  0  0  0  0  0  0  0
    4.5046    0.3081   -0.5440 C   0  0  2  0  0  0  0  0  0  0  0  0
    0.2788   -0.3553   -1.4159 H   0  0  0  0  0  0  0  0  0  0  0  0
   -0.7027    0.5040    1.3427 H   0  0  0  0  0  0  0  0  0  0  0  0
   -2.0293    0.5240   -1.3963 H   0  0  0  0  0  0  0  0  0  0  0  0
   -0.3861   -2.3145    0.8218 H   0  0  0  0  0  0  0  0  0  0  0  0
    0.1256   -2.6781   -0.8124 H   0  0  0  0  0  0  0  0  0  0  0  0
   -1.9410   -1.8655   -1.7525 H   0  0  0  0  0  0  0  0  0  0  0  0
   -2.3209   -2.9973   -0.4640 H   0  0  0  0  0  0  0  0  0  0  0  0
   -0.5548    2.7195    0.5274 H   0  0  0  0  0  0  0  0  0  0  0  0
   -0.3279    2.2194   -1.1457 H   0  0  0  0  0  0  0  0  0  0  0  0
   -3.0675    2.3984   -0.4388 H   0  0  0  0  0  0  0  0  0  0  0  0
   -3.1353    1.6681    1.2044 H   0  0  0  0  0  0  0  0  0  0  0  0
   -4.9017   -1.3765   -0.0551 H   0  0  0  0  0  0  0  0  0  0  0  0
   -4.1869   -0.8840   -1.6277 H   0  0  0  0  0  0  0  0  0  0  0  0
    2.4125   -1.1084   -1.7306 H   0  0  0  0  0  0  0  0  0  0  0  0
    2.3706   -2.4087   -0.5500 H   0  0  0  0  0  0  0  0  0  0  0  0
   -3.4839   -0.4984    2.0698 H   0  0  0  0  0  0  0  0  0  0  0  0
   -3.3176   -2.2113    1.6976 H   0  0  0  0  0  0  0  0  0  0  0  0
   -1.8904   -1.2405    2.0529 H   0  0  0  0  0  0  0  0  0  0  0  0
    1.8182    3.0350    0.0377 H   0  0  0  0  0  0  0  0  0  0  0  0
    1.0526   -0.4817    2.3410 H   0  0  0  0  0  0  0  0  0  0  0  0
    1.5573   -2.0695    1.7430 H   0  0  0  0  0  0  0  0  0  0  0  0
    2.7565   -0.8563    2.1305 H   0  0  0  0  0  0  0  0  0  0  0  0
    3.9732    2.2301    0.2497 H   0  0  0  0  0  0  0  0  0  0  0  0
    3.9632    0.9670    1.4454 H   0  0  0  0  0  0  0  0  0  0  0  0
    4.3809   -1.5517    0.5609 H   0  0  0  0  0  0  0  0  0  0  0  0
    4.6788   -1.7539   -1.1457 H   0  0  0  0  0  0  0  0  0  0  0  0
    4.3715    0.6487   -1.5776 H   0  0  0  0  0  0  0  0  0  0  0  0
    6.0136    0.1363    0.6916 H   0  0  0  0  0  0  0  0  0  0  0  0
  1 16  2  0  0  0  0
  2 21  1  0  0  0  0
  2 49  1  0  0  0  0
  3  4  1  0  0  0  0
  3  7  1  0  0  0  0
  3  8  1  0  0  0  0
  3 22  1  0  0  0  0
  4  5  1  0  0  0  0
  4 10  1  0  0  0  0
  4 23  1  0  0  0  0
  5  6  1  0  0  0  0
  5 11  1  0  0  0  0
  5 24  1  0  0  0  0
  6  9  1  0  0  0  0
  6 12  1  0  0  0  0
  6 15  1  0  0  0  0
  7 13  1  0  0  0  0
  7 14  1  0  0  0  0
  7 18  1  0  0  0  0
  8  9  1  0  0  0  0
  8 25  1  0  0  0  0
  8 26  1  0  0  0  0
  9 27  1  0  0  0  0
  9 28  1  0  0  0  0
 10 17  1  0  0  0  0
 10 29  1  0  0  0  0
 10 30  1  0  0  0  0
 11 16  1  0  0  0  0
 11 31  1  0  0  0  0
 11 32  1  0  0  0  0
 12 16  1  0  0  0  0
 12 33  1  0  0  0  0
 12 34  1  0  0  0  0
 13 17  2  0  0  0  0
 13 19  1  0  0  0  0
 14 20  1  0  0  0  0
 14 35  1  0  0  0  0
 14 36  1  0  0  0  0
 15 37  1  0  0  0  0
 15 38  1  0  0  0  0
 15 39  1  0  0  0  0
 17 40  1  0  0  0  0
 18 41  1  0  0  0  0
 18 42  1  0  0  0  0
 18 43  1  0  0  0  0
 19 21  1  0  0  0  0
 19 44  1  0  0  0  0
 19 45  1  0  0  0  0
 20 21  1  0  0  0  0
 20 46  1  0  0  0  0
 20 47  1  0  0  0  0
 21 48  1  0  0  0  0
M  END
> <PUBCHEM_COMPOUND_CID>
242487

> <PUBCHEM_CONFORMER_RMSD>
0.6

> <PUBCHEM_CONFORMER_DIVERSEORDER>
1

> <PUBCHEM_MMFF94_PARTIAL_CHARGES>
13
1 -0.57
10 0.14
11 0.06
12 0.06
13 -0.28
16 0.45
17 -0.29
19 0.14
2 -0.68
21 0.28
40 0.15
49 0.4
7 0.14

> <PUBCHEM_EFFECTIVE_ROTOR_COUNT>
1.8

> <PUBCHEM_PHARMACOPHORE_FEATURES>
7
1 1 acceptor
1 2 acceptor
1 2 donor
5 5 6 11 12 16 rings
6 3 4 5 6 8 9 rings
6 3 4 7 10 13 17 rings
6 7 13 14 19 20 21 rings

> <PUBCHEM_HEAVY_ATOM_COUNT>
21

> <PUBCHEM_ATOM_DEF_STEREO_COUNT>
6

> <PUBCHEM_ATOM_UDEF_STEREO_COUNT>
0

> <PUBCHEM_BOND_DEF_STEREO_COUNT>
0

> <PUBCHEM_BOND_UDEF_STEREO_COUNT>
0

> <PUBCHEM_ISOTOPIC_ATOM_COUNT>
0

> <PUBCHEM_COMPONENT_COUNT>
1

> <PUBCHEM_CACTVS_TAUTO_COUNT>
3

> <PUBCHEM_CONFORMER_ID>
0003B33700000001

> <PUBCHEM_MMFF94_ENERGY>
59.1596

> <PUBCHEM_FEATURE_SELFOVERLAP>
35.622

> <PUBCHEM_SHAPE_FINGERPRINT>
10366900 7 17703797976921738291
10967382 1 18337110158707140487
11132069 177 18335426720859103936
11315181 36 17022900125718202896
11471102 20 18335139804153509012
11578080 2 16662630747967552755
12011746 2 18409732880526659301
12236239 1 17988926665310606158
12788726 201 18263647432012484561
12969540 114 18341348763595728111
13140716 1 18411428288538071291
13221675 6 18412545388188844834
13224815 77 17989209226497330786
13583140 156 17632858625333495233
13760787 19 17847063276552661106
14790565 3 18265044906954286809
15099037 51 18408887351879414565
15196674 1 18409168792137677607
15375358 24 18407760334980524414
15536298 74 18261114049805142392
1601671 61 18411138052018233916
16945 1 18121777231662422413
17804303 29 18335701607129427933
18186145 218 18272099305117396901
19141452 34 18260267425667132399
19862831 5 18411136935110179692
200 152 17676207970279477133
20645477 70 18187364389055846966
20681677 155 18341896294247232753
21029758 11 18259704505752355073
21033648 29 18187092728094952841
21267235 1 18337383855508854967
21279426 13 18193275423548483421
21285901 2 18189048870733664228
21421861 104 17915753161597215666
21452121 103 18115601352897543008
221490 88 18267860575674784298
23175994 123 16805314479636623640
23402539 116 18408046195614651670
23402655 69 18334575746056301374
23493267 7 18201719539689921187
23559900 14 18041287573478216536
2748010 2 18410295808757181181
2871803 45 18340767130655868380
296302 2 18342457049604318799
3004659 81 18341609374117517814
335352 9 18408886260651844484
34934 24 18411704279158114134
350125 39 18264764377360420011
3545911 37 18408885135634240981
4214541 1 18408323267938666885
4340502 62 16630238194836227569
474 4 17631728258418162644
4921388 177 16486964051799272043
495365 180 17095820849179224666
5104073 3 18409731742080628154
542803 24 15554445206193391988
633830 44 17988364754686432076
69090 78 18261115162127851711
7364860 26 18116435843193818016
7832392 63 18336271137019907734
9709674 26 18339081458902760731

> <PUBCHEM_SHAPE_MULTIPOLES>
420.43
9.81
2.09
0.98
1.53
0.09
0.37
1.64
-1.33
-0.39
-0.08
-0.03
-0.35
0.28

> <PUBCHEM_SHAPE_SELFOVERLAP>
901.347

> <PUBCHEM_SHAPE_VOLUME>
231.2

> <PUBCHEM_COORDINATE_TYPE>
2
5
10

$$$$

