854077
  -OEChem-06241222473D

 29 32  0     0  0  0  0  0  0999 V2000
   -1.0045   -0.2119    0.0315 N   0  0  0  0  0  0  0  0  0  0  0  0
    0.5081    1.3349   -0.1909 N   0  0  0  0  0  0  0  0  0  0  0  0
   -1.9568    1.7842   -0.2542 N   0  0  0  0  0  0  0  0  0  0  0  0
   -0.8287    1.1332   -0.1601 C   0  0  0  0  0  0  0  0  0  0  0  0
   -2.3391   -0.4743    0.0715 C   0  0  0  0  0  0  0  0  0  0  0  0
    1.1623    0.1013   -0.0181 C   0  0  0  0  0  0  0  0  0  0  0  0
    0.2139   -0.8588    0.1204 C   0  0  0  0  0  0  0  0  0  0  0  0
   -2.9192    0.7914   -0.1100 C   0  0  0  0  0  0  0  0  0  0  0  0
    2.6214   -0.0426    0.0021 C   0  0  0  0  0  0  0  0  0  0  0  0
   -3.0841   -1.6420    0.2401 C   0  0  0  0  0  0  0  0  0  0  0  0
   -4.3208    0.8982   -0.1235 C   0  0  0  0  0  0  0  0  0  0  0  0
   -4.4763   -1.5084    0.2227 C   0  0  0  0  0  0  0  0  0  0  0  0
   -5.0850   -0.2636    0.0447 C   0  0  0  0  0  0  0  0  0  0  0  0
    3.2262   -1.2291   -0.4375 C   0  0  0  0  0  0  0  0  0  0  0  0
    3.4342    1.0040    0.4609 C   0  0  0  0  0  0  0  0  0  0  0  0
    4.6142   -1.3659   -0.4188 C   0  0  0  0  0  0  0  0  0  0  0  0
    4.8221    0.8672    0.4795 C   0  0  0  0  0  0  0  0  0  0  0  0
    5.4121   -0.3178    0.0397 C   0  0  0  0  0  0  0  0  0  0  0  0
    0.3041   -1.9214    0.2743 H   0  0  0  0  0  0  0  0  0  0  0  0
    1.0148    2.1976   -0.3325 H   0  0  0  0  0  0  0  0  0  0  0  0
   -2.6120   -2.6080    0.3782 H   0  0  0  0  0  0  0  0  0  0  0  0
   -4.8062    1.8592   -0.2612 H   0  0  0  0  0  0  0  0  0  0  0  0
   -5.0968   -2.3921    0.3506 H   0  0  0  0  0  0  0  0  0  0  0  0
   -6.1698   -0.1944    0.0362 H   0  0  0  0  0  0  0  0  0  0  0  0
    2.6297   -2.0600   -0.8067 H   0  0  0  0  0  0  0  0  0  0  0  0
    3.0026    1.9357    0.8188 H   0  0  0  0  0  0  0  0  0  0  0  0
    5.0740   -2.2878   -0.7625 H   0  0  0  0  0  0  0  0  0  0  0  0
    5.4438    1.6823    0.8384 H   0  0  0  0  0  0  0  0  0  0  0  0
    6.4928   -0.4243    0.0544 H   0  0  0  0  0  0  0  0  0  0  0  0
  1  4  1  0  0  0  0
  1  5  1  0  0  0  0
  1  7  1  0  0  0  0
  2  4  1  0  0  0  0
  2  6  1  0  0  0  0
  2 20  1  0  0  0  0
  3  4  2  0  0  0  0
  3  8  1  0  0  0  0
  5  8  1  0  0  0  0
  5 10  2  0  0  0  0
  6  7  2  0  0  0  0
  6  9  1  0  0  0  0
  7 19  1  0  0  0  0
  8 11  2  0  0  0  0
  9 14  2  0  0  0  0
  9 15  1  0  0  0  0
 10 12  1  0  0  0  0
 10 21  1  0  0  0  0
 11 13  1  0  0  0  0
 11 22  1  0  0  0  0
 12 13  2  0  0  0  0
 12 23  1  0  0  0  0
 13 24  1  0  0  0  0
 14 16  1  0  0  0  0
 14 25  1  0  0  0  0
 15 17  2  0  0  0  0
 15 26  1  0  0  0  0
 16 18  2  0  0  0  0
 16 27  1  0  0  0  0
 17 18  1  0  0  0  0
 17 28  1  0  0  0  0
 18 29  1  0  0  0  0
M  END
> <PUBCHEM_COMPOUND_CID>
854077

> <PUBCHEM_CONFORMER_RMSD>
0.6

> <PUBCHEM_CONFORMER_DIVERSEORDER>
1

> <PUBCHEM_MMFF94_PARTIAL_CHARGES>
29
1 0.33
10 -0.15
11 -0.15
12 -0.15
13 -0.15
14 -0.15
15 -0.15
16 -0.15
17 -0.15
18 -0.15
19 0.15
2 -0.58
20 0.4
21 0.15
22 0.15
23 0.15
24 0.15
25 0.15
26 0.15
27 0.15
28 0.15
29 0.15
3 -0.57
4 0.27
5 -0.15
6 0.07
7 -0.18
8 0.23
9 0.03

> <PUBCHEM_EFFECTIVE_ROTOR_COUNT>
1

> <PUBCHEM_PHARMACOPHORE_FEATURES>
6
1 2 donor
4 1 2 3 4 cation
5 1 2 4 6 7 rings
5 1 3 4 5 8 rings
6 5 8 10 11 12 13 rings
6 9 14 15 16 17 18 rings

> <PUBCHEM_HEAVY_ATOM_COUNT>
18

> <PUBCHEM_ATOM_DEF_STEREO_COUNT>
0

> <PUBCHEM_ATOM_UDEF_STEREO_COUNT>
0

> <PUBCHEM_BOND_DEF_STEREO_COUNT>
0

> <PUBCHEM_BOND_UDEF_STEREO_COUNT>
0

> <PUBCHEM_ISOTOPIC_ATOM_COUNT>
0

> <PUBCHEM_COMPONENT_COUNT>
1

> <PUBCHEM_CACTVS_TAUTO_COUNT>
2

> <PUBCHEM_CONFORMER_ID>
000D083D00000001

> <PUBCHEM_MMFF94_ENERGY>
75.1097

> <PUBCHEM_FEATURE_SELFOVERLAP>
30.889

> <PUBCHEM_SHAPE_FINGERPRINT>
10 15 18263095349275303408
11287383 113 18409167697332454298
11315181 36 18335136488138290672
11401426 45 18343586235277109439
12032990 46 18410571786128215084
12107183 9 17689716789113185042
12236239 1 17203610397792470056
12596602 18 14996291292428193966
13167823 11 18411703201079391218
13214271 11 18335423461163471319
13288520 33 18411698785979293191
13675066 3 18408324358612342672
13862211 1 18341618100662920555
1420 363 18411415107257195675
14341114 176 18334571343746666352
15196674 1 18410855460133449550
15788980 27 17775283863251410525
15961568 22 17774438279493350500
17804303 29 18410009927450064233
17834072 33 18342735187628889020
17844677 252 18335132098824444160
1813 80 17418092117974387308
18186145 218 16200149850681686756
18785283 64 17971206824333329960
19141452 34 18260265214234020847
19489759 90 17560805445883656733
200 152 17894352185078622819
20374829 77 18342741822904981203
20645477 70 18041277772663481990
21033648 29 17604165794842145000
21065201 7 18201162143413848520
21267235 1 18342167844166698731
21682296 61 17532642632744823470
221490 88 18198615545244536275
2297311 6 18336536183768005212
23175994 123 17458341940190593825
23402539 116 18341618109426590767
23557571 272 18411415159013315308
23559900 14 18410014342760808176
239999 70 18261106392606675046
26918003 58 18259705609811774490
2871803 45 18343023306703949386
3004659 81 18272649095771493262
3268164 11 17275112746837329247
335352 9 18412825790220446821
34797466 226 17968927609727218860
34934 24 18343028830427232091
3545911 37 18409166619343213596
42 15 18410291419564290214
4214541 1 18410011069589696065
5104073 3 18335140933756327874
5283173 99 18271815682515269813
5374978 207 18409735062686381368
542803 24 13973966518998225134
69090 78 18333454235569482254
7495541 125 18040721333748209776
77779 3 18408885152824549248
9709674 26 18411411813381685718

> <PUBCHEM_SHAPE_MULTIPOLES>
355.49
12
1.63
0.66
3.86
0.06
-0.01
2.17
-0.46
-0.48
0.04
0.15
0.01
0.71

> <PUBCHEM_SHAPE_SELFOVERLAP>
811.497

> <PUBCHEM_SHAPE_VOLUME>
186.2

> <PUBCHEM_COORDINATE_TYPE>
2
5
10

$$$$

