11954055
  -OEChem-07051213063D

 58 59  0     1  0  0  0  0  0999 V2000
    1.0128    0.7676    0.4382 S   0  0  0  0  0  0  0  0  0  0  0  0
   -1.1541    2.8869   -2.1683 O   0  0  0  0  0  0  0  0  0  0  0  0
    4.1695   -1.2407    1.0187 O   0  0  0  0  0  0  0  0  0  0  0  0
    0.9641   -3.6154   -1.5920 O   0  0  0  0  0  0  0  0  0  0  0  0
   -3.9441    1.1421   -2.5659 O   0  5  0  0  0  0  0  0  0  0  0  0
   -3.3216   -0.5334   -1.2913 O   0  0  0  0  0  0  0  0  0  0  0  0
   -2.0140   -4.1758   -1.0053 O   0  0  0  0  0  0  0  0  0  0  0  0
   -3.2693   -4.5714    0.8410 O   0  0  0  0  0  0  0  0  0  0  0  0
    4.2836    2.2768    0.4106 O   0  0  0  0  0  0  0  0  0  0  0  0
    6.5183    2.5827    0.6571 O   0  0  0  0  0  0  0  0  0  0  0  0
    1.8862   -2.3311    0.1096 N   0  0  0  0  0  0  0  0  0  0  0  0
   -3.5571    0.6847   -1.4656 N   0  3  0  0  0  0  0  0  0  0  0  0
    4.4932    0.0259   -0.8978 N   0  0  0  0  0  0  0  0  0  0  0  0
   -2.3292   -2.2226    1.9350 N   0  0  0  0  0  0  0  0  0  0  0  0
    0.3904    2.2656   -0.4121 C   0  0  1  0  0  0  0  0  0  0  0  0
   -0.9830    1.9927   -1.0633 C   0  0  1  0  0  0  0  0  0  0  0  0
   -2.1531    2.2192   -0.1347 C   0  0  0  0  0  0  0  0  0  0  0  0
   -2.0382    3.1180    0.9426 C   0  0  0  0  0  0  0  0  0  0  0  0
    0.3573    3.3897    0.5887 C   0  0  0  0  0  0  0  0  0  0  0  0
    1.5299   -0.1698   -1.0371 C   0  0  0  0  0  0  0  0  0  0  0  0
    2.4893   -1.3224   -0.7304 C   0  0  1  0  0  0  0  0  0  0  0  0
   -0.7644    3.7949    1.2003 C   0  0  0  0  0  0  0  0  0  0  0  0
   -3.3782    1.5817   -0.3741 C   0  0  0  0  0  0  0  0  0  0  0  0
   -3.1468    3.3659    1.7610 C   0  0  0  0  0  0  0  0  0  0  0  0
   -4.4741    1.8278    0.4524 C   0  0  0  0  0  0  0  0  0  0  0  0
    3.7997   -0.8662   -0.0922 C   0  0  0  0  0  0  0  0  0  0  0  0
    0.6403   -4.2987    0.7081 C   0  0  0  0  0  0  0  0  0  0  0  0
   -4.3589    2.7192    1.5170 C   0  0  0  0  0  0  0  0  0  0  0  0
   -0.2924   -3.5548    1.6661 C   0  0  0  0  0  0  0  0  0  0  0  0
    1.1674   -3.4027   -0.3998 C   0  0  0  0  0  0  0  0  0  0  0  0
   -1.4877   -2.9119    0.9538 C   0  0  1  0  0  0  0  0  0  0  0  0
    5.7496    0.6182   -0.5023 C   0  0  0  0  0  0  0  0  0  0  0  0
   -2.3628   -3.9596    0.2898 C   0  0  0  0  0  0  0  0  0  0  0  0
    5.5774    1.9170    0.2424 C   0  0  0  0  0  0  0  0  0  0  0  0
    1.1161    2.5500   -1.1836 H   0  0  0  0  0  0  0  0  0  0  0  0
   -1.0074    0.9828   -1.4824 H   0  0  0  0  0  0  0  0  0  0  0  0
    1.2929    3.8940    0.8177 H   0  0  0  0  0  0  0  0  0  0  0  0
    2.7550   -1.8026   -1.6816 H   0  0  0  0  0  0  0  0  0  0  0  0
    0.6289   -0.5732   -1.5112 H   0  0  0  0  0  0  0  0  0  0  0  0
    1.9916    0.5207   -1.7493 H   0  0  0  0  0  0  0  0  0  0  0  0
   -0.7391    4.6062    1.9196 H   0  0  0  0  0  0  0  0  0  0  0  0
   -3.0781    4.0586    2.5964 H   0  0  0  0  0  0  0  0  0  0  0  0
    2.0157   -2.2476    1.1133 H   0  0  0  0  0  0  0  0  0  0  0  0
   -0.4493    2.6961   -2.8107 H   0  0  0  0  0  0  0  0  0  0  0  0
   -5.4286    1.3376    0.2750 H   0  0  0  0  0  0  0  0  0  0  0  0
    1.4989   -4.6926    1.2652 H   0  0  0  0  0  0  0  0  0  0  0  0
    0.1387   -5.1604    0.2552 H   0  0  0  0  0  0  0  0  0  0  0  0
    0.2630   -2.7876    2.2191 H   0  0  0  0  0  0  0  0  0  0  0  0
   -0.6470   -4.2759    2.4149 H   0  0  0  0  0  0  0  0  0  0  0  0
   -5.2147    2.9129    2.1573 H   0  0  0  0  0  0  0  0  0  0  0  0
   -1.1712   -2.1764    0.2069 H   0  0  0  0  0  0  0  0  0  0  0  0
    4.1273    0.2689   -1.8131 H   0  0  0  0  0  0  0  0  0  0  0  0
    6.3174    0.8129   -1.4164 H   0  0  0  0  0  0  0  0  0  0  0  0
    6.2941   -0.0817    0.1384 H   0  0  0  0  0  0  0  0  0  0  0  0
   -1.7808   -1.5074    2.4117 H   0  0  0  0  0  0  0  0  0  0  0  0
   -3.0794   -1.7275    1.4532 H   0  0  0  0  0  0  0  0  0  0  0  0
   -2.5741   -4.8631   -1.4249 H   0  0  0  0  0  0  0  0  0  0  0  0
    4.1972    3.1239    0.8977 H   0  0  0  0  0  0  0  0  0  0  0  0
  1 15  1  0  0  0  0
  1 20  1  0  0  0  0
  2 16  1  0  0  0  0
  2 44  1  0  0  0  0
  3 26  2  0  0  0  0
  4 30  2  0  0  0  0
  5 12  1  0  0  0  0
  6 12  2  0  0  0  0
  7 33  1  0  0  0  0
  7 57  1  0  0  0  0
  8 33  2  0  0  0  0
  9 34  1  0  0  0  0
  9 58  1  0  0  0  0
 10 34  2  0  0  0  0
 11 21  1  0  0  0  0
 11 30  1  0  0  0  0
 11 43  1  0  0  0  0
 12 23  1  0  0  0  0
 13 26  1  0  0  0  0
 13 32  1  0  0  0  0
 13 52  1  0  0  0  0
 14 31  1  0  0  0  0
 14 55  1  0  0  0  0
 14 56  1  0  0  0  0
 15 16  1  0  0  0  0
 15 19  1  0  0  0  0
 15 35  1  0  0  0  0
 16 17  1  0  0  0  0
 16 36  1  0  0  0  0
 17 18  2  0  0  0  0
 17 23  1  0  0  0  0
 18 22  1  0  0  0  0
 18 24  1  0  0  0  0
 19 22  2  0  0  0  0
 19 37  1  0  0  0  0
 20 21  1  0  0  0  0
 20 39  1  0  0  0  0
 20 40  1  0  0  0  0
 21 26  1  0  0  0  0
 21 38  1  0  0  0  0
 22 41  1  0  0  0  0
 23 25  2  0  0  0  0
 24 28  2  0  0  0  0
 24 42  1  0  0  0  0
 25 28  1  0  0  0  0
 25 45  1  0  0  0  0
 27 29  1  0  0  0  0
 27 30  1  0  0  0  0
 27 46  1  0  0  0  0
 27 47  1  0  0  0  0
 28 50  1  0  0  0  0
 29 31  1  0  0  0  0
 29 48  1  0  0  0  0
 29 49  1  0  0  0  0
 31 33  1  0  0  0  0
 31 51  1  0  0  0  0
 32 34  1  0  0  0  0
 32 53  1  0  0  0  0
 32 54  1  0  0  0  0
M  CHG  2   5  -1  12   1
M  END
> <PUBCHEM_COMPOUND_CID>
11954055

> <PUBCHEM_CONFORMER_RMSD>
1.2

> <PUBCHEM_CONFORMER_DIVERSEORDER>
1
60
5
175
234
93
44
203
213
21
38
209
137
240
88
95
150
172
184
94
215
48
73
8
41
232
40
123
244
117
241
65
102
230
35
228
51
70
81
187
238
69
247
57
144
196
198
39
212
101
206
14
98
11
153
248
20
200
246
45
9
143
132
188
99
217
119
177
237
197
140
163
171
49
75
46
189
84
205
229
87
56
74
181
54
251
43
112
116
115
157
231
111
118
165
243
10
222
214
31
36
148
193
182
82
58
62
220
170
113
178
42
164
64
218
92
142
71
145
219
249
27
179
110
168
131
221
13
252
76
250
130
211
202
121
37
107
195
207
136
151
183
22
138
133
106
16
245
236
32
97
194
104
85
15
167
201
156
108
141
67
89
127
135
146
18
173
78
208
96
2
3
242
147
155
227
125
50
105
223
122
7
80
216
100
86
166
124
53
204
180
25
169
83
239
149
52
126
109
128
72
199
114
33
160
90
55
176
224
19
191
47
158
235
91
63
23
129
192
186
30
233
225
103
134
4
154
210
159
139
174
66
29
24
162
77
161
120
28
17
68
26
152
185
59
61
226
12
79
190
34
6

> <PUBCHEM_MMFF94_PARTIAL_CHARGES>
45
1 -0.46
10 -0.57
11 -0.73
12 0.91
13 -0.73
14 -0.99
15 0.37
16 0.42
17 -0.14
18 0.03
19 -0.29
2 -0.68
20 0.23
21 0.36
22 -0.18
23 0.13
24 -0.15
25 -0.15
26 0.57
27 0.06
28 -0.15
3 -0.57
30 0.57
31 0.33
32 0.36
33 0.66
34 0.66
37 0.15
4 -0.57
41 0.15
42 0.15
43 0.37
44 0.4
45 0.15
5 -0.52
50 0.15
52 0.37
55 0.36
56 0.36
57 0.5
58 0.5
6 -0.52
7 -0.65
8 -0.57
9 -0.65

> <PUBCHEM_EFFECTIVE_ROTOR_COUNT>
14.4

> <PUBCHEM_PHARMACOPHORE_FEATURES>
19
1 10 acceptor
1 11 donor
1 13 donor
1 14 cation
1 14 donor
1 2 acceptor
1 2 donor
1 3 acceptor
1 4 acceptor
1 5 acceptor
1 5 anion
1 6 acceptor
1 7 acceptor
1 8 acceptor
1 9 acceptor
3 7 8 33 anion
3 9 10 34 anion
6 15 16 17 18 19 22 rings
6 17 18 23 24 25 28 rings

> <PUBCHEM_HEAVY_ATOM_COUNT>
34

> <PUBCHEM_ATOM_DEF_STEREO_COUNT>
2

> <PUBCHEM_ATOM_UDEF_STEREO_COUNT>
2

> <PUBCHEM_BOND_DEF_STEREO_COUNT>
0

> <PUBCHEM_BOND_UDEF_STEREO_COUNT>
0

> <PUBCHEM_ISOTOPIC_ATOM_COUNT>
0

> <PUBCHEM_COMPONENT_COUNT>
1

> <PUBCHEM_CACTVS_TAUTO_COUNT>
4

> <PUBCHEM_CONFORMER_ID>
00B6678700000001

> <PUBCHEM_MMFF94_ENERGY>
70.8544

> <PUBCHEM_FEATURE_SELFOVERLAP>
96.637

> <PUBCHEM_SHAPE_FINGERPRINT>
11135609 187 18339375140287894453
12156800 1 17837163261219476775
12553582 1 16394370174598995430
12788726 201 18125733288086092234
14725015 67 17910687462283206955
150020 26 16399712031673138427
15968369 153 17682120972400716716
16993438 75 18337950087123148434
19319366 153 18192431003150584665
20764821 26 18339637850251048451
469060 322 16702008756626527419
5776283 40 17757242127724276038
6287921 2 17473264752842951411
653340 110 18337947892589876562
7097593 13 16825301728033596341
86090 222 16691832974085498425

> <PUBCHEM_SHAPE_MULTIPOLES>
630.81
10.01
7.39
1.71
10.48
7.99
0.45
-9.3
-0.45
-2.07
-2.29
-1.71
-0.06
0.12

> <PUBCHEM_SHAPE_SELFOVERLAP>
1299.026

> <PUBCHEM_SHAPE_VOLUME>
361.6

> <PUBCHEM_COORDINATE_TYPE>
2
5
10

$$$$

