11949596
  -OEChem-07051213083D

 18 18  0     1  0  0  0  0  0999 V2000
    2.3111   -0.7764   -0.1829 S   0  0  2  0  0  0  0  0  0  0  0  0
    2.0673   -1.0483    1.3836 O   0  0  0  0  0  0  0  0  0  0  0  0
    3.6265   -0.0704   -0.3257 O   0  0  0  0  0  0  0  0  0  0  0  0
    1.4569    1.7683   -0.3962 N   0  0  0  0  0  0  0  0  0  0  0  0
   -0.3895    0.2293   -0.1417 C   0  0  0  0  0  0  0  0  0  0  0  0
   -1.2663    1.1573    0.4200 C   0  0  0  0  0  0  0  0  0  0  0  0
   -0.8712   -0.9968   -0.5999 C   0  0  0  0  0  0  0  0  0  0  0  0
    1.0272    0.5397   -0.2493 C   0  0  0  0  0  0  0  0  0  0  0  0
   -2.6251    0.8592    0.5235 C   0  0  0  0  0  0  0  0  0  0  0  0
   -2.2300   -1.2950   -0.4966 C   0  0  0  0  0  0  0  0  0  0  0  0
   -3.1069   -0.3669    0.0651 C   0  0  0  0  0  0  0  0  0  0  0  0
   -0.9122    2.1162    0.7894 H   0  0  0  0  0  0  0  0  0  0  0  0
   -0.2188   -1.7349   -1.0572 H   0  0  0  0  0  0  0  0  0  0  0  0
   -3.3078    1.5810    0.9621 H   0  0  0  0  0  0  0  0  0  0  0  0
   -2.6062   -2.2481   -0.8568 H   0  0  0  0  0  0  0  0  0  0  0  0
   -4.1649   -0.5988    0.1451 H   0  0  0  0  0  0  0  0  0  0  0  0
    2.4804    1.7881   -0.4523 H   0  0  0  0  0  0  0  0  0  0  0  0
    2.9206   -1.2520    1.8335 H   0  0  0  0  0  0  0  0  0  0  0  0
  1  2  1  0  0  0  0
  1  3  2  0  0  0  0
  1  8  1  0  0  0  0
  2 18  1  0  0  0  0
  4  8  2  0  0  0  0
  4 17  1  0  0  0  0
  5  6  2  0  0  0  0
  5  7  1  0  0  0  0
  5  8  1  0  0  0  0
  6  9  1  0  0  0  0
  6 12  1  0  0  0  0
  7 10  2  0  0  0  0
  7 13  1  0  0  0  0
  9 11  2  0  0  0  0
  9 14  1  0  0  0  0
 10 11  1  0  0  0  0
 10 15  1  0  0  0  0
 11 16  1  0  0  0  0
M  END
> <PUBCHEM_COMPOUND_CID>
11949596

> <PUBCHEM_CONFORMER_RMSD>
0.4

> <PUBCHEM_CONFORMER_DIVERSEORDER>
1
2
13
11
7
12
4
10
14
8
3
5
9
15
6

> <PUBCHEM_MMFF94_PARTIAL_CHARGES>
18
1 0.46
10 -0.15
11 -0.15
12 0.15
13 0.15
14 0.15
15 0.15
16 0.15
17 0.4
18 0.5
2 -0.55
3 -0.5
4 -0.85
5 0.09
6 -0.15
7 -0.15
8 0.46
9 -0.15

> <PUBCHEM_EFFECTIVE_ROTOR_COUNT>
2

> <PUBCHEM_PHARMACOPHORE_FEATURES>
3
1 4 acceptor
1 4 donor
6 5 6 7 9 10 11 rings

> <PUBCHEM_HEAVY_ATOM_COUNT>
11

> <PUBCHEM_ATOM_DEF_STEREO_COUNT>
0

> <PUBCHEM_ATOM_UDEF_STEREO_COUNT>
0

> <PUBCHEM_BOND_DEF_STEREO_COUNT>
0

> <PUBCHEM_BOND_UDEF_STEREO_COUNT>
0

> <PUBCHEM_ISOTOPIC_ATOM_COUNT>
0

> <PUBCHEM_COMPONENT_COUNT>
1

> <PUBCHEM_CACTVS_TAUTO_COUNT>
3

> <PUBCHEM_CONFORMER_ID>
00B6561C00000001

> <PUBCHEM_MMFF94_ENERGY>
30.5311

> <PUBCHEM_FEATURE_SELFOVERLAP>
15.223

> <PUBCHEM_SHAPE_FINGERPRINT>
10857977 72 17749114374372268523
12932764 1 18131072644776825789
14128692 85 18336546032011840324
14144814 61 18409447007207830219
14325111 11 18261387875260424149
14993402 34 18410291445049231613
15310529 11 17274825795645518343
15775835 57 18272364308456755349
16945 1 18336264638913749951
20645464 45 15791448223316024183
20653091 64 18341334392440002208
207724 885 18339355365745987327
20871998 184 17749388127056134991
22445834 79 18341612641743468315
23402539 116 17676493878158595453
23463225 33 18266176313098523046
23552423 10 18269556035632232541
369184 2 18413108342711455565
5084963 1 17894906351987473539
7364860 26 18115026273560935880

> <PUBCHEM_SHAPE_MULTIPOLES>
213.5
4.96
1.48
0.86
1.51
0.2
0.2
-0.66
0.27
-0.19
-0.09
0.26
-0.12
-0.57

> <PUBCHEM_SHAPE_SELFOVERLAP>
428.207

> <PUBCHEM_SHAPE_VOLUME>
125.8

> <PUBCHEM_COORDINATE_TYPE>
2
5
10

$$$$

