442151
  -OEChem-07051212573D

 52 54  0     1  0  0  0  0  0999 V2000
   -0.1063   -3.0500   -0.0599 O   0  0  0  0  0  0  0  0  0  0  0  0
    2.6892   -0.5905   -0.0821 O   0  0  0  0  0  0  0  0  0  0  0  0
    0.4639    0.4056    1.1870 O   0  0  0  0  0  0  0  0  0  0  0  0
   -2.0627    1.3946   -0.3810 O   0  0  0  0  0  0  0  0  0  0  0  0
    2.6123    0.9394   -1.8071 O   0  0  0  0  0  0  0  0  0  0  0  0
   -0.6461    2.4197    0.9674 O   0  0  0  0  0  0  0  0  0  0  0  0
   -3.0451    3.4587   -0.5252 O   0  0  0  0  0  0  0  0  0  0  0  0
    1.1820   -2.5062    0.2905 C   0  0  0  0  0  0  0  0  0  0  0  0
    1.4294   -1.1575   -0.4210 C   0  0  1  0  0  0  0  0  0  0  0  0
    0.3301   -0.1371   -0.1232 C   0  0  1  0  0  0  0  0  0  0  0  0
   -1.0207   -0.7836   -0.2284 C   0  0  0  0  0  0  0  0  0  0  0  0
   -1.1540   -2.1764   -0.1857 C   0  0  0  0  0  0  0  0  0  0  0  0
    2.2057   -3.5455   -0.2032 C   0  0  0  0  0  0  0  0  0  0  0  0
    1.2863   -2.4445    1.8227 C   0  0  0  0  0  0  0  0  0  0  0  0
   -2.1888   -0.0148   -0.3557 C   0  0  0  0  0  0  0  0  0  0  0  0
   -2.4172   -2.7703   -0.2969 C   0  0  0  0  0  0  0  0  0  0  0  0
   -3.4530   -0.5940   -0.4575 C   0  0  0  0  0  0  0  0  0  0  0  0
    2.9958    0.5946   -0.6968 C   0  0  0  0  0  0  0  0  0  0  0  0
    3.9139    1.4165    0.1920 C   0  0  1  0  0  0  0  0  0  0  0  0
   -3.5627   -1.9836   -0.4308 C   0  0  0  0  0  0  0  0  0  0  0  0
    5.2694    1.6717   -0.4827 C   0  0  0  0  0  0  0  0  0  0  0  0
   -0.4593    1.3517    1.5343 C   0  0  0  0  0  0  0  0  0  0  0  0
   -4.6182    0.2648   -0.5905 C   0  0  0  0  0  0  0  0  0  0  0  0
    3.2134    2.7321    0.5203 C   0  0  0  0  0  0  0  0  0  0  0  0
   -3.1608    2.2384   -0.5053 C   0  0  0  0  0  0  0  0  0  0  0  0
   -4.4804    1.5924   -0.6128 C   0  0  0  0  0  0  0  0  0  0  0  0
    6.0155    0.3823   -0.8016 C   0  0  0  0  0  0  0  0  0  0  0  0
   -1.2316    0.8916    2.7335 C   0  0  0  0  0  0  0  0  0  0  0  0
    1.4168   -1.3596   -1.5031 H   0  0  0  0  0  0  0  0  0  0  0  0
    0.3896    0.6844   -0.8468 H   0  0  0  0  0  0  0  0  0  0  0  0
    2.1383   -3.6706   -1.2902 H   0  0  0  0  0  0  0  0  0  0  0  0
    3.2317   -3.2586    0.0495 H   0  0  0  0  0  0  0  0  0  0  0  0
    2.0046   -4.5322    0.2304 H   0  0  0  0  0  0  0  0  0  0  0  0
    0.4754   -1.8609    2.2673 H   0  0  0  0  0  0  0  0  0  0  0  0
    1.1906   -3.4477    2.2555 H   0  0  0  0  0  0  0  0  0  0  0  0
    2.2424   -2.0232    2.1488 H   0  0  0  0  0  0  0  0  0  0  0  0
   -2.5167   -3.8529   -0.2743 H   0  0  0  0  0  0  0  0  0  0  0  0
    4.0813    0.8741    1.1312 H   0  0  0  0  0  0  0  0  0  0  0  0
   -4.5321   -2.4690   -0.5108 H   0  0  0  0  0  0  0  0  0  0  0  0
    5.1300    2.2355   -1.4134 H   0  0  0  0  0  0  0  0  0  0  0  0
    5.8941    2.2879    0.1750 H   0  0  0  0  0  0  0  0  0  0  0  0
   -5.5996   -0.1898   -0.6708 H   0  0  0  0  0  0  0  0  0  0  0  0
    2.2603    2.5524    1.0259 H   0  0  0  0  0  0  0  0  0  0  0  0
    3.8321    3.3474    1.1817 H   0  0  0  0  0  0  0  0  0  0  0  0
    3.0024    3.3126   -0.3847 H   0  0  0  0  0  0  0  0  0  0  0  0
   -5.3468    2.2373   -0.7114 H   0  0  0  0  0  0  0  0  0  0  0  0
    6.1643   -0.2177    0.1018 H   0  0  0  0  0  0  0  0  0  0  0  0
    7.0001    0.6127   -1.2209 H   0  0  0  0  0  0  0  0  0  0  0  0
    5.4757   -0.2248   -1.5346 H   0  0  0  0  0  0  0  0  0  0  0  0
   -0.6285    1.0402    3.6323 H   0  0  0  0  0  0  0  0  0  0  0  0
   -1.5112   -0.1606    2.6408 H   0  0  0  0  0  0  0  0  0  0  0  0
   -2.1519    1.4771    2.8158 H   0  0  0  0  0  0  0  0  0  0  0  0
  1  8  1  0  0  0  0
  1 12  1  0  0  0  0
  2  9  1  0  0  0  0
  2 18  1  0  0  0  0
  3 10  1  0  0  0  0
  3 22  1  0  0  0  0
  4 15  1  0  0  0  0
  4 25  1  0  0  0  0
  5 18  2  0  0  0  0
  6 22  2  0  0  0  0
  7 25  2  0  0  0  0
  8  9  1  0  0  0  0
  8 13  1  0  0  0  0
  8 14  1  0  0  0  0
  9 10  1  0  0  0  0
  9 29  1  0  0  0  0
 10 11  1  0  0  0  0
 10 30  1  0  0  0  0
 11 12  2  0  0  0  0
 11 15  1  0  0  0  0
 12 16  1  0  0  0  0
 13 31  1  0  0  0  0
 13 32  1  0  0  0  0
 13 33  1  0  0  0  0
 14 34  1  0  0  0  0
 14 35  1  0  0  0  0
 14 36  1  0  0  0  0
 15 17  2  0  0  0  0
 16 20  2  0  0  0  0
 16 37  1  0  0  0  0
 17 20  1  0  0  0  0
 17 23  1  0  0  0  0
 18 19  1  0  0  0  0
 19 21  1  0  0  0  0
 19 24  1  0  0  0  0
 19 38  1  0  0  0  0
 20 39  1  0  0  0  0
 21 27  1  0  0  0  0
 21 40  1  0  0  0  0
 21 41  1  0  0  0  0
 22 28  1  0  0  0  0
 23 26  2  0  0  0  0
 23 42  1  0  0  0  0
 24 43  1  0  0  0  0
 24 44  1  0  0  0  0
 24 45  1  0  0  0  0
 25 26  1  0  0  0  0
 26 46  1  0  0  0  0
 27 47  1  0  0  0  0
 27 48  1  0  0  0  0
 27 49  1  0  0  0  0
 28 50  1  0  0  0  0
 28 51  1  0  0  0  0
 28 52  1  0  0  0  0
M  END
> <PUBCHEM_COMPOUND_CID>
442151

> <PUBCHEM_CONFORMER_RMSD>
0.8

> <PUBCHEM_CONFORMER_DIVERSEORDER>
1
8
16
13
12
15
14
7
4
11
6
2
9
10
3
5

> <PUBCHEM_MMFF94_PARTIAL_CHARGES>
27
1 -0.36
10 0.42
11 -0.14
12 0.08
15 0.08
16 -0.15
17 0.03
18 0.66
19 0.06
2 -0.43
20 -0.15
22 0.66
23 -0.18
25 0.71
26 -0.14
28 0.06
3 -0.43
37 0.15
39 0.15
4 -0.23
42 0.15
46 0.15
5 -0.57
6 -0.57
7 -0.57
8 0.28
9 0.28

> <PUBCHEM_EFFECTIVE_ROTOR_COUNT>
6.8

> <PUBCHEM_PHARMACOPHORE_FEATURES>
10
1 1 acceptor
1 24 hydrophobe
1 27 hydrophobe
1 5 acceptor
1 6 acceptor
1 7 acceptor
3 8 13 14 hydrophobe
6 1 8 9 10 11 12 rings
6 11 12 15 16 17 20 rings
6 4 15 17 23 25 26 rings

> <PUBCHEM_HEAVY_ATOM_COUNT>
28

> <PUBCHEM_ATOM_DEF_STEREO_COUNT>
3

> <PUBCHEM_ATOM_UDEF_STEREO_COUNT>
0

> <PUBCHEM_BOND_DEF_STEREO_COUNT>
0

> <PUBCHEM_BOND_UDEF_STEREO_COUNT>
0

> <PUBCHEM_ISOTOPIC_ATOM_COUNT>
0

> <PUBCHEM_COMPONENT_COUNT>
1

> <PUBCHEM_CACTVS_TAUTO_COUNT>
1

> <PUBCHEM_CONFORMER_ID>
0006BF2700000001

> <PUBCHEM_MMFF94_ENERGY>
108.8218

> <PUBCHEM_FEATURE_SELFOVERLAP>
50.799

> <PUBCHEM_SHAPE_FINGERPRINT>
10165383 225 18409445904161377621
10411042 1 17475513876338811542
10577160 183 18273210933676148486
10693767 8 17176323590246681735
10759866 29 18341899644306178619
10863032 1 18341051912620363863
1100329 8 18050006897985807219
11112241 14 15650168508177324720
11370993 70 18411705361294830668
11578080 2 17273436060424876151
12035759 4 18187642552443694360
121448 382 18338227176980428226
12173636 292 18339930311627618903
12293681 160 18113616798105539872
12788726 201 16982351060283226266
13140716 1 17980754940268994443
13583140 156 17341798277839460145
13617811 41 18341346526467243901
14251757 17 18114180774672461816
14466204 15 18411428319373462664
14713325 29 18200869574499922987
14790565 3 18190173684810898105
16945 1 18337403651540727251
17980427 23 17903956500936812762
18681886 176 18048048650570930491
19591789 44 17977952289266453171
20600515 1 17689183491403673563
20715895 44 17692265444482777909
20739085 24 15809160617195810697
21279426 13 18408317805389145822
22393880 68 18408886252420761820
23559900 14 18044105776451938586
23566358 2 18260821644089282038
2748010 2 17688046214682045955
350125 39 18412263973183648247
394222 165 18201165437427431458
469060 322 18054766435220593195
474 4 17632573846793632980
5104073 3 18200589336937744729
5283173 99 18335984147669582076
9981440 41 18271808986539799818

> <PUBCHEM_SHAPE_MULTIPOLES>
535.14
9.04
3.98
1.4
6.78
1.31
-0.98
-5.1
3.68
-0.56
-0.21
0.09
-0.35
-0.18

> <PUBCHEM_SHAPE_SELFOVERLAP>
1151.497

> <PUBCHEM_SHAPE_VOLUME>
291.3

> <PUBCHEM_COORDINATE_TYPE>
2
5
10

$$$$

