583024
  -OEChem-06241222443D

 27 28  0     1  0  0  0  0  0999 V2000
   -4.1039    0.4145   -0.3517 N   0  0  0  0  0  0  0  0  0  0  0  0
   -1.2275   -2.3479    1.4431 N   0  0  0  0  0  0  0  0  0  0  0  0
   -0.6400    0.5695   -0.3352 C   0  0  1  0  0  0  0  0  0  0  0  0
   -0.6748    1.2132    1.0770 C   0  0  0  0  0  0  0  0  0  0  0  0
    0.7933    0.0924   -0.3809 C   0  0  0  0  0  0  0  0  0  0  0  0
    0.7449    1.7199    1.3719 C   0  0  0  0  0  0  0  0  0  0  0  0
    1.5663    0.7427    0.5920 C   0  0  0  0  0  0  0  0  0  0  0  0
   -1.6627   -0.5644   -0.4421 C   0  0  0  0  0  0  0  0  0  0  0  0
   -0.8913    1.6157   -1.4291 C   0  0  0  0  0  0  0  0  0  0  0  0
    1.3727   -0.8306   -1.2397 C   0  0  0  0  0  0  0  0  0  0  0  0
    2.9228    0.4910    0.7189 C   0  0  0  0  0  0  0  0  0  0  0  0
    2.7375   -1.0994   -1.1102 C   0  0  0  0  0  0  0  0  0  0  0  0
    3.5069   -0.4431   -0.1382 C   0  0  0  0  0  0  0  0  0  0  0  0
   -3.0261   -0.0146   -0.3896 C   0  0  0  0  0  0  0  0  0  0  0  0
   -1.4182   -1.5588    0.6137 C   0  0  0  0  0  0  0  0  0  0  0  0
   -0.9386    0.5032    1.8700 H   0  0  0  0  0  0  0  0  0  0  0  0
   -1.4034    2.0294    1.1502 H   0  0  0  0  0  0  0  0  0  0  0  0
    0.9649    1.6897    2.4429 H   0  0  0  0  0  0  0  0  0  0  0  0
    0.8952    2.7337    0.9874 H   0  0  0  0  0  0  0  0  0  0  0  0
   -1.5500   -1.0716   -1.4099 H   0  0  0  0  0  0  0  0  0  0  0  0
   -0.8817    1.1569   -2.4251 H   0  0  0  0  0  0  0  0  0  0  0  0
   -1.8461    2.1368   -1.3044 H   0  0  0  0  0  0  0  0  0  0  0  0
   -0.1127    2.3886   -1.4315 H   0  0  0  0  0  0  0  0  0  0  0  0
    0.7912   -1.3336   -2.0048 H   0  0  0  0  0  0  0  0  0  0  0  0
    3.5213    1.0046    1.4636 H   0  0  0  0  0  0  0  0  0  0  0  0
    3.2102   -1.8195   -1.7728 H   0  0  0  0  0  0  0  0  0  0  0  0
    4.5683   -0.6609   -0.0563 H   0  0  0  0  0  0  0  0  0  0  0  0
  1 14  3  0  0  0  0
  2 15  3  0  0  0  0
  3  4  1  0  0  0  0
  3  5  1  0  0  0  0
  3  8  1  0  0  0  0
  3  9  1  0  0  0  0
  4  6  1  0  0  0  0
  4 16  1  0  0  0  0
  4 17  1  0  0  0  0
  5  7  1  0  0  0  0
  5 10  2  0  0  0  0
  6  7  1  0  0  0  0
  6 18  1  0  0  0  0
  6 19  1  0  0  0  0
  7 11  2  0  0  0  0
  8 14  1  0  0  0  0
  8 15  1  0  0  0  0
  8 20  1  0  0  0  0
  9 21  1  0  0  0  0
  9 22  1  0  0  0  0
  9 23  1  0  0  0  0
 10 12  1  0  0  0  0
 10 24  1  0  0  0  0
 11 13  1  0  0  0  0
 11 25  1  0  0  0  0
 12 13  2  0  0  0  0
 12 26  1  0  0  0  0
 13 27  1  0  0  0  0
M  END
> <PUBCHEM_COMPOUND_CID>
583024

> <PUBCHEM_CONFORMER_RMSD>
0.6

> <PUBCHEM_CONFORMER_DIVERSEORDER>
3
5
4
6
2
1

> <PUBCHEM_MMFF94_PARTIAL_CHARGES>
17
1 -0.56
10 -0.15
11 -0.15
12 -0.15
13 -0.15
14 0.36
15 0.36
2 -0.56
24 0.15
25 0.15
26 0.15
27 0.15
3 0.14
5 -0.14
6 0.14
7 -0.14
8 0.4

> <PUBCHEM_EFFECTIVE_ROTOR_COUNT>
1.6

> <PUBCHEM_PHARMACOPHORE_FEATURES>
4
1 1 acceptor
1 2 acceptor
5 3 4 5 6 7 rings
6 5 7 10 11 12 13 rings

> <PUBCHEM_HEAVY_ATOM_COUNT>
15

> <PUBCHEM_ATOM_DEF_STEREO_COUNT>
0

> <PUBCHEM_ATOM_UDEF_STEREO_COUNT>
1

> <PUBCHEM_BOND_DEF_STEREO_COUNT>
0

> <PUBCHEM_BOND_UDEF_STEREO_COUNT>
0

> <PUBCHEM_ISOTOPIC_ATOM_COUNT>
0

> <PUBCHEM_COMPONENT_COUNT>
1

> <PUBCHEM_CACTVS_TAUTO_COUNT>
1

> <PUBCHEM_CONFORMER_ID>
0008E57000000003

> <PUBCHEM_MMFF94_ENERGY>
43.7699

> <PUBCHEM_FEATURE_SELFOVERLAP>
20.379

> <PUBCHEM_SHAPE_FINGERPRINT>
11471102 20 17822020808313787012
11471102 22 17749104478957613498
12423570 1 17548967863048872608
13581323 91 17703799127645867318
14115302 16 18202556281002688062
14648413 74 18193281780105544377
14817 1 11495252179916648232
15207287 21 18336561459529424134
15219456 202 18263364694093166680
15279308 132 18341897389690960819
15375358 24 18261680294114349088
15375462 175 17917441968111920157
16945 1 18272362096538048388
18186145 218 18411986896696404461
200 152 16950569903898376638
20201158 50 18260548930829998150
20511035 2 18047757000805457597
20645476 183 16845568712499646963
22344851 341 17837495511378323879
22721475 48 18335413556657767070
23402539 116 18201454587346721317
23526113 38 18334861614584394627
23559900 14 18343021086944147186
2748010 2 17753902610056663088
296302 2 18410012096329349572
568465 68 18043244644103943010
69090 78 18041288699075918887
77492 1 16056886844215237957
81228 2 18116417323189401448
8809292 202 18410572881614193274

> <PUBCHEM_SHAPE_MULTIPOLES>
298.73
4.96
1.81
1.38
0.67
0.12
0.05
0.79
-0.62
0.1
0.58
0.13
0.06
1.01

> <PUBCHEM_SHAPE_SELFOVERLAP>
643.492

> <PUBCHEM_SHAPE_VOLUME>
163

> <PUBCHEM_COORDINATE_TYPE>
2
5
10

$$$$

