441151
  -OEChem-07051212523D

 23 25  0     0  0  0  0  0  0999 V2000
    0.7845   -2.3077    0.0005 S   0  0  0  0  0  0  0  0  0  0  0  0
   -1.3114    2.2405    0.0005 O   0  0  0  0  0  0  0  0  0  0  0  0
   -3.8614    1.2535   -0.0007 O   0  0  0  0  0  0  0  0  0  0  0  0
   -0.3892   -0.0132    0.0003 C   0  0  0  0  0  0  0  0  0  0  0  0
    1.0368    0.2571    0.0003 C   0  0  0  0  0  0  0  0  0  0  0  0
   -0.6599   -1.3823    0.0004 C   0  0  0  0  0  0  0  0  0  0  0  0
    1.7899   -0.9179    0.0000 C   0  0  0  0  0  0  0  0  0  0  0  0
   -1.4941    0.8781    0.0002 C   0  0  0  0  0  0  0  0  0  0  0  0
    1.7388    1.4910    0.0005 C   0  0  0  0  0  0  0  0  0  0  0  0
   -1.9797   -1.8771    0.0002 C   0  0  0  0  0  0  0  0  0  0  0  0
    3.1993   -0.8953   -0.0007 C   0  0  0  0  0  0  0  0  0  0  0  0
   -2.8043    0.3926   -0.0003 C   0  0  0  0  0  0  0  0  0  0  0  0
   -3.0425   -0.9730   -0.0004 C   0  0  0  0  0  0  0  0  0  0  0  0
    3.1359    1.5187    0.0000 C   0  0  0  0  0  0  0  0  0  0  0  0
    3.8573    0.3352   -0.0006 C   0  0  0  0  0  0  0  0  0  0  0  0
    1.2042    2.4368    0.0009 H   0  0  0  0  0  0  0  0  0  0  0  0
   -2.1750   -2.9460    0.0001 H   0  0  0  0  0  0  0  0  0  0  0  0
    3.7723   -1.8184   -0.0011 H   0  0  0  0  0  0  0  0  0  0  0  0
   -4.0589   -1.3591   -0.0008 H   0  0  0  0  0  0  0  0  0  0  0  0
    3.6562    2.4723    0.0001 H   0  0  0  0  0  0  0  0  0  0  0  0
    4.9435    0.3634   -0.0010 H   0  0  0  0  0  0  0  0  0  0  0  0
   -2.1849    2.6690    0.0003 H   0  0  0  0  0  0  0  0  0  0  0  0
   -4.6885    0.7417   -0.0010 H   0  0  0  0  0  0  0  0  0  0  0  0
  1  6  1  0  0  0  0
  1  7  1  0  0  0  0
  2  8  1  0  0  0  0
  2 22  1  0  0  0  0
  3 12  1  0  0  0  0
  3 23  1  0  0  0  0
  4  5  1  0  0  0  0
  4  6  2  0  0  0  0
  4  8  1  0  0  0  0
  5  7  1  0  0  0  0
  5  9  2  0  0  0  0
  6 10  1  0  0  0  0
  7 11  2  0  0  0  0
  8 12  2  0  0  0  0
  9 14  1  0  0  0  0
  9 16  1  0  0  0  0
 10 13  2  0  0  0  0
 10 17  1  0  0  0  0
 11 15  1  0  0  0  0
 11 18  1  0  0  0  0
 12 13  1  0  0  0  0
 13 19  1  0  0  0  0
 14 15  2  0  0  0  0
 14 20  1  0  0  0  0
 15 21  1  0  0  0  0
M  END
> <PUBCHEM_COMPOUND_CID>
441151

> <PUBCHEM_CONFORMER_RMSD>
0.4

> <PUBCHEM_CONFORMER_DIVERSEORDER>
1

> <PUBCHEM_MMFF94_PARTIAL_CHARGES>
21
1 -0.08
10 -0.15
11 -0.15
12 0.08
13 -0.15
14 -0.15
15 -0.15
16 0.15
17 0.15
18 0.15
19 0.15
2 -0.53
20 0.15
21 0.15
22 0.45
23 0.45
3 -0.53
6 0.04
7 0.04
8 0.08
9 -0.15

> <PUBCHEM_EFFECTIVE_ROTOR_COUNT>
0

> <PUBCHEM_PHARMACOPHORE_FEATURES>
5
1 2 donor
1 3 donor
5 1 4 5 6 7 rings
6 4 6 8 10 12 13 rings
6 5 7 9 11 14 15 rings

> <PUBCHEM_HEAVY_ATOM_COUNT>
15

> <PUBCHEM_ATOM_DEF_STEREO_COUNT>
0

> <PUBCHEM_ATOM_UDEF_STEREO_COUNT>
0

> <PUBCHEM_BOND_DEF_STEREO_COUNT>
0

> <PUBCHEM_BOND_UDEF_STEREO_COUNT>
0

> <PUBCHEM_ISOTOPIC_ATOM_COUNT>
0

> <PUBCHEM_COMPONENT_COUNT>
1

> <PUBCHEM_CACTVS_TAUTO_COUNT>
8

> <PUBCHEM_CONFORMER_ID>
0006BB3F00000001

> <PUBCHEM_MMFF94_ENERGY>
38.2014

> <PUBCHEM_FEATURE_SELFOVERLAP>
25.493

> <PUBCHEM_SHAPE_FINGERPRINT>
10411042 1 15456493706243652512
10608611 8 18410014308132200304
10967382 1 18338516451264164358
11132069 177 18409453574392284480
11471102 20 18410579525675106893
12251169 10 18342184405349491714
12382932 28 18410008827806463923
12491281 212 18411408518808830506
13140716 1 18411138008862547146
13221675 6 18410855485956195738
13380535 76 18410576201391882423
13897977 150 18410577292524182469
14144814 61 18411419501282916250
14325111 11 18410573955223882080
14614273 12 18272661155385136853
14897335 6 18409733971274200927
15196674 1 18410573976593197542
15219456 202 18409162207937215847
15309172 13 18409157814259512307
15442244 35 18267024045290441098
15536298 74 18334294267006305766
15775835 57 18411132537185033392
16945 1 18338517555065744519
17804303 29 18410289225041860230
18186145 218 18187635899734401416
193761 8 17978510067762635010
200 152 17968105204830279375
20510252 161 18262233305186439049
21267235 1 18339353085145175118
21501502 16 18410858741625828106
2334 1 18266740173268110082
23402539 116 18334868186089793620
23402655 69 18334580165377494341
23463225 33 18341897394049043058
23559900 14 18260830398039499048
238 59 16116590596340065341
25 1 18411982502570346614
2748010 2 18266177240499832783
335352 9 18266458887444177110
474 4 16843315684874026132
5104073 3 18410856546981813442
528886 8 18410016524356255290
53812653 166 18408326596585703202
6333449 129 18410013204362353119
69090 78 18408327687512813967
7364860 26 18263925617081000254
8809292 202 18343297067829719346
9709674 26 18408880720255354318

> <PUBCHEM_SHAPE_MULTIPOLES>
300.8
5.99
2.28
0.61
0.49
0.21
0
-1.46
0
-0.32
0
0.04
0.04
0

> <PUBCHEM_SHAPE_SELFOVERLAP>
666.796

> <PUBCHEM_SHAPE_VOLUME>
162.2

> <PUBCHEM_COORDINATE_TYPE>
2
5
10

$$$$

