46173900
  -OEChem-07051213102D

 50 51  0     1  0  0  0  0  0999 V2000
    4.6650    0.1075    0.0000 O   0  0  0  0  0  0  0  0  0  0  0  0
    6.7528   -1.5675    0.0000 O   0  0  0  0  0  0  0  0  0  0  0  0
    2.0000   -1.9142    0.0000 O   0  0  0  0  0  0  0  0  0  0  0  0
    6.7528    1.8966    0.0000 O   0  0  0  0  0  0  0  0  0  0  0  0
    5.2528    1.0306    0.0000 O   0  0  0  0  0  0  0  0  0  0  0  0
    7.7528    1.8966    0.0000 O   0  0  0  0  0  0  0  0  0  0  0  0
   12.2528   -2.4335    0.0000 O   0  0  0  0  0  0  0  0  0  0  0  0
    3.7139   -1.2015    0.0000 N   0  0  0  0  0  0  0  0  0  0  0  0
    7.7528    0.1645    0.0000 N   0  0  0  0  0  0  0  0  0  0  0  0
    9.7528    1.8966    0.0000 N   0  0  0  0  0  0  0  0  0  0  0  0
   12.2528   -0.7015    0.0000 N   0  0  0  0  0  0  0  0  0  0  0  0
    3.7139   -0.2015    0.0000 C   0  0  2  0  0  0  0  0  0  0  0  0
    5.2528   -0.7015    0.0000 C   0  0  2  0  0  0  0  0  0  0  0  0
    4.6650   -1.5105    0.0000 C   0  0  0  0  0  0  0  0  0  0  0  0
    2.7056   -0.1973    0.0000 C   0  0  0  0  0  0  0  0  0  0  0  0
    6.2528   -0.7015    0.0000 C   0  0  3  0  0  0  0  0  0  0  0  0
    2.7056   -1.2056    0.0000 C   0  0  0  0  0  0  0  0  0  0  0  0
    6.7528    0.1645    0.0000 C   0  0  1  0  0  0  0  0  0  0  0  0
    6.2528    1.0306    0.0000 C   0  0  0  0  0  0  0  0  0  0  0  0
    8.2528    1.0306    0.0000 C   0  0  0  0  0  0  0  0  0  0  0  0
    9.2528    1.0306    0.0000 C   0  0  2  0  0  0  0  0  0  0  0  0
    9.7528    0.1645    0.0000 C   0  0  0  0  0  0  0  0  0  0  0  0
   10.7528    0.1645    0.0000 C   0  0  0  0  0  0  0  0  0  0  0  0
   11.2528   -0.7015    0.0000 C   0  0  0  0  0  0  0  0  0  0  0  0
   12.7528   -1.5675    0.0000 C   0  0  0  0  0  0  0  0  0  0  0  0
   13.7528   -1.5675    0.0000 C   0  0  0  0  0  0  0  0  0  0  0  0
    3.5827    0.6383    0.0000 H   0  0  0  0  0  0  0  0  0  0  0  0
    5.5342   -0.1491    0.0000 H   0  0  0  0  0  0  0  0  0  0  0  0
    4.4128   -2.0769    0.0000 H   0  0  0  0  0  0  0  0  0  0  0  0
    5.2019   -1.8205    0.0000 H   0  0  0  0  0  0  0  0  0  0  0  0
    2.7074    0.4227    0.0000 H   0  0  0  0  0  0  0  0  0  0  0  0
    2.0856   -0.1965    0.0000 H   0  0  0  0  0  0  0  0  0  0  0  0
    5.9428   -1.2384    0.0000 H   0  0  0  0  0  0  0  0  0  0  0  0
    7.0628   -0.3724    0.0000 H   0  0  0  0  0  0  0  0  0  0  0  0
    8.0628   -0.3724    0.0000 H   0  0  0  0  0  0  0  0  0  0  0  0
    6.4428   -2.1044    0.0000 H   0  0  0  0  0  0  0  0  0  0  0  0
    8.9428    1.5675    0.0000 H   0  0  0  0  0  0  0  0  0  0  0  0
    9.1702   -0.0475    0.0000 H   0  0  0  0  0  0  0  0  0  0  0  0
    9.8604   -0.4460    0.0000 H   0  0  0  0  0  0  0  0  0  0  0  0
   11.3354    0.3766    0.0000 H   0  0  0  0  0  0  0  0  0  0  0  0
   10.6451    0.7751    0.0000 H   0  0  0  0  0  0  0  0  0  0  0  0
    6.4428    2.4335    0.0000 H   0  0  0  0  0  0  0  0  0  0  0  0
   10.3728    1.8966    0.0000 H   0  0  0  0  0  0  0  0  0  0  0  0
    9.4428    2.4335    0.0000 H   0  0  0  0  0  0  0  0  0  0  0  0
   10.6702   -0.9135    0.0000 H   0  0  0  0  0  0  0  0  0  0  0  0
   11.3604   -1.3121    0.0000 H   0  0  0  0  0  0  0  0  0  0  0  0
   12.5628   -0.1645    0.0000 H   0  0  0  0  0  0  0  0  0  0  0  0
   13.7528   -2.1875    0.0000 H   0  0  0  0  0  0  0  0  0  0  0  0
   14.3728   -1.5675    0.0000 H   0  0  0  0  0  0  0  0  0  0  0  0
   13.7528   -0.9475    0.0000 H   0  0  0  0  0  0  0  0  0  0  0  0
  1 12  1  0  0  0  0
  1 13  1  0  0  0  0
  2 16  1  0  0  0  0
  2 36  1  0  0  0  0
  3 17  2  0  0  0  0
  4 19  1  0  0  0  0
  4 42  1  0  0  0  0
  5 19  2  0  0  0  0
  6 20  2  0  0  0  0
  7 25  2  0  0  0  0
  8 12  1  0  0  0  0
  8 14  1  0  0  0  0
  8 17  1  0  0  0  0
 18  9  1  1  0  0  0
  9 20  1  0  0  0  0
  9 35  1  0  0  0  0
 21 10  1  1  0  0  0
 10 43  1  0  0  0  0
 10 44  1  0  0  0  0
 11 24  1  0  0  0  0
 11 25  1  0  0  0  0
 11 47  1  0  0  0  0
 12 15  1  0  0  0  0
 12 27  1  1  0  0  0
 13 14  1  0  0  0  0
 13 16  1  1  0  0  0
 13 28  1  0  0  0  0
 14 29  1  0  0  0  0
 14 30  1  0  0  0  0
 15 17  1  0  0  0  0
 15 31  1  0  0  0  0
 15 32  1  0  0  0  0
 16 18  1  0  0  0  0
 16 33  1  0  0  0  0
 18 19  1  0  0  0  0
 18 34  1  0  0  0  0
 20 21  1  0  0  0  0
 21 22  1  0  0  0  0
 21 37  1  0  0  0  0
 22 23  1  0  0  0  0
 22 38  1  0  0  0  0
 22 39  1  0  0  0  0
 23 24  1  0  0  0  0
 23 40  1  0  0  0  0
 23 41  1  0  0  0  0
 24 45  1  0  0  0  0
 24 46  1  0  0  0  0
 25 26  1  0  0  0  0
 26 48  1  0  0  0  0
 26 49  1  0  0  0  0
 26 50  1  0  0  0  0
M  END
> <PUBCHEM_COMPOUND_CID>
46173900

> <PUBCHEM_COMPOUND_CANONICALIZED>
1

> <PUBCHEM_CACTVS_COMPLEXITY>
584

> <PUBCHEM_CACTVS_HBOND_ACCEPTOR>
8

> <PUBCHEM_CACTVS_HBOND_DONOR>
5

> <PUBCHEM_CACTVS_ROTATABLE_BOND>
9

> <PUBCHEM_CACTVS_SUBSKEYS>
AAADceBzuAAAAAAAAAAAAAAAAABYAWAAAAAAAAAABYAAAAAAAAAAHgAQCAAACDzhgAYCCAPABgAIAAGQGAAAAAAAAAAAAIGIAAADUB4AgCAfQAAHNgCTAADaEQIAAAAAAAAAAAAAAAAAAAAAAAAAAAAAAA==

> <PUBCHEM_IUPAC_OPENEYE_NAME>
(2S)-2-[[(2S)-5-acetamido-2-amino-pentanoyl]amino]-3-hydroxy-3-[(3R,5S)-7-oxo-4-oxa-1-azabicyclo[3.2.0]heptan-3-yl]propanoic acid

> <PUBCHEM_IUPAC_CAS_NAME>
(2S)-2-[[(2S)-5-acetamido-2-amino-1-oxopentyl]amino]-3-hydroxy-3-[(3R,5S)-7-oxo-4-oxa-1-azabicyclo[3.2.0]heptan-3-yl]propanoic acid

> <PUBCHEM_IUPAC_NAME>
(2S)-2-[[(2S)-5-acetamido-2-aminopentanoyl]amino]-3-hydroxy-3-[(3R,5S)-7-oxo-4-oxa-1-azabicyclo[3.2.0]heptan-3-yl]propanoic acid

> <PUBCHEM_IUPAC_SYSTEMATIC_NAME>
(2S)-2-[[(2S)-5-acetamido-2-azanyl-pentanoyl]amino]-3-oxidanyl-3-[(3R,5S)-7-oxidanylidene-4-oxa-1-azabicyclo[3.2.0]heptan-3-yl]propanoic acid

> <PUBCHEM_IUPAC_TRADITIONAL_NAME>
(2S)-2-[[(2S)-5-acetamido-2-amino-pentanoyl]amino]-3-hydroxy-3-[(3R,5S)-7-keto-4-oxa-1-azabicyclo[3.2.0]heptan-3-yl]propionic acid

> <PUBCHEM_IUPAC_INCHI>
InChI=1S/C15H24N4O7/c1-7(20)17-4-2-3-8(16)14(23)18-12(15(24)25)13(22)9-6-19-10(21)5-11(19)26-9/h8-9,11-13,22H,2-6,16H2,1H3,(H,17,20)(H,18,23)(H,24,25)/t8-,9+,11-,12-,13?/m0/s1

> <PUBCHEM_IUPAC_INCHIKEY>
LSRMHWSOHWFVGB-PELMRAPFSA-N

> <PUBCHEM_XLOGP3_AA>
-5.5

> <PUBCHEM_EXACT_MASS>
372.164499

> <PUBCHEM_MOLECULAR_FORMULA>
C15H24N4O7

> <PUBCHEM_MOLECULAR_WEIGHT>
372.37366

> <PUBCHEM_OPENEYE_CAN_SMILES>
CC(=O)NCCCC(C(=O)NC(C(C1CN2C(O1)CC2=O)O)C(=O)O)N

> <PUBCHEM_OPENEYE_ISO_SMILES>
CC(=O)NCCC[C@@H](C(=O)N[C@@H](C([C@H]1CN2[C@@H](O1)CC2=O)O)C(=O)O)N

> <PUBCHEM_CACTVS_TPSA>
171

> <PUBCHEM_MONOISOTOPIC_WEIGHT>
372.164499

> <PUBCHEM_TOTAL_CHARGE>
0

> <PUBCHEM_HEAVY_ATOM_COUNT>
26

> <PUBCHEM_ATOM_DEF_STEREO_COUNT>
4

> <PUBCHEM_ATOM_UDEF_STEREO_COUNT>
1

> <PUBCHEM_BOND_DEF_STEREO_COUNT>
0

> <PUBCHEM_BOND_UDEF_STEREO_COUNT>
0

> <PUBCHEM_ISOTOPIC_ATOM_COUNT>
0

> <PUBCHEM_COMPONENT_COUNT>
1

> <PUBCHEM_CACTVS_TAUTO_COUNT>
8

> <PUBCHEM_COORDINATE_TYPE>
1
5
255

> <PUBCHEM_BONDANNOTATIONS>
21  10  5
12  27  5
13  16  5
16  2  3
18  9  5

$$$$

