13271
  -OEChem-06261208213D

 26 27  0     0  0  0  0  0  0999 V2000
   -5.0613    0.3205   -0.4433 O   0  5  0  0  0  0  0  0  0  0  0  0
   -4.4943   -1.6097    0.4352 O   0  0  0  0  0  0  0  0  0  0  0  0
    1.1810    1.1627    0.1128 N   0  0  0  0  0  0  0  0  0  0  0  0
   -4.1959   -0.4686    0.0072 N   0  3  0  0  0  0  0  0  0  0  0  0
   -0.1667    0.7545    0.0881 C   0  0  0  0  0  0  0  0  0  0  0  0
    2.3960    0.4531    0.0158 C   0  0  0  0  0  0  0  0  0  0  0  0
   -1.1481    1.6124   -0.4107 C   0  0  0  0  0  0  0  0  0  0  0  0
   -0.5228   -0.5102    0.5594 C   0  0  0  0  0  0  0  0  0  0  0  0
   -2.8370   -0.0576    0.0331 C   0  0  0  0  0  0  0  0  0  0  0  0
   -2.4825    1.2066   -0.4380 C   0  0  0  0  0  0  0  0  0  0  0  0
   -1.8571   -0.9159    0.5317 C   0  0  0  0  0  0  0  0  0  0  0  0
    3.5371    0.9331    0.6585 C   0  0  0  0  0  0  0  0  0  0  0  0
    2.4563   -0.7291   -0.7219 C   0  0  0  0  0  0  0  0  0  0  0  0
    4.7387    0.2310    0.5634 C   0  0  0  0  0  0  0  0  0  0  0  0
    3.6578   -1.4313   -0.8170 C   0  0  0  0  0  0  0  0  0  0  0  0
    4.7990   -0.9512   -0.1743 C   0  0  0  0  0  0  0  0  0  0  0  0
    1.3024    2.1659    0.2209 H   0  0  0  0  0  0  0  0  0  0  0  0
   -0.8840    2.5993   -0.7821 H   0  0  0  0  0  0  0  0  0  0  0  0
    0.2159   -1.1910    0.9736 H   0  0  0  0  0  0  0  0  0  0  0  0
   -3.2186    1.9018   -0.8335 H   0  0  0  0  0  0  0  0  0  0  0  0
   -2.0974   -1.9056    0.9117 H   0  0  0  0  0  0  0  0  0  0  0  0
    3.5025    1.8526    1.2373 H   0  0  0  0  0  0  0  0  0  0  0  0
    1.5895   -1.1150   -1.2513 H   0  0  0  0  0  0  0  0  0  0  0  0
    5.6272    0.6047    1.0637 H   0  0  0  0  0  0  0  0  0  0  0  0
    3.7064   -2.3492   -1.3956 H   0  0  0  0  0  0  0  0  0  0  0  0
    5.7348   -1.4973   -0.2493 H   0  0  0  0  0  0  0  0  0  0  0  0
  1  4  1  0  0  0  0
  2  4  2  0  0  0  0
  3  5  1  0  0  0  0
  3  6  1  0  0  0  0
  3 17  1  0  0  0  0
  4  9  1  0  0  0  0
  5  7  2  0  0  0  0
  5  8  1  0  0  0  0
  6 12  2  0  0  0  0
  6 13  1  0  0  0  0
  7 10  1  0  0  0  0
  7 18  1  0  0  0  0
  8 11  2  0  0  0  0
  8 19  1  0  0  0  0
  9 10  2  0  0  0  0
  9 11  1  0  0  0  0
 10 20  1  0  0  0  0
 11 21  1  0  0  0  0
 12 14  1  0  0  0  0
 12 22  1  0  0  0  0
 13 15  2  0  0  0  0
 13 23  1  0  0  0  0
 14 16  2  0  0  0  0
 14 24  1  0  0  0  0
 15 16  1  0  0  0  0
 15 25  1  0  0  0  0
 16 26  1  0  0  0  0
M  CHG  2   1  -1   4   1
M  END
> <PUBCHEM_COMPOUND_CID>
13271

> <PUBCHEM_CONFORMER_RMSD>
0.6

> <PUBCHEM_CONFORMER_DIVERSEORDER>
1
3
2

> <PUBCHEM_MMFF94_PARTIAL_CHARGES>
26
1 -0.52
10 -0.15
11 -0.15
12 -0.15
13 -0.15
14 -0.15
15 -0.15
16 -0.15
17 0.4
18 0.15
19 0.15
2 -0.52
20 0.15
21 0.15
22 0.15
23 0.15
24 0.15
25 0.15
26 0.15
3 -0.6
4 0.91
5 0.1
6 0.1
7 -0.15
8 -0.15
9 0.13

> <PUBCHEM_EFFECTIVE_ROTOR_COUNT>
3

> <PUBCHEM_PHARMACOPHORE_FEATURES>
7
1 1 acceptor
1 1 anion
1 2 acceptor
1 3 cation
1 3 donor
6 5 7 8 9 10 11 rings
6 6 12 13 14 15 16 rings

> <PUBCHEM_HEAVY_ATOM_COUNT>
16

> <PUBCHEM_ATOM_DEF_STEREO_COUNT>
0

> <PUBCHEM_ATOM_UDEF_STEREO_COUNT>
0

> <PUBCHEM_BOND_DEF_STEREO_COUNT>
0

> <PUBCHEM_BOND_UDEF_STEREO_COUNT>
0

> <PUBCHEM_ISOTOPIC_ATOM_COUNT>
0

> <PUBCHEM_COMPONENT_COUNT>
1

> <PUBCHEM_CACTVS_TAUTO_COUNT>
1

> <PUBCHEM_CONFORMER_ID>
000033D700000001

> <PUBCHEM_MMFF94_ENERGY>
62.459

> <PUBCHEM_FEATURE_SELFOVERLAP>
35.602

> <PUBCHEM_SHAPE_FINGERPRINT>
11543360 7 13901903363272983177
12032990 46 18341609287727210489
12236239 1 16200154300547380192
13288520 33 18412824711423843996
13296908 3 18335983155494888628
14115302 16 17346309371847294362
14123238 8 18187083949044480084
14252887 29 17458337568246000782
14386348 63 18410008836433412546
14993402 34 16128653050433855245
15196674 1 18411136935115428454
15375358 24 18410575076463619018
17834072 8 18201445787649678741
19141452 34 18260547788838325855
1986462 14 18272369814594422332
200 152 17748830730194506153
20279233 1 18410569591837828770
20374829 77 18343304768811303027
20645477 70 18114180886842817110
20871999 31 18060414759227355244
21065201 7 18201726201395109072
21267235 1 18412818092731658234
212847 35 8718830890644924374
22485316 2 18186241714473887639
22854114 59 17894914018704524536
23402539 116 18343310253537242327
23557571 272 18271247217644375428
23559900 14 18341050731536207240
26918003 58 18040718073430220978
2871803 45 18341331179947103874
3268164 11 17703800236021723909
33824 294 18261111894296322150
4047638 21 10159696898332775596
42 15 18334010601153136488
4214541 1 18336827588529983337
474 4 15431188776505377522
4990 188 18343021098874202163
5104073 3 18260831557168960424
542803 24 14634868635023257234
69090 78 18260833687056331886
7364860 26 18268424629873443156
9709674 26 18411414012378346634

> <PUBCHEM_SHAPE_MULTIPOLES>
307.57
10.55
1.49
0.81
1.16
0.01
-0.02
2.92
-0.02
0.16
-0.08
-0.27
0.05
1.02

> <PUBCHEM_SHAPE_SELFOVERLAP>
661.621

> <PUBCHEM_SHAPE_VOLUME>
169.3

> <PUBCHEM_COORDINATE_TYPE>
2
5
10

$$$$

