854015
  -OEChem-06241222462D

 31 32  0     0  0  0  0  0  0999 V2000
   11.5263   -1.0600    0.0000 O   0  0  0  0  0  0  0  0  0  0  0  0
   10.6603   -2.5600    0.0000 O   0  0  0  0  0  0  0  0  0  0  0  0
    7.1962    0.4400    0.0000 N   0  0  0  0  0  0  0  0  0  0  0  0
    4.5981   -0.0600    0.0000 N   0  0  0  0  0  0  0  0  0  0  0  0
    4.5981    1.9400    0.0000 N   0  0  0  0  0  0  0  0  0  0  0  0
    2.8660    1.9400    0.0000 N   0  0  0  0  0  0  0  0  0  0  0  0
    2.0000   -0.5600    0.0000 N   0  0  0  0  0  0  0  0  0  0  0  0
    6.3301   -0.0600    0.0000 C   0  0  0  0  0  0  0  0  0  0  0  0
    8.0622   -0.0600    0.0000 C   0  0  0  0  0  0  0  0  0  0  0  0
    5.4641    0.4400    0.0000 C   0  0  0  0  0  0  0  0  0  0  0  0
    8.0622   -1.0600    0.0000 C   0  0  0  0  0  0  0  0  0  0  0  0
    8.9282    0.4400    0.0000 C   0  0  0  0  0  0  0  0  0  0  0  0
    9.7942   -1.0600    0.0000 C   0  0  0  0  0  0  0  0  0  0  0  0
    8.9282   -1.5600    0.0000 C   0  0  0  0  0  0  0  0  0  0  0  0
    9.7942   -0.0600    0.0000 C   0  0  0  0  0  0  0  0  0  0  0  0
    5.4641    1.4400    0.0000 C   0  0  0  0  0  0  0  0  0  0  0  0
    3.7320    0.4400    0.0000 C   0  0  0  0  0  0  0  0  0  0  0  0
    3.7320    1.4400    0.0000 C   0  0  0  0  0  0  0  0  0  0  0  0
   10.6603   -1.5600    0.0000 C   0  0  0  0  0  0  0  0  0  0  0  0
    2.8660   -0.0600    0.0000 C   0  0  0  0  0  0  0  0  0  0  0  0
    5.9316   -0.5349    0.0000 H   0  0  0  0  0  0  0  0  0  0  0  0
    6.7287   -0.5349    0.0000 H   0  0  0  0  0  0  0  0  0  0  0  0
    7.1962    1.0600    0.0000 H   0  0  0  0  0  0  0  0  0  0  0  0
    7.5252   -1.3700    0.0000 H   0  0  0  0  0  0  0  0  0  0  0  0
    8.9282    1.0600    0.0000 H   0  0  0  0  0  0  0  0  0  0  0  0
    8.9282   -2.1800    0.0000 H   0  0  0  0  0  0  0  0  0  0  0  0
   10.3312    0.2500    0.0000 H   0  0  0  0  0  0  0  0  0  0  0  0
    6.0010    1.7500    0.0000 H   0  0  0  0  0  0  0  0  0  0  0  0
    2.8660    2.5600    0.0000 H   0  0  0  0  0  0  0  0  0  0  0  0
    2.3291    1.6300    0.0000 H   0  0  0  0  0  0  0  0  0  0  0  0
   12.0632   -1.3700    0.0000 H   0  0  0  0  0  0  0  0  0  0  0  0
  1 19  1  0  0  0  0
  1 31  1  0  0  0  0
  2 19  2  0  0  0  0
  3  8  1  0  0  0  0
  3  9  1  0  0  0  0
  3 23  1  0  0  0  0
  4 10  1  0  0  0  0
  4 17  2  0  0  0  0
  5 16  1  0  0  0  0
  5 18  2  0  0  0  0
  6 18  1  0  0  0  0
  6 29  1  0  0  0  0
  6 30  1  0  0  0  0
  7 20  3  0  0  0  0
  8 10  1  0  0  0  0
  8 21  1  0  0  0  0
  8 22  1  0  0  0  0
  9 11  2  0  0  0  0
  9 12  1  0  0  0  0
 10 16  2  0  0  0  0
 11 14  1  0  0  0  0
 11 24  1  0  0  0  0
 12 15  2  0  0  0  0
 12 25  1  0  0  0  0
 13 14  2  0  0  0  0
 13 15  1  0  0  0  0
 13 19  1  0  0  0  0
 14 26  1  0  0  0  0
 15 27  1  0  0  0  0
 16 28  1  0  0  0  0
 17 18  1  0  0  0  0
 17 20  1  0  0  0  0
M  END
> <PUBCHEM_COMPOUND_CID>
854015

> <PUBCHEM_COMPOUND_CANONICALIZED>
1

> <PUBCHEM_CACTVS_COMPLEXITY>
386

> <PUBCHEM_CACTVS_HBOND_ACCEPTOR>
7

> <PUBCHEM_CACTVS_HBOND_DONOR>
3

> <PUBCHEM_CACTVS_ROTATABLE_BOND>
4

> <PUBCHEM_CACTVS_SUBSKEYS>
AAADccBzsAAAAAAAAAAAAAAAAAAAAAAAAAA8QAAAAAAAAAABwAAAHgAQCAAADAjBngQ9+JLIEgC4Bzb3bACigC01EiAI2IE4fMiI5nLA1ZGUcQhk0API2aeY2SOeCAAAAAAAAAAQAAAAAAAAAAAAAAAAAA==

> <PUBCHEM_IUPAC_OPENEYE_NAME>
4-[(5-amino-6-cyano-pyrazin-2-yl)methylamino]benzoic acid

> <PUBCHEM_IUPAC_CAS_NAME>
4-[(5-amino-6-cyano-2-pyrazinyl)methylamino]benzoic acid

> <PUBCHEM_IUPAC_NAME>
4-[(5-amino-6-cyanopyrazin-2-yl)methylamino]benzoic acid

> <PUBCHEM_IUPAC_SYSTEMATIC_NAME>
4-[(5-azanyl-6-cyano-pyrazin-2-yl)methylamino]benzoic acid

> <PUBCHEM_IUPAC_TRADITIONAL_NAME>
4-[(5-amino-6-cyano-pyrazin-2-yl)methylamino]benzoic acid

> <PUBCHEM_IUPAC_INCHI>
InChI=1S/C13H11N5O2/c14-5-11-12(15)17-7-10(18-11)6-16-9-3-1-8(2-4-9)13(19)20/h1-4,7,16H,6H2,(H2,15,17)(H,19,20)

> <PUBCHEM_IUPAC_INCHIKEY>
KTQXGFMQHZQJBP-UHFFFAOYSA-N

> <PUBCHEM_XLOGP3_AA>
1.1

> <PUBCHEM_EXACT_MASS>
269.091275

> <PUBCHEM_MOLECULAR_FORMULA>
C13H11N5O2

> <PUBCHEM_MOLECULAR_WEIGHT>
269.25874

> <PUBCHEM_OPENEYE_CAN_SMILES>
C1=CC(=CC=C1C(=O)O)NCC2=CN=C(C(=N2)C#N)N

> <PUBCHEM_OPENEYE_ISO_SMILES>
C1=CC(=CC=C1C(=O)O)NCC2=CN=C(C(=N2)C#N)N

> <PUBCHEM_CACTVS_TPSA>
125

> <PUBCHEM_MONOISOTOPIC_WEIGHT>
269.091275

> <PUBCHEM_TOTAL_CHARGE>
0

> <PUBCHEM_HEAVY_ATOM_COUNT>
20

> <PUBCHEM_ATOM_DEF_STEREO_COUNT>
0

> <PUBCHEM_ATOM_UDEF_STEREO_COUNT>
0

> <PUBCHEM_BOND_DEF_STEREO_COUNT>
0

> <PUBCHEM_BOND_UDEF_STEREO_COUNT>
0

> <PUBCHEM_ISOTOPIC_ATOM_COUNT>
0

> <PUBCHEM_COMPONENT_COUNT>
1

> <PUBCHEM_CACTVS_TAUTO_COUNT>
6

> <PUBCHEM_COORDINATE_TYPE>
1
5
255

> <PUBCHEM_BONDANNOTATIONS>
10  16  8
11  14  8
12  15  8
13  14  8
13  15  8
17  18  8
4  10  8
4  17  8
5  16  8
5  18  8
9  11  8
9  12  8

$$$$

