46174011
  -OEChem-07051213112D

 64 63  0     1  0  0  0  0  0999 V2000
    3.4030   -3.0600    0.0000 P   0  0  0  0  0  0  0  0  0  0  0  0
   10.3312   -0.0600    0.0000 O   0  0  0  0  0  0  0  0  0  0  0  0
    7.7331   -2.5600    0.0000 O   0  0  0  0  0  0  0  0  0  0  0  0
    5.1350   -3.0600    0.0000 O   0  0  0  0  0  0  0  0  0  0  0  0
    6.8671   -3.0600    0.0000 O   0  0  0  0  0  0  0  0  0  0  0  0
    2.5369   -3.5600    0.0000 O   0  0  0  0  0  0  0  0  0  0  0  0
    2.9030   -2.1940    0.0000 O   0  0  0  0  0  0  0  0  0  0  0  0
    3.9030   -3.9260    0.0000 O   0  0  0  0  0  0  0  0  0  0  0  0
    9.4651   -1.5600    0.0000 N   0  0  0  0  0  0  0  0  0  0  0  0
   12.0632   -1.0600    0.0000 N   0  0  0  0  0  0  0  0  0  0  0  0
    6.8671   -1.0600    0.0000 N   0  0  0  0  0  0  0  0  0  0  0  0
   10.3312    1.9400    0.0000 N   0  0  0  0  0  0  0  0  0  0  0  0
   11.1972    3.4400    0.0000 N   0  0  0  0  0  0  0  0  0  0  0  0
    9.4651    3.4400    0.0000 N   0  0  0  0  0  0  0  0  0  0  0  0
   11.1972   -2.5600    0.0000 C   0  0  0  0  0  0  0  0  0  0  0  0
    8.5991   -1.0600    0.0000 C   0  0  1  0  0  0  0  0  0  0  0  0
   11.1972   -1.5600    0.0000 C   0  0  3  0  0  0  0  0  0  0  0  0
   12.0632   -3.0600    0.0000 C   0  0  0  0  0  0  0  0  0  0  0  0
    8.5991   -0.0600    0.0000 C   0  0  0  0  0  0  0  0  0  0  0  0
   10.3312   -1.0600    0.0000 C   0  0  0  0  0  0  0  0  0  0  0  0
    9.4651    0.4400    0.0000 C   0  0  0  0  0  0  0  0  0  0  0  0
    7.7331   -1.5600    0.0000 C   0  0  0  0  0  0  0  0  0  0  0  0
   12.0632   -4.0600    0.0000 C   0  0  0  0  0  0  0  0  0  0  0  0
   12.9292   -2.5600    0.0000 C   0  0  0  0  0  0  0  0  0  0  0  0
    9.4651    1.4400    0.0000 C   0  0  0  0  0  0  0  0  0  0  0  0
    6.0010   -1.5600    0.0000 C   0  0  1  0  0  0  0  0  0  0  0  0
    5.1350   -1.0600    0.0000 C   0  0  0  0  0  0  0  0  0  0  0  0
    6.0010   -2.5600    0.0000 C   0  0  0  0  0  0  0  0  0  0  0  0
    4.2690   -1.5600    0.0000 C   0  0  0  0  0  0  0  0  0  0  0  0
    4.2690   -2.5600    0.0000 C   0  0  0  0  0  0  0  0  0  0  0  0
   10.3312    2.9400    0.0000 C   0  0  0  0  0  0  0  0  0  0  0  0
   10.5866   -2.4523    0.0000 H   0  0  0  0  0  0  0  0  0  0  0  0
   10.9851   -3.1426    0.0000 H   0  0  0  0  0  0  0  0  0  0  0  0
    8.5991   -1.6800    0.0000 H   0  0  0  0  0  0  0  0  0  0  0  0
   11.1972   -0.9400    0.0000 H   0  0  0  0  0  0  0  0  0  0  0  0
   12.6002   -3.3700    0.0000 H   0  0  0  0  0  0  0  0  0  0  0  0
    8.3871    0.5226    0.0000 H   0  0  0  0  0  0  0  0  0  0  0  0
    7.9885   -0.1677    0.0000 H   0  0  0  0  0  0  0  0  0  0  0  0
    9.4651   -2.1800    0.0000 H   0  0  0  0  0  0  0  0  0  0  0  0
    9.6772   -0.1426    0.0000 H   0  0  0  0  0  0  0  0  0  0  0  0
   10.0757    0.5477    0.0000 H   0  0  0  0  0  0  0  0  0  0  0  0
   13.2392   -3.0969    0.0000 H   0  0  0  0  0  0  0  0  0  0  0  0
   13.4662   -2.2500    0.0000 H   0  0  0  0  0  0  0  0  0  0  0  0
   12.6192   -2.0231    0.0000 H   0  0  0  0  0  0  0  0  0  0  0  0
   11.4432   -4.0600    0.0000 H   0  0  0  0  0  0  0  0  0  0  0  0
   12.0632   -4.6800    0.0000 H   0  0  0  0  0  0  0  0  0  0  0  0
   12.6832   -4.0600    0.0000 H   0  0  0  0  0  0  0  0  0  0  0  0
    9.2531    2.0226    0.0000 H   0  0  0  0  0  0  0  0  0  0  0  0
    8.8546    1.3323    0.0000 H   0  0  0  0  0  0  0  0  0  0  0  0
   12.6002   -1.3700    0.0000 H   0  0  0  0  0  0  0  0  0  0  0  0
   12.0632   -0.4400    0.0000 H   0  0  0  0  0  0  0  0  0  0  0  0
    6.8671   -0.4400    0.0000 H   0  0  0  0  0  0  0  0  0  0  0  0
    6.5380   -1.8700    0.0000 H   0  0  0  0  0  0  0  0  0  0  0  0
    5.1350   -0.4400    0.0000 H   0  0  0  0  0  0  0  0  0  0  0  0
    3.7320   -1.2500    0.0000 H   0  0  0  0  0  0  0  0  0  0  0  0
    4.4810   -3.1426    0.0000 H   0  0  0  0  0  0  0  0  0  0  0  0
    4.8796   -2.4523    0.0000 H   0  0  0  0  0  0  0  0  0  0  0  0
    5.1350   -3.6800    0.0000 H   0  0  0  0  0  0  0  0  0  0  0  0
   11.1972    4.0600    0.0000 H   0  0  0  0  0  0  0  0  0  0  0  0
   11.7341    3.1300    0.0000 H   0  0  0  0  0  0  0  0  0  0  0  0
    9.4651    4.0600    0.0000 H   0  0  0  0  0  0  0  0  0  0  0  0
    8.9282    3.1300    0.0000 H   0  0  0  0  0  0  0  0  0  0  0  0
    2.2830   -2.1940    0.0000 H   0  0  0  0  0  0  0  0  0  0  0  0
    2.0000   -3.2500    0.0000 H   0  0  0  0  0  0  0  0  0  0  0  0
  1  6  1  0  0  0  0
  1  7  1  0  0  0  0
  1  8  2  0  0  0  0
  1 30  1  0  0  0  0
  2 20  2  0  0  0  0
  3 22  2  0  0  0  0
  4 28  1  0  0  0  0
  4 58  1  0  0  0  0
  5 28  2  0  0  0  0
  6 64  1  0  0  0  0
  7 63  1  0  0  0  0
 16  9  1  6  0  0  0
  9 20  1  0  0  0  0
  9 39  1  0  0  0  0
 10 17  1  0  0  0  0
 10 50  1  0  0  0  0
 10 51  1  0  0  0  0
 11 22  1  0  0  0  0
 26 11  1  6  0  0  0
 11 52  1  0  0  0  0
 12 25  1  0  0  0  0
 12 31  2  0  0  0  0
 13 31  1  0  0  0  0
 13 59  1  0  0  0  0
 13 60  1  0  0  0  0
 14 31  1  0  0  0  0
 14 61  1  0  0  0  0
 14 62  1  0  0  0  0
 15 17  1  0  0  0  0
 15 18  1  0  0  0  0
 15 32  1  0  0  0  0
 15 33  1  0  0  0  0
 16 19  1  0  0  0  0
 16 22  1  0  0  0  0
 16 34  1  0  0  0  0
 17 20  1  0  0  0  0
 17 35  1  0  0  0  0
 18 23  1  0  0  0  0
 18 24  1  0  0  0  0
 18 36  1  0  0  0  0
 19 21  1  0  0  0  0
 19 37  1  0  0  0  0
 19 38  1  0  0  0  0
 21 25  1  0  0  0  0
 21 40  1  0  0  0  0
 21 41  1  0  0  0  0
 23 45  1  0  0  0  0
 23 46  1  0  0  0  0
 23 47  1  0  0  0  0
 24 42  1  0  0  0  0
 24 43  1  0  0  0  0
 24 44  1  0  0  0  0
 25 48  1  0  0  0  0
 25 49  1  0  0  0  0
 26 27  1  0  0  0  0
 26 28  1  0  0  0  0
 26 53  1  0  0  0  0
 27 29  2  0  0  0  0
 27 54  1  0  0  0  0
 29 30  1  0  0  0  0
 29 55  1  0  0  0  0
 30 56  1  0  0  0  0
 30 57  1  0  0  0  0
M  END
> <PUBCHEM_COMPOUND_CID>
46174011

> <PUBCHEM_COMPOUND_CANONICALIZED>
1

> <PUBCHEM_CACTVS_COMPLEXITY>
718

> <PUBCHEM_CACTVS_HBOND_ACCEPTOR>
9

> <PUBCHEM_CACTVS_HBOND_DONOR>
8

> <PUBCHEM_CACTVS_ROTATABLE_BOND>
14

> <PUBCHEM_CACTVS_SUBSKEYS>
AAADcfB7uAIAAAAAAAAAAAAAAAAAAAAAAAAAAAAAAAAAAAAAAAAAHggQCCAADSjJgAQDCALAAhCoQCHSPICAAAEgAAAICIGIAAgCQBIAgSAUQAAAVgCYAAIYAQAMAAAAAAAAAAAAAAAAAAAAAAAAAAAAAA==

> <PUBCHEM_IUPAC_OPENEYE_NAME>
(Z,2S)-2-[[(2S)-2-[(2-amino-4-methyl-pentanoyl)amino]-5-guanidino-pentanoyl]amino]-5-phosphono-pent-3-enoic acid

> <PUBCHEM_IUPAC_CAS_NAME>
(Z,2S)-2-[[(2S)-2-[(2-amino-4-methyl-1-oxopentyl)amino]-5-(diaminomethylideneamino)-1-oxopentyl]amino]-5-phosphono-3-pentenoic acid

> <PUBCHEM_IUPAC_NAME>
(Z,2S)-2-[[(2S)-2-[(2-amino-4-methylpentanoyl)amino]-5-(diaminomethylideneamino)pentanoyl]amino]-5-phosphonopent-3-enoic acid

> <PUBCHEM_IUPAC_SYSTEMATIC_NAME>
(Z,2S)-2-[[(2S)-2-[(2-azanyl-4-methyl-pentanoyl)amino]-5-[bis(azanyl)methylideneamino]pentanoyl]amino]-5-phosphono-pent-3-enoic acid

> <PUBCHEM_IUPAC_TRADITIONAL_NAME>
(Z,2S)-2-[[(2S)-2-[(2-amino-4-methyl-pentanoyl)amino]-5-guanidino-pentanoyl]amino]-5-phosphono-pent-3-enoic acid

> <PUBCHEM_IUPAC_INCHI>
InChI=1S/C17H33N6O7P/c1-10(2)9-11(18)14(24)22-12(5-3-7-21-17(19)20)15(25)23-13(16(26)27)6-4-8-31(28,29)30/h4,6,10-13H,3,5,7-9,18H2,1-2H3,(H,22,24)(H,23,25)(H,26,27)(H4,19,20,21)(H2,28,29,30)/b6-4-/t11?,12-,13-/m0/s1

> <PUBCHEM_IUPAC_INCHIKEY>
CJJARRUKCLRYDP-HDRVUXPSSA-N

> <PUBCHEM_XLOGP3_AA>
-5.1

> <PUBCHEM_EXACT_MASS>
464.214834

> <PUBCHEM_MOLECULAR_FORMULA>
C17H33N6O7P

> <PUBCHEM_MOLECULAR_WEIGHT>
464.453682

> <PUBCHEM_OPENEYE_CAN_SMILES>
CC(C)CC(C(=O)NC(CCCN=C(N)N)C(=O)NC(C=CCP(=O)(O)O)C(=O)O)N

> <PUBCHEM_OPENEYE_ISO_SMILES>
CC(C)CC(C(=O)N[C@@H](CCCN=C(N)N)C(=O)N[C@@H](/C=C\CP(=O)(O)O)C(=O)O)N

> <PUBCHEM_CACTVS_TPSA>
243

> <PUBCHEM_MONOISOTOPIC_WEIGHT>
464.214834

> <PUBCHEM_TOTAL_CHARGE>
0

> <PUBCHEM_HEAVY_ATOM_COUNT>
31

> <PUBCHEM_ATOM_DEF_STEREO_COUNT>
2

> <PUBCHEM_ATOM_UDEF_STEREO_COUNT>
1

> <PUBCHEM_BOND_DEF_STEREO_COUNT>
1

> <PUBCHEM_BOND_UDEF_STEREO_COUNT>
0

> <PUBCHEM_ISOTOPIC_ATOM_COUNT>
0

> <PUBCHEM_COMPONENT_COUNT>
1

> <PUBCHEM_CACTVS_TAUTO_COUNT>
8

> <PUBCHEM_COORDINATE_TYPE>
1
5
255

> <PUBCHEM_BONDANNOTATIONS>
17  10  3
26  11  6
16  9  6

$$$$

