442909
  -OEChem-07051213002D

 62 68  0     1  0  0  0  0  0999 V2000
    3.2975    0.7934    0.0000 O   0  0  0  0  0  0  0  0  0  0  0  0
    5.4144    3.8371    0.0000 O   0  0  0  0  0  0  0  0  0  0  0  0
    6.3221   -0.7385    0.0000 O   0  0  0  0  0  0  0  0  0  0  0  0
    7.1628    0.8025    0.0000 O   0  0  0  0  0  0  0  0  0  0  0  0
    2.4181   -2.9969    0.0000 O   0  0  0  0  0  0  0  0  0  0  0  0
    3.6344   -4.7016    0.0000 O   0  0  0  0  0  0  0  0  0  0  0  0
    3.2658   -1.0687    0.0000 N   0  0  0  0  0  0  0  0  0  0  0  0
    8.0804    2.3163    0.0000 N   0  0  0  0  0  0  0  0  0  0  0  0
    4.5484    2.3371    0.0000 C   0  0  1  0  0  0  0  0  0  0  0  0
    5.4144    1.8371    0.0000 C   0  0  2  0  0  0  0  0  0  0  0  0
    4.9138    0.9618    0.0000 C   0  0  2  0  0  0  0  0  0  0  0  0
    4.0406    1.4660    0.0000 C   0  0  1  0  0  0  0  0  0  0  0  0
    4.5484    3.3371    0.0000 C   0  0  0  0  0  0  0  0  0  0  0  0
    4.7029   -0.0180    0.0000 C   0  0  0  0  0  0  0  0  0  0  0  0
    6.2804    2.3371    0.0000 C   0  0  0  0  0  0  0  0  0  0  0  0
    3.7060   -0.1219    0.0000 C   0  0  0  0  0  0  0  0  0  0  0  0
    6.2804    3.3371    0.0000 C   0  0  0  0  0  0  0  0  0  0  0  0
    4.0484    4.2031    0.0000 C   0  0  0  0  0  0  0  0  0  0  0  0
    3.5484    3.3371    0.0000 C   0  0  0  0  0  0  0  0  0  0  0  0
    5.3288   -0.8537    0.0000 C   0  0  0  0  0  0  0  0  0  0  0  0
    7.1743    1.8024    0.0000 C   0  0  0  0  0  0  0  0  0  0  0  0
    7.1743    3.8718    0.0000 C   0  0  0  0  0  0  0  0  0  0  0  0
    4.9107   -1.8103    0.0000 C   0  0  0  0  0  0  0  0  0  0  0  0
    8.0804    3.3579    0.0000 C   0  0  0  0  0  0  0  0  0  0  0  0
    3.8722   -1.9186    0.0000 C   0  0  0  0  0  0  0  0  0  0  0  0
    7.1492    4.9565    0.0000 C   0  0  0  0  0  0  0  0  0  0  0  0
    5.5626   -2.6808    0.0000 C   0  0  0  0  0  0  0  0  0  0  0  0
    9.0242    3.8932    0.0000 C   0  0  0  0  0  0  0  0  0  0  0  0
    3.4138   -2.9047    0.0000 C   0  0  0  0  0  0  0  0  0  0  0  0
    8.0804    5.5134    0.0000 C   0  0  0  0  0  0  0  0  0  0  0  0
    6.9185   -1.5412    0.0000 C   0  0  0  0  0  0  0  0  0  0  0  0
    9.0242    4.9782    0.0000 C   0  0  0  0  0  0  0  0  0  0  0  0
    5.1271   -3.6772    0.0000 C   0  0  0  0  0  0  0  0  0  0  0  0
    4.0455   -3.7900    0.0000 C   0  0  0  0  0  0  0  0  0  0  0  0
    2.0000   -3.9053    0.0000 C   0  0  0  0  0  0  0  0  0  0  0  0
    4.2184   -5.5134    0.0000 C   0  0  0  0  0  0  0  0  0  0  0  0
    3.7278    2.5588    0.0000 H   0  0  0  0  0  0  0  0  0  0  0  0
    6.0166    1.2373    0.0000 H   0  0  0  0  0  0  0  0  0  0  0  0
    5.7076    0.6578    0.0000 H   0  0  0  0  0  0  0  0  0  0  0  0
    3.3804    2.0014    0.0000 H   0  0  0  0  0  0  0  0  0  0  0  0
    3.5484    3.9571    0.0000 H   0  0  0  0  0  0  0  0  0  0  0  0
    2.9284    3.3371    0.0000 H   0  0  0  0  0  0  0  0  0  0  0  0
    3.5484    2.7171    0.0000 H   0  0  0  0  0  0  0  0  0  0  0  0
    4.5853    4.5131    0.0000 H   0  0  0  0  0  0  0  0  0  0  0  0
    3.7384    4.7401    0.0000 H   0  0  0  0  0  0  0  0  0  0  0  0
    3.5114    3.8931    0.0000 H   0  0  0  0  0  0  0  0  0  0  0  0
    8.6162    2.0042    0.0000 H   0  0  0  0  0  0  0  0  0  0  0  0
    6.6064    5.2561    0.0000 H   0  0  0  0  0  0  0  0  0  0  0  0
    6.1785   -2.6094    0.0000 H   0  0  0  0  0  0  0  0  0  0  0  0
    9.5599    3.5811    0.0000 H   0  0  0  0  0  0  0  0  0  0  0  0
    8.0732    6.1334    0.0000 H   0  0  0  0  0  0  0  0  0  0  0  0
    6.4209   -1.9110    0.0000 H   0  0  0  0  0  0  0  0  0  0  0  0
    7.2883   -2.0388    0.0000 H   0  0  0  0  0  0  0  0  0  0  0  0
    7.4162   -1.1714    0.0000 H   0  0  0  0  0  0  0  0  0  0  0  0
    9.5599    5.2902    0.0000 H   0  0  0  0  0  0  0  0  0  0  0  0
    5.4930   -4.1777    0.0000 H   0  0  0  0  0  0  0  0  0  0  0  0
    1.4368   -3.6461    0.0000 H   0  0  0  0  0  0  0  0  0  0  0  0
    1.7408   -4.4685    0.0000 H   0  0  0  0  0  0  0  0  0  0  0  0
    2.5632   -4.1645    0.0000 H   0  0  0  0  0  0  0  0  0  0  0  0
    3.7151   -5.8754    0.0000 H   0  0  0  0  0  0  0  0  0  0  0  0
    4.5804   -6.0167    0.0000 H   0  0  0  0  0  0  0  0  0  0  0  0
    4.7217   -5.1513    0.0000 H   0  0  0  0  0  0  0  0  0  0  0  0
  1 12  1  0  0  0  0
  1 16  1  0  0  0  0
  2 13  1  0  0  0  0
  2 17  1  0  0  0  0
  3 20  1  0  0  0  0
  3 31  1  0  0  0  0
  4 21  2  0  0  0  0
  5 29  1  0  0  0  0
  5 35  1  0  0  0  0
  6 34  1  0  0  0  0
  6 36  1  0  0  0  0
  7 16  2  0  0  0  0
  7 25  1  0  0  0  0
  8 21  1  0  0  0  0
  8 24  1  0  0  0  0
  8 47  1  0  0  0  0
  9 10  1  0  0  0  0
  9 12  1  0  0  0  0
  9 13  1  0  0  0  0
  9 37  1  6  0  0  0
 10 11  1  0  0  0  0
 10 15  1  0  0  0  0
 10 38  1  6  0  0  0
 11 12  1  0  0  0  0
 11 14  1  0  0  0  0
 11 39  1  6  0  0  0
 12 40  1  6  0  0  0
 13 18  1  0  0  0  0
 13 19  1  0  0  0  0
 14 16  1  0  0  0  0
 14 20  2  0  0  0  0
 15 17  2  0  0  0  0
 15 21  1  0  0  0  0
 17 22  1  0  0  0  0
 18 44  1  0  0  0  0
 18 45  1  0  0  0  0
 18 46  1  0  0  0  0
 19 41  1  0  0  0  0
 19 42  1  0  0  0  0
 19 43  1  0  0  0  0
 20 23  1  0  0  0  0
 22 24  1  0  0  0  0
 22 26  2  0  0  0  0
 23 25  2  0  0  0  0
 23 27  1  0  0  0  0
 24 28  2  0  0  0  0
 25 29  1  0  0  0  0
 26 30  1  0  0  0  0
 26 48  1  0  0  0  0
 27 33  2  0  0  0  0
 27 49  1  0  0  0  0
 28 32  1  0  0  0  0
 28 50  1  0  0  0  0
 29 34  2  0  0  0  0
 30 32  2  0  0  0  0
 30 51  1  0  0  0  0
 31 52  1  0  0  0  0
 31 53  1  0  0  0  0
 31 54  1  0  0  0  0
 32 55  1  0  0  0  0
 33 34  1  0  0  0  0
 33 56  1  0  0  0  0
 35 57  1  0  0  0  0
 35 58  1  0  0  0  0
 35 59  1  0  0  0  0
 36 60  1  0  0  0  0
 36 61  1  0  0  0  0
 36 62  1  0  0  0  0
M  END
> <PUBCHEM_COMPOUND_CID>
442909

> <PUBCHEM_COMPOUND_CANONICALIZED>
1

> <PUBCHEM_CACTVS_COMPLEXITY>
952

> <PUBCHEM_CACTVS_HBOND_ACCEPTOR>
7

> <PUBCHEM_CACTVS_HBOND_DONOR>
1

> <PUBCHEM_CACTVS_ROTATABLE_BOND>
3

> <PUBCHEM_CACTVS_SUBSKEYS>
AAADceB7OAAAAAAAAAAAAAAAAABgASAAAAA8YIECBIAQAFix9AAAHgAQAAAADVyhngIyxvLIFACoAyVyVASCiCAhYiAImCEn7NgPJ/LEsZuPOCrn1B3a6Qf4/P/OoAABAgACUABAAAIEAASgAAAAAAAAAA==

> <PUBCHEM_IUPAC_INCHI>
InChI=1S/C28H26N2O6/c1-28(2)20-16(18-23(36-28)12-8-6-7-9-14(12)29-26(18)31)17-19-22(33-4)13-10-11-15(32-3)24(34-5)21(13)30-27(19)35-25(17)20/h6-11,16-17,20,25H,1-5H3,(H,29,31)/t16-,17+,20+,25-/m1/s1

> <PUBCHEM_IUPAC_INCHIKEY>
ZTSCGHFGGQONGE-XHFAZCCNSA-N

> <PUBCHEM_XLOGP3_AA>
3.6

> <PUBCHEM_EXACT_MASS>
486.179087

> <PUBCHEM_MOLECULAR_FORMULA>
C28H26N2O6

> <PUBCHEM_MOLECULAR_WEIGHT>
486.51584

> <PUBCHEM_OPENEYE_CAN_SMILES>
CC1(C2C(C3C2OC4=NC5=C(C=CC(=C5OC)OC)C(=C34)OC)C6=C(O1)C7=CC=CC=C7NC6=O)C

> <PUBCHEM_OPENEYE_ISO_SMILES>
CC1([C@H]2[C@H]([C@@H]3[C@H]2OC4=NC5=C(C=CC(=C5OC)OC)C(=C34)OC)C6=C(O1)C7=CC=CC=C7NC6=O)C

> <PUBCHEM_CACTVS_TPSA>
88.1

> <PUBCHEM_MONOISOTOPIC_WEIGHT>
486.179087

> <PUBCHEM_TOTAL_CHARGE>
0

> <PUBCHEM_HEAVY_ATOM_COUNT>
36

> <PUBCHEM_ATOM_DEF_STEREO_COUNT>
4

> <PUBCHEM_ATOM_UDEF_STEREO_COUNT>
0

> <PUBCHEM_BOND_DEF_STEREO_COUNT>
0

> <PUBCHEM_BOND_UDEF_STEREO_COUNT>
0

> <PUBCHEM_ISOTOPIC_ATOM_COUNT>
0

> <PUBCHEM_COMPONENT_COUNT>
1

> <PUBCHEM_CACTVS_TAUTO_COUNT>
2

> <PUBCHEM_COORDINATE_TYPE>
1
5
255

> <PUBCHEM_BONDANNOTATIONS>
10  38  6
11  39  6
12  40  6
14  16  8
14  20  8
15  17  8
15  21  8
17  22  8
20  23  8
22  24  8
22  26  8
23  25  8
23  27  8
24  28  8
25  29  8
26  30  8
27  33  8
28  32  8
29  34  8
30  32  8
33  34  8
7  16  8
7  25  8
8  21  8
8  24  8
9  37  6

$$$$

