46173893
  -OEChem-07051213103D

 37 38  0     1  0  0  0  0  0999 V2000
    2.2680    0.8605    1.3849 O   0  0  0  0  0  0  0  0  0  0  0  0
   -0.2633   -0.0273    2.1847 O   0  0  0  0  0  0  0  0  0  0  0  0
    4.7537   -0.6395   -1.5773 O   0  0  0  0  0  0  0  0  0  0  0  0
    0.2547   -2.5052   -0.8146 O   0  0  0  0  0  0  0  0  0  0  0  0
   -1.1882   -2.7887    0.9138 O   0  0  0  0  0  0  0  0  0  0  0  0
   -2.6943    1.3554   -1.3016 O   0  0  0  0  0  0  0  0  0  0  0  0
    3.1956    0.9320   -0.7592 N   0  0  0  0  0  0  0  0  0  0  0  0
   -2.3375   -0.3640    0.2153 N   0  0  0  0  0  0  0  0  0  0  0  0
   -5.0381    1.9920    0.0049 N   0  0  0  0  0  0  0  0  0  0  0  0
    3.3785    1.3936    0.6235 C   0  0  2  0  0  0  0  0  0  0  0  0
    1.4580    0.0249    0.5119 C   0  0  2  0  0  0  0  0  0  0  0  0
    1.8539    0.4082   -0.9295 C   0  0  0  0  0  0  0  0  0  0  0  0
    4.7271    0.6551    0.6211 C   0  0  0  0  0  0  0  0  0  0  0  0
   -0.0099    0.2583    0.8070 C   0  0  1  0  0  0  0  0  0  0  0  0
    4.3301    0.1727   -0.7864 C   0  0  0  0  0  0  0  0  0  0  0  0
   -0.9432   -0.5766   -0.0817 C   0  0  1  0  0  0  0  0  0  0  0  0
   -0.6745   -2.0624    0.0725 C   0  0  0  0  0  0  0  0  0  0  0  0
   -3.1092    0.5972   -0.4274 C   0  0  0  0  0  0  0  0  0  0  0  0
   -4.5432    0.6201    0.0864 C   0  0  2  0  0  0  0  0  0  0  0  0
   -5.4182   -0.3065   -0.7485 C   0  0  0  0  0  0  0  0  0  0  0  0
    3.4409    2.4833    0.7018 H   0  0  0  0  0  0  0  0  0  0  0  0
    1.7653   -1.0012    0.7434 H   0  0  0  0  0  0  0  0  0  0  0  0
    1.2389    1.2209   -1.3278 H   0  0  0  0  0  0  0  0  0  0  0  0
    1.8445   -0.4485   -1.6080 H   0  0  0  0  0  0  0  0  0  0  0  0
    5.6124    1.2954    0.6393 H   0  0  0  0  0  0  0  0  0  0  0  0
    4.8243   -0.1496    1.3539 H   0  0  0  0  0  0  0  0  0  0  0  0
   -0.2390    1.3244    0.6825 H   0  0  0  0  0  0  0  0  0  0  0  0
   -0.7950   -0.3155   -1.1364 H   0  0  0  0  0  0  0  0  0  0  0  0
   -2.7658   -0.9373    0.9369 H   0  0  0  0  0  0  0  0  0  0  0  0
   -1.2080    0.1368    2.3466 H   0  0  0  0  0  0  0  0  0  0  0  0
   -4.5688    0.3019    1.1348 H   0  0  0  0  0  0  0  0  0  0  0  0
    0.4443   -3.4606   -0.6988 H   0  0  0  0  0  0  0  0  0  0  0  0
   -5.4142   -0.0182   -1.8061 H   0  0  0  0  0  0  0  0  0  0  0  0
   -6.4550   -0.2968   -0.3952 H   0  0  0  0  0  0  0  0  0  0  0  0
   -5.0533   -1.3380   -0.6917 H   0  0  0  0  0  0  0  0  0  0  0  0
   -6.0021    2.0289    0.3341 H   0  0  0  0  0  0  0  0  0  0  0  0
   -4.5004    2.5874    0.6340 H   0  0  0  0  0  0  0  0  0  0  0  0
  1 10  1  0  0  0  0
  1 11  1  0  0  0  0
  2 14  1  0  0  0  0
  2 30  1  0  0  0  0
  3 15  2  0  0  0  0
  4 17  1  0  0  0  0
  4 32  1  0  0  0  0
  5 17  2  0  0  0  0
  6 18  2  0  0  0  0
  7 10  1  0  0  0  0
  7 12  1  0  0  0  0
  7 15  1  0  0  0  0
  8 16  1  0  0  0  0
  8 18  1  0  0  0  0
  8 29  1  0  0  0  0
  9 19  1  0  0  0  0
  9 36  1  0  0  0  0
  9 37  1  0  0  0  0
 10 13  1  0  0  0  0
 10 21  1  0  0  0  0
 11 12  1  0  0  0  0
 11 14  1  0  0  0  0
 11 22  1  0  0  0  0
 12 23  1  0  0  0  0
 12 24  1  0  0  0  0
 13 15  1  0  0  0  0
 13 25  1  0  0  0  0
 13 26  1  0  0  0  0
 14 16  1  0  0  0  0
 14 27  1  0  0  0  0
 16 17  1  0  0  0  0
 16 28  1  0  0  0  0
 18 19  1  0  0  0  0
 19 20  1  0  0  0  0
 19 31  1  0  0  0  0
 20 33  1  0  0  0  0
 20 34  1  0  0  0  0
 20 35  1  0  0  0  0
M  END
> <PUBCHEM_COMPOUND_CID>
46173893

> <PUBCHEM_CONFORMER_RMSD>
0.8

> <PUBCHEM_CONFORMER_DIVERSEORDER>
1
14
88
62
34
110
107
58
143
19
66
44
94
93
59
139
52
37
90
70
108
2
55
130
99
31
57
145
24
127
86
60
85
36
73
146
141
83
53
38
111
100
64
46
22
56
112
77
109
50
118
125
48
135
41
116
114
9
63
33
133
123
87
137
17
65
69
134
7
128
67
92
117
144
122
4
6
27
76
104
119
142
102
132
120
25
74
45
113
29
35
136
82
18
11
98
30
81
51
115
124
12
138
68
39
32
72
3
61
49
5
40
121
23
131
78
75
89
105
103
10
95
54
80
28
16
42
20
8
126
13
96
91
140
106
97
84
43
71
26
15
79
21
129
47
101

> <PUBCHEM_MMFF94_PARTIAL_CHARGES>
24
1 -0.54
10 0.48
11 0.28
12 0.3
13 0.05
14 0.28
15 0.58
16 0.36
17 0.66
18 0.57
19 0.33
2 -0.68
29 0.37
3 -0.57
30 0.4
32 0.5
36 0.36
37 0.36
4 -0.65
5 -0.57
6 -0.57
7 -0.59
8 -0.73
9 -0.99

> <PUBCHEM_EFFECTIVE_ROTOR_COUNT>
6.8

> <PUBCHEM_PHARMACOPHORE_FEATURES>
12
1 1 acceptor
1 2 acceptor
1 2 donor
1 3 acceptor
1 4 acceptor
1 5 acceptor
1 6 acceptor
1 8 donor
1 9 cation
1 9 donor
3 4 5 17 anion
7 1 7 10 11 12 13 15 rings

> <PUBCHEM_HEAVY_ATOM_COUNT>
20

> <PUBCHEM_ATOM_DEF_STEREO_COUNT>
4

> <PUBCHEM_ATOM_UDEF_STEREO_COUNT>
1

> <PUBCHEM_BOND_DEF_STEREO_COUNT>
0

> <PUBCHEM_BOND_UDEF_STEREO_COUNT>
0

> <PUBCHEM_ISOTOPIC_ATOM_COUNT>
0

> <PUBCHEM_COMPONENT_COUNT>
1

> <PUBCHEM_CACTVS_TAUTO_COUNT>
4

> <PUBCHEM_CONFORMER_ID>
02C08EC500000001

> <PUBCHEM_MMFF94_ENERGY>
48.4015

> <PUBCHEM_FEATURE_SELFOVERLAP>
60.958

> <PUBCHEM_SHAPE_FINGERPRINT>
10498660 4 18338527442745637405
10726558 24 18408322202802673107
10922049 32 18272931630903311283
11045977 3 13039181507219491045
12236239 1 17346886628067792253
12251169 10 13326851132456575417
12500047 106 18263365802785592086
12516196 113 9295283946076842245
12592029 89 18272369810442113994
12916748 109 18409167697190367305
13533116 47 17749670792245272814
13544592 145 18334289881923740140
13544653 18 7565345348846175997
14252887 29 11095885994613011388
14341114 328 16702017599964631297
15342168 16 14548443688349167446
15375358 24 17676773068085863792
1813 80 8286200573885000283
18186145 218 18186528704199331249
187816 3 17749387057292487529
192875 21 16660638575206591962
19784866 140 16950281832405800179
200 152 15430031067474673344
20626108 58 13985250793902066741
20645477 56 18339927000403219880
20645477 70 17240473711605494500
20671657 53 14273458054766307017
21250096 35 7565342033426985109
21521239 73 17821736039471785271
21524375 3 18342745108929541483
22218785 32 18335138691403791855
22224240 67 18413386519807339659
22854114 59 14405188373794670329
23253445 4 11312051041442910743
23402539 116 18333739008896511957
23526113 38 17386295276744201035
23557571 272 18193841431592459384
23559900 14 17968094193103838032
25 1 18333735749168944587
2637199 183 18343302586862454297
2916195 48 18187376393294396753
298252 57 18272093781446719187
347723 3 16732980951098245571
3729539 64 18122612019129970294
495365 180 17531256041334173650
4990 188 17749109989168487325
5161694 15 18261106349187068244
5374978 207 7781515919310213214
56616090 163 18409725205857827467
633830 44 18113911463317595933
69090 78 18341899562622392743
69474 34 11239994538443123431
8863177 126 6121345798245910173

> <PUBCHEM_SHAPE_MULTIPOLES>
361.43
10.61
1.94
1.33
3.56
1.37
0.22
-4.53
-2.89
1.11
0.08
-0.72
0
0.75

> <PUBCHEM_SHAPE_SELFOVERLAP>
745.461

> <PUBCHEM_SHAPE_VOLUME>
206.2

> <PUBCHEM_COORDINATE_TYPE>
2
5
10

$$$$

