46173832
  -OEChem-07051213093D

 72 76  0     1  0  0  0  0  0999 V2000
   -3.9742    0.7886   -1.1057 O   0  0  0  0  0  0  0  0  0  0  0  0
   -2.2508   -0.1160    2.0004 O   0  0  0  0  0  0  0  0  0  0  0  0
   -3.7160    2.2725    2.7200 O   0  0  0  0  0  0  0  0  0  0  0  0
   -6.2095    2.4699    1.2803 O   0  0  0  0  0  0  0  0  0  0  0  0
    2.2559    1.2980    0.8508 O   0  0  0  0  0  0  0  0  0  0  0  0
    3.6345    0.2260   -0.6968 O   0  0  0  0  0  0  0  0  0  0  0  0
   -6.1166    1.1331   -2.7795 O   0  0  0  0  0  0  0  0  0  0  0  0
    4.5723    2.4044    2.0981 O   0  0  0  0  0  0  0  0  0  0  0  0
    6.9254    0.7371    1.7104 O   0  0  0  0  0  0  0  0  0  0  0  0
    7.2867    0.0975   -1.0658 O   0  0  0  0  0  0  0  0  0  0  0  0
    1.1645   -0.8828    1.7084 O   0  0  0  0  0  0  0  0  0  0  0  0
    0.9113   -3.4500    1.8704 O   0  0  0  0  0  0  0  0  0  0  0  0
    3.7218   -0.6716   -3.2851 O   0  0  0  0  0  0  0  0  0  0  0  0
   -3.2582   -0.0380   -0.1894 C   0  0  1  0  0  0  0  0  0  0  0  0
   -2.0088   -0.5491   -0.9225 C   0  0  1  0  0  0  0  0  0  0  0  0
   -2.8830    0.7522    1.0640 C   0  0  1  0  0  0  0  0  0  0  0  0
   -4.1322    1.3617    1.7009 C   0  0  2  0  0  0  0  0  0  0  0  0
   -4.9732    2.1130    0.6677 C   0  0  1  0  0  0  0  0  0  0  0  0
   -5.2195    1.2413   -0.5679 C   0  0  1  0  0  0  0  0  0  0  0  0
   -0.9166    0.4999   -0.8727 C   0  0  0  0  0  0  0  0  0  0  0  0
   -1.5941   -1.8929   -0.3589 C   0  0  0  0  0  0  0  0  0  0  0  0
    0.1883    0.3729   -0.0215 C   0  0  0  0  0  0  0  0  0  0  0  0
   -0.4909   -2.0256    0.4934 C   0  0  0  0  0  0  0  0  0  0  0  0
   -5.9391    2.0032   -1.6767 C   0  0  0  0  0  0  0  0  0  0  0  0
    0.3540   -0.8502    0.7912 C   0  0  0  0  0  0  0  0  0  0  0  0
   -2.3512   -3.0371   -0.6597 C   0  0  0  0  0  0  0  0  0  0  0  0
   -1.0234    1.6538   -1.6663 C   0  0  0  0  0  0  0  0  0  0  0  0
    3.5288    1.3220    0.2088 C   0  0  2  0  0  0  0  0  0  0  0  0
    1.1569    1.3820    0.0483 C   0  0  0  0  0  0  0  0  0  0  0  0
    4.6018    1.2264    1.2934 C   0  0  1  0  0  0  0  0  0  0  0  0
    5.9979    1.0951    0.6844 C   0  0  2  0  0  0  0  0  0  0  0  0
    6.0305    0.0152   -0.3973 C   0  0  1  0  0  0  0  0  0  0  0  0
    4.8828    0.2074   -1.3914 C   0  0  1  0  0  0  0  0  0  0  0  0
   -0.1600   -3.2689    1.0468 C   0  0  0  0  0  0  0  0  0  0  0  0
   -2.0190   -4.2779   -0.1145 C   0  0  0  0  0  0  0  0  0  0  0  0
   -0.0559    2.6573   -1.6027 C   0  0  0  0  0  0  0  0  0  0  0  0
    1.0311    2.5225   -0.7431 C   0  0  0  0  0  0  0  0  0  0  0  0
   -0.9265   -4.3922    0.7409 C   0  0  0  0  0  0  0  0  0  0  0  0
    4.8113   -0.9207   -2.4159 C   0  0  0  0  0  0  0  0  0  0  0  0
   -2.8370   -5.4802   -0.4451 C   0  0  0  0  0  0  0  0  0  0  0  0
   -3.9092   -0.8827    0.0740 H   0  0  0  0  0  0  0  0  0  0  0  0
   -2.2362   -0.7139   -1.9862 H   0  0  0  0  0  0  0  0  0  0  0  0
   -2.2048    1.5879    0.8717 H   0  0  0  0  0  0  0  0  0  0  0  0
   -4.7274    0.5919    2.2063 H   0  0  0  0  0  0  0  0  0  0  0  0
   -4.4659    3.0435    0.3854 H   0  0  0  0  0  0  0  0  0  0  0  0
   -5.8289    0.3635   -0.3129 H   0  0  0  0  0  0  0  0  0  0  0  0
   -5.3399    2.8546   -2.0164 H   0  0  0  0  0  0  0  0  0  0  0  0
   -6.9194    2.3592   -1.3457 H   0  0  0  0  0  0  0  0  0  0  0  0
    3.6495    2.2673   -0.3357 H   0  0  0  0  0  0  0  0  0  0  0  0
    4.3946    0.3823    1.9620 H   0  0  0  0  0  0  0  0  0  0  0  0
   -3.2104   -2.9524   -1.3222 H   0  0  0  0  0  0  0  0  0  0  0  0
   -1.8636    1.7820   -2.3439 H   0  0  0  0  0  0  0  0  0  0  0  0
    6.3420    2.0569    0.2856 H   0  0  0  0  0  0  0  0  0  0  0  0
   -2.8751   -0.8289    2.2188 H   0  0  0  0  0  0  0  0  0  0  0  0
    5.9716   -0.9759    0.0688 H   0  0  0  0  0  0  0  0  0  0  0  0
    4.9914    1.1540   -1.9383 H   0  0  0  0  0  0  0  0  0  0  0  0
   -3.2101    2.9886    2.2995 H   0  0  0  0  0  0  0  0  0  0  0  0
   -6.6847    1.6499    1.4981 H   0  0  0  0  0  0  0  0  0  0  0  0
   -0.1556    3.5465   -2.2182 H   0  0  0  0  0  0  0  0  0  0  0  0
    1.7568    3.3294   -0.6943 H   0  0  0  0  0  0  0  0  0  0  0  0
   -0.6625   -5.3576    1.1664 H   0  0  0  0  0  0  0  0  0  0  0  0
    5.7291   -0.9812   -3.0084 H   0  0  0  0  0  0  0  0  0  0  0  0
    4.6330   -1.8829   -1.9244 H   0  0  0  0  0  0  0  0  0  0  0  0
   -6.5723    1.6389   -3.4737 H   0  0  0  0  0  0  0  0  0  0  0  0
   -2.8070   -6.2162    0.3655 H   0  0  0  0  0  0  0  0  0  0  0  0
   -2.4606   -5.9508   -1.3588 H   0  0  0  0  0  0  0  0  0  0  0  0
   -3.8885   -5.2120   -0.5947 H   0  0  0  0  0  0  0  0  0  0  0  0
    4.7261    3.1697    1.5181 H   0  0  0  0  0  0  0  0  0  0  0  0
    6.6420   -0.1116    2.0911 H   0  0  0  0  0  0  0  0  0  0  0  0
    7.3310    0.9576   -1.5173 H   0  0  0  0  0  0  0  0  0  0  0  0
    1.4304   -2.6344    1.9393 H   0  0  0  0  0  0  0  0  0  0  0  0
    3.6919   -1.4033   -3.9249 H   0  0  0  0  0  0  0  0  0  0  0  0
  1 14  1  0  0  0  0
  1 19  1  0  0  0  0
  2 16  1  0  0  0  0
  2 54  1  0  0  0  0
  3 17  1  0  0  0  0
  3 57  1  0  0  0  0
  4 18  1  0  0  0  0
  4 58  1  0  0  0  0
  5 28  1  0  0  0  0
  5 29  1  0  0  0  0
  6 28  1  0  0  0  0
  6 33  1  0  0  0  0
  7 24  1  0  0  0  0
  7 64  1  0  0  0  0
  8 30  1  0  0  0  0
  8 68  1  0  0  0  0
  9 31  1  0  0  0  0
  9 69  1  0  0  0  0
 10 32  1  0  0  0  0
 10 70  1  0  0  0  0
 11 25  2  0  0  0  0
 12 34  1  0  0  0  0
 12 71  1  0  0  0  0
 13 39  1  0  0  0  0
 13 72  1  0  0  0  0
 14 15  1  0  0  0  0
 14 16  1  0  0  0  0
 14 41  1  0  0  0  0
 15 20  1  0  0  0  0
 15 21  1  0  0  0  0
 15 42  1  0  0  0  0
 16 17  1  0  0  0  0
 16 43  1  0  0  0  0
 17 18  1  0  0  0  0
 17 44  1  0  0  0  0
 18 19  1  0  0  0  0
 18 45  1  0  0  0  0
 19 24  1  0  0  0  0
 19 46  1  0  0  0  0
 20 22  2  0  0  0  0
 20 27  1  0  0  0  0
 21 23  2  0  0  0  0
 21 26  1  0  0  0  0
 22 25  1  0  0  0  0
 22 29  1  0  0  0  0
 23 25  1  0  0  0  0
 23 34  1  0  0  0  0
 24 47  1  0  0  0  0
 24 48  1  0  0  0  0
 26 35  2  0  0  0  0
 26 51  1  0  0  0  0
 27 36  2  0  0  0  0
 27 52  1  0  0  0  0
 28 30  1  0  0  0  0
 28 49  1  0  0  0  0
 29 37  2  0  0  0  0
 30 31  1  0  0  0  0
 30 50  1  0  0  0  0
 31 32  1  0  0  0  0
 31 53  1  0  0  0  0
 32 33  1  0  0  0  0
 32 55  1  0  0  0  0
 33 39  1  0  0  0  0
 33 56  1  0  0  0  0
 34 38  2  0  0  0  0
 35 38  1  0  0  0  0
 35 40  1  0  0  0  0
 36 37  1  0  0  0  0
 36 59  1  0  0  0  0
 37 60  1  0  0  0  0
 38 61  1  0  0  0  0
 39 62  1  0  0  0  0
 39 63  1  0  0  0  0
 40 65  1  0  0  0  0
 40 66  1  0  0  0  0
 40 67  1  0  0  0  0
M  END
> <PUBCHEM_COMPOUND_CID>
46173832

> <PUBCHEM_CONFORMER_RMSD>
1

> <PUBCHEM_CONFORMER_DIVERSEORDER>
1
3
29
5
6
26
16
25
19
15
20
28
18
23
14
12
10
8
11
7
17
24
27
21
9
2
4
13
22

> <PUBCHEM_MMFF94_PARTIAL_CHARGES>
54
1 -0.56
10 -0.68
11 -0.57
12 -0.53
13 -0.68
14 0.28
15 0.29
16 0.28
17 0.28
18 0.28
19 0.28
2 -0.68
20 -0.14
21 -0.14
22 0.09
23 0.09
24 0.28
25 0.4
26 -0.15
27 -0.15
28 0.56
29 0.08
3 -0.68
30 0.28
31 0.28
32 0.28
33 0.28
34 0.08
35 -0.14
36 -0.15
37 -0.15
38 -0.15
39 0.28
4 -0.68
40 0.14
5 -0.36
51 0.15
52 0.15
54 0.4
57 0.4
58 0.4
59 0.15
6 -0.56
60 0.15
61 0.15
64 0.4
68 0.4
69 0.4
7 -0.68
70 0.4
71 0.45
72 0.4
8 -0.68
9 -0.68

> <PUBCHEM_EFFECTIVE_ROTOR_COUNT>
7.6

> <PUBCHEM_PHARMACOPHORE_FEATURES>
26
1 1 acceptor
1 10 acceptor
1 10 donor
1 11 acceptor
1 12 donor
1 13 acceptor
1 13 donor
1 2 acceptor
1 2 donor
1 3 acceptor
1 3 donor
1 4 acceptor
1 4 donor
1 5 acceptor
1 6 acceptor
1 7 acceptor
1 7 donor
1 8 acceptor
1 8 donor
1 9 acceptor
1 9 donor
6 1 14 16 17 18 19 rings
6 15 20 21 22 23 25 rings
6 20 22 27 29 36 37 rings
6 21 23 26 34 35 38 rings
6 6 28 30 31 32 33 rings

> <PUBCHEM_HEAVY_ATOM_COUNT>
40

> <PUBCHEM_ATOM_DEF_STEREO_COUNT>
11

> <PUBCHEM_ATOM_UDEF_STEREO_COUNT>
0

> <PUBCHEM_BOND_DEF_STEREO_COUNT>
0

> <PUBCHEM_BOND_UDEF_STEREO_COUNT>
0

> <PUBCHEM_ISOTOPIC_ATOM_COUNT>
0

> <PUBCHEM_COMPONENT_COUNT>
1

> <PUBCHEM_CACTVS_TAUTO_COUNT>
65

> <PUBCHEM_CONFORMER_ID>
02C08E8800000001

> <PUBCHEM_MMFF94_ENERGY>
139.3499

> <PUBCHEM_FEATURE_SELFOVERLAP>
132.068

> <PUBCHEM_SHAPE_FINGERPRINT>
10581848 31 18193529247572929173
11007060 377 18261112967573844785
11115154 58 17682984097930166895
12128747 34 17676480644952997280
12422481 6 17203328948443294494
12977781 61 17532067467334635575
131258 38 15611546916696028435
13583140 156 16660641783473510680
13726171 33 17841118132084238828
140371 6 17192353335564857980
14068700 675 17980208478389613103
14790565 3 18268997646849962885
14840074 17 18131635616178930808
14856354 85 16773784888404088361
14866123 147 18270407079017836171
15131766 46 14691705638190397742
15183329 4 17168141286467867136
15361156 5 18187079517319343396
15420108 30 18340209682582180771
15927050 60 18411710884818659967
18365409 1 18336266748402536967
19301679 30 17904752285320632715
19311894 1 18339924814169621775
19319366 153 17417818382624014450
20505436 4 17749950111491129949
20511986 3 15430330152429506700
21033648 29 18335408097776024505
23559900 14 18113900412767774120
23576562 1 17845371042247885580
255183 313 18343866614699867809
3383291 50 18409445852521439563
3493558 16 15504882658167006832
4015057 19 17240485775615118008
4073 2 18261393296411088928
460360 51 17700971042290533316
5080951 261 18121250639498880838
6009941 240 18040432179644449496
6523845 18 18336535080515071033
6679774 75 17774707719227528634
77296 10 16587742057548975813
9896288 288 18409720747824544091

> <PUBCHEM_SHAPE_MULTIPOLES>
746.88
14.27
4.91
2.33
13.66
8.39
0.43
-10.23
1.58
-6.27
-0.55
0.29
-0.88
0.69

> <PUBCHEM_SHAPE_SELFOVERLAP>
1632.565

> <PUBCHEM_SHAPE_VOLUME>
398.1

> <PUBCHEM_COORDINATE_TYPE>
2
5
10

$$$$

