442358
  -OEChem-07051212573D

 39 41  0     1  0  0  0  0  0999 V2000
    0.8531   -0.2984    0.2727 O   0  0  0  0  0  0  0  0  0  0  0  0
    5.2925   -1.9595    0.0190 O   0  0  0  0  0  0  0  0  0  0  0  0
   -5.3926   -0.8126    0.1765 O   0  0  0  0  0  0  0  0  0  0  0  0
   -3.7496   -0.9231   -2.0629 O   0  0  0  0  0  0  0  0  0  0  0  0
    0.0147    0.8397    0.5329 C   0  0  1  0  0  0  0  0  0  0  0  0
    0.3079    1.9884   -0.4358 C   0  0  0  0  0  0  0  0  0  0  0  0
    1.7453    2.4523   -0.2367 C   0  0  0  0  0  0  0  0  0  0  0  0
    2.6720    1.2728   -0.1651 C   0  0  0  0  0  0  0  0  0  0  0  0
    2.1827   -0.0145    0.0927 C   0  0  0  0  0  0  0  0  0  0  0  0
   -1.4300    0.3967    0.4342 C   0  0  0  0  0  0  0  0  0  0  0  0
    3.0565   -1.1035    0.1444 C   0  0  0  0  0  0  0  0  0  0  0  0
    4.0511    1.4578   -0.3299 C   0  0  0  0  0  0  0  0  0  0  0  0
   -1.9358   -0.0653   -0.7804 C   0  0  0  0  0  0  0  0  0  0  0  0
   -2.2538    0.4519    1.5580 C   0  0  0  0  0  0  0  0  0  0  0  0
    4.4255   -0.9096   -0.0330 C   0  0  0  0  0  0  0  0  0  0  0  0
    4.9232    0.3706   -0.2660 C   0  0  0  0  0  0  0  0  0  0  0  0
    2.5334   -2.4822    0.3991 C   0  0  0  0  0  0  0  0  0  0  0  0
   -3.2667   -0.4724   -0.8714 C   0  0  0  0  0  0  0  0  0  0  0  0
   -3.5848    0.0448    1.4672 C   0  0  0  0  0  0  0  0  0  0  0  0
   -4.0912   -0.4175    0.2524 C   0  0  0  0  0  0  0  0  0  0  0  0
   -6.3534    0.1836   -0.1682 C   0  0  0  0  0  0  0  0  0  0  0  0
    0.2170    1.1680    1.5622 H   0  0  0  0  0  0  0  0  0  0  0  0
   -0.3804    2.8281   -0.2836 H   0  0  0  0  0  0  0  0  0  0  0  0
    0.1957    1.6565   -1.4763 H   0  0  0  0  0  0  0  0  0  0  0  0
    1.8275    3.0199    0.6982 H   0  0  0  0  0  0  0  0  0  0  0  0
    2.0299    3.1156   -1.0615 H   0  0  0  0  0  0  0  0  0  0  0  0
    4.4527    2.4510   -0.5151 H   0  0  0  0  0  0  0  0  0  0  0  0
   -1.3014   -0.1242   -1.6610 H   0  0  0  0  0  0  0  0  0  0  0  0
   -1.8739    0.8095    2.5112 H   0  0  0  0  0  0  0  0  0  0  0  0
    5.9896    0.5296   -0.4015 H   0  0  0  0  0  0  0  0  0  0  0  0
    1.4468   -2.5259    0.5174 H   0  0  0  0  0  0  0  0  0  0  0  0
    2.7801   -3.1434   -0.4390 H   0  0  0  0  0  0  0  0  0  0  0  0
    2.9633   -2.8872    1.3218 H   0  0  0  0  0  0  0  0  0  0  0  0
   -4.2212    0.0897    2.3468 H   0  0  0  0  0  0  0  0  0  0  0  0
    4.8294   -2.7934    0.1915 H   0  0  0  0  0  0  0  0  0  0  0  0
   -4.6735   -1.1999   -1.9372 H   0  0  0  0  0  0  0  0  0  0  0  0
   -6.1218    0.6272   -1.1417 H   0  0  0  0  0  0  0  0  0  0  0  0
   -6.3876    0.9623    0.6002 H   0  0  0  0  0  0  0  0  0  0  0  0
   -7.3356   -0.2935   -0.2263 H   0  0  0  0  0  0  0  0  0  0  0  0
  1  5  1  0  0  0  0
  1  9  1  0  0  0  0
  2 15  1  0  0  0  0
  2 35  1  0  0  0  0
  3 20  1  0  0  0  0
  3 21  1  0  0  0  0
  4 18  1  0  0  0  0
  4 36  1  0  0  0  0
  5  6  1  0  0  0  0
  5 10  1  0  0  0  0
  5 22  1  0  0  0  0
  6  7  1  0  0  0  0
  6 23  1  0  0  0  0
  6 24  1  0  0  0  0
  7  8  1  0  0  0  0
  7 25  1  0  0  0  0
  7 26  1  0  0  0  0
  8  9  2  0  0  0  0
  8 12  1  0  0  0  0
  9 11  1  0  0  0  0
 10 13  2  0  0  0  0
 10 14  1  0  0  0  0
 11 15  2  0  0  0  0
 11 17  1  0  0  0  0
 12 16  2  0  0  0  0
 12 27  1  0  0  0  0
 13 18  1  0  0  0  0
 13 28  1  0  0  0  0
 14 19  2  0  0  0  0
 14 29  1  0  0  0  0
 15 16  1  0  0  0  0
 16 30  1  0  0  0  0
 17 31  1  0  0  0  0
 17 32  1  0  0  0  0
 17 33  1  0  0  0  0
 18 20  2  0  0  0  0
 19 20  1  0  0  0  0
 19 34  1  0  0  0  0
 21 37  1  0  0  0  0
 21 38  1  0  0  0  0
 21 39  1  0  0  0  0
M  END
> <PUBCHEM_COMPOUND_CID>
442358

> <PUBCHEM_CONFORMER_RMSD>
0.6

> <PUBCHEM_CONFORMER_DIVERSEORDER>
1
7
3
12
14
8
5
9
10
2
13
4
6
11
15

> <PUBCHEM_MMFF94_PARTIAL_CHARGES>
27
1 -0.36
10 -0.14
11 -0.14
12 -0.15
13 -0.15
14 -0.15
15 0.08
16 -0.15
17 0.14
18 0.08
19 -0.15
2 -0.53
20 0.08
21 0.28
27 0.15
28 0.15
29 0.15
3 -0.36
30 0.15
34 0.15
35 0.45
36 0.45
4 -0.53
5 0.42
7 0.14
8 -0.14
9 0.08

> <PUBCHEM_EFFECTIVE_ROTOR_COUNT>
2.8

> <PUBCHEM_PHARMACOPHORE_FEATURES>
7
1 1 acceptor
1 2 donor
1 3 acceptor
1 4 donor
6 1 5 6 7 8 9 rings
6 10 13 14 18 19 20 rings
6 8 9 11 12 15 16 rings

> <PUBCHEM_HEAVY_ATOM_COUNT>
21

> <PUBCHEM_ATOM_DEF_STEREO_COUNT>
1

> <PUBCHEM_ATOM_UDEF_STEREO_COUNT>
0

> <PUBCHEM_BOND_DEF_STEREO_COUNT>
0

> <PUBCHEM_BOND_UDEF_STEREO_COUNT>
0

> <PUBCHEM_ISOTOPIC_ATOM_COUNT>
0

> <PUBCHEM_COMPONENT_COUNT>
1

> <PUBCHEM_CACTVS_TAUTO_COUNT>
8

> <PUBCHEM_CONFORMER_ID>
0006BFF600000001

> <PUBCHEM_MMFF94_ENERGY>
72.5644

> <PUBCHEM_FEATURE_SELFOVERLAP>
35.549

> <PUBCHEM_SHAPE_FINGERPRINT>
10447042 23 18342742931639546294
10498660 4 15267080158809725063
11471102 20 18343015567383742224
11796584 16 17676485008692238487
12107183 9 17613989012424279321
12236239 1 18113052727598248361
12553582 1 18411426141371193930
12596602 18 17531250504440730299
12670546 56 17967529069190538225
12788726 201 17604134987474195441
12916748 109 13973967618810552597
13167823 11 18187080654693781345
13533116 47 18260829284682854361
13544592 145 17703787007770365315
13544653 18 18343014519279918076
13862211 1 18341611577462231322
14386348 63 17561360673586015891
15183329 4 18341619265416566293
15375462 189 18187364337515868888
15788980 27 18411981364372319261
15961568 22 15410040748139174884
17357779 13 17988932171100354284
1813 80 18335687386735337004
18186145 218 17275387607517236113
18222031 100 18408601491920449218
19784866 240 18335415785824914967
200 152 18408323289197329513
20028762 73 18261111911397622422
20511986 3 18040446494322092761
20645477 70 18273496762815955642
21033648 29 17703523107631460093
21065198 48 18113890589539076384
21267235 1 18409722998112917998
21285901 2 17632300106952782879
21641784 216 17845353575354747844
221357 26 18202570583560463925
2215653 11 18060142033552375551
2255824 54 18336541600017437188
22646028 1 18113899359709053817
22646028 28 18186801374392630854
23175994 123 17846493717019416389
23366157 5 17099200606405898417
23402539 116 18340205292951257744
23557571 272 16630530652160339135
23559900 14 18270963445171144457
23596394 208 17775011201737579866
2871803 45 18130785689901705018
29717793 49 18113613512461014597
3004659 81 18059856194730779554
33824 294 18342738503586176138
34797466 226 16200141084896282398
351380 3 18259985985045099519
46194498 28 17418090962470059197
465052 167 18335132077164796623
5281201 14 17632296769853098516
5283173 99 17845381105657141213
573450 72 17385720296724396785
602551 16 15791738464289344478

> <PUBCHEM_SHAPE_MULTIPOLES>
408.69
12.38
1.98
1.11
7.47
0.03
0.07
-3.65
1.1
-2.82
0.09
1.45
-0.09
-0.65

> <PUBCHEM_SHAPE_SELFOVERLAP>
890.919

> <PUBCHEM_SHAPE_VOLUME>
223.2

> <PUBCHEM_COORDINATE_TYPE>
2
5
10

$$$$

