669
  -OEChem-07051213072D

 20 19  0     1  0  0  0  0  0999 V2000
    3.4030   -0.4050    0.0000 P   0  0  0  0  0  0  0  0  0  0  0  0
    4.2690    0.0950    0.0000 O   0  0  0  0  0  0  0  0  0  0  0  0
    6.0010    1.0950    0.0000 O   0  0  0  0  0  0  0  0  0  0  0  0
    6.8671   -1.4050    0.0000 O   0  0  0  0  0  0  0  0  0  0  0  0
    2.5369   -0.9050    0.0000 O   0  0  0  0  0  0  0  0  0  0  0  0
    2.9030    0.4610    0.0000 O   0  0  0  0  0  0  0  0  0  0  0  0
    3.9030   -1.2710    0.0000 O   0  0  0  0  0  0  0  0  0  0  0  0
    6.0010    0.0950    0.0000 C   0  0  3  0  0  0  0  0  0  0  0  0
    5.1350   -0.4050    0.0000 C   0  0  0  0  0  0  0  0  0  0  0  0
    6.8671   -0.4050    0.0000 C   0  0  0  0  0  0  0  0  0  0  0  0
    7.7331    0.0950    0.0000 C   0  0  0  0  0  0  0  0  0  0  0  0
    6.7372    0.5200    0.0000 H   0  0  0  0  0  0  0  0  0  0  0  0
    4.7365   -0.8799    0.0000 H   0  0  0  0  0  0  0  0  0  0  0  0
    5.5335   -0.8799    0.0000 H   0  0  0  0  0  0  0  0  0  0  0  0
    8.0431   -0.4419    0.0000 H   0  0  0  0  0  0  0  0  0  0  0  0
    8.2700    0.4050    0.0000 H   0  0  0  0  0  0  0  0  0  0  0  0
    7.4231    0.6319    0.0000 H   0  0  0  0  0  0  0  0  0  0  0  0
    6.5380    1.4050    0.0000 H   0  0  0  0  0  0  0  0  0  0  0  0
    2.0000   -0.5950    0.0000 H   0  0  0  0  0  0  0  0  0  0  0  0
    3.2130    0.9980    0.0000 H   0  0  0  0  0  0  0  0  0  0  0  0
  1  2  1  0  0  0  0
  1  5  1  0  0  0  0
  1  6  1  0  0  0  0
  1  7  2  0  0  0  0
  2  9  1  0  0  0  0
  3  8  1  0  0  0  0
  3 18  1  0  0  0  0
  4 10  2  0  0  0  0
  5 19  1  0  0  0  0
  6 20  1  0  0  0  0
  8  9  1  0  0  0  0
  8 10  1  0  0  0  0
  8 12  1  0  0  0  0
  9 13  1  0  0  0  0
  9 14  1  0  0  0  0
 10 11  1  0  0  0  0
 11 15  1  0  0  0  0
 11 16  1  0  0  0  0
 11 17  1  0  0  0  0
M  END
> <PUBCHEM_COMPOUND_CID>
669

> <PUBCHEM_COMPOUND_CANONICALIZED>
1

> <PUBCHEM_CACTVS_COMPLEXITY>
183

> <PUBCHEM_CACTVS_HBOND_ACCEPTOR>
6

> <PUBCHEM_CACTVS_HBOND_DONOR>
3

> <PUBCHEM_CACTVS_ROTATABLE_BOND>
4

> <PUBCHEM_CACTVS_SUBSKEYS>
AAADccBgOAIAAAAAAAAAAAAAAAAAAAAAAAAAAAAAAAAAAAAAAAAAGgAACCAACBSggAICAAAAAxAIQIAQAIIAAAAAAAAAAAFAAAABEAQAAAAAQAAEIAABAAAAAAAAAAAAAAAAAAAAAAAAAAAAAAAAAAAAAA==

> <PUBCHEM_IUPAC_OPENEYE_NAME>
(2-hydroxy-3-oxo-butyl) dihydrogen phosphate

> <PUBCHEM_IUPAC_CAS_NAME>
(2-hydroxy-3-oxobutyl) dihydrogen phosphate

> <PUBCHEM_IUPAC_NAME>
(2-hydroxy-3-oxobutyl) dihydrogen phosphate

> <PUBCHEM_IUPAC_SYSTEMATIC_NAME>
(2-oxidanyl-3-oxidanylidene-butyl) dihydrogen phosphate

> <PUBCHEM_IUPAC_TRADITIONAL_NAME>
(2-hydroxy-3-keto-butyl) dihydrogen phosphate

> <PUBCHEM_IUPAC_INCHI>
InChI=1S/C4H9O6P/c1-3(5)4(6)2-10-11(7,8)9/h4,6H,2H2,1H3,(H2,7,8,9)

> <PUBCHEM_IUPAC_INCHIKEY>
OKYHYXLCTGGOLM-UHFFFAOYSA-N

> <PUBCHEM_XLOGP3_AA>
-2.5

> <PUBCHEM_EXACT_MASS>
184.013675

> <PUBCHEM_MOLECULAR_FORMULA>
C4H9O6P

> <PUBCHEM_MOLECULAR_WEIGHT>
184.084422

> <PUBCHEM_OPENEYE_CAN_SMILES>
CC(=O)C(COP(=O)(O)O)O

> <PUBCHEM_OPENEYE_ISO_SMILES>
CC(=O)C(COP(=O)(O)O)O

> <PUBCHEM_CACTVS_TPSA>
104

> <PUBCHEM_MONOISOTOPIC_WEIGHT>
184.013675

> <PUBCHEM_TOTAL_CHARGE>
0

> <PUBCHEM_HEAVY_ATOM_COUNT>
11

> <PUBCHEM_ATOM_DEF_STEREO_COUNT>
0

> <PUBCHEM_ATOM_UDEF_STEREO_COUNT>
1

> <PUBCHEM_BOND_DEF_STEREO_COUNT>
0

> <PUBCHEM_BOND_UDEF_STEREO_COUNT>
0

> <PUBCHEM_ISOTOPIC_ATOM_COUNT>
0

> <PUBCHEM_COMPONENT_COUNT>
1

> <PUBCHEM_CACTVS_TAUTO_COUNT>
5

> <PUBCHEM_COORDINATE_TYPE>
1
5
255

> <PUBCHEM_BONDANNOTATIONS>
8  12  3

$$$$

