11721
  -OEChem-06261206023D

 15 14  0     0  0  0  0  0  0999 V2000
   -0.6741   -0.6723    0.2616 O   0  0  0  0  0  0  0  0  0  0  0  0
    0.4291    0.0059   -0.3314 C   0  0  0  0  0  0  0  0  0  0  0  0
    0.4366    1.4535    0.1355 C   0  0  0  0  0  0  0  0  0  0  0  0
    1.7169   -0.7151    0.0370 C   0  0  0  0  0  0  0  0  0  0  0  0
   -1.9085   -0.0720   -0.1027 C   0  0  0  0  0  0  0  0  0  0  0  0
    0.3266   -0.0286   -1.4234 H   0  0  0  0  0  0  0  0  0  0  0  0
    1.3676    1.9519   -0.1550 H   0  0  0  0  0  0  0  0  0  0  0  0
   -0.3814    2.0311   -0.3069 H   0  0  0  0  0  0  0  0  0  0  0  0
    0.3337    1.5203    1.2242 H   0  0  0  0  0  0  0  0  0  0  0  0
    2.5882   -0.2366   -0.4203 H   0  0  0  0  0  0  0  0  0  0  0  0
    1.6774   -1.7586   -0.2933 H   0  0  0  0  0  0  0  0  0  0  0  0
    1.8562   -0.7345    1.1235 H   0  0  0  0  0  0  0  0  0  0  0  0
   -2.0950    0.8321    0.4838 H   0  0  0  0  0  0  0  0  0  0  0  0
   -2.7063   -0.7816    0.1367 H   0  0  0  0  0  0  0  0  0  0  0  0
   -1.9579    0.1407   -1.1755 H   0  0  0  0  0  0  0  0  0  0  0  0
  1  2  1  0  0  0  0
  1  5  1  0  0  0  0
  2  3  1  0  0  0  0
  2  4  1  0  0  0  0
  2  6  1  0  0  0  0
  3  7  1  0  0  0  0
  3  8  1  0  0  0  0
  3  9  1  0  0  0  0
  4 10  1  0  0  0  0
  4 11  1  0  0  0  0
  4 12  1  0  0  0  0
  5 13  1  0  0  0  0
  5 14  1  0  0  0  0
  5 15  1  0  0  0  0
M  END
> <PUBCHEM_COMPOUND_CID>
11721

> <PUBCHEM_CONFORMER_RMSD>
0.4

> <PUBCHEM_CONFORMER_DIVERSEORDER>
1
2
3

> <PUBCHEM_MMFF94_PARTIAL_CHARGES>
3
1 -0.56
2 0.28
5 0.28

> <PUBCHEM_EFFECTIVE_ROTOR_COUNT>
1

> <PUBCHEM_PHARMACOPHORE_FEATURES>
2
1 1 acceptor
3 2 3 4 hydrophobe

> <PUBCHEM_HEAVY_ATOM_COUNT>
5

> <PUBCHEM_ATOM_DEF_STEREO_COUNT>
0

> <PUBCHEM_ATOM_UDEF_STEREO_COUNT>
0

> <PUBCHEM_BOND_DEF_STEREO_COUNT>
0

> <PUBCHEM_BOND_UDEF_STEREO_COUNT>
0

> <PUBCHEM_ISOTOPIC_ATOM_COUNT>
0

> <PUBCHEM_COMPONENT_COUNT>
1

> <PUBCHEM_CACTVS_TAUTO_COUNT>
1

> <PUBCHEM_CONFORMER_ID>
00002DC900000001

> <PUBCHEM_MMFF94_ENERGY>
9.5062

> <PUBCHEM_FEATURE_SELFOVERLAP>
10.148

> <PUBCHEM_SHAPE_FINGERPRINT>
139733 1 9223221945054334822
16714656 1 18263917916119794326
20096714 4 18119806906941693701
21015797 1 8716243734788167198
29004967 10 18411134749056384618
5460574 1 9007055764210443391
5943 1 12604078483803822532

> <PUBCHEM_SHAPE_MULTIPOLES>
97.03
2.14
1.22
0.64
0.51
0.52
0.02
-0.57
0.01
-0.27
-0.08
-0.01
0.01
0.02

> <PUBCHEM_SHAPE_SELFOVERLAP>
163.644

> <PUBCHEM_SHAPE_VOLUME>
67.4

> <PUBCHEM_COORDINATE_TYPE>
2
5
10

$$$$

