12498
  -OEChem-06261207002D

 35 34  0     0  0  0  0  0  0999 V2000
    4.4030    0.0000    0.0000 Cl  0  0  0  0  0  0  0  0  0  0  0  0
    0.0000    3.5600    0.0000 Cl  0  0  0  0  0  0  0  0  0  0  0  0
    7.0010    5.5000    0.0000 N   0  0  0  0  0  0  0  0  0  0  0  0
    4.4030    4.0000    0.0000 N   0  0  0  0  0  0  0  0  0  0  0  0
    5.2690    5.5000    0.0000 N   0  0  0  0  0  0  0  0  0  0  0  0
    6.1350    7.0000    0.0000 N   0  0  0  0  0  0  0  0  0  0  0  0
    6.1350    4.0000    0.0000 N   0  0  0  0  0  0  0  0  0  0  0  0
    7.8671    6.0000    0.0000 C   0  0  0  0  0  0  0  0  0  0  0  0
    8.7331    5.5000    0.0000 C   0  0  0  0  0  0  0  0  0  0  0  0
    7.8671    7.0000    0.0000 C   0  0  0  0  0  0  0  0  0  0  0  0
    4.4030    3.0000    0.0000 C   0  0  0  0  0  0  0  0  0  0  0  0
    6.1350    6.0000    0.0000 C   0  0  0  0  0  0  0  0  0  0  0  0
    3.5369    2.5000    0.0000 C   0  0  0  0  0  0  0  0  0  0  0  0
    5.2690    2.5000    0.0000 C   0  0  0  0  0  0  0  0  0  0  0  0
    5.2690    4.5000    0.0000 C   0  0  0  0  0  0  0  0  0  0  0  0
    3.5369    1.5000    0.0000 C   0  0  0  0  0  0  0  0  0  0  0  0
    5.2690    1.5000    0.0000 C   0  0  0  0  0  0  0  0  0  0  0  0
    4.4030    1.0000    0.0000 C   0  0  0  0  0  0  0  0  0  0  0  0
    7.3301    6.3100    0.0000 H   0  0  0  0  0  0  0  0  0  0  0  0
    8.4231    4.9631    0.0000 H   0  0  0  0  0  0  0  0  0  0  0  0
    9.2700    5.1900    0.0000 H   0  0  0  0  0  0  0  0  0  0  0  0
    9.0431    6.0369    0.0000 H   0  0  0  0  0  0  0  0  0  0  0  0
    8.4871    7.0000    0.0000 H   0  0  0  0  0  0  0  0  0  0  0  0
    7.8671    7.6200    0.0000 H   0  0  0  0  0  0  0  0  0  0  0  0
    7.2471    7.0000    0.0000 H   0  0  0  0  0  0  0  0  0  0  0  0
    3.8660    4.3100    0.0000 H   0  0  0  0  0  0  0  0  0  0  0  0
    3.0000    2.8100    0.0000 H   0  0  0  0  0  0  0  0  0  0  0  0
    5.8059    2.8100    0.0000 H   0  0  0  0  0  0  0  0  0  0  0  0
    3.0000    1.1900    0.0000 H   0  0  0  0  0  0  0  0  0  0  0  0
    5.8059    1.1900    0.0000 H   0  0  0  0  0  0  0  0  0  0  0  0
    6.6720    7.3100    0.0000 H   0  0  0  0  0  0  0  0  0  0  0  0
    5.5981    7.3100    0.0000 H   0  0  0  0  0  0  0  0  0  0  0  0
    6.6720    4.3100    0.0000 H   0  0  0  0  0  0  0  0  0  0  0  0
    6.1350    3.3800    0.0000 H   0  0  0  0  0  0  0  0  0  0  0  0
    1.0000    3.5600    0.0000 H   0  0  0  0  0  0  0  0  0  0  0  0
  1 18  1  0  0  0  0
  2 35  1  0  0  0  0
  3  8  1  0  0  0  0
  3 12  2  0  0  0  0
  4 11  1  0  0  0  0
  4 15  1  0  0  0  0
  4 26  1  0  0  0  0
  5 12  1  0  0  0  0
  5 15  2  3  0  0  0
  6 12  1  0  0  0  0
  6 31  1  0  0  0  0
  6 32  1  0  0  0  0
  7 15  1  0  0  0  0
  7 33  1  0  0  0  0
  7 34  1  0  0  0  0
  8  9  1  0  0  0  0
  8 10  1  0  0  0  0
  8 19  1  0  0  0  0
  9 20  1  0  0  0  0
  9 21  1  0  0  0  0
  9 22  1  0  0  0  0
 10 23  1  0  0  0  0
 10 24  1  0  0  0  0
 10 25  1  0  0  0  0
 11 13  2  0  0  0  0
 11 14  1  0  0  0  0
 13 16  1  0  0  0  0
 13 27  1  0  0  0  0
 14 17  2  0  0  0  0
 14 28  1  0  0  0  0
 16 18  2  0  0  0  0
 16 29  1  0  0  0  0
 17 18  1  0  0  0  0
 17 30  1  0  0  0  0
M  END
> <PUBCHEM_COMPOUND_CID>
12498

> <PUBCHEM_COMPOUND_CANONICALIZED>
1

> <PUBCHEM_CACTVS_COMPLEXITY>
292

> <PUBCHEM_CACTVS_HBOND_ACCEPTOR>
1

> <PUBCHEM_CACTVS_HBOND_DONOR>
4

> <PUBCHEM_CACTVS_ROTATABLE_BOND>
4

> <PUBCHEM_CACTVS_SUBSKEYS>
AAADceBzgAAGAAAAAAAAAAAAAAAAAAAAAAAwAAAAAAAAAAABAAAAHAIQAAAACCrBECQzwILAAACgACRCZACCAAEhBwAJiAAAZoiIICLBm5GEIAhgkAJIyCcQAAAAAABAAAAAAAAAAIAAAAAAAAAAAAAAAA==

> <PUBCHEM_IUPAC_OPENEYE_NAME>
1-[amino-(4-chloroanilino)methylene]-2-isopropyl-guanidine hydrochloride

> <PUBCHEM_IUPAC_CAS_NAME>
1-[amino-(4-chloroanilino)methylidene]-2-propan-2-ylguanidine hydrochloride

> <PUBCHEM_IUPAC_NAME>
1-[amino-(4-chloroanilino)methylidene]-2-propan-2-ylguanidine hydrochloride

> <PUBCHEM_IUPAC_SYSTEMATIC_NAME>
1-[azanyl-[(4-chlorophenyl)amino]methylidene]-2-propan-2-yl-guanidine hydrochloride

> <PUBCHEM_IUPAC_TRADITIONAL_NAME>
1-[amino-(4-chloroanilino)methylene]-2-isopropyl-guanidine hydrochloride

> <PUBCHEM_IUPAC_INCHI>
InChI=1S/C11H16ClN5.ClH/c1-7(2)15-10(13)17-11(14)16-9-5-3-8(12)4-6-9;/h3-7H,1-2H3,(H5,13,14,15,16,17);1H

> <PUBCHEM_IUPAC_INCHIKEY>
SARMGXPVOFNNNG-UHFFFAOYSA-N

> <PUBCHEM_EXACT_MASS>
289.086101

> <PUBCHEM_MOLECULAR_FORMULA>
C11H17Cl2N5

> <PUBCHEM_MOLECULAR_WEIGHT>
290.19218

> <PUBCHEM_OPENEYE_CAN_SMILES>
CC(C)N=C(N)N=C(N)NC1=CC=C(C=C1)Cl.Cl

> <PUBCHEM_OPENEYE_ISO_SMILES>
CC(C)N=C(N)N=C(N)NC1=CC=C(C=C1)Cl.Cl

> <PUBCHEM_CACTVS_TPSA>
88.8

> <PUBCHEM_MONOISOTOPIC_WEIGHT>
289.086101

> <PUBCHEM_TOTAL_CHARGE>
0

> <PUBCHEM_HEAVY_ATOM_COUNT>
18

> <PUBCHEM_ATOM_DEF_STEREO_COUNT>
0

> <PUBCHEM_ATOM_UDEF_STEREO_COUNT>
0

> <PUBCHEM_BOND_DEF_STEREO_COUNT>
0

> <PUBCHEM_BOND_UDEF_STEREO_COUNT>
1

> <PUBCHEM_ISOTOPIC_ATOM_COUNT>
0

> <PUBCHEM_COMPONENT_COUNT>
2

> <PUBCHEM_CACTVS_TAUTO_COUNT>
8

> <PUBCHEM_COORDINATE_TYPE>
1
5
255

> <PUBCHEM_BONDANNOTATIONS>
11  13  8
11  14  8
13  16  8
14  17  8
16  18  8
17  18  8
5  15  1

$$$$

