165130
  -OEChem-07051212452D

 59 60  0     1  0  0  0  0  0999 V2000
    6.8909   -1.9169    0.0000 P   0  0  3  0  0  0  0  0  0  0  0  0
    8.4732   -2.6214    0.0000 P   0  0  3  0  0  0  0  0  0  0  0  0
    5.0298    0.5477    0.0000 O   0  0  0  0  0  0  0  0  0  0  0  0
    3.1330   -1.2124    0.0000 O   0  0  0  0  0  0  0  0  0  0  0  0
    2.4608    0.8567    0.0000 O   0  0  0  0  0  0  0  0  0  0  0  0
    6.3031   -1.1079    0.0000 O   0  0  0  0  0  0  0  0  0  0  0  0
    7.4787   -2.7259    0.0000 O   0  0  0  0  0  0  0  0  0  0  0  0
    2.4888    2.1355    0.0000 O   0  0  0  0  0  0  0  0  0  0  0  0
    9.4677   -2.5168    0.0000 O   0  0  0  0  0  0  0  0  0  0  0  0
    7.6999   -1.3291    0.0000 O   0  0  0  0  0  0  0  0  0  0  0  0
   11.2311   -4.9439    0.0000 O   0  0  0  0  0  0  0  0  0  0  0  0
   11.4568   -2.3078    0.0000 O   0  0  0  0  0  0  0  0  0  0  0  0
    6.0819   -2.5047    0.0000 O   0  0  0  0  0  0  0  0  0  0  0  0
   13.0391   -3.0123    0.0000 O   0  0  0  0  0  0  0  0  0  0  0  0
   14.2147   -4.6303    0.0000 O   0  0  0  0  0  0  0  0  0  0  0  0
    8.5778   -3.6159    0.0000 O   0  0  0  0  0  0  0  0  0  0  0  0
    8.3687   -1.6268    0.0000 O   0  0  0  0  0  0  0  0  0  0  0  0
    4.2208    2.1355    0.0000 N   0  0  0  0  0  0  0  0  0  0  0  0
    3.3548    3.6355    0.0000 N   0  0  0  0  0  0  0  0  0  0  0  0
    4.2208    5.1355    0.0000 N   0  0  0  0  0  0  0  0  0  0  0  0
    3.7208   -0.4034    0.0000 C   0  0  1  0  0  0  0  0  0  0  0  0
    3.4118    0.5477    0.0000 C   0  0  2  0  0  0  0  0  0  0  0  0
    4.7208   -0.4034    0.0000 C   0  0  1  0  0  0  0  0  0  0  0  0
    4.2208    1.1355    0.0000 C   0  0  1  0  0  0  0  0  0  0  0  0
    5.3086   -1.2124    0.0000 C   0  0  0  0  0  0  0  0  0  0  0  0
    5.0868    2.6355    0.0000 C   0  0  0  0  0  0  0  0  0  0  0  0
    3.3548    2.6355    0.0000 C   0  0  0  0  0  0  0  0  0  0  0  0
    5.0868    3.6355    0.0000 C   0  0  0  0  0  0  0  0  0  0  0  0
   11.6378   -4.0303    0.0000 C   0  0  2  0  0  0  0  0  0  0  0  0
   11.0501   -3.2213    0.0000 C   0  0  1  0  0  0  0  0  0  0  0  0
   12.6324   -3.9258    0.0000 C   0  0  2  0  0  0  0  0  0  0  0  0
    4.2208    4.1355    0.0000 C   0  0  0  0  0  0  0  0  0  0  0  0
   10.0555   -3.3258    0.0000 C   0  0  0  0  0  0  0  0  0  0  0  0
   13.2201   -4.7348    0.0000 C   0  0  0  0  0  0  0  0  0  0  0  0
    3.1085   -0.3064    0.0000 H   0  0  0  0  0  0  0  0  0  0  0  0
    2.9734    0.1093    0.0000 H   0  0  0  0  0  0  0  0  0  0  0  0
    5.3332   -0.3064    0.0000 H   0  0  0  0  0  0  0  0  0  0  0  0
    3.6684    1.4170    0.0000 H   0  0  0  0  0  0  0  0  0  0  0  0
    4.7514   -1.4842    0.0000 H   0  0  0  0  0  0  0  0  0  0  0  0
    5.4795   -1.8084    0.0000 H   0  0  0  0  0  0  0  0  0  0  0  0
    3.3852   -1.7788    0.0000 H   0  0  0  0  0  0  0  0  0  0  0  0
    2.0000    0.4418    0.0000 H   0  0  0  0  0  0  0  0  0  0  0  0
    5.6238    2.3255    0.0000 H   0  0  0  0  0  0  0  0  0  0  0  0
    5.6238    3.9455    0.0000 H   0  0  0  0  0  0  0  0  0  0  0  0
   12.0023   -4.5319    0.0000 H   0  0  0  0  0  0  0  0  0  0  0  0
   10.6856   -2.7197    0.0000 H   0  0  0  0  0  0  0  0  0  0  0  0
   13.2490   -3.8610    0.0000 H   0  0  0  0  0  0  0  0  0  0  0  0
    9.4983   -3.5976    0.0000 H   0  0  0  0  0  0  0  0  0  0  0  0
   10.2264   -3.9218    0.0000 H   0  0  0  0  0  0  0  0  0  0  0  0
   12.6629   -5.0066    0.0000 H   0  0  0  0  0  0  0  0  0  0  0  0
   13.3910   -5.3308    0.0000 H   0  0  0  0  0  0  0  0  0  0  0  0
    7.6351   -0.7125    0.0000 H   0  0  0  0  0  0  0  0  0  0  0  0
   11.5955   -5.4455    0.0000 H   0  0  0  0  0  0  0  0  0  0  0  0
   12.0734   -2.2430    0.0000 H   0  0  0  0  0  0  0  0  0  0  0  0
    4.7578    5.4455    0.0000 H   0  0  0  0  0  0  0  0  0  0  0  0
    3.6839    5.4455    0.0000 H   0  0  0  0  0  0  0  0  0  0  0  0
   13.6557   -2.9475    0.0000 H   0  0  0  0  0  0  0  0  0  0  0  0
   14.5791   -5.1319    0.0000 H   0  0  0  0  0  0  0  0  0  0  0  0
    8.0762   -3.9803    0.0000 H   0  0  0  0  0  0  0  0  0  0  0  0
  1  6  1  0  0  0  0
  1  7  1  0  0  0  0
  1 10  1  0  0  0  0
  1 13  2  0  0  0  0
  2  7  1  0  0  0  0
  2  9  1  0  0  0  0
  2 16  1  0  0  0  0
  2 17  2  0  0  0  0
  3 23  1  0  0  0  0
  3 24  1  0  0  0  0
 21  4  1  1  0  0  0
  4 41  1  0  0  0  0
 22  5  1  1  0  0  0
  5 42  1  0  0  0  0
  6 25  1  0  0  0  0
  8 27  2  0  0  0  0
  9 33  1  0  0  0  0
 10 52  1  0  0  0  0
 29 11  1  6  0  0  0
 11 53  1  0  0  0  0
 30 12  1  1  0  0  0
 12 54  1  0  0  0  0
 31 14  1  1  0  0  0
 14 57  1  0  0  0  0
 15 34  1  0  0  0  0
 15 58  1  0  0  0  0
 16 59  1  0  0  0  0
 24 18  1  6  0  0  0
 18 26  1  0  0  0  0
 18 27  1  0  0  0  0
 19 27  1  0  0  0  0
 19 32  2  0  0  0  0
 20 32  1  0  0  0  0
 20 55  1  0  0  0  0
 20 56  1  0  0  0  0
 21 22  1  0  0  0  0
 21 23  1  0  0  0  0
 21 35  1  0  0  0  0
 22 24  1  0  0  0  0
 22 36  1  0  0  0  0
 23 25  1  6  0  0  0
 23 37  1  0  0  0  0
 24 38  1  0  0  0  0
 25 39  1  0  0  0  0
 25 40  1  0  0  0  0
 26 28  2  0  0  0  0
 26 43  1  0  0  0  0
 28 32  1  0  0  0  0
 28 44  1  0  0  0  0
 29 30  1  0  0  0  0
 29 31  1  0  0  0  0
 29 45  1  0  0  0  0
 30 33  1  0  0  0  0
 30 46  1  0  0  0  0
 31 34  1  0  0  0  0
 31 47  1  0  0  0  0
 33 48  1  0  0  0  0
 33 49  1  0  0  0  0
 34 50  1  0  0  0  0
 34 51  1  0  0  0  0
M  END
> <PUBCHEM_COMPOUND_CID>
165130

> <PUBCHEM_COMPOUND_CANONICALIZED>
1

> <PUBCHEM_CACTVS_COMPLEXITY>
886

> <PUBCHEM_CACTVS_HBOND_ACCEPTOR>
15

> <PUBCHEM_CACTVS_HBOND_DONOR>
9

> <PUBCHEM_CACTVS_ROTATABLE_BOND>
12

> <PUBCHEM_CACTVS_SUBSKEYS>
AAADceBzPAMAAAAAAAAAAAAAAAAAASAAAAAgAAAAAAAAAAAAAAAAHgAQCCAACBThgAYBAANABxCoQCJmdICAAAEAAgAIAAAYABCDEAIAgAAOQAAHFgITAADwMAIAAAAAAAAAAAAAAAAAAAAAAAAAAAAAAA==

> <PUBCHEM_IUPAC_OPENEYE_NAME>
[[(2R,3S,4R,5R)-5-(4-amino-2-oxo-pyrimidin-1-yl)-3,4-dihydroxy-tetrahydrofuran-2-yl]methoxy-hydroxy-phosphoryl] [(2R,3S,4S)-2,3,4,5-tetrahydroxypentyl] hydrogen phosphate

> <PUBCHEM_IUPAC_CAS_NAME>
[[(2R,3S,4R,5R)-5-(4-amino-2-oxo-1-pyrimidinyl)-3,4-dihydroxy-2-oxolanyl]methoxy-hydroxyphosphoryl] [(2R,3S,4S)-2,3,4,5-tetrahydroxypentyl] hydrogen phosphate

> <PUBCHEM_IUPAC_NAME>
[[(2R,3S,4R,5R)-5-(4-amino-2-oxopyrimidin-1-yl)-3,4-dihydroxyoxolan-2-yl]methoxy-hydroxyphosphoryl] [(2R,3S,4S)-2,3,4,5-tetrahydroxypentyl] hydrogen phosphate

> <PUBCHEM_IUPAC_SYSTEMATIC_NAME>
[[(2R,3S,4R,5R)-5-(4-azanyl-2-oxidanylidene-pyrimidin-1-yl)-3,4-bis(oxidanyl)oxolan-2-yl]methoxy-oxidanyl-phosphoryl] [(2R,3S,4S)-2,3,4,5-tetrakis(oxidanyl)pentyl] hydrogen phosphate

> <PUBCHEM_IUPAC_TRADITIONAL_NAME>
[[(2R,3S,4R,5R)-5-(4-amino-2-keto-pyrimidin-1-yl)-3,4-dihydroxy-tetrahydrofuran-2-yl]methoxy-hydroxy-phosphoryl] [(2R,3S,4S)-2,3,4,5-tetrahydroxypentyl] hydrogen phosphate

> <PUBCHEM_IUPAC_INCHI>
InChI=1S/C14H25N3O15P2/c15-9-1-2-17(14(24)16-9)13-12(23)11(22)8(31-13)5-30-34(27,28)32-33(25,26)29-4-7(20)10(21)6(19)3-18/h1-2,6-8,10-13,18-23H,3-5H2,(H,25,26)(H,27,28)(H2,15,16,24)/t6-,7+,8+,10-,11+,12+,13+/m0/s1

> <PUBCHEM_IUPAC_INCHIKEY>
DPJKHFICSGCNIR-HRENORGGSA-N

> <PUBCHEM_XLOGP3>
-6.5

> <PUBCHEM_EXACT_MASS>
537.07609

> <PUBCHEM_MOLECULAR_FORMULA>
C14H25N3O15P2

> <PUBCHEM_MOLECULAR_WEIGHT>
537.306924

> <PUBCHEM_OPENEYE_CAN_SMILES>
C1=CN(C(=O)N=C1N)C2C(C(C(O2)COP(=O)(O)OP(=O)(O)OCC(C(C(CO)O)O)O)O)O

> <PUBCHEM_OPENEYE_ISO_SMILES>
C1=CN(C(=O)N=C1N)[C@H]2[C@@H]([C@@H]([C@H](O2)COP(=O)(O)OP(=O)(O)OC[C@H]([C@H]([C@H](CO)O)O)O)O)O

> <PUBCHEM_CACTVS_TPSA>
292

> <PUBCHEM_MONOISOTOPIC_WEIGHT>
537.07609

> <PUBCHEM_TOTAL_CHARGE>
0

> <PUBCHEM_HEAVY_ATOM_COUNT>
34

> <PUBCHEM_ATOM_DEF_STEREO_COUNT>
7

> <PUBCHEM_ATOM_UDEF_STEREO_COUNT>
0

> <PUBCHEM_BOND_DEF_STEREO_COUNT>
0

> <PUBCHEM_BOND_UDEF_STEREO_COUNT>
0

> <PUBCHEM_ISOTOPIC_ATOM_COUNT>
0

> <PUBCHEM_COMPONENT_COUNT>
1

> <PUBCHEM_CACTVS_TAUTO_COUNT>
3

> <PUBCHEM_COORDINATE_TYPE>
1
5
255

> <PUBCHEM_BONDANNOTATIONS>
29  11  6
30  12  5
31  14  5
24  18  6
18  26  8
18  27  8
19  27  8
19  32  8
23  25  6
26  28  8
28  32  8
21  4  5
22  5  5

$$$$

