53297443
  -OEChem-07051213152D

 37 41  0     1  0  0  0  0  0999 V2000
    3.5229   -1.5894    0.0000 O   0  0  0  0  0  0  0  0  0  0  0  0
    5.3191    1.2569    0.0000 O   0  0  0  0  0  0  0  0  0  0  0  0
    2.0000   -0.4776    0.0000 O   0  0  0  0  0  0  0  0  0  0  0  0
    8.4252    2.5217    0.0000 O   0  0  0  0  0  0  0  0  0  0  0  0
    7.0672   -1.7846    0.0000 O   0  0  0  0  0  0  0  0  0  0  0  0
    6.2133    2.7846    0.0000 O   0  0  0  0  0  0  0  0  0  0  0  0
    3.5229    0.0201    0.0000 C   0  0  1  0  0  0  0  0  0  0  0  0
    4.4691   -0.2846    0.0000 C   0  0  0  0  0  0  0  0  0  0  0  0
    7.1112    0.2222    0.0000 C   0  0  0  0  0  0  0  0  0  0  0  0
    6.2012   -0.2846    0.0000 C   0  0  0  0  0  0  0  0  0  0  0  0
    8.0943   -0.1028    0.0000 C   0  0  0  0  0  0  0  0  0  0  0  0
    2.9393   -0.7846    0.0000 C   0  0  1  0  0  0  0  0  0  0  0  0
    8.1072    1.5736    0.0000 C   0  0  3  0  0  0  0  0  0  0  0  0
    7.1192    1.2638    0.0000 C   0  0  0  0  0  0  0  0  0  0  0  0
    8.7087    0.7307    0.0000 C   0  0  0  0  0  0  0  0  0  0  0  0
    5.3351    0.2154    0.0000 C   0  0  0  0  0  0  0  0  0  0  0  0
    4.4691   -1.2846    0.0000 C   0  0  0  0  0  0  0  0  0  0  0  0
    6.2012   -1.2846    0.0000 C   0  0  0  0  0  0  0  0  0  0  0  0
    2.9393    0.8176    0.0000 C   0  0  0  0  0  0  0  0  0  0  0  0
    5.3351   -1.7846    0.0000 C   0  0  0  0  0  0  0  0  0  0  0  0
    6.2171    1.7846    0.0000 C   0  0  0  0  0  0  0  0  0  0  0  0
    2.0000    0.5106    0.0000 C   0  0  0  0  0  0  0  0  0  0  0  0
    7.0672   -2.7846    0.0000 C   0  0  0  0  0  0  0  0  0  0  0  0
    4.0204    0.7093    0.0000 H   0  0  0  0  0  0  0  0  0  0  0  0
    7.8389   -0.6677    0.0000 H   0  0  0  0  0  0  0  0  0  0  0  0
    8.6293   -0.4161    0.0000 H   0  0  0  0  0  0  0  0  0  0  0  0
    2.4388   -1.4716    0.0000 H   0  0  0  0  0  0  0  0  0  0  0  0
    8.7204    1.6651    0.0000 H   0  0  0  0  0  0  0  0  0  0  0  0
    9.1663    0.3125    0.0000 H   0  0  0  0  0  0  0  0  0  0  0  0
    9.1727    1.1419    0.0000 H   0  0  0  0  0  0  0  0  0  0  0  0
    3.1294    1.4077    0.0000 H   0  0  0  0  0  0  0  0  0  0  0  0
    5.3351   -2.4046    0.0000 H   0  0  0  0  0  0  0  0  0  0  0  0
    1.4981    0.8746    0.0000 H   0  0  0  0  0  0  0  0  0  0  0  0
    9.0329    2.6449    0.0000 H   0  0  0  0  0  0  0  0  0  0  0  0
    6.4472   -2.7846    0.0000 H   0  0  0  0  0  0  0  0  0  0  0  0
    7.0672   -3.4046    0.0000 H   0  0  0  0  0  0  0  0  0  0  0  0
    7.6872   -2.7846    0.0000 H   0  0  0  0  0  0  0  0  0  0  0  0
  1 12  1  0  0  0  0
  1 17  1  0  0  0  0
  2 16  1  0  0  0  0
  2 21  1  0  0  0  0
  3 12  1  0  0  0  0
  3 22  1  0  0  0  0
  4 13  1  0  0  0  0
  4 34  1  0  0  0  0
  5 18  1  0  0  0  0
  5 23  1  0  0  0  0
  6 21  2  0  0  0  0
  7  8  1  0  0  0  0
  7 12  1  0  0  0  0
  7 19  1  0  0  0  0
  7 24  1  6  0  0  0
  8 16  2  0  0  0  0
  8 17  1  0  0  0  0
  9 10  1  0  0  0  0
  9 11  1  0  0  0  0
  9 14  2  0  0  0  0
 10 16  1  0  0  0  0
 10 18  2  0  0  0  0
 11 15  1  0  0  0  0
 11 25  1  0  0  0  0
 11 26  1  0  0  0  0
 12 27  1  6  0  0  0
 13 14  1  0  0  0  0
 13 15  1  0  0  0  0
 13 28  1  0  0  0  0
 14 21  1  0  0  0  0
 15 29  1  0  0  0  0
 15 30  1  0  0  0  0
 17 20  2  0  0  0  0
 18 20  1  0  0  0  0
 19 22  2  0  0  0  0
 19 31  1  0  0  0  0
 20 32  1  0  0  0  0
 22 33  1  0  0  0  0
 23 35  1  0  0  0  0
 23 36  1  0  0  0  0
 23 37  1  0  0  0  0
M  END
> <PUBCHEM_COMPOUND_CID>
53297443

> <PUBCHEM_COMPOUND_CANONICALIZED>
1

> <PUBCHEM_CACTVS_COMPLEXITY>
610

> <PUBCHEM_CACTVS_HBOND_ACCEPTOR>
6

> <PUBCHEM_CACTVS_HBOND_DONOR>
1

> <PUBCHEM_CACTVS_ROTATABLE_BOND>
1

> <PUBCHEM_CACTVS_SUBSKEYS>
AAADccB4OAAAAAAAAAAAAAAAAAAAASIEAAAwQAAAAAAQAEiBAAAAGgAACAAADRSwmAMyDoAABgCIAiDSCAACCAAgIAAIiAEGCMgcNzaEMRqieiCl4BUMuQfI6PyOoAACCAAIAABAAAQQABAAAAAAAAAAAA==

> <PUBCHEM_IUPAC_INCHI>
InChI=1S/C17H14O6/c1-20-10-6-11-14(8-4-5-21-17(8)22-11)15-13(10)7-2-3-9(18)12(7)16(19)23-15/h4-6,8-9,17-18H,2-3H2,1H3/t8-,9?,17+/m0/s1

> <PUBCHEM_IUPAC_INCHIKEY>
WYIWLDSPNDMZIT-HCHDMBJTSA-N

> <PUBCHEM_XLOGP3_AA>
1.2

> <PUBCHEM_EXACT_MASS>
314.079038

> <PUBCHEM_MOLECULAR_FORMULA>
C17H14O6

> <PUBCHEM_MOLECULAR_WEIGHT>
314.28946

> <PUBCHEM_OPENEYE_CAN_SMILES>
COC1=C2C3=C(C(CC3)O)C(=O)OC2=C4C5C=COC5OC4=C1

> <PUBCHEM_OPENEYE_ISO_SMILES>
COC1=C2C3=C(C(CC3)O)C(=O)OC2=C4[C@@H]5C=CO[C@@H]5OC4=C1

> <PUBCHEM_CACTVS_TPSA>
74.2

> <PUBCHEM_MONOISOTOPIC_WEIGHT>
314.079038

> <PUBCHEM_TOTAL_CHARGE>
0

> <PUBCHEM_HEAVY_ATOM_COUNT>
23

> <PUBCHEM_ATOM_DEF_STEREO_COUNT>
2

> <PUBCHEM_ATOM_UDEF_STEREO_COUNT>
1

> <PUBCHEM_BOND_DEF_STEREO_COUNT>
0

> <PUBCHEM_BOND_UDEF_STEREO_COUNT>
0

> <PUBCHEM_ISOTOPIC_ATOM_COUNT>
0

> <PUBCHEM_COMPONENT_COUNT>
1

> <PUBCHEM_CACTVS_TAUTO_COUNT>
1

> <PUBCHEM_COORDINATE_TYPE>
1
5
255

> <PUBCHEM_BONDANNOTATIONS>
10  16  8
10  18  8
12  27  6
14  21  8
17  20  8
18  20  8
2  16  8
2  21  8
13  4  3
7  24  6
8  16  8
8  17  8
9  10  8
9  14  8

$$$$

