56928072
  -OEChem-07051212552D

 37 39  0     1  0  0  0  0  0999 V2000
    7.2297    0.7367    0.0000 O   0  0  0  0  0  0  0  0  0  0  0  0
    5.9735    2.9989    0.0000 O   0  0  0  0  0  0  0  0  0  0  0  0
    8.2314    1.7349    0.0000 O   0  0  0  0  0  0  0  0  0  0  0  0
    4.6917    1.2410    0.0000 O   0  0  0  0  0  0  0  0  0  0  0  0
    4.9889   -0.7275    0.0000 O   0  0  0  0  0  0  0  0  0  0  0  0
    8.5206    2.8934    0.0000 O   0  0  0  0  0  0  0  0  0  0  0  0
    6.6353   -1.2655    0.0000 O   0  0  0  0  0  0  0  0  0  0  0  0
    5.2619   -2.4827    0.0000 N   0  0  0  0  0  0  0  0  0  0  0  0
    6.2809    2.0473    0.0000 C   0  0  2  0  0  0  0  0  0  0  0  0
    7.2314    1.7366    0.0000 C   0  0  1  0  0  0  0  0  0  0  0  0
    5.6917    1.2393    0.0000 C   0  0  1  0  0  0  0  0  0  0  0  0
    6.2781    0.4293    0.0000 C   0  0  3  0  0  0  0  0  0  0  0  0
    7.5421    2.6872    0.0000 C   0  0  0  0  0  0  0  0  0  0  0  0
    5.9674   -0.5212    0.0000 C   0  0  0  0  0  0  0  0  0  0  0  0
    4.6783   -1.6780    0.0000 C   0  0  0  0  0  0  0  0  0  0  0  0
    3.7320   -1.9827    0.0000 C   0  0  0  0  0  0  0  0  0  0  0  0
    3.7320   -2.9827    0.0000 C   0  0  0  0  0  0  0  0  0  0  0  0
    4.6783   -3.2874    0.0000 C   0  0  0  0  0  0  0  0  0  0  0  0
    2.8660   -1.4827    0.0000 C   0  0  0  0  0  0  0  0  0  0  0  0
    2.8660   -3.4827    0.0000 C   0  0  0  0  0  0  0  0  0  0  0  0
    2.0000   -1.9827    0.0000 C   0  0  0  0  0  0  0  0  0  0  0  0
    2.0000   -2.9827    0.0000 C   0  0  0  0  0  0  0  0  0  0  0  0
    5.6687    2.1454    0.0000 H   0  0  0  0  0  0  0  0  0  0  0  0
    5.4112    1.7922    0.0000 H   0  0  0  0  0  0  0  0  0  0  0  0
    6.7158   -0.0099    0.0000 H   0  0  0  0  0  0  0  0  0  0  0  0
    7.5215    3.3068    0.0000 H   0  0  0  0  0  0  0  0  0  0  0  0
    6.9283    2.7745    0.0000 H   0  0  0  0  0  0  0  0  0  0  0  0
    5.3673    3.1289    0.0000 H   0  0  0  0  0  0  0  0  0  0  0  0
    8.5405    1.1974    0.0000 H   0  0  0  0  0  0  0  0  0  0  0  0
    4.3826    1.7785    0.0000 H   0  0  0  0  0  0  0  0  0  0  0  0
    8.7132    3.4827    0.0000 H   0  0  0  0  0  0  0  0  0  0  0  0
    4.4272   -3.8544    0.0000 H   0  0  0  0  0  0  0  0  0  0  0  0
    5.2156   -3.5967    0.0000 H   0  0  0  0  0  0  0  0  0  0  0  0
    2.8660   -0.8627    0.0000 H   0  0  0  0  0  0  0  0  0  0  0  0
    2.8660   -4.1027    0.0000 H   0  0  0  0  0  0  0  0  0  0  0  0
    1.4631   -1.6727    0.0000 H   0  0  0  0  0  0  0  0  0  0  0  0
    1.4631   -3.2927    0.0000 H   0  0  0  0  0  0  0  0  0  0  0  0
  1 10  1  0  0  0  0
  1 12  1  0  0  0  0
  9  2  1  6  0  0  0
  2 28  1  0  0  0  0
 10  3  1  6  0  0  0
  3 29  1  0  0  0  0
 11  4  1  1  0  0  0
  4 30  1  0  0  0  0
  5 14  1  0  0  0  0
  5 15  1  0  0  0  0
  6 13  1  0  0  0  0
  6 31  1  0  0  0  0
  7 14  2  0  0  0  0
  8 15  2  0  0  0  0
  8 18  1  0  0  0  0
  9 10  1  0  0  0  0
  9 11  1  0  0  0  0
  9 23  1  0  0  0  0
 10 13  1  0  0  0  0
 11 12  1  0  0  0  0
 11 24  1  0  0  0  0
 12 14  1  0  0  0  0
 12 25  1  0  0  0  0
 13 26  1  0  0  0  0
 13 27  1  0  0  0  0
 15 16  1  0  0  0  0
 16 17  1  0  0  0  0
 16 19  2  0  0  0  0
 17 18  1  0  0  0  0
 17 20  2  0  0  0  0
 18 32  1  0  0  0  0
 18 33  1  0  0  0  0
 19 21  1  0  0  0  0
 19 34  1  0  0  0  0
 20 22  1  0  0  0  0
 20 35  1  0  0  0  0
 21 22  2  0  0  0  0
 21 36  1  0  0  0  0
 22 37  1  0  0  0  0
M  END
> <PUBCHEM_COMPOUND_CID>
56928072

> <PUBCHEM_COMPOUND_CANONICALIZED>
1

> <PUBCHEM_CACTVS_COMPLEXITY>
482

> <PUBCHEM_CACTVS_HBOND_ACCEPTOR>
8

> <PUBCHEM_CACTVS_HBOND_DONOR>
4

> <PUBCHEM_CACTVS_ROTATABLE_BOND>
4

> <PUBCHEM_CACTVS_SUBSKEYS>
AAADccByOAAAAAAAAAAAAAAAAAAAASIAAAAwAAAAAAAAAEABAAAAHgAACAAADBThmAYwCIIABgCoAiDyDAKCAAAgAAAIiAFgDJgZNraAsR2CcABl4AEPqAf67KxOgAAAAAAQAAAAAAAAACAAAAAAAAAAAA==

> <PUBCHEM_IUPAC_OPENEYE_NAME>
3H-isoindol-1-yl (3S,4S,5R)-3,4,5-trihydroxy-5-(hydroxymethyl)tetrahydrofuran-2-carboxylate

> <PUBCHEM_IUPAC_CAS_NAME>
(3S,4S,5R)-3,4,5-trihydroxy-5-(hydroxymethyl)-2-oxolanecarboxylic acid 3H-isoindol-1-yl ester

> <PUBCHEM_IUPAC_NAME>
3H-isoindol-1-yl (3S,4S,5R)-3,4,5-trihydroxy-5-(hydroxymethyl)oxolane-2-carboxylate

> <PUBCHEM_IUPAC_SYSTEMATIC_NAME>
3H-isoindol-1-yl (3S,4S,5R)-5-(hydroxymethyl)-3,4,5-tris(oxidanyl)oxolane-2-carboxylate

> <PUBCHEM_IUPAC_TRADITIONAL_NAME>
(3S,4S,5R)-3,4,5-trihydroxy-5-methylol-tetrahydrofuran-2-carboxylic acid 3H-isoindol-1-yl ester

> <PUBCHEM_IUPAC_INCHI>
InChI=1S/C14H15NO7/c16-6-14(20)11(18)9(17)10(22-14)13(19)21-12-8-4-2-1-3-7(8)5-15-12/h1-4,9-11,16-18,20H,5-6H2/t9-,10?,11+,14-/m1/s1

> <PUBCHEM_IUPAC_INCHIKEY>
LTHSNPIAECYJIX-OAYJICASSA-N

> <PUBCHEM_XLOGP3_AA>
-0.6

> <PUBCHEM_EXACT_MASS>
309.084852

> <PUBCHEM_MOLECULAR_FORMULA>
C14H15NO7

> <PUBCHEM_MOLECULAR_WEIGHT>
309.2714

> <PUBCHEM_OPENEYE_CAN_SMILES>
C1C2=CC=CC=C2C(=N1)OC(=O)C3C(C(C(O3)(CO)O)O)O

> <PUBCHEM_OPENEYE_ISO_SMILES>
C1C2=CC=CC=C2C(=N1)OC(=O)C3[C@H]([C@@H]([C@](O3)(CO)O)O)O

> <PUBCHEM_CACTVS_TPSA>
129

> <PUBCHEM_MONOISOTOPIC_WEIGHT>
309.084852

> <PUBCHEM_TOTAL_CHARGE>
0

> <PUBCHEM_HEAVY_ATOM_COUNT>
22

> <PUBCHEM_ATOM_DEF_STEREO_COUNT>
3

> <PUBCHEM_ATOM_UDEF_STEREO_COUNT>
1

> <PUBCHEM_BOND_DEF_STEREO_COUNT>
0

> <PUBCHEM_BOND_UDEF_STEREO_COUNT>
0

> <PUBCHEM_ISOTOPIC_ATOM_COUNT>
0

> <PUBCHEM_COMPONENT_COUNT>
1

> <PUBCHEM_CACTVS_TAUTO_COUNT>
1

> <PUBCHEM_COORDINATE_TYPE>
1
5
255

> <PUBCHEM_BONDANNOTATIONS>
12  14  3
16  17  8
16  19  8
17  20  8
19  21  8
9  2  6
20  22  8
21  22  8
10  3  6
11  4  5

$$$$

