5281468
  -OEChem-07051212573D

 66 68  0     1  0  0  0  0  0999 V2000
    1.5841    0.5054    2.0522 O   0  0  0  0  0  0  0  0  0  0  0  0
    1.4063   -3.1823   -2.4922 O   0  0  0  0  0  0  0  0  0  0  0  0
   -1.9702   -0.9530   -0.0923 O   0  0  0  0  0  0  0  0  0  0  0  0
   -0.0519    2.5866    0.5663 O   0  0  0  0  0  0  0  0  0  0  0  0
    0.1840    1.6643    3.4268 O   0  0  0  0  0  0  0  0  0  0  0  0
   -2.3173   -3.2286   -0.0384 O   0  0  0  0  0  0  0  0  0  0  0  0
   -1.4963    2.2660   -1.1978 O   0  0  0  0  0  0  0  0  0  0  0  0
    2.2738   -1.3496    0.7318 C   0  0  2  0  0  0  0  0  0  0  0  0
    2.3744   -2.1645   -0.5764 C   0  0  1  0  0  0  0  0  0  0  0  0
    0.1730    0.1887    0.1713 C   0  0  1  0  0  0  0  0  0  0  0  0
    1.6309    0.0483    0.6764 C   0  0  1  0  0  0  0  0  0  0  0  0
    1.2799   -2.0153   -1.6430 C   0  0  2  0  0  0  0  0  0  0  0  0
   -0.5681   -1.1585    0.1042 C   0  0  2  0  0  0  0  0  0  0  0  0
   -0.1376   -2.0932   -1.0455 C   0  0  0  0  0  0  0  0  0  0  0  0
   -0.3861    1.2976    1.0911 C   0  0  1  0  0  0  0  0  0  0  0  0
    3.8129   -1.9600   -1.0945 C   0  0  0  0  0  0  0  0  0  0  0  0
    3.7351   -1.3094    1.1537 C   0  0  0  0  0  0  0  0  0  0  0  0
    4.5583   -1.6499    0.1551 C   0  0  0  0  0  0  0  0  0  0  0  0
    0.4455    1.1870    2.3336 C   0  0  0  0  0  0  0  0  0  0  0  0
    1.4711   -0.8264   -2.5978 C   0  0  0  0  0  0  0  0  0  0  0  0
   -1.8677    1.3220    1.4231 C   0  0  0  0  0  0  0  0  0  0  0  0
    4.1639   -0.9720    2.5392 C   0  0  0  0  0  0  0  0  0  0  0  0
   -2.7282   -2.0817   -0.1439 C   0  0  0  0  0  0  0  0  0  0  0  0
   -0.6834    2.9485   -0.5907 C   0  0  0  0  0  0  0  0  0  0  0  0
   -4.1594   -1.7081   -0.3579 C   0  0  0  0  0  0  0  0  0  0  0  0
   -0.2297    4.3079   -1.0147 C   0  0  0  0  0  0  0  0  0  0  0  0
   -4.6513   -1.5523   -1.7664 C   0  0  0  0  0  0  0  0  0  0  0  0
   -1.0128    5.4981   -0.5456 C   0  0  0  0  0  0  0  0  0  0  0  0
   -4.8877   -1.5106    0.7564 C   0  0  0  0  0  0  0  0  0  0  0  0
    0.8467    4.3424   -1.8219 C   0  0  0  0  0  0  0  0  0  0  0  0
   -4.4228   -1.6239    2.1736 C   0  0  0  0  0  0  0  0  0  0  0  0
    1.6305    3.1765   -2.3357 C   0  0  0  0  0  0  0  0  0  0  0  0
    1.7445   -1.9559    1.4801 H   0  0  0  0  0  0  0  0  0  0  0  0
    2.3374   -3.2225   -0.2587 H   0  0  0  0  0  0  0  0  0  0  0  0
    0.1933    0.5646   -0.8512 H   0  0  0  0  0  0  0  0  0  0  0  0
    2.2812    0.7512    0.1402 H   0  0  0  0  0  0  0  0  0  0  0  0
   -0.4522   -1.6694    1.0687 H   0  0  0  0  0  0  0  0  0  0  0  0
   -0.2232   -3.1287   -0.6892 H   0  0  0  0  0  0  0  0  0  0  0  0
   -0.8434   -2.0297   -1.8871 H   0  0  0  0  0  0  0  0  0  0  0  0
    3.9224   -1.1261   -1.7926 H   0  0  0  0  0  0  0  0  0  0  0  0
    4.1936   -2.8710   -1.5666 H   0  0  0  0  0  0  0  0  0  0  0  0
    5.6358   -1.6854    0.2300 H   0  0  0  0  0  0  0  0  0  0  0  0
    2.2029   -1.0526   -3.3829 H   0  0  0  0  0  0  0  0  0  0  0  0
    0.5390   -0.5889   -3.1227 H   0  0  0  0  0  0  0  0  0  0  0  0
    1.8201    0.0725   -2.0908 H   0  0  0  0  0  0  0  0  0  0  0  0
   -2.5391    1.2916    0.5634 H   0  0  0  0  0  0  0  0  0  0  0  0
   -2.1331    0.4853    2.0792 H   0  0  0  0  0  0  0  0  0  0  0  0
   -2.1254    2.2383    1.9702 H   0  0  0  0  0  0  0  0  0  0  0  0
    2.2945   -3.1832   -2.8871 H   0  0  0  0  0  0  0  0  0  0  0  0
    4.0132    0.0905    2.7484 H   0  0  0  0  0  0  0  0  0  0  0  0
    5.2260   -1.1906    2.6941 H   0  0  0  0  0  0  0  0  0  0  0  0
    3.5969   -1.5591    3.2683 H   0  0  0  0  0  0  0  0  0  0  0  0
   -5.7042   -1.2541   -1.7963 H   0  0  0  0  0  0  0  0  0  0  0  0
   -4.0682   -0.7880   -2.2899 H   0  0  0  0  0  0  0  0  0  0  0  0
   -4.5513   -2.4979   -2.3085 H   0  0  0  0  0  0  0  0  0  0  0  0
   -0.6061    6.4327   -0.9451 H   0  0  0  0  0  0  0  0  0  0  0  0
   -2.0555    5.4173   -0.8686 H   0  0  0  0  0  0  0  0  0  0  0  0
   -0.9909    5.5588    0.5471 H   0  0  0  0  0  0  0  0  0  0  0  0
   -5.9316   -1.2257    0.6382 H   0  0  0  0  0  0  0  0  0  0  0  0
    1.2063    5.3164   -2.1486 H   0  0  0  0  0  0  0  0  0  0  0  0
   -4.5558   -0.6626    2.6800 H   0  0  0  0  0  0  0  0  0  0  0  0
   -3.3751   -1.9148    2.2801 H   0  0  0  0  0  0  0  0  0  0  0  0
   -5.0293   -2.3690    2.6982 H   0  0  0  0  0  0  0  0  0  0  0  0
    1.8411    3.3223   -3.4003 H   0  0  0  0  0  0  0  0  0  0  0  0
    1.1022    2.2279   -2.2447 H   0  0  0  0  0  0  0  0  0  0  0  0
    2.5856    3.1033   -1.8073 H   0  0  0  0  0  0  0  0  0  0  0  0
  1 11  1  0  0  0  0
  1 19  1  0  0  0  0
  2 12  1  0  0  0  0
  2 49  1  0  0  0  0
  3 13  1  0  0  0  0
  3 23  1  0  0  0  0
  4 15  1  0  0  0  0
  4 24  1  0  0  0  0
  5 19  2  0  0  0  0
  6 23  2  0  0  0  0
  7 24  2  0  0  0  0
  8  9  1  0  0  0  0
  8 11  1  0  0  0  0
  8 17  1  0  0  0  0
  8 33  1  0  0  0  0
  9 12  1  0  0  0  0
  9 16  1  0  0  0  0
  9 34  1  0  0  0  0
 10 11  1  0  0  0  0
 10 13  1  0  0  0  0
 10 15  1  0  0  0  0
 10 35  1  0  0  0  0
 11 36  1  0  0  0  0
 12 14  1  0  0  0  0
 12 20  1  0  0  0  0
 13 14  1  0  0  0  0
 13 37  1  0  0  0  0
 14 38  1  0  0  0  0
 14 39  1  0  0  0  0
 15 19  1  0  0  0  0
 15 21  1  0  0  0  0
 16 18  1  0  0  0  0
 16 40  1  0  0  0  0
 16 41  1  0  0  0  0
 17 18  2  0  0  0  0
 17 22  1  0  0  0  0
 18 42  1  0  0  0  0
 20 43  1  0  0  0  0
 20 44  1  0  0  0  0
 20 45  1  0  0  0  0
 21 46  1  0  0  0  0
 21 47  1  0  0  0  0
 21 48  1  0  0  0  0
 22 50  1  0  0  0  0
 22 51  1  0  0  0  0
 22 52  1  0  0  0  0
 23 25  1  0  0  0  0
 24 26  1  0  0  0  0
 25 27  1  0  0  0  0
 25 29  2  0  0  0  0
 26 28  1  0  0  0  0
 26 30  2  0  0  0  0
 27 53  1  0  0  0  0
 27 54  1  0  0  0  0
 27 55  1  0  0  0  0
 28 56  1  0  0  0  0
 28 57  1  0  0  0  0
 28 58  1  0  0  0  0
 29 31  1  0  0  0  0
 29 59  1  0  0  0  0
 30 32  1  0  0  0  0
 30 60  1  0  0  0  0
 31 61  1  0  0  0  0
 31 62  1  0  0  0  0
 31 63  1  0  0  0  0
 32 64  1  0  0  0  0
 32 65  1  0  0  0  0
 32 66  1  0  0  0  0
M  END
> <PUBCHEM_COMPOUND_CID>
5281468

> <PUBCHEM_CONFORMER_RMSD>
1

> <PUBCHEM_CONFORMER_DIVERSEORDER>
17
44
15
33
31
55
9
51
11
45
57
36
14
23
10
39
40
46
12
37
56
22
35
25
5
16
26
28
47
59
30
34
48
24
54
41
58
7
50
60
19
52
13
20
32
42
18
8
29
49
53
3
21
4
43
27
6
38
1
2

> <PUBCHEM_MMFF94_PARTIAL_CHARGES>
31
1 -0.43
11 0.28
12 0.28
13 0.28
15 0.34
16 0.14
17 -0.28
18 -0.29
19 0.66
2 -0.68
22 0.14
23 0.71
24 0.71
25 -0.12
26 -0.12
27 0.14
28 0.14
29 -0.29
3 -0.43
30 -0.29
31 0.14
32 0.14
4 -0.43
42 0.15
49 0.4
5 -0.57
59 0.15
6 -0.57
60 0.15
7 -0.57
8 0.14

> <PUBCHEM_EFFECTIVE_ROTOR_COUNT>
7.2

> <PUBCHEM_PHARMACOPHORE_FEATURES>
12
1 2 acceptor
1 2 donor
1 27 hydrophobe
1 28 hydrophobe
1 31 hydrophobe
1 32 hydrophobe
1 5 acceptor
1 6 acceptor
1 7 acceptor
5 1 10 11 15 19 rings
5 8 9 16 17 18 rings
7 8 9 10 11 12 13 14 rings

> <PUBCHEM_HEAVY_ATOM_COUNT>
32

> <PUBCHEM_ATOM_DEF_STEREO_COUNT>
7

> <PUBCHEM_ATOM_UDEF_STEREO_COUNT>
0

> <PUBCHEM_BOND_DEF_STEREO_COUNT>
2

> <PUBCHEM_BOND_UDEF_STEREO_COUNT>
0

> <PUBCHEM_ISOTOPIC_ATOM_COUNT>
0

> <PUBCHEM_COMPONENT_COUNT>
1

> <PUBCHEM_CACTVS_TAUTO_COUNT>
1

> <PUBCHEM_CONFORMER_ID>
005096BC00000011

> <PUBCHEM_MMFF94_ENERGY>
114.8346

> <PUBCHEM_FEATURE_SELFOVERLAP>
60.953

> <PUBCHEM_SHAPE_FINGERPRINT>
10165383 225 16676923682042921716
10688039 33 18410295843096268643
11488393 25 17986110699888796577
11578080 2 15262336788105973039
12156800 1 17056161541642486340
12160290 23 17903060480659259379
12788726 201 18201999966947981354
133893 2 18049148983017111859
13642711 20 17409047371904593320
14790565 3 17534065172983410128
14840074 17 18192442861893009920
17357779 13 18115608026933738407
1813 80 18411410705179598043
20600515 1 18335688434612722971
20739085 24 18262512589867225531
21304303 282 17408839912347266581
21641784 216 18338496626227993758
21857420 4 18267890404819320205
22182313 1 17678477440069159970
23419403 2 18043560289645177497
23559900 14 18122921841196646279
3380486 145 17822592584578053775
3380486 77 18342744009144146667
394222 165 17835786517989618570
44802255 64 16323650561616511143
469060 322 18268971237280761051
513532 50 14997379843910827931
81228 2 18046599438611263971

> <PUBCHEM_SHAPE_MULTIPOLES>
617.46
7.07
5.87
2.78
3.4
10.18
-0.8
-8.78
-1.46
1.48
3.37
-1.08
0.18
-0.04

> <PUBCHEM_SHAPE_SELFOVERLAP>
1300.879

> <PUBCHEM_SHAPE_VOLUME>
345.6

> <PUBCHEM_COORDINATE_TYPE>
2
5
10

$$$$

