615099
  -OEChem-07051213132D

 30 34  0     0  0  0  0  0  0999 V2000
    3.4968    0.2775    0.0000 C   0  0  0  0  0  0  0  0  0  0  0  0
    3.4968    1.2776    0.0000 C   0  0  0  0  0  0  0  0  0  0  0  0
    4.3628   -0.2225    0.0000 C   0  0  0  0  0  0  0  0  0  0  0  0
    2.5868   -0.2293    0.0000 C   0  0  0  0  0  0  0  0  0  0  0  0
    2.5138    1.4235    0.0000 C   0  0  0  0  0  0  0  0  0  0  0  0
    2.0000    0.5728    0.0000 C   0  0  0  0  0  0  0  0  0  0  0  0
    5.2289    0.2775    0.0000 C   0  0  0  0  0  0  0  0  0  0  0  0
    4.3789   -1.2640    0.0000 C   0  0  0  0  0  0  0  0  0  0  0  0
    5.2289    1.2776    0.0000 C   0  0  0  0  0  0  0  0  0  0  0  0
    4.3628    1.7776    0.0000 C   0  0  0  0  0  0  0  0  0  0  0  0
    6.0883   -0.2172    0.0000 C   0  0  0  0  0  0  0  0  0  0  0  0
    2.5788   -1.2709    0.0000 C   0  0  0  0  0  0  0  0  0  0  0  0
    3.4808   -1.7917    0.0000 C   0  0  0  0  0  0  0  0  0  0  0  0
    5.2560   -1.7267    0.0000 C   0  0  0  0  0  0  0  0  0  0  0  0
    6.1018   -1.2088    0.0000 C   0  0  0  0  0  0  0  0  0  0  0  0
    6.0996    1.7917    0.0000 C   0  0  0  0  0  0  0  0  0  0  0  0
    6.9708    0.2767    0.0000 C   0  0  0  0  0  0  0  0  0  0  0  0
    6.9764    1.2879    0.0000 C   0  0  0  0  0  0  0  0  0  0  0  0
    2.6847    2.0195    0.0000 H   0  0  0  0  0  0  0  0  0  0  0  0
    1.9455    1.6714    0.0000 H   0  0  0  0  0  0  0  0  0  0  0  0
    1.5161    0.9603    0.0000 H   0  0  0  0  0  0  0  0  0  0  0  0
    1.5521    0.1440    0.0000 H   0  0  0  0  0  0  0  0  0  0  0  0
    4.3628    2.3976    0.0000 H   0  0  0  0  0  0  0  0  0  0  0  0
    2.0406   -1.5788    0.0000 H   0  0  0  0  0  0  0  0  0  0  0  0
    3.4832   -2.4117    0.0000 H   0  0  0  0  0  0  0  0  0  0  0  0
    5.2758   -2.3464    0.0000 H   0  0  0  0  0  0  0  0  0  0  0  0
    6.6447   -1.5082    0.0000 H   0  0  0  0  0  0  0  0  0  0  0  0
    6.0960    2.4117    0.0000 H   0  0  0  0  0  0  0  0  0  0  0  0
    7.5047   -0.0384    0.0000 H   0  0  0  0  0  0  0  0  0  0  0  0
    7.5139    1.5970    0.0000 H   0  0  0  0  0  0  0  0  0  0  0  0
  1  2  1  0  0  0  0
  1  3  1  0  0  0  0
  1  4  2  0  0  0  0
  2  5  1  0  0  0  0
  2 10  2  0  0  0  0
  3  7  1  0  0  0  0
  3  8  2  0  0  0  0
  4  6  1  0  0  0  0
  4 12  1  0  0  0  0
  5  6  1  0  0  0  0
  5 19  1  0  0  0  0
  5 20  1  0  0  0  0
  6 21  1  0  0  0  0
  6 22  1  0  0  0  0
  7  9  1  0  0  0  0
  7 11  2  0  0  0  0
  8 13  1  0  0  0  0
  8 14  1  0  0  0  0
  9 10  1  0  0  0  0
  9 16  2  0  0  0  0
 10 23  1  0  0  0  0
 11 15  1  0  0  0  0
 11 17  1  0  0  0  0
 12 13  2  0  0  0  0
 12 24  1  0  0  0  0
 13 25  1  0  0  0  0
 14 15  2  0  0  0  0
 14 26  1  0  0  0  0
 15 27  1  0  0  0  0
 16 18  1  0  0  0  0
 16 28  1  0  0  0  0
 17 18  2  0  0  0  0
 17 29  1  0  0  0  0
 18 30  1  0  0  0  0
M  END
> <PUBCHEM_COMPOUND_CID>
615099

> <PUBCHEM_COMPOUND_CANONICALIZED>
1

> <PUBCHEM_CACTVS_COMPLEXITY>
346

> <PUBCHEM_CACTVS_HBOND_ACCEPTOR>
0

> <PUBCHEM_CACTVS_HBOND_DONOR>
0

> <PUBCHEM_CACTVS_ROTATABLE_BOND>
0

> <PUBCHEM_CACTVS_SUBSKEYS>
AAADccB4AAAAAAAAAAAAAAAAAAAAAYAAAAAwYMGAAAAAAGDBVAAAGAAAAAAADACAGAAwAMAAAACAAiBCAAACAAAgAAAIiAAAAIgIICKAERCAIAAggAAIiAcAgMAOwAACAAAQAACAAAQAACAAAQAACAAAAA==

> <PUBCHEM_IUPAC_INCHI>
InChI=1S/C18H12/c1-2-11-4-6-13-7-5-12-8-9-15-10-14(3-1)16(11)18(13)17(12)15/h1-7,10H,8-9H2

> <PUBCHEM_IUPAC_INCHIKEY>
LEYRJZXFRUAKLV-UHFFFAOYSA-N

> <PUBCHEM_XLOGP3_AA>
5.3

> <PUBCHEM_EXACT_MASS>
228.0939

> <PUBCHEM_MOLECULAR_FORMULA>
C18H12

> <PUBCHEM_MOLECULAR_WEIGHT>
228.28788

> <PUBCHEM_OPENEYE_CAN_SMILES>
C1CC2=CC3=CC=CC4=C3C5=C(C=CC1=C25)C=C4

> <PUBCHEM_OPENEYE_ISO_SMILES>
C1CC2=CC3=CC=CC4=C3C5=C(C=CC1=C25)C=C4

> <PUBCHEM_CACTVS_TPSA>
0

> <PUBCHEM_MONOISOTOPIC_WEIGHT>
228.0939

> <PUBCHEM_TOTAL_CHARGE>
0

> <PUBCHEM_HEAVY_ATOM_COUNT>
18

> <PUBCHEM_ATOM_DEF_STEREO_COUNT>
0

> <PUBCHEM_ATOM_UDEF_STEREO_COUNT>
0

> <PUBCHEM_BOND_DEF_STEREO_COUNT>
0

> <PUBCHEM_BOND_UDEF_STEREO_COUNT>
0

> <PUBCHEM_ISOTOPIC_ATOM_COUNT>
0

> <PUBCHEM_COMPONENT_COUNT>
1

> <PUBCHEM_CACTVS_TAUTO_COUNT>
1

> <PUBCHEM_COORDINATE_TYPE>
1
5
255

> <PUBCHEM_BONDANNOTATIONS>
1  2  8
1  3  8
1  4  8
11  15  8
11  17  8
12  13  8
14  15  8
16  18  8
17  18  8
2  10  8
3  7  8
3  8  8
4  12  8
7  11  8
7  9  8
8  13  8
8  14  8
9  10  8
9  16  8

$$$$

