5281861
  -OEChem-07051213003D

 54 54  0     0  0  0  0  0  0999 V2000
   -0.2168   -4.2581   -1.4969 O   0  0  0  0  0  0  0  0  0  0  0  0
    0.8861    3.4269    2.0052 O   0  0  0  0  0  0  0  0  0  0  0  0
   -1.4106    1.6607   -2.6854 O   0  0  0  0  0  0  0  0  0  0  0  0
    3.7583   -1.3801    0.8825 C   0  0  0  0  0  0  0  0  0  0  0  0
    2.9541   -2.6574    0.6080 C   0  0  0  0  0  0  0  0  0  0  0  0
    0.4178   -2.6894    0.2119 C   0  0  0  0  0  0  0  0  0  0  0  0
   -0.9688   -2.5226    0.8134 C   0  0  0  0  0  0  0  0  0  0  0  0
    3.3350   -0.1793    0.0554 C   0  0  0  0  0  0  0  0  0  0  0  0
    1.5055   -2.5377    0.9942 C   0  0  0  0  0  0  0  0  0  0  0  0
   -1.5561   -1.1117    0.6827 C   0  0  0  0  0  0  0  0  0  0  0  0
    2.9785    0.9688    0.6647 C   0  0  0  0  0  0  0  0  0  0  0  0
    2.5975    2.2766    0.0278 C   0  0  0  0  0  0  0  0  0  0  0  0
    0.4712   -3.0379   -1.2532 C   0  0  0  0  0  0  0  0  0  0  0  0
    3.4053   -0.3725   -1.4356 C   0  0  0  0  0  0  0  0  0  0  0  0
   -2.9653   -1.0255    1.1987 C   0  0  0  0  0  0  0  0  0  0  0  0
    1.1076    2.4188   -0.1579 C   0  0  0  0  0  0  0  0  0  0  0  0
   -4.0853   -0.7198    0.5175 C   0  0  0  0  0  0  0  0  0  0  0  0
    0.3310    2.9869    0.8413 C   0  0  0  0  0  0  0  0  0  0  0  0
    0.5372    1.9711   -1.3410 C   0  0  0  0  0  0  0  0  0  0  0  0
   -4.1542   -0.4316   -0.9549 C   0  0  0  0  0  0  0  0  0  0  0  0
   -5.4117   -0.6546    1.2274 C   0  0  0  0  0  0  0  0  0  0  0  0
   -0.8396    2.0944   -1.5285 C   0  0  0  0  0  0  0  0  0  0  0  0
   -1.0457    3.1101    0.6538 C   0  0  0  0  0  0  0  0  0  0  0  0
   -1.6310    2.6638   -0.5310 C   0  0  0  0  0  0  0  0  0  0  0  0
    3.7081   -1.1510    1.9553 H   0  0  0  0  0  0  0  0  0  0  0  0
    4.8164   -1.5831    0.6715 H   0  0  0  0  0  0  0  0  0  0  0  0
    3.3851   -3.4644    1.2148 H   0  0  0  0  0  0  0  0  0  0  0  0
    3.0956   -2.9702   -0.4288 H   0  0  0  0  0  0  0  0  0  0  0  0
   -0.9398   -2.7949    1.8779 H   0  0  0  0  0  0  0  0  0  0  0  0
   -1.6515   -3.2509    0.3568 H   0  0  0  0  0  0  0  0  0  0  0  0
    1.3439   -2.2965    2.0447 H   0  0  0  0  0  0  0  0  0  0  0  0
   -0.9408   -0.4104    1.2608 H   0  0  0  0  0  0  0  0  0  0  0  0
   -1.4831   -0.7828   -0.3569 H   0  0  0  0  0  0  0  0  0  0  0  0
    2.9761    0.9894    1.7542 H   0  0  0  0  0  0  0  0  0  0  0  0
    3.1032    2.4144   -0.9352 H   0  0  0  0  0  0  0  0  0  0  0  0
    2.9875    3.0963    0.6448 H   0  0  0  0  0  0  0  0  0  0  0  0
    1.4786   -3.1453   -1.6558 H   0  0  0  0  0  0  0  0  0  0  0  0
   -0.0221   -2.2525   -1.8354 H   0  0  0  0  0  0  0  0  0  0  0  0
    4.3309   -0.8909   -1.7082 H   0  0  0  0  0  0  0  0  0  0  0  0
    2.5584   -0.9662   -1.7883 H   0  0  0  0  0  0  0  0  0  0  0  0
    3.4041    0.5684   -1.9901 H   0  0  0  0  0  0  0  0  0  0  0  0
   -3.0559   -1.2176    2.2674 H   0  0  0  0  0  0  0  0  0  0  0  0
    1.1452    1.5305   -2.1256 H   0  0  0  0  0  0  0  0  0  0  0  0
   -4.8954   -1.0834   -1.4300 H   0  0  0  0  0  0  0  0  0  0  0  0
   -4.4560    0.6078   -1.1204 H   0  0  0  0  0  0  0  0  0  0  0  0
   -3.2110   -0.5926   -1.4799 H   0  0  0  0  0  0  0  0  0  0  0  0
   -5.3239   -0.8640    2.2987 H   0  0  0  0  0  0  0  0  0  0  0  0
   -5.8491    0.3434    1.1197 H   0  0  0  0  0  0  0  0  0  0  0  0
   -6.1060   -1.3867    0.8020 H   0  0  0  0  0  0  0  0  0  0  0  0
   -1.6746    3.5506    1.4228 H   0  0  0  0  0  0  0  0  0  0  0  0
    0.2371   -4.9564   -0.9944 H   0  0  0  0  0  0  0  0  0  0  0  0
   -2.7047    2.7647   -0.6644 H   0  0  0  0  0  0  0  0  0  0  0  0
    0.1851    3.7879    2.5747 H   0  0  0  0  0  0  0  0  0  0  0  0
   -2.3697    1.8165   -2.6409 H   0  0  0  0  0  0  0  0  0  0  0  0
  1 13  1  0  0  0  0
  1 51  1  0  0  0  0
  2 18  1  0  0  0  0
  2 53  1  0  0  0  0
  3 22  1  0  0  0  0
  3 54  1  0  0  0  0
  4  5  1  0  0  0  0
  4  8  1  0  0  0  0
  4 25  1  0  0  0  0
  4 26  1  0  0  0  0
  5  9  1  0  0  0  0
  5 27  1  0  0  0  0
  5 28  1  0  0  0  0
  6  7  1  0  0  0  0
  6  9  2  0  0  0  0
  6 13  1  0  0  0  0
  7 10  1  0  0  0  0
  7 29  1  0  0  0  0
  7 30  1  0  0  0  0
  8 11  2  0  0  0  0
  8 14  1  0  0  0  0
  9 31  1  0  0  0  0
 10 15  1  0  0  0  0
 10 32  1  0  0  0  0
 10 33  1  0  0  0  0
 11 12  1  0  0  0  0
 11 34  1  0  0  0  0
 12 16  1  0  0  0  0
 12 35  1  0  0  0  0
 12 36  1  0  0  0  0
 13 37  1  0  0  0  0
 13 38  1  0  0  0  0
 14 39  1  0  0  0  0
 14 40  1  0  0  0  0
 14 41  1  0  0  0  0
 15 17  2  0  0  0  0
 15 42  1  0  0  0  0
 16 18  2  0  0  0  0
 16 19  1  0  0  0  0
 17 20  1  0  0  0  0
 17 21  1  0  0  0  0
 18 23  1  0  0  0  0
 19 22  2  0  0  0  0
 19 43  1  0  0  0  0
 20 44  1  0  0  0  0
 20 45  1  0  0  0  0
 20 46  1  0  0  0  0
 21 47  1  0  0  0  0
 21 48  1  0  0  0  0
 21 49  1  0  0  0  0
 22 24  1  0  0  0  0
 23 24  2  0  0  0  0
 23 50  1  0  0  0  0
 24 52  1  0  0  0  0
M  END
> <PUBCHEM_COMPOUND_CID>
5281861

> <PUBCHEM_CONFORMER_RMSD>
1.2

> <PUBCHEM_CONFORMER_DIVERSEORDER>
1
39
61
35
338
278
199
71
55
66
217
286
205
167
255
157
92
41
246
328
147
132
186
208
260
330
202
179
227
244
253
211
116
206
119
300
177
271
16
11
103
294
102
86
254
341
38
101
122
276
45
171
242
327
344
210
257
216
195
140
280
144
112
259
223
273
190
183
151
182
342
111
138
209
269
96
128
281
7
84
241
234
107
154
168
345
333
133
324
56
142
104
226
198
47
219
250
75
264
114
59
172
191
60
316
203
121
69
239
91
261
52
62
317
197
229
148
120
188
196
9
245
323
267
215
82
48
21
193
131
24
54
306
28
153
224
108
8
204
95
292
64
297
290
50
99
146
74
266
176
314
200
72
247
77
123
318
231
238
73
265
165
13
42
164
163
212
33
80
87
17
192
105
139
137
337
251
258
43
118
68
296
127
152
283
12
46
213
240
130
284
160
136
322
285
90
79
228
124
293
303
2
312
232
169
320
311
27
100
70
221
298
249
275
5
51
343
277
53
4
34
109
225
76
218
340
243
115
166
141
65
282
36
22
189
248
291
268
143
158
302
185
288
30
325
6
201
88
150
339
49
135
110
85
331
181
174
23
301
3
207
336
19
125
279
236
78
295
159
106
81
98
31
156
305
262
272
252
145
94
187
214
235
270
57
162
25
113
161
237
32
89
233
220
18
304
335
170
274
222
15
334
289
58
178
326
230
155
126
20
194
184
310
180
263
321
97
40
308
37
10
149
63
313
287
175
14
315
44
26
83
309
129
67
307
332
173
117
256
329
319
93
299
29
134

> <PUBCHEM_MMFF94_PARTIAL_CHARGES>
33
1 -0.68
10 0.14
11 -0.29
12 0.28
13 0.42
14 0.14
15 -0.29
16 -0.14
17 -0.28
18 0.08
19 -0.15
2 -0.53
20 0.14
21 0.14
22 0.08
23 -0.15
24 -0.15
3 -0.53
31 0.15
34 0.15
4 0.14
42 0.15
43 0.15
5 0.14
50 0.15
51 0.4
52 0.15
53 0.45
54 0.45
6 -0.28
7 0.14
8 -0.28
9 -0.29

> <PUBCHEM_EFFECTIVE_ROTOR_COUNT>
9

> <PUBCHEM_PHARMACOPHORE_FEATURES>
9
1 1 acceptor
1 1 donor
1 14 hydrophobe
1 2 donor
1 3 donor
3 17 20 21 hydrophobe
4 4 5 8 9 hydrophobe
4 6 7 10 15 hydrophobe
6 16 18 19 22 23 24 rings

> <PUBCHEM_HEAVY_ATOM_COUNT>
24

> <PUBCHEM_ATOM_DEF_STEREO_COUNT>
0

> <PUBCHEM_ATOM_UDEF_STEREO_COUNT>
0

> <PUBCHEM_BOND_DEF_STEREO_COUNT>
2

> <PUBCHEM_BOND_UDEF_STEREO_COUNT>
0

> <PUBCHEM_ISOTOPIC_ATOM_COUNT>
0

> <PUBCHEM_COMPONENT_COUNT>
1

> <PUBCHEM_CACTVS_TAUTO_COUNT>
13

> <PUBCHEM_CONFORMER_ID>
0050984500000001

> <PUBCHEM_MMFF94_ENERGY>
33.6052

> <PUBCHEM_FEATURE_SELFOVERLAP>
45.688

> <PUBCHEM_SHAPE_FINGERPRINT>
10119406 146 15743028321016558055
104564 63 18340193211039494442
10708813 3 18048041774596912367
12156800 1 12735560450869901446
12633257 1 18048614628818914496
13075007 39 17630302179067918003
13122387 1 18340767018406632411
13140716 1 18125161528975171114
13402501 40 18273220811135597479
17093844 170 18272376334449982968
17357779 13 18343309196911957751
20764821 26 17762324121738216982
20905425 154 18200031879414291411
22113638 7 18265333902201688594
27425 322 15791746182673103635
2818148 4 17541348651317084854
3014063 31 18341049704790779073
445580 102 18340491178828012303
7832392 63 18193272984344896442
81228 2 17623547045788597139

> <PUBCHEM_SHAPE_MULTIPOLES>
476.3
6.97
5.41
1.75
5.85
0.17
-0.68
2.9
1.66
-1.31
-0.11
0.38
-0.44
0.59

> <PUBCHEM_SHAPE_SELFOVERLAP>
952.532

> <PUBCHEM_SHAPE_VOLUME>
281.1

> <PUBCHEM_COORDINATE_TYPE>
2
5
10

$$$$

