656717
  -OEChem-07051213043D

 41 43  0     1  0  0  0  0  0999 V2000
   -0.2071    3.5381   -0.1754 Cl  0  0  0  0  0  0  0  0  0  0  0  0
   -3.0738    2.3634   -0.9416 Cl  0  0  0  0  0  0  0  0  0  0  0  0
    2.3444    2.3112    0.7169 O   0  0  0  0  0  0  0  0  0  0  0  0
   -3.2324   -0.5794   -0.7190 O   0  0  0  0  0  0  0  0  0  0  0  0
   -6.0524   -1.9161    1.0469 O   0  0  0  0  0  0  0  0  0  0  0  0
   -5.9555   -0.5524   -0.7747 O   0  0  0  0  0  0  0  0  0  0  0  0
    3.7178   -0.2981    0.0701 C   0  0  0  0  0  0  0  0  0  0  0  0
    2.5327   -0.1048    1.0000 C   0  0  2  0  0  0  0  0  0  0  0  0
    4.4551   -1.6134    0.3007 C   0  0  0  0  0  0  0  0  0  0  0  0
    3.3191   -0.4018   -1.3986 C   0  0  0  0  0  0  0  0  0  0  0  0
    1.4491   -1.1964    0.7675 C   0  0  0  0  0  0  0  0  0  0  0  0
    5.2648   -1.8139   -0.9767 C   0  0  0  0  0  0  0  0  0  0  0  0
    4.5401   -1.0241   -2.0680 C   0  0  0  0  0  0  0  0  0  0  0  0
    1.8303    1.2075    0.6629 C   0  0  0  0  0  0  0  0  0  0  0  0
    2.9886   -0.0791    2.4601 C   0  0  0  0  0  0  0  0  0  0  0  0
    0.2406   -0.4306    0.3275 C   0  0  0  0  0  0  0  0  0  0  0  0
    0.4564    0.9395    0.2673 C   0  0  0  0  0  0  0  0  0  0  0  0
   -1.0023   -0.9454   -0.0052 C   0  0  0  0  0  0  0  0  0  0  0  0
   -0.5213    1.8400   -0.1143 C   0  0  0  0  0  0  0  0  0  0  0  0
   -2.0123   -0.0596   -0.3954 C   0  0  0  0  0  0  0  0  0  0  0  0
   -1.7727    1.3236   -0.4493 C   0  0  0  0  0  0  0  0  0  0  0  0
   -3.9115   -1.3123    0.2968 C   0  0  0  0  0  0  0  0  0  0  0  0
   -5.3977   -1.1958    0.1015 C   0  0  0  0  0  0  0  0  0  0  0  0
    4.4282    0.5340    0.1815 H   0  0  0  0  0  0  0  0  0  0  0  0
    3.7806   -2.4649    0.4359 H   0  0  0  0  0  0  0  0  0  0  0  0
    5.1112   -1.5741    1.1763 H   0  0  0  0  0  0  0  0  0  0  0  0
    3.0931    0.5778   -1.8335 H   0  0  0  0  0  0  0  0  0  0  0  0
    2.4592   -1.0452   -1.5975 H   0  0  0  0  0  0  0  0  0  0  0  0
    1.2111   -1.7114    1.7067 H   0  0  0  0  0  0  0  0  0  0  0  0
    1.6966   -1.9703    0.0385 H   0  0  0  0  0  0  0  0  0  0  0  0
    5.3489   -2.8753   -1.2315 H   0  0  0  0  0  0  0  0  0  0  0  0
    6.2821   -1.4255   -0.8507 H   0  0  0  0  0  0  0  0  0  0  0  0
    5.2007   -0.2421   -2.4601 H   0  0  0  0  0  0  0  0  0  0  0  0
    4.2536   -1.6627   -2.9098 H   0  0  0  0  0  0  0  0  0  0  0  0
    2.1605    0.1934    3.1253 H   0  0  0  0  0  0  0  0  0  0  0  0
    3.3666   -1.0528    2.7885 H   0  0  0  0  0  0  0  0  0  0  0  0
    3.7792    0.6637    2.6160 H   0  0  0  0  0  0  0  0  0  0  0  0
   -1.1752   -2.0164    0.0311 H   0  0  0  0  0  0  0  0  0  0  0  0
   -3.6298   -2.3675    0.2195 H   0  0  0  0  0  0  0  0  0  0  0  0
   -3.6684   -0.9188    1.2913 H   0  0  0  0  0  0  0  0  0  0  0  0
   -7.0261   -1.8578    0.9424 H   0  0  0  0  0  0  0  0  0  0  0  0
  1 19  1  0  0  0  0
  2 21  1  0  0  0  0
  3 14  2  0  0  0  0
  4 20  1  0  0  0  0
  4 22  1  0  0  0  0
  5 23  1  0  0  0  0
  5 41  1  0  0  0  0
  6 23  2  0  0  0  0
  7  8  1  0  0  0  0
  7  9  1  0  0  0  0
  7 10  1  0  0  0  0
  7 24  1  0  0  0  0
  8 11  1  0  0  0  0
  8 14  1  0  0  0  0
  8 15  1  0  0  0  0
  9 12  1  0  0  0  0
  9 25  1  0  0  0  0
  9 26  1  0  0  0  0
 10 13  1  0  0  0  0
 10 27  1  0  0  0  0
 10 28  1  0  0  0  0
 11 16  1  0  0  0  0
 11 29  1  0  0  0  0
 11 30  1  0  0  0  0
 12 13  1  0  0  0  0
 12 31  1  0  0  0  0
 12 32  1  0  0  0  0
 13 33  1  0  0  0  0
 13 34  1  0  0  0  0
 14 17  1  0  0  0  0
 15 35  1  0  0  0  0
 15 36  1  0  0  0  0
 15 37  1  0  0  0  0
 16 17  1  0  0  0  0
 16 18  2  0  0  0  0
 17 19  2  0  0  0  0
 18 20  1  0  0  0  0
 18 38  1  0  0  0  0
 19 21  1  0  0  0  0
 20 21  2  0  0  0  0
 22 23  1  0  0  0  0
 22 39  1  0  0  0  0
 22 40  1  0  0  0  0
M  END
> <PUBCHEM_COMPOUND_CID>
656717

> <PUBCHEM_CONFORMER_RMSD>
0.8

> <PUBCHEM_CONFORMER_DIVERSEORDER>
1
10
6
4
11
8
9
3
7
5
2

> <PUBCHEM_MMFF94_PARTIAL_CHARGES>
19
1 -0.18
11 0.14
14 0.42
16 -0.14
17 0.09
18 -0.15
19 0.18
2 -0.18
20 0.08
21 0.18
22 0.34
23 0.66
3 -0.57
38 0.15
4 -0.36
41 0.5
5 -0.65
6 -0.57
8 0.06

> <PUBCHEM_EFFECTIVE_ROTOR_COUNT>
5.4

> <PUBCHEM_PHARMACOPHORE_FEATURES>
8
1 3 acceptor
1 4 acceptor
1 5 acceptor
1 6 acceptor
3 5 6 23 anion
5 7 9 10 12 13 rings
5 8 11 14 16 17 rings
6 16 17 18 19 20 21 rings

> <PUBCHEM_HEAVY_ATOM_COUNT>
23

> <PUBCHEM_ATOM_DEF_STEREO_COUNT>
1

> <PUBCHEM_ATOM_UDEF_STEREO_COUNT>
0

> <PUBCHEM_BOND_DEF_STEREO_COUNT>
0

> <PUBCHEM_BOND_UDEF_STEREO_COUNT>
0

> <PUBCHEM_ISOTOPIC_ATOM_COUNT>
0

> <PUBCHEM_COMPONENT_COUNT>
1

> <PUBCHEM_CACTVS_TAUTO_COUNT>
1

> <PUBCHEM_CONFORMER_ID>
000A054D00000001

> <PUBCHEM_MMFF94_ENERGY>
70.2674

> <PUBCHEM_FEATURE_SELFOVERLAP>
40.736

> <PUBCHEM_SHAPE_FINGERPRINT>
10366900 7 17989486316687050659
11543360 7 15482957146420467515
12236239 1 17489591198960745478
12553582 1 18340499889064120223
12633257 1 15647060360630329030
12778500 126 16371269113530517123
12788726 201 18060139881515349939
13009979 54 17630062683011854914
13140716 1 18268165286641610969
13533116 47 16877660145378611363
13540713 4 18337973236902610017
13673619 4 17894622691215398134
13955234 65 17968381118061848824
14022347 108 18343305842463541186
14528608 73 15410892942206753855
15081414 286 18265616485634103985
15142383 8 16298379218727262315
15806764 133 18187368752489483153
16752209 62 18272938257758293818
16945 1 18195542599482413480
17492 89 18121777494431855670
1813 80 18334850610835932365
18222031 100 18408892806688535207
19141452 34 17676491609962501183
193927 3 18334855017714814999
19784866 140 18272087214383954091
20567600 254 10807934830174809894
20871999 31 18272929465970625933
21267235 1 18411696587093376067
21279426 13 18341905099737629517
22182313 1 18266480778903436773
22950370 63 18411973663780923963
23557571 272 18337389451919605855
23559900 14 18342739568099800927
2748010 2 18266200399016798960
2838139 119 14405183984528076742
4058900 60 17404868537058478797
46194498 28 18335132077808186828
465052 167 18261384525233906551
5104073 3 18335996353713294280
6823239 73 18411422790974644672
8863177 126 17772460206582671099
9841814 1 18271539588831627985

> <PUBCHEM_SHAPE_MULTIPOLES>
453.59
11.49
2.72
1.46
9.25
2.4
-0.17
-9.49
2.28
1.59
0.09
-1.87
-0.24
1.57

> <PUBCHEM_SHAPE_SELFOVERLAP>
964.439

> <PUBCHEM_SHAPE_VOLUME>
257.7

> <PUBCHEM_COORDINATE_TYPE>
2
5
10

$$$$

