171569
  -OEChem-07051213132D

 53 54  0     0  0  0  0  0  0999 V2000
    8.9316    0.8660    0.0000 S   0  0  0  0  0  0  0  0  0  0  0  0
    1.4030    6.9152    0.0000 O   0  0  0  0  0  0  0  0  0  0  0  0
    8.0322    8.7935    0.0000 O   0  0  0  0  0  0  0  0  0  0  0  0
    2.2690    2.4152    0.0000 O   0  0  0  0  0  0  0  0  0  0  0  0
    8.8982    4.2935    0.0000 O   0  0  0  0  0  0  0  0  0  0  0  0
    9.7976    1.3660    0.0000 O   0  0  0  0  0  0  0  0  0  0  0  0
    8.0656    0.3660    0.0000 O   0  0  0  0  0  0  0  0  0  0  0  0
    8.4316    1.7320    0.0000 O   0  0  0  0  0  0  0  0  0  0  0  0
    9.4316    0.0000    0.0000 O   0  0  0  0  0  0  0  0  0  0  0  0
    3.1629    5.9499    0.0000 N   0  0  0  0  0  0  0  0  0  0  0  0
    9.7922    7.8281    0.0000 N   0  0  0  0  0  0  0  0  0  0  0  0
    8.8982    6.2935    0.0000 C   0  0  0  0  0  0  0  0  0  0  0  0
    2.2690    4.4152    0.0000 C   0  0  0  0  0  0  0  0  0  0  0  0
    8.0322    5.7935    0.0000 C   0  0  0  0  0  0  0  0  0  0  0  0
    1.4030    3.9152    0.0000 C   0  0  0  0  0  0  0  0  0  0  0  0
    8.8982    7.2935    0.0000 C   0  0  0  0  0  0  0  0  0  0  0  0
    2.2690    5.4152    0.0000 C   0  0  0  0  0  0  0  0  0  0  0  0
    8.0322    7.7935    0.0000 C   0  0  0  0  0  0  0  0  0  0  0  0
    1.4030    5.9152    0.0000 C   0  0  0  0  0  0  0  0  0  0  0  0
    0.5369    4.4152    0.0000 C   0  0  0  0  0  0  0  0  0  0  0  0
    7.1662    6.2935    0.0000 C   0  0  0  0  0  0  0  0  0  0  0  0
    3.1629    3.8805    0.0000 C   0  0  0  0  0  0  0  0  0  0  0  0
    9.7922    5.7588    0.0000 C   0  0  0  0  0  0  0  0  0  0  0  0
    0.5369    5.4152    0.0000 C   0  0  0  0  0  0  0  0  0  0  0  0
    7.1662    7.2935    0.0000 C   0  0  0  0  0  0  0  0  0  0  0  0
    8.0322    4.7935    0.0000 C   0  0  0  0  0  0  0  0  0  0  0  0
    1.4030    2.9152    0.0000 C   0  0  0  0  0  0  0  0  0  0  0  0
    4.0690    4.3944    0.0000 C   0  0  0  0  0  0  0  0  0  0  0  0
   10.6982    6.2727    0.0000 C   0  0  0  0  0  0  0  0  0  0  0  0
   10.6982    7.3143    0.0000 C   0  0  0  0  0  0  0  0  0  0  0  0
    4.0690    5.4360    0.0000 C   0  0  0  0  0  0  0  0  0  0  0  0
    7.1662    4.2935    0.0000 C   0  0  0  0  0  0  0  0  0  0  0  0
    0.5369    2.4152    0.0000 C   0  0  0  0  0  0  0  0  0  0  0  0
    6.6292    5.9835    0.0000 H   0  0  0  0  0  0  0  0  0  0  0  0
    0.0000    4.1052    0.0000 H   0  0  0  0  0  0  0  0  0  0  0  0
    9.7850    5.1388    0.0000 H   0  0  0  0  0  0  0  0  0  0  0  0
    3.1558    3.2606    0.0000 H   0  0  0  0  0  0  0  0  0  0  0  0
    6.6292    7.6035    0.0000 H   0  0  0  0  0  0  0  0  0  0  0  0
    0.0000    5.7252    0.0000 H   0  0  0  0  0  0  0  0  0  0  0  0
   11.2340    5.9606    0.0000 H   0  0  0  0  0  0  0  0  0  0  0  0
    4.6047    4.0823    0.0000 H   0  0  0  0  0  0  0  0  0  0  0  0
   11.2340    7.6264    0.0000 H   0  0  0  0  0  0  0  0  0  0  0  0
    4.6047    5.7481    0.0000 H   0  0  0  0  0  0  0  0  0  0  0  0
    6.8562    4.8304    0.0000 H   0  0  0  0  0  0  0  0  0  0  0  0
    6.6292    3.9835    0.0000 H   0  0  0  0  0  0  0  0  0  0  0  0
    0.2269    2.9521    0.0000 H   0  0  0  0  0  0  0  0  0  0  0  0
    0.0000    2.1052    0.0000 H   0  0  0  0  0  0  0  0  0  0  0  0
    0.8469    1.8783    0.0000 H   0  0  0  0  0  0  0  0  0  0  0  0
    7.4762    3.7565    0.0000 H   0  0  0  0  0  0  0  0  0  0  0  0
    0.8660    7.2252    0.0000 H   0  0  0  0  0  0  0  0  0  0  0  0
    7.4952    9.1035    0.0000 H   0  0  0  0  0  0  0  0  0  0  0  0
   10.3345    1.0560    0.0000 H   0  0  0  0  0  0  0  0  0  0  0  0
    7.5286    0.6760    0.0000 H   0  0  0  0  0  0  0  0  0  0  0  0
  1  6  1  0  0  0  0
  1  7  1  0  0  0  0
  1  8  2  0  0  0  0
  1  9  2  0  0  0  0
  2 19  1  0  0  0  0
  2 50  1  0  0  0  0
  3 18  1  0  0  0  0
  3 51  1  0  0  0  0
  4 27  2  0  0  0  0
  5 26  2  0  0  0  0
  6 52  1  0  0  0  0
  7 53  1  0  0  0  0
 10 17  1  0  0  0  0
 10 31  2  0  0  0  0
 11 16  1  0  0  0  0
 11 30  2  0  0  0  0
 12 14  2  0  0  0  0
 12 16  1  0  0  0  0
 12 23  1  0  0  0  0
 13 15  2  0  0  0  0
 13 17  1  0  0  0  0
 13 22  1  0  0  0  0
 14 21  1  0  0  0  0
 14 26  1  0  0  0  0
 15 20  1  0  0  0  0
 15 27  1  0  0  0  0
 16 18  2  0  0  0  0
 17 19  2  0  0  0  0
 18 25  1  0  0  0  0
 19 24  1  0  0  0  0
 20 24  2  0  0  0  0
 20 35  1  0  0  0  0
 21 25  2  0  0  0  0
 21 34  1  0  0  0  0
 22 28  2  0  0  0  0
 22 37  1  0  0  0  0
 23 29  2  0  0  0  0
 23 36  1  0  0  0  0
 24 39  1  0  0  0  0
 25 38  1  0  0  0  0
 26 32  1  0  0  0  0
 27 33  1  0  0  0  0
 28 31  1  0  0  0  0
 28 41  1  0  0  0  0
 29 30  1  0  0  0  0
 29 40  1  0  0  0  0
 30 42  1  0  0  0  0
 31 43  1  0  0  0  0
 32 44  1  0  0  0  0
 32 45  1  0  0  0  0
 32 49  1  0  0  0  0
 33 46  1  0  0  0  0
 33 47  1  0  0  0  0
 33 48  1  0  0  0  0
M  END
> <PUBCHEM_COMPOUND_CID>
171569

> <PUBCHEM_COMPOUND_CANONICALIZED>
1

> <PUBCHEM_CACTVS_COMPLEXITY>
311

> <PUBCHEM_CACTVS_HBOND_ACCEPTOR>
10

> <PUBCHEM_CACTVS_HBOND_DONOR>
4

> <PUBCHEM_CACTVS_ROTATABLE_BOND>
2

> <PUBCHEM_CACTVS_SUBSKEYS>
AAADceB7PABAAAAAAAAAAAAAAAAAAAAAAAA8eIEAAAAAAACx/gAAHgAACAAADAzBngQ+xvIIEoCoA7R3RDSCgCA1YiAI2CE/bNgKJvLSlZOEcQhkwBHY2YeczLDOoAABQAASEABAAAKAACQgAAAAAAAAAA==

> <PUBCHEM_IUPAC_OPENEYE_NAME>
1-(8-hydroxy-5-quinolyl)ethanone; sulfuric acid

> <PUBCHEM_IUPAC_CAS_NAME>
1-(8-hydroxy-5-quinolinyl)ethanone; sulfuric acid

> <PUBCHEM_IUPAC_NAME>
1-(8-hydroxyquinolin-5-yl)ethanone; sulfuric acid

> <PUBCHEM_IUPAC_SYSTEMATIC_NAME>
1-(8-oxidanylquinolin-5-yl)ethanone; sulfuric acid

> <PUBCHEM_IUPAC_TRADITIONAL_NAME>
1-(8-hydroxy-5-quinolyl)ethanone; sulfuric acid

> <PUBCHEM_IUPAC_INCHI>
InChI=1S/2C11H9NO2.H2O4S/c2*1-7(13)8-4-5-10(14)11-9(8)3-2-6-12-11;1-5(2,3)4/h2*2-6,14H,1H3;(H2,1,2,3,4)

> <PUBCHEM_IUPAC_INCHIKEY>
CDEWHBGYSWJUFP-UHFFFAOYSA-N

> <PUBCHEM_EXACT_MASS>
472.094037

> <PUBCHEM_MOLECULAR_FORMULA>
C22H20N2O8S

> <PUBCHEM_MOLECULAR_WEIGHT>
472.4678

> <PUBCHEM_OPENEYE_CAN_SMILES>
CC(=O)C1=C2C=CC=NC2=C(C=C1)O.CC(=O)C1=C2C=CC=NC2=C(C=C1)O.OS(=O)(=O)O

> <PUBCHEM_OPENEYE_ISO_SMILES>
CC(=O)C1=C2C=CC=NC2=C(C=C1)O.CC(=O)C1=C2C=CC=NC2=C(C=C1)O.OS(=O)(=O)O

> <PUBCHEM_CACTVS_TPSA>
183

> <PUBCHEM_MONOISOTOPIC_WEIGHT>
472.094037

> <PUBCHEM_TOTAL_CHARGE>
0

> <PUBCHEM_HEAVY_ATOM_COUNT>
33

> <PUBCHEM_ATOM_DEF_STEREO_COUNT>
0

> <PUBCHEM_ATOM_UDEF_STEREO_COUNT>
0

> <PUBCHEM_BOND_DEF_STEREO_COUNT>
0

> <PUBCHEM_BOND_UDEF_STEREO_COUNT>
0

> <PUBCHEM_ISOTOPIC_ATOM_COUNT>
0

> <PUBCHEM_COMPONENT_COUNT>
3

> <PUBCHEM_CACTVS_TAUTO_COUNT>
28

> <PUBCHEM_COORDINATE_TYPE>
1
5
255

> <PUBCHEM_BONDANNOTATIONS>
10  17  8
10  31  8
11  16  8
11  30  8
12  14  8
12  16  8
12  23  8
13  15  8
13  17  8
13  22  8
14  21  8
15  20  8
16  18  8
17  19  8
18  25  8
19  24  8
20  24  8
21  25  8
22  28  8
23  29  8
28  31  8
29  30  8

$$$$

