6326763
  -OEChem-07051212472D

 63 62  0     1  0  0  0  0  0999 V2000
    4.2690   -1.0950    0.0000 O   0  0  0  0  0  0  0  0  0  0  0  0
    2.5369   -0.0950    0.0000 O   0  0  0  0  0  0  0  0  0  0  0  0
    3.4030    1.4050    0.0000 O   0  0  0  0  0  0  0  0  0  0  0  0
    8.5991    0.4050    0.0000 C   0  0  3  0  0  0  0  0  0  0  0  0
   12.0632    0.4050    0.0000 C   0  0  3  0  0  0  0  0  0  0  0  0
    9.4651   -0.0950    0.0000 C   0  0  0  0  0  0  0  0  0  0  0  0
   11.1972   -0.0950    0.0000 C   0  0  0  0  0  0  0  0  0  0  0  0
   10.3312    0.4050    0.0000 C   0  0  0  0  0  0  0  0  0  0  0  0
    7.7331   -0.0950    0.0000 C   0  0  0  0  0  0  0  0  0  0  0  0
   12.9292   -0.0950    0.0000 C   0  0  0  0  0  0  0  0  0  0  0  0
    6.8671    0.4050    0.0000 C   0  0  0  0  0  0  0  0  0  0  0  0
    6.0010   -0.0950    0.0000 C   0  0  0  0  0  0  0  0  0  0  0  0
   13.7953    0.4050    0.0000 C   0  0  0  0  0  0  0  0  0  0  0  0
    5.1350    0.4050    0.0000 C   0  0  3  0  0  0  0  0  0  0  0  0
    8.5991    1.4050    0.0000 C   0  0  0  0  0  0  0  0  0  0  0  0
   12.0632    1.4050    0.0000 C   0  0  0  0  0  0  0  0  0  0  0  0
   14.6613   -0.0950    0.0000 C   0  0  0  0  0  0  0  0  0  0  0  0
   15.5273    0.4050    0.0000 C   0  0  0  0  0  0  0  0  0  0  0  0
    4.2690   -0.0950    0.0000 C   0  0  1  0  0  0  0  0  0  0  0  0
    5.1350    1.4050    0.0000 C   0  0  0  0  0  0  0  0  0  0  0  0
   16.3933   -0.0950    0.0000 C   0  0  0  0  0  0  0  0  0  0  0  0
   15.5273    1.4050    0.0000 C   0  0  0  0  0  0  0  0  0  0  0  0
    3.4030    0.4050    0.0000 C   0  0  0  0  0  0  0  0  0  0  0  0
    7.8630    0.8300    0.0000 H   0  0  0  0  0  0  0  0  0  0  0  0
   12.7993    0.8300    0.0000 H   0  0  0  0  0  0  0  0  0  0  0  0
    9.0666   -0.5699    0.0000 H   0  0  0  0  0  0  0  0  0  0  0  0
    9.8637   -0.5699    0.0000 H   0  0  0  0  0  0  0  0  0  0  0  0
   10.7987   -0.5699    0.0000 H   0  0  0  0  0  0  0  0  0  0  0  0
   11.5957   -0.5699    0.0000 H   0  0  0  0  0  0  0  0  0  0  0  0
   10.7297    0.8799    0.0000 H   0  0  0  0  0  0  0  0  0  0  0  0
    9.9326    0.8799    0.0000 H   0  0  0  0  0  0  0  0  0  0  0  0
    7.3346   -0.5699    0.0000 H   0  0  0  0  0  0  0  0  0  0  0  0
    8.1316   -0.5699    0.0000 H   0  0  0  0  0  0  0  0  0  0  0  0
   12.5307   -0.5699    0.0000 H   0  0  0  0  0  0  0  0  0  0  0  0
   13.3278   -0.5699    0.0000 H   0  0  0  0  0  0  0  0  0  0  0  0
    7.2656    0.8799    0.0000 H   0  0  0  0  0  0  0  0  0  0  0  0
    6.4685    0.8799    0.0000 H   0  0  0  0  0  0  0  0  0  0  0  0
    5.6025   -0.5699    0.0000 H   0  0  0  0  0  0  0  0  0  0  0  0
    6.3996   -0.5699    0.0000 H   0  0  0  0  0  0  0  0  0  0  0  0
   14.1938    0.8799    0.0000 H   0  0  0  0  0  0  0  0  0  0  0  0
   13.3967    0.8799    0.0000 H   0  0  0  0  0  0  0  0  0  0  0  0
    5.8711    0.8300    0.0000 H   0  0  0  0  0  0  0  0  0  0  0  0
    9.2191    1.4050    0.0000 H   0  0  0  0  0  0  0  0  0  0  0  0
    8.5991    2.0250    0.0000 H   0  0  0  0  0  0  0  0  0  0  0  0
    7.9791    1.4050    0.0000 H   0  0  0  0  0  0  0  0  0  0  0  0
   12.6832    1.4050    0.0000 H   0  0  0  0  0  0  0  0  0  0  0  0
   12.0632    2.0250    0.0000 H   0  0  0  0  0  0  0  0  0  0  0  0
   11.4432    1.4050    0.0000 H   0  0  0  0  0  0  0  0  0  0  0  0
   14.2628   -0.5699    0.0000 H   0  0  0  0  0  0  0  0  0  0  0  0
   15.0598   -0.5699    0.0000 H   0  0  0  0  0  0  0  0  0  0  0  0
   15.5273   -0.2150    0.0000 H   0  0  0  0  0  0  0  0  0  0  0  0
    4.8059   -0.4050    0.0000 H   0  0  0  0  0  0  0  0  0  0  0  0
    5.7550    1.4050    0.0000 H   0  0  0  0  0  0  0  0  0  0  0  0
    5.1350    2.0250    0.0000 H   0  0  0  0  0  0  0  0  0  0  0  0
    4.5150    1.4050    0.0000 H   0  0  0  0  0  0  0  0  0  0  0  0
   16.0833   -0.6319    0.0000 H   0  0  0  0  0  0  0  0  0  0  0  0
   16.9303   -0.4050    0.0000 H   0  0  0  0  0  0  0  0  0  0  0  0
   16.7033    0.4419    0.0000 H   0  0  0  0  0  0  0  0  0  0  0  0
   16.1473    1.4050    0.0000 H   0  0  0  0  0  0  0  0  0  0  0  0
   15.5273    2.0250    0.0000 H   0  0  0  0  0  0  0  0  0  0  0  0
   14.9073    1.4050    0.0000 H   0  0  0  0  0  0  0  0  0  0  0  0
    3.7320   -1.4050    0.0000 H   0  0  0  0  0  0  0  0  0  0  0  0
    2.0000    0.2150    0.0000 H   0  0  0  0  0  0  0  0  0  0  0  0
 19  1  1  6  0  0  0
  1 62  1  0  0  0  0
  2 23  1  0  0  0  0
  2 63  1  0  0  0  0
  3 23  2  0  0  0  0
  4  6  1  0  0  0  0
  4  9  1  0  0  0  0
  4 15  1  0  0  0  0
  4 24  1  0  0  0  0
  5  7  1  0  0  0  0
  5 10  1  0  0  0  0
  5 16  1  0  0  0  0
  5 25  1  0  0  0  0
  6  8  1  0  0  0  0
  6 26  1  0  0  0  0
  6 27  1  0  0  0  0
  7  8  1  0  0  0  0
  7 28  1  0  0  0  0
  7 29  1  0  0  0  0
  8 30  1  0  0  0  0
  8 31  1  0  0  0  0
  9 11  1  0  0  0  0
  9 32  1  0  0  0  0
  9 33  1  0  0  0  0
 10 13  1  0  0  0  0
 10 34  1  0  0  0  0
 10 35  1  0  0  0  0
 11 12  1  0  0  0  0
 11 36  1  0  0  0  0
 11 37  1  0  0  0  0
 12 14  1  0  0  0  0
 12 38  1  0  0  0  0
 12 39  1  0  0  0  0
 13 17  1  0  0  0  0
 13 40  1  0  0  0  0
 13 41  1  0  0  0  0
 14 19  1  0  0  0  0
 14 20  1  0  0  0  0
 14 42  1  0  0  0  0
 15 43  1  0  0  0  0
 15 44  1  0  0  0  0
 15 45  1  0  0  0  0
 16 46  1  0  0  0  0
 16 47  1  0  0  0  0
 16 48  1  0  0  0  0
 17 18  1  0  0  0  0
 17 49  1  0  0  0  0
 17 50  1  0  0  0  0
 18 21  1  0  0  0  0
 18 22  1  0  0  0  0
 18 51  1  0  0  0  0
 19 23  1  0  0  0  0
 19 52  1  0  0  0  0
 20 53  1  0  0  0  0
 20 54  1  0  0  0  0
 20 55  1  0  0  0  0
 21 56  1  0  0  0  0
 21 57  1  0  0  0  0
 21 58  1  0  0  0  0
 22 59  1  0  0  0  0
 22 60  1  0  0  0  0
 22 61  1  0  0  0  0
M  END
> <PUBCHEM_COMPOUND_CID>
6326763

> <PUBCHEM_COMPOUND_CANONICALIZED>
1

> <PUBCHEM_CACTVS_COMPLEXITY>
301

> <PUBCHEM_CACTVS_HBOND_ACCEPTOR>
3

> <PUBCHEM_CACTVS_HBOND_DONOR>
2

> <PUBCHEM_CACTVS_ROTATABLE_BOND>
14

> <PUBCHEM_CACTVS_SUBSKEYS>
AAADcfB4MAAAAAAAAAAAAAAAAAAAAAAAAAAAAAAAAAAAAAAAAAAAGgAACAAADRSggAICCAAAAgAIAACQCAIAAAAAAAAAAAFAAAABEBIAAAAAQAAEAAABAAGIyOCOAAAAAAAAAAAAAAAAAAAAAAAAAAAAAA==

> <PUBCHEM_IUPAC_OPENEYE_NAME>
(2S)-2-hydroxy-3,7,11,15-tetramethyl-hexadecanoic acid

> <PUBCHEM_IUPAC_CAS_NAME>
(2S)-2-hydroxy-3,7,11,15-tetramethylhexadecanoic acid

> <PUBCHEM_IUPAC_NAME>
(2S)-2-hydroxy-3,7,11,15-tetramethylhexadecanoic acid

> <PUBCHEM_IUPAC_SYSTEMATIC_NAME>
(2S)-3,7,11,15-tetramethyl-2-oxidanyl-hexadecanoic acid

> <PUBCHEM_IUPAC_TRADITIONAL_NAME>
(2S)-2-hydroxy-3,7,11,15-tetramethyl-palmitic acid

> <PUBCHEM_IUPAC_INCHI>
InChI=1S/C20H40O3/c1-15(2)9-6-10-16(3)11-7-12-17(4)13-8-14-18(5)19(21)20(22)23/h15-19,21H,6-14H2,1-5H3,(H,22,23)/t16?,17?,18?,19-/m0/s1

> <PUBCHEM_IUPAC_INCHIKEY>
CGKMKXBKVBXUGK-LFVBFMBRSA-N

> <PUBCHEM_XLOGP3_AA>
7.6

> <PUBCHEM_EXACT_MASS>
328.297745

> <PUBCHEM_MOLECULAR_FORMULA>
C20H40O3

> <PUBCHEM_MOLECULAR_WEIGHT>
328.5298

> <PUBCHEM_OPENEYE_CAN_SMILES>
CC(C)CCCC(C)CCCC(C)CCCC(C)C(C(=O)O)O

> <PUBCHEM_OPENEYE_ISO_SMILES>
CC(C)CCCC(C)CCCC(C)CCCC(C)[C@@H](C(=O)O)O

> <PUBCHEM_CACTVS_TPSA>
57.5

> <PUBCHEM_MONOISOTOPIC_WEIGHT>
328.297745

> <PUBCHEM_TOTAL_CHARGE>
0

> <PUBCHEM_HEAVY_ATOM_COUNT>
23

> <PUBCHEM_ATOM_DEF_STEREO_COUNT>
1

> <PUBCHEM_ATOM_UDEF_STEREO_COUNT>
3

> <PUBCHEM_BOND_DEF_STEREO_COUNT>
0

> <PUBCHEM_BOND_UDEF_STEREO_COUNT>
0

> <PUBCHEM_ISOTOPIC_ATOM_COUNT>
0

> <PUBCHEM_COMPONENT_COUNT>
1

> <PUBCHEM_CACTVS_TAUTO_COUNT>
1

> <PUBCHEM_COORDINATE_TYPE>
1
5
255

> <PUBCHEM_BONDANNOTATIONS>
19  1  6
14  42  3
4  24  3
5  25  3

$$$$

