10416
  -OEChem-06261204323D

 52 52  0     0  0  0  0  0  0999 V2000
   -6.0699    3.9088    0.0290 O   0  0  0  0  0  0  0  0  0  0  0  0
   -7.0046    1.8399    0.0302 O   0  0  0  0  0  0  0  0  0  0  0  0
    1.3861   -3.8187    0.0076 C   0  0  0  0  0  0  0  0  0  0  0  0
    0.0909   -3.9416    0.0295 C   0  0  0  0  0  0  0  0  0  0  0  0
    0.8592   -5.1470    0.0539 C   0  0  0  0  0  0  0  0  0  0  0  0
    2.6819   -3.0804   -0.0365 C   0  0  0  0  0  0  0  0  0  0  0  0
   -1.2694   -3.4782    0.0301 C   0  0  0  0  0  0  0  0  0  0  0  0
    2.5185   -1.5586   -0.0237 C   0  0  0  0  0  0  0  0  0  0  0  0
   -1.4031   -1.9334    0.0084 C   0  0  0  0  0  0  0  0  0  0  0  0
    3.8572   -0.8120    0.0013 C   0  0  0  0  0  0  0  0  0  0  0  0
   -2.8580   -1.4595   -0.0351 C   0  0  0  0  0  0  0  0  0  0  0  0
    3.6438    0.7039   -0.0158 C   0  0  0  0  0  0  0  0  0  0  0  0
   -3.0026    0.0652   -0.0690 C   0  0  0  0  0  0  0  0  0  0  0  0
    4.9499    1.5035   -0.0046 C   0  0  0  0  0  0  0  0  0  0  0  0
    4.7375    3.0183   -0.0480 C   0  0  0  0  0  0  0  0  0  0  0  0
   -4.4605    0.5374   -0.0439 C   0  0  0  0  0  0  0  0  0  0  0  0
    6.0688    3.7662    0.0386 C   0  0  0  0  0  0  0  0  0  0  0  0
   -4.5786    2.0624   -0.0109 C   0  0  0  0  0  0  0  0  0  0  0  0
    5.8627    5.2726    0.0342 C   0  0  0  0  0  0  0  0  0  0  0  0
   -6.0096    2.5512    0.0248 C   0  0  0  0  0  0  0  0  0  0  0  0
    0.9255   -5.6705    0.9945 H   0  0  0  0  0  0  0  0  0  0  0  0
    0.8993   -5.7247   -0.8559 H   0  0  0  0  0  0  0  0  0  0  0  0
    3.2840   -3.3883    0.8263 H   0  0  0  0  0  0  0  0  0  0  0  0
    3.2293   -3.3831   -0.9366 H   0  0  0  0  0  0  0  0  0  0  0  0
   -1.7849   -3.8626    0.9181 H   0  0  0  0  0  0  0  0  0  0  0  0
   -1.7919   -3.8897   -0.8414 H   0  0  0  0  0  0  0  0  0  0  0  0
    1.9273   -1.2627    0.8527 H   0  0  0  0  0  0  0  0  0  0  0  0
    1.9464   -1.2492   -0.9079 H   0  0  0  0  0  0  0  0  0  0  0  0
   -0.8708   -1.5366   -0.8657 H   0  0  0  0  0  0  0  0  0  0  0  0
   -0.9119   -1.5152    0.8963 H   0  0  0  0  0  0  0  0  0  0  0  0
    4.4202   -1.0950    0.8985 H   0  0  0  0  0  0  0  0  0  0  0  0
    4.4584   -1.1078   -0.8666 H   0  0  0  0  0  0  0  0  0  0  0  0
   -3.3863   -1.8515    0.8428 H   0  0  0  0  0  0  0  0  0  0  0  0
   -3.3515   -1.8854   -0.9173 H   0  0  0  0  0  0  0  0  0  0  0  0
    3.0671    0.9770   -0.9083 H   0  0  0  0  0  0  0  0  0  0  0  0
    3.0391    0.9942    0.8523 H   0  0  0  0  0  0  0  0  0  0  0  0
   -2.5103    0.4551   -0.9684 H   0  0  0  0  0  0  0  0  0  0  0  0
   -2.4736    0.4919    0.7922 H   0  0  0  0  0  0  0  0  0  0  0  0
    5.5165    1.2421    0.8978 H   0  0  0  0  0  0  0  0  0  0  0  0
    5.5641    1.2014   -0.8620 H   0  0  0  0  0  0  0  0  0  0  0  0
    4.0923    3.3197    0.7861 H   0  0  0  0  0  0  0  0  0  0  0  0
    4.2172    3.2902   -0.9742 H   0  0  0  0  0  0  0  0  0  0  0  0
   -4.9865    0.1463   -0.9236 H   0  0  0  0  0  0  0  0  0  0  0  0
   -4.9657    0.1156    0.8341 H   0  0  0  0  0  0  0  0  0  0  0  0
    6.5984    3.4806    0.9549 H   0  0  0  0  0  0  0  0  0  0  0  0
    6.7082    3.4866   -0.8067 H   0  0  0  0  0  0  0  0  0  0  0  0
   -4.1008    2.4839   -0.9024 H   0  0  0  0  0  0  0  0  0  0  0  0
   -4.0700    2.4499    0.8790 H   0  0  0  0  0  0  0  0  0  0  0  0
    6.8268    5.7872    0.0950 H   0  0  0  0  0  0  0  0  0  0  0  0
    5.3615    5.5970   -0.8834 H   0  0  0  0  0  0  0  0  0  0  0  0
    5.2547    5.5880    0.8880 H   0  0  0  0  0  0  0  0  0  0  0  0
   -6.9955    4.2333    0.0426 H   0  0  0  0  0  0  0  0  0  0  0  0
  1 20  1  0  0  0  0
  1 52  1  0  0  0  0
  2 20  2  0  0  0  0
  3  4  2  0  0  0  0
  3  5  1  0  0  0  0
  3  6  1  0  0  0  0
  4  5  1  0  0  0  0
  4  7  1  0  0  0  0
  5 21  1  0  0  0  0
  5 22  1  0  0  0  0
  6  8  1  0  0  0  0
  6 23  1  0  0  0  0
  6 24  1  0  0  0  0
  7  9  1  0  0  0  0
  7 25  1  0  0  0  0
  7 26  1  0  0  0  0
  8 10  1  0  0  0  0
  8 27  1  0  0  0  0
  8 28  1  0  0  0  0
  9 11  1  0  0  0  0
  9 29  1  0  0  0  0
  9 30  1  0  0  0  0
 10 12  1  0  0  0  0
 10 31  1  0  0  0  0
 10 32  1  0  0  0  0
 11 13  1  0  0  0  0
 11 33  1  0  0  0  0
 11 34  1  0  0  0  0
 12 14  1  0  0  0  0
 12 35  1  0  0  0  0
 12 36  1  0  0  0  0
 13 16  1  0  0  0  0
 13 37  1  0  0  0  0
 13 38  1  0  0  0  0
 14 15  1  0  0  0  0
 14 39  1  0  0  0  0
 14 40  1  0  0  0  0
 15 17  1  0  0  0  0
 15 41  1  0  0  0  0
 15 42  1  0  0  0  0
 16 18  1  0  0  0  0
 16 43  1  0  0  0  0
 16 44  1  0  0  0  0
 17 19  1  0  0  0  0
 17 45  1  0  0  0  0
 17 46  1  0  0  0  0
 18 20  1  0  0  0  0
 18 47  1  0  0  0  0
 18 48  1  0  0  0  0
 19 49  1  0  0  0  0
 19 50  1  0  0  0  0
 19 51  1  0  0  0  0
M  END
> <PUBCHEM_COMPOUND_CID>
10416

> <PUBCHEM_CONFORMER_RMSD>
1.4

> <PUBCHEM_CONFORMER_DIVERSEORDER>
1
99
62
37
88
2
97
68
59
34
8
61
41
60
22
100
73
57
5
78
70
49
24
52
23
58
18
55
56
42
82
25
77
74
98
13
81
45
93
20
28
84
51
10
7
54
6
89
11
69
14
31
17
66
16
79
53
91
63
43
9
35
71
21
94
26
75
12
101
19
48
33
72
50
39
87
80
38
32
85
3
67
46
90
40
65
15
83
4
92
29
76
47
44
30
96
64
27
86
95
36

> <PUBCHEM_MMFF94_PARTIAL_CHARGES>
12
1 -0.65
18 0.06
2 -0.57
20 0.66
21 0.1
22 0.1
3 -0.18
4 -0.18
5 -0.12
52 0.5
6 0.14
7 0.14

> <PUBCHEM_EFFECTIVE_ROTOR_COUNT>
14.2

> <PUBCHEM_PHARMACOPHORE_FEATURES>
6
1 1 acceptor
1 19 hydrophobe
1 2 acceptor
3 1 2 20 anion
3 13 16 18 hydrophobe
3 7 9 11 hydrophobe

> <PUBCHEM_HEAVY_ATOM_COUNT>
20

> <PUBCHEM_ATOM_DEF_STEREO_COUNT>
0

> <PUBCHEM_ATOM_UDEF_STEREO_COUNT>
0

> <PUBCHEM_BOND_DEF_STEREO_COUNT>
0

> <PUBCHEM_BOND_UDEF_STEREO_COUNT>
0

> <PUBCHEM_ISOTOPIC_ATOM_COUNT>
0

> <PUBCHEM_COMPONENT_COUNT>
1

> <PUBCHEM_CACTVS_TAUTO_COUNT>
1

> <PUBCHEM_CONFORMER_ID>
000028B000000001

> <PUBCHEM_MMFF94_ENERGY>
34.4974

> <PUBCHEM_FEATURE_SELFOVERLAP>
30.504

> <PUBCHEM_SHAPE_FINGERPRINT>
10675989 125 18337668749469723448
10937287 8 18410575059152400586
11059845 2 18049191928975035920
11374522 174 18271507750213371348
11386260 185 17831024889923509567
11761917 142 17831870049610294184
12107183 9 18270135530812801298
14223995 32 18262527970952695648
14251764 75 18408879633622925025
14429114 114 18409732837624562737
15142526 21 18272087244918620387
15400415 2 18410856529692186868
155225 5 17977946787598346552
155225 6 18410853265632742313
1768 85 18267577091307461465
21388113 180 18410851066513937049
5047190 36 17845362259219711068
5047190 47 17404880627259945037
5047190 92 18410573960020165253
53794403 172 18337953505648304783
5951187 136 18188764071663276062
7808743 9 18122346770797718298
9849439 229 18341047436974356262

> <PUBCHEM_SHAPE_MULTIPOLES>
399.85
17.16
9.07
0.61
5.17
1.19
0
-37.29
0.11
-4.47
0.18
-0.06
0.03
0.01

> <PUBCHEM_SHAPE_SELFOVERLAP>
752.145

> <PUBCHEM_SHAPE_VOLUME>
249.4

> <PUBCHEM_COORDINATE_TYPE>
2
5
10

$$$$

