11825
  -OEChem-06261206103D

 26 27  0     0  0  0  0  0  0999 V2000
   -2.5966    2.7859   -0.0006 O   0  5  0  0  0  0  0  0  0  0  0  0
   -0.5489    1.9947    0.0019 O   0  0  0  0  0  0  0  0  0  0  0  0
    4.7784    0.0334   -1.0982 O   0  5  0  0  0  0  0  0  0  0  0  0
    4.7792    0.0318    1.0970 O   0  0  0  0  0  0  0  0  0  0  0  0
   -1.7905    1.8268    0.0006 N   0  3  0  0  0  0  0  0  0  0  0  0
    4.1740   -0.0299   -0.0005 N   0  3  0  0  0  0  0  0  0  0  0  0
   -1.4527   -0.6094    0.0007 C   0  0  0  0  0  0  0  0  0  0  0  0
   -0.0136   -0.4615    0.0004 C   0  0  0  0  0  0  0  0  0  0  0  0
   -2.3038    0.4986    0.0010 C   0  0  0  0  0  0  0  0  0  0  0  0
    0.6797   -0.3886   -1.2077 C   0  0  0  0  0  0  0  0  0  0  0  0
    0.6806   -0.3911    1.2083 C   0  0  0  0  0  0  0  0  0  0  0  0
   -1.9940   -1.8974   -0.0005 C   0  0  0  0  0  0  0  0  0  0  0  0
    2.7614   -0.1753   -0.0002 C   0  0  0  0  0  0  0  0  0  0  0  0
    2.0673   -0.2457   -1.2080 C   0  0  0  0  0  0  0  0  0  0  0  0
    2.0681   -0.2480    1.2079 C   0  0  0  0  0  0  0  0  0  0  0  0
   -3.6872    0.3197    0.0002 C   0  0  0  0  0  0  0  0  0  0  0  0
   -3.3774   -2.0763   -0.0013 C   0  0  0  0  0  0  0  0  0  0  0  0
   -4.2240   -0.9679   -0.0010 C   0  0  0  0  0  0  0  0  0  0  0  0
    0.1536   -0.4416   -2.1580 H   0  0  0  0  0  0  0  0  0  0  0  0
    0.1551   -0.4462    2.1589 H   0  0  0  0  0  0  0  0  0  0  0  0
   -1.3507   -2.7746   -0.0010 H   0  0  0  0  0  0  0  0  0  0  0  0
    2.5741   -0.1922   -2.1680 H   0  0  0  0  0  0  0  0  0  0  0  0
    2.5757   -0.1965    2.1678 H   0  0  0  0  0  0  0  0  0  0  0  0
   -4.3821    1.1556    0.0001 H   0  0  0  0  0  0  0  0  0  0  0  0
   -3.7954   -3.0787   -0.0024 H   0  0  0  0  0  0  0  0  0  0  0  0
   -5.3011   -1.1078   -0.0018 H   0  0  0  0  0  0  0  0  0  0  0  0
  1  5  1  0  0  0  0
  2  5  2  0  0  0  0
  3  6  1  0  0  0  0
  4  6  2  0  0  0  0
  5  9  1  0  0  0  0
  6 13  1  0  0  0  0
  7  8  1  0  0  0  0
  7  9  1  0  0  0  0
  7 12  2  0  0  0  0
  8 10  2  0  0  0  0
  8 11  1  0  0  0  0
  9 16  2  0  0  0  0
 10 14  1  0  0  0  0
 10 19  1  0  0  0  0
 11 15  2  0  0  0  0
 11 20  1  0  0  0  0
 12 17  1  0  0  0  0
 12 21  1  0  0  0  0
 13 14  2  0  0  0  0
 13 15  1  0  0  0  0
 14 22  1  0  0  0  0
 15 23  1  0  0  0  0
 16 18  1  0  0  0  0
 16 24  1  0  0  0  0
 17 18  2  0  0  0  0
 17 25  1  0  0  0  0
 18 26  1  0  0  0  0
M  CHG  4   1  -1   3  -1   5   1   6   1
M  END
> <PUBCHEM_COMPOUND_CID>
11825

> <PUBCHEM_CONFORMER_RMSD>
0.6

> <PUBCHEM_CONFORMER_DIVERSEORDER>
1

> <PUBCHEM_MMFF94_PARTIAL_CHARGES>
24
1 -0.52
10 -0.15
11 -0.15
12 -0.15
13 0.13
14 -0.15
15 -0.15
16 -0.15
17 -0.15
18 -0.15
19 0.15
2 -0.52
20 0.15
21 0.15
22 0.15
23 0.15
24 0.15
25 0.15
26 0.15
3 -0.52
4 -0.52
5 0.91
6 0.91
9 0.13

> <PUBCHEM_EFFECTIVE_ROTOR_COUNT>
3

> <PUBCHEM_PHARMACOPHORE_FEATURES>
8
1 1 acceptor
1 1 anion
1 2 acceptor
1 3 acceptor
1 3 anion
1 4 acceptor
6 7 9 12 16 17 18 rings
6 8 10 11 13 14 15 rings

> <PUBCHEM_HEAVY_ATOM_COUNT>
18

> <PUBCHEM_ATOM_DEF_STEREO_COUNT>
0

> <PUBCHEM_ATOM_UDEF_STEREO_COUNT>
0

> <PUBCHEM_BOND_DEF_STEREO_COUNT>
0

> <PUBCHEM_BOND_UDEF_STEREO_COUNT>
0

> <PUBCHEM_ISOTOPIC_ATOM_COUNT>
0

> <PUBCHEM_COMPONENT_COUNT>
1

> <PUBCHEM_CACTVS_TAUTO_COUNT>
1

> <PUBCHEM_CONFORMER_ID>
00002E3100000001

> <PUBCHEM_MMFF94_ENERGY>
70.7722

> <PUBCHEM_FEATURE_SELFOVERLAP>
40.758

> <PUBCHEM_SHAPE_FINGERPRINT>
11132069 177 18334850637027521157
12107183 9 17694793213219429210
12186901 62 18334855047568602620
12236239 1 17704355463650573459
12390115 104 17971459939683130689
12403814 3 17894918382064282295
12670546 56 18340497741654007266
13140716 1 18266452106255130691
13581323 91 18411983559195689422
13583140 156 17897191150436087482
13760787 5 16056881334405427158
14115302 16 17703505481075075415
14289901 80 18413387644492879930
15219456 202 17822006561938765358
15653759 3 18186804664490761914
16945 1 18410856577457988199
17862501 102 18060426815458783922
18175812 5 17749392512017075719
19026448 4 18113899377532533646
19026448 5 18131070450623511426
200 152 16630530609326950479
20344682 1 17822008696801203799
20510252 161 18261954158504210249
20645477 70 16443339914792879254
21267235 1 18341322298076198035
22094290 60 18408601452754202834
2297311 6 18335969905151645542
23175994 123 16877655755900442642
23402539 116 18409175393856093039
23419403 2 17982760513517907477
23493267 7 18188491401226953978
23557571 272 18187634834456113028
23559900 14 18262231252793757118
2748010 2 18193567662335398193
474 4 17130133209990193548
573450 72 18272099330781894282
633830 44 14346069790185841972
77492 1 17704069611769716407
81228 2 18337938078684634961

> <PUBCHEM_SHAPE_MULTIPOLES>
336.99
8.18
1.86
1.05
5.94
1.07
0
-1.14
0
-2.62
0
1.01
-0.12
0

> <PUBCHEM_SHAPE_SELFOVERLAP>
739.625

> <PUBCHEM_SHAPE_VOLUME>
182.6

> <PUBCHEM_COORDINATE_TYPE>
2
5
10

$$$$

