12638
  -OEChem-06261207112D

 14 14  0     0  0  0  0  0  0999 V2000
    3.7320    0.6830    0.0000 O   0  0  0  0  0  0  0  0  0  0  0  0
    2.0000    0.6830    0.0000 O   0  0  0  0  0  0  0  0  0  0  0  0
    2.8660   -0.8170    0.0000 N   0  0  0  0  0  0  0  0  0  0  0  0
    2.3660   -1.6830    0.0000 C   0  0  0  0  0  0  0  0  0  0  0  0
    3.3660   -1.6830    0.0000 C   0  0  0  0  0  0  0  0  0  0  0  0
    2.8660    0.1830    0.0000 C   0  0  0  0  0  0  0  0  0  0  0  0
    3.7320    1.6830    0.0000 C   0  0  0  0  0  0  0  0  0  0  0  0
    1.7834   -1.4710    0.0000 H   0  0  0  0  0  0  0  0  0  0  0  0
    2.2584   -2.2936    0.0000 H   0  0  0  0  0  0  0  0  0  0  0  0
    3.4737   -2.2936    0.0000 H   0  0  0  0  0  0  0  0  0  0  0  0
    3.9486   -1.4710    0.0000 H   0  0  0  0  0  0  0  0  0  0  0  0
    4.3520    1.6830    0.0000 H   0  0  0  0  0  0  0  0  0  0  0  0
    3.7320    2.3030    0.0000 H   0  0  0  0  0  0  0  0  0  0  0  0
    3.1120    1.6830    0.0000 H   0  0  0  0  0  0  0  0  0  0  0  0
  1  6  1  0  0  0  0
  1  7  1  0  0  0  0
  2  6  2  0  0  0  0
  3  4  1  0  0  0  0
  3  5  1  0  0  0  0
  3  6  1  0  0  0  0
  4  5  1  0  0  0  0
  4  8  1  0  0  0  0
  4  9  1  0  0  0  0
  5 10  1  0  0  0  0
  5 11  1  0  0  0  0
  7 12  1  0  0  0  0
  7 13  1  0  0  0  0
  7 14  1  0  0  0  0
M  END
> <PUBCHEM_COMPOUND_CID>
12638

> <PUBCHEM_COMPOUND_CANONICALIZED>
1

> <PUBCHEM_CACTVS_COMPLEXITY>
87.7

> <PUBCHEM_CACTVS_HBOND_ACCEPTOR>
2

> <PUBCHEM_CACTVS_HBOND_DONOR>
0

> <PUBCHEM_CACTVS_ROTATABLE_BOND>
1

> <PUBCHEM_CACTVS_SUBSKEYS>
AAADcYBiMAAAAAAAAAAAAAAAFgAAAAAAAAAAAAAAAAAAAAAAAAAAHgAAAAAAAADBAAYCCAMABAAIAAAAGAAAAAAAAAAAAAAIAAAAAAAAAAAAAAAABgAAAAAAAAAAAAAAAAAAAAAAAAAAAAAAAAAAAAAAAA==

> <PUBCHEM_IUPAC_OPENEYE_NAME>
methyl aziridine-1-carboxylate

> <PUBCHEM_IUPAC_CAS_NAME>
1-aziridinecarboxylic acid methyl ester

> <PUBCHEM_IUPAC_NAME>
methyl aziridine-1-carboxylate

> <PUBCHEM_IUPAC_SYSTEMATIC_NAME>
methyl aziridine-1-carboxylate

> <PUBCHEM_IUPAC_TRADITIONAL_NAME>
ethylenimine-1-carboxylic acid methyl ester

> <PUBCHEM_IUPAC_INCHI>
InChI=1S/C4H7NO2/c1-7-4(6)5-2-3-5/h2-3H2,1H3

> <PUBCHEM_IUPAC_INCHIKEY>
UYCMTEJRGMIQLS-UHFFFAOYSA-N

> <PUBCHEM_XLOGP3_AA>
-0.1

> <PUBCHEM_EXACT_MASS>
101.047678

> <PUBCHEM_MOLECULAR_FORMULA>
C4H7NO2

> <PUBCHEM_MOLECULAR_WEIGHT>
101.10388

> <PUBCHEM_OPENEYE_CAN_SMILES>
COC(=O)N1CC1

> <PUBCHEM_OPENEYE_ISO_SMILES>
COC(=O)N1CC1

> <PUBCHEM_CACTVS_TPSA>
29.3

> <PUBCHEM_MONOISOTOPIC_WEIGHT>
101.047678

> <PUBCHEM_TOTAL_CHARGE>
0

> <PUBCHEM_HEAVY_ATOM_COUNT>
7

> <PUBCHEM_ATOM_DEF_STEREO_COUNT>
0

> <PUBCHEM_ATOM_UDEF_STEREO_COUNT>
0

> <PUBCHEM_BOND_DEF_STEREO_COUNT>
0

> <PUBCHEM_BOND_UDEF_STEREO_COUNT>
0

> <PUBCHEM_ISOTOPIC_ATOM_COUNT>
0

> <PUBCHEM_COMPONENT_COUNT>
1

> <PUBCHEM_CACTVS_TAUTO_COUNT>
1

> <PUBCHEM_COORDINATE_TYPE>
1
5
255

$$$$

