13233
  -OEChem-06261207553D

 30 30  0     0  0  0  0  0  0999 V2000
   -1.1910    0.6965    1.0022 S   0  0  0  0  0  0  0  0  0  0  0  0
   -0.0002   -1.9629    0.0009 S   0  0  0  0  0  0  0  0  0  0  0  0
    1.1908    0.6959   -1.0024 S   0  0  0  0  0  0  0  0  0  0  0  0
   -1.4595   -0.8504    0.0610 C   0  0  0  0  0  0  0  0  0  0  0  0
    0.0001    1.6561    0.0000 C   0  0  0  0  0  0  0  0  0  0  0  0
    1.4593   -0.8506   -0.0609 C   0  0  0  0  0  0  0  0  0  0  0  0
   -2.0239   -0.6364   -1.3481 C   0  0  0  0  0  0  0  0  0  0  0  0
   -2.5223   -1.6233    0.8725 C   0  0  0  0  0  0  0  0  0  0  0  0
   -0.7874    2.5680   -0.9580 C   0  0  0  0  0  0  0  0  0  0  0  0
    0.7881    2.5677    0.9579 C   0  0  0  0  0  0  0  0  0  0  0  0
    2.5212   -1.6244   -0.8729 C   0  0  0  0  0  0  0  0  0  0  0  0
    2.0248   -0.6362    1.3478 C   0  0  0  0  0  0  0  0  0  0  0  0
   -1.3012   -0.2142   -2.0498 H   0  0  0  0  0  0  0  0  0  0  0  0
   -2.3591   -1.5851   -1.7869 H   0  0  0  0  0  0  0  0  0  0  0  0
   -2.8993    0.0239   -1.3292 H   0  0  0  0  0  0  0  0  0  0  0  0
   -2.1930   -1.8428    1.8966 H   0  0  0  0  0  0  0  0  0  0  0  0
   -3.4615   -1.0590    0.9416 H   0  0  0  0  0  0  0  0  0  0  0  0
   -2.7744   -2.5814    0.3993 H   0  0  0  0  0  0  0  0  0  0  0  0
   -1.4875    3.2126   -0.4112 H   0  0  0  0  0  0  0  0  0  0  0  0
   -0.1176    3.2396   -1.5105 H   0  0  0  0  0  0  0  0  0  0  0  0
   -1.3696    2.0143   -1.7001 H   0  0  0  0  0  0  0  0  0  0  0  0
    1.4885    3.2119    0.4110 H   0  0  0  0  0  0  0  0  0  0  0  0
    0.1186    3.2397    1.5102 H   0  0  0  0  0  0  0  0  0  0  0  0
    1.3700    2.0139    1.7002 H   0  0  0  0  0  0  0  0  0  0  0  0
    2.7733   -2.5824   -0.3995 H   0  0  0  0  0  0  0  0  0  0  0  0
    2.1911   -1.8441   -1.8967 H   0  0  0  0  0  0  0  0  0  0  0  0
    3.4606   -1.0605   -0.9429 H   0  0  0  0  0  0  0  0  0  0  0  0
    2.9002    0.0240    1.3279 H   0  0  0  0  0  0  0  0  0  0  0  0
    1.3025   -0.2137    2.0497 H   0  0  0  0  0  0  0  0  0  0  0  0
    2.3602   -1.5847    1.7866 H   0  0  0  0  0  0  0  0  0  0  0  0
  1  4  1  0  0  0  0
  1  5  1  0  0  0  0
  2  4  1  0  0  0  0
  2  6  1  0  0  0  0
  3  5  1  0  0  0  0
  3  6  1  0  0  0  0
  4  7  1  0  0  0  0
  4  8  1  0  0  0  0
  5  9  1  0  0  0  0
  5 10  1  0  0  0  0
  6 11  1  0  0  0  0
  6 12  1  0  0  0  0
  7 13  1  0  0  0  0
  7 14  1  0  0  0  0
  7 15  1  0  0  0  0
  8 16  1  0  0  0  0
  8 17  1  0  0  0  0
  8 18  1  0  0  0  0
  9 19  1  0  0  0  0
  9 20  1  0  0  0  0
  9 21  1  0  0  0  0
 10 22  1  0  0  0  0
 10 23  1  0  0  0  0
 10 24  1  0  0  0  0
 11 25  1  0  0  0  0
 11 26  1  0  0  0  0
 11 27  1  0  0  0  0
 12 28  1  0  0  0  0
 12 29  1  0  0  0  0
 12 30  1  0  0  0  0
M  END
> <PUBCHEM_COMPOUND_CID>
13233

> <PUBCHEM_CONFORMER_RMSD>
0.4

> <PUBCHEM_CONFORMER_DIVERSEORDER>
1
2
3

> <PUBCHEM_MMFF94_PARTIAL_CHARGES>
6
1 -0.46
2 -0.46
3 -0.46
4 0.46
5 0.46
6 0.46

> <PUBCHEM_EFFECTIVE_ROTOR_COUNT>
1.2

> <PUBCHEM_PHARMACOPHORE_FEATURES>
4
3 4 7 8 hydrophobe
3 5 9 10 hydrophobe
3 6 11 12 hydrophobe
6 1 2 3 4 5 6 rings

> <PUBCHEM_HEAVY_ATOM_COUNT>
12

> <PUBCHEM_ATOM_DEF_STEREO_COUNT>
0

> <PUBCHEM_ATOM_UDEF_STEREO_COUNT>
0

> <PUBCHEM_BOND_DEF_STEREO_COUNT>
0

> <PUBCHEM_BOND_UDEF_STEREO_COUNT>
0

> <PUBCHEM_ISOTOPIC_ATOM_COUNT>
0

> <PUBCHEM_COMPONENT_COUNT>
1

> <PUBCHEM_CACTVS_TAUTO_COUNT>
1

> <PUBCHEM_CONFORMER_ID>
000033B100000001

> <PUBCHEM_MMFF94_ENERGY>
49.7277

> <PUBCHEM_FEATURE_SELFOVERLAP>
20.297

> <PUBCHEM_SHAPE_FINGERPRINT>
1 1 17688873038250207765
100427 49 18409163281715755239
11129358 1 12867216187717142096
12326174 3 18124037819031968954
12423570 1 10804498942231814580
12524768 44 18264773155587881315
14181834 199 18050028613319201079
14817 1 11274884786744371101
15775835 57 17045990715656842561
15852999 172 16691598885108572569
15881359 60 18053945340294427745
16945 1 17618279104610754530
18185500 45 18338221704833403215
20645476 183 17267481221376086142
20711985 344 18194687187751378267
21061003 4 18411693258056105851
21922407 69 15189030307719952688
21947302 44 17912392864846443263
22802520 49 17900523881538049518
23419403 2 17047180683712152660
23559900 14 17396979532819040766
241688 4 18336816597777024042
2748010 2 18340773641478116503
430814 3 17328848908128343229
5084963 1 16613641354598979540
528862 383 17978789004693521707
54338 74 18128828610190145587
66348 1 18194113027933093411
7364860 26 17972865973871761770
81228 2 18194124237787284152

> <PUBCHEM_SHAPE_MULTIPOLES>
258.5
3.01
2.96
1.38
0
1.63
0
-1.91
0
0
0
0
0.15
0.41

> <PUBCHEM_SHAPE_SELFOVERLAP>
459.992

> <PUBCHEM_SHAPE_VOLUME>
170.3

> <PUBCHEM_COORDINATE_TYPE>
2
5
10

$$$$

