441537
  -OEChem-07051212553D

 53 55  0     1  0  0  0  0  0999 V2000
    1.8815   -0.8895    2.2617 S   0  0  0  0  0  0  0  0  0  0  0  0
   -2.8056    2.9919   -0.4447 S   0  0  0  0  0  0  0  0  0  0  0  0
    1.4405   -3.9373   -0.7814 S   0  0  0  0  0  0  0  0  0  0  0  0
    2.0641    0.0045   -0.2503 O   0  0  0  0  0  0  0  0  0  0  0  0
    5.0519    2.7343    0.4637 O   0  0  0  0  0  0  0  0  0  0  0  0
    3.5150    2.8561   -2.0269 O   0  0  0  0  0  0  0  0  0  0  0  0
    3.4070    1.8136    2.6473 O   0  0  0  0  0  0  0  0  0  0  0  0
    0.7100   -0.2471   -2.6261 O   0  0  0  0  0  0  0  0  0  0  0  0
   -1.7334    4.0529    0.2143 O   0  0  0  0  0  0  0  0  0  0  0  0
    1.5216   -2.7899    0.3766 O   0  0  0  0  0  0  0  0  0  0  0  0
   -4.1455    3.4298   -0.0540 O   0  0  0  0  0  0  0  0  0  0  0  0
   -2.4569    2.8211   -1.8537 O   0  0  0  0  0  0  0  0  0  0  0  0
    2.9950   -4.0839   -1.2499 O   0  0  0  0  0  0  0  0  0  0  0  0
    1.0493   -5.1880   -0.1584 O   0  0  0  0  0  0  0  0  0  0  0  0
    0.6915   -3.4039   -1.9037 O   0  0  0  0  0  0  0  0  0  0  0  0
   -2.5933    1.4898    0.2443 N   0  0  0  0  0  0  0  0  0  0  0  0
    0.2504   -2.4150    0.8156 N   0  0  0  0  0  0  0  0  0  0  0  0
    3.7009    2.2939    0.3131 C   0  0  1  0  0  0  0  0  0  0  0  0
    3.4923    1.7678   -1.1074 C   0  0  1  0  0  0  0  0  0  0  0  0
    3.4409    1.2036    1.3574 C   0  0  2  0  0  0  0  0  0  0  0  0
    2.1468    1.0467   -1.2232 C   0  0  1  0  0  0  0  0  0  0  0  0
    2.1088    0.4963    1.0889 C   0  0  2  0  0  0  0  0  0  0  0  0
    1.9651    0.4076   -2.5963 C   0  0  0  0  0  0  0  0  0  0  0  0
   -0.8671   -0.8621    2.4400 C   0  0  0  0  0  0  0  0  0  0  0  0
    0.3156   -1.5038    1.7352 C   0  0  0  0  0  0  0  0  0  0  0  0
   -1.7465   -0.1196    1.4768 C   0  0  0  0  0  0  0  0  0  0  0  0
   -2.8454   -0.6608    0.7808 C   0  0  0  0  0  0  0  0  0  0  0  0
   -3.3674    0.3767    0.0055 C   0  0  0  0  0  0  0  0  0  0  0  0
   -1.6028    1.1926    1.1413 C   0  0  0  0  0  0  0  0  0  0  0  0
   -3.4608   -1.9271    0.7220 C   0  0  0  0  0  0  0  0  0  0  0  0
   -4.4784    0.2108   -0.8291 C   0  0  0  0  0  0  0  0  0  0  0  0
   -4.5729   -2.1079   -0.1084 C   0  0  0  0  0  0  0  0  0  0  0  0
   -5.0722   -1.0540   -0.8712 C   0  0  0  0  0  0  0  0  0  0  0  0
    3.0665    3.1705    0.4939 H   0  0  0  0  0  0  0  0  0  0  0  0
    4.3139    1.0903   -1.3719 H   0  0  0  0  0  0  0  0  0  0  0  0
    4.2784    0.4936    1.3416 H   0  0  0  0  0  0  0  0  0  0  0  0
    1.3152    1.7457   -1.0584 H   0  0  0  0  0  0  0  0  0  0  0  0
    1.2807    1.1914    1.2540 H   0  0  0  0  0  0  0  0  0  0  0  0
    1.9978    1.1448   -3.4040 H   0  0  0  0  0  0  0  0  0  0  0  0
    2.7317   -0.3520   -2.7799 H   0  0  0  0  0  0  0  0  0  0  0  0
    5.1543    3.0518    1.3772 H   0  0  0  0  0  0  0  0  0  0  0  0
    4.3653    3.3143   -1.9139 H   0  0  0  0  0  0  0  0  0  0  0  0
    3.2246    1.1116    3.2950 H   0  0  0  0  0  0  0  0  0  0  0  0
   -1.4356   -1.6655    2.9240 H   0  0  0  0  0  0  0  0  0  0  0  0
   -0.5406   -0.1873    3.2398 H   0  0  0  0  0  0  0  0  0  0  0  0
   -0.8927    1.9389    1.4687 H   0  0  0  0  0  0  0  0  0  0  0  0
    0.0219    0.4244   -2.4806 H   0  0  0  0  0  0  0  0  0  0  0  0
   -3.0841   -2.7602    1.3086 H   0  0  0  0  0  0  0  0  0  0  0  0
   -4.8743    1.0228   -1.4292 H   0  0  0  0  0  0  0  0  0  0  0  0
   -5.0512   -3.0825   -0.1582 H   0  0  0  0  0  0  0  0  0  0  0  0
   -5.9365   -1.2169   -1.5099 H   0  0  0  0  0  0  0  0  0  0  0  0
   -1.8617    4.2358    1.1749 H   0  0  0  0  0  0  0  0  0  0  0  0
    3.6509   -4.1602   -0.5178 H   0  0  0  0  0  0  0  0  0  0  0  0
  1 22  1  0  0  0  0
  1 25  1  0  0  0  0
  2  9  1  0  0  0  0
  2 11  2  0  0  0  0
  2 12  2  0  0  0  0
  2 16  1  0  0  0  0
  3 10  1  0  0  0  0
  3 13  1  0  0  0  0
  3 14  2  0  0  0  0
  3 15  2  0  0  0  0
  4 21  1  0  0  0  0
  4 22  1  0  0  0  0
  5 18  1  0  0  0  0
  5 41  1  0  0  0  0
  6 19  1  0  0  0  0
  6 42  1  0  0  0  0
  7 20  1  0  0  0  0
  7 43  1  0  0  0  0
  8 23  1  0  0  0  0
  8 47  1  0  0  0  0
  9 52  1  0  0  0  0
 10 17  1  0  0  0  0
 13 53  1  0  0  0  0
 16 28  1  0  0  0  0
 16 29  1  0  0  0  0
 17 25  2  0  0  0  0
 18 19  1  0  0  0  0
 18 20  1  0  0  0  0
 18 34  1  0  0  0  0
 19 21  1  0  0  0  0
 19 35  1  0  0  0  0
 20 22  1  0  0  0  0
 20 36  1  0  0  0  0
 21 23  1  0  0  0  0
 21 37  1  0  0  0  0
 22 38  1  0  0  0  0
 23 39  1  0  0  0  0
 23 40  1  0  0  0  0
 24 25  1  0  0  0  0
 24 26  1  0  0  0  0
 24 44  1  0  0  0  0
 24 45  1  0  0  0  0
 26 27  1  0  0  0  0
 26 29  2  0  0  0  0
 27 28  1  0  0  0  0
 27 30  2  0  0  0  0
 28 31  2  0  0  0  0
 29 46  1  0  0  0  0
 30 32  1  0  0  0  0
 30 48  1  0  0  0  0
 31 33  1  0  0  0  0
 31 49  1  0  0  0  0
 32 33  2  0  0  0  0
 32 50  1  0  0  0  0
 33 51  1  0  0  0  0
M  END
> <PUBCHEM_COMPOUND_CID>
441537

> <PUBCHEM_CONFORMER_RMSD>
1

> <PUBCHEM_CONFORMER_DIVERSEORDER>
1
61
190
227
11
176
226
130
181
62
183
101
136
56
212
30
239
170
191
224
132
76
73
134
15
37
125
160
138
203
213
223
100
178
93
78
133
236
217
173
116
241
121
228
220
201
214
8
166
145
52
67
233
49
209
36
60
229
110
24
144
187
5
216
143
16
47
42
88
113
14
225
148
50
194
51
154
150
219
75
38
156
206
159
46
140
210
99
70
198
175
202
172
139
242
221
131
151
55
106
39
17
193
44
171
165
129
230
162
128
108
102
26
21
196
118
124
218
204
155
64
69
57
85
27
72
142
237
115
200
137
180
43
174
104
41
79
123
232
2
158
86
195
3
40
74
31
81
186
112
96
32
45
184
163
207
208
58
29
25
114
68
141
146
188
97
185
126
222
103
54
161
117
135
147
167
48
33
105
169
240
179
9
34
234
10
215
211
89
182
66
77
153
20
80
109
164
91
92
53
12
65
197
238
149
71
157
23
28
94
63
205
6
177
87
83
35
18
84
199
82
119
95
13
107
4
235
19
22
120
189
127
111
7
152
122
98
168
192
231
90
59

> <PUBCHEM_MMFF94_PARTIAL_CHARGES>
43
1 -0.37
10 -0.12
11 -0.65
12 -0.65
13 -0.68
14 -0.65
15 -0.65
16 0.32
17 -0.51
18 0.28
19 0.28
2 1.47
20 0.28
21 0.28
22 0.51
23 0.28
24 0.24
25 0.53
26 -0.18
28 -0.15
29 -0.3
3 1.67
30 -0.15
31 -0.15
32 -0.15
33 -0.15
4 -0.56
41 0.4
42 0.4
43 0.4
46 0.15
47 0.4
48 0.15
49 0.15
5 -0.68
50 0.15
51 0.15
52 0.5
53 0.5
6 -0.68
7 -0.68
8 -0.68
9 -0.68

> <PUBCHEM_EFFECTIVE_ROTOR_COUNT>
9.2

> <PUBCHEM_PHARMACOPHORE_FEATURES>
21
1 11 acceptor
1 12 acceptor
1 13 acceptor
1 14 acceptor
1 15 acceptor
1 17 acceptor
1 4 acceptor
1 5 acceptor
1 5 donor
1 6 acceptor
1 6 donor
1 7 acceptor
1 7 donor
1 8 acceptor
1 8 donor
1 9 acceptor
4 2 9 11 12 anion
4 3 13 14 15 anion
5 16 26 27 28 29 rings
6 27 28 30 31 32 33 rings
6 4 18 19 20 21 22 rings

> <PUBCHEM_HEAVY_ATOM_COUNT>
33

> <PUBCHEM_ATOM_DEF_STEREO_COUNT>
5

> <PUBCHEM_ATOM_UDEF_STEREO_COUNT>
0

> <PUBCHEM_BOND_DEF_STEREO_COUNT>
0

> <PUBCHEM_BOND_UDEF_STEREO_COUNT>
1

> <PUBCHEM_ISOTOPIC_ATOM_COUNT>
0

> <PUBCHEM_COMPONENT_COUNT>
1

> <PUBCHEM_CACTVS_TAUTO_COUNT>
1

> <PUBCHEM_CONFORMER_ID>
0006BCC100000001

> <PUBCHEM_MMFF94_ENERGY>
71.8226

> <PUBCHEM_FEATURE_SELFOVERLAP>
106.785

> <PUBCHEM_SHAPE_FINGERPRINT>
10670039 82 18201997699390092480
11513181 2 18413390960197160686
12156800 1 13935680867453195317
12788726 201 17192347838328940378
14790565 3 18051142681689226945
15664445 248 18335976455599172873
17980427 23 18055381225022939600
20511986 3 17271746987189843276
20715895 44 17273442602208700061
20775438 99 17905364975843184357
235170 7 17822285752177867469
23559900 14 18045232775970473667
238 59 18339059545747975790
26353 1 17688575487643990002
340366 18 17832707147045643355
35225 105 18055074259563305628
44802255 64 17979899533571619774
46194498 28 18337675342429099795
469060 322 17751945539642154965
6287921 2 18269558393680008771
6669772 16 17386864811552536650

> <PUBCHEM_SHAPE_MULTIPOLES>
610.28
8.78
5.51
2.42
3.1
3.63
-0.14
-4.8
-1
-1.42
-2.08
-1.94
0.12
0.82

> <PUBCHEM_SHAPE_SELFOVERLAP>
1254.779

> <PUBCHEM_SHAPE_VOLUME>
353.3

> <PUBCHEM_COORDINATE_TYPE>
2
5
10

$$$$

