91677
  -OEChem-07051213013D

 29 30  0     1  0  0  0  0  0999 V2000
   -3.9364    0.6679   -1.6078 Cl  0  0  0  0  0  0  0  0  0  0  0  0
   -5.4566   -1.9388    0.5499 Cl  0  0  0  0  0  0  0  0  0  0  0  0
    4.9872   -0.6151   -0.0934 F   0  0  0  0  0  0  0  0  0  0  0  0
    3.6462   -1.9634    0.9497 F   0  0  0  0  0  0  0  0  0  0  0  0
    3.5744   -1.8253   -1.2193 F   0  0  0  0  0  0  0  0  0  0  0  0
   -2.0946    2.5004    0.2814 O   0  0  0  0  0  0  0  0  0  0  0  0
   -1.0279    0.3718    0.1162 N   0  0  0  0  0  0  0  0  0  0  0  0
   -2.9430   -0.9353    0.4489 C   0  0  1  0  0  0  0  0  0  0  0  0
   -1.5009   -0.9931   -0.0347 C   0  0  0  0  0  0  0  0  0  0  0  0
   -3.3842    0.4783    0.0699 C   0  0  1  0  0  0  0  0  0  0  0  0
   -2.1042    1.2804    0.1952 C   0  0  0  0  0  0  0  0  0  0  0  0
   -3.7994   -2.0790   -0.0694 C   0  0  0  0  0  0  0  0  0  0  0  0
    0.3609    0.6990    0.0996 C   0  0  0  0  0  0  0  0  0  0  0  0
    1.3220   -0.3129    0.0178 C   0  0  0  0  0  0  0  0  0  0  0  0
    0.7689    2.0344    0.1650 C   0  0  0  0  0  0  0  0  0  0  0  0
    2.6794    0.0082    0.0016 C   0  0  0  0  0  0  0  0  0  0  0  0
    2.1261    2.3554    0.1487 C   0  0  0  0  0  0  0  0  0  0  0  0
    3.0814    1.3423    0.0670 C   0  0  0  0  0  0  0  0  0  0  0  0
    3.7010   -1.0750   -0.0863 C   0  0  0  0  0  0  0  0  0  0  0  0
   -2.9206   -0.9863    1.5485 H   0  0  0  0  0  0  0  0  0  0  0  0
   -0.9368   -1.6917    0.5904 H   0  0  0  0  0  0  0  0  0  0  0  0
   -1.4212   -1.2779   -1.0898 H   0  0  0  0  0  0  0  0  0  0  0  0
   -4.1486    0.8697    0.7473 H   0  0  0  0  0  0  0  0  0  0  0  0
   -3.4018   -3.0382    0.2778 H   0  0  0  0  0  0  0  0  0  0  0  0
   -3.8424   -2.1180   -1.1615 H   0  0  0  0  0  0  0  0  0  0  0  0
    1.0501   -1.3619   -0.0469 H   0  0  0  0  0  0  0  0  0  0  0  0
    0.0846    2.8694    0.2283 H   0  0  0  0  0  0  0  0  0  0  0  0
    2.4402    3.3940    0.1992 H   0  0  0  0  0  0  0  0  0  0  0  0
    4.1338    1.6123    0.0554 H   0  0  0  0  0  0  0  0  0  0  0  0
  1 10  1  0  0  0  0
  2 12  1  0  0  0  0
  3 19  1  0  0  0  0
  4 19  1  0  0  0  0
  5 19  1  0  0  0  0
  6 11  2  0  0  0  0
  7  9  1  0  0  0  0
  7 11  1  0  0  0  0
  7 13  1  0  0  0  0
  8  9  1  0  0  0  0
  8 10  1  0  0  0  0
  8 12  1  0  0  0  0
  8 20  1  0  0  0  0
  9 21  1  0  0  0  0
  9 22  1  0  0  0  0
 10 11  1  0  0  0  0
 10 23  1  0  0  0  0
 12 24  1  0  0  0  0
 12 25  1  0  0  0  0
 13 14  1  0  0  0  0
 13 15  2  0  0  0  0
 14 16  2  0  0  0  0
 14 26  1  0  0  0  0
 15 17  1  0  0  0  0
 15 27  1  0  0  0  0
 16 18  1  0  0  0  0
 16 19  1  0  0  0  0
 17 18  2  0  0  0  0
 17 28  1  0  0  0  0
 18 29  1  0  0  0  0
M  END
> <PUBCHEM_COMPOUND_CID>
91677

> <PUBCHEM_CONFORMER_RMSD>
0.6

> <PUBCHEM_CONFORMER_DIVERSEORDER>
1
48
30
24
41
28
27
43
19
35
12
8
33
49
36
25
26
32
16
47
22
21
38
23
17
14
46
13
44
11
2
9
42
40
5
18
7
3
10
34
37
15
6
39
31
45
20
29
4

> <PUBCHEM_MMFF94_PARTIAL_CHARGES>
22
1 -0.29
10 0.35
11 0.57
12 0.29
13 0.12
14 -0.15
15 -0.15
16 -0.14
17 -0.15
18 -0.15
19 1.16
2 -0.29
26 0.15
27 0.15
28 0.15
29 0.15
3 -0.34
4 -0.34
5 -0.34
6 -0.57
7 -0.48
9 0.3

> <PUBCHEM_EFFECTIVE_ROTOR_COUNT>
3.8

> <PUBCHEM_PHARMACOPHORE_FEATURES>
3
1 6 acceptor
5 7 8 9 10 11 rings
6 13 14 15 16 17 18 rings

> <PUBCHEM_HEAVY_ATOM_COUNT>
19

> <PUBCHEM_ATOM_DEF_STEREO_COUNT>
0

> <PUBCHEM_ATOM_UDEF_STEREO_COUNT>
2

> <PUBCHEM_BOND_DEF_STEREO_COUNT>
0

> <PUBCHEM_BOND_UDEF_STEREO_COUNT>
0

> <PUBCHEM_ISOTOPIC_ATOM_COUNT>
0

> <PUBCHEM_COMPONENT_COUNT>
1

> <PUBCHEM_CACTVS_TAUTO_COUNT>
2

> <PUBCHEM_CONFORMER_ID>
0001661D00000001

> <PUBCHEM_MMFF94_ENERGY>
46.0633

> <PUBCHEM_FEATURE_SELFOVERLAP>
15.223

> <PUBCHEM_SHAPE_FINGERPRINT>
10616163 171 18408882966359576758
11405975 8 18411700993656007977
11543360 7 16630231542037465086
11806522 49 18412824664469321568
12032990 46 18409444791004750984
12403259 226 18412550898785295157
12553582 1 18267861873061025282
12916754 54 18409726232096451129
13140716 1 18335138747359965632
13296908 3 18413109437638076153
13533116 47 18189893120155738075
13544653 18 18270393868251808219
15196674 1 18410855434706712609
15342816 4 18343015640609332270
15442244 35 18409728508186856168
15536298 74 18336266760527568848
17492 89 18409448076723979799
17804303 29 18410005555062548141
18186145 218 18131639975855429721
193927 3 18260259767724690774
200 152 17822302288039067733
20281475 54 18409442562175551089
20645477 70 18408882910762047510
21267235 1 18409720742748730866
21279426 13 18341901779928122775
21501502 16 18409720751291387649
21501925 9 18335710450888973264
221490 88 18340483370302927616
22646028 28 18408322168326903203
23402539 116 18188781659828945021
23557571 272 17702957924448097157
23558518 356 18341322362326848801
23559900 14 18410020918013171888
27216 239 8142086481479160639
2871803 45 18201726098490129723
312423 11 18337657647036986353
335352 9 18338234981126078093
4214541 1 18411699898328447457
465052 167 18261945233583664335
5104073 3 18335139791094807481
5281201 14 18059577945126828493
633830 44 14692283010380058838
7364860 26 18262237703824202848
8809292 202 18342452642925616843
9709674 26 18270116790857528075

> <PUBCHEM_SHAPE_MULTIPOLES>
362.08
9.93
2.57
0.88
1.96
0.33
0.27
-5.98
0.36
-0.28
-0.18
0.44
-0.06
0.78

> <PUBCHEM_SHAPE_SELFOVERLAP>
751.691

> <PUBCHEM_SHAPE_VOLUME>
210

> <PUBCHEM_COORDINATE_TYPE>
2
5
10

$$$$

