25550
  -OEChem-07051213133D

 29 29  0     0  0  0  0  0  0999 V2000
    1.2812    0.1091   -0.9320 O   0  0  0  0  0  0  0  0  0  0  0  0
    1.9180    0.2542    1.2994 O   0  0  0  0  0  0  0  0  0  0  0  0
    3.5079    0.1512   -0.3869 N   0  0  0  0  0  0  0  0  0  0  0  0
   -0.7009   -1.0550   -0.2481 C   0  0  0  0  0  0  0  0  0  0  0  0
   -2.0345   -1.0135    0.1592 C   0  0  0  0  0  0  0  0  0  0  0  0
   -0.0216    0.1296   -0.5328 C   0  0  0  0  0  0  0  0  0  0  0  0
   -2.0092    1.3969   -0.0028 C   0  0  0  0  0  0  0  0  0  0  0  0
   -2.6885    0.2124    0.2818 C   0  0  0  0  0  0  0  0  0  0  0  0
   -0.6758    1.3555   -0.4101 C   0  0  0  0  0  0  0  0  0  0  0  0
    0.0051   -2.3664   -0.3817 C   0  0  0  0  0  0  0  0  0  0  0  0
   -2.7840   -2.2676    0.4696 C   0  0  0  0  0  0  0  0  0  0  0  0
   -2.7084    2.7077    0.1284 C   0  0  0  0  0  0  0  0  0  0  0  0
    2.2221    0.1782    0.1126 C   0  0  0  0  0  0  0  0  0  0  0  0
    4.6885    0.2077    0.4434 C   0  0  0  0  0  0  0  0  0  0  0  0
   -3.7277    0.2499    0.5997 H   0  0  0  0  0  0  0  0  0  0  0  0
   -0.1413    2.2761   -0.6319 H   0  0  0  0  0  0  0  0  0  0  0  0
   -0.6217   -3.1044   -0.8930 H   0  0  0  0  0  0  0  0  0  0  0  0
    0.9206   -2.2951   -0.9775 H   0  0  0  0  0  0  0  0  0  0  0  0
    0.2761   -2.7496    0.6074 H   0  0  0  0  0  0  0  0  0  0  0  0
   -2.9575   -2.8460   -0.4436 H   0  0  0  0  0  0  0  0  0  0  0  0
   -2.2374   -2.8814    1.1930 H   0  0  0  0  0  0  0  0  0  0  0  0
   -3.7629   -2.0540    0.9133 H   0  0  0  0  0  0  0  0  0  0  0  0
   -2.6073    3.0865    1.1503 H   0  0  0  0  0  0  0  0  0  0  0  0
   -2.2933    3.4492   -0.5626 H   0  0  0  0  0  0  0  0  0  0  0  0
   -3.7737    2.6117   -0.1074 H   0  0  0  0  0  0  0  0  0  0  0  0
    3.6309    0.0864   -1.3927 H   0  0  0  0  0  0  0  0  0  0  0  0
    5.2709   -0.7004    0.2700 H   0  0  0  0  0  0  0  0  0  0  0  0
    4.4287    0.2853    1.5017 H   0  0  0  0  0  0  0  0  0  0  0  0
    5.2767    1.0775    0.1409 H   0  0  0  0  0  0  0  0  0  0  0  0
  1  6  1  0  0  0  0
  1 13  1  0  0  0  0
  2 13  2  0  0  0  0
  3 13  1  0  0  0  0
  3 14  1  0  0  0  0
  3 26  1  0  0  0  0
  4  5  2  0  0  0  0
  4  6  1  0  0  0  0
  4 10  1  0  0  0  0
  5  8  1  0  0  0  0
  5 11  1  0  0  0  0
  6  9  2  0  0  0  0
  7  8  2  0  0  0  0
  7  9  1  0  0  0  0
  7 12  1  0  0  0  0
  8 15  1  0  0  0  0
  9 16  1  0  0  0  0
 10 17  1  0  0  0  0
 10 18  1  0  0  0  0
 10 19  1  0  0  0  0
 11 20  1  0  0  0  0
 11 21  1  0  0  0  0
 11 22  1  0  0  0  0
 12 23  1  0  0  0  0
 12 24  1  0  0  0  0
 12 25  1  0  0  0  0
 14 27  1  0  0  0  0
 14 28  1  0  0  0  0
 14 29  1  0  0  0  0
M  END
> <PUBCHEM_COMPOUND_CID>
25550

> <PUBCHEM_CONFORMER_RMSD>
0.6

> <PUBCHEM_CONFORMER_DIVERSEORDER>
2
11
13
12
10
18
9
15
17
16
20
14
7
3
8
19
5
6
4
1

> <PUBCHEM_MMFF94_PARTIAL_CHARGES>
17
1 -0.23
10 0.14
11 0.14
12 0.14
13 0.78
14 0.3
15 0.15
16 0.15
2 -0.57
26 0.37
3 -0.73
4 -0.14
5 -0.14
6 0.08
7 -0.14
8 -0.15
9 -0.15

> <PUBCHEM_EFFECTIVE_ROTOR_COUNT>
3

> <PUBCHEM_PHARMACOPHORE_FEATURES>
3
1 2 acceptor
1 3 donor
6 4 5 6 7 8 9 rings

> <PUBCHEM_HEAVY_ATOM_COUNT>
14

> <PUBCHEM_ATOM_DEF_STEREO_COUNT>
0

> <PUBCHEM_ATOM_UDEF_STEREO_COUNT>
0

> <PUBCHEM_BOND_DEF_STEREO_COUNT>
0

> <PUBCHEM_BOND_UDEF_STEREO_COUNT>
0

> <PUBCHEM_ISOTOPIC_ATOM_COUNT>
0

> <PUBCHEM_COMPONENT_COUNT>
1

> <PUBCHEM_CACTVS_TAUTO_COUNT>
2

> <PUBCHEM_CONFORMER_ID>
000063CE00000002

> <PUBCHEM_MMFF94_ENERGY>
37.0525

> <PUBCHEM_FEATURE_SELFOVERLAP>
15.223

> <PUBCHEM_SHAPE_FINGERPRINT>
11357001 24 18343577417772632555
12251169 10 18272085019560655349
12423570 1 11381822673660863445
12500047 106 18339085998382609736
13024252 1 14045747036417170429
13140716 1 18267009558624104321
13380535 21 18265604562456223926
13380535 76 18266462181931856847
14420673 8 18052543459360543626
14614273 12 18342741866287203709
15076042 46 18341327782279605319
15219456 202 18113892818848493102
15775835 57 18341612676150634056
16945 1 18339630205557388485
19049666 15 17969211399474725022
19422 9 18060416898532252010
20510252 161 18334009467192138856
20645464 45 17967811639362303340
20871998 184 18335134250560627751
21501502 16 18266185117654840167
21524375 3 18046637973210493229
21650355 55 18267305331051161947
22445834 79 17846223284181623034
23175994 123 17167853171851310896
2334 1 17978218362796343581
23402539 116 18261118418219704855
23419403 2 15723087050290675303
23526113 38 17676769885230202068
23559900 14 18188766288610192438
23598291 2 17846488215376930372
2748010 2 17981587575698352997
305870 269 18195246843549149555
3071541 236 18272375299842457785
43471831 8 18343303686427524714
5706482 22 18339369668176974099
7364860 26 17829327243590330351
77492 1 17632569431883757292
84936 182 17541106797540650825

> <PUBCHEM_SHAPE_MULTIPOLES>
271.39
6
2.43
0.84
7.71
0.17
-0.07
-1.13
-1.22
-2.96
-0.03
0.25
0.01
0.23

> <PUBCHEM_SHAPE_SELFOVERLAP>
558.034

> <PUBCHEM_SHAPE_VOLUME>
157.6

> <PUBCHEM_COORDINATE_TYPE>
2
5
10

$$$$

