327
  -OEChem-07051212453D

 32 34  0     0  0  0  0  0  0999 V2000
   -1.4975    3.4763   -0.0414 O   0  0  0  0  0  0  0  0  0  0  0  0
    1.2534    3.7369   -0.3541 O   0  0  0  0  0  0  0  0  0  0  0  0
   -0.0960   -2.8007   -1.6552 O   0  0  0  0  0  0  0  0  0  0  0  0
    4.4404   -2.0676    0.4534 O   0  0  0  0  0  0  0  0  0  0  0  0
    0.2144   -3.3140    0.5516 O   0  0  0  0  0  0  0  0  0  0  0  0
   -5.1538    0.7256    0.3340 O   0  0  0  0  0  0  0  0  0  0  0  0
    5.6748   -0.1909    0.1725 O   0  0  0  0  0  0  0  0  0  0  0  0
   -5.1851   -1.5587    0.2260 O   0  0  0  0  0  0  0  0  0  0  0  0
    2.0787   -0.7229    0.2223 N   0  0  0  0  0  0  0  0  0  0  0  0
   -2.5821    0.8944    0.1325 N   0  0  0  0  0  0  0  0  0  0  0  0
   -0.3409   -0.1062   -0.0228 C   0  0  0  0  0  0  0  0  0  0  0  0
    1.0602    0.1610   -0.0085 C   0  0  0  0  0  0  0  0  0  0  0  0
    1.6180    1.4230   -0.0981 C   0  0  0  0  0  0  0  0  0  0  0  0
   -1.2179    1.1176    0.0272 C   0  0  0  0  0  0  0  0  0  0  0  0
   -0.9279   -1.3314   -0.0925 C   0  0  0  0  0  0  0  0  0  0  0  0
   -0.6805    2.3587   -0.0605 C   0  0  0  0  0  0  0  0  0  0  0  0
    0.7984    2.6105   -0.1990 C   0  0  0  0  0  0  0  0  0  0  0  0
    3.0246    1.2770   -0.0410 C   0  0  0  0  0  0  0  0  0  0  0  0
    3.2818   -0.0615    0.1572 C   0  0  0  0  0  0  0  0  0  0  0  0
   -3.1353   -0.3590    0.1266 C   0  0  0  0  0  0  0  0  0  0  0  0
   -2.3839   -1.4642    0.0152 C   0  0  0  0  0  0  0  0  0  0  0  0
   -0.2056   -2.5932   -0.3292 C   0  0  0  0  0  0  0  0  0  0  0  0
    4.5494   -0.7145    0.2521 C   0  0  0  0  0  0  0  0  0  0  0  0
   -4.5876   -0.4960    0.2315 C   0  0  0  0  0  0  0  0  0  0  0  0
    1.9844   -1.7160    0.3812 H   0  0  0  0  0  0  0  0  0  0  0  0
    3.7649    2.0625   -0.1111 H   0  0  0  0  0  0  0  0  0  0  0  0
   -3.1977    1.6978    0.1783 H   0  0  0  0  0  0  0  0  0  0  0  0
   -2.8081   -2.4631    0.0018 H   0  0  0  0  0  0  0  0  0  0  0  0
   -0.9243    4.2583   -0.1210 H   0  0  0  0  0  0  0  0  0  0  0  0
    0.3817   -3.6325   -1.8606 H   0  0  0  0  0  0  0  0  0  0  0  0
    5.3209   -2.4959    0.5155 H   0  0  0  0  0  0  0  0  0  0  0  0
   -6.1307    0.6741    0.4066 H   0  0  0  0  0  0  0  0  0  0  0  0
  1 16  1  0  0  0  0
  1 29  1  0  0  0  0
  2 17  2  0  0  0  0
  3 22  1  0  0  0  0
  3 30  1  0  0  0  0
  4 23  1  0  0  0  0
  4 31  1  0  0  0  0
  5 22  2  0  0  0  0
  6 24  1  0  0  0  0
  6 32  1  0  0  0  0
  7 23  2  0  0  0  0
  8 24  2  0  0  0  0
  9 12  1  0  0  0  0
  9 19  1  0  0  0  0
  9 25  1  0  0  0  0
 10 14  1  0  0  0  0
 10 20  1  0  0  0  0
 10 27  1  0  0  0  0
 11 12  1  0  0  0  0
 11 14  1  0  0  0  0
 11 15  2  0  0  0  0
 12 13  2  0  0  0  0
 13 17  1  0  0  0  0
 13 18  1  0  0  0  0
 14 16  2  0  0  0  0
 15 21  1  0  0  0  0
 15 22  1  0  0  0  0
 16 17  1  0  0  0  0
 18 19  2  0  0  0  0
 18 26  1  0  0  0  0
 19 23  1  0  0  0  0
 20 21  2  0  0  0  0
 20 24  1  0  0  0  0
 21 28  1  0  0  0  0
M  END
> <PUBCHEM_COMPOUND_CID>
327

> <PUBCHEM_CONFORMER_RMSD>
0.6

> <PUBCHEM_CONFORMER_DIVERSEORDER>
1
4
3
2

> <PUBCHEM_MMFF94_PARTIAL_CHARGES>
32
1 -0.53
10 -0.6
11 0.05
12 -0.2
13 -0.09
14 0.1
15 0.01
16 0.09
17 0.64
18 -0.15
19 -0.24
2 -0.57
20 0.11
21 -0.15
22 0.71
23 0.81
24 0.71
25 0.27
26 0.15
27 0.4
28 0.15
29 0.45
3 -0.65
30 0.5
31 0.5
32 0.5
4 -0.65
5 -0.57
6 -0.65
7 -0.57
8 -0.57
9 0.03

> <PUBCHEM_EFFECTIVE_ROTOR_COUNT>
3

> <PUBCHEM_PHARMACOPHORE_FEATURES>
18
1 1 donor
1 10 cation
1 10 donor
1 2 acceptor
1 3 acceptor
1 4 acceptor
1 5 acceptor
1 6 acceptor
1 7 acceptor
1 8 acceptor
1 9 cation
1 9 donor
3 3 5 22 anion
3 4 7 23 anion
3 6 8 24 anion
5 9 12 13 18 19 rings
6 10 11 14 15 20 21 rings
6 11 12 13 14 16 17 rings

> <PUBCHEM_HEAVY_ATOM_COUNT>
24

> <PUBCHEM_ATOM_DEF_STEREO_COUNT>
0

> <PUBCHEM_ATOM_UDEF_STEREO_COUNT>
0

> <PUBCHEM_BOND_DEF_STEREO_COUNT>
0

> <PUBCHEM_BOND_UDEF_STEREO_COUNT>
0

> <PUBCHEM_ISOTOPIC_ATOM_COUNT>
0

> <PUBCHEM_COMPONENT_COUNT>
1

> <PUBCHEM_CACTVS_TAUTO_COUNT>
106

> <PUBCHEM_CONFORMER_ID>
0000014700000001

> <PUBCHEM_MMFF94_ENERGY>
67.9831

> <PUBCHEM_FEATURE_SELFOVERLAP>
91.622

> <PUBCHEM_SHAPE_FINGERPRINT>
10411042 1 18411982472436808866
10906281 52 18268970129289838033
10967382 1 18267021665488188332
1100329 8 18339643317517874554
11578080 2 16953665935564124434
12236239 1 17918274268655213678
12403260 363 18335984152201627399
12507560 14 18334854978917957413
12553582 1 18339093609644841950
12715332 25 18187366484830991055
12788726 201 18114443600991344320
13140716 1 18337665318133420425
138480 1 14952658723884151204
13862211 1 18410579478594457999
14022347 108 18342171172782209930
14178342 30 18116702118033523825
14790565 3 18411128134875905060
15042514 8 18196376050960767784
15099037 51 18411981338607946119
15196674 1 18411418376054420521
15420108 30 17969502787652829023
15442244 35 18193277394943545159
16728300 4 17700436924294789322
16945 1 17545602253962164581
17492 89 17978793406945920275
1813 80 17632863027543169820
19319366 153 17917710159361790378
19591789 44 18338799026058574874
20028762 73 18114744811722835479
20510252 161 18261677090295944088
20642791 35 18266171739486107356
20739085 24 18198318725057286353
20905425 154 17975973486058859830
21029758 27 18343298154530207156
21267235 1 18411973659517481826
21421861 104 17912923070090597475
21709351 56 18410301289937272031
22182313 1 18117273872569168751
23184049 59 18337389348988076935
2334 1 18192990414130127285
23402539 116 18261118464915478431
23559900 14 18263366898092215888
23566358 2 18050289472991006797
2748010 2 18337960111524270892
3178227 256 18341319012605363883
335352 9 18410855447285464839
34934 24 18194121815990315844
350125 39 18410572907473953704
4340502 62 14129053699596079501
465052 167 18342730776681924579
5104073 3 18337104562881842777
6138700 20 18410853304403329974
7832392 63 18049442535109334852

> <PUBCHEM_SHAPE_MULTIPOLES>
436.99
8.63
3.73
0.71
0.12
1.23
0.14
-2.86
-1.59
-0.34
0.49
-0.01
-0.3
-0.34

> <PUBCHEM_SHAPE_SELFOVERLAP>
983.502

> <PUBCHEM_SHAPE_VOLUME>
227.8

> <PUBCHEM_COORDINATE_TYPE>
2
5
10

$$$$

