6600
  -OEChem-06261201243D

  9  8  0     0  0  0  0  0  0999 V2000
   -2.0875   -0.4714    1.2624 Cl  0  0  0  0  0  0  0  0  0  0  0  0
   -1.0571    1.5014   -0.0038 F   0  0  0  0  0  0  0  0  0  0  0  0
   -1.7226   -0.1472   -1.2524 F   0  0  0  0  0  0  0  0  0  0  0  0
    0.3280   -1.8272   -0.1369 F   0  0  0  0  0  0  0  0  0  0  0  0
    2.5890   -0.4570    0.0788 F   0  0  0  0  0  0  0  0  0  0  0  0
    1.3882    1.5418    0.1189 F   0  0  0  0  0  0  0  0  0  0  0  0
   -1.1004    0.1440   -0.0781 C   0  0  0  0  0  0  0  0  0  0  0  0
    0.2553   -0.4782   -0.0418 C   0  0  0  0  0  0  0  0  0  0  0  0
    1.4072    0.1936    0.0529 C   0  0  0  0  0  0  0  0  0  0  0  0
  1  7  1  0  0  0  0
  2  7  1  0  0  0  0
  3  7  1  0  0  0  0
  4  8  1  0  0  0  0
  5  9  1  0  0  0  0
  6  9  1  0  0  0  0
  7  8  1  0  0  0  0
  8  9  2  0  0  0  0
M  END
> <PUBCHEM_COMPOUND_CID>
6600

> <PUBCHEM_CONFORMER_RMSD>
0.4

> <PUBCHEM_CONFORMER_DIVERSEORDER>
1
5
2
4
3
6

> <PUBCHEM_MMFF94_PARTIAL_CHARGES>
9
1 -0.29
2 -0.34
3 -0.34
4 -0.15
5 -0.15
6 -0.15
7 1.11
8 0.01
9 0.3

> <PUBCHEM_EFFECTIVE_ROTOR_COUNT>
1

> <PUBCHEM_PHARMACOPHORE_FEATURES>
0

> <PUBCHEM_HEAVY_ATOM_COUNT>
9

> <PUBCHEM_ATOM_DEF_STEREO_COUNT>
0

> <PUBCHEM_ATOM_UDEF_STEREO_COUNT>
0

> <PUBCHEM_BOND_DEF_STEREO_COUNT>
0

> <PUBCHEM_BOND_UDEF_STEREO_COUNT>
0

> <PUBCHEM_ISOTOPIC_ATOM_COUNT>
0

> <PUBCHEM_COMPONENT_COUNT>
1

> <PUBCHEM_CACTVS_TAUTO_COUNT>
1

> <PUBCHEM_CONFORMER_ID>
000019C800000001

> <PUBCHEM_MMFF94_ENERGY>
0.0277

> <PUBCHEM_FEATURE_SELFOVERLAP>
0

> <PUBCHEM_SHAPE_FINGERPRINT>
20096714 4 18408888429721072268
21040471 1 18265336114336777096
24536 1 18130226068062693193
29004967 10 18339069497107553274
5084963 1 17967824824832819618

> <PUBCHEM_SHAPE_MULTIPOLES>
150.72
2.78
1.35
0.92
0.48
0.06
-0.05
-0.14
0.55
0.2
0.01
-0.62
-0.07
0.21

> <PUBCHEM_SHAPE_SELFOVERLAP>
287.803

> <PUBCHEM_SHAPE_VOLUME>
93.2

> <PUBCHEM_COORDINATE_TYPE>
2
5
10

$$$$

