94217
  -OEChem-07051213113D

 30 30  0     1  0  0  0  0  0999 V2000
   -1.8617    0.3634    1.4282 O   0  0  0  0  0  0  0  0  0  0  0  0
   -1.9056   -2.0631   -0.0023 O   0  0  0  0  0  0  0  0  0  0  0  0
   -1.8032    0.3832   -0.0026 C   0  0  2  0  0  0  0  0  0  0  0  0
    1.1374    0.0989   -0.4454 C   0  0  1  0  0  0  0  0  0  0  0  0
   -1.1724   -0.9392   -0.4836 C   0  0  1  0  0  0  0  0  0  0  0  0
   -0.9284    1.5715   -0.4407 C   0  0  0  0  0  0  0  0  0  0  0  0
    0.2762   -1.0905   -0.0094 C   0  0  0  0  0  0  0  0  0  0  0  0
    0.5244    1.4249    0.0215 C   0  0  0  0  0  0  0  0  0  0  0  0
   -3.2335    0.5563   -0.5215 C   0  0  0  0  0  0  0  0  0  0  0  0
    2.5382   -0.0538    0.0621 C   0  0  0  0  0  0  0  0  0  0  0  0
    3.6124   -0.1520   -0.9800 C   0  0  0  0  0  0  0  0  0  0  0  0
    2.8162   -0.0995    1.3736 C   0  0  0  0  0  0  0  0  0  0  0  0
    1.1537    0.1110   -1.5443 H   0  0  0  0  0  0  0  0  0  0  0  0
   -1.1970   -0.9840   -1.5792 H   0  0  0  0  0  0  0  0  0  0  0  0
   -1.3255    2.5062   -0.0252 H   0  0  0  0  0  0  0  0  0  0  0  0
   -0.9494    1.6680   -1.5337 H   0  0  0  0  0  0  0  0  0  0  0  0
    0.6881   -2.0260   -0.4119 H   0  0  0  0  0  0  0  0  0  0  0  0
    0.2846   -1.2198    1.0811 H   0  0  0  0  0  0  0  0  0  0  0  0
    1.1090    2.2661   -0.3721 H   0  0  0  0  0  0  0  0  0  0  0  0
    0.5524    1.5130    1.1147 H   0  0  0  0  0  0  0  0  0  0  0  0
   -3.6658    1.4994   -0.1680 H   0  0  0  0  0  0  0  0  0  0  0  0
   -3.2674    0.5500   -1.6157 H   0  0  0  0  0  0  0  0  0  0  0  0
   -3.8867   -0.2402   -0.1481 H   0  0  0  0  0  0  0  0  0  0  0  0
   -2.2375    1.2096    1.7252 H   0  0  0  0  0  0  0  0  0  0  0  0
   -1.9500   -1.9942    0.9668 H   0  0  0  0  0  0  0  0  0  0  0  0
    3.4385   -1.0197   -1.6248 H   0  0  0  0  0  0  0  0  0  0  0  0
    3.6224    0.7491   -1.6019 H   0  0  0  0  0  0  0  0  0  0  0  0
    4.6079   -0.2613   -0.5369 H   0  0  0  0  0  0  0  0  0  0  0  0
    3.8369   -0.2103    1.7251 H   0  0  0  0  0  0  0  0  0  0  0  0
    2.0444   -0.0284    2.1321 H   0  0  0  0  0  0  0  0  0  0  0  0
  1  3  1  0  0  0  0
  1 24  1  0  0  0  0
  2  5  1  0  0  0  0
  2 25  1  0  0  0  0
  3  5  1  0  0  0  0
  3  6  1  0  0  0  0
  3  9  1  0  0  0  0
  4  7  1  0  0  0  0
  4  8  1  0  0  0  0
  4 10  1  0  0  0  0
  4 13  1  0  0  0  0
  5  7  1  0  0  0  0
  5 14  1  0  0  0  0
  6  8  1  0  0  0  0
  6 15  1  0  0  0  0
  6 16  1  0  0  0  0
  7 17  1  0  0  0  0
  7 18  1  0  0  0  0
  8 19  1  0  0  0  0
  8 20  1  0  0  0  0
  9 21  1  0  0  0  0
  9 22  1  0  0  0  0
  9 23  1  0  0  0  0
 10 11  1  0  0  0  0
 10 12  2  0  0  0  0
 11 26  1  0  0  0  0
 11 27  1  0  0  0  0
 11 28  1  0  0  0  0
 12 29  1  0  0  0  0
 12 30  1  0  0  0  0
M  END
> <PUBCHEM_COMPOUND_CID>
94217

> <PUBCHEM_CONFORMER_RMSD>
0.6

> <PUBCHEM_CONFORMER_DIVERSEORDER>
3
18
2
20
7
14
24
9
25
5
16
15
22
1
8
12
17
6
4
21
23
11
10
19
13

> <PUBCHEM_MMFF94_PARTIAL_CHARGES>
12
1 -0.68
10 -0.28
11 0.14
12 -0.3
2 -0.68
24 0.4
25 0.4
29 0.15
3 0.28
30 0.15
4 0.14
5 0.28

> <PUBCHEM_EFFECTIVE_ROTOR_COUNT>
2.2

> <PUBCHEM_PHARMACOPHORE_FEATURES>
5
1 1 acceptor
1 1 donor
1 2 acceptor
1 2 donor
6 3 4 5 6 7 8 rings

> <PUBCHEM_HEAVY_ATOM_COUNT>
12

> <PUBCHEM_ATOM_DEF_STEREO_COUNT>
0

> <PUBCHEM_ATOM_UDEF_STEREO_COUNT>
3

> <PUBCHEM_BOND_DEF_STEREO_COUNT>
0

> <PUBCHEM_BOND_UDEF_STEREO_COUNT>
0

> <PUBCHEM_ISOTOPIC_ATOM_COUNT>
0

> <PUBCHEM_COMPONENT_COUNT>
1

> <PUBCHEM_CACTVS_TAUTO_COUNT>
1

> <PUBCHEM_CONFORMER_ID>
0001700900000003

> <PUBCHEM_MMFF94_ENERGY>
26.7326

> <PUBCHEM_FEATURE_SELFOVERLAP>
25.378

> <PUBCHEM_SHAPE_FINGERPRINT>
10857977 72 18334584503410241280
12932764 1 18060421304920907892
13024252 1 16487253274859956813
13538477 17 18131355202391217534
14993402 34 18411983572170151917
15310529 11 16774079591668931036
15775835 57 18272371983695136560
16945 1 18411139159908637245
20201158 50 17967813877240828718
20645464 45 17895207601220410002
20645476 183 17703500039166882302
20711983 138 17749101223219324866
20715346 28 17822577101384235070
20871998 184 18260264101452304567
23235685 24 18335704982915531509
23402539 116 18263099823824168941
23402655 69 18049744077075859477
23419403 2 16601323066382326253
23552423 10 17986110699577274548
23559900 14 18335138705353946926
2748010 2 18194127313094696301
3248919 1 17894351068724820360
369184 2 18201447977434243824
5084963 1 18113900480822189988
8030462 33 17704356571873240780

> <PUBCHEM_SHAPE_MULTIPOLES>
235.22
4.98
1.49
1.05
1.98
0.25
-0.28
0.06
0.33
-0.84
0.1
0.44
-0.03
0

> <PUBCHEM_SHAPE_SELFOVERLAP>
466.345

> <PUBCHEM_SHAPE_VOLUME>
140.1

> <PUBCHEM_COORDINATE_TYPE>
2
5
10

$$$$

