53462
  -OEChem-07051213133D

 25 27  0     0  0  0  0  0  0999 V2000
   -2.4170    0.4008    0.0001 N   0  0  0  0  0  0  0  0  0  0  0  0
   -1.2724   -1.5025   -0.0001 N   0  0  0  0  0  0  0  0  0  0  0  0
    3.0372    0.9044    0.0004 N   0  0  0  0  0  0  0  0  0  0  0  0
   -3.6748   -1.5853    0.0010 N   0  0  0  0  0  0  0  0  0  0  0  0
   -1.0959    0.7666    0.0001 C   0  0  0  0  0  0  0  0  0  0  0  0
   -0.3986   -0.4361   -0.0002 C   0  0  0  0  0  0  0  0  0  0  0  0
    1.0189   -0.3991   -0.0002 C   0  0  0  0  0  0  0  0  0  0  0  0
    1.6928    0.8431    0.0002 C   0  0  0  0  0  0  0  0  0  0  0  0
   -2.4711   -0.9647   -0.0001 C   0  0  0  0  0  0  0  0  0  0  0  0
   -0.4683    2.0090    0.0001 C   0  0  0  0  0  0  0  0  0  0  0  0
    0.9342    2.0117    0.0003 C   0  0  0  0  0  0  0  0  0  0  0  0
   -3.5416    1.3110   -0.0010 C   0  0  0  0  0  0  0  0  0  0  0  0
    1.7699   -1.5857   -0.0004 C   0  0  0  0  0  0  0  0  0  0  0  0
    3.1544   -1.5146   -0.0003 C   0  0  0  0  0  0  0  0  0  0  0  0
    3.7322   -0.2586    0.0000 C   0  0  0  0  0  0  0  0  0  0  0  0
   -1.0197    2.9420    0.0003 H   0  0  0  0  0  0  0  0  0  0  0  0
    1.4420    2.9758    0.0004 H   0  0  0  0  0  0  0  0  0  0  0  0
   -4.1342    1.1269    0.8990 H   0  0  0  0  0  0  0  0  0  0  0  0
   -3.2003    2.3472   -0.0030 H   0  0  0  0  0  0  0  0  0  0  0  0
   -4.1351    1.1237   -0.8997 H   0  0  0  0  0  0  0  0  0  0  0  0
    1.2859   -2.5587   -0.0006 H   0  0  0  0  0  0  0  0  0  0  0  0
    3.7619   -2.4119   -0.0004 H   0  0  0  0  0  0  0  0  0  0  0  0
   -3.7432   -2.5980    0.0014 H   0  0  0  0  0  0  0  0  0  0  0  0
   -4.5596   -1.0883    0.0016 H   0  0  0  0  0  0  0  0  0  0  0  0
    4.8118   -0.1461    0.0002 H   0  0  0  0  0  0  0  0  0  0  0  0
  1  5  1  0  0  0  0
  1  9  1  0  0  0  0
  1 12  1  0  0  0  0
  2  6  1  0  0  0  0
  2  9  2  0  0  0  0
  3  8  1  0  0  0  0
  3 15  2  0  0  0  0
  4  9  1  0  0  0  0
  4 23  1  0  0  0  0
  4 24  1  0  0  0  0
  5  6  2  0  0  0  0
  5 10  1  0  0  0  0
  6  7  1  0  0  0  0
  7  8  2  0  0  0  0
  7 13  1  0  0  0  0
  8 11  1  0  0  0  0
 10 11  2  0  0  0  0
 10 16  1  0  0  0  0
 11 17  1  0  0  0  0
 12 18  1  0  0  0  0
 12 19  1  0  0  0  0
 12 20  1  0  0  0  0
 13 14  2  0  0  0  0
 13 21  1  0  0  0  0
 14 15  1  0  0  0  0
 14 22  1  0  0  0  0
 15 25  1  0  0  0  0
M  END
> <PUBCHEM_COMPOUND_CID>
53462

> <PUBCHEM_CONFORMER_RMSD>
0.4

> <PUBCHEM_CONFORMER_DIVERSEORDER>
1

> <PUBCHEM_MMFF94_PARTIAL_CHARGES>
21
1 0.05
10 -0.15
11 -0.15
12 0.26
13 -0.15
14 -0.15
15 0.16
16 0.15
17 0.15
2 -0.57
21 0.15
22 0.15
23 0.4
24 0.4
25 0.15
3 -0.62
4 -0.88
5 -0.15
6 0.23
8 0.31
9 0.27

> <PUBCHEM_EFFECTIVE_ROTOR_COUNT>
0

> <PUBCHEM_PHARMACOPHORE_FEATURES>
6
1 3 acceptor
1 4 donor
4 1 2 4 9 cation
5 1 2 5 6 9 rings
6 3 7 8 13 14 15 rings
6 5 6 7 8 10 11 rings

> <PUBCHEM_HEAVY_ATOM_COUNT>
15

> <PUBCHEM_ATOM_DEF_STEREO_COUNT>
0

> <PUBCHEM_ATOM_UDEF_STEREO_COUNT>
0

> <PUBCHEM_BOND_DEF_STEREO_COUNT>
0

> <PUBCHEM_BOND_UDEF_STEREO_COUNT>
0

> <PUBCHEM_ISOTOPIC_ATOM_COUNT>
0

> <PUBCHEM_COMPONENT_COUNT>
1

> <PUBCHEM_CACTVS_TAUTO_COUNT>
3

> <PUBCHEM_CONFORMER_ID>
0000D0D600000001

> <PUBCHEM_MMFF94_ENERGY>
37.1817

> <PUBCHEM_FEATURE_SELFOVERLAP>
30.579

> <PUBCHEM_SHAPE_FINGERPRINT>
10608611 8 18410579474146405976
10967382 1 18266458895907361318
11132069 177 18409735096697992464
11471102 20 18411142471328422605
11769659 78 18411141337530928786
11806522 49 18267307534332591383
12032990 46 18410569578578549326
12382932 28 18408041835779702048
13140716 1 18410294756447937467
13296908 3 18410292518785981966
14144814 61 18410012134709768178
14325111 11 18410856555350129504
15196674 1 18410856564325108006
15375462 189 18130506434885282906
15442244 35 18337670922564477633
15536298 74 18334013878529707480
16945 1 18194399979109157509
17990270 104 18340207401463708408
18186145 218 17846784030637635502
193761 8 17329709821569825766
200 152 18040725727689722551
20201158 50 18411420630738099590
20645477 70 18196661696451203015
20871998 184 18186522145662860287
21267235 1 18410565184790290126
21501502 16 18411697664665878733
21501925 9 18338526252506264450
221490 88 18197491827255368235
22721475 48 18411696591034675040
2334 1 18410856538228380035
23402539 116 18335713787635372774
23463225 33 18411699898180572556
23552423 10 18343017757426595092
23559900 14 18264494056540462066
2748010 2 18410295808709623957
3312278 4 18410290328373610728
335352 9 18194683897795652989
34934 24 18339370759024866232
427121 178 15579174468522360873
5104073 3 18410294722346746946
528886 8 18409736187445566840
53812653 166 18334862714201569456
7364860 26 18191305974985180496
8809292 202 18343297106521322250
9709674 26 18410569574352550110

> <PUBCHEM_SHAPE_MULTIPOLES>
288.77
5.93
2.13
0.59
0.5
0.29
0
-1.42
0
0.32
0
-0.03
0.01
0

> <PUBCHEM_SHAPE_SELFOVERLAP>
653.22

> <PUBCHEM_SHAPE_VOLUME>
151.5

> <PUBCHEM_COORDINATE_TYPE>
2
5
10

$$$$

