854056
  -OEChem-06241222472D

 16 16  0     0  0  0  0  0  0999 V2000
    3.7601   -1.2810    0.0000 S   0  0  0  0  0  0  0  0  0  0  0  0
    3.2601    0.2578    0.0000 S   0  0  0  0  0  0  0  0  0  0  0  0
    5.5202   -1.0022    0.0000 S   0  0  0  0  0  0  0  0  0  0  0  0
    4.8479    1.0668    0.0000 S   0  0  0  0  0  0  0  0  0  0  0  0
    2.0000   -1.0022    0.0000 O   0  0  0  0  0  0  0  0  0  0  0  0
    4.5691   -0.6932    0.0000 C   0  0  0  0  0  0  0  0  0  0  0  0
    4.2601    0.2578    0.0000 C   0  0  0  0  0  0  0  0  0  0  0  0
    2.9511   -0.6932    0.0000 C   0  0  0  0  0  0  0  0  0  0  0  0
    5.7281   -1.9804    0.0000 C   0  0  0  0  0  0  0  0  0  0  0  0
    4.4411    1.9804    0.0000 C   0  0  0  0  0  0  0  0  0  0  0  0
    5.1216   -2.1093    0.0000 H   0  0  0  0  0  0  0  0  0  0  0  0
    5.8570   -2.5868    0.0000 H   0  0  0  0  0  0  0  0  0  0  0  0
    6.3345   -1.8515    0.0000 H   0  0  0  0  0  0  0  0  0  0  0  0
    5.0075    2.2326    0.0000 H   0  0  0  0  0  0  0  0  0  0  0  0
    4.1890    2.5468    0.0000 H   0  0  0  0  0  0  0  0  0  0  0  0
    3.8747    1.7282    0.0000 H   0  0  0  0  0  0  0  0  0  0  0  0
  1  6  1  0  0  0  0
  1  8  1  0  0  0  0
  2  7  1  0  0  0  0
  2  8  1  0  0  0  0
  3  6  1  0  0  0  0
  3  9  1  0  0  0  0
  4  7  1  0  0  0  0
  4 10  1  0  0  0  0
  5  8  2  0  0  0  0
  6  7  2  0  0  0  0
  9 11  1  0  0  0  0
  9 12  1  0  0  0  0
  9 13  1  0  0  0  0
 10 14  1  0  0  0  0
 10 15  1  0  0  0  0
 10 16  1  0  0  0  0
M  END
> <PUBCHEM_COMPOUND_CID>
854056

> <PUBCHEM_COMPOUND_CANONICALIZED>
1

> <PUBCHEM_CACTVS_COMPLEXITY>
168

> <PUBCHEM_CACTVS_HBOND_ACCEPTOR>
5

> <PUBCHEM_CACTVS_HBOND_DONOR>
0

> <PUBCHEM_CACTVS_ROTATABLE_BOND>
2

> <PUBCHEM_CACTVS_SUBSKEYS>
AAADcYBgIABwAAAAAAAAAAAAAAAAAQAAAAAAAAAAAAAAAAAAAAAAGgQAAAAAAAAAQACCAAAAAAiIAAAAAAAAAQAAAAAAAAAAAAAAAAAAAAAAAAAAAAAAAAAAAAAAAAAAAAAAAAAAAAAAAAAAAAAAAAAAAA==

> <PUBCHEM_IUPAC_OPENEYE_NAME>
4,5-bis(methylsulfanyl)-1,3-dithiol-2-one

> <PUBCHEM_IUPAC_CAS_NAME>
4,5-bis(methylthio)-1,3-dithiol-2-one

> <PUBCHEM_IUPAC_NAME>
4,5-bis(methylsulfanyl)-1,3-dithiol-2-one

> <PUBCHEM_IUPAC_SYSTEMATIC_NAME>
4,5-bis(methylsulfanyl)-1,3-dithiol-2-one

> <PUBCHEM_IUPAC_TRADITIONAL_NAME>
4,5-bis(methylthio)-1,3-dithiol-2-one

> <PUBCHEM_IUPAC_INCHI>
InChI=1S/C5H6OS4/c1-7-3-4(8-2)10-5(6)9-3/h1-2H3

> <PUBCHEM_IUPAC_INCHIKEY>
ZXNVEXYJVODARP-UHFFFAOYSA-N

> <PUBCHEM_XLOGP3_AA>
2.8

> <PUBCHEM_EXACT_MASS>
209.930149

> <PUBCHEM_MOLECULAR_FORMULA>
C5H6OS4

> <PUBCHEM_MOLECULAR_WEIGHT>
210.36054

> <PUBCHEM_OPENEYE_CAN_SMILES>
CSC1=C(SC(=O)S1)SC

> <PUBCHEM_OPENEYE_ISO_SMILES>
CSC1=C(SC(=O)S1)SC

> <PUBCHEM_CACTVS_TPSA>
118

> <PUBCHEM_MONOISOTOPIC_WEIGHT>
209.930149

> <PUBCHEM_TOTAL_CHARGE>
0

> <PUBCHEM_HEAVY_ATOM_COUNT>
10

> <PUBCHEM_ATOM_DEF_STEREO_COUNT>
0

> <PUBCHEM_ATOM_UDEF_STEREO_COUNT>
0

> <PUBCHEM_BOND_DEF_STEREO_COUNT>
0

> <PUBCHEM_BOND_UDEF_STEREO_COUNT>
0

> <PUBCHEM_ISOTOPIC_ATOM_COUNT>
0

> <PUBCHEM_COMPONENT_COUNT>
1

> <PUBCHEM_CACTVS_TAUTO_COUNT>
1

> <PUBCHEM_COORDINATE_TYPE>
1
5
255

> <PUBCHEM_BONDANNOTATIONS>
1  6  8
1  8  8
2  7  8
2  8  8
6  7  8

$$$$

