9685
  -OEChem-06261203563D

 43 46  0     1  0  0  0  0  0999 V2000
    5.1339    1.0605    0.5845 O   0  0  0  0  0  0  0  0  0  0  0  0
   -4.5123    2.2519   -0.2572 O   0  0  0  0  0  0  0  0  0  0  0  0
   -5.6145   -0.2621    0.1718 O   0  0  0  0  0  0  0  0  0  0  0  0
    2.3128   -0.7833   -0.5548 C   0  0  1  0  0  0  0  0  0  0  0  0
    2.8918    0.0982    0.5798 C   0  0  2  0  0  0  0  0  0  0  0  0
    0.7770   -0.9318   -0.5979 C   0  0  2  0  0  0  0  0  0  0  0  0
    0.0221    0.3841   -0.2973 C   0  0  2  0  0  0  0  0  0  0  0  0
    2.0618    1.3623    0.8434 C   0  0  0  0  0  0  0  0  0  0  0  0
    2.8587   -0.1295   -1.8364 C   0  0  0  0  0  0  0  0  0  0  0  0
    0.5680    1.0836    0.9600 C   0  0  0  0  0  0  0  0  0  0  0  0
    0.2856   -2.0476    0.3388 C   0  0  0  0  0  0  0  0  0  0  0  0
    4.2235    0.5237   -0.0361 C   0  0  0  0  0  0  0  0  0  0  0  0
    4.3047    0.2068   -1.5059 C   0  0  0  0  0  0  0  0  0  0  0  0
    3.1535   -0.6912    1.8636 C   0  0  0  0  0  0  0  0  0  0  0  0
   -1.4803    0.1801   -0.1771 C   0  0  0  0  0  0  0  0  0  0  0  0
   -1.1944   -2.3344    0.0988 C   0  0  0  0  0  0  0  0  0  0  0  0
   -2.0421   -1.0906    0.0446 C   0  0  0  0  0  0  0  0  0  0  0  0
   -2.3327    1.2942   -0.2768 C   0  0  0  0  0  0  0  0  0  0  0  0
   -3.4359   -1.2213    0.1534 C   0  0  0  0  0  0  0  0  0  0  0  0
   -3.7147    1.1522   -0.1577 C   0  0  0  0  0  0  0  0  0  0  0  0
   -4.2664   -0.1058    0.0585 C   0  0  0  0  0  0  0  0  0  0  0  0
    2.7615   -1.7864   -0.5025 H   0  0  0  0  0  0  0  0  0  0  0  0
    0.5098   -1.2474   -1.6180 H   0  0  0  0  0  0  0  0  0  0  0  0
    0.1840    1.0519   -1.1552 H   0  0  0  0  0  0  0  0  0  0  0  0
    2.2159    2.0952    0.0397 H   0  0  0  0  0  0  0  0  0  0  0  0
    2.4102    1.8587    1.7582 H   0  0  0  0  0  0  0  0  0  0  0  0
    2.3101    0.7861   -2.0854 H   0  0  0  0  0  0  0  0  0  0  0  0
    2.7914   -0.8001   -2.6992 H   0  0  0  0  0  0  0  0  0  0  0  0
    0.3659    0.4876    1.8580 H   0  0  0  0  0  0  0  0  0  0  0  0
    0.0531    2.0400    1.1156 H   0  0  0  0  0  0  0  0  0  0  0  0
    0.4277   -1.7713    1.3878 H   0  0  0  0  0  0  0  0  0  0  0  0
    0.8557   -2.9696    0.1742 H   0  0  0  0  0  0  0  0  0  0  0  0
    4.6635    1.0649   -2.0781 H   0  0  0  0  0  0  0  0  0  0  0  0
    4.9597   -0.6575   -1.6477 H   0  0  0  0  0  0  0  0  0  0  0  0
    3.7671   -1.5777    1.6665 H   0  0  0  0  0  0  0  0  0  0  0  0
    3.7004   -0.0839    2.5942 H   0  0  0  0  0  0  0  0  0  0  0  0
    2.2294   -1.0202    2.3436 H   0  0  0  0  0  0  0  0  0  0  0  0
   -1.5561   -2.9985    0.8932 H   0  0  0  0  0  0  0  0  0  0  0  0
   -1.3099   -2.8666   -0.8539 H   0  0  0  0  0  0  0  0  0  0  0  0
   -1.9055    2.2799   -0.4502 H   0  0  0  0  0  0  0  0  0  0  0  0
   -3.8692   -2.2073    0.3090 H   0  0  0  0  0  0  0  0  0  0  0  0
   -3.9558    3.0354   -0.4069 H   0  0  0  0  0  0  0  0  0  0  0  0
   -5.8140   -1.2027    0.3180 H   0  0  0  0  0  0  0  0  0  0  0  0
  1 12  2  0  0  0  0
  2 20  1  0  0  0  0
  2 42  1  0  0  0  0
  3 21  1  0  0  0  0
  3 43  1  0  0  0  0
  4  5  1  0  0  0  0
  4  6  1  0  0  0  0
  4  9  1  0  0  0  0
  4 22  1  0  0  0  0
  5  8  1  0  0  0  0
  5 12  1  0  0  0  0
  5 14  1  0  0  0  0
  6  7  1  0  0  0  0
  6 11  1  0  0  0  0
  6 23  1  0  0  0  0
  7 10  1  0  0  0  0
  7 15  1  0  0  0  0
  7 24  1  0  0  0  0
  8 10  1  0  0  0  0
  8 25  1  0  0  0  0
  8 26  1  0  0  0  0
  9 13  1  0  0  0  0
  9 27  1  0  0  0  0
  9 28  1  0  0  0  0
 10 29  1  0  0  0  0
 10 30  1  0  0  0  0
 11 16  1  0  0  0  0
 11 31  1  0  0  0  0
 11 32  1  0  0  0  0
 12 13  1  0  0  0  0
 13 33  1  0  0  0  0
 13 34  1  0  0  0  0
 14 35  1  0  0  0  0
 14 36  1  0  0  0  0
 14 37  1  0  0  0  0
 15 17  1  0  0  0  0
 15 18  2  0  0  0  0
 16 17  1  0  0  0  0
 16 38  1  0  0  0  0
 16 39  1  0  0  0  0
 17 19  2  0  0  0  0
 18 20  1  0  0  0  0
 18 40  1  0  0  0  0
 19 21  1  0  0  0  0
 19 41  1  0  0  0  0
 20 21  2  0  0  0  0
M  END
> <PUBCHEM_COMPOUND_CID>
9685

> <PUBCHEM_CONFORMER_RMSD>
0.6

> <PUBCHEM_CONFORMER_DIVERSEORDER>
3
7
8
12
10
9
14
13
19
15
2
17
5
18
6
4
11
1
16

> <PUBCHEM_MMFF94_PARTIAL_CHARGES>
18
1 -0.57
12 0.45
13 0.06
15 -0.14
16 0.14
17 -0.14
18 -0.15
19 -0.15
2 -0.53
20 0.08
21 0.08
3 -0.53
40 0.15
41 0.15
42 0.45
43 0.45
5 0.06
7 0.14

> <PUBCHEM_EFFECTIVE_ROTOR_COUNT>
1.2

> <PUBCHEM_PHARMACOPHORE_FEATURES>
7
1 1 acceptor
1 2 donor
1 3 donor
5 4 5 9 12 13 rings
6 15 17 18 19 20 21 rings
6 4 5 6 7 8 10 rings
6 6 7 11 15 16 17 rings

> <PUBCHEM_HEAVY_ATOM_COUNT>
21

> <PUBCHEM_ATOM_DEF_STEREO_COUNT>
0

> <PUBCHEM_ATOM_UDEF_STEREO_COUNT>
4

> <PUBCHEM_BOND_DEF_STEREO_COUNT>
0

> <PUBCHEM_BOND_UDEF_STEREO_COUNT>
0

> <PUBCHEM_ISOTOPIC_ATOM_COUNT>
0

> <PUBCHEM_COMPONENT_COUNT>
1

> <PUBCHEM_CACTVS_TAUTO_COUNT>
62

> <PUBCHEM_CONFORMER_ID>
000025D500000003

> <PUBCHEM_MMFF94_ENERGY>
58.2529

> <PUBCHEM_FEATURE_SELFOVERLAP>
35.725

> <PUBCHEM_SHAPE_FINGERPRINT>
10366900 7 18412262814222824131
10498660 4 18339360867884436957
10646746 165 18410576179879745894
10759866 29 18131629010877724242
12107183 9 17268932559402541457
12236239 1 17275105011469359791
12390115 104 18189884474481711481
12403259 415 18260833683209829137
12403814 3 17346601876468657805
12596602 18 16558462003135281097
12670546 56 15554452915986703709
12788726 201 17968095373624265976
12916748 109 18411976953741456641
12969540 114 17603875515440667341
13134695 92 16225761918005803768
13140716 1 18052814754836799595
13224815 77 18272934946675904119
13544592 145 18260256469585407454
13583140 156 16415189045340318533
13760787 19 17917709076412703738
14289901 80 15985111807617621901
14341114 328 16845565409553400765
14386348 63 17894906317669894366
15196674 1 18410857711044602211
15375358 24 18113338587757608652
15848702 151 16443332213299143863
15880784 105 14620506792782539713
1601671 61 18411416241255337812
16752209 62 18411985723859395003
16945 1 18336270058883240366
17804303 29 18337670806964221099
18186145 218 17894344501588034003
200 152 15285351834233997318
20233049 118 18411417302444419788
20645477 70 16877931768158898414
21033648 29 17603874416003035537
21279426 13 18189329254778001812
221357 26 17822008735688303561
23175994 123 17385716976693786209
23402539 116 18337117786563744695
23493267 7 18059840758375932586
23557571 272 17895756171397055647
23559900 14 18261668272849287782
26918003 58 12895355486485595541
296302 2 17822010882897229166
3004659 81 18341891944226466670
4028521 119 18187362147029722189
4340502 62 16128650843216284987
4990 188 17967527995295265582
5104073 3 18270395126661343963
633830 44 18187089468130618997
69090 78 17894916196300780463
9709674 26 18115307748247275399

> <PUBCHEM_SHAPE_MULTIPOLES>
414.56
9.85
1.86
1.22
3.58
0.32
-0.05
-3.02
-0.43
1.33
0.18
-1.7
0.03
0.34

> <PUBCHEM_SHAPE_SELFOVERLAP>
911.253

> <PUBCHEM_SHAPE_VOLUME>
222.7

> <PUBCHEM_COORDINATE_TYPE>
2
5
10

$$$$

