213060
  -OEChem-07051213093D

 27 27  0     1  0  0  0  0  0999 V2000
    1.7755   -0.3420    0.4953 O   0  0  0  0  0  0  0  0  0  0  0  0
   -0.6618    2.8093   -1.0140 O   0  0  0  0  0  0  0  0  0  0  0  0
    3.7111   -0.0372   -0.7132 O   0  0  0  0  0  0  0  0  0  0  0  0
    3.3191   -1.9852    0.4437 N   0  0  0  0  0  0  0  0  0  0  0  0
   -0.0488    1.2290    0.7356 C   0  0  1  0  0  0  0  0  0  0  0  0
   -1.0691    0.1811    0.3070 C   0  0  0  0  0  0  0  0  0  0  0  0
    1.3283    0.9543    0.1134 C   0  0  0  0  0  0  0  0  0  0  0  0
   -0.5128    2.6536    0.3935 C   0  0  0  0  0  0  0  0  0  0  0  0
   -2.0525   -0.1930    1.1983 C   0  0  0  0  0  0  0  0  0  0  0  0
   -0.9758   -0.3597   -0.9579 C   0  0  0  0  0  0  0  0  0  0  0  0
   -2.9861   -1.1525    0.8063 C   0  0  0  0  0  0  0  0  0  0  0  0
   -1.9093   -1.3191   -1.3500 C   0  0  0  0  0  0  0  0  0  0  0  0
   -2.9145   -1.7155   -0.4679 C   0  0  0  0  0  0  0  0  0  0  0  0
    2.9966   -0.7231    0.0101 C   0  0  0  0  0  0  0  0  0  0  0  0
    0.0682    1.1514    1.8256 H   0  0  0  0  0  0  0  0  0  0  0  0
    1.3452    1.0615   -0.9768 H   0  0  0  0  0  0  0  0  0  0  0  0
    2.0396    1.6889    0.5143 H   0  0  0  0  0  0  0  0  0  0  0  0
    0.2164    3.3905    0.7467 H   0  0  0  0  0  0  0  0  0  0  0  0
   -1.4783    2.8699    0.8636 H   0  0  0  0  0  0  0  0  0  0  0  0
   -2.1166    0.2422    2.1908 H   0  0  0  0  0  0  0  0  0  0  0  0
   -0.2309   -0.0649   -1.6868 H   0  0  0  0  0  0  0  0  0  0  0  0
   -3.7693   -1.4605    1.4928 H   0  0  0  0  0  0  0  0  0  0  0  0
   -1.8579   -1.7533   -2.3443 H   0  0  0  0  0  0  0  0  0  0  0  0
   -3.6423   -2.4613   -0.7738 H   0  0  0  0  0  0  0  0  0  0  0  0
   -0.9548    3.7233   -1.1697 H   0  0  0  0  0  0  0  0  0  0  0  0
    2.6934   -2.5141    1.0419 H   0  0  0  0  0  0  0  0  0  0  0  0
    4.1926   -2.4279    0.1789 H   0  0  0  0  0  0  0  0  0  0  0  0
  1  7  1  0  0  0  0
  1 14  1  0  0  0  0
  2  8  1  0  0  0  0
  2 25  1  0  0  0  0
  3 14  2  0  0  0  0
  4 14  1  0  0  0  0
  4 26  1  0  0  0  0
  4 27  1  0  0  0  0
  5  6  1  0  0  0  0
  5  7  1  0  0  0  0
  5  8  1  0  0  0  0
  5 15  1  0  0  0  0
  6  9  2  0  0  0  0
  6 10  1  0  0  0  0
  7 16  1  0  0  0  0
  7 17  1  0  0  0  0
  8 18  1  0  0  0  0
  8 19  1  0  0  0  0
  9 11  1  0  0  0  0
  9 20  1  0  0  0  0
 10 12  2  0  0  0  0
 10 21  1  0  0  0  0
 11 13  2  0  0  0  0
 11 22  1  0  0  0  0
 12 13  1  0  0  0  0
 12 23  1  0  0  0  0
 13 24  1  0  0  0  0
M  END
> <PUBCHEM_COMPOUND_CID>
213060

> <PUBCHEM_CONFORMER_RMSD>
0.6

> <PUBCHEM_CONFORMER_DIVERSEORDER>
2
18
37
66
14
108
86
96
36
61
95
64
79
101
9
82
55
81
92
105
58
59
27
100
52
67
31
23
65
76
54
103
13
83
72
87
69
60
71
74
80
77
91
84
102
22
62
38
90
68
34
89
5
41
21
42
16
93
17
11
25
39
107
35
44
63
73
32
10
8
29
85
19
50
99
88
47
53
106
40
70
75
94
6
46
57
48
56
43
30
104
45
33
97
12
28
24
49
98
3
78
15
51
1
26
4
20
7

> <PUBCHEM_MMFF94_PARTIAL_CHARGES>
22
1 -0.43
10 -0.15
11 -0.15
12 -0.15
13 -0.15
14 0.78
2 -0.68
20 0.15
21 0.15
22 0.15
23 0.15
24 0.15
25 0.4
26 0.37
27 0.37
3 -0.57
4 -0.8
5 0.14
6 -0.14
7 0.28
8 0.28
9 -0.15

> <PUBCHEM_EFFECTIVE_ROTOR_COUNT>
5

> <PUBCHEM_PHARMACOPHORE_FEATURES>
5
1 2 acceptor
1 2 donor
1 3 acceptor
1 4 donor
6 6 9 10 11 12 13 rings

> <PUBCHEM_HEAVY_ATOM_COUNT>
14

> <PUBCHEM_ATOM_DEF_STEREO_COUNT>
0

> <PUBCHEM_ATOM_UDEF_STEREO_COUNT>
1

> <PUBCHEM_BOND_DEF_STEREO_COUNT>
0

> <PUBCHEM_BOND_UDEF_STEREO_COUNT>
0

> <PUBCHEM_ISOTOPIC_ATOM_COUNT>
0

> <PUBCHEM_COMPONENT_COUNT>
1

> <PUBCHEM_CACTVS_TAUTO_COUNT>
2

> <PUBCHEM_CONFORMER_ID>
0003404400000002

> <PUBCHEM_MMFF94_ENERGY>
33.609

> <PUBCHEM_FEATURE_SELFOVERLAP>
25.371

> <PUBCHEM_SHAPE_FINGERPRINT>
11578080 2 17895777117905313529
11725454 13 14130452420226072099
12119455 92 6338687227336983003
12326174 3 17696218918580640681
12553582 1 18408603643451599178
13931106 250 17972628694266802206
15375462 189 18334569110363744026
15906896 17 18053667155194139425
16945 1 17458893899406885883
18186145 218 10447665603005912370
20361792 2 18336834091125982007
20645477 70 17764042268024230591
20653085 51 12031519833679271304
20711985 344 18198360608997672985
20871998 184 18188765183780210544
21256008 148 18190190168077026852
21296965 67 18410295783187739921
21524375 3 17548422956259025032
22445834 79 17825385176740528283
23419403 2 14314377522334076457
23552423 10 17684372750480498423
23598291 2 18043799893180742437
23728640 28 17689734364003789762
2748010 2 18264227853707878733
7364860 26 17755019696516632105
81228 2 18269288995935667553

> <PUBCHEM_SHAPE_MULTIPOLES>
265.52
5.16
2.51
1.15
3.49
1.78
-0.12
-4.16
0.17
0.07
-0.34
-0.58
-0.03
-0.38

> <PUBCHEM_SHAPE_SELFOVERLAP>
543.469

> <PUBCHEM_SHAPE_VOLUME>
152.5

> <PUBCHEM_COORDINATE_TYPE>
2
5
10

$$$$

