442084
  -OEChem-07051212562D

 51 53  0     1  0  0  0  0  0999 V2000
    3.7782    1.7000    0.0000 O   0  0  0  0  0  0  0  0  0  0  0  0
    7.3022   -0.3346    0.0000 O   0  0  0  0  0  0  0  0  0  0  0  0
    5.5442    2.7378    0.0000 O   0  0  0  0  0  0  0  0  0  0  0  0
    3.8000   -1.3314    0.0000 C   0  0  2  0  0  0  0  0  0  0  0  0
    3.8000   -0.3314    0.0000 C   0  0  2  0  0  0  0  0  0  0  0  0
    2.9061   -1.8661    0.0000 C   0  0  0  0  0  0  0  0  0  0  0  0
    2.9061    0.2032    0.0000 C   0  0  0  0  0  0  0  0  0  0  0  0
    2.0000   -1.3522    0.0000 C   0  0  0  0  0  0  0  0  0  0  0  0
    4.6660   -1.8314    0.0000 C   0  0  0  0  0  0  0  0  0  0  0  0
    2.0000   -0.3106    0.0000 C   0  0  0  0  0  0  0  0  0  0  0  0
    4.6660    0.1686    0.0000 C   0  0  0  0  0  0  0  0  0  0  0  0
    5.5321   -1.3314    0.0000 C   0  0  0  0  0  0  0  0  0  0  0  0
    3.8000    0.6686    0.0000 C   0  0  0  0  0  0  0  0  0  0  0  0
    5.5321   -0.3314    0.0000 C   0  0  0  0  0  0  0  0  0  0  0  0
    2.4161   -2.7378    0.0000 C   0  0  0  0  0  0  0  0  0  0  0  0
    3.4160   -2.7263    0.0000 C   0  0  0  0  0  0  0  0  0  0  0  0
    4.6500    1.2101    0.0000 C   0  0  0  0  0  0  0  0  0  0  0  0
    6.4421    0.1754    0.0000 C   0  0  0  0  0  0  0  0  0  0  0  0
    6.4501    1.2170    0.0000 C   0  0  0  0  0  0  0  0  0  0  0  0
    5.5480    1.7378    0.0000 C   0  0  0  0  0  0  0  0  0  0  0  0
    7.3180    1.7137    0.0000 C   0  0  0  0  0  0  0  0  0  0  0  0
    7.3219    2.7137    0.0000 C   0  0  0  0  0  0  0  0  0  0  0  0
    8.1821    1.2104    0.0000 C   0  0  0  0  0  0  0  0  0  0  0  0
    3.8066   -2.1814    0.0000 H   0  0  0  0  0  0  0  0  0  0  0  0
    3.3107    0.6730    0.0000 H   0  0  0  0  0  0  0  0  0  0  0  0
    2.5124    0.6823    0.0000 H   0  0  0  0  0  0  0  0  0  0  0  0
    1.3891   -1.2461    0.0000 H   0  0  0  0  0  0  0  0  0  0  0  0
    1.7909   -1.9359    0.0000 H   0  0  0  0  0  0  0  0  0  0  0  0
    4.2675   -2.3064    0.0000 H   0  0  0  0  0  0  0  0  0  0  0  0
    5.0646   -2.3064    0.0000 H   0  0  0  0  0  0  0  0  0  0  0  0
    1.7909    0.2731    0.0000 H   0  0  0  0  0  0  0  0  0  0  0  0
    1.3891   -0.4167    0.0000 H   0  0  0  0  0  0  0  0  0  0  0  0
    5.7441   -1.9140    0.0000 H   0  0  0  0  0  0  0  0  0  0  0  0
    6.1426   -1.2238    0.0000 H   0  0  0  0  0  0  0  0  0  0  0  0
    4.4200    0.6686    0.0000 H   0  0  0  0  0  0  0  0  0  0  0  0
    3.8000    1.2886    0.0000 H   0  0  0  0  0  0  0  0  0  0  0  0
    3.1800    0.6686    0.0000 H   0  0  0  0  0  0  0  0  0  0  0  0
    2.8827   -3.0425    0.0000 H   0  0  0  0  0  0  0  0  0  0  0  0
    1.8756   -2.4341    0.0000 H   0  0  0  0  0  0  0  0  0  0  0  0
    3.7322   -3.2596    0.0000 H   0  0  0  0  0  0  0  0  0  0  0  0
    3.9494   -2.4101    0.0000 H   0  0  0  0  0  0  0  0  0  0  0  0
    2.1123   -3.2783    0.0000 H   0  0  0  0  0  0  0  0  0  0  0  0
    2.9566   -3.0416    0.0000 H   0  0  0  0  0  0  0  0  0  0  0  0
    7.3156    1.0937    0.0000 H   0  0  0  0  0  0  0  0  0  0  0  0
    7.2951   -0.9545    0.0000 H   0  0  0  0  0  0  0  0  0  0  0  0
    7.9419    2.7113    0.0000 H   0  0  0  0  0  0  0  0  0  0  0  0
    7.3243    3.3337    0.0000 H   0  0  0  0  0  0  0  0  0  0  0  0
    6.7019    2.7161    0.0000 H   0  0  0  0  0  0  0  0  0  0  0  0
    7.8701    0.6746    0.0000 H   0  0  0  0  0  0  0  0  0  0  0  0
    8.7179    0.8983    0.0000 H   0  0  0  0  0  0  0  0  0  0  0  0
    8.4942    1.7461    0.0000 H   0  0  0  0  0  0  0  0  0  0  0  0
  1 17  2  0  0  0  0
  2 18  1  0  0  0  0
  2 45  1  0  0  0  0
  3 20  2  0  0  0  0
  4  5  1  0  0  0  0
  4  6  1  0  0  0  0
  4  9  1  0  0  0  0
  4 24  1  6  0  0  0
  5  7  1  0  0  0  0
  5 11  1  0  0  0  0
  5 13  1  1  0  0  0
  6  8  1  0  0  0  0
  6 15  1  0  0  0  0
  6 16  1  0  0  0  0
  7 10  1  0  0  0  0
  7 25  1  0  0  0  0
  7 26  1  0  0  0  0
  8 10  1  0  0  0  0
  8 27  1  0  0  0  0
  8 28  1  0  0  0  0
  9 12  1  0  0  0  0
  9 29  1  0  0  0  0
  9 30  1  0  0  0  0
 10 31  1  0  0  0  0
 10 32  1  0  0  0  0
 11 14  2  0  0  0  0
 11 17  1  0  0  0  0
 12 14  1  0  0  0  0
 12 33  1  0  0  0  0
 12 34  1  0  0  0  0
 13 35  1  0  0  0  0
 13 36  1  0  0  0  0
 13 37  1  0  0  0  0
 14 18  1  0  0  0  0
 15 39  1  0  0  0  0
 15 42  1  0  0  0  0
 15 43  1  0  0  0  0
 16 38  1  0  0  0  0
 16 40  1  0  0  0  0
 16 41  1  0  0  0  0
 17 20  1  0  0  0  0
 18 19  2  0  0  0  0
 19 20  1  0  0  0  0
 19 21  1  0  0  0  0
 21 22  1  0  0  0  0
 21 23  1  0  0  0  0
 21 44  1  0  0  0  0
 22 46  1  0  0  0  0
 22 47  1  0  0  0  0
 22 48  1  0  0  0  0
 23 49  1  0  0  0  0
 23 50  1  0  0  0  0
 23 51  1  0  0  0  0
M  END
> <PUBCHEM_COMPOUND_CID>
442084

> <PUBCHEM_COMPOUND_CANONICALIZED>
1

> <PUBCHEM_CACTVS_COMPLEXITY>
648

> <PUBCHEM_CACTVS_HBOND_ACCEPTOR>
3

> <PUBCHEM_CACTVS_HBOND_DONOR>
1

> <PUBCHEM_CACTVS_ROTATABLE_BOND>
1

> <PUBCHEM_CACTVS_SUBSKEYS>
AAADceB4MAAAAAAAAAAAAAAAAAAAAAAAAAAwQIAAAAAAAACAAAAAGgAACAAADwSAgAACAAAAAgCIAoBQAAAAAAAgIAAACAEAAEgIBBIAAAAAUAAEgAAIkQOIyPCPgAAAAAAAAAAAAAQAACAAAAAAAAAAAA==

> <PUBCHEM_IUPAC_OPENEYE_NAME>
(4bS,8aS)-1-hydroxy-2-isopropyl-4b,8,8-trimethyl-5,6,7,8a,9,10-hexahydrophenanthrene-3,4-dione

> <PUBCHEM_IUPAC_CAS_NAME>
(4bS,8aS)-1-hydroxy-4b,8,8-trimethyl-2-propan-2-yl-5,6,7,8a,9,10-hexahydrophenanthrene-3,4-dione

> <PUBCHEM_IUPAC_NAME>
(4bS,8aS)-1-hydroxy-4b,8,8-trimethyl-2-propan-2-yl-5,6,7,8a,9,10-hexahydrophenanthrene-3,4-dione

> <PUBCHEM_IUPAC_SYSTEMATIC_NAME>
(4bS,8aS)-4b,8,8-trimethyl-1-oxidanyl-2-propan-2-yl-5,6,7,8a,9,10-hexahydrophenanthrene-3,4-dione

> <PUBCHEM_IUPAC_TRADITIONAL_NAME>
(4bS,8aS)-1-hydroxy-2-isopropyl-4b,8,8-trimethyl-5,6,7,8a,9,10-hexahydrophenanthrene-3,4-quinone

> <PUBCHEM_IUPAC_INCHI>
InChI=1S/C20H28O3/c1-11(2)14-16(21)12-7-8-13-19(3,4)9-6-10-20(13,5)15(12)18(23)17(14)22/h11,13,21H,6-10H2,1-5H3/t13-,20-/m0/s1

> <PUBCHEM_IUPAC_INCHIKEY>
XBJOAZYNSZDFSF-RBZFPXEDSA-N

> <PUBCHEM_XLOGP3_AA>
4.4

> <PUBCHEM_EXACT_MASS>
316.203845

> <PUBCHEM_MOLECULAR_FORMULA>
C20H28O3

> <PUBCHEM_MOLECULAR_WEIGHT>
316.43452

> <PUBCHEM_OPENEYE_CAN_SMILES>
CC(C)C1=C(C2=C(C(=O)C1=O)C3(CCCC(C3CC2)(C)C)C)O

> <PUBCHEM_OPENEYE_ISO_SMILES>
CC(C)C1=C(C2=C(C(=O)C1=O)[C@]3(CCCC([C@@H]3CC2)(C)C)C)O

> <PUBCHEM_CACTVS_TPSA>
54.4

> <PUBCHEM_MONOISOTOPIC_WEIGHT>
316.203845

> <PUBCHEM_TOTAL_CHARGE>
0

> <PUBCHEM_HEAVY_ATOM_COUNT>
23

> <PUBCHEM_ATOM_DEF_STEREO_COUNT>
2

> <PUBCHEM_ATOM_UDEF_STEREO_COUNT>
0

> <PUBCHEM_BOND_DEF_STEREO_COUNT>
0

> <PUBCHEM_BOND_UDEF_STEREO_COUNT>
0

> <PUBCHEM_ISOTOPIC_ATOM_COUNT>
0

> <PUBCHEM_COMPONENT_COUNT>
1

> <PUBCHEM_CACTVS_TAUTO_COUNT>
130

> <PUBCHEM_COORDINATE_TYPE>
1
5
255

> <PUBCHEM_BONDANNOTATIONS>
4  24  6
5  13  5

$$$$

