17395506
  -OEChem-06241222502D

 37 38  0     0  0  0  0  0  0999 V2000
    3.7320    1.5670    0.0000 O   0  0  0  0  0  0  0  0  0  0  0  0
    5.4641   -3.4330    0.0000 O   0  0  0  0  0  0  0  0  0  0  0  0
    3.7320   -3.4330    0.0000 O   0  0  0  0  0  0  0  0  0  0  0  0
    5.4641    1.5670    0.0000 N   0  0  0  0  0  0  0  0  0  0  0  0
    6.3301   -1.9330    0.0000 N   0  0  0  0  0  0  0  0  0  0  0  0
    2.8660   -1.9330    0.0000 N   0  0  0  0  0  0  0  0  0  0  0  0
    5.4641    2.5670    0.0000 C   0  0  0  0  0  0  0  0  0  0  0  0
    5.9641    3.4330    0.0000 C   0  0  0  0  0  0  0  0  0  0  0  0
    4.9641    3.4330    0.0000 C   0  0  0  0  0  0  0  0  0  0  0  0
    4.5981    1.0670    0.0000 C   0  0  0  0  0  0  0  0  0  0  0  0
    4.5981    0.0670    0.0000 C   0  0  0  0  0  0  0  0  0  0  0  0
    3.7320   -0.4330    0.0000 C   0  0  0  0  0  0  0  0  0  0  0  0
    5.4641   -0.4330    0.0000 C   0  0  0  0  0  0  0  0  0  0  0  0
    5.4641   -1.4330    0.0000 C   0  0  0  0  0  0  0  0  0  0  0  0
    3.7320   -1.4330    0.0000 C   0  0  0  0  0  0  0  0  0  0  0  0
    4.5981   -1.9330    0.0000 C   0  0  0  0  0  0  0  0  0  0  0  0
    6.3301   -2.9330    0.0000 C   0  0  0  0  0  0  0  0  0  0  0  0
    2.8660   -2.9330    0.0000 C   0  0  0  0  0  0  0  0  0  0  0  0
    7.1962   -3.4330    0.0000 C   0  0  0  0  0  0  0  0  0  0  0  0
    2.0000   -3.4330    0.0000 C   0  0  0  0  0  0  0  0  0  0  0  0
    6.0630    2.4065    0.0000 H   0  0  0  0  0  0  0  0  0  0  0  0
    4.8564    4.0436    0.0000 H   0  0  0  0  0  0  0  0  0  0  0  0
    4.3815    3.2210    0.0000 H   0  0  0  0  0  0  0  0  0  0  0  0
    6.5467    3.2210    0.0000 H   0  0  0  0  0  0  0  0  0  0  0  0
    6.0718    4.0436    0.0000 H   0  0  0  0  0  0  0  0  0  0  0  0
    6.0010    1.2570    0.0000 H   0  0  0  0  0  0  0  0  0  0  0  0
    3.1951   -0.1230    0.0000 H   0  0  0  0  0  0  0  0  0  0  0  0
    6.0010   -0.1230    0.0000 H   0  0  0  0  0  0  0  0  0  0  0  0
    4.5981   -2.5530    0.0000 H   0  0  0  0  0  0  0  0  0  0  0  0
    6.8671   -1.6230    0.0000 H   0  0  0  0  0  0  0  0  0  0  0  0
    2.3291   -1.6230    0.0000 H   0  0  0  0  0  0  0  0  0  0  0  0
    6.8862   -3.9700    0.0000 H   0  0  0  0  0  0  0  0  0  0  0  0
    7.7331   -3.7430    0.0000 H   0  0  0  0  0  0  0  0  0  0  0  0
    7.5062   -2.8961    0.0000 H   0  0  0  0  0  0  0  0  0  0  0  0
    1.6900   -2.8961    0.0000 H   0  0  0  0  0  0  0  0  0  0  0  0
    1.4631   -3.7430    0.0000 H   0  0  0  0  0  0  0  0  0  0  0  0
    2.3100   -3.9700    0.0000 H   0  0  0  0  0  0  0  0  0  0  0  0
  1 10  2  0  0  0  0
  2 17  2  0  0  0  0
  3 18  2  0  0  0  0
  4  7  1  0  0  0  0
  4 10  1  0  0  0  0
  4 26  1  0  0  0  0
  5 14  1  0  0  0  0
  5 17  1  0  0  0  0
  5 30  1  0  0  0  0
  6 15  1  0  0  0  0
  6 18  1  0  0  0  0
  6 31  1  0  0  0  0
  7  8  1  0  0  0  0
  7  9  1  0  0  0  0
  7 21  1  0  0  0  0
  8  9  1  0  0  0  0
  8 24  1  0  0  0  0
  8 25  1  0  0  0  0
  9 22  1  0  0  0  0
  9 23  1  0  0  0  0
 10 11  1  0  0  0  0
 11 12  2  0  0  0  0
 11 13  1  0  0  0  0
 12 15  1  0  0  0  0
 12 27  1  0  0  0  0
 13 14  2  0  0  0  0
 13 28  1  0  0  0  0
 14 16  1  0  0  0  0
 15 16  2  0  0  0  0
 16 29  1  0  0  0  0
 17 19  1  0  0  0  0
 18 20  1  0  0  0  0
 19 32  1  0  0  0  0
 19 33  1  0  0  0  0
 19 34  1  0  0  0  0
 20 35  1  0  0  0  0
 20 36  1  0  0  0  0
 20 37  1  0  0  0  0
M  END
> <PUBCHEM_COMPOUND_CID>
17395506

> <PUBCHEM_COMPOUND_CANONICALIZED>
1

> <PUBCHEM_CACTVS_COMPLEXITY>
383

> <PUBCHEM_CACTVS_HBOND_ACCEPTOR>
3

> <PUBCHEM_CACTVS_HBOND_DONOR>
3

> <PUBCHEM_CACTVS_ROTATABLE_BOND>
4

> <PUBCHEM_CACTVS_SUBSKEYS>
AAADceBzMAAAAAAAAAAAAAAAGAAAAAAAAAAwAAAAAAAAAAABAAAAHgAQAAAADCjBmAQywILAAACIAiVSUACCAAAlAgAAiIEIZMgIIDLA1dGEIQhglgDIyYcciACOAAAAQAQAAAAAAACACAAAAAAAAAAAAA==

> <PUBCHEM_IUPAC_OPENEYE_NAME>
3,5-diacetamido-N-cyclopropyl-benzamide

> <PUBCHEM_IUPAC_CAS_NAME>
3,5-diacetamido-N-cyclopropylbenzamide

> <PUBCHEM_IUPAC_NAME>
3,5-diacetamido-N-cyclopropylbenzamide

> <PUBCHEM_IUPAC_SYSTEMATIC_NAME>
3,5-diacetamido-N-cyclopropyl-benzamide

> <PUBCHEM_IUPAC_TRADITIONAL_NAME>
3,5-diacetamido-N-cyclopropyl-benzamide

> <PUBCHEM_IUPAC_INCHI>
InChI=1S/C14H17N3O3/c1-8(18)15-12-5-10(14(20)17-11-3-4-11)6-13(7-12)16-9(2)19/h5-7,11H,3-4H2,1-2H3,(H,15,18)(H,16,19)(H,17,20)

> <PUBCHEM_IUPAC_INCHIKEY>
OLWJLKGFIDWPOY-UHFFFAOYSA-N

> <PUBCHEM_XLOGP3_AA>
0.1

> <PUBCHEM_EXACT_MASS>
275.126991

> <PUBCHEM_MOLECULAR_FORMULA>
C14H17N3O3

> <PUBCHEM_MOLECULAR_WEIGHT>
275.30308

> <PUBCHEM_OPENEYE_CAN_SMILES>
CC(=O)NC1=CC(=CC(=C1)C(=O)NC2CC2)NC(=O)C

> <PUBCHEM_OPENEYE_ISO_SMILES>
CC(=O)NC1=CC(=CC(=C1)C(=O)NC2CC2)NC(=O)C

> <PUBCHEM_CACTVS_TPSA>
87.3

> <PUBCHEM_MONOISOTOPIC_WEIGHT>
275.126991

> <PUBCHEM_TOTAL_CHARGE>
0

> <PUBCHEM_HEAVY_ATOM_COUNT>
20

> <PUBCHEM_ATOM_DEF_STEREO_COUNT>
0

> <PUBCHEM_ATOM_UDEF_STEREO_COUNT>
0

> <PUBCHEM_BOND_DEF_STEREO_COUNT>
0

> <PUBCHEM_BOND_UDEF_STEREO_COUNT>
0

> <PUBCHEM_ISOTOPIC_ATOM_COUNT>
0

> <PUBCHEM_COMPONENT_COUNT>
1

> <PUBCHEM_CACTVS_TAUTO_COUNT>
12

> <PUBCHEM_COORDINATE_TYPE>
1
5
255

> <PUBCHEM_BONDANNOTATIONS>
11  12  8
11  13  8
12  15  8
13  14  8
14  16  8
15  16  8

$$$$

