5612
  -OEChem-06261200463D

 28 28  0     0  0  0  0  0  0999 V2000
    4.0423    1.5391    1.6983 O   0  0  0  0  0  0  0  0  0  0  0  0
    3.5849   -1.9942   -1.5022 O   0  0  0  0  0  0  0  0  0  0  0  0
    5.1973   -0.2820   -0.0396 O   0  0  0  0  0  0  0  0  0  0  0  0
   -3.2435    1.9941   -0.1088 N   0  0  0  0  0  0  0  0  0  0  0  0
   -0.2284    2.2845   -2.0054 N   0  0  0  0  0  0  0  0  0  0  0  0
   -5.9582   -0.3143    0.4794 N   0  0  0  0  0  0  0  0  0  0  0  0
   -2.2450   -2.7253    0.2526 N   0  0  0  0  0  0  0  0  0  0  0  0
    1.0831   -0.1205    0.3700 C   0  0  0  0  0  0  0  0  0  0  0  0
    1.6458   -1.0383   -0.5048 C   0  0  0  0  0  0  0  0  0  0  0  0
    1.8766    0.7442    1.1097 C   0  0  0  0  0  0  0  0  0  0  0  0
    3.2635    0.6898    0.9715 C   0  0  0  0  0  0  0  0  0  0  0  0
    3.0327   -1.0927   -0.6428 C   0  0  0  0  0  0  0  0  0  0  0  0
    3.8416   -0.2286    0.0953 C   0  0  0  0  0  0  0  0  0  0  0  0
   -0.3785   -0.0630    0.5155 C   0  0  0  0  0  0  0  0  0  0  0  0
   -1.2181    0.7167   -0.1956 C   0  0  0  0  0  0  0  0  0  0  0  0
   -2.6792    0.7414   -0.0317 C   0  0  0  0  0  0  0  0  0  0  0  0
   -3.3865   -0.3997    0.1742 C   0  0  0  0  0  0  0  0  0  0  0  0
   -0.6709    1.5823   -1.1942 C   0  0  0  0  0  0  0  0  0  0  0  0
   -4.8064   -0.3511    0.3422 C   0  0  0  0  0  0  0  0  0  0  0  0
   -2.7533   -1.6824    0.2166 C   0  0  0  0  0  0  0  0  0  0  0  0
    1.0141   -1.7119   -1.0792 H   0  0  0  0  0  0  0  0  0  0  0  0
    1.4249    1.4595    1.7932 H   0  0  0  0  0  0  0  0  0  0  0  0
   -0.7340   -0.6729    1.3419 H   0  0  0  0  0  0  0  0  0  0  0  0
    3.4706    2.1016    2.2485 H   0  0  0  0  0  0  0  0  0  0  0  0
    2.8741   -2.5061   -1.9250 H   0  0  0  0  0  0  0  0  0  0  0  0
    5.5908    0.3872    0.5470 H   0  0  0  0  0  0  0  0  0  0  0  0
   -2.6609    2.8185   -0.1862 H   0  0  0  0  0  0  0  0  0  0  0  0
   -4.2438    2.1090   -0.0047 H   0  0  0  0  0  0  0  0  0  0  0  0
  1 11  1  0  0  0  0
  1 24  1  0  0  0  0
  2 12  1  0  0  0  0
  2 25  1  0  0  0  0
  3 13  1  0  0  0  0
  3 26  1  0  0  0  0
  4 16  1  0  0  0  0
  4 27  1  0  0  0  0
  4 28  1  0  0  0  0
  5 18  3  0  0  0  0
  6 19  3  0  0  0  0
  7 20  3  0  0  0  0
  8  9  2  0  0  0  0
  8 10  1  0  0  0  0
  8 14  1  0  0  0  0
  9 12  1  0  0  0  0
  9 21  1  0  0  0  0
 10 11  2  0  0  0  0
 10 22  1  0  0  0  0
 11 13  1  0  0  0  0
 12 13  2  0  0  0  0
 14 15  2  0  0  0  0
 14 23  1  0  0  0  0
 15 16  1  0  0  0  0
 15 18  1  0  0  0  0
 16 17  2  0  0  0  0
 17 19  1  0  0  0  0
 17 20  1  0  0  0  0
M  END
> <PUBCHEM_COMPOUND_CID>
5612

> <PUBCHEM_CONFORMER_RMSD>
0.6

> <PUBCHEM_CONFORMER_DIVERSEORDER>
1
7
4
5
2
3
6

> <PUBCHEM_MMFF94_PARTIAL_CHARGES>
28
1 -0.53
10 -0.15
11 0.08
12 0.08
13 0.08
14 -0.18
15 0.06
16 0.1
17 0.13
18 0.49
19 0.49
2 -0.53
20 0.49
21 0.15
22 0.15
23 0.15
24 0.45
25 0.45
26 0.45
27 0.4
28 0.4
3 -0.53
4 -0.9
5 -0.56
6 -0.56
7 -0.56
8 0.03
9 -0.15

> <PUBCHEM_EFFECTIVE_ROTOR_COUNT>
2

> <PUBCHEM_PHARMACOPHORE_FEATURES>
9
1 1 donor
1 2 donor
1 3 donor
1 4 cation
1 4 donor
1 5 acceptor
1 6 acceptor
1 7 acceptor
6 8 9 10 11 12 13 rings

> <PUBCHEM_HEAVY_ATOM_COUNT>
20

> <PUBCHEM_ATOM_DEF_STEREO_COUNT>
0

> <PUBCHEM_ATOM_UDEF_STEREO_COUNT>
0

> <PUBCHEM_BOND_DEF_STEREO_COUNT>
0

> <PUBCHEM_BOND_UDEF_STEREO_COUNT>
1

> <PUBCHEM_ISOTOPIC_ATOM_COUNT>
0

> <PUBCHEM_COMPONENT_COUNT>
1

> <PUBCHEM_CACTVS_TAUTO_COUNT>
22

> <PUBCHEM_CONFORMER_ID>
000015EC00000001

> <PUBCHEM_MMFF94_ENERGY>
56.4977

> <PUBCHEM_FEATURE_SELFOVERLAP>
45.678

> <PUBCHEM_SHAPE_FINGERPRINT>
11132069 177 18342184331865542705
11370993 144 17968365840620440691
11552529 35 17023753286533284951
12236239 1 16271928224685130410
12507560 40 18187085083185293905
12553582 1 17846227626515034267
12592029 89 15647046097112465343
13140716 1 18056475050747070003
13533116 47 17749103418021869011
13544592 145 18335132133126121207
13583140 156 17982772720484407736
14289901 80 17603875480854094760
14341114 176 18187361008747701945
14386348 63 18335417967373149083
15219456 202 18260271853994503802
17349148 13 16128664071768291162
17834074 16 18334856129948165154
1813 80 17917991668165301061
18222031 100 18060421296341470765
19141452 34 18335419033163465335
192875 21 15482666897062818596
200 152 17022903462491313915
20510252 161 18334296513427475217
20645477 70 17312817208441505134
20693207 138 18189887781384834358
21033648 29 18335153003005287241
23402539 116 17560804359552213158
23557571 272 18343301496041182780
23559900 14 18260549987354802576
4325135 7 18201716224624047476
5104073 3 18263083365108428114
621550 34 18335991912938681284
8272917 22 16733254733561727959
9709674 26 18261110751202038167

> <PUBCHEM_SHAPE_MULTIPOLES>
374.06
10.06
2.09
1.24
2.86
0.24
-0.24
1.81
1.91
0.58
-0.64
-1.03
-0.51
1.53

> <PUBCHEM_SHAPE_SELFOVERLAP>
798.77

> <PUBCHEM_SHAPE_VOLUME>
201.2

> <PUBCHEM_COORDINATE_TYPE>
2
5
10

$$$$

