11954214
  -OEChem-07051213073D

 38 39  0     1  0  0  0  0  0999 V2000
    1.7683   -3.6004    0.9464 O   0  0  0  0  0  0  0  0  0  0  0  0
    0.3955    3.1703    0.6163 O   0  0  0  0  0  0  0  0  0  0  0  0
    5.3477   -0.2473   -1.1271 O   0  0  0  0  0  0  0  0  0  0  0  0
    1.6499   -1.7607    2.2872 O   0  0  0  0  0  0  0  0  0  0  0  0
   -2.1757    2.6540    1.0608 O   0  0  0  0  0  0  0  0  0  0  0  0
    4.3788    1.7882   -1.4647 O   0  0  0  0  0  0  0  0  0  0  0  0
   -2.8062   -0.2575   -2.2344 O   0  0  0  0  0  0  0  0  0  0  0  0
   -4.1725   -1.9370   -1.5561 O   0  0  0  0  0  0  0  0  0  0  0  0
    2.2553    1.1553    0.0440 N   0  0  0  0  0  0  0  0  0  0  0  0
   -5.5832   -0.1240   -0.0511 N   0  0  0  0  0  0  0  0  0  0  0  0
    1.3150   -1.5436   -0.0998 C   0  0  2  0  0  0  0  0  0  0  0  0
    2.6379   -1.1190   -0.7675 C   0  0  0  0  0  0  0  0  0  0  0  0
    3.2624    0.1245   -0.1169 C   0  0  1  0  0  0  0  0  0  0  0  0
    0.4151   -0.3701    0.2256 C   0  0  0  0  0  0  0  0  0  0  0  0
    0.9278    0.8732    0.2634 C   0  0  0  0  0  0  0  0  0  0  0  0
   -0.9913   -0.6379    0.4480 C   0  0  0  0  0  0  0  0  0  0  0  0
   -1.8972    0.3099    0.7260 C   0  0  0  0  0  0  0  0  0  0  0  0
    0.0214    2.0079    0.5602 C   0  0  0  0  0  0  0  0  0  0  0  0
    1.5903   -2.2774    1.1813 C   0  0  0  0  0  0  0  0  0  0  0  0
   -3.3474    0.0348    0.9586 C   0  0  0  0  0  0  0  0  0  0  0  0
   -1.4341    1.7164    0.8063 C   0  0  0  0  0  0  0  0  0  0  0  0
    4.3628    0.6707   -0.9704 C   0  0  0  0  0  0  0  0  0  0  0  0
   -4.1772    0.1694   -0.3244 C   0  0  1  0  0  0  0  0  0  0  0  0
   -3.7435   -0.7997   -1.4116 C   0  0  0  0  0  0  0  0  0  0  0  0
    0.7853   -2.2201   -0.7840 H   0  0  0  0  0  0  0  0  0  0  0  0
    3.3554   -1.9493   -0.7553 H   0  0  0  0  0  0  0  0  0  0  0  0
    2.4348   -0.9075   -1.8273 H   0  0  0  0  0  0  0  0  0  0  0  0
    3.6762   -0.1158    0.8692 H   0  0  0  0  0  0  0  0  0  0  0  0
    2.5495    2.1192    0.1661 H   0  0  0  0  0  0  0  0  0  0  0  0
   -1.3080   -1.6759    0.3836 H   0  0  0  0  0  0  0  0  0  0  0  0
   -3.4582   -0.9824    1.3607 H   0  0  0  0  0  0  0  0  0  0  0  0
   -3.7372    0.7013    1.7387 H   0  0  0  0  0  0  0  0  0  0  0  0
   -4.1167    1.1905   -0.7199 H   0  0  0  0  0  0  0  0  0  0  0  0
    1.9510   -4.0976    1.7721 H   0  0  0  0  0  0  0  0  0  0  0  0
   -6.1419    0.0678   -0.8821 H   0  0  0  0  0  0  0  0  0  0  0  0
   -5.9292    0.5041    0.6733 H   0  0  0  0  0  0  0  0  0  0  0  0
    6.0789    0.0916   -1.6864 H   0  0  0  0  0  0  0  0  0  0  0  0
   -2.5269   -0.8859   -2.9339 H   0  0  0  0  0  0  0  0  0  0  0  0
  1 19  1  0  0  0  0
  1 34  1  0  0  0  0
  2 18  2  0  0  0  0
  3 22  1  0  0  0  0
  3 37  1  0  0  0  0
  4 19  2  0  0  0  0
  5 21  2  0  0  0  0
  6 22  2  0  0  0  0
  7 24  1  0  0  0  0
  7 38  1  0  0  0  0
  8 24  2  0  0  0  0
  9 13  1  0  0  0  0
  9 15  1  0  0  0  0
  9 29  1  0  0  0  0
 10 23  1  0  0  0  0
 10 35  1  0  0  0  0
 10 36  1  0  0  0  0
 11 12  1  0  0  0  0
 11 14  1  0  0  0  0
 11 19  1  0  0  0  0
 11 25  1  0  0  0  0
 12 13  1  0  0  0  0
 12 26  1  0  0  0  0
 12 27  1  0  0  0  0
 13 22  1  0  0  0  0
 13 28  1  0  0  0  0
 14 15  2  0  0  0  0
 14 16  1  0  0  0  0
 15 18  1  0  0  0  0
 16 17  2  0  0  0  0
 16 30  1  0  0  0  0
 17 20  1  0  0  0  0
 17 21  1  0  0  0  0
 18 21  1  0  0  0  0
 20 23  1  0  0  0  0
 20 31  1  0  0  0  0
 20 32  1  0  0  0  0
 23 24  1  0  0  0  0
 23 33  1  0  0  0  0
M  END
> <PUBCHEM_COMPOUND_CID>
11954214

> <PUBCHEM_CONFORMER_RMSD>
0.8

> <PUBCHEM_CONFORMER_DIVERSEORDER>
1
30
56
22
59
73
69
66
62
79
68
36
85
58
28
80
23
75
46
12
60
65
37
81
77
70
50
43
44
54
39
74
3
29
24
82
67
17
76
84
20
52
38
41
10
15
83
57
49
7
48
34
61
71
8
63
18
19
78
13
47
55
51
42
27
33
25
64
72
11
32
14
4
53
5
26
2
45
9
16
31
35
40
6
21

> <PUBCHEM_MMFF94_PARTIAL_CHARGES>
30
1 -0.65
10 -0.99
11 0.2
13 0.43
14 -0.14
15 0.11
16 -0.15
17 -0.12
18 0.56
19 0.66
2 -0.57
20 0.14
21 0.56
22 0.66
23 0.33
24 0.66
29 0.4
3 -0.65
30 0.15
34 0.5
35 0.36
36 0.36
37 0.5
38 0.5
4 -0.57
5 -0.57
6 -0.57
7 -0.65
8 -0.57
9 -0.87

> <PUBCHEM_EFFECTIVE_ROTOR_COUNT>
5.8

> <PUBCHEM_PHARMACOPHORE_FEATURES>
17
1 1 acceptor
1 10 cation
1 10 donor
1 2 acceptor
1 3 acceptor
1 4 acceptor
1 5 acceptor
1 6 acceptor
1 7 acceptor
1 8 acceptor
1 9 cation
1 9 donor
3 1 4 19 anion
3 3 6 22 anion
3 7 8 24 anion
6 14 15 16 17 18 21 rings
6 9 11 12 13 14 15 rings

> <PUBCHEM_HEAVY_ATOM_COUNT>
24

> <PUBCHEM_ATOM_DEF_STEREO_COUNT>
0

> <PUBCHEM_ATOM_UDEF_STEREO_COUNT>
3

> <PUBCHEM_BOND_DEF_STEREO_COUNT>
0

> <PUBCHEM_BOND_UDEF_STEREO_COUNT>
0

> <PUBCHEM_ISOTOPIC_ATOM_COUNT>
0

> <PUBCHEM_COMPONENT_COUNT>
1

> <PUBCHEM_CACTVS_TAUTO_COUNT>
32

> <PUBCHEM_CONFORMER_ID>
00B6682600000001

> <PUBCHEM_MMFF94_ENERGY>
37.7575

> <PUBCHEM_FEATURE_SELFOVERLAP>
86.464

> <PUBCHEM_SHAPE_FINGERPRINT>
10090160 65 18201714050953558650
11578080 2 17678768784564466361
11725454 13 15841272549684205068
12035759 4 18409171017089330302
12553582 1 18187657907447538991
12788726 201 18115024229477951489
12969540 114 18059013865750021556
13009979 54 17901391413524122522
13140716 1 18121224181851549953
13257819 101 16128661816879266894
13911987 19 18058430042139575180
14787075 74 18334569101948135880
15537594 2 18334290964313845551
16945 1 18409445856251709736
17349148 13 18201167645303975626
19784866 140 18407758153189905151
200 152 18411418427319604565
20645477 70 17988925617059381690
21267235 1 18114172009176765679
21501502 16 18194678404580142552
22112679 90 18191595361338818265
22393880 68 18335433322339876189
23114952 82 17773893062768108599
23402539 116 18261107474442236620
235170 7 17275390914932172183
23557571 272 17458336494103600676
23559900 14 17609776766087889574
23598288 3 18191306194487240609
25147074 1 18266174131054514609
2871803 45 18411130355515921696
312423 11 18265892651682694035
34934 24 18264760133568975441
4098825 35 17488751215232396381
603831 33 18409167744276440107
633830 44 18198601376627500644
7471813 234 18196951069661839514
7615 1 18195254531456285187

> <PUBCHEM_SHAPE_MULTIPOLES>
436.99
8.99
2.84
1.56
1.83
0.09
-0.22
0.57
-4.73
-1.06
1.08
0.23
0.56
-2

> <PUBCHEM_SHAPE_SELFOVERLAP>
936.416

> <PUBCHEM_SHAPE_VOLUME>
237

> <PUBCHEM_COORDINATE_TYPE>
2
5
10

$$$$

