91634
  -OEChem-07051213012D

 59 62  0     0  0  0  0  0  0999 V2000
    5.0000    0.2306    0.0000 Sn  0  0  0  0  0  0  0  0  0  0  0  0
    5.0000    1.2306    0.0000 N   0  0  0  0  0  0  0  0  0  0  0  0
    5.8090    1.8184    0.0000 N   0  0  0  0  0  0  0  0  0  0  0  0
    4.5000    2.7694    0.0000 N   0  0  0  0  0  0  0  0  0  0  0  0
    5.0000   -0.7694    0.0000 C   0  0  0  0  0  0  0  0  0  0  0  0
    6.0000    0.2306    0.0000 C   0  0  0  0  0  0  0  0  0  0  0  0
    4.0000    0.2306    0.0000 C   0  0  0  0  0  0  0  0  0  0  0  0
    4.1340   -1.2694    0.0000 C   0  0  0  0  0  0  0  0  0  0  0  0
    5.8660   -1.2694    0.0000 C   0  0  0  0  0  0  0  0  0  0  0  0
    6.5000   -0.6354    0.0000 C   0  0  0  0  0  0  0  0  0  0  0  0
    6.5000    1.0966    0.0000 C   0  0  0  0  0  0  0  0  0  0  0  0
    3.5000    1.0966    0.0000 C   0  0  0  0  0  0  0  0  0  0  0  0
    3.5000   -0.6354    0.0000 C   0  0  0  0  0  0  0  0  0  0  0  0
    2.5000   -0.6354    0.0000 C   0  0  0  0  0  0  0  0  0  0  0  0
    2.5000    1.0966    0.0000 C   0  0  0  0  0  0  0  0  0  0  0  0
    7.5000    1.0966    0.0000 C   0  0  0  0  0  0  0  0  0  0  0  0
    7.5000   -0.6354    0.0000 C   0  0  0  0  0  0  0  0  0  0  0  0
    5.8660   -2.2694    0.0000 C   0  0  0  0  0  0  0  0  0  0  0  0
    4.1340   -2.2694    0.0000 C   0  0  0  0  0  0  0  0  0  0  0  0
    5.0000   -2.7694    0.0000 C   0  0  0  0  0  0  0  0  0  0  0  0
    8.0000    0.2306    0.0000 C   0  0  0  0  0  0  0  0  0  0  0  0
    2.0000    0.2306    0.0000 C   0  0  0  0  0  0  0  0  0  0  0  0
    4.1910    1.8184    0.0000 C   0  0  0  0  0  0  0  0  0  0  0  0
    5.5000    2.7694    0.0000 C   0  0  0  0  0  0  0  0  0  0  0  0
    5.5369   -0.4594    0.0000 H   0  0  0  0  0  0  0  0  0  0  0  0
    5.6900    0.7675    0.0000 H   0  0  0  0  0  0  0  0  0  0  0  0
    4.3100    0.7675    0.0000 H   0  0  0  0  0  0  0  0  0  0  0  0
    3.9219   -0.6868    0.0000 H   0  0  0  0  0  0  0  0  0  0  0  0
    3.5234   -1.3771    0.0000 H   0  0  0  0  0  0  0  0  0  0  0  0
    6.4766   -1.3771    0.0000 H   0  0  0  0  0  0  0  0  0  0  0  0
    6.0781   -0.6868    0.0000 H   0  0  0  0  0  0  0  0  0  0  0  0
    5.9174   -0.8475    0.0000 H   0  0  0  0  0  0  0  0  0  0  0  0
    6.6077   -1.2460    0.0000 H   0  0  0  0  0  0  0  0  0  0  0  0
    6.6077    1.7072    0.0000 H   0  0  0  0  0  0  0  0  0  0  0  0
    5.9174    1.3087    0.0000 H   0  0  0  0  0  0  0  0  0  0  0  0
    4.0826    1.3087    0.0000 H   0  0  0  0  0  0  0  0  0  0  0  0
    3.3923    1.7072    0.0000 H   0  0  0  0  0  0  0  0  0  0  0  0
    3.3923   -1.2460    0.0000 H   0  0  0  0  0  0  0  0  0  0  0  0
    4.0826   -0.8475    0.0000 H   0  0  0  0  0  0  0  0  0  0  0  0
    1.9174   -0.8475    0.0000 H   0  0  0  0  0  0  0  0  0  0  0  0
    2.6077   -1.2460    0.0000 H   0  0  0  0  0  0  0  0  0  0  0  0
    2.6077    1.7072    0.0000 H   0  0  0  0  0  0  0  0  0  0  0  0
    1.9174    1.3087    0.0000 H   0  0  0  0  0  0  0  0  0  0  0  0
    8.0826    1.3087    0.0000 H   0  0  0  0  0  0  0  0  0  0  0  0
    7.3923    1.7072    0.0000 H   0  0  0  0  0  0  0  0  0  0  0  0
    7.3923   -1.2460    0.0000 H   0  0  0  0  0  0  0  0  0  0  0  0
    8.0826   -0.8475    0.0000 H   0  0  0  0  0  0  0  0  0  0  0  0
    6.0781   -2.8520    0.0000 H   0  0  0  0  0  0  0  0  0  0  0  0
    6.4766   -2.1618    0.0000 H   0  0  0  0  0  0  0  0  0  0  0  0
    3.5234   -2.1618    0.0000 H   0  0  0  0  0  0  0  0  0  0  0  0
    3.9219   -2.8520    0.0000 H   0  0  0  0  0  0  0  0  0  0  0  0
    4.6015   -3.2444    0.0000 H   0  0  0  0  0  0  0  0  0  0  0  0
    5.3985   -3.2444    0.0000 H   0  0  0  0  0  0  0  0  0  0  0  0
    8.4750   -0.1679    0.0000 H   0  0  0  0  0  0  0  0  0  0  0  0
    8.4750    0.6291    0.0000 H   0  0  0  0  0  0  0  0  0  0  0  0
    1.5250    0.6291    0.0000 H   0  0  0  0  0  0  0  0  0  0  0  0
    1.5250   -0.1679    0.0000 H   0  0  0  0  0  0  0  0  0  0  0  0
    3.6013    1.6268    0.0000 H   0  0  0  0  0  0  0  0  0  0  0  0
    5.8644    3.2710    0.0000 H   0  0  0  0  0  0  0  0  0  0  0  0
  1  2  1  0  0  0  0
  1  5  1  0  0  0  0
  1  6  1  0  0  0  0
  1  7  1  0  0  0  0
  2  3  1  0  0  0  0
  2 23  1  0  0  0  0
  3 24  2  0  0  0  0
  4 23  2  0  0  0  0
  4 24  1  0  0  0  0
  5  8  1  0  0  0  0
  5  9  1  0  0  0  0
  5 25  1  0  0  0  0
  6 10  1  0  0  0  0
  6 11  1  0  0  0  0
  6 26  1  0  0  0  0
  7 12  1  0  0  0  0
  7 13  1  0  0  0  0
  7 27  1  0  0  0  0
  8 19  1  0  0  0  0
  8 28  1  0  0  0  0
  8 29  1  0  0  0  0
  9 18  1  0  0  0  0
  9 30  1  0  0  0  0
  9 31  1  0  0  0  0
 10 17  1  0  0  0  0
 10 32  1  0  0  0  0
 10 33  1  0  0  0  0
 11 16  1  0  0  0  0
 11 34  1  0  0  0  0
 11 35  1  0  0  0  0
 12 15  1  0  0  0  0
 12 36  1  0  0  0  0
 12 37  1  0  0  0  0
 13 14  1  0  0  0  0
 13 38  1  0  0  0  0
 13 39  1  0  0  0  0
 14 22  1  0  0  0  0
 14 40  1  0  0  0  0
 14 41  1  0  0  0  0
 15 22  1  0  0  0  0
 15 42  1  0  0  0  0
 15 43  1  0  0  0  0
 16 21  1  0  0  0  0
 16 44  1  0  0  0  0
 16 45  1  0  0  0  0
 17 21  1  0  0  0  0
 17 46  1  0  0  0  0
 17 47  1  0  0  0  0
 18 20  1  0  0  0  0
 18 48  1  0  0  0  0
 18 49  1  0  0  0  0
 19 20  1  0  0  0  0
 19 50  1  0  0  0  0
 19 51  1  0  0  0  0
 20 52  1  0  0  0  0
 20 53  1  0  0  0  0
 21 54  1  0  0  0  0
 21 55  1  0  0  0  0
 22 56  1  0  0  0  0
 22 57  1  0  0  0  0
 23 58  1  0  0  0  0
 24 59  1  0  0  0  0
M  END
> <PUBCHEM_COMPOUND_CID>
91634

> <PUBCHEM_COMPOUND_CANONICALIZED>
1

> <PUBCHEM_CACTVS_COMPLEXITY>
339

> <PUBCHEM_CACTVS_HBOND_ACCEPTOR>
2

> <PUBCHEM_CACTVS_HBOND_DONOR>
0

> <PUBCHEM_CACTVS_ROTATABLE_BOND>
4

> <PUBCHEM_CACTVS_SUBSKEYS>
AAADcfB7AAAAAAAAAACAAAAAAAAAAWAAAAAwYMAAAAAAAAABgAAAHAAIAAAACACAAAQFEAYIEAAiAAABJAAQAAsQgIAFQAAIAACACAIAAAAAAAAAAAAAAAEAAAAAAAAAAAAAAAAAAAAAAAAAAAAAAAAAAA==

> <PUBCHEM_IUPAC_OPENEYE_NAME>
tricyclohexyl(1,2,4-triazol-1-yl)stannane

> <PUBCHEM_IUPAC_CAS_NAME>
tricyclohexyl(1,2,4-triazol-1-yl)stannane

> <PUBCHEM_IUPAC_NAME>
tricyclohexyl(1,2,4-triazol-1-yl)stannane

> <PUBCHEM_IUPAC_SYSTEMATIC_NAME>
tricyclohexyl(1,2,4-triazol-1-yl)stannane

> <PUBCHEM_IUPAC_TRADITIONAL_NAME>
tricyclohexyl(1,2,4-triazol-1-yl)stannane

> <PUBCHEM_IUPAC_INCHI>
InChI=1S/3C6H11.C2H2N3.Sn/c3*1-2-4-6-5-3-1;1-3-2-5-4-1;/h3*1H,2-6H2;1-2H;/q;;;-1;+1

> <PUBCHEM_IUPAC_INCHIKEY>
ONHBDDJJTDTLIR-UHFFFAOYSA-N

> <PUBCHEM_EXACT_MASS>
437.185293

> <PUBCHEM_MOLECULAR_FORMULA>
C20H35N3Sn

> <PUBCHEM_MOLECULAR_WEIGHT>
436.222

> <PUBCHEM_OPENEYE_CAN_SMILES>
C1CCC(CC1)[Sn](C2CCCCC2)(C3CCCCC3)N4C=NC=N4

> <PUBCHEM_OPENEYE_ISO_SMILES>
C1CCC(CC1)[Sn](C2CCCCC2)(C3CCCCC3)N4C=NC=N4

> <PUBCHEM_CACTVS_TPSA>
30.7

> <PUBCHEM_MONOISOTOPIC_WEIGHT>
437.185293

> <PUBCHEM_TOTAL_CHARGE>
0

> <PUBCHEM_HEAVY_ATOM_COUNT>
24

> <PUBCHEM_ATOM_DEF_STEREO_COUNT>
0

> <PUBCHEM_ATOM_UDEF_STEREO_COUNT>
0

> <PUBCHEM_BOND_DEF_STEREO_COUNT>
0

> <PUBCHEM_BOND_UDEF_STEREO_COUNT>
0

> <PUBCHEM_ISOTOPIC_ATOM_COUNT>
0

> <PUBCHEM_COMPONENT_COUNT>
1

> <PUBCHEM_CACTVS_TAUTO_COUNT>
1

> <PUBCHEM_COORDINATE_TYPE>
1
5
255

> <PUBCHEM_BONDANNOTATIONS>
2  23  8
2  3  8
3  24  8
4  23  8
4  24  8

$$$$

