5281979
  -OEChem-07051213023D

 54 54  0     1  0  0  0  0  0999 V2000
   -0.3016    2.9295    0.4065 O   0  0  0  0  0  0  0  0  0  0  0  0
    4.7196   -1.8097    1.3458 O   0  0  0  0  0  0  0  0  0  0  0  0
    4.0824    1.0088    0.9545 O   0  0  0  0  0  0  0  0  0  0  0  0
    0.7392    1.2442    1.5620 O   0  0  0  0  0  0  0  0  0  0  0  0
    2.4685    1.1167   -0.7134 N   0  0  0  0  0  0  0  0  0  0  0  0
    1.8559    2.3433   -0.3040 C   0  0  1  0  0  0  0  0  0  0  0  0
    3.8504   -1.9664    0.2249 C   0  0  1  0  0  0  0  0  0  0  0  0
    2.4149   -2.2062    0.7167 C   0  0  0  0  0  0  0  0  0  0  0  0
    1.1359    3.0534   -1.4258 C   0  0  0  0  0  0  0  0  0  0  0  0
    1.3947   -2.4854   -0.3935 C   0  0  0  0  0  0  0  0  0  0  0  0
    3.9784   -0.7563   -0.7047 C   0  0  0  0  0  0  0  0  0  0  0  0
    0.0435    3.7856   -0.6888 C   0  0  0  0  0  0  0  0  0  0  0  0
    0.0008   -2.7350    0.1897 C   0  0  0  0  0  0  0  0  0  0  0  0
    3.5415    0.5439   -0.0450 C   0  0  0  0  0  0  0  0  0  0  0  0
    0.7339    2.0688    0.6613 C   0  0  0  0  0  0  0  0  0  0  0  0
   -2.6935   -0.1788    0.0189 C   0  0  0  0  0  0  0  0  0  0  0  0
   -4.1408   -0.3854   -0.4414 C   0  0  0  0  0  0  0  0  0  0  0  0
   -1.6666   -0.5598   -1.0533 C   0  0  0  0  0  0  0  0  0  0  0  0
   -5.1755    0.0022    0.6197 C   0  0  0  0  0  0  0  0  0  0  0  0
   -1.0057   -2.9740   -0.8975 C   0  0  0  0  0  0  0  0  0  0  0  0
   -1.7489   -2.0049   -1.4517 C   0  0  0  0  0  0  0  0  0  0  0  0
   -6.6204   -0.1817    0.1542 C   0  0  0  0  0  0  0  0  0  0  0  0
   -7.6065    0.1472    1.2649 C   0  0  0  0  0  0  0  0  0  0  0  0
    2.5824    2.9980    0.1900 H   0  0  0  0  0  0  0  0  0  0  0  0
    4.1890   -2.8597   -0.3135 H   0  0  0  0  0  0  0  0  0  0  0  0
    2.4302   -3.0564    1.4118 H   0  0  0  0  0  0  0  0  0  0  0  0
    2.0844   -1.3542    1.3240 H   0  0  0  0  0  0  0  0  0  0  0  0
    1.7816    3.7186   -2.0061 H   0  0  0  0  0  0  0  0  0  0  0  0
    0.6881    2.3334   -2.1230 H   0  0  0  0  0  0  0  0  0  0  0  0
    1.7181   -3.3590   -0.9732 H   0  0  0  0  0  0  0  0  0  0  0  0
    1.3526   -1.6394   -1.0868 H   0  0  0  0  0  0  0  0  0  0  0  0
    3.4401   -0.9312   -1.6417 H   0  0  0  0  0  0  0  0  0  0  0  0
    5.0321   -0.6130   -0.9767 H   0  0  0  0  0  0  0  0  0  0  0  0
   -0.8362    3.9513   -1.3172 H   0  0  0  0  0  0  0  0  0  0  0  0
    0.3828    4.7457   -0.2863 H   0  0  0  0  0  0  0  0  0  0  0  0
    2.0476    0.6167   -1.4909 H   0  0  0  0  0  0  0  0  0  0  0  0
   -0.2951   -1.9049    0.8405 H   0  0  0  0  0  0  0  0  0  0  0  0
    0.0232   -3.6214    0.8358 H   0  0  0  0  0  0  0  0  0  0  0  0
   -2.5138   -0.7594    0.9320 H   0  0  0  0  0  0  0  0  0  0  0  0
   -2.5485    0.8759    0.2822 H   0  0  0  0  0  0  0  0  0  0  0  0
   -4.3179    0.2063   -1.3481 H   0  0  0  0  0  0  0  0  0  0  0  0
   -4.3034   -1.4356   -0.7101 H   0  0  0  0  0  0  0  0  0  0  0  0
   -0.6637   -0.2931   -0.7049 H   0  0  0  0  0  0  0  0  0  0  0  0
   -1.8303    0.0514   -1.9499 H   0  0  0  0  0  0  0  0  0  0  0  0
   -5.0042   -0.6027    1.5190 H   0  0  0  0  0  0  0  0  0  0  0  0
   -5.0201    1.0491    0.9086 H   0  0  0  0  0  0  0  0  0  0  0  0
   -1.1201   -3.9930   -1.2574 H   0  0  0  0  0  0  0  0  0  0  0  0
   -2.4536   -2.2704   -2.2352 H   0  0  0  0  0  0  0  0  0  0  0  0
   -6.8166    0.4630   -0.7101 H   0  0  0  0  0  0  0  0  0  0  0  0
   -6.7772   -1.2170   -0.1700 H   0  0  0  0  0  0  0  0  0  0  0  0
    5.6228   -1.6973    1.0037 H   0  0  0  0  0  0  0  0  0  0  0  0
   -7.4560   -0.5066    2.1299 H   0  0  0  0  0  0  0  0  0  0  0  0
   -8.6335    0.0120    0.9116 H   0  0  0  0  0  0  0  0  0  0  0  0
   -7.4941    1.1851    1.5943 H   0  0  0  0  0  0  0  0  0  0  0  0
  1 12  1  0  0  0  0
  1 15  1  0  0  0  0
  2  7  1  0  0  0  0
  2 51  1  0  0  0  0
  3 14  2  0  0  0  0
  4 15  2  0  0  0  0
  5  6  1  0  0  0  0
  5 14  1  0  0  0  0
  5 36  1  0  0  0  0
  6  9  1  0  0  0  0
  6 15  1  0  0  0  0
  6 24  1  0  0  0  0
  7  8  1  0  0  0  0
  7 11  1  0  0  0  0
  7 25  1  0  0  0  0
  8 10  1  0  0  0  0
  8 26  1  0  0  0  0
  8 27  1  0  0  0  0
  9 12  1  0  0  0  0
  9 28  1  0  0  0  0
  9 29  1  0  0  0  0
 10 13  1  0  0  0  0
 10 30  1  0  0  0  0
 10 31  1  0  0  0  0
 11 14  1  0  0  0  0
 11 32  1  0  0  0  0
 11 33  1  0  0  0  0
 12 34  1  0  0  0  0
 12 35  1  0  0  0  0
 13 20  1  0  0  0  0
 13 37  1  0  0  0  0
 13 38  1  0  0  0  0
 16 17  1  0  0  0  0
 16 18  1  0  0  0  0
 16 39  1  0  0  0  0
 16 40  1  0  0  0  0
 17 19  1  0  0  0  0
 17 41  1  0  0  0  0
 17 42  1  0  0  0  0
 18 21  1  0  0  0  0
 18 43  1  0  0  0  0
 18 44  1  0  0  0  0
 19 22  1  0  0  0  0
 19 45  1  0  0  0  0
 19 46  1  0  0  0  0
 20 21  2  0  0  0  0
 20 47  1  0  0  0  0
 21 48  1  0  0  0  0
 22 23  1  0  0  0  0
 22 49  1  0  0  0  0
 22 50  1  0  0  0  0
 23 52  1  0  0  0  0
 23 53  1  0  0  0  0
 23 54  1  0  0  0  0
M  END
> <PUBCHEM_COMPOUND_CID>
5281979

> <PUBCHEM_CONFORMER_RMSD>
1.4

> <PUBCHEM_CONFORMER_DIVERSEORDER>
4
2
10
36
85
17
107
99
60
39
116
13
102
45
37
74
100
110
96
28
113
91
103
1
43
67
35
68
78
86
25
29
48
66
19
97
95
53
93
23
64
112
57
55
80
72
62
88
108
46
22
27
26
114
104
56
41
73
21
76
90
24
63
44
71
65
11
94
69
106
84
6
54
3
77
32
7
38
40
101
16
83
14
59
89
34
79
105
15
30
109
42
52
58
98
31
82
70
5
61
47
18
33
115
8
92
50
9
111
12
81
87
51
20
75
49

> <PUBCHEM_MMFF94_PARTIAL_CHARGES>
19
1 -0.43
11 0.06
12 0.28
13 0.14
14 0.57
15 0.66
18 0.14
2 -0.68
20 -0.29
21 -0.29
3 -0.57
36 0.37
4 -0.57
47 0.15
48 0.15
5 -0.73
51 0.4
6 0.36
7 0.28

> <PUBCHEM_EFFECTIVE_ROTOR_COUNT>
13.8

> <PUBCHEM_PHARMACOPHORE_FEATURES>
10
1 2 acceptor
1 2 donor
1 23 hydrophobe
1 3 acceptor
1 4 acceptor
1 5 donor
3 16 18 21 hydrophobe
3 17 19 22 hydrophobe
4 8 10 13 20 hydrophobe
5 1 6 9 12 15 rings

> <PUBCHEM_HEAVY_ATOM_COUNT>
23

> <PUBCHEM_ATOM_DEF_STEREO_COUNT>
1

> <PUBCHEM_ATOM_UDEF_STEREO_COUNT>
1

> <PUBCHEM_BOND_DEF_STEREO_COUNT>
1

> <PUBCHEM_BOND_UDEF_STEREO_COUNT>
0

> <PUBCHEM_ISOTOPIC_ATOM_COUNT>
0

> <PUBCHEM_COMPONENT_COUNT>
1

> <PUBCHEM_CACTVS_TAUTO_COUNT>
4

> <PUBCHEM_CONFORMER_ID>
005098BB00000004

> <PUBCHEM_MMFF94_ENERGY>
18.0834

> <PUBCHEM_FEATURE_SELFOVERLAP>
50.758

> <PUBCHEM_SHAPE_FINGERPRINT>
10074138 170 15894787266878849075
10688039 33 18059011803749014053
11045977 3 17988634195365999739
12422481 6 17974843179457302769
12553582 1 18410867555299380238
12838862 33 18337125487841377036
13075007 39 17987500568770170035
14464042 87 17968089859022842387
151778 21 18127123074862231925
15210252 30 18129094538166142596
16760501 71 18410288087187224379
18785283 64 18341604877075489319
20465049 17 18267564841549167055
20621476 7 18410014376740641039
23558518 356 17760938342007951719
238 59 17327472319897890102
338550 245 18265333894223852583
3680242 22 18411138043402133555
46194498 28 17489585624077774549
7832392 63 18336271124452114798
8509985 295 18408600345006049189

> <PUBCHEM_SHAPE_MULTIPOLES>
444.87
12.09
4.36
1.27
25.06
2.07
-0.01
-2.41
-4.96
-3.37
0.97
0.03
0.04
-1.16

> <PUBCHEM_SHAPE_SELFOVERLAP>
863.566

> <PUBCHEM_SHAPE_VOLUME>
269.3

> <PUBCHEM_COORDINATE_TYPE>
2
5
10

$$$$

