442764
  -OEChem-07051212593D

 49 51  0     1  0  0  0  0  0999 V2000
    0.9445    1.4533   -0.6922 O   0  0  0  0  0  0  0  0  0  0  0  0
   -0.2430   -1.4070   -0.0708 O   0  0  0  0  0  0  0  0  0  0  0  0
   -3.7859   -1.5224   -0.6129 O   0  0  0  0  0  0  0  0  0  0  0  0
   -0.1776    2.0398    1.2296 O   0  0  0  0  0  0  0  0  0  0  0  0
   -1.5300   -1.6785   -1.9634 O   0  0  0  0  0  0  0  0  0  0  0  0
    3.8391    0.0088    1.0293 N   0  0  2  0  0  0  0  0  0  0  0  0
    2.3687    0.0067    0.7175 C   0  0  1  0  0  0  0  0  0  0  0  0
    2.1655    1.3612    0.0405 C   0  0  1  0  0  0  0  0  0  0  0  0
    3.3799    1.4676   -0.8555 C   0  0  0  0  0  0  0  0  0  0  0  0
    4.4846    0.8876    0.0195 C   0  0  0  0  0  0  0  0  0  0  0  0
    2.1533   -1.2586   -0.0805 C   0  0  0  0  0  0  0  0  0  0  0  0
    4.2638   -1.4022    0.8788 C   0  0  0  0  0  0  0  0  0  0  0  0
    3.2221   -2.0537    0.0388 C   0  0  0  0  0  0  0  0  0  0  0  0
    0.9339   -1.5738   -0.8755 C   0  0  0  0  0  0  0  0  0  0  0  0
   -2.6892    0.0459    0.9283 C   0  0  2  0  0  0  0  0  0  0  0  0
   -2.7213    1.3034   -0.0294 C   0  0  2  0  0  0  0  0  0  0  0  0
   -2.6151   -1.3350    0.1851 C   0  0  2  0  0  0  0  0  0  0  0  0
   -1.4104    1.5696   -0.7634 C   0  0  0  0  0  0  0  0  0  0  0  0
   -0.1663    1.7444    0.0422 C   0  0  0  0  0  0  0  0  0  0  0  0
   -1.4239   -1.4862   -0.7571 C   0  0  0  0  0  0  0  0  0  0  0  0
   -3.9054    0.0685    1.8802 C   0  0  0  0  0  0  0  0  0  0  0  0
   -3.1563    2.6087    0.6638 C   0  0  0  0  0  0  0  0  0  0  0  0
   -2.5709   -2.5330    1.1478 C   0  0  0  0  0  0  0  0  0  0  0  0
   -1.3597    1.6848   -2.1006 C   0  0  0  0  0  0  0  0  0  0  0  0
    1.7823   -0.0543    1.6424 H   0  0  0  0  0  0  0  0  0  0  0  0
    2.2197    2.1718    0.7821 H   0  0  0  0  0  0  0  0  0  0  0  0
    3.5799    2.5011   -1.1551 H   0  0  0  0  0  0  0  0  0  0  0  0
    3.2454    0.8809   -1.7722 H   0  0  0  0  0  0  0  0  0  0  0  0
    5.2462    0.3943   -0.5946 H   0  0  0  0  0  0  0  0  0  0  0  0
    4.9861    1.6978    0.5616 H   0  0  0  0  0  0  0  0  0  0  0  0
    4.2865   -1.8807    1.8646 H   0  0  0  0  0  0  0  0  0  0  0  0
    5.2634   -1.5029    0.4435 H   0  0  0  0  0  0  0  0  0  0  0  0
    3.3281   -3.0305   -0.4098 H   0  0  0  0  0  0  0  0  0  0  0  0
    0.8904   -0.9144   -1.7498 H   0  0  0  0  0  0  0  0  0  0  0  0
    0.9625   -2.6111   -1.2303 H   0  0  0  0  0  0  0  0  0  0  0  0
   -1.8008    0.1226    1.5676 H   0  0  0  0  0  0  0  0  0  0  0  0
   -3.4964    1.0998   -0.7822 H   0  0  0  0  0  0  0  0  0  0  0  0
   -3.8996    0.9595    2.5154 H   0  0  0  0  0  0  0  0  0  0  0  0
   -4.8479    0.0482    1.3235 H   0  0  0  0  0  0  0  0  0  0  0  0
   -3.8980   -0.7781    2.5720 H   0  0  0  0  0  0  0  0  0  0  0  0
   -3.0217    3.4747    0.0049 H   0  0  0  0  0  0  0  0  0  0  0  0
   -4.2207    2.5777    0.9206 H   0  0  0  0  0  0  0  0  0  0  0  0
   -2.5927    2.7942    1.5835 H   0  0  0  0  0  0  0  0  0  0  0  0
   -3.5435   -2.7166    1.6165 H   0  0  0  0  0  0  0  0  0  0  0  0
   -2.3211   -3.4584    0.6133 H   0  0  0  0  0  0  0  0  0  0  0  0
   -1.8184   -2.3935    1.9312 H   0  0  0  0  0  0  0  0  0  0  0  0
   -3.7698   -2.4242   -0.9768 H   0  0  0  0  0  0  0  0  0  0  0  0
   -2.2568    1.5739   -2.7017 H   0  0  0  0  0  0  0  0  0  0  0  0
   -0.4441    1.8993   -2.6408 H   0  0  0  0  0  0  0  0  0  0  0  0
  1  8  1  0  0  0  0
  1 19  1  0  0  0  0
  2 14  1  0  0  0  0
  2 20  1  0  0  0  0
  3 17  1  0  0  0  0
  3 47  1  0  0  0  0
  4 19  2  0  0  0  0
  5 20  2  0  0  0  0
  6  7  1  0  0  0  0
  6 10  1  0  0  0  0
  6 12  1  0  0  0  0
  7  8  1  0  0  0  0
  7 11  1  0  0  0  0
  7 25  1  0  0  0  0
  8  9  1  0  0  0  0
  8 26  1  0  0  0  0
  9 10  1  0  0  0  0
  9 27  1  0  0  0  0
  9 28  1  0  0  0  0
 10 29  1  0  0  0  0
 10 30  1  0  0  0  0
 11 13  2  0  0  0  0
 11 14  1  0  0  0  0
 12 13  1  0  0  0  0
 12 31  1  0  0  0  0
 12 32  1  0  0  0  0
 13 33  1  0  0  0  0
 14 34  1  0  0  0  0
 14 35  1  0  0  0  0
 15 16  1  0  0  0  0
 15 17  1  0  0  0  0
 15 21  1  0  0  0  0
 15 36  1  0  0  0  0
 16 18  1  0  0  0  0
 16 22  1  0  0  0  0
 16 37  1  0  0  0  0
 17 20  1  0  0  0  0
 17 23  1  0  0  0  0
 18 19  1  0  0  0  0
 18 24  2  0  0  0  0
 21 38  1  0  0  0  0
 21 39  1  0  0  0  0
 21 40  1  0  0  0  0
 22 41  1  0  0  0  0
 22 42  1  0  0  0  0
 22 43  1  0  0  0  0
 23 44  1  0  0  0  0
 23 45  1  0  0  0  0
 23 46  1  0  0  0  0
 24 48  1  0  0  0  0
 24 49  1  0  0  0  0
M  END
> <PUBCHEM_COMPOUND_CID>
442764

> <PUBCHEM_CONFORMER_RMSD>
0.6

> <PUBCHEM_CONFORMER_DIVERSEORDER>
3
10
4
6
8
7
12
2
9
11
1
13
5

> <PUBCHEM_MMFF94_PARTIAL_CHARGES>
23
1 -0.43
10 0.27
11 -0.28
12 0.41
13 -0.29
14 0.42
16 0.14
17 0.34
18 -0.12
19 0.71
2 -0.43
20 0.66
24 -0.3
3 -0.68
33 0.15
4 -0.57
47 0.4
48 0.15
49 0.15
5 -0.57
6 -0.81
7 0.41
8 0.28

> <PUBCHEM_EFFECTIVE_ROTOR_COUNT>
1.8

> <PUBCHEM_PHARMACOPHORE_FEATURES>
7
1 3 acceptor
1 3 donor
1 4 acceptor
1 5 acceptor
1 6 cation
5 6 7 11 12 13 rings
5 6 7 8 9 10 rings

> <PUBCHEM_HEAVY_ATOM_COUNT>
24

> <PUBCHEM_ATOM_DEF_STEREO_COUNT>
5

> <PUBCHEM_ATOM_UDEF_STEREO_COUNT>
0

> <PUBCHEM_BOND_DEF_STEREO_COUNT>
0

> <PUBCHEM_BOND_UDEF_STEREO_COUNT>
0

> <PUBCHEM_ISOTOPIC_ATOM_COUNT>
0

> <PUBCHEM_COMPONENT_COUNT>
1

> <PUBCHEM_CACTVS_TAUTO_COUNT>
1

> <PUBCHEM_CONFORMER_ID>
0006C18C00000003

> <PUBCHEM_MMFF94_ENERGY>
62.7603

> <PUBCHEM_FEATURE_SELFOVERLAP>
36.058

> <PUBCHEM_SHAPE_FINGERPRINT>
10366900 7 18339079263884439338
104564 63 18336824195521338572
10616163 171 18410568457755459468
10759866 29 18272080600756407884
10863032 1 18410011056757450768
1100329 8 15528550998700420594
11132069 177 18408887355815711586
11370993 70 18120374521446246905
11578080 2 17606143722077266593
11680986 33 18118963830800240918
12011746 2 18334013861386709909
12382932 28 18259983803169824248
12403814 3 18130788979641334597
12422481 6 18193532649899178057
12553582 1 18340762637540165832
12633257 1 18268707388564567530
13140716 1 18337962302252718154
13224815 77 18335141977433405894
13583140 156 17273704354131162688
14223421 5 18342175531767631914
14790565 3 17837760137241459676
15163728 17 14130164326820763931
15196674 1 18410294735279029722
15375462 189 18337945693192425320
16945 1 18340189805346868909
17357779 13 18268733648295490743
1813 80 17203034210755312389
20261772 1 18408035217277251458
20691752 17 17917985100811924654
21421861 104 16978667705173456123
21501502 16 18412544318826351756
2334 1 18410300194293356334
23559900 14 18119249704245683006
2748010 2 17471575907050418150
392239 28 18114474353574161496
4340502 62 18118398686635950705
5104073 3 18411991277937424624
6438718 38 17822008653519435886
7064713 232 18041276663981274729
7097593 13 18057331793295773490
9709674 26 18411980277962001066

> <PUBCHEM_SHAPE_MULTIPOLES>
459.58
7.71
2.92
1.47
4.13
0.08
0.28
0.76
-2.45
-1.14
0.16
-0.99
-0.05
-0.32

> <PUBCHEM_SHAPE_SELFOVERLAP>
971.394

> <PUBCHEM_SHAPE_VOLUME>
257.7

> <PUBCHEM_COORDINATE_TYPE>
2
5
10

$$$$

