5281376
  -OEChem-07051212562D

 54 56  0     1  0  0  0  0  0999 V2000
    4.5298   -1.7022    0.0000 O   0  0  0  0  0  0  0  0  0  0  0  0
    3.2729    1.5531    0.0000 O   0  0  0  0  0  0  0  0  0  0  0  0
    5.1370    1.7638    0.0000 O   0  0  0  0  0  0  0  0  0  0  0  0
    5.3958   -2.2022    0.0000 O   0  0  0  0  0  0  0  0  0  0  0  0
    9.0121   -0.5002    0.0000 C   0  0  0  0  0  0  0  0  0  0  0  0
    8.3277    0.2802    0.0000 C   0  0  2  0  0  0  0  0  0  0  0  0
    7.9939   -0.7022    0.0000 C   0  0  1  0  0  0  0  0  0  0  0  0
    8.0689    1.2461    0.0000 C   0  0  0  0  0  0  0  0  0  0  0  0
    9.7641    0.1589    0.0000 C   0  0  0  0  0  0  0  0  0  0  0  0
    9.2069   -1.4810    0.0000 C   0  0  0  0  0  0  0  0  0  0  0  0
    7.1279   -1.2022    0.0000 C   0  0  0  0  0  0  0  0  0  0  0  0
    4.5298    0.2978    0.0000 C   0  0  2  0  0  0  0  0  0  0  0  0
    4.5298   -0.7022    0.0000 C   0  0  1  0  0  0  0  0  0  0  0  0
    7.1030    1.5049    0.0000 C   0  0  0  0  0  0  0  0  0  0  0  0
    3.5836    0.6026    0.0000 C   0  0  2  0  0  0  0  0  0  0  0  0
    3.0000   -0.2022    0.0000 C   0  0  2  0  0  0  0  0  0  0  0  0
    3.5836   -1.0069    0.0000 C   0  0  0  0  0  0  0  0  0  0  0  0
    5.3958    0.7978    0.0000 C   0  0  1  0  0  0  0  0  0  0  0  0
    6.2619   -0.7022    0.0000 C   0  0  0  0  0  0  0  0  0  0  0  0
    6.3958    0.7978    0.0000 C   0  0  0  0  0  0  0  0  0  0  0  0
    5.3958   -1.2022    0.0000 C   0  0  0  0  0  0  0  0  0  0  0  0
    2.0000   -0.2022    0.0000 C   0  0  0  0  0  0  0  0  0  0  0  0
    6.0882    0.2826    0.0000 C   0  0  0  0  0  0  0  0  0  0  0  0
    6.7785   -0.1260    0.0000 C   0  0  0  0  0  0  0  0  0  0  0  0
    9.0773    0.6809    0.0000 H   0  0  0  0  0  0  0  0  0  0  0  0
    8.2931   -1.4978    0.0000 H   0  0  0  0  0  0  0  0  0  0  0  0
    8.6865    1.3002    0.0000 H   0  0  0  0  0  0  0  0  0  0  0  0
    8.1229    1.8638    0.0000 H   0  0  0  0  0  0  0  0  0  0  0  0
   10.1728   -0.3073    0.0000 H   0  0  0  0  0  0  0  0  0  0  0  0
   10.2304    0.5676    0.0000 H   0  0  0  0  0  0  0  0  0  0  0  0
    9.3554    0.6252    0.0000 H   0  0  0  0  0  0  0  0  0  0  0  0
    8.5988   -1.6018    0.0000 H   0  0  0  0  0  0  0  0  0  0  0  0
    9.3277   -2.0892    0.0000 H   0  0  0  0  0  0  0  0  0  0  0  0
    9.8150   -1.3603    0.0000 H   0  0  0  0  0  0  0  0  0  0  0  0
    7.1279   -1.8222    0.0000 H   0  0  0  0  0  0  0  0  0  0  0  0
    4.4399    1.1431    0.0000 H   0  0  0  0  0  0  0  0  0  0  0  0
    7.3650    2.0668    0.0000 H   0  0  0  0  0  0  0  0  0  0  0  0
    6.5951    1.8606    0.0000 H   0  0  0  0  0  0  0  0  0  0  0  0
    2.9711    0.6988    0.0000 H   0  0  0  0  0  0  0  0  0  0  0  0
    2.7183   -0.7545    0.0000 H   0  0  0  0  0  0  0  0  0  0  0  0
    3.0462   -1.3161    0.0000 H   0  0  0  0  0  0  0  0  0  0  0  0
    3.8346   -1.5738    0.0000 H   0  0  0  0  0  0  0  0  0  0  0  0
    5.7733    1.2897    0.0000 H   0  0  0  0  0  0  0  0  0  0  0  0
    2.0000    0.4178    0.0000 H   0  0  0  0  0  0  0  0  0  0  0  0
    1.3800   -0.2022    0.0000 H   0  0  0  0  0  0  0  0  0  0  0  0
    2.0000   -0.8222    0.0000 H   0  0  0  0  0  0  0  0  0  0  0  0
    3.9929   -2.0122    0.0000 H   0  0  0  0  0  0  0  0  0  0  0  0
    6.6988    0.3903    0.0000 H   0  0  0  0  0  0  0  0  0  0  0  0
    5.9806    0.8932    0.0000 H   0  0  0  0  0  0  0  0  0  0  0  0
    5.4776    0.1750    0.0000 H   0  0  0  0  0  0  0  0  0  0  0  0
    2.6663    1.6809    0.0000 H   0  0  0  0  0  0  0  0  0  0  0  0
    5.5754    2.2022    0.0000 H   0  0  0  0  0  0  0  0  0  0  0  0
    6.4011   -0.6179    0.0000 H   0  0  0  0  0  0  0  0  0  0  0  0
    7.3932   -0.2070    0.0000 H   0  0  0  0  0  0  0  0  0  0  0  0
 13  1  1  6  0  0  0
  1 47  1  0  0  0  0
 15  2  1  6  0  0  0
  2 51  1  0  0  0  0
 18  3  1  6  0  0  0
  3 52  1  0  0  0  0
  4 21  2  0  0  0  0
  5  6  1  0  0  0  0
  5  7  1  0  0  0  0
  5  9  1  0  0  0  0
  5 10  1  0  0  0  0
  6  7  1  0  0  0  0
  6  8  1  0  0  0  0
  6 25  1  1  0  0  0
  7 11  1  0  0  0  0
  7 26  1  1  0  0  0
  8 14  1  0  0  0  0
  8 27  1  0  0  0  0
  8 28  1  0  0  0  0
  9 29  1  0  0  0  0
  9 30  1  0  0  0  0
  9 31  1  0  0  0  0
 10 32  1  0  0  0  0
 10 33  1  0  0  0  0
 10 34  1  0  0  0  0
 11 19  2  0  0  0  0
 11 35  1  0  0  0  0
 12 13  1  0  0  0  0
 12 15  1  0  0  0  0
 12 18  1  0  0  0  0
 12 36  1  1  0  0  0
 13 17  1  0  0  0  0
 13 21  1  0  0  0  0
 14 20  1  0  0  0  0
 14 37  1  0  0  0  0
 14 38  1  0  0  0  0
 15 16  1  0  0  0  0
 15 39  1  0  0  0  0
 16 17  1  0  0  0  0
 16 22  1  6  0  0  0
 16 40  1  0  0  0  0
 17 41  1  0  0  0  0
 17 42  1  0  0  0  0
 18 20  1  0  0  0  0
 18 43  1  0  0  0  0
 19 21  1  0  0  0  0
 19 23  1  0  0  0  0
 20 24  2  0  0  0  0
 22 44  1  0  0  0  0
 22 45  1  0  0  0  0
 22 46  1  0  0  0  0
 23 48  1  0  0  0  0
 23 49  1  0  0  0  0
 23 50  1  0  0  0  0
 24 53  1  0  0  0  0
 24 54  1  0  0  0  0
M  END
> <PUBCHEM_COMPOUND_CID>
5281376

> <PUBCHEM_COMPOUND_CANONICALIZED>
1

> <PUBCHEM_CACTVS_COMPLEXITY>
605

> <PUBCHEM_CACTVS_HBOND_ACCEPTOR>
4

> <PUBCHEM_CACTVS_HBOND_DONOR>
3

> <PUBCHEM_CACTVS_ROTATABLE_BOND>
0

> <PUBCHEM_CACTVS_SUBSKEYS>
AAADceB4OAAAAAAAAAAAAAAAGAAAAYAAAAAAAAAAAAAAAAAAAAAAGgAACAAAD1SggAICAAAAAgCIAqBSAAIAAAAgAAAACAFAAEgAFBIAAQAAQAAFwAAIEYPKzPDPgAAAAAAAAAAAAAAAAAAAAYQADAAAAA==

> <PUBCHEM_IUPAC_INCHI>
InChI=1S/C20H30O4/c1-10-6-7-13-14(19(13,4)5)8-11(2)18(23)20(24)9-12(3)17(22)15(20)16(10)21/h8,12-17,21-22,24H,1,6-7,9H2,2-5H3/b11-8+/t12-,13-,14+,15-,16+,17-,20+/m0/s1

> <PUBCHEM_IUPAC_INCHIKEY>
SDBITTRHSROXCY-OKFBFAQVSA-N

> <PUBCHEM_XLOGP3_AA>
2.2

> <PUBCHEM_EXACT_MASS>
334.214409

> <PUBCHEM_MOLECULAR_FORMULA>
C20H30O4

> <PUBCHEM_MOLECULAR_WEIGHT>
334.4498

> <PUBCHEM_OPENEYE_CAN_SMILES>
CC1CC2(C(C1O)C(C(=C)CCC3C(C3(C)C)C=C(C2=O)C)O)O

> <PUBCHEM_OPENEYE_ISO_SMILES>
C[C@H]1C[C@]2([C@H]([C@H]1O)[C@@H](C(=C)CC[C@H]3[C@H](C3(C)C)/C=C(/C2=O)\C)O)O

> <PUBCHEM_CACTVS_TPSA>
77.8

> <PUBCHEM_MONOISOTOPIC_WEIGHT>
334.214409

> <PUBCHEM_TOTAL_CHARGE>
0

> <PUBCHEM_HEAVY_ATOM_COUNT>
24

> <PUBCHEM_ATOM_DEF_STEREO_COUNT>
7

> <PUBCHEM_ATOM_UDEF_STEREO_COUNT>
0

> <PUBCHEM_BOND_DEF_STEREO_COUNT>
1

> <PUBCHEM_BOND_UDEF_STEREO_COUNT>
0

> <PUBCHEM_ISOTOPIC_ATOM_COUNT>
0

> <PUBCHEM_COMPONENT_COUNT>
1

> <PUBCHEM_CACTVS_TAUTO_COUNT>
3

> <PUBCHEM_COORDINATE_TYPE>
1
5
255

> <PUBCHEM_BONDANNOTATIONS>
13  1  6
12  36  5
16  22  6
15  2  6
18  3  6
6  25  5
7  26  5

$$$$

