9195
  -OEChem-07051213143D

 29 32  0     0  0  0  0  0  0999 V2000
   -0.2443    0.4127    0.0004 C   0  0  0  0  0  0  0  0  0  0  0  0
    0.6998    1.6048    0.0006 C   0  0  0  0  0  0  0  0  0  0  0  0
    0.5019   -0.7892    0.0004 C   0  0  0  0  0  0  0  0  0  0  0  0
    2.0564    0.9357    0.0006 C   0  0  0  0  0  0  0  0  0  0  0  0
    1.9129   -0.4679    0.0004 C   0  0  0  0  0  0  0  0  0  0  0  0
   -1.6433    0.4117    0.0002 C   0  0  0  0  0  0  0  0  0  0  0  0
   -2.2959   -0.8464    0.0001 C   0  0  0  0  0  0  0  0  0  0  0  0
   -0.1365   -2.0156    0.0003 C   0  0  0  0  0  0  0  0  0  0  0  0
   -1.5343   -2.0376    0.0001 C   0  0  0  0  0  0  0  0  0  0  0  0
    3.3033    1.5360   -0.0001 C   0  0  0  0  0  0  0  0  0  0  0  0
    3.0289   -1.2883   -0.0002 C   0  0  0  0  0  0  0  0  0  0  0  0
   -2.4141    1.5897   -0.0001 C   0  0  0  0  0  0  0  0  0  0  0  0
   -3.6994   -0.8851   -0.0003 C   0  0  0  0  0  0  0  0  0  0  0  0
    4.4281    0.7094   -0.0007 C   0  0  0  0  0  0  0  0  0  0  0  0
    4.2923   -0.6892   -0.0007 C   0  0  0  0  0  0  0  0  0  0  0  0
   -3.8072    1.5270   -0.0004 C   0  0  0  0  0  0  0  0  0  0  0  0
   -4.4485    0.2923   -0.0005 C   0  0  0  0  0  0  0  0  0  0  0  0
    0.5667    2.2039    0.9062 H   0  0  0  0  0  0  0  0  0  0  0  0
    0.5669    2.2041   -0.9050 H   0  0  0  0  0  0  0  0  0  0  0  0
    0.4202   -2.9469    0.0003 H   0  0  0  0  0  0  0  0  0  0  0  0
   -2.0357   -3.0043   -0.0001 H   0  0  0  0  0  0  0  0  0  0  0  0
    3.4091    2.6152   -0.0002 H   0  0  0  0  0  0  0  0  0  0  0  0
    2.9403   -2.3696   -0.0005 H   0  0  0  0  0  0  0  0  0  0  0  0
   -1.9372    2.5670    0.0000 H   0  0  0  0  0  0  0  0  0  0  0  0
   -4.2253   -1.8379   -0.0005 H   0  0  0  0  0  0  0  0  0  0  0  0
    5.4212    1.1508   -0.0012 H   0  0  0  0  0  0  0  0  0  0  0  0
    5.1826   -1.3128   -0.0012 H   0  0  0  0  0  0  0  0  0  0  0  0
   -4.3914    2.4426   -0.0006 H   0  0  0  0  0  0  0  0  0  0  0  0
   -5.5336    0.2441   -0.0008 H   0  0  0  0  0  0  0  0  0  0  0  0
  1  2  1  0  0  0  0
  1  3  2  0  0  0  0
  1  6  1  0  0  0  0
  2  4  1  0  0  0  0
  2 18  1  0  0  0  0
  2 19  1  0  0  0  0
  3  5  1  0  0  0  0
  3  8  1  0  0  0  0
  4  5  1  0  0  0  0
  4 10  2  0  0  0  0
  5 11  2  0  0  0  0
  6  7  1  0  0  0  0
  6 12  2  0  0  0  0
  7  9  1  0  0  0  0
  7 13  2  0  0  0  0
  8  9  2  0  0  0  0
  8 20  1  0  0  0  0
  9 21  1  0  0  0  0
 10 14  1  0  0  0  0
 10 22  1  0  0  0  0
 11 15  1  0  0  0  0
 11 23  1  0  0  0  0
 12 16  1  0  0  0  0
 12 24  1  0  0  0  0
 13 17  1  0  0  0  0
 13 25  1  0  0  0  0
 14 15  2  0  0  0  0
 14 26  1  0  0  0  0
 15 27  1  0  0  0  0
 16 17  2  0  0  0  0
 16 28  1  0  0  0  0
 17 29  1  0  0  0  0
M  END
> <PUBCHEM_COMPOUND_CID>
9195

> <PUBCHEM_CONFORMER_RMSD>
0.4

> <PUBCHEM_CONFORMER_DIVERSEORDER>
1

> <PUBCHEM_MMFF94_PARTIAL_CHARGES>
23
1 -0.14
10 -0.15
11 -0.15
12 -0.15
13 -0.15
14 -0.15
15 -0.15
16 -0.15
17 -0.15
2 0.29
20 0.15
21 0.15
22 0.15
23 0.15
24 0.15
25 0.15
26 0.15
27 0.15
28 0.15
29 0.15
4 -0.14
8 -0.15
9 -0.15

> <PUBCHEM_EFFECTIVE_ROTOR_COUNT>
0.2

> <PUBCHEM_PHARMACOPHORE_FEATURES>
4
5 1 2 3 4 5 rings
6 1 3 6 7 8 9 rings
6 4 5 10 11 14 15 rings
6 6 7 12 13 16 17 rings

> <PUBCHEM_HEAVY_ATOM_COUNT>
17

> <PUBCHEM_ATOM_DEF_STEREO_COUNT>
0

> <PUBCHEM_ATOM_UDEF_STEREO_COUNT>
0

> <PUBCHEM_BOND_DEF_STEREO_COUNT>
0

> <PUBCHEM_BOND_UDEF_STEREO_COUNT>
0

> <PUBCHEM_ISOTOPIC_ATOM_COUNT>
0

> <PUBCHEM_COMPONENT_COUNT>
1

> <PUBCHEM_CACTVS_TAUTO_COUNT>
1

> <PUBCHEM_CONFORMER_ID>
000023EB00000001

> <PUBCHEM_MMFF94_ENERGY>
60.0627

> <PUBCHEM_FEATURE_SELFOVERLAP>
20.484

> <PUBCHEM_SHAPE_FINGERPRINT>
10062212 137 18335994128725185071
10411042 1 16681472890593380546
10608611 8 18336830792828631368
10616163 171 18337106752977942630
10967382 1 18410855490219306630
11132069 177 18410016537119805328
11471102 20 18410014342686838228
11578080 2 16735527247992470619
12251169 10 18412827975572582668
12403814 3 17703794721157283973
12592029 89 18342454897715278619
13140716 1 18411419552574532762
13221675 6 18412546496132229611
13380535 76 18409165519510059879
13675066 3 18342735191517557378
138480 1 17689998255316201478
14144814 61 18411700984606857928
14178342 30 18050586049135981658
14866123 147 16890313622039679730
15042514 8 18267580196501069563
15196674 1 18410575084700047655
15309172 13 18410284826863461011
15375358 24 18261111868077807190
15442244 35 18339081592062441322
15536298 74 18335138696083582038
16945 1 18194401082783935750
17804303 29 18409444769535273716
1813 80 16916509276534542982
18186145 218 18411138081977367140
18522853 276 18408041809883440529
19591789 44 18340206396341543522
200 152 17967257490203098861
20510252 161 18333447659948139625
20645477 70 18334294309755889286
21267235 1 18410846664109330410
21501502 16 18339082575493920582
21524375 3 18410575102149176063
2334 1 18410855438663894304
23402539 116 18261119573117222141
23402655 69 18334015003441991020
23463225 33 18413108385455439174
23559900 14 18333450967705784418
2748010 2 18410571794723437575
3004659 81 18271235145546432206
335352 9 18266458883333793662
34934 24 18410017602809764866
350125 39 18411133620055264953
3545911 37 18409446977491348680
4214541 1 18410855468723559521
474 4 17273972433463839964
495365 180 17386019342707617304
4990 188 18041272240486719572
5104073 3 18411136926520233074
69090 78 18335704931397107367
7364860 26 18192430985675732142
77779 3 18411135835609094916
8809292 202 18342735174343261843
9709674 26 18408316666500567230
9981440 41 17191221934053400984

> <PUBCHEM_SHAPE_MULTIPOLES>
349.85
8.32
2.05
0.62
1.05
0.25
0
-1.52
0
-0.34
0
0
0
0

> <PUBCHEM_SHAPE_SELFOVERLAP>
804.602

> <PUBCHEM_SHAPE_VOLUME>
167.4

> <PUBCHEM_COORDINATE_TYPE>
2
5
10

$$$$

