4161
  -OEChem-06251223562D

 15 15  0     0  0  0  0  0  0999 V2000
    2.5369   -1.1900    0.0000 S   0  0  0  0  0  0  0  0  0  0  0  0
    4.2690    1.8100    0.0000 O   0  0  0  0  0  0  0  0  0  0  0  0
    4.2690   -1.1900    0.0000 N   0  0  0  0  0  0  0  0  0  0  0  0
    3.4030    0.3100    0.0000 N   0  0  0  0  0  0  0  0  0  0  0  0
    5.1350   -0.6900    0.0000 C   0  0  0  0  0  0  0  0  0  0  0  0
    5.1350    0.3100    0.0000 C   0  0  0  0  0  0  0  0  0  0  0  0
    6.0010   -1.1900    0.0000 C   0  0  0  0  0  0  0  0  0  0  0  0
    3.4030   -0.6900    0.0000 C   0  0  0  0  0  0  0  0  0  0  0  0
    4.2690    0.8100    0.0000 C   0  0  0  0  0  0  0  0  0  0  0  0
    4.2690   -1.8100    0.0000 H   0  0  0  0  0  0  0  0  0  0  0  0
    5.6719    0.6200    0.0000 H   0  0  0  0  0  0  0  0  0  0  0  0
    5.6910   -1.7269    0.0000 H   0  0  0  0  0  0  0  0  0  0  0  0
    6.5380   -1.5000    0.0000 H   0  0  0  0  0  0  0  0  0  0  0  0
    6.3110   -0.6531    0.0000 H   0  0  0  0  0  0  0  0  0  0  0  0
    2.0000   -0.8800    0.0000 H   0  0  0  0  0  0  0  0  0  0  0  0
  1  8  1  0  0  0  0
  1 15  1  0  0  0  0
  2  9  2  0  0  0  0
  3  5  1  0  0  0  0
  3  8  1  0  0  0  0
  3 10  1  0  0  0  0
  4  8  2  0  0  0  0
  4  9  1  0  0  0  0
  5  6  2  0  0  0  0
  5  7  1  0  0  0  0
  6  9  1  0  0  0  0
  6 11  1  0  0  0  0
  7 12  1  0  0  0  0
  7 13  1  0  0  0  0
  7 14  1  0  0  0  0
M  END
> <PUBCHEM_COMPOUND_CID>
4161

> <PUBCHEM_COMPOUND_CANONICALIZED>
1

> <PUBCHEM_CACTVS_COMPLEXITY>
207

> <PUBCHEM_CACTVS_HBOND_ACCEPTOR>
2

> <PUBCHEM_CACTVS_HBOND_DONOR>
2

> <PUBCHEM_CACTVS_ROTATABLE_BOND>
0

> <PUBCHEM_CACTVS_SUBSKEYS>
AAADcYBjIABAAAAAAAAAAAAAAAAAAAAAAAAgAAAAAAAAAAAAAAAAHgQQAAAACAiBgAADAALAAASoACVSdACAEAEAAgABCAAAAEAAAAAACQAAAAAAEAAAAUAAAAAAAAAAAAAAAAAAAAAAAAAAAAAAAAAAAA==

> <PUBCHEM_IUPAC_OPENEYE_NAME>
6-methyl-2-sulfanyl-1H-pyrimidin-4-one

> <PUBCHEM_IUPAC_CAS_NAME>
2-mercapto-6-methyl-1H-pyrimidin-4-one

> <PUBCHEM_IUPAC_NAME>
6-methyl-2-sulfanyl-1H-pyrimidin-4-one

> <PUBCHEM_IUPAC_SYSTEMATIC_NAME>
6-methyl-2-sulfanyl-1H-pyrimidin-4-one

> <PUBCHEM_IUPAC_TRADITIONAL_NAME>
2-mercapto-6-methyl-1H-pyrimidin-4-one

> <PUBCHEM_IUPAC_INCHI>
InChI=1S/C5H6N2OS/c1-3-2-4(8)7-5(9)6-3/h2H,1H3,(H2,6,7,8,9)

> <PUBCHEM_IUPAC_INCHIKEY>
HWGBHCRJGXAGEU-UHFFFAOYSA-N

> <PUBCHEM_XLOGP3_AA>
0.2

> <PUBCHEM_EXACT_MASS>
142.020084

> <PUBCHEM_MOLECULAR_FORMULA>
C5H6N2OS

> <PUBCHEM_MOLECULAR_WEIGHT>
142.17894

> <PUBCHEM_OPENEYE_CAN_SMILES>
CC1=CC(=O)N=C(N1)S

> <PUBCHEM_OPENEYE_ISO_SMILES>
CC1=CC(=O)N=C(N1)S

> <PUBCHEM_CACTVS_TPSA>
42.5

> <PUBCHEM_MONOISOTOPIC_WEIGHT>
142.020084

> <PUBCHEM_TOTAL_CHARGE>
0

> <PUBCHEM_HEAVY_ATOM_COUNT>
9

> <PUBCHEM_ATOM_DEF_STEREO_COUNT>
0

> <PUBCHEM_ATOM_UDEF_STEREO_COUNT>
0

> <PUBCHEM_BOND_DEF_STEREO_COUNT>
0

> <PUBCHEM_BOND_UDEF_STEREO_COUNT>
0

> <PUBCHEM_ISOTOPIC_ATOM_COUNT>
0

> <PUBCHEM_COMPONENT_COUNT>
1

> <PUBCHEM_CACTVS_TAUTO_COUNT>
6

> <PUBCHEM_COORDINATE_TYPE>
1
5
255

> <PUBCHEM_BONDANNOTATIONS>
3  5  8
3  8  8
4  8  8
4  9  8
5  6  8
6  9  8

$$$$

