586311
  -OEChem-06241222463D

 26 26  0     1  0  0  0  0  0999 V2000
   -0.7429    1.7538   -0.7893 O   0  0  0  0  0  0  0  0  0  0  0  0
    1.2467   -1.7897   -1.5566 O   0  0  0  0  0  0  0  0  0  0  0  0
    1.9207    1.0685    0.5039 O   0  0  0  0  0  0  0  0  0  0  0  0
    3.0084   -0.9559    0.3086 O   0  0  0  0  0  0  0  0  0  0  0  0
   -0.3756   -0.5673   -0.3153 C   0  0  0  0  0  0  0  0  0  0  0  0
    0.9716   -0.5257   -0.9576 C   0  0  1  0  0  0  0  0  0  0  0  0
   -1.1743    0.5750   -0.2594 C   0  0  0  0  0  0  0  0  0  0  0  0
   -0.8332   -1.7657    0.2328 C   0  0  0  0  0  0  0  0  0  0  0  0
   -2.4305    0.5187    0.3445 C   0  0  0  0  0  0  0  0  0  0  0  0
   -2.0893   -1.8217    0.8367 C   0  0  0  0  0  0  0  0  0  0  0  0
    2.0914   -0.1974    0.0200 C   0  0  0  0  0  0  0  0  0  0  0  0
   -2.8880   -0.6796    0.8926 C   0  0  0  0  0  0  0  0  0  0  0  0
   -1.6237    2.8708   -0.6878 C   0  0  0  0  0  0  0  0  0  0  0  0
    2.9185    1.5163    1.4268 C   0  0  0  0  0  0  0  0  0  0  0  0
    1.0063    0.1997   -1.7775 H   0  0  0  0  0  0  0  0  0  0  0  0
   -0.2327   -2.6705    0.2213 H   0  0  0  0  0  0  0  0  0  0  0  0
   -3.1052    1.3638    0.4256 H   0  0  0  0  0  0  0  0  0  0  0  0
   -2.4445   -2.7537    1.2668 H   0  0  0  0  0  0  0  0  0  0  0  0
   -3.8655   -0.7244    1.3641 H   0  0  0  0  0  0  0  0  0  0  0  0
    1.6285   -2.3784   -0.8832 H   0  0  0  0  0  0  0  0  0  0  0  0
   -1.8042    3.1492    0.3560 H   0  0  0  0  0  0  0  0  0  0  0  0
   -2.5531    2.7042   -1.2429 H   0  0  0  0  0  0  0  0  0  0  0  0
   -1.1204    3.7210   -1.1601 H   0  0  0  0  0  0  0  0  0  0  0  0
    3.9011    1.5288    0.9457 H   0  0  0  0  0  0  0  0  0  0  0  0
    2.9293    0.8748    2.3132 H   0  0  0  0  0  0  0  0  0  0  0  0
    2.6648    2.5345    1.7337 H   0  0  0  0  0  0  0  0  0  0  0  0
  1  7  1  0  0  0  0
  1 13  1  0  0  0  0
  2  6  1  0  0  0  0
  2 20  1  0  0  0  0
  3 11  1  0  0  0  0
  3 14  1  0  0  0  0
  4 11  2  0  0  0  0
  5  6  1  0  0  0  0
  5  7  1  0  0  0  0
  5  8  2  0  0  0  0
  6 11  1  0  0  0  0
  6 15  1  0  0  0  0
  7  9  2  0  0  0  0
  8 10  1  0  0  0  0
  8 16  1  0  0  0  0
  9 12  1  0  0  0  0
  9 17  1  0  0  0  0
 10 12  2  0  0  0  0
 10 18  1  0  0  0  0
 12 19  1  0  0  0  0
 13 21  1  0  0  0  0
 13 22  1  0  0  0  0
 13 23  1  0  0  0  0
 14 24  1  0  0  0  0
 14 25  1  0  0  0  0
 14 26  1  0  0  0  0
M  END
> <PUBCHEM_COMPOUND_CID>
586311

> <PUBCHEM_CONFORMER_RMSD>
0.6

> <PUBCHEM_CONFORMER_DIVERSEORDER>
8
9
19
10
23
13
7
12
24
6
26
25
2
11
17
15
20
5
3
21
18
4
16
1
14
22

> <PUBCHEM_MMFF94_PARTIAL_CHARGES>
19
1 -0.36
10 -0.15
11 0.66
12 -0.15
13 0.28
14 0.28
16 0.15
17 0.15
18 0.15
19 0.15
2 -0.68
20 0.4
3 -0.43
4 -0.57
5 -0.14
6 0.48
7 0.08
8 -0.15
9 -0.15

> <PUBCHEM_EFFECTIVE_ROTOR_COUNT>
4

> <PUBCHEM_PHARMACOPHORE_FEATURES>
5
1 1 acceptor
1 2 acceptor
1 2 donor
1 4 acceptor
6 5 7 8 9 10 12 rings

> <PUBCHEM_HEAVY_ATOM_COUNT>
14

> <PUBCHEM_ATOM_DEF_STEREO_COUNT>
0

> <PUBCHEM_ATOM_UDEF_STEREO_COUNT>
1

> <PUBCHEM_BOND_DEF_STEREO_COUNT>
0

> <PUBCHEM_BOND_UDEF_STEREO_COUNT>
0

> <PUBCHEM_ISOTOPIC_ATOM_COUNT>
0

> <PUBCHEM_COMPONENT_COUNT>
1

> <PUBCHEM_CACTVS_TAUTO_COUNT>
1

> <PUBCHEM_CONFORMER_ID>
0008F24700000008

> <PUBCHEM_MMFF94_ENERGY>
41.6533

> <PUBCHEM_FEATURE_SELFOVERLAP>
25.378

> <PUBCHEM_SHAPE_FINGERPRINT>
10610426 29 16054095042400423771
10857977 72 18270673169621658747
12382932 28 18268709411620900849
12524768 44 18336251375986460471
12696612 119 18123461692071514553
13083527 12 17403741043391253907
13294875 104 17260770944692779969
14817 1 13937702838765540468
15852999 172 17128757974177669149
16945 1 18270122301152680676
17804303 29 18341325712416988306
18380122 1 18335416842070293663
19049666 15 18121215639161552034
20361792 2 14836136441822045450
20388701 513 18343863312260251381
20511035 2 18265067966944363964
21524375 3 17836660982000367565
21650355 55 18057334889534151083
23211744 41 18335710497648193383
23388829 49 17396422710970638271
23402539 116 18410022030979322879
25610 171 18201429268751822977
2748010 2 18339625790283886231
369184 2 18411983533505052491
430814 3 15069447255605651626
5255222 1 17836626884370782503
528862 383 17118886150476960889
53812653 166 17980196714463185045
81228 2 18200580506216205005
90316 7 18201450125008030529

> <PUBCHEM_SHAPE_MULTIPOLES>
264.64
4.31
2.5
1.18
1.74
1.37
-0.02
0.05
1.88
-0.89
-0.44
0.44
-0.04
1.26

> <PUBCHEM_SHAPE_SELFOVERLAP>
546

> <PUBCHEM_SHAPE_VOLUME>
152

> <PUBCHEM_COORDINATE_TYPE>
2
5
10

$$$$

