442156
  -OEChem-07051212573D

 48 51  0     1  0  0  0  0  0999 V2000
    3.4646   -1.4059    0.5440 O   0  0  0  0  0  0  0  0  0  0  0  0
    4.2235    1.0279   -0.5162 O   0  0  0  0  0  0  0  0  0  0  0  0
    2.2620    2.7438   -1.3078 O   0  0  0  0  0  0  0  0  0  0  0  0
   -2.2894    1.9814    0.3986 O   0  0  0  0  0  0  0  0  0  0  0  0
   -4.8031    1.2414   -0.2548 O   0  0  0  0  0  0  0  0  0  0  0  0
    0.8917   -1.4322    1.6864 N   0  0  0  0  0  0  0  0  0  0  0  0
    0.0295    0.2333    0.1743 C   0  0  1  0  0  0  0  0  0  0  0  0
    1.0465   -0.9418    0.2920 C   0  0  2  0  0  0  0  0  0  0  0  0
    0.1048    0.8195    1.5991 C   0  0  0  0  0  0  0  0  0  0  0  0
    0.7606   -2.0389   -0.7525 C   0  0  0  0  0  0  0  0  0  0  0  0
    0.4392    1.2534   -0.9053 C   0  0  0  0  0  0  0  0  0  0  0  0
   -1.4105   -0.2178   -0.1487 C   0  0  0  0  0  0  0  0  0  0  0  0
    0.1985   -0.4142    2.4792 C   0  0  0  0  0  0  0  0  0  0  0  0
    2.5001   -0.5029    0.1140 C   0  0  0  0  0  0  0  0  0  0  0  0
   -0.6550   -2.5959   -0.6735 C   0  0  0  0  0  0  0  0  0  0  0  0
   -1.7076   -1.5296   -0.5633 C   0  0  0  0  0  0  0  0  0  0  0  0
    1.8965    1.6488   -0.8803 C   0  0  0  0  0  0  0  0  0  0  0  0
    2.8973    0.6692   -0.4003 C   0  0  0  0  0  0  0  0  0  0  0  0
   -2.4716    0.7087   -0.0670 C   0  0  0  0  0  0  0  0  0  0  0  0
   -3.0382   -1.8905   -0.8438 C   0  0  0  0  0  0  0  0  0  0  0  0
   -3.7856    0.3414   -0.3587 C   0  0  0  0  0  0  0  0  0  0  0  0
   -4.0700   -0.9613   -0.7439 C   0  0  0  0  0  0  0  0  0  0  0  0
    4.3109   -1.7713   -0.5251 C   0  0  0  0  0  0  0  0  0  0  0  0
    4.6668    1.7018    0.6465 C   0  0  0  0  0  0  0  0  0  0  0  0
   -5.4616    1.3316    1.0068 C   0  0  0  0  0  0  0  0  0  0  0  0
   -0.7215    1.4500    1.9258 H   0  0  0  0  0  0  0  0  0  0  0  0
    1.0149    1.4190    1.7296 H   0  0  0  0  0  0  0  0  0  0  0  0
    1.4642   -2.8755   -0.6483 H   0  0  0  0  0  0  0  0  0  0  0  0
    0.9203   -1.6306   -1.7607 H   0  0  0  0  0  0  0  0  0  0  0  0
   -0.1354    2.1810   -0.8024 H   0  0  0  0  0  0  0  0  0  0  0  0
    0.2406    0.8575   -1.9101 H   0  0  0  0  0  0  0  0  0  0  0  0
    1.7926   -1.6639    2.1017 H   0  0  0  0  0  0  0  0  0  0  0  0
    0.7320   -0.2010    3.4109 H   0  0  0  0  0  0  0  0  0  0  0  0
   -0.7989   -0.7839    2.7406 H   0  0  0  0  0  0  0  0  0  0  0  0
   -0.7426   -3.2557    0.1988 H   0  0  0  0  0  0  0  0  0  0  0  0
   -0.8364   -3.2097   -1.5644 H   0  0  0  0  0  0  0  0  0  0  0  0
   -3.2749   -2.9087   -1.1451 H   0  0  0  0  0  0  0  0  0  0  0  0
   -5.0895   -1.2625   -0.9676 H   0  0  0  0  0  0  0  0  0  0  0  0
   -3.1214    2.4775    0.3147 H   0  0  0  0  0  0  0  0  0  0  0  0
    4.6174   -2.8098   -0.3597 H   0  0  0  0  0  0  0  0  0  0  0  0
    5.2275   -1.1740   -0.5240 H   0  0  0  0  0  0  0  0  0  0  0  0
    3.8269   -1.7367   -1.5092 H   0  0  0  0  0  0  0  0  0  0  0  0
    5.7158    1.9767    0.5010 H   0  0  0  0  0  0  0  0  0  0  0  0
    4.6081    1.0560    1.5295 H   0  0  0  0  0  0  0  0  0  0  0  0
    4.0981    2.6223    0.8180 H   0  0  0  0  0  0  0  0  0  0  0  0
   -4.7490    1.5529    1.8079 H   0  0  0  0  0  0  0  0  0  0  0  0
   -5.9916    0.3991    1.2255 H   0  0  0  0  0  0  0  0  0  0  0  0
   -6.1916    2.1440    0.9546 H   0  0  0  0  0  0  0  0  0  0  0  0
  1 14  1  0  0  0  0
  1 23  1  0  0  0  0
  2 18  1  0  0  0  0
  2 24  1  0  0  0  0
  3 17  2  0  0  0  0
  4 19  1  0  0  0  0
  4 39  1  0  0  0  0
  5 21  1  0  0  0  0
  5 25  1  0  0  0  0
  6  8  1  0  0  0  0
  6 13  1  0  0  0  0
  6 32  1  0  0  0  0
  7  8  1  0  0  0  0
  7  9  1  0  0  0  0
  7 11  1  0  0  0  0
  7 12  1  0  0  0  0
  8 10  1  0  0  0  0
  8 14  1  0  0  0  0
  9 13  1  0  0  0  0
  9 26  1  0  0  0  0
  9 27  1  0  0  0  0
 10 15  1  0  0  0  0
 10 28  1  0  0  0  0
 10 29  1  0  0  0  0
 11 17  1  0  0  0  0
 11 30  1  0  0  0  0
 11 31  1  0  0  0  0
 12 16  2  0  0  0  0
 12 19  1  0  0  0  0
 13 33  1  0  0  0  0
 13 34  1  0  0  0  0
 14 18  2  0  0  0  0
 15 16  1  0  0  0  0
 15 35  1  0  0  0  0
 15 36  1  0  0  0  0
 16 20  1  0  0  0  0
 17 18  1  0  0  0  0
 19 21  2  0  0  0  0
 20 22  2  0  0  0  0
 20 37  1  0  0  0  0
 21 22  1  0  0  0  0
 22 38  1  0  0  0  0
 23 40  1  0  0  0  0
 23 41  1  0  0  0  0
 23 42  1  0  0  0  0
 24 43  1  0  0  0  0
 24 44  1  0  0  0  0
 24 45  1  0  0  0  0
 25 46  1  0  0  0  0
 25 47  1  0  0  0  0
 25 48  1  0  0  0  0
M  END
> <PUBCHEM_COMPOUND_CID>
442156

> <PUBCHEM_CONFORMER_RMSD>
0.8

> <PUBCHEM_CONFORMER_DIVERSEORDER>
3
1
2
4

> <PUBCHEM_MMFF94_PARTIAL_CHARGES>
27
1 -0.36
11 0.06
12 -0.14
13 0.27
14 -0.06
15 0.14
16 -0.14
17 0.49
18 0.09
19 0.08
2 -0.36
20 -0.15
21 0.08
22 -0.15
23 0.28
24 0.28
25 0.28
3 -0.57
32 0.36
37 0.15
38 0.15
39 0.45
4 -0.53
5 -0.36
6 -0.9
7 0.14
8 0.41

> <PUBCHEM_EFFECTIVE_ROTOR_COUNT>
4.2

> <PUBCHEM_PHARMACOPHORE_FEATURES>
11
1 1 acceptor
1 2 acceptor
1 3 acceptor
1 4 donor
1 5 acceptor
1 6 cation
1 6 donor
5 6 7 8 9 13 rings
6 12 16 19 20 21 22 rings
6 7 8 10 12 15 16 rings
6 7 8 11 14 17 18 rings

> <PUBCHEM_HEAVY_ATOM_COUNT>
25

> <PUBCHEM_ATOM_DEF_STEREO_COUNT>
2

> <PUBCHEM_ATOM_UDEF_STEREO_COUNT>
0

> <PUBCHEM_BOND_DEF_STEREO_COUNT>
0

> <PUBCHEM_BOND_UDEF_STEREO_COUNT>
0

> <PUBCHEM_ISOTOPIC_ATOM_COUNT>
0

> <PUBCHEM_COMPONENT_COUNT>
1

> <PUBCHEM_CACTVS_TAUTO_COUNT>
18

> <PUBCHEM_CONFORMER_ID>
0006BF2C00000003

> <PUBCHEM_MMFF94_ENERGY>
98.7544

> <PUBCHEM_FEATURE_SELFOVERLAP>
56.364

> <PUBCHEM_SHAPE_FINGERPRINT>
10863032 1 18334579018763579454
10906281 52 17916296157349071556
10948715 1 18270962332278540894
11370993 70 18261116214616203534
11578080 2 17605842412746137928
12236239 1 18411138034637625241
12422481 6 18126594360230082232
12467345 10 18410294709303621116
12592029 89 18267578181649458123
12788726 201 17095793404122185864
13140716 1 18409166602168677723
13583140 156 17346040099563703237
13911987 19 15358534121594261784
14115302 16 18113337539448179755
14713325 29 17553188914068699090
14790565 3 18042960055540115817
15196674 1 18408042905348118447
15238133 3 17095800048821487033
15420108 30 16890028844201028882
15536298 74 18409451379990991926
1601671 61 18266743660939849127
16752209 62 18115604651490480911
16945 1 18122623860248582246
17492 89 18410855417406323326
1813 80 17698468828783218242
18186145 218 17418377982307622454
19784866 9 18260827163422963419
20691752 17 17632584833430934166
20715895 44 18263928902841680061
21033650 10 16734363049872928537
21267235 1 18338508754672662303
21285901 2 14779535846672285537
21304253 335 18410575055015377460
22079108 93 17418085508383663393
23402539 116 18260271802212647708
23557571 272 17823415998438145548
23559900 14 17967253092309496992
335352 9 18336827605741358727
34934 24 18341901774557196868
404807 14 16958985768426476334
474 4 17917430873995305292
5104073 3 18410576175806630739
633830 44 17704070681263961631
7832392 63 18412264995675677398
90525 40 18335420136637602023
9981440 41 17405710272843055240

> <PUBCHEM_SHAPE_MULTIPOLES>
480.16
8.64
2.57
1.4
3.21
0.34
0.81
-2.93
-0.52
-0.49
-0.63
-0.24
-0.14
-1

> <PUBCHEM_SHAPE_SELFOVERLAP>
1056.373

> <PUBCHEM_SHAPE_VOLUME>
257

> <PUBCHEM_COORDINATE_TYPE>
2
5
10

$$$$

