10528
  -OEChem-06261204392D

 48 49  0     1  0  0  0  0  0999 V2000
    4.5981    0.7500    0.0000 O   0  0  0  0  0  0  0  0  0  0  0  0
    6.3301    0.7500    0.0000 O   0  0  0  0  0  0  0  0  0  0  0  0
    7.4038   -0.4080    0.0000 N   0  0  0  0  0  0  0  0  0  0  0  0
    5.4641   -0.7500    0.0000 C   0  0  3  0  0  0  0  0  0  0  0  0
    6.4641   -0.7500    0.0000 C   0  0  0  0  0  0  0  0  0  0  0  0
    4.4641   -0.7500    0.0000 C   0  0  0  0  0  0  0  0  0  0  0  0
    5.4641   -1.7500    0.0000 C   0  0  0  0  0  0  0  0  0  0  0  0
    5.4641    0.2500    0.0000 C   0  0  0  0  0  0  0  0  0  0  0  0
    3.9641    0.1160    0.0000 C   0  0  0  0  0  0  0  0  0  0  0  0
    4.5981   -2.2500    0.0000 C   0  0  0  0  0  0  0  0  0  0  0  0
    6.3301   -2.2500    0.0000 C   0  0  0  0  0  0  0  0  0  0  0  0
    8.1698   -1.0508    0.0000 C   0  0  0  0  0  0  0  0  0  0  0  0
    7.5774    0.5768    0.0000 C   0  0  0  0  0  0  0  0  0  0  0  0
    4.5981   -3.2500    0.0000 C   0  0  0  0  0  0  0  0  0  0  0  0
    6.3301   -3.2500    0.0000 C   0  0  0  0  0  0  0  0  0  0  0  0
    4.5981    1.7500    0.0000 C   0  0  0  0  0  0  0  0  0  0  0  0
    5.4641   -3.7500    0.0000 C   0  0  0  0  0  0  0  0  0  0  0  0
    3.7320    2.2500    0.0000 C   0  0  0  0  0  0  0  0  0  0  0  0
    2.8660    1.7500    0.0000 C   0  0  0  0  0  0  0  0  0  0  0  0
    3.7320    3.2500    0.0000 C   0  0  0  0  0  0  0  0  0  0  0  0
    2.0000    2.2500    0.0000 C   0  0  0  0  0  0  0  0  0  0  0  0
    2.8660    3.7500    0.0000 C   0  0  0  0  0  0  0  0  0  0  0  0
    2.0000    3.2500    0.0000 C   0  0  0  0  0  0  0  0  0  0  0  0
    6.2185   -1.3193    0.0000 H   0  0  0  0  0  0  0  0  0  0  0  0
    6.3564   -0.1394    0.0000 H   0  0  0  0  0  0  0  0  0  0  0  0
    3.8815   -0.9621    0.0000 H   0  0  0  0  0  0  0  0  0  0  0  0
    4.5718   -1.3606    0.0000 H   0  0  0  0  0  0  0  0  0  0  0  0
    4.5010    0.4260    0.0000 H   0  0  0  0  0  0  0  0  0  0  0  0
    3.6541    0.6530    0.0000 H   0  0  0  0  0  0  0  0  0  0  0  0
    3.4272   -0.1940    0.0000 H   0  0  0  0  0  0  0  0  0  0  0  0
    4.0611   -1.9400    0.0000 H   0  0  0  0  0  0  0  0  0  0  0  0
    6.8671   -1.9400    0.0000 H   0  0  0  0  0  0  0  0  0  0  0  0
    7.7713   -1.5257    0.0000 H   0  0  0  0  0  0  0  0  0  0  0  0
    8.6448   -1.4493    0.0000 H   0  0  0  0  0  0  0  0  0  0  0  0
    8.5684   -0.5758    0.0000 H   0  0  0  0  0  0  0  0  0  0  0  0
    8.1880    0.4692    0.0000 H   0  0  0  0  0  0  0  0  0  0  0  0
    7.6851    1.1874    0.0000 H   0  0  0  0  0  0  0  0  0  0  0  0
    6.9669    0.6845    0.0000 H   0  0  0  0  0  0  0  0  0  0  0  0
    4.0611   -3.5600    0.0000 H   0  0  0  0  0  0  0  0  0  0  0  0
    6.8671   -3.5600    0.0000 H   0  0  0  0  0  0  0  0  0  0  0  0
    5.2087    1.6423    0.0000 H   0  0  0  0  0  0  0  0  0  0  0  0
    4.8101    2.3326    0.0000 H   0  0  0  0  0  0  0  0  0  0  0  0
    5.4641   -4.3700    0.0000 H   0  0  0  0  0  0  0  0  0  0  0  0
    2.8660    1.1300    0.0000 H   0  0  0  0  0  0  0  0  0  0  0  0
    4.2690    3.5600    0.0000 H   0  0  0  0  0  0  0  0  0  0  0  0
    1.4631    1.9400    0.0000 H   0  0  0  0  0  0  0  0  0  0  0  0
    2.8660    4.3700    0.0000 H   0  0  0  0  0  0  0  0  0  0  0  0
    1.4631    3.5600    0.0000 H   0  0  0  0  0  0  0  0  0  0  0  0
  1  8  1  0  0  0  0
  1 16  1  0  0  0  0
  2  8  2  0  0  0  0
  3  5  1  0  0  0  0
  3 12  1  0  0  0  0
  3 13  1  0  0  0  0
  4  5  1  0  0  0  0
  4  6  1  0  0  0  0
  4  7  1  0  0  0  0
  4  8  1  0  0  0  0
  5 24  1  0  0  0  0
  5 25  1  0  0  0  0
  6  9  1  0  0  0  0
  6 26  1  0  0  0  0
  6 27  1  0  0  0  0
  7 10  2  0  0  0  0
  7 11  1  0  0  0  0
  9 28  1  0  0  0  0
  9 29  1  0  0  0  0
  9 30  1  0  0  0  0
 10 14  1  0  0  0  0
 10 31  1  0  0  0  0
 11 15  2  0  0  0  0
 11 32  1  0  0  0  0
 12 33  1  0  0  0  0
 12 34  1  0  0  0  0
 12 35  1  0  0  0  0
 13 36  1  0  0  0  0
 13 37  1  0  0  0  0
 13 38  1  0  0  0  0
 14 17  2  0  0  0  0
 14 39  1  0  0  0  0
 15 17  1  0  0  0  0
 15 40  1  0  0  0  0
 16 18  1  0  0  0  0
 16 41  1  0  0  0  0
 16 42  1  0  0  0  0
 17 43  1  0  0  0  0
 18 19  2  0  0  0  0
 18 20  1  0  0  0  0
 19 21  1  0  0  0  0
 19 44  1  0  0  0  0
 20 22  2  0  0  0  0
 20 45  1  0  0  0  0
 21 23  2  0  0  0  0
 21 46  1  0  0  0  0
 22 23  1  0  0  0  0
 22 47  1  0  0  0  0
 23 48  1  0  0  0  0
M  END
> <PUBCHEM_COMPOUND_CID>
10528

> <PUBCHEM_COMPOUND_CANONICALIZED>
1

> <PUBCHEM_CACTVS_COMPLEXITY>
357

> <PUBCHEM_CACTVS_HBOND_ACCEPTOR>
3

> <PUBCHEM_CACTVS_HBOND_DONOR>
0

> <PUBCHEM_CACTVS_ROTATABLE_BOND>
8

> <PUBCHEM_CACTVS_SUBSKEYS>
AAADceB6MAAAAAAAAAAAAAAAAAAAAAAAAAAwYAAAAAAAAAABQAAAHgAAAAAADgDhmAYyCIMABACIAiDSCAACAAAgAAAIiAEICIgIJjqAtRmGMAAmwAEIqAeYyOCPgAAAAAAAAAAAAAAAAAAAAAAAAAAAAA==

> <PUBCHEM_IUPAC_OPENEYE_NAME>
benzyl 2-[(dimethylamino)methyl]-2-phenyl-butanoate

> <PUBCHEM_IUPAC_CAS_NAME>
2-[(dimethylamino)methyl]-2-phenylbutanoic acid (phenylmethyl) ester

> <PUBCHEM_IUPAC_NAME>
benzyl 2-[(dimethylamino)methyl]-2-phenylbutanoate

> <PUBCHEM_IUPAC_SYSTEMATIC_NAME>
(phenylmethyl) 2-[(dimethylamino)methyl]-2-phenyl-butanoate

> <PUBCHEM_IUPAC_TRADITIONAL_NAME>
2-[(dimethylamino)methyl]-2-phenyl-butyric acid benzyl ester

> <PUBCHEM_IUPAC_INCHI>
InChI=1S/C20H25NO2/c1-4-20(16-21(2)3,18-13-9-6-10-14-18)19(22)23-15-17-11-7-5-8-12-17/h5-14H,4,15-16H2,1-3H3

> <PUBCHEM_IUPAC_INCHIKEY>
KTMMAQUOYWBMQY-UHFFFAOYSA-N

> <PUBCHEM_XLOGP3_AA>
4

> <PUBCHEM_EXACT_MASS>
311.188529

> <PUBCHEM_MOLECULAR_FORMULA>
C20H25NO2

> <PUBCHEM_MOLECULAR_WEIGHT>
311.418

> <PUBCHEM_OPENEYE_CAN_SMILES>
CCC(CN(C)C)(C1=CC=CC=C1)C(=O)OCC2=CC=CC=C2

> <PUBCHEM_OPENEYE_ISO_SMILES>
CCC(CN(C)C)(C1=CC=CC=C1)C(=O)OCC2=CC=CC=C2

> <PUBCHEM_CACTVS_TPSA>
29.5

> <PUBCHEM_MONOISOTOPIC_WEIGHT>
311.188529

> <PUBCHEM_TOTAL_CHARGE>
0

> <PUBCHEM_HEAVY_ATOM_COUNT>
23

> <PUBCHEM_ATOM_DEF_STEREO_COUNT>
0

> <PUBCHEM_ATOM_UDEF_STEREO_COUNT>
1

> <PUBCHEM_BOND_DEF_STEREO_COUNT>
0

> <PUBCHEM_BOND_UDEF_STEREO_COUNT>
0

> <PUBCHEM_ISOTOPIC_ATOM_COUNT>
0

> <PUBCHEM_COMPONENT_COUNT>
1

> <PUBCHEM_CACTVS_TAUTO_COUNT>
1

> <PUBCHEM_COORDINATE_TYPE>
1
5
255

> <PUBCHEM_BONDANNOTATIONS>
10  14  8
11  15  8
14  17  8
15  17  8
18  19  8
18  20  8
19  21  8
20  22  8
21  23  8
22  23  8
4  7  3
7  10  8
7  11  8

$$$$

