443470
  -OEChem-07051213023D

 52 54  0     1  0  0  0  0  0999 V2000
    1.1298    0.6460   -0.2869 C   0  0  1  0  0  0  0  0  0  0  0  0
    1.9519   -0.5798    0.2604 C   0  0  2  0  0  0  0  0  0  0  0  0
    3.5183   -0.4439    0.2893 C   0  0  0  0  0  0  0  0  0  0  0  0
   -0.3685    0.4255    0.1847 C   0  0  2  0  0  0  0  0  0  0  0  0
    1.6745    1.9550    0.3401 C   0  0  0  0  0  0  0  0  0  0  0  0
    3.9094    0.9340    0.8760 C   0  0  0  0  0  0  0  0  0  0  0  0
    1.4397   -1.8980   -0.3617 C   0  0  0  0  0  0  0  0  0  0  0  0
    3.1873    2.1045    0.2219 C   0  0  0  0  0  0  0  0  0  0  0  0
    1.1811    0.7758   -1.8294 C   0  0  0  0  0  0  0  0  0  0  0  0
   -0.8876   -0.9784   -0.1122 C   0  0  0  0  0  0  0  0  0  0  0  0
   -1.3608    1.4812   -0.3468 C   0  0  0  0  0  0  0  0  0  0  0  0
   -0.0583   -2.0056   -0.3673 C   0  0  0  0  0  0  0  0  0  0  0  0
    4.1084   -1.5231    1.2356 C   0  0  0  0  0  0  0  0  0  0  0  0
    4.2155   -0.6446   -1.0707 C   0  0  0  0  0  0  0  0  0  0  0  0
   -2.7722    1.2555    0.2054 C   0  0  0  0  0  0  0  0  0  0  0  0
   -2.3276   -1.1798   -0.0817 C   0  0  0  0  0  0  0  0  0  0  0  0
   -3.2107   -0.1811    0.0908 C   0  0  0  0  0  0  0  0  0  0  0  0
   -4.6871   -0.4324    0.1777 C   0  0  0  0  0  0  0  0  0  0  0  0
   -5.2201    0.0178    1.5337 C   0  0  0  0  0  0  0  0  0  0  0  0
   -5.4229    0.2714   -0.9588 C   0  0  0  0  0  0  0  0  0  0  0  0
    1.6754   -0.6382    1.3276 H   0  0  0  0  0  0  0  0  0  0  0  0
   -0.3776    0.5172    1.2827 H   0  0  0  0  0  0  0  0  0  0  0  0
    1.4089    1.9908    1.4051 H   0  0  0  0  0  0  0  0  0  0  0  0
    1.2029    2.8303   -0.1220 H   0  0  0  0  0  0  0  0  0  0  0  0
    4.9927    1.0895    0.7929 H   0  0  0  0  0  0  0  0  0  0  0  0
    3.6828    0.9510    1.9510 H   0  0  0  0  0  0  0  0  0  0  0  0
    1.8292   -2.7493    0.2070 H   0  0  0  0  0  0  0  0  0  0  0  0
    1.7891   -2.0143   -1.3926 H   0  0  0  0  0  0  0  0  0  0  0  0
    3.4858    2.2067   -0.8263 H   0  0  0  0  0  0  0  0  0  0  0  0
    3.4924    3.0334    0.7187 H   0  0  0  0  0  0  0  0  0  0  0  0
    2.1945    0.8706   -2.2132 H   0  0  0  0  0  0  0  0  0  0  0  0
    0.7179   -0.0740   -2.3390 H   0  0  0  0  0  0  0  0  0  0  0  0
    0.6583    1.6771   -2.1680 H   0  0  0  0  0  0  0  0  0  0  0  0
   -1.4145    1.4420   -1.4419 H   0  0  0  0  0  0  0  0  0  0  0  0
   -1.0385    2.4922   -0.0765 H   0  0  0  0  0  0  0  0  0  0  0  0
   -0.4611   -2.9922   -0.5858 H   0  0  0  0  0  0  0  0  0  0  0  0
    3.6386   -1.4878    2.2250 H   0  0  0  0  0  0  0  0  0  0  0  0
    3.9736   -2.5330    0.8348 H   0  0  0  0  0  0  0  0  0  0  0  0
    5.1851   -1.3742    1.3803 H   0  0  0  0  0  0  0  0  0  0  0  0
    5.3058   -0.6459   -0.9461 H   0  0  0  0  0  0  0  0  0  0  0  0
    3.9535   -1.6026   -1.5290 H   0  0  0  0  0  0  0  0  0  0  0  0
    3.9999    0.1467   -1.7869 H   0  0  0  0  0  0  0  0  0  0  0  0
   -3.4413    1.9318   -0.3339 H   0  0  0  0  0  0  0  0  0  0  0  0
   -2.7964    1.5530    1.2610 H   0  0  0  0  0  0  0  0  0  0  0  0
   -2.6872   -2.2009   -0.1850 H   0  0  0  0  0  0  0  0  0  0  0  0
   -4.8846   -1.5084    0.0830 H   0  0  0  0  0  0  0  0  0  0  0  0
   -5.1568    1.1032    1.6678 H   0  0  0  0  0  0  0  0  0  0  0  0
   -4.6717   -0.4587    2.3542 H   0  0  0  0  0  0  0  0  0  0  0  0
   -6.2749   -0.2603    1.6377 H   0  0  0  0  0  0  0  0  0  0  0  0
   -4.9665    0.0497   -1.9299 H   0  0  0  0  0  0  0  0  0  0  0  0
   -5.4588    1.3585   -0.8347 H   0  0  0  0  0  0  0  0  0  0  0  0
   -6.4625   -0.0742   -0.9997 H   0  0  0  0  0  0  0  0  0  0  0  0
  1  2  1  0  0  0  0
  1  4  1  0  0  0  0
  1  5  1  0  0  0  0
  1  9  1  0  0  0  0
  2  3  1  0  0  0  0
  2  7  1  0  0  0  0
  2 21  1  0  0  0  0
  3  6  1  0  0  0  0
  3 13  1  0  0  0  0
  3 14  1  0  0  0  0
  4 10  1  0  0  0  0
  4 11  1  0  0  0  0
  4 22  1  0  0  0  0
  5  8  1  0  0  0  0
  5 23  1  0  0  0  0
  5 24  1  0  0  0  0
  6  8  1  0  0  0  0
  6 25  1  0  0  0  0
  6 26  1  0  0  0  0
  7 12  1  0  0  0  0
  7 27  1  0  0  0  0
  7 28  1  0  0  0  0
  8 29  1  0  0  0  0
  8 30  1  0  0  0  0
  9 31  1  0  0  0  0
  9 32  1  0  0  0  0
  9 33  1  0  0  0  0
 10 12  2  0  0  0  0
 10 16  1  0  0  0  0
 11 15  1  0  0  0  0
 11 34  1  0  0  0  0
 11 35  1  0  0  0  0
 12 36  1  0  0  0  0
 13 37  1  0  0  0  0
 13 38  1  0  0  0  0
 13 39  1  0  0  0  0
 14 40  1  0  0  0  0
 14 41  1  0  0  0  0
 14 42  1  0  0  0  0
 15 17  1  0  0  0  0
 15 43  1  0  0  0  0
 15 44  1  0  0  0  0
 16 17  2  0  0  0  0
 16 45  1  0  0  0  0
 17 18  1  0  0  0  0
 18 19  1  0  0  0  0
 18 20  1  0  0  0  0
 18 46  1  0  0  0  0
 19 47  1  0  0  0  0
 19 48  1  0  0  0  0
 19 49  1  0  0  0  0
 20 50  1  0  0  0  0
 20 51  1  0  0  0  0
 20 52  1  0  0  0  0
M  END
> <PUBCHEM_COMPOUND_CID>
443470

> <PUBCHEM_CONFORMER_RMSD>
0.6

> <PUBCHEM_CONFORMER_DIVERSEORDER>
1
2

> <PUBCHEM_MMFF94_PARTIAL_CHARGES>
10
10 -0.14
12 -0.29
15 0.14
16 -0.15
17 -0.28
18 0.14
36 0.15
4 0.14
45 0.15
7 0.14

> <PUBCHEM_EFFECTIVE_ROTOR_COUNT>
2.4

> <PUBCHEM_PHARMACOPHORE_FEATURES>
5
3 18 19 20 hydrophobe
3 3 13 14 hydrophobe
6 1 2 3 5 6 8 rings
6 1 2 4 7 10 12 rings
6 4 10 11 15 16 17 rings

> <PUBCHEM_HEAVY_ATOM_COUNT>
20

> <PUBCHEM_ATOM_DEF_STEREO_COUNT>
3

> <PUBCHEM_ATOM_UDEF_STEREO_COUNT>
0

> <PUBCHEM_BOND_DEF_STEREO_COUNT>
0

> <PUBCHEM_BOND_UDEF_STEREO_COUNT>
0

> <PUBCHEM_ISOTOPIC_ATOM_COUNT>
0

> <PUBCHEM_COMPONENT_COUNT>
1

> <PUBCHEM_CACTVS_TAUTO_COUNT>
1

> <PUBCHEM_CONFORMER_ID>
0006C44E00000001

> <PUBCHEM_MMFF94_ENERGY>
55.7241

> <PUBCHEM_FEATURE_SELFOVERLAP>
25.405

> <PUBCHEM_SHAPE_FINGERPRINT>
10366900 7 18272923946974561002
10967382 1 18409169887618140520
11132069 177 18410015407801830243
11471102 20 18408045099844077045
11796584 16 16343705456369802835
12011746 2 18411134753762763286
12236239 1 17775281677529833894
12251169 10 18411427189480039434
12403259 226 18340212997906718156
12403259 415 18411420622138024917
12403260 363 18336273413416176913
12507560 40 18271815630674767156
12592029 89 18410571816204036331
12633257 1 18334860523546676426
13140716 1 18338518517201917506
13224815 77 18409163290764671227
13533116 47 17917154999893540435
13583140 156 17130732533551729761
13675066 3 18060420184092517249
13862211 1 18409736187546202743
14178342 30 18045782557300776144
14341114 176 18342735217260994050
14341114 328 17676201369062664033
15196674 1 18337392643359991655
15375358 24 18343303661042082643
15536298 74 18334013869733992544
15788980 27 18131070424901108887
16945 1 18410302431997795166
17349148 13 18411983563838608423
17802600 8 18411423929447030309
17804303 29 18412543249437452348
17862501 102 18335989730873521579
1813 80 17060344050168707764
18186145 218 18334013886829498308
200 152 18186529808633517949
20028762 73 18113627767674540991
20261772 1 18408885118338476675
20645477 70 18409169904682043343
20691752 17 17774174392011466318
21033648 29 18200050489951099429
21267235 1 18410567418521307322
21637258 2 15913057559897385930
22854114 111 18410290298530392105
22854114 59 18409169908929453353
23184049 59 18412547591354015414
23402539 116 17894638062961424821
23557571 272 16515680074333363841
23558518 356 17618513081987120520
23559900 14 18114173104345914676
2838139 119 14419003677922249682
296302 2 18261112924360018153
3286 77 18271814565939251792
335352 9 18409450297406272806
34797466 226 14852167257088681321
34934 24 18189904110924333112
350125 39 18411697711884522028
351380 180 18409454682630879865
4072396 5 18340219577706879931
42630746 31 18260265257120149863
465052 167 18202277013459995018
474 4 18334859363984478337
5104073 3 18336547114560169883
542803 24 16950279607401679353
633830 44 18040996224102225279
69090 78 18260271819619142599
7364860 26 18261106400457890910
9709674 26 18336543820056632367
9999458 23 18413670193184969302

> <PUBCHEM_SHAPE_MULTIPOLES>
411.59
10.05
2
1.17
8.84
0.1
0.11
-0.17
-1.91
-1.49
-0.05
-0.07
0.03
0.03

> <PUBCHEM_SHAPE_SELFOVERLAP>
856.311

> <PUBCHEM_SHAPE_VOLUME>
232.9

> <PUBCHEM_COORDINATE_TYPE>
2
5
10

$$$$

