442480
  -OEChem-07051212583D

 36 38  0     1  0  0  0  0  0999 V2000
   -3.0721   -1.2565    1.1491 O   0  0  0  0  0  0  0  0  0  0  0  0
   -0.1107    1.5012    0.4548 N   0  0  2  0  0  0  0  0  0  0  0  0
    0.0201   -0.2197   -1.3749 C   0  0  2  0  0  0  0  0  0  0  0  0
    0.1798   -1.4665   -0.4707 C   0  0  1  0  0  0  0  0  0  0  0  0
    0.6320    1.0636   -0.7497 C   0  0  2  0  0  0  0  0  0  0  0  0
   -1.4558   -0.0074   -1.6971 C   0  0  0  0  0  0  0  0  0  0  0  0
   -2.1721    0.3390   -0.4049 C   0  0  2  0  0  0  0  0  0  0  0  0
    1.6581   -1.6834   -0.1076 C   0  0  0  0  0  0  0  0  0  0  0  0
    2.1249    0.7764   -0.4743 C   0  0  0  0  0  0  0  0  0  0  0  0
    2.3384   -0.4261    0.4584 C   0  0  2  0  0  0  0  0  0  0  0  0
   -0.7111   -1.4537    0.7848 C   0  0  0  0  0  0  0  0  0  0  0  0
   -1.5635    1.5995    0.2218 C   0  0  0  0  0  0  0  0  0  0  0  0
   -2.0825   -0.8528    0.5370 C   0  0  0  0  0  0  0  0  0  0  0  0
    3.8313   -0.6796    0.6708 C   0  0  0  0  0  0  0  0  0  0  0  0
    0.3832    2.7661    1.0026 C   0  0  0  0  0  0  0  0  0  0  0  0
    0.5422   -0.4197   -2.3213 H   0  0  0  0  0  0  0  0  0  0  0  0
   -0.1386   -2.3356   -1.0648 H   0  0  0  0  0  0  0  0  0  0  0  0
    0.5775    1.8632   -1.5022 H   0  0  0  0  0  0  0  0  0  0  0  0
   -1.8817   -0.9117   -2.1491 H   0  0  0  0  0  0  0  0  0  0  0  0
   -1.5722    0.8032   -2.4266 H   0  0  0  0  0  0  0  0  0  0  0  0
   -3.2332    0.5150   -0.6195 H   0  0  0  0  0  0  0  0  0  0  0  0
    1.7500   -2.5117    0.6059 H   0  0  0  0  0  0  0  0  0  0  0  0
    2.1911   -1.9991   -1.0148 H   0  0  0  0  0  0  0  0  0  0  0  0
    2.6289    1.6615   -0.0710 H   0  0  0  0  0  0  0  0  0  0  0  0
    2.6210    0.5771   -1.4347 H   0  0  0  0  0  0  0  0  0  0  0  0
    1.9063   -0.1953    1.4394 H   0  0  0  0  0  0  0  0  0  0  0  0
   -0.2554   -0.8981    1.6098 H   0  0  0  0  0  0  0  0  0  0  0  0
   -0.8474   -2.4842    1.1346 H   0  0  0  0  0  0  0  0  0  0  0  0
   -1.7806    2.4557   -0.4312 H   0  0  0  0  0  0  0  0  0  0  0  0
   -2.0655    1.7859    1.1798 H   0  0  0  0  0  0  0  0  0  0  0  0
    3.9884   -1.5210    1.3538 H   0  0  0  0  0  0  0  0  0  0  0  0
    4.3356   -0.9108   -0.2737 H   0  0  0  0  0  0  0  0  0  0  0  0
    4.3159    0.2004    1.1066 H   0  0  0  0  0  0  0  0  0  0  0  0
    1.4051    2.6683    1.3798 H   0  0  0  0  0  0  0  0  0  0  0  0
   -0.2191    3.0755    1.8649 H   0  0  0  0  0  0  0  0  0  0  0  0
    0.3564    3.5729    0.2616 H   0  0  0  0  0  0  0  0  0  0  0  0
  1 13  2  0  0  0  0
  2  5  1  0  0  0  0
  2 12  1  0  0  0  0
  2 15  1  0  0  0  0
  3  4  1  0  0  0  0
  3  5  1  0  0  0  0
  3  6  1  0  0  0  0
  3 16  1  0  0  0  0
  4  8  1  0  0  0  0
  4 11  1  0  0  0  0
  4 17  1  0  0  0  0
  5  9  1  0  0  0  0
  5 18  1  0  0  0  0
  6  7  1  0  0  0  0
  6 19  1  0  0  0  0
  6 20  1  0  0  0  0
  7 12  1  0  0  0  0
  7 13  1  0  0  0  0
  7 21  1  0  0  0  0
  8 10  1  0  0  0  0
  8 22  1  0  0  0  0
  8 23  1  0  0  0  0
  9 10  1  0  0  0  0
  9 24  1  0  0  0  0
  9 25  1  0  0  0  0
 10 14  1  0  0  0  0
 10 26  1  0  0  0  0
 11 13  1  0  0  0  0
 11 27  1  0  0  0  0
 11 28  1  0  0  0  0
 12 29  1  0  0  0  0
 12 30  1  0  0  0  0
 14 31  1  0  0  0  0
 14 32  1  0  0  0  0
 14 33  1  0  0  0  0
 15 34  1  0  0  0  0
 15 35  1  0  0  0  0
 15 36  1  0  0  0  0
M  END
> <PUBCHEM_COMPOUND_CID>
442480

> <PUBCHEM_CONFORMER_RMSD>
0.6

> <PUBCHEM_CONFORMER_DIVERSEORDER>
1

> <PUBCHEM_MMFF94_PARTIAL_CHARGES>
8
1 -0.57
11 0.06
12 0.27
13 0.45
15 0.27
2 -0.81
5 0.27
7 0.06

> <PUBCHEM_EFFECTIVE_ROTOR_COUNT>
1.4

> <PUBCHEM_PHARMACOPHORE_FEATURES>
5
1 1 acceptor
1 2 cation
6 2 3 5 6 7 12 rings
6 3 4 5 8 9 10 rings
6 3 4 6 7 11 13 rings

> <PUBCHEM_HEAVY_ATOM_COUNT>
15

> <PUBCHEM_ATOM_DEF_STEREO_COUNT>
5

> <PUBCHEM_ATOM_UDEF_STEREO_COUNT>
0

> <PUBCHEM_BOND_DEF_STEREO_COUNT>
0

> <PUBCHEM_BOND_UDEF_STEREO_COUNT>
0

> <PUBCHEM_ISOTOPIC_ATOM_COUNT>
0

> <PUBCHEM_COMPONENT_COUNT>
1

> <PUBCHEM_CACTVS_TAUTO_COUNT>
2

> <PUBCHEM_CONFORMER_ID>
0006C07000000001

> <PUBCHEM_MMFF94_ENERGY>
32.9108

> <PUBCHEM_FEATURE_SELFOVERLAP>
27.136

> <PUBCHEM_SHAPE_FINGERPRINT>
108231 29 18411135805781817946
10863032 1 17632856395417208948
11086676 242 18127947789965604235
11769659 78 17775004544353797683
12138202 97 16342320140153607415
12382932 28 18337669831642693704
12423570 1 7461275899088514823
12491281 212 17533507986512095777
13024252 1 12894782718078556510
13027679 85 18339360764599214040
13172582 1 17967812708677304182
14817 1 10945254799925125013
15076042 46 18264204880244018188
15375462 478 18409450310259447838
16945 1 18334012761463651351
19010151 120 17677354730657847517
20511035 2 17838039417299269591
21061003 4 18408323263437925888
21501502 16 18130216073900577437
22802520 49 17754161296063677342
23236772 104 18120664775061362008
23419403 2 18055657047965125949
2748010 2 18191018104627781206
3286 77 18267305335609912211
369184 2 17604164695499100814
5084963 1 17775287131695194631
5255222 1 17981043016077455388
568465 68 18341612585945823370

> <PUBCHEM_SHAPE_MULTIPOLES>
297.84
3.98
2.22
1.27
2.18
1.15
-0.28
-1.25
1.07
-0.12
0.74
-0.44
-0.03
0.22

> <PUBCHEM_SHAPE_SELFOVERLAP>
627.368

> <PUBCHEM_SHAPE_VOLUME>
164.1

> <PUBCHEM_COORDINATE_TYPE>
2
5
10

$$$$

