13907
  -OEChem-06241222403D

 22 22  0     0  0  0  0  0  0999 V2000
   -5.7878    0.8445    0.0431 O   0  0  0  0  0  0  0  0  0  0  0  0
    5.7880    0.8443   -0.0393 O   0  0  0  0  0  0  0  0  0  0  0  0
   -3.4422    0.7590   -0.0391 N   0  0  0  0  0  0  0  0  0  0  0  0
    3.4424    0.7588    0.0428 N   0  0  0  0  0  0  0  0  0  0  0  0
   -1.3949   -0.6006   -0.0180 C   0  0  0  0  0  0  0  0  0  0  0  0
    1.3947   -0.6001    0.0153 C   0  0  0  0  0  0  0  0  0  0  0  0
   -0.7120   -0.6038    1.1982 C   0  0  0  0  0  0  0  0  0  0  0  0
    0.6827   -0.6035    1.2149 C   0  0  0  0  0  0  0  0  0  0  0  0
   -0.6831   -0.5972   -1.2176 C   0  0  0  0  0  0  0  0  0  0  0  0
    0.7118   -0.5970   -1.2011 C   0  0  0  0  0  0  0  0  0  0  0  0
   -2.8860   -0.6000   -0.0357 C   0  0  0  0  0  0  0  0  0  0  0  0
    2.8861   -0.5999    0.0327 C   0  0  0  0  0  0  0  0  0  0  0  0
   -4.6130    0.7978    0.0021 C   0  0  0  0  0  0  0  0  0  0  0  0
    4.6133    0.7977    0.0016 C   0  0  0  0  0  0  0  0  0  0  0  0
   -1.2549   -0.6038    2.1397 H   0  0  0  0  0  0  0  0  0  0  0  0
    1.2030   -0.6034    2.1690 H   0  0  0  0  0  0  0  0  0  0  0  0
   -1.2033   -0.5920   -2.1719 H   0  0  0  0  0  0  0  0  0  0  0  0
    1.2547   -0.5917   -2.1426 H   0  0  0  0  0  0  0  0  0  0  0  0
   -3.2348   -1.1543   -0.9194 H   0  0  0  0  0  0  0  0  0  0  0  0
   -3.2540   -1.1640    0.8343 H   0  0  0  0  0  0  0  0  0  0  0  0
    3.2349   -1.1588    0.9136 H   0  0  0  0  0  0  0  0  0  0  0  0
    3.2537   -1.1597   -0.8402 H   0  0  0  0  0  0  0  0  0  0  0  0
  1 13  2  0  0  0  0
  2 14  2  0  0  0  0
  3 11  1  0  0  0  0
  3 13  2  0  0  0  0
  4 12  1  0  0  0  0
  4 14  2  0  0  0  0
  5  7  2  0  0  0  0
  5  9  1  0  0  0  0
  5 11  1  0  0  0  0
  6  8  2  0  0  0  0
  6 10  1  0  0  0  0
  6 12  1  0  0  0  0
  7  8  1  0  0  0  0
  7 15  1  0  0  0  0
  8 16  1  0  0  0  0
  9 10  2  0  0  0  0
  9 17  1  0  0  0  0
 10 18  1  0  0  0  0
 11 19  1  0  0  0  0
 11 20  1  0  0  0  0
 12 21  1  0  0  0  0
 12 22  1  0  0  0  0
M  END
> <PUBCHEM_COMPOUND_CID>
13907

> <PUBCHEM_CONFORMER_RMSD>
0.6

> <PUBCHEM_CONFORMER_DIVERSEORDER>
1
23
32
2
36
22
7
15
34
10
35
21
29
24
27
25
12
30
9
4
13
6
5
33
14
8
17
26
18
28
19
16
31
11
20
3

> <PUBCHEM_MMFF94_PARTIAL_CHARGES>
18
1 -0.49
10 -0.15
11 0.39
12 0.39
13 0.79
14 0.79
15 0.15
16 0.15
17 0.15
18 0.15
2 -0.49
3 -0.55
4 -0.55
5 -0.14
6 -0.14
7 -0.15
8 -0.15
9 -0.15

> <PUBCHEM_EFFECTIVE_ROTOR_COUNT>
4

> <PUBCHEM_PHARMACOPHORE_FEATURES>
3
1 3 acceptor
1 4 acceptor
6 5 6 7 8 9 10 rings

> <PUBCHEM_HEAVY_ATOM_COUNT>
14

> <PUBCHEM_ATOM_DEF_STEREO_COUNT>
0

> <PUBCHEM_ATOM_UDEF_STEREO_COUNT>
0

> <PUBCHEM_BOND_DEF_STEREO_COUNT>
0

> <PUBCHEM_BOND_UDEF_STEREO_COUNT>
0

> <PUBCHEM_ISOTOPIC_ATOM_COUNT>
0

> <PUBCHEM_COMPONENT_COUNT>
1

> <PUBCHEM_CACTVS_TAUTO_COUNT>
1

> <PUBCHEM_CONFORMER_ID>
0000365300000001

> <PUBCHEM_MMFF94_ENERGY>
25.4445

> <PUBCHEM_FEATURE_SELFOVERLAP>
15.223

> <PUBCHEM_SHAPE_FINGERPRINT>
100836 57 18343579629680958620
10465860 250 12391514187341537871
106641 1 15697989700337187620
11132069 177 16487252188328429987
12251169 10 15769773546060082862
12670543 26 15647043906378671365
12714333 28 17676489445055909696
13140716 1 15625361429709858599
13288520 33 8718831989665915841
13690532 89 7925911486803182361
13760787 19 18186245021514822895
13760787 5 16515952744326859430
14252887 29 15338840914514435330
14350574 20 14634876314704305367
14911166 2 15719113547799767142
14943859 89 18410012139300212571
14993402 34 16008750203639496738
15048467 5 18410575084663338752
15209294 21 17704076217550802013
15501527 24 15791452616861969445
17834072 8 17603577535495559692
187816 3 15574712491053679082
19026448 5 18410586084074843654
200 152 7997974570025611918
20645476 183 17749395819326776910
20645477 56 18411699876800791991
20645477 70 17458899457052856806
20767249 213 18412826880609272717
20871999 31 17604160224723223023
21119208 17 17385722470252109560
22224240 67 16559031567238059761
22713019 99 5112005045057052596
23402539 116 18411986827618205631
23402655 69 16298668408293274929
23557571 272 18261667070036911375
26918003 58 12247679374788721933
2748010 2 15504089665153609327
2916195 48 18272653437371460929
3071541 37 17023181677477200879
3759504 43 17895198766130356463
4047638 21 18343298193005447794
42 15 11527946763948723795
449060 50 17917713517187127231
465052 167 12031496709628266137
4990 188 14056720149366515277

> <PUBCHEM_SHAPE_MULTIPOLES>
266.41
10.7
1.05
1.04
0
0.09
-0.01
6.4
0.09
0
0.01
0
-0.26
-0.02

> <PUBCHEM_SHAPE_SELFOVERLAP>
553.025

> <PUBCHEM_SHAPE_VOLUME>
149.3

> <PUBCHEM_COORDINATE_TYPE>
2
5
10

$$$$

