205586
  -OEChem-07051213013D

 26 27  0     1  0  0  0  0  0999 V2000
    1.3704   -0.9722   -0.7484 N   0  0  0  0  0  0  0  0  0  0  0  0
   -3.0082   -0.5827    0.8753 N   0  0  0  0  0  0  0  0  0  0  0  0
    0.7362   -0.2603    0.3738 C   0  0  1  0  0  0  0  0  0  0  0  0
    1.3993    1.1101    0.6070 C   0  0  0  0  0  0  0  0  0  0  0  0
    2.9055    0.9693    0.8089 C   0  0  0  0  0  0  0  0  0  0  0  0
    3.5243    0.1754   -0.3357 C   0  0  0  0  0  0  0  0  0  0  0  0
    2.8066   -1.1567   -0.5341 C   0  0  0  0  0  0  0  0  0  0  0  0
   -0.7588   -0.1036    0.1514 C   0  0  0  0  0  0  0  0  0  0  0  0
   -1.2428    0.6229   -0.9258 C   0  0  0  0  0  0  0  0  0  0  0  0
   -1.6674   -0.6826    1.0165 C   0  0  0  0  0  0  0  0  0  0  0  0
   -2.6161    0.7483   -1.1045 C   0  0  0  0  0  0  0  0  0  0  0  0
   -3.4488    0.1320   -0.1844 C   0  0  0  0  0  0  0  0  0  0  0  0
    0.8816   -0.8679    1.2779 H   0  0  0  0  0  0  0  0  0  0  0  0
    0.9594    1.5974    1.4861 H   0  0  0  0  0  0  0  0  0  0  0  0
    1.2238    1.7832   -0.2422 H   0  0  0  0  0  0  0  0  0  0  0  0
    3.1017    0.4578    1.7592 H   0  0  0  0  0  0  0  0  0  0  0  0
    3.3699    1.9594    0.8743 H   0  0  0  0  0  0  0  0  0  0  0  0
    3.4724    0.7645   -1.2601 H   0  0  0  0  0  0  0  0  0  0  0  0
    4.5857   -0.0030   -0.1298 H   0  0  0  0  0  0  0  0  0  0  0  0
    3.2303   -1.6740   -1.4020 H   0  0  0  0  0  0  0  0  0  0  0  0
    2.9710   -1.8106    0.3308 H   0  0  0  0  0  0  0  0  0  0  0  0
    1.2420   -0.4314   -1.6042 H   0  0  0  0  0  0  0  0  0  0  0  0
   -0.5745    1.0961   -1.6391 H   0  0  0  0  0  0  0  0  0  0  0  0
   -1.3472   -1.2625    1.8762 H   0  0  0  0  0  0  0  0  0  0  0  0
   -3.0219    1.3097   -1.9383 H   0  0  0  0  0  0  0  0  0  0  0  0
   -4.5276    0.1994   -0.2793 H   0  0  0  0  0  0  0  0  0  0  0  0
  1  3  1  0  0  0  0
  1  7  1  0  0  0  0
  1 22  1  0  0  0  0
  2 10  1  0  0  0  0
  2 12  2  0  0  0  0
  3  4  1  0  0  0  0
  3  8  1  0  0  0  0
  3 13  1  0  0  0  0
  4  5  1  0  0  0  0
  4 14  1  0  0  0  0
  4 15  1  0  0  0  0
  5  6  1  0  0  0  0
  5 16  1  0  0  0  0
  5 17  1  0  0  0  0
  6  7  1  0  0  0  0
  6 18  1  0  0  0  0
  6 19  1  0  0  0  0
  7 20  1  0  0  0  0
  7 21  1  0  0  0  0
  8  9  1  0  0  0  0
  8 10  2  0  0  0  0
  9 11  2  0  0  0  0
  9 23  1  0  0  0  0
 10 24  1  0  0  0  0
 11 12  1  0  0  0  0
 11 25  1  0  0  0  0
 12 26  1  0  0  0  0
M  END
> <PUBCHEM_COMPOUND_CID>
205586

> <PUBCHEM_CONFORMER_RMSD>
0.6

> <PUBCHEM_CONFORMER_DIVERSEORDER>
1
3
6
2
4
5

> <PUBCHEM_MMFF94_PARTIAL_CHARGES>
14
1 -0.9
10 0.16
11 -0.15
12 0.16
2 -0.62
22 0.36
23 0.15
24 0.15
25 0.15
26 0.15
3 0.41
7 0.27
8 -0.14
9 -0.15

> <PUBCHEM_EFFECTIVE_ROTOR_COUNT>
2.2

> <PUBCHEM_PHARMACOPHORE_FEATURES>
5
1 1 cation
1 1 donor
1 2 acceptor
6 1 3 4 5 6 7 rings
6 2 8 9 10 11 12 rings

> <PUBCHEM_HEAVY_ATOM_COUNT>
12

> <PUBCHEM_ATOM_DEF_STEREO_COUNT>
1

> <PUBCHEM_ATOM_UDEF_STEREO_COUNT>
0

> <PUBCHEM_BOND_DEF_STEREO_COUNT>
0

> <PUBCHEM_BOND_UDEF_STEREO_COUNT>
0

> <PUBCHEM_ISOTOPIC_ATOM_COUNT>
0

> <PUBCHEM_COMPONENT_COUNT>
1

> <PUBCHEM_CACTVS_TAUTO_COUNT>
1

> <PUBCHEM_CONFORMER_ID>
0003231200000001

> <PUBCHEM_MMFF94_ENERGY>
17.5517

> <PUBCHEM_FEATURE_SELFOVERLAP>
25.371

> <PUBCHEM_SHAPE_FINGERPRINT>
10219947 1 18040434395414810196
10608611 8 18343026587848064476
10857977 72 17846216627093090157
11031198 65 18333730191592176484
124424 183 18272663367398743666
12932764 1 18412830187343836898
13581323 91 16917354722717150265
14144814 61 16153426146945630472
14993402 34 16443064997492744212
15219456 202 18412545409531721528
15669948 3 16988840536407139619
15775835 57 16515683316754279368
16945 1 18040437689696885288
17844478 74 18412820291849898265
18175812 5 18341894065069567734
18186145 218 18342456001437048292
190213 19 16298106484013987526
19422 9 16226046678046803366
20201158 50 18410855481750847298
20279233 1 18413674603726056954
20645464 45 18272376360393437881
20645477 70 18114749346669612654
20715346 28 18341613689599183961
21639500 275 17822868471876172048
22802520 49 18196092359474996868
23402539 116 17775297044463948167
23559900 14 17917433176757113294
3248919 1 18412266142184233216
474 4 16590017922480775648
6333449 129 18060422413106697327
7364860 26 17630624528647400442
77492 1 16370444453490624520
8030462 33 16226053279437988747

> <PUBCHEM_SHAPE_MULTIPOLES>
236.99
6.09
1.13
1.1
0.23
0.01
0
0.22
-0.28
0.18
-0.01
0.02
0.02
1.01

> <PUBCHEM_SHAPE_SELFOVERLAP>
491.232

> <PUBCHEM_SHAPE_VOLUME>
132.4

> <PUBCHEM_COORDINATE_TYPE>
2
5
10

$$$$

