61205
  -OEChem-07051213132D

 18 19  0     0  0  0  0  0  0999 V2000
    4.2208    0.4280    0.0000 S   0  0  0  0  0  0  0  0  0  0  0  0
    6.2899   -0.2443    0.0000 O   0  0  0  0  0  0  0  0  0  0  0  0
    8.8722   -0.9488    0.0000 O   0  5  0  0  0  0  0  0  0  0  0  0
    7.4710   -1.9668    0.0000 O   0  0  0  0  0  0  0  0  0  0  0  0
    4.7208    1.9668    0.0000 N   0  0  0  0  0  0  0  0  0  0  0  0
    7.8777   -1.0533    0.0000 N   0  3  0  0  0  0  0  0  0  0  0  0
    3.7208    1.9668    0.0000 N   0  0  0  0  0  0  0  0  0  0  0  0
    2.4608    0.7068    0.0000 N   0  0  0  0  0  0  0  0  0  0  0  0
    5.9809    0.7068    0.0000 C   0  0  0  0  0  0  0  0  0  0  0  0
    5.0298    1.0158    0.0000 C   0  0  0  0  0  0  0  0  0  0  0  0
    6.7899    1.2946    0.0000 C   0  0  0  0  0  0  0  0  0  0  0  0
    7.2899   -0.2443    0.0000 C   0  0  0  0  0  0  0  0  0  0  0  0
    7.5989    0.7068    0.0000 C   0  0  0  0  0  0  0  0  0  0  0  0
    3.4118    1.0158    0.0000 C   0  0  0  0  0  0  0  0  0  0  0  0
    6.7899    1.9146    0.0000 H   0  0  0  0  0  0  0  0  0  0  0  0
    8.1886    0.8984    0.0000 H   0  0  0  0  0  0  0  0  0  0  0  0
    2.0000    1.1216    0.0000 H   0  0  0  0  0  0  0  0  0  0  0  0
    2.3318    0.1003    0.0000 H   0  0  0  0  0  0  0  0  0  0  0  0
  1 10  1  0  0  0  0
  1 14  1  0  0  0  0
  2  9  1  0  0  0  0
  2 12  1  0  0  0  0
  3  6  1  0  0  0  0
  4  6  2  0  0  0  0
  5  7  1  0  0  0  0
  5 10  2  0  0  0  0
  6 12  1  0  0  0  0
  7 14  2  0  0  0  0
  8 14  1  0  0  0  0
  8 17  1  0  0  0  0
  8 18  1  0  0  0  0
  9 10  1  0  0  0  0
  9 11  2  0  0  0  0
 11 13  1  0  0  0  0
 11 15  1  0  0  0  0
 12 13  2  0  0  0  0
 13 16  1  0  0  0  0
M  CHG  2   3  -1   6   1
M  END
> <PUBCHEM_COMPOUND_CID>
61205

> <PUBCHEM_COMPOUND_CANONICALIZED>
1

> <PUBCHEM_CACTVS_COMPLEXITY>
236

> <PUBCHEM_CACTVS_HBOND_ACCEPTOR>
7

> <PUBCHEM_CACTVS_HBOND_DONOR>
1

> <PUBCHEM_CACTVS_ROTATABLE_BOND>
1

> <PUBCHEM_CACTVS_SUBSKEYS>
AAADcYBjsABAAAAAAAAAAAAAAAAAAWJAAAAAAAAAAAAAAAAB4AAAHgQcAAAACASB0gAxlIBQREivAKFycwSSCIJuIhE8iCGmbNoOJrKktJuLGSD0yBEI6Ya8EQAAAAAAAAAAAAAAAAAAAAAAAAAAAAAAAA==

> <PUBCHEM_IUPAC_OPENEYE_NAME>
5-(5-nitro-2-furyl)-1,3,4-thiadiazol-2-amine

> <PUBCHEM_IUPAC_CAS_NAME>
5-(5-nitro-2-furanyl)-1,3,4-thiadiazol-2-amine

> <PUBCHEM_IUPAC_NAME>
5-(5-nitrofuran-2-yl)-1,3,4-thiadiazol-2-amine

> <PUBCHEM_IUPAC_SYSTEMATIC_NAME>
5-(5-nitrofuran-2-yl)-1,3,4-thiadiazol-2-amine

> <PUBCHEM_IUPAC_TRADITIONAL_NAME>
[5-(5-nitro-2-furyl)-1,3,4-thiadiazol-2-yl]amine

> <PUBCHEM_IUPAC_INCHI>
InChI=1S/C6H4N4O3S/c7-6-9-8-5(14-6)3-1-2-4(13-3)10(11)12/h1-2H,(H2,7,9)

> <PUBCHEM_IUPAC_INCHIKEY>
SXZZHGJWUBJKHH-UHFFFAOYSA-N

> <PUBCHEM_XLOGP3_AA>
0.9

> <PUBCHEM_EXACT_MASS>
212.000411

> <PUBCHEM_MOLECULAR_FORMULA>
C6H4N4O3S

> <PUBCHEM_MOLECULAR_WEIGHT>
212.18596

> <PUBCHEM_OPENEYE_CAN_SMILES>
C1=C(OC(=C1)[N+](=O)[O-])C2=NN=C(S2)N

> <PUBCHEM_OPENEYE_ISO_SMILES>
C1=C(OC(=C1)[N+](=O)[O-])C2=NN=C(S2)N

> <PUBCHEM_CACTVS_TPSA>
139

> <PUBCHEM_MONOISOTOPIC_WEIGHT>
212.000411

> <PUBCHEM_TOTAL_CHARGE>
0

> <PUBCHEM_HEAVY_ATOM_COUNT>
14

> <PUBCHEM_ATOM_DEF_STEREO_COUNT>
0

> <PUBCHEM_ATOM_UDEF_STEREO_COUNT>
0

> <PUBCHEM_BOND_DEF_STEREO_COUNT>
0

> <PUBCHEM_BOND_UDEF_STEREO_COUNT>
0

> <PUBCHEM_ISOTOPIC_ATOM_COUNT>
0

> <PUBCHEM_COMPONENT_COUNT>
1

> <PUBCHEM_CACTVS_TAUTO_COUNT>
2

> <PUBCHEM_COORDINATE_TYPE>
1
5
255

> <PUBCHEM_BONDANNOTATIONS>
1  10  8
1  14  8
11  13  8
12  13  8
2  12  8
2  9  8
5  10  8
5  7  8
7  14  8
9  11  8

$$$$

