6321416
  -OEChem-07051212542D

 57 59  0     1  0  0  0  0  0999 V2000
    6.8671   -1.8240    0.0000 S   0  0  0  0  0  0  0  0  0  0  0  0
    9.4470    0.3887    0.0000 O   0  0  0  0  0  0  0  0  0  0  0  0
    6.0010    1.6760    0.0000 O   0  0  0  0  0  0  0  0  0  0  0  0
    4.2690   -0.3240    0.0000 O   0  0  0  0  0  0  0  0  0  0  0  0
    7.7331    1.6760    0.0000 O   0  0  0  0  0  0  0  0  0  0  0  0
   10.6743   -0.8145    0.0000 O   0  0  0  0  0  0  0  0  0  0  0  0
    5.1350    3.1760    0.0000 O   0  0  0  0  0  0  0  0  0  0  0  0
   12.4459   -1.2987    0.0000 O   0  0  0  0  0  0  0  0  0  0  0  0
    9.8919   -3.7106    0.0000 O   0  0  0  0  0  0  0  0  0  0  0  0
    3.4030    1.1760    0.0000 O   0  0  0  0  0  0  0  0  0  0  0  0
    6.0010    4.6760    0.0000 O   0  0  0  0  0  0  0  0  0  0  0  0
    7.7331   -0.3240    0.0000 N   0  0  0  0  0  0  0  0  0  0  0  0
    9.4470   -2.0367    0.0000 N   0  0  0  0  0  0  0  0  0  0  0  0
   10.8583   -3.4538    0.0000 N   0  0  0  0  0  0  0  0  0  0  0  0
    2.5369   -0.3240    0.0000 N   0  0  0  0  0  0  0  0  0  0  0  0
    7.7331   -1.3240    0.0000 C   0  0  1  0  0  0  0  0  0  0  0  0
    8.7414   -1.3281    0.0000 C   0  0  1  0  0  0  0  0  0  0  0  0
    8.7414   -0.3198    0.0000 C   0  0  0  0  0  0  0  0  0  0  0  0
    6.8671    0.1760    0.0000 C   0  0  0  0  0  0  0  0  0  0  0  0
    6.0010   -0.3240    0.0000 C   0  0  0  0  0  0  0  0  0  0  0  0
    6.0010   -1.3240    0.0000 C   0  0  0  0  0  0  0  0  0  0  0  0
    5.1350    0.1760    0.0000 C   0  0  0  0  0  0  0  0  0  0  0  0
    6.8671    1.1760    0.0000 C   0  0  0  0  0  0  0  0  0  0  0  0
   10.4135   -1.7798    0.0000 C   0  0  0  0  0  0  0  0  0  0  0  0
   11.1191   -2.4884    0.0000 C   0  0  0  0  0  0  0  0  0  0  0  0
    6.0010    2.6760    0.0000 C   0  0  3  0  0  0  0  0  0  0  0  0
   12.0856   -2.2316    0.0000 C   0  0  0  0  0  0  0  0  0  0  0  0
    3.4030    0.1760    0.0000 C   0  0  0  0  0  0  0  0  0  0  0  0
    6.8671    3.1760    0.0000 C   0  0  0  0  0  0  0  0  0  0  0  0
   12.8614   -2.8625    0.0000 C   0  0  0  0  0  0  0  0  0  0  0  0
   13.7012   -2.3196    0.0000 C   0  0  0  0  0  0  0  0  0  0  0  0
   13.4444   -1.3531    0.0000 C   0  0  0  0  0  0  0  0  0  0  0  0
    5.1350    4.1760    0.0000 C   0  0  0  0  0  0  0  0  0  0  0  0
    4.2690    4.6760    0.0000 C   0  0  0  0  0  0  0  0  0  0  0  0
    9.6311   -4.6760    0.0000 C   0  0  0  0  0  0  0  0  0  0  0  0
    7.9514   -2.1455    0.0000 H   0  0  0  0  0  0  0  0  0  0  0  0
    8.5023   -1.9002    0.0000 H   0  0  0  0  0  0  0  0  0  0  0  0
    5.3905   -1.2163    0.0000 H   0  0  0  0  0  0  0  0  0  0  0  0
    5.7890   -1.9066    0.0000 H   0  0  0  0  0  0  0  0  0  0  0  0
    9.2853   -2.6352    0.0000 H   0  0  0  0  0  0  0  0  0  0  0  0
    5.5335    0.6510    0.0000 H   0  0  0  0  0  0  0  0  0  0  0  0
    4.7365    0.6510    0.0000 H   0  0  0  0  0  0  0  0  0  0  0  0
    6.7372    2.2510    0.0000 H   0  0  0  0  0  0  0  0  0  0  0  0
    7.1771    2.6391    0.0000 H   0  0  0  0  0  0  0  0  0  0  0  0
    7.4040    3.4860    0.0000 H   0  0  0  0  0  0  0  0  0  0  0  0
    6.5571    3.7130    0.0000 H   0  0  0  0  0  0  0  0  0  0  0  0
   12.8277   -3.4816    0.0000 H   0  0  0  0  0  0  0  0  0  0  0  0
   14.2796   -2.5430    0.0000 H   0  0  0  0  0  0  0  0  0  0  0  0
    2.0000   -0.0140    0.0000 H   0  0  0  0  0  0  0  0  0  0  0  0
    2.5369   -0.9440    0.0000 H   0  0  0  0  0  0  0  0  0  0  0  0
   13.8356   -0.8721    0.0000 H   0  0  0  0  0  0  0  0  0  0  0  0
    4.5790    5.2130    0.0000 H   0  0  0  0  0  0  0  0  0  0  0  0
    3.7320    4.9860    0.0000 H   0  0  0  0  0  0  0  0  0  0  0  0
    3.9590    4.1391    0.0000 H   0  0  0  0  0  0  0  0  0  0  0  0
    9.0325   -4.5143    0.0000 H   0  0  0  0  0  0  0  0  0  0  0  0
    9.4694   -5.2746    0.0000 H   0  0  0  0  0  0  0  0  0  0  0  0
   10.2296   -4.8377    0.0000 H   0  0  0  0  0  0  0  0  0  0  0  0
  1 16  1  0  0  0  0
  1 21  1  0  0  0  0
  2 18  2  0  0  0  0
  3 23  1  0  0  0  0
  3 26  1  0  0  0  0
  4 22  1  0  0  0  0
  4 28  1  0  0  0  0
  5 23  2  0  0  0  0
  6 24  2  0  0  0  0
  7 26  1  0  0  0  0
  7 33  1  0  0  0  0
  8 27  1  0  0  0  0
  8 32  1  0  0  0  0
  9 14  1  0  0  0  0
  9 35  1  0  0  0  0
 10 28  2  0  0  0  0
 11 33  2  0  0  0  0
 12 16  1  0  0  0  0
 12 18  1  0  0  0  0
 12 19  1  0  0  0  0
 17 13  1  1  0  0  0
 13 24  1  0  0  0  0
 13 40  1  0  0  0  0
 14 25  2  0  0  0  0
 15 28  1  0  0  0  0
 15 49  1  0  0  0  0
 15 50  1  0  0  0  0
 16 17  1  0  0  0  0
 16 36  1  6  0  0  0
 17 18  1  0  0  0  0
 17 37  1  0  0  0  0
 19 20  2  0  0  0  0
 19 23  1  0  0  0  0
 20 21  1  0  0  0  0
 20 22  1  0  0  0  0
 21 38  1  0  0  0  0
 21 39  1  0  0  0  0
 22 41  1  0  0  0  0
 22 42  1  0  0  0  0
 24 25  1  0  0  0  0
 25 27  1  0  0  0  0
 26 29  1  0  0  0  0
 26 43  1  0  0  0  0
 27 30  2  0  0  0  0
 29 44  1  0  0  0  0
 29 45  1  0  0  0  0
 29 46  1  0  0  0  0
 30 31  1  0  0  0  0
 30 47  1  0  0  0  0
 31 32  2  0  0  0  0
 31 48  1  0  0  0  0
 32 51  1  0  0  0  0
 33 34  1  0  0  0  0
 34 52  1  0  0  0  0
 34 53  1  0  0  0  0
 34 54  1  0  0  0  0
 35 55  1  0  0  0  0
 35 56  1  0  0  0  0
 35 57  1  0  0  0  0
M  END
> <PUBCHEM_COMPOUND_CID>
6321416

> <PUBCHEM_COMPOUND_CANONICALIZED>
1

> <PUBCHEM_CACTVS_COMPLEXITY>
968

> <PUBCHEM_CACTVS_HBOND_ACCEPTOR>
12

> <PUBCHEM_CACTVS_HBOND_DONOR>
2

> <PUBCHEM_CACTVS_ROTATABLE_BOND>
12

> <PUBCHEM_CACTVS_SUBSKEYS>
AAADceB7vABAAAAAAAAAAAAAAABYASAAAAAgAAAAAAAQAAABgAAAHgQUAAAADCz10AeyDIPQBEioA63y2AQCCABkIBAIiIGuCNkeZr6stTu/GSCm9hG8qYeYSAAAAAAAAAAAAAAAAAAAAAAAAAAAAAAAAA==

> <PUBCHEM_IUPAC_OPENEYE_NAME>
1-acetoxyethyl (6R,7R)-3-(carbamoyloxymethyl)-7-[[(2Z)-2-(2-furyl)-2-methoxyimino-acetyl]amino]-8-oxo-5-thia-1-azabicyclo[4.2.0]oct-2-ene-2-carboxylate

> <PUBCHEM_IUPAC_CAS_NAME>
(6R,7R)-3-(carbamoyloxymethyl)-7-[[(2Z)-2-(2-furanyl)-2-methoxyimino-1-oxoethyl]amino]-8-oxo-5-thia-1-azabicyclo[4.2.0]oct-2-ene-2-carboxylic acid 1-acetyloxyethyl ester

> <PUBCHEM_IUPAC_NAME>
1-acetyloxyethyl (6R,7R)-3-(carbamoyloxymethyl)-7-[[(2Z)-2-(furan-2-yl)-2-methoxyiminoacetyl]amino]-8-oxo-5-thia-1-azabicyclo[4.2.0]oct-2-ene-2-carboxylate

> <PUBCHEM_IUPAC_SYSTEMATIC_NAME>
1-acetyloxyethyl (6R,7R)-3-(aminocarbonyloxymethyl)-7-[[(2Z)-2-(furan-2-yl)-2-methoxyimino-ethanoyl]amino]-8-oxidanylidene-5-thia-1-azabicyclo[4.2.0]oct-2-ene-2-carboxylate

> <PUBCHEM_IUPAC_TRADITIONAL_NAME>
(6R,7R)-3-(carbamoyloxymethyl)-7-[[(2Z)-2-(2-furyl)-2-methyloximino-acetyl]amino]-8-keto-5-thia-1-azabicyclo[4.2.0]oct-2-ene-2-carboxylic acid 1-acetoxyethyl ester

> <PUBCHEM_IUPAC_INCHI>
InChI=1S/C20H22N4O10S/c1-9(25)33-10(2)34-19(28)15-11(7-32-20(21)29)8-35-18-14(17(27)24(15)18)22-16(26)13(23-30-3)12-5-4-6-31-12/h4-6,10,14,18H,7-8H2,1-3H3,(H2,21,29)(H,22,26)/b23-13-/t10?,14-,18-/m1/s1

> <PUBCHEM_IUPAC_INCHIKEY>
KEJCWVGMRLCZQQ-YJBYXUATSA-N

> <PUBCHEM_XLOGP3>
0.9

> <PUBCHEM_EXACT_MASS>
510.105664

> <PUBCHEM_MOLECULAR_FORMULA>
C20H22N4O10S

> <PUBCHEM_MOLECULAR_WEIGHT>
510.47448

> <PUBCHEM_OPENEYE_CAN_SMILES>
CC(OC(=O)C)OC(=O)C1=C(CSC2N1C(=O)C2NC(=O)C(=NOC)C3=CC=CO3)COC(=O)N

> <PUBCHEM_OPENEYE_ISO_SMILES>
CC(OC(=O)C)OC(=O)C1=C(CS[C@H]2N1C(=O)[C@H]2NC(=O)/C(=N\OC)/C3=CC=CO3)COC(=O)N

> <PUBCHEM_CACTVS_TPSA>
214

> <PUBCHEM_MONOISOTOPIC_WEIGHT>
510.105664

> <PUBCHEM_TOTAL_CHARGE>
0

> <PUBCHEM_HEAVY_ATOM_COUNT>
35

> <PUBCHEM_ATOM_DEF_STEREO_COUNT>
2

> <PUBCHEM_ATOM_UDEF_STEREO_COUNT>
1

> <PUBCHEM_BOND_DEF_STEREO_COUNT>
1

> <PUBCHEM_BOND_UDEF_STEREO_COUNT>
0

> <PUBCHEM_ISOTOPIC_ATOM_COUNT>
0

> <PUBCHEM_COMPONENT_COUNT>
1

> <PUBCHEM_CACTVS_TAUTO_COUNT>
14

> <PUBCHEM_COORDINATE_TYPE>
1
5
255

> <PUBCHEM_BONDANNOTATIONS>
17  13  5
16  36  6
26  43  3
27  30  8
30  31  8
31  32  8
8  27  8
8  32  8

$$$$

