51090973
  -OEChem-06241223012D

 42 43  0     0  0  0  0  0  0999 V2000
    5.4641    2.2500    0.0000 O   0  0  0  0  0  0  0  0  0  0  0  0
    2.8660   -1.2500    0.0000 O   0  0  0  0  0  0  0  0  0  0  0  0
    7.1962   -2.7500    0.0000 O   0  0  0  0  0  0  0  0  0  0  0  0
    3.7320    0.2500    0.0000 N   0  0  0  0  0  0  0  0  0  0  0  0
    5.4641   -2.7500    0.0000 N   0  0  0  0  0  0  0  0  0  0  0  0
    4.5981   -2.2500    0.0000 N   0  0  0  0  0  0  0  0  0  0  0  0
    2.0000    2.2500    0.0000 N   0  0  0  0  0  0  0  0  0  0  0  0
    5.4641   -0.7500    0.0000 C   0  0  0  0  0  0  0  0  0  0  0  0
    4.5981   -1.2500    0.0000 C   0  0  0  0  0  0  0  0  0  0  0  0
    4.5981    0.7500    0.0000 C   0  0  0  0  0  0  0  0  0  0  0  0
    6.3301   -1.2500    0.0000 C   0  0  0  0  0  0  0  0  0  0  0  0
    2.8660    0.7500    0.0000 C   0  0  0  0  0  0  0  0  0  0  0  0
    3.7320   -0.7500    0.0000 C   0  0  0  0  0  0  0  0  0  0  0  0
    6.3301   -2.2500    0.0000 C   0  0  0  0  0  0  0  0  0  0  0  0
    4.5981    1.7500    0.0000 C   0  0  0  0  0  0  0  0  0  0  0  0
    2.8660    1.7500    0.0000 C   0  0  0  0  0  0  0  0  0  0  0  0
    5.4641   -3.7500    0.0000 C   0  0  0  0  0  0  0  0  0  0  0  0
    3.7320    2.2500    0.0000 C   0  0  0  0  0  0  0  0  0  0  0  0
    3.7320    3.2500    0.0000 C   0  0  0  0  0  0  0  0  0  0  0  0
    2.0000    3.2500    0.0000 C   0  0  0  0  0  0  0  0  0  0  0  0
    2.8660    3.7500    0.0000 C   0  0  0  0  0  0  0  0  0  0  0  0
    5.4641    3.2500    0.0000 C   0  0  0  0  0  0  0  0  0  0  0  0
    5.8626   -0.2751    0.0000 H   0  0  0  0  0  0  0  0  0  0  0  0
    5.0656   -0.2751    0.0000 H   0  0  0  0  0  0  0  0  0  0  0  0
    4.8101    0.1674    0.0000 H   0  0  0  0  0  0  0  0  0  0  0  0
    5.2087    0.8577    0.0000 H   0  0  0  0  0  0  0  0  0  0  0  0
    6.9407   -1.3577    0.0000 H   0  0  0  0  0  0  0  0  0  0  0  0
    6.5422   -0.6674    0.0000 H   0  0  0  0  0  0  0  0  0  0  0  0
    2.2554    0.8577    0.0000 H   0  0  0  0  0  0  0  0  0  0  0  0
    2.6540    0.1674    0.0000 H   0  0  0  0  0  0  0  0  0  0  0  0
    4.3860    2.3326    0.0000 H   0  0  0  0  0  0  0  0  0  0  0  0
    3.9875    1.6423    0.0000 H   0  0  0  0  0  0  0  0  0  0  0  0
    4.8441   -3.7500    0.0000 H   0  0  0  0  0  0  0  0  0  0  0  0
    5.4641   -4.3700    0.0000 H   0  0  0  0  0  0  0  0  0  0  0  0
    6.0841   -3.7500    0.0000 H   0  0  0  0  0  0  0  0  0  0  0  0
    4.2690    1.9400    0.0000 H   0  0  0  0  0  0  0  0  0  0  0  0
    4.2690    3.5600    0.0000 H   0  0  0  0  0  0  0  0  0  0  0  0
    1.4631    3.5600    0.0000 H   0  0  0  0  0  0  0  0  0  0  0  0
    2.8660    4.3700    0.0000 H   0  0  0  0  0  0  0  0  0  0  0  0
    6.0841    3.2500    0.0000 H   0  0  0  0  0  0  0  0  0  0  0  0
    5.4641    3.8700    0.0000 H   0  0  0  0  0  0  0  0  0  0  0  0
    4.8441    3.2500    0.0000 H   0  0  0  0  0  0  0  0  0  0  0  0
  1 15  1  0  0  0  0
  1 22  1  0  0  0  0
  2 13  2  0  0  0  0
  3 14  2  0  0  0  0
  4 10  1  0  0  0  0
  4 12  1  0  0  0  0
  4 13  1  0  0  0  0
  5  6  1  0  0  0  0
  5 14  1  0  0  0  0
  5 17  1  0  0  0  0
  6  9  2  0  0  0  0
  7 16  1  0  0  0  0
  7 20  2  0  0  0  0
  8  9  1  0  0  0  0
  8 11  1  0  0  0  0
  8 23  1  0  0  0  0
  8 24  1  0  0  0  0
  9 13  1  0  0  0  0
 10 15  1  0  0  0  0
 10 25  1  0  0  0  0
 10 26  1  0  0  0  0
 11 14  1  0  0  0  0
 11 27  1  0  0  0  0
 11 28  1  0  0  0  0
 12 16  1  0  0  0  0
 12 29  1  0  0  0  0
 12 30  1  0  0  0  0
 15 31  1  0  0  0  0
 15 32  1  0  0  0  0
 16 18  2  0  0  0  0
 17 33  1  0  0  0  0
 17 34  1  0  0  0  0
 17 35  1  0  0  0  0
 18 19  1  0  0  0  0
 18 36  1  0  0  0  0
 19 21  2  0  0  0  0
 19 37  1  0  0  0  0
 20 21  1  0  0  0  0
 20 38  1  0  0  0  0
 21 39  1  0  0  0  0
 22 40  1  0  0  0  0
 22 41  1  0  0  0  0
 22 42  1  0  0  0  0
M  END
> <PUBCHEM_COMPOUND_CID>
51090973

> <PUBCHEM_COMPOUND_CANONICALIZED>
1

> <PUBCHEM_CACTVS_COMPLEXITY>
439

> <PUBCHEM_CACTVS_HBOND_ACCEPTOR>
5

> <PUBCHEM_CACTVS_HBOND_DONOR>
0

> <PUBCHEM_CACTVS_ROTATABLE_BOND>
6

> <PUBCHEM_CACTVS_SUBSKEYS>
AAADceBzsAAAAAAAAAAAAAAAAAAAAAAAAAAsQAAAAAAAAAABgAAAHgAIAAAACAjhlgY+gJMIFACoATV3VACSgCAxAiAa2CE4ZJgKYPLAkZGVIAhgjgDYyAcYAwAAAAAAAAAAAAAAAAAAAAAAAAAAAAAAAA==

> <PUBCHEM_IUPAC_OPENEYE_NAME>
N-(2-methoxyethyl)-1-methyl-6-oxo-N-(2-pyridylmethyl)-4,5-dihydropyridazine-3-carboxamide

> <PUBCHEM_IUPAC_CAS_NAME>
N-(2-methoxyethyl)-1-methyl-6-oxo-N-(2-pyridinylmethyl)-4,5-dihydropyridazine-3-carboxamide

> <PUBCHEM_IUPAC_NAME>
N-(2-methoxyethyl)-1-methyl-6-oxo-N-(pyridin-2-ylmethyl)-4,5-dihydropyridazine-3-carboxamide

> <PUBCHEM_IUPAC_SYSTEMATIC_NAME>
N-(2-methoxyethyl)-1-methyl-6-oxidanylidene-N-(pyridin-2-ylmethyl)-4,5-dihydropyridazine-3-carboxamide

> <PUBCHEM_IUPAC_TRADITIONAL_NAME>
6-keto-N-(2-methoxyethyl)-1-methyl-N-(2-pyridylmethyl)-4,5-dihydropyridazine-3-carboxamide

> <PUBCHEM_IUPAC_INCHI>
InChI=1S/C15H20N4O3/c1-18-14(20)7-6-13(17-18)15(21)19(9-10-22-2)11-12-5-3-4-8-16-12/h3-5,8H,6-7,9-11H2,1-2H3

> <PUBCHEM_IUPAC_INCHIKEY>
ZQSSIMPXXATIJW-UHFFFAOYSA-N

> <PUBCHEM_XLOGP3_AA>
-0.7

> <PUBCHEM_EXACT_MASS>
304.153541

> <PUBCHEM_MOLECULAR_FORMULA>
C15H20N4O3

> <PUBCHEM_MOLECULAR_WEIGHT>
304.3443

> <PUBCHEM_OPENEYE_CAN_SMILES>
CN1C(=O)CCC(=N1)C(=O)N(CCOC)CC2=CC=CC=N2

> <PUBCHEM_OPENEYE_ISO_SMILES>
CN1C(=O)CCC(=N1)C(=O)N(CCOC)CC2=CC=CC=N2

> <PUBCHEM_CACTVS_TPSA>
75.1

> <PUBCHEM_MONOISOTOPIC_WEIGHT>
304.153541

> <PUBCHEM_TOTAL_CHARGE>
0

> <PUBCHEM_HEAVY_ATOM_COUNT>
22

> <PUBCHEM_ATOM_DEF_STEREO_COUNT>
0

> <PUBCHEM_ATOM_UDEF_STEREO_COUNT>
0

> <PUBCHEM_BOND_DEF_STEREO_COUNT>
0

> <PUBCHEM_BOND_UDEF_STEREO_COUNT>
0

> <PUBCHEM_ISOTOPIC_ATOM_COUNT>
0

> <PUBCHEM_COMPONENT_COUNT>
1

> <PUBCHEM_CACTVS_TAUTO_COUNT>
2

> <PUBCHEM_COORDINATE_TYPE>
1
5
255

> <PUBCHEM_BONDANNOTATIONS>
16  18  8
18  19  8
19  21  8
20  21  8
7  16  8
7  20  8

$$$$

