442917
  -OEChem-07051213002D

 35 37  0     1  0  0  0  0  0999 V2000
    6.4783   -0.8047    0.0000 O   0  0  0  0  0  0  0  0  0  0  0  0
    4.6660    2.0000    0.0000 O   0  0  0  0  0  0  0  0  0  0  0  0
    4.6660   -1.0000    0.0000 N   0  0  0  0  0  0  0  0  0  0  0  0
    7.0619    0.0000    0.0000 C   0  0  0  0  0  0  0  0  0  0  0  0
    6.4783    0.8047    0.0000 C   0  0  3  0  0  0  0  0  0  0  0  0
    5.5321    0.5000    0.0000 C   0  0  0  0  0  0  0  0  0  0  0  0
    5.5321   -0.5000    0.0000 C   0  0  0  0  0  0  0  0  0  0  0  0
    7.8709   -0.5878    0.0000 C   0  0  0  0  0  0  0  0  0  0  0  0
    7.8709    0.5878    0.0000 C   0  0  0  0  0  0  0  0  0  0  0  0
    6.7889    1.7552    0.0000 C   0  0  0  0  0  0  0  0  0  0  0  0
    4.6660    1.0000    0.0000 C   0  0  0  0  0  0  0  0  0  0  0  0
    3.8000   -0.5000    0.0000 C   0  0  0  0  0  0  0  0  0  0  0  0
    3.8000    0.5000    0.0000 C   0  0  0  0  0  0  0  0  0  0  0  0
    4.6660   -2.0000    0.0000 C   0  0  0  0  0  0  0  0  0  0  0  0
    2.9061   -1.0347    0.0000 C   0  0  0  0  0  0  0  0  0  0  0  0
    2.9061    1.0347    0.0000 C   0  0  0  0  0  0  0  0  0  0  0  0
    2.0000   -0.5208    0.0000 C   0  0  0  0  0  0  0  0  0  0  0  0
    2.0000    0.5208    0.0000 C   0  0  0  0  0  0  0  0  0  0  0  0
    7.0908    0.9009    0.0000 H   0  0  0  0  0  0  0  0  0  0  0  0
    7.5065   -1.0894    0.0000 H   0  0  0  0  0  0  0  0  0  0  0  0
    8.3725   -0.9522    0.0000 H   0  0  0  0  0  0  0  0  0  0  0  0
    8.2353   -0.0862    0.0000 H   0  0  0  0  0  0  0  0  0  0  0  0
    8.2353    0.0862    0.0000 H   0  0  0  0  0  0  0  0  0  0  0  0
    8.3725    0.9522    0.0000 H   0  0  0  0  0  0  0  0  0  0  0  0
    7.5065    1.0894    0.0000 H   0  0  0  0  0  0  0  0  0  0  0  0
    7.3783    1.5626    0.0000 H   0  0  0  0  0  0  0  0  0  0  0  0
    6.9816    2.3446    0.0000 H   0  0  0  0  0  0  0  0  0  0  0  0
    6.1996    1.9479    0.0000 H   0  0  0  0  0  0  0  0  0  0  0  0
    4.0460   -2.0000    0.0000 H   0  0  0  0  0  0  0  0  0  0  0  0
    4.6660   -2.6200    0.0000 H   0  0  0  0  0  0  0  0  0  0  0  0
    5.2860   -2.0000    0.0000 H   0  0  0  0  0  0  0  0  0  0  0  0
    2.9132   -1.6546    0.0000 H   0  0  0  0  0  0  0  0  0  0  0  0
    2.9132    1.6546    0.0000 H   0  0  0  0  0  0  0  0  0  0  0  0
    1.4643   -0.8329    0.0000 H   0  0  0  0  0  0  0  0  0  0  0  0
    1.4643    0.8329    0.0000 H   0  0  0  0  0  0  0  0  0  0  0  0
  1  4  1  0  0  0  0
  1  7  1  0  0  0  0
  2 11  2  0  0  0  0
  3  7  1  0  0  0  0
  3 12  1  0  0  0  0
  3 14  1  0  0  0  0
  4  5  1  0  0  0  0
  4  8  1  0  0  0  0
  4  9  1  0  0  0  0
  5  6  1  0  0  0  0
  5 10  1  0  0  0  0
  5 19  1  0  0  0  0
  6  7  2  0  0  0  0
  6 11  1  0  0  0  0
  8 20  1  0  0  0  0
  8 21  1  0  0  0  0
  8 22  1  0  0  0  0
  9 23  1  0  0  0  0
  9 24  1  0  0  0  0
  9 25  1  0  0  0  0
 10 26  1  0  0  0  0
 10 27  1  0  0  0  0
 10 28  1  0  0  0  0
 11 13  1  0  0  0  0
 12 13  1  0  0  0  0
 12 15  2  0  0  0  0
 13 16  2  0  0  0  0
 14 29  1  0  0  0  0
 14 30  1  0  0  0  0
 14 31  1  0  0  0  0
 15 17  1  0  0  0  0
 15 32  1  0  0  0  0
 16 18  1  0  0  0  0
 16 33  1  0  0  0  0
 17 18  2  0  0  0  0
 17 34  1  0  0  0  0
 18 35  1  0  0  0  0
M  END
> <PUBCHEM_COMPOUND_CID>
442917

> <PUBCHEM_COMPOUND_CANONICALIZED>
1

> <PUBCHEM_CACTVS_COMPLEXITY>
424

> <PUBCHEM_CACTVS_HBOND_ACCEPTOR>
3

> <PUBCHEM_CACTVS_HBOND_DONOR>
0

> <PUBCHEM_CACTVS_ROTATABLE_BOND>
0

> <PUBCHEM_CACTVS_SUBSKEYS>
AAADceByMAAAAAAAAAAAAAAAAAAAAQAAAAAwQAAAAAAAAFiBAAAAHgAAAAAADUyBmAQywIMABACIAqRSQACCCAAlIgAIiAEIZMgIIDrAlZGMIYhkwABIyceayPCOgAAAAAACAAAAAAAAAAQAAAAAAAAAAA==

> <PUBCHEM_IUPAC_OPENEYE_NAME>
2,2,3,9-tetramethyl-3H-furo[2,3-b]quinolin-4-one

> <PUBCHEM_IUPAC_CAS_NAME>
2,2,3,9-tetramethyl-3H-furo[2,3-b]quinolin-4-one

> <PUBCHEM_IUPAC_NAME>
2,2,3,9-tetramethyl-3H-furo[2,3-b]quinolin-4-one

> <PUBCHEM_IUPAC_SYSTEMATIC_NAME>
2,2,3,9-tetramethyl-3H-furo[2,3-b]quinolin-4-one

> <PUBCHEM_IUPAC_TRADITIONAL_NAME>
2,2,3,9-tetramethyl-3H-furo[2,3-b]quinolin-4-one

> <PUBCHEM_IUPAC_INCHI>
InChI=1S/C15H17NO2/c1-9-12-13(17)10-7-5-6-8-11(10)16(4)14(12)18-15(9,2)3/h5-9H,1-4H3

> <PUBCHEM_IUPAC_INCHIKEY>
BXTFNWWMVUHWQA-UHFFFAOYSA-N

> <PUBCHEM_XLOGP3_AA>
2.9

> <PUBCHEM_EXACT_MASS>
243.125929

> <PUBCHEM_MOLECULAR_FORMULA>
C15H17NO2

> <PUBCHEM_MOLECULAR_WEIGHT>
243.30098

> <PUBCHEM_OPENEYE_CAN_SMILES>
CC1C2=C(N(C3=CC=CC=C3C2=O)C)OC1(C)C

> <PUBCHEM_OPENEYE_ISO_SMILES>
CC1C2=C(N(C3=CC=CC=C3C2=O)C)OC1(C)C

> <PUBCHEM_CACTVS_TPSA>
29.5

> <PUBCHEM_MONOISOTOPIC_WEIGHT>
243.125929

> <PUBCHEM_TOTAL_CHARGE>
0

> <PUBCHEM_HEAVY_ATOM_COUNT>
18

> <PUBCHEM_ATOM_DEF_STEREO_COUNT>
0

> <PUBCHEM_ATOM_UDEF_STEREO_COUNT>
1

> <PUBCHEM_BOND_DEF_STEREO_COUNT>
0

> <PUBCHEM_BOND_UDEF_STEREO_COUNT>
0

> <PUBCHEM_ISOTOPIC_ATOM_COUNT>
0

> <PUBCHEM_COMPONENT_COUNT>
1

> <PUBCHEM_CACTVS_TAUTO_COUNT>
1

> <PUBCHEM_COORDINATE_TYPE>
1
5
255

> <PUBCHEM_BONDANNOTATIONS>
11  13  8
12  13  8
12  15  8
13  16  8
15  17  8
16  18  8
17  18  8
3  12  8
3  7  8
5  10  3
6  11  8
6  7  8

$$$$

