9862248
  -OEChem-07051213073D

 48 49  0     0  0  0  0  0  0999 V2000
   -5.2814   -1.3575   -1.1994 O   0  0  0  0  0  0  0  0  0  0  0  0
    3.9709    0.4887   -0.3713 O   0  0  0  0  0  0  0  0  0  0  0  0
    6.0409   -2.3828    0.2098 O   0  0  0  0  0  0  0  0  0  0  0  0
    5.8148   -1.0678   -1.6361 O   0  0  0  0  0  0  0  0  0  0  0  0
   -1.3061    2.0794    0.8577 C   0  0  0  0  0  0  0  0  0  0  0  0
    0.1104    1.6527    0.5289 C   0  0  0  0  0  0  0  0  0  0  0  0
   -3.0186   -2.5436    0.0771 C   0  0  0  0  0  0  0  0  0  0  0  0
   -2.3540    1.1672    0.3158 C   0  0  0  0  0  0  0  0  0  0  0  0
   -3.1893   -1.0674   -0.0665 C   0  0  0  0  0  0  0  0  0  0  0  0
   -2.2089   -0.2145    0.4407 C   0  0  0  0  0  0  0  0  0  0  0  0
    0.5933    1.8423   -0.7552 C   0  0  0  0  0  0  0  0  0  0  0  0
    0.8940    1.0815    1.5180 C   0  0  0  0  0  0  0  0  0  0  0  0
   -4.3146   -0.5386   -0.6986 C   0  0  0  0  0  0  0  0  0  0  0  0
   -3.4794    1.6959   -0.3163 C   0  0  0  0  0  0  0  0  0  0  0  0
   -2.9806   -2.9897    1.5505 C   0  0  0  0  0  0  0  0  0  0  0  0
   -1.7716   -3.0653   -0.6604 C   0  0  0  0  0  0  0  0  0  0  0  0
   -4.4597    0.8430   -0.8234 C   0  0  0  0  0  0  0  0  0  0  0  0
    1.8969    1.4494   -1.0590 C   0  0  0  0  0  0  0  0  0  0  0  0
    2.1976    0.6888    1.2142 C   0  0  0  0  0  0  0  0  0  0  0  0
    2.6990    0.8728   -0.0743 C   0  0  0  0  0  0  0  0  0  0  0  0
   -0.2442    2.4573   -1.8283 C   0  0  0  0  0  0  0  0  0  0  0  0
    0.3809    0.8726    2.9050 C   0  0  0  0  0  0  0  0  0  0  0  0
    4.5022   -0.6162    0.3581 C   0  0  0  0  0  0  0  0  0  0  0  0
    5.5075   -1.3480   -0.4871 C   0  0  0  0  0  0  0  0  0  0  0  0
   -1.4529    3.1047    0.4937 H   0  0  0  0  0  0  0  0  0  0  0  0
   -1.4743    2.1786    1.9356 H   0  0  0  0  0  0  0  0  0  0  0  0
   -3.8728   -3.0649   -0.3723 H   0  0  0  0  0  0  0  0  0  0  0  0
   -1.3407   -0.6379    0.9343 H   0  0  0  0  0  0  0  0  0  0  0  0
   -3.6063    2.7703   -0.4204 H   0  0  0  0  0  0  0  0  0  0  0  0
   -2.9502   -4.0826    1.6196 H   0  0  0  0  0  0  0  0  0  0  0  0
   -3.8727   -2.6441    2.0847 H   0  0  0  0  0  0  0  0  0  0  0  0
   -2.1024   -2.5995    2.0761 H   0  0  0  0  0  0  0  0  0  0  0  0
   -0.8441   -2.6773   -0.2256 H   0  0  0  0  0  0  0  0  0  0  0  0
   -1.7944   -2.7745   -1.7165 H   0  0  0  0  0  0  0  0  0  0  0  0
   -1.7278   -4.1589   -0.6140 H   0  0  0  0  0  0  0  0  0  0  0  0
   -5.3313    1.2687   -1.3135 H   0  0  0  0  0  0  0  0  0  0  0  0
    2.2980    1.5863   -2.0604 H   0  0  0  0  0  0  0  0  0  0  0  0
    2.8131    0.2682    2.0045 H   0  0  0  0  0  0  0  0  0  0  0  0
    0.3506    2.6576   -2.7274 H   0  0  0  0  0  0  0  0  0  0  0  0
   -1.0509    1.7832   -2.1296 H   0  0  0  0  0  0  0  0  0  0  0  0
   -0.6556    3.4222   -1.5180 H   0  0  0  0  0  0  0  0  0  0  0  0
    0.2171    1.8343    3.4024 H   0  0  0  0  0  0  0  0  0  0  0  0
   -0.5436    0.2889    2.9155 H   0  0  0  0  0  0  0  0  0  0  0  0
    1.1005    0.3176    3.5180 H   0  0  0  0  0  0  0  0  0  0  0  0
   -5.9815   -0.8141   -1.5999 H   0  0  0  0  0  0  0  0  0  0  0  0
    5.0057   -0.2421    1.2557 H   0  0  0  0  0  0  0  0  0  0  0  0
    3.7224   -1.3456    0.6104 H   0  0  0  0  0  0  0  0  0  0  0  0
    6.7019   -2.8784   -0.3194 H   0  0  0  0  0  0  0  0  0  0  0  0
  1 13  1  0  0  0  0
  1 45  1  0  0  0  0
  2 20  1  0  0  0  0
  2 23  1  0  0  0  0
  3 24  1  0  0  0  0
  3 48  1  0  0  0  0
  4 24  2  0  0  0  0
  5  6  1  0  0  0  0
  5  8  1  0  0  0  0
  5 25  1  0  0  0  0
  5 26  1  0  0  0  0
  6 11  2  0  0  0  0
  6 12  1  0  0  0  0
  7  9  1  0  0  0  0
  7 15  1  0  0  0  0
  7 16  1  0  0  0  0
  7 27  1  0  0  0  0
  8 10  2  0  0  0  0
  8 14  1  0  0  0  0
  9 10  1  0  0  0  0
  9 13  2  0  0  0  0
 10 28  1  0  0  0  0
 11 18  1  0  0  0  0
 11 21  1  0  0  0  0
 12 19  2  0  0  0  0
 12 22  1  0  0  0  0
 13 17  1  0  0  0  0
 14 17  2  0  0  0  0
 14 29  1  0  0  0  0
 15 30  1  0  0  0  0
 15 31  1  0  0  0  0
 15 32  1  0  0  0  0
 16 33  1  0  0  0  0
 16 34  1  0  0  0  0
 16 35  1  0  0  0  0
 17 36  1  0  0  0  0
 18 20  2  0  0  0  0
 18 37  1  0  0  0  0
 19 20  1  0  0  0  0
 19 38  1  0  0  0  0
 21 39  1  0  0  0  0
 21 40  1  0  0  0  0
 21 41  1  0  0  0  0
 22 42  1  0  0  0  0
 22 43  1  0  0  0  0
 22 44  1  0  0  0  0
 23 24  1  0  0  0  0
 23 46  1  0  0  0  0
 23 47  1  0  0  0  0
M  END
> <PUBCHEM_COMPOUND_CID>
9862248

> <PUBCHEM_CONFORMER_RMSD>
0.8

> <PUBCHEM_CONFORMER_DIVERSEORDER>
1
30
9
14
19
32
15
39
44
46
38
28
49
13
3
35
16
45
36
27
6
40
5
43
34
10
51
4
37
12
41
8
47
50
11
21
24
17
23
22
2
42
33
7
48
29
20
18
26
25
31

> <PUBCHEM_MMFF94_PARTIAL_CHARGES>
29
1 -0.53
10 -0.15
11 -0.14
12 -0.14
13 0.08
14 -0.15
17 -0.15
18 -0.15
19 -0.15
2 -0.36
20 0.08
21 0.14
22 0.14
23 0.34
24 0.66
28 0.15
29 0.15
3 -0.65
36 0.15
37 0.15
38 0.15
4 -0.57
45 0.45
48 0.5
5 0.29
6 -0.14
7 0.14
8 -0.14
9 -0.14

> <PUBCHEM_EFFECTIVE_ROTOR_COUNT>
6

> <PUBCHEM_PHARMACOPHORE_FEATURES>
8
1 1 donor
1 2 acceptor
1 3 acceptor
1 4 acceptor
3 3 4 24 anion
3 7 15 16 hydrophobe
6 6 11 12 18 19 20 rings
6 8 9 10 13 14 17 rings

> <PUBCHEM_HEAVY_ATOM_COUNT>
24

> <PUBCHEM_ATOM_DEF_STEREO_COUNT>
0

> <PUBCHEM_ATOM_UDEF_STEREO_COUNT>
0

> <PUBCHEM_BOND_DEF_STEREO_COUNT>
0

> <PUBCHEM_BOND_UDEF_STEREO_COUNT>
0

> <PUBCHEM_ISOTOPIC_ATOM_COUNT>
0

> <PUBCHEM_COMPONENT_COUNT>
1

> <PUBCHEM_CACTVS_TAUTO_COUNT>
3

> <PUBCHEM_CONFORMER_ID>
00967C6800000001

> <PUBCHEM_MMFF94_ENERGY>
71.2765

> <PUBCHEM_FEATURE_SELFOVERLAP>
40.657

> <PUBCHEM_SHAPE_FINGERPRINT>
10369192 42 13398333720509860002
107951 10 17774717666888685795
11796584 16 18115310102084428436
12363563 72 17313381184813131721
12555020 224 18411709789891234231
12596602 18 4967598456773155614
12633257 1 16299220212041678495
12969540 114 14692564395552872308
13402501 40 18260548952189043791
13544653 18 17967529052163383296
14251740 79 18336543910313892171
14251757 5 18131635620452435327
14341114 328 8646767802716058110
14848178 5 18260548948431892990
14910302 57 18339655511447011952
15163728 17 11815617544680217288
15209294 21 7348886663897808320
15510800 12 18113887295663618774
16752209 62 18269296598924125321
17492 89 18055349145923293627
17909252 39 17767952148024392232
20465049 17 17703794678656179467
20775530 9 18337671893317465426
21781051 124 18200879462316920235
23379529 103 18055341449215390139
23559900 14 18335148565766181880
25122255 55 17822562924008564398
2838139 119 12103844523686929694
3117164 225 7131062359632256228
392239 28 7059793235521521653
4280585 95 18202570583718420316
44062 13 18341892965795784343
463206 1 18201153368991244698
559249 180 18339364174861158983
5718773 13 17749684995459417959
633830 44 16630242524295650012
9709674 26 18191878829423167873

> <PUBCHEM_SHAPE_MULTIPOLES>
470.43
11.23
3.29
1.74
12.48
2.06
-0.86
8.6
4.24
-1.46
0.27
0.33
-0.44
0.66

> <PUBCHEM_SHAPE_SELFOVERLAP>
995.895

> <PUBCHEM_SHAPE_VOLUME>
265.6

> <PUBCHEM_COORDINATE_TYPE>
2
5
10

$$$$

