12624
  -OEChem-06261207103D

 12 11  0     0  0  0  0  0  0999 V2000
    2.1153    1.2590    0.0263 Cl  0  0  0  0  0  0  0  0  0  0  0  0
    1.3534   -1.1064   -1.4798 Cl  0  0  0  0  0  0  0  0  0  0  0  0
    1.3638   -1.1843    1.4250 Cl  0  0  0  0  0  0  0  0  0  0  0  0
   -0.6913    1.0787   -1.0731 F   0  0  0  0  0  0  0  0  0  0  0  0
   -0.6936    1.0431    1.1121 F   0  0  0  0  0  0  0  0  0  0  0  0
   -1.3331   -0.8130   -0.0121 O   0  0  0  0  0  0  0  0  0  0  0  0
   -0.4380    0.2957    0.0073 C   0  0  0  0  0  0  0  0  0  0  0  0
    1.0206   -0.1562    0.0014 C   0  0  0  0  0  0  0  0  0  0  0  0
   -2.6971   -0.4167   -0.0070 C   0  0  0  0  0  0  0  0  0  0  0  0
   -2.9315    0.1492    0.8993 H   0  0  0  0  0  0  0  0  0  0  0  0
   -3.3159   -1.3179   -0.0227 H   0  0  0  0  0  0  0  0  0  0  0  0
   -2.9295    0.1790   -0.8947 H   0  0  0  0  0  0  0  0  0  0  0  0
  1  8  1  0  0  0  0
  2  8  1  0  0  0  0
  3  8  1  0  0  0  0
  4  7  1  0  0  0  0
  5  7  1  0  0  0  0
  6  7  1  0  0  0  0
  6  9  1  0  0  0  0
  7  8  1  0  0  0  0
  9 10  1  0  0  0  0
  9 11  1  0  0  0  0
  9 12  1  0  0  0  0
M  END
> <PUBCHEM_COMPOUND_CID>
12624

> <PUBCHEM_CONFORMER_RMSD>
0.4

> <PUBCHEM_CONFORMER_DIVERSEORDER>
1

> <PUBCHEM_MMFF94_PARTIAL_CHARGES>
9
1 -0.29
2 -0.29
3 -0.29
4 -0.34
5 -0.34
6 -0.56
7 0.96
8 0.87
9 0.28

> <PUBCHEM_EFFECTIVE_ROTOR_COUNT>
2

> <PUBCHEM_PHARMACOPHORE_FEATURES>
1
1 6 acceptor

> <PUBCHEM_HEAVY_ATOM_COUNT>
9

> <PUBCHEM_ATOM_DEF_STEREO_COUNT>
0

> <PUBCHEM_ATOM_UDEF_STEREO_COUNT>
0

> <PUBCHEM_BOND_DEF_STEREO_COUNT>
0

> <PUBCHEM_BOND_UDEF_STEREO_COUNT>
0

> <PUBCHEM_ISOTOPIC_ATOM_COUNT>
0

> <PUBCHEM_COMPONENT_COUNT>
1

> <PUBCHEM_CACTVS_TAUTO_COUNT>
1

> <PUBCHEM_CONFORMER_ID>
0000315000000001

> <PUBCHEM_MMFF94_ENERGY>
9.2198

> <PUBCHEM_FEATURE_SELFOVERLAP>
5.074

> <PUBCHEM_SHAPE_FINGERPRINT>
137420 1 14378927951873179850
20711978 78 16588590936264754350
21040471 1 17346026758524921778
23552333 60 18413110562856100579
23552423 10 18042107903441071823
23552449 11 18412552023792062859
24536 1 17968947533626440544
29004967 10 17822287951074100187
5084963 1 18341894044117204348
5943 1 16046726532599841550

> <PUBCHEM_SHAPE_MULTIPOLES>
170.41
2.9
1.41
1.34
1.53
0.07
0.05
-0.04
-0.01
-0.59
-0.04
-0.56
-0.42
0

> <PUBCHEM_SHAPE_SELFOVERLAP>
299.184

> <PUBCHEM_SHAPE_VOLUME>
113.8

> <PUBCHEM_COORDINATE_TYPE>
2
5
10

$$$$

