442503
  -OEChem-07051212583D

 26 27  0     1  0  0  0  0  0999 V2000
   -2.2143    1.6479    0.1552 O   0  0  0  0  0  0  0  0  0  0  0  0
    2.7840    2.0849    0.6180 O   0  0  0  0  0  0  0  0  0  0  0  0
    2.4734   -0.1756    0.3816 N   0  0  0  0  0  0  0  0  0  0  0  0
   -1.9991   -1.9702    0.4566 N   0  0  0  0  0  0  0  0  0  0  0  0
    1.6992   -1.3138   -0.1049 C   0  0  1  0  0  0  0  0  0  0  0  0
    0.2279   -1.0893    0.0987 C   0  0  0  0  0  0  0  0  0  0  0  0
   -0.2831    0.2122    0.0619 C   0  0  0  0  0  0  0  0  0  0  0  0
    0.6483    1.3643   -0.1957 C   0  0  0  0  0  0  0  0  0  0  0  0
    2.0576    1.1384    0.3138 C   0  0  0  0  0  0  0  0  0  0  0  0
    2.0222   -1.5953   -1.5709 C   0  0  0  0  0  0  0  0  0  0  0  0
   -1.6555    0.4116    0.2084 C   0  0  0  0  0  0  0  0  0  0  0  0
   -0.6670   -2.1341    0.2964 C   0  0  0  0  0  0  0  0  0  0  0  0
   -2.4589   -0.7004    0.4066 C   0  0  0  0  0  0  0  0  0  0  0  0
   -2.6347    2.1194   -1.1257 C   0  0  0  0  0  0  0  0  0  0  0  0
    2.0219   -2.1666    0.5046 H   0  0  0  0  0  0  0  0  0  0  0  0
    0.7024    1.5571   -1.2730 H   0  0  0  0  0  0  0  0  0  0  0  0
    0.2754    2.2668    0.3026 H   0  0  0  0  0  0  0  0  0  0  0  0
    3.4167   -0.3546    0.7125 H   0  0  0  0  0  0  0  0  0  0  0  0
    3.0958   -1.7697   -1.7026 H   0  0  0  0  0  0  0  0  0  0  0  0
    1.4887   -2.4817   -1.9311 H   0  0  0  0  0  0  0  0  0  0  0  0
    1.7454   -0.7540   -2.2166 H   0  0  0  0  0  0  0  0  0  0  0  0
   -0.3285   -3.1650    0.3289 H   0  0  0  0  0  0  0  0  0  0  0  0
   -3.5328   -0.6004    0.5309 H   0  0  0  0  0  0  0  0  0  0  0  0
   -1.7917    2.1548   -1.8225 H   0  0  0  0  0  0  0  0  0  0  0  0
   -3.0309    3.1313   -1.0041 H   0  0  0  0  0  0  0  0  0  0  0  0
   -3.4266    1.4787   -1.5263 H   0  0  0  0  0  0  0  0  0  0  0  0
  1 11  1  0  0  0  0
  1 14  1  0  0  0  0
  2  9  2  0  0  0  0
  3  5  1  0  0  0  0
  3  9  1  0  0  0  0
  3 18  1  0  0  0  0
  4 12  1  0  0  0  0
  4 13  2  0  0  0  0
  5  6  1  0  0  0  0
  5 10  1  0  0  0  0
  5 15  1  0  0  0  0
  6  7  1  0  0  0  0
  6 12  2  0  0  0  0
  7  8  1  0  0  0  0
  7 11  2  0  0  0  0
  8  9  1  0  0  0  0
  8 16  1  0  0  0  0
  8 17  1  0  0  0  0
 10 19  1  0  0  0  0
 10 20  1  0  0  0  0
 10 21  1  0  0  0  0
 11 13  1  0  0  0  0
 12 22  1  0  0  0  0
 13 23  1  0  0  0  0
 14 24  1  0  0  0  0
 14 25  1  0  0  0  0
 14 26  1  0  0  0  0
M  END
> <PUBCHEM_COMPOUND_CID>
442503

> <PUBCHEM_CONFORMER_RMSD>
0.6

> <PUBCHEM_CONFORMER_DIVERSEORDER>
1
2

> <PUBCHEM_MMFF94_PARTIAL_CHARGES>
16
1 -0.36
11 0.08
12 0.16
13 0.16
14 0.28
18 0.37
2 -0.57
22 0.15
23 0.15
3 -0.73
4 -0.62
5 0.44
6 -0.14
7 -0.14
8 0.2
9 0.57

> <PUBCHEM_EFFECTIVE_ROTOR_COUNT>
1.6

> <PUBCHEM_PHARMACOPHORE_FEATURES>
6
1 1 acceptor
1 2 acceptor
1 3 donor
1 4 acceptor
6 3 5 6 7 8 9 rings
6 4 6 7 11 12 13 rings

> <PUBCHEM_HEAVY_ATOM_COUNT>
14

> <PUBCHEM_ATOM_DEF_STEREO_COUNT>
0

> <PUBCHEM_ATOM_UDEF_STEREO_COUNT>
1

> <PUBCHEM_BOND_DEF_STEREO_COUNT>
0

> <PUBCHEM_BOND_UDEF_STEREO_COUNT>
0

> <PUBCHEM_ISOTOPIC_ATOM_COUNT>
0

> <PUBCHEM_COMPONENT_COUNT>
1

> <PUBCHEM_CACTVS_TAUTO_COUNT>
2

> <PUBCHEM_CONFORMER_ID>
0006C08700000001

> <PUBCHEM_MMFF94_ENERGY>
47.0975

> <PUBCHEM_FEATURE_SELFOVERLAP>
30.47

> <PUBCHEM_SHAPE_FINGERPRINT>
10608611 8 18410295795930528880
11132069 177 18046626698604525048
11206711 2 18341886450625600887
12382932 28 18122336883281628771
12524768 44 18265320721089897563
13380535 21 18336808836697273392
13380535 76 18336840731192946232
14614273 12 18264489481672155289
14648413 74 18335415802951984728
15219456 202 18334006190448550838
15279308 100 18269552917296214565
15490181 7 18342176725868962083
161256 15 18265314162585035855
16945 1 18197500610478916458
17775402 16 17548413065022597973
17990270 104 18334009519048419654
18186145 218 18120098544259725037
18380122 1 18264481780685017299
193761 8 18411138030348114682
19973954 147 18409162207952825834
20511035 2 18263381251698397442
20588541 1 18120366562792355779
20871998 184 17975129846864688375
21501502 16 18409729538836290010
21947302 44 18263938776596719756
2334 1 18411698781367918681
23402539 116 17976834094531381407
23559900 14 18120362423283360942
25 1 17765433536526683661
2748010 2 18411695512945168765
3060560 45 17906751532719657725
4369600 1 17687183501184789423
53812653 166 18268145555313166451
7364860 26 18114450194002929126
81228 2 18200018556995315315

> <PUBCHEM_SHAPE_MULTIPOLES>
266.41
4.05
2.62
0.96
0.34
0.13
0.37
1.39
0.32
0.23
0.05
-0.19
-0.05
1.27

> <PUBCHEM_SHAPE_SELFOVERLAP>
566.456

> <PUBCHEM_SHAPE_VOLUME>
147.3

> <PUBCHEM_COORDINATE_TYPE>
2
5
10

$$$$

