52931413
  -OEChem-07051213153D

 81 85  0     1  0  0  0  0  0999 V2000
    8.5439    0.4466   -0.3271 O   0  0  0  0  0  0  0  0  0  0  0  0
   -0.1147   -0.6622    0.1360 C   0  0  2  0  0  0  0  0  0  0  0  0
   -1.5185   -0.4019   -0.4628 C   0  0  1  0  0  0  0  0  0  0  0  0
   -3.9566   -0.9591   -0.6834 C   0  0  1  0  0  0  0  0  0  0  0  0
    0.5618    0.6737   -0.2308 C   0  0  2  0  0  0  0  0  0  0  0  0
   -5.0540   -0.3693    0.1533 C   0  0  2  0  0  0  0  0  0  0  0  0
   -2.6238   -1.3630   -0.0494 C   0  0  1  0  0  0  0  0  0  0  0  0
   -5.1828   -1.7676   -0.3759 C   0  0  0  0  0  0  0  0  0  0  0  0
    2.0019    0.7838    0.2797 C   0  0  1  0  0  0  0  0  0  0  0  0
    2.8481   -0.3900   -0.2942 C   0  0  2  0  0  0  0  0  0  0  0  0
   -1.8180    1.0641   -0.0705 C   0  0  0  0  0  0  0  0  0  0  0  0
   -0.4545    1.7255    0.2033 C   0  0  0  0  0  0  0  0  0  0  0  0
    0.6784   -1.7840   -0.5488 C   0  0  0  0  0  0  0  0  0  0  0  0
    2.1563   -1.7703   -0.1215 C   0  0  0  0  0  0  0  0  0  0  0  0
    4.3371   -0.3430    0.2361 C   0  0  2  0  0  0  0  0  0  0  0  0
   -5.9016    0.6875   -0.4654 C   0  0  1  0  0  0  0  0  0  0  0  0
   -0.1981   -0.9294    1.6594 C   0  0  0  0  0  0  0  0  0  0  0  0
    2.6213    2.1295   -0.1261 C   0  0  0  0  0  0  0  0  0  0  0  0
   -4.8414   -0.2004    1.6182 C   0  0  0  0  0  0  0  0  0  0  0  0
   -2.2713   -2.7830   -0.4138 C   0  0  0  0  0  0  0  0  0  0  0  0
    4.8911    1.0877    0.1812 C   0  0  0  0  0  0  0  0  0  0  0  0
    5.2077   -1.2620   -0.6722 C   0  0  0  0  0  0  0  0  0  0  0  0
   -7.3124    0.9019    0.1919 C   0  0  0  0  0  0  0  0  0  0  0  0
    4.1101    2.1675    0.0054 C   0  0  0  0  0  0  0  0  0  0  0  0
    4.4290   -0.8351    1.7005 C   0  0  0  0  0  0  0  0  0  0  0  0
   -5.1613    2.0457   -0.5048 C   0  0  0  0  0  0  0  0  0  0  0  0
    6.3860    1.2544    0.3270 C   0  0  0  0  0  0  0  0  0  0  0  0
    6.7138   -1.1143   -0.4594 C   0  0  0  0  0  0  0  0  0  0  0  0
    7.1544    0.3373   -0.6191 C   0  0  2  0  0  0  0  0  0  0  0  0
   -8.1269    2.0150   -0.4740 C   0  0  0  0  0  0  0  0  0  0  0  0
   -8.1051   -0.3855    0.2073 C   0  0  0  0  0  0  0  0  0  0  0  0
   -1.4371   -0.4271   -1.5609 H   0  0  0  0  0  0  0  0  0  0  0  0
   -3.8468   -0.6486   -1.7171 H   0  0  0  0  0  0  0  0  0  0  0  0
    0.6148    0.7400   -1.3309 H   0  0  0  0  0  0  0  0  0  0  0  0
   -2.7120   -1.3446    1.0370 H   0  0  0  0  0  0  0  0  0  0  0  0
   -5.8647   -1.9638   -1.1957 H   0  0  0  0  0  0  0  0  0  0  0  0
   -5.1284   -2.5830    0.3358 H   0  0  0  0  0  0  0  0  0  0  0  0
    2.0036    0.7360    1.3744 H   0  0  0  0  0  0  0  0  0  0  0  0
    2.8917   -0.2225   -1.3829 H   0  0  0  0  0  0  0  0  0  0  0  0
   -2.2864    1.5771   -0.9115 H   0  0  0  0  0  0  0  0  0  0  0  0
   -2.4496    1.1641    0.8116 H   0  0  0  0  0  0  0  0  0  0  0  0
   -0.3532    1.9622    1.2684 H   0  0  0  0  0  0  0  0  0  0  0  0
   -0.3434    2.6608   -0.3549 H   0  0  0  0  0  0  0  0  0  0  0  0
    0.2968   -2.7786   -0.3175 H   0  0  0  0  0  0  0  0  0  0  0  0
    0.6270   -1.6741   -1.6396 H   0  0  0  0  0  0  0  0  0  0  0  0
    2.6866   -2.5248   -0.7135 H   0  0  0  0  0  0  0  0  0  0  0  0
    2.2149   -2.1015    0.9194 H   0  0  0  0  0  0  0  0  0  0  0  0
   -6.0888    0.4219   -1.5168 H   0  0  0  0  0  0  0  0  0  0  0  0
   -0.8345   -0.2035    2.1759 H   0  0  0  0  0  0  0  0  0  0  0  0
    0.7798   -0.8874    2.1467 H   0  0  0  0  0  0  0  0  0  0  0  0
   -0.6022   -1.9239    1.8722 H   0  0  0  0  0  0  0  0  0  0  0  0
    2.1929    2.9231    0.4980 H   0  0  0  0  0  0  0  0  0  0  0  0
    2.3693    2.3736   -1.1656 H   0  0  0  0  0  0  0  0  0  0  0  0
   -4.2248    0.6686    1.8556 H   0  0  0  0  0  0  0  0  0  0  0  0
   -4.3894   -1.0771    2.0935 H   0  0  0  0  0  0  0  0  0  0  0  0
   -5.7873   -0.0774    2.1536 H   0  0  0  0  0  0  0  0  0  0  0  0
   -1.8653   -2.8583   -1.4285 H   0  0  0  0  0  0  0  0  0  0  0  0
   -3.1443   -3.4436   -0.3870 H   0  0  0  0  0  0  0  0  0  0  0  0
   -1.5694   -3.2272    0.2943 H   0  0  0  0  0  0  0  0  0  0  0  0
    4.9422   -2.3144   -0.5168 H   0  0  0  0  0  0  0  0  0  0  0  0
    4.9950   -1.0426   -1.7275 H   0  0  0  0  0  0  0  0  0  0  0  0
   -7.1777    1.2176    1.2336 H   0  0  0  0  0  0  0  0  0  0  0  0
    4.5634    3.1546   -0.0463 H   0  0  0  0  0  0  0  0  0  0  0  0
    4.1909   -1.9003    1.7851 H   0  0  0  0  0  0  0  0  0  0  0  0
    3.7478   -0.2850    2.3578 H   0  0  0  0  0  0  0  0  0  0  0  0
    5.4345   -0.7158    2.1178 H   0  0  0  0  0  0  0  0  0  0  0  0
   -5.7329    2.8135   -1.0326 H   0  0  0  0  0  0  0  0  0  0  0  0
   -4.2374    1.9481   -1.0711 H   0  0  0  0  0  0  0  0  0  0  0  0
   -4.9262    2.4187    0.4961 H   0  0  0  0  0  0  0  0  0  0  0  0
    6.6798    1.0529    1.3650 H   0  0  0  0  0  0  0  0  0  0  0  0
    6.6974    2.2910    0.1434 H   0  0  0  0  0  0  0  0  0  0  0  0
    7.0042   -1.4915    0.5289 H   0  0  0  0  0  0  0  0  0  0  0  0
    7.2519   -1.7432   -1.1794 H   0  0  0  0  0  0  0  0  0  0  0  0
    7.0038    0.6638   -1.6555 H   0  0  0  0  0  0  0  0  0  0  0  0
   -7.6271   -1.1561    0.8189 H   0  0  0  0  0  0  0  0  0  0  0  0
   -9.1025   -0.2266    0.6326 H   0  0  0  0  0  0  0  0  0  0  0  0
   -8.2386   -0.7846   -0.8041 H   0  0  0  0  0  0  0  0  0  0  0  0
   -7.7114    3.0048   -0.2637 H   0  0  0  0  0  0  0  0  0  0  0  0
   -9.1549    2.0263   -0.0944 H   0  0  0  0  0  0  0  0  0  0  0  0
   -8.1735    1.8774   -1.5594 H   0  0  0  0  0  0  0  0  0  0  0  0
    9.0190   -0.1399   -0.9401 H   0  0  0  0  0  0  0  0  0  0  0  0
  1 29  1  0  0  0  0
  1 81  1  0  0  0  0
  2  3  1  0  0  0  0
  2  5  1  0  0  0  0
  2 13  1  0  0  0  0
  2 17  1  0  0  0  0
  3  7  1  0  0  0  0
  3 11  1  0  0  0  0
  3 32  1  0  0  0  0
  4  6  1  0  0  0  0
  4  7  1  0  0  0  0
  4  8  1  0  0  0  0
  4 33  1  0  0  0  0
  5  9  1  0  0  0  0
  5 12  1  0  0  0  0
  5 34  1  0  0  0  0
  6  8  1  0  0  0  0
  6 16  1  0  0  0  0
  6 19  1  0  0  0  0
  7 20  1  0  0  0  0
  7 35  1  0  0  0  0
  8 36  1  0  0  0  0
  8 37  1  0  0  0  0
  9 10  1  0  0  0  0
  9 18  1  0  0  0  0
  9 38  1  0  0  0  0
 10 14  1  0  0  0  0
 10 15  1  0  0  0  0
 10 39  1  0  0  0  0
 11 12  1  0  0  0  0
 11 40  1  0  0  0  0
 11 41  1  0  0  0  0
 12 42  1  0  0  0  0
 12 43  1  0  0  0  0
 13 14  1  0  0  0  0
 13 44  1  0  0  0  0
 13 45  1  0  0  0  0
 14 46  1  0  0  0  0
 14 47  1  0  0  0  0
 15 21  1  0  0  0  0
 15 22  1  0  0  0  0
 15 25  1  0  0  0  0
 16 23  1  0  0  0  0
 16 26  1  0  0  0  0
 16 48  1  0  0  0  0
 17 49  1  0  0  0  0
 17 50  1  0  0  0  0
 17 51  1  0  0  0  0
 18 24  1  0  0  0  0
 18 52  1  0  0  0  0
 18 53  1  0  0  0  0
 19 54  1  0  0  0  0
 19 55  1  0  0  0  0
 19 56  1  0  0  0  0
 20 57  1  0  0  0  0
 20 58  1  0  0  0  0
 20 59  1  0  0  0  0
 21 24  2  0  0  0  0
 21 27  1  0  0  0  0
 22 28  1  0  0  0  0
 22 60  1  0  0  0  0
 22 61  1  0  0  0  0
 23 30  1  0  0  0  0
 23 31  1  0  0  0  0
 23 62  1  0  0  0  0
 24 63  1  0  0  0  0
 25 64  1  0  0  0  0
 25 65  1  0  0  0  0
 25 66  1  0  0  0  0
 26 67  1  0  0  0  0
 26 68  1  0  0  0  0
 26 69  1  0  0  0  0
 27 29  1  0  0  0  0
 27 70  1  0  0  0  0
 27 71  1  0  0  0  0
 28 29  1  0  0  0  0
 28 72  1  0  0  0  0
 28 73  1  0  0  0  0
 29 74  1  0  0  0  0
 30 78  1  0  0  0  0
 30 79  1  0  0  0  0
 30 80  1  0  0  0  0
 31 75  1  0  0  0  0
 31 76  1  0  0  0  0
 31 77  1  0  0  0  0
M  END
> <PUBCHEM_COMPOUND_CID>
52931413

> <PUBCHEM_CONFORMER_RMSD>
0.8

> <PUBCHEM_CONFORMER_DIVERSEORDER>
1
8
2
7
5
4
9
3
6

> <PUBCHEM_MMFF94_PARTIAL_CHARGES>
18
1 -0.68
15 0.14
16 0.09
18 0.14
19 0.09
21 -0.28
24 -0.29
27 0.14
29 0.28
33 0.1
36 0.1
37 0.1
4 -0.19
6 -0.19
63 0.15
7 0.09
8 -0.2
81 0.4

> <PUBCHEM_EFFECTIVE_ROTOR_COUNT>
6.6

> <PUBCHEM_PHARMACOPHORE_FEATURES>
9
1 1 acceptor
1 1 donor
1 20 hydrophobe
1 26 hydrophobe
3 23 30 31 hydrophobe
5 2 3 5 11 12 rings
6 15 21 22 27 28 29 rings
6 2 5 9 10 13 14 rings
6 9 10 15 18 21 24 rings

> <PUBCHEM_HEAVY_ATOM_COUNT>
31

> <PUBCHEM_ATOM_DEF_STEREO_COUNT>
11

> <PUBCHEM_ATOM_UDEF_STEREO_COUNT>
0

> <PUBCHEM_BOND_DEF_STEREO_COUNT>
0

> <PUBCHEM_BOND_UDEF_STEREO_COUNT>
0

> <PUBCHEM_ISOTOPIC_ATOM_COUNT>
0

> <PUBCHEM_COMPONENT_COUNT>
1

> <PUBCHEM_CACTVS_TAUTO_COUNT>
1

> <PUBCHEM_CONFORMER_ID>
0327AB5500000001

> <PUBCHEM_MMFF94_ENERGY>
105.0354

> <PUBCHEM_FEATURE_SELFOVERLAP>
45.766

> <PUBCHEM_SHAPE_FINGERPRINT>
10 15 18273213110797280115
10050765 1 18121501249980616326
100830 39 18410574020282108877
10299344 5 18201721747276574655
10580692 12 18408885122475013037
106641 1 12751235892142403126
10674148 151 18201722839005623752
10906281 52 18342443834111424218
11315181 36 17603301536486041771
11578080 2 17170135650073060008
11719270 70 18114183055184356983
12236239 1 17749105556983881206
12788726 201 18335139829723054800
12838862 33 18336562571835984100
13073987 5 10447940467912052734
13533116 47 16081360900067610278
13811026 1 18409448068085916339
14117953 113 18333447664100487516
14251764 18 18342461435256499447
14251764 46 17530964683690254412
14394314 77 18188765180520063393
14790565 3 18338233743652945406
14856354 85 15719396123069126589
14933364 13 18412825785308125301
15142383 8 18201441393275960732
15183329 4 18334858328992169147
15361156 5 18129373813729025310
15439362 3 17699559244424856204
15461852 350 16443069379066118869
1577012 14 18412553106266597011
15840311 113 18342174436772881893
15849732 13 18343300366812696965
16087824 20 18410009970057469612
18335252 114 18260555536405459445
18608769 82 18413390942632293228
18681886 176 18261117331465975530
19611394 137 17986941965946040931
20511986 3 17968388870013834179
21033648 29 18041859311377298122
21267235 1 18410006602844800782
21792934 111 18261966228010879320
23522609 53 18192401161866278200
23559900 14 18335707087998015840
24771293 8 18191884331609051224
249057 3 18333731299340233060
255183 451 17898564548066244006
3004659 81 18412829071037351408
335352 9 18408886217644058269
350125 39 18410576188902554580
3633792 109 18041555953373460779
4017518 198 16950276300535949326
4073 2 18059009475834704074
4093350 32 16950277459855014199
4325135 7 18407759239705874173
4340502 62 16917068884439081507
5104073 3 18340493248822914443
5758199 1 17561363993643455563
6009941 240 17846775205249859105
6086070 43 17168151091819909283
6328613 192 18334575733330005905
7226269 152 18187081767596849929

> <PUBCHEM_SHAPE_MULTIPOLES>
632.1
22.62
2.32
1
6.45
0.05
-0.39
6.25
1.85
0.89
0.32
-0.01
-0.21
0.35

> <PUBCHEM_SHAPE_SELFOVERLAP>
1329.23

> <PUBCHEM_SHAPE_VOLUME>
357.2

> <PUBCHEM_COORDINATE_TYPE>
2
5
10

$$$$

