66095
  -OEChem-07051212493D

 29 29  0     0  0  0  0  0  0999 V2000
   -0.6343   -2.1852   -0.0063 O   0  0  0  0  0  0  0  0  0  0  0  0
    2.1266   -2.3743   -0.0087 O   0  0  0  0  0  0  0  0  0  0  0  0
   -1.9685    0.3277   -0.0007 C   0  0  0  0  0  0  0  0  0  0  0  0
   -0.4364    0.1969   -0.0029 C   0  0  0  0  0  0  0  0  0  0  0  0
   -2.3624    1.8206    0.0042 C   0  0  0  0  0  0  0  0  0  0  0  0
   -2.5464   -0.3540    1.2586 C   0  0  0  0  0  0  0  0  0  0  0  0
   -2.6531   -0.3209   -1.2251 C   0  0  0  0  0  0  0  0  0  0  0  0
    0.3020    1.3554   -0.0004 C   0  0  0  0  0  0  0  0  0  0  0  0
    0.1278   -1.0543   -0.0060 C   0  0  0  0  0  0  0  0  0  0  0  0
    1.6932    1.2548   -0.0012 C   0  0  0  0  0  0  0  0  0  0  0  0
    1.5190   -1.1549   -0.0068 C   0  0  0  0  0  0  0  0  0  0  0  0
    2.3017   -0.0004   -0.0042 C   0  0  0  0  0  0  0  0  0  0  0  0
    2.5308    2.4886   -0.0004 C   0  0  0  0  0  0  0  0  0  0  0  0
   -3.4564    1.9180    0.0177 H   0  0  0  0  0  0  0  0  0  0  0  0
   -2.0150    2.3478    0.9011 H   0  0  0  0  0  0  0  0  0  0  0  0
   -2.0310    2.3504   -0.8972 H   0  0  0  0  0  0  0  0  0  0  0  0
   -2.0456    0.0050    2.1658 H   0  0  0  0  0  0  0  0  0  0  0  0
   -3.6136   -0.1232    1.3657 H   0  0  0  0  0  0  0  0  0  0  0  0
   -2.4702   -1.4444    1.2481 H   0  0  0  0  0  0  0  0  0  0  0  0
   -3.7315   -0.1228   -1.2260 H   0  0  0  0  0  0  0  0  0  0  0  0
   -2.2406    0.0824   -2.1576 H   0  0  0  0  0  0  0  0  0  0  0  0
   -2.5325   -1.4071   -1.2616 H   0  0  0  0  0  0  0  0  0  0  0  0
   -0.0981    2.3602   -0.0013 H   0  0  0  0  0  0  0  0  0  0  0  0
    3.3856   -0.0870   -0.0064 H   0  0  0  0  0  0  0  0  0  0  0  0
    3.5672    2.2736    0.2811 H   0  0  0  0  0  0  0  0  0  0  0  0
    2.5335    2.9420   -0.9967 H   0  0  0  0  0  0  0  0  0  0  0  0
    2.1457    3.2171    0.7211 H   0  0  0  0  0  0  0  0  0  0  0  0
   -0.1246   -2.9222   -0.3799 H   0  0  0  0  0  0  0  0  0  0  0  0
    1.5158   -3.0437    0.3398 H   0  0  0  0  0  0  0  0  0  0  0  0
  1  9  1  0  0  0  0
  1 28  1  0  0  0  0
  2 11  1  0  0  0  0
  2 29  1  0  0  0  0
  3  4  1  0  0  0  0
  3  5  1  0  0  0  0
  3  6  1  0  0  0  0
  3  7  1  0  0  0  0
  4  8  1  0  0  0  0
  4  9  2  0  0  0  0
  5 14  1  0  0  0  0
  5 15  1  0  0  0  0
  5 16  1  0  0  0  0
  6 17  1  0  0  0  0
  6 18  1  0  0  0  0
  6 19  1  0  0  0  0
  7 20  1  0  0  0  0
  7 21  1  0  0  0  0
  7 22  1  0  0  0  0
  8 10  2  0  0  0  0
  8 23  1  0  0  0  0
  9 11  1  0  0  0  0
 10 12  1  0  0  0  0
 10 13  1  0  0  0  0
 11 12  2  0  0  0  0
 12 24  1  0  0  0  0
 13 25  1  0  0  0  0
 13 26  1  0  0  0  0
 13 27  1  0  0  0  0
M  END
> <PUBCHEM_COMPOUND_CID>
66095

> <PUBCHEM_CONFORMER_RMSD>
0.4

> <PUBCHEM_CONFORMER_DIVERSEORDER>
1
2

> <PUBCHEM_MMFF94_PARTIAL_CHARGES>
14
1 -0.53
10 -0.14
11 0.08
12 -0.15
13 0.14
2 -0.53
23 0.15
24 0.15
28 0.45
29 0.45
3 0.14
4 -0.14
8 -0.15
9 0.08

> <PUBCHEM_EFFECTIVE_ROTOR_COUNT>
1

> <PUBCHEM_PHARMACOPHORE_FEATURES>
4
1 1 donor
1 2 donor
4 3 5 6 7 hydrophobe
6 4 8 9 10 11 12 rings

> <PUBCHEM_HEAVY_ATOM_COUNT>
13

> <PUBCHEM_ATOM_DEF_STEREO_COUNT>
0

> <PUBCHEM_ATOM_UDEF_STEREO_COUNT>
0

> <PUBCHEM_BOND_DEF_STEREO_COUNT>
0

> <PUBCHEM_BOND_UDEF_STEREO_COUNT>
0

> <PUBCHEM_ISOTOPIC_ATOM_COUNT>
0

> <PUBCHEM_COMPONENT_COUNT>
1

> <PUBCHEM_CACTVS_TAUTO_COUNT>
18

> <PUBCHEM_CONFORMER_ID>
0001022F00000001

> <PUBCHEM_MMFF94_ENERGY>
50.0746

> <PUBCHEM_FEATURE_SELFOVERLAP>
20.302

> <PUBCHEM_SHAPE_FINGERPRINT>
11471102 22 18270098189364485073
12423570 1 15388967216197003745
12524768 44 18272090482758847996
12932764 1 17894911819433660993
13380535 21 18194383512394422756
13380535 76 18267314135860524258
14614273 12 17982745073078303159
14648413 74 18341329014988324193
15490181 7 18338230458134839172
15490181 8 18411142398461528576
15775835 57 18114456769466191889
16945 1 18410573963861250472
17844478 74 18130209476904800313
17990270 104 18340207508779855594
193761 8 18338516331279711470
19973954 147 18412542154131432841
20510252 161 17614278862656191240
21040471 1 18338516335521820804
21501502 16 18410293653016115693
21524375 3 18044658594677430064
2334 1 18266740379822146696
23402539 116 17323805461298105654
23552423 10 18409453608688712789
241688 4 17833551580349243994
25 1 17625267790012580805
2748010 2 18122067773726538668
5084963 1 18041007253736457587
528886 8 18266744773283559841
6333449 129 17832143827429908264
7364860 26 18334858333593169252
81228 2 17040070941031995682

> <PUBCHEM_SHAPE_MULTIPOLES>
255.8
4.12
2.45
0.85
0.52
0.22
0.01
-1.12
-0.04
-1.43
0
0.65
0.04
0.01

> <PUBCHEM_SHAPE_SELFOVERLAP>
532.653

> <PUBCHEM_SHAPE_VOLUME>
148.2

> <PUBCHEM_COORDINATE_TYPE>
2
5
10

$$$$

