56928173
  -OEChem-07051213153D

 53 55  0     1  0  0  0  0  0999 V2000
   -5.1653    0.9760   -0.2098 O   0  0  0  0  0  0  0  0  0  0  0  0
   -0.8474   -0.7737   -0.6150 C   0  0  1  0  0  0  0  0  0  0  0  0
   -1.4064    0.4251    0.2321 C   0  0  2  0  0  0  0  0  0  0  0  0
    0.7373   -0.7730   -0.5226 C   0  0  1  0  0  0  0  0  0  0  0  0
   -2.9553    0.4361    0.5193 C   0  0  2  0  0  0  0  0  0  0  0  0
   -1.4453   -2.1042   -0.0935 C   0  0  0  0  0  0  0  0  0  0  0  0
   -0.8613    1.7723   -0.2960 C   0  0  0  0  0  0  0  0  0  0  0  0
   -3.4279   -0.9758    0.9456 C   0  0  0  0  0  0  0  0  0  0  0  0
    1.3380    0.6182   -0.6475 C   0  0  0  0  0  0  0  0  0  0  0  0
   -2.9672   -2.0876    0.0112 C   0  0  0  0  0  0  0  0  0  0  0  0
    1.3542   -1.4239    0.7343 C   0  0  0  0  0  0  0  0  0  0  0  0
   -1.1876   -0.6575   -2.1290 C   0  0  0  0  0  0  0  0  0  0  0  0
    3.5131   -0.0237    0.4389 C   0  0  2  0  0  0  0  0  0  0  0  0
    2.8395    0.6446   -0.7841 C   0  0  0  0  0  0  0  0  0  0  0  0
    0.6124    1.7450   -0.5691 C   0  0  0  0  0  0  0  0  0  0  0  0
    2.8935   -1.4195    0.6869 C   0  0  0  0  0  0  0  0  0  0  0  0
   -3.8256    0.9393   -0.6500 C   0  0  0  0  0  0  0  0  0  0  0  0
   -3.2473    1.3877    1.7100 C   0  0  0  0  0  0  0  0  0  0  0  0
    3.3590    0.8623    1.6916 C   0  0  0  0  0  0  0  0  0  0  0  0
    4.9878   -0.1925    0.1641 C   0  0  0  0  0  0  0  0  0  0  0  0
    5.7017    0.6250   -0.6172 C   0  0  0  0  0  0  0  0  0  0  0  0
   -0.9496    0.2942    1.2269 H   0  0  0  0  0  0  0  0  0  0  0  0
    1.1042   -1.3619   -1.3768 H   0  0  0  0  0  0  0  0  0  0  0  0
   -1.0691   -2.3214    0.9124 H   0  0  0  0  0  0  0  0  0  0  0  0
   -1.1311   -2.9387   -0.7323 H   0  0  0  0  0  0  0  0  0  0  0  0
   -1.0456    2.5551    0.4481 H   0  0  0  0  0  0  0  0  0  0  0  0
   -1.3689    2.0809   -1.2151 H   0  0  0  0  0  0  0  0  0  0  0  0
   -4.5188   -1.0232    1.0461 H   0  0  0  0  0  0  0  0  0  0  0  0
   -3.0338   -1.1955    1.9480 H   0  0  0  0  0  0  0  0  0  0  0  0
   -3.4340   -1.9880   -0.9731 H   0  0  0  0  0  0  0  0  0  0  0  0
   -3.3048   -3.0510    0.4124 H   0  0  0  0  0  0  0  0  0  0  0  0
    1.0461   -2.4724    0.8098 H   0  0  0  0  0  0  0  0  0  0  0  0
    1.0078   -0.9218    1.6447 H   0  0  0  0  0  0  0  0  0  0  0  0
   -0.8187    0.2695   -2.5768 H   0  0  0  0  0  0  0  0  0  0  0  0
   -2.2541   -0.7185   -2.3373 H   0  0  0  0  0  0  0  0  0  0  0  0
   -0.7280   -1.4823   -2.6881 H   0  0  0  0  0  0  0  0  0  0  0  0
    3.1032    0.1227   -1.7145 H   0  0  0  0  0  0  0  0  0  0  0  0
    3.1719    1.6844   -0.8981 H   0  0  0  0  0  0  0  0  0  0  0  0
    1.1020    2.7106   -0.6648 H   0  0  0  0  0  0  0  0  0  0  0  0
    3.2061   -2.1061   -0.1129 H   0  0  0  0  0  0  0  0  0  0  0  0
    3.2764   -1.8484    1.6224 H   0  0  0  0  0  0  0  0  0  0  0  0
   -3.7866    0.2898   -1.5221 H   0  0  0  0  0  0  0  0  0  0  0  0
   -3.5492    1.9519   -0.9575 H   0  0  0  0  0  0  0  0  0  0  0  0
   -4.2757    1.2879    2.0762 H   0  0  0  0  0  0  0  0  0  0  0  0
   -2.5905    1.1681    2.5598 H   0  0  0  0  0  0  0  0  0  0  0  0
   -3.0961    2.4376    1.4377 H   0  0  0  0  0  0  0  0  0  0  0  0
    2.3110    1.0091    1.9714 H   0  0  0  0  0  0  0  0  0  0  0  0
    3.7952    1.8560    1.5337 H   0  0  0  0  0  0  0  0  0  0  0  0
    3.8654    0.4158    2.5559 H   0  0  0  0  0  0  0  0  0  0  0  0
    5.5117   -1.0000    0.6709 H   0  0  0  0  0  0  0  0  0  0  0  0
   -5.7047    1.3022   -0.9502 H   0  0  0  0  0  0  0  0  0  0  0  0
    6.7652    0.4456   -0.7436 H   0  0  0  0  0  0  0  0  0  0  0  0
    5.2942    1.4827   -1.1353 H   0  0  0  0  0  0  0  0  0  0  0  0
  1 17  1  0  0  0  0
  1 51  1  0  0  0  0
  2  3  1  0  0  0  0
  2  4  1  0  0  0  0
  2  6  1  0  0  0  0
  2 12  1  0  0  0  0
  3  5  1  0  0  0  0
  3  7  1  0  0  0  0
  3 22  1  0  0  0  0
  4  9  1  0  0  0  0
  4 11  1  0  0  0  0
  4 23  1  0  0  0  0
  5  8  1  0  0  0  0
  5 17  1  0  0  0  0
  5 18  1  0  0  0  0
  6 10  1  0  0  0  0
  6 24  1  0  0  0  0
  6 25  1  0  0  0  0
  7 15  1  0  0  0  0
  7 26  1  0  0  0  0
  7 27  1  0  0  0  0
  8 10  1  0  0  0  0
  8 28  1  0  0  0  0
  8 29  1  0  0  0  0
  9 14  1  0  0  0  0
  9 15  2  0  0  0  0
 10 30  1  0  0  0  0
 10 31  1  0  0  0  0
 11 16  1  0  0  0  0
 11 32  1  0  0  0  0
 11 33  1  0  0  0  0
 12 34  1  0  0  0  0
 12 35  1  0  0  0  0
 12 36  1  0  0  0  0
 13 14  1  0  0  0  0
 13 16  1  0  0  0  0
 13 19  1  0  0  0  0
 13 20  1  0  0  0  0
 14 37  1  0  0  0  0
 14 38  1  0  0  0  0
 15 39  1  0  0  0  0
 16 40  1  0  0  0  0
 16 41  1  0  0  0  0
 17 42  1  0  0  0  0
 17 43  1  0  0  0  0
 18 44  1  0  0  0  0
 18 45  1  0  0  0  0
 18 46  1  0  0  0  0
 19 47  1  0  0  0  0
 19 48  1  0  0  0  0
 19 49  1  0  0  0  0
 20 21  2  0  0  0  0
 20 50  1  0  0  0  0
 21 52  1  0  0  0  0
 21 53  1  0  0  0  0
M  END
> <PUBCHEM_COMPOUND_CID>
56928173

> <PUBCHEM_CONFORMER_RMSD>
0.6

> <PUBCHEM_CONFORMER_DIVERSEORDER>
1
6
8
4
7
5
3
2

> <PUBCHEM_MMFF94_PARTIAL_CHARGES>
15
1 -0.68
13 0.14
14 0.14
15 -0.29
17 0.28
20 -0.29
21 -0.3
39 0.15
4 0.14
50 0.15
51 0.4
52 0.15
53 0.15
7 0.14
9 -0.28

> <PUBCHEM_EFFECTIVE_ROTOR_COUNT>
3.8

> <PUBCHEM_PHARMACOPHORE_FEATURES>
6
1 1 acceptor
1 1 donor
1 21 hydrophobe
6 2 3 4 7 9 15 rings
6 2 3 5 6 8 10 rings
6 4 9 11 13 14 16 rings

> <PUBCHEM_HEAVY_ATOM_COUNT>
21

> <PUBCHEM_ATOM_DEF_STEREO_COUNT>
4

> <PUBCHEM_ATOM_UDEF_STEREO_COUNT>
1

> <PUBCHEM_BOND_DEF_STEREO_COUNT>
0

> <PUBCHEM_BOND_UDEF_STEREO_COUNT>
0

> <PUBCHEM_ISOTOPIC_ATOM_COUNT>
0

> <PUBCHEM_COMPONENT_COUNT>
1

> <PUBCHEM_CACTVS_TAUTO_COUNT>
1

> <PUBCHEM_CONFORMER_ID>
0364A7AD00000001

> <PUBCHEM_MMFF94_ENERGY>
72.5793

> <PUBCHEM_FEATURE_SELFOVERLAP>
30.493

> <PUBCHEM_SHAPE_FINGERPRINT>
10366900 7 17822014228423668904
10863032 1 18335421287467258699
10906281 52 18265320884852744221
11045977 3 18113903728044449400
11089746 13 17968106325843182160
11132069 177 18413107272853220162
12011746 2 18259989296559797657
12077114 3 18272934955487501861
121448 382 9727639409845616988
12236239 1 18410855468728658910
12251169 10 18412259532340146009
12382932 28 18411982472510824387
12403814 3 16988569004342925415
12507557 5 18411978040268313129
12553582 1 18201165377519090388
13140716 1 18339072671125626489
13214271 11 18409450271435924367
13221675 6 18411136948380151550
13224815 77 18272380745729133338
13533116 47 18115875259814862475
13583140 156 18261115153559035635
13675066 3 18333731286898371158
14787075 74 17845929633325990978
14790565 3 18200303313432977012
15196674 1 18342738486132013106
15209289 33 18272367538715455730
15209294 21 18186797019343428208
15375462 189 17917997165812811842
1601671 61 18413386540781191284
16945 1 18338222856211718813
17349148 13 18260274040380842421
17804303 29 18334854983339447264
1813 80 17060611218282535454
19784866 170 18413385462338315398
200 152 18059862726890876471
20602899 9 15285362808018020191
21033648 29 18187661231177843873
21267235 1 18270389503937677739
23402539 116 18334018271917339246
23557571 272 18041839510892858511
23559900 14 18333730213420388692
23622692 88 18343862204327351391
26918003 58 16845568725284146624
2748010 2 17909827974480132069
296302 2 16845855697887307922
34934 24 18272937154109726739
350125 39 18268986497515418635
351380 180 17022905665719898512
3545911 37 18409446994555212355
5104073 3 18341054034581985776
6034566 193 14902515947782631148
633830 44 18262809467240003852
90316 7 18272092716221411501

> <PUBCHEM_SHAPE_MULTIPOLES>
426.3
9.42
1.94
1.37
5.65
0.39
0
-1.69
-1.16
-1.21
-0.12
-0.2
-0.14
-0.39

> <PUBCHEM_SHAPE_SELFOVERLAP>
888.229

> <PUBCHEM_SHAPE_VOLUME>
238.8

> <PUBCHEM_COORDINATE_TYPE>
2
5
10

$$$$

