5363137
  -OEChem-07051213093D

 51 52  0     1  0  0  0  0  0999 V2000
    3.8152   -0.4943   -1.5359 O   0  0  0  0  0  0  0  0  0  0  0  0
   -8.2444    0.1923   -1.6701 O   0  0  0  0  0  0  0  0  0  0  0  0
   -8.1844    0.3291    0.6031 O   0  0  0  0  0  0  0  0  0  0  0  0
    3.5917   -0.0329   -0.2001 C   0  0  1  0  0  0  0  0  0  0  0  0
    4.4903   -1.2106   -0.4848 C   0  0  2  0  0  0  0  0  0  0  0  0
    4.1740    1.3228    0.1344 C   0  0  0  0  0  0  0  0  0  0  0  0
    5.9773   -1.0731   -0.5444 C   0  0  0  0  0  0  0  0  0  0  0  0
    5.6623    1.4207   -0.2868 C   0  0  0  0  0  0  0  0  0  0  0  0
    6.4775    0.1975    0.1371 C   0  0  0  0  0  0  0  0  0  0  0  0
    3.9799   -2.6080   -0.3588 C   0  0  0  0  0  0  0  0  0  0  0  0
    2.2910   -0.3407    0.4239 C   0  0  0  0  0  0  0  0  0  0  0  0
    3.3744    2.4186   -0.5925 C   0  0  0  0  0  0  0  0  0  0  0  0
    4.0388    1.5545    1.6532 C   0  0  0  0  0  0  0  0  0  0  0  0
    1.0885   -0.0683   -0.1095 C   0  0  0  0  0  0  0  0  0  0  0  0
   -0.1988   -0.3570    0.5158 C   0  0  0  0  0  0  0  0  0  0  0  0
   -0.0612   -0.9661    1.8865 C   0  0  0  0  0  0  0  0  0  0  0  0
   -1.3580   -0.0453   -0.0995 C   0  0  0  0  0  0  0  0  0  0  0  0
   -2.7023   -0.2477    0.4061 C   0  0  0  0  0  0  0  0  0  0  0  0
   -3.7977    0.1006   -0.2914 C   0  0  0  0  0  0  0  0  0  0  0  0
   -5.1949   -0.0533    0.1302 C   0  0  0  0  0  0  0  0  0  0  0  0
   -5.4440   -0.6872    1.4746 C   0  0  0  0  0  0  0  0  0  0  0  0
   -6.1586    0.3599   -0.7176 C   0  0  0  0  0  0  0  0  0  0  0  0
   -7.6164    0.2886   -0.4737 C   0  0  0  0  0  0  0  0  0  0  0  0
    6.3008   -1.0783   -1.5930 H   0  0  0  0  0  0  0  0  0  0  0  0
    6.4639   -1.9325   -0.0673 H   0  0  0  0  0  0  0  0  0  0  0  0
    6.1164    2.3247    0.1377 H   0  0  0  0  0  0  0  0  0  0  0  0
    5.7359    1.5233   -1.3779 H   0  0  0  0  0  0  0  0  0  0  0  0
    7.5326    0.3514   -0.1175 H   0  0  0  0  0  0  0  0  0  0  0  0
    6.4332    0.0760    1.2253 H   0  0  0  0  0  0  0  0  0  0  0  0
    4.0868   -2.9570    0.6736 H   0  0  0  0  0  0  0  0  0  0  0  0
    2.9286   -2.7130   -0.6474 H   0  0  0  0  0  0  0  0  0  0  0  0
    4.5512   -3.2852   -1.0034 H   0  0  0  0  0  0  0  0  0  0  0  0
    2.3749   -0.8189    1.3954 H   0  0  0  0  0  0  0  0  0  0  0  0
    2.3365    2.4767   -0.2492 H   0  0  0  0  0  0  0  0  0  0  0  0
    3.8233    3.4042   -0.4229 H   0  0  0  0  0  0  0  0  0  0  0  0
    3.3538    2.2454   -1.6745 H   0  0  0  0  0  0  0  0  0  0  0  0
    2.9962    1.6791    1.9679 H   0  0  0  0  0  0  0  0  0  0  0  0
    4.4583    0.7245    2.2324 H   0  0  0  0  0  0  0  0  0  0  0  0
    4.5651    2.4678    1.9547 H   0  0  0  0  0  0  0  0  0  0  0  0
    1.0536    0.4058   -1.0886 H   0  0  0  0  0  0  0  0  0  0  0  0
   -1.0241   -1.1576    2.3666 H   0  0  0  0  0  0  0  0  0  0  0  0
    0.4826   -0.2999    2.5664 H   0  0  0  0  0  0  0  0  0  0  0  0
    0.4459   -1.9367    1.8394 H   0  0  0  0  0  0  0  0  0  0  0  0
   -1.3065    0.4101   -1.0888 H   0  0  0  0  0  0  0  0  0  0  0  0
   -2.8065   -0.6922    1.3883 H   0  0  0  0  0  0  0  0  0  0  0  0
   -3.6543    0.5492   -1.2748 H   0  0  0  0  0  0  0  0  0  0  0  0
   -4.9334   -1.6544    1.5465 H   0  0  0  0  0  0  0  0  0  0  0  0
   -5.0806   -0.0371    2.2779 H   0  0  0  0  0  0  0  0  0  0  0  0
   -6.4961   -0.8963    1.6745 H   0  0  0  0  0  0  0  0  0  0  0  0
   -5.8859    0.7735   -1.6875 H   0  0  0  0  0  0  0  0  0  0  0  0
   -9.2195    0.1504   -1.5704 H   0  0  0  0  0  0  0  0  0  0  0  0
  1  4  1  0  0  0  0
  1  5  1  0  0  0  0
  2 23  1  0  0  0  0
  2 51  1  0  0  0  0
  3 23  2  0  0  0  0
  4  5  1  0  0  0  0
  4  6  1  0  0  0  0
  4 11  1  0  0  0  0
  5  7  1  0  0  0  0
  5 10  1  0  0  0  0
  6  8  1  0  0  0  0
  6 12  1  0  0  0  0
  6 13  1  0  0  0  0
  7  9  1  0  0  0  0
  7 24  1  0  0  0  0
  7 25  1  0  0  0  0
  8  9  1  0  0  0  0
  8 26  1  0  0  0  0
  8 27  1  0  0  0  0
  9 28  1  0  0  0  0
  9 29  1  0  0  0  0
 10 30  1  0  0  0  0
 10 31  1  0  0  0  0
 10 32  1  0  0  0  0
 11 14  2  0  0  0  0
 11 33  1  0  0  0  0
 12 34  1  0  0  0  0
 12 35  1  0  0  0  0
 12 36  1  0  0  0  0
 13 37  1  0  0  0  0
 13 38  1  0  0  0  0
 13 39  1  0  0  0  0
 14 15  1  0  0  0  0
 14 40  1  0  0  0  0
 15 16  1  0  0  0  0
 15 17  2  0  0  0  0
 16 41  1  0  0  0  0
 16 42  1  0  0  0  0
 16 43  1  0  0  0  0
 17 18  1  0  0  0  0
 17 44  1  0  0  0  0
 18 19  2  0  0  0  0
 18 45  1  0  0  0  0
 19 20  1  0  0  0  0
 19 46  1  0  0  0  0
 20 21  1  0  0  0  0
 20 22  2  0  0  0  0
 21 47  1  0  0  0  0
 21 48  1  0  0  0  0
 21 49  1  0  0  0  0
 22 23  1  0  0  0  0
 22 50  1  0  0  0  0
M  END
> <PUBCHEM_COMPOUND_CID>
5363137

> <PUBCHEM_CONFORMER_RMSD>
0.8

> <PUBCHEM_CONFORMER_DIVERSEORDER>
1
96
100
55
54
98
94
20
88
2
99
58
71
3
35
122
56
121
37
91
81
26
117
23
93
63
82
27
84
19
83
6
95
66
33
108
85
15
73
124
86
59
111
79
67
77
29
109
10
114
41
90
92
43
22
120
34
89
61
14
21
128
25
116
75
44
87
60
13
102
7
125
106
126
16
51
4
74
104
8
65
123
42
12
32
17
129
112
52
118
103
50
115
9
110
53
24
38
47
101
30
49
5
28
127
39
40
105
70
62
119
57
11
48
107
18
76
64
97
113
78
31
46
72
36
68
80
45
69

> <PUBCHEM_MMFF94_PARTIAL_CHARGES>
26
1 -0.3
10 0.09
11 -0.19
14 -0.15
15 -0.14
16 0.14
17 -0.15
18 -0.15
19 -0.15
2 -0.65
20 -0.14
21 0.14
22 -0.14
23 0.71
3 -0.57
33 0.15
4 0.09
40 0.15
44 0.15
45 0.15
46 0.15
5 -0.04
50 0.15
51 0.5
6 0.09
7 0.09

> <PUBCHEM_EFFECTIVE_ROTOR_COUNT>
6

> <PUBCHEM_PHARMACOPHORE_FEATURES>
8
1 1 acceptor
1 16 hydrophobe
1 2 acceptor
1 21 hydrophobe
1 3 acceptor
3 2 3 23 anion
3 6 12 13 hydrophobe
7 1 4 5 6 7 8 9 rings

> <PUBCHEM_HEAVY_ATOM_COUNT>
23

> <PUBCHEM_ATOM_DEF_STEREO_COUNT>
0

> <PUBCHEM_ATOM_UDEF_STEREO_COUNT>
2

> <PUBCHEM_BOND_DEF_STEREO_COUNT>
4

> <PUBCHEM_BOND_UDEF_STEREO_COUNT>
0

> <PUBCHEM_ISOTOPIC_ATOM_COUNT>
0

> <PUBCHEM_COMPONENT_COUNT>
1

> <PUBCHEM_CACTVS_TAUTO_COUNT>
1

> <PUBCHEM_CONFORMER_ID>
0051D5C100000001

> <PUBCHEM_MMFF94_ENERGY>
57.6426

> <PUBCHEM_FEATURE_SELFOVERLAP>
40.651

> <PUBCHEM_SHAPE_FINGERPRINT>
10 15 14261349177019079833
10162869 55 18114474378531055263
10299344 5 17313104155575581975
10411042 1 18049158067648877062
11135609 127 18116159883034646024
11719270 70 16343709850258490299
12236239 1 17022897973839510146
12730499 353 18342167861283472522
13533116 47 18187082888198464810
13668630 136 14201393872449214525
14170010 4 18333732412702126752
14251764 18 16950282910316016791
14251764 46 17676488345633894118
14933364 13 18341892996203076517
15183329 4 16877939434738688393
15419008 47 17846223258808322773
17844677 252 18335976549693048449
18222031 100 4750878160454382763
18335252 114 18410300202799239317
20157964 124 18408884036175243894
20645477 70 18260259790027864734
21150785 3 16588025689004930825
21315759 40 17385724707982883407
21344244 78 17750526246820304642
221357 26 18411420635049280980
22224240 67 15985105198116562987
23081809 10 17458057184322904171
23522609 53 16444447036965612841
23559900 14 18411978023557611210
249057 3 18333731304073251726
255183 451 17533764165049903414
29717793 49 17749103409056985367
3004659 81 15647052646731999720
335352 9 18334851732940865158
34797466 226 18342173363030713237
397830 11 17845078572798130449
4073 2 18201715102899377867
4325135 7 17313103055578858893

> <PUBCHEM_SHAPE_MULTIPOLES>
455.72
22.85
1.68
1.28
44.48
0.01
-0.31
2.6
4.97
-3.64
0.09
0.62
-0.04
1.25

> <PUBCHEM_SHAPE_SELFOVERLAP>
933.95

> <PUBCHEM_SHAPE_VOLUME>
263.8

> <PUBCHEM_COORDINATE_TYPE>
2
5
10

$$$$

