443808
  -OEChem-07051213032D

 36 39  0     0  0  0  0  0  0999 V2000
    5.6083   -0.4612    0.0000 O   0  0  0  0  0  0  0  0  0  0  0  0
    5.5161    0.5843    0.0000 O   0  0  0  0  0  0  0  0  0  0  0  0
    2.0520    2.5843    0.0000 O   0  0  0  0  0  0  0  0  0  0  0  0
    2.8963    4.1158    0.0000 O   0  0  0  0  0  0  0  0  0  0  0  0
    2.9731   -4.1157    0.0000 O   0  0  0  0  0  0  0  0  0  0  0  0
    3.7841    0.5843    0.0000 C   0  0  0  0  0  0  0  0  0  0  0  0
    3.8001   -0.4572    0.0000 C   0  0  0  0  0  0  0  0  0  0  0  0
    2.9180    1.0843    0.0000 C   0  0  0  0  0  0  0  0  0  0  0  0
    2.9021   -0.9849    0.0000 C   0  0  0  0  0  0  0  0  0  0  0  0
    4.6501    2.0843    0.0000 C   0  0  0  0  0  0  0  0  0  0  0  0
    4.6501    1.0843    0.0000 C   0  0  0  0  0  0  0  0  0  0  0  0
    3.7841    2.5843    0.0000 C   0  0  0  0  0  0  0  0  0  0  0  0
    2.9180    2.0843    0.0000 C   0  0  0  0  0  0  0  0  0  0  0  0
    2.0080    0.5775    0.0000 C   0  0  0  0  0  0  0  0  0  0  0  0
    4.7520   -0.9778    0.0000 C   0  0  0  0  0  0  0  0  0  0  0  0
    2.0000   -0.4641    0.0000 C   0  0  0  0  0  0  0  0  0  0  0  0
    2.8937   -2.0699    0.0000 C   0  0  0  0  0  0  0  0  0  0  0  0
    3.8334   -2.6124    0.0000 C   0  0  0  0  0  0  0  0  0  0  0  0
    4.7688   -2.0627    0.0000 C   0  0  0  0  0  0  0  0  0  0  0  0
    3.7680    3.6258    0.0000 C   0  0  0  0  0  0  0  0  0  0  0  0
    5.5601    2.5912    0.0000 C   0  0  0  0  0  0  0  0  0  0  0  0
    3.8372   -3.6124    0.0000 C   0  0  0  0  0  0  0  0  0  0  0  0
    4.6660    4.1536    0.0000 C   0  0  0  0  0  0  0  0  0  0  0  0
    5.5681    3.6328    0.0000 C   0  0  0  0  0  0  0  0  0  0  0  0
    1.4747    0.8937    0.0000 H   0  0  0  0  0  0  0  0  0  0  0  0
    1.4619   -0.7721    0.0000 H   0  0  0  0  0  0  0  0  0  0  0  0
    2.3556   -2.3778    0.0000 H   0  0  0  0  0  0  0  0  0  0  0  0
    5.3093   -2.3664    0.0000 H   0  0  0  0  0  0  0  0  0  0  0  0
    6.0934    2.2750    0.0000 H   0  0  0  0  0  0  0  0  0  0  0  0
    4.0515   -4.1942    0.0000 H   0  0  0  0  0  0  0  0  0  0  0  0
    4.4474   -3.5024    0.0000 H   0  0  0  0  0  0  0  0  0  0  0  0
    4.6636    4.7736    0.0000 H   0  0  0  0  0  0  0  0  0  0  0  0
    6.1062    3.9407    0.0000 H   0  0  0  0  0  0  0  0  0  0  0  0
    6.1511   -0.7608    0.0000 H   0  0  0  0  0  0  0  0  0  0  0  0
    2.8891    4.7357    0.0000 H   0  0  0  0  0  0  0  0  0  0  0  0
    2.9755   -4.7357    0.0000 H   0  0  0  0  0  0  0  0  0  0  0  0
  1 15  1  0  0  0  0
  1 34  1  0  0  0  0
  2 11  2  0  0  0  0
  3 13  2  0  0  0  0
  4 20  1  0  0  0  0
  4 35  1  0  0  0  0
  5 22  1  0  0  0  0
  5 36  1  0  0  0  0
  6  7  1  0  0  0  0
  6  8  2  0  0  0  0
  6 11  1  0  0  0  0
  7  9  1  0  0  0  0
  7 15  2  0  0  0  0
  8 13  1  0  0  0  0
  8 14  1  0  0  0  0
  9 16  1  0  0  0  0
  9 17  2  0  0  0  0
 10 11  1  0  0  0  0
 10 12  2  0  0  0  0
 10 21  1  0  0  0  0
 12 13  1  0  0  0  0
 12 20  1  0  0  0  0
 14 16  2  0  0  0  0
 14 25  1  0  0  0  0
 15 19  1  0  0  0  0
 16 26  1  0  0  0  0
 17 18  1  0  0  0  0
 17 27  1  0  0  0  0
 18 19  2  0  0  0  0
 18 22  1  0  0  0  0
 19 28  1  0  0  0  0
 20 23  2  0  0  0  0
 21 24  2  0  0  0  0
 21 29  1  0  0  0  0
 22 30  1  0  0  0  0
 22 31  1  0  0  0  0
 23 24  1  0  0  0  0
 23 32  1  0  0  0  0
 24 33  1  0  0  0  0
M  END
> <PUBCHEM_COMPOUND_CID>
443808

> <PUBCHEM_COMPOUND_CANONICALIZED>
1

> <PUBCHEM_CACTVS_COMPLEXITY>
532

> <PUBCHEM_CACTVS_HBOND_ACCEPTOR>
5

> <PUBCHEM_CACTVS_HBOND_DONOR>
3

> <PUBCHEM_CACTVS_ROTATABLE_BOND>
1

> <PUBCHEM_CACTVS_SUBSKEYS>
AAADccB4OAAAAAAAAAAAAAAAAAAAAAAAAAAwYMGAAAAAAADBVAAAGgAACAAADASgmAIwBsAAAgCIAqBSAAACAAAkIAAIiAEGCMgINjaCFRKAcUAk4BEImYfLzPDOwAADAAAYAACAAAYAADAAAAAAAAAAAA==

> <PUBCHEM_IUPAC_OPENEYE_NAME>
1,8-dihydroxy-3-(hydroxymethyl)benzo[a]anthracene-7,12-dione

> <PUBCHEM_IUPAC_CAS_NAME>
1,8-dihydroxy-3-(hydroxymethyl)benzo[a]anthracene-7,12-dione

> <PUBCHEM_IUPAC_NAME>
1,8-dihydroxy-3-(hydroxymethyl)benzo[a]anthracene-7,12-dione

> <PUBCHEM_IUPAC_SYSTEMATIC_NAME>
3-(hydroxymethyl)-1,8-bis(oxidanyl)benzo[a]anthracene-7,12-dione

> <PUBCHEM_IUPAC_TRADITIONAL_NAME>
1,8-dihydroxy-3-methylol-benz[a]anthracene-7,12-quinone

> <PUBCHEM_IUPAC_INCHI>
InChI=1S/C19H12O5/c20-8-9-6-10-4-5-12-17(15(10)14(22)7-9)19(24)11-2-1-3-13(21)16(11)18(12)23/h1-7,20-22H,8H2

> <PUBCHEM_IUPAC_INCHIKEY>
QPPVCGOBYRQSAG-UHFFFAOYSA-N

> <PUBCHEM_XLOGP3_AA>
3.1

> <PUBCHEM_EXACT_MASS>
320.068473

> <PUBCHEM_MOLECULAR_FORMULA>
C19H12O5

> <PUBCHEM_MOLECULAR_WEIGHT>
320.29558

> <PUBCHEM_OPENEYE_CAN_SMILES>
C1=CC2=C(C(=C1)O)C(=O)C3=C(C2=O)C4=C(C=C(C=C4C=C3)CO)O

> <PUBCHEM_OPENEYE_ISO_SMILES>
C1=CC2=C(C(=C1)O)C(=O)C3=C(C2=O)C4=C(C=C(C=C4C=C3)CO)O

> <PUBCHEM_CACTVS_TPSA>
94.8

> <PUBCHEM_MONOISOTOPIC_WEIGHT>
320.068473

> <PUBCHEM_TOTAL_CHARGE>
0

> <PUBCHEM_HEAVY_ATOM_COUNT>
24

> <PUBCHEM_ATOM_DEF_STEREO_COUNT>
0

> <PUBCHEM_ATOM_UDEF_STEREO_COUNT>
0

> <PUBCHEM_BOND_DEF_STEREO_COUNT>
0

> <PUBCHEM_BOND_UDEF_STEREO_COUNT>
0

> <PUBCHEM_ISOTOPIC_ATOM_COUNT>
0

> <PUBCHEM_COMPONENT_COUNT>
1

> <PUBCHEM_CACTVS_TAUTO_COUNT>
34

> <PUBCHEM_COORDINATE_TYPE>
1
5
255

> <PUBCHEM_BONDANNOTATIONS>
10  12  8
10  21  8
12  20  8
14  16  8
15  19  8
17  18  8
18  19  8
20  23  8
21  24  8
23  24  8
6  7  8
6  8  8
7  15  8
7  9  8
8  14  8
9  16  8
9  17  8

$$$$

