12301
  -OEChem-06261206473D

 15 14  0     0  0  0  0  0  0999 V2000
    0.8325   -0.1529    0.0027 O   0  0  0  0  0  0  0  0  0  0  0  0
   -2.6373    0.7098    0.0142 O   0  0  0  0  0  0  0  0  0  0  0  0
   -1.6192   -1.3276   -0.0057 O   0  0  0  0  0  0  0  0  0  0  0  0
    2.0564    0.5749   -0.0070 C   0  0  0  0  0  0  0  0  0  0  0  0
   -0.2900    0.7063   -0.0129 C   0  0  0  0  0  0  0  0  0  0  0  0
    3.2118   -0.4031    0.0106 C   0  0  0  0  0  0  0  0  0  0  0  0
   -1.5542   -0.1075   -0.0019 C   0  0  0  0  0  0  0  0  0  0  0  0
    2.1102    1.1948   -0.9089 H   0  0  0  0  0  0  0  0  0  0  0  0
    2.1073    1.2234    0.8747 H   0  0  0  0  0  0  0  0  0  0  0  0
   -0.2790    1.3433    0.8780 H   0  0  0  0  0  0  0  0  0  0  0  0
   -0.2775    1.3155   -0.9231 H   0  0  0  0  0  0  0  0  0  0  0  0
    4.1701    0.1236    0.0037 H   0  0  0  0  0  0  0  0  0  0  0  0
    3.1648   -1.0395    0.9004 H   0  0  0  0  0  0  0  0  0  0  0  0
    3.1676   -1.0678   -0.8585 H   0  0  0  0  0  0  0  0  0  0  0  0
   -3.4776    0.2037    0.0222 H   0  0  0  0  0  0  0  0  0  0  0  0
  1  4  1  0  0  0  0
  1  5  1  0  0  0  0
  2  7  1  0  0  0  0
  2 15  1  0  0  0  0
  3  7  2  0  0  0  0
  4  6  1  0  0  0  0
  4  8  1  0  0  0  0
  4  9  1  0  0  0  0
  5  7  1  0  0  0  0
  5 10  1  0  0  0  0
  5 11  1  0  0  0  0
  6 12  1  0  0  0  0
  6 13  1  0  0  0  0
  6 14  1  0  0  0  0
M  END
> <PUBCHEM_COMPOUND_CID>
12301

> <PUBCHEM_CONFORMER_RMSD>
0.4

> <PUBCHEM_CONFORMER_DIVERSEORDER>
1
14
18
13
9
17
2
19
6
20
8
15
12
16
5
4
3
10
7
11

> <PUBCHEM_MMFF94_PARTIAL_CHARGES>
7
1 -0.56
15 0.5
2 -0.65
3 -0.57
4 0.28
5 0.34
7 0.66

> <PUBCHEM_EFFECTIVE_ROTOR_COUNT>
3

> <PUBCHEM_PHARMACOPHORE_FEATURES>
4
1 1 acceptor
1 2 acceptor
1 3 acceptor
3 2 3 7 anion

> <PUBCHEM_HEAVY_ATOM_COUNT>
7

> <PUBCHEM_ATOM_DEF_STEREO_COUNT>
0

> <PUBCHEM_ATOM_UDEF_STEREO_COUNT>
0

> <PUBCHEM_BOND_DEF_STEREO_COUNT>
0

> <PUBCHEM_BOND_UDEF_STEREO_COUNT>
0

> <PUBCHEM_ISOTOPIC_ATOM_COUNT>
0

> <PUBCHEM_COMPONENT_COUNT>
1

> <PUBCHEM_CACTVS_TAUTO_COUNT>
1

> <PUBCHEM_CONFORMER_ID>
0000300D00000001

> <PUBCHEM_MMFF94_ENERGY>
4.3176

> <PUBCHEM_FEATURE_SELFOVERLAP>
20.36

> <PUBCHEM_SHAPE_FINGERPRINT>
12932764 1 17346326994177211636
14325111 11 18410573968383045092
14390081 3 18260271832351206600
16714656 1 18342739636898502853
23552423 10 18201438026190145806
29004967 10 17095517383911831986
5460574 1 9223232948908259684

> <PUBCHEM_SHAPE_MULTIPOLES>
126.45
4.52
1
0.57
1.92
0.17
0
0.27
-0.02
-0.33
0
0.06
-0.01
-0.01

> <PUBCHEM_SHAPE_SELFOVERLAP>
226.968

> <PUBCHEM_SHAPE_VOLUME>
82.1

> <PUBCHEM_COORDINATE_TYPE>
2
5
10

$$$$

