21677480
  -OEChem-07051213112D

 74 76  0     1  0  0  0  0  0999 V2000
    7.0420    2.4431    0.0000 O   0  0  0  0  0  0  0  0  0  0  0  0
    5.3100   -0.5569    0.0000 O   0  0  0  0  0  0  0  0  0  0  0  0
    5.3100    1.4431    0.0000 O   0  0  0  0  0  0  0  0  0  0  0  0
    5.3100    2.4431    0.0000 O   0  0  0  0  0  0  0  0  0  0  0  0
    5.3100   -2.2890    0.0000 O   0  0  0  0  0  0  0  0  0  0  0  0
    3.3100   -0.5569    0.0000 O   0  0  0  0  0  0  0  0  0  0  0  0
    5.3100    5.4431    0.0000 O   0  0  0  0  0  0  0  0  0  0  0  0
    3.3101   -4.0211    0.0000 O   0  0  0  0  0  0  0  0  0  0  0  0
    3.5780    4.4431    0.0000 O   0  0  0  0  0  0  0  0  0  0  0  0
    6.3100   -4.0210    0.0000 O   0  0  0  0  0  0  0  0  0  0  0  0
    6.3100   -5.7531    0.0000 O   0  0  0  0  0  0  0  0  0  0  0  0
    8.7741    1.4431    0.0000 N   0  0  0  0  0  0  0  0  0  0  0  0
    7.5421   -1.4229    0.0000 N   0  0  0  0  0  0  0  0  0  0  0  0
    7.0420    4.4431    0.0000 N   0  0  0  0  0  0  0  0  0  0  0  0
    2.3100   -2.2890    0.0000 N   0  0  0  0  0  0  0  0  0  0  0  0
    2.7119    2.9431    0.0000 N   0  0  0  0  0  0  0  0  0  0  0  0
    7.8100   -4.8870    0.0000 N   0  0  0  0  0  0  0  0  0  0  0  0
    7.0420    1.4431    0.0000 C   0  0  1  0  0  0  0  0  0  0  0  0
    6.1760   -0.0569    0.0000 C   0  0  2  0  0  0  0  0  0  0  0  0
    6.1760    0.9431    0.0000 C   0  0  1  0  0  0  0  0  0  0  0  0
    7.9081    0.9431    0.0000 C   0  0  2  0  0  0  0  0  0  0  0  0
    7.0420   -0.5569    0.0000 C   0  0  1  0  0  0  0  0  0  0  0  0
    7.9081   -0.0569    0.0000 C   0  0  0  0  0  0  0  0  0  0  0  0
    6.1760    2.9431    0.0000 C   0  0  1  0  0  0  0  0  0  0  0  0
    4.8101   -1.4230    0.0000 C   0  0  1  0  0  0  0  0  0  0  0  0
    6.1760    3.9431    0.0000 C   0  0  1  0  0  0  0  0  0  0  0  0
    3.8100   -1.4230    0.0000 C   0  0  1  0  0  0  0  0  0  0  0  0
    3.3100   -2.2890    0.0000 C   0  0  2  0  0  0  0  0  0  0  0  0
    5.3100    4.4431    0.0000 C   0  0  2  0  0  0  0  0  0  0  0  0
    3.8101   -3.1550    0.0000 C   0  0  1  0  0  0  0  0  0  0  0  0
    4.4440    3.9431    0.0000 C   0  0  1  0  0  0  0  0  0  0  0  0
    4.4440    2.9431    0.0000 C   0  0  1  0  0  0  0  0  0  0  0  0
    4.8100   -3.1550    0.0000 C   0  0  1  0  0  0  0  0  0  0  0  0
    3.5780    2.4431    0.0000 C   0  0  0  0  0  0  0  0  0  0  0  0
    5.3100   -4.0210    0.0000 C   0  0  0  0  0  0  0  0  0  0  0  0
    6.8100   -4.8870    0.0000 C   0  0  0  0  0  0  0  0  0  0  0  0
    6.5051    1.7531    0.0000 H   0  0  0  0  0  0  0  0  0  0  0  0
    5.6391    0.2531    0.0000 H   0  0  0  0  0  0  0  0  0  0  0  0
    5.6391    0.6331    0.0000 H   0  0  0  0  0  0  0  0  0  0  0  0
    8.4450    0.6331    0.0000 H   0  0  0  0  0  0  0  0  0  0  0  0
    6.6037   -0.9954    0.0000 H   0  0  0  0  0  0  0  0  0  0  0  0
    8.1201   -0.6395    0.0000 H   0  0  0  0  0  0  0  0  0  0  0  0
    8.5186    0.0507    0.0000 H   0  0  0  0  0  0  0  0  0  0  0  0
    6.7130    3.2531    0.0000 H   0  0  0  0  0  0  0  0  0  0  0  0
    4.5001   -0.8861    0.0000 H   0  0  0  0  0  0  0  0  0  0  0  0
    6.7130    3.6331    0.0000 H   0  0  0  0  0  0  0  0  0  0  0  0
    3.1900   -1.4230    0.0000 H   0  0  0  0  0  0  0  0  0  0  0  0
    3.0000   -2.8260    0.0000 H   0  0  0  0  0  0  0  0  0  0  0  0
    5.8469    4.7531    0.0000 H   0  0  0  0  0  0  0  0  0  0  0  0
    4.1201   -3.6920    0.0000 H   0  0  0  0  0  0  0  0  0  0  0  0
    4.4440    4.5631    0.0000 H   0  0  0  0  0  0  0  0  0  0  0  0
    4.4440    2.3231    0.0000 H   0  0  0  0  0  0  0  0  0  0  0  0
    5.4300   -3.1550    0.0000 H   0  0  0  0  0  0  0  0  0  0  0  0
    9.3110    1.1331    0.0000 H   0  0  0  0  0  0  0  0  0  0  0  0
    8.7741    2.0631    0.0000 H   0  0  0  0  0  0  0  0  0  0  0  0
    8.1620   -1.4230    0.0000 H   0  0  0  0  0  0  0  0  0  0  0  0
    7.2321   -1.9599    0.0000 H   0  0  0  0  0  0  0  0  0  0  0  0
    4.7731    1.1331    0.0000 H   0  0  0  0  0  0  0  0  0  0  0  0
    3.1794    1.9681    0.0000 H   0  0  0  0  0  0  0  0  0  0  0  0
    3.9765    1.9681    0.0000 H   0  0  0  0  0  0  0  0  0  0  0  0
    4.7274   -4.2331    0.0000 H   0  0  0  0  0  0  0  0  0  0  0  0
    5.4177   -4.6316    0.0000 H   0  0  0  0  0  0  0  0  0  0  0  0
    7.0420    5.0631    0.0000 H   0  0  0  0  0  0  0  0  0  0  0  0
    7.5790    4.1331    0.0000 H   0  0  0  0  0  0  0  0  0  0  0  0
    2.0000   -2.8260    0.0000 H   0  0  0  0  0  0  0  0  0  0  0  0
    2.0000   -1.7520    0.0000 H   0  0  0  0  0  0  0  0  0  0  0  0
    2.6900   -0.5569    0.0000 H   0  0  0  0  0  0  0  0  0  0  0  0
    4.7731    5.7531    0.0000 H   0  0  0  0  0  0  0  0  0  0  0  0
    3.6200   -4.5580    0.0000 H   0  0  0  0  0  0  0  0  0  0  0  0
    3.5780    5.0631    0.0000 H   0  0  0  0  0  0  0  0  0  0  0  0
    2.1750    2.6331    0.0000 H   0  0  0  0  0  0  0  0  0  0  0  0
    2.7119    3.5631    0.0000 H   0  0  0  0  0  0  0  0  0  0  0  0
    8.1200   -5.4240    0.0000 H   0  0  0  0  0  0  0  0  0  0  0  0
    8.1200   -4.3501    0.0000 H   0  0  0  0  0  0  0  0  0  0  0  0
 18  1  1  6  0  0  0
 24  1  1  1  0  0  0
 19  2  1  6  0  0  0
 25  2  1  1  0  0  0
 20  3  1  1  0  0  0
  3 58  1  0  0  0  0
  4 24  1  0  0  0  0
  4 32  1  0  0  0  0
  5 25  1  0  0  0  0
  5 33  1  0  0  0  0
 27  6  1  1  0  0  0
  6 67  1  0  0  0  0
 29  7  1  6  0  0  0
  7 68  1  0  0  0  0
 30  8  1  1  0  0  0
  8 69  1  0  0  0  0
 31  9  1  1  0  0  0
  9 70  1  0  0  0  0
 10 35  1  0  0  0  0
 10 36  1  0  0  0  0
 11 36  2  0  0  0  0
 21 12  1  1  0  0  0
 12 54  1  0  0  0  0
 12 55  1  0  0  0  0
 22 13  1  1  0  0  0
 13 56  1  0  0  0  0
 13 57  1  0  0  0  0
 26 14  1  1  0  0  0
 14 63  1  0  0  0  0
 14 64  1  0  0  0  0
 28 15  1  6  0  0  0
 15 65  1  0  0  0  0
 15 66  1  0  0  0  0
 16 34  1  0  0  0  0
 16 71  1  0  0  0  0
 16 72  1  0  0  0  0
 17 36  1  0  0  0  0
 17 73  1  0  0  0  0
 17 74  1  0  0  0  0
 18 20  1  0  0  0  0
 18 21  1  0  0  0  0
 18 37  1  0  0  0  0
 19 20  1  0  0  0  0
 19 22  1  0  0  0  0
 19 38  1  0  0  0  0
 20 39  1  0  0  0  0
 21 23  1  0  0  0  0
 21 40  1  0  0  0  0
 22 23  1  0  0  0  0
 22 41  1  0  0  0  0
 23 42  1  0  0  0  0
 23 43  1  0  0  0  0
 24 26  1  0  0  0  0
 24 44  1  0  0  0  0
 25 27  1  0  0  0  0
 25 45  1  0  0  0  0
 26 29  1  0  0  0  0
 26 46  1  0  0  0  0
 27 28  1  0  0  0  0
 27 47  1  0  0  0  0
 28 30  1  0  0  0  0
 28 48  1  0  0  0  0
 29 31  1  0  0  0  0
 29 49  1  0  0  0  0
 30 33  1  0  0  0  0
 30 50  1  0  0  0  0
 31 32  1  0  0  0  0
 31 51  1  0  0  0  0
 32 34  1  6  0  0  0
 32 52  1  0  0  0  0
 33 35  1  6  0  0  0
 33 53  1  0  0  0  0
 34 59  1  0  0  0  0
 34 60  1  0  0  0  0
 35 61  1  0  0  0  0
 35 62  1  0  0  0  0
M  END
> <PUBCHEM_COMPOUND_CID>
21677480

> <PUBCHEM_COMPOUND_CANONICALIZED>
1

> <PUBCHEM_CACTVS_COMPLEXITY>
742

> <PUBCHEM_CACTVS_HBOND_ACCEPTOR>
16

> <PUBCHEM_CACTVS_HBOND_DONOR>
11

> <PUBCHEM_CACTVS_ROTATABLE_BOND>
8

> <PUBCHEM_CACTVS_SUBSKEYS>
AAADcfB7vAAAAAAAAAAAAAAAAAAAAAAAAAA0SIAAAAAAAAAAAAAAHgAQCAAACDzxgAcACABABgAIAAAAGAAAAAAAAAAAAIAAAAETEAIAwAArQAAHEAAHAAHwcA0AAAAAAAAAAAAAgAAUCACgAAAAAAAAAA==

> <PUBCHEM_IUPAC_OPENEYE_NAME>
[(2R,3S,4S,5R,6S)-4-amino-6-[(1S,2S,3R,4S,6R)-4,6-diamino-3-[(2R,3R,4R,5S,6R)-3-amino-6-(aminomethyl)-4,5-dihydroxy-tetrahydropyran-2-yl]oxy-2-hydroxy-cyclohexoxy]-3,5-dihydroxy-tetrahydropyran-2-yl]methyl carbamate

> <PUBCHEM_IUPAC_CAS_NAME>
carbamic acid [(2R,3S,4S,5R,6S)-4-amino-6-[(1S,2S,3R,4S,6R)-4,6-diamino-3-[[(2R,3R,4R,5S,6R)-3-amino-6-(aminomethyl)-4,5-dihydroxy-2-oxanyl]oxy]-2-hydroxycyclohexyl]oxy-3,5-dihydroxy-2-oxanyl]methyl ester

> <PUBCHEM_IUPAC_NAME>
[(2R,3S,4S,5R,6S)-4-amino-6-[(1S,2S,3R,4S,6R)-4,6-diamino-3-[(2R,3R,4R,5S,6R)-3-amino-6-(aminomethyl)-4,5-dihydroxyoxan-2-yl]oxy-2-hydroxycyclohexyl]oxy-3,5-dihydroxyoxan-2-yl]methyl carbamate

> <PUBCHEM_IUPAC_SYSTEMATIC_NAME>
[(2R,3S,4S,5R,6S)-6-[(1S,2S,3R,4S,6R)-3-[(2R,3R,4R,5S,6R)-6-(aminomethyl)-3-azanyl-4,5-bis(oxidanyl)oxan-2-yl]oxy-4,6-bis(azanyl)-2-oxidanyl-cyclohexyl]oxy-4-azanyl-3,5-bis(oxidanyl)oxan-2-yl]methyl carbamate

> <PUBCHEM_IUPAC_TRADITIONAL_NAME>
carbamic acid [(2R,3S,4S,5R,6S)-4-amino-6-[(1S,2S,3R,4S,6R)-4,6-diamino-3-[(2R,3R,4R,5S,6R)-3-amino-6-(aminomethyl)-4,5-dihydroxy-tetrahydropyran-2-yl]oxy-2-hydroxy-cyclohexoxy]-3,5-dihydroxy-tetrahydropyran-2-yl]methyl ester

> <PUBCHEM_IUPAC_INCHI>
InChI=1S/C19H38N6O11/c20-2-6-11(27)12(28)9(24)17(33-6)35-15-4(21)1-5(22)16(14(15)30)36-18-13(29)8(23)10(26)7(34-18)3-32-19(25)31/h4-18,26-30H,1-3,20-24H2,(H2,25,31)/t4-,5+,6+,7+,8-,9+,10+,11+,12+,13+,14-,15+,16-,17+,18+/m0/s1

> <PUBCHEM_IUPAC_INCHIKEY>
XCSTZNJIQFIVPE-FQSMHNGLSA-N

> <PUBCHEM_XLOGP3_AA>
-7.8

> <PUBCHEM_EXACT_MASS>
526.259856

> <PUBCHEM_MOLECULAR_FORMULA>
C19H38N6O11

> <PUBCHEM_MOLECULAR_WEIGHT>
526.53862

> <PUBCHEM_OPENEYE_CAN_SMILES>
C1C(C(C(C(C1N)OC2C(C(C(C(O2)COC(=O)N)O)N)O)O)OC3C(C(C(C(O3)CN)O)O)N)N

> <PUBCHEM_OPENEYE_ISO_SMILES>
C1[C@@H]([C@H]([C@@H]([C@H]([C@@H]1N)O[C@@H]2[C@@H]([C@H]([C@@H]([C@H](O2)COC(=O)N)O)N)O)O)O[C@@H]3[C@@H]([C@H]([C@@H]([C@H](O3)CN)O)O)N)N

> <PUBCHEM_CACTVS_TPSA>
321

> <PUBCHEM_MONOISOTOPIC_WEIGHT>
526.259856

> <PUBCHEM_TOTAL_CHARGE>
0

> <PUBCHEM_HEAVY_ATOM_COUNT>
36

> <PUBCHEM_ATOM_DEF_STEREO_COUNT>
15

> <PUBCHEM_ATOM_UDEF_STEREO_COUNT>
0

> <PUBCHEM_BOND_DEF_STEREO_COUNT>
0

> <PUBCHEM_BOND_UDEF_STEREO_COUNT>
0

> <PUBCHEM_ISOTOPIC_ATOM_COUNT>
0

> <PUBCHEM_COMPONENT_COUNT>
1

> <PUBCHEM_CACTVS_TAUTO_COUNT>
2

> <PUBCHEM_COORDINATE_TYPE>
1
5
255

> <PUBCHEM_BONDANNOTATIONS>
18  1  6
24  1  5
21  12  5
22  13  5
26  14  5
28  15  6
19  2  6
25  2  5
20  3  5
32  34  6
33  35  6
27  6  5
29  7  6
30  8  5
31  9  5

$$$$

