7846951
  -OEChem-06241222482D

 44 47  0     0  0  0  0  0  0999 V2000
   11.2031    2.2405    0.0000 Cl  0  0  0  0  0  0  0  0  0  0  0  0
    4.9718   -3.2241    0.0000 S   0  0  0  0  0  0  0  0  0  0  0  0
    6.8069    0.7646    0.0000 O   0  0  0  0  0  0  0  0  0  0  0  0
    7.6730    4.2646    0.0000 O   0  0  0  0  0  0  0  0  0  0  0  0
    7.6730   -0.7354    0.0000 O   0  0  0  0  0  0  0  0  0  0  0  0
    5.9409    4.2646    0.0000 O   0  0  0  0  0  0  0  0  0  0  0  0
    4.1671   -1.8302    0.0000 N   0  0  0  0  0  0  0  0  0  0  0  0
    8.5390    2.7646    0.0000 C   0  0  0  0  0  0  0  0  0  0  0  0
    7.6730    2.2646    0.0000 C   0  0  0  0  0  0  0  0  0  0  0  0
    8.5390    3.7646    0.0000 C   0  0  0  0  0  0  0  0  0  0  0  0
    5.9409   -1.7354    0.0000 C   0  0  0  0  0  0  0  0  0  0  0  0
    7.6730    1.2646    0.0000 C   0  0  0  0  0  0  0  0  0  0  0  0
    5.9409   -0.7354    0.0000 C   0  0  0  0  0  0  0  0  0  0  0  0
    9.4329    2.2300    0.0000 C   0  0  0  0  0  0  0  0  0  0  0  0
    5.0749   -2.2354    0.0000 C   0  0  0  0  0  0  0  0  0  0  0  0
   10.3390    3.7855    0.0000 C   0  0  0  0  0  0  0  0  0  0  0  0
    9.4329    4.2993    0.0000 C   0  0  0  0  0  0  0  0  0  0  0  0
    6.8069    2.7646    0.0000 C   0  0  0  0  0  0  0  0  0  0  0  0
   10.3390    2.7438    0.0000 C   0  0  0  0  0  0  0  0  0  0  0  0
    6.8069   -0.2354    0.0000 C   0  0  0  0  0  0  0  0  0  0  0  0
    4.0000   -3.4333    0.0000 C   0  0  0  0  0  0  0  0  0  0  0  0
    3.5000   -2.5673    0.0000 C   0  0  0  0  0  0  0  0  0  0  0  0
    6.8069    3.7646    0.0000 C   0  0  0  0  0  0  0  0  0  0  0  0
   11.2031    4.2888    0.0000 C   0  0  0  0  0  0  0  0  0  0  0  0
    3.5000   -4.2993    0.0000 C   0  0  0  0  0  0  0  0  0  0  0  0
    2.5000   -2.5673    0.0000 C   0  0  0  0  0  0  0  0  0  0  0  0
    2.5000   -4.2993    0.0000 C   0  0  0  0  0  0  0  0  0  0  0  0
    2.0000   -3.4333    0.0000 C   0  0  0  0  0  0  0  0  0  0  0  0
    6.1530   -2.3180    0.0000 H   0  0  0  0  0  0  0  0  0  0  0  0
    6.5515   -1.6277    0.0000 H   0  0  0  0  0  0  0  0  0  0  0  0
    7.8850    0.6820    0.0000 H   0  0  0  0  0  0  0  0  0  0  0  0
    8.2835    1.3723    0.0000 H   0  0  0  0  0  0  0  0  0  0  0  0
    5.7288   -0.1527    0.0000 H   0  0  0  0  0  0  0  0  0  0  0  0
    5.3303   -0.8430    0.0000 H   0  0  0  0  0  0  0  0  0  0  0  0
    9.4258    1.6100    0.0000 H   0  0  0  0  0  0  0  0  0  0  0  0
    9.4258    4.9193    0.0000 H   0  0  0  0  0  0  0  0  0  0  0  0
    6.2700    2.4546    0.0000 H   0  0  0  0  0  0  0  0  0  0  0  0
   11.5151    3.7531    0.0000 H   0  0  0  0  0  0  0  0  0  0  0  0
   11.7388    4.6009    0.0000 H   0  0  0  0  0  0  0  0  0  0  0  0
   10.8910    4.8245    0.0000 H   0  0  0  0  0  0  0  0  0  0  0  0
    3.8100   -4.8362    0.0000 H   0  0  0  0  0  0  0  0  0  0  0  0
    2.1900   -2.0303    0.0000 H   0  0  0  0  0  0  0  0  0  0  0  0
    2.1900   -4.8362    0.0000 H   0  0  0  0  0  0  0  0  0  0  0  0
    1.3800   -3.4333    0.0000 H   0  0  0  0  0  0  0  0  0  0  0  0
  1 19  1  0  0  0  0
  2 15  1  0  0  0  0
  2 21  1  0  0  0  0
  3 12  1  0  0  0  0
  3 20  1  0  0  0  0
  4 10  1  0  0  0  0
  4 23  1  0  0  0  0
  5 20  2  0  0  0  0
  6 23  2  0  0  0  0
  7 15  2  0  0  0  0
  7 22  1  0  0  0  0
  8  9  1  0  0  0  0
  8 10  2  0  0  0  0
  8 14  1  0  0  0  0
  9 12  1  0  0  0  0
  9 18  2  0  0  0  0
 10 17  1  0  0  0  0
 11 13  1  0  0  0  0
 11 15  1  0  0  0  0
 11 29  1  0  0  0  0
 11 30  1  0  0  0  0
 12 31  1  0  0  0  0
 12 32  1  0  0  0  0
 13 20  1  0  0  0  0
 13 33  1  0  0  0  0
 13 34  1  0  0  0  0
 14 19  2  0  0  0  0
 14 35  1  0  0  0  0
 16 17  2  0  0  0  0
 16 19  1  0  0  0  0
 16 24  1  0  0  0  0
 17 36  1  0  0  0  0
 18 23  1  0  0  0  0
 18 37  1  0  0  0  0
 21 22  1  0  0  0  0
 21 25  2  0  0  0  0
 22 26  2  0  0  0  0
 24 38  1  0  0  0  0
 24 39  1  0  0  0  0
 24 40  1  0  0  0  0
 25 27  1  0  0  0  0
 25 41  1  0  0  0  0
 26 28  1  0  0  0  0
 26 42  1  0  0  0  0
 27 28  2  0  0  0  0
 27 43  1  0  0  0  0
 28 44  1  0  0  0  0
M  END
> <PUBCHEM_COMPOUND_CID>
7846951

> <PUBCHEM_COMPOUND_CANONICALIZED>
1

> <PUBCHEM_CACTVS_COMPLEXITY>
642

> <PUBCHEM_CACTVS_HBOND_ACCEPTOR>
6

> <PUBCHEM_CACTVS_HBOND_DONOR>
0

> <PUBCHEM_CACTVS_ROTATABLE_BOND>
6

> <PUBCHEM_CACTVS_SUBSKEYS>
AAADceB6OABEAAAAAAAAAAAAAAAAAWAAAAAwYIAAAAAAAFiB9AAAHgYAAAAADA6h3iIyz7IIFAisAyTyTACD+KBhLzhImD02btgMJrLls5uGOijkwBHo6Qf0wPAOQCABIAAJAQCAQAJAABICAAAAAAAAAA==

> <PUBCHEM_IUPAC_OPENEYE_NAME>
(6-chloro-7-methyl-2-oxo-chromen-4-yl)methyl 3-(1,3-benzothiazol-2-yl)propanoate

> <PUBCHEM_IUPAC_CAS_NAME>
3-(1,3-benzothiazol-2-yl)propanoic acid (6-chloro-7-methyl-2-oxo-1-benzopyran-4-yl)methyl ester

> <PUBCHEM_IUPAC_NAME>
(6-chloro-7-methyl-2-oxochromen-4-yl)methyl 3-(1,3-benzothiazol-2-yl)propanoate

> <PUBCHEM_IUPAC_SYSTEMATIC_NAME>
(6-chloranyl-7-methyl-2-oxidanylidene-chromen-4-yl)methyl 3-(1,3-benzothiazol-2-yl)propanoate

> <PUBCHEM_IUPAC_TRADITIONAL_NAME>
3-(1,3-benzothiazol-2-yl)propionic acid (6-chloro-2-keto-7-methyl-chromen-4-yl)methyl ester

> <PUBCHEM_IUPAC_INCHI>
InChI=1S/C21H16ClNO4S/c1-12-8-17-14(10-15(12)22)13(9-21(25)27-17)11-26-20(24)7-6-19-23-16-4-2-3-5-18(16)28-19/h2-5,8-10H,6-7,11H2,1H3

> <PUBCHEM_IUPAC_INCHIKEY>
XWJWLUJBTZHUIJ-UHFFFAOYSA-N

> <PUBCHEM_XLOGP3_AA>
4.5

> <PUBCHEM_EXACT_MASS>
413.048857

> <PUBCHEM_MOLECULAR_FORMULA>
C21H16ClNO4S

> <PUBCHEM_MOLECULAR_WEIGHT>
413.87404

> <PUBCHEM_OPENEYE_CAN_SMILES>
CC1=C(C=C2C(=CC(=O)OC2=C1)COC(=O)CCC3=NC4=CC=CC=C4S3)Cl

> <PUBCHEM_OPENEYE_ISO_SMILES>
CC1=C(C=C2C(=CC(=O)OC2=C1)COC(=O)CCC3=NC4=CC=CC=C4S3)Cl

> <PUBCHEM_CACTVS_TPSA>
93.7

> <PUBCHEM_MONOISOTOPIC_WEIGHT>
413.048857

> <PUBCHEM_TOTAL_CHARGE>
0

> <PUBCHEM_HEAVY_ATOM_COUNT>
28

> <PUBCHEM_ATOM_DEF_STEREO_COUNT>
0

> <PUBCHEM_ATOM_UDEF_STEREO_COUNT>
0

> <PUBCHEM_BOND_DEF_STEREO_COUNT>
0

> <PUBCHEM_BOND_UDEF_STEREO_COUNT>
0

> <PUBCHEM_ISOTOPIC_ATOM_COUNT>
0

> <PUBCHEM_COMPONENT_COUNT>
1

> <PUBCHEM_CACTVS_TAUTO_COUNT>
2

> <PUBCHEM_COORDINATE_TYPE>
1
5
255

> <PUBCHEM_BONDANNOTATIONS>
10  17  8
14  19  8
16  17  8
16  19  8
18  23  8
2  15  8
2  21  8
21  22  8
21  25  8
22  26  8
25  27  8
26  28  8
27  28  8
4  10  8
4  23  8
7  15  8
7  22  8
8  10  8
8  14  8
8  9  8
9  18  8

$$$$

