443634
  -OEChem-07051213023D

 35 37  0     1  0  0  0  0  0999 V2000
    4.6981    0.9331   -1.1051 O   0  0  0  0  0  0  0  0  0  0  0  0
   -4.5884   -0.4065    0.4708 O   0  0  0  0  0  0  0  0  0  0  0  0
   -3.1276   -1.7894   -0.6484 O   0  0  0  0  0  0  0  0  0  0  0  0
    1.0652    1.2066   -0.0009 N   0  0  0  0  0  0  0  0  0  0  0  0
   -0.5961   -0.9892   -0.0628 N   0  0  0  0  0  0  0  0  0  0  0  0
    2.9597   -0.2250    0.0392 C   0  0  0  0  0  0  0  0  0  0  0  0
    1.5801   -0.0331    0.0034 C   0  0  0  0  0  0  0  0  0  0  0  0
    3.8875    0.9488    0.0736 C   0  0  1  0  0  0  0  0  0  0  0  0
    0.7364   -1.1483   -0.0280 C   0  0  0  0  0  0  0  0  0  0  0  0
   -1.1109    0.2505   -0.0671 C   0  0  0  0  0  0  0  0  0  0  0  0
   -0.2673    1.3657   -0.0357 C   0  0  0  0  0  0  0  0  0  0  0  0
    3.5130   -1.5041    0.0443 C   0  0  0  0  0  0  0  0  0  0  0  0
    1.2959   -2.4244   -0.0228 C   0  0  0  0  0  0  0  0  0  0  0  0
   -2.4905    0.4425   -0.1029 C   0  0  0  0  0  0  0  0  0  0  0  0
    2.6766   -2.6098    0.0132 C   0  0  0  0  0  0  0  0  0  0  0  0
    4.8127    0.9407    1.2889 C   0  0  0  0  0  0  0  0  0  0  0  0
   -0.8267    2.6417   -0.0411 C   0  0  0  0  0  0  0  0  0  0  0  0
   -3.0439    1.7216   -0.1081 C   0  0  0  0  0  0  0  0  0  0  0  0
   -2.2075    2.8272   -0.0770 C   0  0  0  0  0  0  0  0  0  0  0  0
   -3.3993   -0.6980   -0.1366 C   0  0  0  0  0  0  0  0  0  0  0  0
   -5.5672   -1.4508    0.5032 C   0  0  0  0  0  0  0  0  0  0  0  0
    3.3463    1.9002    0.0656 H   0  0  0  0  0  0  0  0  0  0  0  0
    4.5879   -1.6588    0.0605 H   0  0  0  0  0  0  0  0  0  0  0  0
    0.6495   -3.2994   -0.0478 H   0  0  0  0  0  0  0  0  0  0  0  0
    3.0927   -3.6125    0.0140 H   0  0  0  0  0  0  0  0  0  0  0  0
    5.4232    1.8508    1.3021 H   0  0  0  0  0  0  0  0  0  0  0  0
    5.5190    0.1038    1.2669 H   0  0  0  0  0  0  0  0  0  0  0  0
    4.2443    0.8948    2.2235 H   0  0  0  0  0  0  0  0  0  0  0  0
   -0.1803    3.5168   -0.0178 H   0  0  0  0  0  0  0  0  0  0  0  0
   -4.1166    1.8882   -0.1519 H   0  0  0  0  0  0  0  0  0  0  0  0
   -2.6231    3.8301   -0.0844 H   0  0  0  0  0  0  0  0  0  0  0  0
    5.2833    1.7090   -1.0698 H   0  0  0  0  0  0  0  0  0  0  0  0
   -5.1816   -2.3119    1.0569 H   0  0  0  0  0  0  0  0  0  0  0  0
   -5.8451   -1.7387   -0.5150 H   0  0  0  0  0  0  0  0  0  0  0  0
   -6.4542   -1.0701    1.0163 H   0  0  0  0  0  0  0  0  0  0  0  0
  1  8  1  0  0  0  0
  1 32  1  0  0  0  0
  2 20  1  0  0  0  0
  2 21  1  0  0  0  0
  3 20  2  0  0  0  0
  4  7  1  0  0  0  0
  4 11  2  0  0  0  0
  5  9  1  0  0  0  0
  5 10  2  0  0  0  0
  6  7  2  0  0  0  0
  6  8  1  0  0  0  0
  6 12  1  0  0  0  0
  7  9  1  0  0  0  0
  8 16  1  0  0  0  0
  8 22  1  0  0  0  0
  9 13  2  0  0  0  0
 10 11  1  0  0  0  0
 10 14  1  0  0  0  0
 11 17  1  0  0  0  0
 12 15  2  0  0  0  0
 12 23  1  0  0  0  0
 13 15  1  0  0  0  0
 13 24  1  0  0  0  0
 14 18  2  0  0  0  0
 14 20  1  0  0  0  0
 15 25  1  0  0  0  0
 16 26  1  0  0  0  0
 16 27  1  0  0  0  0
 16 28  1  0  0  0  0
 17 19  2  0  0  0  0
 17 29  1  0  0  0  0
 18 19  1  0  0  0  0
 18 30  1  0  0  0  0
 19 31  1  0  0  0  0
 21 33  1  0  0  0  0
 21 34  1  0  0  0  0
 21 35  1  0  0  0  0
M  END
> <PUBCHEM_COMPOUND_CID>
443634

> <PUBCHEM_CONFORMER_RMSD>
0.6

> <PUBCHEM_CONFORMER_DIVERSEORDER>
3
7
9
6
4
8
1
10
5
2

> <PUBCHEM_MMFF94_PARTIAL_CHARGES>
27
1 -0.68
10 0.31
11 0.31
12 -0.15
13 -0.15
14 0.09
15 -0.15
17 -0.15
18 -0.15
19 -0.15
2 -0.43
20 0.63
21 0.28
23 0.15
24 0.15
25 0.15
29 0.15
3 -0.57
30 0.15
31 0.15
32 0.4
4 -0.62
5 -0.62
6 -0.14
7 0.31
8 0.42
9 0.31

> <PUBCHEM_EFFECTIVE_ROTOR_COUNT>
3

> <PUBCHEM_PHARMACOPHORE_FEATURES>
8
1 1 acceptor
1 1 donor
1 3 acceptor
1 4 acceptor
1 5 acceptor
6 10 11 14 17 18 19 rings
6 4 5 7 9 10 11 rings
6 6 7 9 12 13 15 rings

> <PUBCHEM_HEAVY_ATOM_COUNT>
21

> <PUBCHEM_ATOM_DEF_STEREO_COUNT>
0

> <PUBCHEM_ATOM_UDEF_STEREO_COUNT>
1

> <PUBCHEM_BOND_DEF_STEREO_COUNT>
0

> <PUBCHEM_BOND_UDEF_STEREO_COUNT>
0

> <PUBCHEM_ISOTOPIC_ATOM_COUNT>
0

> <PUBCHEM_COMPONENT_COUNT>
1

> <PUBCHEM_CACTVS_TAUTO_COUNT>
1

> <PUBCHEM_CONFORMER_ID>
0006C4F200000003

> <PUBCHEM_MMFF94_ENERGY>
69.8712

> <PUBCHEM_FEATURE_SELFOVERLAP>
40.678

> <PUBCHEM_SHAPE_FINGERPRINT>
10090160 65 18202005391322825454
10498660 4 18411419548617701604
10608611 8 18265901448076298880
10616163 171 18337109097897977063
10670039 82 18271512170599161188
10906281 52 18199447936156489161
10967382 1 18410575041782068718
1100329 8 18122626041764778054
11405975 8 18194966476684466752
11578080 2 17273149113627967382
11806522 49 18342174449483300655
11963148 33 18270123396333691554
12403259 415 18186811275131343416
12553582 1 18336836290566118423
12596602 18 17168416070212598387
12839892 36 18267324143387902354
12916754 54 18263358255921586562
13140716 1 18050854312339433690
13224815 77 18410576223077377744
13544653 18 18343297063940543955
13862211 1 18339367353358692411
14178342 30 18268439095328233040
14223421 5 18265054806816168868
14289901 80 18341048613916617136
14787075 74 18201436909393381259
14790565 3 18194391195864951965
14863182 85 18339629071285687230
15196674 1 18411136986707790021
15442244 35 18050852418417384250
15536298 74 18335703905316453622
15927050 60 17328576220417895804
16945 1 18335997401431924084
17349148 13 17917991672470473208
17492 89 18268148836737668379
1813 80 17632569462075187509
19591789 44 17332510281722425189
20510252 161 18335140929250558361
20691752 17 17346026904891224986
21267235 1 18410566323093897094
21501502 16 18267022937004008920
21792934 111 18338245967747146057
221490 88 18265611168538165118
2334 1 18338519749999488310
23366157 5 17986668384570989562
23402539 116 18338808827052599239
23557571 272 18261943115874266956
23558518 356 18127967705491741001
23559900 14 17975986671713946866
2748010 2 18266179624248886740
2871803 45 18412548729747358151
312423 11 18271802497007517978
335352 9 17833834150199762844
34934 24 18409457994304002655
350125 39 18337953502017800162
352729 6 17829897881682754965
474 4 17846206783344702004
474229 33 18411702045817259842
5104073 3 18337393862777114361
5283173 99 17987248905219866637
5486654 2 18339919312242870590
7097593 13 17409097240812721467
9709674 26 17974572703913026799

> <PUBCHEM_SHAPE_MULTIPOLES>
404.6
9.51
2.91
0.76
1.77
0.22
-0.06
-1.63
-1.3
0.59
0.08
-0.43
0.08
0.33

> <PUBCHEM_SHAPE_SELFOVERLAP>
900.051

> <PUBCHEM_SHAPE_VOLUME>
216.6

> <PUBCHEM_COORDINATE_TYPE>
2
5
10

$$$$

