440321
  -OEChem-07051212493D

 32 31  0     1  0  0  0  0  0999 V2000
    2.4443    1.7859    1.5680 O   0  0  0  0  0  0  0  0  0  0  0  0
   -4.6157    0.8011   -0.9239 O   0  0  0  0  0  0  0  0  0  0  0  0
    1.8218    3.0086   -0.2288 O   0  0  0  0  0  0  0  0  0  0  0  0
   -5.0267   -1.2092    0.0542 O   0  0  0  0  0  0  0  0  0  0  0  0
    3.5447   -1.7062   -1.4150 O   0  0  0  0  0  0  0  0  0  0  0  0
    2.5119   -0.4872    0.2789 N   0  0  0  0  0  0  0  0  0  0  0  0
   -2.7069   -1.1261    1.4544 N   0  0  0  0  0  0  0  0  0  0  0  0
   -0.4564    0.2938    0.0336 C   0  0  0  0  0  0  0  0  0  0  0  0
    0.6323    0.3721   -1.0460 C   0  0  0  0  0  0  0  0  0  0  0  0
   -1.8653    0.0983   -0.5379 C   0  0  0  0  0  0  0  0  0  0  0  0
    2.0524    0.6180   -0.5216 C   0  0  1  0  0  0  0  0  0  0  0  0
   -2.9509   -0.0086    0.5435 C   0  0  1  0  0  0  0  0  0  0  0  0
    2.0924    1.9196    0.2667 C   0  0  0  0  0  0  0  0  0  0  0  0
   -4.3016   -0.2378   -0.1059 C   0  0  0  0  0  0  0  0  0  0  0  0
    3.2224   -1.5602   -0.2389 C   0  0  0  0  0  0  0  0  0  0  0  0
    3.6012   -2.5620    0.8187 C   0  0  0  0  0  0  0  0  0  0  0  0
   -0.4523    1.2080    0.6384 H   0  0  0  0  0  0  0  0  0  0  0  0
   -0.2082   -0.5349    0.7054 H   0  0  0  0  0  0  0  0  0  0  0  0
    0.6188   -0.5579   -1.6288 H   0  0  0  0  0  0  0  0  0  0  0  0
    0.3691    1.1787   -1.7427 H   0  0  0  0  0  0  0  0  0  0  0  0
   -2.0895    0.9397   -1.2059 H   0  0  0  0  0  0  0  0  0  0  0  0
   -1.8786   -0.8007   -1.1689 H   0  0  0  0  0  0  0  0  0  0  0  0
    2.7426    0.7327   -1.3658 H   0  0  0  0  0  0  0  0  0  0  0  0
   -3.0122    0.9136    1.1321 H   0  0  0  0  0  0  0  0  0  0  0  0
    2.2955   -0.4781    1.2719 H   0  0  0  0  0  0  0  0  0  0  0  0
   -1.8774   -0.9437    2.0166 H   0  0  0  0  0  0  0  0  0  0  0  0
   -2.5089   -1.9723    0.9214 H   0  0  0  0  0  0  0  0  0  0  0  0
    3.9798   -3.4723    0.3455 H   0  0  0  0  0  0  0  0  0  0  0  0
    4.3793   -2.1389    1.4598 H   0  0  0  0  0  0  0  0  0  0  0  0
    2.7287   -2.8198    1.4256 H   0  0  0  0  0  0  0  0  0  0  0  0
    2.4520    2.6478    2.0363 H   0  0  0  0  0  0  0  0  0  0  0  0
   -5.4851    0.6729   -1.3599 H   0  0  0  0  0  0  0  0  0  0  0  0
  1 13  1  0  0  0  0
  1 31  1  0  0  0  0
  2 14  1  0  0  0  0
  2 32  1  0  0  0  0
  3 13  2  0  0  0  0
  4 14  2  0  0  0  0
  5 15  2  0  0  0  0
  6 11  1  0  0  0  0
  6 15  1  0  0  0  0
  6 25  1  0  0  0  0
  7 12  1  0  0  0  0
  7 26  1  0  0  0  0
  7 27  1  0  0  0  0
  8  9  1  0  0  0  0
  8 10  1  0  0  0  0
  8 17  1  0  0  0  0
  8 18  1  0  0  0  0
  9 11  1  0  0  0  0
  9 19  1  0  0  0  0
  9 20  1  0  0  0  0
 10 12  1  0  0  0  0
 10 21  1  0  0  0  0
 10 22  1  0  0  0  0
 11 13  1  0  0  0  0
 11 23  1  0  0  0  0
 12 14  1  0  0  0  0
 12 24  1  0  0  0  0
 15 16  1  0  0  0  0
 16 28  1  0  0  0  0
 16 29  1  0  0  0  0
 16 30  1  0  0  0  0
M  END
> <PUBCHEM_COMPOUND_CID>
440321

> <PUBCHEM_CONFORMER_RMSD>
0.8

> <PUBCHEM_CONFORMER_DIVERSEORDER>
1
68
48
64
38
71
74
40
58
41
32
4
66
85
50
91
79
14
95
11
90
77
21
9
35
45
59
93
73
42
92
52
82
34
31
83
65
6
57
98
20
61
44
60
54
47
67
62
36
33
12
30
39
53
76
88
10
13
18
55
97
29
51
26
84
8
86
37
17
69
94
3
27
70
43
19
80
87
96
89
56
5
28
49
46
81
72
99
7
63
15
78
25
23
75
16
22
24
2

> <PUBCHEM_MMFF94_PARTIAL_CHARGES>
18
1 -0.65
11 0.36
12 0.33
13 0.66
14 0.66
15 0.57
16 0.06
2 -0.65
25 0.37
26 0.36
27 0.36
3 -0.57
31 0.5
32 0.5
4 -0.57
5 -0.57
6 -0.73
7 -0.99

> <PUBCHEM_EFFECTIVE_ROTOR_COUNT>
8

> <PUBCHEM_PHARMACOPHORE_FEATURES>
10
1 1 acceptor
1 2 acceptor
1 3 acceptor
1 4 acceptor
1 5 acceptor
1 6 donor
1 7 cation
1 7 donor
3 1 3 13 anion
3 2 4 14 anion

> <PUBCHEM_HEAVY_ATOM_COUNT>
16

> <PUBCHEM_ATOM_DEF_STEREO_COUNT>
2

> <PUBCHEM_ATOM_UDEF_STEREO_COUNT>
0

> <PUBCHEM_BOND_DEF_STEREO_COUNT>
0

> <PUBCHEM_BOND_UDEF_STEREO_COUNT>
0

> <PUBCHEM_ISOTOPIC_ATOM_COUNT>
0

> <PUBCHEM_COMPONENT_COUNT>
1

> <PUBCHEM_CACTVS_TAUTO_COUNT>
2

> <PUBCHEM_CONFORMER_ID>
0006B80100000001

> <PUBCHEM_MMFF94_ENERGY>
17.7074

> <PUBCHEM_FEATURE_SELFOVERLAP>
50.862

> <PUBCHEM_SHAPE_FINGERPRINT>
11405975 8 18409447007972844873
13533116 47 18411132516290725211
14251764 30 16806993563206000646
14289901 80 18265050237350943017
18186145 218 18202570592287294917
20369508 70 18412547630209427990
20559304 39 17313097557983751176
20645477 70 18408319973530049959
20671657 53 18339641247359150282
20871998 22 18262237858548098302
22169311 21 18270681965899264771
2255824 54 18336823104974061958
22943178 12 18130504129004568907
23559900 14 18342178856072442469
31174 14 18334581213354958100
312423 11 18114726188622560289
3286 77 18412826914631303759
3421961 26 18410862087727079290
5104073 3 18261387833138985427
7364860 26 18260828159913320356
7615 1 17458610225465065817
81228 2 17614281491513669208
94968 8 18343297102521877350
9709674 26 18200873964120068723

> <PUBCHEM_SHAPE_MULTIPOLES>
289.96
9.27
2.48
1.16
10.02
0.67
-0.12
-4.5
0.27
-3.57
-0.47
-0.4
-0.08
0.79

> <PUBCHEM_SHAPE_SELFOVERLAP>
559.352

> <PUBCHEM_SHAPE_VOLUME>
174.7

> <PUBCHEM_COORDINATE_TYPE>
2
5
10

$$$$

