186920
  -OEChem-07051213063D

 23 25  0     1  0  0  0  0  0999 V2000
   -1.6019    1.4172   -1.0902 O   0  0  0  0  0  0  0  0  0  0  0  0
   -2.0481   -0.7764    1.8169 O   0  0  0  0  0  0  0  0  0  0  0  0
   -1.1202   -1.4714   -1.6075 O   0  0  0  0  0  0  0  0  0  0  0  0
   -2.0098    0.9702    0.2053 C   0  0  2  0  0  0  0  0  0  0  0  0
   -0.6826    1.6498   -0.0026 C   0  0  1  0  0  0  0  0  0  0  0  0
   -2.0531   -0.5139    0.4118 C   0  0  1  0  0  0  0  0  0  0  0  0
    0.5598    0.8021    0.0416 C   0  0  0  0  0  0  0  0  0  0  0  0
   -0.8722   -1.2802   -0.2142 C   0  0  2  0  0  0  0  0  0  0  0  0
    0.4757   -0.6065   -0.0393 C   0  0  0  0  0  0  0  0  0  0  0  0
    1.8327    1.3830    0.1665 C   0  0  0  0  0  0  0  0  0  0  0  0
    1.6416   -1.3876   -0.0101 C   0  0  0  0  0  0  0  0  0  0  0  0
    2.9870    0.5992    0.2055 C   0  0  0  0  0  0  0  0  0  0  0  0
    2.8911   -0.7855    0.1164 C   0  0  0  0  0  0  0  0  0  0  0  0
   -2.8100    1.5069    0.6959 H   0  0  0  0  0  0  0  0  0  0  0  0
   -0.6064    2.6738    0.3503 H   0  0  0  0  0  0  0  0  0  0  0  0
   -3.0016   -0.8949    0.0178 H   0  0  0  0  0  0  0  0  0  0  0  0
   -0.8212   -2.2762    0.2450 H   0  0  0  0  0  0  0  0  0  0  0  0
    1.9294    2.4645    0.2334 H   0  0  0  0  0  0  0  0  0  0  0  0
    1.5797   -2.4701   -0.0877 H   0  0  0  0  0  0  0  0  0  0  0  0
   -1.2148   -0.4368    2.1854 H   0  0  0  0  0  0  0  0  0  0  0  0
   -1.9461   -1.9775   -1.6921 H   0  0  0  0  0  0  0  0  0  0  0  0
    3.9600    1.0717    0.3025 H   0  0  0  0  0  0  0  0  0  0  0  0
    3.7888   -1.3961    0.1417 H   0  0  0  0  0  0  0  0  0  0  0  0
  1  4  1  0  0  0  0
  1  5  1  0  0  0  0
  2  6  1  0  0  0  0
  2 20  1  0  0  0  0
  3  8  1  0  0  0  0
  3 21  1  0  0  0  0
  4  5  1  0  0  0  0
  4  6  1  0  0  0  0
  4 14  1  0  0  0  0
  5  7  1  0  0  0  0
  5 15  1  0  0  0  0
  6  8  1  0  0  0  0
  6 16  1  0  0  0  0
  7  9  1  0  0  0  0
  7 10  2  0  0  0  0
  8  9  1  0  0  0  0
  8 17  1  0  0  0  0
  9 11  2  0  0  0  0
 10 12  1  0  0  0  0
 10 18  1  0  0  0  0
 11 13  1  0  0  0  0
 11 19  1  0  0  0  0
 12 13  2  0  0  0  0
 12 22  1  0  0  0  0
 13 23  1  0  0  0  0
M  END
> <PUBCHEM_COMPOUND_CID>
186920

> <PUBCHEM_CONFORMER_RMSD>
0.4

> <PUBCHEM_CONFORMER_DIVERSEORDER>
3
19
12
5
14
11
18
2
20
8
10
6
15
4
9
1
17
16
7
13

> <PUBCHEM_MMFF94_PARTIAL_CHARGES>
21
1 -0.3
10 -0.15
11 -0.15
12 -0.15
13 -0.15
14 0.1
15 0.1
18 0.15
19 0.15
2 -0.68
20 0.4
21 0.4
22 0.15
23 0.15
3 -0.68
4 -0.05
5 0.08
6 0.38
7 -0.03
8 0.42
9 -0.14

> <PUBCHEM_EFFECTIVE_ROTOR_COUNT>
0.6

> <PUBCHEM_PHARMACOPHORE_FEATURES>
7
1 1 acceptor
1 2 acceptor
1 2 donor
1 3 acceptor
1 3 donor
6 7 9 10 11 12 13 rings
7 1 4 5 6 7 8 9 rings

> <PUBCHEM_HEAVY_ATOM_COUNT>
13

> <PUBCHEM_ATOM_DEF_STEREO_COUNT>
0

> <PUBCHEM_ATOM_UDEF_STEREO_COUNT>
4

> <PUBCHEM_BOND_DEF_STEREO_COUNT>
0

> <PUBCHEM_BOND_UDEF_STEREO_COUNT>
0

> <PUBCHEM_ISOTOPIC_ATOM_COUNT>
0

> <PUBCHEM_COMPONENT_COUNT>
1

> <PUBCHEM_CACTVS_TAUTO_COUNT>
1

> <PUBCHEM_CONFORMER_ID>
0002DA2800000003

> <PUBCHEM_MMFF94_ENERGY>
30.5055

> <PUBCHEM_FEATURE_SELFOVERLAP>
35.531

> <PUBCHEM_SHAPE_FINGERPRINT>
12138202 97 17774450493720079485
12423570 1 9741814429920698269
12524768 44 18264490774604907054
12696612 119 18412537691834355660
12932764 1 18261110743023021024
13024252 1 17561088016076923959
15775835 57 18188205412255478240
16945 1 18337945706018986360
17844478 74 18200863011441533648
20511035 2 18267579285344939004
23552423 10 18342742879851882508
23559900 14 18189051058111908990
241688 4 17975425619792776379
25 1 17621048980723524965
2748010 2 18338234976609298188
369184 2 18410859866849016600
5084963 1 18114188488475832410

> <PUBCHEM_SHAPE_MULTIPOLES>
249.93
3.8
1.81
1.04
1.82
0.14
0.05
0.01
0.57
-0.14
-0.26
-0.72
-0.28
0.19

> <PUBCHEM_SHAPE_SELFOVERLAP>
545.058

> <PUBCHEM_SHAPE_VOLUME>
135.6

> <PUBCHEM_COORDINATE_TYPE>
2
5
10

$$$$

