11094749
  -OEChem-07051213063D

 19 21  0     1  0  0  0  0  0999 V2000
    2.1129   -1.1788    0.7789 O   0  0  0  0  0  0  0  0  0  0  0  0
    1.2415   -1.1697   -0.3622 C   0  0  2  0  0  0  0  0  0  0  0  0
    2.4152   -0.2117   -0.2380 C   0  0  1  0  0  0  0  0  0  0  0  0
   -0.1461   -0.6011   -0.1762 C   0  0  0  0  0  0  0  0  0  0  0  0
    2.0780    1.2135   -0.1054 C   0  0  0  0  0  0  0  0  0  0  0  0
   -0.3362    0.7940   -0.0163 C   0  0  0  0  0  0  0  0  0  0  0  0
    0.8287    1.6971   -0.0081 C   0  0  0  0  0  0  0  0  0  0  0  0
   -1.2777   -1.4317   -0.1627 C   0  0  0  0  0  0  0  0  0  0  0  0
   -1.6255    1.3189    0.1426 C   0  0  0  0  0  0  0  0  0  0  0  0
   -2.5588   -0.9018   -0.0018 C   0  0  0  0  0  0  0  0  0  0  0  0
   -2.7320    0.4712    0.1491 C   0  0  0  0  0  0  0  0  0  0  0  0
    1.3557   -1.9850   -1.0698 H   0  0  0  0  0  0  0  0  0  0  0  0
    3.2850   -0.4091   -0.8544 H   0  0  0  0  0  0  0  0  0  0  0  0
    2.9079    1.9144   -0.0879 H   0  0  0  0  0  0  0  0  0  0  0  0
    0.6576    2.7641    0.0877 H   0  0  0  0  0  0  0  0  0  0  0  0
   -1.1615   -2.5066   -0.2817 H   0  0  0  0  0  0  0  0  0  0  0  0
   -1.7802    2.3882    0.2655 H   0  0  0  0  0  0  0  0  0  0  0  0
   -3.4213   -1.5619    0.0044 H   0  0  0  0  0  0  0  0  0  0  0  0
   -3.7297    0.8822    0.2737 H   0  0  0  0  0  0  0  0  0  0  0  0
  1  2  1  0  0  0  0
  1  3  1  0  0  0  0
  2  3  1  0  0  0  0
  2  4  1  0  0  0  0
  2 12  1  0  0  0  0
  3  5  1  0  0  0  0
  3 13  1  0  0  0  0
  4  6  1  0  0  0  0
  4  8  2  0  0  0  0
  5  7  2  0  0  0  0
  5 14  1  0  0  0  0
  6  7  1  0  0  0  0
  6  9  2  0  0  0  0
  7 15  1  0  0  0  0
  8 10  1  0  0  0  0
  8 16  1  0  0  0  0
  9 11  1  0  0  0  0
  9 17  1  0  0  0  0
 10 11  2  0  0  0  0
 10 18  1  0  0  0  0
 11 19  1  0  0  0  0
M  END
> <PUBCHEM_COMPOUND_CID>
11094749

> <PUBCHEM_CONFORMER_RMSD>
0.4

> <PUBCHEM_CONFORMER_DIVERSEORDER>
1

> <PUBCHEM_MMFF94_PARTIAL_CHARGES>
19
1 -0.3
10 -0.15
11 -0.15
12 0.1
13 0.1
14 0.15
15 0.15
16 0.15
17 0.15
18 0.15
19 0.15
2 0.08
3 0.09
4 -0.03
5 -0.19
6 0.03
7 -0.18
8 -0.15
9 -0.15

> <PUBCHEM_EFFECTIVE_ROTOR_COUNT>
0.2

> <PUBCHEM_PHARMACOPHORE_FEATURES>
3
1 1 acceptor
6 4 6 8 9 10 11 rings
7 1 2 3 4 5 6 7 rings

> <PUBCHEM_HEAVY_ATOM_COUNT>
11

> <PUBCHEM_ATOM_DEF_STEREO_COUNT>
2

> <PUBCHEM_ATOM_UDEF_STEREO_COUNT>
0

> <PUBCHEM_BOND_DEF_STEREO_COUNT>
0

> <PUBCHEM_BOND_UDEF_STEREO_COUNT>
0

> <PUBCHEM_ISOTOPIC_ATOM_COUNT>
0

> <PUBCHEM_COMPONENT_COUNT>
1

> <PUBCHEM_CACTVS_TAUTO_COUNT>
1

> <PUBCHEM_CONFORMER_ID>
00A94ADD00000001

> <PUBCHEM_MMFF94_ENERGY>
26.3737

> <PUBCHEM_FEATURE_SELFOVERLAP>
15.233

> <PUBCHEM_SHAPE_FINGERPRINT>
12524768 44 18336258020126618751
12696612 119 18412259515070736012
12897270 3 18338514132002988637
14325111 11 18410009923128833629
15775835 57 18411689972342612773
16945 1 18409448119699318469
17990270 104 18408036329594802662
18185500 45 18411419514035929726
193761 8 15167702561016658733
19973954 147 18409443683045619901
20201158 50 18409731780851487967
21040471 1 18408601457070256196
21501502 16 18410292488984864053
23402655 69 18335433404340290173
23552423 10 18270961220008637781
241688 4 17326600904907693570
2748010 2 18409729568842980453
369184 2 18131071554039696851
5084963 1 18040996275715743987
528886 8 18409169887338520289
66348 1 18265895752690948229
7364860 26 18260264123317303364

> <PUBCHEM_SHAPE_MULTIPOLES>
220.51
3.78
1.78
0.67
0.6
0.18
-0.02
-0.19
-0.16
-0.14
-0.02
-0.1
-0.06
-0.17

> <PUBCHEM_SHAPE_SELFOVERLAP>
484.85

> <PUBCHEM_SHAPE_VOLUME>
118.4

> <PUBCHEM_COORDINATE_TYPE>
2
5
10

$$$$

