100208
  -OEChem-07051213012D

123125  0     1  0  0  0  0  0999 V2000
    2.9230    1.7882    0.0000 S   0  0  0  0  0  0  0  0  0  0  0  0
    7.1962    1.2004    0.0000 O   0  0  0  0  0  0  0  0  0  0  0  0
   10.6699   -0.2529    0.0000 O   0  0  0  0  0  0  0  0  0  0  0  0
    8.4405    1.7545    0.0000 O   0  0  0  0  0  0  0  0  0  0  0  0
    5.4641    1.2004    0.0000 O   0  0  0  0  0  0  0  0  0  0  0  0
   13.7310    1.6523    0.0000 O   0  0  0  0  0  0  0  0  0  0  0  0
   15.7525   -1.3333    0.0000 O   0  0  0  0  0  0  0  0  0  0  0  0
    8.9757    0.1072    0.0000 N   0  0  0  0  0  0  0  0  0  0  0  0
   12.5720    0.3651    0.0000 N   0  0  0  0  0  0  0  0  0  0  0  0
    4.5981   -0.2996    0.0000 N   0  0  0  0  0  0  0  0  0  0  0  0
   15.2173    0.3140    0.0000 N   0  0  0  0  0  0  0  0  0  0  0  0
   17.6546   -0.7152    0.0000 N   0  0  0  0  0  0  0  0  0  0  0  0
    4.5411    1.7882    0.0000 N   0  0  0  0  0  0  0  0  0  0  0  0
    8.0622   -0.2996    0.0000 C   0  0  3  0  0  0  0  0  0  0  0  0
    8.1667   -1.2941    0.0000 C   0  0  0  0  0  0  0  0  0  0  0  0
    7.1962    0.2004    0.0000 C   0  0  3  0  0  0  0  0  0  0  0  0
    9.1448   -1.5020    0.0000 C   0  0  0  0  0  0  0  0  0  0  0  0
    9.6448   -0.6360    0.0000 C   0  0  0  0  0  0  0  0  0  0  0  0
    6.3301   -0.2996    0.0000 C   0  0  3  0  0  0  0  0  0  0  0  0
   11.8289    1.0342    0.0000 C   0  0  3  0  0  0  0  0  0  0  0  0
    9.1836    1.0853    0.0000 C   0  0  0  0  0  0  0  0  0  0  0  0
   10.8778    0.7252    0.0000 C   0  0  3  0  0  0  0  0  0  0  0  0
   10.1347    1.3944    0.0000 C   0  0  0  0  0  0  0  0  0  0  0  0
   12.0368    2.0124    0.0000 C   0  0  3  0  0  0  0  0  0  0  0  0
    6.3301   -1.2996    0.0000 C   0  0  0  0  0  0  0  0  0  0  0  0
    5.4641    0.2004    0.0000 C   0  0  0  0  0  0  0  0  0  0  0  0
   12.9879    2.3214    0.0000 C   0  0  0  0  0  0  0  0  0  0  0  0
   11.2937    2.6815    0.0000 C   0  0  0  0  0  0  0  0  0  0  0  0
   13.5231    0.6741    0.0000 C   0  0  0  0  0  0  0  0  0  0  0  0
   14.2662    0.0050    0.0000 C   0  0  3  0  0  0  0  0  0  0  0  0
   12.3641   -0.6130    0.0000 C   0  0  0  0  0  0  0  0  0  0  0  0
    6.3301    1.7004    0.0000 C   0  0  0  0  0  0  0  0  0  0  0  0
   13.1958    3.2996    0.0000 C   0  0  0  0  0  0  0  0  0  0  0  0
   14.0583   -0.9732    0.0000 C   0  0  0  0  0  0  0  0  0  0  0  0
    3.7320    0.2004    0.0000 C   0  0  3  0  0  0  0  0  0  0  0  0
   11.4131   -0.9221    0.0000 C   0  0  0  0  0  0  0  0  0  0  0  0
   14.8015   -1.6423    0.0000 C   0  0  0  0  0  0  0  0  0  0  0  0
   13.1073   -1.2822    0.0000 C   0  0  0  0  0  0  0  0  0  0  0  0
    2.8660   -0.2996    0.0000 C   0  0  0  0  0  0  0  0  0  0  0  0
   16.9115   -0.0461    0.0000 C   0  0  3  0  0  0  0  0  0  0  0  0
   15.9604   -0.3551    0.0000 C   0  0  0  0  0  0  0  0  0  0  0  0
    3.7320    1.2004    0.0000 C   0  0  0  0  0  0  0  0  0  0  0  0
   17.1194    0.9320    0.0000 C   0  0  0  0  0  0  0  0  0  0  0  0
    2.8660   -1.2996    0.0000 C   0  0  0  0  0  0  0  0  0  0  0  0
   18.0705    1.2411    0.0000 C   0  0  0  0  0  0  0  0  0  0  0  0
   16.3763    1.6012    0.0000 C   0  0  0  0  0  0  0  0  0  0  0  0
   18.6057   -0.4062    0.0000 C   0  0  0  0  0  0  0  0  0  0  0  0
   17.4467   -1.6934    0.0000 C   0  0  0  0  0  0  0  0  0  0  0  0
    2.0000   -1.7996    0.0000 C   0  0  0  0  0  0  0  0  0  0  0  0
    3.7320   -1.7996    0.0000 C   0  0  0  0  0  0  0  0  0  0  0  0
    3.2320    2.7393    0.0000 C   0  0  0  0  0  0  0  0  0  0  0  0
    4.2320    2.7393    0.0000 C   0  0  0  0  0  0  0  0  0  0  0  0
    2.0000   -2.7996    0.0000 C   0  0  0  0  0  0  0  0  0  0  0  0
    3.7320   -2.7996    0.0000 C   0  0  0  0  0  0  0  0  0  0  0  0
    2.8660   -3.2996    0.0000 C   0  0  0  0  0  0  0  0  0  0  0  0
    8.1067    0.5493    0.0000 H   0  0  0  0  0  0  0  0  0  0  0  0
    7.5467   -1.2941    0.0000 H   0  0  0  0  0  0  0  0  0  0  0  0
    8.1019   -1.9107    0.0000 H   0  0  0  0  0  0  0  0  0  0  0  0
    6.4600    0.6254    0.0000 H   0  0  0  0  0  0  0  0  0  0  0  0
    8.9533   -2.0916    0.0000 H   0  0  0  0  0  0  0  0  0  0  0  0
    9.7112   -1.7542    0.0000 H   0  0  0  0  0  0  0  0  0  0  0  0
   10.1464   -1.0004    0.0000 H   0  0  0  0  0  0  0  0  0  0  0  0
   10.0597   -0.1752    0.0000 H   0  0  0  0  0  0  0  0  0  0  0  0
    7.0662   -0.7246    0.0000 H   0  0  0  0  0  0  0  0  0  0  0  0
   12.6373    1.2969    0.0000 H   0  0  0  0  0  0  0  0  0  0  0  0
   10.0694    0.4626    0.0000 H   0  0  0  0  0  0  0  0  0  0  0  0
   10.6233    1.7761    0.0000 H   0  0  0  0  0  0  0  0  0  0  0  0
    9.8436    1.9418    0.0000 H   0  0  0  0  0  0  0  0  0  0  0  0
   11.2284    1.7497    0.0000 H   0  0  0  0  0  0  0  0  0  0  0  0
    5.7101   -1.2996    0.0000 H   0  0  0  0  0  0  0  0  0  0  0  0
    6.3301   -1.9196    0.0000 H   0  0  0  0  0  0  0  0  0  0  0  0
    6.9501   -1.2996    0.0000 H   0  0  0  0  0  0  0  0  0  0  0  0
   13.0741    1.7074    0.0000 H   0  0  0  0  0  0  0  0  0  0  0  0
   13.6075    2.2998    0.0000 H   0  0  0  0  0  0  0  0  0  0  0  0
   11.7085    3.1423    0.0000 H   0  0  0  0  0  0  0  0  0  0  0  0
   10.8329    3.0964    0.0000 H   0  0  0  0  0  0  0  0  0  0  0  0
   10.8788    2.2208    0.0000 H   0  0  0  0  0  0  0  0  0  0  0  0
   14.4430    0.8364    0.0000 H   0  0  0  0  0  0  0  0  0  0  0  0
   11.7577   -0.4841    0.0000 H   0  0  0  0  0  0  0  0  0  0  0  0
   12.2352   -1.2195    0.0000 H   0  0  0  0  0  0  0  0  0  0  0  0
   12.9706   -0.7419    0.0000 H   0  0  0  0  0  0  0  0  0  0  0  0
    6.6401    2.2374    0.0000 H   0  0  0  0  0  0  0  0  0  0  0  0
    5.7932    2.0104    0.0000 H   0  0  0  0  0  0  0  0  0  0  0  0
    6.0201    1.1635    0.0000 H   0  0  0  0  0  0  0  0  0  0  0  0
    4.5981   -0.9196    0.0000 H   0  0  0  0  0  0  0  0  0  0  0  0
   13.8022    3.1706    0.0000 H   0  0  0  0  0  0  0  0  0  0  0  0
   13.3247    3.9060    0.0000 H   0  0  0  0  0  0  0  0  0  0  0  0
   12.5893    3.4285    0.0000 H   0  0  0  0  0  0  0  0  0  0  0  0
   14.6480   -0.7816    0.0000 H   0  0  0  0  0  0  0  0  0  0  0  0
    3.7320   -0.6496    0.0000 H   0  0  0  0  0  0  0  0  0  0  0  0
   10.9982   -1.3828    0.0000 H   0  0  0  0  0  0  0  0  0  0  0  0
   11.8738   -1.3369    0.0000 H   0  0  0  0  0  0  0  0  0  0  0  0
   11.8279   -0.4613    0.0000 H   0  0  0  0  0  0  0  0  0  0  0  0
   15.3462    0.9205    0.0000 H   0  0  0  0  0  0  0  0  0  0  0  0
   12.9157   -0.6925    0.0000 H   0  0  0  0  0  0  0  0  0  0  0  0
   12.5176   -1.4738    0.0000 H   0  0  0  0  0  0  0  0  0  0  0  0
   13.2989   -1.8718    0.0000 H   0  0  0  0  0  0  0  0  0  0  0  0
   14.3866   -2.1030    0.0000 H   0  0  0  0  0  0  0  0  0  0  0  0
   15.2622   -2.0572    0.0000 H   0  0  0  0  0  0  0  0  0  0  0  0
   15.2163   -1.1815    0.0000 H   0  0  0  0  0  0  0  0  0  0  0  0
    2.6540    0.2831    0.0000 H   0  0  0  0  0  0  0  0  0  0  0  0
    2.2554   -0.4072    0.0000 H   0  0  0  0  0  0  0  0  0  0  0  0
   17.7199    0.2166    0.0000 H   0  0  0  0  0  0  0  0  0  0  0  0
   16.5298    0.7405    0.0000 H   0  0  0  0  0  0  0  0  0  0  0  0
   18.2621    0.6514    0.0000 H   0  0  0  0  0  0  0  0  0  0  0  0
   18.6601    1.4326    0.0000 H   0  0  0  0  0  0  0  0  0  0  0  0
   17.8789    1.8307    0.0000 H   0  0  0  0  0  0  0  0  0  0  0  0
   16.7911    2.0619    0.0000 H   0  0  0  0  0  0  0  0  0  0  0  0
   15.9155    2.0160    0.0000 H   0  0  0  0  0  0  0  0  0  0  0  0
   15.9614    1.1404    0.0000 H   0  0  0  0  0  0  0  0  0  0  0  0
   18.7973   -0.9959    0.0000 H   0  0  0  0  0  0  0  0  0  0  0  0
   19.1954   -0.2146    0.0000 H   0  0  0  0  0  0  0  0  0  0  0  0
   18.4141    0.1834    0.0000 H   0  0  0  0  0  0  0  0  0  0  0  0
   16.8403   -1.5645    0.0000 H   0  0  0  0  0  0  0  0  0  0  0  0
   17.3178   -2.2998    0.0000 H   0  0  0  0  0  0  0  0  0  0  0  0
   18.0532   -1.8223    0.0000 H   0  0  0  0  0  0  0  0  0  0  0  0
    1.4631   -1.4896    0.0000 H   0  0  0  0  0  0  0  0  0  0  0  0
    4.2690   -1.4896    0.0000 H   0  0  0  0  0  0  0  0  0  0  0  0
    2.8676    3.2409    0.0000 H   0  0  0  0  0  0  0  0  0  0  0  0
    4.5965    3.2409    0.0000 H   0  0  0  0  0  0  0  0  0  0  0  0
    1.4631   -3.1096    0.0000 H   0  0  0  0  0  0  0  0  0  0  0  0
    4.2690   -3.1096    0.0000 H   0  0  0  0  0  0  0  0  0  0  0  0
    2.8660   -3.9196    0.0000 H   0  0  0  0  0  0  0  0  0  0  0  0
  1 42  1  0  0  0  0
  1 51  1  0  0  0  0
  2 16  1  0  0  0  0
  2 32  1  0  0  0  0
  3 22  1  0  0  0  0
  3 36  1  0  0  0  0
  4 21  2  0  0  0  0
  5 26  2  0  0  0  0
  6 29  2  0  0  0  0
  7 41  2  0  0  0  0
  8 14  1  0  0  0  0
  8 18  1  0  0  0  0
  8 21  1  0  0  0  0
  9 20  1  0  0  0  0
  9 29  1  0  0  0  0
  9 31  1  0  0  0  0
 10 26  1  0  0  0  0
 10 35  1  0  0  0  0
 10 85  1  0  0  0  0
 11 30  1  0  0  0  0
 11 41  1  0  0  0  0
 11 94  1  0  0  0  0
 12 40  1  0  0  0  0
 12 47  1  0  0  0  0
 12 48  1  0  0  0  0
 13 42  2  0  0  0  0
 13 52  1  0  0  0  0
 14 15  1  0  0  0  0
 14 16  1  0  0  0  0
 14 56  1  0  0  0  0
 15 17  1  0  0  0  0
 15 57  1  0  0  0  0
 15 58  1  0  0  0  0
 16 19  1  0  0  0  0
 16 59  1  0  0  0  0
 17 18  1  0  0  0  0
 17 60  1  0  0  0  0
 17 61  1  0  0  0  0
 18 62  1  0  0  0  0
 18 63  1  0  0  0  0
 19 25  1  0  0  0  0
 19 26  1  0  0  0  0
 19 64  1  0  0  0  0
 20 22  1  0  0  0  0
 20 24  1  0  0  0  0
 20 65  1  0  0  0  0
 21 23  1  0  0  0  0
 22 23  1  0  0  0  0
 22 66  1  0  0  0  0
 23 67  1  0  0  0  0
 23 68  1  0  0  0  0
 24 27  1  0  0  0  0
 24 28  1  0  0  0  0
 24 69  1  0  0  0  0
 25 70  1  0  0  0  0
 25 71  1  0  0  0  0
 25 72  1  0  0  0  0
 27 33  1  0  0  0  0
 27 73  1  0  0  0  0
 27 74  1  0  0  0  0
 28 75  1  0  0  0  0
 28 76  1  0  0  0  0
 28 77  1  0  0  0  0
 29 30  1  0  0  0  0
 30 34  1  0  0  0  0
 30 78  1  0  0  0  0
 31 79  1  0  0  0  0
 31 80  1  0  0  0  0
 31 81  1  0  0  0  0
 32 82  1  0  0  0  0
 32 83  1  0  0  0  0
 32 84  1  0  0  0  0
 33 86  1  0  0  0  0
 33 87  1  0  0  0  0
 33 88  1  0  0  0  0
 34 37  1  0  0  0  0
 34 38  1  0  0  0  0
 34 89  1  0  0  0  0
 35 39  1  0  0  0  0
 35 42  1  0  0  0  0
 35 90  1  0  0  0  0
 36 91  1  0  0  0  0
 36 92  1  0  0  0  0
 36 93  1  0  0  0  0
 37 98  1  0  0  0  0
 37 99  1  0  0  0  0
 37100  1  0  0  0  0
 38 95  1  0  0  0  0
 38 96  1  0  0  0  0
 38 97  1  0  0  0  0
 39 44  1  0  0  0  0
 39101  1  0  0  0  0
 39102  1  0  0  0  0
 40 41  1  0  0  0  0
 40 43  1  0  0  0  0
 40103  1  0  0  0  0
 43 45  1  0  0  0  0
 43 46  1  0  0  0  0
 43104  1  0  0  0  0
 44 49  2  0  0  0  0
 44 50  1  0  0  0  0
 45105  1  0  0  0  0
 45106  1  0  0  0  0
 45107  1  0  0  0  0
 46108  1  0  0  0  0
 46109  1  0  0  0  0
 46110  1  0  0  0  0
 47111  1  0  0  0  0
 47112  1  0  0  0  0
 47113  1  0  0  0  0
 48114  1  0  0  0  0
 48115  1  0  0  0  0
 48116  1  0  0  0  0
 49 53  1  0  0  0  0
 49117  1  0  0  0  0
 50 54  2  0  0  0  0
 50118  1  0  0  0  0
 51 52  2  0  0  0  0
 51119  1  0  0  0  0
 52120  1  0  0  0  0
 53 55  2  0  0  0  0
 53121  1  0  0  0  0
 54 55  1  0  0  0  0
 54122  1  0  0  0  0
 55123  1  0  0  0  0
M  END
> <PUBCHEM_COMPOUND_CID>
100208

> <PUBCHEM_COMPOUND_CANONICALIZED>
1

> <PUBCHEM_CACTVS_COMPLEXITY>
1220

> <PUBCHEM_CACTVS_HBOND_ACCEPTOR>
9

> <PUBCHEM_CACTVS_HBOND_DONOR>
2

> <PUBCHEM_CACTVS_ROTATABLE_BOND>
21

> <PUBCHEM_CACTVS_SUBSKEYS>
AAADcfB/uABAAAAAAAAAAAAAAAAAAWLAAAAwAAAAAAAAAAABwAAAHgQQAAAADTzl2ga+gZPIFAisAjF3VAAC8KBxCjhIyI24IIgKYDagkTGVIAAmtgC4iAecmMKOAAAAAAAAAAAAAAAAAAAAAAAAAAAAAA==

> <PUBCHEM_IUPAC_OPENEYE_NAME>
2-[[2-(dimethylamino)-3-methyl-butanoyl]amino]-N-[2-methoxy-4-[2-[1-methoxy-2-methyl-3-oxo-3-[(2-phenyl-1-thiazol-2-yl-ethyl)amino]propyl]pyrrolidin-1-yl]-4-oxo-1-sec-butyl-butyl]-N,3-dimethyl-butanamide

> <PUBCHEM_IUPAC_CAS_NAME>
2-[[2-(dimethylamino)-3-methyl-1-oxobutyl]amino]-N-[3-methoxy-1-[2-[1-methoxy-2-methyl-3-oxo-3-[[2-phenyl-1-(2-thiazolyl)ethyl]amino]propyl]-1-pyrrolidinyl]-5-methyl-1-oxoheptan-4-yl]-N,3-dimethylbutanamide

> <PUBCHEM_IUPAC_NAME>
2-[[2-(dimethylamino)-3-methylbutanoyl]amino]-N-[3-methoxy-1-[2-[1-methoxy-2-methyl-3-oxo-3-[[2-phenyl-1-(1,3-thiazol-2-yl)ethyl]amino]propyl]pyrrolidin-1-yl]-5-methyl-1-oxoheptan-4-yl]-N,3-dimethylbutanamide

> <PUBCHEM_IUPAC_SYSTEMATIC_NAME>
2-[[2-(dimethylamino)-3-methyl-butanoyl]amino]-N-[3-methoxy-1-[2-[1-methoxy-2-methyl-3-oxidanylidene-3-[[2-phenyl-1-(1,3-thiazol-2-yl)ethyl]amino]propyl]pyrrolidin-1-yl]-5-methyl-1-oxidanylidene-heptan-4-yl]-N,3-dimethyl-butanamide

> <PUBCHEM_IUPAC_TRADITIONAL_NAME>
2-[[2-(dimethylamino)-3-methyl-butanoyl]amino]-N-[4-keto-4-[2-[3-keto-1-methoxy-2-methyl-3-[(2-phenyl-1-thiazol-2-yl-ethyl)amino]propyl]pyrrolidino]-2-methoxy-1-sec-butyl-butyl]-N,3-dimethyl-butyramide

> <PUBCHEM_IUPAC_INCHI>
InChI=1S/C42H68N6O6S/c1-13-28(6)37(47(10)42(52)35(26(2)3)45-40(51)36(27(4)5)46(8)9)33(53-11)25-34(49)48-22-17-20-32(48)38(54-12)29(7)39(50)44-31(41-43-21-23-55-41)24-30-18-15-14-16-19-30/h14-16,18-19,21,23,26-29,31-33,35-38H,13,17,20,22,24-25H2,1-12H3,(H,44,50)(H,45,51)

> <PUBCHEM_IUPAC_INCHIKEY>
OFDNQWIFNXBECV-UHFFFAOYSA-N

> <PUBCHEM_XLOGP3_AA>
5.8

> <PUBCHEM_EXACT_MASS>
784.492105

> <PUBCHEM_MOLECULAR_FORMULA>
C42H68N6O6S

> <PUBCHEM_MOLECULAR_WEIGHT>
785.09092

> <PUBCHEM_OPENEYE_CAN_SMILES>
CCC(C)C(C(CC(=O)N1CCCC1C(C(C)C(=O)NC(CC2=CC=CC=C2)C3=NC=CS3)OC)OC)N(C)C(=O)C(C(C)C)NC(=O)C(C(C)C)N(C)C

> <PUBCHEM_OPENEYE_ISO_SMILES>
CCC(C)C(C(CC(=O)N1CCCC1C(C(C)C(=O)NC(CC2=CC=CC=C2)C3=NC=CS3)OC)OC)N(C)C(=O)C(C(C)C)NC(=O)C(C(C)C)N(C)C

> <PUBCHEM_CACTVS_TPSA>
162

> <PUBCHEM_MONOISOTOPIC_WEIGHT>
784.492105

> <PUBCHEM_TOTAL_CHARGE>
0

> <PUBCHEM_HEAVY_ATOM_COUNT>
55

> <PUBCHEM_ATOM_DEF_STEREO_COUNT>
0

> <PUBCHEM_ATOM_UDEF_STEREO_COUNT>
9

> <PUBCHEM_BOND_DEF_STEREO_COUNT>
0

> <PUBCHEM_BOND_UDEF_STEREO_COUNT>
0

> <PUBCHEM_ISOTOPIC_ATOM_COUNT>
0

> <PUBCHEM_COMPONENT_COUNT>
1

> <PUBCHEM_CACTVS_TAUTO_COUNT>
4

> <PUBCHEM_COORDINATE_TYPE>
1
5
255

> <PUBCHEM_BONDANNOTATIONS>
1  42  8
1  51  8
13  42  8
13  52  8
14  56  3
16  59  3
19  64  3
20  65  3
22  66  3
24  69  3
30  78  3
35  90  3
40  103  3
44  49  8
44  50  8
49  53  8
50  54  8
51  52  8
53  55  8
54  55  8

$$$$

