4577
  -OEChem-06261200132D

 33 33  0     1  0  0  0  0  0999 V2000
    6.3301    1.6900    0.0000 P   0  0  3  0  0  0  0  0  0  0  0  0
    7.1962    3.1900    0.0000 P   0  0  0  0  0  0  0  0  0  0  0  0
    6.3301    0.6900    0.0000 O   0  0  0  0  0  0  0  0  0  0  0  0
    6.3301    2.6900    0.0000 O   0  0  0  0  0  0  0  0  0  0  0  0
    7.3301    1.6900    0.0000 O   0  0  0  0  0  0  0  0  0  0  0  0
    5.3301    1.6900    0.0000 O   0  0  0  0  0  0  0  0  0  0  0  0
    8.0622    3.6900    0.0000 O   0  0  0  0  0  0  0  0  0  0  0  0
    6.6962    4.0560    0.0000 O   0  0  0  0  0  0  0  0  0  0  0  0
    2.0000   -2.8100    0.0000 O   0  5  0  0  0  0  0  0  0  0  0  0
    2.8660   -1.3100    0.0000 O   0  0  0  0  0  0  0  0  0  0  0  0
    7.6962    2.3240    0.0000 O   0  0  0  0  0  0  0  0  0  0  0  0
    4.5981   -1.3100    0.0000 N   0  0  0  0  0  0  0  0  0  0  0  0
    2.8660   -2.3100    0.0000 N   0  3  0  0  0  0  0  0  0  0  0  0
    5.4641   -0.8100    0.0000 C   0  0  0  0  0  0  0  0  0  0  0  0
    5.4641    0.1900    0.0000 C   0  0  0  0  0  0  0  0  0  0  0  0
    4.5981   -2.3100    0.0000 C   0  0  0  0  0  0  0  0  0  0  0  0
    3.7320   -2.8100    0.0000 C   0  0  0  0  0  0  0  0  0  0  0  0
    5.4641   -2.8100    0.0000 C   0  0  0  0  0  0  0  0  0  0  0  0
    3.7320   -3.8100    0.0000 C   0  0  0  0  0  0  0  0  0  0  0  0
    5.4641   -3.8100    0.0000 C   0  0  0  0  0  0  0  0  0  0  0  0
    4.5981   -4.3100    0.0000 C   0  0  0  0  0  0  0  0  0  0  0  0
    5.6762   -1.3926    0.0000 H   0  0  0  0  0  0  0  0  0  0  0  0
    6.0747   -0.7023    0.0000 H   0  0  0  0  0  0  0  0  0  0  0  0
    5.2520    0.7726    0.0000 H   0  0  0  0  0  0  0  0  0  0  0  0
    4.8535    0.0823    0.0000 H   0  0  0  0  0  0  0  0  0  0  0  0
    4.0611   -1.0000    0.0000 H   0  0  0  0  0  0  0  0  0  0  0  0
    6.0010   -2.5000    0.0000 H   0  0  0  0  0  0  0  0  0  0  0  0
    3.1951   -4.1200    0.0000 H   0  0  0  0  0  0  0  0  0  0  0  0
    6.0010   -4.1200    0.0000 H   0  0  0  0  0  0  0  0  0  0  0  0
    4.5981   -4.9300    0.0000 H   0  0  0  0  0  0  0  0  0  0  0  0
    7.6401    1.1531    0.0000 H   0  0  0  0  0  0  0  0  0  0  0  0
    8.0622    4.3100    0.0000 H   0  0  0  0  0  0  0  0  0  0  0  0
    6.0762    4.0560    0.0000 H   0  0  0  0  0  0  0  0  0  0  0  0
  1  3  1  0  0  0  0
  1  4  1  0  0  0  0
  1  5  1  0  0  0  0
  1  6  2  0  0  0  0
  2  4  1  0  0  0  0
  2  7  1  0  0  0  0
  2  8  1  0  0  0  0
  2 11  2  0  0  0  0
  3 15  1  0  0  0  0
  5 31  1  0  0  0  0
  7 32  1  0  0  0  0
  8 33  1  0  0  0  0
  9 13  1  0  0  0  0
 10 13  2  0  0  0  0
 12 14  1  0  0  0  0
 12 16  1  0  0  0  0
 12 26  1  0  0  0  0
 13 17  1  0  0  0  0
 14 15  1  0  0  0  0
 14 22  1  0  0  0  0
 14 23  1  0  0  0  0
 15 24  1  0  0  0  0
 15 25  1  0  0  0  0
 16 17  1  0  0  0  0
 16 18  2  0  0  0  0
 17 19  2  0  0  0  0
 18 20  1  0  0  0  0
 18 27  1  0  0  0  0
 19 21  1  0  0  0  0
 19 28  1  0  0  0  0
 20 21  2  0  0  0  0
 20 29  1  0  0  0  0
 21 30  1  0  0  0  0
M  CHG  2   9  -1  13   1
M  END
> <PUBCHEM_COMPOUND_CID>
4577

> <PUBCHEM_COMPOUND_CANONICALIZED>
1

> <PUBCHEM_CACTVS_COMPLEXITY>
448

> <PUBCHEM_CACTVS_HBOND_ACCEPTOR>
10

> <PUBCHEM_CACTVS_HBOND_DONOR>
4

> <PUBCHEM_CACTVS_ROTATABLE_BOND>
7

> <PUBCHEM_CACTVS_SUBSKEYS>
AAADccBzPAMAAAAAAAAAAAAAAAAAAAAAAAAwAAAAAAAAAAABAAAAHgAUCCAACAjhkAYwwILQQRCBQCRCQ4CCAAAhAgAoiIAIdIoKYCLAkZGUIAhgkIDYyAcQAAAAAAAAAAAAACAAAAAAAAAAQAAAAAAAAA==

> <PUBCHEM_IUPAC_OPENEYE_NAME>
2-(2-nitroanilino)ethyl phosphono hydrogen phosphate

> <PUBCHEM_IUPAC_CAS_NAME>
2-(2-nitroanilino)ethyl phosphono hydrogen phosphate

> <PUBCHEM_IUPAC_NAME>
2-(2-nitroanilino)ethyl phosphono hydrogen phosphate

> <PUBCHEM_IUPAC_SYSTEMATIC_NAME>
2-[(2-nitrophenyl)amino]ethyl phosphono hydrogen phosphate

> <PUBCHEM_IUPAC_TRADITIONAL_NAME>
2-(2-nitroanilino)ethyl phosphono hydrogen phosphate

> <PUBCHEM_IUPAC_INCHI>
InChI=1S/C8H12N2O9P2/c11-10(12)8-4-2-1-3-7(8)9-5-6-18-21(16,17)19-20(13,14)15/h1-4,9H,5-6H2,(H,16,17)(H2,13,14,15)

> <PUBCHEM_IUPAC_INCHIKEY>
BGAKAWHULFDHQI-UHFFFAOYSA-N

> <PUBCHEM_XLOGP3_AA>
-0.6

> <PUBCHEM_EXACT_MASS>
342.001803

> <PUBCHEM_MOLECULAR_FORMULA>
C8H12N2O9P2

> <PUBCHEM_MOLECULAR_WEIGHT>
342.136404

> <PUBCHEM_OPENEYE_CAN_SMILES>
C1=CC=C(C(=C1)NCCOP(=O)(O)OP(=O)(O)O)[N+](=O)[O-]

> <PUBCHEM_OPENEYE_ISO_SMILES>
C1=CC=C(C(=C1)NCCOP(=O)(O)OP(=O)(O)O)[N+](=O)[O-]

> <PUBCHEM_CACTVS_TPSA>
171

> <PUBCHEM_MONOISOTOPIC_WEIGHT>
342.001803

> <PUBCHEM_TOTAL_CHARGE>
0

> <PUBCHEM_HEAVY_ATOM_COUNT>
21

> <PUBCHEM_ATOM_DEF_STEREO_COUNT>
0

> <PUBCHEM_ATOM_UDEF_STEREO_COUNT>
0

> <PUBCHEM_BOND_DEF_STEREO_COUNT>
0

> <PUBCHEM_BOND_UDEF_STEREO_COUNT>
0

> <PUBCHEM_ISOTOPIC_ATOM_COUNT>
0

> <PUBCHEM_COMPONENT_COUNT>
1

> <PUBCHEM_CACTVS_TAUTO_COUNT>
1

> <PUBCHEM_COORDINATE_TYPE>
1
5
255

> <PUBCHEM_BONDANNOTATIONS>
16  17  8
16  18  8
17  19  8
18  20  8
19  21  8
20  21  8

$$$$

