20055424
  -OEChem-07051213032D

 94 95  0     0  0  0  0  0  0999 V2000
    8.0622   -0.5000    0.0000 S   0  0  0  0  0  0  0  0  0  0  0  0
    8.0622    0.5000    0.0000 S   0  0  0  0  0  0  0  0  0  0  0  0
    4.5981   -0.5000    0.0000 O   0  0  0  0  0  0  0  0  0  0  0  0
   11.5263    0.5000    0.0000 O   0  0  0  0  0  0  0  0  0  0  0  0
   12.3923    2.0000    0.0000 O   0  0  0  0  0  0  0  0  0  0  0  0
    3.7320   -2.0000    0.0000 O   0  0  0  0  0  0  0  0  0  0  0  0
    7.1962    1.0000    0.0000 O   0  0  0  0  0  0  0  0  0  0  0  0
    8.9282   -1.0000    0.0000 O   0  0  0  0  0  0  0  0  0  0  0  0
    8.0622    2.5000    0.0000 N   0  0  0  0  0  0  0  0  0  0  0  0
    8.0622   -2.5000    0.0000 N   0  0  0  0  0  0  0  0  0  0  0  0
    9.7942   -5.5000    0.0000 N   0  0  0  0  0  0  0  0  0  0  0  0
    9.7942    5.5000    0.0000 N   0  0  0  0  0  0  0  0  0  0  0  0
   10.6603    4.0000    0.0000 N   0  0  0  0  0  0  0  0  0  0  0  0
   10.6603   -4.0000    0.0000 N   0  0  0  0  0  0  0  0  0  0  0  0
    8.0622    5.5000    0.0000 N   0  0  0  0  0  0  0  0  0  0  0  0
    8.0622   -5.5000    0.0000 N   0  0  0  0  0  0  0  0  0  0  0  0
    7.1962   -1.0000    0.0000 C   0  0  0  0  0  0  0  0  0  0  0  0
    8.9282    1.0000    0.0000 C   0  0  0  0  0  0  0  0  0  0  0  0
    7.1962   -2.0000    0.0000 C   0  0  0  0  0  0  0  0  0  0  0  0
    8.9282    2.0000    0.0000 C   0  0  0  0  0  0  0  0  0  0  0  0
    6.3301   -0.5000    0.0000 C   0  0  0  0  0  0  0  0  0  0  0  0
    9.7942    0.5000    0.0000 C   0  0  0  0  0  0  0  0  0  0  0  0
    8.0622    3.5000    0.0000 C   0  0  0  0  0  0  0  0  0  0  0  0
    8.0622   -3.5000    0.0000 C   0  0  0  0  0  0  0  0  0  0  0  0
   10.6603    1.0000    0.0000 C   0  0  0  0  0  0  0  0  0  0  0  0
    5.4641   -1.0000    0.0000 C   0  0  0  0  0  0  0  0  0  0  0  0
    9.7942    2.5000    0.0000 C   0  0  0  0  0  0  0  0  0  0  0  0
    6.3301   -2.5000    0.0000 C   0  0  0  0  0  0  0  0  0  0  0  0
    8.9282    4.0000    0.0000 C   0  0  0  0  0  0  0  0  0  0  0  0
    8.9282   -4.0000    0.0000 C   0  0  0  0  0  0  0  0  0  0  0  0
   13.2583    0.5000    0.0000 C   0  0  0  0  0  0  0  0  0  0  0  0
    2.8660   -0.5000    0.0000 C   0  0  0  0  0  0  0  0  0  0  0  0
   12.3923    1.0000    0.0000 C   0  0  0  0  0  0  0  0  0  0  0  0
    3.7320   -1.0000    0.0000 C   0  0  0  0  0  0  0  0  0  0  0  0
    7.1962    2.0000    0.0000 C   0  0  0  0  0  0  0  0  0  0  0  0
    8.9282   -2.0000    0.0000 C   0  0  0  0  0  0  0  0  0  0  0  0
    8.9282    5.0000    0.0000 C   0  0  0  0  0  0  0  0  0  0  0  0
    8.9282   -5.0000    0.0000 C   0  0  0  0  0  0  0  0  0  0  0  0
    9.7942   -3.5000    0.0000 C   0  0  0  0  0  0  0  0  0  0  0  0
    9.7942    3.5000    0.0000 C   0  0  0  0  0  0  0  0  0  0  0  0
   14.1244    1.0000    0.0000 C   0  0  0  0  0  0  0  0  0  0  0  0
   13.2583   -0.5000    0.0000 C   0  0  0  0  0  0  0  0  0  0  0  0
    2.0000   -1.0000    0.0000 C   0  0  0  0  0  0  0  0  0  0  0  0
    2.8660    0.5000    0.0000 C   0  0  0  0  0  0  0  0  0  0  0  0
   10.6603    5.0000    0.0000 C   0  0  0  0  0  0  0  0  0  0  0  0
   10.6603   -5.0000    0.0000 C   0  0  0  0  0  0  0  0  0  0  0  0
   11.5263    5.5000    0.0000 C   0  0  0  0  0  0  0  0  0  0  0  0
   11.5263   -5.5000    0.0000 C   0  0  0  0  0  0  0  0  0  0  0  0
    6.7287   -0.0251    0.0000 H   0  0  0  0  0  0  0  0  0  0  0  0
    5.9316   -0.0251    0.0000 H   0  0  0  0  0  0  0  0  0  0  0  0
    9.3957    0.0251    0.0000 H   0  0  0  0  0  0  0  0  0  0  0  0
   10.1928    0.0251    0.0000 H   0  0  0  0  0  0  0  0  0  0  0  0
    7.4516   -3.3923    0.0000 H   0  0  0  0  0  0  0  0  0  0  0  0
    7.8501   -4.0826    0.0000 H   0  0  0  0  0  0  0  0  0  0  0  0
    7.8501    4.0826    0.0000 H   0  0  0  0  0  0  0  0  0  0  0  0
    7.4516    3.3923    0.0000 H   0  0  0  0  0  0  0  0  0  0  0  0
   11.0588    1.4750    0.0000 H   0  0  0  0  0  0  0  0  0  0  0  0
   10.2617    1.4750    0.0000 H   0  0  0  0  0  0  0  0  0  0  0  0
    5.0656   -1.4750    0.0000 H   0  0  0  0  0  0  0  0  0  0  0  0
    5.8626   -1.4750    0.0000 H   0  0  0  0  0  0  0  0  0  0  0  0
    6.0201   -1.9631    0.0000 H   0  0  0  0  0  0  0  0  0  0  0  0
    5.7932   -2.8100    0.0000 H   0  0  0  0  0  0  0  0  0  0  0  0
    6.6401   -3.0369    0.0000 H   0  0  0  0  0  0  0  0  0  0  0  0
   10.1042    1.9631    0.0000 H   0  0  0  0  0  0  0  0  0  0  0  0
   10.3312    2.8100    0.0000 H   0  0  0  0  0  0  0  0  0  0  0  0
    9.4842    3.0369    0.0000 H   0  0  0  0  0  0  0  0  0  0  0  0
   13.7953    0.1900    0.0000 H   0  0  0  0  0  0  0  0  0  0  0  0
    2.8660   -1.1200    0.0000 H   0  0  0  0  0  0  0  0  0  0  0  0
    9.4651   -2.3100    0.0000 H   0  0  0  0  0  0  0  0  0  0  0  0
    6.6592    2.3100    0.0000 H   0  0  0  0  0  0  0  0  0  0  0  0
    9.7942   -2.8800    0.0000 H   0  0  0  0  0  0  0  0  0  0  0  0
    9.7942    2.8800    0.0000 H   0  0  0  0  0  0  0  0  0  0  0  0
    1.6900   -0.4631    0.0000 H   0  0  0  0  0  0  0  0  0  0  0  0
    3.4860    0.5000    0.0000 H   0  0  0  0  0  0  0  0  0  0  0  0
    2.8660    1.1200    0.0000 H   0  0  0  0  0  0  0  0  0  0  0  0
    2.2460    0.5000    0.0000 H   0  0  0  0  0  0  0  0  0  0  0  0
    1.4631   -1.3100    0.0000 H   0  0  0  0  0  0  0  0  0  0  0  0
    2.3100   -1.5369    0.0000 H   0  0  0  0  0  0  0  0  0  0  0  0
   12.6383   -0.5000    0.0000 H   0  0  0  0  0  0  0  0  0  0  0  0
   13.2583   -1.1200    0.0000 H   0  0  0  0  0  0  0  0  0  0  0  0
   13.8783   -0.5000    0.0000 H   0  0  0  0  0  0  0  0  0  0  0  0
   14.4344    0.4631    0.0000 H   0  0  0  0  0  0  0  0  0  0  0  0
   14.6613    1.3100    0.0000 H   0  0  0  0  0  0  0  0  0  0  0  0
   13.8144    1.5369    0.0000 H   0  0  0  0  0  0  0  0  0  0  0  0
    8.0622   -6.1200    0.0000 H   0  0  0  0  0  0  0  0  0  0  0  0
    7.5252   -5.1900    0.0000 H   0  0  0  0  0  0  0  0  0  0  0  0
    8.0622    6.1200    0.0000 H   0  0  0  0  0  0  0  0  0  0  0  0
    7.5252    5.1900    0.0000 H   0  0  0  0  0  0  0  0  0  0  0  0
   11.2163   -6.0369    0.0000 H   0  0  0  0  0  0  0  0  0  0  0  0
   11.8363    4.9631    0.0000 H   0  0  0  0  0  0  0  0  0  0  0  0
   12.0632    5.8100    0.0000 H   0  0  0  0  0  0  0  0  0  0  0  0
   11.2163    6.0369    0.0000 H   0  0  0  0  0  0  0  0  0  0  0  0
   12.0632   -5.8100    0.0000 H   0  0  0  0  0  0  0  0  0  0  0  0
   11.8363   -4.9631    0.0000 H   0  0  0  0  0  0  0  0  0  0  0  0
  1  2  1  0  0  0  0
  1 17  1  0  0  0  0
  2 18  1  0  0  0  0
  3 26  1  0  0  0  0
  3 34  1  0  0  0  0
  4 25  1  0  0  0  0
  4 33  1  0  0  0  0
  5 33  2  0  0  0  0
  6 34  2  0  0  0  0
  7 35  2  0  0  0  0
  8 36  2  0  0  0  0
  9 20  1  0  0  0  0
  9 23  1  0  0  0  0
  9 35  1  0  0  0  0
 10 19  1  0  0  0  0
 10 24  1  0  0  0  0
 10 36  1  0  0  0  0
 11 38  2  0  0  0  0
 11 46  1  0  0  0  0
 12 37  2  0  0  0  0
 12 45  1  0  0  0  0
 13 40  1  0  0  0  0
 13 45  2  0  0  0  0
 14 39  1  0  0  0  0
 14 46  2  0  0  0  0
 15 37  1  0  0  0  0
 15 87  1  0  0  0  0
 15 88  1  0  0  0  0
 16 38  1  0  0  0  0
 16 85  1  0  0  0  0
 16 86  1  0  0  0  0
 17 19  2  0  0  0  0
 17 21  1  0  0  0  0
 18 20  2  0  0  0  0
 18 22  1  0  0  0  0
 19 28  1  0  0  0  0
 20 27  1  0  0  0  0
 21 26  1  0  0  0  0
 21 49  1  0  0  0  0
 21 50  1  0  0  0  0
 22 25  1  0  0  0  0
 22 51  1  0  0  0  0
 22 52  1  0  0  0  0
 23 29  1  0  0  0  0
 23 55  1  0  0  0  0
 23 56  1  0  0  0  0
 24 30  1  0  0  0  0
 24 53  1  0  0  0  0
 24 54  1  0  0  0  0
 25 57  1  0  0  0  0
 25 58  1  0  0  0  0
 26 59  1  0  0  0  0
 26 60  1  0  0  0  0
 27 64  1  0  0  0  0
 27 65  1  0  0  0  0
 27 66  1  0  0  0  0
 28 61  1  0  0  0  0
 28 62  1  0  0  0  0
 28 63  1  0  0  0  0
 29 37  1  0  0  0  0
 29 40  2  0  0  0  0
 30 38  1  0  0  0  0
 30 39  2  0  0  0  0
 31 33  1  0  0  0  0
 31 41  1  0  0  0  0
 31 42  1  0  0  0  0
 31 67  1  0  0  0  0
 32 34  1  0  0  0  0
 32 43  1  0  0  0  0
 32 44  1  0  0  0  0
 32 68  1  0  0  0  0
 35 70  1  0  0  0  0
 36 69  1  0  0  0  0
 39 71  1  0  0  0  0
 40 72  1  0  0  0  0
 41 82  1  0  0  0  0
 41 83  1  0  0  0  0
 41 84  1  0  0  0  0
 42 79  1  0  0  0  0
 42 80  1  0  0  0  0
 42 81  1  0  0  0  0
 43 73  1  0  0  0  0
 43 77  1  0  0  0  0
 43 78  1  0  0  0  0
 44 74  1  0  0  0  0
 44 75  1  0  0  0  0
 44 76  1  0  0  0  0
 45 47  1  0  0  0  0
 46 48  1  0  0  0  0
 47 90  1  0  0  0  0
 47 91  1  0  0  0  0
 47 92  1  0  0  0  0
 48 89  1  0  0  0  0
 48 93  1  0  0  0  0
 48 94  1  0  0  0  0
M  END
> <PUBCHEM_COMPOUND_CID>
20055424

> <PUBCHEM_COMPOUND_CANONICALIZED>
1

> <PUBCHEM_CACTVS_COMPLEXITY>
1050

> <PUBCHEM_CACTVS_HBOND_ACCEPTOR>
14

> <PUBCHEM_CACTVS_HBOND_DONOR>
2

> <PUBCHEM_CACTVS_ROTATABLE_BOND>
19

> <PUBCHEM_CACTVS_SUBSKEYS>
AAADcfB/+ABgAAAAAAAAAAAAAAAAAAAAAAAsWAAAAAAAAAAB4AAAHgQQAAAADQjh2wYvuJdIFACoAhb3/ACAgCkxAKABWCE4RBiACIBASUAGBAgIRgLIACIAAAAAAAAAAAAAAAAAAAAAAAAAAAAAAAAAAA==

> <PUBCHEM_IUPAC_OPENEYE_NAME>
[(Z)-4-[(4-amino-2-methyl-pyrimidin-5-yl)methyl-formyl-amino]-3-[[(Z)-2-[(4-amino-2-methyl-pyrimidin-5-yl)methyl-formyl-amino]-1-[2-(2-methylpropanoyloxy)ethyl]prop-1-enyl]disulfanyl]pent-3-enyl] 2-methylpropanoate

> <PUBCHEM_IUPAC_CAS_NAME>
2-methylpropanoic acid [(Z)-4-[(4-amino-2-methyl-5-pyrimidinyl)methyl-formylamino]-3-[[(Z)-2-[(4-amino-2-methyl-5-pyrimidinyl)methyl-formylamino]-5-(2-methyl-1-oxopropoxy)pent-2-en-3-yl]disulfanyl]pent-3-enyl] ester

> <PUBCHEM_IUPAC_NAME>
[(Z)-4-[(4-amino-2-methylpyrimidin-5-yl)methyl-formylamino]-3-[[(Z)-2-[(4-amino-2-methylpyrimidin-5-yl)methyl-formylamino]-5-(2-methylpropanoyloxy)pent-2-en-3-yl]disulfanyl]pent-3-enyl] 2-methylpropanoate

> <PUBCHEM_IUPAC_SYSTEMATIC_NAME>
[(Z)-4-[(4-azanyl-2-methyl-pyrimidin-5-yl)methyl-methanoyl-amino]-3-[[(Z)-2-[(4-azanyl-2-methyl-pyrimidin-5-yl)methyl-methanoyl-amino]-5-(2-methylpropanoyloxy)pent-2-en-3-yl]disulfanyl]pent-3-enyl] 2-methylpropanoate

> <PUBCHEM_IUPAC_TRADITIONAL_NAME>
2-methylpropionic acid [(Z)-4-[(4-amino-2-methyl-pyrimidin-5-yl)methyl-formyl-amino]-3-[[(Z)-2-[(4-amino-2-methyl-pyrimidin-5-yl)methyl-formyl-amino]-1-(2-isobutyryloxyethyl)prop-1-enyl]disulfanyl]pent-3-enyl] ester

> <PUBCHEM_IUPAC_INCHI>
InChI=1S/C32H46N8O6S2/c1-19(2)31(43)45-11-9-27(21(5)39(17-41)15-25-13-35-23(7)37-29(25)33)47-48-28(10-12-46-32(44)20(3)4)22(6)40(18-42)16-26-14-36-24(8)38-30(26)34/h13-14,17-20H,9-12,15-16H2,1-8H3,(H2,33,35,37)(H2,34,36,38)/b27-21-,28-22-

> <PUBCHEM_IUPAC_INCHIKEY>
CKHJPWQVLKHBIH-ZDSKVHJSSA-N

> <PUBCHEM_XLOGP3_AA>
2.7

> <PUBCHEM_EXACT_MASS>
702.298173

> <PUBCHEM_MOLECULAR_FORMULA>
C32H46N8O6S2

> <PUBCHEM_MOLECULAR_WEIGHT>
702.88764

> <PUBCHEM_OPENEYE_CAN_SMILES>
CC1=NC=C(C(=N1)N)CN(C=O)C(=C(CCOC(=O)C(C)C)SSC(=C(C)N(CC2=CN=C(N=C2N)C)C=O)CCOC(=O)C(C)C)C

> <PUBCHEM_OPENEYE_ISO_SMILES>
CC1=NC=C(C(=N1)N)CN(/C(=C(\SS/C(=C(\N(C=O)CC2=CN=C(N=C2N)C)/C)/CCOC(=O)C(C)C)/CCOC(=O)C(C)C)/C)C=O

> <PUBCHEM_CACTVS_TPSA>
247

> <PUBCHEM_MONOISOTOPIC_WEIGHT>
702.298173

> <PUBCHEM_TOTAL_CHARGE>
0

> <PUBCHEM_HEAVY_ATOM_COUNT>
48

> <PUBCHEM_ATOM_DEF_STEREO_COUNT>
0

> <PUBCHEM_ATOM_UDEF_STEREO_COUNT>
0

> <PUBCHEM_BOND_DEF_STEREO_COUNT>
2

> <PUBCHEM_BOND_UDEF_STEREO_COUNT>
0

> <PUBCHEM_ISOTOPIC_ATOM_COUNT>
0

> <PUBCHEM_COMPONENT_COUNT>
1

> <PUBCHEM_CACTVS_TAUTO_COUNT>
6

> <PUBCHEM_COORDINATE_TYPE>
1
5
255

> <PUBCHEM_BONDANNOTATIONS>
11  38  8
11  46  8
12  37  8
12  45  8
13  40  8
13  45  8
14  39  8
14  46  8
29  37  8
29  40  8
30  38  8
30  39  8

$$$$

