12128
  -OEChem-06261206343D

 22 21  0     0  0  0  0  0  0999 V2000
   -0.4718   -2.4261    0.9306 Cl  0  0  0  0  0  0  0  0  0  0  0  0
    1.3857   -0.2892   -0.1410 O   0  0  0  0  0  0  0  0  0  0  0  0
   -0.8031    0.5882    0.1219 O   0  0  0  0  0  0  0  0  0  0  0  0
    0.0499   -0.2502   -0.6625 C   0  0  0  0  0  0  0  0  0  0  0  0
   -0.4807   -1.6849   -0.6943 C   0  0  0  0  0  0  0  0  0  0  0  0
    2.0025    0.9914   -0.1348 C   0  0  0  0  0  0  0  0  0  0  0  0
   -2.1343    0.6507   -0.3716 C   0  0  0  0  0  0  0  0  0  0  0  0
    3.4020    0.8618    0.4276 C   0  0  0  0  0  0  0  0  0  0  0  0
   -2.9502    1.5583    0.5241 C   0  0  0  0  0  0  0  0  0  0  0  0
    0.0913    0.1396   -1.6877 H   0  0  0  0  0  0  0  0  0  0  0  0
    0.1919   -2.3032   -1.2981 H   0  0  0  0  0  0  0  0  0  0  0  0
   -1.4816   -1.7924   -1.1147 H   0  0  0  0  0  0  0  0  0  0  0  0
    2.0489    1.3836   -1.1567 H   0  0  0  0  0  0  0  0  0  0  0  0
    1.4273    1.6856    0.4870 H   0  0  0  0  0  0  0  0  0  0  0  0
   -2.1335    1.0365   -1.3967 H   0  0  0  0  0  0  0  0  0  0  0  0
   -2.6196   -0.3273   -0.3526 H   0  0  0  0  0  0  0  0  0  0  0  0
    3.9078    1.8313    0.4454 H   0  0  0  0  0  0  0  0  0  0  0  0
    3.3726    0.4596    1.4457 H   0  0  0  0  0  0  0  0  0  0  0  0
    3.9958    0.1646   -0.1728 H   0  0  0  0  0  0  0  0  0  0  0  0
   -3.9829    1.6319    0.1716 H   0  0  0  0  0  0  0  0  0  0  0  0
   -2.9536    1.1836    1.5532 H   0  0  0  0  0  0  0  0  0  0  0  0
   -2.5152    2.5628    0.5531 H   0  0  0  0  0  0  0  0  0  0  0  0
  1  5  1  0  0  0  0
  2  4  1  0  0  0  0
  2  6  1  0  0  0  0
  3  4  1  0  0  0  0
  3  7  1  0  0  0  0
  4  5  1  0  0  0  0
  4 10  1  0  0  0  0
  5 11  1  0  0  0  0
  5 12  1  0  0  0  0
  6  8  1  0  0  0  0
  6 13  1  0  0  0  0
  6 14  1  0  0  0  0
  7  9  1  0  0  0  0
  7 15  1  0  0  0  0
  7 16  1  0  0  0  0
  8 17  1  0  0  0  0
  8 18  1  0  0  0  0
  8 19  1  0  0  0  0
  9 20  1  0  0  0  0
  9 21  1  0  0  0  0
  9 22  1  0  0  0  0
M  END
> <PUBCHEM_COMPOUND_CID>
12128

> <PUBCHEM_CONFORMER_RMSD>
0.6

> <PUBCHEM_CONFORMER_DIVERSEORDER>
1
21
9
17
19
5
15
23
11
2
24
10
14
20
16
4
3
18
22
13
12
6
8
7

> <PUBCHEM_MMFF94_PARTIAL_CHARGES>
7
1 -0.29
2 -0.56
3 -0.56
4 0.56
5 0.29
6 0.28
7 0.28

> <PUBCHEM_EFFECTIVE_ROTOR_COUNT>
5

> <PUBCHEM_PHARMACOPHORE_FEATURES>
2
1 2 acceptor
1 3 acceptor

> <PUBCHEM_HEAVY_ATOM_COUNT>
9

> <PUBCHEM_ATOM_DEF_STEREO_COUNT>
0

> <PUBCHEM_ATOM_UDEF_STEREO_COUNT>
0

> <PUBCHEM_BOND_DEF_STEREO_COUNT>
0

> <PUBCHEM_BOND_UDEF_STEREO_COUNT>
0

> <PUBCHEM_ISOTOPIC_ATOM_COUNT>
0

> <PUBCHEM_COMPONENT_COUNT>
1

> <PUBCHEM_CACTVS_TAUTO_COUNT>
1

> <PUBCHEM_CONFORMER_ID>
00002F6000000001

> <PUBCHEM_MMFF94_ENERGY>
11.7088

> <PUBCHEM_FEATURE_SELFOVERLAP>
10.185

> <PUBCHEM_SHAPE_FINGERPRINT>
100427 49 17110440792973761197
14325111 11 18334295387454875333
14390081 3 18040998483434838329
170605 34 18115867563254352669
19021347 4 18412260644789605267
20653085 51 17676198078727305300
21028194 46 18260824908143094284
21040471 1 18410005533455791164
21524375 3 18335144219105836021
23211744 41 18338512066403365653
23500284 214 18113616751151439504
23552449 11 17765433540916414419
305870 269 18268715098073327913
528862 383 17986406683043285978

> <PUBCHEM_SHAPE_MULTIPOLES>
175.35
4.26
2.27
0.89
2.02
1.55
-0.04
-3.47
-0.88
-1.08
-0.59
-0.14
0.27
-0.06

> <PUBCHEM_SHAPE_SELFOVERLAP>
303.385

> <PUBCHEM_SHAPE_VOLUME>
117.9

> <PUBCHEM_COORDINATE_TYPE>
2
5
10

$$$$

