13269
  -OEChem-06261208212D

 25 27  0     0  0  0  0  0  0999 V2000
    4.6783    1.4392    0.0000 O   0  0  0  0  0  0  0  0  0  0  0  0
    6.2619   -1.0976    0.0000 O   0  0  0  0  0  0  0  0  0  0  0  0
    4.6783   -0.1702    0.0000 N   0  0  0  0  0  0  0  0  0  0  0  0
    5.2619    0.6345    0.0000 C   0  0  0  0  0  0  0  0  0  0  0  0
    6.2619    0.6345    0.0000 C   0  0  0  0  0  0  0  0  0  0  0  0
    3.7321    1.1345    0.0000 C   0  0  0  0  0  0  0  0  0  0  0  0
    3.7321    0.1345    0.0000 C   0  0  0  0  0  0  0  0  0  0  0  0
    6.7619   -0.2315    0.0000 C   0  0  0  0  0  0  0  0  0  0  0  0
    2.8660    1.6345    0.0000 C   0  0  0  0  0  0  0  0  0  0  0  0
    2.8660   -0.3655    0.0000 C   0  0  0  0  0  0  0  0  0  0  0  0
    6.7619    1.5005    0.0000 C   0  0  0  0  0  0  0  0  0  0  0  0
    2.0000    1.1345    0.0000 C   0  0  0  0  0  0  0  0  0  0  0  0
    2.0000    0.1345    0.0000 C   0  0  0  0  0  0  0  0  0  0  0  0
    7.7619   -0.2315    0.0000 C   0  0  0  0  0  0  0  0  0  0  0  0
    7.7619    1.5005    0.0000 C   0  0  0  0  0  0  0  0  0  0  0  0
    8.2619    0.6345    0.0000 C   0  0  0  0  0  0  0  0  0  0  0  0
    2.8660    2.2545    0.0000 H   0  0  0  0  0  0  0  0  0  0  0  0
    2.8660   -0.9855    0.0000 H   0  0  0  0  0  0  0  0  0  0  0  0
    6.4519    2.0375    0.0000 H   0  0  0  0  0  0  0  0  0  0  0  0
    1.4631    1.4445    0.0000 H   0  0  0  0  0  0  0  0  0  0  0  0
    1.4631   -0.1755    0.0000 H   0  0  0  0  0  0  0  0  0  0  0  0
    8.0719   -0.7685    0.0000 H   0  0  0  0  0  0  0  0  0  0  0  0
    8.0719    2.0375    0.0000 H   0  0  0  0  0  0  0  0  0  0  0  0
    8.8819    0.6345    0.0000 H   0  0  0  0  0  0  0  0  0  0  0  0
    6.5719   -1.6345    0.0000 H   0  0  0  0  0  0  0  0  0  0  0  0
  1  4  1  0  0  0  0
  1  6  1  0  0  0  0
  2  8  1  0  0  0  0
  2 25  1  0  0  0  0
  3  4  2  0  0  0  0
  3  7  1  0  0  0  0
  4  5  1  0  0  0  0
  5  8  1  0  0  0  0
  5 11  2  0  0  0  0
  6  7  1  0  0  0  0
  6  9  2  0  0  0  0
  7 10  2  0  0  0  0
  8 14  2  0  0  0  0
  9 12  1  0  0  0  0
  9 17  1  0  0  0  0
 10 13  1  0  0  0  0
 10 18  1  0  0  0  0
 11 15  1  0  0  0  0
 11 19  1  0  0  0  0
 12 13  2  0  0  0  0
 12 20  1  0  0  0  0
 13 21  1  0  0  0  0
 14 16  1  0  0  0  0
 14 22  1  0  0  0  0
 15 16  2  0  0  0  0
 15 23  1  0  0  0  0
 16 24  1  0  0  0  0
M  END
> <PUBCHEM_COMPOUND_CID>
13269

> <PUBCHEM_COMPOUND_CANONICALIZED>
1

> <PUBCHEM_CACTVS_COMPLEXITY>
246

> <PUBCHEM_CACTVS_HBOND_ACCEPTOR>
3

> <PUBCHEM_CACTVS_HBOND_DONOR>
1

> <PUBCHEM_CACTVS_ROTATABLE_BOND>
1

> <PUBCHEM_CACTVS_SUBSKEYS>
AAADccByMAAAAAAAAAAAAAAAAAAAAWAAAAAwYAAAAAAAAFgB9AAAHgAACAAADAyBngAwxrIIFkCoA6VyVASCiCAvYiAImCG3bNgOJ7bGtbuPeWjn5BHY+YeYyCCOAAAAAAAIEAAAAAAAABAgAAAAAAAAAA==

> <PUBCHEM_IUPAC_OPENEYE_NAME>
2-(1,3-benzoxazol-2-yl)phenol

> <PUBCHEM_IUPAC_CAS_NAME>
2-(1,3-benzoxazol-2-yl)phenol

> <PUBCHEM_IUPAC_NAME>
2-(1,3-benzoxazol-2-yl)phenol

> <PUBCHEM_IUPAC_SYSTEMATIC_NAME>
2-(1,3-benzoxazol-2-yl)phenol

> <PUBCHEM_IUPAC_TRADITIONAL_NAME>
2-(1,3-benzoxazol-2-yl)phenol

> <PUBCHEM_IUPAC_INCHI>
InChI=1S/C13H9NO2/c15-11-7-3-1-5-9(11)13-14-10-6-2-4-8-12(10)16-13/h1-8,15H

> <PUBCHEM_IUPAC_INCHIKEY>
GHGZVWOTJDLREY-UHFFFAOYSA-N

> <PUBCHEM_XLOGP3_AA>
3.1

> <PUBCHEM_EXACT_MASS>
211.063329

> <PUBCHEM_MOLECULAR_FORMULA>
C13H9NO2

> <PUBCHEM_MOLECULAR_WEIGHT>
211.21606

> <PUBCHEM_OPENEYE_CAN_SMILES>
C1=CC=C(C(=C1)C2=NC3=CC=CC=C3O2)O

> <PUBCHEM_OPENEYE_ISO_SMILES>
C1=CC=C(C(=C1)C2=NC3=CC=CC=C3O2)O

> <PUBCHEM_CACTVS_TPSA>
46.3

> <PUBCHEM_MONOISOTOPIC_WEIGHT>
211.063329

> <PUBCHEM_TOTAL_CHARGE>
0

> <PUBCHEM_HEAVY_ATOM_COUNT>
16

> <PUBCHEM_ATOM_DEF_STEREO_COUNT>
0

> <PUBCHEM_ATOM_UDEF_STEREO_COUNT>
0

> <PUBCHEM_BOND_DEF_STEREO_COUNT>
0

> <PUBCHEM_BOND_UDEF_STEREO_COUNT>
0

> <PUBCHEM_ISOTOPIC_ATOM_COUNT>
0

> <PUBCHEM_COMPONENT_COUNT>
1

> <PUBCHEM_CACTVS_TAUTO_COUNT>
4

> <PUBCHEM_COORDINATE_TYPE>
1
5
255

> <PUBCHEM_BONDANNOTATIONS>
1  4  8
1  6  8
10  13  8
11  15  8
12  13  8
14  16  8
15  16  8
3  4  8
3  7  8
5  11  8
5  8  8
6  7  8
6  9  8
7  10  8
8  14  8
9  12  8

$$$$

