442001
  -OEChem-07051212562D

 41 44  0     1  0  0  0  0  0999 V2000
    5.8934    3.0301    0.0000 O   0  0  0  0  0  0  0  0  0  0  0  0
    5.5177   -2.7836    0.0000 O   0  0  0  0  0  0  0  0  0  0  0  0
    6.7168   -1.5338    0.0000 O   0  0  0  0  0  0  0  0  0  0  0  0
    5.1708   -0.1355    0.0000 C   0  0  2  0  0  0  0  0  0  0  0  0
    4.2699    0.2984    0.0000 C   0  0  2  0  0  0  0  0  0  0  0  0
    5.0640    1.0413    0.0000 C   0  0  0  0  0  0  0  0  0  0  0  0
    5.6708    2.0552    0.0000 C   0  0  2  0  0  0  0  0  0  0  0  0
    5.0349   -1.1202    0.0000 C   0  0  2  0  0  0  0  0  0  0  0  0
    6.0718    0.2984    0.0000 C   0  0  0  0  0  0  0  0  0  0  0  0
    4.0474    1.2733    0.0000 C   0  0  0  0  0  0  0  0  0  0  0  0
    4.6708    2.0552    0.0000 C   0  0  0  0  0  0  0  0  0  0  0  0
    6.2943    1.2733    0.0000 C   0  0  0  0  0  0  0  0  0  0  0  0
    3.5848   -0.4219    0.0000 C   0  0  0  0  0  0  0  0  0  0  0  0
    4.0566   -1.2969    0.0000 C   0  0  0  0  0  0  0  0  0  0  0  0
    5.7565   -1.8125    0.0000 C   0  0  0  0  0  0  0  0  0  0  0  0
    3.5267   -2.1865    0.0000 C   0  0  0  0  0  0  0  0  0  0  0  0
    2.5503   -0.3759    0.0000 C   0  0  0  0  0  0  0  0  0  0  0  0
    7.2693    1.4958    0.0000 C   0  0  0  0  0  0  0  0  0  0  0  0
    2.4915   -2.1644    0.0000 C   0  0  0  0  0  0  0  0  0  0  0  0
    2.0000   -1.2530    0.0000 C   0  0  0  0  0  0  0  0  0  0  0  0
    4.0115   -3.0611    0.0000 C   0  0  0  0  0  0  0  0  0  0  0  0
    3.5041    0.6672    0.0000 H   0  0  0  0  0  0  0  0  0  0  0  0
    4.6562    1.5083    0.0000 H   0  0  0  0  0  0  0  0  0  0  0  0
    4.4940    0.7975    0.0000 H   0  0  0  0  0  0  0  0  0  0  0  0
    4.8558   -1.7138    0.0000 H   0  0  0  0  0  0  0  0  0  0  0  0
    6.2098   -0.3061    0.0000 H   0  0  0  0  0  0  0  0  0  0  0  0
    6.6918    0.2984    0.0000 H   0  0  0  0  0  0  0  0  0  0  0  0
    3.6608    1.7581    0.0000 H   0  0  0  0  0  0  0  0  0  0  0  0
    3.4888    1.0043    0.0000 H   0  0  0  0  0  0  0  0  0  0  0  0
    4.8088    2.6596    0.0000 H   0  0  0  0  0  0  0  0  0  0  0  0
    4.1123    2.3242    0.0000 H   0  0  0  0  0  0  0  0  0  0  0  0
    6.4858    3.2128    0.0000 H   0  0  0  0  0  0  0  0  0  0  0  0
    2.2624    0.1732    0.0000 H   0  0  0  0  0  0  0  0  0  0  0  0
    7.6910    1.0414    0.0000 H   0  0  0  0  0  0  0  0  0  0  0  0
    7.4520    2.0883    0.0000 H   0  0  0  0  0  0  0  0  0  0  0  0
    2.1680   -2.6933    0.0000 H   0  0  0  0  0  0  0  0  0  0  0  0
    1.3803   -1.2326    0.0000 H   0  0  0  0  0  0  0  0  0  0  0  0
    3.4692   -3.3617    0.0000 H   0  0  0  0  0  0  0  0  0  0  0  0
    4.3120   -3.6034    0.0000 H   0  0  0  0  0  0  0  0  0  0  0  0
    4.5537   -2.7605    0.0000 H   0  0  0  0  0  0  0  0  0  0  0  0
    5.9651   -3.2128    0.0000 H   0  0  0  0  0  0  0  0  0  0  0  0
  7  1  1  6  0  0  0
  1 32  1  0  0  0  0
  2 15  1  0  0  0  0
  2 41  1  0  0  0  0
  3 15  2  0  0  0  0
  4  5  1  0  0  0  0
  4  6  1  6  0  0  0
  4  8  1  0  0  0  0
  4  9  1  0  0  0  0
  5 10  1  0  0  0  0
  5 13  1  0  0  0  0
  5 22  1  6  0  0  0
  6  7  1  0  0  0  0
  6 23  1  0  0  0  0
  6 24  1  0  0  0  0
  7 11  1  0  0  0  0
  7 12  1  0  0  0  0
  8 14  1  0  0  0  0
  8 15  1  1  0  0  0
  8 25  1  0  0  0  0
  9 12  1  0  0  0  0
  9 26  1  0  0  0  0
  9 27  1  0  0  0  0
 10 11  1  0  0  0  0
 10 28  1  0  0  0  0
 10 29  1  0  0  0  0
 11 30  1  0  0  0  0
 11 31  1  0  0  0  0
 12 18  2  0  0  0  0
 13 14  1  0  0  0  0
 13 17  2  0  0  0  0
 14 16  2  0  0  0  0
 16 19  1  0  0  0  0
 16 21  1  0  0  0  0
 17 20  1  0  0  0  0
 17 33  1  0  0  0  0
 18 34  1  0  0  0  0
 18 35  1  0  0  0  0
 19 20  2  0  0  0  0
 19 36  1  0  0  0  0
 20 37  1  0  0  0  0
 21 38  1  0  0  0  0
 21 39  1  0  0  0  0
 21 40  1  0  0  0  0
M  END
> <PUBCHEM_COMPOUND_CID>
442001

> <PUBCHEM_COMPOUND_CANONICALIZED>
1

> <PUBCHEM_CACTVS_COMPLEXITY>
513

> <PUBCHEM_CACTVS_HBOND_ACCEPTOR>
3

> <PUBCHEM_CACTVS_HBOND_DONOR>
2

> <PUBCHEM_CACTVS_ROTATABLE_BOND>
1

> <PUBCHEM_CACTVS_SUBSKEYS>
AAADceB4MAAAAAAAAAAAAAAAAAAAAYMAAAAwYAAABgAAAGDBAAAAGgAACAAAD0SAmAAyCIAAAgCIAiDSCAACAAAgAAAIiAEAAIgIJDKAFRCAYAAkwAEImAeI7PTPgAACAAAQAADAAAYAACAAAYAACAAAAA==

> <PUBCHEM_IUPAC_INCHI>
InChI=1S/C18H20O3/c1-10-4-3-5-12-13-6-7-18(21)9-17(13,8-11(18)2)15(14(10)12)16(19)20/h3-5,13,15,21H,2,6-9H2,1H3,(H,19,20)/t13-,15-,17+,18+/m1/s1

> <PUBCHEM_IUPAC_INCHIKEY>
IFYWTLQMNWNCFH-WCZJQEMASA-N

> <PUBCHEM_XLOGP3_AA>
2

> <PUBCHEM_EXACT_MASS>
284.141245

> <PUBCHEM_MOLECULAR_FORMULA>
C18H20O3

> <PUBCHEM_MOLECULAR_WEIGHT>
284.3496

> <PUBCHEM_OPENEYE_CAN_SMILES>
CC1=CC=CC2=C1C(C34C2CCC(C3)(C(=C)C4)O)C(=O)O

> <PUBCHEM_OPENEYE_ISO_SMILES>
CC1=CC=CC2=C1[C@@H]([C@]34[C@@H]2CC[C@](C3)(C(=C)C4)O)C(=O)O

> <PUBCHEM_CACTVS_TPSA>
57.5

> <PUBCHEM_MONOISOTOPIC_WEIGHT>
284.141245

> <PUBCHEM_TOTAL_CHARGE>
0

> <PUBCHEM_HEAVY_ATOM_COUNT>
21

> <PUBCHEM_ATOM_DEF_STEREO_COUNT>
4

> <PUBCHEM_ATOM_UDEF_STEREO_COUNT>
0

> <PUBCHEM_BOND_DEF_STEREO_COUNT>
0

> <PUBCHEM_BOND_UDEF_STEREO_COUNT>
0

> <PUBCHEM_ISOTOPIC_ATOM_COUNT>
0

> <PUBCHEM_COMPONENT_COUNT>
1

> <PUBCHEM_CACTVS_TAUTO_COUNT>
1

> <PUBCHEM_COORDINATE_TYPE>
1
5
255

> <PUBCHEM_BONDANNOTATIONS>
7  1  6
13  14  8
13  17  8
14  16  8
16  19  8
17  20  8
19  20  8
4  6  6
5  22  6
8  15  5

$$$$

