46173890
  -OEChem-07051213102D

 47 48  0     1  0  0  0  0  0999 V2000
    4.6650   -0.5851    0.0000 O   0  0  0  0  0  0  0  0  0  0  0  0
    6.7528   -2.2602    0.0000 O   0  0  0  0  0  0  0  0  0  0  0  0
    2.0000   -2.6069    0.0000 O   0  0  0  0  0  0  0  0  0  0  0  0
    8.2528   -1.3942    0.0000 O   0  0  0  0  0  0  0  0  0  0  0  0
    9.2528    2.0699    0.0000 O   0  0  0  0  0  0  0  0  0  0  0  0
   11.2528    0.3379    0.0000 O   0  0  0  0  0  0  0  0  0  0  0  0
   10.7528   -0.5281    0.0000 O   0  0  0  0  0  0  0  0  0  0  0  0
    9.2528   -1.3942    0.0000 O   0  0  0  0  0  0  0  0  0  0  0  0
    3.7139   -1.8942    0.0000 N   0  0  0  0  0  0  0  0  0  0  0  0
    6.2528    0.3379    0.0000 N   0  0  0  0  0  0  0  0  0  0  0  0
    8.2528    0.3379    0.0000 N   0  0  0  0  0  0  0  0  0  0  0  0
   12.2528    2.0699    0.0000 N   0  0  0  0  0  0  0  0  0  0  0  0
    3.7139   -0.8942    0.0000 C   0  0  2  0  0  0  0  0  0  0  0  0
    5.2528   -1.3942    0.0000 C   0  0  2  0  0  0  0  0  0  0  0  0
    4.6650   -2.2032    0.0000 C   0  0  0  0  0  0  0  0  0  0  0  0
    2.7056   -0.8900    0.0000 C   0  0  0  0  0  0  0  0  0  0  0  0
    6.2528   -1.3942    0.0000 C   0  0  3  0  0  0  0  0  0  0  0  0
    2.7056   -1.8983    0.0000 C   0  0  0  0  0  0  0  0  0  0  0  0
    6.7528   -0.5281    0.0000 C   0  0  2  0  0  0  0  0  0  0  0  0
    7.7528   -0.5281    0.0000 C   0  0  0  0  0  0  0  0  0  0  0  0
    9.2528    0.3379    0.0000 C   0  0  2  0  0  0  0  0  0  0  0  0
    9.7528    1.2039    0.0000 C   0  0  3  0  0  0  0  0  0  0  0  0
   10.7528    1.2039    0.0000 C   0  0  1  0  0  0  0  0  0  0  0  0
   11.2528    2.0699    0.0000 C   0  0  0  0  0  0  0  0  0  0  0  0
    9.7528   -0.5281    0.0000 C   0  0  0  0  0  0  0  0  0  0  0  0
    3.5827   -0.0544    0.0000 H   0  0  0  0  0  0  0  0  0  0  0  0
    5.5342   -0.8417    0.0000 H   0  0  0  0  0  0  0  0  0  0  0  0
    4.4128   -2.7696    0.0000 H   0  0  0  0  0  0  0  0  0  0  0  0
    5.2019   -2.5132    0.0000 H   0  0  0  0  0  0  0  0  0  0  0  0
    2.7074   -0.2700    0.0000 H   0  0  0  0  0  0  0  0  0  0  0  0
    2.0856   -0.8892    0.0000 H   0  0  0  0  0  0  0  0  0  0  0  0
    5.9428   -1.9311    0.0000 H   0  0  0  0  0  0  0  0  0  0  0  0
    6.1328   -0.5281    0.0000 H   0  0  0  0  0  0  0  0  0  0  0  0
    7.3728   -2.2602    0.0000 H   0  0  0  0  0  0  0  0  0  0  0  0
    8.9428   -0.1991    0.0000 H   0  0  0  0  0  0  0  0  0  0  0  0
    6.5628    0.8748    0.0000 H   0  0  0  0  0  0  0  0  0  0  0  0
    5.6328    0.3379    0.0000 H   0  0  0  0  0  0  0  0  0  0  0  0
    9.1328    1.2039    0.0000 H   0  0  0  0  0  0  0  0  0  0  0  0
    7.9428    0.8748    0.0000 H   0  0  0  0  0  0  0  0  0  0  0  0
   11.3728    1.2039    0.0000 H   0  0  0  0  0  0  0  0  0  0  0  0
   11.3604    2.6805    0.0000 H   0  0  0  0  0  0  0  0  0  0  0  0
   10.6702    2.2820    0.0000 H   0  0  0  0  0  0  0  0  0  0  0  0
    9.5628    2.6069    0.0000 H   0  0  0  0  0  0  0  0  0  0  0  0
   11.8728    0.3379    0.0000 H   0  0  0  0  0  0  0  0  0  0  0  0
   12.5628    2.6069    0.0000 H   0  0  0  0  0  0  0  0  0  0  0  0
   12.5628    1.5330    0.0000 H   0  0  0  0  0  0  0  0  0  0  0  0
   11.0628   -1.0651    0.0000 H   0  0  0  0  0  0  0  0  0  0  0  0
  1 13  1  0  0  0  0
  1 14  1  0  0  0  0
  2 17  1  0  0  0  0
  2 34  1  0  0  0  0
  3 18  2  0  0  0  0
  4 20  2  0  0  0  0
  5 22  1  0  0  0  0
  5 43  1  0  0  0  0
 23  6  1  1  0  0  0
  6 44  1  0  0  0  0
  7 25  1  0  0  0  0
  7 47  1  0  0  0  0
  8 25  2  0  0  0  0
  9 13  1  0  0  0  0
  9 15  1  0  0  0  0
  9 18  1  0  0  0  0
 19 10  1  1  0  0  0
 10 36  1  0  0  0  0
 10 37  1  0  0  0  0
 11 20  1  0  0  0  0
 21 11  1  6  0  0  0
 11 39  1  0  0  0  0
 12 24  1  0  0  0  0
 12 45  1  0  0  0  0
 12 46  1  0  0  0  0
 13 16  1  0  0  0  0
 13 26  1  1  0  0  0
 14 15  1  0  0  0  0
 14 17  1  1  0  0  0
 14 27  1  0  0  0  0
 15 28  1  0  0  0  0
 15 29  1  0  0  0  0
 16 18  1  0  0  0  0
 16 30  1  0  0  0  0
 16 31  1  0  0  0  0
 17 19  1  0  0  0  0
 17 32  1  0  0  0  0
 19 20  1  0  0  0  0
 19 33  1  0  0  0  0
 21 22  1  0  0  0  0
 21 25  1  0  0  0  0
 21 35  1  0  0  0  0
 22 23  1  0  0  0  0
 22 38  1  0  0  0  0
 23 24  1  0  0  0  0
 23 40  1  0  0  0  0
 24 41  1  0  0  0  0
 24 42  1  0  0  0  0
M  END
> <PUBCHEM_COMPOUND_CID>
46173890

> <PUBCHEM_COMPOUND_CANONICALIZED>
1

> <PUBCHEM_CACTVS_COMPLEXITY>
546

> <PUBCHEM_CACTVS_HBOND_ACCEPTOR>
10

> <PUBCHEM_CACTVS_HBOND_DONOR>
7

> <PUBCHEM_CACTVS_ROTATABLE_BOND>
8

> <PUBCHEM_CACTVS_SUBSKEYS>
AAADceBzvAAAAAAAAAAAAAAAAABYAWAAAAAAAAAABYAAAAAAAAAAHgAQCAAACDzhgAYACAPABgAIAAGQGAAAAAAAAAAAAIGIAAADUB4AgCAfQAAHNgCTAAD6EQAAAAAAAAAAAAAAAAAAAAAAAAAAAAAAAA==

> <PUBCHEM_IUPAC_OPENEYE_NAME>
(2R,4R)-5-amino-2-[[(2R)-2-amino-3-hydroxy-3-[(3R,5S)-7-oxo-4-oxa-1-azabicyclo[3.2.0]heptan-3-yl]propanoyl]amino]-3,4-dihydroxy-pentanoic acid

> <PUBCHEM_IUPAC_CAS_NAME>
(2R,4R)-5-amino-2-[[(2R)-2-amino-3-hydroxy-1-oxo-3-[(3R,5S)-7-oxo-4-oxa-1-azabicyclo[3.2.0]heptan-3-yl]propyl]amino]-3,4-dihydroxypentanoic acid

> <PUBCHEM_IUPAC_NAME>
(2R,4R)-5-amino-2-[[(2R)-2-amino-3-hydroxy-3-[(3R,5S)-7-oxo-4-oxa-1-azabicyclo[3.2.0]heptan-3-yl]propanoyl]amino]-3,4-dihydroxypentanoic acid

> <PUBCHEM_IUPAC_SYSTEMATIC_NAME>
(2R,4R)-5-azanyl-2-[[(2R)-2-azanyl-3-oxidanyl-3-[(3R,5S)-7-oxidanylidene-4-oxa-1-azabicyclo[3.2.0]heptan-3-yl]propanoyl]amino]-3,4-bis(oxidanyl)pentanoic acid

> <PUBCHEM_IUPAC_TRADITIONAL_NAME>
(2R,4R)-5-amino-2-[[(2R)-2-amino-3-hydroxy-3-[(3R,5S)-7-keto-4-oxa-1-azabicyclo[3.2.0]heptan-3-yl]propanoyl]amino]-3,4-dihydroxy-valeric acid

> <PUBCHEM_IUPAC_INCHI>
InChI=1S/C13H22N4O8/c14-2-4(18)10(20)9(13(23)24)16-12(22)8(15)11(21)5-3-17-6(19)1-7(17)25-5/h4-5,7-11,18,20-21H,1-3,14-15H2,(H,16,22)(H,23,24)/t4-,5-,7+,8-,9-,10?,11?/m1/s1

> <PUBCHEM_IUPAC_INCHIKEY>
XBWUFTNBJKUSQL-JZRKSFJLSA-N

> <PUBCHEM_XLOGP3_AA>
-7.7

> <PUBCHEM_EXACT_MASS>
362.143764

> <PUBCHEM_MOLECULAR_FORMULA>
C13H22N4O8

> <PUBCHEM_MOLECULAR_WEIGHT>
362.33578

> <PUBCHEM_OPENEYE_CAN_SMILES>
C1C2N(C1=O)CC(O2)C(C(C(=O)NC(C(C(CN)O)O)C(=O)O)N)O

> <PUBCHEM_OPENEYE_ISO_SMILES>
C1[C@H]2N(C1=O)C[C@@H](O2)C([C@H](C(=O)N[C@H](C([C@@H](CN)O)O)C(=O)O)N)O

> <PUBCHEM_CACTVS_TPSA>
209

> <PUBCHEM_MONOISOTOPIC_WEIGHT>
362.143764

> <PUBCHEM_TOTAL_CHARGE>
0

> <PUBCHEM_HEAVY_ATOM_COUNT>
25

> <PUBCHEM_ATOM_DEF_STEREO_COUNT>
5

> <PUBCHEM_ATOM_UDEF_STEREO_COUNT>
2

> <PUBCHEM_BOND_DEF_STEREO_COUNT>
0

> <PUBCHEM_BOND_UDEF_STEREO_COUNT>
0

> <PUBCHEM_ISOTOPIC_ATOM_COUNT>
0

> <PUBCHEM_COMPONENT_COUNT>
1

> <PUBCHEM_CACTVS_TAUTO_COUNT>
4

> <PUBCHEM_COORDINATE_TYPE>
1
5
255

> <PUBCHEM_BONDANNOTATIONS>
19  10  5
21  11  6
13  26  5
14  17  5
17  2  3
22  5  3
23  6  5

$$$$

