10876
  -OEChem-06261205042D

 16 16  0     0  0  0  0  0  0999 V2000
    2.8090    0.3196    0.0000 O   0  0  0  0  0  0  0  0  0  0  0  0
    5.9360   -1.6669    0.0000 O   0  0  0  0  0  0  0  0  0  0  0  0
    6.4712   -0.0196    0.0000 O   0  0  0  0  0  0  0  0  0  0  0  0
    3.6180    0.9074    0.0000 C   0  0  0  0  0  0  0  0  0  0  0  0
    3.3090    1.8585    0.0000 C   0  0  0  0  0  0  0  0  0  0  0  0
    4.5691    0.5984    0.0000 C   0  0  0  0  0  0  0  0  0  0  0  0
    2.3090    1.8585    0.0000 C   0  0  0  0  0  0  0  0  0  0  0  0
    2.0000    0.9074    0.0000 C   0  0  0  0  0  0  0  0  0  0  0  0
    4.7770   -0.3797    0.0000 C   0  0  0  0  0  0  0  0  0  0  0  0
    5.7281   -0.6888    0.0000 C   0  0  0  0  0  0  0  0  0  0  0  0
    3.6734    2.3601    0.0000 H   0  0  0  0  0  0  0  0  0  0  0  0
    5.0298    1.0133    0.0000 H   0  0  0  0  0  0  0  0  0  0  0  0
    1.9446    2.3601    0.0000 H   0  0  0  0  0  0  0  0  0  0  0  0
    1.4103    0.7158    0.0000 H   0  0  0  0  0  0  0  0  0  0  0  0
    4.3162   -0.7946    0.0000 H   0  0  0  0  0  0  0  0  0  0  0  0
    6.5256   -1.8585    0.0000 H   0  0  0  0  0  0  0  0  0  0  0  0
  1  4  1  0  0  0  0
  1  8  1  0  0  0  0
  2 10  1  0  0  0  0
  2 16  1  0  0  0  0
  3 10  2  0  0  0  0
  4  5  2  0  0  0  0
  4  6  1  0  0  0  0
  5  7  1  0  0  0  0
  5 11  1  0  0  0  0
  6  9  2  3  0  0  0
  6 12  1  0  0  0  0
  7  8  2  0  0  0  0
  7 13  1  0  0  0  0
  8 14  1  0  0  0  0
  9 10  1  0  0  0  0
  9 15  1  0  0  0  0
M  END
> <PUBCHEM_COMPOUND_CID>
10876

> <PUBCHEM_COMPOUND_CANONICALIZED>
1

> <PUBCHEM_CACTVS_COMPLEXITY>
151

> <PUBCHEM_CACTVS_HBOND_ACCEPTOR>
3

> <PUBCHEM_CACTVS_HBOND_DONOR>
1

> <PUBCHEM_CACTVS_ROTATABLE_BOND>
2

> <PUBCHEM_CACTVS_SUBSKEYS>
AAADcYBgMAAAAAAAAAAAAAAAAAAAASAAAAAAAAAAAAAAAAABgAAAGgAACAAACASgkAIwDIAABkCIAKjSiAACCAAkIAAIiAEGCMgMJjKENRqCGSCkwBEIuYaIAAAAAAAAAAAAAAAAAAAAAAAAAAAAAAAAAA==

> <PUBCHEM_IUPAC_OPENEYE_NAME>
3-(2-furyl)prop-2-enoic acid

> <PUBCHEM_IUPAC_CAS_NAME>
3-(2-furanyl)-2-propenoic acid

> <PUBCHEM_IUPAC_NAME>
3-(furan-2-yl)prop-2-enoic acid

> <PUBCHEM_IUPAC_SYSTEMATIC_NAME>
3-(furan-2-yl)prop-2-enoic acid

> <PUBCHEM_IUPAC_TRADITIONAL_NAME>
3-(2-furyl)acrylic acid

> <PUBCHEM_IUPAC_INCHI>
InChI=1S/C7H6O3/c8-7(9)4-3-6-2-1-5-10-6/h1-5H,(H,8,9)

> <PUBCHEM_IUPAC_INCHIKEY>
ZCJLOOJRNPHKAV-UHFFFAOYSA-N

> <PUBCHEM_XLOGP3>
1.2

> <PUBCHEM_EXACT_MASS>
138.031694

> <PUBCHEM_MOLECULAR_FORMULA>
C7H6O3

> <PUBCHEM_MOLECULAR_WEIGHT>
138.12074

> <PUBCHEM_OPENEYE_CAN_SMILES>
C1=COC(=C1)C=CC(=O)O

> <PUBCHEM_OPENEYE_ISO_SMILES>
C1=COC(=C1)C=CC(=O)O

> <PUBCHEM_CACTVS_TPSA>
50.4

> <PUBCHEM_MONOISOTOPIC_WEIGHT>
138.031694

> <PUBCHEM_TOTAL_CHARGE>
0

> <PUBCHEM_HEAVY_ATOM_COUNT>
10

> <PUBCHEM_ATOM_DEF_STEREO_COUNT>
0

> <PUBCHEM_ATOM_UDEF_STEREO_COUNT>
0

> <PUBCHEM_BOND_DEF_STEREO_COUNT>
0

> <PUBCHEM_BOND_UDEF_STEREO_COUNT>
1

> <PUBCHEM_ISOTOPIC_ATOM_COUNT>
0

> <PUBCHEM_COMPONENT_COUNT>
1

> <PUBCHEM_CACTVS_TAUTO_COUNT>
1

> <PUBCHEM_COORDINATE_TYPE>
1
5
255

> <PUBCHEM_BONDANNOTATIONS>
1  4  8
1  8  8
4  5  8
5  7  8
6  9  1
7  8  8

$$$$

