12651
  -OEChem-06261207123D

 18 18  0     0  0  0  0  0  0999 V2000
    1.6243   -0.5452   -0.0007 O   0  0  0  0  0  0  0  0  0  0  0  0
   -2.2135    1.0407    0.0000 O   0  0  0  0  0  0  0  0  0  0  0  0
    0.7388   -2.6385    0.0003 O   0  0  0  0  0  0  0  0  0  0  0  0
    1.4064    0.8547   -0.0001 C   0  0  0  0  0  0  0  0  0  0  0  0
   -0.9559    0.4782    0.0001 C   0  0  0  0  0  0  0  0  0  0  0  0
    0.1703    1.3699    0.0003 C   0  0  0  0  0  0  0  0  0  0  0  0
   -0.7862   -0.8471    0.0001 C   0  0  0  0  0  0  0  0  0  0  0  0
    2.6556    1.6710    0.0001 C   0  0  0  0  0  0  0  0  0  0  0  0
    0.5735   -1.4231    0.0001 C   0  0  0  0  0  0  0  0  0  0  0  0
   -3.2134    0.0395   -0.0002 C   0  0  0  0  0  0  0  0  0  0  0  0
   -0.0048    2.4398    0.0008 H   0  0  0  0  0  0  0  0  0  0  0  0
   -1.5605   -1.6033    0.0000 H   0  0  0  0  0  0  0  0  0  0  0  0
    2.4437    2.7451    0.0007 H   0  0  0  0  0  0  0  0  0  0  0  0
    3.2546    1.4456   -0.8879 H   0  0  0  0  0  0  0  0  0  0  0  0
    3.2548    1.4447    0.8877 H   0  0  0  0  0  0  0  0  0  0  0  0
   -4.1775    0.5619   -0.0004 H   0  0  0  0  0  0  0  0  0  0  0  0
   -3.2090   -0.5636    0.9159 H   0  0  0  0  0  0  0  0  0  0  0  0
   -3.2087   -0.5635   -0.9164 H   0  0  0  0  0  0  0  0  0  0  0  0
  1  4  1  0  0  0  0
  1  9  1  0  0  0  0
  2  5  1  0  0  0  0
  2 10  1  0  0  0  0
  3  9  2  0  0  0  0
  4  6  2  0  0  0  0
  4  8  1  0  0  0  0
  5  6  1  0  0  0  0
  5  7  2  0  0  0  0
  6 11  1  0  0  0  0
  7  9  1  0  0  0  0
  7 12  1  0  0  0  0
  8 13  1  0  0  0  0
  8 14  1  0  0  0  0
  8 15  1  0  0  0  0
 10 16  1  0  0  0  0
 10 17  1  0  0  0  0
 10 18  1  0  0  0  0
M  END
> <PUBCHEM_COMPOUND_CID>
12651

> <PUBCHEM_CONFORMER_RMSD>
0.4

> <PUBCHEM_CONFORMER_DIVERSEORDER>
1
2

> <PUBCHEM_MMFF94_PARTIAL_CHARGES>
12
1 -0.23
10 0.28
11 0.15
12 0.15
2 -0.36
3 -0.57
4 -0.06
5 0.08
6 -0.15
7 -0.14
8 0.14
9 0.71

> <PUBCHEM_EFFECTIVE_ROTOR_COUNT>
1

> <PUBCHEM_PHARMACOPHORE_FEATURES>
3
1 2 acceptor
1 3 acceptor
6 1 4 5 6 7 9 rings

> <PUBCHEM_HEAVY_ATOM_COUNT>
10

> <PUBCHEM_ATOM_DEF_STEREO_COUNT>
0

> <PUBCHEM_ATOM_UDEF_STEREO_COUNT>
0

> <PUBCHEM_BOND_DEF_STEREO_COUNT>
0

> <PUBCHEM_BOND_UDEF_STEREO_COUNT>
0

> <PUBCHEM_ISOTOPIC_ATOM_COUNT>
0

> <PUBCHEM_COMPONENT_COUNT>
1

> <PUBCHEM_CACTVS_TAUTO_COUNT>
1

> <PUBCHEM_CONFORMER_ID>
0000316B00000001

> <PUBCHEM_MMFF94_ENERGY>
31.4042

> <PUBCHEM_FEATURE_SELFOVERLAP>
15.223

> <PUBCHEM_SHAPE_FINGERPRINT>
1 1 18411138043306674830
13380535 76 18340209587512534186
14325111 11 18410856516822355681
16945 1 18266740362294111397
18185500 45 17690557911007821771
19021347 11 18410858754552817623
193761 8 17978228592934007180
20645477 70 18337397149355763463
20871998 184 17613145274694253838
21040471 1 18266458707124128512
23235685 24 18339366253488465933
23552423 10 18266737059696434373
241688 4 17402049397163849834
2748010 2 18339634538736401886
29004967 10 18268708496898218795
528862 383 18343311378628795746

> <PUBCHEM_SHAPE_MULTIPOLES>
188.19
3.56
2.13
0.59
1.28
1.45
0
-1.86
0
-0.71
0
0
-0.02
0

> <PUBCHEM_SHAPE_SELFOVERLAP>
385.311

> <PUBCHEM_SHAPE_VOLUME>
109.8

> <PUBCHEM_COORDINATE_TYPE>
2
5
10

$$$$

