148759
  -OEChem-07051213003D

 45 47  0     1  0  0  0  0  0999 V2000
   -2.6593   -1.1647   -0.7041 O   0  0  0  0  0  0  0  0  0  0  0  0
   -0.2600    2.7943   -0.0344 O   0  0  0  0  0  0  0  0  0  0  0  0
    2.1206   -2.8278   -0.1568 O   0  0  0  0  0  0  0  0  0  0  0  0
    4.5501    1.1665    0.5245 O   0  0  0  0  0  0  0  0  0  0  0  0
   -0.2783   -1.3147   -0.3778 N   0  3  0  0  0  0  0  0  0  0  0  0
   -2.7908    1.2687   -0.5616 C   0  0  0  0  0  0  0  0  0  0  0  0
   -1.4191    0.7549   -0.3624 C   0  0  0  0  0  0  0  0  0  0  0  0
   -3.5788   -0.0535   -0.5380 C   0  0  2  0  0  0  0  0  0  0  0  0
   -1.4086   -0.6152   -0.4780 C   0  0  0  0  0  0  0  0  0  0  0  0
   -0.2402    1.4377   -0.1420 C   0  0  0  0  0  0  0  0  0  0  0  0
    0.9083   -0.7127   -0.1549 C   0  0  0  0  0  0  0  0  0  0  0  0
    0.9509    0.7025   -0.0300 C   0  0  0  0  0  0  0  0  0  0  0  0
   -4.3512   -0.2477    0.7298 C   0  0  0  0  0  0  0  0  0  0  0  0
    2.0786   -1.4699   -0.0501 C   0  0  0  0  0  0  0  0  0  0  0  0
   -0.4256   -2.7666   -0.5288 C   0  0  0  0  0  0  0  0  0  0  0  0
    2.1900    1.3192    0.1987 C   0  0  0  0  0  0  0  0  0  0  0  0
    3.3540    0.5538    0.3021 C   0  0  0  0  0  0  0  0  0  0  0  0
    3.2982   -0.8345    0.1782 C   0  0  0  0  0  0  0  0  0  0  0  0
   -3.5515   -0.2434    1.9987 C   0  0  0  0  0  0  0  0  0  0  0  0
   -5.6819   -0.4153    0.7305 C   0  0  0  0  0  0  0  0  0  0  0  0
   -0.7413    3.5286   -1.1593 C   0  0  0  0  0  0  0  0  0  0  0  0
    3.3978   -3.4485   -0.0253 C   0  0  0  0  0  0  0  0  0  0  0  0
    4.5384    2.5881    0.6410 C   0  0  0  0  0  0  0  0  0  0  0  0
   -3.1113    1.9909    0.1946 H   0  0  0  0  0  0  0  0  0  0  0  0
   -2.8786    1.7255   -1.5536 H   0  0  0  0  0  0  0  0  0  0  0  0
   -4.2591   -0.0740   -1.3994 H   0  0  0  0  0  0  0  0  0  0  0  0
   -1.4610   -3.0638   -0.7097 H   0  0  0  0  0  0  0  0  0  0  0  0
    0.1498   -3.0892   -1.4008 H   0  0  0  0  0  0  0  0  0  0  0  0
   -0.1188   -3.2489    0.4034 H   0  0  0  0  0  0  0  0  0  0  0  0
    2.1980    2.4006    0.2895 H   0  0  0  0  0  0  0  0  0  0  0  0
    4.2544   -1.3366    0.2736 H   0  0  0  0  0  0  0  0  0  0  0  0
   -4.1925   -0.3996    2.8743 H   0  0  0  0  0  0  0  0  0  0  0  0
   -2.8128   -1.0507    2.0033 H   0  0  0  0  0  0  0  0  0  0  0  0
   -3.0385    0.7101    2.1526 H   0  0  0  0  0  0  0  0  0  0  0  0
   -6.2327   -0.5551    1.6547 H   0  0  0  0  0  0  0  0  0  0  0  0
   -6.2526   -0.4168   -0.1921 H   0  0  0  0  0  0  0  0  0  0  0  0
   -1.7805    3.8246   -0.9929 H   0  0  0  0  0  0  0  0  0  0  0  0
   -0.6451    2.9691   -2.0964 H   0  0  0  0  0  0  0  0  0  0  0  0
   -0.1418    4.4397   -1.2457 H   0  0  0  0  0  0  0  0  0  0  0  0
    4.0814   -3.1567   -0.8304 H   0  0  0  0  0  0  0  0  0  0  0  0
    3.2360   -4.5263   -0.1383 H   0  0  0  0  0  0  0  0  0  0  0  0
    3.8225   -3.3070    0.9748 H   0  0  0  0  0  0  0  0  0  0  0  0
    5.5718    2.9054    0.8155 H   0  0  0  0  0  0  0  0  0  0  0  0
    3.9547    2.9173    1.5074 H   0  0  0  0  0  0  0  0  0  0  0  0
    4.2122    3.0666   -0.2888 H   0  0  0  0  0  0  0  0  0  0  0  0
  1  8  1  0  0  0  0
  1  9  1  0  0  0  0
  2 10  1  0  0  0  0
  2 21  1  0  0  0  0
  3 14  1  0  0  0  0
  3 22  1  0  0  0  0
  4 17  1  0  0  0  0
  4 23  1  0  0  0  0
  5  9  2  0  0  0  0
  5 11  1  0  0  0  0
  5 15  1  0  0  0  0
  6  7  1  0  0  0  0
  6  8  1  0  0  0  0
  6 24  1  0  0  0  0
  6 25  1  0  0  0  0
  7  9  1  0  0  0  0
  7 10  2  0  0  0  0
  8 13  1  0  0  0  0
  8 26  1  0  0  0  0
 10 12  1  0  0  0  0
 11 12  2  0  0  0  0
 11 14  1  0  0  0  0
 12 16  1  0  0  0  0
 13 19  1  0  0  0  0
 13 20  2  0  0  0  0
 14 18  2  0  0  0  0
 15 27  1  0  0  0  0
 15 28  1  0  0  0  0
 15 29  1  0  0  0  0
 16 17  2  0  0  0  0
 16 30  1  0  0  0  0
 17 18  1  0  0  0  0
 18 31  1  0  0  0  0
 19 32  1  0  0  0  0
 19 33  1  0  0  0  0
 19 34  1  0  0  0  0
 20 35  1  0  0  0  0
 20 36  1  0  0  0  0
 21 37  1  0  0  0  0
 21 38  1  0  0  0  0
 21 39  1  0  0  0  0
 22 40  1  0  0  0  0
 22 41  1  0  0  0  0
 22 42  1  0  0  0  0
 23 43  1  0  0  0  0
 23 44  1  0  0  0  0
 23 45  1  0  0  0  0
M  CHG  1   5   1
M  END
> <PUBCHEM_COMPOUND_CID>
148759

> <PUBCHEM_CONFORMER_RMSD>
0.8

> <PUBCHEM_CONFORMER_DIVERSEORDER>
4
8
7
2
6
1
5
3

> <PUBCHEM_MMFF94_PARTIAL_CHARGES>
26
1 -0.36
10 0.08
11 0.36
13 -0.28
14 0.08
15 0.49
16 -0.15
17 0.08
18 -0.15
19 0.14
2 -0.36
20 -0.3
21 0.28
22 0.28
23 0.28
3 -0.36
30 0.15
31 0.15
35 0.15
36 0.15
4 -0.36
5 -0.21
6 0.14
7 -0.14
8 0.42
9 0.44

> <PUBCHEM_EFFECTIVE_ROTOR_COUNT>
4.6

> <PUBCHEM_PHARMACOPHORE_FEATURES>
6
1 2 acceptor
1 3 acceptor
1 4 acceptor
5 1 6 7 8 9 rings
6 11 12 14 16 17 18 rings
6 5 7 9 10 11 12 rings

> <PUBCHEM_HEAVY_ATOM_COUNT>
23

> <PUBCHEM_ATOM_DEF_STEREO_COUNT>
0

> <PUBCHEM_ATOM_UDEF_STEREO_COUNT>
1

> <PUBCHEM_BOND_DEF_STEREO_COUNT>
0

> <PUBCHEM_BOND_UDEF_STEREO_COUNT>
0

> <PUBCHEM_ISOTOPIC_ATOM_COUNT>
0

> <PUBCHEM_COMPONENT_COUNT>
1

> <PUBCHEM_CACTVS_TAUTO_COUNT>
1

> <PUBCHEM_CONFORMER_ID>
0002451700000004

> <PUBCHEM_MMFF94_ENERGY>
111.4336

> <PUBCHEM_FEATURE_SELFOVERLAP>
30.581

> <PUBCHEM_SHAPE_FINGERPRINT>
10382601 240 18335410270992130386
10411042 1 17976258259813637942
10493431 412 18263363581712591168
10967382 1 18410018714926680838
1100329 8 18049161073033785608
11578080 2 17057542601994445278
12236239 1 17676203564070357763
12390115 104 17901938652713917576
12403259 226 18196092376781401574
12553582 1 18411707560286301180
12596602 18 17603577487929146643
12644460 14 18410574002817033202
13140716 1 17977102366620154233
13540713 4 18194976364168894660
13583140 156 16772137789852317260
14178342 30 18046642100325944178
14223421 5 18268716189121524220
14252887 29 18342733022643462585
14739800 52 16877955931486851962
14787075 74 17773872008796030561
14790565 3 18051124800943632740
14955137 171 18197483052579186064
15196674 1 18338238270901955197
15209294 21 17894623721791375577
15475509 35 17203050797803492098
15475509 84 17752476822553737689
16945 1 18411141290265066356
1813 80 17489299806883462909
18785283 64 17770769127238617501
19591789 44 18265332983173814630
19784866 170 18339924818649322368
20642791 178 17911232819549417700
20645477 70 18339375165830455151
20739085 24 18266999800115652577
21267235 1 18409725201209757198
21421861 104 18270689769860357250
221490 88 18195246839655186862
22182313 1 18271536389049272509
23184049 59 18335414660622604615
2334 1 18410299141635978717
23366157 5 18129665339409386078
23557571 272 17561085855629519781
23558518 356 17984415506103425468
23559900 14 18122639502609054094
2748010 2 18267595773734970548
34934 24 18338245876988492527
350125 39 18265331884142150212
5104073 3 18340208621287389553
7364860 26 18335146440305619478
9709674 26 18195819684859798004

> <PUBCHEM_SHAPE_MULTIPOLES>
444.87
8.81
3.56
1.01
3.42
0.01
0.29
0.09
3.21
-3.59
-0.79
0.89
-0.16
0.92

> <PUBCHEM_SHAPE_SELFOVERLAP>
969.871

> <PUBCHEM_SHAPE_VOLUME>
245.8

> <PUBCHEM_COORDINATE_TYPE>
2
5
10

$$$$

