51090983
  -OEChem-06241223013D

 53 56  0     1  0  0  0  0  0999 V2000
    3.5604    0.3509   -1.9720 O   0  0  0  0  0  0  0  0  0  0  0  0
    0.4948    0.0959   -0.6386 O   0  0  0  0  0  0  0  0  0  0  0  0
    3.1735   -0.7046    0.0674 N   0  0  0  0  0  0  0  0  0  0  0  0
   -1.1973   -1.4728   -0.4559 N   0  0  0  0  0  0  0  0  0  0  0  0
    4.4198    1.4243   -0.0826 C   0  0  0  0  0  0  0  0  0  0  0  0
    4.4840    2.7651   -0.7535 C   0  0  0  0  0  0  0  0  0  0  0  0
    3.6442    2.5808    0.4764 C   0  0  0  0  0  0  0  0  0  0  0  0
    1.1035   -2.0766    0.1045 C   0  0  1  0  0  0  0  0  0  0  0  0
    2.4752   -1.8445   -0.5324 C   0  0  0  0  0  0  0  0  0  0  0  0
    3.6808    0.3100   -0.7504 C   0  0  0  0  0  0  0  0  0  0  0  0
    1.1661   -2.0798    1.6349 C   0  0  0  0  0  0  0  0  0  0  0  0
   -2.2617   -0.6340   -1.0189 C   0  0  1  0  0  0  0  0  0  0  0  0
    3.3132   -0.7601    1.5257 C   0  0  0  0  0  0  0  0  0  0  0  0
    1.9463   -0.8865    2.1896 C   0  0  0  0  0  0  0  0  0  0  0  0
    0.1188   -1.0456   -0.3671 C   0  0  0  0  0  0  0  0  0  0  0  0
   -3.4000   -1.6231   -1.3016 C   0  0  0  0  0  0  0  0  0  0  0  0
   -1.6866   -2.8140   -0.1445 C   0  0  0  0  0  0  0  0  0  0  0  0
   -3.2002   -2.7151   -0.2559 C   0  0  0  0  0  0  0  0  0  0  0  0
   -2.6953    0.5059   -0.1156 C   0  0  0  0  0  0  0  0  0  0  0  0
   -3.1889    1.6963   -0.6490 C   0  0  0  0  0  0  0  0  0  0  0  0
   -2.5945    0.3501    1.2668 C   0  0  0  0  0  0  0  0  0  0  0  0
   -3.5818    2.7310    0.1999 C   0  0  0  0  0  0  0  0  0  0  0  0
   -3.3062    1.8864   -2.1257 C   0  0  0  0  0  0  0  0  0  0  0  0
   -2.9872    1.3847    2.1159 C   0  0  0  0  0  0  0  0  0  0  0  0
   -3.4809    2.5753    1.5825 C   0  0  0  0  0  0  0  0  0  0  0  0
    5.3217    1.1228    0.4421 H   0  0  0  0  0  0  0  0  0  0  0  0
    5.4007    3.3344   -0.6556 H   0  0  0  0  0  0  0  0  0  0  0  0
    3.9646    2.9212   -1.6909 H   0  0  0  0  0  0  0  0  0  0  0  0
    2.5675    2.5887    0.3575 H   0  0  0  0  0  0  0  0  0  0  0  0
    3.9960    3.0236    1.4001 H   0  0  0  0  0  0  0  0  0  0  0  0
    0.7817   -3.0658   -0.2362 H   0  0  0  0  0  0  0  0  0  0  0  0
    3.1137   -2.7219   -0.3706 H   0  0  0  0  0  0  0  0  0  0  0  0
    2.3811   -1.7117   -1.6159 H   0  0  0  0  0  0  0  0  0  0  0  0
   -1.8638   -0.2300   -1.9564 H   0  0  0  0  0  0  0  0  0  0  0  0
    0.1662   -2.0806    2.0816 H   0  0  0  0  0  0  0  0  0  0  0  0
    1.6596   -3.0032    1.9644 H   0  0  0  0  0  0  0  0  0  0  0  0
    3.9359   -1.6315    1.7602 H   0  0  0  0  0  0  0  0  0  0  0  0
    3.8274    0.1197    1.9172 H   0  0  0  0  0  0  0  0  0  0  0  0
    1.3726    0.0340    2.0270 H   0  0  0  0  0  0  0  0  0  0  0  0
    2.0698   -0.9987    3.2726 H   0  0  0  0  0  0  0  0  0  0  0  0
   -3.2642   -2.0601   -2.2992 H   0  0  0  0  0  0  0  0  0  0  0  0
   -4.4008   -1.1821   -1.2620 H   0  0  0  0  0  0  0  0  0  0  0  0
   -1.2915   -3.5014   -0.9007 H   0  0  0  0  0  0  0  0  0  0  0  0
   -1.3664   -3.1455    0.8451 H   0  0  0  0  0  0  0  0  0  0  0  0
   -3.6345   -2.4051    0.7012 H   0  0  0  0  0  0  0  0  0  0  0  0
   -3.6607   -3.6649   -0.5420 H   0  0  0  0  0  0  0  0  0  0  0  0
   -2.2210   -0.5633    1.7195 H   0  0  0  0  0  0  0  0  0  0  0  0
   -3.9675    3.6654   -0.1990 H   0  0  0  0  0  0  0  0  0  0  0  0
   -2.3142    1.9520   -2.5843 H   0  0  0  0  0  0  0  0  0  0  0  0
   -3.8715    1.0695   -2.5854 H   0  0  0  0  0  0  0  0  0  0  0  0
   -3.8391    2.8122   -2.3704 H   0  0  0  0  0  0  0  0  0  0  0  0
   -2.9099    1.2633    3.1924 H   0  0  0  0  0  0  0  0  0  0  0  0
   -3.7867    3.3808    2.2437 H   0  0  0  0  0  0  0  0  0  0  0  0
  1 10  2  0  0  0  0
  2 15  2  0  0  0  0
  3  9  1  0  0  0  0
  3 10  1  0  0  0  0
  3 13  1  0  0  0  0
  4 12  1  0  0  0  0
  4 15  1  0  0  0  0
  4 17  1  0  0  0  0
  5  6  1  0  0  0  0
  5  7  1  0  0  0  0
  5 10  1  0  0  0  0
  5 26  1  0  0  0  0
  6  7  1  0  0  0  0
  6 27  1  0  0  0  0
  6 28  1  0  0  0  0
  7 29  1  0  0  0  0
  7 30  1  0  0  0  0
  8  9  1  0  0  0  0
  8 11  1  0  0  0  0
  8 15  1  0  0  0  0
  8 31  1  0  0  0  0
  9 32  1  0  0  0  0
  9 33  1  0  0  0  0
 11 14  1  0  0  0  0
 11 35  1  0  0  0  0
 11 36  1  0  0  0  0
 12 16  1  0  0  0  0
 12 19  1  0  0  0  0
 12 34  1  0  0  0  0
 13 14  1  0  0  0  0
 13 37  1  0  0  0  0
 13 38  1  0  0  0  0
 14 39  1  0  0  0  0
 14 40  1  0  0  0  0
 16 18  1  0  0  0  0
 16 41  1  0  0  0  0
 16 42  1  0  0  0  0
 17 18  1  0  0  0  0
 17 43  1  0  0  0  0
 17 44  1  0  0  0  0
 18 45  1  0  0  0  0
 18 46  1  0  0  0  0
 19 20  1  0  0  0  0
 19 21  2  0  0  0  0
 20 22  2  0  0  0  0
 20 23  1  0  0  0  0
 21 24  1  0  0  0  0
 21 47  1  0  0  0  0
 22 25  1  0  0  0  0
 22 48  1  0  0  0  0
 23 49  1  0  0  0  0
 23 50  1  0  0  0  0
 23 51  1  0  0  0  0
 24 25  2  0  0  0  0
 24 52  1  0  0  0  0
 25 53  1  0  0  0  0
M  END
> <PUBCHEM_COMPOUND_CID>
51090983

> <PUBCHEM_CONFORMER_RMSD>
0.8

> <PUBCHEM_CONFORMER_DIVERSEORDER>
1
305
59
144
62
243
249
97
289
244
186
176
271
163
229
79
116
256
196
110
174
147
133
308
76
75
7
208
29
233
262
241
257
304
191
214
69
41
192
150
185
199
183
87
217
179
255
190
175
198
223
205
193
264
216
121
299
61
160
161
54
283
231
306
220
297
280
101
248
173
83
78
27
55
140
166
171
279
139
311
104
170
128
25
254
80
17
124
230
30
259
211
172
237
206
52
81
58
46
195
63
295
203
73
281
287
182
24
68
267
64
33
120
91
250
146
300
6
155
90
21
266
119
261
189
246
188
169
164
19
265
202
288
201
232
40
65
228
312
85
71
117
153
309
22
269
184
66
316
132
222
113
12
86
137
156
224
32
291
275
272
148
122
142
236
260
296
213
145
285
92
253
168
34
268
106
219
11
36
115
307
240
50
277
141
28
180
38
225
125
314
282
67
177
310
162
18
45
4
226
77
26
15
143
39
239
197
108
43
274
167
111
95
13
131
242
251
258
82
74
98
235
10
51
16
292
130
94
263
129
20
109
252
284
126
118
49
273
204
238
215
44
181
293
53
301
149
88
60
303
158
207
209
151
114
187
315
89
57
247
5
107
165
154
290
56
286
138
134
194
100
136
9
93
70
72
105
3
276
212
8
270
37
14
178
245
221
31
48
84
294
313
152
47
23
278
103
302
2
102
157
135
35
218
227
159
200
112
99
234
42
210
298
96
123
127

> <PUBCHEM_MMFF94_PARTIAL_CHARGES>
30
1 -0.57
10 0.63
12 0.44
13 0.3
15 0.57
17 0.3
19 -0.14
2 -0.57
20 -0.14
21 -0.15
22 -0.15
23 0.14
24 -0.15
25 -0.15
26 0.1
27 0.1
28 0.1
29 0.1
3 -0.66
30 0.1
4 -0.66
47 0.15
48 0.15
5 -0.1
52 0.15
53 0.15
6 -0.2
7 -0.2
8 0.06
9 0.3

> <PUBCHEM_EFFECTIVE_ROTOR_COUNT>
7.8

> <PUBCHEM_PHARMACOPHORE_FEATURES>
5
1 1 acceptor
1 2 acceptor
5 4 12 16 17 18 rings
6 19 20 21 22 24 25 rings
6 3 8 9 11 13 14 rings

> <PUBCHEM_HEAVY_ATOM_COUNT>
25

> <PUBCHEM_ATOM_DEF_STEREO_COUNT>
0

> <PUBCHEM_ATOM_UDEF_STEREO_COUNT>
2

> <PUBCHEM_BOND_DEF_STEREO_COUNT>
0

> <PUBCHEM_BOND_UDEF_STEREO_COUNT>
0

> <PUBCHEM_ISOTOPIC_ATOM_COUNT>
0

> <PUBCHEM_COMPONENT_COUNT>
1

> <PUBCHEM_CACTVS_TAUTO_COUNT>
1

> <PUBCHEM_CONFORMER_ID>
030B962700000001

> <PUBCHEM_MMFF94_ENERGY>
60.9794

> <PUBCHEM_FEATURE_SELFOVERLAP>
25.372

> <PUBCHEM_SHAPE_FINGERPRINT>
10042902 136 9727363446024331088
10498660 4 18335426750729001404
10670039 82 18197484131402150156
11582403 64 16195400180241951031
11640471 11 18266752448627812963
11725454 13 16698102389682248197
12156800 1 15727206954619340963
12173636 292 17968100880009462047
12633257 1 18339369689841896596
12788726 201 18337123263291404547
13224815 77 18202004326101980942
13583140 156 17559957808465654865
13590594 115 17982167027111310744
13965767 371 18130228280287498612
14123250 116 18408318874034161937
14251751 93 18335697196234990440
14251757 17 17749654213318030412
14251764 38 18264767658736890536
14739800 52 18119834434099420088
14957384 54 18128262378913280817
15342168 16 18117834637091474897
17974551 9 15622010401968789513
20510252 161 18336831875255673203
21049683 271 17764597521659833183
21095088 737 18337680715316954309
21864079 5 18410570695428197968
22182937 141 18334848407607438513
22849341 161 17911525603897523738
22907989 373 17968105205062323111
235170 7 16081376202503108260
23559900 14 18115315608470359590
283562 15 18266741273054700559
4098825 35 17750492037189039492
46194498 28 14780133890676537672
469060 322 17701811099433863577
474 4 18045784743707979353
5048184 11 18336259128107212632
5252454 2 18342444972167280524
5895379 119 18114466734143655952

> <PUBCHEM_SHAPE_MULTIPOLES>
492.79
9.23
3.7
1.9
5.1
0.57
0.5
6.28
-1.16
-1.26
0.08
-0.52
0.43
-1.69

> <PUBCHEM_SHAPE_SELFOVERLAP>
1045.819

> <PUBCHEM_SHAPE_VOLUME>
274.6

> <PUBCHEM_COORDINATE_TYPE>
2
5
10

$$$$

