51351713
  -OEChem-07051213152D

 82 86  0     1  0  0  0  0  0999 V2000
    6.5377    5.5480    0.0000 O   0  0  0  0  0  0  0  0  0  0  0  0
    8.1849    5.0127    0.0000 O   0  0  0  0  0  0  0  0  0  0  0  0
    5.6190    0.4757    0.0000 O   0  0  0  0  0  0  0  0  0  0  0  0
    6.8978   -1.2844    0.0000 O   0  0  0  0  0  0  0  0  0  0  0  0
    2.5016    2.1827    0.0000 O   0  0  0  0  0  0  0  0  0  0  0  0
    3.5197    0.7814    0.0000 O   0  0  0  0  0  0  0  0  0  0  0  0
   14.7674   -4.0553    0.0000 O   0  0  0  0  0  0  0  0  0  0  0  0
    7.4856    3.0448    0.0000 N   0  0  0  0  0  0  0  0  0  0  0  0
    9.1041    1.2804    0.0000 N   0  0  0  0  0  0  0  0  0  0  0  0
   10.7809   -1.3039    0.0000 N   0  0  0  0  0  0  0  0  0  0  0  0
   13.1796   -3.2463    0.0000 N   0  0  0  0  0  0  0  0  0  0  0  0
    5.9467    2.5448    0.0000 C   0  0  1  0  0  0  0  0  0  0  0  0
    5.9467    3.5448    0.0000 C   0  0  1  0  0  0  0  0  0  0  0  0
    6.8978    3.8538    0.0000 C   0  0  1  0  0  0  0  0  0  0  0  0
    6.8978    2.2358    0.0000 C   0  0  0  0  0  0  0  0  0  0  0  0
    5.1377    1.9570    0.0000 C   0  0  0  0  0  0  0  0  0  0  0  0
    7.2068    1.2847    0.0000 C   0  0  0  0  0  0  0  0  0  0  0  0
    5.1377    4.1326    0.0000 C   0  0  0  0  0  0  0  0  0  0  0  0
    8.1578    0.9757    0.0000 C   0  0  0  0  0  0  0  0  0  0  0  0
    4.2242    2.3637    0.0000 C   0  0  0  0  0  0  0  0  0  0  0  0
    7.2068    4.8048    0.0000 C   0  0  0  0  0  0  0  0  0  0  0  0
    8.1578   -0.0243    0.0000 C   0  0  0  0  0  0  0  0  0  0  0  0
    6.6190    0.4757    0.0000 C   0  0  0  0  0  0  0  0  0  0  0  0
    9.6877    0.4757    0.0000 C   0  0  0  0  0  0  0  0  0  0  0  0
    9.1041   -0.3291    0.0000 C   0  0  0  0  0  0  0  0  0  0  0  0
    7.2068   -0.3333    0.0000 C   0  0  0  0  0  0  0  0  0  0  0  0
   10.6877    0.4757    0.0000 C   0  0  0  0  0  0  0  0  0  0  0  0
   11.1877   -0.3903    0.0000 C   0  0  0  0  0  0  0  0  0  0  0  0
    3.4151    1.7759    0.0000 C   0  0  0  0  0  0  0  0  0  0  0  0
   12.1822   -0.4949    0.0000 C   0  0  0  0  0  0  0  0  0  0  0  0
   11.5241   -1.9730    0.0000 C   0  0  0  0  0  0  0  0  0  0  0  0
    9.4147   -1.2796    0.0000 C   0  0  0  0  0  0  0  0  0  0  0  0
   12.3901   -1.4730    0.0000 C   0  0  0  0  0  0  0  0  0  0  0  0
   11.4196   -2.9676    0.0000 C   0  0  0  0  0  0  0  0  0  0  0  0
   12.2286   -3.5553    0.0000 C   0  0  3  0  0  0  0  0  0  0  0  0
   12.8513    0.2483    0.0000 C   0  0  0  0  0  0  0  0  0  0  0  0
   12.2286   -4.5553    0.0000 C   0  0  0  0  0  0  0  0  0  0  0  0
   13.3037   -1.8798    0.0000 C   0  0  0  0  0  0  0  0  0  0  0  0
   13.1796   -4.8644    0.0000 C   0  0  0  0  0  0  0  0  0  0  0  0
   13.7674   -4.0553    0.0000 C   0  0  0  0  0  0  0  0  0  0  0  0
   13.8295    0.0404    0.0000 C   0  0  0  0  0  0  0  0  0  0  0  0
   11.4196   -5.1431    0.0000 C   0  0  0  0  0  0  0  0  0  0  0  0
   13.4886   -5.8154    0.0000 C   0  0  0  0  0  0  0  0  0  0  0  0
   11.5241   -6.1376    0.0000 C   0  0  0  0  0  0  0  0  0  0  0  0
    5.3943    2.8262    0.0000 H   0  0  0  0  0  0  0  0  0  0  0  0
    5.3943    3.2633    0.0000 H   0  0  0  0  0  0  0  0  0  0  0  0
    7.5101    3.9508    0.0000 H   0  0  0  0  0  0  0  0  0  0  0  0
    4.7910    1.4430    0.0000 H   0  0  0  0  0  0  0  0  0  0  0  0
    5.5837    1.5263    0.0000 H   0  0  0  0  0  0  0  0  0  0  0  0
    8.1056    3.0448    0.0000 H   0  0  0  0  0  0  0  0  0  0  0  0
    5.5021    4.6341    0.0000 H   0  0  0  0  0  0  0  0  0  0  0  0
    4.6361    4.4970    0.0000 H   0  0  0  0  0  0  0  0  0  0  0  0
    4.7733    3.6310    0.0000 H   0  0  0  0  0  0  0  0  0  0  0  0
    4.5708    2.8777    0.0000 H   0  0  0  0  0  0  0  0  0  0  0  0
    3.7782    2.7944    0.0000 H   0  0  0  0  0  0  0  0  0  0  0  0
    9.2967    1.8697    0.0000 H   0  0  0  0  0  0  0  0  0  0  0  0
   11.2703    0.6877    0.0000 H   0  0  0  0  0  0  0  0  0  0  0  0
   10.5800    1.0863    0.0000 H   0  0  0  0  0  0  0  0  0  0  0  0
    8.8254   -1.4722    0.0000 H   0  0  0  0  0  0  0  0  0  0  0  0
    9.6073   -1.8689    0.0000 H   0  0  0  0  0  0  0  0  0  0  0  0
   10.0041   -1.0870    0.0000 H   0  0  0  0  0  0  0  0  0  0  0  0
   10.8236   -2.7966    0.0000 H   0  0  0  0  0  0  0  0  0  0  0  0
   11.1478   -3.5248    0.0000 H   0  0  0  0  0  0  0  0  0  0  0  0
   10.1745   -1.4328    0.0000 H   0  0  0  0  0  0  0  0  0  0  0  0
   12.3256   -2.9430    0.0000 H   0  0  0  0  0  0  0  0  0  0  0  0
    6.7292    6.1376    0.0000 H   0  0  0  0  0  0  0  0  0  0  0  0
   13.0836    0.8231    0.0000 H   0  0  0  0  0  0  0  0  0  0  0  0
   12.3255    0.5768    0.0000 H   0  0  0  0  0  0  0  0  0  0  0  0
   13.0515   -2.4462    0.0000 H   0  0  0  0  0  0  0  0  0  0  0  0
   13.8701   -2.1319    0.0000 H   0  0  0  0  0  0  0  0  0  0  0  0
   13.5558   -1.3134    0.0000 H   0  0  0  0  0  0  0  0  0  0  0  0
   13.3712   -2.6567    0.0000 H   0  0  0  0  0  0  0  0  0  0  0  0
    2.0000    1.8182    0.0000 H   0  0  0  0  0  0  0  0  0  0  0  0
   13.7006   -0.5661    0.0000 H   0  0  0  0  0  0  0  0  0  0  0  0
   14.4359   -0.0886    0.0000 H   0  0  0  0  0  0  0  0  0  0  0  0
   13.9584    0.6468    0.0000 H   0  0  0  0  0  0  0  0  0  0  0  0
   10.8532   -4.8909    0.0000 H   0  0  0  0  0  0  0  0  0  0  0  0
   12.8990   -6.0070    0.0000 H   0  0  0  0  0  0  0  0  0  0  0  0
   13.6802   -6.4051    0.0000 H   0  0  0  0  0  0  0  0  0  0  0  0
   14.0783   -5.6238    0.0000 H   0  0  0  0  0  0  0  0  0  0  0  0
   11.0225   -6.5021    0.0000 H   0  0  0  0  0  0  0  0  0  0  0  0
   12.0905   -6.3898    0.0000 H   0  0  0  0  0  0  0  0  0  0  0  0
  1 21  1  0  0  0  0
  1 66  1  0  0  0  0
  2 21  2  0  0  0  0
  3 23  2  0  0  0  0
  4 26  2  0  0  0  0
  5 29  1  0  0  0  0
  5 73  1  0  0  0  0
  6 29  2  0  0  0  0
  7 40  2  0  0  0  0
  8 14  1  0  0  0  0
  8 15  1  0  0  0  0
  8 50  1  0  0  0  0
  9 19  1  0  0  0  0
  9 24  1  0  0  0  0
  9 56  1  0  0  0  0
 10 28  1  0  0  0  0
 10 31  1  0  0  0  0
 10 64  1  0  0  0  0
 11 35  1  0  0  0  0
 11 40  1  0  0  0  0
 11 72  1  0  0  0  0
 12 13  1  0  0  0  0
 12 15  1  0  0  0  0
 12 16  1  1  0  0  0
 12 45  1  0  0  0  0
 13 14  1  0  0  0  0
 13 18  1  6  0  0  0
 13 46  1  0  0  0  0
 14 21  1  1  0  0  0
 14 47  1  0  0  0  0
 15 17  2  0  0  0  0
 16 20  1  0  0  0  0
 16 48  1  0  0  0  0
 16 49  1  0  0  0  0
 17 19  1  0  0  0  0
 17 23  1  0  0  0  0
 18 51  1  0  0  0  0
 18 52  1  0  0  0  0
 18 53  1  0  0  0  0
 19 22  2  0  0  0  0
 20 29  1  0  0  0  0
 20 54  1  0  0  0  0
 20 55  1  0  0  0  0
 22 25  1  0  0  0  0
 22 26  1  0  0  0  0
 23 26  1  0  0  0  0
 24 25  2  0  0  0  0
 24 27  1  0  0  0  0
 25 32  1  0  0  0  0
 27 28  1  0  0  0  0
 27 57  1  0  0  0  0
 27 58  1  0  0  0  0
 28 30  2  0  0  0  0
 30 33  1  0  0  0  0
 30 36  1  0  0  0  0
 31 33  2  0  0  0  0
 31 34  1  0  0  0  0
 32 59  1  0  0  0  0
 32 60  1  0  0  0  0
 32 61  1  0  0  0  0
 33 38  1  0  0  0  0
 34 35  1  0  0  0  0
 34 62  1  0  0  0  0
 34 63  1  0  0  0  0
 35 37  1  0  0  0  0
 35 65  1  0  0  0  0
 36 41  1  0  0  0  0
 36 67  1  0  0  0  0
 36 68  1  0  0  0  0
 37 39  2  0  0  0  0
 37 42  1  0  0  0  0
 38 69  1  0  0  0  0
 38 70  1  0  0  0  0
 38 71  1  0  0  0  0
 39 40  1  0  0  0  0
 39 43  1  0  0  0  0
 41 74  1  0  0  0  0
 41 75  1  0  0  0  0
 41 76  1  0  0  0  0
 42 44  2  0  0  0  0
 42 77  1  0  0  0  0
 43 78  1  0  0  0  0
 43 79  1  0  0  0  0
 43 80  1  0  0  0  0
 44 81  1  0  0  0  0
 44 82  1  0  0  0  0
M  END
> <PUBCHEM_COMPOUND_CID>
51351713

> <PUBCHEM_COMPOUND_CANONICALIZED>
1

> <PUBCHEM_CACTVS_COMPLEXITY>
1340

> <PUBCHEM_CACTVS_HBOND_ACCEPTOR>
8

> <PUBCHEM_CACTVS_HBOND_DONOR>
6

> <PUBCHEM_CACTVS_ROTATABLE_BOND>
10

> <PUBCHEM_CACTVS_SUBSKEYS>
AAADcfB/uAAAAAAAAAAAAAAAAAAAAeLFiBAAAAAAAAAWAAAB4AAAHgAQCAAADSzBngQCiJLJkgCoA6XyXACCgCAlACAImaG4RNgKIHrA1LGEYYhklgDYyUec2/KegAAAAAAAAAAAAAAAAAAAAAAAAQAAAA==

> <PUBCHEM_IUPAC_OPENEYE_NAME>
(2S,3S,4S,5E)-4-(2-carboxyethyl)-5-[2-[[3-ethyl-4-methyl-5-[(4-methyl-5-oxo-3-vinyl-1,2-dihydropyrrol-2-yl)methyl]-1H-pyrrol-2-yl]methyl]-3-methyl-4,5-dioxo-1H-cyclopenta[b]pyrrol-6-ylidene]-3-methyl-pyrrolidine-2-carboxylic acid

> <PUBCHEM_IUPAC_CAS_NAME>
(2S,3S,4S,5E)-4-(2-carboxyethyl)-5-[2-[[5-[(3-ethenyl-4-methyl-5-oxo-1,2-dihydropyrrol-2-yl)methyl]-3-ethyl-4-methyl-1H-pyrrol-2-yl]methyl]-3-methyl-4,5-dioxo-1H-cyclopenta[b]pyrrol-6-ylidene]-3-methyl-2-pyrrolidinecarboxylic acid

> <PUBCHEM_IUPAC_NAME>
(2S,3S,4S,5E)-4-(2-carboxyethyl)-5-[2-[[5-[(3-ethenyl-4-methyl-5-oxo-1,2-dihydropyrrol-2-yl)methyl]-3-ethyl-4-methyl-1H-pyrrol-2-yl]methyl]-3-methyl-4,5-dioxo-1H-cyclopenta[b]pyrrol-6-ylidene]-3-methylpyrrolidine-2-carboxylic acid

> <PUBCHEM_IUPAC_SYSTEMATIC_NAME>
(2S,3S,4S,5E)-5-[2-[[5-[(3-ethenyl-4-methyl-5-oxidanylidene-1,2-dihydropyrrol-2-yl)methyl]-3-ethyl-4-methyl-1H-pyrrol-2-yl]methyl]-3-methyl-4,5-bis(oxidanylidene)-1H-cyclopenta[b]pyrrol-6-ylidene]-4-(3-hydroxy-3-oxopropyl)-3-methyl-pyrrolidine-2-carboxylic acid

> <PUBCHEM_IUPAC_TRADITIONAL_NAME>
(2S,3S,4S,5E)-4-(2-carboxyethyl)-5-[2-[[3-ethyl-5-[(5-keto-4-methyl-3-vinyl-3-pyrrolin-2-yl)methyl]-4-methyl-1H-pyrrol-2-yl]methyl]-4,5-diketo-3-methyl-1H-cyclopenta[b]pyrrol-6-ylidene]-3-methyl-proline

> <PUBCHEM_IUPAC_INCHI>
InChI=1S/C33H38N4O7/c1-7-17-13(3)20(11-23-18(8-2)15(5)32(42)36-23)34-22(17)12-21-16(6)25-29(35-21)26(31(41)30(25)40)28-19(9-10-24(38)39)14(4)27(37-28)33(43)44/h8,14,19,23,27,34-35,37H,2,7,9-12H2,1,3-6H3,(H,36,42)(H,38,39)(H,43,44)/b28-26+/t14-,19-,23?,27-/m0/s1

> <PUBCHEM_IUPAC_INCHIKEY>
RHKAAOSSVJEZNU-LHYWXDRZSA-N

> <PUBCHEM_XLOGP3_AA>
2.9

> <PUBCHEM_EXACT_MASS>
602.27405

> <PUBCHEM_MOLECULAR_FORMULA>
C33H38N4O7

> <PUBCHEM_MOLECULAR_WEIGHT>
602.67742

> <PUBCHEM_OPENEYE_CAN_SMILES>
CCC1=C(NC(=C1C)CC2C(=C(C(=O)N2)C)C=C)CC3=C(C4=C(N3)C(=C5C(C(C(N5)C(=O)O)C)CCC(=O)O)C(=O)C4=O)C

> <PUBCHEM_OPENEYE_ISO_SMILES>
CCC1=C(NC(=C1C)CC2C(=C(C(=O)N2)C)C=C)CC3=C(C4=C(N3)/C(=C\5/[C@H]([C@@H]([C@H](N5)C(=O)O)C)CCC(=O)O)/C(=O)C4=O)C

> <PUBCHEM_CACTVS_TPSA>
181

> <PUBCHEM_MONOISOTOPIC_WEIGHT>
602.27405

> <PUBCHEM_TOTAL_CHARGE>
0

> <PUBCHEM_HEAVY_ATOM_COUNT>
44

> <PUBCHEM_ATOM_DEF_STEREO_COUNT>
3

> <PUBCHEM_ATOM_UDEF_STEREO_COUNT>
1

> <PUBCHEM_BOND_DEF_STEREO_COUNT>
1

> <PUBCHEM_BOND_UDEF_STEREO_COUNT>
0

> <PUBCHEM_ISOTOPIC_ATOM_COUNT>
0

> <PUBCHEM_COMPONENT_COUNT>
1

> <PUBCHEM_CACTVS_TAUTO_COUNT>
1001

> <PUBCHEM_COORDINATE_TYPE>
1
5
255

> <PUBCHEM_BONDANNOTATIONS>
10  28  8
10  31  8
12  16  5
13  18  6
14  21  5
19  22  8
22  25  8
24  25  8
28  30  8
30  33  8
31  33  8
35  34  3
9  19  8
9  24  8

$$$$

