14433
  -OEChem-06241222433D

 60 60  0     0  0  0  0  0  0999 V2000
   -7.2995    1.8417   -1.2140 Cl  0  0  0  0  0  0  0  0  0  0  0  0
    0.5678    1.6644    1.4462 O   0  0  0  0  0  0  0  0  0  0  0  0
   -1.9581    1.1477    1.1580 O   0  0  0  0  0  0  0  0  0  0  0  0
    1.3551   -0.1776    0.2721 N   0  0  0  0  0  0  0  0  0  0  0  0
    4.6806    1.4162   -0.3273 N   0  0  0  0  0  0  0  0  0  0  0  0
    0.8111   -3.8203   -0.3711 N   0  0  0  0  0  0  0  0  0  0  0  0
    2.7521    0.1658    0.5078 C   0  0  0  0  0  0  0  0  0  0  0  0
    1.1382   -1.4002   -0.4973 C   0  0  0  0  0  0  0  0  0  0  0  0
    3.2930    1.0619   -0.5966 C   0  0  0  0  0  0  0  0  0  0  0  0
    1.0560   -2.6167    0.4130 C   0  0  0  0  0  0  0  0  0  0  0  0
    5.3546    1.8359   -1.5576 C   0  0  0  0  0  0  0  0  0  0  0  0
    4.7566    2.4769    0.6793 C   0  0  0  0  0  0  0  0  0  0  0  0
    1.2119   -5.0141    0.3762 C   0  0  0  0  0  0  0  0  0  0  0  0
   -0.6000   -3.9106   -0.7515 C   0  0  0  0  0  0  0  0  0  0  0  0
    0.3510    0.6424    0.7877 C   0  0  0  0  0  0  0  0  0  0  0  0
   -1.0842    0.2385    0.5239 C   0  0  0  0  0  0  0  0  0  0  0  0
    4.7133    3.0858   -2.1360 C   0  0  0  0  0  0  0  0  0  0  0  0
    6.1997    2.8094    1.0186 C   0  0  0  0  0  0  0  0  0  0  0  0
    0.3881   -5.1709    1.6431 C   0  0  0  0  0  0  0  0  0  0  0  0
   -0.8562   -5.1263   -1.6260 C   0  0  0  0  0  0  0  0  0  0  0  0
   -3.2055    1.3106    0.6031 C   0  0  0  0  0  0  0  0  0  0  0  0
   -3.8101    0.2529   -0.0763 C   0  0  0  0  0  0  0  0  0  0  0  0
   -3.8675    2.5328    0.7213 C   0  0  0  0  0  0  0  0  0  0  0  0
   -5.0763    0.4173   -0.6375 C   0  0  0  0  0  0  0  0  0  0  0  0
   -5.1337    2.6972    0.1601 C   0  0  0  0  0  0  0  0  0  0  0  0
   -5.7381    1.6396   -0.5194 C   0  0  0  0  0  0  0  0  0  0  0  0
    2.8069    0.6600    1.4828 H   0  0  0  0  0  0  0  0  0  0  0  0
    3.3424   -0.7547    0.5910 H   0  0  0  0  0  0  0  0  0  0  0  0
    0.2250   -1.2735   -1.0817 H   0  0  0  0  0  0  0  0  0  0  0  0
    1.9527   -1.5127   -1.2236 H   0  0  0  0  0  0  0  0  0  0  0  0
    2.6484    1.9438   -0.7049 H   0  0  0  0  0  0  0  0  0  0  0  0
    3.2164    0.5055   -1.5402 H   0  0  0  0  0  0  0  0  0  0  0  0
    0.2945   -2.4582    1.1861 H   0  0  0  0  0  0  0  0  0  0  0  0
    2.0151   -2.6967    0.9417 H   0  0  0  0  0  0  0  0  0  0  0  0
    6.4291    1.9855   -1.4082 H   0  0  0  0  0  0  0  0  0  0  0  0
    5.2948    1.0267   -2.2973 H   0  0  0  0  0  0  0  0  0  0  0  0
    4.2030    3.3850    0.4157 H   0  0  0  0  0  0  0  0  0  0  0  0
    4.3086    2.1231    1.6146 H   0  0  0  0  0  0  0  0  0  0  0  0
    1.1578   -5.9206   -0.2357 H   0  0  0  0  0  0  0  0  0  0  0  0
    2.2731   -4.9332    0.6460 H   0  0  0  0  0  0  0  0  0  0  0  0
   -1.2943   -3.8912    0.0961 H   0  0  0  0  0  0  0  0  0  0  0  0
   -0.8671   -3.0439   -1.3664 H   0  0  0  0  0  0  0  0  0  0  0  0
   -1.2209    0.2564   -0.5642 H   0  0  0  0  0  0  0  0  0  0  0  0
   -1.2559   -0.7653    0.9228 H   0  0  0  0  0  0  0  0  0  0  0  0
    3.6484    2.9713   -2.3563 H   0  0  0  0  0  0  0  0  0  0  0  0
    4.8564    3.9744   -1.5152 H   0  0  0  0  0  0  0  0  0  0  0  0
    5.1960    3.3111   -3.0949 H   0  0  0  0  0  0  0  0  0  0  0  0
    6.7879    1.9067    1.2168 H   0  0  0  0  0  0  0  0  0  0  0  0
    6.6941    3.3891    0.2333 H   0  0  0  0  0  0  0  0  0  0  0  0
    6.2306    3.4223    1.9266 H   0  0  0  0  0  0  0  0  0  0  0  0
    0.4540   -4.3140    2.3191 H   0  0  0  0  0  0  0  0  0  0  0  0
   -0.6648   -5.3955    1.4519 H   0  0  0  0  0  0  0  0  0  0  0  0
    0.7780   -6.0280    2.2060 H   0  0  0  0  0  0  0  0  0  0  0  0
   -0.1266   -5.2013   -2.4397 H   0  0  0  0  0  0  0  0  0  0  0  0
   -0.8515   -6.0618   -1.0586 H   0  0  0  0  0  0  0  0  0  0  0  0
   -1.8475   -5.0441   -2.0859 H   0  0  0  0  0  0  0  0  0  0  0  0
   -3.3382   -0.7208   -0.1695 H   0  0  0  0  0  0  0  0  0  0  0  0
   -3.4011    3.3598    1.2496 H   0  0  0  0  0  0  0  0  0  0  0  0
   -5.5376   -0.4168   -1.1600 H   0  0  0  0  0  0  0  0  0  0  0  0
   -5.6375    3.6552    0.2598 H   0  0  0  0  0  0  0  0  0  0  0  0
  1 26  1  0  0  0  0
  2 15  2  0  0  0  0
  3 16  1  0  0  0  0
  3 21  1  0  0  0  0
  4  7  1  0  0  0  0
  4  8  1  0  0  0  0
  4 15  1  0  0  0  0
  5  9  1  0  0  0  0
  5 11  1  0  0  0  0
  5 12  1  0  0  0  0
  6 10  1  0  0  0  0
  6 13  1  0  0  0  0
  6 14  1  0  0  0  0
  7  9  1  0  0  0  0
  7 27  1  0  0  0  0
  7 28  1  0  0  0  0
  8 10  1  0  0  0  0
  8 29  1  0  0  0  0
  8 30  1  0  0  0  0
  9 31  1  0  0  0  0
  9 32  1  0  0  0  0
 10 33  1  0  0  0  0
 10 34  1  0  0  0  0
 11 17  1  0  0  0  0
 11 35  1  0  0  0  0
 11 36  1  0  0  0  0
 12 18  1  0  0  0  0
 12 37  1  0  0  0  0
 12 38  1  0  0  0  0
 13 19  1  0  0  0  0
 13 39  1  0  0  0  0
 13 40  1  0  0  0  0
 14 20  1  0  0  0  0
 14 41  1  0  0  0  0
 14 42  1  0  0  0  0
 15 16  1  0  0  0  0
 16 43  1  0  0  0  0
 16 44  1  0  0  0  0
 17 45  1  0  0  0  0
 17 46  1  0  0  0  0
 17 47  1  0  0  0  0
 18 48  1  0  0  0  0
 18 49  1  0  0  0  0
 18 50  1  0  0  0  0
 19 51  1  0  0  0  0
 19 52  1  0  0  0  0
 19 53  1  0  0  0  0
 20 54  1  0  0  0  0
 20 55  1  0  0  0  0
 20 56  1  0  0  0  0
 21 22  2  0  0  0  0
 21 23  1  0  0  0  0
 22 24  1  0  0  0  0
 22 57  1  0  0  0  0
 23 25  2  0  0  0  0
 23 58  1  0  0  0  0
 24 26  2  0  0  0  0
 24 59  1  0  0  0  0
 25 26  1  0  0  0  0
 25 60  1  0  0  0  0
M  END
> <PUBCHEM_COMPOUND_CID>
14433

> <PUBCHEM_CONFORMER_RMSD>
1.2

> <PUBCHEM_CONFORMER_DIVERSEORDER>
1
42
57
48
24
35
45
4
63
30
55
64
16
62
47
21
26
11
56
58
34
51
38
67
59
50
66
32
27
22
65
28
12
39
5
18
13
25
3
43
23
33
14
9
61
20
40
60
17
49
29
2
41
46
53
54
44
52
15
19
31
8
7
10
36
6
37

> <PUBCHEM_MMFF94_PARTIAL_CHARGES>
26
1 -0.18
10 0.27
11 0.27
12 0.27
13 0.27
14 0.27
15 0.57
16 0.34
2 -0.57
21 0.08
22 -0.15
23 -0.15
24 -0.15
25 -0.15
26 0.18
3 -0.36
4 -0.66
5 -0.81
57 0.15
58 0.15
59 0.15
6 -0.81
60 0.15
7 0.3
8 0.3
9 0.27

> <PUBCHEM_EFFECTIVE_ROTOR_COUNT>
14

> <PUBCHEM_PHARMACOPHORE_FEATURES>
5
1 2 acceptor
1 3 acceptor
1 5 cation
1 6 cation
6 21 22 23 24 25 26 rings

> <PUBCHEM_HEAVY_ATOM_COUNT>
26

> <PUBCHEM_ATOM_DEF_STEREO_COUNT>
0

> <PUBCHEM_ATOM_UDEF_STEREO_COUNT>
0

> <PUBCHEM_BOND_DEF_STEREO_COUNT>
0

> <PUBCHEM_BOND_UDEF_STEREO_COUNT>
0

> <PUBCHEM_ISOTOPIC_ATOM_COUNT>
0

> <PUBCHEM_COMPONENT_COUNT>
1

> <PUBCHEM_CACTVS_TAUTO_COUNT>
1

> <PUBCHEM_CONFORMER_ID>
0000386100000001

> <PUBCHEM_MMFF94_ENERGY>
54.7125

> <PUBCHEM_FEATURE_SELFOVERLAP>
25.383

> <PUBCHEM_SHAPE_FINGERPRINT>
10319688 77 17190099847813169146
10554248 39 17976836594946432533
10721379 63 18048021167179944768
10937287 8 18410854347879786606
11069576 57 17972329670528526159
11991303 11 18268696234941045614
12293681 160 17894908520972735416
12788726 201 18050580538445709562
13052359 8 18266173920991409514
13150687 139 18335134302622163094
13911987 19 18338223904052474257
13955234 65 18196083571924339451
13968360 50 18340492256574425778
14790565 3 18408605855185261176
15463212 79 18410300172602151055
15484559 13 18333449871914118116
15878777 1 5153220049789073818
18365409 1 18192153698803397167
19301676 85 17974260383521232782
19319366 153 18261965127745078839
21049683 118 18192457228347320258
21304303 282 18266186024019787438
21796203 349 17398632055054267523
23366157 5 18124871523908547899
23559900 14 17975140043581221171
23929065 36 17757007618404006264
3103668 31 18048885087537132039
38695281 34 18411698781299437820
4058900 60 18339912805377784657
4409770 3 18124306108449168234
46194498 28 18056201508432549829
504843 32 18129374908692731442
6025842 7 18338519771680150583
6058803 2 17899415574307764441
9658208 31 18263360305327887968
9981440 41 18341608196568245179

> <PUBCHEM_SHAPE_MULTIPOLES>
510.26
14.36
7.39
1.5
9.25
15.66
-0.38
-24.2
-4.35
-3.87
-0.51
-1.06
-0.05
-1.21

> <PUBCHEM_SHAPE_SELFOVERLAP>
998.572

> <PUBCHEM_SHAPE_VOLUME>
309.5

> <PUBCHEM_COORDINATE_TYPE>
2
5
10

$$$$

