80654
  -OEChem-07051213073D

 19 19  0     0  0  0  0  0  0999 V2000
    2.9396    1.2094   -0.0629 O   0  0  0  0  0  0  0  0  0  0  0  0
    2.0504   -0.9381   -0.2897 N   0  0  0  0  0  0  0  0  0  0  0  0
   -0.2388   -0.3898    0.4098 C   0  0  0  0  0  0  0  0  0  0  0  0
    1.1013   -0.8973    0.8239 C   0  0  0  0  0  0  0  0  0  0  0  0
   -0.5170    0.9756    0.4721 C   0  0  0  0  0  0  0  0  0  0  0  0
   -1.2138   -1.2804   -0.0394 C   0  0  0  0  0  0  0  0  0  0  0  0
   -1.7701    1.4504    0.0848 C   0  0  0  0  0  0  0  0  0  0  0  0
   -2.4669   -0.8055   -0.4266 C   0  0  0  0  0  0  0  0  0  0  0  0
   -2.7451    0.5599   -0.3646 C   0  0  0  0  0  0  0  0  0  0  0  0
    2.8604    0.1157   -0.6073 C   0  0  0  0  0  0  0  0  0  0  0  0
    1.5187   -0.2746    1.6243 H   0  0  0  0  0  0  0  0  0  0  0  0
    1.0264   -1.9162    1.2207 H   0  0  0  0  0  0  0  0  0  0  0  0
    0.2318    1.6809    0.8222 H   0  0  0  0  0  0  0  0  0  0  0  0
   -1.0091   -2.3463   -0.0942 H   0  0  0  0  0  0  0  0  0  0  0  0
   -1.9870    2.5136    0.1337 H   0  0  0  0  0  0  0  0  0  0  0  0
   -3.2260   -1.4988   -0.7769 H   0  0  0  0  0  0  0  0  0  0  0  0
    2.0923   -1.7811   -0.8548 H   0  0  0  0  0  0  0  0  0  0  0  0
   -3.7208    0.9297   -0.6661 H   0  0  0  0  0  0  0  0  0  0  0  0
    3.4897   -0.1313   -1.4784 H   0  0  0  0  0  0  0  0  0  0  0  0
  1 10  2  0  0  0  0
  2  4  1  0  0  0  0
  2 10  1  0  0  0  0
  2 17  1  0  0  0  0
  3  4  1  0  0  0  0
  3  5  2  0  0  0  0
  3  6  1  0  0  0  0
  4 11  1  0  0  0  0
  4 12  1  0  0  0  0
  5  7  1  0  0  0  0
  5 13  1  0  0  0  0
  6  8  2  0  0  0  0
  6 14  1  0  0  0  0
  7  9  2  0  0  0  0
  7 15  1  0  0  0  0
  8  9  1  0  0  0  0
  8 16  1  0  0  0  0
  9 18  1  0  0  0  0
 10 19  1  0  0  0  0
M  END
> <PUBCHEM_COMPOUND_CID>
80654

> <PUBCHEM_CONFORMER_RMSD>
0.6

> <PUBCHEM_CONFORMER_DIVERSEORDER>
2
4
3
1
5

> <PUBCHEM_MMFF94_PARTIAL_CHARGES>
17
1 -0.57
10 0.57
13 0.15
14 0.15
15 0.15
16 0.15
17 0.37
18 0.15
19 0.06
2 -0.73
3 -0.14
4 0.44
5 -0.15
6 -0.15
7 -0.15
8 -0.15
9 -0.15

> <PUBCHEM_EFFECTIVE_ROTOR_COUNT>
3

> <PUBCHEM_PHARMACOPHORE_FEATURES>
3
1 1 acceptor
1 2 donor
6 3 5 6 7 8 9 rings

> <PUBCHEM_HEAVY_ATOM_COUNT>
10

> <PUBCHEM_ATOM_DEF_STEREO_COUNT>
0

> <PUBCHEM_ATOM_UDEF_STEREO_COUNT>
0

> <PUBCHEM_BOND_DEF_STEREO_COUNT>
0

> <PUBCHEM_BOND_UDEF_STEREO_COUNT>
0

> <PUBCHEM_ISOTOPIC_ATOM_COUNT>
0

> <PUBCHEM_COMPONENT_COUNT>
1

> <PUBCHEM_CACTVS_TAUTO_COUNT>
2

> <PUBCHEM_CONFORMER_ID>
00013B0E00000002

> <PUBCHEM_MMFF94_ENERGY>
16.5952

> <PUBCHEM_FEATURE_SELFOVERLAP>
15.223

> <PUBCHEM_SHAPE_FINGERPRINT>
12716758 59 18408040731878323682
12897270 3 18334292054823796350
12932764 1 17775002461241742574
14325111 11 18412262865087113629
14390081 3 18342739619692168884
15310529 11 18113901567390952278
15775835 57 18201714106624843756
16945 1 18334587853637751995
20653085 51 18267010846555019777
21040471 1 17902527204718983267
21293036 1 18410582768876542887
23552423 10 18195533811916080667
2748010 2 17617674150246294211
29004967 10 15213317342762007131
369184 2 11887948835266275167
528716 315 18336539434889261359

> <PUBCHEM_SHAPE_MULTIPOLES>
194.94
4.52
1.48
0.79
2.11
0.15
0.04
0.78
-1.11
-0.25
0.06
0.09
-0.05
-0.19

> <PUBCHEM_SHAPE_SELFOVERLAP>
396.979

> <PUBCHEM_SHAPE_VOLUME>
112.6

> <PUBCHEM_COORDINATE_TYPE>
2
5
10

$$$$

