5825520
  -OEChem-07051213063D

 31 32  0     0  0  0  0  0  0999 V2000
    6.0068    0.0444    0.0473 Cl  0  0  0  0  0  0  0  0  0  0  0  0
   -5.0233    0.3872   -0.4101 N   0  0  0  0  0  0  0  0  0  0  0  0
   -0.8608   -0.1009    0.2905 C   0  0  0  0  0  0  0  0  0  0  0  0
   -0.4760   -0.8969    1.5198 C   0  0  0  0  0  0  0  0  0  0  0  0
   -2.3097    0.0692    0.0466 C   0  0  0  0  0  0  0  0  0  0  0  0
    0.0820    0.4473   -0.5183 C   0  0  0  0  0  0  0  0  0  0  0  0
    1.5268    0.3492   -0.3799 C   0  0  0  0  0  0  0  0  0  0  0  0
   -0.3036   -2.3815    1.2234 C   0  0  0  0  0  0  0  0  0  0  0  0
   -2.9715   -0.8476   -0.7413 C   0  0  0  0  0  0  0  0  0  0  0  0
   -2.9662    1.1403    0.6126 C   0  0  0  0  0  0  0  0  0  0  0  0
    2.2214    1.2953    0.3736 C   0  0  0  0  0  0  0  0  0  0  0  0
    2.2173   -0.6915   -1.0009 C   0  0  0  0  0  0  0  0  0  0  0  0
    3.6068    1.2009    0.5058 C   0  0  0  0  0  0  0  0  0  0  0  0
    3.6028   -0.7861   -0.8686 C   0  0  0  0  0  0  0  0  0  0  0  0
   -4.3277   -0.6442   -0.9391 C   0  0  0  0  0  0  0  0  0  0  0  0
   -4.3226    1.2548    0.3539 C   0  0  0  0  0  0  0  0  0  0  0  0
    4.2975    0.1602   -0.1151 C   0  0  0  0  0  0  0  0  0  0  0  0
   -1.2382   -0.7735    2.2999 H   0  0  0  0  0  0  0  0  0  0  0  0
    0.4492   -0.5120    1.9643 H   0  0  0  0  0  0  0  0  0  0  0  0
   -0.2386    1.0234   -1.3853 H   0  0  0  0  0  0  0  0  0  0  0  0
    0.4649   -2.5608    0.4663 H   0  0  0  0  0  0  0  0  0  0  0  0
   -1.2388   -2.8289    0.8715 H   0  0  0  0  0  0  0  0  0  0  0  0
   -0.0051   -2.9113    2.1340 H   0  0  0  0  0  0  0  0  0  0  0  0
   -2.4712   -1.6951   -1.1966 H   0  0  0  0  0  0  0  0  0  0  0  0
   -2.4614    1.8707    1.2354 H   0  0  0  0  0  0  0  0  0  0  0  0
    1.6972    2.1122    0.8636 H   0  0  0  0  0  0  0  0  0  0  0  0
    1.6905   -1.4354   -1.5937 H   0  0  0  0  0  0  0  0  0  0  0  0
    4.1351    1.9454    1.0959 H   0  0  0  0  0  0  0  0  0  0  0  0
    4.1278   -1.6020   -1.3586 H   0  0  0  0  0  0  0  0  0  0  0  0
   -4.9086   -1.3281   -1.5492 H   0  0  0  0  0  0  0  0  0  0  0  0
   -4.8998    2.0747    0.7687 H   0  0  0  0  0  0  0  0  0  0  0  0
  1 17  1  0  0  0  0
  2 15  2  0  0  0  0
  2 16  1  0  0  0  0
  3  4  1  0  0  0  0
  3  5  1  0  0  0  0
  3  6  2  0  0  0  0
  4  8  1  0  0  0  0
  4 18  1  0  0  0  0
  4 19  1  0  0  0  0
  5  9  2  0  0  0  0
  5 10  1  0  0  0  0
  6  7  1  0  0  0  0
  6 20  1  0  0  0  0
  7 11  2  0  0  0  0
  7 12  1  0  0  0  0
  8 21  1  0  0  0  0
  8 22  1  0  0  0  0
  8 23  1  0  0  0  0
  9 15  1  0  0  0  0
  9 24  1  0  0  0  0
 10 16  2  0  0  0  0
 10 25  1  0  0  0  0
 11 13  1  0  0  0  0
 11 26  1  0  0  0  0
 12 14  2  0  0  0  0
 12 27  1  0  0  0  0
 13 17  2  0  0  0  0
 13 28  1  0  0  0  0
 14 17  1  0  0  0  0
 14 29  1  0  0  0  0
 15 30  1  0  0  0  0
 16 31  1  0  0  0  0
M  END
> <PUBCHEM_COMPOUND_CID>
5825520

> <PUBCHEM_CONFORMER_RMSD>
0.6

> <PUBCHEM_CONFORMER_DIVERSEORDER>
1
2
3

> <PUBCHEM_MMFF94_PARTIAL_CHARGES>
25
1 -0.18
10 -0.15
11 -0.15
12 -0.15
13 -0.15
14 -0.15
15 0.16
16 0.16
17 0.18
2 -0.62
20 0.15
24 0.15
25 0.15
26 0.15
27 0.15
28 0.15
29 0.15
3 -0.17
30 0.15
31 0.15
4 0.14
5 0.03
6 -0.18
7 0.03
9 -0.15

> <PUBCHEM_EFFECTIVE_ROTOR_COUNT>
3

> <PUBCHEM_PHARMACOPHORE_FEATURES>
4
1 2 acceptor
1 8 hydrophobe
6 2 5 9 10 15 16 rings
6 7 11 12 13 14 17 rings

> <PUBCHEM_HEAVY_ATOM_COUNT>
17

> <PUBCHEM_ATOM_DEF_STEREO_COUNT>
0

> <PUBCHEM_ATOM_UDEF_STEREO_COUNT>
0

> <PUBCHEM_BOND_DEF_STEREO_COUNT>
1

> <PUBCHEM_BOND_UDEF_STEREO_COUNT>
0

> <PUBCHEM_ISOTOPIC_ATOM_COUNT>
0

> <PUBCHEM_COMPONENT_COUNT>
1

> <PUBCHEM_CACTVS_TAUTO_COUNT>
1

> <PUBCHEM_CONFORMER_ID>
0058E3F000000001

> <PUBCHEM_MMFF94_ENERGY>
51.189

> <PUBCHEM_FEATURE_SELFOVERLAP>
20.297

> <PUBCHEM_SHAPE_FINGERPRINT>
10906281 52 18338215121302919628
11370993 70 17894351081335728143
11401426 45 18410575093326931652
11543360 7 17676490527471934295
12107183 9 17320124738528442586
12236239 1 18410294739948517389
12500047 106 18200871782287244850
128620 24 13912317984529544256
13167823 11 17967535674712751623
13533116 47 18341900753336338058
14115302 16 17846769694711820462
14943859 89 16343699919893083544
15309172 13 17203608185868527467
15375358 24 18410849946039045698
17834072 33 17967816020524649724
18186145 218 18343587334678110413
187816 3 18413107259957846864
19489759 90 18040155123555946928
200 152 17022619779943364020
20279233 1 18410564077300332678
20645477 70 17749945674183258742
21033648 29 17131288873545838676
21267235 1 17967525753290649565
21618674 57 18342176678850915544
23402539 116 18411141337562668428
23402655 69 18114178661522184844
23536379 177 17894911853587365664
23557571 272 17168137966379039297
23559900 14 18341049623751000168
26918003 58 16950001426380126094
312423 11 5183528251238567188
351380 180 18334577940769038104
3545911 37 17967812756017123821
366044 4 18060137639226078859
4214541 1 18040152929023071221
474 4 18341611482139351381
4990 188 18408884048727914343
5104073 3 18040715857169262907
542803 24 18343579638228708396
633830 44 18341894095477301637
69090 78 18333733507101239671
7495541 125 16154000028092044999
74978 22 17702937016161846724
77779 3 17967812747516814653
81228 2 17198813030955448419
9709674 26 18187076235236205382
9971528 1 18412826880820620396
9981440 41 17325503107062267705

> <PUBCHEM_SHAPE_MULTIPOLES>
346.74
11.08
1.51
1.12
3.49
0.48
-0.16
-2.11
1.72
-0.35
-0.51
-0.2
0.4
0.05

> <PUBCHEM_SHAPE_SELFOVERLAP>
728.483

> <PUBCHEM_SHAPE_VOLUME>
196.1

> <PUBCHEM_COORDINATE_TYPE>
2
5
10

$$$$

