92823
  -OEChem-07051212513D

 35 38  0     1  0  0  0  0  0999 V2000
    3.5398   -1.8685   -0.3381 P   0  0  2  0  0  0  0  0  0  0  0  0
    1.3217    1.3932    0.9923 O   0  0  0  0  0  0  0  0  0  0  0  0
    2.0678   -1.6597    0.3208 O   0  0  0  0  0  0  0  0  0  0  0  0
    3.6880   -0.3911   -0.9994 O   0  0  0  0  0  0  0  0  0  0  0  0
    3.2532   -2.8238   -1.6098 O   0  0  0  0  0  0  0  0  0  0  0  0
    3.2967    3.3742    1.3498 O   0  0  0  0  0  0  0  0  0  0  0  0
    4.6308   -2.3065    0.5893 O   0  0  0  0  0  0  0  0  0  0  0  0
   -5.0643    1.0454   -1.1244 O   0  0  0  0  0  0  0  0  0  0  0  0
   -0.7271    0.6434    0.0866 N   0  0  0  0  0  0  0  0  0  0  0  0
   -2.2319   -1.1239    0.8133 N   0  0  0  0  0  0  0  0  0  0  0  0
   -2.2423    1.8911   -1.0029 N   0  0  0  0  0  0  0  0  0  0  0  0
   -4.5134   -0.8275    0.1249 N   0  0  0  0  0  0  0  0  0  0  0  0
   -3.8286   -2.6897    1.3972 N   0  0  0  0  0  0  0  0  0  0  0  0
    1.3997   -0.5842   -0.3566 C   0  0  2  0  0  0  0  0  0  0  0  0
    2.5080    0.3728   -0.7654 C   0  0  1  0  0  0  0  0  0  0  0  0
    0.5643    0.2218    0.6279 C   0  0  1  0  0  0  0  0  0  0  0  0
    2.6483    1.2578    0.4613 C   0  0  1  0  0  0  0  0  0  0  0  0
    3.2175    2.6290    0.1472 C   0  0  0  0  0  0  0  0  0  0  0  0
   -1.9228    0.0186    0.1947 C   0  0  0  0  0  0  0  0  0  0  0  0
   -0.9723    1.7802   -0.6515 C   0  0  0  0  0  0  0  0  0  0  0  0
   -2.8373    0.7827   -0.4694 C   0  0  0  0  0  0  0  0  0  0  0  0
   -4.2264    0.3743   -0.5343 C   0  0  0  0  0  0  0  0  0  0  0  0
   -3.5692   -1.5099    0.7468 C   0  0  0  0  0  0  0  0  0  0  0  0
    0.8470   -1.0104   -1.1991 H   0  0  0  0  0  0  0  0  0  0  0  0
    2.2307    0.9410   -1.6595 H   0  0  0  0  0  0  0  0  0  0  0  0
    0.3611   -0.3340    1.5501 H   0  0  0  0  0  0  0  0  0  0  0  0
    3.2617    0.7814    1.2370 H   0  0  0  0  0  0  0  0  0  0  0  0
    2.5645    3.1766   -0.5405 H   0  0  0  0  0  0  0  0  0  0  0  0
    4.2185    2.5500   -0.2876 H   0  0  0  0  0  0  0  0  0  0  0  0
   -0.1925    2.4848   -0.9072 H   0  0  0  0  0  0  0  0  0  0  0  0
   -1.5542   -1.6970    1.3052 H   0  0  0  0  0  0  0  0  0  0  0  0
    3.0224   -3.7644   -1.4547 H   0  0  0  0  0  0  0  0  0  0  0  0
    3.6629    4.2461    1.1232 H   0  0  0  0  0  0  0  0  0  0  0  0
   -3.0952   -3.2049    1.8714 H   0  0  0  0  0  0  0  0  0  0  0  0
   -4.7643   -3.0802    1.4223 H   0  0  0  0  0  0  0  0  0  0  0  0
  1  3  1  0  0  0  0
  1  4  1  0  0  0  0
  1  5  1  0  0  0  0
  1  7  2  0  0  0  0
  2 16  1  0  0  0  0
  2 17  1  0  0  0  0
  3 14  1  0  0  0  0
  4 15  1  0  0  0  0
  5 32  1  0  0  0  0
  6 18  1  0  0  0  0
  6 33  1  0  0  0  0
  8 22  2  0  0  0  0
  9 16  1  0  0  0  0
  9 19  1  0  0  0  0
  9 20  1  0  0  0  0
 10 19  1  0  0  0  0
 10 23  1  0  0  0  0
 10 31  1  0  0  0  0
 11 20  2  0  0  0  0
 11 21  1  0  0  0  0
 12 22  1  0  0  0  0
 12 23  2  0  0  0  0
 13 23  1  0  0  0  0
 13 34  1  0  0  0  0
 13 35  1  0  0  0  0
 14 15  1  0  0  0  0
 14 16  1  0  0  0  0
 14 24  1  0  0  0  0
 15 17  1  0  0  0  0
 15 25  1  0  0  0  0
 16 26  1  0  0  0  0
 17 18  1  0  0  0  0
 17 27  1  0  0  0  0
 18 28  1  0  0  0  0
 18 29  1  0  0  0  0
 19 21  2  0  0  0  0
 20 30  1  0  0  0  0
 21 22  1  0  0  0  0
M  END
> <PUBCHEM_COMPOUND_CID>
92823

> <PUBCHEM_CONFORMER_RMSD>
0.6

> <PUBCHEM_CONFORMER_DIVERSEORDER>
1
9
13
14
10
6
2
15
7
12
5
4
11
3
8

> <PUBCHEM_MMFF94_PARTIAL_CHARGES>
29
1 1.51
10 -0.53
11 -0.57
12 -0.66
13 -0.85
14 0.28
15 0.28
16 0.54
17 0.28
18 0.28
19 -0.07
2 -0.56
20 0.04
21 0.14
22 0.87
23 0.55
3 -0.55
30 0.15
31 0.4
32 0.5
33 0.4
34 0.4
35 0.4
4 -0.55
5 -0.77
6 -0.68
7 -0.7
8 -0.57
9 0.05

> <PUBCHEM_EFFECTIVE_ROTOR_COUNT>
3

> <PUBCHEM_PHARMACOPHORE_FEATURES>
14
1 10 donor
1 12 donor
1 13 donor
1 2 acceptor
1 5 acceptor
1 6 acceptor
1 6 donor
1 7 acceptor
1 8 acceptor
3 9 11 20 cation
5 1 3 4 14 15 rings
5 2 14 15 16 17 rings
5 9 11 19 20 21 rings
6 10 12 19 21 22 23 rings

> <PUBCHEM_HEAVY_ATOM_COUNT>
23

> <PUBCHEM_ATOM_DEF_STEREO_COUNT>
4

> <PUBCHEM_ATOM_UDEF_STEREO_COUNT>
0

> <PUBCHEM_BOND_DEF_STEREO_COUNT>
0

> <PUBCHEM_BOND_UDEF_STEREO_COUNT>
0

> <PUBCHEM_ISOTOPIC_ATOM_COUNT>
0

> <PUBCHEM_COMPONENT_COUNT>
1

> <PUBCHEM_CACTVS_TAUTO_COUNT>
6

> <PUBCHEM_CONFORMER_ID>
00016A9700000001

> <PUBCHEM_MMFF94_ENERGY>
48.2664

> <PUBCHEM_FEATURE_SELFOVERLAP>
71.736

> <PUBCHEM_SHAPE_FINGERPRINT>
11370993 144 18335408072501618649
11405975 8 18410853278633097841
11552529 35 17751352873068435571
12596602 18 14996581619401145271
12633257 1 18262507217089796779
12707595 3 18334571395381329878
12730499 353 18263922146710345952
13140716 1 18412541029034488059
13296908 3 18342174436656414523
13533116 47 18259703385530560969
13544592 145 18342461482300770669
13911882 115 18196641896213962939
14289901 80 17968382247427341569
15219456 202 18410857616391921377
15375358 24 18270972232658433409
17913733 40 17969509199801573952
1813 80 16806151298485818156
18186145 218 17846505863223501861
200 152 17822299023868918071
20369508 70 18338241560878584854
20645477 70 18187649102289789911
20681651 13 17386570133630163999
20681677 274 18412829087948032962
20693207 138 18342454876287505573
21065198 57 18412263934824172649
21065201 7 17703794708446260323
221490 88 18411975858540802290
22182313 1 18271526390913747235
22943178 12 18341334413935996081
23557571 272 17846791697228456589
23559900 14 18272371979384540124
312423 11 18040985267593569993
3286 77 18340771541476680780
474 4 15721386131229484064
4921388 177 16271629132111515083
495365 180 18115325426612195121
5104073 3 18411698773136661577
6049 1 18413387644002581021
621550 34 18193840340491677776
6442390 28 17829888733666178008
6669772 16 17823688678372004228
7364860 26 18334862714644654912
7399639 24 18194124014597132464
9709674 26 18342179938530567743

> <PUBCHEM_SHAPE_MULTIPOLES>
411.19
9.66
3.13
1.15
4.55
0.04
0.03
-2.84
0.57
-3.06
-0.53
-0.1
-0.1
2.58

> <PUBCHEM_SHAPE_SELFOVERLAP>
893.562

> <PUBCHEM_SHAPE_VOLUME>
227.2

> <PUBCHEM_COORDINATE_TYPE>
2
5
10

$$$$

