47205050
  -OEChem-06241222583D

 35 37  0     0  0  0  0  0  0999 V2000
    0.5597   -1.7277   -1.1621 O   0  0  0  0  0  0  0  0  0  0  0  0
    1.8459   -1.7653    0.7701 N   0  0  0  0  0  0  0  0  0  0  0  0
    3.1434    0.5160   -0.9982 N   0  0  0  0  0  0  0  0  0  0  0  0
    3.7170    1.7314   -0.9996 N   0  0  0  0  0  0  0  0  0  0  0  0
   -1.7804   -1.1767    0.4063 C   0  0  0  0  0  0  0  0  0  0  0  0
   -1.9438    0.2169    0.3462 C   0  0  0  0  0  0  0  0  0  0  0  0
   -0.5530   -1.8079    0.9870 C   0  0  0  0  0  0  0  0  0  0  0  0
   -3.1286    0.7512   -0.2137 C   0  0  0  0  0  0  0  0  0  0  0  0
   -2.7709   -2.0312   -0.0786 C   0  0  0  0  0  0  0  0  0  0  0  0
    0.6523   -1.7608    0.0622 C   0  0  0  0  0  0  0  0  0  0  0  0
   -0.9572    1.0919    0.8295 C   0  0  0  0  0  0  0  0  0  0  0  0
   -4.1151   -0.1237   -0.6971 C   0  0  0  0  0  0  0  0  0  0  0  0
    3.1356   -1.7307    0.1213 C   0  0  0  0  0  0  0  0  0  0  0  0
   -3.9360   -1.5057   -0.6293 C   0  0  0  0  0  0  0  0  0  0  0  0
   -3.2920    2.1448   -0.2739 C   0  0  0  0  0  0  0  0  0  0  0  0
    3.6415   -0.3273   -0.0488 C   0  0  0  0  0  0  0  0  0  0  0  0
   -1.1363    2.4738    0.7616 C   0  0  0  0  0  0  0  0  0  0  0  0
   -2.3014    2.9992    0.2110 C   0  0  0  0  0  0  0  0  0  0  0  0
    4.6083    0.3859    0.6169 C   0  0  0  0  0  0  0  0  0  0  0  0
    4.6110    1.6459   -0.0108 C   0  0  0  0  0  0  0  0  0  0  0  0
   -0.3230   -1.3575    1.9602 H   0  0  0  0  0  0  0  0  0  0  0  0
   -0.7328   -2.8692    1.2060 H   0  0  0  0  0  0  0  0  0  0  0  0
   -2.6499   -3.1106   -0.0377 H   0  0  0  0  0  0  0  0  0  0  0  0
   -0.0285    0.7369    1.2666 H   0  0  0  0  0  0  0  0  0  0  0  0
   -5.0338    0.2648   -1.1317 H   0  0  0  0  0  0  0  0  0  0  0  0
    3.0709   -2.2268   -0.8536 H   0  0  0  0  0  0  0  0  0  0  0  0
    3.8277   -2.3053    0.7460 H   0  0  0  0  0  0  0  0  0  0  0  0
   -4.7066   -2.1712   -1.0073 H   0  0  0  0  0  0  0  0  0  0  0  0
    1.8271   -1.7833    1.7856 H   0  0  0  0  0  0  0  0  0  0  0  0
   -4.1946    2.5777   -0.7002 H   0  0  0  0  0  0  0  0  0  0  0  0
   -0.3653    3.1399    1.1380 H   0  0  0  0  0  0  0  0  0  0  0  0
   -2.4400    4.0752    0.1583 H   0  0  0  0  0  0  0  0  0  0  0  0
    5.2220    0.0451    1.4378 H   0  0  0  0  0  0  0  0  0  0  0  0
    2.4135    0.3303   -1.6749 H   0  0  0  0  0  0  0  0  0  0  0  0
    5.2270    2.5054    0.2112 H   0  0  0  0  0  0  0  0  0  0  0  0
  1 10  2  0  0  0  0
  2 10  1  0  0  0  0
  2 13  1  0  0  0  0
  2 29  1  0  0  0  0
  3  4  1  0  0  0  0
  3 16  1  0  0  0  0
  3 34  1  0  0  0  0
  4 20  2  0  0  0  0
  5  6  1  0  0  0  0
  5  7  1  0  0  0  0
  5  9  2  0  0  0  0
  6  8  1  0  0  0  0
  6 11  2  0  0  0  0
  7 10  1  0  0  0  0
  7 21  1  0  0  0  0
  7 22  1  0  0  0  0
  8 12  1  0  0  0  0
  8 15  2  0  0  0  0
  9 14  1  0  0  0  0
  9 23  1  0  0  0  0
 11 17  1  0  0  0  0
 11 24  1  0  0  0  0
 12 14  2  0  0  0  0
 12 25  1  0  0  0  0
 13 16  1  0  0  0  0
 13 26  1  0  0  0  0
 13 27  1  0  0  0  0
 14 28  1  0  0  0  0
 15 18  1  0  0  0  0
 15 30  1  0  0  0  0
 16 19  2  0  0  0  0
 17 18  2  0  0  0  0
 17 31  1  0  0  0  0
 18 32  1  0  0  0  0
 19 20  1  0  0  0  0
 19 33  1  0  0  0  0
 20 35  1  0  0  0  0
M  END
> <PUBCHEM_COMPOUND_CID>
47205050

> <PUBCHEM_CONFORMER_RMSD>
0.8

> <PUBCHEM_CONFORMER_DIVERSEORDER>
1
64
104
48
29
121
54
47
97
61
79
88
24
77
69
17
71
98
41
49
25
93
32
8
123
33
63
117
10
56
45
100
22
53
68
75
51
114
112
60
124
62
83
5
28
86
111
94
21
55
46
7
31
89
92
105
81
106
9
116
39
15
107
82
4
76
6
20
70
87
80
84
11
58
90
40
115
37
26
2
99
16
103
30
74
38
52
19
108
91
96
50
59
18
43
120
13
14
101
36
12
113
110
57
66
65
27
42
102
122
95
109
34
85
3
73
35
67
119
44
72
23
118
78

> <PUBCHEM_MMFF94_PARTIAL_CHARGES>
29
1 -0.57
10 0.57
11 -0.15
12 -0.15
13 0.48
14 -0.15
15 -0.15
16 -0.33
17 -0.15
18 -0.15
19 -0.15
2 -0.73
20 0.14
23 0.15
24 0.15
25 0.15
28 0.15
29 0.37
3 0.3
30 0.15
31 0.15
32 0.15
33 0.15
34 0.27
35 0.15
4 -0.71
5 -0.14
7 0.2
9 -0.15

> <PUBCHEM_EFFECTIVE_ROTOR_COUNT>
5

> <PUBCHEM_PHARMACOPHORE_FEATURES>
7
1 1 acceptor
1 2 donor
1 3 donor
1 4 acceptor
5 3 4 16 19 20 rings
6 5 6 8 9 12 14 rings
6 6 8 11 15 17 18 rings

> <PUBCHEM_HEAVY_ATOM_COUNT>
20

> <PUBCHEM_ATOM_DEF_STEREO_COUNT>
0

> <PUBCHEM_ATOM_UDEF_STEREO_COUNT>
0

> <PUBCHEM_BOND_DEF_STEREO_COUNT>
0

> <PUBCHEM_BOND_UDEF_STEREO_COUNT>
0

> <PUBCHEM_ISOTOPIC_ATOM_COUNT>
0

> <PUBCHEM_COMPONENT_COUNT>
1

> <PUBCHEM_CACTVS_TAUTO_COUNT>
4

> <PUBCHEM_CONFORMER_ID>
02D04ABA00000001

> <PUBCHEM_MMFF94_ENERGY>
40.4556

> <PUBCHEM_FEATURE_SELFOVERLAP>
35.547

> <PUBCHEM_SHAPE_FINGERPRINT>
10042902 136 16011305331983424039
10498660 4 18408885127039025208
10616163 171 18408602578135770308
10670039 82 18269822169682393540
10906281 52 18260822727275504751
11370993 70 18413110584663622828
11759241 127 18333452049188438495
11961588 58 17558856055545445701
12173636 292 18337115673777607543
12403260 363 18340214080449538346
13402501 40 17898581882358747064
14123250 116 17970617704595294305
14251764 38 18410572916200785060
14363568 33 17619618086851987281
14739800 52 18267042574296373536
14787075 74 18057885736665981683
14790565 3 17901662993281668673
15196674 1 18410575102228018048
15848702 105 18411420579541273410
17492 89 18339079392628749026
1813 80 4823207316737347362
192875 21 18272370824191389852
20449540 30 18334853969737728209
20715895 44 17982464985661437397
21623110 236 18410286974273600281
21864079 5 18341610485696123114
22749437 52 18342172280635871836
23227448 37 18338518659236349749
23352939 185 18186800237001939859
235170 7 17240474806447758068
23557571 272 18187079563756614614
23559900 14 18044944716619260182
351380 180 18408888412952581818
474 4 17917988395378927322
526903 126 18338513144408579881
532947 4 17756439157691565521
6328613 192 18059566959560542052
6786 2 13917890438213233019
9709674 26 18409160043600785342
9981440 41 18343023280960780074

> <PUBCHEM_SHAPE_MULTIPOLES>
390.78
9.13
3.16
0.96
7.93
1.13
-0.04
2.22
-1.61
-1.34
0.22
0.14
-0.03
-0.64

> <PUBCHEM_SHAPE_SELFOVERLAP>
853.016

> <PUBCHEM_SHAPE_VOLUME>
212.1

> <PUBCHEM_COORDINATE_TYPE>
2
5
10

$$$$

