69212
  -OEChem-07051213112D

 16 16  0     0  0  0  0  0  0999 V2000
    3.7320    1.8450    0.0000 O   0  0  0  0  0  0  0  0  0  0  0  0
    3.7320   -2.1550    0.0000 O   0  0  0  0  0  0  0  0  0  0  0  0
    5.4641   -1.1550    0.0000 O   0  0  0  0  0  0  0  0  0  0  0  0
    2.8660    0.3450    0.0000 C   0  0  0  0  0  0  0  0  0  0  0  0
    3.7320    0.8450    0.0000 C   0  0  0  0  0  0  0  0  0  0  0  0
    2.8660   -0.6550    0.0000 C   0  0  0  0  0  0  0  0  0  0  0  0
    4.5981    0.3450    0.0000 C   0  0  0  0  0  0  0  0  0  0  0  0
    2.0000    0.8450    0.0000 C   0  0  0  0  0  0  0  0  0  0  0  0
    3.7320   -1.1550    0.0000 C   0  0  0  0  0  0  0  0  0  0  0  0
    4.5981   -0.6550    0.0000 C   0  0  0  0  0  0  0  0  0  0  0  0
    2.3291   -0.9650    0.0000 H   0  0  0  0  0  0  0  0  0  0  0  0
    5.1350    0.6550    0.0000 H   0  0  0  0  0  0  0  0  0  0  0  0
    2.3100    1.3819    0.0000 H   0  0  0  0  0  0  0  0  0  0  0  0
    1.4631    1.1550    0.0000 H   0  0  0  0  0  0  0  0  0  0  0  0
    1.6900    0.3081    0.0000 H   0  0  0  0  0  0  0  0  0  0  0  0
    4.2690    2.1550    0.0000 H   0  0  0  0  0  0  0  0  0  0  0  0
  1  5  1  0  0  0  0
  1 16  1  0  0  0  0
  2  9  2  0  0  0  0
  3 10  2  0  0  0  0
  4  5  1  0  0  0  0
  4  6  2  0  0  0  0
  4  8  1  0  0  0  0
  5  7  2  0  0  0  0
  6  9  1  0  0  0  0
  6 11  1  0  0  0  0
  7 10  1  0  0  0  0
  7 12  1  0  0  0  0
  8 13  1  0  0  0  0
  8 14  1  0  0  0  0
  8 15  1  0  0  0  0
  9 10  1  0  0  0  0
M  END
> <PUBCHEM_COMPOUND_CID>
69212

> <PUBCHEM_COMPOUND_CANONICALIZED>
1

> <PUBCHEM_CACTVS_COMPLEXITY>
258

> <PUBCHEM_CACTVS_HBOND_ACCEPTOR>
3

> <PUBCHEM_CACTVS_HBOND_DONOR>
1

> <PUBCHEM_CACTVS_ROTATABLE_BOND>
0

> <PUBCHEM_CACTVS_SUBSKEYS>
AAADcYBgMAAAAAAAAAAAAAAAAAAAAAAAAAAgAAAAAAAAAAAAAAAAGgAACAAADASAgAACAAAAAgCIAqBSAAAAAAAgIAAACAEAAEgIBAAAAQAAUAAAgAAIkQIAAAAAAAAAAAAAAAAAAAAAAAAAAAAAAAAAAA==

> <PUBCHEM_IUPAC_OPENEYE_NAME>
4-hydroxy-5-methyl-1,2-benzoquinone

> <PUBCHEM_IUPAC_CAS_NAME>
4-hydroxy-5-methylcyclohexa-3,5-diene-1,2-dione

> <PUBCHEM_IUPAC_NAME>
4-hydroxy-5-methylcyclohexa-3,5-diene-1,2-dione

> <PUBCHEM_IUPAC_SYSTEMATIC_NAME>
4-methyl-5-oxidanyl-cyclohexa-3,5-diene-1,2-dione

> <PUBCHEM_IUPAC_TRADITIONAL_NAME>
4-hydroxy-5-methyl-o-benzoquinone

> <PUBCHEM_IUPAC_INCHI>
InChI=1S/C7H6O3/c1-4-2-6(9)7(10)3-5(4)8/h2-3,8H,1H3

> <PUBCHEM_IUPAC_INCHIKEY>
VARNMYNPBOOFAZ-UHFFFAOYSA-N

> <PUBCHEM_XLOGP3_AA>
-0.4

> <PUBCHEM_EXACT_MASS>
138.031694

> <PUBCHEM_MOLECULAR_FORMULA>
C7H6O3

> <PUBCHEM_MOLECULAR_WEIGHT>
138.12074

> <PUBCHEM_OPENEYE_CAN_SMILES>
CC1=CC(=O)C(=O)C=C1O

> <PUBCHEM_OPENEYE_ISO_SMILES>
CC1=CC(=O)C(=O)C=C1O

> <PUBCHEM_CACTVS_TPSA>
54.4

> <PUBCHEM_MONOISOTOPIC_WEIGHT>
138.031694

> <PUBCHEM_TOTAL_CHARGE>
0

> <PUBCHEM_HEAVY_ATOM_COUNT>
10

> <PUBCHEM_ATOM_DEF_STEREO_COUNT>
0

> <PUBCHEM_ATOM_UDEF_STEREO_COUNT>
0

> <PUBCHEM_BOND_DEF_STEREO_COUNT>
0

> <PUBCHEM_BOND_UDEF_STEREO_COUNT>
0

> <PUBCHEM_ISOTOPIC_ATOM_COUNT>
0

> <PUBCHEM_COMPONENT_COUNT>
1

> <PUBCHEM_CACTVS_TAUTO_COUNT>
9

> <PUBCHEM_COORDINATE_TYPE>
1
5
255

$$$$

