5282337
  -OEChem-07051213043D

 43 45  0     0  0  0  0  0  0999 V2000
   -1.1976   -0.2208   -0.1679 S   0  0  0  0  0  0  0  0  0  0  0  0
    0.9780    3.3738    0.7320 S   0  0  0  0  0  0  0  0  0  0  0  0
   -6.0807   -0.0653   -1.6472 O   0  0  0  0  0  0  0  0  0  0  0  0
   -0.5304   -0.8903    0.9322 O   0  0  0  0  0  0  0  0  0  0  0  0
   -1.0313   -0.6970   -1.5282 O   0  0  0  0  0  0  0  0  0  0  0  0
   -6.9838   -0.2707    0.9739 O   0  0  0  0  0  0  0  0  0  0  0  0
    6.4425   -3.0828   -0.0750 O   0  5  0  0  0  0  0  0  0  0  0  0
    4.2909   -3.1573    0.3544 O   0  0  0  0  0  0  0  0  0  0  0  0
   -0.8636    1.4687   -0.0942 N   0  0  0  0  0  0  0  0  0  0  0  0
    1.5137    0.9959   -0.1291 N   0  0  0  0  0  0  0  0  0  0  0  0
    5.3347   -2.5154    0.0844 N   0  3  0  0  0  0  0  0  0  0  0  0
   -2.9343   -0.2351    0.1705 C   0  0  0  0  0  0  0  0  0  0  0  0
   -3.8272   -0.1438   -0.8821 C   0  0  0  0  0  0  0  0  0  0  0  0
   -3.3646   -0.3378    1.4812 C   0  0  0  0  0  0  0  0  0  0  0  0
   -5.1962   -0.1554   -0.6150 C   0  0  0  0  0  0  0  0  0  0  0  0
    0.5315    1.8318    0.1255 C   0  0  0  0  0  0  0  0  0  0  0  0
   -5.6495   -0.2581    0.7001 C   0  0  0  0  0  0  0  0  0  0  0  0
    2.7116    1.6112    0.1745 C   0  0  0  0  0  0  0  0  0  0  0  0
    3.9680    0.9377   -0.0005 C   0  0  0  0  0  0  0  0  0  0  0  0
   -4.7337   -0.3493    1.7482 C   0  0  0  0  0  0  0  0  0  0  0  0
    2.6246    2.9006    0.6539 C   0  0  0  0  0  0  0  0  0  0  0  0
    4.0400   -0.4495    0.1272 C   0  0  0  0  0  0  0  0  0  0  0  0
    5.1160    1.6711   -0.3000 C   0  0  0  0  0  0  0  0  0  0  0  0
    5.2601   -1.1033   -0.0444 C   0  0  0  0  0  0  0  0  0  0  0  0
    6.3361    1.0172   -0.4716 C   0  0  0  0  0  0  0  0  0  0  0  0
    6.4082   -0.3698   -0.3438 C   0  0  0  0  0  0  0  0  0  0  0  0
   -5.5354    0.0366   -2.9611 C   0  0  0  0  0  0  0  0  0  0  0  0
   -7.6277   -1.5430    1.0022 C   0  0  0  0  0  0  0  0  0  0  0  0
   -3.4249   -0.0545   -1.8837 H   0  0  0  0  0  0  0  0  0  0  0  0
   -1.5632    2.1180    0.2849 H   0  0  0  0  0  0  0  0  0  0  0  0
   -2.6671   -0.4021    2.3105 H   0  0  0  0  0  0  0  0  0  0  0  0
   -5.0797   -0.4273    2.7754 H   0  0  0  0  0  0  0  0  0  0  0  0
    3.4028    3.5812    0.9706 H   0  0  0  0  0  0  0  0  0  0  0  0
    3.1384   -1.0102    0.3661 H   0  0  0  0  0  0  0  0  0  0  0  0
    5.0972    2.7506   -0.4256 H   0  0  0  0  0  0  0  0  0  0  0  0
    7.2293    1.5879   -0.7090 H   0  0  0  0  0  0  0  0  0  0  0  0
    7.3755   -0.8450   -0.4855 H   0  0  0  0  0  0  0  0  0  0  0  0
   -4.9645   -0.8580   -3.2324 H   0  0  0  0  0  0  0  0  0  0  0  0
   -4.9558    0.9574   -3.0877 H   0  0  0  0  0  0  0  0  0  0  0  0
   -6.3798    0.0960   -3.6559 H   0  0  0  0  0  0  0  0  0  0  0  0
   -8.6868   -1.3862    1.2242 H   0  0  0  0  0  0  0  0  0  0  0  0
   -7.1955   -2.1740    1.7854 H   0  0  0  0  0  0  0  0  0  0  0  0
   -7.5435   -2.0396    0.0302 H   0  0  0  0  0  0  0  0  0  0  0  0
  1  4  2  0  0  0  0
  1  5  2  0  0  0  0
  1  9  1  0  0  0  0
  1 12  1  0  0  0  0
  2 16  1  0  0  0  0
  2 21  1  0  0  0  0
  3 15  1  0  0  0  0
  3 27  1  0  0  0  0
  6 17  1  0  0  0  0
  6 28  1  0  0  0  0
  7 11  1  0  0  0  0
  8 11  2  0  0  0  0
  9 16  1  0  0  0  0
  9 30  1  0  0  0  0
 10 16  2  0  0  0  0
 10 18  1  0  0  0  0
 11 24  1  0  0  0  0
 12 13  2  0  0  0  0
 12 14  1  0  0  0  0
 13 15  1  0  0  0  0
 13 29  1  0  0  0  0
 14 20  2  0  0  0  0
 14 31  1  0  0  0  0
 15 17  2  0  0  0  0
 17 20  1  0  0  0  0
 18 19  1  0  0  0  0
 18 21  2  0  0  0  0
 19 22  2  0  0  0  0
 19 23  1  0  0  0  0
 20 32  1  0  0  0  0
 21 33  1  0  0  0  0
 22 24  1  0  0  0  0
 22 34  1  0  0  0  0
 23 25  2  0  0  0  0
 23 35  1  0  0  0  0
 24 26  2  0  0  0  0
 25 26  1  0  0  0  0
 25 36  1  0  0  0  0
 26 37  1  0  0  0  0
 27 38  1  0  0  0  0
 27 39  1  0  0  0  0
 27 40  1  0  0  0  0
 28 41  1  0  0  0  0
 28 42  1  0  0  0  0
 28 43  1  0  0  0  0
M  CHG  2   7  -1  11   1
M  END
> <PUBCHEM_COMPOUND_CID>
5282337

> <PUBCHEM_CONFORMER_RMSD>
0.8

> <PUBCHEM_CONFORMER_DIVERSEORDER>
225
308
262
76
412
306
211
101
406
223
322
58
385
114
361
192
349
174
32
320
416
284
422
233
357
57
127
190
399
30
298
283
377
290
280
119
316
319
37
396
356
103
243
326
133
393
160
400
261
65
419
217
423
285
116
87
386
66
293
334
220
177
324
108
403
55
323
331
63
129
178
408
394
222
295
104
69
207
371
315
227
164
132
380
345
390
81
209
247
300
168
20
281
338
378
271
51
245
59
260
365
341
201
54
79
9
221
313
278
252
236
344
121
402
35
152
258
250
169
16
277
85
421
49
82
287
337
296
197
395
185
173
239
144
89
289
368
100
228
135
381
282
99
125
124
292
122
154
234
19
181
389
97
196
218
263
84
77
193
141
420
255
297
229
327
372
123
379
14
310
106
146
27
226
343
142
350
276
301
242
352
102
78
110
355
90
86
115
332
159
347
275
28
88
353
113
208
80
336
312
213
191
203
179
291
83
256
94
244
415
346
388
10
224
92
362
109
131
384
120
22
71
259
136
330
176
303
253
249
182
150
264
231
314
383
39
407
128
187
156
375
202
418
33
340
339
67
351
25
232
409
134
411
21
3
369
270
107
161
373
93
230
72
272
304
317
348
214
138
186
376
328
391
382
143
387
6
15
175
286
52
359
184
307
210
238
198
180
219
398
392
325
374
335
117
91
34
367
205
158
417
265
151
24
212
342
321
413
111
44
38
206
95
269
162
279
414
183
309
8
195
157
366
112
273
165
2
354
333
118
194
96
40
248
73
189
358
126
48
363
410
140
74
105
163
215
364
36
1
311
148
64
199
235
268
170
294
237
18
241
23
370
11
172
318
266
61
299
204
147
288
68
12
167
216
257
75
397
145
302
56
424
240
4
401
188
200
274
171
46
360
404
139
305
254
42
98
251
130
405
137
17
53
166
26
50
41
60
155
31
246
70
7
153
149
29
45
329
13
267
62
5
43
47

> <PUBCHEM_MMFF94_PARTIAL_CHARGES>
37
1 1.45
10 -0.57
11 0.91
12 -0.01
13 -0.15
14 -0.15
15 0.08
16 0.52
17 0.08
18 0.17
19 0.05
2 -0.08
20 -0.15
21 -0.11
22 -0.15
23 -0.15
24 0.13
25 -0.15
26 -0.15
27 0.28
28 0.28
29 0.15
3 -0.36
30 0.42
31 0.15
32 0.15
33 0.15
34 0.15
35 0.15
36 0.15
37 0.15
4 -0.65
5 -0.65
6 -0.36
7 -0.52
8 -0.52
9 -0.7

> <PUBCHEM_EFFECTIVE_ROTOR_COUNT>
7

> <PUBCHEM_PHARMACOPHORE_FEATURES>
12
1 10 acceptor
1 3 acceptor
1 4 acceptor
1 5 acceptor
1 6 acceptor
1 7 acceptor
1 7 anion
1 8 acceptor
1 9 donor
5 2 10 16 18 21 rings
6 12 13 14 15 17 20 rings
6 19 22 23 24 25 26 rings

> <PUBCHEM_HEAVY_ATOM_COUNT>
28

> <PUBCHEM_ATOM_DEF_STEREO_COUNT>
0

> <PUBCHEM_ATOM_UDEF_STEREO_COUNT>
0

> <PUBCHEM_BOND_DEF_STEREO_COUNT>
0

> <PUBCHEM_BOND_UDEF_STEREO_COUNT>
0

> <PUBCHEM_ISOTOPIC_ATOM_COUNT>
0

> <PUBCHEM_COMPONENT_COUNT>
1

> <PUBCHEM_CACTVS_TAUTO_COUNT>
2

> <PUBCHEM_CONFORMER_ID>
00509A21000000E1

> <PUBCHEM_MMFF94_ENERGY>
78.0847

> <PUBCHEM_FEATURE_SELFOVERLAP>
60.998

> <PUBCHEM_SHAPE_FINGERPRINT>
10 15 6194837077303089140
10673678 19 17058348308032229012
117089 54 17901938975148474558
11796584 16 17632300051561417136
11991303 11 17768807915863920116
12166972 35 17749670697270878185
12236239 1 17240763939129838261
12516196 113 18334574629444374008
12596602 18 16298389033165065160
12616971 3 17676484996176880605
12760667 363 18336546118232939624
12838862 33 18338250280379789424
13533116 47 18334575737735600176
13685833 64 18413102844715687873
13782708 43 17988642939950673339
13911852 28 18335703909622087318
13914758 101 18186521034200318705
14251764 18 17895188870578245397
14840074 17 18113336418762383422
14931854 50 18130218376705213718
15183329 4 17967817132752329181
15352257 5 18130784525628529539
15419008 47 17917997157629728677
15483637 11 18052534375135557754
15537594 2 18333730200661996822
1577012 14 17531246128196148797
15781502 461 18341613741465950565
17349148 13 17240760640800650869
19301679 30 18042392685458002780
19489759 90 15502366816775023625
20567600 75 18059859463126889653
21033648 29 17916883313632703861
21267235 1 18335695071059394716
21279426 13 18201162160451565637
21315764 119 15913049884617046682
21365058 113 17632287969381109732
21478907 32 18337390560596778600
21682296 61 18412257376430379707
22061861 79 18201722859625612311
2215653 11 18343308054218678492
2297311 6 16988846056210326141
2303208 19 17846497019933188721
23522609 53 17897697956029233904
23559900 14 17988646259527908413
23569914 152 17476395019307425991
3004659 81 18131351934501237160
3014965 18 18410859866838616572
314194 84 18408039602802948360
345986 75 17968096473272705960
34797466 226 16988838333020429549
3882209 13 17121733271608705418
4073 2 18195523688698782650
437795 51 18131348600736872907
46194498 28 17561082480534506556
531348 171 18261401070307423229
54039377 194 18263921202772648062

> <PUBCHEM_SHAPE_MULTIPOLES>
533.77
20.58
2.85
1.49
9.15
0
-0.86
10.58
-0.91
-6.52
0.71
3.86
0.08
0.48

> <PUBCHEM_SHAPE_SELFOVERLAP>
1128.282

> <PUBCHEM_SHAPE_VOLUME>
301.8

> <PUBCHEM_COORDINATE_TYPE>
2
5
10

$$$$

