67944
  -OEChem-07051213043D

 19 20  0     0  0  0  0  0  0999 V2000
   -2.7980   -0.0564    0.0992 S   0  0  0  0  0  0  0  0  0  0  0  0
   -0.3106    1.5437    0.0433 S   0  0  0  0  0  0  0  0  0  0  0  0
   -3.2067   -1.3304    0.6794 O   0  0  0  0  0  0  0  0  0  0  0  0
   -3.3010    1.1872    0.6716 O   0  0  0  0  0  0  0  0  0  0  0  0
   -0.2617   -1.0351    0.0503 N   0  0  0  0  0  0  0  0  0  0  0  0
   -3.1646   -0.0735   -1.5710 N   0  0  0  0  0  0  0  0  0  0  0  0
    1.2343    0.7788    0.0141 C   0  0  0  0  0  0  0  0  0  0  0  0
    1.0580   -0.6083    0.0221 C   0  0  0  0  0  0  0  0  0  0  0  0
   -1.0604    0.0064    0.0635 C   0  0  0  0  0  0  0  0  0  0  0  0
    2.5104    1.3638   -0.0139 C   0  0  0  0  0  0  0  0  0  0  0  0
    2.2010   -1.4367    0.0014 C   0  0  0  0  0  0  0  0  0  0  0  0
    3.6248    0.5214   -0.0337 C   0  0  0  0  0  0  0  0  0  0  0  0
    3.4745   -0.8609   -0.0262 C   0  0  0  0  0  0  0  0  0  0  0  0
    2.6355    2.4423   -0.0199 H   0  0  0  0  0  0  0  0  0  0  0  0
    2.0951   -2.5179    0.0070 H   0  0  0  0  0  0  0  0  0  0  0  0
    4.6217    0.9539   -0.0553 H   0  0  0  0  0  0  0  0  0  0  0  0
    4.3529   -1.5003   -0.0420 H   0  0  0  0  0  0  0  0  0  0  0  0
   -4.0625   -0.4927   -1.8442 H   0  0  0  0  0  0  0  0  0  0  0  0
   -2.9500    0.7793   -2.1038 H   0  0  0  0  0  0  0  0  0  0  0  0
  1  3  2  0  0  0  0
  1  4  2  0  0  0  0
  1  6  1  0  0  0  0
  1  9  1  0  0  0  0
  2  7  1  0  0  0  0
  2  9  1  0  0  0  0
  5  8  1  0  0  0  0
  5  9  2  0  0  0  0
  6 18  1  0  0  0  0
  6 19  1  0  0  0  0
  7  8  1  0  0  0  0
  7 10  2  0  0  0  0
  8 11  2  0  0  0  0
 10 12  1  0  0  0  0
 10 14  1  0  0  0  0
 11 13  1  0  0  0  0
 11 15  1  0  0  0  0
 12 13  2  0  0  0  0
 12 16  1  0  0  0  0
 13 17  1  0  0  0  0
M  END
> <PUBCHEM_COMPOUND_CID>
67944

> <PUBCHEM_CONFORMER_RMSD>
0.4

> <PUBCHEM_CONFORMER_DIVERSEORDER>
1
2

> <PUBCHEM_MMFF94_PARTIAL_CHARGES>
19
1 1.5
10 -0.15
11 -0.15
12 -0.15
13 -0.15
14 0.15
15 0.15
16 0.15
17 0.15
18 0.42
19 0.42
2 -0.08
3 -0.65
4 -0.65
5 -0.57
6 -0.98
7 0.04
8 0.23
9 0.32

> <PUBCHEM_EFFECTIVE_ROTOR_COUNT>
1

> <PUBCHEM_PHARMACOPHORE_FEATURES>
6
1 3 acceptor
1 4 acceptor
1 5 acceptor
1 6 donor
5 2 5 7 8 9 rings
6 7 8 10 11 12 13 rings

> <PUBCHEM_HEAVY_ATOM_COUNT>
13

> <PUBCHEM_ATOM_DEF_STEREO_COUNT>
0

> <PUBCHEM_ATOM_UDEF_STEREO_COUNT>
0

> <PUBCHEM_BOND_DEF_STEREO_COUNT>
0

> <PUBCHEM_BOND_UDEF_STEREO_COUNT>
0

> <PUBCHEM_ISOTOPIC_ATOM_COUNT>
0

> <PUBCHEM_COMPONENT_COUNT>
1

> <PUBCHEM_CACTVS_TAUTO_COUNT>
1

> <PUBCHEM_CONFORMER_ID>
0001096800000001

> <PUBCHEM_MMFF94_ENERGY>
21.0573

> <PUBCHEM_FEATURE_SELFOVERLAP>
30.536

> <PUBCHEM_SHAPE_FINGERPRINT>
10219947 1 18333731316741635182
10608611 8 18413390925378661676
11132069 177 18335706065347504000
11471102 20 18411422821297949780
12032990 46 18411693283910013082
12932764 1 17312824853208770809
13296908 3 18342172258754710619
14144814 61 18409165515151457864
14251717 144 18335990808799640630
14325111 11 18410290302609153136
14993402 34 17968101901694402334
15219456 202 18343866597514418534
15442244 35 18120651602639187016
16945 1 18411139134555480372
17844478 74 17988921180289326557
18186145 218 18131349734676316622
19026448 4 16128374891472603308
19422 9 18187363233498238111
200 152 18114474417275470469
20201158 50 18341896307190338578
20279233 1 17846787307908600959
20645477 70 18337114556817436135
21501502 16 18265613358797243920
23402539 116 18040441009838642932
23402655 69 18334862752703372317
23463225 33 18411415129016790768
2748010 2 18050562950664485928
3248919 1 18410863161094226939
5104073 3 18410572894562087848
528886 8 18409733932962269834
581208 293 18336272271207875812
8809292 202 18202273714893411299

> <PUBCHEM_SHAPE_MULTIPOLES>
253.53
6.44
1.56
0.81
1.34
0.12
0.2
-0.5
0.12
-0.32
-0.13
0.64
-0.01
-0.01

> <PUBCHEM_SHAPE_SELFOVERLAP>
522.028

> <PUBCHEM_SHAPE_VOLUME>
147.6

> <PUBCHEM_COORDINATE_TYPE>
2
5
10

$$$$

