248621
  -OEChem-07051213063D

 31 33  0     0  0  0  0  0  0999 V2000
   -4.5175    0.2514   -0.3685 S   0  0  0  0  0  0  0  0  0  0  0  0
    0.7531    1.7994    0.2731 O   0  0  0  0  0  0  0  0  0  0  0  0
    2.7154    2.9235   -0.0175 O   0  0  0  0  0  0  0  0  0  0  0  0
   -5.8434    0.5132    0.1596 O   0  0  0  0  0  0  0  0  0  0  0  0
   -3.8204    1.2592   -1.1427 O   0  0  0  0  0  0  0  0  0  0  0  0
   -3.5265   -0.3346    0.9129 N   0  0  0  0  0  0  0  0  0  0  0  0
    0.6713   -0.6419    0.2393 C   0  0  0  0  0  0  0  0  0  0  0  0
    2.1209   -0.6615    0.0077 C   0  0  0  0  0  0  0  0  0  0  0  0
    0.0286    0.5919    0.3654 C   0  0  0  0  0  0  0  0  0  0  0  0
    2.8220    0.5540   -0.0803 C   0  0  0  0  0  0  0  0  0  0  0  0
   -2.1209   -0.4339    0.6875 C   0  0  0  0  0  0  0  0  0  0  0  0
   -1.3457    0.7142    0.5866 C   0  0  0  0  0  0  0  0  0  0  0  0
   -0.1379   -1.7850    0.3459 C   0  0  0  0  0  0  0  0  0  0  0  0
   -1.5176   -1.6826    0.5674 C   0  0  0  0  0  0  0  0  0  0  0  0
    2.8648   -1.8482   -0.1343 C   0  0  0  0  0  0  0  0  0  0  0  0
    2.1232    1.8545    0.0563 C   0  0  0  0  0  0  0  0  0  0  0  0
    4.2085    0.5782   -0.3010 C   0  0  0  0  0  0  0  0  0  0  0  0
    4.2454   -1.8242   -0.3538 C   0  0  0  0  0  0  0  0  0  0  0  0
    4.9169   -0.6115   -0.4371 C   0  0  0  0  0  0  0  0  0  0  0  0
   -4.6401   -1.2159   -1.3667 C   0  0  0  0  0  0  0  0  0  0  0  0
   -1.7919    1.6998    0.6891 H   0  0  0  0  0  0  0  0  0  0  0  0
    0.2772   -2.7853    0.2600 H   0  0  0  0  0  0  0  0  0  0  0  0
   -2.1097   -2.5914    0.6425 H   0  0  0  0  0  0  0  0  0  0  0  0
    2.3912   -2.8245   -0.0779 H   0  0  0  0  0  0  0  0  0  0  0  0
   -3.9206   -1.1234    1.4431 H   0  0  0  0  0  0  0  0  0  0  0  0
    4.7530    1.5164   -0.3694 H   0  0  0  0  0  0  0  0  0  0  0  0
    4.7925   -2.7566   -0.4593 H   0  0  0  0  0  0  0  0  0  0  0  0
    5.9890   -0.5917   -0.6076 H   0  0  0  0  0  0  0  0  0  0  0  0
   -3.6524   -1.4752   -1.7512 H   0  0  0  0  0  0  0  0  0  0  0  0
   -5.0531   -2.0250   -0.7615 H   0  0  0  0  0  0  0  0  0  0  0  0
   -5.3124   -0.9991   -2.2000 H   0  0  0  0  0  0  0  0  0  0  0  0
  1  4  2  0  0  0  0
  1  5  2  0  0  0  0
  1  6  1  0  0  0  0
  1 20  1  0  0  0  0
  2  9  1  0  0  0  0
  2 16  1  0  0  0  0
  3 16  2  0  0  0  0
  6 11  1  0  0  0  0
  6 25  1  0  0  0  0
  7  8  1  0  0  0  0
  7  9  2  0  0  0  0
  7 13  1  0  0  0  0
  8 10  1  0  0  0  0
  8 15  2  0  0  0  0
  9 12  1  0  0  0  0
 10 16  1  0  0  0  0
 10 17  2  0  0  0  0
 11 12  2  0  0  0  0
 11 14  1  0  0  0  0
 12 21  1  0  0  0  0
 13 14  2  0  0  0  0
 13 22  1  0  0  0  0
 14 23  1  0  0  0  0
 15 18  1  0  0  0  0
 15 24  1  0  0  0  0
 17 19  1  0  0  0  0
 17 26  1  0  0  0  0
 18 19  2  0  0  0  0
 18 27  1  0  0  0  0
 19 28  1  0  0  0  0
 20 29  1  0  0  0  0
 20 30  1  0  0  0  0
 20 31  1  0  0  0  0
M  END
> <PUBCHEM_COMPOUND_CID>
248621

> <PUBCHEM_CONFORMER_RMSD>
0.6

> <PUBCHEM_CONFORMER_DIVERSEORDER>
1
10
5
11
6
14
13
8
7
12
3
9
4
2

> <PUBCHEM_MMFF94_PARTIAL_CHARGES>
26
1 1.33
10 0.09
11 0.2
12 -0.15
13 -0.15
14 -0.15
15 -0.15
16 0.63
17 -0.15
18 -0.15
19 -0.15
2 -0.23
20 0.11
21 0.15
22 0.15
23 0.15
24 0.15
25 0.42
26 0.15
27 0.15
28 0.15
3 -0.57
4 -0.65
5 -0.65
6 -0.76
9 0.08

> <PUBCHEM_EFFECTIVE_ROTOR_COUNT>
2

> <PUBCHEM_PHARMACOPHORE_FEATURES>
7
1 3 acceptor
1 4 acceptor
1 5 acceptor
1 6 donor
6 2 7 8 9 10 16 rings
6 7 9 11 12 13 14 rings
6 8 10 15 17 18 19 rings

> <PUBCHEM_HEAVY_ATOM_COUNT>
20

> <PUBCHEM_ATOM_DEF_STEREO_COUNT>
0

> <PUBCHEM_ATOM_UDEF_STEREO_COUNT>
0

> <PUBCHEM_BOND_DEF_STEREO_COUNT>
0

> <PUBCHEM_BOND_UDEF_STEREO_COUNT>
0

> <PUBCHEM_ISOTOPIC_ATOM_COUNT>
0

> <PUBCHEM_COMPONENT_COUNT>
1

> <PUBCHEM_CACTVS_TAUTO_COUNT>
2

> <PUBCHEM_CONFORMER_ID>
0003CB2D00000001

> <PUBCHEM_MMFF94_ENERGY>
68.5972

> <PUBCHEM_FEATURE_SELFOVERLAP>
35.586

> <PUBCHEM_SHAPE_FINGERPRINT>
10693767 8 18188782776120100431
10967382 1 18410283723415711378
11471102 20 18410853257311131386
11796584 16 16153428354917744839
12011746 2 18409721885763757430
12236239 1 17676204684835237097
12403259 415 18060142046432314717
12670546 177 18335707117946976535
13134695 92 17894917329955959744
13140716 1 18194119621451717784
13862211 1 18337673122157874082
13944108 23 16254783853918757221
14911166 2 18412542132461339610
15099037 51 18411980273424362683
15196674 1 18338794520337266107
15848700 24 18334856156197750534
16945 1 18337659850740045424
17349148 13 17967811660705517859
17357779 13 18202008749776235453
18186145 218 18060425703078136763
18222031 100 18187362177548446774
192875 21 18040430001341792848
19784866 170 8502367845328720794
200 152 17967814955145737979
20612939 158 18410009927597887213
20645477 70 18335134280767706518
21029758 11 18335419097181546320
21033648 29 17775011184874475293
21267235 1 18337657716183958402
21279426 13 18126566957731968214
21285901 2 18200591526891089326
21521239 73 18262531307957375775
221357 26 18411989087346263269
221490 88 18339636720553693923
22289505 5 18341334482745169924
22393880 68 18271540749084590943
23402539 116 18113619031525566803
23402655 69 18336266829473716885
23557571 272 17417803999210906883
23559900 14 18336265657058434632
2748010 2 18050556349468622160
2871803 45 18341607170519537954
335352 9 18411695487660811318
34934 24 18410014304375309778
4072396 5 18340779191261743458
495365 180 18041849406924490896
5104073 3 18339919316569337891
5281201 14 18343302569872638797
633830 44 18343590625034483235
7364860 26 18263073341456741696
7471813 234 17676491657043572096
9709674 26 18269271270668628547
9971528 1 18333453153538053280
9981440 41 17469054267094871344

> <PUBCHEM_SHAPE_MULTIPOLES>
386.98
10.69
2.21
0.89
7.6
0.66
0.13
-0.73
2.92
-1.78
0.06
0.82
-0.12
0.11

> <PUBCHEM_SHAPE_SELFOVERLAP>
837.951

> <PUBCHEM_SHAPE_VOLUME>
212.6

> <PUBCHEM_COORDINATE_TYPE>
2
5
10

$$$$

