3081973
  -OEChem-07051213123D

 31 31  0     1  0  0  0  0  0999 V2000
   -2.2912   -1.7169   -0.9311 O   0  0  0  0  0  0  0  0  0  0  0  0
   -4.0843   -1.2898    0.3908 O   0  0  0  0  0  0  0  0  0  0  0  0
    3.6388   -0.3084   -0.1618 N   0  0  0  0  0  0  0  0  0  0  0  0
   -3.9870    1.3379   -0.3947 N   0  0  0  0  0  0  0  0  0  0  0  0
   -1.8160    1.0609    0.7122 C   0  0  0  0  0  0  0  0  0  0  0  0
   -0.3673    0.6976    0.4808 C   0  0  0  0  0  0  0  0  0  0  0  0
   -2.7407    0.5753   -0.4148 C   0  0  1  0  0  0  0  0  0  0  0  0
    2.2871    0.0310    0.0549 C   0  0  0  0  0  0  0  0  0  0  0  0
    0.1140   -0.5080    0.9629 C   0  0  0  0  0  0  0  0  0  0  0  0
    0.4497    1.5774   -0.2098 C   0  0  0  0  0  0  0  0  0  0  0  0
    1.4508   -0.8437    0.7485 C   0  0  0  0  0  0  0  0  0  0  0  0
    1.7865    1.2417   -0.4243 C   0  0  0  0  0  0  0  0  0  0  0  0
   -3.1228   -0.8857   -0.2508 C   0  0  0  0  0  0  0  0  0  0  0  0
    4.0360   -1.6967   -0.2868 C   0  0  0  0  0  0  0  0  0  0  0  0
    4.6463    0.7274   -0.2762 C   0  0  0  0  0  0  0  0  0  0  0  0
   -2.1421    0.6624    1.6828 H   0  0  0  0  0  0  0  0  0  0  0  0
   -1.8759    2.1539    0.8117 H   0  0  0  0  0  0  0  0  0  0  0  0
   -2.2865    0.7120   -1.4029 H   0  0  0  0  0  0  0  0  0  0  0  0
   -0.5276   -1.1937    1.5086 H   0  0  0  0  0  0  0  0  0  0  0  0
    0.0672    2.5198   -0.5912 H   0  0  0  0  0  0  0  0  0  0  0  0
    1.8117   -1.7883    1.1456 H   0  0  0  0  0  0  0  0  0  0  0  0
    2.4070    1.9397   -0.9791 H   0  0  0  0  0  0  0  0  0  0  0  0
   -3.7851    2.3254   -0.5485 H   0  0  0  0  0  0  0  0  0  0  0  0
   -4.4118    1.2827    0.5309 H   0  0  0  0  0  0  0  0  0  0  0  0
    4.1118   -2.1689    0.6983 H   0  0  0  0  0  0  0  0  0  0  0  0
    5.0153   -1.7859   -0.7705 H   0  0  0  0  0  0  0  0  0  0  0  0
    3.3282   -2.2625   -0.9030 H   0  0  0  0  0  0  0  0  0  0  0  0
    5.6502    0.3221   -0.1065 H   0  0  0  0  0  0  0  0  0  0  0  0
    4.4964    1.5174    0.4685 H   0  0  0  0  0  0  0  0  0  0  0  0
    4.6354    1.1707   -1.2775 H   0  0  0  0  0  0  0  0  0  0  0  0
   -2.5517   -2.6573   -0.8306 H   0  0  0  0  0  0  0  0  0  0  0  0
  1 13  1  0  0  0  0
  1 31  1  0  0  0  0
  2 13  2  0  0  0  0
  3  8  1  0  0  0  0
  3 14  1  0  0  0  0
  3 15  1  0  0  0  0
  4  7  1  0  0  0  0
  4 23  1  0  0  0  0
  4 24  1  0  0  0  0
  5  6  1  0  0  0  0
  5  7  1  0  0  0  0
  5 16  1  0  0  0  0
  5 17  1  0  0  0  0
  6  9  2  0  0  0  0
  6 10  1  0  0  0  0
  7 13  1  0  0  0  0
  7 18  1  0  0  0  0
  8 11  2  0  0  0  0
  8 12  1  0  0  0  0
  9 11  1  0  0  0  0
  9 19  1  0  0  0  0
 10 12  2  0  0  0  0
 10 20  1  0  0  0  0
 11 21  1  0  0  0  0
 12 22  1  0  0  0  0
 14 25  1  0  0  0  0
 14 26  1  0  0  0  0
 14 27  1  0  0  0  0
 15 28  1  0  0  0  0
 15 29  1  0  0  0  0
 15 30  1  0  0  0  0
M  END
> <PUBCHEM_COMPOUND_CID>
3081973

> <PUBCHEM_CONFORMER_RMSD>
0.6

> <PUBCHEM_CONFORMER_DIVERSEORDER>
1
13
19
14
4
17
7
22
2
9
23
16
12
21
8
20
5
10
6
11
3
15
18

> <PUBCHEM_MMFF94_PARTIAL_CHARGES>
22
1 -0.65
10 -0.15
11 -0.15
12 -0.15
13 0.66
14 0.37
15 0.37
19 0.15
2 -0.57
20 0.15
21 0.15
22 0.15
23 0.36
24 0.36
3 -0.84
31 0.5
4 -0.99
5 0.14
6 -0.14
7 0.33
8 0.1
9 -0.15

> <PUBCHEM_EFFECTIVE_ROTOR_COUNT>
4

> <PUBCHEM_PHARMACOPHORE_FEATURES>
7
1 1 acceptor
1 2 acceptor
1 3 cation
1 4 cation
1 4 donor
3 1 2 13 anion
6 6 8 9 10 11 12 rings

> <PUBCHEM_HEAVY_ATOM_COUNT>
15

> <PUBCHEM_ATOM_DEF_STEREO_COUNT>
1

> <PUBCHEM_ATOM_UDEF_STEREO_COUNT>
0

> <PUBCHEM_BOND_DEF_STEREO_COUNT>
0

> <PUBCHEM_BOND_UDEF_STEREO_COUNT>
0

> <PUBCHEM_ISOTOPIC_ATOM_COUNT>
0

> <PUBCHEM_COMPONENT_COUNT>
1

> <PUBCHEM_CACTVS_TAUTO_COUNT>
1

> <PUBCHEM_CONFORMER_ID>
002F06F500000001

> <PUBCHEM_MMFF94_ENERGY>
46.3526

> <PUBCHEM_FEATURE_SELFOVERLAP>
35.579

> <PUBCHEM_SHAPE_FINGERPRINT>
10062212 137 18342747337643099930
11401426 45 18272655657922216016
11769659 78 18260270758825445862
11806522 49 18411981326028901872
12032990 46 18411133645365671658
12119455 92 13326861011007801152
13296908 3 18334582321498445553
13705890 14 18408885144376974480
14350558 41 18040146323289322222
14576447 43 18338520733589580486
15196674 1 18411699902359703150
15477762 27 18411980226543459460
15775835 57 18059576927208899517
18186145 218 17561368387262857334
19422 9 18410288116470812437
200 152 18334857216964904440
20281475 54 18335135440588127040
20645476 183 18342183288816438567
20645477 70 18337107977328335190
20871999 31 18411426102884962151
21119208 17 18412547643120567261
21256008 61 18341050727077527752
21634736 98 18339359656650567740
221490 88 18198616631902949723
22485316 2 18408324406194664540
23402539 116 18202288017819964532
23402655 69 18342738554719907036
23559900 14 18187370943681985368
2748010 2 17772167740425362120
2871803 45 18130516223759458187
3312278 4 18410293631551738009
465052 167 18118959193000874439
5104073 3 18410856577014923008
633830 44 17418368125616010976
7364860 26 18117562825242671152

> <PUBCHEM_SHAPE_MULTIPOLES>
286.99
8.25
1.73
0.86
1.45
0.23
-0.07
1.6
1.49
-0.23
0.22
-0.15
0.08
-0.16

> <PUBCHEM_SHAPE_SELFOVERLAP>
585.253

> <PUBCHEM_SHAPE_VOLUME>
166.6

> <PUBCHEM_COORDINATE_TYPE>
2
5
10

$$$$

