42615250
  -OEChem-07051213123D

 27 26  0     1  0  0  0  0  0999 V2000
   -1.8933   -1.8643   -0.8458 O   0  0  0  0  0  0  0  0  0  0  0  0
   -1.7406    2.0406   -0.1652 O   0  0  0  0  0  0  0  0  0  0  0  0
   -3.5746    0.7248    0.0498 O   0  0  0  0  0  0  0  0  0  0  0  0
   -2.1053   -0.8988    1.7913 N   0  0  0  0  0  0  0  0  0  0  0  0
    2.0870   -0.4795   -0.2904 N   0  0  0  0  0  0  0  0  0  0  0  0
    4.0705   -0.7019    0.8886 N   0  0  0  0  0  0  0  0  0  0  0  0
    3.5142    1.3935    0.1847 N   0  0  0  0  0  0  0  0  0  0  0  0
   -0.8244   -1.0737   -0.3243 C   0  0  1  0  0  0  0  0  0  0  0  0
   -0.0679   -0.3681   -1.4663 C   0  0  0  0  0  0  0  0  0  0  0  0
   -1.4017   -0.1392    0.7559 C   0  0  1  0  0  0  0  0  0  0  0  0
    1.1575    0.4108   -0.9868 C   0  0  0  0  0  0  0  0  0  0  0  0
   -2.3695    0.8896    0.1905 C   0  0  0  0  0  0  0  0  0  0  0  0
    3.1480    0.0663    0.2180 C   0  0  0  0  0  0  0  0  0  0  0  0
   -0.1423   -1.7817    0.1633 H   0  0  0  0  0  0  0  0  0  0  0  0
   -0.7437    0.2927   -2.0214 H   0  0  0  0  0  0  0  0  0  0  0  0
    0.2509   -1.1293   -2.1907 H   0  0  0  0  0  0  0  0  0  0  0  0
   -0.5901    0.4003    1.2575 H   0  0  0  0  0  0  0  0  0  0  0  0
    1.6485    0.8456   -1.8661 H   0  0  0  0  0  0  0  0  0  0  0  0
    0.8445    1.2344   -0.3367 H   0  0  0  0  0  0  0  0  0  0  0  0
   -2.3760   -0.2739    2.5500 H   0  0  0  0  0  0  0  0  0  0  0  0
   -1.4726   -1.5851    2.2008 H   0  0  0  0  0  0  0  0  0  0  0  0
   -1.5136   -2.4772   -1.4982 H   0  0  0  0  0  0  0  0  0  0  0  0
   -2.3658    2.6990   -0.5364 H   0  0  0  0  0  0  0  0  0  0  0  0
    3.9394   -1.7017    0.9973 H   0  0  0  0  0  0  0  0  0  0  0  0
    4.9063   -0.2944    1.2934 H   0  0  0  0  0  0  0  0  0  0  0  0
    2.9507    2.0995   -0.2752 H   0  0  0  0  0  0  0  0  0  0  0  0
    4.3738    1.7091    0.6211 H   0  0  0  0  0  0  0  0  0  0  0  0
  1  8  1  0  0  0  0
  1 22  1  0  0  0  0
  2 12  1  0  0  0  0
  2 23  1  0  0  0  0
  3 12  2  0  0  0  0
  4 10  1  0  0  0  0
  4 20  1  0  0  0  0
  4 21  1  0  0  0  0
  5 11  1  0  0  0  0
  5 13  2  0  0  0  0
  6 13  1  0  0  0  0
  6 24  1  0  0  0  0
  6 25  1  0  0  0  0
  7 13  1  0  0  0  0
  7 26  1  0  0  0  0
  7 27  1  0  0  0  0
  8  9  1  0  0  0  0
  8 10  1  0  0  0  0
  8 14  1  0  0  0  0
  9 11  1  0  0  0  0
  9 15  1  0  0  0  0
  9 16  1  0  0  0  0
 10 12  1  0  0  0  0
 10 17  1  0  0  0  0
 11 18  1  0  0  0  0
 11 19  1  0  0  0  0
M  END
> <PUBCHEM_COMPOUND_CID>
42615250

> <PUBCHEM_CONFORMER_RMSD>
0.6

> <PUBCHEM_CONFORMER_DIVERSEORDER>
1
118
14
47
59
162
61
133
145
77
112
5
124
111
66
185
13
158
38
104
18
86
23
143
71
167
156
139
22
93
168
181
27
138
51
183
76
94
44
164
11
120
187
20
137
8
88
117
57
122
6
151
10
171
109
53
132
43
141
105
193
17
186
165
84
34
189
129
50
148
62
4
136
81
176
154
7
32
36
102
100
115
146
108
116
125
2
110
192
29
99
82
9
163
33
130
39
63
97
178
72
134
42
16
190
191
127
126
52
101
89
48
15
25
74
197
121
65
78
128
131
153
73
182
123
60
106
54
46
174
198
107
19
188
28
149
175
26
83
90
160
98
68
56
45
194
195
96
95
31
155
69
85
12
179
161
173
92
3
91
80
79
196
87
37
103
64
41
150
142
75
184
180
35
113
140
144
147
170
55
169
135
67
40
30
166
177
172
114
152
119
157
70
24
159
21
58
49

> <PUBCHEM_MMFF94_PARTIAL_CHARGES>
20
1 -0.68
10 0.33
11 0.25
12 0.66
13 0.55
2 -0.65
20 0.36
21 0.36
22 0.4
23 0.5
24 0.4
25 0.4
26 0.4
27 0.4
3 -0.57
4 -0.99
5 -0.7
6 -0.85
7 -0.85
8 0.28

> <PUBCHEM_EFFECTIVE_ROTOR_COUNT>
5

> <PUBCHEM_PHARMACOPHORE_FEATURES>
10
1 1 acceptor
1 1 donor
1 2 acceptor
1 3 acceptor
1 4 cation
1 4 donor
1 6 donor
1 7 donor
3 2 3 12 anion
4 5 6 7 13 cation

> <PUBCHEM_HEAVY_ATOM_COUNT>
13

> <PUBCHEM_ATOM_DEF_STEREO_COUNT>
2

> <PUBCHEM_ATOM_UDEF_STEREO_COUNT>
0

> <PUBCHEM_BOND_DEF_STEREO_COUNT>
0

> <PUBCHEM_BOND_UDEF_STEREO_COUNT>
0

> <PUBCHEM_ISOTOPIC_ATOM_COUNT>
0

> <PUBCHEM_COMPONENT_COUNT>
1

> <PUBCHEM_CACTVS_TAUTO_COUNT>
2

> <PUBCHEM_CONFORMER_ID>
028A41D200000001

> <PUBCHEM_MMFF94_ENERGY>
24.5564

> <PUBCHEM_FEATURE_SELFOVERLAP>
50.862

> <PUBCHEM_SHAPE_FINGERPRINT>
12251169 10 18411425033496108100
12897270 3 6411006517768760404
12932764 1 18335128757640035390
13024252 1 17704076183544426551
13296909 8 18335709299320708446
15775835 57 18187081758505677112
17846911 113 18114463452387831769
18511873 20 16630517458147639733
19766037 51 11959435821455709228
20281407 28 15482673476847213886
20361792 2 14261346925580660022
20871999 31 8141791756317644121
21061003 4 15697999643528973382
22169311 14 18131350825882788200
23402539 116 18261967309962985661
23419403 2 16591434080719933439
3248919 1 17632578197964768734
528716 315 9439399151132113602

> <PUBCHEM_SHAPE_MULTIPOLES>
230
6.11
1.53
1.24
4.89
0.22
0.11
1.08
1.89
-0.75
-0.14
-0.27
-0.35
-0.09

> <PUBCHEM_SHAPE_SELFOVERLAP>
440.185

> <PUBCHEM_SHAPE_VOLUME>
138.6

> <PUBCHEM_COORDINATE_TYPE>
2
5
10

$$$$

