11953976
  -OEChem-07051213023D

 85 89  0     1  0  0  0  0  0999 V2000
   -3.1793    0.6150    1.6558 O   0  0  0  0  0  0  0  0  0  0  0  0
   -3.0492    1.8660   -0.3859 O   0  0  0  0  0  0  0  0  0  0  0  0
    0.9204    1.0452    1.0475 O   0  0  0  0  0  0  0  0  0  0  0  0
    5.3606   -0.8375    0.6508 O   0  0  0  0  0  0  0  0  0  0  0  0
    3.3605    0.6382   -1.8946 O   0  0  0  0  0  0  0  0  0  0  0  0
    1.3405    2.4241   -0.7533 O   0  0  0  0  0  0  0  0  0  0  0  0
    7.2378    1.2676   -0.2004 O   0  0  0  0  0  0  0  0  0  0  0  0
   -1.8313   -6.2106    0.5057 O   0  0  0  0  0  0  0  0  0  0  0  0
   -2.7994    1.8568    1.0339 C   0  0  2  0  0  0  0  0  0  0  0  0
   -0.4749    0.9261    0.7244 C   0  0  2  0  0  0  0  0  0  0  0  0
   -1.2901    2.1141    1.2303 C   0  0  0  0  0  0  0  0  0  0  0  0
    3.6812    0.2885   -0.5519 C   0  0  2  0  0  0  0  0  0  0  0  0
   -0.9690   -0.3383    1.4141 C   0  0  0  0  0  0  0  0  0  0  0  0
   -2.4644   -0.5312    1.1720 C   0  0  1  0  0  0  0  0  0  0  0  0
   -4.4410    1.9355   -0.7199 C   0  0  1  0  0  0  0  0  0  0  0  0
    3.1738    1.3452    0.4516 C   0  0  2  0  0  0  0  0  0  0  0  0
    5.1847    0.0683   -0.4381 C   0  0  1  0  0  0  0  0  0  0  0  0
   -4.9893    3.3139   -0.2959 C   0  0  2  0  0  0  0  0  0  0  0  0
   -3.5804    2.9498    1.7233 C   0  0  0  0  0  0  0  0  0  0  0  0
   -4.5477    1.6995   -2.2226 C   0  0  0  0  0  0  0  0  0  0  0  0
    3.1984   -1.1054   -0.2264 C   0  0  0  0  0  0  0  0  0  0  0  0
   -4.5611    3.6289    1.1138 C   0  0  0  0  0  0  0  0  0  0  0  0
   -3.0223   -1.7730    1.8885 C   0  0  0  0  0  0  0  0  0  0  0  0
    1.7206    1.7107    0.1653 C   0  0  0  0  0  0  0  0  0  0  0  0
    4.2613   -1.7672    0.5965 C   0  0  0  0  0  0  0  0  0  0  0  0
    4.0099    2.5912    0.4203 C   0  0  0  0  0  0  0  0  0  0  0  0
    6.0071    1.3179   -0.1798 C   0  0  0  0  0  0  0  0  0  0  0  0
    5.3175    2.6066    0.1224 C   0  0  0  0  0  0  0  0  0  0  0  0
   -6.5126    3.3770   -0.4151 C   0  0  0  0  0  0  0  0  0  0  0  0
   -3.7869    2.7774   -2.9929 C   0  0  0  0  0  0  0  0  0  0  0  0
   -4.0259    0.3110   -2.5886 C   0  0  0  0  0  0  0  0  0  0  0  0
    2.0606   -1.6604   -0.6755 C   0  0  0  0  0  0  0  0  0  0  0  0
   -2.1857   -3.0014    1.6644 C   0  0  0  0  0  0  0  0  0  0  0  0
    6.1481    3.8510    0.1402 C   0  0  0  0  0  0  0  0  0  0  0  0
   -2.2107   -3.8468    0.6140 C   0  0  0  0  0  0  0  0  0  0  0  0
   -1.1608   -4.9492    0.5331 C   0  0  2  0  0  0  0  0  0  0  0  0
   -0.1144   -4.8591   -0.6175 C   0  0  2  0  0  0  0  0  0  0  0  0
    1.6088   -3.0123   -0.4179 C   0  0  0  0  0  0  0  0  0  0  0  0
    0.4109   -3.4565   -0.8319 C   0  0  0  0  0  0  0  0  0  0  0  0
   -3.2081   -3.7402   -0.5052 C   0  0  0  0  0  0  0  0  0  0  0  0
   -0.5982   -5.4364   -1.9547 C   0  0  0  0  0  0  0  0  0  0  0  0
   -0.5890    0.8102   -0.3614 H   0  0  0  0  0  0  0  0  0  0  0  0
   -1.0550    2.2711    2.2919 H   0  0  0  0  0  0  0  0  0  0  0  0
   -0.9753    3.0229    0.7023 H   0  0  0  0  0  0  0  0  0  0  0  0
   -0.7658   -0.2645    2.4913 H   0  0  0  0  0  0  0  0  0  0  0  0
   -0.3859   -1.1892    1.0521 H   0  0  0  0  0  0  0  0  0  0  0  0
   -2.6558   -0.6390    0.0971 H   0  0  0  0  0  0  0  0  0  0  0  0
   -4.9747    1.1311   -0.1945 H   0  0  0  0  0  0  0  0  0  0  0  0
    3.2295    0.9670    1.4827 H   0  0  0  0  0  0  0  0  0  0  0  0
    5.5887   -0.3905   -1.3521 H   0  0  0  0  0  0  0  0  0  0  0  0
   -4.5603    4.1202   -0.8997 H   0  0  0  0  0  0  0  0  0  0  0  0
   -3.3302    3.1945    2.7521 H   0  0  0  0  0  0  0  0  0  0  0  0
   -5.5995    1.7352   -2.5289 H   0  0  0  0  0  0  0  0  0  0  0  0
   -5.0621    4.4314    1.6474 H   0  0  0  0  0  0  0  0  0  0  0  0
   -4.0658   -1.9342    1.5952 H   0  0  0  0  0  0  0  0  0  0  0  0
   -3.0719   -1.5814    2.9689 H   0  0  0  0  0  0  0  0  0  0  0  0
    3.9305   -1.9608    1.6205 H   0  0  0  0  0  0  0  0  0  0  0  0
    4.6216   -2.6916    0.1349 H   0  0  0  0  0  0  0  0  0  0  0  0
    3.5276    3.5256    0.7006 H   0  0  0  0  0  0  0  0  0  0  0  0
   -6.8967    4.3353   -0.0467 H   0  0  0  0  0  0  0  0  0  0  0  0
   -6.8356    3.2813   -1.4560 H   0  0  0  0  0  0  0  0  0  0  0  0
   -6.9927    2.5812    0.1655 H   0  0  0  0  0  0  0  0  0  0  0  0
    3.6621   -0.0746   -2.4835 H   0  0  0  0  0  0  0  0  0  0  0  0
   -2.7532    2.8904   -2.6508 H   0  0  0  0  0  0  0  0  0  0  0  0
   -3.7465    2.5200   -4.0579 H   0  0  0  0  0  0  0  0  0  0  0  0
   -4.2823    3.7507   -2.9377 H   0  0  0  0  0  0  0  0  0  0  0  0
   -2.9531    0.2117   -2.3909 H   0  0  0  0  0  0  0  0  0  0  0  0
   -4.1853    0.1087   -3.6533 H   0  0  0  0  0  0  0  0  0  0  0  0
   -4.5499   -0.4662   -2.0222 H   0  0  0  0  0  0  0  0  0  0  0  0
    1.3984   -1.0494   -1.2864 H   0  0  0  0  0  0  0  0  0  0  0  0
   -1.4247   -3.1559    2.4289 H   0  0  0  0  0  0  0  0  0  0  0  0
    6.9381    3.7757    0.8944 H   0  0  0  0  0  0  0  0  0  0  0  0
    5.5508    4.7391    0.3723 H   0  0  0  0  0  0  0  0  0  0  0  0
    6.6137    4.0115   -0.8377 H   0  0  0  0  0  0  0  0  0  0  0  0
   -0.5796   -4.9519    1.4658 H   0  0  0  0  0  0  0  0  0  0  0  0
    0.7234   -5.5058   -0.3176 H   0  0  0  0  0  0  0  0  0  0  0  0
    2.2683   -3.6777    0.1306 H   0  0  0  0  0  0  0  0  0  0  0  0
   -0.2463   -2.7755   -1.3708 H   0  0  0  0  0  0  0  0  0  0  0  0
   -4.0687   -3.1170   -0.2482 H   0  0  0  0  0  0  0  0  0  0  0  0
   -3.6052   -4.7262   -0.7664 H   0  0  0  0  0  0  0  0  0  0  0  0
   -2.7441   -3.3022   -1.3932 H   0  0  0  0  0  0  0  0  0  0  0  0
    0.2055   -5.4068   -2.7000 H   0  0  0  0  0  0  0  0  0  0  0  0
   -0.8989   -6.4837   -1.8480 H   0  0  0  0  0  0  0  0  0  0  0  0
   -1.4450   -4.8818   -2.3673 H   0  0  0  0  0  0  0  0  0  0  0  0
   -2.4203   -6.2524    1.2786 H   0  0  0  0  0  0  0  0  0  0  0  0
  1  9  1  0  0  0  0
  1 14  1  0  0  0  0
  2  9  1  0  0  0  0
  2 15  1  0  0  0  0
  3 10  1  0  0  0  0
  3 24  1  0  0  0  0
  4 17  1  0  0  0  0
  4 25  1  0  0  0  0
  5 12  1  0  0  0  0
  5 63  1  0  0  0  0
  6 24  2  0  0  0  0
  7 27  2  0  0  0  0
  8 36  1  0  0  0  0
  8 85  1  0  0  0  0
  9 11  1  0  0  0  0
  9 19  1  0  0  0  0
 10 11  1  0  0  0  0
 10 13  1  0  0  0  0
 10 42  1  0  0  0  0
 11 43  1  0  0  0  0
 11 44  1  0  0  0  0
 12 16  1  0  0  0  0
 12 17  1  0  0  0  0
 12 21  1  0  0  0  0
 13 14  1  0  0  0  0
 13 45  1  0  0  0  0
 13 46  1  0  0  0  0
 14 23  1  0  0  0  0
 14 47  1  0  0  0  0
 15 18  1  0  0  0  0
 15 20  1  0  0  0  0
 15 48  1  0  0  0  0
 16 24  1  0  0  0  0
 16 26  1  0  0  0  0
 16 49  1  0  0  0  0
 17 27  1  0  0  0  0
 17 50  1  0  0  0  0
 18 22  1  0  0  0  0
 18 29  1  0  0  0  0
 18 51  1  0  0  0  0
 19 22  2  0  0  0  0
 19 52  1  0  0  0  0
 20 30  1  0  0  0  0
 20 31  1  0  0  0  0
 20 53  1  0  0  0  0
 21 25  1  0  0  0  0
 21 32  2  0  0  0  0
 22 54  1  0  0  0  0
 23 33  1  0  0  0  0
 23 55  1  0  0  0  0
 23 56  1  0  0  0  0
 25 57  1  0  0  0  0
 25 58  1  0  0  0  0
 26 28  2  0  0  0  0
 26 59  1  0  0  0  0
 27 28  1  0  0  0  0
 28 34  1  0  0  0  0
 29 60  1  0  0  0  0
 29 61  1  0  0  0  0
 29 62  1  0  0  0  0
 30 64  1  0  0  0  0
 30 65  1  0  0  0  0
 30 66  1  0  0  0  0
 31 67  1  0  0  0  0
 31 68  1  0  0  0  0
 31 69  1  0  0  0  0
 32 38  1  0  0  0  0
 32 70  1  0  0  0  0
 33 35  2  0  0  0  0
 33 71  1  0  0  0  0
 34 72  1  0  0  0  0
 34 73  1  0  0  0  0
 34 74  1  0  0  0  0
 35 36  1  0  0  0  0
 35 40  1  0  0  0  0
 36 37  1  0  0  0  0
 36 75  1  0  0  0  0
 37 39  1  0  0  0  0
 37 41  1  0  0  0  0
 37 76  1  0  0  0  0
 38 39  2  0  0  0  0
 38 77  1  0  0  0  0
 39 78  1  0  0  0  0
 40 79  1  0  0  0  0
 40 80  1  0  0  0  0
 40 81  1  0  0  0  0
 41 82  1  0  0  0  0
 41 83  1  0  0  0  0
 41 84  1  0  0  0  0
M  END
> <PUBCHEM_COMPOUND_CID>
11953976

> <PUBCHEM_CONFORMER_RMSD>
0.8

> <PUBCHEM_CONFORMER_DIVERSEORDER>
1

> <PUBCHEM_MMFF94_PARTIAL_CHARGES>
43
1 -0.56
10 0.28
12 0.42
14 0.28
15 0.28
16 0.2
17 0.34
18 0.14
19 -0.29
2 -0.56
21 -0.28
22 -0.29
23 0.14
24 0.66
25 0.42
26 -0.29
27 0.49
28 -0.12
3 -0.43
32 -0.15
33 -0.29
34 0.14
35 -0.28
36 0.42
37 0.14
38 -0.15
39 -0.29
4 -0.56
40 0.14
5 -0.68
52 0.15
54 0.15
59 0.15
6 -0.57
63 0.4
7 -0.57
70 0.15
71 0.15
77 0.15
78 0.15
8 -0.68
85 0.4
9 0.7

> <PUBCHEM_EFFECTIVE_ROTOR_COUNT>
3.4

> <PUBCHEM_PHARMACOPHORE_FEATURES>
14
1 1 acceptor
1 2 acceptor
1 4 acceptor
1 5 acceptor
1 5 donor
1 6 acceptor
1 7 acceptor
1 8 acceptor
1 8 donor
3 20 30 31 hydrophobe
5 4 12 17 21 25 rings
6 1 9 10 11 13 14 rings
6 12 16 17 26 27 28 rings
6 2 9 15 18 19 22 rings

> <PUBCHEM_HEAVY_ATOM_COUNT>
41

> <PUBCHEM_ATOM_DEF_STEREO_COUNT>
10

> <PUBCHEM_ATOM_UDEF_STEREO_COUNT>
0

> <PUBCHEM_BOND_DEF_STEREO_COUNT>
3

> <PUBCHEM_BOND_UDEF_STEREO_COUNT>
0

> <PUBCHEM_ISOTOPIC_ATOM_COUNT>
0

> <PUBCHEM_COMPONENT_COUNT>
1

> <PUBCHEM_CACTVS_TAUTO_COUNT>
7

> <PUBCHEM_CONFORMER_ID>
00B6673800000001

> <PUBCHEM_MMFF94_ENERGY>
93.0462

> <PUBCHEM_FEATURE_SELFOVERLAP>
71.23

> <PUBCHEM_SHAPE_FINGERPRINT>
10256941 240 18343298171794589759
10290309 65 18264751285762441322
10675989 125 18049154767979551929
11062273 29 17624145201441004013
11135609 187 18338239392136976057
12106331 60 17838336286098010058
12608794 3 18125467391050377750
12788726 201 18125452912077703531
1361 2 18048878786265765827
13773456 30 18338234972071698898
14394314 77 17543336168886864931
14415360 78 18267860760548737214
15274700 147 16547750324746239356
15400415 2 18337101367052446248
15439362 3 18051127300936242201
15484559 13 18119242003057981582
16993438 75 18338517422048553875
17138139 8 17460344142111205349
19319366 153 18118688953304454629
19958102 18 18342747290988991445
21033648 144 18272653475804925948
21033648 29 17274822531819390773
23516275 137 16661465437577653711
23559900 14 18049148162456916290
25223398 141 18341324488134855640
4066623 53 17831599582344262063
4403749 210 18263366902651076888
4409770 3 18266462010154530323
46939830 39 17334509206994752575
504843 32 18412543193460706062
5080951 261 18129394712660462825
550186 72 17976814290400516328
6036956 94 18196645190538359101
6669772 16 18266453394776902755
6898599 12 18340761534108305460

> <PUBCHEM_SHAPE_MULTIPOLES>
796.81
13.79
8
1.95
12.42
12.43
0.95
-18.37
2.36
-5.63
0.66
-3.11
-0.29
1.25

> <PUBCHEM_SHAPE_SELFOVERLAP>
1688.796

> <PUBCHEM_SHAPE_VOLUME>
441.6

> <PUBCHEM_COORDINATE_TYPE>
2
5
10

$$$$

