54675759
  -OEChem-07051212473D

 24 24  0     1  0  0  0  0  0999 V2000
    3.0868   -0.0581   -0.4750 S   0  0  0  0  0  0  0  0  0  0  0  0
   -0.9973   -1.1011    0.8724 O   0  0  0  0  0  0  0  0  0  0  0  0
   -3.4022    1.3955   -0.2497 O   0  0  0  0  0  0  0  0  0  0  0  0
    1.9607    0.8593    0.2753 O   0  0  0  0  0  0  0  0  0  0  0  0
   -0.5595    2.4387    0.4352 O   0  0  0  0  0  0  0  0  0  0  0  0
   -4.4672   -0.9554   -1.3290 O   0  0  0  0  0  0  0  0  0  0  0  0
    1.1397   -1.9458    0.6830 O   0  0  0  0  0  0  0  0  0  0  0  0
    4.1228    1.0357   -1.1027 O   0  0  0  0  0  0  0  0  0  0  0  0
    2.4571   -0.7630   -1.5764 O   0  0  0  0  0  0  0  0  0  0  0  0
    3.8008   -0.7976    0.5494 O   0  0  0  0  0  0  0  0  0  0  0  0
   -1.5950    0.2088    0.7894 C   0  0  2  0  0  0  0  0  0  0  0  0
   -2.6173    0.2069   -0.3359 C   0  0  1  0  0  0  0  0  0  0  0  0
   -0.4328    1.0852    0.5436 C   0  0  0  0  0  0  0  0  0  0  0  0
    0.7013    0.3952    0.4778 C   0  0  0  0  0  0  0  0  0  0  0  0
   -3.5536   -0.9911   -0.2377 C   0  0  0  0  0  0  0  0  0  0  0  0
    0.3556   -1.0133    0.6804 C   0  0  0  0  0  0  0  0  0  0  0  0
   -2.0577    0.4428    1.7554 H   0  0  0  0  0  0  0  0  0  0  0  0
   -2.1307    0.2033   -1.3194 H   0  0  0  0  0  0  0  0  0  0  0  0
   -3.0132   -1.9408   -0.2883 H   0  0  0  0  0  0  0  0  0  0  0  0
   -4.1403   -0.9548    0.6863 H   0  0  0  0  0  0  0  0  0  0  0  0
   -4.0572    1.3654   -0.9679 H   0  0  0  0  0  0  0  0  0  0  0  0
   -1.5011    2.6536    0.5514 H   0  0  0  0  0  0  0  0  0  0  0  0
   -5.0546   -1.7246   -1.2344 H   0  0  0  0  0  0  0  0  0  0  0  0
    4.8827    0.6570   -1.6040 H   0  0  0  0  0  0  0  0  0  0  0  0
  1  4  1  0  0  0  0
  1  8  1  0  0  0  0
  1  9  2  0  0  0  0
  1 10  2  0  0  0  0
  2 11  1  0  0  0  0
  2 16  1  0  0  0  0
  3 12  1  0  0  0  0
  3 21  1  0  0  0  0
  4 14  1  0  0  0  0
  5 13  1  0  0  0  0
  5 22  1  0  0  0  0
  6 15  1  0  0  0  0
  6 23  1  0  0  0  0
  7 16  2  0  0  0  0
  8 24  1  0  0  0  0
 11 12  1  0  0  0  0
 11 13  1  0  0  0  0
 11 17  1  0  0  0  0
 12 15  1  0  0  0  0
 12 18  1  0  0  0  0
 13 14  2  0  0  0  0
 14 16  1  0  0  0  0
 15 19  1  0  0  0  0
 15 20  1  0  0  0  0
M  END
> <PUBCHEM_COMPOUND_CID>
54675759

> <PUBCHEM_CONFORMER_RMSD>
0.6

> <PUBCHEM_CONFORMER_DIVERSEORDER>
1
63
37
24
55
22
66
70
19
64
3
61
50
46
73
59
38
42
21
71
29
57
51
4
53
8
18
33
67
35
2
36
15
5
25
72
16
48
13
47
69
68
10
9
32
12
41
11
54
62
65
58
43
45
27
49
7
39
20
28
31
60
14
26
6
44
30
40
34
52
17
56
23

> <PUBCHEM_MMFF94_PARTIAL_CHARGES>
20
1 1.67
10 -0.65
11 0.42
12 0.28
13 -0.06
14 0.09
15 0.28
16 0.71
2 -0.43
21 0.4
22 0.45
23 0.4
24 0.5
3 -0.68
4 -0.26
5 -0.53
6 -0.68
7 -0.57
8 -0.68
9 -0.65

> <PUBCHEM_EFFECTIVE_ROTOR_COUNT>
4.4

> <PUBCHEM_PHARMACOPHORE_FEATURES>
11
1 10 acceptor
1 3 acceptor
1 3 donor
1 5 donor
1 6 acceptor
1 6 donor
1 7 acceptor
1 8 acceptor
1 9 acceptor
4 1 8 9 10 anion
5 2 11 13 14 16 rings

> <PUBCHEM_HEAVY_ATOM_COUNT>
16

> <PUBCHEM_ATOM_DEF_STEREO_COUNT>
1

> <PUBCHEM_ATOM_UDEF_STEREO_COUNT>
1

> <PUBCHEM_BOND_DEF_STEREO_COUNT>
0

> <PUBCHEM_BOND_UDEF_STEREO_COUNT>
0

> <PUBCHEM_ISOTOPIC_ATOM_COUNT>
0

> <PUBCHEM_COMPONENT_COUNT>
1

> <PUBCHEM_CACTVS_TAUTO_COUNT>
5

> <PUBCHEM_CONFORMER_ID>
0342492F00000001

> <PUBCHEM_MMFF94_ENERGY>
25.2581

> <PUBCHEM_FEATURE_SELFOVERLAP>
55.89

> <PUBCHEM_SHAPE_FINGERPRINT>
10062212 137 18269847552226917067
11206711 2 18341326785863250709
11769659 78 16877941642019718455
12644460 14 6338664249204375226
12670546 177 18337669711330992101
13705890 14 17530963592304500126
13760787 5 18273492385922508265
15775835 57 17561073696998902540
16945 1 18340190990536069490
18186145 218 18131344219901340060
18534176 82 17275097289571914131
19026448 4 15936408965734861360
200 152 18410294726731403526
20281475 54 17749099028274719790
20645476 183 17488445413450430458
20645477 70 17898589587745762447
20871999 31 18334579040628617941
21293036 1 18341047436836991545
21501502 16 18196373842872616281
21637258 2 16370731417836583607
231179 274 15482400806305650903
23382010 3 18130788897809823225
23402539 116 18410016559027243020
23402655 69 18341057414668733365
23557571 272 17460322289713098976
23559900 14 18410848846970633484
2748010 2 17980756035042374817
449060 23 17894908529662519207

> <PUBCHEM_SHAPE_MULTIPOLES>
280.3
7.03
1.7
1.1
0.48
0.42
0.27
-0.88
3.21
0.3
-0.22
-0.17
-0.21
-0.51

> <PUBCHEM_SHAPE_SELFOVERLAP>
569.581

> <PUBCHEM_SHAPE_VOLUME>
163.5

> <PUBCHEM_COORDINATE_TYPE>
2
5
10

$$$$

