33934
  -OEChem-07051213052D

 66 66  0     0  0  0  0  0  0999 V2000
    8.0622   -3.0000    0.0000 O   0  0  0  0  0  0  0  0  0  0  0  0
   11.5263   -1.0000    0.0000 O   0  0  0  0  0  0  0  0  0  0  0  0
    8.9282   -1.5000    0.0000 O   0  0  0  0  0  0  0  0  0  0  0  0
    9.7942   -1.0000    0.0000 O   0  0  0  0  0  0  0  0  0  0  0  0
   13.2583    3.0000    0.0000 C   0  0  0  0  0  0  0  0  0  0  0  0
    3.7320   -2.5000    0.0000 C   0  0  0  0  0  0  0  0  0  0  0  0
    2.8660   -3.0000    0.0000 C   0  0  0  0  0  0  0  0  0  0  0  0
   14.1244    3.5000    0.0000 C   0  0  0  0  0  0  0  0  0  0  0  0
   13.2583    2.0000    0.0000 C   0  0  0  0  0  0  0  0  0  0  0  0
    4.5981   -3.0000    0.0000 C   0  0  0  0  0  0  0  0  0  0  0  0
   12.3923    1.5000    0.0000 C   0  0  0  0  0  0  0  0  0  0  0  0
    5.4641   -2.5000    0.0000 C   0  0  0  0  0  0  0  0  0  0  0  0
   12.3923    0.5000    0.0000 C   0  0  0  0  0  0  0  0  0  0  0  0
    6.3301   -3.0000    0.0000 C   0  0  0  0  0  0  0  0  0  0  0  0
    2.0000   -2.5000    0.0000 C   0  0  0  0  0  0  0  0  0  0  0  0
    2.8660   -4.0000    0.0000 C   0  0  0  0  0  0  0  0  0  0  0  0
   14.1244    4.5000    0.0000 C   0  0  0  0  0  0  0  0  0  0  0  0
   14.9904    3.0000    0.0000 C   0  0  0  0  0  0  0  0  0  0  0  0
    7.1962   -2.5000    0.0000 C   0  0  0  0  0  0  0  0  0  0  0  0
   11.5263    0.0000    0.0000 C   0  0  0  0  0  0  0  0  0  0  0  0
   10.6603   -2.5000    0.0000 C   0  0  0  0  0  0  0  0  0  0  0  0
    9.7942   -3.0000    0.0000 C   0  0  0  0  0  0  0  0  0  0  0  0
   10.6603   -1.5000    0.0000 C   0  0  0  0  0  0  0  0  0  0  0  0
    8.9282   -2.5000    0.0000 C   0  0  0  0  0  0  0  0  0  0  0  0
    9.7942   -4.0000    0.0000 C   0  0  0  0  0  0  0  0  0  0  0  0
   11.5263   -3.0000    0.0000 C   0  0  0  0  0  0  0  0  0  0  0  0
   10.6603   -4.5000    0.0000 C   0  0  0  0  0  0  0  0  0  0  0  0
   11.5263   -4.0000    0.0000 C   0  0  0  0  0  0  0  0  0  0  0  0
    4.1306   -2.0250    0.0000 H   0  0  0  0  0  0  0  0  0  0  0  0
    3.3335   -2.0250    0.0000 H   0  0  0  0  0  0  0  0  0  0  0  0
   13.0463    3.5826    0.0000 H   0  0  0  0  0  0  0  0  0  0  0  0
   12.6477    2.8923    0.0000 H   0  0  0  0  0  0  0  0  0  0  0  0
    2.8660   -2.3800    0.0000 H   0  0  0  0  0  0  0  0  0  0  0  0
   13.5874    3.8100    0.0000 H   0  0  0  0  0  0  0  0  0  0  0  0
    4.1996   -3.4750    0.0000 H   0  0  0  0  0  0  0  0  0  0  0  0
    4.9966   -3.4750    0.0000 H   0  0  0  0  0  0  0  0  0  0  0  0
   13.4704    1.4174    0.0000 H   0  0  0  0  0  0  0  0  0  0  0  0
   13.8689    2.1077    0.0000 H   0  0  0  0  0  0  0  0  0  0  0  0
    5.8626   -2.0250    0.0000 H   0  0  0  0  0  0  0  0  0  0  0  0
    5.0656   -2.0250    0.0000 H   0  0  0  0  0  0  0  0  0  0  0  0
   12.1803    2.0826    0.0000 H   0  0  0  0  0  0  0  0  0  0  0  0
   11.7817    1.3923    0.0000 H   0  0  0  0  0  0  0  0  0  0  0  0
    5.9316   -3.4750    0.0000 H   0  0  0  0  0  0  0  0  0  0  0  0
    6.7287   -3.4750    0.0000 H   0  0  0  0  0  0  0  0  0  0  0  0
   12.6044   -0.0826    0.0000 H   0  0  0  0  0  0  0  0  0  0  0  0
   13.0029    0.6077    0.0000 H   0  0  0  0  0  0  0  0  0  0  0  0
   14.6804    2.4631    0.0000 H   0  0  0  0  0  0  0  0  0  0  0  0
   15.5273    2.6900    0.0000 H   0  0  0  0  0  0  0  0  0  0  0  0
    2.3100   -1.9631    0.0000 H   0  0  0  0  0  0  0  0  0  0  0  0
    1.4631   -2.1900    0.0000 H   0  0  0  0  0  0  0  0  0  0  0  0
    1.6900   -3.0369    0.0000 H   0  0  0  0  0  0  0  0  0  0  0  0
    2.2460   -4.0000    0.0000 H   0  0  0  0  0  0  0  0  0  0  0  0
    2.8660   -4.6200    0.0000 H   0  0  0  0  0  0  0  0  0  0  0  0
    3.4860   -4.0000    0.0000 H   0  0  0  0  0  0  0  0  0  0  0  0
   14.7444    4.5000    0.0000 H   0  0  0  0  0  0  0  0  0  0  0  0
   14.1244    5.1200    0.0000 H   0  0  0  0  0  0  0  0  0  0  0  0
   13.5044    4.5000    0.0000 H   0  0  0  0  0  0  0  0  0  0  0  0
   15.3004    3.5369    0.0000 H   0  0  0  0  0  0  0  0  0  0  0  0
    7.5947   -2.0250    0.0000 H   0  0  0  0  0  0  0  0  0  0  0  0
    6.7976   -2.0250    0.0000 H   0  0  0  0  0  0  0  0  0  0  0  0
   11.3142    0.5826    0.0000 H   0  0  0  0  0  0  0  0  0  0  0  0
   10.9157   -0.1077    0.0000 H   0  0  0  0  0  0  0  0  0  0  0  0
    9.2573   -4.3100    0.0000 H   0  0  0  0  0  0  0  0  0  0  0  0
   12.0632   -2.6900    0.0000 H   0  0  0  0  0  0  0  0  0  0  0  0
   10.6603   -5.1200    0.0000 H   0  0  0  0  0  0  0  0  0  0  0  0
   12.0632   -4.3100    0.0000 H   0  0  0  0  0  0  0  0  0  0  0  0
  1 19  1  0  0  0  0
  1 24  1  0  0  0  0
  2 20  1  0  0  0  0
  2 23  1  0  0  0  0
  3 24  2  0  0  0  0
  4 23  2  0  0  0  0
  5  8  1  0  0  0  0
  5  9  1  0  0  0  0
  5 31  1  0  0  0  0
  5 32  1  0  0  0  0
  6  7  1  0  0  0  0
  6 10  1  0  0  0  0
  6 29  1  0  0  0  0
  6 30  1  0  0  0  0
  7 15  1  0  0  0  0
  7 16  1  0  0  0  0
  7 33  1  0  0  0  0
  8 17  1  0  0  0  0
  8 18  1  0  0  0  0
  8 34  1  0  0  0  0
  9 11  1  0  0  0  0
  9 37  1  0  0  0  0
  9 38  1  0  0  0  0
 10 12  1  0  0  0  0
 10 35  1  0  0  0  0
 10 36  1  0  0  0  0
 11 13  1  0  0  0  0
 11 41  1  0  0  0  0
 11 42  1  0  0  0  0
 12 14  1  0  0  0  0
 12 39  1  0  0  0  0
 12 40  1  0  0  0  0
 13 20  1  0  0  0  0
 13 45  1  0  0  0  0
 13 46  1  0  0  0  0
 14 19  1  0  0  0  0
 14 43  1  0  0  0  0
 14 44  1  0  0  0  0
 15 49  1  0  0  0  0
 15 50  1  0  0  0  0
 15 51  1  0  0  0  0
 16 52  1  0  0  0  0
 16 53  1  0  0  0  0
 16 54  1  0  0  0  0
 17 55  1  0  0  0  0
 17 56  1  0  0  0  0
 17 57  1  0  0  0  0
 18 47  1  0  0  0  0
 18 48  1  0  0  0  0
 18 58  1  0  0  0  0
 19 59  1  0  0  0  0
 19 60  1  0  0  0  0
 20 61  1  0  0  0  0
 20 62  1  0  0  0  0
 21 22  1  0  0  0  0
 21 23  1  0  0  0  0
 21 26  2  0  0  0  0
 22 24  1  0  0  0  0
 22 25  2  0  0  0  0
 25 27  1  0  0  0  0
 25 63  1  0  0  0  0
 26 28  1  0  0  0  0
 26 64  1  0  0  0  0
 27 28  2  0  0  0  0
 27 65  1  0  0  0  0
 28 66  1  0  0  0  0
M  END
> <PUBCHEM_COMPOUND_CID>
33934

> <PUBCHEM_COMPOUND_CANONICALIZED>
1

> <PUBCHEM_CACTVS_COMPLEXITY>
390

> <PUBCHEM_CACTVS_HBOND_ACCEPTOR>
4

> <PUBCHEM_CACTVS_HBOND_DONOR>
0

> <PUBCHEM_CACTVS_ROTATABLE_BOND>
16

> <PUBCHEM_CACTVS_SUBSKEYS>
AAADcfB4OAAAAAAAAAAAAAAAAAAAAAAAAAAwAAAAAAAAAAABAAAAGgAAAAAADQCgmAIyCIAABACIAiDSCAACAAAkAAAIiAEACMgIJjKANRiCMQAkwAEIqYfLyOCOgAAAAAAQAAAAAAAAACAAAAAAAAAAAA==

> <PUBCHEM_IUPAC_OPENEYE_NAME>
bis(6-methylheptyl) benzene-1,2-dicarboxylate

> <PUBCHEM_IUPAC_CAS_NAME>
benzene-1,2-dicarboxylic acid bis(6-methylheptyl) ester

> <PUBCHEM_IUPAC_NAME>
bis(6-methylheptyl) benzene-1,2-dicarboxylate

> <PUBCHEM_IUPAC_SYSTEMATIC_NAME>
bis(6-methylheptyl) benzene-1,2-dicarboxylate

> <PUBCHEM_IUPAC_TRADITIONAL_NAME>
benzene-1,2-dicarboxylic acid bis(6-methylheptyl) ester

> <PUBCHEM_IUPAC_INCHI>
InChI=1S/C24H38O4/c1-19(2)13-7-5-11-17-27-23(25)21-15-9-10-16-22(21)24(26)28-18-12-6-8-14-20(3)4/h9-10,15-16,19-20H,5-8,11-14,17-18H2,1-4H3

> <PUBCHEM_IUPAC_INCHIKEY>
IJFPVINAQGWBRJ-UHFFFAOYSA-N

> <PUBCHEM_XLOGP3>
8.5

> <PUBCHEM_EXACT_MASS>
390.27701

> <PUBCHEM_MOLECULAR_FORMULA>
C24H38O4

> <PUBCHEM_MOLECULAR_WEIGHT>
390.55612

> <PUBCHEM_OPENEYE_CAN_SMILES>
CC(C)CCCCCOC(=O)C1=CC=CC=C1C(=O)OCCCCCC(C)C

> <PUBCHEM_OPENEYE_ISO_SMILES>
CC(C)CCCCCOC(=O)C1=CC=CC=C1C(=O)OCCCCCC(C)C

> <PUBCHEM_CACTVS_TPSA>
52.6

> <PUBCHEM_MONOISOTOPIC_WEIGHT>
390.27701

> <PUBCHEM_TOTAL_CHARGE>
0

> <PUBCHEM_HEAVY_ATOM_COUNT>
28

> <PUBCHEM_ATOM_DEF_STEREO_COUNT>
0

> <PUBCHEM_ATOM_UDEF_STEREO_COUNT>
0

> <PUBCHEM_BOND_DEF_STEREO_COUNT>
0

> <PUBCHEM_BOND_UDEF_STEREO_COUNT>
0

> <PUBCHEM_ISOTOPIC_ATOM_COUNT>
0

> <PUBCHEM_COMPONENT_COUNT>
1

> <PUBCHEM_CACTVS_TAUTO_COUNT>
1

> <PUBCHEM_COORDINATE_TYPE>
1
5
255

> <PUBCHEM_BONDANNOTATIONS>
21  22  8
21  26  8
22  25  8
25  27  8
26  28  8
27  28  8

$$$$

