441952
  -OEChem-07051212562D

126132  0     1  0  0  0  0  0999 V2000
    6.8678   -0.8054    0.0000 O   0  0  0  0  0  0  0  0  0  0  0  0
   14.7714    1.7264    0.0000 O   0  0  0  0  0  0  0  0  0  0  0  0
    8.6580   -2.5478    0.0000 O   0  0  0  0  0  0  0  0  0  0  0  0
   15.1301    2.9744    0.0000 O   0  0  0  0  0  0  0  0  0  0  0  0
    5.1357   -0.8120    0.0000 O   0  0  0  0  0  0  0  0  0  0  0  0
    7.1681   -3.4311    0.0000 O   0  0  0  0  0  0  0  0  0  0  0  0
    6.8600    1.1946    0.0000 O   0  0  0  0  0  0  0  0  0  0  0  0
    9.6779   -4.2682    0.0000 O   0  0  0  0  0  0  0  0  0  0  0  0
    5.1242    2.1880    0.0000 O   0  0  0  0  0  0  0  0  0  0  0  0
    3.3960    1.1813    0.0000 O   0  0  0  0  0  0  0  0  0  0  0  0
    8.6980   -6.0117    0.0000 O   0  0  0  0  0  0  0  0  0  0  0  0
    6.6981   -6.0348    0.0000 O   0  0  0  0  0  0  0  0  0  0  0  0
    2.5357   -0.3220    0.0000 O   0  0  0  0  0  0  0  0  0  0  0  0
    5.1882   -5.1862    0.0000 O   0  0  0  0  0  0  0  0  0  0  0  0
   10.3979    1.2188    0.0000 C   0  0  1  0  0  0  0  0  0  0  0  0
    9.5319    0.7188    0.0000 C   0  0  2  0  0  0  0  0  0  0  0  0
    9.5316    1.7192    0.0000 C   0  0  0  0  0  0  0  0  0  0  0  0
   11.2639    0.7188    0.0000 C   0  0  1  0  0  0  0  0  0  0  0  0
    9.5319   -0.2812    0.0000 C   0  0  1  0  0  0  0  0  0  0  0  0
   12.1739    1.2256    0.0000 C   0  0  1  0  0  0  0  0  0  0  0  0
   10.3818    2.2603    0.0000 C   0  0  0  0  0  0  0  0  0  0  0  0
   12.1819    2.2672    0.0000 C   0  0  2  0  0  0  0  0  0  0  0  0
    8.6379    1.2535    0.0000 C   0  0  0  0  0  0  0  0  0  0  0  0
   11.2639   -0.2812    0.0000 C   0  0  0  0  0  0  0  0  0  0  0  0
   10.3979   -0.7812    0.0000 C   0  0  0  0  0  0  0  0  0  0  0  0
   11.2799    2.7881    0.0000 C   0  0  0  0  0  0  0  0  0  0  0  0
    8.6379   -0.8159    0.0000 C   0  0  1  0  0  0  0  0  0  0  0  0
   13.1700    2.5770    0.0000 C   0  0  2  0  0  0  0  0  0  0  0  0
   13.1570    0.9006    0.0000 C   0  0  0  0  0  0  0  0  0  0  0  0
    7.7318    0.7396    0.0000 C   0  0  0  0  0  0  0  0  0  0  0  0
    7.7318   -0.3020    0.0000 C   0  0  2  0  0  0  0  0  0  0  0  0
   13.7714    1.7342    0.0000 C   0  0  2  0  0  0  0  0  0  0  0  0
   12.1662    0.2257    0.0000 C   0  0  0  0  0  0  0  0  0  0  0  0
   12.1897    3.2672    0.0000 C   0  0  0  0  0  0  0  0  0  0  0  0
    8.1480   -1.6876    0.0000 C   0  0  0  0  0  0  0  0  0  0  0  0
   13.4880    3.5252    0.0000 C   0  0  1  0  0  0  0  0  0  0  0  0
    9.1479   -1.6760    0.0000 C   0  0  0  0  0  0  0  0  0  0  0  0
   14.4680    3.7238    0.0000 C   0  0  2  0  0  0  0  0  0  0  0  0
   12.8259    4.2746    0.0000 C   0  0  0  0  0  0  0  0  0  0  0  0
    5.9998   -0.3087    0.0000 C   0  0  2  0  0  0  0  0  0  0  0  0
   14.7860    4.6719    0.0000 C   0  0  0  0  0  0  0  0  0  0  0  0
    8.1680   -3.4196    0.0000 C   0  0  2  0  0  0  0  0  0  0  0  0
    5.9960    0.6913    0.0000 C   0  0  1  0  0  0  0  0  0  0  0  0
    8.6780   -4.2797    0.0000 C   0  0  1  0  0  0  0  0  0  0  0  0
   15.7661    4.8706    0.0000 C   0  0  0  0  0  0  0  0  0  0  0  0
    5.1280    1.1880    0.0000 C   0  0  2  0  0  0  0  0  0  0  0  0
    4.2678   -0.3154    0.0000 C   0  0  1  0  0  0  0  0  0  0  0  0
    4.2639    0.6846    0.0000 C   0  0  1  0  0  0  0  0  0  0  0  0
    8.1880   -5.1515    0.0000 C   0  0  2  0  0  0  0  0  0  0  0  0
    6.6781   -4.3029    0.0000 C   0  0  1  0  0  0  0  0  0  0  0  0
    7.1881   -5.1630    0.0000 C   0  0  1  0  0  0  0  0  0  0  0  0
   16.0840    5.8187    0.0000 C   0  0  0  0  0  0  0  0  0  0  0  0
    3.4037   -0.8187    0.0000 C   0  0  0  0  0  0  0  0  0  0  0  0
    5.6782   -4.3144    0.0000 C   0  0  0  0  0  0  0  0  0  0  0  0
   17.0641    6.0174    0.0000 C   0  0  0  0  0  0  0  0  0  0  0  0
   15.4220    6.5681    0.0000 C   0  0  0  0  0  0  0  0  0  0  0  0
    9.7437    2.3018    0.0000 H   0  0  0  0  0  0  0  0  0  0  0  0
    8.9210    1.8268    0.0000 H   0  0  0  0  0  0  0  0  0  0  0  0
   11.9967    0.2881    0.0000 H   0  0  0  0  0  0  0  0  0  0  0  0
    9.5384   -1.1312    0.0000 H   0  0  0  0  0  0  0  0  0  0  0  0
   10.1638    2.8407    0.0000 H   0  0  0  0  0  0  0  0  0  0  0  0
    9.7727    2.1448    0.0000 H   0  0  0  0  0  0  0  0  0  0  0  0
    9.0425    1.7232    0.0000 H   0  0  0  0  0  0  0  0  0  0  0  0
    8.2443    1.7325    0.0000 H   0  0  0  0  0  0  0  0  0  0  0  0
   11.4760   -0.8638    0.0000 H   0  0  0  0  0  0  0  0  0  0  0  0
   11.8745   -0.1735    0.0000 H   0  0  0  0  0  0  0  0  0  0  0  0
    9.9994   -1.2562    0.0000 H   0  0  0  0  0  0  0  0  0  0  0  0
   10.7964   -1.2562    0.0000 H   0  0  0  0  0  0  0  0  0  0  0  0
   11.6772    3.2640    0.0000 H   0  0  0  0  0  0  0  0  0  0  0  0
   10.8789    3.2609    0.0000 H   0  0  0  0  0  0  0  0  0  0  0  0
   12.5749    3.1840    0.0000 H   0  0  0  0  0  0  0  0  0  0  0  0
   12.9017    0.3357    0.0000 H   0  0  0  0  0  0  0  0  0  0  0  0
   13.6920    0.5873    0.0000 H   0  0  0  0  0  0  0  0  0  0  0  0
    7.5228    1.3233    0.0000 H   0  0  0  0  0  0  0  0  0  0  0  0
    7.1210    0.6335    0.0000 H   0  0  0  0  0  0  0  0  0  0  0  0
    7.7354   -0.9220    0.0000 H   0  0  0  0  0  0  0  0  0  0  0  0
   14.0574    2.2843    0.0000 H   0  0  0  0  0  0  0  0  0  0  0  0
   11.5462    0.2305    0.0000 H   0  0  0  0  0  0  0  0  0  0  0  0
   12.1614   -0.3943    0.0000 H   0  0  0  0  0  0  0  0  0  0  0  0
   12.7862    0.2209    0.0000 H   0  0  0  0  0  0  0  0  0  0  0  0
   12.8096    3.2624    0.0000 H   0  0  0  0  0  0  0  0  0  0  0  0
   12.1944    3.8872    0.0000 H   0  0  0  0  0  0  0  0  0  0  0  0
   11.5697    3.2720    0.0000 H   0  0  0  0  0  0  0  0  0  0  0  0
    7.6684   -1.2946    0.0000 H   0  0  0  0  0  0  0  0  0  0  0  0
    7.6777   -2.0916    0.0000 H   0  0  0  0  0  0  0  0  0  0  0  0
   12.8803    3.4020    0.0000 H   0  0  0  0  0  0  0  0  0  0  0  0
    8.6146   -1.9922    0.0000 H   0  0  0  0  0  0  0  0  0  0  0  0
    9.4641   -2.2094    0.0000 H   0  0  0  0  0  0  0  0  0  0  0  0
    9.6812   -1.3599    0.0000 H   0  0  0  0  0  0  0  0  0  0  0  0
   15.0772    1.1871    0.0000 H   0  0  0  0  0  0  0  0  0  0  0  0
   14.2709    3.1360    0.0000 H   0  0  0  0  0  0  0  0  0  0  0  0
   13.2905    4.6851    0.0000 H   0  0  0  0  0  0  0  0  0  0  0  0
   12.4154    4.7392    0.0000 H   0  0  0  0  0  0  0  0  0  0  0  0
   12.3612    3.8641    0.0000 H   0  0  0  0  0  0  0  0  0  0  0  0
    6.5356    0.0034    0.0000 H   0  0  0  0  0  0  0  0  0  0  0  0
   14.7702    5.2917    0.0000 H   0  0  0  0  0  0  0  0  0  0  0  0
   14.1729    4.7640    0.0000 H   0  0  0  0  0  0  0  0  0  0  0  0
    8.7880   -3.4124    0.0000 H   0  0  0  0  0  0  0  0  0  0  0  0
   15.7377    3.0976    0.0000 H   0  0  0  0  0  0  0  0  0  0  0  0
    6.5341    0.3834    0.0000 H   0  0  0  0  0  0  0  0  0  0  0  0
    8.9817   -3.7392    0.0000 H   0  0  0  0  0  0  0  0  0  0  0  0
   16.1766    4.4059    0.0000 H   0  0  0  0  0  0  0  0  0  0  0  0
    5.6638    1.5000    0.0000 H   0  0  0  0  0  0  0  0  0  0  0  0
    4.2702   -0.9354    0.0000 H   0  0  0  0  0  0  0  0  0  0  0  0
    4.2615    1.3046    0.0000 H   0  0  0  0  0  0  0  0  0  0  0  0
    8.8080   -5.1443    0.0000 H   0  0  0  0  0  0  0  0  0  0  0  0
    6.8577    1.8146    0.0000 H   0  0  0  0  0  0  0  0  0  0  0  0
    6.3619   -3.7696    0.0000 H   0  0  0  0  0  0  0  0  0  0  0  0
    7.5043   -5.6964    0.0000 H   0  0  0  0  0  0  0  0  0  0  0  0
    3.0070   -1.2952    0.0000 H   0  0  0  0  0  0  0  0  0  0  0  0
    3.8040   -1.2921    0.0000 H   0  0  0  0  0  0  0  0  0  0  0  0
    9.9941   -4.8015    0.0000 H   0  0  0  0  0  0  0  0  0  0  0  0
    4.5860    2.4959    0.0000 H   0  0  0  0  0  0  0  0  0  0  0  0
    3.3936    1.8013    0.0000 H   0  0  0  0  0  0  0  0  0  0  0  0
    5.7788   -3.7026    0.0000 H   0  0  0  0  0  0  0  0  0  0  0  0
    5.0931   -4.1091    0.0000 H   0  0  0  0  0  0  0  0  0  0  0  0
    8.3942   -6.5522    0.0000 H   0  0  0  0  0  0  0  0  0  0  0  0
   17.1873    5.4097    0.0000 H   0  0  0  0  0  0  0  0  0  0  0  0
   17.6718    6.1405    0.0000 H   0  0  0  0  0  0  0  0  0  0  0  0
   16.9409    6.6250    0.0000 H   0  0  0  0  0  0  0  0  0  0  0  0
   15.8866    6.9786    0.0000 H   0  0  0  0  0  0  0  0  0  0  0  0
   15.0115    7.0328    0.0000 H   0  0  0  0  0  0  0  0  0  0  0  0
   14.9573    6.1576    0.0000 H   0  0  0  0  0  0  0  0  0  0  0  0
    7.0143   -6.5681    0.0000 H   0  0  0  0  0  0  0  0  0  0  0  0
    2.0000   -0.6341    0.0000 H   0  0  0  0  0  0  0  0  0  0  0  0
    4.5683   -5.1933    0.0000 H   0  0  0  0  0  0  0  0  0  0  0  0
 31  1  1  1  0  0  0
 40  1  1  6  0  0  0
 32  2  1  1  0  0  0
  2 90  1  0  0  0  0
  3 35  1  0  0  0  0
 42  3  1  1  0  0  0
 38  4  1  6  0  0  0
  4 99  1  0  0  0  0
  5 40  1  0  0  0  0
  5 47  1  0  0  0  0
  6 42  1  0  0  0  0
  6 50  1  0  0  0  0
 43  7  1  1  0  0  0
  7107  1  0  0  0  0
 44  8  1  6  0  0  0
  8112  1  0  0  0  0
 46  9  1  6  0  0  0
  9113  1  0  0  0  0
 48 10  1  1  0  0  0
 10114  1  0  0  0  0
 49 11  1  1  0  0  0
 11117  1  0  0  0  0
 51 12  1  6  0  0  0
 12124  1  0  0  0  0
 13 53  1  0  0  0  0
 13125  1  0  0  0  0
 14 54  1  0  0  0  0
 14126  1  0  0  0  0
 15 16  1  0  0  0  0
 15 17  1  1  0  0  0
 15 18  1  0  0  0  0
 15 21  1  0  0  0  0
 16 17  1  1  0  0  0
 16 19  1  0  0  0  0
 16 23  1  0  0  0  0
 17 57  1  0  0  0  0
 17 58  1  0  0  0  0
 18 20  1  0  0  0  0
 18 24  1  0  0  0  0
 18 59  1  6  0  0  0
 19 25  1  0  0  0  0
 19 27  1  0  0  0  0
 19 60  1  6  0  0  0
 20 22  1  0  0  0  0
 20 29  1  0  0  0  0
 20 33  1  6  0  0  0
 21 26  1  0  0  0  0
 21 61  1  0  0  0  0
 21 62  1  0  0  0  0
 22 26  1  0  0  0  0
 22 28  1  0  0  0  0
 22 34  1  1  0  0  0
 23 30  1  0  0  0  0
 23 63  1  0  0  0  0
 23 64  1  0  0  0  0
 24 25  1  0  0  0  0
 24 65  1  0  0  0  0
 24 66  1  0  0  0  0
 25 67  1  0  0  0  0
 25 68  1  0  0  0  0
 26 69  1  0  0  0  0
 26 70  1  0  0  0  0
 27 31  1  0  0  0  0
 27 35  1  0  0  0  0
 27 37  1  1  0  0  0
 28 32  1  0  0  0  0
 28 36  1  0  0  0  0
 28 71  1  6  0  0  0
 29 32  1  0  0  0  0
 29 72  1  0  0  0  0
 29 73  1  0  0  0  0
 30 31  1  0  0  0  0
 30 74  1  0  0  0  0
 30 75  1  0  0  0  0
 31 76  1  0  0  0  0
 32 77  1  0  0  0  0
 33 78  1  0  0  0  0
 33 79  1  0  0  0  0
 33 80  1  0  0  0  0
 34 81  1  0  0  0  0
 34 82  1  0  0  0  0
 34 83  1  0  0  0  0
 35 84  1  0  0  0  0
 35 85  1  0  0  0  0
 36 38  1  0  0  0  0
 36 39  1  6  0  0  0
 36 86  1  0  0  0  0
 37 87  1  0  0  0  0
 37 88  1  0  0  0  0
 37 89  1  0  0  0  0
 38 41  1  0  0  0  0
 38 91  1  0  0  0  0
 39 92  1  0  0  0  0
 39 93  1  0  0  0  0
 39 94  1  0  0  0  0
 40 43  1  0  0  0  0
 40 95  1  0  0  0  0
 41 45  1  0  0  0  0
 41 96  1  0  0  0  0
 41 97  1  0  0  0  0
 42 44  1  0  0  0  0
 42 98  1  0  0  0  0
 43 46  1  0  0  0  0
 43100  1  0  0  0  0
 44 49  1  0  0  0  0
 44101  1  0  0  0  0
 45 52  2  0  0  0  0
 45102  1  0  0  0  0
 46 48  1  0  0  0  0
 46103  1  0  0  0  0
 47 48  1  0  0  0  0
 47 53  1  6  0  0  0
 47104  1  0  0  0  0
 48105  1  0  0  0  0
 49 51  1  0  0  0  0
 49106  1  0  0  0  0
 50 51  1  0  0  0  0
 50 54  1  1  0  0  0
 50108  1  0  0  0  0
 51109  1  0  0  0  0
 52 55  1  0  0  0  0
 52 56  1  0  0  0  0
 53110  1  0  0  0  0
 53111  1  0  0  0  0
 54115  1  0  0  0  0
 54116  1  0  0  0  0
 55118  1  0  0  0  0
 55119  1  0  0  0  0
 55120  1  0  0  0  0
 56121  1  0  0  0  0
 56122  1  0  0  0  0
 56123  1  0  0  0  0
M  END
> <PUBCHEM_COMPOUND_CID>
441952

> <PUBCHEM_COMPOUND_CANONICALIZED>
1

> <PUBCHEM_CACTVS_COMPLEXITY>
1450

> <PUBCHEM_CACTVS_HBOND_ACCEPTOR>
14

> <PUBCHEM_CACTVS_HBOND_DONOR>
10

> <PUBCHEM_CACTVS_ROTATABLE_BOND>
11

> <PUBCHEM_CACTVS_SUBSKEYS>
AAADcfB8PAAAAAAAAAAAAAAAGAAAAYAAAAA0aMECBgAAAGDAAAAAGgAACAAADxSwgAMCCAAABgCAAiBCAAAAAAAgAAAACAAAAAgREAIAAQAiQAAFwAAPAAPA4PwPgAAAAAAAAADAAAYAADAAAYAADAAAAA==

> <PUBCHEM_IUPAC_INCHI>
InChI=1S/C42H70O14/c1-20(2)7-8-22(45)21(3)29-23(46)15-40(6)27-10-9-26-38(4,19-53-36-34(51)32(49)30(47)24(16-43)54-36)28(56-37-35(52)33(50)31(48)25(17-44)55-37)11-12-41(26)18-42(27,41)14-13-39(29,40)5/h7,21-37,43-52H,8-19H2,1-6H3/t21-,22+,23+,24-,25-,26+,27-,28+,29+,30-,31-,32+,33+,34-,35-,36-,37+,38+,39-,40+,41-,42+/m1/s1

> <PUBCHEM_IUPAC_INCHIKEY>
DWONHNNHWHSAHV-JJMLNUPDSA-N

> <PUBCHEM_XLOGP3_AA>
2.9

> <PUBCHEM_EXACT_MASS>
798.476557

> <PUBCHEM_MOLECULAR_FORMULA>
C42H70O14

> <PUBCHEM_MOLECULAR_WEIGHT>
798.9968

> <PUBCHEM_OPENEYE_CAN_SMILES>
CC(C1C(CC2(C1(CCC34C2CCC5C3(C4)CCC(C5(C)COC6C(C(C(C(O6)CO)O)O)O)OC7C(C(C(C(O7)CO)O)O)O)C)C)O)C(CC=C(C)C)O

> <PUBCHEM_OPENEYE_ISO_SMILES>
C[C@@H]([C@H]1[C@H](C[C@@]2([C@@]1(CC[C@]34[C@@H]2CC[C@@H]5[C@]3(C4)CC[C@@H]([C@@]5(C)CO[C@H]6[C@@H]([C@H]([C@@H]([C@H](O6)CO)O)O)O)O[C@H]7[C@@H]([C@H]([C@@H]([C@H](O7)CO)O)O)O)C)C)O)[C@H](CC=C(C)C)O

> <PUBCHEM_CACTVS_TPSA>
239

> <PUBCHEM_MONOISOTOPIC_WEIGHT>
798.476557

> <PUBCHEM_TOTAL_CHARGE>
0

> <PUBCHEM_HEAVY_ATOM_COUNT>
56

> <PUBCHEM_ATOM_DEF_STEREO_COUNT>
22

> <PUBCHEM_ATOM_UDEF_STEREO_COUNT>
0

> <PUBCHEM_BOND_DEF_STEREO_COUNT>
0

> <PUBCHEM_BOND_UDEF_STEREO_COUNT>
0

> <PUBCHEM_ISOTOPIC_ATOM_COUNT>
0

> <PUBCHEM_COMPONENT_COUNT>
1

> <PUBCHEM_CACTVS_TAUTO_COUNT>
1

> <PUBCHEM_COORDINATE_TYPE>
1
5
255

> <PUBCHEM_BONDANNOTATIONS>
31  1  5
40  1  6
48  10  5
49  11  5
51  12  6
15  17  5
16  17  5
18  59  6
19  60  6
32  2  5
20  33  6
22  34  5
27  37  5
28  71  6
42  3  5
36  39  6
38  4  6
47  53  6
50  54  5
43  7  5
44  8  6
46  9  6

$$$$

