440902
  -OEChem-07051212512D

 15 14  0     1  0  0  0  0  0999 V2000
    4.2690   -0.5950    0.0000 O   0  0  0  0  0  0  0  0  0  0  0  0
    2.5369    0.4050    0.0000 O   0  0  0  0  0  0  0  0  0  0  0  0
    6.0010    0.4050    0.0000 N   0  0  0  0  0  0  0  0  0  0  0  0
    4.2690    0.4050    0.0000 C   0  0  1  0  0  0  0  0  0  0  0  0
    5.1350    0.9050    0.0000 C   0  0  0  0  0  0  0  0  0  0  0  0
    3.4030    0.9050    0.0000 C   0  0  0  0  0  0  0  0  0  0  0  0
    4.8059    0.0950    0.0000 H   0  0  0  0  0  0  0  0  0  0  0  0
    5.5335    1.3800    0.0000 H   0  0  0  0  0  0  0  0  0  0  0  0
    4.7365    1.3800    0.0000 H   0  0  0  0  0  0  0  0  0  0  0  0
    3.8015    1.3800    0.0000 H   0  0  0  0  0  0  0  0  0  0  0  0
    3.0044    1.3800    0.0000 H   0  0  0  0  0  0  0  0  0  0  0  0
    6.5380    0.7150    0.0000 H   0  0  0  0  0  0  0  0  0  0  0  0
    6.0010   -0.2150    0.0000 H   0  0  0  0  0  0  0  0  0  0  0  0
    3.7320   -0.9050    0.0000 H   0  0  0  0  0  0  0  0  0  0  0  0
    2.0000    0.7150    0.0000 H   0  0  0  0  0  0  0  0  0  0  0  0
  4  1  1  6  0  0  0
  1 14  1  0  0  0  0
  2  6  1  0  0  0  0
  2 15  1  0  0  0  0
  3  5  1  0  0  0  0
  3 12  1  0  0  0  0
  3 13  1  0  0  0  0
  4  5  1  0  0  0  0
  4  6  1  0  0  0  0
  4  7  1  0  0  0  0
  5  8  1  0  0  0  0
  5  9  1  0  0  0  0
  6 10  1  0  0  0  0
  6 11  1  0  0  0  0
M  END
> <PUBCHEM_COMPOUND_CID>
440902

> <PUBCHEM_COMPOUND_CANONICALIZED>
1

> <PUBCHEM_CACTVS_COMPLEXITY>
32

> <PUBCHEM_CACTVS_HBOND_ACCEPTOR>
3

> <PUBCHEM_CACTVS_HBOND_DONOR>
3

> <PUBCHEM_CACTVS_ROTATABLE_BOND>
2

> <PUBCHEM_CACTVS_SUBSKEYS>
AAADccBCMAAAAAAAAAAAAAAAAAAAAAAAAAAAAAAAAAAAAAAAAAAAHgAQCAAACBThgAYAAABAAgAAAAAAAAAAAAAAAAAAAIAAAAADEAAAAAAAQAACEAABAAAAAAAAAAAAAAAAAAAAAAAAAAAAAAAAAAAAAA==

> <PUBCHEM_IUPAC_OPENEYE_NAME>
(2S)-3-aminopropane-1,2-diol

> <PUBCHEM_IUPAC_CAS_NAME>
(2S)-3-aminopropane-1,2-diol

> <PUBCHEM_IUPAC_NAME>
(2S)-3-aminopropane-1,2-diol

> <PUBCHEM_IUPAC_SYSTEMATIC_NAME>
(2S)-3-azanylpropane-1,2-diol

> <PUBCHEM_IUPAC_TRADITIONAL_NAME>
(2S)-3-aminopropane-1,2-diol

> <PUBCHEM_IUPAC_INCHI>
InChI=1S/C3H9NO2/c4-1-3(6)2-5/h3,5-6H,1-2,4H2/t3-/m0/s1

> <PUBCHEM_IUPAC_INCHIKEY>
KQIGMPWTAHJUMN-VKHMYHEASA-N

> <PUBCHEM_XLOGP3_AA>
-2

> <PUBCHEM_EXACT_MASS>
91.063329

> <PUBCHEM_MOLECULAR_FORMULA>
C3H9NO2

> <PUBCHEM_MOLECULAR_WEIGHT>
91.10906

> <PUBCHEM_OPENEYE_CAN_SMILES>
C(C(CO)O)N

> <PUBCHEM_OPENEYE_ISO_SMILES>
C([C@@H](CO)O)N

> <PUBCHEM_CACTVS_TPSA>
66.5

> <PUBCHEM_MONOISOTOPIC_WEIGHT>
91.063329

> <PUBCHEM_TOTAL_CHARGE>
0

> <PUBCHEM_HEAVY_ATOM_COUNT>
6

> <PUBCHEM_ATOM_DEF_STEREO_COUNT>
1

> <PUBCHEM_ATOM_UDEF_STEREO_COUNT>
0

> <PUBCHEM_BOND_DEF_STEREO_COUNT>
0

> <PUBCHEM_BOND_UDEF_STEREO_COUNT>
0

> <PUBCHEM_ISOTOPIC_ATOM_COUNT>
0

> <PUBCHEM_COMPONENT_COUNT>
1

> <PUBCHEM_CACTVS_TAUTO_COUNT>
1

> <PUBCHEM_COORDINATE_TYPE>
1
5
255

> <PUBCHEM_BONDANNOTATIONS>
4  1  6

$$$$

