583069
  -OEChem-06241222443D

 38 41  0     1  0  0  0  0  0999 V2000
   -3.7212   -0.2771   -0.8321 O   0  0  0  0  0  0  0  0  0  0  0  0
   -4.6138    1.1672    0.7132 O   0  0  0  0  0  0  0  0  0  0  0  0
   -0.2317   -0.8286    0.1507 N   0  0  1  0  0  0  0  0  0  0  0  0
   -1.6910   -0.7182    0.2172 C   0  0  1  0  0  0  0  0  0  0  0  0
   -2.2606    0.5617    0.8194 C   0  0  1  0  0  0  0  0  0  0  0  0
    0.4283    0.4074   -0.3319 C   0  0  1  0  0  0  0  0  0  0  0  0
   -1.5520    1.8303    0.3600 C   0  0  0  0  0  0  0  0  0  0  0  0
   -0.0394    1.6720    0.4198 C   0  0  0  0  0  0  0  0  0  0  0  0
   -2.4039   -0.7717   -1.1304 C   0  0  1  0  0  0  0  0  0  0  0  0
    0.3290   -1.2630    1.4382 C   0  0  0  0  0  0  0  0  0  0  0  0
    1.9474    0.3137   -0.3049 C   0  0  0  0  0  0  0  0  0  0  0  0
   -3.6665    0.5356    0.2711 C   0  0  0  0  0  0  0  0  0  0  0  0
    1.7981   -1.6542    1.2717 C   0  0  0  0  0  0  0  0  0  0  0  0
    2.5951   -0.6436    0.4936 C   0  0  0  0  0  0  0  0  0  0  0  0
   -2.4978   -2.1698   -1.7170 C   0  0  0  0  0  0  0  0  0  0  0  0
    2.7202    1.2048   -1.0671 C   0  0  0  0  0  0  0  0  0  0  0  0
    3.9959   -0.7024    0.5112 C   0  0  0  0  0  0  0  0  0  0  0  0
    4.1132    1.1443   -1.0361 C   0  0  0  0  0  0  0  0  0  0  0  0
    4.7507    0.1917   -0.2465 C   0  0  0  0  0  0  0  0  0  0  0  0
   -2.0860   -1.5610    0.8057 H   0  0  0  0  0  0  0  0  0  0  0  0
   -2.2768    0.4885    1.9120 H   0  0  0  0  0  0  0  0  0  0  0  0
    0.1560    0.5166   -1.3903 H   0  0  0  0  0  0  0  0  0  0  0  0
   -1.8641    2.6761    0.9843 H   0  0  0  0  0  0  0  0  0  0  0  0
   -1.8446    2.0925   -0.6653 H   0  0  0  0  0  0  0  0  0  0  0  0
    0.4200    2.5684   -0.0152 H   0  0  0  0  0  0  0  0  0  0  0  0
    0.2862    1.6469    1.4674 H   0  0  0  0  0  0  0  0  0  0  0  0
   -1.9660   -0.0986   -1.8762 H   0  0  0  0  0  0  0  0  0  0  0  0
   -0.2026   -2.1469    1.8128 H   0  0  0  0  0  0  0  0  0  0  0  0
    0.2257   -0.4868    2.2061 H   0  0  0  0  0  0  0  0  0  0  0  0
    1.8606   -2.6141    0.7429 H   0  0  0  0  0  0  0  0  0  0  0  0
    2.2408   -1.7925    2.2654 H   0  0  0  0  0  0  0  0  0  0  0  0
   -3.0828   -2.1528   -2.6429 H   0  0  0  0  0  0  0  0  0  0  0  0
   -1.5071   -2.5779   -1.9373 H   0  0  0  0  0  0  0  0  0  0  0  0
   -3.0174   -2.8509   -1.0343 H   0  0  0  0  0  0  0  0  0  0  0  0
    2.2380    1.9537   -1.6907 H   0  0  0  0  0  0  0  0  0  0  0  0
    4.5053   -1.4506    1.1134 H   0  0  0  0  0  0  0  0  0  0  0  0
    4.7000    1.8394   -1.6294 H   0  0  0  0  0  0  0  0  0  0  0  0
    5.8354    0.1408   -0.2253 H   0  0  0  0  0  0  0  0  0  0  0  0
  1  9  1  0  0  0  0
  1 12  1  0  0  0  0
  2 12  2  0  0  0  0
  3  4  1  0  0  0  0
  3  6  1  0  0  0  0
  3 10  1  0  0  0  0
  4  5  1  0  0  0  0
  4  9  1  0  0  0  0
  4 20  1  0  0  0  0
  5  7  1  0  0  0  0
  5 12  1  0  0  0  0
  5 21  1  0  0  0  0
  6  8  1  0  0  0  0
  6 11  1  0  0  0  0
  6 22  1  0  0  0  0
  7  8  1  0  0  0  0
  7 23  1  0  0  0  0
  7 24  1  0  0  0  0
  8 25  1  0  0  0  0
  8 26  1  0  0  0  0
  9 15  1  0  0  0  0
  9 27  1  0  0  0  0
 10 13  1  0  0  0  0
 10 28  1  0  0  0  0
 10 29  1  0  0  0  0
 11 14  1  0  0  0  0
 11 16  2  0  0  0  0
 13 14  1  0  0  0  0
 13 30  1  0  0  0  0
 13 31  1  0  0  0  0
 14 17  2  0  0  0  0
 15 32  1  0  0  0  0
 15 33  1  0  0  0  0
 15 34  1  0  0  0  0
 16 18  1  0  0  0  0
 16 35  1  0  0  0  0
 17 19  1  0  0  0  0
 17 36  1  0  0  0  0
 18 19  2  0  0  0  0
 18 37  1  0  0  0  0
 19 38  1  0  0  0  0
M  END
> <PUBCHEM_COMPOUND_CID>
583069

> <PUBCHEM_CONFORMER_RMSD>
0.6

> <PUBCHEM_CONFORMER_DIVERSEORDER>
1
5
14
6
8
3
12
13
9
4
10
7
11
2

> <PUBCHEM_MMFF94_PARTIAL_CHARGES>
20
1 -0.43
10 0.27
11 -0.14
12 0.66
13 0.14
14 -0.14
16 -0.15
17 -0.15
18 -0.15
19 -0.15
2 -0.57
3 -0.81
35 0.15
36 0.15
37 0.15
38 0.15
4 0.27
5 0.06
6 0.41
9 0.28

> <PUBCHEM_EFFECTIVE_ROTOR_COUNT>
1.2

> <PUBCHEM_PHARMACOPHORE_FEATURES>
6
1 2 acceptor
1 3 cation
5 1 4 5 9 12 rings
6 11 14 16 17 18 19 rings
6 3 4 5 6 7 8 rings
6 3 6 10 11 13 14 rings

> <PUBCHEM_HEAVY_ATOM_COUNT>
19

> <PUBCHEM_ATOM_DEF_STEREO_COUNT>
0

> <PUBCHEM_ATOM_UDEF_STEREO_COUNT>
4

> <PUBCHEM_BOND_DEF_STEREO_COUNT>
0

> <PUBCHEM_BOND_UDEF_STEREO_COUNT>
0

> <PUBCHEM_ISOTOPIC_ATOM_COUNT>
0

> <PUBCHEM_COMPONENT_COUNT>
1

> <PUBCHEM_CACTVS_TAUTO_COUNT>
2

> <PUBCHEM_CONFORMER_ID>
0008E59D00000001

> <PUBCHEM_MMFF94_ENERGY>
40.9154

> <PUBCHEM_FEATURE_SELFOVERLAP>
30.7

> <PUBCHEM_SHAPE_FINGERPRINT>
10062212 137 18410015411801619407
11471102 20 17917713513361528354
11543360 7 17749385898226252460
11578080 2 17979396110937304796
11796584 16 17167855396734314438
12236239 1 18411701001755071969
12403814 3 18202002157592305357
13221675 6 18410854377833326657
13583140 156 14835858218145925824
13760787 5 18273216408430115781
14386348 63 15285358405660548038
14787075 74 18059001796886586795
15219456 202 16415484877997047859
15309172 13 17418091014141521906
15342168 16 17417232248262893500
15375462 189 18412266155222031737
15415430 112 18187366502121318223
15669948 3 18260271845404738127
15775835 57 18412258445586975497
16752209 62 18188504591398827157
16945 1 17821441370202241561
17349148 13 18059588987814683626
1813 80 17839186551883737306
18186145 218 17847062164604478606
18219364 16 16845577487117553310
192875 21 18202009824145760872
19784866 34 18130506336428062776
19862831 5 18342460326743409174
200 152 18342744009333342316
20279233 1 15430034357456402628
20645477 70 17131839802354867866
20691752 17 18199766759757706696
21033648 29 16199881587398944972
21267235 1 18271795878552436362
21634736 98 18119253865467268612
21639500 275 17846787273691157566
22112679 90 18334590031064819187
231179 274 16558757801922719838
23402539 116 18410857638335938076
23402655 69 18412543215220340300
23557571 272 17313958415369035226
23559900 14 17168139053517000340
25 1 17775004574798188506
2748010 2 17694774126179147376
296302 2 17632856417071373780
3082319 5 18335703814874350550
34934 24 18409448098277508777
4340502 62 17346302831092125209
474 4 17988637472182809988
4921388 177 17458620082209489527
5104073 3 17845932923408493136
602551 16 17385733460815217438
603831 33 18412833490331735212
633830 44 18201994422234684630
77492 1 18411989065222346102
8272917 22 18058728147023836379
9981440 41 17400931791077064360

> <PUBCHEM_SHAPE_MULTIPOLES>
374.29
8.17
1.83
1.31
1.83
0.14
0.21
-1.23
1.2
-0.47
0.05
-0.31
0.5
-1.79

> <PUBCHEM_SHAPE_SELFOVERLAP>
819.299

> <PUBCHEM_SHAPE_VOLUME>
203.5

> <PUBCHEM_COORDINATE_TYPE>
2
5
10

$$$$

