13876
  -OEChem-06241222402D

 23 23  0     0  0  0  0  0  0999 V2000
    5.0032    1.1191    0.0000 S   0  0  0  0  0  0  0  0  0  0  0  0
    4.0032    1.1191    0.0000 S   0  0  0  0  0  0  0  0  0  0  0  0
    6.2633   -0.1410    0.0000 N   0  3  0  0  0  0  0  0  0  0  0  0
    2.7431   -0.1410    0.0000 N   0  0  0  0  0  0  0  0  0  0  0  0
    4.5032   -0.4197    0.0000 N   0  0  0  0  0  0  0  0  0  0  0  0
    5.3122    0.1681    0.0000 C   0  0  0  0  0  0  0  0  0  0  0  0
    3.6942    0.1681    0.0000 C   0  0  0  0  0  0  0  0  0  0  0  0
    7.0064    0.5282    0.0000 C   0  0  0  0  0  0  0  0  0  0  0  0
    6.4712   -1.1191    0.0000 C   0  0  0  0  0  0  0  0  0  0  0  0
    2.0000    0.5282    0.0000 C   0  0  0  0  0  0  0  0  0  0  0  0
    2.5352   -1.1191    0.0000 C   0  0  0  0  0  0  0  0  0  0  0  0
    7.4213    0.0674    0.0000 H   0  0  0  0  0  0  0  0  0  0  0  0
    7.4672    0.9430    0.0000 H   0  0  0  0  0  0  0  0  0  0  0  0
    6.5916    0.9889    0.0000 H   0  0  0  0  0  0  0  0  0  0  0  0
    5.8648   -1.2480    0.0000 H   0  0  0  0  0  0  0  0  0  0  0  0
    6.6001   -1.7256    0.0000 H   0  0  0  0  0  0  0  0  0  0  0  0
    7.0776   -0.9902    0.0000 H   0  0  0  0  0  0  0  0  0  0  0  0
    2.4149    0.9889    0.0000 H   0  0  0  0  0  0  0  0  0  0  0  0
    1.5392    0.9430    0.0000 H   0  0  0  0  0  0  0  0  0  0  0  0
    1.5851    0.0674    0.0000 H   0  0  0  0  0  0  0  0  0  0  0  0
    1.9288   -0.9902    0.0000 H   0  0  0  0  0  0  0  0  0  0  0  0
    2.4063   -1.7256    0.0000 H   0  0  0  0  0  0  0  0  0  0  0  0
    3.1417   -1.2480    0.0000 H   0  0  0  0  0  0  0  0  0  0  0  0
  1  2  1  0  0  0  0
  1  6  1  0  0  0  0
  2  7  1  0  0  0  0
  3  6  2  0  0  0  0
  3  8  1  0  0  0  0
  3  9  1  0  0  0  0
  4  7  1  0  0  0  0
  4 10  1  0  0  0  0
  4 11  1  0  0  0  0
  5  6  1  0  0  0  0
  5  7  2  0  0  0  0
  8 12  1  0  0  0  0
  8 13  1  0  0  0  0
  8 14  1  0  0  0  0
  9 15  1  0  0  0  0
  9 16  1  0  0  0  0
  9 17  1  0  0  0  0
 10 18  1  0  0  0  0
 10 19  1  0  0  0  0
 10 20  1  0  0  0  0
 11 21  1  0  0  0  0
 11 22  1  0  0  0  0
 11 23  1  0  0  0  0
M  CHG  1   3   1
M  END
> <PUBCHEM_COMPOUND_CID>
13876

> <PUBCHEM_COMPOUND_CANONICALIZED>
1

> <PUBCHEM_CACTVS_COMPLEXITY>
194

> <PUBCHEM_CACTVS_HBOND_ACCEPTOR>
2

> <PUBCHEM_CACTVS_HBOND_DONOR>
0

> <PUBCHEM_CACTVS_ROTATABLE_BOND>
1

> <PUBCHEM_CACTVS_SUBSKEYS>
AAADccBjAABgAAAAAAAAAAAAAAAAAQAAAAAAAAAAAAAAAAAAAAAAFAQAAAAAAAAAAAQDAAMAAAAgAAAAJAAAEAEAAAABAAAIAAAAAAAAAAAAAAAAAAAAAAAAAAAAAAAAAAAAAAAAAAAAAAAAAAAAAAAAAA==

> <PUBCHEM_IUPAC_OPENEYE_NAME>
[5-(dimethylamino)-1,2,4-dithiazol-3-ylidene]-dimethyl-ammonium

> <PUBCHEM_IUPAC_CAS_NAME>
[5-(dimethylamino)-1,2,4-dithiazol-3-ylidene]-dimethylammonium

> <PUBCHEM_IUPAC_NAME>
[5-(dimethylamino)-1,2,4-dithiazol-3-ylidene]-dimethylazanium

> <PUBCHEM_IUPAC_SYSTEMATIC_NAME>
[5-(dimethylamino)-1,2,4-dithiazol-3-ylidene]-dimethyl-azanium

> <PUBCHEM_IUPAC_TRADITIONAL_NAME>
[5-(dimethylamino)-1,2,4-dithiazol-3-ylidene]-dimethyl-ammonium

> <PUBCHEM_IUPAC_INCHI>
InChI=1S/C6H12N3S2/c1-8(2)5-7-6(9(3)4)11-10-5/h1-4H3/q+1

> <PUBCHEM_IUPAC_INCHIKEY>
KCBRYAXBJXMPSI-UHFFFAOYSA-N

> <PUBCHEM_XLOGP3_AA>
0.7

> <PUBCHEM_EXACT_MASS>
190.047264

> <PUBCHEM_MOLECULAR_FORMULA>
C6H12N3S2+

> <PUBCHEM_MOLECULAR_WEIGHT>
190.30958

> <PUBCHEM_OPENEYE_CAN_SMILES>
CN(C)C1=NC(=[N+](C)C)SS1

> <PUBCHEM_OPENEYE_ISO_SMILES>
CN(C)C1=NC(=[N+](C)C)SS1

> <PUBCHEM_CACTVS_TPSA>
69.2

> <PUBCHEM_MONOISOTOPIC_WEIGHT>
190.047264

> <PUBCHEM_TOTAL_CHARGE>
1

> <PUBCHEM_HEAVY_ATOM_COUNT>
11

> <PUBCHEM_ATOM_DEF_STEREO_COUNT>
0

> <PUBCHEM_ATOM_UDEF_STEREO_COUNT>
0

> <PUBCHEM_BOND_DEF_STEREO_COUNT>
0

> <PUBCHEM_BOND_UDEF_STEREO_COUNT>
0

> <PUBCHEM_ISOTOPIC_ATOM_COUNT>
0

> <PUBCHEM_COMPONENT_COUNT>
1

> <PUBCHEM_CACTVS_TAUTO_COUNT>
1

> <PUBCHEM_COORDINATE_TYPE>
1
5
255

> <PUBCHEM_BONDANNOTATIONS>
1  2  8
1  6  8
2  7  8
5  6  8
5  7  8

$$$$

