70703
  -OEChem-07051213083D

 19 18  0     0  0  0  0  0  0999 V2000
   -3.2800    0.7734    0.0346 O   0  0  0  0  0  0  0  0  0  0  0  0
   -2.3056   -1.2775   -0.0226 O   0  0  0  0  0  0  0  0  0  0  0  0
    2.7364   -0.4962    0.0259 N   0  0  0  0  0  0  0  0  0  0  0  0
    0.2951   -0.2732    0.0228 C   0  0  0  0  0  0  0  0  0  0  0  0
    1.6361    0.4597   -0.0331 C   0  0  0  0  0  0  0  0  0  0  0  0
   -0.8938    0.6814   -0.0322 C   0  0  0  0  0  0  0  0  0  0  0  0
   -2.2088   -0.0569    0.0014 C   0  0  0  0  0  0  0  0  0  0  0  0
    4.0206    0.1893    0.0031 C   0  0  0  0  0  0  0  0  0  0  0  0
    0.2395   -0.8710    0.9423 H   0  0  0  0  0  0  0  0  0  0  0  0
    0.2308   -0.9824   -0.8132 H   0  0  0  0  0  0  0  0  0  0  0  0
    1.6920    1.0469   -0.9579 H   0  0  0  0  0  0  0  0  0  0  0  0
    1.6975    1.1557    0.8123 H   0  0  0  0  0  0  0  0  0  0  0  0
   -0.8589    1.2701   -0.9552 H   0  0  0  0  0  0  0  0  0  0  0  0
   -0.8615    1.3615    0.8262 H   0  0  0  0  0  0  0  0  0  0  0  0
    2.6786   -1.1344   -0.7672 H   0  0  0  0  0  0  0  0  0  0  0  0
    4.1518    0.7674   -0.9174 H   0  0  0  0  0  0  0  0  0  0  0  0
    4.8279   -0.5479    0.0548 H   0  0  0  0  0  0  0  0  0  0  0  0
    4.1299    0.8566    0.8642 H   0  0  0  0  0  0  0  0  0  0  0  0
   -4.1270    0.2786    0.0442 H   0  0  0  0  0  0  0  0  0  0  0  0
  1  7  1  0  0  0  0
  1 19  1  0  0  0  0
  2  7  2  0  0  0  0
  3  5  1  0  0  0  0
  3  8  1  0  0  0  0
  3 15  1  0  0  0  0
  4  5  1  0  0  0  0
  4  6  1  0  0  0  0
  4  9  1  0  0  0  0
  4 10  1  0  0  0  0
  5 11  1  0  0  0  0
  5 12  1  0  0  0  0
  6  7  1  0  0  0  0
  6 13  1  0  0  0  0
  6 14  1  0  0  0  0
  8 16  1  0  0  0  0
  8 17  1  0  0  0  0
  8 18  1  0  0  0  0
M  END
> <PUBCHEM_COMPOUND_CID>
70703

> <PUBCHEM_CONFORMER_RMSD>
0.6

> <PUBCHEM_CONFORMER_DIVERSEORDER>
1
25
17
7
6
3
16
22
8
11
15
2
20
10
4
24
23
13
14
5
21
12
19
18
9

> <PUBCHEM_MMFF94_PARTIAL_CHARGES>
9
1 -0.65
15 0.36
19 0.5
2 -0.57
3 -0.9
5 0.27
6 0.06
7 0.66
8 0.27

> <PUBCHEM_EFFECTIVE_ROTOR_COUNT>
4

> <PUBCHEM_PHARMACOPHORE_FEATURES>
5
1 1 acceptor
1 2 acceptor
1 3 cation
1 3 donor
3 1 2 7 anion

> <PUBCHEM_HEAVY_ATOM_COUNT>
8

> <PUBCHEM_ATOM_DEF_STEREO_COUNT>
0

> <PUBCHEM_ATOM_UDEF_STEREO_COUNT>
0

> <PUBCHEM_BOND_DEF_STEREO_COUNT>
0

> <PUBCHEM_BOND_UDEF_STEREO_COUNT>
0

> <PUBCHEM_ISOTOPIC_ATOM_COUNT>
0

> <PUBCHEM_COMPONENT_COUNT>
1

> <PUBCHEM_CACTVS_TAUTO_COUNT>
1

> <PUBCHEM_CONFORMER_ID>
0001142F00000001

> <PUBCHEM_MMFF94_ENERGY>
1.1003

> <PUBCHEM_FEATURE_SELFOVERLAP>
25.43

> <PUBCHEM_SHAPE_FINGERPRINT>
11062470 55 18409448098330093896
12932764 1 17346329188683973260
14325111 11 18410575080705754214
29004967 10 16877937235203820570
3248919 1 17095512994144142516
5460574 1 9079115561882929828

> <PUBCHEM_SHAPE_MULTIPOLES>
147.92
6.38
0.94
0.58
3.37
0.11
0
-0.16
-0.05
-0.49
0
0.04
-0.01
-0.02

> <PUBCHEM_SHAPE_SELFOVERLAP>
265.356

> <PUBCHEM_SHAPE_VOLUME>
95.9

> <PUBCHEM_COORDINATE_TYPE>
2
5
10

$$$$

