17395826
  -OEChem-06241222522D

 50 53  0     0  0  0  0  0  0999 V2000
    5.4145    5.5150    0.0000 F   0  0  0  0  0  0  0  0  0  0  0  0
    4.6783   -5.3197    0.0000 O   0  0  0  0  0  0  0  0  0  0  0  0
    6.6353   -3.2978    0.0000 O   0  0  0  0  0  0  0  0  0  0  0  0
    6.2619   -4.5150    0.0000 O   0  0  0  0  0  0  0  0  0  0  0  0
    6.2809    0.0150    0.0000 N   0  0  0  0  0  0  0  0  0  0  0  0
    4.6783   -3.7102    0.0000 N   0  0  0  0  0  0  0  0  0  0  0  0
    5.6917   -0.7930    0.0000 C   0  0  0  0  0  0  0  0  0  0  0  0
    5.9735    0.9666    0.0000 C   0  0  0  0  0  0  0  0  0  0  0  0
    6.2781   -1.6030    0.0000 C   0  0  0  0  0  0  0  0  0  0  0  0
    7.2314   -0.2956    0.0000 C   0  0  0  0  0  0  0  0  0  0  0  0
    7.2297   -1.2956    0.0000 C   0  0  0  0  0  0  0  0  0  0  0  0
    6.6440    1.7086    0.0000 C   0  0  0  0  0  0  0  0  0  0  0  0
    5.9674   -2.5535    0.0000 C   0  0  0  0  0  0  0  0  0  0  0  0
    4.9889   -2.7597    0.0000 C   0  0  0  0  0  0  0  0  0  0  0  0
    4.6917   -0.7912    0.0000 C   0  0  0  0  0  0  0  0  0  0  0  0
    8.0414    0.2908    0.0000 C   0  0  0  0  0  0  0  0  0  0  0  0
    6.3366    2.6602    0.0000 C   0  0  0  0  0  0  0  0  0  0  0  0
    3.7320   -4.0150    0.0000 C   0  0  0  0  0  0  0  0  0  0  0  0
    3.7320   -5.0150    0.0000 C   0  0  0  0  0  0  0  0  0  0  0  0
    5.2619   -4.5150    0.0000 C   0  0  0  0  0  0  0  0  0  0  0  0
    7.0070    3.4022    0.0000 C   0  0  0  0  0  0  0  0  0  0  0  0
    5.3588    2.8698    0.0000 C   0  0  0  0  0  0  0  0  0  0  0  0
    2.8660   -3.5150    0.0000 C   0  0  0  0  0  0  0  0  0  0  0  0
    2.8660   -5.5150    0.0000 C   0  0  0  0  0  0  0  0  0  0  0  0
    2.0000   -4.0150    0.0000 C   0  0  0  0  0  0  0  0  0  0  0  0
    6.6996    4.3538    0.0000 C   0  0  0  0  0  0  0  0  0  0  0  0
    5.0514    3.8214    0.0000 C   0  0  0  0  0  0  0  0  0  0  0  0
    2.0000   -5.0150    0.0000 C   0  0  0  0  0  0  0  0  0  0  0  0
    5.7218    4.5634    0.0000 C   0  0  0  0  0  0  0  0  0  0  0  0
    5.5927    1.4559    0.0000 H   0  0  0  0  0  0  0  0  0  0  0  0
    5.4256    0.6765    0.0000 H   0  0  0  0  0  0  0  0  0  0  0  0
    7.7306   -1.6609    0.0000 H   0  0  0  0  0  0  0  0  0  0  0  0
    7.0248    1.2194    0.0000 H   0  0  0  0  0  0  0  0  0  0  0  0
    7.1919    1.9987    0.0000 H   0  0  0  0  0  0  0  0  0  0  0  0
    4.9684   -2.1401    0.0000 H   0  0  0  0  0  0  0  0  0  0  0  0
    4.3751   -2.6724    0.0000 H   0  0  0  0  0  0  0  0  0  0  0  0
    4.6928   -0.1712    0.0000 H   0  0  0  0  0  0  0  0  0  0  0  0
    4.0717   -0.7902    0.0000 H   0  0  0  0  0  0  0  0  0  0  0  0
    4.6906   -1.4112    0.0000 H   0  0  0  0  0  0  0  0  0  0  0  0
    8.4050   -0.2115    0.0000 H   0  0  0  0  0  0  0  0  0  0  0  0
    8.5437    0.6543    0.0000 H   0  0  0  0  0  0  0  0  0  0  0  0
    7.6779    0.7930    0.0000 H   0  0  0  0  0  0  0  0  0  0  0  0
    7.6132    3.2722    0.0000 H   0  0  0  0  0  0  0  0  0  0  0  0
    4.9431    2.4098    0.0000 H   0  0  0  0  0  0  0  0  0  0  0  0
    2.8660   -2.8950    0.0000 H   0  0  0  0  0  0  0  0  0  0  0  0
    2.8660   -6.1350    0.0000 H   0  0  0  0  0  0  0  0  0  0  0  0
    1.4631   -3.7050    0.0000 H   0  0  0  0  0  0  0  0  0  0  0  0
    7.1153    4.8138    0.0000 H   0  0  0  0  0  0  0  0  0  0  0  0
    4.4452    3.9514    0.0000 H   0  0  0  0  0  0  0  0  0  0  0  0
    1.4631   -5.3250    0.0000 H   0  0  0  0  0  0  0  0  0  0  0  0
  1 29  1  0  0  0  0
  2 19  1  0  0  0  0
  2 20  1  0  0  0  0
  3 13  2  0  0  0  0
  4 20  2  0  0  0  0
  5  7  1  0  0  0  0
  5  8  1  0  0  0  0
  5 10  1  0  0  0  0
  6 14  1  0  0  0  0
  6 18  1  0  0  0  0
  6 20  1  0  0  0  0
  7  9  2  0  0  0  0
  7 15  1  0  0  0  0
  8 12  1  0  0  0  0
  8 30  1  0  0  0  0
  8 31  1  0  0  0  0
  9 11  1  0  0  0  0
  9 13  1  0  0  0  0
 10 11  2  0  0  0  0
 10 16  1  0  0  0  0
 11 32  1  0  0  0  0
 12 17  1  0  0  0  0
 12 33  1  0  0  0  0
 12 34  1  0  0  0  0
 13 14  1  0  0  0  0
 14 35  1  0  0  0  0
 14 36  1  0  0  0  0
 15 37  1  0  0  0  0
 15 38  1  0  0  0  0
 15 39  1  0  0  0  0
 16 40  1  0  0  0  0
 16 41  1  0  0  0  0
 16 42  1  0  0  0  0
 17 21  2  0  0  0  0
 17 22  1  0  0  0  0
 18 19  1  0  0  0  0
 18 23  2  0  0  0  0
 19 24  2  0  0  0  0
 21 26  1  0  0  0  0
 21 43  1  0  0  0  0
 22 27  2  0  0  0  0
 22 44  1  0  0  0  0
 23 25  1  0  0  0  0
 23 45  1  0  0  0  0
 24 28  1  0  0  0  0
 24 46  1  0  0  0  0
 25 28  2  0  0  0  0
 25 47  1  0  0  0  0
 26 29  2  0  0  0  0
 26 48  1  0  0  0  0
 27 29  1  0  0  0  0
 27 49  1  0  0  0  0
 28 50  1  0  0  0  0
M  END
> <PUBCHEM_COMPOUND_CID>
17395826

> <PUBCHEM_COMPOUND_CANONICALIZED>
1

> <PUBCHEM_CACTVS_COMPLEXITY>
607

> <PUBCHEM_CACTVS_HBOND_ACCEPTOR>
4

> <PUBCHEM_CACTVS_HBOND_DONOR>
0

> <PUBCHEM_CACTVS_ROTATABLE_BOND>
6

> <PUBCHEM_CACTVS_SUBSKEYS>
AAADceB7MQAAAAAAAAAAAAAAAAAAAWLAAAAwYAAAAAAAAFgB0AAAHwAAAAAADAzBngwyzpMMFACoA6RyXACCiCAlIiAI2CG/bNgOJvrEtbuNM6hkxhHY6cecwIAOAAAAAAAAEAAAAAAAAAAgAAAAAAAAAA==

> <PUBCHEM_IUPAC_OPENEYE_NAME>
3-[2-[1-[2-(4-fluorophenyl)ethyl]-2,5-dimethyl-pyrrol-3-yl]-2-oxo-ethyl]-1,3-benzoxazol-2-one

> <PUBCHEM_IUPAC_CAS_NAME>
3-[2-[1-[2-(4-fluorophenyl)ethyl]-2,5-dimethyl-3-pyrrolyl]-2-oxoethyl]-1,3-benzoxazol-2-one

> <PUBCHEM_IUPAC_NAME>
3-[2-[1-[2-(4-fluorophenyl)ethyl]-2,5-dimethylpyrrol-3-yl]-2-oxoethyl]-1,3-benzoxazol-2-one

> <PUBCHEM_IUPAC_SYSTEMATIC_NAME>
3-[2-[1-[2-(4-fluorophenyl)ethyl]-2,5-dimethyl-pyrrol-3-yl]-2-oxidanylidene-ethyl]-1,3-benzoxazol-2-one

> <PUBCHEM_IUPAC_TRADITIONAL_NAME>
3-[2-[1-[2-(4-fluorophenyl)ethyl]-2,5-dimethyl-pyrrol-3-yl]-2-keto-ethyl]-1,3-benzoxazol-2-one

> <PUBCHEM_IUPAC_INCHI>
InChI=1S/C23H21FN2O3/c1-15-13-19(16(2)25(15)12-11-17-7-9-18(24)10-8-17)21(27)14-26-20-5-3-4-6-22(20)29-23(26)28/h3-10,13H,11-12,14H2,1-2H3

> <PUBCHEM_IUPAC_INCHIKEY>
SWIUDSGJWQZJSA-UHFFFAOYSA-N

> <PUBCHEM_XLOGP3_AA>
4.3

> <PUBCHEM_EXACT_MASS>
392.153621

> <PUBCHEM_MOLECULAR_FORMULA>
C23H21FN2O3

> <PUBCHEM_MOLECULAR_WEIGHT>
392.422843

> <PUBCHEM_OPENEYE_CAN_SMILES>
CC1=CC(=C(N1CCC2=CC=C(C=C2)F)C)C(=O)CN3C4=CC=CC=C4OC3=O

> <PUBCHEM_OPENEYE_ISO_SMILES>
CC1=CC(=C(N1CCC2=CC=C(C=C2)F)C)C(=O)CN3C4=CC=CC=C4OC3=O

> <PUBCHEM_CACTVS_TPSA>
51.5

> <PUBCHEM_MONOISOTOPIC_WEIGHT>
392.153621

> <PUBCHEM_TOTAL_CHARGE>
0

> <PUBCHEM_HEAVY_ATOM_COUNT>
29

> <PUBCHEM_ATOM_DEF_STEREO_COUNT>
0

> <PUBCHEM_ATOM_UDEF_STEREO_COUNT>
0

> <PUBCHEM_BOND_DEF_STEREO_COUNT>
0

> <PUBCHEM_BOND_UDEF_STEREO_COUNT>
0

> <PUBCHEM_ISOTOPIC_ATOM_COUNT>
0

> <PUBCHEM_COMPONENT_COUNT>
1

> <PUBCHEM_CACTVS_TAUTO_COUNT>
2

> <PUBCHEM_COORDINATE_TYPE>
1
5
255

> <PUBCHEM_BONDANNOTATIONS>
10  11  8
17  21  8
17  22  8
18  19  8
18  23  8
19  24  8
2  19  8
2  20  8
21  26  8
22  27  8
23  25  8
24  28  8
25  28  8
26  29  8
27  29  8
5  10  8
5  7  8
6  18  8
6  20  8
7  9  8
9  11  8

$$$$

