9572
  -OEChem-06261203492D

 30 31  0     0  0  0  0  0  0999 V2000
    3.3846    6.1481    0.0000 Cl  0  0  0  0  0  0  0  0  0  0  0  0
    1.1311    1.9984    0.0000 O   0  0  0  0  0  0  0  0  0  0  0  0
    4.6358    2.9110    0.0000 N   0  0  0  0  0  0  0  0  0  0  0  0
    7.1632    1.7868    0.0000 N   0  0  0  0  0  0  0  0  0  0  0  0
    5.1358    1.3721    0.0000 C   0  0  0  0  0  0  0  0  0  0  0  0
    4.1358    1.3721    0.0000 C   0  0  0  0  0  0  0  0  0  0  0  0
    5.4449    2.3232    0.0000 C   0  0  0  0  0  0  0  0  0  0  0  0
    3.8268    2.3232    0.0000 C   0  0  0  0  0  0  0  0  0  0  0  0
    6.4603    2.5554    0.0000 C   0  0  0  0  0  0  0  0  0  0  0  0
    5.8208    0.5874    0.0000 C   0  0  0  0  0  0  0  0  0  0  0  0
    3.4509    0.5874    0.0000 C   0  0  0  0  0  0  0  0  0  0  0  0
    2.8114    2.5554    0.0000 C   0  0  0  0  0  0  0  0  0  0  0  0
    6.8413    0.7961    0.0000 C   0  0  0  0  0  0  0  0  0  0  0  0
    2.1085    1.7868    0.0000 C   0  0  0  0  0  0  0  0  0  0  0  0
    2.4304    0.7961    0.0000 C   0  0  0  0  0  0  0  0  0  0  0  0
    6.7583    3.5100    0.0000 C   0  0  0  0  0  0  0  0  0  0  0  0
    0.4591    1.2579    0.0000 C   0  0  0  0  0  0  0  0  0  0  0  0
    5.6224    0.0000    0.0000 H   0  0  0  0  0  0  0  0  0  0  0  0
    3.6493    0.0000    0.0000 H   0  0  0  0  0  0  0  0  0  0  0  0
    2.6267    3.1473    0.0000 H   0  0  0  0  0  0  0  0  0  0  0  0
    7.7691    1.9180    0.0000 H   0  0  0  0  0  0  0  0  0  0  0  0
    7.2544    0.3338    0.0000 H   0  0  0  0  0  0  0  0  0  0  0  0
    2.0173    0.3338    0.0000 H   0  0  0  0  0  0  0  0  0  0  0  0
    7.3501    3.3252    0.0000 H   0  0  0  0  0  0  0  0  0  0  0  0
    6.9430    4.1018    0.0000 H   0  0  0  0  0  0  0  0  0  0  0  0
    6.1664    3.6948    0.0000 H   0  0  0  0  0  0  0  0  0  0  0  0
    0.0000    1.6745    0.0000 H   0  0  0  0  0  0  0  0  0  0  0  0
    0.0425    0.7987    0.0000 H   0  0  0  0  0  0  0  0  0  0  0  0
    0.9183    0.8412    0.0000 H   0  0  0  0  0  0  0  0  0  0  0  0
    4.3846    6.1481    0.0000 H   0  0  0  0  0  0  0  0  0  0  0  0
  1 30  1  0  0  0  0
  2 14  1  0  0  0  0
  2 17  1  0  0  0  0
  3  7  1  0  0  0  0
  3  8  2  0  0  0  0
  4  9  1  0  0  0  0
  4 13  1  0  0  0  0
  4 21  1  0  0  0  0
  5  6  2  0  0  0  0
  5  7  1  0  0  0  0
  5 10  1  0  0  0  0
  6  8  1  0  0  0  0
  6 11  1  0  0  0  0
  7  9  2  0  0  0  0
  8 12  1  0  0  0  0
  9 16  1  0  0  0  0
 10 13  2  0  0  0  0
 10 18  1  0  0  0  0
 11 15  2  0  0  0  0
 11 19  1  0  0  0  0
 12 14  2  0  0  0  0
 12 20  1  0  0  0  0
 13 22  1  0  0  0  0
 14 15  1  0  0  0  0
 15 23  1  0  0  0  0
 16 24  1  0  0  0  0
 16 25  1  0  0  0  0
 16 26  1  0  0  0  0
 17 27  1  0  0  0  0
 17 28  1  0  0  0  0
 17 29  1  0  0  0  0
M  END
> <PUBCHEM_COMPOUND_CID>
9572

> <PUBCHEM_COMPOUND_CANONICALIZED>
1

> <PUBCHEM_CACTVS_COMPLEXITY>
258

> <PUBCHEM_CACTVS_HBOND_ACCEPTOR>
2

> <PUBCHEM_CACTVS_HBOND_DONOR>
2

> <PUBCHEM_CACTVS_ROTATABLE_BOND>
1

> <PUBCHEM_CACTVS_SUBSKEYS>
AAADccBzIAAEAAAAAAAAAAAAAAAAAWAAAAA8QAAAAAAAAFgBwAAAHgAQAAAADAzBngY+xvLJlACgAzRnRACCiCQxMiAI2aA+fJgMZuLEsZuUMChm0BnI6AeQ0PMOoAAAAgACAABAAAAEAAQAAAAAAAAAAA==

> <PUBCHEM_IUPAC_OPENEYE_NAME>
7-methoxy-1-methyl-2H-pyrido[3,4-b]indole hydrochloride

> <PUBCHEM_IUPAC_CAS_NAME>
7-methoxy-1-methyl-2H-pyrido[3,4-b]indole hydrochloride

> <PUBCHEM_IUPAC_NAME>
7-methoxy-1-methyl-2H-pyrido[3,4-b]indole hydrochloride

> <PUBCHEM_IUPAC_SYSTEMATIC_NAME>
7-methoxy-1-methyl-2H-pyrido[3,4-b]indole hydrochloride

> <PUBCHEM_IUPAC_TRADITIONAL_NAME>
7-methoxy-1-methyl-2H-$b-carboline hydrochloride

> <PUBCHEM_IUPAC_INCHI>
InChI=1S/C13H12N2O.ClH/c1-8-13-11(5-6-14-8)10-4-3-9(16-2)7-12(10)15-13;/h3-7,14H,1-2H3;1H

> <PUBCHEM_IUPAC_INCHIKEY>
NHAXRSBLNREUAB-UHFFFAOYSA-N

> <PUBCHEM_XLOGP3_AA>
3.065

> <PUBCHEM_EXACT_MASS>
248.071641

> <PUBCHEM_MOLECULAR_FORMULA>
C13H13ClN2O

> <PUBCHEM_MOLECULAR_WEIGHT>
248.70812

> <PUBCHEM_OPENEYE_CAN_SMILES>
CC1=C2C(=C3C=CC(=CC3=N2)OC)C=CN1.Cl

> <PUBCHEM_OPENEYE_ISO_SMILES>
CC1=C2C(=C3C=CC(=CC3=N2)OC)C=CN1.Cl

> <PUBCHEM_CACTVS_TPSA>
37.9

> <PUBCHEM_MONOISOTOPIC_WEIGHT>
248.071641

> <PUBCHEM_TOTAL_CHARGE>
0

> <PUBCHEM_HEAVY_ATOM_COUNT>
17

> <PUBCHEM_ATOM_DEF_STEREO_COUNT>
0

> <PUBCHEM_ATOM_UDEF_STEREO_COUNT>
0

> <PUBCHEM_BOND_DEF_STEREO_COUNT>
0

> <PUBCHEM_BOND_UDEF_STEREO_COUNT>
0

> <PUBCHEM_ISOTOPIC_ATOM_COUNT>
0

> <PUBCHEM_COMPONENT_COUNT>
2

> <PUBCHEM_CACTVS_TAUTO_COUNT>
2

> <PUBCHEM_COORDINATE_TYPE>
1
5
255

> <PUBCHEM_BONDANNOTATIONS>
10  13  8
11  15  8
12  14  8
14  15  8
3  7  8
3  8  8
4  13  8
4  9  8
5  10  8
5  6  8
6  11  8
6  8  8
7  9  8
8  12  8

$$$$

