443350
  -OEChem-07051213023D

 71 74  0     1  0  0  0  0  0999 V2000
   -3.8883    0.1759   -2.4573 O   0  0  0  0  0  0  0  0  0  0  0  0
   -5.8769    0.0458   -0.1864 O   0  0  0  0  0  0  0  0  0  0  0  0
   -1.4298   -2.3704    0.9687 O   0  0  0  0  0  0  0  0  0  0  0  0
   -0.1911   -1.2571   -0.6587 O   0  0  0  0  0  0  0  0  0  0  0  0
    0.7973    0.8304   -0.3284 O   0  0  0  0  0  0  0  0  0  0  0  0
    2.2014   -2.5011    0.1997 O   0  0  0  0  0  0  0  0  0  0  0  0
   -5.9348    1.9321    1.1461 O   0  0  0  0  0  0  0  0  0  0  0  0
    4.5617   -0.8113   -0.3043 O   0  0  0  0  0  0  0  0  0  0  0  0
    4.1463    1.8480    0.7498 O   0  0  0  0  0  0  0  0  0  0  0  0
    0.2475    3.4403    0.3366 O   0  0  0  0  0  0  0  0  0  0  0  0
    1.2618   -3.2916   -1.7572 O   0  0  0  0  0  0  0  0  0  0  0  0
    4.8046   -2.3873    1.3673 O   0  0  0  0  0  0  0  0  0  0  0  0
    5.6771    1.6373   -0.9675 O   0  0  0  0  0  0  0  0  0  0  0  0
    0.6059    5.5747   -0.4717 O   0  0  0  0  0  0  0  0  0  0  0  0
   -2.6857   -0.0084   -1.6984 C   0  0  1  0  0  0  0  0  0  0  0  0
   -3.8275    0.7631   -1.1506 C   0  0  2  0  0  0  0  0  0  0  0  0
   -2.5694   -1.3106   -0.9477 C   0  0  2  0  0  0  0  0  0  0  0  0
   -3.9477   -1.4743   -0.2422 C   0  0  2  0  0  0  0  0  0  0  0  0
   -4.4665   -0.0243   -0.0479 C   0  0  2  0  0  0  0  0  0  0  0  0
   -1.4203   -1.2588    0.0691 C   0  0  1  0  0  0  0  0  0  0  0  0
   -3.8458   -2.2770    1.0274 C   0  0  0  0  0  0  0  0  0  0  0  0
   -2.6532   -2.6756    1.4937 C   0  0  0  0  0  0  0  0  0  0  0  0
   -5.1206   -2.6890    1.7009 C   0  0  0  0  0  0  0  0  0  0  0  0
    0.8262   -0.5451    0.0452 C   0  0  2  0  0  0  0  0  0  0  0  0
   -6.4910    1.0801    0.4665 C   0  0  0  0  0  0  0  0  0  0  0  0
    2.1737   -1.1702   -0.3155 C   0  0  1  0  0  0  0  0  0  0  0  0
    3.3340   -0.3718    0.2788 C   0  0  2  0  0  0  0  0  0  0  0  0
    3.1823    1.1221   -0.0084 C   0  0  1  0  0  0  0  0  0  0  0  0
    1.7784    1.6064    0.3618 C   0  0  1  0  0  0  0  0  0  0  0  0
   -7.9701    1.0281    0.2311 C   0  0  0  0  0  0  0  0  0  0  0  0
    1.5647    3.0666   -0.0242 C   0  0  0  0  0  0  0  0  0  0  0  0
    1.7119   -3.4660   -0.6328 C   0  0  0  0  0  0  0  0  0  0  0  0
    5.1917   -1.8305    0.3489 C   0  0  0  0  0  0  0  0  0  0  0  0
    5.3571    2.0332    0.1452 C   0  0  0  0  0  0  0  0  0  0  0  0
    1.8042   -4.8040    0.0360 C   0  0  0  0  0  0  0  0  0  0  0  0
    6.4571   -2.1845   -0.3720 C   0  0  0  0  0  0  0  0  0  0  0  0
   -0.1087    4.7331    0.0557 C   0  0  0  0  0  0  0  0  0  0  0  0
    6.2636    2.8077    1.0533 C   0  0  0  0  0  0  0  0  0  0  0  0
   -1.5211    4.9841    0.4895 C   0  0  0  0  0  0  0  0  0  0  0  0
   -1.7797    0.4710   -2.0279 H   0  0  0  0  0  0  0  0  0  0  0  0
   -3.7799    1.8329   -1.0381 H   0  0  0  0  0  0  0  0  0  0  0  0
   -2.4074   -2.1368   -1.6513 H   0  0  0  0  0  0  0  0  0  0  0  0
   -4.6223   -2.0044   -0.9303 H   0  0  0  0  0  0  0  0  0  0  0  0
   -4.1329    0.3596    0.9254 H   0  0  0  0  0  0  0  0  0  0  0  0
   -1.5058   -0.3345    0.6603 H   0  0  0  0  0  0  0  0  0  0  0  0
   -2.5338   -3.3256    2.3504 H   0  0  0  0  0  0  0  0  0  0  0  0
   -5.7593   -3.2395    1.0028 H   0  0  0  0  0  0  0  0  0  0  0  0
   -4.9398   -3.3354    2.5663 H   0  0  0  0  0  0  0  0  0  0  0  0
   -5.6679   -1.8091    2.0534 H   0  0  0  0  0  0  0  0  0  0  0  0
    0.6658   -0.6415    1.1289 H   0  0  0  0  0  0  0  0  0  0  0  0
    2.3040   -1.1857   -1.4069 H   0  0  0  0  0  0  0  0  0  0  0  0
    3.3724   -0.5091    1.3685 H   0  0  0  0  0  0  0  0  0  0  0  0
    3.3292    1.2936   -1.0846 H   0  0  0  0  0  0  0  0  0  0  0  0
    1.6031    1.5123    1.4422 H   0  0  0  0  0  0  0  0  0  0  0  0
   -8.1786    1.1274   -0.8371 H   0  0  0  0  0  0  0  0  0  0  0  0
   -8.4512    1.8564    0.7590 H   0  0  0  0  0  0  0  0  0  0  0  0
   -8.3732    0.0883    0.6167 H   0  0  0  0  0  0  0  0  0  0  0  0
    2.2846    3.7120    0.4917 H   0  0  0  0  0  0  0  0  0  0  0  0
    1.6788    3.1880   -1.1084 H   0  0  0  0  0  0  0  0  0  0  0  0
    2.8476   -5.0304    0.2691 H   0  0  0  0  0  0  0  0  0  0  0  0
    1.4229   -5.5746   -0.6400 H   0  0  0  0  0  0  0  0  0  0  0  0
    1.1968   -4.8054    0.9446 H   0  0  0  0  0  0  0  0  0  0  0  0
    7.1245   -1.3193   -0.3951 H   0  0  0  0  0  0  0  0  0  0  0  0
    6.9603   -2.9989    0.1570 H   0  0  0  0  0  0  0  0  0  0  0  0
    6.2241   -2.5190   -1.3860 H   0  0  0  0  0  0  0  0  0  0  0  0
    6.4263    2.2486    1.9781 H   0  0  0  0  0  0  0  0  0  0  0  0
    5.8267    3.7865    1.2660 H   0  0  0  0  0  0  0  0  0  0  0  0
    7.2291    2.9563    0.5613 H   0  0  0  0  0  0  0  0  0  0  0  0
   -1.6062    4.8456    1.5701 H   0  0  0  0  0  0  0  0  0  0  0  0
   -1.7985    6.0136    0.2458 H   0  0  0  0  0  0  0  0  0  0  0  0
   -2.1965    4.3071   -0.0398 H   0  0  0  0  0  0  0  0  0  0  0  0
  1 15  1  0  0  0  0
  1 16  1  0  0  0  0
  2 19  1  0  0  0  0
  2 25  1  0  0  0  0
  3 20  1  0  0  0  0
  3 22  1  0  0  0  0
  4 20  1  0  0  0  0
  4 24  1  0  0  0  0
  5 24  1  0  0  0  0
  5 29  1  0  0  0  0
  6 26  1  0  0  0  0
  6 32  1  0  0  0  0
  7 25  2  0  0  0  0
  8 27  1  0  0  0  0
  8 33  1  0  0  0  0
  9 28  1  0  0  0  0
  9 34  1  0  0  0  0
 10 31  1  0  0  0  0
 10 37  1  0  0  0  0
 11 32  2  0  0  0  0
 12 33  2  0  0  0  0
 13 34  2  0  0  0  0
 14 37  2  0  0  0  0
 15 16  1  0  0  0  0
 15 17  1  0  0  0  0
 15 40  1  0  0  0  0
 16 19  1  0  0  0  0
 16 41  1  0  0  0  0
 17 18  1  0  0  0  0
 17 20  1  0  0  0  0
 17 42  1  0  0  0  0
 18 19  1  0  0  0  0
 18 21  1  0  0  0  0
 18 43  1  0  0  0  0
 19 44  1  0  0  0  0
 20 45  1  0  0  0  0
 21 22  2  0  0  0  0
 21 23  1  0  0  0  0
 22 46  1  0  0  0  0
 23 47  1  0  0  0  0
 23 48  1  0  0  0  0
 23 49  1  0  0  0  0
 24 26  1  0  0  0  0
 24 50  1  0  0  0  0
 25 30  1  0  0  0  0
 26 27  1  0  0  0  0
 26 51  1  0  0  0  0
 27 28  1  0  0  0  0
 27 52  1  0  0  0  0
 28 29  1  0  0  0  0
 28 53  1  0  0  0  0
 29 31  1  0  0  0  0
 29 54  1  0  0  0  0
 30 55  1  0  0  0  0
 30 56  1  0  0  0  0
 30 57  1  0  0  0  0
 31 58  1  0  0  0  0
 31 59  1  0  0  0  0
 32 35  1  0  0  0  0
 33 36  1  0  0  0  0
 34 38  1  0  0  0  0
 35 60  1  0  0  0  0
 35 61  1  0  0  0  0
 35 62  1  0  0  0  0
 36 63  1  0  0  0  0
 36 64  1  0  0  0  0
 36 65  1  0  0  0  0
 37 39  1  0  0  0  0
 38 66  1  0  0  0  0
 38 67  1  0  0  0  0
 38 68  1  0  0  0  0
 39 69  1  0  0  0  0
 39 70  1  0  0  0  0
 39 71  1  0  0  0  0
M  END
> <PUBCHEM_COMPOUND_CID>
443350

> <PUBCHEM_CONFORMER_RMSD>
1.4

> <PUBCHEM_CONFORMER_DIVERSEORDER>
1
11
13
20
22
10
14
5
16
19
7
4
21
9
8
18
12
6
2
15
17
3

> <PUBCHEM_MMFF94_PARTIAL_CHARGES>
42
1 -0.3
10 -0.43
11 -0.57
12 -0.57
13 -0.57
14 -0.57
15 -0.05
16 -0.05
17 0.09
18 0.14
19 0.38
2 -0.43
20 0.56
21 -0.28
22 -0.07
23 0.14
24 0.56
25 0.66
26 0.28
27 0.28
28 0.28
29 0.28
3 -0.36
30 0.06
31 0.28
32 0.66
33 0.66
34 0.66
35 0.06
36 0.06
37 0.66
38 0.06
39 0.06
4 -0.56
40 0.1
41 0.1
46 0.15
5 -0.56
6 -0.43
7 -0.57
8 -0.43
9 -0.43

> <PUBCHEM_EFFECTIVE_ROTOR_COUNT>
15

> <PUBCHEM_PHARMACOPHORE_FEATURES>
12
1 1 acceptor
1 11 acceptor
1 12 acceptor
1 13 acceptor
1 14 acceptor
1 3 acceptor
1 4 acceptor
1 5 acceptor
1 7 acceptor
6 1 15 16 17 18 19 rings
6 3 17 18 20 21 22 rings
6 5 24 26 27 28 29 rings

> <PUBCHEM_HEAVY_ATOM_COUNT>
39

> <PUBCHEM_ATOM_DEF_STEREO_COUNT>
11

> <PUBCHEM_ATOM_UDEF_STEREO_COUNT>
0

> <PUBCHEM_BOND_DEF_STEREO_COUNT>
0

> <PUBCHEM_BOND_UDEF_STEREO_COUNT>
0

> <PUBCHEM_ISOTOPIC_ATOM_COUNT>
0

> <PUBCHEM_COMPONENT_COUNT>
1

> <PUBCHEM_CACTVS_TAUTO_COUNT>
1

> <PUBCHEM_CONFORMER_ID>
0006C3D600000001

> <PUBCHEM_MMFF94_ENERGY>
86.7248

> <PUBCHEM_FEATURE_SELFOVERLAP>
61.027

> <PUBCHEM_SHAPE_FINGERPRINT>
10006869 2 18408328791672934260
10439779 11 18265061223486831512
12293681 4 18341048639665445219
12788726 201 18124608727676016378
12925494 130 18338517418645104449
13140716 1 18409163351205423968
14028597 1 17701543032844080370
140371 6 18268988850957186462
14790565 3 17979913809674360732
15064986 96 18041265613595184439
15081414 286 18337389323688096348
15351339 4 17911254024609780601
15483637 11 17977949317128797421
15968369 153 18187093879288995608
16112460 7 18335415794141115176
21033648 29 17897458202554000288
22122407 14 18114173160175390435
22311459 1 18337956817859854894
23558518 356 17906456880567024342
23559900 14 18340210670524566953
3178227 256 18340210790953209858
4073 2 18130504120135430098
4144715 1 18271233924931578155
5104073 3 18272938202008394738
6700243 42 14451860035671374612

> <PUBCHEM_SHAPE_MULTIPOLES>
720.43
15.76
6.45
1.3
6.87
5.34
0.27
1.6
-2.83
-3.64
-0.81
1.13
-0.56
1.25

> <PUBCHEM_SHAPE_SELFOVERLAP>
1509.283

> <PUBCHEM_SHAPE_VOLUME>
400.3

> <PUBCHEM_COORDINATE_TYPE>
2
5
10

$$$$

