11465
  -OEChem-06261205423D

 20 20  0     0  0  0  0  0  0999 V2000
    3.9447   -0.0013    0.0022 Br  0  0  0  0  0  0  0  0  0  0  0  0
   -2.1452    0.0012   -0.0031 N   0  0  0  0  0  0  0  0  0  0  0  0
   -0.7350    0.0007   -0.0021 C   0  0  0  0  0  0  0  0  0  0  0  0
   -0.0383   -1.1886    0.2112 C   0  0  0  0  0  0  0  0  0  0  0  0
   -0.0370    1.1897   -0.2141 C   0  0  0  0  0  0  0  0  0  0  0  0
   -2.8792    1.1722    0.4341 C   0  0  0  0  0  0  0  0  0  0  0  0
   -2.8793   -1.1740   -0.4283 C   0  0  0  0  0  0  0  0  0  0  0  0
    1.3566   -1.1890    0.2125 C   0  0  0  0  0  0  0  0  0  0  0  0
    1.3580    1.1893   -0.2129 C   0  0  0  0  0  0  0  0  0  0  0  0
    2.0548   -0.0002    0.0004 C   0  0  0  0  0  0  0  0  0  0  0  0
   -0.5512   -2.1291    0.3914 H   0  0  0  0  0  0  0  0  0  0  0  0
   -0.5494    2.1303   -0.3950 H   0  0  0  0  0  0  0  0  0  0  0  0
   -2.4296    1.6162    1.3295 H   0  0  0  0  0  0  0  0  0  0  0  0
   -3.9126    0.9168    0.6943 H   0  0  0  0  0  0  0  0  0  0  0  0
   -2.9165    1.9255   -0.3598 H   0  0  0  0  0  0  0  0  0  0  0  0
   -2.9206   -1.9174    0.3747 H   0  0  0  0  0  0  0  0  0  0  0  0
   -2.4280   -1.6297   -1.3169 H   0  0  0  0  0  0  0  0  0  0  0  0
   -3.9113   -0.9197   -0.6952 H   0  0  0  0  0  0  0  0  0  0  0  0
    1.8846   -2.1237    0.3829 H   0  0  0  0  0  0  0  0  0  0  0  0
    1.8871    2.1236   -0.3822 H   0  0  0  0  0  0  0  0  0  0  0  0
  1 10  1  0  0  0  0
  2  3  1  0  0  0  0
  2  6  1  0  0  0  0
  2  7  1  0  0  0  0
  3  4  2  0  0  0  0
  3  5  1  0  0  0  0
  4  8  1  0  0  0  0
  4 11  1  0  0  0  0
  5  9  2  0  0  0  0
  5 12  1  0  0  0  0
  6 13  1  0  0  0  0
  6 14  1  0  0  0  0
  6 15  1  0  0  0  0
  7 16  1  0  0  0  0
  7 17  1  0  0  0  0
  7 18  1  0  0  0  0
  8 10  2  0  0  0  0
  8 19  1  0  0  0  0
  9 10  1  0  0  0  0
  9 20  1  0  0  0  0
M  END
> <PUBCHEM_COMPOUND_CID>
11465

> <PUBCHEM_CONFORMER_RMSD>
0.4

> <PUBCHEM_CONFORMER_DIVERSEORDER>
1
2

> <PUBCHEM_MMFF94_PARTIAL_CHARGES>
14
1 -0.11
10 0.11
11 0.15
12 0.15
19 0.15
2 -0.84
20 0.15
3 0.1
4 -0.15
5 -0.15
6 0.37
7 0.37
8 -0.15
9 -0.15

> <PUBCHEM_EFFECTIVE_ROTOR_COUNT>
1

> <PUBCHEM_PHARMACOPHORE_FEATURES>
3
1 1 hydrophobe
1 2 cation
6 3 4 5 8 9 10 rings

> <PUBCHEM_HEAVY_ATOM_COUNT>
10

> <PUBCHEM_ATOM_DEF_STEREO_COUNT>
0

> <PUBCHEM_ATOM_UDEF_STEREO_COUNT>
0

> <PUBCHEM_BOND_DEF_STEREO_COUNT>
0

> <PUBCHEM_BOND_UDEF_STEREO_COUNT>
0

> <PUBCHEM_ISOTOPIC_ATOM_COUNT>
0

> <PUBCHEM_COMPONENT_COUNT>
1

> <PUBCHEM_CACTVS_TAUTO_COUNT>
1

> <PUBCHEM_CONFORMER_ID>
00002CC900000001

> <PUBCHEM_MMFF94_ENERGY>
38.0003

> <PUBCHEM_FEATURE_SELFOVERLAP>
15.223

> <PUBCHEM_SHAPE_FINGERPRINT>
10219947 1 17846779607179860916
12032990 46 18411694366394882346
12932764 1 17846504754689292725
14128692 85 18334859359747500727
14325111 11 18410292497595891144
14993402 34 18343585110037967070
15775835 57 18410288150899168057
16945 1 18131914862251860614
19026448 4 16805322197750824452
21040471 1 18268708325004613704
23235685 24 18341615927625337256
23380061 330 18408889516331993486
23402655 69 18266757950987523181
23552423 10 18343018887087363967
2748010 2 17981883038966860582
29004967 10 17846210094173617425
5084963 1 18340491071168798153
528886 8 18411704308885158329

> <PUBCHEM_SHAPE_MULTIPOLES>
206.76
5.43
1.46
0.68
1.53
0
0
0
-0.01
-0.48
0
-0.03
0
-0.36

> <PUBCHEM_SHAPE_SELFOVERLAP>
406.223

> <PUBCHEM_SHAPE_VOLUME>
129.2

> <PUBCHEM_COORDINATE_TYPE>
2
5
10

$$$$

