8616
  -OEChem-07051212572D

 33 35  0     0  0  0  0  0  0999 V2000
    7.3424   -1.5372    0.0000 O   0  0  0  0  0  0  0  0  0  0  0  0
    7.6530    1.0228    0.0000 O   0  0  0  0  0  0  0  0  0  0  0  0
    3.7702   -1.7671    0.0000 O   0  0  0  0  0  0  0  0  0  0  0  0
    2.0000   -1.7566    0.0000 O   0  0  0  0  0  0  0  0  0  0  0  0
    8.9260   -0.7324    0.0000 C   0  0  0  0  0  0  0  0  0  0  0  0
    7.9260   -0.7324    0.0000 C   0  0  0  0  0  0  0  0  0  0  0  0
    6.3961   -0.2324    0.0000 C   0  0  0  0  0  0  0  0  0  0  0  0
    7.3424    0.0723    0.0000 C   0  0  0  0  0  0  0  0  0  0  0  0
    6.3961   -1.2324    0.0000 C   0  0  0  0  0  0  0  0  0  0  0  0
    5.5301    0.2676    0.0000 C   0  0  0  0  0  0  0  0  0  0  0  0
    9.4260   -1.5985    0.0000 C   0  0  0  0  0  0  0  0  0  0  0  0
    9.4260    0.1336    0.0000 C   0  0  0  0  0  0  0  0  0  0  0  0
    4.6641   -0.2324    0.0000 C   0  0  0  0  0  0  0  0  0  0  0  0
    5.5301   -1.7324    0.0000 C   0  0  0  0  0  0  0  0  0  0  0  0
    4.6641   -1.2324    0.0000 C   0  0  0  0  0  0  0  0  0  0  0  0
    3.7702    0.3022    0.0000 C   0  0  0  0  0  0  0  0  0  0  0  0
    2.8641   -0.2116    0.0000 C   0  0  0  0  0  0  0  0  0  0  0  0
    2.8641   -1.2533    0.0000 C   0  0  0  0  0  0  0  0  0  0  0  0
    6.9852    1.7671    0.0000 C   0  0  0  0  0  0  0  0  0  0  0  0
    8.6160   -1.2694    0.0000 H   0  0  0  0  0  0  0  0  0  0  0  0
    5.5301    0.8876    0.0000 H   0  0  0  0  0  0  0  0  0  0  0  0
    9.9629   -0.1764    0.0000 H   0  0  0  0  0  0  0  0  0  0  0  0
    9.7360    0.6705    0.0000 H   0  0  0  0  0  0  0  0  0  0  0  0
    8.8890   -1.9085    0.0000 H   0  0  0  0  0  0  0  0  0  0  0  0
    9.7360   -2.1354    0.0000 H   0  0  0  0  0  0  0  0  0  0  0  0
    9.9629   -1.2885    0.0000 H   0  0  0  0  0  0  0  0  0  0  0  0
    8.8890    0.4436    0.0000 H   0  0  0  0  0  0  0  0  0  0  0  0
    5.5301   -2.3524    0.0000 H   0  0  0  0  0  0  0  0  0  0  0  0
    3.7773    0.9222    0.0000 H   0  0  0  0  0  0  0  0  0  0  0  0
    2.3284    0.1004    0.0000 H   0  0  0  0  0  0  0  0  0  0  0  0
    7.4467    2.1812    0.0000 H   0  0  0  0  0  0  0  0  0  0  0  0
    6.5711    2.2286    0.0000 H   0  0  0  0  0  0  0  0  0  0  0  0
    6.5237    1.3530    0.0000 H   0  0  0  0  0  0  0  0  0  0  0  0
  1  6  1  0  0  0  0
  1  9  1  0  0  0  0
  2  8  1  0  0  0  0
  2 19  1  0  0  0  0
  3 15  1  0  0  0  0
  3 18  1  0  0  0  0
  4 18  2  0  0  0  0
  5  6  1  0  0  0  0
  5 11  1  0  0  0  0
  5 12  1  0  0  0  0
  5 20  1  0  0  0  0
  6  8  2  0  0  0  0
  7  8  1  0  0  0  0
  7  9  2  0  0  0  0
  7 10  1  0  0  0  0
  9 14  1  0  0  0  0
 10 13  2  0  0  0  0
 10 21  1  0  0  0  0
 11 24  1  0  0  0  0
 11 25  1  0  0  0  0
 11 26  1  0  0  0  0
 12 22  1  0  0  0  0
 12 23  1  0  0  0  0
 12 27  1  0  0  0  0
 13 15  1  0  0  0  0
 13 16  1  0  0  0  0
 14 15  2  0  0  0  0
 14 28  1  0  0  0  0
 16 17  2  0  0  0  0
 16 29  1  0  0  0  0
 17 18  1  0  0  0  0
 17 30  1  0  0  0  0
 19 31  1  0  0  0  0
 19 32  1  0  0  0  0
 19 33  1  0  0  0  0
M  END
> <PUBCHEM_COMPOUND_CID>
8616

> <PUBCHEM_COMPOUND_CANONICALIZED>
1

> <PUBCHEM_CACTVS_COMPLEXITY>
390

> <PUBCHEM_CACTVS_HBOND_ACCEPTOR>
4

> <PUBCHEM_CACTVS_HBOND_DONOR>
0

> <PUBCHEM_CACTVS_ROTATABLE_BOND>
2

> <PUBCHEM_CACTVS_SUBSKEYS>
AAADccBwOAAAAAAAAAAAAAAAAAAAASAAAAAwQAAAAAAAAEiB8AAAGgAAAAAADQSAmAIyDsAABECIAqDSCAICCAAkIAAIiAFGiMgNJzaENR6CO2Kl4BUKqYeI7PzOIAACCAAIAABAAAQQABAAAAAAAAAAAA==

> <PUBCHEM_IUPAC_OPENEYE_NAME>
2-isopropyl-3-methoxy-furo[3,2-g]chromen-7-one

> <PUBCHEM_IUPAC_CAS_NAME>
3-methoxy-2-propan-2-yl-7-furo[3,2-g][1]benzopyranone

> <PUBCHEM_IUPAC_NAME>
3-methoxy-2-propan-2-ylfuro[3,2-g]chromen-7-one

> <PUBCHEM_IUPAC_SYSTEMATIC_NAME>
3-methoxy-2-propan-2-yl-furo[3,2-g]chromen-7-one

> <PUBCHEM_IUPAC_TRADITIONAL_NAME>
2-isopropyl-3-methoxy-furo[3,2-g]chromen-7-one

> <PUBCHEM_IUPAC_INCHI>
InChI=1S/C15H14O4/c1-8(2)14-15(17-3)10-6-9-4-5-13(16)18-11(9)7-12(10)19-14/h4-8H,1-3H3

> <PUBCHEM_IUPAC_INCHIKEY>
YQBNJPACAUPNLV-UHFFFAOYSA-N

> <PUBCHEM_XLOGP3_AA>
3.4

> <PUBCHEM_EXACT_MASS>
258.089209

> <PUBCHEM_MOLECULAR_FORMULA>
C15H14O4

> <PUBCHEM_MOLECULAR_WEIGHT>
258.26926

> <PUBCHEM_OPENEYE_CAN_SMILES>
CC(C)C1=C(C2=C(O1)C=C3C(=C2)C=CC(=O)O3)OC

> <PUBCHEM_OPENEYE_ISO_SMILES>
CC(C)C1=C(C2=C(O1)C=C3C(=C2)C=CC(=O)O3)OC

> <PUBCHEM_CACTVS_TPSA>
48.7

> <PUBCHEM_MONOISOTOPIC_WEIGHT>
258.089209

> <PUBCHEM_TOTAL_CHARGE>
0

> <PUBCHEM_HEAVY_ATOM_COUNT>
19

> <PUBCHEM_ATOM_DEF_STEREO_COUNT>
0

> <PUBCHEM_ATOM_UDEF_STEREO_COUNT>
0

> <PUBCHEM_BOND_DEF_STEREO_COUNT>
0

> <PUBCHEM_BOND_UDEF_STEREO_COUNT>
0

> <PUBCHEM_ISOTOPIC_ATOM_COUNT>
0

> <PUBCHEM_COMPONENT_COUNT>
1

> <PUBCHEM_CACTVS_TAUTO_COUNT>
1

> <PUBCHEM_COORDINATE_TYPE>
1
5
255

> <PUBCHEM_BONDANNOTATIONS>
1  6  8
1  9  8
10  13  8
13  15  8
13  16  8
14  15  8
16  17  8
17  18  8
3  15  8
3  18  8
6  8  8
7  10  8
7  8  8
7  9  8
9  14  8

$$$$

