441997
  -OEChem-07051212562D

 61 65  0     1  0  0  0  0  0999 V2000
    5.1515   -2.5451    0.0000 O   0  0  0  0  0  0  0  0  0  0  0  0
    3.9031   -2.7137    0.0000 O   0  0  0  0  0  0  0  0  0  0  0  0
    3.4094    1.9001    0.0000 O   0  0  0  0  0  0  0  0  0  0  0  0
    5.6515   -2.6791    0.0000 O   0  0  0  0  0  0  0  0  0  0  0  0
    2.1214   -1.7033    0.0000 O   0  0  0  0  0  0  0  0  0  0  0  0
    2.1666    1.3380    0.0000 O   0  0  0  0  0  0  0  0  0  0  0  0
    5.5242    4.2236    0.0000 O   0  0  0  0  0  0  0  0  0  0  0  0
    2.1712   -2.7337    0.0000 O   0  0  0  0  0  0  0  0  0  0  0  0
    4.7855   -4.1791    0.0000 O   0  0  0  0  0  0  0  0  0  0  0  0
    4.7855   -1.1791    0.0000 C   0  0  1  0  0  0  0  0  0  0  0  0
    5.6515   -1.6791    0.0000 C   0  0  1  0  0  0  0  0  0  0  0  0
    4.7855   -0.1791    0.0000 C   0  0  1  0  0  0  0  0  0  0  0  0
    3.8915    0.3555    0.0000 C   0  0  2  0  0  0  0  0  0  0  0  0
    3.8915   -1.7138    0.0000 C   0  0  2  0  0  0  0  0  0  0  0  0
    6.5175   -1.1791    0.0000 C   0  0  0  0  0  0  0  0  0  0  0  0
    5.6515    0.3209    0.0000 C   0  0  0  0  0  0  0  0  0  0  0  0
    6.1515   -2.5451    0.0000 C   0  0  0  0  0  0  0  0  0  0  0  0
    2.9855   -0.1583    0.0000 C   0  0  1  0  0  0  0  0  0  0  0  0
    6.5175   -0.1791    0.0000 C   0  0  0  0  0  0  0  0  0  0  0  0
    4.7855   -2.1791    0.0000 C   0  0  0  0  0  0  0  0  0  0  0  0
    4.7073    0.9339    0.0000 C   0  0  0  0  0  0  0  0  0  0  0  0
    2.9855   -1.1999    0.0000 C   0  0  0  0  0  0  0  0  0  0  0  0
    3.0894    0.9526    0.0000 C   0  0  0  0  0  0  0  0  0  0  0  0
    4.4093    1.8885    0.0000 C   0  0  1  0  0  0  0  0  0  0  0  0
    2.0000   -0.3282    0.0000 C   0  0  0  0  0  0  0  0  0  0  0  0
    5.0064    2.6907    0.0000 C   0  0  0  0  0  0  0  0  0  0  0  0
    3.0429   -3.2237    0.0000 C   0  0  0  0  0  0  0  0  0  0  0  0
    5.6515   -3.6791    0.0000 C   0  0  0  0  0  0  0  0  0  0  0  0
    6.0063    2.6791    0.0000 C   0  0  0  0  0  0  0  0  0  0  0  0
    4.7084    3.6452    0.0000 C   0  0  0  0  0  0  0  0  0  0  0  0
    3.0545   -4.2236    0.0000 C   0  0  0  0  0  0  0  0  0  0  0  0
    6.5175   -4.1791    0.0000 C   0  0  0  0  0  0  0  0  0  0  0  0
    6.3263    3.6265    0.0000 C   0  0  0  0  0  0  0  0  0  0  0  0
    5.5216   -0.6041    0.0000 H   0  0  0  0  0  0  0  0  0  0  0  0
    3.3576   -2.0289    0.0000 H   0  0  0  0  0  0  0  0  0  0  0  0
    6.7296   -1.7617    0.0000 H   0  0  0  0  0  0  0  0  0  0  0  0
    7.1281   -1.0715    0.0000 H   0  0  0  0  0  0  0  0  0  0  0  0
    6.0500    0.7958    0.0000 H   0  0  0  0  0  0  0  0  0  0  0  0
    5.2530    0.7958    0.0000 H   0  0  0  0  0  0  0  0  0  0  0  0
    6.2592   -3.1557    0.0000 H   0  0  0  0  0  0  0  0  0  0  0  0
    6.7341   -2.3331    0.0000 H   0  0  0  0  0  0  0  0  0  0  0  0
    2.7768    0.4255    0.0000 H   0  0  0  0  0  0  0  0  0  0  0  0
    7.1281   -0.2868    0.0000 H   0  0  0  0  0  0  0  0  0  0  0  0
    6.7296    0.4035    0.0000 H   0  0  0  0  0  0  0  0  0  0  0  0
    4.1749   -2.0714    0.0000 H   0  0  0  0  0  0  0  0  0  0  0  0
    4.5734   -2.7617    0.0000 H   0  0  0  0  0  0  0  0  0  0  0  0
    5.0111    0.3935    0.0000 H   0  0  0  0  0  0  0  0  0  0  0  0
    5.2766    1.1796    0.0000 H   0  0  0  0  0  0  0  0  0  0  0  0
    5.0205    1.7844    0.0000 H   0  0  0  0  0  0  0  0  0  0  0  0
    1.8947    0.2828    0.0000 H   0  0  0  0  0  0  0  0  0  0  0  0
    1.3890   -0.4335    0.0000 H   0  0  0  0  0  0  0  0  0  0  0  0
    2.1053   -0.9391    0.0000 H   0  0  0  0  0  0  0  0  0  0  0  0
    6.3649    2.1733    0.0000 H   0  0  0  0  0  0  0  0  0  0  0  0
    4.1210    3.8436    0.0000 H   0  0  0  0  0  0  0  0  0  0  0  0
    2.4345   -4.2308    0.0000 H   0  0  0  0  0  0  0  0  0  0  0  0
    3.0617   -4.8436    0.0000 H   0  0  0  0  0  0  0  0  0  0  0  0
    3.6744   -4.2165    0.0000 H   0  0  0  0  0  0  0  0  0  0  0  0
    6.2075   -4.7160    0.0000 H   0  0  0  0  0  0  0  0  0  0  0  0
    7.0545   -4.4891    0.0000 H   0  0  0  0  0  0  0  0  0  0  0  0
    6.8275   -3.6422    0.0000 H   0  0  0  0  0  0  0  0  0  0  0  0
    6.9182    3.8113    0.0000 H   0  0  0  0  0  0  0  0  0  0  0  0
 11  1  1  1  0  0  0
  1 17  1  0  0  0  0
 14  2  1  1  0  0  0
  2 27  1  0  0  0  0
  3 23  1  0  0  0  0
  3 24  1  0  0  0  0
  4 20  1  0  0  0  0
  4 28  1  0  0  0  0
  5 22  2  0  0  0  0
  6 23  2  0  0  0  0
  7 30  1  0  0  0  0
  7 33  1  0  0  0  0
  8 27  2  0  0  0  0
  9 28  2  0  0  0  0
 10 11  1  0  0  0  0
 10 12  1  0  0  0  0
 10 14  1  0  0  0  0
 10 20  1  1  0  0  0
 11 15  1  0  0  0  0
 11 17  1  0  0  0  0
 12 13  1  0  0  0  0
 12 16  1  0  0  0  0
 12 34  1  6  0  0  0
 13 18  1  0  0  0  0
 13 21  1  6  0  0  0
 13 23  1  0  0  0  0
 14 22  1  0  0  0  0
 14 35  1  0  0  0  0
 15 19  1  0  0  0  0
 15 36  1  0  0  0  0
 15 37  1  0  0  0  0
 16 19  1  0  0  0  0
 16 38  1  0  0  0  0
 16 39  1  0  0  0  0
 17 40  1  0  0  0  0
 17 41  1  0  0  0  0
 18 22  1  0  0  0  0
 18 25  1  1  0  0  0
 18 42  1  0  0  0  0
 19 43  1  0  0  0  0
 19 44  1  0  0  0  0
 20 45  1  0  0  0  0
 20 46  1  0  0  0  0
 21 24  1  0  0  0  0
 21 47  1  0  0  0  0
 21 48  1  0  0  0  0
 24 26  1  6  0  0  0
 24 49  1  0  0  0  0
 25 50  1  0  0  0  0
 25 51  1  0  0  0  0
 25 52  1  0  0  0  0
 26 29  1  0  0  0  0
 26 30  2  0  0  0  0
 27 31  1  0  0  0  0
 28 32  1  0  0  0  0
 29 33  2  0  0  0  0
 29 53  1  0  0  0  0
 30 54  1  0  0  0  0
 31 55  1  0  0  0  0
 31 56  1  0  0  0  0
 31 57  1  0  0  0  0
 32 58  1  0  0  0  0
 32 59  1  0  0  0  0
 32 60  1  0  0  0  0
 33 61  1  0  0  0  0
M  END
> <PUBCHEM_COMPOUND_CID>
441997

> <PUBCHEM_COMPOUND_CANONICALIZED>
1

> <PUBCHEM_CACTVS_COMPLEXITY>
885

> <PUBCHEM_CACTVS_HBOND_ACCEPTOR>
9

> <PUBCHEM_CACTVS_HBOND_DONOR>
0

> <PUBCHEM_CACTVS_ROTATABLE_BOND>
6

> <PUBCHEM_CACTVS_SUBSKEYS>
AAADceB4PAAAAAAAAAAAAAAAEgAAASJAAAAwYAAAAAAAAADBgAAAGgAAAAAAD1SgmAIyDIAABECIAqjSiAICCAAkIAAIiAFGCMgMJxYENQ6CGSCl4BEIKYPL7PzPgAAAAAAAAADAAAYAADAAAAAAAAAAAA==

> <PUBCHEM_IUPAC_INCHI>
InChI=1S/C24H28O9/c1-13-19(27)20(32-15(3)26)24(12-30-14(2)25)18(5-4-7-22(24)11-31-22)23(13)9-17(33-21(23)28)16-6-8-29-10-16/h6,8,10,13,17-18,20H,4-5,7,9,11-12H2,1-3H3/t13-,17+,18-,20+,22+,23-,24+/m1/s1

> <PUBCHEM_IUPAC_INCHIKEY>
OATKJIMDMRXKBR-ATQQKGJMSA-N

> <PUBCHEM_XLOGP3_AA>
1.5

> <PUBCHEM_EXACT_MASS>
460.173332

> <PUBCHEM_MOLECULAR_FORMULA>
C24H28O9

> <PUBCHEM_MOLECULAR_WEIGHT>
460.47372

> <PUBCHEM_OPENEYE_CAN_SMILES>
CC1C(=O)C(C2(C(C13CC(OC3=O)C4=COC=C4)CCCC25CO5)COC(=O)C)OC(=O)C

> <PUBCHEM_OPENEYE_ISO_SMILES>
C[C@@H]1C(=O)[C@@H]([C@@]2([C@@H]([C@@]13C[C@H](OC3=O)C4=COC=C4)CCC[C@]25CO5)COC(=O)C)OC(=O)C

> <PUBCHEM_CACTVS_TPSA>
122

> <PUBCHEM_MONOISOTOPIC_WEIGHT>
460.173332

> <PUBCHEM_TOTAL_CHARGE>
0

> <PUBCHEM_HEAVY_ATOM_COUNT>
33

> <PUBCHEM_ATOM_DEF_STEREO_COUNT>
7

> <PUBCHEM_ATOM_UDEF_STEREO_COUNT>
0

> <PUBCHEM_BOND_DEF_STEREO_COUNT>
0

> <PUBCHEM_BOND_UDEF_STEREO_COUNT>
0

> <PUBCHEM_ISOTOPIC_ATOM_COUNT>
0

> <PUBCHEM_COMPONENT_COUNT>
1

> <PUBCHEM_CACTVS_TAUTO_COUNT>
3

> <PUBCHEM_COORDINATE_TYPE>
1
5
255

> <PUBCHEM_BONDANNOTATIONS>
11  1  5
10  20  5
12  34  6
13  21  6
18  25  5
14  2  5
24  26  6
26  29  8
26  30  8
29  33  8
7  30  8
7  33  8

$$$$

