5364079
  -OEChem-07051213123D

 24 23  0     0  0  0  0  0  0999 V2000
    2.6274   -1.0978   -0.3132 O   0  0  0  0  0  0  0  0  0  0  0  0
   -0.0948   -1.9414   -0.5552 O   0  0  0  0  0  0  0  0  0  0  0  0
   -3.3544    1.1303   -0.0301 O   0  0  0  0  0  0  0  0  0  0  0  0
    2.8005    1.1253    0.3353 N   0  0  0  0  0  0  0  0  0  0  0  0
    0.7168    0.1817    0.0629 N   0  0  0  0  0  0  0  0  0  0  0  0
   -1.9802    0.9648   -0.2541 N   0  0  0  0  0  0  0  0  0  0  0  0
   -3.6356   -1.7538    0.6431 N   0  0  0  0  0  0  0  0  0  0  0  0
    4.2431    1.1907    0.3523 C   0  0  0  0  0  0  0  0  0  0  0  0
    4.8632   -0.1356   -0.0358 C   0  0  0  0  0  0  0  0  0  0  0  0
    2.1001   -0.0312   -0.0012 C   0  0  0  0  0  0  0  0  0  0  0  0
   -0.2388   -0.7783   -0.2157 C   0  0  0  0  0  0  0  0  0  0  0  0
   -1.6283   -0.2626   -0.0566 C   0  0  0  0  0  0  0  0  0  0  0  0
   -2.7405   -1.0850    0.3301 C   0  0  0  0  0  0  0  0  0  0  0  0
   -3.6786    2.4927   -0.2617 C   0  0  0  0  0  0  0  0  0  0  0  0
    4.5463    1.9815   -0.3407 H   0  0  0  0  0  0  0  0  0  0  0  0
    4.5489    1.4847    1.3610 H   0  0  0  0  0  0  0  0  0  0  0  0
    2.2787    1.9609    0.5800 H   0  0  0  0  0  0  0  0  0  0  0  0
    4.6449   -0.9375    0.6771 H   0  0  0  0  0  0  0  0  0  0  0  0
    4.6423   -0.4282   -1.0675 H   0  0  0  0  0  0  0  0  0  0  0  0
    5.9543   -0.0177   -0.0031 H   0  0  0  0  0  0  0  0  0  0  0  0
    0.4022    1.1091    0.3355 H   0  0  0  0  0  0  0  0  0  0  0  0
   -4.7493    2.6283   -0.0882 H   0  0  0  0  0  0  0  0  0  0  0  0
   -3.4528    2.7670   -1.2969 H   0  0  0  0  0  0  0  0  0  0  0  0
   -3.1261    3.1379    0.4283 H   0  0  0  0  0  0  0  0  0  0  0  0
  1 10  2  0  0  0  0
  2 11  2  0  0  0  0
  3  6  1  0  0  0  0
  3 14  1  0  0  0  0
  4  8  1  0  0  0  0
  4 10  1  0  0  0  0
  4 17  1  0  0  0  0
  5 10  1  0  0  0  0
  5 11  1  0  0  0  0
  5 21  1  0  0  0  0
  6 12  2  0  0  0  0
  7 13  3  0  0  0  0
  8  9  1  0  0  0  0
  8 15  1  0  0  0  0
  8 16  1  0  0  0  0
  9 18  1  0  0  0  0
  9 19  1  0  0  0  0
  9 20  1  0  0  0  0
 11 12  1  0  0  0  0
 12 13  1  0  0  0  0
 14 22  1  0  0  0  0
 14 23  1  0  0  0  0
 14 24  1  0  0  0  0
M  END
> <PUBCHEM_COMPOUND_CID>
5364079

> <PUBCHEM_CONFORMER_RMSD>
0.6

> <PUBCHEM_CONFORMER_DIVERSEORDER>
1
13
14
8
12
5
11
4
2
6
9
7
10
3
15

> <PUBCHEM_MMFF94_PARTIAL_CHARGES>
15
1 -0.57
10 0.69
11 0.63
12 0.56
13 0.45
14 0.28
17 0.37
2 -0.57
21 0.37
3 -0.22
4 -0.73
5 -0.49
6 -0.51
7 -0.56
8 0.3

> <PUBCHEM_EFFECTIVE_ROTOR_COUNT>
6

> <PUBCHEM_PHARMACOPHORE_FEATURES>
6
1 1 acceptor
1 2 acceptor
1 4 donor
1 5 donor
1 6 acceptor
1 7 acceptor

> <PUBCHEM_HEAVY_ATOM_COUNT>
14

> <PUBCHEM_ATOM_DEF_STEREO_COUNT>
0

> <PUBCHEM_ATOM_UDEF_STEREO_COUNT>
0

> <PUBCHEM_BOND_DEF_STEREO_COUNT>
1

> <PUBCHEM_BOND_UDEF_STEREO_COUNT>
0

> <PUBCHEM_ISOTOPIC_ATOM_COUNT>
0

> <PUBCHEM_COMPONENT_COUNT>
1

> <PUBCHEM_CACTVS_TAUTO_COUNT>
5

> <PUBCHEM_CONFORMER_ID>
0051D96F00000001

> <PUBCHEM_MMFF94_ENERGY>
32.2517

> <PUBCHEM_FEATURE_SELFOVERLAP>
30.499

> <PUBCHEM_SHAPE_FINGERPRINT>
10608611 8 18409449210631704021
122479 349 18338237175706634045
12507560 40 18410008844981188134
12932764 1 17531254915498847530
13214271 11 18410014329659615693
14325111 11 18409449189146253086
15219456 202 18334570273957074231
15501527 16 18408319986673609424
18186145 218 18040703792901292930
1986462 14 18343019982441103118
20510252 161 18335698326048421955
20645477 56 18341890844345502333
20645477 70 17458904967479839494
23402539 116 18270123409977423319
23402655 69 17967818275361439540
23500284 214 18338513153225569177
23557571 272 18336817641364347725
23559900 14 18261955279875913054
5104073 3 18411985762993785672
6430166 295 18409735088382533200
77779 3 18413106156615260960

> <PUBCHEM_SHAPE_MULTIPOLES>
250.58
8.95
2.05
0.66
5.65
0.53
0.01
2.9
0.79
-2.42
-0.07
-0.05
-0.06
0.79

> <PUBCHEM_SHAPE_SELFOVERLAP>
488.945

> <PUBCHEM_SHAPE_VOLUME>
147.5

> <PUBCHEM_COORDINATE_TYPE>
2
5
10

$$$$

