97808
  -OEChem-07051212492D

 19 19  0     1  0  0  0  0  0999 V2000
    3.7601   -0.3665    0.0000 O   0  0  0  0  0  0  0  0  0  0  0  0
    2.0000   -0.0877    0.0000 O   0  0  0  0  0  0  0  0  0  0  0  0
    6.6791   -1.3749    0.0000 O   0  0  0  0  0  0  0  0  0  0  0  0
    4.9849   -1.7350    0.0000 O   0  0  0  0  0  0  0  0  0  0  0  0
    4.5691    0.2213    0.0000 C   0  0  3  0  0  0  0  0  0  0  0  0
    4.2601    1.1723    0.0000 C   0  0  0  0  0  0  0  0  0  0  0  0
    5.5202   -0.0877    0.0000 C   0  0  0  0  0  0  0  0  0  0  0  0
    3.2601    1.1723    0.0000 C   0  0  0  0  0  0  0  0  0  0  0  0
    4.8479    1.9814    0.0000 C   0  0  0  0  0  0  0  0  0  0  0  0
    2.9511    0.2213    0.0000 C   0  0  0  0  0  0  0  0  0  0  0  0
    5.7281   -1.0659    0.0000 C   0  0  0  0  0  0  0  0  0  0  0  0
    4.7021   -0.6183    0.0000 H   0  0  0  0  0  0  0  0  0  0  0  0
    6.1398   -0.0661    0.0000 H   0  0  0  0  0  0  0  0  0  0  0  0
    5.6064    0.5262    0.0000 H   0  0  0  0  0  0  0  0  0  0  0  0
    2.8956    1.6739    0.0000 H   0  0  0  0  0  0  0  0  0  0  0  0
    5.3494    1.6169    0.0000 H   0  0  0  0  0  0  0  0  0  0  0  0
    5.2123    2.4829    0.0000 H   0  0  0  0  0  0  0  0  0  0  0  0
    4.3463    2.3458    0.0000 H   0  0  0  0  0  0  0  0  0  0  0  0
    6.8080   -1.9814    0.0000 H   0  0  0  0  0  0  0  0  0  0  0  0
  1  5  1  0  0  0  0
  1 10  1  0  0  0  0
  2 10  2  0  0  0  0
  3 11  1  0  0  0  0
  3 19  1  0  0  0  0
  4 11  2  0  0  0  0
  5  6  1  0  0  0  0
  5  7  1  0  0  0  0
  5 12  1  0  0  0  0
  6  8  2  0  0  0  0
  6  9  1  0  0  0  0
  7 11  1  0  0  0  0
  7 13  1  0  0  0  0
  7 14  1  0  0  0  0
  8 10  1  0  0  0  0
  8 15  1  0  0  0  0
  9 16  1  0  0  0  0
  9 17  1  0  0  0  0
  9 18  1  0  0  0  0
M  END
> <PUBCHEM_COMPOUND_CID>
97808

> <PUBCHEM_COMPOUND_CANONICALIZED>
1

> <PUBCHEM_CACTVS_COMPLEXITY>
229

> <PUBCHEM_CACTVS_HBOND_ACCEPTOR>
4

> <PUBCHEM_CACTVS_HBOND_DONOR>
1

> <PUBCHEM_CACTVS_ROTATABLE_BOND>
2

> <PUBCHEM_CACTVS_SUBSKEYS>
AAADccBgOAAAAAAAAAAAAAAAAAAAAQAAAAAAAAAAAAAAAAAAAAAAGgAACAAADBSggAICCAAABgCIAiDSCAAAAAAgAAAACAEAAEgABBYAIQACUAAFoAAIIQKIAAAAAAAAAAAAAAAAAAAAAAAAAAAAAAAAAA==

> <PUBCHEM_IUPAC_OPENEYE_NAME>
2-(3-methyl-5-oxo-2H-furan-2-yl)acetic acid

> <PUBCHEM_IUPAC_CAS_NAME>
2-(3-methyl-5-oxo-2H-furan-2-yl)acetic acid

> <PUBCHEM_IUPAC_NAME>
2-(3-methyl-5-oxo-2H-furan-2-yl)acetic acid

> <PUBCHEM_IUPAC_SYSTEMATIC_NAME>
2-(3-methyl-5-oxidanylidene-2H-furan-2-yl)ethanoic acid

> <PUBCHEM_IUPAC_TRADITIONAL_NAME>
2-(5-keto-3-methyl-2H-furan-2-yl)acetic acid

> <PUBCHEM_IUPAC_INCHI>
InChI=1S/C7H8O4/c1-4-2-7(10)11-5(4)3-6(8)9/h2,5H,3H2,1H3,(H,8,9)

> <PUBCHEM_IUPAC_INCHIKEY>
GXEVIPDDAUJTCF-UHFFFAOYSA-N

> <PUBCHEM_XLOGP3_AA>
-0.3

> <PUBCHEM_EXACT_MASS>
156.042259

> <PUBCHEM_MOLECULAR_FORMULA>
C7H8O4

> <PUBCHEM_MOLECULAR_WEIGHT>
156.13602

> <PUBCHEM_OPENEYE_CAN_SMILES>
CC1=CC(=O)OC1CC(=O)O

> <PUBCHEM_OPENEYE_ISO_SMILES>
CC1=CC(=O)OC1CC(=O)O

> <PUBCHEM_CACTVS_TPSA>
63.6

> <PUBCHEM_MONOISOTOPIC_WEIGHT>
156.042259

> <PUBCHEM_TOTAL_CHARGE>
0

> <PUBCHEM_HEAVY_ATOM_COUNT>
11

> <PUBCHEM_ATOM_DEF_STEREO_COUNT>
0

> <PUBCHEM_ATOM_UDEF_STEREO_COUNT>
1

> <PUBCHEM_BOND_DEF_STEREO_COUNT>
0

> <PUBCHEM_BOND_UDEF_STEREO_COUNT>
0

> <PUBCHEM_ISOTOPIC_ATOM_COUNT>
0

> <PUBCHEM_COMPONENT_COUNT>
1

> <PUBCHEM_CACTVS_TAUTO_COUNT>
1

> <PUBCHEM_COORDINATE_TYPE>
1
5
255

> <PUBCHEM_BONDANNOTATIONS>
5  12  3

$$$$

