7847009
  -OEChem-06241222483D

 54 56  0     0  0  0  0  0  0999 V2000
    3.5815    0.1601    2.0243 S   0  0  0  0  0  0  0  0  0  0  0  0
    0.3145   -2.0646    0.0688 O   0  0  0  0  0  0  0  0  0  0  0  0
    1.7920   -3.2789   -1.2214 O   0  0  0  0  0  0  0  0  0  0  0  0
    3.6501   -0.4951   -0.4692 N   0  0  0  0  0  0  0  0  0  0  0  0
   -5.0593    1.3653    0.4728 C   0  0  0  0  0  0  0  0  0  0  0  0
   -3.8448    0.5164    0.0617 C   0  0  0  0  0  0  0  0  0  0  0  0
   -6.2611    1.0274   -0.4358 C   0  0  0  0  0  0  0  0  0  0  0  0
   -4.8216    2.8888    0.3671 C   0  0  0  0  0  0  0  0  0  0  0  0
   -5.4314    1.0629    1.9405 C   0  0  0  0  0  0  0  0  0  0  0  0
   -2.7052    1.1643   -0.3445 C   0  0  0  0  0  0  0  0  0  0  0  0
   -3.9558   -0.8500    0.1197 C   0  0  0  0  0  0  0  0  0  0  0  0
   -1.6779   -0.9977   -0.6717 C   0  0  0  0  0  0  0  0  0  0  0  0
   -1.6035    0.3943   -0.7175 C   0  0  0  0  0  0  0  0  0  0  0  0
   -2.8540   -1.6200   -0.2532 C   0  0  0  0  0  0  0  0  0  0  0  0
   -0.4966   -1.8234   -1.0725 C   0  0  0  0  0  0  0  0  0  0  0  0
   -0.3553    1.0845   -1.1611 C   0  0  0  0  0  0  0  0  0  0  0  0
   -2.9592   -3.1089   -0.1960 C   0  0  0  0  0  0  0  0  0  0  0  0
    2.1893   -2.9749    1.1588 C   0  0  0  0  0  0  0  0  0  0  0  0
    3.6132   -2.4232    1.0740 C   0  0  0  0  0  0  0  0  0  0  0  0
    1.4419   -2.8141   -0.1454 C   0  0  0  0  0  0  0  0  0  0  0  0
    3.6185   -0.9526    0.7438 C   0  0  0  0  0  0  0  0  0  0  0  0
    3.6099    1.4387    0.8679 C   0  0  0  0  0  0  0  0  0  0  0  0
    3.6456    0.8912   -0.4181 C   0  0  0  0  0  0  0  0  0  0  0  0
    3.6012    2.8262    1.0831 C   0  0  0  0  0  0  0  0  0  0  0  0
    3.6734    1.7657   -1.5262 C   0  0  0  0  0  0  0  0  0  0  0  0
    3.6294    3.6693   -0.0306 C   0  0  0  0  0  0  0  0  0  0  0  0
    3.6650    3.1480   -1.3192 C   0  0  0  0  0  0  0  0  0  0  0  0
   -6.0171    1.1955   -1.4916 H   0  0  0  0  0  0  0  0  0  0  0  0
   -7.1281    1.6525   -0.1914 H   0  0  0  0  0  0  0  0  0  0  0  0
   -6.5829   -0.0147   -0.3343 H   0  0  0  0  0  0  0  0  0  0  0  0
   -5.7182    3.4435    0.6716 H   0  0  0  0  0  0  0  0  0  0  0  0
   -4.0101    3.2250    1.0233 H   0  0  0  0  0  0  0  0  0  0  0  0
   -4.5975    3.1997   -0.6602 H   0  0  0  0  0  0  0  0  0  0  0  0
   -6.2683    1.6888    2.2721 H   0  0  0  0  0  0  0  0  0  0  0  0
   -5.7361    0.0213    2.0891 H   0  0  0  0  0  0  0  0  0  0  0  0
   -4.5851    1.2572    2.6102 H   0  0  0  0  0  0  0  0  0  0  0  0
   -2.6100    2.2415   -0.3944 H   0  0  0  0  0  0  0  0  0  0  0  0
   -4.8684   -1.3398    0.4433 H   0  0  0  0  0  0  0  0  0  0  0  0
    0.0955   -1.3259   -1.8492 H   0  0  0  0  0  0  0  0  0  0  0  0
   -0.8059   -2.7767   -1.5165 H   0  0  0  0  0  0  0  0  0  0  0  0
   -0.4107    2.1667   -0.9977 H   0  0  0  0  0  0  0  0  0  0  0  0
   -0.1857    0.9263   -2.2309 H   0  0  0  0  0  0  0  0  0  0  0  0
    0.5097    0.7292   -0.5927 H   0  0  0  0  0  0  0  0  0  0  0  0
   -2.1376   -3.5407    0.3849 H   0  0  0  0  0  0  0  0  0  0  0  0
   -3.8870   -3.4279    0.2925 H   0  0  0  0  0  0  0  0  0  0  0  0
   -2.9618   -3.5335   -1.2050 H   0  0  0  0  0  0  0  0  0  0  0  0
    1.6369   -2.4782    1.9657 H   0  0  0  0  0  0  0  0  0  0  0  0
    2.2064   -4.0435    1.4003 H   0  0  0  0  0  0  0  0  0  0  0  0
    4.1400   -2.6146    2.0166 H   0  0  0  0  0  0  0  0  0  0  0  0
    4.1698   -2.9550    0.2919 H   0  0  0  0  0  0  0  0  0  0  0  0
    3.5732    3.2404    2.0863 H   0  0  0  0  0  0  0  0  0  0  0  0
    3.7003    1.3691   -2.5372 H   0  0  0  0  0  0  0  0  0  0  0  0
    3.6230    4.7465    0.1139 H   0  0  0  0  0  0  0  0  0  0  0  0
    3.6859    3.8192   -2.1734 H   0  0  0  0  0  0  0  0  0  0  0  0
  1 21  1  0  0  0  0
  1 22  1  0  0  0  0
  2 15  1  0  0  0  0
  2 20  1  0  0  0  0
  3 20  2  0  0  0  0
  4 21  2  0  0  0  0
  4 23  1  0  0  0  0
  5  6  1  0  0  0  0
  5  7  1  0  0  0  0
  5  8  1  0  0  0  0
  5  9  1  0  0  0  0
  6 10  2  0  0  0  0
  6 11  1  0  0  0  0
  7 28  1  0  0  0  0
  7 29  1  0  0  0  0
  7 30  1  0  0  0  0
  8 31  1  0  0  0  0
  8 32  1  0  0  0  0
  8 33  1  0  0  0  0
  9 34  1  0  0  0  0
  9 35  1  0  0  0  0
  9 36  1  0  0  0  0
 10 13  1  0  0  0  0
 10 37  1  0  0  0  0
 11 14  2  0  0  0  0
 11 38  1  0  0  0  0
 12 13  2  0  0  0  0
 12 14  1  0  0  0  0
 12 15  1  0  0  0  0
 13 16  1  0  0  0  0
 14 17  1  0  0  0  0
 15 39  1  0  0  0  0
 15 40  1  0  0  0  0
 16 41  1  0  0  0  0
 16 42  1  0  0  0  0
 16 43  1  0  0  0  0
 17 44  1  0  0  0  0
 17 45  1  0  0  0  0
 17 46  1  0  0  0  0
 18 19  1  0  0  0  0
 18 20  1  0  0  0  0
 18 47  1  0  0  0  0
 18 48  1  0  0  0  0
 19 21  1  0  0  0  0
 19 49  1  0  0  0  0
 19 50  1  0  0  0  0
 22 23  1  0  0  0  0
 22 24  2  0  0  0  0
 23 25  2  0  0  0  0
 24 26  1  0  0  0  0
 24 51  1  0  0  0  0
 25 27  1  0  0  0  0
 25 52  1  0  0  0  0
 26 27  2  0  0  0  0
 26 53  1  0  0  0  0
 27 54  1  0  0  0  0
M  END
> <PUBCHEM_COMPOUND_CID>
7847009

> <PUBCHEM_CONFORMER_RMSD>
0.8

> <PUBCHEM_CONFORMER_DIVERSEORDER>
1
95
146
128
137
58
99
52
64
46
188
66
252
80
151
76
198
154
223
108
185
93
72
166
236
133
27
126
227
107
69
195
63
222
157
143
101
70
248
36
109
218
104
169
115
165
9
215
214
221
49
135
23
180
153
88
210
194
26
200
123
124
8
41
160
189
7
54
83
202
29
232
110
164
12
71
251
177
174
67
173
240
228
31
62
86
213
152
24
140
77
122
179
170
147
207
5
103
97
211
231
75
3
206
219
4
35
44
33
208
131
220
239
28
230
61
190
204
159
105
178
11
192
89
142
38
158
196
6
144
74
10
16
212
224
234
155
183
18
237
238
13
43
217
186
78
114
51
201
241
90
176
57
132
100
102
2
244
82
94
113
92
111
87
225
203
156
191
73
53
141
235
199
117
136
17
91
148
139
226
205
138
145
127
47
79
45
37
116
118
125
243
112
216
106
175
250
40
233
119
39
163
249
184
193
161
68
84
130
197
242
120
25
134
65
22
19
246
34
229
209
96
59
42
55
245
48
15
32
50
149
81
121
20
30
150
171
98
85
247
182
168
167
187
172
14
162
129
60
181
56
21

> <PUBCHEM_MMFF94_PARTIAL_CHARGES>
30
1 -0.08
10 -0.15
11 -0.15
12 -0.14
13 -0.14
14 -0.14
15 0.42
16 0.14
17 0.14
18 0.06
19 0.18
2 -0.43
20 0.66
21 0.2
22 0.04
23 0.23
24 -0.15
25 -0.15
26 -0.15
27 -0.15
3 -0.57
37 0.15
38 0.15
4 -0.57
5 0.14
51 0.15
52 0.15
53 0.15
54 0.15
6 -0.14

> <PUBCHEM_EFFECTIVE_ROTOR_COUNT>
7

> <PUBCHEM_PHARMACOPHORE_FEATURES>
6
1 3 acceptor
1 4 acceptor
4 5 7 8 9 hydrophobe
5 1 4 21 22 23 rings
6 22 23 24 25 26 27 rings
6 6 10 11 12 13 14 rings

> <PUBCHEM_HEAVY_ATOM_COUNT>
27

> <PUBCHEM_ATOM_DEF_STEREO_COUNT>
0

> <PUBCHEM_ATOM_UDEF_STEREO_COUNT>
0

> <PUBCHEM_BOND_DEF_STEREO_COUNT>
0

> <PUBCHEM_BOND_UDEF_STEREO_COUNT>
0

> <PUBCHEM_ISOTOPIC_ATOM_COUNT>
0

> <PUBCHEM_COMPONENT_COUNT>
1

> <PUBCHEM_CACTVS_TAUTO_COUNT>
2

> <PUBCHEM_CONFORMER_ID>
0077BC6100000001

> <PUBCHEM_MMFF94_ENERGY>
69.7767

> <PUBCHEM_FEATURE_SELFOVERLAP>
30.519

> <PUBCHEM_SHAPE_FINGERPRINT>
10483366 6 18266439041507948758
10937287 8 18195247715870550876
11720765 8 17749653183148307172
12422481 6 17917429878190835549
12633257 1 18129957757324665226
12788726 201 17404581074506122790
12925494 130 18410014377427067065
12978246 48 18338519745557360929
13140716 1 18411990135027808062
13398642 44 18129087944690060565
13617811 41 17905906781625017061
13878862 14 18199208328494795213
13965767 371 18057342621245663652
14251764 75 18265605498833519344
14790565 3 18338513019786157837
14849402 71 18272934904327728450
14950920 106 17561370582043978465
151778 21 18411138026343395128
20465049 17 18340187666748373142
20567600 9 18335411392031257652
21133410 127 18060143119990458892
21859007 373 17201652271306734581
21864079 5 18264212422243604342
23559900 14 18114169895472926262
245318 6 18342730776386571165
34797466 226 15430049734003720569
38570 142 17201067077807435844
437795 163 18266184916873208711
5048184 11 18266459815357709204
5104073 3 18341892991871394491
6201320 215 16392393665538044956
6287921 2 18342179938573058222
633830 44 18334014952123826078
7064713 232 18267032665274070696
7808743 9 17833273022046119880

> <PUBCHEM_SHAPE_MULTIPOLES>
542.78
12.67
4.57
1.49
11.87
0.54
0.38
-8.56
3.12
-3.61
-0.27
-0.87
-0.27
-1.7

> <PUBCHEM_SHAPE_SELFOVERLAP>
1147.743

> <PUBCHEM_SHAPE_VOLUME>
310.5

> <PUBCHEM_COORDINATE_TYPE>
2
5
10

$$$$

