253112
  -OEChem-07051213062D

 48 51  0     1  0  0  0  0  0999 V2000
   10.0134    1.3362    0.0000 O   0  0  0  0  0  0  0  0  0  0  0  0
    2.8641   -2.6072    0.0000 O   0  0  0  0  0  0  0  0  0  0  0  0
    8.5886    2.6530    0.0000 N   0  0  0  0  0  0  0  0  0  0  0  0
    8.2572    0.4451    0.0000 C   0  0  1  0  0  0  0  0  0  0  0  0
    8.2572   -0.5549    0.0000 C   0  0  2  0  0  0  0  0  0  0  0  0
    7.3912   -1.0549    0.0000 C   0  0  1  0  0  0  0  0  0  0  0  0
    6.5251   -0.5549    0.0000 C   0  0  2  0  0  0  0  0  0  0  0  0
    9.2034    0.7499    0.0000 C   0  0  2  0  0  0  0  0  0  0  0  0
    7.3912    0.9451    0.0000 C   0  0  0  0  0  0  0  0  0  0  0  0
    9.2034   -0.8596    0.0000 C   0  0  0  0  0  0  0  0  0  0  0  0
    6.5251    0.4451    0.0000 C   0  0  0  0  0  0  0  0  0  0  0  0
    9.7870   -0.0549    0.0000 C   0  0  0  0  0  0  0  0  0  0  0  0
    7.4072   -2.0964    0.0000 C   0  0  0  0  0  0  0  0  0  0  0  0
    8.2572    1.4451    0.0000 C   0  0  0  0  0  0  0  0  0  0  0  0
    5.6151   -1.0617    0.0000 C   0  0  0  0  0  0  0  0  0  0  0  0
    6.5092   -2.6241    0.0000 C   0  0  0  0  0  0  0  0  0  0  0  0
    5.6071   -2.1033    0.0000 C   0  0  0  0  0  0  0  0  0  0  0  0
    8.8960    1.7014    0.0000 C   0  0  0  0  0  0  0  0  0  0  0  0
    4.6883   -0.4976    0.0000 C   0  0  0  0  0  0  0  0  0  0  0  0
    4.6717   -2.6530    0.0000 C   0  0  0  0  0  0  0  0  0  0  0  0
    3.7404   -1.0256    0.0000 C   0  0  0  0  0  0  0  0  0  0  0  0
    3.7320   -2.1105    0.0000 C   0  0  0  0  0  0  0  0  0  0  0  0
    2.0000   -2.1039    0.0000 C   0  0  0  0  0  0  0  0  0  0  0  0
    8.3471   -1.4001    0.0000 H   0  0  0  0  0  0  0  0  0  0  0  0
    8.1305   -1.4742    0.0000 H   0  0  0  0  0  0  0  0  0  0  0  0
    7.2612   -0.1299    0.0000 H   0  0  0  0  0  0  0  0  0  0  0  0
    7.7897    1.4201    0.0000 H   0  0  0  0  0  0  0  0  0  0  0  0
    6.9926    1.4201    0.0000 H   0  0  0  0  0  0  0  0  0  0  0  0
    8.9524   -1.4265    0.0000 H   0  0  0  0  0  0  0  0  0  0  0  0
    9.7408   -1.1688    0.0000 H   0  0  0  0  0  0  0  0  0  0  0  0
    6.3131    1.0277    0.0000 H   0  0  0  0  0  0  0  0  0  0  0  0
    5.9145    0.3375    0.0000 H   0  0  0  0  0  0  0  0  0  0  0  0
   10.2479   -0.4696    0.0000 H   0  0  0  0  0  0  0  0  0  0  0  0
   10.2479    0.3599    0.0000 H   0  0  0  0  0  0  0  0  0  0  0  0
    7.6252   -2.6768    0.0000 H   0  0  0  0  0  0  0  0  0  0  0  0
    8.0164   -1.9809    0.0000 H   0  0  0  0  0  0  0  0  0  0  0  0
    8.8772    1.4451    0.0000 H   0  0  0  0  0  0  0  0  0  0  0  0
    8.2572    2.0651    0.0000 H   0  0  0  0  0  0  0  0  0  0  0  0
    7.6372    1.4451    0.0000 H   0  0  0  0  0  0  0  0  0  0  0  0
    6.1119   -3.1001    0.0000 H   0  0  0  0  0  0  0  0  0  0  0  0
    6.9101   -3.0970    0.0000 H   0  0  0  0  0  0  0  0  0  0  0  0
   10.5794    1.0831    0.0000 H   0  0  0  0  0  0  0  0  0  0  0  0
    4.7002    0.1222    0.0000 H   0  0  0  0  0  0  0  0  0  0  0  0
    4.6741   -3.2730    0.0000 H   0  0  0  0  0  0  0  0  0  0  0  0
    3.2071   -0.7094    0.0000 H   0  0  0  0  0  0  0  0  0  0  0  0
    2.3121   -1.5681    0.0000 H   0  0  0  0  0  0  0  0  0  0  0  0
    1.4643   -1.7918    0.0000 H   0  0  0  0  0  0  0  0  0  0  0  0
    1.6879   -2.6396    0.0000 H   0  0  0  0  0  0  0  0  0  0  0  0
  8  1  1  1  0  0  0
  1 42  1  0  0  0  0
  2 22  1  0  0  0  0
  2 23  1  0  0  0  0
  3 18  3  0  0  0  0
  4  5  1  0  0  0  0
  4  8  1  0  0  0  0
  4  9  1  0  0  0  0
  4 14  1  1  0  0  0
  5  6  1  0  0  0  0
  5 10  1  0  0  0  0
  5 24  1  6  0  0  0
  6  7  1  0  0  0  0
  6 13  1  0  0  0  0
  6 25  1  1  0  0  0
  7 11  1  0  0  0  0
  7 15  1  0  0  0  0
  7 26  1  6  0  0  0
  8 12  1  0  0  0  0
  8 18  1  0  0  0  0
  9 11  1  0  0  0  0
  9 27  1  0  0  0  0
  9 28  1  0  0  0  0
 10 12  1  0  0  0  0
 10 29  1  0  0  0  0
 10 30  1  0  0  0  0
 11 31  1  0  0  0  0
 11 32  1  0  0  0  0
 12 33  1  0  0  0  0
 12 34  1  0  0  0  0
 13 16  1  0  0  0  0
 13 35  1  0  0  0  0
 13 36  1  0  0  0  0
 14 37  1  0  0  0  0
 14 38  1  0  0  0  0
 14 39  1  0  0  0  0
 15 17  2  0  0  0  0
 15 19  1  0  0  0  0
 16 17  1  0  0  0  0
 16 40  1  0  0  0  0
 16 41  1  0  0  0  0
 17 20  1  0  0  0  0
 19 21  2  0  0  0  0
 19 43  1  0  0  0  0
 20 22  2  0  0  0  0
 20 44  1  0  0  0  0
 21 22  1  0  0  0  0
 21 45  1  0  0  0  0
 23 46  1  0  0  0  0
 23 47  1  0  0  0  0
 23 48  1  0  0  0  0
M  END
> <PUBCHEM_COMPOUND_CID>
253112

> <PUBCHEM_COMPOUND_CANONICALIZED>
1

> <PUBCHEM_CACTVS_COMPLEXITY>
525

> <PUBCHEM_CACTVS_HBOND_ACCEPTOR>
3

> <PUBCHEM_CACTVS_HBOND_DONOR>
1

> <PUBCHEM_CACTVS_ROTATABLE_BOND>
1

> <PUBCHEM_CACTVS_SUBSKEYS>
AAADceB6MAAAAAAAAAAAAAAAAAAAAYAAAAAwYMAAAAAAAGDBAAAAHgAACAAAD0SBmAIyBoAABgCQBiBCAAACCAAgIAAIiAAGCIgMpiKEMRqAcCAkwBEIqA+AwPAPoAABAAAQAADAAAYAACAAAYAADAAAAA==

> <PUBCHEM_IUPAC_OPENEYE_NAME>
(8R,9S,13S,14S,17S)-17-hydroxy-3-methoxy-13-methyl-7,8,9,11,12,14,15,16-octahydro-6H-cyclopenta[a]phenanthrene-17-carbonitrile

> <PUBCHEM_IUPAC_CAS_NAME>
(8R,9S,13S,14S,17S)-17-hydroxy-3-methoxy-13-methyl-7,8,9,11,12,14,15,16-octahydro-6H-cyclopenta[a]phenanthrene-17-carbonitrile

> <PUBCHEM_IUPAC_NAME>
(8R,9S,13S,14S,17S)-17-hydroxy-3-methoxy-13-methyl-7,8,9,11,12,14,15,16-octahydro-6H-cyclopenta[a]phenanthrene-17-carbonitrile

> <PUBCHEM_IUPAC_SYSTEMATIC_NAME>
(8R,9S,13S,14S,17S)-3-methoxy-13-methyl-17-oxidanyl-7,8,9,11,12,14,15,16-octahydro-6H-cyclopenta[a]phenanthrene-17-carbonitrile

> <PUBCHEM_IUPAC_TRADITIONAL_NAME>
(8R,9S,13S,14S,17S)-17-hydroxy-3-methoxy-13-methyl-7,8,9,11,12,14,15,16-octahydro-6H-cyclopenta[a]phenanthrene-17-carbonitrile

> <PUBCHEM_IUPAC_INCHI>
InChI=1S/C20H25NO2/c1-19-9-7-16-15-6-4-14(23-2)11-13(15)3-5-17(16)18(19)8-10-20(19,22)12-21/h4,6,11,16-18,22H,3,5,7-10H2,1-2H3/t16-,17-,18+,19+,20-/m1/s1

> <PUBCHEM_IUPAC_INCHIKEY>
JLKBXDGMZFCRPY-SWBPCFCJSA-N

> <PUBCHEM_XLOGP3>
3.7

> <PUBCHEM_EXACT_MASS>
311.188529

> <PUBCHEM_MOLECULAR_FORMULA>
C20H25NO2

> <PUBCHEM_MOLECULAR_WEIGHT>
311.418

> <PUBCHEM_OPENEYE_CAN_SMILES>
CC12CCC3C(C1CCC2(C#N)O)CCC4=C3C=CC(=C4)OC

> <PUBCHEM_OPENEYE_ISO_SMILES>
C[C@]12CC[C@H]3[C@H]([C@@H]1CC[C@]2(C#N)O)CCC4=C3C=CC(=C4)OC

> <PUBCHEM_CACTVS_TPSA>
53.2

> <PUBCHEM_MONOISOTOPIC_WEIGHT>
311.188529

> <PUBCHEM_TOTAL_CHARGE>
0

> <PUBCHEM_HEAVY_ATOM_COUNT>
23

> <PUBCHEM_ATOM_DEF_STEREO_COUNT>
5

> <PUBCHEM_ATOM_UDEF_STEREO_COUNT>
0

> <PUBCHEM_BOND_DEF_STEREO_COUNT>
0

> <PUBCHEM_BOND_UDEF_STEREO_COUNT>
0

> <PUBCHEM_ISOTOPIC_ATOM_COUNT>
0

> <PUBCHEM_COMPONENT_COUNT>
1

> <PUBCHEM_CACTVS_TAUTO_COUNT>
1

> <PUBCHEM_COORDINATE_TYPE>
1
5
255

> <PUBCHEM_BONDANNOTATIONS>
8  1  5
15  17  8
15  19  8
17  20  8
19  21  8
20  22  8
21  22  8
4  14  5
5  24  6
6  25  5
7  26  6

$$$$

