4946
  -OEChem-07051212533D

 40 41  0     1  0  0  0  0  0999 V2000
    0.3581    1.4556    0.6931 O   0  0  0  0  0  0  0  0  0  0  0  0
    2.7841    2.1026    1.9563 O   0  0  0  0  0  0  0  0  0  0  0  0
    3.0013   -0.4295   -0.7358 N   0  0  0  0  0  0  0  0  0  0  0  0
    2.7506    1.6406    0.6030 C   0  0  1  0  0  0  0  0  0  0  0  0
    2.9583    0.1243    0.6107 C   0  0  0  0  0  0  0  0  0  0  0  0
    3.2559   -1.8633   -0.7016 C   0  0  0  0  0  0  0  0  0  0  0  0
    1.4257    2.0654   -0.0264 C   0  0  0  0  0  0  0  0  0  0  0  0
    3.2867   -2.4291   -2.1186 C   0  0  0  0  0  0  0  0  0  0  0  0
    2.1840   -2.5496    0.1392 C   0  0  0  0  0  0  0  0  0  0  0  0
   -0.7847    1.1880   -0.0057 C   0  0  0  0  0  0  0  0  0  0  0  0
   -1.6137    0.1069    0.3355 C   0  0  0  0  0  0  0  0  0  0  0  0
   -2.7871   -0.1304   -0.4193 C   0  0  0  0  0  0  0  0  0  0  0  0
   -1.1076    2.0229   -1.0758 C   0  0  0  0  0  0  0  0  0  0  0  0
   -1.3042   -0.7438    1.4092 C   0  0  0  0  0  0  0  0  0  0  0  0
   -3.0970    0.7205   -1.4929 C   0  0  0  0  0  0  0  0  0  0  0  0
   -2.2617    1.7898   -1.8178 C   0  0  0  0  0  0  0  0  0  0  0  0
   -3.6163   -1.2112   -0.0783 C   0  0  0  0  0  0  0  0  0  0  0  0
   -2.1393   -1.8132    1.7338 C   0  0  0  0  0  0  0  0  0  0  0  0
   -3.2932   -2.0465    0.9914 C   0  0  0  0  0  0  0  0  0  0  0  0
    3.5802    2.1250    0.0742 H   0  0  0  0  0  0  0  0  0  0  0  0
    2.1552   -0.3051    1.2181 H   0  0  0  0  0  0  0  0  0  0  0  0
    3.8939   -0.0928    1.1433 H   0  0  0  0  0  0  0  0  0  0  0  0
    4.2372   -2.0562   -0.2494 H   0  0  0  0  0  0  0  0  0  0  0  0
    3.7259    0.0381   -1.2797 H   0  0  0  0  0  0  0  0  0  0  0  0
    1.4376    1.7758   -1.0846 H   0  0  0  0  0  0  0  0  0  0  0  0
    1.3154    3.1533    0.0541 H   0  0  0  0  0  0  0  0  0  0  0  0
    3.5019   -3.5030   -2.1036 H   0  0  0  0  0  0  0  0  0  0  0  0
    2.3272   -2.2850   -2.6281 H   0  0  0  0  0  0  0  0  0  0  0  0
    4.0646   -1.9438   -2.7185 H   0  0  0  0  0  0  0  0  0  0  0  0
    2.3198   -2.3858    1.2130 H   0  0  0  0  0  0  0  0  0  0  0  0
    2.2295   -3.6358   -0.0048 H   0  0  0  0  0  0  0  0  0  0  0  0
    1.1742   -2.2320   -0.1449 H   0  0  0  0  0  0  0  0  0  0  0  0
    2.6876    3.0701    1.9380 H   0  0  0  0  0  0  0  0  0  0  0  0
   -0.5116    2.8889   -1.3476 H   0  0  0  0  0  0  0  0  0  0  0  0
   -0.4099   -0.5899    2.0092 H   0  0  0  0  0  0  0  0  0  0  0  0
   -3.9948    0.5582   -2.0856 H   0  0  0  0  0  0  0  0  0  0  0  0
   -2.5177    2.4448   -2.6457 H   0  0  0  0  0  0  0  0  0  0  0  0
   -4.5233   -1.4125   -0.6446 H   0  0  0  0  0  0  0  0  0  0  0  0
   -1.8882   -2.4642    2.5662 H   0  0  0  0  0  0  0  0  0  0  0  0
   -3.9428   -2.8792    1.2446 H   0  0  0  0  0  0  0  0  0  0  0  0
  1  7  1  0  0  0  0
  1 10  1  0  0  0  0
  2  4  1  0  0  0  0
  2 33  1  0  0  0  0
  3  5  1  0  0  0  0
  3  6  1  0  0  0  0
  3 24  1  0  0  0  0
  4  5  1  0  0  0  0
  4  7  1  0  0  0  0
  4 20  1  0  0  0  0
  5 21  1  0  0  0  0
  5 22  1  0  0  0  0
  6  8  1  0  0  0  0
  6  9  1  0  0  0  0
  6 23  1  0  0  0  0
  7 25  1  0  0  0  0
  7 26  1  0  0  0  0
  8 27  1  0  0  0  0
  8 28  1  0  0  0  0
  8 29  1  0  0  0  0
  9 30  1  0  0  0  0
  9 31  1  0  0  0  0
  9 32  1  0  0  0  0
 10 11  1  0  0  0  0
 10 13  2  0  0  0  0
 11 12  1  0  0  0  0
 11 14  2  0  0  0  0
 12 15  1  0  0  0  0
 12 17  2  0  0  0  0
 13 16  1  0  0  0  0
 13 34  1  0  0  0  0
 14 18  1  0  0  0  0
 14 35  1  0  0  0  0
 15 16  2  0  0  0  0
 15 36  1  0  0  0  0
 16 37  1  0  0  0  0
 17 19  1  0  0  0  0
 17 38  1  0  0  0  0
 18 19  2  0  0  0  0
 18 39  1  0  0  0  0
 19 40  1  0  0  0  0
M  END
> <PUBCHEM_COMPOUND_CID>
4946

> <PUBCHEM_CONFORMER_RMSD>
0.8

> <PUBCHEM_CONFORMER_DIVERSEORDER>
4
53
60
64
88
126
95
111
117
82
85
98
34
91
114
101
115
107
44
50
23
86
49
105
8
80
51
35
32
72
127
113
71
120
55
106
84
93
108
110
13
123
109
10
81
54
47
78
69
124
42
128
118
20
52
41
19
38
26
122
94
67
46
92
12
76
31
68
83
24
112
102
48
59
61
45
125
16
129
37
119
17
43
25
77
30
104
18
11
96
116
66
70
58
65
27
99
79
100
40
121
9
97
36
3
74
56
15
73
7
22
28
103
29
39
1
14
62
57
90
6
63
89
21
33
75
87
2
5

> <PUBCHEM_MMFF94_PARTIAL_CHARGES>
24
1 -0.36
10 0.08
13 -0.15
14 -0.15
15 -0.15
16 -0.15
17 -0.15
18 -0.15
19 -0.15
2 -0.68
24 0.36
3 -0.9
33 0.4
34 0.15
35 0.15
36 0.15
37 0.15
38 0.15
39 0.15
4 0.28
40 0.15
5 0.27
6 0.27
7 0.28

> <PUBCHEM_EFFECTIVE_ROTOR_COUNT>
6

> <PUBCHEM_PHARMACOPHORE_FEATURES>
8
1 1 acceptor
1 2 acceptor
1 2 donor
1 3 cation
1 3 donor
3 6 8 9 hydrophobe
6 10 11 12 13 15 16 rings
6 11 12 14 17 18 19 rings

> <PUBCHEM_HEAVY_ATOM_COUNT>
19

> <PUBCHEM_ATOM_DEF_STEREO_COUNT>
0

> <PUBCHEM_ATOM_UDEF_STEREO_COUNT>
1

> <PUBCHEM_BOND_DEF_STEREO_COUNT>
0

> <PUBCHEM_BOND_UDEF_STEREO_COUNT>
0

> <PUBCHEM_ISOTOPIC_ATOM_COUNT>
0

> <PUBCHEM_COMPONENT_COUNT>
1

> <PUBCHEM_CACTVS_TAUTO_COUNT>
1

> <PUBCHEM_CONFORMER_ID>
0000135200000004

> <PUBCHEM_MMFF94_ENERGY>
48.1445

> <PUBCHEM_FEATURE_SELFOVERLAP>
40.624

> <PUBCHEM_SHAPE_FINGERPRINT>
10764073 3 16903231736888532281
107951 10 15448838523469437606
11137873 295 18261671583688622687
11322862 65 18130791217535307453
11582403 64 16610063226003987444
117890 22 18338510846411328159
12202030 40 18411130329566769900
12363563 72 17825671320605347806
12553582 1 17903348548521610410
13533116 47 18113889430493914467
13544592 145 18341618169656528613
13583140 156 17168701900290960809
15635459 17 18411136909488471858
15848702 151 18337671902576858171
19049666 15 18340215179549546985
20645477 70 18114475503886482772
20693207 138 18412259575384836532
21285901 2 18128548080712960447
22182313 1 18201446848559614275
22802520 49 18343589525153778713
23557571 272 18130510747164400853
23559900 14 18272942630536206372
2748010 2 18342741780029031467
5262128 65 18116155648132860862
7097593 13 5111447490025816598
7987 15 18339060645164385106
81228 2 17988922258590115377
84936 31 17822574915214213562
9709674 26 18341622507198808148

> <PUBCHEM_SHAPE_MULTIPOLES>
374.29
6.87
3.16
1.81
1.95
0.42
0.25
3.08
1.32
1.11
0.1
0.42
0.11
3.29

> <PUBCHEM_SHAPE_SELFOVERLAP>
781.704

> <PUBCHEM_SHAPE_VOLUME>
214.2

> <PUBCHEM_COORDINATE_TYPE>
2
5
10

$$$$

