37419
  -OEChem-07051213003D

 42 42  0     1  0  0  0  0  0999 V2000
   -1.3942    0.1214    2.7699 S   0  0  0  0  0  0  0  0  0  0  0  0
   -1.2678   -0.4784    0.9079 P   0  0  1  0  0  0  0  0  0  0  0  0
    0.2506   -0.8449    0.4511 O   0  0  0  0  0  0  0  0  0  0  0  0
   -1.9462   -1.9486    0.6790 O   0  0  0  0  0  0  0  0  0  0  0  0
    3.9346   -2.1716   -0.6942 O   0  5  0  0  0  0  0  0  0  0  0  0
    1.8625   -2.6250   -0.1288 O   0  0  0  0  0  0  0  0  0  0  0  0
   -1.9073    0.4926   -0.2815 N   0  0  0  0  0  0  0  0  0  0  0  0
    2.7885   -1.8064   -0.3399 N   0  3  0  0  0  0  0  0  0  0  0  0
   -3.2760    0.9946   -0.1602 C   0  0  1  0  0  0  0  0  0  0  0  0
   -3.5215    2.1836   -1.1025 C   0  0  0  0  0  0  0  0  0  0  0  0
   -4.2471   -0.1431   -0.4725 C   0  0  0  0  0  0  0  0  0  0  0  0
   -2.6038    3.3709   -0.8394 C   0  0  0  0  0  0  0  0  0  0  0  0
    1.2742    0.0349    0.2187 C   0  0  0  0  0  0  0  0  0  0  0  0
   -1.7610   -2.6412   -0.5451 C   0  0  0  0  0  0  0  0  0  0  0  0
    2.5308   -0.4184   -0.1717 C   0  0  0  0  0  0  0  0  0  0  0  0
    1.0340    1.3965    0.3785 C   0  0  0  0  0  0  0  0  0  0  0  0
    2.0596    2.3129    0.1456 C   0  0  0  0  0  0  0  0  0  0  0  0
    3.5565    0.4979   -0.4044 C   0  0  0  0  0  0  0  0  0  0  0  0
    3.3208    1.8635   -0.2458 C   0  0  0  0  0  0  0  0  0  0  0  0
   -2.4945   -3.9638   -0.4790 C   0  0  0  0  0  0  0  0  0  0  0  0
    1.8073    3.7728    0.3145 C   0  0  0  0  0  0  0  0  0  0  0  0
   -3.4582    1.3425    0.8623 H   0  0  0  0  0  0  0  0  0  0  0  0
   -4.5603    2.5194   -0.9937 H   0  0  0  0  0  0  0  0  0  0  0  0
   -3.4023    1.8694   -2.1473 H   0  0  0  0  0  0  0  0  0  0  0  0
   -1.7242    0.2246   -1.2479 H   0  0  0  0  0  0  0  0  0  0  0  0
   -4.1949   -0.9407    0.2734 H   0  0  0  0  0  0  0  0  0  0  0  0
   -4.0656   -0.5747   -1.4629 H   0  0  0  0  0  0  0  0  0  0  0  0
   -5.2791    0.2260   -0.4630 H   0  0  0  0  0  0  0  0  0  0  0  0
   -2.6835    3.7049    0.1999 H   0  0  0  0  0  0  0  0  0  0  0  0
   -1.5579    3.1226   -1.0436 H   0  0  0  0  0  0  0  0  0  0  0  0
   -2.8790    4.2093   -1.4873 H   0  0  0  0  0  0  0  0  0  0  0  0
   -0.6983   -2.8286   -0.7110 H   0  0  0  0  0  0  0  0  0  0  0  0
   -2.1431   -2.0456   -1.3776 H   0  0  0  0  0  0  0  0  0  0  0  0
    0.0752    1.7937    0.6857 H   0  0  0  0  0  0  0  0  0  0  0  0
    4.5521    0.1873   -0.7112 H   0  0  0  0  0  0  0  0  0  0  0  0
    4.1282    2.5668   -0.4322 H   0  0  0  0  0  0  0  0  0  0  0  0
   -3.5635   -3.8026   -0.3051 H   0  0  0  0  0  0  0  0  0  0  0  0
   -2.1237   -4.5693    0.3548 H   0  0  0  0  0  0  0  0  0  0  0  0
   -2.3692   -4.5274   -1.4078 H   0  0  0  0  0  0  0  0  0  0  0  0
    1.2297    3.9629    1.2255 H   0  0  0  0  0  0  0  0  0  0  0  0
    1.2513    4.1599   -0.5453 H   0  0  0  0  0  0  0  0  0  0  0  0
    2.7421    4.3366    0.4020 H   0  0  0  0  0  0  0  0  0  0  0  0
  1  2  2  0  0  0  0
  2  3  1  0  0  0  0
  2  4  1  0  0  0  0
  2  7  1  0  0  0  0
  3 13  1  0  0  0  0
  4 14  1  0  0  0  0
  5  8  1  0  0  0  0
  6  8  2  0  0  0  0
  7  9  1  0  0  0  0
  7 25  1  0  0  0  0
  8 15  1  0  0  0  0
  9 10  1  0  0  0  0
  9 11  1  0  0  0  0
  9 22  1  0  0  0  0
 10 12  1  0  0  0  0
 10 23  1  0  0  0  0
 10 24  1  0  0  0  0
 11 26  1  0  0  0  0
 11 27  1  0  0  0  0
 11 28  1  0  0  0  0
 12 29  1  0  0  0  0
 12 30  1  0  0  0  0
 12 31  1  0  0  0  0
 13 15  2  0  0  0  0
 13 16  1  0  0  0  0
 14 20  1  0  0  0  0
 14 32  1  0  0  0  0
 14 33  1  0  0  0  0
 15 18  1  0  0  0  0
 16 17  2  0  0  0  0
 16 34  1  0  0  0  0
 17 19  1  0  0  0  0
 17 21  1  0  0  0  0
 18 19  2  0  0  0  0
 18 35  1  0  0  0  0
 19 36  1  0  0  0  0
 20 37  1  0  0  0  0
 20 38  1  0  0  0  0
 20 39  1  0  0  0  0
 21 40  1  0  0  0  0
 21 41  1  0  0  0  0
 21 42  1  0  0  0  0
M  CHG  2   5  -1   8   1
M  END
> <PUBCHEM_COMPOUND_CID>
37419

> <PUBCHEM_CONFORMER_RMSD>
0.8

> <PUBCHEM_CONFORMER_DIVERSEORDER>
1
158
86
38
76
78
34
58
160
154
41
111
115
174
165
108
152
12
82
146
104
169
98
121
93
37
122
79
119
124
171
28
120
18
54
26
135
51
167
32
133
47
67
130
30
91
80
163
27
35
89
132
21
125
128
74
75
101
29
96
56
87
9
186
157
95
140
161
151
136
156
139
19
90
83
168
141
84
16
109
117
172
150
31
63
126
166
39
3
33
24
66
159
114
137
143
73
127
2
176
77
183
142
155
81
182
71
62
102
170
103
4
147
148
45
70
68
138
17
162
107
48
64
85
22
11
10
7
123
131
55
23
49
61
99
177
69
36
134
60
180
184
44
129
175
92
13
105
8
14
57
40
42
179
20
43
181
25
185
149
46
116
100
110
118
97
50
178
113
173
15
59
53
106
187
88
5
6
164
72
153
52
65
94
144
145
112

> <PUBCHEM_MMFF94_PARTIAL_CHARGES>
21
1 -0.68
13 0.08
14 0.28
15 0.13
16 -0.15
17 -0.14
18 -0.15
19 -0.15
2 1.49
21 0.14
25 0.36
3 -0.35
34 0.15
35 0.15
36 0.15
4 -0.55
5 -0.52
6 -0.52
7 -0.9
8 0.91
9 0.27

> <PUBCHEM_EFFECTIVE_ROTOR_COUNT>
8

> <PUBCHEM_PHARMACOPHORE_FEATURES>
5
1 12 hydrophobe
1 5 acceptor
1 5 anion
1 6 acceptor
6 13 15 16 17 18 19 rings

> <PUBCHEM_HEAVY_ATOM_COUNT>
21

> <PUBCHEM_ATOM_DEF_STEREO_COUNT>
0

> <PUBCHEM_ATOM_UDEF_STEREO_COUNT>
2

> <PUBCHEM_BOND_DEF_STEREO_COUNT>
0

> <PUBCHEM_BOND_UDEF_STEREO_COUNT>
0

> <PUBCHEM_ISOTOPIC_ATOM_COUNT>
0

> <PUBCHEM_COMPONENT_COUNT>
1

> <PUBCHEM_CACTVS_TAUTO_COUNT>
2

> <PUBCHEM_CONFORMER_ID>
0000922B00000001

> <PUBCHEM_MMFF94_ENERGY>
35.8053

> <PUBCHEM_FEATURE_SELFOVERLAP>
25.453

> <PUBCHEM_SHAPE_FINGERPRINT>
10608611 8 18341051822041162513
10756046 5 18336267855549329863
11578080 2 17387988473348576737
12553582 1 18048010142553374978
18186145 218 18263083382652371265
19930381 70 18267025149160105925
20344682 6 17690002232449824499
20775438 99 17540865687140510943
21524375 3 17987807444051729937
221357 26 18339647866395007229
22393880 68 18336540504958565028
23419403 2 16470038487934901145
23557571 272 17630600116364344155
23558518 356 18057611962253707537
23559900 14 18334863762294688096
2748010 2 18051685547504620976
2871803 45 17902794063521702142
3060560 45 18051712215182856709
3084891 72 17906456876166425274
350125 39 17975973172700099512
74978 22 18335695048719505362
81228 2 17845091771084995913
9709674 26 18410295783098121303

> <PUBCHEM_SHAPE_MULTIPOLES>
406.43
7.03
4.6
1.32
0.34
0.32
-1.19
-0.45
2.15
-1.2
1.47
-0.94
-0.18
0.99

> <PUBCHEM_SHAPE_SELFOVERLAP>
789.742

> <PUBCHEM_SHAPE_VOLUME>
248.9

> <PUBCHEM_COORDINATE_TYPE>
2
5
10

$$$$

