443064
  -OEChem-07051213013D

 34 35  0     0  0  0  0  0  0999 V2000
    3.3291   -1.1948    2.5378 Cl  0  0  0  0  0  0  0  0  0  0  0  0
    5.4155    2.3041   -0.9860 Cl  0  0  0  0  0  0  0  0  0  0  0  0
    1.5983   -1.9959    0.2134 O   0  0  0  0  0  0  0  0  0  0  0  0
   -2.0441    2.0178   -0.0196 O   0  0  0  0  0  0  0  0  0  0  0  0
   -2.5805    1.1529    2.0451 O   0  0  0  0  0  0  0  0  0  0  0  0
   -4.5228   -1.7299   -1.0767 O   0  5  0  0  0  0  0  0  0  0  0  0
   -4.2955    0.1864   -0.0301 O   0  0  0  0  0  0  0  0  0  0  0  0
   -3.8198   -0.8845   -0.4750 N   0  3  0  0  0  0  0  0  0  0  0  0
   -1.6087   -0.2419    0.3733 C   0  0  0  0  0  0  0  0  0  0  0  0
    0.2761   -1.7180    0.0479 C   0  0  0  0  0  0  0  0  0  0  0  0
   -2.4342   -1.1498   -0.2901 C   0  0  0  0  0  0  0  0  0  0  0  0
   -0.2536   -0.5260    0.5422 C   0  0  0  0  0  0  0  0  0  0  0  0
   -0.5493   -2.6259   -0.6155 C   0  0  0  0  0  0  0  0  0  0  0  0
   -1.9043   -2.3417   -0.7846 C   0  0  0  0  0  0  0  0  0  0  0  0
    2.5063   -0.9832   -0.0467 C   0  0  0  0  0  0  0  0  0  0  0  0
   -2.1262    1.0137    0.9040 C   0  0  0  0  0  0  0  0  0  0  0  0
    3.3568   -0.5299    0.9462 C   0  0  0  0  0  0  0  0  0  0  0  0
    2.5316   -0.4469   -1.3230 C   0  0  0  0  0  0  0  0  0  0  0  0
   -2.5219    3.3054    0.3850 C   0  0  0  0  0  0  0  0  0  0  0  0
    4.2610    0.4914    0.6546 C   0  0  0  0  0  0  0  0  0  0  0  0
    3.4357    0.5747   -1.6144 C   0  0  0  0  0  0  0  0  0  0  0  0
    4.3004    1.0438   -0.6256 C   0  0  0  0  0  0  0  0  0  0  0  0
   -2.3498    4.2781   -0.7621 C   0  0  0  0  0  0  0  0  0  0  0  0
    0.3718    0.1842    1.0780 H   0  0  0  0  0  0  0  0  0  0  0  0
   -0.1416   -3.5556   -1.0027 H   0  0  0  0  0  0  0  0  0  0  0  0
   -2.5134   -3.0750   -1.3071 H   0  0  0  0  0  0  0  0  0  0  0  0
    1.8725   -0.8098   -2.1063 H   0  0  0  0  0  0  0  0  0  0  0  0
   -3.5813    3.2322    0.6545 H   0  0  0  0  0  0  0  0  0  0  0  0
   -1.9489    3.6494    1.2531 H   0  0  0  0  0  0  0  0  0  0  0  0
    4.9360    0.8584    1.4251 H   0  0  0  0  0  0  0  0  0  0  0  0
    3.4567    0.9939   -2.6171 H   0  0  0  0  0  0  0  0  0  0  0  0
   -2.7055    5.2747   -0.4867 H   0  0  0  0  0  0  0  0  0  0  0  0
   -1.2967    4.3464   -1.0545 H   0  0  0  0  0  0  0  0  0  0  0  0
   -2.9027    3.9359   -1.6432 H   0  0  0  0  0  0  0  0  0  0  0  0
  1 17  1  0  0  0  0
  2 22  1  0  0  0  0
  3 10  1  0  0  0  0
  3 15  1  0  0  0  0
  4 16  1  0  0  0  0
  4 19  1  0  0  0  0
  5 16  2  0  0  0  0
  6  8  1  0  0  0  0
  7  8  2  0  0  0  0
  8 11  1  0  0  0  0
  9 11  2  0  0  0  0
  9 12  1  0  0  0  0
  9 16  1  0  0  0  0
 10 12  2  0  0  0  0
 10 13  1  0  0  0  0
 11 14  1  0  0  0  0
 12 24  1  0  0  0  0
 13 14  2  0  0  0  0
 13 25  1  0  0  0  0
 14 26  1  0  0  0  0
 15 17  2  0  0  0  0
 15 18  1  0  0  0  0
 17 20  1  0  0  0  0
 18 21  2  0  0  0  0
 18 27  1  0  0  0  0
 19 23  1  0  0  0  0
 19 28  1  0  0  0  0
 19 29  1  0  0  0  0
 20 22  2  0  0  0  0
 20 30  1  0  0  0  0
 21 22  1  0  0  0  0
 21 31  1  0  0  0  0
 23 32  1  0  0  0  0
 23 33  1  0  0  0  0
 23 34  1  0  0  0  0
M  CHG  2   6  -1   8   1
M  END
> <PUBCHEM_COMPOUND_CID>
443064

> <PUBCHEM_CONFORMER_RMSD>
0.8

> <PUBCHEM_CONFORMER_DIVERSEORDER>
1
40
12
43
31
24
27
42
48
46
9
33
50
22
37
49
44
34
41
13
7
39
6
16
20
36
51
2
47
38
32
21
26
35
19
11
10
25
45
8
28
5
15
17
30
23
4
14
3
29
18

> <PUBCHEM_MMFF94_PARTIAL_CHARGES>
28
1 -0.18
10 0.08
11 0.13
12 -0.15
13 -0.15
14 -0.15
15 0.08
16 0.63
17 0.18
18 -0.15
19 0.28
2 -0.18
20 -0.15
21 -0.15
22 0.18
24 0.15
25 0.15
26 0.15
27 0.15
3 -0.17
30 0.15
31 0.15
4 -0.43
5 -0.57
6 -0.52
7 -0.52
8 0.91
9 0.09

> <PUBCHEM_EFFECTIVE_ROTOR_COUNT>
6

> <PUBCHEM_PHARMACOPHORE_FEATURES>
7
1 3 acceptor
1 5 acceptor
1 6 acceptor
1 6 anion
1 7 acceptor
6 15 17 18 20 21 22 rings
6 9 10 11 12 13 14 rings

> <PUBCHEM_HEAVY_ATOM_COUNT>
23

> <PUBCHEM_ATOM_DEF_STEREO_COUNT>
0

> <PUBCHEM_ATOM_UDEF_STEREO_COUNT>
0

> <PUBCHEM_BOND_DEF_STEREO_COUNT>
0

> <PUBCHEM_BOND_UDEF_STEREO_COUNT>
0

> <PUBCHEM_ISOTOPIC_ATOM_COUNT>
0

> <PUBCHEM_COMPONENT_COUNT>
1

> <PUBCHEM_CACTVS_TAUTO_COUNT>
1

> <PUBCHEM_CONFORMER_ID>
0006C2B800000001

> <PUBCHEM_MMFF94_ENERGY>
78.9741

> <PUBCHEM_FEATURE_SELFOVERLAP>
35.605

> <PUBCHEM_SHAPE_FINGERPRINT>
10498660 4 18408321098758746748
10670039 82 18337941325875434196
10871710 139 18411129221623638693
11595378 159 18342177773529538280
11640471 11 18201995483207709614
12173636 292 18262806284263127335
12236239 1 18200882786041085690
12403260 363 18340779237931604250
12788726 201 18410014308105755177
13583140 156 17057241356903586025
13965767 371 17914615197032377052
14251764 38 18127978717798820756
14739800 52 18192448376974130544
14790565 3 17972871738599387097
14840074 17 18339063939958267241
14957384 54 18199750430724414328
15183329 4 18338784656057904102
15575132 122 18413383241956606053
15961568 22 17974860475744992064
16988056 13 16177637753809748709
18186145 218 17750509766207525210
20715895 44 17840046348533054701
21049683 271 18126288546148283471
21864079 5 18270669969987236532
22749437 52 18194688287368721876
22907989 373 18261120715921693613
23557571 272 17676206823333707802
23558518 356 18196659720719027499
23559900 14 17823418382498981582
3268164 11 17967256390237784141
350125 39 18117833524172861671
469060 322 18122602990976624755
474 4 17559956524650163270
5252454 2 18043232742364580520
7615 1 18272375329469612978
7808743 9 18337101294533347768

> <PUBCHEM_SHAPE_MULTIPOLES>
442.74
9.55
3.72
1.58
4.92
4.02
0.74
3.83
-1.27
-3.23
-0.76
1.16
-0.22
-2.17

> <PUBCHEM_SHAPE_SELFOVERLAP>
933.622

> <PUBCHEM_SHAPE_VOLUME>
250.5

> <PUBCHEM_COORDINATE_TYPE>
2
5
10

$$$$

