7178
  -OEChem-06261201522D

 24 23  0     0  0  0  0  0  0999 V2000
    6.5010    7.8100    0.0000 Na  0  3  0  0  0  0  0  0  0  0  0  0
    3.0369    4.8100    0.0000 O   0  0  0  0  0  0  0  0  0  0  0  0
    5.6350    7.3100    0.0000 O   0  5  0  0  0  0  0  0  0  0  0  0
    6.5010    5.8100    0.0000 O   0  0  0  0  0  0  0  0  0  0  0  0
    4.7690    4.8100    0.0000 N   0  0  0  0  0  0  0  0  0  0  0  0
    3.9030    0.3100    0.0000 N   0  0  0  0  0  0  0  0  0  0  0  0
    3.9030    3.3100    0.0000 C   0  0  0  0  0  0  0  0  0  0  0  0
    4.7690    2.8100    0.0000 C   0  0  0  0  0  0  0  0  0  0  0  0
    3.0369    2.8100    0.0000 C   0  0  0  0  0  0  0  0  0  0  0  0
    3.9030    4.3100    0.0000 C   0  0  0  0  0  0  0  0  0  0  0  0
    3.9030    1.3100    0.0000 C   0  0  0  0  0  0  0  0  0  0  0  0
    4.7690    1.8100    0.0000 C   0  0  0  0  0  0  0  0  0  0  0  0
    3.0369    1.8100    0.0000 C   0  0  0  0  0  0  0  0  0  0  0  0
    4.7690    5.8100    0.0000 C   0  0  0  0  0  0  0  0  0  0  0  0
    5.6350    6.3100    0.0000 C   0  0  0  0  0  0  0  0  0  0  0  0
    5.3059    3.1200    0.0000 H   0  0  0  0  0  0  0  0  0  0  0  0
    2.5000    3.1200    0.0000 H   0  0  0  0  0  0  0  0  0  0  0  0
    5.3059    1.5000    0.0000 H   0  0  0  0  0  0  0  0  0  0  0  0
    2.5000    1.5000    0.0000 H   0  0  0  0  0  0  0  0  0  0  0  0
    5.3059    4.5000    0.0000 H   0  0  0  0  0  0  0  0  0  0  0  0
    4.5569    6.3926    0.0000 H   0  0  0  0  0  0  0  0  0  0  0  0
    4.1584    5.7023    0.0000 H   0  0  0  0  0  0  0  0  0  0  0  0
    3.3660    0.0000    0.0000 H   0  0  0  0  0  0  0  0  0  0  0  0
    4.4399    0.0000    0.0000 H   0  0  0  0  0  0  0  0  0  0  0  0
  2 10  2  0  0  0  0
  3 15  1  0  0  0  0
  4 15  2  0  0  0  0
  5 10  1  0  0  0  0
  5 14  1  0  0  0  0
  5 20  1  0  0  0  0
  6 11  1  0  0  0  0
  6 23  1  0  0  0  0
  6 24  1  0  0  0  0
  7  8  2  0  0  0  0
  7  9  1  0  0  0  0
  7 10  1  0  0  0  0
  8 12  1  0  0  0  0
  8 16  1  0  0  0  0
  9 13  2  0  0  0  0
  9 17  1  0  0  0  0
 11 12  2  0  0  0  0
 11 13  1  0  0  0  0
 12 18  1  0  0  0  0
 13 19  1  0  0  0  0
 14 15  1  0  0  0  0
 14 21  1  0  0  0  0
 14 22  1  0  0  0  0
M  CHG  2   1   1   3  -1
M  END
> <PUBCHEM_COMPOUND_CID>
7178

> <PUBCHEM_COMPOUND_CANONICALIZED>
1

> <PUBCHEM_CACTVS_COMPLEXITY>
217

> <PUBCHEM_CACTVS_HBOND_ACCEPTOR>
4

> <PUBCHEM_CACTVS_HBOND_DONOR>
2

> <PUBCHEM_CACTVS_ROTATABLE_BOND>
2

> <PUBCHEM_CACTVS_SUBSKEYS>
AAADccBzMCAAAAAAAAAAAAAAAAAAAAAAAAAwAAAAAAAAAAABAAAAHgAQAAAADAjBmAQwyILAAACIAiXSWACCAAAkAgAIiIGIZMgKIDKAlbGEIQhglgCYyYcYiQCeCAAAAAAAAAAQAAAAAAAAAAAAAAAAAA==

> <PUBCHEM_IUPAC_OPENEYE_NAME>
sodium 2-[(4-aminobenzoyl)amino]acetate

> <PUBCHEM_IUPAC_CAS_NAME>
sodium 2-[[(4-aminophenyl)-oxomethyl]amino]acetate

> <PUBCHEM_IUPAC_NAME>
sodium 2-[(4-aminobenzoyl)amino]acetate

> <PUBCHEM_IUPAC_SYSTEMATIC_NAME>
sodium 2-[(4-aminophenyl)carbonylamino]ethanoate

> <PUBCHEM_IUPAC_TRADITIONAL_NAME>
sodium 2-[(4-aminobenzoyl)amino]acetate

> <PUBCHEM_IUPAC_INCHI>
InChI=1S/C9H10N2O3.Na/c10-7-3-1-6(2-4-7)9(14)11-5-8(12)13;/h1-4H,5,10H2,(H,11,14)(H,12,13);/q;+1/p-1

> <PUBCHEM_IUPAC_INCHIKEY>
UNZMYCAEMNVPHX-UHFFFAOYSA-M

> <PUBCHEM_EXACT_MASS>
216.051086

> <PUBCHEM_MOLECULAR_FORMULA>
C9H9N2NaO3

> <PUBCHEM_MOLECULAR_WEIGHT>
216.169129

> <PUBCHEM_OPENEYE_CAN_SMILES>
C1=CC(=CC=C1C(=O)NCC(=O)[O-])N.[Na+]

> <PUBCHEM_OPENEYE_ISO_SMILES>
C1=CC(=CC=C1C(=O)NCC(=O)[O-])N.[Na+]

> <PUBCHEM_CACTVS_TPSA>
95.2

> <PUBCHEM_MONOISOTOPIC_WEIGHT>
216.051086

> <PUBCHEM_TOTAL_CHARGE>
0

> <PUBCHEM_HEAVY_ATOM_COUNT>
15

> <PUBCHEM_ATOM_DEF_STEREO_COUNT>
0

> <PUBCHEM_ATOM_UDEF_STEREO_COUNT>
0

> <PUBCHEM_BOND_DEF_STEREO_COUNT>
0

> <PUBCHEM_BOND_UDEF_STEREO_COUNT>
0

> <PUBCHEM_ISOTOPIC_ATOM_COUNT>
0

> <PUBCHEM_COMPONENT_COUNT>
2

> <PUBCHEM_CACTVS_TAUTO_COUNT>
3

> <PUBCHEM_COORDINATE_TYPE>
1
5
255

> <PUBCHEM_BONDANNOTATIONS>
11  12  8
11  13  8
7  8  8
7  9  8
8  12  8
9  13  8

$$$$

