583378
  -OEChem-06241222452D

 44 46  0     0  0  0  0  0  0999 V2000
    4.5981   -1.5670    0.0000 P   0  0  0  0  0  0  0  0  0  0  0  0
    5.4641   -2.0670    0.0000 O   0  0  0  0  0  0  0  0  0  0  0  0
    3.7320   -2.0670    0.0000 O   0  0  0  0  0  0  0  0  0  0  0  0
    6.3301    0.4330    0.0000 O   0  0  0  0  0  0  0  0  0  0  0  0
    2.8660   -2.5670    0.0000 O   0  0  0  0  0  0  0  0  0  0  0  0
    5.4641   -1.0670    0.0000 N   0  0  0  0  0  0  0  0  0  0  0  0
    4.5981    0.4330    0.0000 N   0  0  0  0  0  0  0  0  0  0  0  0
    3.7320   -0.0670    0.0000 N   0  0  0  0  0  0  0  0  0  0  0  0
    4.5981   -3.5670    0.0000 C   0  0  0  0  0  0  0  0  0  0  0  0
    5.4641   -3.0670    0.0000 C   0  0  0  0  0  0  0  0  0  0  0  0
    3.7320   -3.0670    0.0000 C   0  0  0  0  0  0  0  0  0  0  0  0
    5.0981   -4.4330    0.0000 C   0  0  0  0  0  0  0  0  0  0  0  0
    4.0981   -4.4330    0.0000 C   0  0  0  0  0  0  0  0  0  0  0  0
    3.7320   -1.0670    0.0000 C   0  0  0  0  0  0  0  0  0  0  0  0
    5.4641   -0.0670    0.0000 C   0  0  0  0  0  0  0  0  0  0  0  0
    2.8660   -1.5670    0.0000 C   0  0  0  0  0  0  0  0  0  0  0  0
    4.5981    1.4330    0.0000 C   0  0  0  0  0  0  0  0  0  0  0  0
    2.0000   -1.0670    0.0000 C   0  0  0  0  0  0  0  0  0  0  0  0
    5.4641    1.9330    0.0000 C   0  0  0  0  0  0  0  0  0  0  0  0
    3.7320    1.9330    0.0000 C   0  0  0  0  0  0  0  0  0  0  0  0
    4.5981    3.4330    0.0000 C   0  0  0  0  0  0  0  0  0  0  0  0
    5.4641    2.9330    0.0000 C   0  0  0  0  0  0  0  0  0  0  0  0
    3.7320    2.9330    0.0000 C   0  0  0  0  0  0  0  0  0  0  0  0
    4.5981    4.4330    0.0000 C   0  0  0  0  0  0  0  0  0  0  0  0
    3.1215   -2.9593    0.0000 H   0  0  0  0  0  0  0  0  0  0  0  0
    3.5200   -3.6496    0.0000 H   0  0  0  0  0  0  0  0  0  0  0  0
    5.6762   -3.6496    0.0000 H   0  0  0  0  0  0  0  0  0  0  0  0
    6.0747   -2.9593    0.0000 H   0  0  0  0  0  0  0  0  0  0  0  0
    3.5611   -4.1230    0.0000 H   0  0  0  0  0  0  0  0  0  0  0  0
    3.7881   -4.9700    0.0000 H   0  0  0  0  0  0  0  0  0  0  0  0
    4.6350   -4.7430    0.0000 H   0  0  0  0  0  0  0  0  0  0  0  0
    4.5611   -4.7430    0.0000 H   0  0  0  0  0  0  0  0  0  0  0  0
    5.4081   -4.9700    0.0000 H   0  0  0  0  0  0  0  0  0  0  0  0
    5.6350   -4.1230    0.0000 H   0  0  0  0  0  0  0  0  0  0  0  0
    2.3100   -0.5301    0.0000 H   0  0  0  0  0  0  0  0  0  0  0  0
    1.4631   -0.7570    0.0000 H   0  0  0  0  0  0  0  0  0  0  0  0
    1.6900   -1.6039    0.0000 H   0  0  0  0  0  0  0  0  0  0  0  0
    6.0010    1.6230    0.0000 H   0  0  0  0  0  0  0  0  0  0  0  0
    3.1951    1.6230    0.0000 H   0  0  0  0  0  0  0  0  0  0  0  0
    6.0010    3.2430    0.0000 H   0  0  0  0  0  0  0  0  0  0  0  0
    3.1951    3.2430    0.0000 H   0  0  0  0  0  0  0  0  0  0  0  0
    5.2181    4.4330    0.0000 H   0  0  0  0  0  0  0  0  0  0  0  0
    4.5981    5.0530    0.0000 H   0  0  0  0  0  0  0  0  0  0  0  0
    3.9781    4.4330    0.0000 H   0  0  0  0  0  0  0  0  0  0  0  0
  1  2  1  0  0  0  0
  1  3  1  0  0  0  0
  1  6  2  0  0  0  0
  1 14  1  0  0  0  0
  2 10  1  0  0  0  0
  3 11  1  0  0  0  0
  4 15  2  0  0  0  0
  5 16  2  0  0  0  0
  6 15  1  0  0  0  0
  7  8  1  0  0  0  0
  7 15  1  0  0  0  0
  7 17  1  0  0  0  0
  8 14  2  0  0  0  0
  9 10  1  0  0  0  0
  9 11  1  0  0  0  0
  9 12  1  0  0  0  0
  9 13  1  0  0  0  0
 10 27  1  0  0  0  0
 10 28  1  0  0  0  0
 11 25  1  0  0  0  0
 11 26  1  0  0  0  0
 12 32  1  0  0  0  0
 12 33  1  0  0  0  0
 12 34  1  0  0  0  0
 13 29  1  0  0  0  0
 13 30  1  0  0  0  0
 13 31  1  0  0  0  0
 14 16  1  0  0  0  0
 16 18  1  0  0  0  0
 17 19  2  0  0  0  0
 17 20  1  0  0  0  0
 18 35  1  0  0  0  0
 18 36  1  0  0  0  0
 18 37  1  0  0  0  0
 19 22  1  0  0  0  0
 19 38  1  0  0  0  0
 20 23  2  0  0  0  0
 20 39  1  0  0  0  0
 21 22  2  0  0  0  0
 21 23  1  0  0  0  0
 21 24  1  0  0  0  0
 22 40  1  0  0  0  0
 23 41  1  0  0  0  0
 24 42  1  0  0  0  0
 24 43  1  0  0  0  0
 24 44  1  0  0  0  0
M  END
> <PUBCHEM_COMPOUND_CID>
583378

> <PUBCHEM_COMPOUND_CANONICALIZED>
1

> <PUBCHEM_CACTVS_COMPLEXITY>
621

> <PUBCHEM_CACTVS_HBOND_ACCEPTOR>
5

> <PUBCHEM_CACTVS_HBOND_DONOR>
0

> <PUBCHEM_CACTVS_ROTATABLE_BOND>
2

> <PUBCHEM_CACTVS_SUBSKEYS>
AAADceB7OAIAAAAAAAAAAAAAAAAAAAAAAAA0QIAAAAAAAAABAAAAHggIgCAADgyhmAIzwIIAARCogqRyUACSBAAhAgAeiAAgZIiIICLAkZGEIAhhjAJIyCcQgAAOCAAAAAAAAAAQAAAAAAAAAAAAAAAAAA==

> <PUBCHEM_IUPAC_OPENEYE_NAME>
5-acetyl-9,9-dimethyl-3-(p-tolyl)-7,11-dioxa-1,3,4-triaza-6$l^{5}-phosphaspiro[5.5]undeca-1(6),4-dien-2-one

> <PUBCHEM_IUPAC_CAS_NAME>
5-acetyl-9,9-dimethyl-3-(4-methylphenyl)-7,11-dioxa-1,3,4-triaza-6$l^{5}-phosphaspiro[5.5]undeca-1(6),4-dien-2-one

> <PUBCHEM_IUPAC_NAME>
5-acetyl-9,9-dimethyl-3-(4-methylphenyl)-7,11-dioxa-1,3,4-triaza-6$l^{5}-phosphaspiro[5.5]undeca-1(6),4-dien-2-one

> <PUBCHEM_IUPAC_SYSTEMATIC_NAME>
5-ethanoyl-9,9-dimethyl-3-(4-methylphenyl)-7,11-dioxa-1,3,4-triaza-6$l^{5}-phosphaspiro[5.5]undeca-1(6),4-dien-2-one

> <PUBCHEM_IUPAC_TRADITIONAL_NAME>
5-acetyl-9,9-dimethyl-3-(p-tolyl)-7,11-dioxa-1,3,4-triaza-6$l^{5}-phosphaspiro[5.5]undeca-1(6),4-dien-2-one

> <PUBCHEM_IUPAC_INCHI>
InChI=1S/C16H20N3O4P/c1-11-5-7-13(8-6-11)19-15(21)18-24(14(17-19)12(2)20)22-9-16(3,4)10-23-24/h5-8H,9-10H2,1-4H3

> <PUBCHEM_IUPAC_INCHIKEY>
SBBGFWJWHVSGJP-UHFFFAOYSA-N

> <PUBCHEM_XLOGP3_AA>
2.7

> <PUBCHEM_EXACT_MASS>
349.119143

> <PUBCHEM_MOLECULAR_FORMULA>
C16H20N3O4P

> <PUBCHEM_MOLECULAR_WEIGHT>
349.321462

> <PUBCHEM_OPENEYE_CAN_SMILES>
CC1=CC=C(C=C1)N2C(=O)N=P3(C(=N2)C(=O)C)OCC(CO3)(C)C

> <PUBCHEM_OPENEYE_ISO_SMILES>
CC1=CC=C(C=C1)N2C(=O)N=P3(C(=N2)C(=O)C)OCC(CO3)(C)C

> <PUBCHEM_CACTVS_TPSA>
80.6

> <PUBCHEM_MONOISOTOPIC_WEIGHT>
349.119143

> <PUBCHEM_TOTAL_CHARGE>
0

> <PUBCHEM_HEAVY_ATOM_COUNT>
24

> <PUBCHEM_ATOM_DEF_STEREO_COUNT>
0

> <PUBCHEM_ATOM_UDEF_STEREO_COUNT>
0

> <PUBCHEM_BOND_DEF_STEREO_COUNT>
0

> <PUBCHEM_BOND_UDEF_STEREO_COUNT>
0

> <PUBCHEM_ISOTOPIC_ATOM_COUNT>
0

> <PUBCHEM_COMPONENT_COUNT>
1

> <PUBCHEM_CACTVS_TAUTO_COUNT>
2

> <PUBCHEM_COORDINATE_TYPE>
1
5
255

> <PUBCHEM_BONDANNOTATIONS>
17  19  8
17  20  8
19  22  8
20  23  8
21  22  8
21  23  8

$$$$

