440961
  -OEChem-07051212513D

 65 67  0     1  0  0  0  0  0999 V2000
   -1.9812   -1.8226   -2.1017 P   0  0  1  0  0  0  0  0  0  0  0  0
    0.1414   -3.7172   -1.3521 P   0  0  2  0  0  0  0  0  0  0  0  0
    3.6312   -1.5887    0.0461 O   0  0  0  0  0  0  0  0  0  0  0  0
   -1.3555    0.7431    0.3735 O   0  0  0  0  0  0  0  0  0  0  0  0
    4.4365   -2.0931    2.8899 O   0  0  0  0  0  0  0  0  0  0  0  0
    3.6482    0.5173    2.9485 O   0  0  0  0  0  0  0  0  0  0  0  0
   -2.2741   -0.3442   -1.5234 O   0  0  0  0  0  0  0  0  0  0  0  0
   -5.1824    2.3603    0.1682 O   0  0  0  0  0  0  0  0  0  0  0  0
   -2.9018    3.9604   -0.5191 O   0  0  0  0  0  0  0  0  0  0  0  0
    1.5687   -3.3545   -0.6826 O   0  0  0  0  0  0  0  0  0  0  0  0
   -0.6347   -2.2993   -1.3447 O   0  0  0  0  0  0  0  0  0  0  0  0
   -0.2297    4.0529    0.1472 O   0  0  0  0  0  0  0  0  0  0  0  0
    0.3775    2.2673    1.4274 O   0  0  0  0  0  0  0  0  0  0  0  0
   -3.1275   -2.7532   -1.4403 O   0  0  0  0  0  0  0  0  0  0  0  0
    4.9638    2.2768    0.4610 O   0  0  0  0  0  0  0  0  0  0  0  0
   -0.6255   -4.5574   -0.2020 O   0  0  0  0  0  0  0  0  0  0  0  0
   -1.9066   -1.9021   -3.5990 O   0  0  0  0  0  0  0  0  0  0  0  0
    0.2029   -4.3885   -2.6930 O   0  0  0  0  0  0  0  0  0  0  0  0
   -4.8762   -1.8522    1.7164 O   0  0  0  0  0  0  0  0  0  0  0  0
    1.9562    3.5391   -2.7956 O   0  0  0  0  0  0  0  0  0  0  0  0
    3.3682    0.7174   -0.2327 N   0  0  0  0  0  0  0  0  0  0  0  0
   -3.9885    0.2987    1.6623 N   0  0  0  0  0  0  0  0  0  0  0  0
    3.4646    2.9038   -1.1601 N   0  0  0  0  0  0  0  0  0  0  0  0
    3.1481   -1.7876    2.3566 C   0  0  1  0  0  0  0  0  0  0  0  0
    3.0725   -0.3253    1.9714 C   0  0  2  0  0  0  0  0  0  0  0  0
    3.0231   -2.4801    1.0063 C   0  0  1  0  0  0  0  0  0  0  0  0
    3.8365   -0.3052    0.6588 C   0  0  1  0  0  0  0  0  0  0  0  0
   -3.7646    0.3833    0.2338 C   0  0  1  0  0  0  0  0  0  0  0  0
   -3.9415    1.8183   -0.2780 C   0  0  2  0  0  0  0  0  0  0  0  0
   -2.7954    2.7204    0.1800 C   0  0  1  0  0  0  0  0  0  0  0  0
   -2.3676   -0.1411   -0.1156 C   0  0  2  0  0  0  0  0  0  0  0  0
   -1.4504    2.0702   -0.1360 C   0  0  1  0  0  0  0  0  0  0  0  0
    1.5797   -2.7192    0.5837 C   0  0  0  0  0  0  0  0  0  0  0  0
   -0.3386    2.7713    0.5750 C   0  0  0  0  0  0  0  0  0  0  0  0
    4.0037    1.9812   -0.2537 C   0  0  0  0  0  0  0  0  0  0  0  0
    2.2910    0.4643   -1.0740 C   0  0  0  0  0  0  0  0  0  0  0  0
   -4.5268   -0.8170    2.2774 C   0  0  0  0  0  0  0  0  0  0  0  0
    1.7885    1.3539   -1.9328 C   0  0  0  0  0  0  0  0  0  0  0  0
    2.3944    2.6980   -2.0167 C   0  0  0  0  0  0  0  0  0  0  0  0
   -4.6279   -0.6496    3.7699 C   0  0  0  0  0  0  0  0  0  0  0  0
    2.3979   -2.0831    3.0957 H   0  0  0  0  0  0  0  0  0  0  0  0
    2.0271   -0.0273    1.8289 H   0  0  0  0  0  0  0  0  0  0  0  0
    3.5847   -3.4200    0.9620 H   0  0  0  0  0  0  0  0  0  0  0  0
    4.9127   -0.1790    0.8282 H   0  0  0  0  0  0  0  0  0  0  0  0
   -4.5216   -0.2463   -0.2512 H   0  0  0  0  0  0  0  0  0  0  0  0
   -3.9798    1.8182   -1.3750 H   0  0  0  0  0  0  0  0  0  0  0  0
   -2.8967    2.9432    1.2491 H   0  0  0  0  0  0  0  0  0  0  0  0
   -2.2012   -1.0960    0.3954 H   0  0  0  0  0  0  0  0  0  0  0  0
   -1.2238    2.0709   -1.2088 H   0  0  0  0  0  0  0  0  0  0  0  0
    1.0083   -1.7891    0.5311 H   0  0  0  0  0  0  0  0  0  0  0  0
    1.1009   -3.3740    1.3182 H   0  0  0  0  0  0  0  0  0  0  0  0
   -3.6751    1.0708    2.2432 H   0  0  0  0  0  0  0  0  0  0  0  0
    4.4513   -3.0454    3.0861 H   0  0  0  0  0  0  0  0  0  0  0  0
    3.1729    0.3642    3.7829 H   0  0  0  0  0  0  0  0  0  0  0  0
   -5.8866    1.7563   -0.1232 H   0  0  0  0  0  0  0  0  0  0  0  0
   -2.2173    4.5563   -0.1712 H   0  0  0  0  0  0  0  0  0  0  0  0
    1.8329   -0.5124   -1.0294 H   0  0  0  0  0  0  0  0  0  0  0  0
    3.9055    3.8188   -1.1920 H   0  0  0  0  0  0  0  0  0  0  0  0
    0.9464    1.1205   -2.5728 H   0  0  0  0  0  0  0  0  0  0  0  0
   -3.6299   -0.7149    4.2117 H   0  0  0  0  0  0  0  0  0  0  0  0
   -5.2592   -1.4391    4.1868 H   0  0  0  0  0  0  0  0  0  0  0  0
   -5.0726    0.3192    4.0151 H   0  0  0  0  0  0  0  0  0  0  0  0
    0.4966    4.5303    0.6019 H   0  0  0  0  0  0  0  0  0  0  0  0
   -3.2269   -3.6773   -1.7537 H   0  0  0  0  0  0  0  0  0  0  0  0
   -0.8130   -4.1369    0.6636 H   0  0  0  0  0  0  0  0  0  0  0  0
  1  7  1  0  0  0  0
  1 11  1  0  0  0  0
  1 14  1  0  0  0  0
  1 17  2  0  0  0  0
  2 10  1  0  0  0  0
  2 11  1  0  0  0  0
  2 16  1  0  0  0  0
  2 18  2  0  0  0  0
  3 26  1  0  0  0  0
  3 27  1  0  0  0  0
  4 31  1  0  0  0  0
  4 32  1  0  0  0  0
  5 24  1  0  0  0  0
  5 53  1  0  0  0  0
  6 25  1  0  0  0  0
  6 54  1  0  0  0  0
  7 31  1  0  0  0  0
  8 29  1  0  0  0  0
  8 55  1  0  0  0  0
  9 30  1  0  0  0  0
  9 56  1  0  0  0  0
 10 33  1  0  0  0  0
 12 34  1  0  0  0  0
 12 63  1  0  0  0  0
 13 34  2  0  0  0  0
 14 64  1  0  0  0  0
 15 35  2  0  0  0  0
 16 65  1  0  0  0  0
 19 37  2  0  0  0  0
 20 39  2  0  0  0  0
 21 27  1  0  0  0  0
 21 35  1  0  0  0  0
 21 36  1  0  0  0  0
 22 28  1  0  0  0  0
 22 37  1  0  0  0  0
 22 52  1  0  0  0  0
 23 35  1  0  0  0  0
 23 39  1  0  0  0  0
 23 58  1  0  0  0  0
 24 25  1  0  0  0  0
 24 26  1  0  0  0  0
 24 41  1  0  0  0  0
 25 27  1  0  0  0  0
 25 42  1  0  0  0  0
 26 33  1  0  0  0  0
 26 43  1  0  0  0  0
 27 44  1  0  0  0  0
 28 29  1  0  0  0  0
 28 31  1  0  0  0  0
 28 45  1  0  0  0  0
 29 30  1  0  0  0  0
 29 46  1  0  0  0  0
 30 32  1  0  0  0  0
 30 47  1  0  0  0  0
 31 48  1  0  0  0  0
 32 34  1  0  0  0  0
 32 49  1  0  0  0  0
 33 50  1  0  0  0  0
 33 51  1  0  0  0  0
 36 38  2  0  0  0  0
 36 57  1  0  0  0  0
 37 40  1  0  0  0  0
 38 39  1  0  0  0  0
 38 59  1  0  0  0  0
 40 60  1  0  0  0  0
 40 61  1  0  0  0  0
 40 62  1  0  0  0  0
M  END
> <PUBCHEM_COMPOUND_CID>
440961

> <PUBCHEM_CONFORMER_RMSD>
1.4

> <PUBCHEM_CONFORMER_DIVERSEORDER>
1
89
134
51
120
67
104
115
60
124
59
97
58
45
99
92
2
79
57
113
12
71
9
28
46
129
135
128
30
121
43
41
21
91
69
20
119
44
140
55
112
4
23
73
106
139
70
86
88
40
87
114
138
42
83
118
24
10
132
34
6
63
93
77
101
74
76
95
8
66
84
72
38
98
102
108
29
123
142
19
27
17
49
103
39
122
116
54
107
62
105
90
56
111
131
15
127
126
32
36
125
26
65
16
100
78
75
117
94
53
37
22
137
31
130
109
52
136
85
48
82
68
81
133
11
35
5
7
3
64
18
96
50
33
80
14
25
13
47
61
110
141

> <PUBCHEM_MMFF94_PARTIAL_CHARGES>
51
1 1.51
10 -0.55
11 -0.54
12 -0.65
13 -0.57
14 -0.77
15 -0.57
16 -0.77
17 -0.7
18 -0.7
19 -0.57
2 1.51
20 -0.57
21 -0.47
22 -0.73
23 -0.49
24 0.28
25 0.28
26 0.28
27 0.58
28 0.3
29 0.28
3 -0.56
30 0.28
31 0.56
32 0.34
33 0.28
34 0.66
35 0.69
36 -0.04
37 0.57
38 -0.14
39 0.62
4 -0.56
40 0.06
5 -0.68
52 0.37
53 0.4
54 0.4
55 0.4
56 0.4
57 0.15
58 0.37
59 0.15
6 -0.68
63 0.5
64 0.5
65 0.5
7 -0.55
8 -0.68
9 -0.68

> <PUBCHEM_EFFECTIVE_ROTOR_COUNT>
13.2

> <PUBCHEM_PHARMACOPHORE_FEATURES>
25
1 12 acceptor
1 13 acceptor
1 14 acceptor
1 15 acceptor
1 16 acceptor
1 17 acceptor
1 18 acceptor
1 19 acceptor
1 20 acceptor
1 22 donor
1 23 donor
1 3 acceptor
1 4 acceptor
1 5 acceptor
1 5 donor
1 6 acceptor
1 6 donor
1 8 acceptor
1 8 donor
1 9 acceptor
1 9 donor
3 12 13 34 anion
5 3 24 25 26 27 rings
6 21 23 35 36 38 39 rings
6 4 28 29 30 31 32 rings

> <PUBCHEM_HEAVY_ATOM_COUNT>
40

> <PUBCHEM_ATOM_DEF_STEREO_COUNT>
9

> <PUBCHEM_ATOM_UDEF_STEREO_COUNT>
0

> <PUBCHEM_BOND_DEF_STEREO_COUNT>
0

> <PUBCHEM_BOND_UDEF_STEREO_COUNT>
0

> <PUBCHEM_ISOTOPIC_ATOM_COUNT>
0

> <PUBCHEM_COMPONENT_COUNT>
1

> <PUBCHEM_CACTVS_TAUTO_COUNT>
6

> <PUBCHEM_CONFORMER_ID>
0006BA8100000001

> <PUBCHEM_MMFF94_ENERGY>
49.2059

> <PUBCHEM_FEATURE_SELFOVERLAP>
126.984

> <PUBCHEM_SHAPE_FINGERPRINT>
11513181 2 18114190743898568870
12107698 1 18201993348419254914
12788726 201 18046075864859886711
14950920 106 17846502555793327139
150020 26 17755568687763174115
15264996 19 17189781599669393703
15297060 5 18040429971931077762
15420108 30 18339658818999227636
19319366 153 17770489846699583368
20764821 26 18188794801980165937
21315759 227 17489586714614144329
23559900 14 17975695309569494660
3493558 16 16309654959942705521
469060 322 18261686891585847883
50150288 127 16468054461762342797

> <PUBCHEM_SHAPE_MULTIPOLES>
710.29
9.56
5.82
3.22
3.34
1.09
0.61
-2.01
6.65
-0.85
-3.19
0.54
2.03
-1.86

> <PUBCHEM_SHAPE_SELFOVERLAP>
1457.686

> <PUBCHEM_SHAPE_VOLUME>
409.3

> <PUBCHEM_COORDINATE_TYPE>
2
5
10

$$$$

