17395467
  -OEChem-06241222503D

 34 35  0     0  0  0  0  0  0999 V2000
    0.3971    0.5036    0.3174 S   0  0  0  0  0  0  0  0  0  0  0  0
   -6.1107    1.3255   -0.0500 F   0  0  0  0  0  0  0  0  0  0  0  0
    3.7787   -1.4417    0.2216 O   0  0  0  0  0  0  0  0  0  0  0  0
    3.3120    0.7864    0.5927 N   0  0  0  0  0  0  0  0  0  0  0  0
   -0.5406   -1.8579   -0.1588 N   0  0  0  0  0  0  0  0  0  0  0  0
    4.6807    1.1985    0.7382 C   0  0  0  0  0  0  0  0  0  0  0  0
    5.3067    1.6111   -0.5885 C   0  0  0  0  0  0  0  0  0  0  0  0
    1.5137   -0.7912    0.1836 C   0  0  0  0  0  0  0  0  0  0  0  0
    0.8338   -1.9641   -0.0696 C   0  0  0  0  0  0  0  0  0  0  0  0
   -0.8828   -0.6027    0.0286 C   0  0  0  0  0  0  0  0  0  0  0  0
    2.9528   -0.5370    0.3386 C   0  0  0  0  0  0  0  0  0  0  0  0
   -2.2371   -0.1027    0.0082 C   0  0  0  0  0  0  0  0  0  0  0  0
    4.5929    2.7902   -1.2344 C   0  0  0  0  0  0  0  0  0  0  0  0
    1.4395   -3.2995   -0.2508 C   0  0  0  0  0  0  0  0  0  0  0  0
   -3.2428   -0.8400   -0.6166 C   0  0  0  0  0  0  0  0  0  0  0  0
   -2.5398    1.1171    0.6134 C   0  0  0  0  0  0  0  0  0  0  0  0
   -4.5514   -0.3576   -0.6362 C   0  0  0  0  0  0  0  0  0  0  0  0
   -3.8484    1.5996    0.5936 C   0  0  0  0  0  0  0  0  0  0  0  0
   -4.8542    0.8622   -0.0311 C   0  0  0  0  0  0  0  0  0  0  0  0
    5.2605    0.3817    1.1814 H   0  0  0  0  0  0  0  0  0  0  0  0
    4.6942    2.0369    1.4429 H   0  0  0  0  0  0  0  0  0  0  0  0
    6.3558    1.8796   -0.4187 H   0  0  0  0  0  0  0  0  0  0  0  0
    5.2990    0.7653   -1.2861 H   0  0  0  0  0  0  0  0  0  0  0  0
    2.5870    1.4941    0.6676 H   0  0  0  0  0  0  0  0  0  0  0  0
    3.5620    2.5377   -1.5015 H   0  0  0  0  0  0  0  0  0  0  0  0
    4.5739    3.6536   -0.5616 H   0  0  0  0  0  0  0  0  0  0  0  0
    5.1118    3.0869   -2.1514 H   0  0  0  0  0  0  0  0  0  0  0  0
    1.9971   -3.5976    0.6427 H   0  0  0  0  0  0  0  0  0  0  0  0
    0.6715   -4.0586   -0.4321 H   0  0  0  0  0  0  0  0  0  0  0  0
    2.1204   -3.3038   -1.1077 H   0  0  0  0  0  0  0  0  0  0  0  0
   -3.0311   -1.7918   -1.0977 H   0  0  0  0  0  0  0  0  0  0  0  0
   -1.8110    1.7265    1.1389 H   0  0  0  0  0  0  0  0  0  0  0  0
   -5.3348   -0.9308   -1.1232 H   0  0  0  0  0  0  0  0  0  0  0  0
   -4.0867    2.5465    1.0693 H   0  0  0  0  0  0  0  0  0  0  0  0
  1  8  1  0  0  0  0
  1 10  1  0  0  0  0
  2 19  1  0  0  0  0
  3 11  2  0  0  0  0
  4  6  1  0  0  0  0
  4 11  1  0  0  0  0
  4 24  1  0  0  0  0
  5  9  1  0  0  0  0
  5 10  2  0  0  0  0
  6  7  1  0  0  0  0
  6 20  1  0  0  0  0
  6 21  1  0  0  0  0
  7 13  1  0  0  0  0
  7 22  1  0  0  0  0
  7 23  1  0  0  0  0
  8  9  2  0  0  0  0
  8 11  1  0  0  0  0
  9 14  1  0  0  0  0
 10 12  1  0  0  0  0
 12 15  2  0  0  0  0
 12 16  1  0  0  0  0
 13 25  1  0  0  0  0
 13 26  1  0  0  0  0
 13 27  1  0  0  0  0
 14 28  1  0  0  0  0
 14 29  1  0  0  0  0
 14 30  1  0  0  0  0
 15 17  1  0  0  0  0
 15 31  1  0  0  0  0
 16 18  2  0  0  0  0
 16 32  1  0  0  0  0
 17 19  2  0  0  0  0
 17 33  1  0  0  0  0
 18 19  1  0  0  0  0
 18 34  1  0  0  0  0
M  END
> <PUBCHEM_COMPOUND_CID>
17395467

> <PUBCHEM_CONFORMER_RMSD>
0.6

> <PUBCHEM_CONFORMER_DIVERSEORDER>
1
20
15
12
13
18
21
10
4
16
11
14
9
24
6
2
19
8
5
7
23
22
3
17

> <PUBCHEM_MMFF94_PARTIAL_CHARGES>
22
1 -0.08
10 0.33
11 0.71
12 0.05
14 0.18
15 -0.15
16 -0.15
17 -0.15
18 -0.15
19 0.19
2 -0.19
24 0.37
3 -0.57
31 0.15
32 0.15
33 0.15
34 0.15
4 -0.73
5 -0.57
6 0.3
8 -0.05
9 0.05

> <PUBCHEM_EFFECTIVE_ROTOR_COUNT>
5

> <PUBCHEM_PHARMACOPHORE_FEATURES>
6
1 13 hydrophobe
1 3 acceptor
1 4 donor
1 5 acceptor
5 1 5 8 9 10 rings
6 12 15 16 17 18 19 rings

> <PUBCHEM_HEAVY_ATOM_COUNT>
19

> <PUBCHEM_ATOM_DEF_STEREO_COUNT>
0

> <PUBCHEM_ATOM_UDEF_STEREO_COUNT>
0

> <PUBCHEM_BOND_DEF_STEREO_COUNT>
0

> <PUBCHEM_BOND_UDEF_STEREO_COUNT>
0

> <PUBCHEM_ISOTOPIC_ATOM_COUNT>
0

> <PUBCHEM_COMPONENT_COUNT>
1

> <PUBCHEM_CACTVS_TAUTO_COUNT>
2

> <PUBCHEM_CONFORMER_ID>
01096F0B00000001

> <PUBCHEM_MMFF94_ENERGY>
29.1598

> <PUBCHEM_FEATURE_SELFOVERLAP>
30.446

> <PUBCHEM_SHAPE_FINGERPRINT>
10411042 1 17689436413817971810
10670039 82 18337941364451382220
11796584 16 4823209489895626365
12390115 104 18262784181976339090
12596602 18 17346600746629067225
12892183 10 14907918088474199212
14251764 30 5545192878668904797
14528608 73 18334579027126673764
14767858 380 18190756245336579911
14774955 27 18343022168532230956
14790565 3 18409726240270290736
14840074 17 17631726072121911284
15142526 21 17630607817494121456
15183329 4 18335126610757936948
15196674 1 18335706048246846891
15342168 16 18343019956718908812
17834072 32 18269552737509098156
17980427 23 17703223997566492095
18222031 100 10879995778613513218
18785283 64 18270684281124572754
19784866 140 6194568787796823749
204376 136 18413107238562248490
20612939 158 18335419127093375246
21267235 1 18188205532905316303
2255824 54 18192150618742853795
22620623 9 16516823432945187991
23366157 5 18269271442657607562
23402655 69 18114187436198249871
23559900 14 17824831271735544279
245318 6 17629745800061785276
25147074 1 18338817632168702674
335352 9 18410011044911720782
3472631 163 18268702810910730252
34797466 226 15864358990995582569
3545911 37 18336548321830880155
394222 165 18342745139063333418
474 4 18342457036629733216
5104073 3 18410295839217949235
6034566 193 18055050096088146412
633830 44 18409169930536626670
7970288 3 8718560388904467324
9999458 23 18272368724327318046

> <PUBCHEM_SHAPE_MULTIPOLES>
371.76
12.22
2.77
0.86
1.85
1.16
-0.08
-9.57
-1.39
-2.63
-0.53
-0.41
-0.31
-1.25

> <PUBCHEM_SHAPE_SELFOVERLAP>
772.584

> <PUBCHEM_SHAPE_VOLUME>
214.8

> <PUBCHEM_COORDINATE_TYPE>
2
5
10

$$$$

