439315
  -OEChem-07051212453D

 25 24  0     1  0  0  0  0  0999 V2000
    0.9841   -1.2955    1.3827 O   0  0  0  0  0  0  0  0  0  0  0  0
   -0.4435    0.5254   -1.4323 O   0  0  0  0  0  0  0  0  0  0  0  0
    3.2619   -1.1403   -0.3296 O   0  0  0  0  0  0  0  0  0  0  0  0
   -1.9289   -1.6776   -0.3694 O   0  0  0  0  0  0  0  0  0  0  0  0
    3.8082    1.6342   -0.0800 O   0  0  0  0  0  0  0  0  0  0  0  0
   -2.7385    1.5725    0.9438 O   0  0  0  0  0  0  0  0  0  0  0  0
   -3.7857    0.2606   -0.5832 O   0  0  0  0  0  0  0  0  0  0  0  0
    0.8828   -0.8452    0.0354 C   0  0  1  0  0  0  0  0  0  0  0  0
   -0.3243    0.1138   -0.0674 C   0  0  2  0  0  0  0  0  0  0  0  0
    2.2047   -0.1850   -0.4160 C   0  0  1  0  0  0  0  0  0  0  0  0
   -1.6751   -0.4878    0.3646 C   0  0  1  0  0  0  0  0  0  0  0  0
    2.5940    1.0609    0.3844 C   0  0  0  0  0  0  0  0  0  0  0  0
   -2.8397    0.4638    0.1670 C   0  0  0  0  0  0  0  0  0  0  0  0
    0.7129   -1.7297   -0.5910 H   0  0  0  0  0  0  0  0  0  0  0  0
   -0.1477    1.0067    0.5417 H   0  0  0  0  0  0  0  0  0  0  0  0
    2.1365    0.0844   -1.4760 H   0  0  0  0  0  0  0  0  0  0  0  0
   -1.6534   -0.7681    1.4232 H   0  0  0  0  0  0  0  0  0  0  0  0
    2.7473    0.8097    1.4388 H   0  0  0  0  0  0  0  0  0  0  0  0
    1.8293    1.8393    0.3263 H   0  0  0  0  0  0  0  0  0  0  0  0
    1.6723   -1.9811    1.4128 H   0  0  0  0  0  0  0  0  0  0  0  0
   -1.0588    1.2772   -1.4647 H   0  0  0  0  0  0  0  0  0  0  0  0
    3.4440   -1.3029    0.6113 H   0  0  0  0  0  0  0  0  0  0  0  0
   -1.8751   -1.4594   -1.3157 H   0  0  0  0  0  0  0  0  0  0  0  0
    3.6874    1.8509   -1.0202 H   0  0  0  0  0  0  0  0  0  0  0  0
   -3.5009    2.1771    0.8196 H   0  0  0  0  0  0  0  0  0  0  0  0
  1  8  1  0  0  0  0
  1 20  1  0  0  0  0
  2  9  1  0  0  0  0
  2 21  1  0  0  0  0
  3 10  1  0  0  0  0
  3 22  1  0  0  0  0
  4 11  1  0  0  0  0
  4 23  1  0  0  0  0
  5 12  1  0  0  0  0
  5 24  1  0  0  0  0
  6 13  1  0  0  0  0
  6 25  1  0  0  0  0
  7 13  2  0  0  0  0
  8  9  1  0  0  0  0
  8 10  1  0  0  0  0
  8 14  1  0  0  0  0
  9 11  1  0  0  0  0
  9 15  1  0  0  0  0
 10 12  1  0  0  0  0
 10 16  1  0  0  0  0
 11 13  1  0  0  0  0
 11 17  1  0  0  0  0
 12 18  1  0  0  0  0
 12 19  1  0  0  0  0
M  END
> <PUBCHEM_COMPOUND_CID>
439315

> <PUBCHEM_CONFORMER_RMSD>
0.6

> <PUBCHEM_CONFORMER_DIVERSEORDER>
1
19
33
28
44
47
25
15
39
31
11
20
8
40
42
10
13
22
14
26
24
18
48
46
27
5
21
36
30
3
35
4
29
37
41
16
32
45
17
9
43
7
23
38
6
2
34
12

> <PUBCHEM_MMFF94_PARTIAL_CHARGES>
19
1 -0.68
10 0.28
11 0.34
12 0.28
13 0.66
2 -0.68
20 0.4
21 0.4
22 0.4
23 0.4
24 0.4
25 0.5
3 -0.68
4 -0.68
5 -0.68
6 -0.65
7 -0.57
8 0.28
9 0.28

> <PUBCHEM_EFFECTIVE_ROTOR_COUNT>
5

> <PUBCHEM_PHARMACOPHORE_FEATURES>
13
1 1 acceptor
1 1 donor
1 2 acceptor
1 2 donor
1 3 acceptor
1 3 donor
1 4 acceptor
1 4 donor
1 5 acceptor
1 5 donor
1 6 acceptor
1 7 acceptor
3 6 7 13 anion

> <PUBCHEM_HEAVY_ATOM_COUNT>
13

> <PUBCHEM_ATOM_DEF_STEREO_COUNT>
4

> <PUBCHEM_ATOM_UDEF_STEREO_COUNT>
0

> <PUBCHEM_BOND_DEF_STEREO_COUNT>
0

> <PUBCHEM_BOND_UDEF_STEREO_COUNT>
0

> <PUBCHEM_ISOTOPIC_ATOM_COUNT>
0

> <PUBCHEM_COMPONENT_COUNT>
1

> <PUBCHEM_CACTVS_TAUTO_COUNT>
1

> <PUBCHEM_CONFORMER_ID>
0006B41300000001

> <PUBCHEM_MMFF94_ENERGY>
23.0469

> <PUBCHEM_FEATURE_SELFOVERLAP>
66.051

> <PUBCHEM_SHAPE_FINGERPRINT>
10857977 72 16558458755944676897
12162725 195 18113897195108944033
12346645 44 18412827967040722440
12491281 212 18334561452088785225
12932764 1 17917435366631206662
14325111 11 18409446964490298306
14390081 3 18408884040222362833
14993402 34 18343304799203193503
15775835 57 18272654523902916456
170605 34 18411138022048122568
18186145 218 18341606040594732708
20528008 55 18411705382922498357
20711983 171 17676199212656888601
21293036 1 14634870825272026696
23402539 116 17967540099272806429
3248919 1 18114188548520997950
449060 50 18340764845216529557
7364860 26 18269281321182439954
8030462 33 15140948587033567286
93112 12 18260544532815142134
9939556 21 18260831518335211190

> <PUBCHEM_SHAPE_MULTIPOLES>
226.45
6.05
1.51
0.96
0.39
0.05
0.02
1.99
-0.23
0.42
0.21
-0.12
-0.02
-0.23

> <PUBCHEM_SHAPE_SELFOVERLAP>
434.938

> <PUBCHEM_SHAPE_VOLUME>
137.3

> <PUBCHEM_COORDINATE_TYPE>
2
5
10

$$$$

