440988
  -OEChem-07051212513D

 37 39  0     1  0  0  0  0  0999 V2000
    3.6643    2.8294    0.0752 O   0  0  0  0  0  0  0  0  0  0  0  0
    5.5242    0.7940   -0.2519 O   0  0  0  0  0  0  0  0  0  0  0  0
   -6.2434    0.7282    0.4429 O   0  0  0  0  0  0  0  0  0  0  0  0
   -0.2552   -1.8469    0.7523 N   0  0  0  0  0  0  0  0  0  0  0  0
    0.0123   -0.4372    0.4099 C   0  0  1  0  0  0  0  0  0  0  0  0
    1.4863   -0.1175    0.2410 C   0  0  0  0  0  0  0  0  0  0  0  0
    2.4309   -1.1455    0.0664 C   0  0  0  0  0  0  0  0  0  0  0  0
    2.0070   -2.5902    0.1174 C   0  0  0  0  0  0  0  0  0  0  0  0
    0.5048   -2.7669   -0.0955 C   0  0  0  0  0  0  0  0  0  0  0  0
   -0.7981   -0.0280   -0.8257 C   0  0  0  0  0  0  0  0  0  0  0  0
    1.9199    1.2174    0.2404 C   0  0  0  0  0  0  0  0  0  0  0  0
   -2.2472    0.1732   -0.4878 C   0  0  0  0  0  0  0  0  0  0  0  0
    3.7864   -0.8250   -0.0919 C   0  0  0  0  0  0  0  0  0  0  0  0
    3.2696    1.5260    0.0721 C   0  0  0  0  0  0  0  0  0  0  0  0
    4.2019    0.5056   -0.0941 C   0  0  0  0  0  0  0  0  0  0  0  0
   -3.1286   -0.8976   -0.5761 C   0  0  0  0  0  0  0  0  0  0  0  0
   -2.6922    1.4286   -0.0909 C   0  0  0  0  0  0  0  0  0  0  0  0
   -4.4749   -0.7101   -0.2628 C   0  0  0  0  0  0  0  0  0  0  0  0
   -4.0383    1.6159    0.2225 C   0  0  0  0  0  0  0  0  0  0  0  0
   -4.9297    0.5465    0.1365 C   0  0  0  0  0  0  0  0  0  0  0  0
   -0.3263    0.1450    1.2781 H   0  0  0  0  0  0  0  0  0  0  0  0
    2.5433   -3.1650   -0.6470 H   0  0  0  0  0  0  0  0  0  0  0  0
    2.2889   -2.9933    1.0985 H   0  0  0  0  0  0  0  0  0  0  0  0
    0.2473   -2.6384   -1.1526 H   0  0  0  0  0  0  0  0  0  0  0  0
    0.2314   -3.7960    0.1641 H   0  0  0  0  0  0  0  0  0  0  0  0
   -0.6984   -0.7427   -1.6520 H   0  0  0  0  0  0  0  0  0  0  0  0
   -0.4186    0.9133   -1.2469 H   0  0  0  0  0  0  0  0  0  0  0  0
   -1.2475   -2.0594    0.7035 H   0  0  0  0  0  0  0  0  0  0  0  0
    1.1940    2.0167    0.3747 H   0  0  0  0  0  0  0  0  0  0  0  0
    4.5154   -1.6237   -0.2096 H   0  0  0  0  0  0  0  0  0  0  0  0
   -2.7934   -1.8783   -0.9017 H   0  0  0  0  0  0  0  0  0  0  0  0
   -2.0062    2.2681   -0.0178 H   0  0  0  0  0  0  0  0  0  0  0  0
   -5.1599   -1.5505   -0.3373 H   0  0  0  0  0  0  0  0  0  0  0  0
   -4.3865    2.5970    0.5338 H   0  0  0  0  0  0  0  0  0  0  0  0
    2.8847    3.3969    0.2023 H   0  0  0  0  0  0  0  0  0  0  0  0
    6.0203   -0.0365   -0.3519 H   0  0  0  0  0  0  0  0  0  0  0  0
   -6.7132   -0.1158    0.3288 H   0  0  0  0  0  0  0  0  0  0  0  0
  1 14  1  0  0  0  0
  1 35  1  0  0  0  0
  2 15  1  0  0  0  0
  2 36  1  0  0  0  0
  3 20  1  0  0  0  0
  3 37  1  0  0  0  0
  4  5  1  0  0  0  0
  4  9  1  0  0  0  0
  4 28  1  0  0  0  0
  5  6  1  0  0  0  0
  5 10  1  0  0  0  0
  5 21  1  0  0  0  0
  6  7  1  0  0  0  0
  6 11  2  0  0  0  0
  7  8  1  0  0  0  0
  7 13  2  0  0  0  0
  8  9  1  0  0  0  0
  8 22  1  0  0  0  0
  8 23  1  0  0  0  0
  9 24  1  0  0  0  0
  9 25  1  0  0  0  0
 10 12  1  0  0  0  0
 10 26  1  0  0  0  0
 10 27  1  0  0  0  0
 11 14  1  0  0  0  0
 11 29  1  0  0  0  0
 12 16  2  0  0  0  0
 12 17  1  0  0  0  0
 13 15  1  0  0  0  0
 13 30  1  0  0  0  0
 14 15  2  0  0  0  0
 16 18  1  0  0  0  0
 16 31  1  0  0  0  0
 17 19  2  0  0  0  0
 17 32  1  0  0  0  0
 18 20  2  0  0  0  0
 18 33  1  0  0  0  0
 19 20  1  0  0  0  0
 19 34  1  0  0  0  0
M  END
> <PUBCHEM_COMPOUND_CID>
440988

> <PUBCHEM_CONFORMER_RMSD>
0.6

> <PUBCHEM_CONFORMER_DIVERSEORDER>
1
2
6
5
4
3

> <PUBCHEM_MMFF94_PARTIAL_CHARGES>
30
1 -0.53
10 0.14
11 -0.15
12 -0.14
13 -0.15
14 0.08
15 0.08
16 -0.15
17 -0.15
18 -0.15
19 -0.15
2 -0.53
20 0.08
28 0.36
29 0.15
3 -0.53
30 0.15
31 0.15
32 0.15
33 0.15
34 0.15
35 0.45
36 0.45
37 0.45
4 -0.9
5 0.41
6 -0.14
7 -0.14
8 0.14
9 0.27

> <PUBCHEM_EFFECTIVE_ROTOR_COUNT>
2.8

> <PUBCHEM_PHARMACOPHORE_FEATURES>
8
1 1 donor
1 2 donor
1 3 donor
1 4 cation
1 4 donor
6 12 16 17 18 19 20 rings
6 4 5 6 7 8 9 rings
6 6 7 11 13 14 15 rings

> <PUBCHEM_HEAVY_ATOM_COUNT>
20

> <PUBCHEM_ATOM_DEF_STEREO_COUNT>
1

> <PUBCHEM_ATOM_UDEF_STEREO_COUNT>
0

> <PUBCHEM_BOND_DEF_STEREO_COUNT>
0

> <PUBCHEM_BOND_UDEF_STEREO_COUNT>
0

> <PUBCHEM_ISOTOPIC_ATOM_COUNT>
0

> <PUBCHEM_COMPONENT_COUNT>
1

> <PUBCHEM_CACTVS_TAUTO_COUNT>
36

> <PUBCHEM_CONFORMER_ID>
0006BA9C00000001

> <PUBCHEM_MMFF94_ENERGY>
50.909

> <PUBCHEM_FEATURE_SELFOVERLAP>
40.621

> <PUBCHEM_SHAPE_FINGERPRINT>
10411042 1 17762338411506322122
10616163 171 18335704910350000215
11471102 20 18410857689643560286
11796584 16 14707207721323429732
12107183 9 17614840051894138801
12236239 1 17894349994661100081
12403259 415 18131639992808576020
12507560 40 18199749310049050157
12644460 14 18201725093309527266
12730499 353 18341603828402128667
12788726 201 17095797854278003841
13009979 54 17317605727414542882
13760787 19 18114185237544376575
14341114 176 18338228362570593841
14341114 328 18333731334127161217
14528608 73 18409170995872593071
14790565 3 18338511950118073277
15196674 1 18410857689232071199
15342168 16 18200871764616953973
17834072 33 18334863818503848327
18186145 218 18410581703466197124
19784866 9 18335987553161507466
20645477 70 18261392316214761295
21033648 29 16916803876076658029
21267235 1 18336539525157700223
21524375 3 18272092673577433746
21652331 79 18411139160378376029
22854114 59 18273496788512036269
23402539 116 18261680289719298012
23402655 69 18333453135946844342
23558518 356 17768252310878587042
23559900 14 18192720166124276763
25 1 18411141342253202998
2637199 183 18409164407334952910
335352 9 18411135828132146398
350125 39 18411702101451647444
3545911 37 18411418419120092557
4214541 1 18408886273937860925
42630746 31 18409449219190165566
474 4 18412825776401770473
4990 188 18040148518123053742
5104073 3 18200027486380010785
543358 83 18263077880524952042
633830 44 18334862696810470127
6442390 28 18341892948489347138
77779 3 18408604781728208783
8272917 22 18334855073254361247
960060 61 7060375967993951312
9709674 26 18410570721467624703
9999458 23 18341894108489031630

> <PUBCHEM_SHAPE_MULTIPOLES>
389
11.26
2.5
0.72
7.43
0.59
-0.03
-5.1
0.16
-1.98
0.16
0.17
0.06
-0.3

> <PUBCHEM_SHAPE_SELFOVERLAP>
846.974

> <PUBCHEM_SHAPE_VOLUME>
211.1

> <PUBCHEM_COORDINATE_TYPE>
2
5
10

$$$$

