248932
  -OEChem-07051213063D

 49 52  0     1  0  0  0  0  0999 V2000
    5.8983    0.3427    1.1374 O   0  0  0  0  0  0  0  0  0  0  0  0
    0.6309    0.4316   -0.2108 C   0  0  1  0  0  0  0  0  0  0  0  0
   -0.1084   -0.8889   -0.5786 C   0  0  2  0  0  0  0  0  0  0  0  0
   -1.5802   -0.7787   -0.2990 C   0  0  0  0  0  0  0  0  0  0  0  0
   -3.7115    0.2008    0.0420 C   0  0  1  0  0  0  0  0  0  0  0  0
    2.1254    0.3736   -0.6438 C   0  0  2  0  0  0  0  0  0  0  0  0
   -2.2268    0.3873   -0.1538 C   0  0  0  0  0  0  0  0  0  0  0  0
   -0.1341    1.6347   -0.8004 C   0  0  0  0  0  0  0  0  0  0  0  0
   -1.5652    1.7229   -0.2488 C   0  0  0  0  0  0  0  0  0  0  0  0
    0.5704   -2.0593    0.1455 C   0  0  0  0  0  0  0  0  0  0  0  0
   -2.5219   -1.9375   -0.2530 C   0  0  0  0  0  0  0  0  0  0  0  0
   -3.7884   -1.3142    0.3402 C   0  0  0  0  0  0  0  0  0  0  0  0
    2.7936   -0.8796   -0.0922 C   0  0  0  0  0  0  0  0  0  0  0  0
    2.0361   -2.1727   -0.2664 C   0  0  0  0  0  0  0  0  0  0  0  0
    2.8655    1.6552   -0.2088 C   0  0  0  0  0  0  0  0  0  0  0  0
   -4.2662    1.0102    1.2180 C   0  0  0  0  0  0  0  0  0  0  0  0
   -4.4813    0.5411   -1.2417 C   0  0  0  0  0  0  0  0  0  0  0  0
    4.3753    1.5161   -0.2940 C   0  0  0  0  0  0  0  0  0  0  0  0
    4.0041   -0.8890    0.4889 C   0  0  0  0  0  0  0  0  0  0  0  0
    4.8341    0.3368    0.5230 C   0  0  0  0  0  0  0  0  0  0  0  0
   -5.7496    0.7670    1.3961 C   0  0  0  0  0  0  0  0  0  0  0  0
    0.6078    0.5403    0.8855 H   0  0  0  0  0  0  0  0  0  0  0  0
   -0.0086   -1.0579   -1.6609 H   0  0  0  0  0  0  0  0  0  0  0  0
    2.1706    0.3085   -1.7400 H   0  0  0  0  0  0  0  0  0  0  0  0
   -0.1668    1.5457   -1.8942 H   0  0  0  0  0  0  0  0  0  0  0  0
    0.3696    2.5798   -0.5748 H   0  0  0  0  0  0  0  0  0  0  0  0
   -2.1469    2.3935   -0.8908 H   0  0  0  0  0  0  0  0  0  0  0  0
   -1.5375    2.1732    0.7508 H   0  0  0  0  0  0  0  0  0  0  0  0
    0.0737   -3.0055   -0.0993 H   0  0  0  0  0  0  0  0  0  0  0  0
    0.4950   -1.9309    1.2333 H   0  0  0  0  0  0  0  0  0  0  0  0
   -2.6993   -2.3267   -1.2610 H   0  0  0  0  0  0  0  0  0  0  0  0
   -2.1703   -2.7504    0.3879 H   0  0  0  0  0  0  0  0  0  0  0  0
   -4.6884   -1.7899   -0.0656 H   0  0  0  0  0  0  0  0  0  0  0  0
   -3.7911   -1.5025    1.4229 H   0  0  0  0  0  0  0  0  0  0  0  0
    2.0899   -2.4611   -1.3243 H   0  0  0  0  0  0  0  0  0  0  0  0
    2.5002   -2.9876    0.3025 H   0  0  0  0  0  0  0  0  0  0  0  0
    2.5911    1.9088    0.8241 H   0  0  0  0  0  0  0  0  0  0  0  0
    2.5598    2.4991   -0.8373 H   0  0  0  0  0  0  0  0  0  0  0  0
   -4.1027    2.0839    1.0620 H   0  0  0  0  0  0  0  0  0  0  0  0
   -3.7413    0.7497    2.1461 H   0  0  0  0  0  0  0  0  0  0  0  0
   -4.0026    0.0961   -2.1228 H   0  0  0  0  0  0  0  0  0  0  0  0
   -5.5086    0.1622   -1.2243 H   0  0  0  0  0  0  0  0  0  0  0  0
   -4.5208    1.6236   -1.4092 H   0  0  0  0  0  0  0  0  0  0  0  0
    4.8478    2.4226    0.0994 H   0  0  0  0  0  0  0  0  0  0  0  0
    4.7055    1.3754   -1.3288 H   0  0  0  0  0  0  0  0  0  0  0  0
    4.4472   -1.7955    0.8863 H   0  0  0  0  0  0  0  0  0  0  0  0
   -6.3402    1.1900    0.5782 H   0  0  0  0  0  0  0  0  0  0  0  0
   -5.9946   -0.2944    1.4945 H   0  0  0  0  0  0  0  0  0  0  0  0
   -6.0906    1.2617    2.3127 H   0  0  0  0  0  0  0  0  0  0  0  0
  1 20  2  0  0  0  0
  2  3  1  0  0  0  0
  2  6  1  0  0  0  0
  2  8  1  0  0  0  0
  2 22  1  0  0  0  0
  3  4  1  0  0  0  0
  3 10  1  0  0  0  0
  3 23  1  0  0  0  0
  4  7  2  0  0  0  0
  4 11  1  0  0  0  0
  5  7  1  0  0  0  0
  5 12  1  0  0  0  0
  5 16  1  0  0  0  0
  5 17  1  0  0  0  0
  6 13  1  0  0  0  0
  6 15  1  0  0  0  0
  6 24  1  0  0  0  0
  7  9  1  0  0  0  0
  8  9  1  0  0  0  0
  8 25  1  0  0  0  0
  8 26  1  0  0  0  0
  9 27  1  0  0  0  0
  9 28  1  0  0  0  0
 10 14  1  0  0  0  0
 10 29  1  0  0  0  0
 10 30  1  0  0  0  0
 11 12  1  0  0  0  0
 11 31  1  0  0  0  0
 11 32  1  0  0  0  0
 12 33  1  0  0  0  0
 12 34  1  0  0  0  0
 13 14  1  0  0  0  0
 13 19  2  0  0  0  0
 14 35  1  0  0  0  0
 14 36  1  0  0  0  0
 15 18  1  0  0  0  0
 15 37  1  0  0  0  0
 15 38  1  0  0  0  0
 16 21  1  0  0  0  0
 16 39  1  0  0  0  0
 16 40  1  0  0  0  0
 17 41  1  0  0  0  0
 17 42  1  0  0  0  0
 17 43  1  0  0  0  0
 18 20  1  0  0  0  0
 18 44  1  0  0  0  0
 18 45  1  0  0  0  0
 19 20  1  0  0  0  0
 19 46  1  0  0  0  0
 21 47  1  0  0  0  0
 21 48  1  0  0  0  0
 21 49  1  0  0  0  0
M  END
> <PUBCHEM_COMPOUND_CID>
248932

> <PUBCHEM_CONFORMER_RMSD>
0.6

> <PUBCHEM_CONFORMER_DIVERSEORDER>
1
3
4
2

> <PUBCHEM_MMFF94_PARTIAL_CHARGES>
14
1 -0.57
11 0.14
13 -0.28
14 0.14
18 0.06
19 -0.14
20 0.49
3 0.14
4 -0.28
46 0.15
5 0.14
6 0.14
7 -0.28
9 0.14

> <PUBCHEM_EFFECTIVE_ROTOR_COUNT>
2.8

> <PUBCHEM_PHARMACOPHORE_FEATURES>
6
1 1 acceptor
1 21 hydrophobe
5 4 5 7 11 12 rings
6 2 3 4 7 8 9 rings
6 2 3 6 10 13 14 rings
6 6 13 15 18 19 20 rings

> <PUBCHEM_HEAVY_ATOM_COUNT>
21

> <PUBCHEM_ATOM_DEF_STEREO_COUNT>
4

> <PUBCHEM_ATOM_UDEF_STEREO_COUNT>
0

> <PUBCHEM_BOND_DEF_STEREO_COUNT>
0

> <PUBCHEM_BOND_UDEF_STEREO_COUNT>
0

> <PUBCHEM_ISOTOPIC_ATOM_COUNT>
0

> <PUBCHEM_COMPONENT_COUNT>
1

> <PUBCHEM_CACTVS_TAUTO_COUNT>
8

> <PUBCHEM_CONFORMER_ID>
0003CC6400000001

> <PUBCHEM_MMFF94_ENERGY>
39.2505

> <PUBCHEM_FEATURE_SELFOVERLAP>
30.547

> <PUBCHEM_SHAPE_FINGERPRINT>
10 15 18202560665963928241
10062212 137 18340491054073500559
10366900 7 17968107416543271025
10493431 412 18408036321384741171
10967382 1 18411982481237896182
11089746 13 17458634401593420568
11132069 177 18413109467597378342
11796584 16 15195289741517633585
12107183 9 17832986426729473074
12236239 1 17822294617353869655
12251169 10 18410854382101952628
12403814 3 18202285810027524005
12553582 1 18341601642421952749
12633257 1 18409731746571026888
13140716 1 18267860593118748289
13224815 77 18411698776999059519
13675066 3 17775563152369264573
14341114 176 18341612655166264922
14341114 328 18412542085559382768
14739800 52 17313394473447091130
14790565 3 18196924470971885380
15048467 5 17821727260547718625
15163728 17 15214403729671165129
15188451 53 15769486535619595187
15196674 1 18412263908906740894
15209294 21 18113611318165321073
15375358 24 18272371987958656823
15536298 74 18334572473354843782
15788980 27 17132117931003330941
1601671 61 18408039602713296936
16945 1 18339639061389796759
1813 80 17131824387052357607
19050596 39 18412825763754089556
19784866 170 18412541024386092582
19784866 9 18409164424219228344
200 152 18260559909087978591
20739085 24 18201990019693025620
21033648 29 18059029344786276253
21267235 1 18341043047470514630
21421861 104 18058172893878793210
21637258 2 15338826531407413521
22182313 1 18128820935199593941
23184049 59 18339069493282006287
23402539 116 18340217301558686622
23559900 14 18261662736715584278
25147074 1 18268140951651537973
26918003 58 17704356567119357160
296302 2 17385722521549098047
300161 21 18040436620355744433
335352 9 18411702106121057662
34797466 226 15792012221115098897
34934 24 18340777017523118183
350125 39 18413109438377028820
3545911 37 18410008849207538222
3680242 22 18342177799705589082
465052 167 17561359587217908808
474 4 18412261722794669986
5104073 3 18340771421206917464
542803 24 17458345251436116824
633830 44 18259979358068454092
7064713 232 18334577932168404704
9709674 26 18410571824815089271

> <PUBCHEM_SHAPE_MULTIPOLES>
426.3
11.45
2.09
1.02
1.14
0.54
-0.13
-2.95
-4.12
0.37
0.17
-0.71
-0.22
-0.39

> <PUBCHEM_SHAPE_SELFOVERLAP>
914.999

> <PUBCHEM_SHAPE_VOLUME>
234.8

> <PUBCHEM_COORDINATE_TYPE>
2
5
10

$$$$

