439835
  -OEChem-07051212472D

 35 35  0     1  0  0  0  0  0999 V2000
    5.3979    0.1342    0.0000 P   0  0  3  0  0  0  0  0  0  0  0  0
    4.2389    1.4213    0.0000 P   0  0  3  0  0  0  0  0  0  0  0  0
    3.0800    2.7085    0.0000 P   0  0  0  0  0  0  0  0  0  0  0  0
    8.3169   -0.8742    0.0000 O   0  0  0  0  0  0  0  0  0  0  0  0
    7.2292   -3.2221    0.0000 O   0  0  0  0  0  0  0  0  0  0  0  0
    9.4047   -3.2221    0.0000 O   0  0  0  0  0  0  0  0  0  0  0  0
    6.3490   -0.1748    0.0000 O   0  0  0  0  0  0  0  0  0  0  0  0
   10.0770   -1.1530    0.0000 O   0  0  0  0  0  0  0  0  0  0  0  0
    4.4468    0.4432    0.0000 O   0  0  0  0  0  0  0  0  0  0  0  0
    5.7069    1.0852    0.0000 O   0  0  0  0  0  0  0  0  0  0  0  0
    5.0889   -0.8169    0.0000 O   0  0  0  0  0  0  0  0  0  0  0  0
    4.0310    2.3995    0.0000 O   0  0  0  0  0  0  0  0  0  0  0  0
    3.2608    1.2134    0.0000 O   0  0  0  0  0  0  0  0  0  0  0  0
    5.2171    1.6293    0.0000 O   0  0  0  0  0  0  0  0  0  0  0  0
    2.1289    3.0175    0.0000 O   0  0  0  0  0  0  0  0  0  0  0  0
    3.3890    3.6596    0.0000 O   0  0  0  0  0  0  0  0  0  0  0  0
    2.7709    1.7574    0.0000 O   0  0  0  0  0  0  0  0  0  0  0  0
    7.8169   -2.4131    0.0000 C   0  0  2  0  0  0  0  0  0  0  0  0
    7.5079   -1.4620    0.0000 C   0  0  1  0  0  0  0  0  0  0  0  0
    8.8169   -2.4131    0.0000 C   0  0  2  0  0  0  0  0  0  0  0  0
    9.1260   -1.4620    0.0000 C   0  0  1  0  0  0  0  0  0  0  0  0
    6.5569   -1.1530    0.0000 C   0  0  0  0  0  0  0  0  0  0  0  0
    7.2046   -2.3161    0.0000 H   0  0  0  0  0  0  0  0  0  0  0  0
    7.4109   -0.8496    0.0000 H   0  0  0  0  0  0  0  0  0  0  0  0
    9.4293   -2.3161    0.0000 H   0  0  0  0  0  0  0  0  0  0  0  0
    9.2230   -0.8496    0.0000 H   0  0  0  0  0  0  0  0  0  0  0  0
    5.9372   -1.1746    0.0000 H   0  0  0  0  0  0  0  0  0  0  0  0
    6.4706   -1.7670    0.0000 H   0  0  0  0  0  0  0  0  0  0  0  0
    7.4813   -3.7885    0.0000 H   0  0  0  0  0  0  0  0  0  0  0  0
   10.0213   -3.1573    0.0000 H   0  0  0  0  0  0  0  0  0  0  0  0
   10.2059   -0.5465    0.0000 H   0  0  0  0  0  0  0  0  0  0  0  0
    6.3134    1.2141    0.0000 H   0  0  0  0  0  0  0  0  0  0  0  0
    3.0692    0.6238    0.0000 H   0  0  0  0  0  0  0  0  0  0  0  0
    2.0000    3.6240    0.0000 H   0  0  0  0  0  0  0  0  0  0  0  0
    3.9954    3.7885    0.0000 H   0  0  0  0  0  0  0  0  0  0  0  0
  1  7  1  0  0  0  0
  1  9  1  0  0  0  0
  1 10  1  0  0  0  0
  1 11  2  0  0  0  0
  2  9  1  0  0  0  0
  2 12  1  0  0  0  0
  2 13  1  0  0  0  0
  2 14  2  0  0  0  0
  3 12  1  0  0  0  0
  3 15  1  0  0  0  0
  3 16  1  0  0  0  0
  3 17  2  0  0  0  0
  4 19  1  0  0  0  0
  4 21  1  0  0  0  0
 18  5  1  6  0  0  0
  5 29  1  0  0  0  0
 20  6  1  6  0  0  0
  6 30  1  0  0  0  0
  7 22  1  0  0  0  0
 21  8  1  1  0  0  0
  8 31  1  0  0  0  0
 10 32  1  0  0  0  0
 13 33  1  0  0  0  0
 15 34  1  0  0  0  0
 16 35  1  0  0  0  0
 18 19  1  0  0  0  0
 18 20  1  0  0  0  0
 18 23  1  0  0  0  0
 19 22  1  1  0  0  0
 19 24  1  0  0  0  0
 20 21  1  0  0  0  0
 20 25  1  0  0  0  0
 21 26  1  0  0  0  0
 22 27  1  0  0  0  0
 22 28  1  0  0  0  0
M  END
> <PUBCHEM_COMPOUND_CID>
439835

> <PUBCHEM_COMPOUND_CANONICALIZED>
1

> <PUBCHEM_CACTVS_COMPLEXITY>
527

> <PUBCHEM_CACTVS_HBOND_ACCEPTOR>
14

> <PUBCHEM_CACTVS_HBOND_DONOR>
7

> <PUBCHEM_CACTVS_ROTATABLE_BOND>
7

> <PUBCHEM_CACTVS_SUBSKEYS>
AAADccBgPAMAAAAAAAAAAAAAAAAAASAAAAAAAAAAAAAAAAAAAAAAGgAACCAACBSwgAMACAAABxAAQAAAAIAAAAAAAAAAAAAAAAAREAIAAAACQAAFAAAHAADAIAAAAAAAAAAAAAAAAAAAAAAAAAAAAAAAAA==

> <PUBCHEM_IUPAC_OPENEYE_NAME>
[hydroxy(phosphonooxy)phosphoryl] [(2R,3S,4R,5R)-3,4,5-trihydroxytetrahydrofuran-2-yl]methyl hydrogen phosphate

> <PUBCHEM_IUPAC_CAS_NAME>
[hydroxy(phosphonooxy)phosphoryl] [(2R,3S,4R,5R)-3,4,5-trihydroxy-2-oxolanyl]methyl hydrogen phosphate

> <PUBCHEM_IUPAC_NAME>
[hydroxy(phosphonooxy)phosphoryl] [(2R,3S,4R,5R)-3,4,5-trihydroxyoxolan-2-yl]methyl hydrogen phosphate

> <PUBCHEM_IUPAC_SYSTEMATIC_NAME>
[oxidanyl(phosphonooxy)phosphoryl] [(2R,3S,4R,5R)-3,4,5-tris(oxidanyl)oxolan-2-yl]methyl hydrogen phosphate

> <PUBCHEM_IUPAC_TRADITIONAL_NAME>
[hydroxy(phosphonooxy)phosphoryl] [(2R,3S,4R,5R)-3,4,5-trihydroxytetrahydrofuran-2-yl]methyl hydrogen phosphate

> <PUBCHEM_IUPAC_INCHI>
InChI=1S/C5H13O14P3/c6-3-2(17-5(8)4(3)7)1-16-21(12,13)19-22(14,15)18-20(9,10)11/h2-8H,1H2,(H,12,13)(H,14,15)(H2,9,10,11)/t2-,3-,4-,5-/m1/s1

> <PUBCHEM_IUPAC_INCHIKEY>
ZJJBHGDNOZLBIL-TXICZTDVSA-N

> <PUBCHEM_XLOGP3_AA>
-5.8

> <PUBCHEM_EXACT_MASS>
389.951815

> <PUBCHEM_MOLECULAR_FORMULA>
C5H13O14P3

> <PUBCHEM_MOLECULAR_WEIGHT>
390.069606

> <PUBCHEM_OPENEYE_CAN_SMILES>
C(C1C(C(C(O1)O)O)O)OP(=O)(O)OP(=O)(O)OP(=O)(O)O

> <PUBCHEM_OPENEYE_ISO_SMILES>
C([C@@H]1[C@H]([C@H]([C@@H](O1)O)O)O)OP(=O)(O)OP(=O)(O)OP(=O)(O)O

> <PUBCHEM_CACTVS_TPSA>
230

> <PUBCHEM_MONOISOTOPIC_WEIGHT>
389.951815

> <PUBCHEM_TOTAL_CHARGE>
0

> <PUBCHEM_HEAVY_ATOM_COUNT>
22

> <PUBCHEM_ATOM_DEF_STEREO_COUNT>
4

> <PUBCHEM_ATOM_UDEF_STEREO_COUNT>
0

> <PUBCHEM_BOND_DEF_STEREO_COUNT>
0

> <PUBCHEM_BOND_UDEF_STEREO_COUNT>
0

> <PUBCHEM_ISOTOPIC_ATOM_COUNT>
0

> <PUBCHEM_COMPONENT_COUNT>
1

> <PUBCHEM_CACTVS_TAUTO_COUNT>
1

> <PUBCHEM_COORDINATE_TYPE>
1
5
255

> <PUBCHEM_BONDANNOTATIONS>
19  22  5
18  5  6
20  6  6
21  8  5

$$$$

