439307
  -OEChem-07051212452D

 20 20  0     1  0  0  0  0  0999 V2000
    3.7320   -1.1230    0.0000 O   0  0  0  0  0  0  0  0  0  0  0  0
    4.2320    1.7430    0.0000 O   0  0  0  0  0  0  0  0  0  0  0  0
    2.0000   -1.1230    0.0000 O   0  0  0  0  0  0  0  0  0  0  0  0
    5.4641   -1.1230    0.0000 O   0  0  0  0  0  0  0  0  0  0  0  0
    3.7320    0.8770    0.0000 C   0  0  3  0  0  0  0  0  0  0  0  0
    2.8660    0.3770    0.0000 C   0  0  0  0  0  0  0  0  0  0  0  0
    4.5981    0.3770    0.0000 C   0  0  0  0  0  0  0  0  0  0  0  0
    2.8660   -0.6230    0.0000 C   0  0  3  0  0  0  0  0  0  0  0  0
    3.2320    1.7430    0.0000 C   0  0  0  0  0  0  0  0  0  0  0  0
    4.5981   -0.6230    0.0000 C   0  0  0  0  0  0  0  0  0  0  0  0
    2.6540    0.9596    0.0000 H   0  0  0  0  0  0  0  0  0  0  0  0
    2.2554    0.2693    0.0000 H   0  0  0  0  0  0  0  0  0  0  0  0
    5.2087    0.2693    0.0000 H   0  0  0  0  0  0  0  0  0  0  0  0
    4.8101    0.9596    0.0000 H   0  0  0  0  0  0  0  0  0  0  0  0
    2.8660   -1.4730    0.0000 H   0  0  0  0  0  0  0  0  0  0  0  0
    3.7690    2.0530    0.0000 H   0  0  0  0  0  0  0  0  0  0  0  0
    2.9220    2.2800    0.0000 H   0  0  0  0  0  0  0  0  0  0  0  0
    2.6951    1.4330    0.0000 H   0  0  0  0  0  0  0  0  0  0  0  0
    4.8520    1.7430    0.0000 H   0  0  0  0  0  0  0  0  0  0  0  0
    2.0000   -1.7430    0.0000 H   0  0  0  0  0  0  0  0  0  0  0  0
  1  8  1  0  0  0  0
  1 10  1  0  0  0  0
  2  5  1  0  0  0  0
  2 19  1  0  0  0  0
  3  8  1  0  0  0  0
  3 20  1  0  0  0  0
  4 10  2  0  0  0  0
  5  6  1  0  0  0  0
  5  7  1  0  0  0  0
  5  9  1  0  0  0  0
  6  8  1  0  0  0  0
  6 11  1  0  0  0  0
  6 12  1  0  0  0  0
  7 10  1  0  0  0  0
  7 13  1  0  0  0  0
  7 14  1  0  0  0  0
  8 15  1  0  0  0  0
  9 16  1  0  0  0  0
  9 17  1  0  0  0  0
  9 18  1  0  0  0  0
M  END
> <PUBCHEM_COMPOUND_CID>
439307

> <PUBCHEM_COMPOUND_CANONICALIZED>
1

> <PUBCHEM_CACTVS_COMPLEXITY>
156

> <PUBCHEM_CACTVS_HBOND_ACCEPTOR>
4

> <PUBCHEM_CACTVS_HBOND_DONOR>
2

> <PUBCHEM_CACTVS_ROTATABLE_BOND>
0

> <PUBCHEM_CACTVS_SUBSKEYS>
AAADccBgOAAAAAAAAAAAAAAAAAAAAAAAAAAkAAAAAAAAAAAAAAAAGgAACAAADESwgAMCCAAABgAIAACQCAAAAAAAAAAAAAEAAAAQEBYAAAACQAAFIAAEAACIJAAKAAAAAAAAAAAAAAAAAAAAAAAAAAAAAA==

> <PUBCHEM_IUPAC_OPENEYE_NAME>
4,6-dihydroxy-4-methyl-tetrahydropyran-2-one

> <PUBCHEM_IUPAC_CAS_NAME>
4,6-dihydroxy-4-methyl-2-oxanone

> <PUBCHEM_IUPAC_NAME>
4,6-dihydroxy-4-methyloxan-2-one

> <PUBCHEM_IUPAC_SYSTEMATIC_NAME>
4-methyl-4,6-bis(oxidanyl)oxan-2-one

> <PUBCHEM_IUPAC_TRADITIONAL_NAME>
4,6-dihydroxy-4-methyl-tetrahydropyran-2-one

> <PUBCHEM_IUPAC_INCHI>
InChI=1S/C6H10O4/c1-6(9)2-4(7)10-5(8)3-6/h4,7,9H,2-3H2,1H3

> <PUBCHEM_IUPAC_INCHIKEY>
IWRRRSOSYPFCDM-UHFFFAOYSA-N

> <PUBCHEM_XLOGP3_AA>
-0.8

> <PUBCHEM_EXACT_MASS>
146.057909

> <PUBCHEM_MOLECULAR_FORMULA>
C6H10O4

> <PUBCHEM_MOLECULAR_WEIGHT>
146.1412

> <PUBCHEM_OPENEYE_CAN_SMILES>
CC1(CC(OC(=O)C1)O)O

> <PUBCHEM_OPENEYE_ISO_SMILES>
CC1(CC(OC(=O)C1)O)O

> <PUBCHEM_CACTVS_TPSA>
66.8

> <PUBCHEM_MONOISOTOPIC_WEIGHT>
146.057909

> <PUBCHEM_TOTAL_CHARGE>
0

> <PUBCHEM_HEAVY_ATOM_COUNT>
10

> <PUBCHEM_ATOM_DEF_STEREO_COUNT>
0

> <PUBCHEM_ATOM_UDEF_STEREO_COUNT>
2

> <PUBCHEM_BOND_DEF_STEREO_COUNT>
0

> <PUBCHEM_BOND_UDEF_STEREO_COUNT>
0

> <PUBCHEM_ISOTOPIC_ATOM_COUNT>
0

> <PUBCHEM_COMPONENT_COUNT>
1

> <PUBCHEM_CACTVS_TAUTO_COUNT>
2

> <PUBCHEM_COORDINATE_TYPE>
1
5
255

> <PUBCHEM_BONDANNOTATIONS>
5  9  3
8  15  3

$$$$

