91588
  -OEChem-07051212573D

 26 27  0     1  0  0  0  0  0999 V2000
    2.9799   -1.6006    0.1971 O   0  0  0  0  0  0  0  0  0  0  0  0
    3.3674    1.1206   -0.1986 O   0  0  0  0  0  0  0  0  0  0  0  0
   -2.9627   -0.0308   -0.1568 N   0  0  0  0  0  0  0  0  0  0  0  0
   -1.9122   -0.9806    0.2599 C   0  0  2  0  0  0  0  0  0  0  0  0
   -0.4994   -0.4295    0.1143 C   0  0  0  0  0  0  0  0  0  0  0  0
   -1.4596    1.9028   -0.1333 C   0  0  0  0  0  0  0  0  0  0  0  0
   -0.2904    0.9558   -0.0436 C   0  0  0  0  0  0  0  0  0  0  0  0
   -2.7381    1.2883    0.4293 C   0  0  0  0  0  0  0  0  0  0  0  0
   -2.1449   -2.2706   -0.5374 C   0  0  0  0  0  0  0  0  0  0  0  0
    0.6217   -1.2697    0.2129 C   0  0  0  0  0  0  0  0  0  0  0  0
    1.0125    1.4617   -0.1621 C   0  0  0  0  0  0  0  0  0  0  0  0
    1.9152   -0.7553    0.1062 C   0  0  0  0  0  0  0  0  0  0  0  0
    2.1105    0.6081   -0.0879 C   0  0  0  0  0  0  0  0  0  0  0  0
   -2.0602   -1.2052    1.3250 H   0  0  0  0  0  0  0  0  0  0  0  0
   -1.2382    2.8244    0.4181 H   0  0  0  0  0  0  0  0  0  0  0  0
   -1.6068    2.1692   -1.1876 H   0  0  0  0  0  0  0  0  0  0  0  0
   -2.6906    1.2168    1.5234 H   0  0  0  0  0  0  0  0  0  0  0  0
   -3.5849    1.9406    0.1887 H   0  0  0  0  0  0  0  0  0  0  0  0
   -3.8724   -0.3852    0.1383 H   0  0  0  0  0  0  0  0  0  0  0  0
   -1.9312   -2.1274   -1.6032 H   0  0  0  0  0  0  0  0  0  0  0  0
   -1.5151   -3.0901   -0.1767 H   0  0  0  0  0  0  0  0  0  0  0  0
   -3.1829   -2.6112   -0.4430 H   0  0  0  0  0  0  0  0  0  0  0  0
    0.4984   -2.3362    0.3824 H   0  0  0  0  0  0  0  0  0  0  0  0
    1.1693    2.5282   -0.3076 H   0  0  0  0  0  0  0  0  0  0  0  0
    3.7728   -1.1021    0.4528 H   0  0  0  0  0  0  0  0  0  0  0  0
    3.9825    0.4216   -0.4735 H   0  0  0  0  0  0  0  0  0  0  0  0
  1 12  1  0  0  0  0
  1 25  1  0  0  0  0
  2 13  1  0  0  0  0
  2 26  1  0  0  0  0
  3  4  1  0  0  0  0
  3  8  1  0  0  0  0
  3 19  1  0  0  0  0
  4  5  1  0  0  0  0
  4  9  1  0  0  0  0
  4 14  1  0  0  0  0
  5  7  1  0  0  0  0
  5 10  2  0  0  0  0
  6  7  1  0  0  0  0
  6  8  1  0  0  0  0
  6 15  1  0  0  0  0
  6 16  1  0  0  0  0
  7 11  2  0  0  0  0
  8 17  1  0  0  0  0
  8 18  1  0  0  0  0
  9 20  1  0  0  0  0
  9 21  1  0  0  0  0
  9 22  1  0  0  0  0
 10 12  1  0  0  0  0
 10 23  1  0  0  0  0
 11 13  1  0  0  0  0
 11 24  1  0  0  0  0
 12 13  2  0  0  0  0
M  END
> <PUBCHEM_COMPOUND_CID>
91588

> <PUBCHEM_CONFORMER_RMSD>
0.4

> <PUBCHEM_CONFORMER_DIVERSEORDER>
1

> <PUBCHEM_MMFF94_PARTIAL_CHARGES>
17
1 -0.53
10 -0.15
11 -0.15
12 0.08
13 0.08
19 0.36
2 -0.53
23 0.15
24 0.15
25 0.45
26 0.45
3 -0.9
4 0.41
5 -0.14
6 0.14
7 -0.14
8 0.27

> <PUBCHEM_EFFECTIVE_ROTOR_COUNT>
0.8

> <PUBCHEM_PHARMACOPHORE_FEATURES>
6
1 1 donor
1 2 donor
1 3 cation
1 3 donor
6 3 4 5 6 7 8 rings
6 5 7 10 11 12 13 rings

> <PUBCHEM_HEAVY_ATOM_COUNT>
13

> <PUBCHEM_ATOM_DEF_STEREO_COUNT>
1

> <PUBCHEM_ATOM_UDEF_STEREO_COUNT>
0

> <PUBCHEM_BOND_DEF_STEREO_COUNT>
0

> <PUBCHEM_BOND_UDEF_STEREO_COUNT>
0

> <PUBCHEM_ISOTOPIC_ATOM_COUNT>
0

> <PUBCHEM_COMPONENT_COUNT>
1

> <PUBCHEM_CACTVS_TAUTO_COUNT>
18

> <PUBCHEM_CONFORMER_ID>
000165C400000001

> <PUBCHEM_MMFF94_ENERGY>
26.9772

> <PUBCHEM_FEATURE_SELFOVERLAP>
30.472

> <PUBCHEM_SHAPE_FINGERPRINT>
10967382 1 18411136935110153705
11132069 177 18410580573953283624
11206711 2 18268708316272365189
12423570 1 5976660924879145931
12491281 212 18337096951772597225
12524768 44 18339073899512335055
12932764 1 17749109937454845346
13380535 21 18337941355317387712
14144814 61 18411417332092342721
14325111 11 18411698824228122208
15536298 74 18335701667838893954
15775835 57 18410002247774381897
16945 1 18410013195661733169
17844478 74 17846204588479334985
193761 8 18410856533912196832
19973954 147 18411979152421833800
20871998 184 18187641367359904623
21501502 16 18410576188675434810
2334 1 18411981330118082354
23388829 49 18122347869691803677
23402655 69 18337403707649479333
23463225 33 18341613775830897722
23552423 10 18272087149864109414
23559900 14 18260827112474219052
2748010 2 18411698815674747204
3312278 4 18339359643649471707
528886 8 18411422769526155745
53812653 166 18334017151310975408
6333449 129 18408324363065740909
69090 78 18337396040784520405
7364860 26 18335138722127672930

> <PUBCHEM_SHAPE_MULTIPOLES>
250.81
4.6
2.23
0.66
1.28
0.35
0
0.12
0.02
-0.68
0.17
-0.1
0.03
-0.42

> <PUBCHEM_SHAPE_SELFOVERLAP>
533.328

> <PUBCHEM_SHAPE_VOLUME>
140

> <PUBCHEM_COORDINATE_TYPE>
2
5
10

$$$$

