656876
  -OEChem-07051213042D

 18 18  0     0  0  0  0  0  0999 V2000
    2.5369    0.6900    0.0000 O   0  0  0  0  0  0  0  0  0  0  0  0
    5.1350    2.1900    0.0000 O   0  0  0  0  0  0  0  0  0  0  0  0
    3.4030    2.1900    0.0000 O   0  0  0  0  0  0  0  0  0  0  0  0
    5.1350   -2.8100    0.0000 O   0  0  0  0  0  0  0  0  0  0  0  0
    4.2690    0.6900    0.0000 C   0  0  0  0  0  0  0  0  0  0  0  0
    3.4030    0.1900    0.0000 C   0  0  0  0  0  0  0  0  0  0  0  0
    4.2690   -1.3100    0.0000 C   0  0  0  0  0  0  0  0  0  0  0  0
    3.4030   -0.8100    0.0000 C   0  0  0  0  0  0  0  0  0  0  0  0
    5.1350    0.1900    0.0000 C   0  0  0  0  0  0  0  0  0  0  0  0
    5.1350   -0.8100    0.0000 C   0  0  0  0  0  0  0  0  0  0  0  0
    4.2690    1.6900    0.0000 C   0  0  0  0  0  0  0  0  0  0  0  0
    4.2690   -2.3100    0.0000 C   0  0  0  0  0  0  0  0  0  0  0  0
    2.8660   -1.1200    0.0000 H   0  0  0  0  0  0  0  0  0  0  0  0
    5.6720    0.5000    0.0000 H   0  0  0  0  0  0  0  0  0  0  0  0
    5.6720   -1.1200    0.0000 H   0  0  0  0  0  0  0  0  0  0  0  0
    3.7320   -2.6200    0.0000 H   0  0  0  0  0  0  0  0  0  0  0  0
    2.0000    0.3800    0.0000 H   0  0  0  0  0  0  0  0  0  0  0  0
    5.1350    2.8100    0.0000 H   0  0  0  0  0  0  0  0  0  0  0  0
  1  6  1  0  0  0  0
  1 17  1  0  0  0  0
  2 11  1  0  0  0  0
  2 18  1  0  0  0  0
  3 11  2  0  0  0  0
  4 12  2  0  0  0  0
  5  6  2  0  0  0  0
  5  9  1  0  0  0  0
  5 11  1  0  0  0  0
  6  8  1  0  0  0  0
  7  8  2  0  0  0  0
  7 10  1  0  0  0  0
  7 12  1  0  0  0  0
  8 13  1  0  0  0  0
  9 10  2  0  0  0  0
  9 14  1  0  0  0  0
 10 15  1  0  0  0  0
 12 16  1  0  0  0  0
M  END
> <PUBCHEM_COMPOUND_CID>
656876

> <PUBCHEM_COMPOUND_CANONICALIZED>
1

> <PUBCHEM_CACTVS_COMPLEXITY>
190

> <PUBCHEM_CACTVS_HBOND_ACCEPTOR>
4

> <PUBCHEM_CACTVS_HBOND_DONOR>
2

> <PUBCHEM_CACTVS_ROTATABLE_BOND>
2

> <PUBCHEM_CACTVS_SUBSKEYS>
AAADcYBwOAAAAAAAAAAAAAAAAAAAAAAAAAAwAAAAAAAAAAABAAAAGgAACAAADASgmAIwDoAAAgCIAijSiAACAAAkIAAIiAEGCMgIJzaCFRKAcUAl4BEImYeKyDCOQAABAAAIAACAAAIAABAAAAAAAAAAAA==

> <PUBCHEM_IUPAC_OPENEYE_NAME>
4-formyl-2-hydroxy-benzoic acid

> <PUBCHEM_IUPAC_CAS_NAME>
4-formyl-2-hydroxybenzoic acid

> <PUBCHEM_IUPAC_NAME>
4-formyl-2-hydroxybenzoic acid

> <PUBCHEM_IUPAC_SYSTEMATIC_NAME>
4-methanoyl-2-oxidanyl-benzoic acid

> <PUBCHEM_IUPAC_TRADITIONAL_NAME>
4-formyl-2-hydroxy-benzoic acid

> <PUBCHEM_IUPAC_INCHI>
InChI=1S/C8H6O4/c9-4-5-1-2-6(8(11)12)7(10)3-5/h1-4,10H,(H,11,12)

> <PUBCHEM_IUPAC_INCHIKEY>
JQSSYLDZHAPSJO-UHFFFAOYSA-N

> <PUBCHEM_XLOGP3>
1.4

> <PUBCHEM_EXACT_MASS>
166.026609

> <PUBCHEM_MOLECULAR_FORMULA>
C8H6O4

> <PUBCHEM_MOLECULAR_WEIGHT>
166.13084

> <PUBCHEM_OPENEYE_CAN_SMILES>
C1=CC(=C(C=C1C=O)O)C(=O)O

> <PUBCHEM_OPENEYE_ISO_SMILES>
C1=CC(=C(C=C1C=O)O)C(=O)O

> <PUBCHEM_CACTVS_TPSA>
74.6

> <PUBCHEM_MONOISOTOPIC_WEIGHT>
166.026609

> <PUBCHEM_TOTAL_CHARGE>
0

> <PUBCHEM_HEAVY_ATOM_COUNT>
12

> <PUBCHEM_ATOM_DEF_STEREO_COUNT>
0

> <PUBCHEM_ATOM_UDEF_STEREO_COUNT>
0

> <PUBCHEM_BOND_DEF_STEREO_COUNT>
0

> <PUBCHEM_BOND_UDEF_STEREO_COUNT>
0

> <PUBCHEM_ISOTOPIC_ATOM_COUNT>
0

> <PUBCHEM_COMPONENT_COUNT>
1

> <PUBCHEM_CACTVS_TAUTO_COUNT>
4

> <PUBCHEM_COORDINATE_TYPE>
1
5
255

> <PUBCHEM_BONDANNOTATIONS>
5  6  8
5  9  8
6  8  8
7  10  8
7  8  8
9  10  8

$$$$

