54675771
  -OEChem-07051212502D

 25 25  0     0  0  0  0  0  0999 V2000
    5.1350   -1.5600    0.0000 O   0  0  0  0  0  0  0  0  0  0  0  0
    6.8671    1.4400    0.0000 O   0  0  0  0  0  0  0  0  0  0  0  0
    9.4651   -1.0600    0.0000 O   0  0  0  0  0  0  0  0  0  0  0  0
    2.5369   -0.0600    0.0000 O   0  0  0  0  0  0  0  0  0  0  0  0
    8.5991   -2.5600    0.0000 O   0  0  0  0  0  0  0  0  0  0  0  0
    2.5369    1.9400    0.0000 O   0  0  0  0  0  0  0  0  0  0  0  0
    4.2690    1.9400    0.0000 O   0  0  0  0  0  0  0  0  0  0  0  0
    6.8671   -1.5600    0.0000 N   0  0  0  0  0  0  0  0  0  0  0  0
    6.0010   -0.0600    0.0000 C   0  0  0  0  0  0  0  0  0  0  0  0
    7.7331   -1.0600    0.0000 C   0  0  0  0  0  0  0  0  0  0  0  0
    6.0010   -1.0600    0.0000 C   0  0  0  0  0  0  0  0  0  0  0  0
    6.8671    0.4400    0.0000 C   0  0  0  0  0  0  0  0  0  0  0  0
    7.7331   -0.0600    0.0000 C   0  0  0  0  0  0  0  0  0  0  0  0
    5.1350    0.4400    0.0000 C   0  0  0  0  0  0  0  0  0  0  0  0
    4.2690   -0.0600    0.0000 C   0  0  0  0  0  0  0  0  0  0  0  0
    8.5991   -1.5600    0.0000 C   0  0  0  0  0  0  0  0  0  0  0  0
    3.4030    0.4400    0.0000 C   0  0  0  0  0  0  0  0  0  0  0  0
    3.4030    1.4400    0.0000 C   0  0  0  0  0  0  0  0  0  0  0  0
    6.8671   -2.1800    0.0000 H   0  0  0  0  0  0  0  0  0  0  0  0
    8.2700    0.2500    0.0000 H   0  0  0  0  0  0  0  0  0  0  0  0
    5.1350    1.0600    0.0000 H   0  0  0  0  0  0  0  0  0  0  0  0
    4.2690   -0.6800    0.0000 H   0  0  0  0  0  0  0  0  0  0  0  0
   10.0021   -1.3700    0.0000 H   0  0  0  0  0  0  0  0  0  0  0  0
    2.0000    0.2500    0.0000 H   0  0  0  0  0  0  0  0  0  0  0  0
    2.5369    2.5600    0.0000 H   0  0  0  0  0  0  0  0  0  0  0  0
  1 11  2  0  0  0  0
  2 12  2  0  0  0  0
  3 16  1  0  0  0  0
  3 23  1  0  0  0  0
  4 17  1  0  0  0  0
  4 24  1  0  0  0  0
  5 16  2  0  0  0  0
  6 18  1  0  0  0  0
  6 25  1  0  0  0  0
  7 18  2  0  0  0  0
  8 10  1  0  0  0  0
  8 11  1  0  0  0  0
  8 19  1  0  0  0  0
  9 11  1  0  0  0  0
  9 12  1  0  0  0  0
  9 14  2  0  0  0  0
 10 13  2  0  0  0  0
 10 16  1  0  0  0  0
 12 13  1  0  0  0  0
 13 20  1  0  0  0  0
 14 15  1  0  0  0  0
 14 21  1  0  0  0  0
 15 17  2  0  0  0  0
 15 22  1  0  0  0  0
 17 18  1  0  0  0  0
M  END
> <PUBCHEM_COMPOUND_CID>
54675771

> <PUBCHEM_COMPOUND_CANONICALIZED>
1

> <PUBCHEM_CACTVS_COMPLEXITY>
538

> <PUBCHEM_CACTVS_HBOND_ACCEPTOR>
7

> <PUBCHEM_CACTVS_HBOND_DONOR>
4

> <PUBCHEM_CACTVS_ROTATABLE_BOND>
3

> <PUBCHEM_CACTVS_SUBSKEYS>
AAADcYByOAAAAAAAAAAAAAAAAAAAAAAAAAAgAAAAAAAAAAAAAAAAHgAQCAAADAyBgAAACALAAgCIAqXSWAKAAAAgIgAACAHAAEgLBBgIgCAEEAAAhACZkcIAAAAAAAAAAAAAAAAAAAAAAAAAAAAAAAAAAA==

> <PUBCHEM_IUPAC_OPENEYE_NAME>
(5Z)-5-[(E)-3-carboxy-3-hydroxy-prop-2-enylidene]-4,6-dioxo-1H-pyridine-2-carboxylic acid

> <PUBCHEM_IUPAC_CAS_NAME>
(5Z)-5-[(E)-3-carboxy-3-hydroxyprop-2-enylidene]-4,6-dioxo-1H-pyridine-2-carboxylic acid

> <PUBCHEM_IUPAC_NAME>
(5Z)-5-[(E)-3-carboxy-3-hydroxyprop-2-enylidene]-4,6-dioxo-1H-pyridine-2-carboxylic acid

> <PUBCHEM_IUPAC_SYSTEMATIC_NAME>
(5Z)-5-[(E)-3,4-bis(oxidanyl)-4-oxidanylidene-but-2-enylidene]-4,6-bis(oxidanylidene)-1H-pyridine-2-carboxylic acid

> <PUBCHEM_IUPAC_TRADITIONAL_NAME>
(5Z)-5-[(E)-3-carboxy-3-hydroxy-prop-2-enylidene]-4,6-diketo-1H-pyridine-2-carboxylic acid

> <PUBCHEM_IUPAC_INCHI>
InChI=1S/C10H7NO7/c12-6(10(17)18)2-1-4-7(13)3-5(9(15)16)11-8(4)14/h1-3,12H,(H,11,14)(H,15,16)(H,17,18)/b4-1-,6-2+

> <PUBCHEM_IUPAC_INCHIKEY>
CTGHWWHNKYVWDA-FFYFFONTSA-N

> <PUBCHEM_XLOGP3_AA>
-0.6

> <PUBCHEM_EXACT_MASS>
253.022252

> <PUBCHEM_MOLECULAR_FORMULA>
C10H7NO7

> <PUBCHEM_MOLECULAR_WEIGHT>
253.16508

> <PUBCHEM_OPENEYE_CAN_SMILES>
C1=C(NC(=O)C(=CC=C(C(=O)O)O)C1=O)C(=O)O

> <PUBCHEM_OPENEYE_ISO_SMILES>
C1=C(NC(=O)/C(=C\C=C(/C(=O)O)\O)/C1=O)C(=O)O

> <PUBCHEM_CACTVS_TPSA>
141

> <PUBCHEM_MONOISOTOPIC_WEIGHT>
253.022252

> <PUBCHEM_TOTAL_CHARGE>
0

> <PUBCHEM_HEAVY_ATOM_COUNT>
18

> <PUBCHEM_ATOM_DEF_STEREO_COUNT>
0

> <PUBCHEM_ATOM_UDEF_STEREO_COUNT>
0

> <PUBCHEM_BOND_DEF_STEREO_COUNT>
2

> <PUBCHEM_BOND_UDEF_STEREO_COUNT>
0

> <PUBCHEM_ISOTOPIC_ATOM_COUNT>
0

> <PUBCHEM_COMPONENT_COUNT>
1

> <PUBCHEM_CACTVS_TAUTO_COUNT>
17

> <PUBCHEM_COORDINATE_TYPE>
1
5
255

$$$$

