11954201
  -OEChem-07051213072D

 52 54  0     1  0  0  0  0  0999 V2000
    2.8660   -1.4573    0.0000 O   0  0  0  0  0  0  0  0  0  0  0  0
    5.4641   -2.9573    0.0000 O   0  0  0  0  0  0  0  0  0  0  0  0
    2.0000   -2.9573    0.0000 O   0  0  0  0  0  0  0  0  0  0  0  0
    5.4641    2.0427    0.0000 C   0  0  2  0  0  0  0  0  0  0  0  0
    4.5981    1.5427    0.0000 C   0  0  2  0  0  0  0  0  0  0  0  0
    5.4641    3.0427    0.0000 C   0  0  2  0  0  0  0  0  0  0  0  0
    6.3580    1.5080    0.0000 C   0  0  0  0  0  0  0  0  0  0  0  0
    6.3580    3.5773    0.0000 C   0  0  0  0  0  0  0  0  0  0  0  0
    3.7320    2.0427    0.0000 C   0  0  2  0  0  0  0  0  0  0  0  0
    7.2641    3.0635    0.0000 C   0  0  1  0  0  0  0  0  0  0  0  0
    7.2641    2.0218    0.0000 C   0  0  0  0  0  0  0  0  0  0  0  0
    4.5981    0.5427    0.0000 C   0  0  0  0  0  0  0  0  0  0  0  0
    4.5981    3.5427    0.0000 C   0  0  0  0  0  0  0  0  0  0  0  0
    3.7320    3.0427    0.0000 C   0  0  0  0  0  0  0  0  0  0  0  0
    3.7320    0.0427    0.0000 C   0  0  0  0  0  0  0  0  0  0  0  0
    2.8660    1.5427    0.0000 C   0  0  0  0  0  0  0  0  0  0  0  0
    8.1282    3.5668    0.0000 C   0  0  0  0  0  0  0  0  0  0  0  0
    3.7320   -0.9573    0.0000 C   0  0  2  0  0  0  0  0  0  0  0  0
    4.5981   -1.4573    0.0000 C   0  0  0  0  0  0  0  0  0  0  0  0
    4.5981   -2.4573    0.0000 C   0  0  2  0  0  0  0  0  0  0  0  0
    3.7320   -2.9573    0.0000 C   0  0  0  0  0  0  0  0  0  0  0  0
    2.8660   -2.4573    0.0000 C   0  0  0  0  0  0  0  0  0  0  0  0
    5.4576    1.1927    0.0000 H   0  0  0  0  0  0  0  0  0  0  0  0
    5.1350    1.2327    0.0000 H   0  0  0  0  0  0  0  0  0  0  0  0
    5.4576    3.8926    0.0000 H   0  0  0  0  0  0  0  0  0  0  0  0
    5.9534    1.0382    0.0000 H   0  0  0  0  0  0  0  0  0  0  0  0
    6.7517    1.0290    0.0000 H   0  0  0  0  0  0  0  0  0  0  0  0
    6.7517    4.0564    0.0000 H   0  0  0  0  0  0  0  0  0  0  0  0
    5.9534    4.0471    0.0000 H   0  0  0  0  0  0  0  0  0  0  0  0
    3.7320    1.4227    0.0000 H   0  0  0  0  0  0  0  0  0  0  0  0
    7.8016    2.7545    0.0000 H   0  0  0  0  0  0  0  0  0  0  0  0
    7.4732    1.4382    0.0000 H   0  0  0  0  0  0  0  0  0  0  0  0
    7.8750    2.1279    0.0000 H   0  0  0  0  0  0  0  0  0  0  0  0
    4.8101   -0.0399    0.0000 H   0  0  0  0  0  0  0  0  0  0  0  0
    5.2087    0.6503    0.0000 H   0  0  0  0  0  0  0  0  0  0  0  0
    4.5981    4.1627    0.0000 H   0  0  0  0  0  0  0  0  0  0  0  0
    3.1951    3.3527    0.0000 H   0  0  0  0  0  0  0  0  0  0  0  0
    3.5200    0.6253    0.0000 H   0  0  0  0  0  0  0  0  0  0  0  0
    3.1215   -0.0650    0.0000 H   0  0  0  0  0  0  0  0  0  0  0  0
    2.5560    2.0796    0.0000 H   0  0  0  0  0  0  0  0  0  0  0  0
    2.3291    1.2327    0.0000 H   0  0  0  0  0  0  0  0  0  0  0  0
    3.1760    1.0057    0.0000 H   0  0  0  0  0  0  0  0  0  0  0  0
    8.4403    3.0311    0.0000 H   0  0  0  0  0  0  0  0  0  0  0  0
    8.6639    3.8789    0.0000 H   0  0  0  0  0  0  0  0  0  0  0  0
    7.8161    4.1026    0.0000 H   0  0  0  0  0  0  0  0  0  0  0  0
    3.1951   -0.6473    0.0000 H   0  0  0  0  0  0  0  0  0  0  0  0
    5.2087   -1.5650    0.0000 H   0  0  0  0  0  0  0  0  0  0  0  0
    4.8101   -0.8747    0.0000 H   0  0  0  0  0  0  0  0  0  0  0  0
    4.5981   -3.0773    0.0000 H   0  0  0  0  0  0  0  0  0  0  0  0
    3.3335   -3.4323    0.0000 H   0  0  0  0  0  0  0  0  0  0  0  0
    4.1306   -3.4323    0.0000 H   0  0  0  0  0  0  0  0  0  0  0  0
    5.4641   -3.5773    0.0000 H   0  0  0  0  0  0  0  0  0  0  0  0
  1 18  1  0  0  0  0
  1 22  1  0  0  0  0
 20  2  1  1  0  0  0
  2 52  1  0  0  0  0
  3 22  2  0  0  0  0
  4  5  1  0  0  0  0
  4  6  1  0  0  0  0
  4  7  1  0  0  0  0
  4 23  1  1  0  0  0
  5  9  1  0  0  0  0
  5 12  1  1  0  0  0
  5 24  1  0  0  0  0
  6  8  1  0  0  0  0
  6 13  1  0  0  0  0
  6 25  1  6  0  0  0
  7 11  1  0  0  0  0
  7 26  1  0  0  0  0
  7 27  1  0  0  0  0
  8 10  1  0  0  0  0
  8 28  1  0  0  0  0
  8 29  1  0  0  0  0
  9 14  1  0  0  0  0
  9 16  1  1  0  0  0
  9 30  1  0  0  0  0
 10 11  1  0  0  0  0
 10 17  1  6  0  0  0
 10 31  1  0  0  0  0
 11 32  1  0  0  0  0
 11 33  1  0  0  0  0
 12 15  1  0  0  0  0
 12 34  1  0  0  0  0
 12 35  1  0  0  0  0
 13 14  2  0  0  0  0
 13 36  1  0  0  0  0
 14 37  1  0  0  0  0
 18 15  1  6  0  0  0
 15 38  1  0  0  0  0
 15 39  1  0  0  0  0
 16 40  1  0  0  0  0
 16 41  1  0  0  0  0
 16 42  1  0  0  0  0
 17 43  1  0  0  0  0
 17 44  1  0  0  0  0
 17 45  1  0  0  0  0
 18 19  1  0  0  0  0
 18 46  1  0  0  0  0
 19 20  1  0  0  0  0
 19 47  1  0  0  0  0
 19 48  1  0  0  0  0
 20 21  1  0  0  0  0
 20 49  1  0  0  0  0
 21 22  1  0  0  0  0
 21 50  1  0  0  0  0
 21 51  1  0  0  0  0
M  END
> <PUBCHEM_COMPOUND_CID>
11954201

> <PUBCHEM_COMPOUND_CANONICALIZED>
1

> <PUBCHEM_CACTVS_COMPLEXITY>
430

> <PUBCHEM_CACTVS_HBOND_ACCEPTOR>
3

> <PUBCHEM_CACTVS_HBOND_DONOR>
1

> <PUBCHEM_CACTVS_ROTATABLE_BOND>
3

> <PUBCHEM_CACTVS_SUBSKEYS>
AAADceB4MAAAAAAAAAAAAAAAAAAAAAAAAAA0QIAAAAAAAACAAAAAGgAACAAADRSggAICCAAABgCIACDSCAAAAAAgAAAICAEAAAgAEBYAAQACQAAFoAAIAAOIzPDOgAAAAAAAAACAAAQAACAAAAAAAAAAAA==

> <PUBCHEM_IUPAC_OPENEYE_NAME>
(4R,6R)-6-[2-[(1S,2S,4aR,6R,8aS)-2,6-dimethyl-1,2,4a,5,6,7,8,8a-octahydronaphthalen-1-yl]ethyl]-4-hydroxy-tetrahydropyran-2-one

> <PUBCHEM_IUPAC_CAS_NAME>
(4R,6R)-6-[2-[(1S,2S,4aR,6R,8aS)-2,6-dimethyl-1,2,4a,5,6,7,8,8a-octahydronaphthalen-1-yl]ethyl]-4-hydroxy-2-oxanone

> <PUBCHEM_IUPAC_NAME>
(4R,6R)-6-[2-[(1S,2S,4aR,6R,8aS)-2,6-dimethyl-1,2,4a,5,6,7,8,8a-octahydronaphthalen-1-yl]ethyl]-4-hydroxyoxan-2-one

> <PUBCHEM_IUPAC_SYSTEMATIC_NAME>
(4R,6R)-6-[2-[(1S,2S,4aR,6R,8aS)-2,6-dimethyl-1,2,4a,5,6,7,8,8a-octahydronaphthalen-1-yl]ethyl]-4-oxidanyl-oxan-2-one

> <PUBCHEM_IUPAC_TRADITIONAL_NAME>
(4R,6R)-6-[2-[(1S,2S,4aR,6R,8aS)-2,6-dimethyl-1,2,4a,5,6,7,8,8a-octahydronaphthalen-1-yl]ethyl]-4-hydroxy-tetrahydropyran-2-one

> <PUBCHEM_IUPAC_INCHI>
InChI=1S/C19H30O3/c1-12-3-7-18-14(9-12)5-4-13(2)17(18)8-6-16-10-15(20)11-19(21)22-16/h4-5,12-18,20H,3,6-11H2,1-2H3/t12-,13+,14+,15-,16-,17+,18+/m1/s1

> <PUBCHEM_IUPAC_INCHIKEY>
AGNDLYBQPUJADV-VCWNUMGPSA-N

> <PUBCHEM_XLOGP3_AA>
4.3

> <PUBCHEM_EXACT_MASS>
306.219495

> <PUBCHEM_MOLECULAR_FORMULA>
C19H30O3

> <PUBCHEM_MOLECULAR_WEIGHT>
306.4397

> <PUBCHEM_OPENEYE_CAN_SMILES>
CC1CCC2C(C1)C=CC(C2CCC3CC(CC(=O)O3)O)C

> <PUBCHEM_OPENEYE_ISO_SMILES>
C[C@@H]1CC[C@H]2[C@H](C1)C=C[C@@H]([C@@H]2CC[C@@H]3C[C@H](CC(=O)O3)O)C

> <PUBCHEM_CACTVS_TPSA>
46.5

> <PUBCHEM_MONOISOTOPIC_WEIGHT>
306.219495

> <PUBCHEM_TOTAL_CHARGE>
0

> <PUBCHEM_HEAVY_ATOM_COUNT>
22

> <PUBCHEM_ATOM_DEF_STEREO_COUNT>
7

> <PUBCHEM_ATOM_UDEF_STEREO_COUNT>
0

> <PUBCHEM_BOND_DEF_STEREO_COUNT>
0

> <PUBCHEM_BOND_UDEF_STEREO_COUNT>
0

> <PUBCHEM_ISOTOPIC_ATOM_COUNT>
0

> <PUBCHEM_COMPONENT_COUNT>
1

> <PUBCHEM_CACTVS_TAUTO_COUNT>
2

> <PUBCHEM_COORDINATE_TYPE>
1
5
255

> <PUBCHEM_BONDANNOTATIONS>
10  17  6
18  15  6
20  2  5
4  23  5
5  12  5
6  25  6
9  16  5

$$$$

