47204992
  -OEChem-06241222573D

 33 35  0     0  0  0  0  0  0999 V2000
    5.5230    0.3860   -1.2966 O   0  0  0  0  0  0  0  0  0  0  0  0
    1.3907   -2.0911   -0.0029 O   0  0  0  0  0  0  0  0  0  0  0  0
   -1.3471   -1.4127   -0.3831 N   0  0  0  0  0  0  0  0  0  0  0  0
    1.7648   -0.1495    1.2084 N   0  0  0  0  0  0  0  0  0  0  0  0
   -2.4339    0.4048    0.3190 C   0  0  0  0  0  0  0  0  0  0  0  0
   -2.5756   -0.7914   -0.3877 C   0  0  0  0  0  0  0  0  0  0  0  0
   -0.4362   -0.6526    0.3001 C   0  0  0  0  0  0  0  0  0  0  0  0
   -1.0786    0.4792    0.7464 C   0  0  0  0  0  0  0  0  0  0  0  0
   -3.5570    1.2429    0.4658 C   0  0  0  0  0  0  0  0  0  0  0  0
   -4.7773    0.8544   -0.0985 C   0  0  0  0  0  0  0  0  0  0  0  0
   -3.7892   -1.1925   -0.9575 C   0  0  0  0  0  0  0  0  0  0  0  0
    0.9308   -1.0266    0.4822 C   0  0  0  0  0  0  0  0  0  0  0  0
   -4.8893   -0.3449   -0.7992 C   0  0  0  0  0  0  0  0  0  0  0  0
    3.1703   -0.3754    1.4574 C   0  0  0  0  0  0  0  0  0  0  0  0
    4.0337    0.2099    0.3775 C   0  0  0  0  0  0  0  0  0  0  0  0
   -5.9718    1.7368    0.0529 C   0  0  0  0  0  0  0  0  0  0  0  0
    4.1037    1.5678   -0.0157 C   0  0  0  0  0  0  0  0  0  0  0  0
    4.9156   -0.4680   -0.4315 C   0  0  0  0  0  0  0  0  0  0  0  0
    5.0234    1.6227   -1.0370 C   0  0  0  0  0  0  0  0  0  0  0  0
   -0.6457    1.2876    1.3198 H   0  0  0  0  0  0  0  0  0  0  0  0
   -1.1498   -2.3018   -0.8217 H   0  0  0  0  0  0  0  0  0  0  0  0
   -3.4707    2.1776    1.0135 H   0  0  0  0  0  0  0  0  0  0  0  0
   -3.8774   -2.1264   -1.5025 H   0  0  0  0  0  0  0  0  0  0  0  0
    3.4131    0.0927    2.4174 H   0  0  0  0  0  0  0  0  0  0  0  0
    3.3480   -1.4524    1.5501 H   0  0  0  0  0  0  0  0  0  0  0  0
   -5.8422   -0.6398   -1.2331 H   0  0  0  0  0  0  0  0  0  0  0  0
    1.3769    0.7135    1.5746 H   0  0  0  0  0  0  0  0  0  0  0  0
   -6.5260    1.4662    0.9571 H   0  0  0  0  0  0  0  0  0  0  0  0
   -5.6794    2.7901    0.1226 H   0  0  0  0  0  0  0  0  0  0  0  0
   -6.6411    1.6475   -0.8096 H   0  0  0  0  0  0  0  0  0  0  0  0
    3.5542    2.4045    0.3917 H   0  0  0  0  0  0  0  0  0  0  0  0
    5.2108   -1.5039   -0.5152 H   0  0  0  0  0  0  0  0  0  0  0  0
    5.4127    2.4222   -1.6503 H   0  0  0  0  0  0  0  0  0  0  0  0
  1 18  1  0  0  0  0
  1 19  1  0  0  0  0
  2 12  2  0  0  0  0
  3  6  1  0  0  0  0
  3  7  1  0  0  0  0
  3 21  1  0  0  0  0
  4 12  1  0  0  0  0
  4 14  1  0  0  0  0
  4 27  1  0  0  0  0
  5  6  2  0  0  0  0
  5  8  1  0  0  0  0
  5  9  1  0  0  0  0
  6 11  1  0  0  0  0
  7  8  2  0  0  0  0
  7 12  1  0  0  0  0
  8 20  1  0  0  0  0
  9 10  2  0  0  0  0
  9 22  1  0  0  0  0
 10 13  1  0  0  0  0
 10 16  1  0  0  0  0
 11 13  2  0  0  0  0
 11 23  1  0  0  0  0
 13 26  1  0  0  0  0
 14 15  1  0  0  0  0
 14 24  1  0  0  0  0
 14 25  1  0  0  0  0
 15 17  1  0  0  0  0
 15 18  2  0  0  0  0
 16 28  1  0  0  0  0
 16 29  1  0  0  0  0
 16 30  1  0  0  0  0
 17 19  2  0  0  0  0
 17 31  1  0  0  0  0
 18 32  1  0  0  0  0
 19 33  1  0  0  0  0
M  END
> <PUBCHEM_COMPOUND_CID>
47204992

> <PUBCHEM_CONFORMER_RMSD>
0.6

> <PUBCHEM_CONFORMER_DIVERSEORDER>
1
39
33
8
9
46
43
24
6
36
12
25
3
47
28
37
11
45
40
10
4
5
35
22
32
2
38
48
42
34
27
26
50
7
21
30
14
19
52
20
13
31
44
18
51
23
17
29
15
49
16
41

> <PUBCHEM_MMFF94_PARTIAL_CHARGES>
27
1 -0.28
10 -0.14
11 -0.15
12 0.71
13 -0.15
14 0.48
15 -0.18
16 0.14
17 -0.15
18 -0.01
19 -0.01
2 -0.57
20 0.15
21 0.27
22 0.15
23 0.15
26 0.15
27 0.37
3 0.03
31 0.15
32 0.15
33 0.15
4 -0.73
6 -0.15
7 -0.24
8 -0.15
9 -0.15

> <PUBCHEM_EFFECTIVE_ROTOR_COUNT>
4

> <PUBCHEM_PHARMACOPHORE_FEATURES>
8
1 1 acceptor
1 2 acceptor
1 3 cation
1 3 donor
1 4 donor
5 1 15 17 18 19 rings
5 3 5 6 7 8 rings
6 5 6 9 10 11 13 rings

> <PUBCHEM_HEAVY_ATOM_COUNT>
19

> <PUBCHEM_ATOM_DEF_STEREO_COUNT>
0

> <PUBCHEM_ATOM_UDEF_STEREO_COUNT>
0

> <PUBCHEM_BOND_DEF_STEREO_COUNT>
0

> <PUBCHEM_BOND_UDEF_STEREO_COUNT>
0

> <PUBCHEM_ISOTOPIC_ATOM_COUNT>
0

> <PUBCHEM_COMPONENT_COUNT>
1

> <PUBCHEM_CACTVS_TAUTO_COUNT>
13

> <PUBCHEM_CONFORMER_ID>
02D04A8000000001

> <PUBCHEM_MMFF94_ENERGY>
25.4158

> <PUBCHEM_FEATURE_SELFOVERLAP>
40.686

> <PUBCHEM_SHAPE_FINGERPRINT>
10378564 45 17749106738120902324
10498660 4 18334297565314602424
10554248 39 18124054552915761583
10670039 82 18262795284884089176
10912923 1 18059869358673803251
11056379 131 18187651241859353711
11128504 68 18408605825331545148
11796584 16 4967607269813918837
12236239 1 18343585144244646479
12555020 224 13984384370560842973
12596602 18 17060337461710390729
12616971 3 18059589008851884546
12670543 26 17458343073977381549
12892183 10 13398364489713493258
12954195 1 16950831617678051657
13533116 47 16414925265343875800
13631057 29 17273694244132089867
13675066 3 14045748152924233123
13955234 65 16845023415330941242
1420 369 7781524715477224784
14211702 104 8214135300662493965
14251764 75 16699462197534538676
14341114 176 13542466466949929700
14528608 73 18411140212286375124
14573314 32 17168143450904277609
14840074 17 17989201542917143381
15183329 4 17458619051459289368
15188451 53 9727632774268830893
15575132 122 18202285840003111885
17844677 252 15936410022338969121
17857418 61 8646765591013882153
17870717 6 17095519583019587709
17959699 21 18412826910252102552
18785283 64 14404601174477041342
19784866 140 15936405658510095787
19784866 240 6483354425958112441
200 152 5256405002486814995
20369508 70 16153430554421086802
204376 136 17203613683136919291
20567600 234 15123499272975850839
20645477 70 14923942319809197250
21267235 1 18041564642588406631
21315764 119 17821999960695429028
21652331 79 17918278662069569924
21857420 4 15438536683384861620
22061861 79 15502375625352196564
22079108 93 17060616685712326881
2215653 11 16588026822559922197
22646028 1 7853574625417532378
2297311 6 17603302631702669577
23175994 123 15430321296016837435
23253445 4 14261348046556431806
23366157 5 18122907791789103659
23559900 14 17240493476470127272
23596394 208 16370719365941923718
3004659 81 18187926231493274382
32948 21 17822009826414434712
3298306 158 16950563298318239182
3472631 163 18412258402885398324
34797466 226 16950853492141629713
474 4 17917709080786447848
4990 188 17095525089046380746
5104073 3 17203051785930345336
5374978 207 11600006557268552006
542803 24 18202285814048022107
543368 44 18271808960669645429
5924683 9 13758063053231055625
633830 44 18188221905035305452
76465 3 8142085359902040955
960060 61 16732978705136467156

> <PUBCHEM_SHAPE_MULTIPOLES>
369.31
14.16
1.69
1.09
2.64
0.1
0.03
6.43
-3.97
-0.28
-0.2
0.83
0
-1.24

> <PUBCHEM_SHAPE_SELFOVERLAP>
810.248

> <PUBCHEM_SHAPE_VOLUME>
203.5

> <PUBCHEM_COORDINATE_TYPE>
2
5
10

$$$$

