441285
  -OEChem-07051212533D

 36 39  0     1  0  0  0  0  0999 V2000
    4.7534    1.3114   -0.6877 O   0  0  0  0  0  0  0  0  0  0  0  0
    2.8745    0.8170   -1.8797 O   0  0  0  0  0  0  0  0  0  0  0  0
    2.0173   -1.5131    0.3887 N   0  0  1  0  0  0  0  0  0  0  0  0
   -3.8760   -1.0282   -0.6127 N   0  0  0  0  0  0  0  0  0  0  0  0
    0.5948   -1.1186    0.5812 C   0  0  1  0  0  0  0  0  0  0  0  0
    0.3562    0.4138    0.4375 C   0  0  0  0  0  0  0  0  0  0  0  0
   -0.3133   -1.9756   -0.3773 C   0  0  0  0  0  0  0  0  0  0  0  0
    2.9340   -0.5875    1.0749 C   0  0  0  0  0  0  0  0  0  0  0  0
   -1.7020   -1.4450   -0.4130 C   0  0  0  0  0  0  0  0  0  0  0  0
    2.8041    0.8403    0.5374 C   0  0  2  0  0  0  0  0  0  0  0  0
   -1.0443    0.8854    0.3483 C   0  0  0  0  0  0  0  0  0  0  0  0
   -1.9477   -0.1008   -0.0649 C   0  0  0  0  0  0  0  0  0  0  0  0
    1.3828    1.2799    0.3864 C   0  0  0  0  0  0  0  0  0  0  0  0
   -3.3028    0.1536   -0.1957 C   0  0  0  0  0  0  0  0  0  0  0  0
    2.2824   -2.8823    0.8420 C   0  0  0  0  0  0  0  0  0  0  0  0
   -2.9123   -2.0039   -0.7497 C   0  0  0  0  0  0  0  0  0  0  0  0
   -1.5670    2.1543    0.6272 C   0  0  0  0  0  0  0  0  0  0  0  0
    3.4450    0.9799   -0.8114 C   0  0  0  0  0  0  0  0  0  0  0  0
   -3.8394    1.4126    0.0770 C   0  0  0  0  0  0  0  0  0  0  0  0
   -2.9396    2.4071    0.4915 C   0  0  0  0  0  0  0  0  0  0  0  0
    0.3018   -1.3577    1.6161 H   0  0  0  0  0  0  0  0  0  0  0  0
   -0.3422   -3.0198   -0.0467 H   0  0  0  0  0  0  0  0  0  0  0  0
    0.0950   -1.9566   -1.3963 H   0  0  0  0  0  0  0  0  0  0  0  0
    3.9707   -0.9215    0.9378 H   0  0  0  0  0  0  0  0  0  0  0  0
    2.7356   -0.5926    2.1557 H   0  0  0  0  0  0  0  0  0  0  0  0
    3.2950    1.5320    1.2337 H   0  0  0  0  0  0  0  0  0  0  0  0
    1.2165    2.3463    0.2589 H   0  0  0  0  0  0  0  0  0  0  0  0
    3.3419   -3.1327    0.7123 H   0  0  0  0  0  0  0  0  0  0  0  0
    1.7329   -3.6170    0.2464 H   0  0  0  0  0  0  0  0  0  0  0  0
    2.0258   -3.0235    1.8980 H   0  0  0  0  0  0  0  0  0  0  0  0
   -3.1830   -2.9980   -1.0765 H   0  0  0  0  0  0  0  0  0  0  0  0
   -0.9218    2.9616    0.9634 H   0  0  0  0  0  0  0  0  0  0  0  0
   -4.8607   -1.1607   -0.7970 H   0  0  0  0  0  0  0  0  0  0  0  0
   -4.8991    1.6177   -0.0236 H   0  0  0  0  0  0  0  0  0  0  0  0
   -3.3195    3.4012    0.7167 H   0  0  0  0  0  0  0  0  0  0  0  0
    5.1914    1.4060   -1.5603 H   0  0  0  0  0  0  0  0  0  0  0  0
  1 18  1  0  0  0  0
  1 36  1  0  0  0  0
  2 18  2  0  0  0  0
  3  5  1  0  0  0  0
  3  8  1  0  0  0  0
  3 15  1  0  0  0  0
  4 14  1  0  0  0  0
  4 16  1  0  0  0  0
  4 33  1  0  0  0  0
  5  6  1  0  0  0  0
  5  7  1  0  0  0  0
  5 21  1  0  0  0  0
  6 11  1  0  0  0  0
  6 13  2  0  0  0  0
  7  9  1  0  0  0  0
  7 22  1  0  0  0  0
  7 23  1  0  0  0  0
  8 10  1  0  0  0  0
  8 24  1  0  0  0  0
  8 25  1  0  0  0  0
  9 12  1  0  0  0  0
  9 16  2  0  0  0  0
 10 13  1  0  0  0  0
 10 18  1  0  0  0  0
 10 26  1  0  0  0  0
 11 12  2  0  0  0  0
 11 17  1  0  0  0  0
 12 14  1  0  0  0  0
 13 27  1  0  0  0  0
 14 19  2  0  0  0  0
 15 28  1  0  0  0  0
 15 29  1  0  0  0  0
 15 30  1  0  0  0  0
 16 31  1  0  0  0  0
 17 20  2  0  0  0  0
 17 32  1  0  0  0  0
 19 20  1  0  0  0  0
 19 34  1  0  0  0  0
 20 35  1  0  0  0  0
M  END
> <PUBCHEM_COMPOUND_CID>
441285

> <PUBCHEM_CONFORMER_RMSD>
0.6

> <PUBCHEM_CONFORMER_DIVERSEORDER>
1
2
4
3
6
5

> <PUBCHEM_MMFF94_PARTIAL_CHARGES>
26
1 -0.65
10 0.2
11 0.03
13 -0.29
14 -0.15
15 0.27
16 -0.3
17 -0.15
18 0.66
19 -0.15
2 -0.57
20 -0.15
27 0.15
3 -0.81
31 0.15
32 0.15
33 0.27
34 0.15
35 0.15
36 0.5
4 0.03
5 0.41
6 -0.17
7 0.18
8 0.27
9 -0.18

> <PUBCHEM_EFFECTIVE_ROTOR_COUNT>
1.8

> <PUBCHEM_PHARMACOPHORE_FEATURES>
10
1 1 acceptor
1 2 acceptor
1 3 cation
1 4 cation
1 4 donor
3 1 2 18 anion
5 4 9 12 14 16 rings
6 11 12 14 17 19 20 rings
6 3 5 6 8 10 13 rings
6 5 6 7 9 11 12 rings

> <PUBCHEM_HEAVY_ATOM_COUNT>
20

> <PUBCHEM_ATOM_DEF_STEREO_COUNT>
1

> <PUBCHEM_ATOM_UDEF_STEREO_COUNT>
1

> <PUBCHEM_BOND_DEF_STEREO_COUNT>
0

> <PUBCHEM_BOND_UDEF_STEREO_COUNT>
0

> <PUBCHEM_ISOTOPIC_ATOM_COUNT>
0

> <PUBCHEM_COMPONENT_COUNT>
1

> <PUBCHEM_CACTVS_TAUTO_COUNT>
1

> <PUBCHEM_CONFORMER_ID>
0006BBC500000001

> <PUBCHEM_MMFF94_ENERGY>
47.5996

> <PUBCHEM_FEATURE_SELFOVERLAP>
51.045

> <PUBCHEM_SHAPE_FINGERPRINT>
10062212 137 18340217357166518594
10498660 4 18408325471167537221
10616163 171 18408044000517338375
10756046 5 18335978770085483182
10759866 29 18413106190537253370
10967382 1 18263088884563337425
11640471 11 18130496475035471404
12173636 292 18262246632966096789
12236239 1 18202567254496416628
12403814 3 17989492939706111757
12553582 1 18118977892818878767
12788726 201 17677045875581850929
13140716 1 17905053547321523843
13224815 77 18342734122207863769
14178342 30 18337129907193881224
14790565 3 18044646736552944345
15196674 1 18408891758199491995
15442244 35 18193285310426158954
15536298 74 18262243321414384338
15669948 3 18260836990160183735
15775835 57 18412259549488607016
16752209 62 18260556606047221951
16945 1 18337397028342214075
17492 89 18338524143963100739
1813 80 17557713757227217570
18186145 218 17346600815163615363
19591789 44 17691401915385008995
19862831 5 18259978297290756564
20510252 161 18041562442779128921
20559304 39 18337684073997113250
20645476 183 18342735178738287039
20715895 44 17765731500173559373
21267235 1 18409167727181493227
21501502 16 18337677519813637843
2255824 54 18058449975141103970
2334 1 18336271223040644483
23366157 5 18130226085680984162
23402539 116 18335984177919034724
23419403 2 15023130470093537187
23463225 33 18266185109006623715
23557571 272 17967811600544132196
23558518 356 18340491187391846083
23559900 14 17896317107337661646
23598291 2 18270686492436209002
25147074 1 18337399339208809491
2748010 2 16607166335033927579
3082319 5 18342177764955499080
312423 11 18340205288482710867
335352 9 17903082466528113335
350125 39 18121779693058835513
352729 6 18044944721224833851
474 4 17774999072834312492
5104073 3 18337397131579659595
7097593 13 18053116299721353267
7364860 26 18336549438390703306
77492 1 18202289095176384328
90316 7 17047127060929794698
90525 40 18261116330569952695
9709674 26 18334861631711821419
9981440 41 18270967813258224050

> <PUBCHEM_SHAPE_MULTIPOLES>
389.89
7.22
2.75
1.04
1.41
0.8
0.23
-1.96
1.32
-0.46
-0.26
0.8
-0.05
-1.59

> <PUBCHEM_SHAPE_SELFOVERLAP>
873.478

> <PUBCHEM_SHAPE_VOLUME>
206.5

> <PUBCHEM_COORDINATE_TYPE>
2
5
10

$$$$

