17395811
  -OEChem-06241222522D

 45 47  0     0  0  0  0  0  0999 V2000
   10.1921    0.9427    0.0000 F   0  0  0  0  0  0  0  0  0  0  0  0
    7.9244   -0.4203    0.0000 O   0  0  0  0  0  0  0  0  0  0  0  0
    8.1886    3.1756    0.0000 O   0  0  0  0  0  0  0  0  0  0  0  0
    4.6783   -1.9895    0.0000 N   0  0  0  0  0  0  0  0  0  0  0  0
    4.6783   -3.5990    0.0000 N   0  0  0  0  0  0  0  0  0  0  0  0
    6.2781    0.1178    0.0000 N   0  0  0  0  0  0  0  0  0  0  0  0
    8.5458    1.4807    0.0000 N   0  0  0  0  0  0  0  0  0  0  0  0
    4.9889   -1.0390    0.0000 C   0  0  0  0  0  0  0  0  0  0  0  0
    3.7320   -2.2942    0.0000 C   0  0  0  0  0  0  0  0  0  0  0  0
    5.2619   -2.7942    0.0000 C   0  0  0  0  0  0  0  0  0  0  0  0
    5.9674   -0.8327    0.0000 C   0  0  0  0  0  0  0  0  0  0  0  0
    3.7320   -3.2942    0.0000 C   0  0  0  0  0  0  0  0  0  0  0  0
    2.8660   -1.7942    0.0000 C   0  0  0  0  0  0  0  0  0  0  0  0
    6.2619   -2.7942    0.0000 C   0  0  0  0  0  0  0  0  0  0  0  0
    2.8660   -3.7942    0.0000 C   0  0  0  0  0  0  0  0  0  0  0  0
    2.0000   -2.2942    0.0000 C   0  0  0  0  0  0  0  0  0  0  0  0
    2.0000   -3.2942    0.0000 C   0  0  0  0  0  0  0  0  0  0  0  0
    7.2566    0.3240    0.0000 C   0  0  0  0  0  0  0  0  0  0  0  0
    7.5673    1.2745    0.0000 C   0  0  0  0  0  0  0  0  0  0  0  0
    8.8564    2.4313    0.0000 C   0  0  0  0  0  0  0  0  0  0  0  0
    9.8349    2.6375    0.0000 C   0  0  0  0  0  0  0  0  0  0  0  0
   10.5028    1.8932    0.0000 C   0  0  0  0  0  0  0  0  0  0  0  0
   10.1456    3.5880    0.0000 C   0  0  0  0  0  0  0  0  0  0  0  0
   11.4813    2.0994    0.0000 C   0  0  0  0  0  0  0  0  0  0  0  0
   11.1241    3.7942    0.0000 C   0  0  0  0  0  0  0  0  0  0  0  0
   11.7920    3.0499    0.0000 C   0  0  0  0  0  0  0  0  0  0  0  0
    4.9684   -0.4193    0.0000 H   0  0  0  0  0  0  0  0  0  0  0  0
    4.3751   -0.9516    0.0000 H   0  0  0  0  0  0  0  0  0  0  0  0
    5.9880   -1.4524    0.0000 H   0  0  0  0  0  0  0  0  0  0  0  0
    6.5812   -0.9201    0.0000 H   0  0  0  0  0  0  0  0  0  0  0  0
    2.8660   -1.1742    0.0000 H   0  0  0  0  0  0  0  0  0  0  0  0
    6.2619   -3.4142    0.0000 H   0  0  0  0  0  0  0  0  0  0  0  0
    6.8819   -2.7942    0.0000 H   0  0  0  0  0  0  0  0  0  0  0  0
    6.2619   -2.1742    0.0000 H   0  0  0  0  0  0  0  0  0  0  0  0
    5.8640    0.5792    0.0000 H   0  0  0  0  0  0  0  0  0  0  0  0
    2.8660   -4.4142    0.0000 H   0  0  0  0  0  0  0  0  0  0  0  0
    1.4631   -1.9842    0.0000 H   0  0  0  0  0  0  0  0  0  0  0  0
    1.4631   -3.6042    0.0000 H   0  0  0  0  0  0  0  0  0  0  0  0
    7.5467    1.8942    0.0000 H   0  0  0  0  0  0  0  0  0  0  0  0
    6.9534    1.3619    0.0000 H   0  0  0  0  0  0  0  0  0  0  0  0
    8.9598    1.0193    0.0000 H   0  0  0  0  0  0  0  0  0  0  0  0
    9.7315    4.0495    0.0000 H   0  0  0  0  0  0  0  0  0  0  0  0
   11.8954    1.6379    0.0000 H   0  0  0  0  0  0  0  0  0  0  0  0
   11.3167    4.3835    0.0000 H   0  0  0  0  0  0  0  0  0  0  0  0
   12.3986    3.1778    0.0000 H   0  0  0  0  0  0  0  0  0  0  0  0
  1 22  1  0  0  0  0
  2 18  2  0  0  0  0
  3 20  2  0  0  0  0
  4  8  1  0  0  0  0
  4  9  1  0  0  0  0
  4 10  1  0  0  0  0
  5 10  2  0  0  0  0
  5 12  1  0  0  0  0
  6 11  1  0  0  0  0
  6 18  1  0  0  0  0
  6 35  1  0  0  0  0
  7 19  1  0  0  0  0
  7 20  1  0  0  0  0
  7 41  1  0  0  0  0
  8 11  1  0  0  0  0
  8 27  1  0  0  0  0
  8 28  1  0  0  0  0
  9 12  1  0  0  0  0
  9 13  2  0  0  0  0
 10 14  1  0  0  0  0
 11 29  1  0  0  0  0
 11 30  1  0  0  0  0
 12 15  2  0  0  0  0
 13 16  1  0  0  0  0
 13 31  1  0  0  0  0
 14 32  1  0  0  0  0
 14 33  1  0  0  0  0
 14 34  1  0  0  0  0
 15 17  1  0  0  0  0
 15 36  1  0  0  0  0
 16 17  2  0  0  0  0
 16 37  1  0  0  0  0
 17 38  1  0  0  0  0
 18 19  1  0  0  0  0
 19 39  1  0  0  0  0
 19 40  1  0  0  0  0
 20 21  1  0  0  0  0
 21 22  1  0  0  0  0
 21 23  2  0  0  0  0
 22 24  2  0  0  0  0
 23 25  1  0  0  0  0
 23 42  1  0  0  0  0
 24 26  1  0  0  0  0
 24 43  1  0  0  0  0
 25 26  2  0  0  0  0
 25 44  1  0  0  0  0
 26 45  1  0  0  0  0
M  END
> <PUBCHEM_COMPOUND_CID>
17395811

> <PUBCHEM_COMPOUND_CANONICALIZED>
1

> <PUBCHEM_CACTVS_COMPLEXITY>
504

> <PUBCHEM_CACTVS_HBOND_ACCEPTOR>
4

> <PUBCHEM_CACTVS_HBOND_DONOR>
2

> <PUBCHEM_CACTVS_ROTATABLE_BOND>
6

> <PUBCHEM_CACTVS_SUBSKEYS>
AAADceB7sQAAAAAAAAAAAAAAAAAAAWAAAAAwYAAAAAAAAFgB9AAAHwAQAAAADAjBnwwz0LfMEACoAydydACCgC0lEqAJ2KG4dNiIaLLAnbGUIQholgLIyacYiACOAAAAAAAAACAAAAAAAAAAQAAAAAAAAA==

> <PUBCHEM_IUPAC_OPENEYE_NAME>
2-fluoro-N-[2-[2-(2-methylbenzimidazol-1-yl)ethylamino]-2-oxo-ethyl]benzamide

> <PUBCHEM_IUPAC_CAS_NAME>
2-fluoro-N-[2-[2-(2-methyl-1-benzimidazolyl)ethylamino]-2-oxoethyl]benzamide

> <PUBCHEM_IUPAC_NAME>
2-fluoro-N-[2-[2-(2-methylbenzimidazol-1-yl)ethylamino]-2-oxoethyl]benzamide

> <PUBCHEM_IUPAC_SYSTEMATIC_NAME>
2-fluoranyl-N-[2-[2-(2-methylbenzimidazol-1-yl)ethylamino]-2-oxidanylidene-ethyl]benzamide

> <PUBCHEM_IUPAC_TRADITIONAL_NAME>
2-fluoro-N-[2-keto-2-[2-(2-methylbenzimidazol-1-yl)ethylamino]ethyl]benzamide

> <PUBCHEM_IUPAC_INCHI>
InChI=1S/C19H19FN4O2/c1-13-23-16-8-4-5-9-17(16)24(13)11-10-21-18(25)12-22-19(26)14-6-2-3-7-15(14)20/h2-9H,10-12H2,1H3,(H,21,25)(H,22,26)

> <PUBCHEM_IUPAC_INCHIKEY>
WZVPJSXQKRBRAJ-UHFFFAOYSA-N

> <PUBCHEM_XLOGP3_AA>
2.2

> <PUBCHEM_EXACT_MASS>
354.149204

> <PUBCHEM_MOLECULAR_FORMULA>
C19H19FN4O2

> <PUBCHEM_MOLECULAR_WEIGHT>
354.378163

> <PUBCHEM_OPENEYE_CAN_SMILES>
CC1=NC2=CC=CC=C2N1CCNC(=O)CNC(=O)C3=CC=CC=C3F

> <PUBCHEM_OPENEYE_ISO_SMILES>
CC1=NC2=CC=CC=C2N1CCNC(=O)CNC(=O)C3=CC=CC=C3F

> <PUBCHEM_CACTVS_TPSA>
76

> <PUBCHEM_MONOISOTOPIC_WEIGHT>
354.149204

> <PUBCHEM_TOTAL_CHARGE>
0

> <PUBCHEM_HEAVY_ATOM_COUNT>
26

> <PUBCHEM_ATOM_DEF_STEREO_COUNT>
0

> <PUBCHEM_ATOM_UDEF_STEREO_COUNT>
0

> <PUBCHEM_BOND_DEF_STEREO_COUNT>
0

> <PUBCHEM_BOND_UDEF_STEREO_COUNT>
0

> <PUBCHEM_ISOTOPIC_ATOM_COUNT>
0

> <PUBCHEM_COMPONENT_COUNT>
1

> <PUBCHEM_CACTVS_TAUTO_COUNT>
4

> <PUBCHEM_COORDINATE_TYPE>
1
5
255

> <PUBCHEM_BONDANNOTATIONS>
12  15  8
13  16  8
15  17  8
16  17  8
21  22  8
21  23  8
22  24  8
23  25  8
24  26  8
25  26  8
4  10  8
4  9  8
5  10  8
5  12  8
9  12  8
9  13  8

$$$$

