6521
  -OEChem-06261201223D

 39 40  0     0  0  0  0  0  0999 V2000
   -0.6156    0.3154    0.4102 O   0  0  0  0  0  0  0  0  0  0  0  0
    0.3728    0.6318   -0.6118 O   0  0  0  0  0  0  0  0  0  0  0  0
   -1.9621    1.9093   -0.6341 O   0  0  0  0  0  0  0  0  0  0  0  0
    1.7706    1.2198    1.1614 O   0  0  0  0  0  0  0  0  0  0  0  0
   -1.7987    2.6950    0.5756 O   0  0  0  0  0  0  0  0  0  0  0  0
   -1.8810    0.5521   -0.2053 C   0  0  0  0  0  0  0  0  0  0  0  0
    1.6360    0.3947    0.0051 C   0  0  0  0  0  0  0  0  0  0  0  0
   -2.0458   -0.3486   -1.4359 C   0  0  0  0  0  0  0  0  0  0  0  0
   -2.9826    0.2708    0.8246 C   0  0  0  0  0  0  0  0  0  0  0  0
    1.7282   -1.0730    0.4420 C   0  0  0  0  0  0  0  0  0  0  0  0
    2.7348    0.7283   -1.0120 C   0  0  0  0  0  0  0  0  0  0  0  0
   -2.1226   -1.8285   -1.0648 C   0  0  0  0  0  0  0  0  0  0  0  0
   -3.0636   -1.2090    1.1970 C   0  0  0  0  0  0  0  0  0  0  0  0
    3.1210   -1.4388    0.9534 C   0  0  0  0  0  0  0  0  0  0  0  0
    4.1277    0.3667   -0.4997 C   0  0  0  0  0  0  0  0  0  0  0  0
   -3.2212   -2.0910   -0.0384 C   0  0  0  0  0  0  0  0  0  0  0  0
    4.2021   -1.0950   -0.0673 C   0  0  0  0  0  0  0  0  0  0  0  0
   -1.2356   -0.2011   -2.1593 H   0  0  0  0  0  0  0  0  0  0  0  0
   -2.9629   -0.0633   -1.9691 H   0  0  0  0  0  0  0  0  0  0  0  0
   -3.9513    0.6080    0.4340 H   0  0  0  0  0  0  0  0  0  0  0  0
   -2.8091    0.8333    1.7501 H   0  0  0  0  0  0  0  0  0  0  0  0
    1.0073   -1.3009    1.2368 H   0  0  0  0  0  0  0  0  0  0  0  0
    1.4649   -1.7239   -0.4020 H   0  0  0  0  0  0  0  0  0  0  0  0
    2.5387    0.2036   -1.9560 H   0  0  0  0  0  0  0  0  0  0  0  0
    2.7085    1.8002   -1.2448 H   0  0  0  0  0  0  0  0  0  0  0  0
   -1.1581   -2.1610   -0.6632 H   0  0  0  0  0  0  0  0  0  0  0  0
   -2.3134   -2.4231   -1.9654 H   0  0  0  0  0  0  0  0  0  0  0  0
   -3.9093   -1.3717    1.8747 H   0  0  0  0  0  0  0  0  0  0  0  0
   -2.1586   -1.5031    1.7427 H   0  0  0  0  0  0  0  0  0  0  0  0
    3.1586   -2.5104    1.1803 H   0  0  0  0  0  0  0  0  0  0  0  0
    3.3222   -0.9088    1.8924 H   0  0  0  0  0  0  0  0  0  0  0  0
    4.3896    1.0127    0.3471 H   0  0  0  0  0  0  0  0  0  0  0  0
    4.8685    0.5565   -1.2846 H   0  0  0  0  0  0  0  0  0  0  0  0
   -4.1999   -1.9028   -0.4969 H   0  0  0  0  0  0  0  0  0  0  0  0
   -3.2051   -3.1461    0.2572 H   0  0  0  0  0  0  0  0  0  0  0  0
    5.1904   -1.3042    0.3574 H   0  0  0  0  0  0  0  0  0  0  0  0
    4.0896   -1.7405   -0.9472 H   0  0  0  0  0  0  0  0  0  0  0  0
    1.3030    0.7929    1.8986 H   0  0  0  0  0  0  0  0  0  0  0  0
   -2.7227    2.9944    0.6259 H   0  0  0  0  0  0  0  0  0  0  0  0
  1  2  1  0  0  0  0
  1  6  1  0  0  0  0
  2  7  1  0  0  0  0
  3  5  1  0  0  0  0
  3  6  1  0  0  0  0
  4  7  1  0  0  0  0
  4 38  1  0  0  0  0
  5 39  1  0  0  0  0
  6  8  1  0  0  0  0
  6  9  1  0  0  0  0
  7 10  1  0  0  0  0
  7 11  1  0  0  0  0
  8 12  1  0  0  0  0
  8 18  1  0  0  0  0
  8 19  1  0  0  0  0
  9 13  1  0  0  0  0
  9 20  1  0  0  0  0
  9 21  1  0  0  0  0
 10 14  1  0  0  0  0
 10 22  1  0  0  0  0
 10 23  1  0  0  0  0
 11 15  1  0  0  0  0
 11 24  1  0  0  0  0
 11 25  1  0  0  0  0
 12 16  1  0  0  0  0
 12 26  1  0  0  0  0
 12 27  1  0  0  0  0
 13 16  1  0  0  0  0
 13 28  1  0  0  0  0
 13 29  1  0  0  0  0
 14 17  1  0  0  0  0
 14 30  1  0  0  0  0
 14 31  1  0  0  0  0
 15 17  1  0  0  0  0
 15 32  1  0  0  0  0
 15 33  1  0  0  0  0
 16 34  1  0  0  0  0
 16 35  1  0  0  0  0
 17 36  1  0  0  0  0
 17 37  1  0  0  0  0
M  END
> <PUBCHEM_COMPOUND_CID>
6521

> <PUBCHEM_CONFORMER_RMSD>
0.8

> <PUBCHEM_CONFORMER_DIVERSEORDER>
4
8
24
16
2
21
3
6
23
11
14
5
17
1
19
7
20
22
15
13
12
18
9
10

> <PUBCHEM_MMFF94_PARTIAL_CHARGES>
9
1 -0.28
2 -0.28
3 -0.28
38 0.4
39 0.4
4 -0.68
5 -0.4
6 0.56
7 0.56

> <PUBCHEM_EFFECTIVE_ROTOR_COUNT>
6.4

> <PUBCHEM_PHARMACOPHORE_FEATURES>
4
1 4 acceptor
1 4 donor
6 6 8 9 12 13 16 rings
6 7 10 11 14 15 17 rings

> <PUBCHEM_HEAVY_ATOM_COUNT>
17

> <PUBCHEM_ATOM_DEF_STEREO_COUNT>
0

> <PUBCHEM_ATOM_UDEF_STEREO_COUNT>
0

> <PUBCHEM_BOND_DEF_STEREO_COUNT>
0

> <PUBCHEM_BOND_UDEF_STEREO_COUNT>
0

> <PUBCHEM_ISOTOPIC_ATOM_COUNT>
0

> <PUBCHEM_COMPONENT_COUNT>
1

> <PUBCHEM_CACTVS_TAUTO_COUNT>
1

> <PUBCHEM_CONFORMER_ID>
0000197900000004

> <PUBCHEM_MMFF94_ENERGY>
19.4002

> <PUBCHEM_FEATURE_SELFOVERLAP>
20.297

> <PUBCHEM_SHAPE_FINGERPRINT>
10062212 137 18199758097183041610
10616163 171 18411697720569480014
10618630 7 18270680866124074679
11357001 24 18410569626208233641
12500047 106 18192441976586381992
12553582 1 18336830779743451311
12633257 1 17531513318159378787
128620 24 16630525098794219414
12932764 1 18260832583413052664
13024252 1 17490151915852705423
13296908 3 18336554823762370452
14289901 80 18411139117491811864
14965852 173 18411703218068986048
15239191 94 18410291389436644298
15375462 189 18337946805504403026
16752209 62 18263380203600023615
16945 1 18114186366608877460
18186145 218 17385162840456088152
19050596 39 18343017796381851248
19422 9 18343297093894675214
200 152 18201723907824680623
20281475 54 18271530900634968730
20291156 8 18339360747514387927
20442098 301 18408887347468779302
21524375 3 17832433368650957269
22646028 28 18412829057846747790
23402539 116 16845296072913722652
23559900 14 18411147913426747264
27216 239 6988321659764610935
2871803 45 18059861623105614259
3082319 5 18130787880182116580
6049 1 18186812356867022488
633830 44 15625932214353580092
74978 22 18261966222803710720
83771 10 18342452595797131419
90525 40 18337955704734759983

> <PUBCHEM_SHAPE_MULTIPOLES>
320.51
7.4
2.12
1.2
4.54
0.44
-0.08
-2.45
0.18
-1.37
0.18
-0.39
-0.11
-0.54

> <PUBCHEM_SHAPE_SELFOVERLAP>
643.878

> <PUBCHEM_SHAPE_VOLUME>
185.5

> <PUBCHEM_COORDINATE_TYPE>
2
5
10

$$$$

