5282296
  -OEChem-07051213042D

117116  0     1  0  0  0  0  0999 V2000
    3.4030   -4.0000    0.0000 P   0  0  0  0  0  0  0  0  0  0  0  0
    6.8671   -2.0000    0.0000 O   0  0  0  0  0  0  0  0  0  0  0  0
    6.8671   -4.0000    0.0000 O   0  0  0  0  0  0  0  0  0  0  0  0
    6.0010   -0.5000    0.0000 O   0  0  0  0  0  0  0  0  0  0  0  0
    4.2690   -3.5000    0.0000 O   0  0  0  0  0  0  0  0  0  0  0  0
    7.7331   -2.5000    0.0000 O   0  0  0  0  0  0  0  0  0  0  0  0
    2.5369   -4.5000    0.0000 O   0  0  0  0  0  0  0  0  0  0  0  0
    2.9030   -3.1340    0.0000 O   0  0  0  0  0  0  0  0  0  0  0  0
    3.9030   -4.8660    0.0000 O   0  0  0  0  0  0  0  0  0  0  0  0
   10.3312    4.0000    0.0000 C   0  0  0  0  0  0  0  0  0  0  0  0
   10.3312    5.0000    0.0000 C   0  0  0  0  0  0  0  0  0  0  0  0
    9.4651    3.5000    0.0000 C   0  0  0  0  0  0  0  0  0  0  0  0
   11.1972    5.5000    0.0000 C   0  0  0  0  0  0  0  0  0  0  0  0
   11.1972    6.5000    0.0000 C   0  0  0  0  0  0  0  0  0  0  0  0
    9.4651    2.5000    0.0000 C   0  0  0  0  0  0  0  0  0  0  0  0
   12.0632    7.0000    0.0000 C   0  0  0  0  0  0  0  0  0  0  0  0
    8.5991    2.0000    0.0000 C   0  0  0  0  0  0  0  0  0  0  0  0
   12.0632    8.0000    0.0000 C   0  0  0  0  0  0  0  0  0  0  0  0
    8.5991    1.0000    0.0000 C   0  0  0  0  0  0  0  0  0  0  0  0
   12.9292    8.5000    0.0000 C   0  0  0  0  0  0  0  0  0  0  0  0
    7.7331    0.5000    0.0000 C   0  0  0  0  0  0  0  0  0  0  0  0
   12.9292    9.5000    0.0000 C   0  0  0  0  0  0  0  0  0  0  0  0
    7.7331   -0.5000    0.0000 C   0  0  0  0  0  0  0  0  0  0  0  0
   11.1972   -3.5000    0.0000 C   0  0  0  0  0  0  0  0  0  0  0  0
   12.0632   -4.0000    0.0000 C   0  0  0  0  0  0  0  0  0  0  0  0
   10.3312   -4.0000    0.0000 C   0  0  0  0  0  0  0  0  0  0  0  0
   17.2594   -7.0000    0.0000 C   0  0  0  0  0  0  0  0  0  0  0  0
   16.3933   -6.5000    0.0000 C   0  0  0  0  0  0  0  0  0  0  0  0
   12.9292   -3.5000    0.0000 C   0  0  0  0  0  0  0  0  0  0  0  0
   17.2594   -8.0000    0.0000 C   0  0  0  0  0  0  0  0  0  0  0  0
   16.3933   -5.5000    0.0000 C   0  0  0  0  0  0  0  0  0  0  0  0
    9.4651   -3.5000    0.0000 C   0  0  0  0  0  0  0  0  0  0  0  0
   13.7953   -4.0000    0.0000 C   0  0  0  0  0  0  0  0  0  0  0  0
   18.1254   -8.5000    0.0000 C   0  0  0  0  0  0  0  0  0  0  0  0
   15.5273   -5.0000    0.0000 C   0  0  0  0  0  0  0  0  0  0  0  0
   13.7953   10.0000    0.0000 C   0  0  0  0  0  0  0  0  0  0  0  0
    8.5991   -4.0000    0.0000 C   0  0  0  0  0  0  0  0  0  0  0  0
    6.8671   -1.0000    0.0000 C   0  0  0  0  0  0  0  0  0  0  0  0
   14.6613   -3.5000    0.0000 C   0  0  0  0  0  0  0  0  0  0  0  0
   18.1254   -9.5000    0.0000 C   0  0  0  0  0  0  0  0  0  0  0  0
   15.5273   -4.0000    0.0000 C   0  0  0  0  0  0  0  0  0  0  0  0
    6.0010   -3.5000    0.0000 C   0  0  3  0  0  0  0  0  0  0  0  0
    6.0010   -2.5000    0.0000 C   0  0  0  0  0  0  0  0  0  0  0  0
    7.7331   -3.5000    0.0000 C   0  0  0  0  0  0  0  0  0  0  0  0
   18.9914  -10.0000    0.0000 C   0  0  0  0  0  0  0  0  0  0  0  0
    5.1350   -4.0000    0.0000 C   0  0  0  0  0  0  0  0  0  0  0  0
   10.5432    3.4174    0.0000 H   0  0  0  0  0  0  0  0  0  0  0  0
   10.9417    4.1077    0.0000 H   0  0  0  0  0  0  0  0  0  0  0  0
   10.1191    5.5826    0.0000 H   0  0  0  0  0  0  0  0  0  0  0  0
    9.7206    4.8923    0.0000 H   0  0  0  0  0  0  0  0  0  0  0  0
    9.2531    4.0826    0.0000 H   0  0  0  0  0  0  0  0  0  0  0  0
    8.8546    3.3923    0.0000 H   0  0  0  0  0  0  0  0  0  0  0  0
   11.4092    4.9174    0.0000 H   0  0  0  0  0  0  0  0  0  0  0  0
   11.8078    5.6077    0.0000 H   0  0  0  0  0  0  0  0  0  0  0  0
    9.6772    1.9174    0.0000 H   0  0  0  0  0  0  0  0  0  0  0  0
   10.0757    2.6077    0.0000 H   0  0  0  0  0  0  0  0  0  0  0  0
   10.9851    7.0826    0.0000 H   0  0  0  0  0  0  0  0  0  0  0  0
   10.5866    6.3923    0.0000 H   0  0  0  0  0  0  0  0  0  0  0  0
   12.2753    6.4174    0.0000 H   0  0  0  0  0  0  0  0  0  0  0  0
   12.6738    7.1077    0.0000 H   0  0  0  0  0  0  0  0  0  0  0  0
    8.3871    2.5826    0.0000 H   0  0  0  0  0  0  0  0  0  0  0  0
    7.9885    1.8923    0.0000 H   0  0  0  0  0  0  0  0  0  0  0  0
   11.8512    8.5826    0.0000 H   0  0  0  0  0  0  0  0  0  0  0  0
   11.4526    7.8923    0.0000 H   0  0  0  0  0  0  0  0  0  0  0  0
    8.8112    0.4174    0.0000 H   0  0  0  0  0  0  0  0  0  0  0  0
    9.2097    1.1077    0.0000 H   0  0  0  0  0  0  0  0  0  0  0  0
   13.1413    7.9174    0.0000 H   0  0  0  0  0  0  0  0  0  0  0  0
   13.5398    8.6077    0.0000 H   0  0  0  0  0  0  0  0  0  0  0  0
    7.5210    1.0826    0.0000 H   0  0  0  0  0  0  0  0  0  0  0  0
    7.1225    0.3923    0.0000 H   0  0  0  0  0  0  0  0  0  0  0  0
   12.7172   10.0826    0.0000 H   0  0  0  0  0  0  0  0  0  0  0  0
   12.3187    9.3923    0.0000 H   0  0  0  0  0  0  0  0  0  0  0  0
    7.9451   -1.0826    0.0000 H   0  0  0  0  0  0  0  0  0  0  0  0
    8.3437   -0.3923    0.0000 H   0  0  0  0  0  0  0  0  0  0  0  0
   11.5957   -3.0250    0.0000 H   0  0  0  0  0  0  0  0  0  0  0  0
   10.7987   -3.0250    0.0000 H   0  0  0  0  0  0  0  0  0  0  0  0
   11.6647   -4.4750    0.0000 H   0  0  0  0  0  0  0  0  0  0  0  0
   12.4617   -4.4750    0.0000 H   0  0  0  0  0  0  0  0  0  0  0  0
    9.9326   -4.4750    0.0000 H   0  0  0  0  0  0  0  0  0  0  0  0
   10.7297   -4.4750    0.0000 H   0  0  0  0  0  0  0  0  0  0  0  0
   17.8699   -7.1077    0.0000 H   0  0  0  0  0  0  0  0  0  0  0  0
   17.4714   -6.4174    0.0000 H   0  0  0  0  0  0  0  0  0  0  0  0
   15.7828   -6.3923    0.0000 H   0  0  0  0  0  0  0  0  0  0  0  0
   16.1813   -7.0826    0.0000 H   0  0  0  0  0  0  0  0  0  0  0  0
   13.3278   -3.0250    0.0000 H   0  0  0  0  0  0  0  0  0  0  0  0
   12.5307   -3.0250    0.0000 H   0  0  0  0  0  0  0  0  0  0  0  0
   16.6488   -7.8923    0.0000 H   0  0  0  0  0  0  0  0  0  0  0  0
   17.0473   -8.5826    0.0000 H   0  0  0  0  0  0  0  0  0  0  0  0
   17.0039   -5.6077    0.0000 H   0  0  0  0  0  0  0  0  0  0  0  0
   16.6054   -4.9174    0.0000 H   0  0  0  0  0  0  0  0  0  0  0  0
    9.8637   -3.0250    0.0000 H   0  0  0  0  0  0  0  0  0  0  0  0
    9.0666   -3.0250    0.0000 H   0  0  0  0  0  0  0  0  0  0  0  0
   13.3967   -4.4750    0.0000 H   0  0  0  0  0  0  0  0  0  0  0  0
   14.1938   -4.4750    0.0000 H   0  0  0  0  0  0  0  0  0  0  0  0
   18.7360   -8.6077    0.0000 H   0  0  0  0  0  0  0  0  0  0  0  0
   18.3374   -7.9174    0.0000 H   0  0  0  0  0  0  0  0  0  0  0  0
   14.9167   -4.8923    0.0000 H   0  0  0  0  0  0  0  0  0  0  0  0
   15.3153   -5.5826    0.0000 H   0  0  0  0  0  0  0  0  0  0  0  0
   14.1053    9.4631    0.0000 H   0  0  0  0  0  0  0  0  0  0  0  0
   14.3322   10.3100    0.0000 H   0  0  0  0  0  0  0  0  0  0  0  0
   13.4853   10.5369    0.0000 H   0  0  0  0  0  0  0  0  0  0  0  0
    8.2006   -4.4750    0.0000 H   0  0  0  0  0  0  0  0  0  0  0  0
    8.9976   -4.4750    0.0000 H   0  0  0  0  0  0  0  0  0  0  0  0
   14.6613   -2.8800    0.0000 H   0  0  0  0  0  0  0  0  0  0  0  0
   17.5148   -9.3923    0.0000 H   0  0  0  0  0  0  0  0  0  0  0  0
   17.9133  -10.0826    0.0000 H   0  0  0  0  0  0  0  0  0  0  0  0
   16.0643   -3.6900    0.0000 H   0  0  0  0  0  0  0  0  0  0  0  0
    6.7372   -3.0750    0.0000 H   0  0  0  0  0  0  0  0  0  0  0  0
    5.7890   -1.9174    0.0000 H   0  0  0  0  0  0  0  0  0  0  0  0
    5.3905   -2.6077    0.0000 H   0  0  0  0  0  0  0  0  0  0  0  0
   18.6814  -10.5369    0.0000 H   0  0  0  0  0  0  0  0  0  0  0  0
   19.5284  -10.3100    0.0000 H   0  0  0  0  0  0  0  0  0  0  0  0
   19.3014   -9.4631    0.0000 H   0  0  0  0  0  0  0  0  0  0  0  0
    4.7365   -4.4750    0.0000 H   0  0  0  0  0  0  0  0  0  0  0  0
    5.5335   -4.4750    0.0000 H   0  0  0  0  0  0  0  0  0  0  0  0
    3.2130   -2.5970    0.0000 H   0  0  0  0  0  0  0  0  0  0  0  0
    2.0000   -4.1900    0.0000 H   0  0  0  0  0  0  0  0  0  0  0  0
  1  5  1  0  0  0  0
  1  7  1  0  0  0  0
  1  8  1  0  0  0  0
  1  9  2  0  0  0  0
  2 38  1  0  0  0  0
  2 43  1  0  0  0  0
  3 42  1  0  0  0  0
  3 44  1  0  0  0  0
  4 38  2  0  0  0  0
  5 46  1  0  0  0  0
  6 44  2  0  0  0  0
  7117  1  0  0  0  0
  8116  1  0  0  0  0
 10 11  1  0  0  0  0
 10 12  1  0  0  0  0
 10 47  1  0  0  0  0
 10 48  1  0  0  0  0
 11 13  1  0  0  0  0
 11 49  1  0  0  0  0
 11 50  1  0  0  0  0
 12 15  1  0  0  0  0
 12 51  1  0  0  0  0
 12 52  1  0  0  0  0
 13 14  1  0  0  0  0
 13 53  1  0  0  0  0
 13 54  1  0  0  0  0
 14 16  1  0  0  0  0
 14 57  1  0  0  0  0
 14 58  1  0  0  0  0
 15 17  1  0  0  0  0
 15 55  1  0  0  0  0
 15 56  1  0  0  0  0
 16 18  1  0  0  0  0
 16 59  1  0  0  0  0
 16 60  1  0  0  0  0
 17 19  1  0  0  0  0
 17 61  1  0  0  0  0
 17 62  1  0  0  0  0
 18 20  1  0  0  0  0
 18 63  1  0  0  0  0
 18 64  1  0  0  0  0
 19 21  1  0  0  0  0
 19 65  1  0  0  0  0
 19 66  1  0  0  0  0
 20 22  1  0  0  0  0
 20 67  1  0  0  0  0
 20 68  1  0  0  0  0
 21 23  1  0  0  0  0
 21 69  1  0  0  0  0
 21 70  1  0  0  0  0
 22 36  1  0  0  0  0
 22 71  1  0  0  0  0
 22 72  1  0  0  0  0
 23 38  1  0  0  0  0
 23 73  1  0  0  0  0
 23 74  1  0  0  0  0
 24 25  1  0  0  0  0
 24 26  1  0  0  0  0
 24 75  1  0  0  0  0
 24 76  1  0  0  0  0
 25 29  1  0  0  0  0
 25 77  1  0  0  0  0
 25 78  1  0  0  0  0
 26 32  1  0  0  0  0
 26 79  1  0  0  0  0
 26 80  1  0  0  0  0
 27 28  1  0  0  0  0
 27 30  1  0  0  0  0
 27 81  1  0  0  0  0
 27 82  1  0  0  0  0
 28 31  1  0  0  0  0
 28 83  1  0  0  0  0
 28 84  1  0  0  0  0
 29 33  1  0  0  0  0
 29 85  1  0  0  0  0
 29 86  1  0  0  0  0
 30 34  1  0  0  0  0
 30 87  1  0  0  0  0
 30 88  1  0  0  0  0
 31 35  1  0  0  0  0
 31 89  1  0  0  0  0
 31 90  1  0  0  0  0
 32 37  1  0  0  0  0
 32 91  1  0  0  0  0
 32 92  1  0  0  0  0
 33 39  1  0  0  0  0
 33 93  1  0  0  0  0
 33 94  1  0  0  0  0
 34 40  1  0  0  0  0
 34 95  1  0  0  0  0
 34 96  1  0  0  0  0
 35 41  1  0  0  0  0
 35 97  1  0  0  0  0
 35 98  1  0  0  0  0
 36 99  1  0  0  0  0
 36100  1  0  0  0  0
 36101  1  0  0  0  0
 37 44  1  0  0  0  0
 37102  1  0  0  0  0
 37103  1  0  0  0  0
 39 41  2  0  0  0  0
 39104  1  0  0  0  0
 40 45  1  0  0  0  0
 40105  1  0  0  0  0
 40106  1  0  0  0  0
 41107  1  0  0  0  0
 42 43  1  0  0  0  0
 42 46  1  0  0  0  0
 42108  1  0  0  0  0
 43109  1  0  0  0  0
 43110  1  0  0  0  0
 45111  1  0  0  0  0
 45112  1  0  0  0  0
 45113  1  0  0  0  0
 46114  1  0  0  0  0
 46115  1  0  0  0  0
M  END
> <PUBCHEM_COMPOUND_CID>
5282296

> <PUBCHEM_COMPOUND_CANONICALIZED>
1

> <PUBCHEM_CACTVS_COMPLEXITY>
767

> <PUBCHEM_CACTVS_HBOND_ACCEPTOR>
8

> <PUBCHEM_CACTVS_HBOND_DONOR>
2

> <PUBCHEM_CACTVS_ROTATABLE_BOND>
37

> <PUBCHEM_CACTVS_SUBSKEYS>
AAADcfB8PAIAAAAAAAAAAAAAAAAAAAAAAAAAAAAAAAAAAAAAAAAAGgAACCAACBSggAICCAAABRCIQCDSCIAAAAAgAAAICAEAAAgBABIAAQACAAAFgAAKAAOIyKCAAAAAAAAAAAAAAAAAAAAAAAAAAAAAAA==

> <PUBCHEM_IUPAC_OPENEYE_NAME>
[1-(hexadecanoyloxymethyl)-2-phosphonooxy-ethyl] (Z)-octadec-9-enoate

> <PUBCHEM_IUPAC_CAS_NAME>
(Z)-9-octadecenoic acid [1-(1-oxohexadecoxy)-3-phosphonooxypropan-2-yl] ester

> <PUBCHEM_IUPAC_NAME>
(1-hexadecanoyloxy-3-phosphonooxypropan-2-yl) (Z)-octadec-9-enoate

> <PUBCHEM_IUPAC_SYSTEMATIC_NAME>
(1-hexadecanoyloxy-3-phosphonooxy-propan-2-yl) (Z)-octadec-9-enoate

> <PUBCHEM_IUPAC_TRADITIONAL_NAME>
(Z)-octadec-9-enoic acid [1-(hexadecanoyloxymethyl)-2-phosphonooxy-ethyl] ester

> <PUBCHEM_IUPAC_INCHI>
InChI=1S/C37H71O8P/c1-3-5-7-9-11-13-15-17-18-20-22-24-26-28-30-32-37(39)45-35(34-44-46(40,41)42)33-43-36(38)31-29-27-25-23-21-19-16-14-12-10-8-6-4-2/h17-18,35H,3-16,19-34H2,1-2H3,(H2,40,41,42)/b18-17-

> <PUBCHEM_IUPAC_INCHIKEY>
OPVZUEPSMJNLOM-ZCXUNETKSA-N

> <PUBCHEM_XLOGP3_AA>
13.1

> <PUBCHEM_EXACT_MASS>
674.488656

> <PUBCHEM_MOLECULAR_FORMULA>
C37H71O8P

> <PUBCHEM_MOLECULAR_WEIGHT>
674.928602

> <PUBCHEM_OPENEYE_CAN_SMILES>
CCCCCCCCCCCCCCCC(=O)OCC(COP(=O)(O)O)OC(=O)CCCCCCCC=CCCCCCCCC

> <PUBCHEM_OPENEYE_ISO_SMILES>
CCCCCCCCCCCCCCCC(=O)OCC(COP(=O)(O)O)OC(=O)CCCCCCC/C=C\CCCCCCCC

> <PUBCHEM_CACTVS_TPSA>
119

> <PUBCHEM_MONOISOTOPIC_WEIGHT>
674.488656

> <PUBCHEM_TOTAL_CHARGE>
0

> <PUBCHEM_HEAVY_ATOM_COUNT>
46

> <PUBCHEM_ATOM_DEF_STEREO_COUNT>
0

> <PUBCHEM_ATOM_UDEF_STEREO_COUNT>
1

> <PUBCHEM_BOND_DEF_STEREO_COUNT>
1

> <PUBCHEM_BOND_UDEF_STEREO_COUNT>
0

> <PUBCHEM_ISOTOPIC_ATOM_COUNT>
0

> <PUBCHEM_COMPONENT_COUNT>
1

> <PUBCHEM_CACTVS_TAUTO_COUNT>
1

> <PUBCHEM_COORDINATE_TYPE>
1
5
255

> <PUBCHEM_BONDANNOTATIONS>
42  108  3

$$$$

