6435782
  -OEChem-07051212542D

 98100  0     1  0  0  0  0  0999 V2000
    9.3654    1.6460    0.0000 S   0  0  0  0  0  0  0  0  0  0  0  0
    7.6146   -0.0697    0.0000 O   0  0  0  0  0  0  0  0  0  0  0  0
   10.1744    2.2338    0.0000 O   0  0  0  0  0  0  0  0  0  0  0  0
    8.5564    1.0582    0.0000 O   0  0  0  0  0  0  0  0  0  0  0  0
    8.9604   -1.4941    0.0000 O   0  0  0  0  0  0  0  0  0  0  0  0
   11.1577   -2.2842    0.0000 O   0  0  0  0  0  0  0  0  0  0  0  0
    7.8810   -2.6617    0.0000 O   0  0  0  0  0  0  0  0  0  0  0  0
    3.0380    0.2092    0.0000 O   0  0  0  0  0  0  0  0  0  0  0  0
    7.2944   -5.9002    0.0000 O   0  0  0  0  0  0  0  0  0  0  0  0
    7.6890   -3.4278    0.0000 O   0  0  0  0  0  0  0  0  0  0  0  0
   10.4532   -0.7019    0.0000 N   0  0  0  0  0  0  0  0  0  0  0  0
    8.5966    4.1776    0.0000 N   0  0  0  0  0  0  0  0  0  0  0  0
    9.3306   -3.0976    0.0000 N   0  0  0  0  0  0  0  0  0  0  0  0
    2.5449   -1.3789    0.0000 N   0  0  0  0  0  0  0  0  0  0  0  0
    9.9532    0.8370    0.0000 C   0  0  1  0  0  0  0  0  0  0  0  0
    9.6442   -0.1141    0.0000 C   0  0  3  0  0  0  0  0  0  0  0  0
   10.9532    0.8370    0.0000 C   0  0  0  0  0  0  0  0  0  0  0  0
   11.2622   -0.1141    0.0000 C   0  0  0  0  0  0  0  0  0  0  0  0
    8.7776    2.4550    0.0000 C   0  0  0  0  0  0  0  0  0  0  0  0
    8.7306   -0.5208    0.0000 C   0  0  0  0  0  0  0  0  0  0  0  0
   10.3487   -1.6964    0.0000 C   0  0  0  0  0  0  0  0  0  0  0  0
    9.1844    3.3686    0.0000 C   0  0  0  0  0  0  0  0  0  0  0  0
    6.7010   -0.4765    0.0000 C   0  0  2  0  0  0  0  0  0  0  0  0
    6.5965   -1.4710    0.0000 C   0  0  0  0  0  0  0  0  0  0  0  0
    5.8920    0.1113    0.0000 C   0  0  2  0  0  0  0  0  0  0  0  0
    9.4351   -2.1031    0.0000 C   0  0  0  0  0  0  0  0  0  0  0  0
    9.0033    5.0911    0.0000 C   0  0  0  0  0  0  0  0  0  0  0  0
    7.6020    4.0731    0.0000 C   0  0  0  0  0  0  0  0  0  0  0  0
    7.4055   -2.0588    0.0000 C   0  0  0  0  0  0  0  0  0  0  0  0
    5.6020   -1.3664    0.0000 C   0  0  0  0  0  0  0  0  0  0  0  0
    6.1254    1.0837    0.0000 C   0  0  0  0  0  0  0  0  0  0  0  0
    4.9043   -0.0451    0.0000 C   0  0  0  0  0  0  0  0  0  0  0  0
    8.4680   -1.8537    0.0000 C   0  0  0  0  0  0  0  0  0  0  0  0
    8.4155    5.9002    0.0000 C   0  0  0  0  0  0  0  0  0  0  0  0
    7.0143    4.8821    0.0000 C   0  0  0  0  0  0  0  0  0  0  0  0
    8.4170   -3.5044    0.0000 C   0  0  0  0  0  0  0  0  0  0  0  0
    4.3165   -0.8541    0.0000 C   0  0  0  0  0  0  0  0  0  0  0  0
    8.3125   -4.4989    0.0000 C   0  0  0  0  0  0  0  0  0  0  0  0
    3.3220   -0.7496    0.0000 C   0  0  0  0  0  0  0  0  0  0  0  0
    7.3990   -4.9056    0.0000 C   0  0  0  0  0  0  0  0  0  0  0  0
    6.5900   -4.3178    0.0000 C   0  0  0  0  0  0  0  0  0  0  0  0
    6.6945   -3.3233    0.0000 C   0  0  1  0  0  0  0  0  0  0  0  0
    2.4403   -2.3734    0.0000 C   0  0  0  0  0  0  0  0  0  0  0  0
    5.8855   -2.7355    0.0000 C   0  0  0  0  0  0  0  0  0  0  0  0
    3.2494   -2.9612    0.0000 C   0  0  0  0  0  0  0  0  0  0  0  0
    4.9719   -3.1423    0.0000 C   0  0  0  0  0  0  0  0  0  0  0  0
    4.1629   -2.5545    0.0000 C   0  0  0  0  0  0  0  0  0  0  0  0
    4.8674   -4.1368    0.0000 C   0  0  0  0  0  0  0  0  0  0  0  0
   10.2347    1.3894    0.0000 H   0  0  0  0  0  0  0  0  0  0  0  0
    9.0125    0.4547    0.0000 H   0  0  0  0  0  0  0  0  0  0  0  0
   11.5596    0.9659    0.0000 H   0  0  0  0  0  0  0  0  0  0  0  0
   10.8884    1.4536    0.0000 H   0  0  0  0  0  0  0  0  0  0  0  0
   11.5722   -0.6510    0.0000 H   0  0  0  0  0  0  0  0  0  0  0  0
   11.8286    0.1381    0.0000 H   0  0  0  0  0  0  0  0  0  0  0  0
    8.2636    2.8017    0.0000 H   0  0  0  0  0  0  0  0  0  0  0  0
    8.3469    2.0090    0.0000 H   0  0  0  0  0  0  0  0  0  0  0  0
    9.6984    3.0219    0.0000 H   0  0  0  0  0  0  0  0  0  0  0  0
    9.6150    3.8146    0.0000 H   0  0  0  0  0  0  0  0  0  0  0  0
    7.2026   -0.8409    0.0000 H   0  0  0  0  0  0  0  0  0  0  0  0
    6.3743   -2.0498    0.0000 H   0  0  0  0  0  0  0  0  0  0  0  0
    5.4712    0.5666    0.0000 H   0  0  0  0  0  0  0  0  0  0  0  0
    9.5173    4.7444    0.0000 H   0  0  0  0  0  0  0  0  0  0  0  0
    9.4340    5.5371    0.0000 H   0  0  0  0  0  0  0  0  0  0  0  0
    7.0448    3.8013    0.0000 H   0  0  0  0  0  0  0  0  0  0  0  0
    7.7729    3.4771    0.0000 H   0  0  0  0  0  0  0  0  0  0  0  0
    5.6668   -0.7498    0.0000 H   0  0  0  0  0  0  0  0  0  0  0  0
    4.9854   -1.3016    0.0000 H   0  0  0  0  0  0  0  0  0  0  0  0
    5.5371   -1.9830    0.0000 H   0  0  0  0  0  0  0  0  0  0  0  0
    7.0411   -2.5604    0.0000 H   0  0  0  0  0  0  0  0  0  0  0  0
    7.9071   -2.4232    0.0000 H   0  0  0  0  0  0  0  0  0  0  0  0
    7.7699   -1.5572    0.0000 H   0  0  0  0  0  0  0  0  0  0  0  0
    6.7283    0.9390    0.0000 H   0  0  0  0  0  0  0  0  0  0  0  0
    6.2702    1.6866    0.0000 H   0  0  0  0  0  0  0  0  0  0  0  0
    5.5226    1.2284    0.0000 H   0  0  0  0  0  0  0  0  0  0  0  0
    4.5804    0.4835    0.0000 H   0  0  0  0  0  0  0  0  0  0  0  0
    8.2583   -1.2702    0.0000 H   0  0  0  0  0  0  0  0  0  0  0  0
    8.9171    6.2646    0.0000 H   0  0  0  0  0  0  0  0  0  0  0  0
    8.0511    6.4017    0.0000 H   0  0  0  0  0  0  0  0  0  0  0  0
    7.9139    5.5357    0.0000 H   0  0  0  0  0  0  0  0  0  0  0  0
    7.5158    5.2465    0.0000 H   0  0  0  0  0  0  0  0  0  0  0  0
    6.6498    5.3837    0.0000 H   0  0  0  0  0  0  0  0  0  0  0  0
    6.5127    4.5176    0.0000 H   0  0  0  0  0  0  0  0  0  0  0  0
    4.5687   -1.4205    0.0000 H   0  0  0  0  0  0  0  0  0  0  0  0
    8.4625   -5.1005    0.0000 H   0  0  0  0  0  0  0  0  0  0  0  0
    8.9310   -4.4556    0.0000 H   0  0  0  0  0  0  0  0  0  0  0  0
    5.9940   -4.1470    0.0000 H   0  0  0  0  0  0  0  0  0  0  0  0
    6.3182   -4.8751    0.0000 H   0  0  0  0  0  0  0  0  0  0  0  0
    2.0000   -1.0831    0.0000 H   0  0  0  0  0  0  0  0  0  0  0  0
    6.9167   -2.7445    0.0000 H   0  0  0  0  0  0  0  0  0  0  0  0
    1.8444   -2.2025    0.0000 H   0  0  0  0  0  0  0  0  0  0  0  0
    2.1686   -2.9307    0.0000 H   0  0  0  0  0  0  0  0  0  0  0  0
    5.6333   -2.1691    0.0000 H   0  0  0  0  0  0  0  0  0  0  0  0
    3.1846   -3.5778    0.0000 H   0  0  0  0  0  0  0  0  0  0  0  0
    7.9412   -3.9942    0.0000 H   0  0  0  0  0  0  0  0  0  0  0  0
    4.2277   -1.9379    0.0000 H   0  0  0  0  0  0  0  0  0  0  0  0
    4.2508   -4.0720    0.0000 H   0  0  0  0  0  0  0  0  0  0  0  0
    4.8026   -4.7534    0.0000 H   0  0  0  0  0  0  0  0  0  0  0  0
    5.4840   -4.2016    0.0000 H   0  0  0  0  0  0  0  0  0  0  0  0
  1  3  2  0  0  0  0
  1  4  2  0  0  0  0
 15  1  1  6  0  0  0
  1 19  1  0  0  0  0
  2 20  1  0  0  0  0
  2 23  1  0  0  0  0
  5 20  2  0  0  0  0
  6 21  2  0  0  0  0
  7 33  1  0  0  0  0
  7 36  1  0  0  0  0
  8 39  2  0  0  0  0
  9 40  2  0  0  0  0
 42 10  1  1  0  0  0
 10 94  1  0  0  0  0
 11 16  1  0  0  0  0
 11 18  1  0  0  0  0
 11 21  1  0  0  0  0
 12 22  1  0  0  0  0
 12 27  1  0  0  0  0
 12 28  1  0  0  0  0
 13 26  1  0  0  0  0
 13 36  2  0  0  0  0
 14 39  1  0  0  0  0
 14 43  1  0  0  0  0
 14 88  1  0  0  0  0
 15 16  1  0  0  0  0
 15 17  1  0  0  0  0
 15 49  1  0  0  0  0
 16 20  1  0  0  0  0
 16 50  1  0  0  0  0
 17 18  1  0  0  0  0
 17 51  1  0  0  0  0
 17 52  1  0  0  0  0
 18 53  1  0  0  0  0
 18 54  1  0  0  0  0
 19 22  1  0  0  0  0
 19 55  1  0  0  0  0
 19 56  1  0  0  0  0
 21 26  1  0  0  0  0
 22 57  1  0  0  0  0
 22 58  1  0  0  0  0
 23 24  1  6  0  0  0
 23 25  1  0  0  0  0
 23 59  1  0  0  0  0
 24 29  1  0  0  0  0
 24 30  1  0  0  0  0
 24 60  1  0  0  0  0
 25 31  1  1  0  0  0
 25 32  1  0  0  0  0
 25 61  1  0  0  0  0
 26 33  2  0  0  0  0
 27 34  1  0  0  0  0
 27 62  1  0  0  0  0
 27 63  1  0  0  0  0
 28 35  1  0  0  0  0
 28 64  1  0  0  0  0
 28 65  1  0  0  0  0
 29 69  1  0  0  0  0
 29 70  1  0  0  0  0
 29 71  1  0  0  0  0
 30 66  1  0  0  0  0
 30 67  1  0  0  0  0
 30 68  1  0  0  0  0
 31 72  1  0  0  0  0
 31 73  1  0  0  0  0
 31 74  1  0  0  0  0
 32 37  2  0  0  0  0
 32 75  1  0  0  0  0
 33 76  1  0  0  0  0
 34 77  1  0  0  0  0
 34 78  1  0  0  0  0
 34 79  1  0  0  0  0
 35 80  1  0  0  0  0
 35 81  1  0  0  0  0
 35 82  1  0  0  0  0
 36 38  1  0  0  0  0
 37 39  1  0  0  0  0
 37 83  1  0  0  0  0
 38 40  1  0  0  0  0
 38 84  1  0  0  0  0
 38 85  1  0  0  0  0
 40 41  1  0  0  0  0
 41 42  1  0  0  0  0
 41 86  1  0  0  0  0
 41 87  1  0  0  0  0
 42 44  1  0  0  0  0
 42 89  1  0  0  0  0
 43 45  1  0  0  0  0
 43 90  1  0  0  0  0
 43 91  1  0  0  0  0
 44 46  2  0  0  0  0
 44 92  1  0  0  0  0
 45 47  2  0  0  0  0
 45 93  1  0  0  0  0
 46 47  1  0  0  0  0
 46 48  1  0  0  0  0
 47 95  1  0  0  0  0
 48 96  1  0  0  0  0
 48 97  1  0  0  0  0
 48 98  1  0  0  0  0
M  END
> <PUBCHEM_COMPOUND_CID>
6435782

> <PUBCHEM_COMPOUND_CANONICALIZED>
1

> <PUBCHEM_CACTVS_COMPLEXITY>
1340

> <PUBCHEM_CACTVS_HBOND_ACCEPTOR>
11

> <PUBCHEM_CACTVS_HBOND_DONOR>
2

> <PUBCHEM_CACTVS_ROTATABLE_BOND>
7

> <PUBCHEM_CACTVS_SUBSKEYS>
AAADcfB/vABAAAAAAAAAAAAAAAAAAWLAAAAAAAAAAAAAAAABgAAAHgQQCAAADTzl1gaijBPIFkqoA63y3HTAiCAvYjAICIG9JEgOVB4sgSAfWGiG9gC4kYOYfQ5MAAAAAAAAAAAAAAAAAAAAAAAAAAAAAA==

> <PUBCHEM_IUPAC_INCHI>
InChI=1S/C34H50N4O9S/c1-7-37(8-2)16-17-48(44,45)28-13-15-38-31(28)34(43)47-32(22(3)4)24(6)11-12-29(41)35-14-9-10-23(5)18-25(39)19-26(40)20-30-36-27(21-46-30)33(38)42/h9-12,18,21-22,24-25,28,31-32,39H,7-8,13-17,19-20H2,1-6H3,(H,35,41)/b10-9+,12-11+,23-18+/t24-,25-,28-,31?,32-/m1/s1

> <PUBCHEM_IUPAC_INCHIKEY>
SUYRLXYYZQTJHF-RJUFQJKESA-N

> <PUBCHEM_XLOGP3_AA>
2.2

> <PUBCHEM_EXACT_MASS>
690.32985

> <PUBCHEM_MOLECULAR_FORMULA>
C34H50N4O9S

> <PUBCHEM_MOLECULAR_WEIGHT>
690.8472

> <PUBCHEM_OPENEYE_CAN_SMILES>
CCN(CC)CCS(=O)(=O)C1CCN2C1C(=O)OC(C(C=CC(=O)NCC=CC(=CC(CC(=O)CC3=NC(=CO3)C2=O)O)C)C)C(C)C

> <PUBCHEM_OPENEYE_ISO_SMILES>
CCN(CC)CCS(=O)(=O)[C@@H]1CCN2C1C(=O)O[C@@H]([C@@H](/C=C/C(=O)NC/C=C/C(=C/[C@H](CC(=O)CC3=NC(=CO3)C2=O)O)/C)C)C(C)C

> <PUBCHEM_CACTVS_TPSA>
185

> <PUBCHEM_MONOISOTOPIC_WEIGHT>
690.32985

> <PUBCHEM_TOTAL_CHARGE>
0

> <PUBCHEM_HEAVY_ATOM_COUNT>
48

> <PUBCHEM_ATOM_DEF_STEREO_COUNT>
4

> <PUBCHEM_ATOM_UDEF_STEREO_COUNT>
1

> <PUBCHEM_BOND_DEF_STEREO_COUNT>
3

> <PUBCHEM_BOND_UDEF_STEREO_COUNT>
0

> <PUBCHEM_ISOTOPIC_ATOM_COUNT>
0

> <PUBCHEM_COMPONENT_COUNT>
1

> <PUBCHEM_CACTVS_TAUTO_COUNT>
10

> <PUBCHEM_COORDINATE_TYPE>
1
5
255

> <PUBCHEM_BONDANNOTATIONS>
15  1  6
42  10  5
13  26  8
13  36  8
16  50  3
23  24  6
25  31  5
26  33  8
7  33  8
7  36  8

$$$$

