10465441
  -OEChem-07051213113D

 21 23  0     0  0  0  0  0  0999 V2000
    3.0141   -0.7731   -0.0001 O   0  0  0  0  0  0  0  0  0  0  0  0
   -1.6748   -1.0922   -0.0001 O   0  0  0  0  0  0  0  0  0  0  0  0
    2.9053    2.1453   -0.0010 O   0  0  0  0  0  0  0  0  0  0  0  0
   -3.9590   -1.2563   -0.0001 O   0  0  0  0  0  0  0  0  0  0  0  0
    0.7578   -0.8760    0.0004 C   0  0  0  0  0  0  0  0  0  0  0  0
   -0.5148   -0.2809    0.0005 C   0  0  0  0  0  0  0  0  0  0  0  0
   -0.6373    1.1139    0.0004 C   0  0  0  0  0  0  0  0  0  0  0  0
    1.8672   -0.0374    0.0006 C   0  0  0  0  0  0  0  0  0  0  0  0
    1.7936    1.3548    0.0004 C   0  0  0  0  0  0  0  0  0  0  0  0
    0.5104    1.9166    0.0003 C   0  0  0  0  0  0  0  0  0  0  0  0
    1.2728   -2.1988   -0.0006 C   0  0  0  0  0  0  0  0  0  0  0  0
   -1.9699    1.6982   -0.0002 C   0  0  0  0  0  0  0  0  0  0  0  0
    2.6435   -2.0803   -0.0001 C   0  0  0  0  0  0  0  0  0  0  0  0
   -3.0532    0.9181   -0.0004 C   0  0  0  0  0  0  0  0  0  0  0  0
   -2.9556   -0.5519    0.0000 C   0  0  0  0  0  0  0  0  0  0  0  0
    0.4148    3.0014   -0.0002 H   0  0  0  0  0  0  0  0  0  0  0  0
    0.7144   -3.1241   -0.0011 H   0  0  0  0  0  0  0  0  0  0  0  0
   -2.0692    2.7782   -0.0005 H   0  0  0  0  0  0  0  0  0  0  0  0
    3.4539   -2.7944   -0.0004 H   0  0  0  0  0  0  0  0  0  0  0  0
   -4.0470    1.3526   -0.0008 H   0  0  0  0  0  0  0  0  0  0  0  0
    3.6857    1.5640   -0.0010 H   0  0  0  0  0  0  0  0  0  0  0  0
  1  8  1  0  0  0  0
  1 13  1  0  0  0  0
  2  6  1  0  0  0  0
  2 15  1  0  0  0  0
  3  9  1  0  0  0  0
  3 21  1  0  0  0  0
  4 15  2  0  0  0  0
  5  6  2  0  0  0  0
  5  8  1  0  0  0  0
  5 11  1  0  0  0  0
  6  7  1  0  0  0  0
  7 10  2  0  0  0  0
  7 12  1  0  0  0  0
  8  9  2  0  0  0  0
  9 10  1  0  0  0  0
 10 16  1  0  0  0  0
 11 13  2  0  0  0  0
 11 17  1  0  0  0  0
 12 14  2  0  0  0  0
 12 18  1  0  0  0  0
 13 19  1  0  0  0  0
 14 15  1  0  0  0  0
 14 20  1  0  0  0  0
M  END
> <PUBCHEM_COMPOUND_CID>
10465441

> <PUBCHEM_CONFORMER_RMSD>
0.4

> <PUBCHEM_CONFORMER_DIVERSEORDER>
1

> <PUBCHEM_MMFF94_PARTIAL_CHARGES>
20
1 -0.28
10 -0.15
11 -0.15
12 -0.18
13 -0.01
14 -0.14
15 0.71
16 0.15
17 0.15
18 0.15
19 0.15
2 -0.23
20 0.15
21 0.45
3 -0.53
4 -0.57
6 0.08
7 0.03
8 0.14
9 0.08

> <PUBCHEM_EFFECTIVE_ROTOR_COUNT>
0

> <PUBCHEM_PHARMACOPHORE_FEATURES>
6
1 1 acceptor
1 3 donor
1 4 acceptor
5 1 5 8 11 13 rings
6 2 6 7 12 14 15 rings
6 5 6 7 8 9 10 rings

> <PUBCHEM_HEAVY_ATOM_COUNT>
15

> <PUBCHEM_ATOM_DEF_STEREO_COUNT>
0

> <PUBCHEM_ATOM_UDEF_STEREO_COUNT>
0

> <PUBCHEM_BOND_DEF_STEREO_COUNT>
0

> <PUBCHEM_BOND_UDEF_STEREO_COUNT>
0

> <PUBCHEM_ISOTOPIC_ATOM_COUNT>
0

> <PUBCHEM_COMPONENT_COUNT>
1

> <PUBCHEM_CACTVS_TAUTO_COUNT>
3

> <PUBCHEM_CONFORMER_ID>
009FB0A100000001

> <PUBCHEM_MMFF94_ENERGY>
36.9194

> <PUBCHEM_FEATURE_SELFOVERLAP>
30.572

> <PUBCHEM_SHAPE_FINGERPRINT>
10608611 8 18412831312841669765
10967382 1 18338517413315739655
10980938 120 18409728417770567968
11471102 20 18411143498337146853
11769659 78 18410578430664304491
12032990 46 18264485268494159534
12251169 10 18191017005474953409
13140716 1 18337954605165064665
13380535 76 18269839705400437562
14251717 144 18337958891727087543
14576447 43 17827091601992453615
15001771 113 18264201589972164928
15196674 1 18410574002331339813
15219456 202 18413112753569216949
15375462 189 18057034929097462659
15442244 35 18265050425933845697
15536298 74 18333731312578601540
16945 1 18194682798336980160
17990270 104 18411419556959313458
193761 8 18338516451354270372
20201158 50 18339927124830508411
20559304 39 18409166601699068794
20645477 70 18409736153661153407
21267235 1 18410002265028227439
21501502 16 18410007758412523481
21501925 9 18410867567688572138
221490 88 18412818088421133075
22721475 48 18339076107009370115
2334 1 18410575067520321389
23463225 33 18410574032401366199
23552423 10 18341611537968326653
23559900 14 17832432273735009522
2748010 2 18411422816776265596
335352 9 18050287269229594261
5493415 88 18338240486883546890
5902787 121 18270124654900572546
7364860 26 18335421270535120624
74978 22 18266742565892136469
81228 2 17542502086395938064
8809292 202 18271800289236156891

> <PUBCHEM_SHAPE_MULTIPOLES>
285.22
5.26
2.48
0.59
2.51
0.24
0
-1.33
0
-1.15
0
0
0.01
0

> <PUBCHEM_SHAPE_SELFOVERLAP>
647.219

> <PUBCHEM_SHAPE_VOLUME>
149.9

> <PUBCHEM_COORDINATE_TYPE>
2
5
10

$$$$

