11954062
  -OEChem-07051213063D

 54 54  0     1  0  0  0  0  0999 V2000
    4.6717   -2.1669    0.1152 O   0  0  0  0  0  0  0  0  0  0  0  0
    4.3530    3.7592    0.3029 O   0  0  0  0  0  0  0  0  0  0  0  0
   -7.6571    0.4945   -0.5801 O   0  0  0  0  0  0  0  0  0  0  0  0
   -6.1603   -0.8644    0.4593 O   0  0  0  0  0  0  0  0  0  0  0  0
    3.7972   -1.8014   -0.9602 C   0  0  2  0  0  0  0  0  0  0  0  0
    4.8089   -0.8395   -0.4081 C   0  0  1  0  0  0  0  0  0  0  0  0
    2.3674   -1.7076   -0.5838 C   0  0  0  0  0  0  0  0  0  0  0  0
    1.7518   -3.0810   -0.2834 C   0  0  0  0  0  0  0  0  0  0  0  0
    4.3239    0.3468    0.3192 C   0  0  0  0  0  0  0  0  0  0  0  0
    0.2887   -2.9702    0.1467 C   0  0  0  0  0  0  0  0  0  0  0  0
    3.9307    1.5014   -0.2415 C   0  0  0  0  0  0  0  0  0  0  0  0
    3.4421    2.6892    0.5392 C   0  0  2  0  0  0  0  0  0  0  0  0
    2.0295    3.0872    0.0897 C   0  0  0  0  0  0  0  0  0  0  0  0
    0.9496    2.0240    0.3357 C   0  0  0  0  0  0  0  0  0  0  0  0
   -0.3194   -4.3475    0.4099 C   0  0  0  0  0  0  0  0  0  0  0  0
   -0.4571    2.4904   -0.0469 C   0  0  0  0  0  0  0  0  0  0  0  0
   -1.5361    1.4278    0.1923 C   0  0  0  0  0  0  0  0  0  0  0  0
   -2.9389    1.8879   -0.2131 C   0  0  0  0  0  0  0  0  0  0  0  0
   -4.0258    0.8530    0.0920 C   0  0  0  0  0  0  0  0  0  0  0  0
   -1.7838   -4.2432    0.8057 C   0  0  0  0  0  0  0  0  0  0  0  0
   -5.4147    1.2762   -0.3748 C   0  0  0  0  0  0  0  0  0  0  0  0
   -6.4211    0.1841   -0.1160 C   0  0  0  0  0  0  0  0  0  0  0  0
    3.9695   -2.2523   -1.9277 H   0  0  0  0  0  0  0  0  0  0  0  0
    5.6951   -0.6537   -1.0059 H   0  0  0  0  0  0  0  0  0  0  0  0
    2.2148   -1.0820    0.3023 H   0  0  0  0  0  0  0  0  0  0  0  0
    1.8159   -1.2310   -1.4029 H   0  0  0  0  0  0  0  0  0  0  0  0
    2.3274   -3.5780    0.5075 H   0  0  0  0  0  0  0  0  0  0  0  0
    1.8310   -3.7154   -1.1751 H   0  0  0  0  0  0  0  0  0  0  0  0
    4.2931    0.2575    1.4025 H   0  0  0  0  0  0  0  0  0  0  0  0
   -0.2846   -2.4590   -0.6365 H   0  0  0  0  0  0  0  0  0  0  0  0
    0.2158   -2.3557    1.0522 H   0  0  0  0  0  0  0  0  0  0  0  0
    3.9687    1.5986   -1.3244 H   0  0  0  0  0  0  0  0  0  0  0  0
    3.4370    2.4900    1.6171 H   0  0  0  0  0  0  0  0  0  0  0  0
    1.7511    4.0110    0.6142 H   0  0  0  0  0  0  0  0  0  0  0  0
    2.0421    3.3581   -0.9749 H   0  0  0  0  0  0  0  0  0  0  0  0
    0.9593    1.7391    1.3948 H   0  0  0  0  0  0  0  0  0  0  0  0
    1.1833    1.1225   -0.2408 H   0  0  0  0  0  0  0  0  0  0  0  0
   -0.4646    2.7769   -1.1058 H   0  0  0  0  0  0  0  0  0  0  0  0
   -0.7069    3.3913    0.5270 H   0  0  0  0  0  0  0  0  0  0  0  0
    0.2353   -4.8529    1.2090 H   0  0  0  0  0  0  0  0  0  0  0  0
   -0.2347   -4.9704   -0.4882 H   0  0  0  0  0  0  0  0  0  0  0  0
   -1.5386    1.1553    1.2549 H   0  0  0  0  0  0  0  0  0  0  0  0
   -1.2795    0.5193   -0.3667 H   0  0  0  0  0  0  0  0  0  0  0  0
   -3.1795    2.8223    0.3088 H   0  0  0  0  0  0  0  0  0  0  0  0
   -2.9443    2.1137   -1.2865 H   0  0  0  0  0  0  0  0  0  0  0  0
   -4.0438    0.6587    1.1721 H   0  0  0  0  0  0  0  0  0  0  0  0
   -3.7535   -0.0962   -0.3878 H   0  0  0  0  0  0  0  0  0  0  0  0
   -1.9019   -3.6514    1.7190 H   0  0  0  0  0  0  0  0  0  0  0  0
   -2.1986   -5.2391    0.9899 H   0  0  0  0  0  0  0  0  0  0  0  0
   -2.3721   -3.7713    0.0122 H   0  0  0  0  0  0  0  0  0  0  0  0
    5.2217    3.4906    0.6487 H   0  0  0  0  0  0  0  0  0  0  0  0
   -5.7332    2.1775    0.1593 H   0  0  0  0  0  0  0  0  0  0  0  0
   -5.3998    1.4808   -1.4507 H   0  0  0  0  0  0  0  0  0  0  0  0
   -8.3053   -0.2199   -0.4016 H   0  0  0  0  0  0  0  0  0  0  0  0
  1  5  1  0  0  0  0
  1  6  1  0  0  0  0
  2 12  1  0  0  0  0
  2 51  1  0  0  0  0
  3 22  1  0  0  0  0
  3 54  1  0  0  0  0
  4 22  2  0  0  0  0
  5  6  1  0  0  0  0
  5  7  1  0  0  0  0
  5 23  1  0  0  0  0
  6  9  1  0  0  0  0
  6 24  1  0  0  0  0
  7  8  1  0  0  0  0
  7 25  1  0  0  0  0
  7 26  1  0  0  0  0
  8 10  1  0  0  0  0
  8 27  1  0  0  0  0
  8 28  1  0  0  0  0
  9 11  2  0  0  0  0
  9 29  1  0  0  0  0
 10 15  1  0  0  0  0
 10 30  1  0  0  0  0
 10 31  1  0  0  0  0
 11 12  1  0  0  0  0
 11 32  1  0  0  0  0
 12 13  1  0  0  0  0
 12 33  1  0  0  0  0
 13 14  1  0  0  0  0
 13 34  1  0  0  0  0
 13 35  1  0  0  0  0
 14 16  1  0  0  0  0
 14 36  1  0  0  0  0
 14 37  1  0  0  0  0
 15 20  1  0  0  0  0
 15 40  1  0  0  0  0
 15 41  1  0  0  0  0
 16 17  1  0  0  0  0
 16 38  1  0  0  0  0
 16 39  1  0  0  0  0
 17 18  1  0  0  0  0
 17 42  1  0  0  0  0
 17 43  1  0  0  0  0
 18 19  1  0  0  0  0
 18 44  1  0  0  0  0
 18 45  1  0  0  0  0
 19 21  1  0  0  0  0
 19 46  1  0  0  0  0
 19 47  1  0  0  0  0
 20 48  1  0  0  0  0
 20 49  1  0  0  0  0
 20 50  1  0  0  0  0
 21 22  1  0  0  0  0
 21 52  1  0  0  0  0
 21 53  1  0  0  0  0
M  END
> <PUBCHEM_COMPOUND_CID>
11954062

> <PUBCHEM_CONFORMER_RMSD>
1.4

> <PUBCHEM_CONFORMER_DIVERSEORDER>
1
9
14
75
17
19
39
31
25
81
22
64
50
10
38
35
30
73
4
27
3
23
55
63
69
51
71
6
60
53
12
47
80
77
40
49
43
8
76
54
52
59
36
78
70
56
2
85
67
79
11
46
48
83
37
34
7
5
86
33
18
24
20
62
74
72
84
58
15
57
82
13
32
28
26
16
42
61
21
44
65
29
66
68
41
45

> <PUBCHEM_MMFF94_PARTIAL_CHARGES>
18
1 -0.3
11 -0.29
12 0.42
2 -0.68
21 0.06
22 0.66
23 0.1
24 0.1
29 0.15
3 -0.65
32 0.15
4 -0.57
5 -0.05
51 0.4
54 0.5
6 0.09
7 0.09
9 -0.19

> <PUBCHEM_EFFECTIVE_ROTOR_COUNT>
14.6

> <PUBCHEM_PHARMACOPHORE_FEATURES>
8
1 1 acceptor
1 2 acceptor
1 2 donor
1 20 hydrophobe
1 3 acceptor
1 4 acceptor
3 3 4 22 anion
4 7 8 10 15 hydrophobe

> <PUBCHEM_HEAVY_ATOM_COUNT>
22

> <PUBCHEM_ATOM_DEF_STEREO_COUNT>
3

> <PUBCHEM_ATOM_UDEF_STEREO_COUNT>
0

> <PUBCHEM_BOND_DEF_STEREO_COUNT>
1

> <PUBCHEM_BOND_UDEF_STEREO_COUNT>
0

> <PUBCHEM_ISOTOPIC_ATOM_COUNT>
0

> <PUBCHEM_COMPONENT_COUNT>
1

> <PUBCHEM_CACTVS_TAUTO_COUNT>
1

> <PUBCHEM_CONFORMER_ID>
00B6678E00000001

> <PUBCHEM_MMFF94_ENERGY>
11.5941

> <PUBCHEM_FEATURE_SELFOVERLAP>
40.652

> <PUBCHEM_SHAPE_FINGERPRINT>
10049733 57 18198887159857869315
10316853 100 18411417314912635802
10864689 126 18267297819475537127
13402501 40 18413105078436317755
13533116 47 18186520994812760537
1361 2 18411419514115265681
15110567 62 18339077202310472105
152267 14 16969423496010509707
15483637 11 18122626042134627823
19427546 62 18193559961175291248
20028762 73 18188211008513969406
20645477 70 18413110571805614536
21197605 99 18262798450132405775
21304304 249 18339648944943046538
338550 245 18341328877781018365
3882209 13 16975368512933368619
437795 96 18198612255928121651
484989 97 18340193133709529826
5047190 2 18187944849912856751
5283384 97 18334584572335791021
5309563 4 18192993940208775500
6025842 7 18409165472798897220

> <PUBCHEM_SHAPE_MULTIPOLES>
429.27
14.82
6.05
0.77
27.01
4.72
-0.02
-4.18
-1.84
-4.02
1.21
-0.11
0.2
1.57

> <PUBCHEM_SHAPE_SELFOVERLAP>
813.303

> <PUBCHEM_SHAPE_VOLUME>
264.8

> <PUBCHEM_COORDINATE_TYPE>
2
5
10

$$$$

