8094
  -OEChem-07051213102D

 23 22  0     0  0  0  0  0  0999 V2000
    2.5369    0.7500    0.0000 O   0  0  0  0  0  0  0  0  0  0  0  0
    3.4030   -0.7500    0.0000 O   0  0  0  0  0  0  0  0  0  0  0  0
    6.0010    0.7500    0.0000 C   0  0  0  0  0  0  0  0  0  0  0  0
    6.8671    0.2500    0.0000 C   0  0  0  0  0  0  0  0  0  0  0  0
    5.1350    0.2500    0.0000 C   0  0  0  0  0  0  0  0  0  0  0  0
    7.7331    0.7500    0.0000 C   0  0  0  0  0  0  0  0  0  0  0  0
    4.2690    0.7500    0.0000 C   0  0  0  0  0  0  0  0  0  0  0  0
    8.5991    0.2500    0.0000 C   0  0  0  0  0  0  0  0  0  0  0  0
    3.4030    0.2500    0.0000 C   0  0  0  0  0  0  0  0  0  0  0  0
    6.3996    1.2250    0.0000 H   0  0  0  0  0  0  0  0  0  0  0  0
    5.6025    1.2250    0.0000 H   0  0  0  0  0  0  0  0  0  0  0  0
    6.4685   -0.2249    0.0000 H   0  0  0  0  0  0  0  0  0  0  0  0
    7.2656   -0.2249    0.0000 H   0  0  0  0  0  0  0  0  0  0  0  0
    4.7365   -0.2249    0.0000 H   0  0  0  0  0  0  0  0  0  0  0  0
    5.5335   -0.2249    0.0000 H   0  0  0  0  0  0  0  0  0  0  0  0
    8.1316    1.2250    0.0000 H   0  0  0  0  0  0  0  0  0  0  0  0
    7.3346    1.2250    0.0000 H   0  0  0  0  0  0  0  0  0  0  0  0
    4.6675    1.2250    0.0000 H   0  0  0  0  0  0  0  0  0  0  0  0
    3.8705    1.2250    0.0000 H   0  0  0  0  0  0  0  0  0  0  0  0
    8.2891   -0.2869    0.0000 H   0  0  0  0  0  0  0  0  0  0  0  0
    9.1360   -0.0600    0.0000 H   0  0  0  0  0  0  0  0  0  0  0  0
    8.9091    0.7869    0.0000 H   0  0  0  0  0  0  0  0  0  0  0  0
    2.0000    0.4400    0.0000 H   0  0  0  0  0  0  0  0  0  0  0  0
  1  9  1  0  0  0  0
  1 23  1  0  0  0  0
  2  9  2  0  0  0  0
  3  4  1  0  0  0  0
  3  5  1  0  0  0  0
  3 10  1  0  0  0  0
  3 11  1  0  0  0  0
  4  6  1  0  0  0  0
  4 12  1  0  0  0  0
  4 13  1  0  0  0  0
  5  7  1  0  0  0  0
  5 14  1  0  0  0  0
  5 15  1  0  0  0  0
  6  8  1  0  0  0  0
  6 16  1  0  0  0  0
  6 17  1  0  0  0  0
  7  9  1  0  0  0  0
  7 18  1  0  0  0  0
  7 19  1  0  0  0  0
  8 20  1  0  0  0  0
  8 21  1  0  0  0  0
  8 22  1  0  0  0  0
M  END
> <PUBCHEM_COMPOUND_CID>
8094

> <PUBCHEM_COMPOUND_CANONICALIZED>
1

> <PUBCHEM_CACTVS_COMPLEXITY>
79

> <PUBCHEM_CACTVS_HBOND_ACCEPTOR>
2

> <PUBCHEM_CACTVS_HBOND_DONOR>
1

> <PUBCHEM_CACTVS_ROTATABLE_BOND>
5

> <PUBCHEM_CACTVS_SUBSKEYS>
AAADccBgMAAAAAAAAAAAAAAAAAAAAAAAAAAAAAAAAAAAAAAAAAAAGgAACAAACACAgAACCAAAAgAIAACQCAAAAAAAAAAAAAEAAAAAABIAAAAAQAAEAAAAAAGIyCCAAAAAAAAAAAAAAAAAAAAAAAAAAAAAAA==

> <PUBCHEM_IUPAC_OPENEYE_NAME>
heptanoic acid

> <PUBCHEM_IUPAC_CAS_NAME>
heptanoic acid

> <PUBCHEM_IUPAC_NAME>
heptanoic acid

> <PUBCHEM_IUPAC_SYSTEMATIC_NAME>
heptanoic acid

> <PUBCHEM_IUPAC_TRADITIONAL_NAME>
enanthic acid

> <PUBCHEM_IUPAC_INCHI>
InChI=1S/C7H14O2/c1-2-3-4-5-6-7(8)9/h2-6H2,1H3,(H,8,9)

> <PUBCHEM_IUPAC_INCHIKEY>
MNWFXJYAOYHMED-UHFFFAOYSA-N

> <PUBCHEM_XLOGP3>
2.5

> <PUBCHEM_EXACT_MASS>
130.09938

> <PUBCHEM_MOLECULAR_FORMULA>
C7H14O2

> <PUBCHEM_MOLECULAR_WEIGHT>
130.18486

> <PUBCHEM_OPENEYE_CAN_SMILES>
CCCCCCC(=O)O

> <PUBCHEM_OPENEYE_ISO_SMILES>
CCCCCCC(=O)O

> <PUBCHEM_CACTVS_TPSA>
37.3

> <PUBCHEM_MONOISOTOPIC_WEIGHT>
130.09938

> <PUBCHEM_TOTAL_CHARGE>
0

> <PUBCHEM_HEAVY_ATOM_COUNT>
9

> <PUBCHEM_ATOM_DEF_STEREO_COUNT>
0

> <PUBCHEM_ATOM_UDEF_STEREO_COUNT>
0

> <PUBCHEM_BOND_DEF_STEREO_COUNT>
0

> <PUBCHEM_BOND_UDEF_STEREO_COUNT>
0

> <PUBCHEM_ISOTOPIC_ATOM_COUNT>
0

> <PUBCHEM_COMPONENT_COUNT>
1

> <PUBCHEM_CACTVS_TAUTO_COUNT>
1

> <PUBCHEM_COORDINATE_TYPE>
1
5
255

$$$$

