14295
  -OEChem-06241222433D

 22 22  0     1  0  0  0  0  0999 V2000
    2.1058    1.5788    0.9357 O   0  0  0  0  0  0  0  0  0  0  0  0
    1.4925   -0.6200    0.1300 C   0  0  2  0  0  0  0  0  0  0  0  0
    0.0404   -0.2878    0.0525 C   0  0  0  0  0  0  0  0  0  0  0  0
    2.4091    0.6099   -0.0618 C   0  0  0  0  0  0  0  0  0  0  0  0
    1.8972   -1.7070   -0.8860 C   0  0  0  0  0  0  0  0  0  0  0  0
   -0.3992    0.7226   -0.8027 C   0  0  0  0  0  0  0  0  0  0  0  0
   -0.8777   -0.9874    0.8355 C   0  0  0  0  0  0  0  0  0  0  0  0
   -1.7571    1.0336   -0.8748 C   0  0  0  0  0  0  0  0  0  0  0  0
   -2.2356   -0.6766    0.7634 C   0  0  0  0  0  0  0  0  0  0  0  0
   -2.6753    0.3339   -0.0918 C   0  0  0  0  0  0  0  0  0  0  0  0
    1.6947   -1.0083    1.1384 H   0  0  0  0  0  0  0  0  0  0  0  0
    2.3267    1.0728   -1.0493 H   0  0  0  0  0  0  0  0  0  0  0  0
    3.4590    0.3224    0.0659 H   0  0  0  0  0  0  0  0  0  0  0  0
    2.9544   -1.9697   -0.7742 H   0  0  0  0  0  0  0  0  0  0  0  0
    1.3064   -2.6178   -0.7386 H   0  0  0  0  0  0  0  0  0  0  0  0
    1.7359   -1.3684   -1.9155 H   0  0  0  0  0  0  0  0  0  0  0  0
    0.2742    1.2753   -1.4483 H   0  0  0  0  0  0  0  0  0  0  0  0
   -0.5495   -1.7786    1.5044 H   0  0  0  0  0  0  0  0  0  0  0  0
   -2.1009    1.8163   -1.5448 H   0  0  0  0  0  0  0  0  0  0  0  0
   -2.9508   -1.2219    1.3722 H   0  0  0  0  0  0  0  0  0  0  0  0
   -3.7327    0.5748   -0.1492 H   0  0  0  0  0  0  0  0  0  0  0  0
    2.2431    1.1612    1.8030 H   0  0  0  0  0  0  0  0  0  0  0  0
  1  4  1  0  0  0  0
  1 22  1  0  0  0  0
  2  3  1  0  0  0  0
  2  4  1  0  0  0  0
  2  5  1  0  0  0  0
  2 11  1  0  0  0  0
  3  6  2  0  0  0  0
  3  7  1  0  0  0  0
  4 12  1  0  0  0  0
  4 13  1  0  0  0  0
  5 14  1  0  0  0  0
  5 15  1  0  0  0  0
  5 16  1  0  0  0  0
  6  8  1  0  0  0  0
  6 17  1  0  0  0  0
  7  9  2  0  0  0  0
  7 18  1  0  0  0  0
  8 10  2  0  0  0  0
  8 19  1  0  0  0  0
  9 10  1  0  0  0  0
  9 20  1  0  0  0  0
 10 21  1  0  0  0  0
M  END
> <PUBCHEM_COMPOUND_CID>
14295

> <PUBCHEM_CONFORMER_RMSD>
0.4

> <PUBCHEM_CONFORMER_DIVERSEORDER>
4
9
6
10
2
8
7
5
3
1

> <PUBCHEM_MMFF94_PARTIAL_CHARGES>
15
1 -0.68
10 -0.15
17 0.15
18 0.15
19 0.15
2 0.14
20 0.15
21 0.15
22 0.4
3 -0.14
4 0.28
6 -0.15
7 -0.15
8 -0.15
9 -0.15

> <PUBCHEM_EFFECTIVE_ROTOR_COUNT>
2

> <PUBCHEM_PHARMACOPHORE_FEATURES>
4
1 1 acceptor
1 1 donor
1 5 hydrophobe
6 3 6 7 8 9 10 rings

> <PUBCHEM_HEAVY_ATOM_COUNT>
10

> <PUBCHEM_ATOM_DEF_STEREO_COUNT>
0

> <PUBCHEM_ATOM_UDEF_STEREO_COUNT>
1

> <PUBCHEM_BOND_DEF_STEREO_COUNT>
0

> <PUBCHEM_BOND_UDEF_STEREO_COUNT>
0

> <PUBCHEM_ISOTOPIC_ATOM_COUNT>
0

> <PUBCHEM_COMPONENT_COUNT>
1

> <PUBCHEM_CACTVS_TAUTO_COUNT>
1

> <PUBCHEM_CONFORMER_ID>
000037D700000004

> <PUBCHEM_MMFF94_ENERGY>
24.8515

> <PUBCHEM_FEATURE_SELFOVERLAP>
20.297

> <PUBCHEM_SHAPE_FINGERPRINT>
10857977 72 17845932935892175369
12326174 3 17676477385135850446
12524768 44 18342455954319112623
12716758 59 17845652676328042331
12932741 1 18341893034351315215
12932764 1 18410285926148404207
15219456 202 18412260653484904814
15310529 11 17385726911026669587
16945 1 17418369212305962479
18380122 1 18268987596531317307
19973954 147 18410572932890082661
20201158 50 18338516447159374014
20645464 45 18343306976171201275
20653085 51 18043529623868918937
20711978 78 18187644738629449262
21040471 1 17488466467131818799
23211744 41 18341621373411870642
23552423 10 17346308336512470579
2748010 2 18202560704982409775
29004967 10 18114743844884915254
369184 2 15195295200500193925
5084963 1 17988071322114652431

> <PUBCHEM_SHAPE_MULTIPOLES>
199.93
3.8
1.5
1.03
0.1
0.03
-0.02
-0.28
0.09
-0.54
-0.01
-0.12
-0.02
0.96

> <PUBCHEM_SHAPE_SELFOVERLAP>
405.146

> <PUBCHEM_SHAPE_VOLUME>
117

> <PUBCHEM_COORDINATE_TYPE>
2
5
10

$$$$

