37165
  -OEChem-07051213043D

 38 40  0     1  0  0  0  0  0999 V2000
    2.5967    1.9107   -1.4731 O   0  0  0  0  0  0  0  0  0  0  0  0
    0.3281    2.2226   -1.0474 O   0  0  0  0  0  0  0  0  0  0  0  0
   -3.1142   -0.6644   -0.2753 O   0  0  0  0  0  0  0  0  0  0  0  0
   -4.2541    1.1776   -1.0547 O   0  0  0  0  0  0  0  0  0  0  0  0
    0.7462    0.3925    1.2208 N   0  0  0  0  0  0  0  0  0  0  0  0
    1.4659   -1.7986   -1.1420 N   0  0  0  0  0  0  0  0  0  0  0  0
    2.7807   -0.3651    0.0163 N   0  0  0  0  0  0  0  0  0  0  0  0
   -0.7923   -1.3968    0.9713 N   0  0  0  0  0  0  0  0  0  0  0  0
   -0.1739   -0.6526    3.0846 N   0  0  0  0  0  0  0  0  0  0  0  0
    3.6571   -2.4564   -0.7378 N   0  0  0  0  0  0  0  0  0  0  0  0
   -5.3433   -0.5009    0.0780 N   0  0  0  0  0  0  0  0  0  0  0  0
    1.4022    0.2507   -0.0811 C   0  0  1  0  0  0  0  0  0  0  0  0
    0.5752   -0.6679   -1.0194 C   0  0  2  0  0  0  0  0  0  0  0  0
    1.5562    1.7234   -0.5296 C   0  0  0  0  0  0  0  0  0  0  0  0
    1.8978    2.4159    0.7932 C   0  0  0  0  0  0  0  0  0  0  0  0
    1.0180    1.6959    1.8198 C   0  0  0  0  0  0  0  0  0  0  0  0
   -0.7816   -1.1370   -0.4805 C   0  0  2  0  0  0  0  0  0  0  0  0
   -0.1009   -0.5804    1.7144 C   0  0  0  0  0  0  0  0  0  0  0  0
    2.6778   -1.5206   -0.5905 C   0  0  0  0  0  0  0  0  0  0  0  0
   -1.9048   -0.1485   -0.7972 C   0  0  0  0  0  0  0  0  0  0  0  0
   -4.2368    0.0999   -0.4697 C   0  0  0  0  0  0  0  0  0  0  0  0
    0.4682   -0.2285   -2.0180 H   0  0  0  0  0  0  0  0  0  0  0  0
    1.6988    3.4924    0.7838 H   0  0  0  0  0  0  0  0  0  0  0  0
    2.9582    2.2807    1.0399 H   0  0  0  0  0  0  0  0  0  0  0  0
    1.5362    1.6101    2.7798 H   0  0  0  0  0  0  0  0  0  0  0  0
    0.0781    2.2389    1.9672 H   0  0  0  0  0  0  0  0  0  0  0  0
   -1.0432   -2.0905   -0.9587 H   0  0  0  0  0  0  0  0  0  0  0  0
    1.2596   -2.6057   -1.7183 H   0  0  0  0  0  0  0  0  0  0  0  0
   -1.9949   -0.0162   -1.8817 H   0  0  0  0  0  0  0  0  0  0  0  0
   -1.7108    0.8240   -0.3326 H   0  0  0  0  0  0  0  0  0  0  0  0
    2.6069    1.1377   -2.0620 H   0  0  0  0  0  0  0  0  0  0  0  0
    0.2991    3.1809   -0.8895 H   0  0  0  0  0  0  0  0  0  0  0  0
    0.3797   -0.0544    3.6866 H   0  0  0  0  0  0  0  0  0  0  0  0
   -0.7698   -1.3372    3.5377 H   0  0  0  0  0  0  0  0  0  0  0  0
    3.4861   -3.3273   -1.2287 H   0  0  0  0  0  0  0  0  0  0  0  0
    4.5858   -2.3114   -0.3572 H   0  0  0  0  0  0  0  0  0  0  0  0
   -5.2783   -1.3948    0.5532 H   0  0  0  0  0  0  0  0  0  0  0  0
   -6.2598   -0.0694    0.0244 H   0  0  0  0  0  0  0  0  0  0  0  0
  1 14  1  0  0  0  0
  1 31  1  0  0  0  0
  2 14  1  0  0  0  0
  2 32  1  0  0  0  0
  3 20  1  0  0  0  0
  3 21  1  0  0  0  0
  4 21  2  0  0  0  0
  5 12  1  0  0  0  0
  5 16  1  0  0  0  0
  5 18  1  0  0  0  0
  6 13  1  0  0  0  0
  6 19  1  0  0  0  0
  6 28  1  0  0  0  0
  7 12  1  0  0  0  0
  7 19  2  0  0  0  0
  8 17  1  0  0  0  0
  8 18  2  0  0  0  0
  9 18  1  0  0  0  0
  9 33  1  0  0  0  0
  9 34  1  0  0  0  0
 10 19  1  0  0  0  0
 10 35  1  0  0  0  0
 10 36  1  0  0  0  0
 11 21  1  0  0  0  0
 11 37  1  0  0  0  0
 11 38  1  0  0  0  0
 12 13  1  0  0  0  0
 12 14  1  0  0  0  0
 13 17  1  0  0  0  0
 13 22  1  0  0  0  0
 14 15  1  0  0  0  0
 15 16  1  0  0  0  0
 15 23  1  0  0  0  0
 15 24  1  0  0  0  0
 16 25  1  0  0  0  0
 16 26  1  0  0  0  0
 17 20  1  0  0  0  0
 17 27  1  0  0  0  0
 20 29  1  0  0  0  0
 20 30  1  0  0  0  0
M  END
> <PUBCHEM_COMPOUND_CID>
37165

> <PUBCHEM_CONFORMER_RMSD>
0.6

> <PUBCHEM_CONFORMER_DIVERSEORDER>
16
1
29
24
17
14
28
15
3
21
22
27
23
8
4
30
7
25
5
10
2
12
9
20
11
18
13
19
6
26

> <PUBCHEM_MMFF94_PARTIAL_CHARGES>
29
1 -0.68
10 -0.85
11 -0.8
12 0.62
13 0.37
14 0.56
16 0.37
17 0.25
18 0.55
19 0.55
2 -0.68
20 0.28
21 0.78
28 0.4
3 -0.43
31 0.4
32 0.4
33 0.4
34 0.4
35 0.4
36 0.4
37 0.37
38 0.37
4 -0.57
5 -0.79
6 -0.82
7 -0.7
8 -0.7
9 -0.85

> <PUBCHEM_EFFECTIVE_ROTOR_COUNT>
4

> <PUBCHEM_PHARMACOPHORE_FEATURES>
14
1 1 acceptor
1 1 donor
1 10 donor
1 11 donor
1 2 acceptor
1 2 donor
1 4 acceptor
1 6 donor
1 9 donor
4 5 8 9 18 cation
4 6 7 10 19 cation
5 5 12 14 15 16 rings
5 6 7 12 13 19 rings
6 5 8 12 13 17 18 rings

> <PUBCHEM_HEAVY_ATOM_COUNT>
21

> <PUBCHEM_ATOM_DEF_STEREO_COUNT>
3

> <PUBCHEM_ATOM_UDEF_STEREO_COUNT>
0

> <PUBCHEM_BOND_DEF_STEREO_COUNT>
0

> <PUBCHEM_BOND_UDEF_STEREO_COUNT>
0

> <PUBCHEM_ISOTOPIC_ATOM_COUNT>
0

> <PUBCHEM_COMPONENT_COUNT>
1

> <PUBCHEM_CACTVS_TAUTO_COUNT>
12

> <PUBCHEM_CONFORMER_ID>
0000912D00000010

> <PUBCHEM_MMFF94_ENERGY>
68.3019

> <PUBCHEM_FEATURE_SELFOVERLAP>
71.576

> <PUBCHEM_SHAPE_FINGERPRINT>
10863032 1 18262519169683035967
10948715 1 18050578343600856856
11067466 332 15554460612346694557
11578080 2 16482135022568578764
12293681 4 18131626781478636745
13004483 165 17972044896901322422
13134695 92 17895489118730250645
13464514 151 17917140598936573420
14181834 199 18040990735344991406
14817 1 10336321333584799608
15163728 17 17056929916093149508
15238133 3 16588570007817665811
16945 1 18040993990993615570
17876694 64 17095796741190377410
18186145 218 18130795568453170879
20691752 17 17489300932054384277
21503847 285 18272367620546823869
23419403 2 17627751376025337050
23526113 38 17845643863097615298
427121 178 16558754455826984129
5281201 14 18408886252678984349
5337951 7 17917994945198623054
633830 44 17846785092180145879
7495541 125 17967816003656205215
81228 2 17832122189664252502

> <PUBCHEM_SHAPE_MULTIPOLES>
373.83
6.27
2.39
1.83
10.31
0.4
-1.4
-1.07
2.1
-2.67
0.4
-0.2
0.42
0.47

> <PUBCHEM_SHAPE_SELFOVERLAP>
803.974

> <PUBCHEM_SHAPE_VOLUME>
202.8

> <PUBCHEM_COORDINATE_TYPE>
2
5
10

$$$$

