17395682
  -OEChem-06241222513D

 49 50  0     0  0  0  0  0  0999 V2000
    4.5340    1.9470   -0.2863 O   0  0  0  0  0  0  0  0  0  0  0  0
    0.2800    3.0375    0.9912 O   0  0  0  0  0  0  0  0  0  0  0  0
   -1.0884   -0.0509   -1.7536 O   0  0  0  0  0  0  0  0  0  0  0  0
    2.8929    0.2877   -0.3975 N   0  0  0  0  0  0  0  0  0  0  0  0
   -0.6580    0.5306    0.4769 N   0  0  0  0  0  0  0  0  0  0  0  0
    2.4098    2.4732    0.3456 N   0  0  0  0  0  0  0  0  0  0  0  0
    1.1388   -1.3873   -0.4849 N   0  0  0  0  0  0  0  0  0  0  0  0
    3.8488   -0.7010   -0.9007 C   0  0  0  0  0  0  0  0  0  0  0  0
    4.5283   -1.4774    0.2224 C   0  0  0  0  0  0  0  0  0  0  0  0
    1.5521   -0.0995   -0.2060 C   0  0  0  0  0  0  0  0  0  0  0  0
    0.6647    0.8110    0.2588 C   0  0  0  0  0  0  0  0  0  0  0  0
    5.5483   -2.4927   -0.2982 C   0  0  0  0  0  0  0  0  0  0  0  0
    3.3657    1.5829   -0.1285 C   0  0  0  0  0  0  0  0  0  0  0  0
    1.0772    2.2036    0.5689 C   0  0  0  0  0  0  0  0  0  0  0  0
   -1.4660    0.1012   -0.5918 C   0  0  0  0  0  0  0  0  0  0  0  0
   -2.8799   -0.2115   -0.3237 C   0  0  0  0  0  0  0  0  0  0  0  0
    6.2522   -3.2081    0.8443 C   0  0  0  0  0  0  0  0  0  0  0  0
   -1.1550    0.6976    1.8503 C   0  0  0  0  0  0  0  0  0  0  0  0
   -3.8667    0.7692   -0.4247 C   0  0  0  0  0  0  0  0  0  0  0  0
   -3.2254   -1.5140    0.0368 C   0  0  0  0  0  0  0  0  0  0  0  0
   -4.5576   -1.8356    0.2964 C   0  0  0  0  0  0  0  0  0  0  0  0
   -5.1989    0.4475   -0.1649 C   0  0  0  0  0  0  0  0  0  0  0  0
   -5.5443   -0.8548    0.1956 C   0  0  0  0  0  0  0  0  0  0  0  0
   -3.5248    2.1719   -0.8088 C   0  0  0  0  0  0  0  0  0  0  0  0
   -4.9277   -3.2280    0.6822 C   0  0  0  0  0  0  0  0  0  0  0  0
    3.3821   -1.3621   -1.6385 H   0  0  0  0  0  0  0  0  0  0  0  0
    4.6254   -0.1660   -1.4630 H   0  0  0  0  0  0  0  0  0  0  0  0
    3.7730   -1.9985    0.8234 H   0  0  0  0  0  0  0  0  0  0  0  0
    5.0284   -0.7738    0.9001 H   0  0  0  0  0  0  0  0  0  0  0  0
    5.0454   -3.2302   -0.9342 H   0  0  0  0  0  0  0  0  0  0  0  0
    6.2959   -1.9840   -0.9178 H   0  0  0  0  0  0  0  0  0  0  0  0
    2.7267    3.4172    0.5479 H   0  0  0  0  0  0  0  0  0  0  0  0
    5.5349   -3.7505    1.4685 H   0  0  0  0  0  0  0  0  0  0  0  0
    6.9747   -3.9303    0.4511 H   0  0  0  0  0  0  0  0  0  0  0  0
    6.7925   -2.4981    1.4787 H   0  0  0  0  0  0  0  0  0  0  0  0
   -1.7373   -0.1821    2.1383 H   0  0  0  0  0  0  0  0  0  0  0  0
   -0.3313    0.8089    2.5631 H   0  0  0  0  0  0  0  0  0  0  0  0
   -1.8059    1.5755    1.8910 H   0  0  0  0  0  0  0  0  0  0  0  0
    1.8125   -2.1081   -0.7009 H   0  0  0  0  0  0  0  0  0  0  0  0
    0.1926   -1.6693   -0.2637 H   0  0  0  0  0  0  0  0  0  0  0  0
   -2.4558   -2.2789    0.1138 H   0  0  0  0  0  0  0  0  0  0  0  0
   -5.9803    1.1993   -0.2385 H   0  0  0  0  0  0  0  0  0  0  0  0
   -6.5859   -1.0933    0.3938 H   0  0  0  0  0  0  0  0  0  0  0  0
   -2.8870    2.6367   -0.0509 H   0  0  0  0  0  0  0  0  0  0  0  0
   -3.0112    2.1924   -1.7756 H   0  0  0  0  0  0  0  0  0  0  0  0
   -4.4201    2.7954   -0.9083 H   0  0  0  0  0  0  0  0  0  0  0  0
   -5.8212   -3.2398    1.3156 H   0  0  0  0  0  0  0  0  0  0  0  0
   -4.1241   -3.7052    1.2536 H   0  0  0  0  0  0  0  0  0  0  0  0
   -5.1253   -3.8257   -0.2131 H   0  0  0  0  0  0  0  0  0  0  0  0
  1 13  2  0  0  0  0
  2 14  2  0  0  0  0
  3 15  2  0  0  0  0
  4  8  1  0  0  0  0
  4 10  1  0  0  0  0
  4 13  1  0  0  0  0
  5 11  1  0  0  0  0
  5 15  1  0  0  0  0
  5 18  1  0  0  0  0
  6 13  1  0  0  0  0
  6 14  1  0  0  0  0
  6 32  1  0  0  0  0
  7 10  1  0  0  0  0
  7 39  1  0  0  0  0
  7 40  1  0  0  0  0
  8  9  1  0  0  0  0
  8 26  1  0  0  0  0
  8 27  1  0  0  0  0
  9 12  1  0  0  0  0
  9 28  1  0  0  0  0
  9 29  1  0  0  0  0
 10 11  2  0  0  0  0
 11 14  1  0  0  0  0
 12 17  1  0  0  0  0
 12 30  1  0  0  0  0
 12 31  1  0  0  0  0
 15 16  1  0  0  0  0
 16 19  2  0  0  0  0
 16 20  1  0  0  0  0
 17 33  1  0  0  0  0
 17 34  1  0  0  0  0
 17 35  1  0  0  0  0
 18 36  1  0  0  0  0
 18 37  1  0  0  0  0
 18 38  1  0  0  0  0
 19 22  1  0  0  0  0
 19 24  1  0  0  0  0
 20 21  2  0  0  0  0
 20 41  1  0  0  0  0
 21 23  1  0  0  0  0
 21 25  1  0  0  0  0
 22 23  2  0  0  0  0
 22 42  1  0  0  0  0
 23 43  1  0  0  0  0
 24 44  1  0  0  0  0
 24 45  1  0  0  0  0
 24 46  1  0  0  0  0
 25 47  1  0  0  0  0
 25 48  1  0  0  0  0
 25 49  1  0  0  0  0
M  END
> <PUBCHEM_COMPOUND_CID>
17395682

> <PUBCHEM_CONFORMER_RMSD>
0.8

> <PUBCHEM_CONFORMER_DIVERSEORDER>
1
17
71
46
42
32
66
87
85
79
30
75
53
61
13
78
38
60
34
40
12
82
31
81
57
67
45
23
49
20
89
56
35
54
18
5
52
63
64
76
74
68
62
70
39
36
86
83
80
51
21
24
59
25
37
90
28
41
72
84
22
27
69
58
26
16
47
33
9
50
91
77
73
11
19
8
48
88
15
43
55
10
29
7
6
65
4
14
2
44
3

> <PUBCHEM_MMFF94_PARTIAL_CHARGES>
28
1 -0.57
10 0.21
11 0.12
13 0.69
14 0.62
15 0.54
16 0.09
18 0.3
19 -0.14
2 -0.57
20 -0.15
21 -0.14
22 -0.15
23 -0.15
24 0.14
25 0.14
3 -0.57
32 0.37
39 0.4
4 -0.47
40 0.4
41 0.15
42 0.15
43 0.15
5 -0.47
6 -0.49
7 -0.9
8 0.3

> <PUBCHEM_EFFECTIVE_ROTOR_COUNT>
6

> <PUBCHEM_PHARMACOPHORE_FEATURES>
9
1 1 acceptor
1 17 hydrophobe
1 2 acceptor
1 3 acceptor
1 6 donor
1 7 cation
1 7 donor
6 16 19 20 21 22 23 rings
6 4 6 10 11 13 14 rings

> <PUBCHEM_HEAVY_ATOM_COUNT>
25

> <PUBCHEM_ATOM_DEF_STEREO_COUNT>
0

> <PUBCHEM_ATOM_UDEF_STEREO_COUNT>
0

> <PUBCHEM_BOND_DEF_STEREO_COUNT>
0

> <PUBCHEM_BOND_UDEF_STEREO_COUNT>
0

> <PUBCHEM_ISOTOPIC_ATOM_COUNT>
0

> <PUBCHEM_COMPONENT_COUNT>
1

> <PUBCHEM_CACTVS_TAUTO_COUNT>
8

> <PUBCHEM_CONFORMER_ID>
01096FE200000001

> <PUBCHEM_MMFF94_ENERGY>
89.7503

> <PUBCHEM_FEATURE_SELFOVERLAP>
45.669

> <PUBCHEM_SHAPE_FINGERPRINT>
11405975 8 18409728465447880985
11552529 35 17463123549336757071
11796584 16 18199472232697123526
11963148 33 18050853212728735222
12107183 9 18191860335193810449
12166972 35 18059849619526428278
12236239 1 17240752939681689433
12403259 226 18411139091616649293
12623949 98 18045762508731561855
12633257 1 18334565859469068435
12788726 201 17458610212379859912
13073987 5 18334855000408767849
13140716 1 18187925153192810808
13540713 5 18192691536484555672
13782708 43 18131070437143056315
14251751 18 18342175578949429974
14341114 176 18413102840995700885
14420673 8 18340485681127844623
14910302 57 18202290190498416575
15196674 1 18410291380857025471
15927050 60 18047474427267094326
17492 89 18340487768323389667
17844677 252 18412819196664970917
19784866 240 18338230574336612326
1979834 28 17313098687819042302
20567600 70 18411984689463529218
20832881 197 18412260661758400147
21033650 10 17060059314758425268
21065201 7 18130796629204682273
21267235 1 18334850658270457126
221490 88 18409726218747312395
22393880 68 18130795576642496995
23559900 14 18341338803761928717
25147074 1 18263345041204366312
3004659 81 18272931652789773270
3421961 26 18335423452642192808
4073 2 18129938958046893963
4098825 35 18131912676536046388
4214541 1 18411981382084983933
44062 13 18412828014422779087
465052 167 18334853944369156478
5104073 3 18187078455749764713
559249 180 18267589189687346391
7970288 3 18267586991208183042
8863177 126 18340481166879865771
9709674 26 18197213655599014723

> <PUBCHEM_SHAPE_MULTIPOLES>
476.96
13.55
3.42
1.06
5.28
0.83
-0.12
11.55
-0.17
2.11
-0.87
-0.11
-0.14
0.48

> <PUBCHEM_SHAPE_SELFOVERLAP>
1002.941

> <PUBCHEM_SHAPE_VOLUME>
267.2

> <PUBCHEM_COORDINATE_TYPE>
2
5
10

$$$$

