9543348
  -OEChem-07051213112D

 31 34  0     1  0  0  0  0  0999 V2000
    4.5531    2.9476    0.0000 O   0  0  0  0  0  0  0  0  0  0  0  0
    2.8214    2.9135    0.0000 O   0  0  0  0  0  0  0  0  0  0  0  0
    3.7320   -0.5683    0.0000 C   0  0  0  0  0  0  0  0  0  0  0  0
    2.8660   -0.0683    0.0000 C   0  0  0  0  0  0  0  0  0  0  0  0
    2.8648    0.9234    0.0000 C   0  0  0  0  0  0  0  0  0  0  0  0
    3.7168    1.4308    0.0000 C   0  0  3  0  0  0  0  0  0  0  0  0
    3.7320   -1.5683    0.0000 C   0  0  0  0  0  0  0  0  0  0  0  0
    4.6260   -0.0337    0.0000 C   0  0  0  0  0  0  0  0  0  0  0  0
    4.5882    0.9573    0.0000 C   0  0  0  0  0  0  0  0  0  0  0  0
    2.8660   -2.0683    0.0000 C   0  0  0  0  0  0  0  0  0  0  0  0
    4.6260   -2.1030    0.0000 C   0  0  0  0  0  0  0  0  0  0  0  0
    2.0000   -0.5683    0.0000 C   0  0  0  0  0  0  0  0  0  0  0  0
    5.5321   -0.5475    0.0000 C   0  0  0  0  0  0  0  0  0  0  0  0
    2.0000   -1.5683    0.0000 C   0  0  0  0  0  0  0  0  0  0  0  0
    5.5321   -1.5891    0.0000 C   0  0  0  0  0  0  0  0  0  0  0  0
    3.6971    2.4306    0.0000 C   0  0  0  0  0  0  0  0  0  0  0  0
    2.8648   -3.0600    0.0000 C   0  0  0  0  0  0  0  0  0  0  0  0
    4.5882   -3.0940    0.0000 C   0  0  0  0  0  0  0  0  0  0  0  0
    3.7168   -3.5675    0.0000 C   0  0  0  0  0  0  0  0  0  0  0  0
    2.6472    1.5040    0.0000 H   0  0  0  0  0  0  0  0  0  0  0  0
    2.2548    0.8125    0.0000 H   0  0  0  0  0  0  0  0  0  0  0  0
    3.1748    1.7319    0.0000 H   0  0  0  0  0  0  0  0  0  0  0  0
    5.1149    1.2843    0.0000 H   0  0  0  0  0  0  0  0  0  0  0  0
    1.4631   -0.2583    0.0000 H   0  0  0  0  0  0  0  0  0  0  0  0
    6.0678   -0.2354    0.0000 H   0  0  0  0  0  0  0  0  0  0  0  0
    1.4631   -1.8783    0.0000 H   0  0  0  0  0  0  0  0  0  0  0  0
    6.0678   -1.9012    0.0000 H   0  0  0  0  0  0  0  0  0  0  0  0
    2.3256   -3.3660    0.0000 H   0  0  0  0  0  0  0  0  0  0  0  0
    5.1149   -3.4210    0.0000 H   0  0  0  0  0  0  0  0  0  0  0  0
    3.7046   -4.1873    0.0000 H   0  0  0  0  0  0  0  0  0  0  0  0
    4.5409    3.5675    0.0000 H   0  0  0  0  0  0  0  0  0  0  0  0
  1 16  1  0  0  0  0
  1 31  1  0  0  0  0
  2 16  2  0  0  0  0
  3  4  2  0  0  0  0
  3  7  1  0  0  0  0
  3  8  1  0  0  0  0
  4  5  1  0  0  0  0
  4 12  1  0  0  0  0
  5  6  1  0  0  0  0
  5 20  1  0  0  0  0
  5 21  1  0  0  0  0
  6  9  1  0  0  0  0
  6 16  1  0  0  0  0
  6 22  1  0  0  0  0
  7 10  2  0  0  0  0
  7 11  1  0  0  0  0
  8  9  2  0  0  0  0
  8 13  1  0  0  0  0
  9 23  1  0  0  0  0
 10 14  1  0  0  0  0
 10 17  1  0  0  0  0
 11 15  1  0  0  0  0
 11 18  2  0  0  0  0
 12 14  2  0  0  0  0
 12 24  1  0  0  0  0
 13 15  2  0  0  0  0
 13 25  1  0  0  0  0
 14 26  1  0  0  0  0
 15 27  1  0  0  0  0
 17 19  2  0  0  0  0
 17 28  1  0  0  0  0
 18 19  1  0  0  0  0
 18 29  1  0  0  0  0
 19 30  1  0  0  0  0
M  END
> <PUBCHEM_COMPOUND_CID>
9543348

> <PUBCHEM_COMPOUND_CANONICALIZED>
1

> <PUBCHEM_CACTVS_COMPLEXITY>
462

> <PUBCHEM_CACTVS_HBOND_ACCEPTOR>
2

> <PUBCHEM_CACTVS_HBOND_DONOR>
1

> <PUBCHEM_CACTVS_ROTATABLE_BOND>
1

> <PUBCHEM_CACTVS_SUBSKEYS>
AAADccB4MAAAAAAAAAAAAAAAAAAAAAAAAAAwYIEAAAAAAADBUAAAGgAACAAADQCAmAAwCMAAAgCIAiDSCAACAAAgAAAIiAEAAIgIIDKAERCAYAAkwAAIiAeIyPCOwAACAAAQAACAAAQAACAAAAAAAAAAAA==

> <PUBCHEM_IUPAC_OPENEYE_NAME>
1,2-dihydropyrene-2-carboxylic acid

> <PUBCHEM_IUPAC_CAS_NAME>
1,2-dihydropyrene-2-carboxylic acid

> <PUBCHEM_IUPAC_NAME>
1,2-dihydropyrene-2-carboxylic acid

> <PUBCHEM_IUPAC_SYSTEMATIC_NAME>
1,2-dihydropyrene-2-carboxylic acid

> <PUBCHEM_IUPAC_TRADITIONAL_NAME>
1,2-dihydropyrene-2-carboxylic acid

> <PUBCHEM_IUPAC_INCHI>
InChI=1S/C17H12O2/c18-17(19)14-8-12-6-4-10-2-1-3-11-5-7-13(9-14)16(12)15(10)11/h1-8,14H,9H2,(H,18,19)

> <PUBCHEM_IUPAC_INCHIKEY>
BGDJGAAPLUVPMU-UHFFFAOYSA-N

> <PUBCHEM_XLOGP3>
4.2

> <PUBCHEM_EXACT_MASS>
248.08373

> <PUBCHEM_MOLECULAR_FORMULA>
C17H12O2

> <PUBCHEM_MOLECULAR_WEIGHT>
248.27598

> <PUBCHEM_OPENEYE_CAN_SMILES>
C1C(C=C2C=CC3=C4C2=C1C=CC4=CC=C3)C(=O)O

> <PUBCHEM_OPENEYE_ISO_SMILES>
C1C(C=C2C=CC3=C4C2=C1C=CC4=CC=C3)C(=O)O

> <PUBCHEM_CACTVS_TPSA>
37.3

> <PUBCHEM_MONOISOTOPIC_WEIGHT>
248.08373

> <PUBCHEM_TOTAL_CHARGE>
0

> <PUBCHEM_HEAVY_ATOM_COUNT>
19

> <PUBCHEM_ATOM_DEF_STEREO_COUNT>
0

> <PUBCHEM_ATOM_UDEF_STEREO_COUNT>
1

> <PUBCHEM_BOND_DEF_STEREO_COUNT>
0

> <PUBCHEM_BOND_UDEF_STEREO_COUNT>
0

> <PUBCHEM_ISOTOPIC_ATOM_COUNT>
0

> <PUBCHEM_COMPONENT_COUNT>
1

> <PUBCHEM_CACTVS_TAUTO_COUNT>
1

> <PUBCHEM_COORDINATE_TYPE>
1
5
255

> <PUBCHEM_BONDANNOTATIONS>
10  14  8
10  17  8
11  15  8
11  18  8
12  14  8
13  15  8
17  19  8
18  19  8
3  4  8
3  7  8
3  8  8
4  12  8
6  16  3
7  10  8
7  11  8
8  13  8

$$$$

