442015
  -OEChem-07051212563D

 48 52  0     1  0  0  0  0  0999 V2000
   -2.3837   -1.7928   -1.0165 O   0  0  0  0  0  0  0  0  0  0  0  0
    2.1937    1.2759    0.6726 O   0  0  0  0  0  0  0  0  0  0  0  0
   -4.4942    0.4089    0.9523 O   0  0  0  0  0  0  0  0  0  0  0  0
   -4.4701   -0.9534   -1.4465 O   0  0  0  0  0  0  0  0  0  0  0  0
    1.1754    3.2576    0.7709 O   0  0  0  0  0  0  0  0  0  0  0  0
    5.5891   -1.7899    0.3268 O   0  0  0  0  0  0  0  0  0  0  0  0
   -0.8242   -0.3262    0.1796 C   0  0  2  0  0  0  0  0  0  0  0  0
   -2.0578    0.6060    0.5308 C   0  0  1  0  0  0  0  0  0  0  0  0
    0.0976    0.1828   -0.9901 C   0  0  1  0  0  0  0  0  0  0  0  0
    0.3171    1.7059   -0.8743 C   0  0  1  0  0  0  0  0  0  0  0  0
   -2.2685    1.7326   -0.5015 C   0  0  0  0  0  0  0  0  0  0  0  0
   -3.3316   -0.3180    0.6289 C   0  0  1  0  0  0  0  0  0  0  0  0
   -1.3528   -1.7849    0.0092 C   0  0  1  0  0  0  0  0  0  0  0  0
   -1.0035    2.5087   -0.8753 C   0  0  0  0  0  0  0  0  0  0  0  0
    1.4965   -0.4776   -0.9367 C   0  0  0  0  0  0  0  0  0  0  0  0
   -1.8256    1.2875    1.9094 C   0  0  0  0  0  0  0  0  0  0  0  0
   -0.4439   -0.1560   -2.4042 C   0  0  0  0  0  0  0  0  0  0  0  0
   -3.0938   -1.4583    1.5991 C   0  0  0  0  0  0  0  0  0  0  0  0
   -2.0333   -2.2175    1.2861 C   0  0  0  0  0  0  0  0  0  0  0  0
    2.2825   -0.1251    0.3210 C   0  0  1  0  0  0  0  0  0  0  0  0
   -3.4905   -1.0319   -0.7179 C   0  0  0  0  0  0  0  0  0  0  0  0
    1.2282    2.1329    0.2759 C   0  0  0  0  0  0  0  0  0  0  0  0
    3.7283   -0.5497    0.2091 C   0  0  0  0  0  0  0  0  0  0  0  0
    4.7990    0.2234   -0.2848 C   0  0  0  0  0  0  0  0  0  0  0  0
    4.2522   -1.7637    0.5689 C   0  0  0  0  0  0  0  0  0  0  0  0
    5.9139   -0.5769   -0.1925 C   0  0  0  0  0  0  0  0  0  0  0  0
   -0.2013   -0.3474    1.0820 H   0  0  0  0  0  0  0  0  0  0  0  0
    0.8825    2.0405   -1.7583 H   0  0  0  0  0  0  0  0  0  0  0  0
   -3.0178    2.4475   -0.1347 H   0  0  0  0  0  0  0  0  0  0  0  0
   -2.7129    1.3359   -1.4191 H   0  0  0  0  0  0  0  0  0  0  0  0
   -0.5707   -2.4944   -0.2729 H   0  0  0  0  0  0  0  0  0  0  0  0
   -1.1578    2.9162   -1.8839 H   0  0  0  0  0  0  0  0  0  0  0  0
   -0.9400    3.3903   -0.2278 H   0  0  0  0  0  0  0  0  0  0  0  0
    2.0727   -0.1422   -1.8121 H   0  0  0  0  0  0  0  0  0  0  0  0
    1.4235   -1.5683   -1.0331 H   0  0  0  0  0  0  0  0  0  0  0  0
   -0.9534    1.9452    1.8977 H   0  0  0  0  0  0  0  0  0  0  0  0
   -2.6879    1.8980    2.2001 H   0  0  0  0  0  0  0  0  0  0  0  0
   -1.6587    0.5556    2.7069 H   0  0  0  0  0  0  0  0  0  0  0  0
   -1.4612    0.1922   -2.5799 H   0  0  0  0  0  0  0  0  0  0  0  0
    0.1808    0.3016   -3.1813 H   0  0  0  0  0  0  0  0  0  0  0  0
   -0.4271   -1.2356   -2.5908 H   0  0  0  0  0  0  0  0  0  0  0  0
   -3.7003   -1.6222    2.4798 H   0  0  0  0  0  0  0  0  0  0  0  0
   -1.6991   -3.0586    1.8769 H   0  0  0  0  0  0  0  0  0  0  0  0
    1.8678   -0.6676    1.1791 H   0  0  0  0  0  0  0  0  0  0  0  0
   -5.2207   -0.2207    1.0984 H   0  0  0  0  0  0  0  0  0  0  0  0
    4.7722    1.2350   -0.6640 H   0  0  0  0  0  0  0  0  0  0  0  0
    3.8361   -2.6682    0.9883 H   0  0  0  0  0  0  0  0  0  0  0  0
    6.9559   -0.4390   -0.4416 H   0  0  0  0  0  0  0  0  0  0  0  0
  1 13  1  0  0  0  0
  1 21  1  0  0  0  0
  2 20  1  0  0  0  0
  2 22  1  0  0  0  0
  3 12  1  0  0  0  0
  3 45  1  0  0  0  0
  4 21  2  0  0  0  0
  5 22  2  0  0  0  0
  6 25  1  0  0  0  0
  6 26  1  0  0  0  0
  7  8  1  0  0  0  0
  7  9  1  0  0  0  0
  7 13  1  0  0  0  0
  7 27  1  0  0  0  0
  8 11  1  0  0  0  0
  8 12  1  0  0  0  0
  8 16  1  0  0  0  0
  9 10  1  0  0  0  0
  9 15  1  0  0  0  0
  9 17  1  0  0  0  0
 10 14  1  0  0  0  0
 10 22  1  0  0  0  0
 10 28  1  0  0  0  0
 11 14  1  0  0  0  0
 11 29  1  0  0  0  0
 11 30  1  0  0  0  0
 12 18  1  0  0  0  0
 12 21  1  0  0  0  0
 13 19  1  0  0  0  0
 13 31  1  0  0  0  0
 14 32  1  0  0  0  0
 14 33  1  0  0  0  0
 15 20  1  0  0  0  0
 15 34  1  0  0  0  0
 15 35  1  0  0  0  0
 16 36  1  0  0  0  0
 16 37  1  0  0  0  0
 16 38  1  0  0  0  0
 17 39  1  0  0  0  0
 17 40  1  0  0  0  0
 17 41  1  0  0  0  0
 18 19  2  0  0  0  0
 18 42  1  0  0  0  0
 19 43  1  0  0  0  0
 20 23  1  0  0  0  0
 20 44  1  0  0  0  0
 23 24  1  0  0  0  0
 23 25  2  0  0  0  0
 24 26  2  0  0  0  0
 24 46  1  0  0  0  0
 25 47  1  0  0  0  0
 26 48  1  0  0  0  0
M  END
> <PUBCHEM_COMPOUND_CID>
442015

> <PUBCHEM_CONFORMER_RMSD>
0.6

> <PUBCHEM_CONFORMER_DIVERSEORDER>
3
2
5
7
6
4
1
8

> <PUBCHEM_MMFF94_PARTIAL_CHARGES>
24
1 -0.43
10 0.06
12 0.48
13 0.42
18 -0.29
19 -0.29
2 -0.43
20 0.46
21 0.66
22 0.66
23 -0.18
24 -0.15
25 -0.01
26 -0.01
3 -0.68
4 -0.57
42 0.15
43 0.15
45 0.4
46 0.15
47 0.15
48 0.15
5 -0.57
6 -0.28

> <PUBCHEM_EFFECTIVE_ROTOR_COUNT>
2.2

> <PUBCHEM_PHARMACOPHORE_FEATURES>
9
1 3 acceptor
1 3 donor
1 4 acceptor
1 5 acceptor
1 6 acceptor
5 6 23 24 25 26 rings
6 2 9 10 15 20 22 rings
6 7 8 9 10 11 14 rings
8 1 7 8 12 13 18 19 21 rings

> <PUBCHEM_HEAVY_ATOM_COUNT>
26

> <PUBCHEM_ATOM_DEF_STEREO_COUNT>
7

> <PUBCHEM_ATOM_UDEF_STEREO_COUNT>
0

> <PUBCHEM_BOND_DEF_STEREO_COUNT>
0

> <PUBCHEM_BOND_UDEF_STEREO_COUNT>
0

> <PUBCHEM_ISOTOPIC_ATOM_COUNT>
0

> <PUBCHEM_COMPONENT_COUNT>
1

> <PUBCHEM_CACTVS_TAUTO_COUNT>
1

> <PUBCHEM_CONFORMER_ID>
0006BE9F00000003

> <PUBCHEM_MMFF94_ENERGY>
94.455

> <PUBCHEM_FEATURE_SELFOVERLAP>
45.749

> <PUBCHEM_SHAPE_FINGERPRINT>
10366900 7 18409733950100304746
10863032 1 18120938300486208897
11315181 36 18260551130317269498
11552529 35 18040720255643320546
11578080 2 17632022944192413836
12011746 2 18341619243197593741
12553582 1 18201446882460287362
12596602 18 16370733612823847530
12633257 1 17968363589751616003
12714826 92 17846508057893696316
12760667 363 18341618174241945018
12788726 201 18199482127884808529
13140716 1 18267010675067746339
13533116 47 18191589636337472187
13544653 18 18343581837420580470
14142880 1 18117267267453065753
14223421 5 18123754157933125128
14787075 74 18342172246624065736
15209289 33 18202841050330175794
15463212 79 9943233780524796360
16752209 62 17987818404407128313
16945 1 17761201121398159061
17349148 13 17531247210411869519
17357779 13 18200888308856968524
17492 89 18048883987603543231
17804303 29 18341606001618267194
17980427 23 17676481735890611961
1813 80 17916568947584911710
18222031 100 18259707783418693182
19862831 5 13398637155954970398
200 152 18040723545492940655
20600515 1 18200013123339407700
20775530 9 17628348281948906058
21069387 34 18266744589069724455
23175994 123 17561076995349143709
23402539 116 18260552242476422367
23419403 2 17679054571714565577
23559900 14 18129947767309829804
3286 77 17095815299944256673
335352 9 18412262852840606461
4409770 3 18054234494620403492
469060 322 14057300674637614733

> <PUBCHEM_SHAPE_MULTIPOLES>
499.85
9.32
2.6
1.53
12.11
1.1
-0.28
-5.09
0.81
-0.24
0.49
-1.28
0
-0.03

> <PUBCHEM_SHAPE_SELFOVERLAP>
1114.017

> <PUBCHEM_SHAPE_VOLUME>
261.1

> <PUBCHEM_COORDINATE_TYPE>
2
5
10

$$$$

