5281974
  -OEChem-07051213022D

 47 52  0     1  0  0  0  0  0999 V2000
    3.8076    1.3444    0.0000 O   0  0  0  0  0  0  0  0  0  0  0  0
    5.0332    2.5682    0.0000 O   0  0  0  0  0  0  0  0  0  0  0  0
    6.1798   -0.8097    0.0000 N   0  0  3  0  0  0  0  0  0  0  0  0
    4.0899   -1.7652    0.0000 N   0  0  0  0  0  0  0  0  0  0  0  0
    6.4862    0.6318    0.0000 C   0  0  3  0  0  0  0  0  0  0  0  0
    5.9169   -0.0005    0.0000 C   0  0  2  0  0  0  0  0  0  0  0  0
    4.5153   -0.4559    0.0000 C   0  0  1  0  0  0  0  0  0  0  0  0
    4.5142    0.6368    0.0000 C   0  0  2  0  0  0  0  0  0  0  0  0
    6.7056   -2.4281    0.0000 C   0  0  1  0  0  0  0  0  0  0  0  0
    5.0846    0.1764    0.0000 C   0  0  0  0  0  0  0  0  0  0  0  0
    5.6105   -1.4420    0.0000 C   0  0  2  0  0  0  0  0  0  0  0  0
    4.7782   -1.2651    0.0000 C   0  0  0  0  0  0  0  0  0  0  0  0
    5.8734   -2.2512    0.0000 C   0  0  0  0  0  0  0  0  0  0  0  0
    7.0121   -0.9866    0.0000 C   0  0  0  0  0  0  0  0  0  0  0  0
    7.2750   -1.7958    0.0000 C   0  0  0  0  0  0  0  0  0  0  0  0
    3.6645   -0.4559    0.0000 C   0  0  0  0  0  0  0  0  0  0  0  0
    3.4016   -1.2651    0.0000 C   0  0  0  0  0  0  0  0  0  0  0  0
    8.2531   -2.0037    0.0000 C   0  0  0  0  0  0  0  0  0  0  0  0
    3.0952    0.1764    0.0000 C   0  0  0  0  0  0  0  0  0  0  0  0
    2.5693   -1.4420    0.0000 C   0  0  0  0  0  0  0  0  0  0  0  0
    4.0671    2.3101    0.0000 C   0  0  0  0  0  0  0  0  0  0  0  0
    2.2629   -0.0005    0.0000 C   0  0  0  0  0  0  0  0  0  0  0  0
    8.5621   -2.9547    0.0000 C   0  0  0  0  0  0  0  0  0  0  0  0
    2.0000   -0.8097    0.0000 C   0  0  0  0  0  0  0  0  0  0  0  0
    3.3605    3.0177    0.0000 C   0  0  0  0  0  0  0  0  0  0  0  0
    6.9092    1.0851    0.0000 H   0  0  0  0  0  0  0  0  0  0  0  0
    5.7347    0.8298    0.0000 H   0  0  0  0  0  0  0  0  0  0  0  0
    4.7523    1.2092    0.0000 H   0  0  0  0  0  0  0  0  0  0  0  0
    6.9683   -3.2365    0.0000 H   0  0  0  0  0  0  0  0  0  0  0  0
    5.3169    0.7513    0.0000 H   0  0  0  0  0  0  0  0  0  0  0  0
    4.5588    0.5050    0.0000 H   0  0  0  0  0  0  0  0  0  0  0  0
    5.0417   -2.0736    0.0000 H   0  0  0  0  0  0  0  0  0  0  0  0
    5.2594   -2.3374    0.0000 H   0  0  0  0  0  0  0  0  0  0  0  0
    5.8518   -2.8708    0.0000 H   0  0  0  0  0  0  0  0  0  0  0  0
    7.6260   -0.9003    0.0000 H   0  0  0  0  0  0  0  0  0  0  0  0
    7.0337   -0.3669    0.0000 H   0  0  0  0  0  0  0  0  0  0  0  0
    8.6680   -1.5429    0.0000 H   0  0  0  0  0  0  0  0  0  0  0  0
    3.2868    0.7661    0.0000 H   0  0  0  0  0  0  0  0  0  0  0  0
    2.3777   -2.0316    0.0000 H   0  0  0  0  0  0  0  0  0  0  0  0
    1.8481    0.4603    0.0000 H   0  0  0  0  0  0  0  0  0  0  0  0
    7.9725   -3.1463    0.0000 H   0  0  0  0  0  0  0  0  0  0  0  0
    8.7537   -3.5444    0.0000 H   0  0  0  0  0  0  0  0  0  0  0  0
    9.1518   -2.7632    0.0000 H   0  0  0  0  0  0  0  0  0  0  0  0
    1.3936   -0.9386    0.0000 H   0  0  0  0  0  0  0  0  0  0  0  0
    3.7992    3.4558    0.0000 H   0  0  0  0  0  0  0  0  0  0  0  0
    2.9224    3.4564    0.0000 H   0  0  0  0  0  0  0  0  0  0  0  0
    2.9217    2.5796    0.0000 H   0  0  0  0  0  0  0  0  0  0  0  0
  1  8  1  0  0  0  0
  1 21  1  0  0  0  0
  2 21  2  0  0  0  0
  3  6  1  0  0  0  0
  3 11  1  0  0  0  0
  3 14  1  0  0  0  0
  4 12  2  0  0  0  0
  4 17  1  0  0  0  0
  5  6  1  0  0  0  0
  5  8  1  0  0  0  0
  5  9  1  0  0  0  0
  5 26  1  0  0  0  0
  6 10  1  0  0  0  0
  6 27  1  6  0  0  0
  7  8  1  0  0  0  0
  7 10  1  0  0  0  0
  7 12  1  0  0  0  0
  7 16  1  6  0  0  0
  8 28  1  0  0  0  0
  9 13  1  0  0  0  0
  9 15  1  0  0  0  0
  9 29  1  1  0  0  0
 10 30  1  0  0  0  0
 10 31  1  0  0  0  0
 11 12  1  0  0  0  0
 11 13  1  0  0  0  0
 11 32  1  6  0  0  0
 13 33  1  0  0  0  0
 13 34  1  0  0  0  0
 14 15  1  0  0  0  0
 14 35  1  0  0  0  0
 14 36  1  0  0  0  0
 15 18  2  0  0  0  0
 16 17  1  0  0  0  0
 16 19  2  0  0  0  0
 17 20  2  0  0  0  0
 18 23  1  0  0  0  0
 18 37  1  0  0  0  0
 19 22  1  0  0  0  0
 19 38  1  0  0  0  0
 20 24  1  0  0  0  0
 20 39  1  0  0  0  0
 21 25  1  0  0  0  0
 22 24  2  0  0  0  0
 22 40  1  0  0  0  0
 23 41  1  0  0  0  0
 23 42  1  0  0  0  0
 23 43  1  0  0  0  0
 24 44  1  0  0  0  0
 25 45  1  0  0  0  0
 25 46  1  0  0  0  0
 25 47  1  0  0  0  0
M  END
> <PUBCHEM_COMPOUND_CID>
5281974

> <PUBCHEM_COMPOUND_CANONICALIZED>
1

> <PUBCHEM_CACTVS_COMPLEXITY>
713

> <PUBCHEM_CACTVS_HBOND_ACCEPTOR>
4

> <PUBCHEM_CACTVS_HBOND_DONOR>
0

> <PUBCHEM_CACTVS_ROTATABLE_BOND>
2

> <PUBCHEM_CACTVS_SUBSKEYS>
AAADceB7MAAAAAAAAAAAAAAAAAAAAYIAAAA8WLFiBgAAAECBAAAAHgAAAAAADzzhmAYyyIMABACoAyTyTACCAAAgAgAIiAA4ZIgIICKAkZGGIABmwAGIyAew0PMPgAAAAAACAAAAAAAAAAQAASEABQAAAA==

> <PUBCHEM_IUPAC_INCHI>
InChI=1S/C21H22N2O2/c1-3-12-10-23-16-8-13(12)18-17(23)9-21(20(18)25-11(2)24)14-6-4-5-7-15(14)22-19(16)21/h3-7,13,16-18,20H,8-10H2,1-2H3/b12-3-/t13-,16-,17-,18?,20+,21+/m0/s1

> <PUBCHEM_IUPAC_INCHIKEY>
CLDVMRAEPFQOSD-WEOXKLFPSA-N

> <PUBCHEM_XLOGP3_AA>
1.9

> <PUBCHEM_EXACT_MASS>
334.168128

> <PUBCHEM_MOLECULAR_FORMULA>
C21H22N2O2

> <PUBCHEM_MOLECULAR_WEIGHT>
334.41158

> <PUBCHEM_OPENEYE_CAN_SMILES>
CC=C1CN2C3CC1C4C2CC5(C4OC(=O)C)C3=NC6=CC=CC=C56

> <PUBCHEM_OPENEYE_ISO_SMILES>
C/C=C\1/CN2[C@H]3C[C@@H]1C4[C@@H]2C[C@]5([C@@H]4OC(=O)C)C3=NC6=CC=CC=C56

> <PUBCHEM_CACTVS_TPSA>
41.9

> <PUBCHEM_MONOISOTOPIC_WEIGHT>
334.168128

> <PUBCHEM_TOTAL_CHARGE>
0

> <PUBCHEM_HEAVY_ATOM_COUNT>
25

> <PUBCHEM_ATOM_DEF_STEREO_COUNT>
5

> <PUBCHEM_ATOM_UDEF_STEREO_COUNT>
1

> <PUBCHEM_BOND_DEF_STEREO_COUNT>
1

> <PUBCHEM_BOND_UDEF_STEREO_COUNT>
0

> <PUBCHEM_ISOTOPIC_ATOM_COUNT>
0

> <PUBCHEM_COMPONENT_COUNT>
1

> <PUBCHEM_CACTVS_TAUTO_COUNT>
1

> <PUBCHEM_COORDINATE_TYPE>
1
5
255

> <PUBCHEM_BONDANNOTATIONS>
11  32  6
16  17  8
16  19  8
17  20  8
19  22  8
20  24  8
22  24  8
5  8  3
6  27  6
7  16  6
9  29  5

$$$$

