17395465
  -OEChem-06241222502D

 36 37  0     1  0  0  0  0  0999 V2000
    5.0981    3.2694    0.0000 S   0  0  0  0  0  0  0  0  0  0  0  0
    2.0000   -2.7694    0.0000 F   0  0  0  0  0  0  0  0  0  0  0  0
    5.0981    4.2694    0.0000 O   0  0  0  0  0  0  0  0  0  0  0  0
    6.0491    3.5784    0.0000 O   0  0  0  0  0  0  0  0  0  0  0  0
    2.8660    0.7306    0.0000 O   0  0  0  0  0  0  0  0  0  0  0  0
    3.7320   -3.7694    0.0000 O   0  0  0  0  0  0  0  0  0  0  0  0
    4.5981    0.7306    0.0000 N   0  0  0  0  0  0  0  0  0  0  0  0
    4.5981    1.7306    0.0000 C   0  0  3  0  0  0  0  0  0  0  0  0
    5.4071    2.3184    0.0000 C   0  0  0  0  0  0  0  0  0  0  0  0
    3.7891    2.3184    0.0000 C   0  0  0  0  0  0  0  0  0  0  0  0
    4.0981    3.2694    0.0000 C   0  0  0  0  0  0  0  0  0  0  0  0
    5.4641    0.2306    0.0000 C   0  0  0  0  0  0  0  0  0  0  0  0
    3.7320    0.2306    0.0000 C   0  0  0  0  0  0  0  0  0  0  0  0
    3.7320   -0.7694    0.0000 C   0  0  0  0  0  0  0  0  0  0  0  0
    2.8660   -1.2694    0.0000 C   0  0  0  0  0  0  0  0  0  0  0  0
    4.5981   -1.2694    0.0000 C   0  0  0  0  0  0  0  0  0  0  0  0
    2.8660   -2.2694    0.0000 C   0  0  0  0  0  0  0  0  0  0  0  0
    4.5981   -2.2694    0.0000 C   0  0  0  0  0  0  0  0  0  0  0  0
    3.7320   -2.7694    0.0000 C   0  0  0  0  0  0  0  0  0  0  0  0
    4.5981   -4.2694    0.0000 C   0  0  0  0  0  0  0  0  0  0  0  0
    5.1505    1.4491    0.0000 H   0  0  0  0  0  0  0  0  0  0  0  0
    5.7171    1.7814    0.0000 H   0  0  0  0  0  0  0  0  0  0  0  0
    5.9735    2.5705    0.0000 H   0  0  0  0  0  0  0  0  0  0  0  0
    3.2227    2.5705    0.0000 H   0  0  0  0  0  0  0  0  0  0  0  0
    3.4791    1.7814    0.0000 H   0  0  0  0  0  0  0  0  0  0  0  0
    4.1629    3.8860    0.0000 H   0  0  0  0  0  0  0  0  0  0  0  0
    3.4916    3.3983    0.0000 H   0  0  0  0  0  0  0  0  0  0  0  0
    5.1541   -0.3064    0.0000 H   0  0  0  0  0  0  0  0  0  0  0  0
    6.0010   -0.0794    0.0000 H   0  0  0  0  0  0  0  0  0  0  0  0
    5.7741    0.7675    0.0000 H   0  0  0  0  0  0  0  0  0  0  0  0
    2.3291   -0.9594    0.0000 H   0  0  0  0  0  0  0  0  0  0  0  0
    5.1350   -0.9594    0.0000 H   0  0  0  0  0  0  0  0  0  0  0  0
    5.1350   -2.5794    0.0000 H   0  0  0  0  0  0  0  0  0  0  0  0
    4.2881   -4.8064    0.0000 H   0  0  0  0  0  0  0  0  0  0  0  0
    5.1350   -4.5794    0.0000 H   0  0  0  0  0  0  0  0  0  0  0  0
    4.9081   -3.7325    0.0000 H   0  0  0  0  0  0  0  0  0  0  0  0
  1  3  2  0  0  0  0
  1  4  2  0  0  0  0
  1  9  1  0  0  0  0
  1 11  1  0  0  0  0
  2 17  1  0  0  0  0
  5 13  2  0  0  0  0
  6 19  1  0  0  0  0
  6 20  1  0  0  0  0
  7  8  1  0  0  0  0
  7 12  1  0  0  0  0
  7 13  1  0  0  0  0
  8  9  1  0  0  0  0
  8 10  1  0  0  0  0
  8 21  1  0  0  0  0
  9 22  1  0  0  0  0
  9 23  1  0  0  0  0
 10 11  1  0  0  0  0
 10 24  1  0  0  0  0
 10 25  1  0  0  0  0
 11 26  1  0  0  0  0
 11 27  1  0  0  0  0
 12 28  1  0  0  0  0
 12 29  1  0  0  0  0
 12 30  1  0  0  0  0
 13 14  1  0  0  0  0
 14 15  2  0  0  0  0
 14 16  1  0  0  0  0
 15 17  1  0  0  0  0
 15 31  1  0  0  0  0
 16 18  2  0  0  0  0
 16 32  1  0  0  0  0
 17 19  2  0  0  0  0
 18 19  1  0  0  0  0
 18 33  1  0  0  0  0
 20 34  1  0  0  0  0
 20 35  1  0  0  0  0
 20 36  1  0  0  0  0
M  END
> <PUBCHEM_COMPOUND_CID>
17395465

> <PUBCHEM_COMPOUND_CANONICALIZED>
1

> <PUBCHEM_CACTVS_COMPLEXITY>
462

> <PUBCHEM_CACTVS_HBOND_ACCEPTOR>
5

> <PUBCHEM_CACTVS_HBOND_DONOR>
0

> <PUBCHEM_CACTVS_ROTATABLE_BOND>
3

> <PUBCHEM_CACTVS_SUBSKEYS>
AAADceByOQBAAAAAAAAAAAAAAAAAASAAAAAwAAAAAAAAAAABAAAAHwQAAAAADCzF2A6yBoMABAqIAiFSEHDCCAAkIBAIiAEODMgMJjKktRuEMShkxhGoqYeY3ALOIAAAAAAAAABAAAAAAAAAAAAAAAAAAA==

> <PUBCHEM_IUPAC_OPENEYE_NAME>
N-(1,1-dioxothiolan-3-yl)-3-fluoro-4-methoxy-N-methyl-benzamide

> <PUBCHEM_IUPAC_CAS_NAME>
N-(1,1-dioxo-3-thiolanyl)-3-fluoro-4-methoxy-N-methylbenzamide

> <PUBCHEM_IUPAC_NAME>
N-(1,1-dioxothiolan-3-yl)-3-fluoro-4-methoxy-N-methylbenzamide

> <PUBCHEM_IUPAC_SYSTEMATIC_NAME>
N-[1,1-bis(oxidanylidene)thiolan-3-yl]-3-fluoranyl-4-methoxy-N-methyl-benzamide

> <PUBCHEM_IUPAC_TRADITIONAL_NAME>
N-(1,1-diketothiolan-3-yl)-3-fluoro-4-methoxy-N-methyl-benzamide

> <PUBCHEM_IUPAC_INCHI>
InChI=1S/C13H16FNO4S/c1-15(10-5-6-20(17,18)8-10)13(16)9-3-4-12(19-2)11(14)7-9/h3-4,7,10H,5-6,8H2,1-2H3

> <PUBCHEM_IUPAC_INCHIKEY>
AYEVVLALNAGRHO-UHFFFAOYSA-N

> <PUBCHEM_XLOGP3_AA>
1

> <PUBCHEM_EXACT_MASS>
301.078407

> <PUBCHEM_MOLECULAR_FORMULA>
C13H16FNO4S

> <PUBCHEM_MOLECULAR_WEIGHT>
301.333843

> <PUBCHEM_OPENEYE_CAN_SMILES>
CN(C1CCS(=O)(=O)C1)C(=O)C2=CC(=C(C=C2)OC)F

> <PUBCHEM_OPENEYE_ISO_SMILES>
CN(C1CCS(=O)(=O)C1)C(=O)C2=CC(=C(C=C2)OC)F

> <PUBCHEM_CACTVS_TPSA>
72.1

> <PUBCHEM_MONOISOTOPIC_WEIGHT>
301.078407

> <PUBCHEM_TOTAL_CHARGE>
0

> <PUBCHEM_HEAVY_ATOM_COUNT>
20

> <PUBCHEM_ATOM_DEF_STEREO_COUNT>
0

> <PUBCHEM_ATOM_UDEF_STEREO_COUNT>
1

> <PUBCHEM_BOND_DEF_STEREO_COUNT>
0

> <PUBCHEM_BOND_UDEF_STEREO_COUNT>
0

> <PUBCHEM_ISOTOPIC_ATOM_COUNT>
0

> <PUBCHEM_COMPONENT_COUNT>
1

> <PUBCHEM_CACTVS_TAUTO_COUNT>
1

> <PUBCHEM_COORDINATE_TYPE>
1
5
255

> <PUBCHEM_BONDANNOTATIONS>
14  15  8
14  16  8
15  17  8
16  18  8
17  19  8
18  19  8
8  7  3

$$$$

