8377
  -OEChem-06261202472D

 19 19  0     0  0  0  0  0  0999 V2000
    2.8660    0.9050    0.0000 Cl  0  0  0  0  0  0  0  0  0  0  0  0
    6.3301   -2.0950    0.0000 O   0  0  0  0  0  0  0  0  0  0  0  0
    7.1962   -0.5950    0.0000 O   0  0  0  0  0  0  0  0  0  0  0  0
    2.8660   -2.0950    0.0000 O   0  5  0  0  0  0  0  0  0  0  0  0
    5.4641    2.4050    0.0000 O   0  5  0  0  0  0  0  0  0  0  0  0
    2.0000   -0.5950    0.0000 O   0  0  0  0  0  0  0  0  0  0  0  0
    3.7320    2.4050    0.0000 O   0  0  0  0  0  0  0  0  0  0  0  0
    2.8660   -1.0950    0.0000 N   0  3  0  0  0  0  0  0  0  0  0  0
    4.5981    1.9050    0.0000 N   0  3  0  0  0  0  0  0  0  0  0  0
    5.4641   -0.5950    0.0000 C   0  0  0  0  0  0  0  0  0  0  0  0
    3.7320   -0.5950    0.0000 C   0  0  0  0  0  0  0  0  0  0  0  0
    4.5981    0.9050    0.0000 C   0  0  0  0  0  0  0  0  0  0  0  0
    5.4641    0.4050    0.0000 C   0  0  0  0  0  0  0  0  0  0  0  0
    4.5981   -1.0950    0.0000 C   0  0  0  0  0  0  0  0  0  0  0  0
    3.7320    0.4050    0.0000 C   0  0  0  0  0  0  0  0  0  0  0  0
    6.3301   -1.0950    0.0000 C   0  0  0  0  0  0  0  0  0  0  0  0
    6.0010    0.7150    0.0000 H   0  0  0  0  0  0  0  0  0  0  0  0
    4.5981   -1.7150    0.0000 H   0  0  0  0  0  0  0  0  0  0  0  0
    6.8671   -2.4050    0.0000 H   0  0  0  0  0  0  0  0  0  0  0  0
  1 15  1  0  0  0  0
  2 16  1  0  0  0  0
  2 19  1  0  0  0  0
  3 16  2  0  0  0  0
  4  8  1  0  0  0  0
  5  9  1  0  0  0  0
  6  8  2  0  0  0  0
  7  9  2  0  0  0  0
  8 11  1  0  0  0  0
  9 12  1  0  0  0  0
 10 13  2  0  0  0  0
 10 14  1  0  0  0  0
 10 16  1  0  0  0  0
 11 14  2  0  0  0  0
 11 15  1  0  0  0  0
 12 13  1  0  0  0  0
 12 15  2  0  0  0  0
 13 17  1  0  0  0  0
 14 18  1  0  0  0  0
M  CHG  4   4  -1   5  -1   8   1   9   1
M  END
> <PUBCHEM_COMPOUND_CID>
8377

> <PUBCHEM_COMPOUND_CANONICALIZED>
1

> <PUBCHEM_CACTVS_COMPLEXITY>
300

> <PUBCHEM_CACTVS_HBOND_ACCEPTOR>
6

> <PUBCHEM_CACTVS_HBOND_DONOR>
1

> <PUBCHEM_CACTVS_ROTATABLE_BOND>
1

> <PUBCHEM_CACTVS_SUBSKEYS>
AAADcQBjOAAEAAAAAAAAAAAAAAAAAAAAAAAwAAAAAAAAAAABAAAAHgIECAAADAqBmCAwyIAQQgCJAiTSSwCCAAAkBgAgiAEAbsoIJjKB19GAcQBkwAEI2Ye8yCCOBAAAQAQAABAIAACACAAAIAAAAAAAAA==

> <PUBCHEM_IUPAC_OPENEYE_NAME>
4-chloro-3,5-dinitro-benzoic acid

> <PUBCHEM_IUPAC_CAS_NAME>
4-chloro-3,5-dinitrobenzoic acid

> <PUBCHEM_IUPAC_NAME>
4-chloro-3,5-dinitrobenzoic acid

> <PUBCHEM_IUPAC_SYSTEMATIC_NAME>
4-chloranyl-3,5-dinitro-benzoic acid

> <PUBCHEM_IUPAC_TRADITIONAL_NAME>
4-chloro-3,5-dinitro-benzoic acid

> <PUBCHEM_IUPAC_INCHI>
InChI=1S/C7H3ClN2O6/c8-6-4(9(13)14)1-3(7(11)12)2-5(6)10(15)16/h1-2H,(H,11,12)

> <PUBCHEM_IUPAC_INCHIKEY>
PCTFIHOVQYYAMH-UHFFFAOYSA-N

> <PUBCHEM_XLOGP3>
2.5

> <PUBCHEM_EXACT_MASS>
245.967964

> <PUBCHEM_MOLECULAR_FORMULA>
C7H3ClN2O6

> <PUBCHEM_MOLECULAR_WEIGHT>
246.56152

> <PUBCHEM_OPENEYE_CAN_SMILES>
C1=C(C=C(C(=C1[N+](=O)[O-])Cl)[N+](=O)[O-])C(=O)O

> <PUBCHEM_OPENEYE_ISO_SMILES>
C1=C(C=C(C(=C1[N+](=O)[O-])Cl)[N+](=O)[O-])C(=O)O

> <PUBCHEM_CACTVS_TPSA>
129

> <PUBCHEM_MONOISOTOPIC_WEIGHT>
245.967964

> <PUBCHEM_TOTAL_CHARGE>
0

> <PUBCHEM_HEAVY_ATOM_COUNT>
16

> <PUBCHEM_ATOM_DEF_STEREO_COUNT>
0

> <PUBCHEM_ATOM_UDEF_STEREO_COUNT>
0

> <PUBCHEM_BOND_DEF_STEREO_COUNT>
0

> <PUBCHEM_BOND_UDEF_STEREO_COUNT>
0

> <PUBCHEM_ISOTOPIC_ATOM_COUNT>
0

> <PUBCHEM_COMPONENT_COUNT>
1

> <PUBCHEM_CACTVS_TAUTO_COUNT>
1

> <PUBCHEM_COORDINATE_TYPE>
1
5
255

> <PUBCHEM_BONDANNOTATIONS>
10  13  8
10  14  8
11  14  8
11  15  8
12  13  8
12  15  8

$$$$

