9818
  -OEChem-06261204053D

 18 18  0     0  0  0  0  0  0999 V2000
    0.6924    2.8196   -0.0001 F   0  0  0  0  0  0  0  0  0  0  0  0
    1.6585    1.2077    1.0828 F   0  0  0  0  0  0  0  0  0  0  0  0
    1.6411    1.1957   -1.0917 F   0  0  0  0  0  0  0  0  0  0  0  0
    0.6922   -2.8198    0.0011 F   0  0  0  0  0  0  0  0  0  0  0  0
    1.6583   -1.2088   -1.0830 F   0  0  0  0  0  0  0  0  0  0  0  0
    1.6409   -1.1950    1.0915 F   0  0  0  0  0  0  0  0  0  0  0  0
   -0.4119    0.6975   -0.0007 C   0  0  0  0  0  0  0  0  0  0  0  0
   -0.4121   -0.6975    0.0001 C   0  0  0  0  0  0  0  0  0  0  0  0
   -1.6199    1.3950   -0.0008 C   0  0  0  0  0  0  0  0  0  0  0  0
   -1.6203   -1.3947    0.0007 C   0  0  0  0  0  0  0  0  0  0  0  0
    0.8688    1.4659   -0.0003 C   0  0  0  0  0  0  0  0  0  0  0  0
    0.8684   -1.4660    0.0002 C   0  0  0  0  0  0  0  0  0  0  0  0
   -2.8280    0.6976   -0.0003 C   0  0  0  0  0  0  0  0  0  0  0  0
   -2.8282   -0.6972    0.0004 C   0  0  0  0  0  0  0  0  0  0  0  0
   -1.6432    2.4812   -0.0012 H   0  0  0  0  0  0  0  0  0  0  0  0
   -1.6438   -2.4809    0.0012 H   0  0  0  0  0  0  0  0  0  0  0  0
   -3.7687    1.2405   -0.0004 H   0  0  0  0  0  0  0  0  0  0  0  0
   -3.7690   -1.2399    0.0009 H   0  0  0  0  0  0  0  0  0  0  0  0
  1 11  1  0  0  0  0
  2 11  1  0  0  0  0
  3 11  1  0  0  0  0
  4 12  1  0  0  0  0
  5 12  1  0  0  0  0
  6 12  1  0  0  0  0
  7  8  1  0  0  0  0
  7  9  2  0  0  0  0
  7 11  1  0  0  0  0
  8 10  2  0  0  0  0
  8 12  1  0  0  0  0
  9 13  1  0  0  0  0
  9 15  1  0  0  0  0
 10 14  1  0  0  0  0
 10 16  1  0  0  0  0
 13 14  2  0  0  0  0
 13 17  1  0  0  0  0
 14 18  1  0  0  0  0
M  END
> <PUBCHEM_COMPOUND_CID>
9818

> <PUBCHEM_CONFORMER_RMSD>
0.6

> <PUBCHEM_CONFORMER_DIVERSEORDER>
1

> <PUBCHEM_MMFF94_PARTIAL_CHARGES>
18
1 -0.34
10 -0.15
11 1.16
12 1.16
13 -0.15
14 -0.15
15 0.15
16 0.15
17 0.15
18 0.15
2 -0.34
3 -0.34
4 -0.34
5 -0.34
6 -0.34
7 -0.14
8 -0.14
9 -0.15

> <PUBCHEM_EFFECTIVE_ROTOR_COUNT>
2

> <PUBCHEM_PHARMACOPHORE_FEATURES>
1
6 7 8 9 10 13 14 rings

> <PUBCHEM_HEAVY_ATOM_COUNT>
14

> <PUBCHEM_ATOM_DEF_STEREO_COUNT>
0

> <PUBCHEM_ATOM_UDEF_STEREO_COUNT>
0

> <PUBCHEM_BOND_DEF_STEREO_COUNT>
0

> <PUBCHEM_BOND_UDEF_STEREO_COUNT>
0

> <PUBCHEM_ISOTOPIC_ATOM_COUNT>
0

> <PUBCHEM_COMPONENT_COUNT>
1

> <PUBCHEM_CACTVS_TAUTO_COUNT>
1

> <PUBCHEM_CONFORMER_ID>
0000265A00000001

> <PUBCHEM_MMFF94_ENERGY>
21.3191

> <PUBCHEM_FEATURE_SELFOVERLAP>
5.074

> <PUBCHEM_SHAPE_FINGERPRINT>
12423570 1 15522617260936434132
12524768 44 18119538879687012859
12696612 119 18412550902958417121
161256 15 18410847759705461325
16945 1 18410856564351462279
17990270 104 18410294731015905843
193761 8 18410573989968625381
21040471 1 18050567335388342693
21501502 16 18412262835623592801
22802520 49 17398641542599411972
2334 1 18410855426285388099
23552423 10 18412822482604810263
23559900 14 16098829150193978102
241688 4 17906172102739169217
2748010 2 18266184014006221421
5084963 1 17826217515469204337
66348 1 18265614471219822485
7364860 26 18260548926529509123
81228 2 17475235072936130417

> <PUBCHEM_SHAPE_MULTIPOLES>
244.47
3.1
2.6
0.82
1.83
0
0
0
0
-1.04
0
-0.41
0
0

> <PUBCHEM_SHAPE_SELFOVERLAP>
525.993

> <PUBCHEM_SHAPE_VOLUME>
135.2

> <PUBCHEM_COORDINATE_TYPE>
2
5
10

$$$$

