17395314
  -OEChem-06241222493D

 40 42  0     1  0  0  0  0  0999 V2000
   -2.9371   -2.0764    1.8094 Cl  0  0  0  0  0  0  0  0  0  0  0  0
    4.3292   -1.3730    1.5216 O   0  0  0  0  0  0  0  0  0  0  0  0
    5.3038   -1.8993   -0.6187 O   0  0  0  0  0  0  0  0  0  0  0  0
   -0.1095    1.5449    1.6701 O   0  0  0  0  0  0  0  0  0  0  0  0
   -1.6977    1.3198   -0.0065 N   0  0  0  0  0  0  0  0  0  0  0  0
    0.4191    2.0570   -0.5325 N   0  0  0  0  0  0  0  0  0  0  0  0
   -2.7729    0.8537    0.8370 C   0  0  2  0  0  0  0  0  0  0  0  0
   -3.6836   -0.0974    0.0908 C   0  0  0  0  0  0  0  0  0  0  0  0
    2.7297    1.2926   -0.4276 C   0  0  0  0  0  0  0  0  0  0  0  0
    1.7884    2.4444   -0.3087 C   0  0  0  0  0  0  0  0  0  0  0  0
   -3.5305    2.0335    1.4430 C   0  0  0  0  0  0  0  0  0  0  0  0
    3.9132   -0.5253    0.5415 C   0  0  0  0  0  0  0  0  0  0  0  0
    3.0379    0.5295    0.7012 C   0  0  0  0  0  0  0  0  0  0  0  0
    4.4698   -0.8258   -0.6806 C   0  0  0  0  0  0  0  0  0  0  0  0
   -0.4331    1.6322    0.4862 C   0  0  0  0  0  0  0  0  0  0  0  0
    3.2984    0.9854   -1.6762 C   0  0  0  0  0  0  0  0  0  0  0  0
   -3.8126   -1.4343    0.4677 C   0  0  0  0  0  0  0  0  0  0  0  0
   -4.4044    0.3928   -0.9982 C   0  0  0  0  0  0  0  0  0  0  0  0
    4.1819   -0.0883   -1.8105 C   0  0  0  0  0  0  0  0  0  0  0  0
    5.2096   -2.2413    0.7792 C   0  0  0  0  0  0  0  0  0  0  0  0
   -4.6624   -2.2807   -0.2445 C   0  0  0  0  0  0  0  0  0  0  0  0
   -5.2540   -0.4537   -1.7103 C   0  0  0  0  0  0  0  0  0  0  0  0
   -5.3830   -1.7904   -1.3335 C   0  0  0  0  0  0  0  0  0  0  0  0
   -2.2981    0.3574    1.6863 H   0  0  0  0  0  0  0  0  0  0  0  0
    1.8768    2.9102    0.6802 H   0  0  0  0  0  0  0  0  0  0  0  0
    2.0333    3.2207   -1.0426 H   0  0  0  0  0  0  0  0  0  0  0  0
   -1.8759    1.4757   -0.9942 H   0  0  0  0  0  0  0  0  0  0  0  0
   -3.9553    2.6898    0.6753 H   0  0  0  0  0  0  0  0  0  0  0  0
   -4.3499    1.6886    2.0834 H   0  0  0  0  0  0  0  0  0  0  0  0
   -2.8631    2.6510    2.0549 H   0  0  0  0  0  0  0  0  0  0  0  0
    2.6117    0.7530    1.6730 H   0  0  0  0  0  0  0  0  0  0  0  0
    0.0657    2.0725   -1.4843 H   0  0  0  0  0  0  0  0  0  0  0  0
    3.0540    1.5812   -2.5524 H   0  0  0  0  0  0  0  0  0  0  0  0
   -4.3167    1.4287   -1.3141 H   0  0  0  0  0  0  0  0  0  0  0  0
    4.6223   -0.3285   -2.7714 H   0  0  0  0  0  0  0  0  0  0  0  0
    4.8417   -3.2702    0.8647 H   0  0  0  0  0  0  0  0  0  0  0  0
    6.2108   -2.1875    1.2220 H   0  0  0  0  0  0  0  0  0  0  0  0
   -4.7742   -3.3249    0.0362 H   0  0  0  0  0  0  0  0  0  0  0  0
   -5.8143   -0.0726   -2.5591 H   0  0  0  0  0  0  0  0  0  0  0  0
   -6.0444   -2.4495   -1.8883 H   0  0  0  0  0  0  0  0  0  0  0  0
  1 17  1  0  0  0  0
  2 12  1  0  0  0  0
  2 20  1  0  0  0  0
  3 14  1  0  0  0  0
  3 20  1  0  0  0  0
  4 15  2  0  0  0  0
  5  7  1  0  0  0  0
  5 15  1  0  0  0  0
  5 27  1  0  0  0  0
  6 10  1  0  0  0  0
  6 15  1  0  0  0  0
  6 32  1  0  0  0  0
  7  8  1  0  0  0  0
  7 11  1  0  0  0  0
  7 24  1  0  0  0  0
  8 17  1  0  0  0  0
  8 18  2  0  0  0  0
  9 10  1  0  0  0  0
  9 13  2  0  0  0  0
  9 16  1  0  0  0  0
 10 25  1  0  0  0  0
 10 26  1  0  0  0  0
 11 28  1  0  0  0  0
 11 29  1  0  0  0  0
 11 30  1  0  0  0  0
 12 13  1  0  0  0  0
 12 14  2  0  0  0  0
 13 31  1  0  0  0  0
 14 19  1  0  0  0  0
 16 19  2  0  0  0  0
 16 33  1  0  0  0  0
 17 21  2  0  0  0  0
 18 22  1  0  0  0  0
 18 34  1  0  0  0  0
 19 35  1  0  0  0  0
 20 36  1  0  0  0  0
 20 37  1  0  0  0  0
 21 23  1  0  0  0  0
 21 38  1  0  0  0  0
 22 23  2  0  0  0  0
 22 39  1  0  0  0  0
 23 40  1  0  0  0  0
M  END
> <PUBCHEM_COMPOUND_CID>
17395314

> <PUBCHEM_CONFORMER_RMSD>
0.8

> <PUBCHEM_CONFORMER_DIVERSEORDER>
2
298
207
324
100
381
455
493
370
261
420
120
214
230
248
63
277
9
121
387
283
243
176
15
326
305
17
475
199
4
421
178
172
149
116
179
21
372
346
359
438
44
139
102
18
355
110
81
197
150
126
254
380
402
55
127
460
300
394
442
458
365
343
437
318
104
474
109
93
364
334
170
28
46
115
164
486
140
296
24
373
319
267
216
144
374
303
42
151
393
67
265
35
331
350
23
478
54
293
448
37
440
128
27
153
356
295
412
286
101
335
85
410
146
212
485
376
145
450
452
321
158
309
38
385
138
323
41
188
361
183
196
77
218
348
282
302
185
488
5
187
342
167
467
392
413
156
103
306
194
299
375
201
163
289
322
137
354
239
84
433
32
429
480
173
113
336
80
175
399
457
240
154
48
362
423
252
211
311
284
19
330
122
119
418
285
357
40
276
491
481
253
124
155
258
59
180
83
95
29
193
189
245
65
108
288
270
56
262
1
111
401
482
90
195
447
291
358
106
160
383
70
7
242
8
472
320
398
64
344
117
353
169
426
129
451
439
259
274
221
74
132
280
105
417
400
366
377
34
411
174
206
371
454
6
30
369
96
159
397
25
313
98
166
396
363
191
456
384
233
200
133
43
325
224
349
72
182
424
171
131
66
386
69
461
404
114
266
60
443
47
232
92
255
181
483
202
484
213
99
123
312
161
449
471
416
388
414
351
57
61
444
340
278
308
314
479
466
50
12
86
226
219
436
434
134
79
225
87
279
10
269
198
222
73
347
223
107
292
36
415
20
68
297
425
490
407
157
33
463
97
329
250
328
352
136
89
237
75
367
148
177
11
287
395
51
3
441
215
204
281
168
58
338
378
316
228
462
390
427
464
234
125
391
39
453
273
118
249
143
272
45
22
152
310
203
190
94
209
275
78
473
91
339
14
315
71
52
112
31
446
13
210
88
327
489
301
260
379
76
445
251
231
16
465
431
236
382
217
409
307
130
235
492
147
403
257
290
477
26
294
62
408
333
256
220
468
304
184
192
406
487
337
469
135
49
205
459
268
368
229
82
389
141
419
165
341
332
470
435
186
53
241
142
422
405
432
208
227
162
263
476
345
247
360
264
317
428
238
244
430
271
246

> <PUBCHEM_MMFF94_PARTIAL_CHARGES>
31
1 -0.18
10 0.44
12 0.08
13 -0.15
14 0.08
15 0.69
16 -0.15
17 0.18
18 -0.15
19 -0.15
2 -0.36
20 0.56
21 -0.15
22 -0.15
23 -0.15
27 0.37
3 -0.36
31 0.15
32 0.37
33 0.15
34 0.15
35 0.15
38 0.15
39 0.15
4 -0.57
40 0.15
5 -0.73
6 -0.73
7 0.44
8 -0.14
9 -0.14

> <PUBCHEM_EFFECTIVE_ROTOR_COUNT>
6.6

> <PUBCHEM_PHARMACOPHORE_FEATURES>
8
1 2 acceptor
1 3 acceptor
1 4 acceptor
1 5 donor
1 6 donor
5 2 3 12 14 20 rings
6 8 17 18 21 22 23 rings
6 9 12 13 14 16 19 rings

> <PUBCHEM_HEAVY_ATOM_COUNT>
23

> <PUBCHEM_ATOM_DEF_STEREO_COUNT>
0

> <PUBCHEM_ATOM_UDEF_STEREO_COUNT>
1

> <PUBCHEM_BOND_DEF_STEREO_COUNT>
0

> <PUBCHEM_BOND_UDEF_STEREO_COUNT>
0

> <PUBCHEM_ISOTOPIC_ATOM_COUNT>
0

> <PUBCHEM_COMPONENT_COUNT>
1

> <PUBCHEM_CACTVS_TAUTO_COUNT>
3

> <PUBCHEM_CONFORMER_ID>
01096E7200000002

> <PUBCHEM_MMFF94_ENERGY>
51.5538

> <PUBCHEM_FEATURE_SELFOVERLAP>
40.8

> <PUBCHEM_SHAPE_FINGERPRINT>
10042902 136 18191296277497581270
10498660 4 12967127207410722060
105312 117 13686291366196175576
11069576 57 17703230749677438066
11135609 201 9150871893950661324
11545043 162 16733254755205499180
11595378 159 4895285818665243347
11720765 8 13038366821539352088
11796584 16 18261670466971070220
12363563 72 18041552551612032905
12523318 42 15719398322028643525
12596602 18 14562535076167258119
12892183 10 4823222701336457837
13533116 47 18263084327671900465
13887833 79 16702025274685606469
1420 369 17968093088738093381
14251751 18 18335427880357784056
14347332 77 18410015404029154527
14848178 5 18334020483888715479
14910302 57 17916600760296935805
14950920 106 14056989559622011903
15183329 4 18130796680860380189
15188451 53 17676498262781946221
15210252 30 11023816293621764382
15238133 3 10663815253185358980
15250474 111 18412261770092213618
15342168 16 11815359099771568465
17349148 13 18261103063305095199
17857418 61 18411139151387196532
19377110 9 7420935479075454325
193927 3 18186792569709849717
20626108 58 18334858320529367656
21315763 87 17603596218070962626
21315764 119 17775295971418469855
21703447 108 18115594729478204641
21968339 14 17203038570664505684
23559900 14 18271532987720179089
2838139 119 11383821650604561926
3004659 81 18060143145690520226
312425 54 17677895823834215346
312425 83 16845571963705033269
339767 52 18341901783616551954
439807 62 18201155452214179363
44062 13 18412828018902382389
46194498 28 15337400433996889476
463206 1 18201714102461687210
508706 21 18188756349207011319
5104073 3 17749104483047197521
559249 180 18335984280998152081
633830 44 15267063627275217913
7970288 3 18337954627210087502
960060 61 17632578236398032508

> <PUBCHEM_SHAPE_MULTIPOLES>
447.63
14.48
2.81
1.74
1.12
0.22
0.09
9.82
3.92
0.05
-0.68
-0.49
0.17
-1.44

> <PUBCHEM_SHAPE_SELFOVERLAP>
955.183

> <PUBCHEM_SHAPE_VOLUME>
249

> <PUBCHEM_COORDINATE_TYPE>
2
5
10

$$$$

