443180
  -OEChem-07051213013D

 29 29  0     1  0  0  0  0  0999 V2000
    1.5468    2.0734    0.2004 O   0  0  0  0  0  0  0  0  0  0  0  0
    2.1534   -0.2702    0.1250 C   0  0  1  0  0  0  0  0  0  0  0  0
   -0.7984    0.2173    0.2771 C   0  0  2  0  0  0  0  0  0  0  0  0
    1.4888    0.9023   -0.6170 C   0  0  1  0  0  0  0  0  0  0  0  0
    0.0193    0.6352   -0.9564 C   0  0  0  0  0  0  0  0  0  0  0  0
    1.3146   -0.7012    1.3393 C   0  0  0  0  0  0  0  0  0  0  0  0
   -0.1480   -0.9757    0.9900 C   0  0  0  0  0  0  0  0  0  0  0  0
    2.4252   -1.4480   -0.8144 C   0  0  0  0  0  0  0  0  0  0  0  0
   -2.2137   -0.0992   -0.1055 C   0  0  0  0  0  0  0  0  0  0  0  0
   -3.2751    0.7572    0.5189 C   0  0  0  0  0  0  0  0  0  0  0  0
   -2.5129   -1.0911   -0.9575 C   0  0  0  0  0  0  0  0  0  0  0  0
    3.1230    0.0720    0.5112 H   0  0  0  0  0  0  0  0  0  0  0  0
   -0.8123    1.0584    0.9828 H   0  0  0  0  0  0  0  0  0  0  0  0
    2.0412    1.1337   -1.5343 H   0  0  0  0  0  0  0  0  0  0  0  0
   -0.0255   -0.1309   -1.7393 H   0  0  0  0  0  0  0  0  0  0  0  0
   -0.4223    1.5473   -1.3799 H   0  0  0  0  0  0  0  0  0  0  0  0
    1.3571    0.0756    2.1126 H   0  0  0  0  0  0  0  0  0  0  0  0
    1.7514   -1.5988    1.7942 H   0  0  0  0  0  0  0  0  0  0  0  0
   -0.1989   -1.8835    0.3771 H   0  0  0  0  0  0  0  0  0  0  0  0
   -0.6963   -1.2001    1.9141 H   0  0  0  0  0  0  0  0  0  0  0  0
    1.5080   -1.8609   -1.2442 H   0  0  0  0  0  0  0  0  0  0  0  0
    3.0715   -1.1369   -1.6422 H   0  0  0  0  0  0  0  0  0  0  0  0
    2.9374   -2.2557   -0.2807 H   0  0  0  0  0  0  0  0  0  0  0  0
    1.1234    1.8949    1.0545 H   0  0  0  0  0  0  0  0  0  0  0  0
   -3.2408    0.6704    1.6099 H   0  0  0  0  0  0  0  0  0  0  0  0
   -3.1253    1.8072    0.2469 H   0  0  0  0  0  0  0  0  0  0  0  0
   -4.2807    0.4697    0.1940 H   0  0  0  0  0  0  0  0  0  0  0  0
   -3.5425   -1.3073   -1.2243 H   0  0  0  0  0  0  0  0  0  0  0  0
   -1.7505   -1.7141   -1.4119 H   0  0  0  0  0  0  0  0  0  0  0  0
  1  4  1  0  0  0  0
  1 24  1  0  0  0  0
  2  4  1  0  0  0  0
  2  6  1  0  0  0  0
  2  8  1  0  0  0  0
  2 12  1  0  0  0  0
  3  5  1  0  0  0  0
  3  7  1  0  0  0  0
  3  9  1  0  0  0  0
  3 13  1  0  0  0  0
  4  5  1  0  0  0  0
  4 14  1  0  0  0  0
  5 15  1  0  0  0  0
  5 16  1  0  0  0  0
  6  7  1  0  0  0  0
  6 17  1  0  0  0  0
  6 18  1  0  0  0  0
  7 19  1  0  0  0  0
  7 20  1  0  0  0  0
  8 21  1  0  0  0  0
  8 22  1  0  0  0  0
  8 23  1  0  0  0  0
  9 10  1  0  0  0  0
  9 11  2  0  0  0  0
 10 25  1  0  0  0  0
 10 26  1  0  0  0  0
 10 27  1  0  0  0  0
 11 28  1  0  0  0  0
 11 29  1  0  0  0  0
M  END
> <PUBCHEM_COMPOUND_CID>
443180

> <PUBCHEM_CONFORMER_RMSD>
0.6

> <PUBCHEM_CONFORMER_DIVERSEORDER>
1
2
5
3
6
4

> <PUBCHEM_MMFF94_PARTIAL_CHARGES>
9
1 -0.68
10 0.14
11 -0.3
24 0.4
28 0.15
29 0.15
3 0.14
4 0.28
9 -0.28

> <PUBCHEM_EFFECTIVE_ROTOR_COUNT>
2.2

> <PUBCHEM_PHARMACOPHORE_FEATURES>
3
1 1 acceptor
1 1 donor
6 2 3 4 5 6 7 rings

> <PUBCHEM_HEAVY_ATOM_COUNT>
11

> <PUBCHEM_ATOM_DEF_STEREO_COUNT>
3

> <PUBCHEM_ATOM_UDEF_STEREO_COUNT>
0

> <PUBCHEM_BOND_DEF_STEREO_COUNT>
0

> <PUBCHEM_BOND_UDEF_STEREO_COUNT>
0

> <PUBCHEM_ISOTOPIC_ATOM_COUNT>
0

> <PUBCHEM_COMPONENT_COUNT>
1

> <PUBCHEM_CACTVS_TAUTO_COUNT>
1

> <PUBCHEM_CONFORMER_ID>
0006C32C00000001

> <PUBCHEM_MMFF94_ENERGY>
20.2897

> <PUBCHEM_FEATURE_SELFOVERLAP>
15.223

> <PUBCHEM_SHAPE_FINGERPRINT>
10353120 184 17845079839143446007
10857977 72 13839984391613967551
12423570 1 5075211362050500660
12932764 1 17988929989530819351
14128692 85 18040994055312779550
15310529 11 17750233621385273703
15775835 57 18341888580723644581
16945 1 17704076208886916946
18511873 20 18116145743864299953
207724 885 18116423920258647987
21040471 1 17488458572871139456
21524375 3 17837219168872337836
230 275 17632021853217530285
23235685 24 16988554697695955853
23552423 10 18334017181217386783
2748010 2 17630594631358680642
3248919 1 18260560999909568007
5084963 1 17821729450743707759
9939556 21 18187361030422640845

> <PUBCHEM_SHAPE_MULTIPOLES>
220.51
4.23
1.51
1.17
2.35
0.37
-0.07
-0.36
0.33
-0.64
0.09
-0.11
-0.27
-0.24

> <PUBCHEM_SHAPE_SELFOVERLAP>
431.49

> <PUBCHEM_SHAPE_VOLUME>
132.8

> <PUBCHEM_COORDINATE_TYPE>
2
5
10

$$$$

