17395728
  -OEChem-06241222522D

 39 41  0     0  0  0  0  0  0999 V2000
    2.0000    2.7188    0.0000 Cl  0  0  0  0  0  0  0  0  0  0  0  0
    3.2601    1.4587    0.0000 S   0  0  0  0  0  0  0  0  0  0  0  0
   10.4805   -2.9975    0.0000 O   0  0  0  0  0  0  0  0  0  0  0  0
    5.8424    0.7542    0.0000 O   0  0  0  0  0  0  0  0  0  0  0  0
    7.8314    0.9633    0.0000 O   0  0  0  0  0  0  0  0  0  0  0  0
    4.4411   -0.2639    0.0000 O   0  0  0  0  0  0  0  0  0  0  0  0
   11.0157   -1.3502    0.0000 N   0  0  0  0  0  0  0  0  0  0  0  0
    8.5125   -2.2982    0.0000 N   0  0  0  0  0  0  0  0  0  0  0  0
   11.8247    0.0510    0.0000 C   0  0  0  0  0  0  0  0  0  0  0  0
   12.4938   -0.6921    0.0000 C   0  0  0  0  0  0  0  0  0  0  0  0
   11.9938   -1.5582    0.0000 C   0  0  0  0  0  0  0  0  0  0  0  0
   10.9112   -0.3557    0.0000 C   0  0  0  0  0  0  0  0  0  0  0  0
   10.2725   -2.0194    0.0000 C   0  0  0  0  0  0  0  0  0  0  0  0
    9.3215   -1.7104    0.0000 C   0  0  0  0  0  0  0  0  0  0  0  0
    9.0125   -0.7593    0.0000 C   0  0  0  0  0  0  0  0  0  0  0  0
    8.0125   -0.7593    0.0000 C   0  0  0  0  0  0  0  0  0  0  0  0
    7.7035   -1.7104    0.0000 C   0  0  0  0  0  0  0  0  0  0  0  0
    7.4247    0.0497    0.0000 C   0  0  0  0  0  0  0  0  0  0  0  0
    6.4302   -0.0548    0.0000 C   0  0  0  0  0  0  0  0  0  0  0  0
    4.8479    0.6497    0.0000 C   0  0  0  0  0  0  0  0  0  0  0  0
    4.2601    1.4587    0.0000 C   0  0  0  0  0  0  0  0  0  0  0  0
    4.5691    2.4097    0.0000 C   0  0  0  0  0  0  0  0  0  0  0  0
    3.7601    2.9975    0.0000 C   0  0  0  0  0  0  0  0  0  0  0  0
    2.9511    2.4097    0.0000 C   0  0  0  0  0  0  0  0  0  0  0  0
   12.9954   -1.0566    0.0000 H   0  0  0  0  0  0  0  0  0  0  0  0
   12.9087   -0.2314    0.0000 H   0  0  0  0  0  0  0  0  0  0  0  0
   12.3263    0.4154    0.0000 H   0  0  0  0  0  0  0  0  0  0  0  0
   11.5147    0.5879    0.0000 H   0  0  0  0  0  0  0  0  0  0  0  0
   11.8022   -2.1478    0.0000 H   0  0  0  0  0  0  0  0  0  0  0  0
   12.5602   -1.8103    0.0000 H   0  0  0  0  0  0  0  0  0  0  0  0
   10.7196    0.2339    0.0000 H   0  0  0  0  0  0  0  0  0  0  0  0
   10.3047   -0.4846    0.0000 H   0  0  0  0  0  0  0  0  0  0  0  0
    9.3769   -0.2577    0.0000 H   0  0  0  0  0  0  0  0  0  0  0  0
    8.5125   -2.9181    0.0000 H   0  0  0  0  0  0  0  0  0  0  0  0
    7.1138   -1.9020    0.0000 H   0  0  0  0  0  0  0  0  0  0  0  0
    5.8729   -0.3266    0.0000 H   0  0  0  0  0  0  0  0  0  0  0  0
    6.6011   -0.6508    0.0000 H   0  0  0  0  0  0  0  0  0  0  0  0
    5.1588    2.6013    0.0000 H   0  0  0  0  0  0  0  0  0  0  0  0
    3.7601    3.6175    0.0000 H   0  0  0  0  0  0  0  0  0  0  0  0
  1 24  1  0  0  0  0
  2 21  1  0  0  0  0
  2 24  1  0  0  0  0
  3 13  2  0  0  0  0
  4 19  1  0  0  0  0
  4 20  1  0  0  0  0
  5 18  2  0  0  0  0
  6 20  2  0  0  0  0
  7 11  1  0  0  0  0
  7 12  1  0  0  0  0
  7 13  1  0  0  0  0
  8 14  1  0  0  0  0
  8 17  1  0  0  0  0
  8 34  1  0  0  0  0
  9 10  1  0  0  0  0
  9 12  1  0  0  0  0
  9 27  1  0  0  0  0
  9 28  1  0  0  0  0
 10 11  1  0  0  0  0
 10 25  1  0  0  0  0
 10 26  1  0  0  0  0
 11 29  1  0  0  0  0
 11 30  1  0  0  0  0
 12 31  1  0  0  0  0
 12 32  1  0  0  0  0
 13 14  1  0  0  0  0
 14 15  2  0  0  0  0
 15 16  1  0  0  0  0
 15 33  1  0  0  0  0
 16 17  2  0  0  0  0
 16 18  1  0  0  0  0
 17 35  1  0  0  0  0
 18 19  1  0  0  0  0
 19 36  1  0  0  0  0
 19 37  1  0  0  0  0
 20 21  1  0  0  0  0
 21 22  2  0  0  0  0
 22 23  1  0  0  0  0
 22 38  1  0  0  0  0
 23 24  2  0  0  0  0
 23 39  1  0  0  0  0
M  END
> <PUBCHEM_COMPOUND_CID>
17395728

> <PUBCHEM_COMPOUND_CANONICALIZED>
1

> <PUBCHEM_CACTVS_COMPLEXITY>
512

> <PUBCHEM_CACTVS_HBOND_ACCEPTOR>
5

> <PUBCHEM_CACTVS_HBOND_DONOR>
1

> <PUBCHEM_CACTVS_ROTATABLE_BOND>
6

> <PUBCHEM_CACTVS_SUBSKEYS>
AAADccB7OABEAAAAAAAAAAAAAAAAAWLEgAAAAAAAAAAAAAAB4AAAHgYQAAAADA7h3iY8iZPJlAisA7X3XAKDgKA3DzBI2bn4btgIZvrht72WEYhk1gHo6ce8WwMuAAAAAAAAAAAAAAAAAAAAAAAAAAAAAA==

> <PUBCHEM_IUPAC_OPENEYE_NAME>
[2-oxo-2-[5-(pyrrolidine-1-carbonyl)-1H-pyrrol-3-yl]ethyl] 5-chlorothiophene-2-carboxylate

> <PUBCHEM_IUPAC_CAS_NAME>
5-chloro-2-thiophenecarboxylic acid [2-oxo-2-[5-[oxo(1-pyrrolidinyl)methyl]-1H-pyrrol-3-yl]ethyl] ester

> <PUBCHEM_IUPAC_NAME>
[2-oxo-2-[5-(pyrrolidine-1-carbonyl)-1H-pyrrol-3-yl]ethyl] 5-chlorothiophene-2-carboxylate

> <PUBCHEM_IUPAC_SYSTEMATIC_NAME>
[2-oxidanylidene-2-(5-pyrrolidin-1-ylcarbonyl-1H-pyrrol-3-yl)ethyl] 5-chloranylthiophene-2-carboxylate

> <PUBCHEM_IUPAC_TRADITIONAL_NAME>
5-chlorothiophene-2-carboxylic acid [2-keto-2-[5-(pyrrolidine-1-carbonyl)-1H-pyrrol-3-yl]ethyl] ester

> <PUBCHEM_IUPAC_INCHI>
InChI=1S/C16H15ClN2O4S/c17-14-4-3-13(24-14)16(22)23-9-12(20)10-7-11(18-8-10)15(21)19-5-1-2-6-19/h3-4,7-8,18H,1-2,5-6,9H2

> <PUBCHEM_IUPAC_INCHIKEY>
VWUDNPYOCJXIMM-UHFFFAOYSA-N

> <PUBCHEM_XLOGP3_AA>
3.2

> <PUBCHEM_EXACT_MASS>
366.044106

> <PUBCHEM_MOLECULAR_FORMULA>
C16H15ClN2O4S

> <PUBCHEM_MOLECULAR_WEIGHT>
366.8193

> <PUBCHEM_OPENEYE_CAN_SMILES>
C1CCN(C1)C(=O)C2=CC(=CN2)C(=O)COC(=O)C3=CC=C(S3)Cl

> <PUBCHEM_OPENEYE_ISO_SMILES>
C1CCN(C1)C(=O)C2=CC(=CN2)C(=O)COC(=O)C3=CC=C(S3)Cl

> <PUBCHEM_CACTVS_TPSA>
108

> <PUBCHEM_MONOISOTOPIC_WEIGHT>
366.044106

> <PUBCHEM_TOTAL_CHARGE>
0

> <PUBCHEM_HEAVY_ATOM_COUNT>
24

> <PUBCHEM_ATOM_DEF_STEREO_COUNT>
0

> <PUBCHEM_ATOM_UDEF_STEREO_COUNT>
0

> <PUBCHEM_BOND_DEF_STEREO_COUNT>
0

> <PUBCHEM_BOND_UDEF_STEREO_COUNT>
0

> <PUBCHEM_ISOTOPIC_ATOM_COUNT>
0

> <PUBCHEM_COMPONENT_COUNT>
1

> <PUBCHEM_CACTVS_TAUTO_COUNT>
11

> <PUBCHEM_COORDINATE_TYPE>
1
5
255

> <PUBCHEM_BONDANNOTATIONS>
14  15  8
15  16  8
16  17  8
2  21  8
2  24  8
21  22  8
22  23  8
23  24  8
8  14  8
8  17  8

$$$$

