46173978
  -OEChem-07051213102D

 74 77  0     1  0  0  0  0  0999 V2000
    5.5010   -3.8226    0.0000 O   0  0  0  0  0  0  0  0  0  0  0  0
    7.0888   -4.6316    0.0000 O   0  0  0  0  0  0  0  0  0  0  0  0
    6.0010    1.7162    0.0000 O   0  0  0  0  0  0  0  0  0  0  0  0
    2.5369   -1.2838    0.0000 O   0  0  0  0  0  0  0  0  0  0  0  0
    2.5369    0.7162    0.0000 O   0  0  0  0  0  0  0  0  0  0  0  0
    3.4030    3.2162    0.0000 O   0  0  0  0  0  0  0  0  0  0  0  0
    8.8316   -5.8571    0.0000 O   0  0  0  0  0  0  0  0  0  0  0  0
   10.7337   -5.2391    0.0000 O   0  0  0  0  0  0  0  0  0  0  0  0
    6.8671    5.2162    0.0000 O   0  0  0  0  0  0  0  0  0  0  0  0
    5.1350    6.2162    0.0000 O   0  0  0  0  0  0  0  0  0  0  0  0
    6.0010   -2.2838    0.0000 C   0  0  1  0  0  0  0  0  0  0  0  0
    6.8100   -2.8716    0.0000 C   0  0  1  0  0  0  0  0  0  0  0  0
    6.0010   -1.2838    0.0000 C   0  0  0  0  0  0  0  0  0  0  0  0
    5.1920   -2.8716    0.0000 C   0  0  0  0  0  0  0  0  0  0  0  0
    7.7611   -2.5625    0.0000 C   0  0  0  0  0  0  0  0  0  0  0  0
    6.5010   -3.8226    0.0000 C   0  0  0  0  0  0  0  0  0  0  0  0
    5.1350   -0.7838    0.0000 C   0  0  0  0  0  0  0  0  0  0  0  0
    8.5043   -3.2317    0.0000 C   0  0  0  0  0  0  0  0  0  0  0  0
    4.2690    1.7162    0.0000 C   0  0  3  0  0  0  0  0  0  0  0  0
    5.1350    0.2162    0.0000 C   0  0  0  0  0  0  0  0  0  0  0  0
    4.2690    0.7162    0.0000 C   0  0  0  0  0  0  0  0  0  0  0  0
    4.2690   -1.2838    0.0000 C   0  0  0  0  0  0  0  0  0  0  0  0
    5.1350    2.2162    0.0000 C   0  0  3  0  0  0  0  0  0  0  0  0
    3.4030    0.2162    0.0000 C   0  0  0  0  0  0  0  0  0  0  0  0
    3.4030   -0.7838    0.0000 C   0  0  0  0  0  0  0  0  0  0  0  0
    3.4030    2.2162    0.0000 C   0  0  0  0  0  0  0  0  0  0  0  0
    8.2963   -4.2098    0.0000 C   0  0  0  0  0  0  0  0  0  0  0  0
    9.4553   -2.9226    0.0000 C   0  0  0  0  0  0  0  0  0  0  0  0
    5.1350    3.2162    0.0000 C   0  0  0  0  0  0  0  0  0  0  0  0
    9.0395   -4.8790    0.0000 C   0  0  0  0  0  0  0  0  0  0  0  0
   10.1985   -3.5918    0.0000 C   0  0  0  0  0  0  0  0  0  0  0  0
    9.9906   -4.5699    0.0000 C   0  0  0  0  0  0  0  0  0  0  0  0
    6.0010    3.7162    0.0000 C   0  0  0  0  0  0  0  0  0  0  0  0
    4.2690    3.7162    0.0000 C   0  0  0  0  0  0  0  0  0  0  0  0
    6.0010    4.7162    0.0000 C   0  0  0  0  0  0  0  0  0  0  0  0
    4.2690    4.7162    0.0000 C   0  0  0  0  0  0  0  0  0  0  0  0
    2.5369   -2.2838    0.0000 C   0  0  0  0  0  0  0  0  0  0  0  0
    5.1350    5.2162    0.0000 C   0  0  0  0  0  0  0  0  0  0  0  0
    9.5747   -6.5262    0.0000 C   0  0  0  0  0  0  0  0  0  0  0  0
    6.8671    6.2162    0.0000 C   0  0  0  0  0  0  0  0  0  0  0  0
    6.5535   -2.0023    0.0000 H   0  0  0  0  0  0  0  0  0  0  0  0
    7.2485   -3.3100    0.0000 H   0  0  0  0  0  0  0  0  0  0  0  0
    6.6116   -1.3914    0.0000 H   0  0  0  0  0  0  0  0  0  0  0  0
    6.2131   -0.7012    0.0000 H   0  0  0  0  0  0  0  0  0  0  0  0
    4.8820   -2.3346    0.0000 H   0  0  0  0  0  0  0  0  0  0  0  0
    4.6256   -3.1237    0.0000 H   0  0  0  0  0  0  0  0  0  0  0  0
    8.2497   -2.1808    0.0000 H   0  0  0  0  0  0  0  0  0  0  0  0
    7.4700   -2.0151    0.0000 H   0  0  0  0  0  0  0  0  0  0  0  0
    4.2690    2.3362    0.0000 H   0  0  0  0  0  0  0  0  0  0  0  0
    5.6720    0.5262    0.0000 H   0  0  0  0  0  0  0  0  0  0  0  0
    4.2690   -1.9038    0.0000 H   0  0  0  0  0  0  0  0  0  0  0  0
    5.1350    1.5962    0.0000 H   0  0  0  0  0  0  0  0  0  0  0  0
    2.7924    2.3239    0.0000 H   0  0  0  0  0  0  0  0  0  0  0  0
    3.1909    1.6336    0.0000 H   0  0  0  0  0  0  0  0  0  0  0  0
    7.7067   -4.4014    0.0000 H   0  0  0  0  0  0  0  0  0  0  0  0
    9.5842   -2.3162    0.0000 H   0  0  0  0  0  0  0  0  0  0  0  0
   10.7881   -3.4002    0.0000 H   0  0  0  0  0  0  0  0  0  0  0  0
    6.5380    2.0262    0.0000 H   0  0  0  0  0  0  0  0  0  0  0  0
    6.5380    3.4062    0.0000 H   0  0  0  0  0  0  0  0  0  0  0  0
    2.0000    0.4062    0.0000 H   0  0  0  0  0  0  0  0  0  0  0  0
    3.7320    3.4062    0.0000 H   0  0  0  0  0  0  0  0  0  0  0  0
    2.8660    3.5262    0.0000 H   0  0  0  0  0  0  0  0  0  0  0  0
    3.7320    5.0262    0.0000 H   0  0  0  0  0  0  0  0  0  0  0  0
    1.9169   -2.2838    0.0000 H   0  0  0  0  0  0  0  0  0  0  0  0
    2.5369   -2.9038    0.0000 H   0  0  0  0  0  0  0  0  0  0  0  0
    3.1569   -2.2838    0.0000 H   0  0  0  0  0  0  0  0  0  0  0  0
   11.3233   -5.0475    0.0000 H   0  0  0  0  0  0  0  0  0  0  0  0
    9.1599   -6.9870    0.0000 H   0  0  0  0  0  0  0  0  0  0  0  0
   10.0355   -6.9411    0.0000 H   0  0  0  0  0  0  0  0  0  0  0  0
    9.9896   -6.0655    0.0000 H   0  0  0  0  0  0  0  0  0  0  0  0
    4.5981    6.5262    0.0000 H   0  0  0  0  0  0  0  0  0  0  0  0
    7.4871    6.2162    0.0000 H   0  0  0  0  0  0  0  0  0  0  0  0
    6.8671    6.8362    0.0000 H   0  0  0  0  0  0  0  0  0  0  0  0
    6.2471    6.2162    0.0000 H   0  0  0  0  0  0  0  0  0  0  0  0
  1 14  1  0  0  0  0
  1 16  1  0  0  0  0
  2 16  2  0  0  0  0
  3 23  1  0  0  0  0
  3 58  1  0  0  0  0
  4 25  1  0  0  0  0
  4 37  1  0  0  0  0
  5 24  1  0  0  0  0
  5 60  1  0  0  0  0
  6 26  1  0  0  0  0
  6 62  1  0  0  0  0
  7 30  1  0  0  0  0
  7 39  1  0  0  0  0
  8 32  1  0  0  0  0
  8 67  1  0  0  0  0
  9 35  1  0  0  0  0
  9 40  1  0  0  0  0
 10 38  1  0  0  0  0
 10 71  1  0  0  0  0
 11 12  1  0  0  0  0
 11 13  1  6  0  0  0
 11 14  1  0  0  0  0
 11 41  1  0  0  0  0
 12 15  1  1  0  0  0
 12 16  1  0  0  0  0
 12 42  1  0  0  0  0
 13 17  1  0  0  0  0
 13 43  1  0  0  0  0
 13 44  1  0  0  0  0
 14 45  1  0  0  0  0
 14 46  1  0  0  0  0
 15 18  1  0  0  0  0
 15 47  1  0  0  0  0
 15 48  1  0  0  0  0
 17 20  2  0  0  0  0
 17 22  1  0  0  0  0
 18 27  2  0  0  0  0
 18 28  1  0  0  0  0
 19 21  1  0  0  0  0
 19 23  1  0  0  0  0
 19 26  1  0  0  0  0
 19 49  1  0  0  0  0
 20 21  1  0  0  0  0
 20 50  1  0  0  0  0
 21 24  2  0  0  0  0
 22 25  2  0  0  0  0
 22 51  1  0  0  0  0
 23 29  1  0  0  0  0
 23 52  1  0  0  0  0
 24 25  1  0  0  0  0
 26 53  1  0  0  0  0
 26 54  1  0  0  0  0
 27 30  1  0  0  0  0
 27 55  1  0  0  0  0
 28 31  2  0  0  0  0
 28 56  1  0  0  0  0
 29 33  2  0  0  0  0
 29 34  1  0  0  0  0
 30 32  2  0  0  0  0
 31 32  1  0  0  0  0
 31 57  1  0  0  0  0
 33 35  1  0  0  0  0
 33 59  1  0  0  0  0
 34 36  2  0  0  0  0
 34 61  1  0  0  0  0
 35 38  2  0  0  0  0
 36 38  1  0  0  0  0
 36 63  1  0  0  0  0
 37 64  1  0  0  0  0
 37 65  1  0  0  0  0
 37 66  1  0  0  0  0
 39 68  1  0  0  0  0
 39 69  1  0  0  0  0
 39 70  1  0  0  0  0
 40 72  1  0  0  0  0
 40 73  1  0  0  0  0
 40 74  1  0  0  0  0
M  END
> <PUBCHEM_COMPOUND_CID>
46173978

> <PUBCHEM_COMPOUND_CANONICALIZED>
1

> <PUBCHEM_CACTVS_COMPLEXITY>
797

> <PUBCHEM_CACTVS_HBOND_ACCEPTOR>
10

> <PUBCHEM_CACTVS_HBOND_DONOR>
5

> <PUBCHEM_CACTVS_ROTATABLE_BOND>
11

> <PUBCHEM_CACTVS_SUBSKEYS>
AAADcfB4PAAAAAAAAAAAAAAAAAAAASAAAAAwYMAAAAAAAAABUAAAGgAACAAADRSgmAIyDoAABgCIAiDSCAACCAAgIAAIiAEGiIgNNjKGMRqCcCMlwBELuAfK6PyOoAADAAAIQABAAAYAABCAAAAAAAAAAA==

> <PUBCHEM_IUPAC_OPENEYE_NAME>
(3R,4R)-4-[[4-hydroxy-3-[2-hydroxy-2-(4-hydroxy-3-methoxy-phenyl)-1-(hydroxymethyl)ethyl]-5-methoxy-phenyl]methyl]-3-[(4-hydroxy-3-methoxy-phenyl)methyl]tetrahydrofuran-2-one

> <PUBCHEM_IUPAC_CAS_NAME>
(3R,4R)-4-[[3-[1,3-dihydroxy-1-(4-hydroxy-3-methoxyphenyl)propan-2-yl]-4-hydroxy-5-methoxyphenyl]methyl]-3-[(4-hydroxy-3-methoxyphenyl)methyl]-2-oxolanone

> <PUBCHEM_IUPAC_NAME>
(3R,4R)-4-[[3-[1,3-dihydroxy-1-(4-hydroxy-3-methoxyphenyl)propan-2-yl]-4-hydroxy-5-methoxyphenyl]methyl]-3-[(4-hydroxy-3-methoxyphenyl)methyl]oxolan-2-one

> <PUBCHEM_IUPAC_SYSTEMATIC_NAME>
(3R,4R)-4-[[3-methoxy-5-[1-(3-methoxy-4-oxidanyl-phenyl)-1,3-bis(oxidanyl)propan-2-yl]-4-oxidanyl-phenyl]methyl]-3-[(3-methoxy-4-oxidanyl-phenyl)methyl]oxolan-2-one

> <PUBCHEM_IUPAC_TRADITIONAL_NAME>
(3R,4R)-4-[4-hydroxy-3-[2-hydroxy-2-(4-hydroxy-3-methoxy-phenyl)-1-methylol-ethyl]-5-methoxy-benzyl]-3-vanillyl-tetrahydrofuran-2-one

> <PUBCHEM_IUPAC_INCHI>
InChI=1S/C30H34O10/c1-37-25-11-16(4-6-23(25)32)9-20-19(15-40-30(20)36)8-17-10-21(29(35)27(12-17)39-3)22(14-31)28(34)18-5-7-24(33)26(13-18)38-2/h4-7,10-13,19-20,22,28,31-35H,8-9,14-15H2,1-3H3/t19-,20+,22?,28?/m0/s1

> <PUBCHEM_IUPAC_INCHIKEY>
BWOAMGHNXHLWMX-BAOMQRJLSA-N

> <PUBCHEM_XLOGP3_AA>
3.1

> <PUBCHEM_EXACT_MASS>
554.215197

> <PUBCHEM_MOLECULAR_FORMULA>
C30H34O10

> <PUBCHEM_MOLECULAR_WEIGHT>
554.58496

> <PUBCHEM_OPENEYE_CAN_SMILES>
COC1=CC(=CC(=C1O)C(CO)C(C2=CC(=C(C=C2)O)OC)O)CC3COC(=O)C3CC4=CC(=C(C=C4)O)OC

> <PUBCHEM_OPENEYE_ISO_SMILES>
COC1=CC(=CC(=C1O)C(CO)C(C2=CC(=C(C=C2)O)OC)O)C[C@H]3COC(=O)[C@@H]3CC4=CC(=C(C=C4)O)OC

> <PUBCHEM_CACTVS_TPSA>
155

> <PUBCHEM_MONOISOTOPIC_WEIGHT>
554.215197

> <PUBCHEM_TOTAL_CHARGE>
0

> <PUBCHEM_HEAVY_ATOM_COUNT>
40

> <PUBCHEM_ATOM_DEF_STEREO_COUNT>
2

> <PUBCHEM_ATOM_UDEF_STEREO_COUNT>
2

> <PUBCHEM_BOND_DEF_STEREO_COUNT>
0

> <PUBCHEM_BOND_UDEF_STEREO_COUNT>
0

> <PUBCHEM_ISOTOPIC_ATOM_COUNT>
0

> <PUBCHEM_COMPONENT_COUNT>
1

> <PUBCHEM_CACTVS_TAUTO_COUNT>
40

> <PUBCHEM_COORDINATE_TYPE>
1
5
255

> <PUBCHEM_BONDANNOTATIONS>
11  13  6
12  15  5
17  20  8
17  22  8
18  27  8
18  28  8
19  26  3
20  21  8
21  24  8
22  25  8
24  25  8
27  30  8
28  31  8
29  33  8
29  34  8
23  3  3
30  32  8
31  32  8
33  35  8
34  36  8
35  38  8
36  38  8

$$$$

