47205776
  -OEChem-06241223002D

 39 40  0     0  0  0  0  0  0999 V2000
    7.1962   -1.5173    0.0000 O   0  0  0  0  0  0  0  0  0  0  0  0
    4.5981    0.9827    0.0000 O   0  0  0  0  0  0  0  0  0  0  0  0
    8.0622   -0.0173    0.0000 N   0  0  0  0  0  0  0  0  0  0  0  0
    5.4641   -0.5173    0.0000 N   0  0  0  0  0  0  0  0  0  0  0  0
    8.0622    0.9827    0.0000 C   0  0  0  0  0  0  0  0  0  0  0  0
    8.9282    1.4827    0.0000 C   0  0  0  0  0  0  0  0  0  0  0  0
    8.9282   -0.5173    0.0000 C   0  0  0  0  0  0  0  0  0  0  0  0
    9.7942    0.9827    0.0000 C   0  0  0  0  0  0  0  0  0  0  0  0
    9.7942   -0.0173    0.0000 C   0  0  0  0  0  0  0  0  0  0  0  0
    7.1962   -0.5173    0.0000 C   0  0  0  0  0  0  0  0  0  0  0  0
   10.6882    1.5173    0.0000 C   0  0  0  0  0  0  0  0  0  0  0  0
   10.6882   -0.5520    0.0000 C   0  0  0  0  0  0  0  0  0  0  0  0
    6.3301   -0.0173    0.0000 C   0  0  0  0  0  0  0  0  0  0  0  0
   11.5942    1.0035    0.0000 C   0  0  0  0  0  0  0  0  0  0  0  0
   11.5942   -0.0381    0.0000 C   0  0  0  0  0  0  0  0  0  0  0  0
    3.7320   -0.5173    0.0000 C   0  0  0  0  0  0  0  0  0  0  0  0
    4.5981   -0.0173    0.0000 C   0  0  0  0  0  0  0  0  0  0  0  0
    2.8660   -0.0173    0.0000 C   0  0  0  0  0  0  0  0  0  0  0  0
    2.0000   -0.5173    0.0000 C   0  0  0  0  0  0  0  0  0  0  0  0
    7.8501    1.5653    0.0000 H   0  0  0  0  0  0  0  0  0  0  0  0
    7.4516    0.8750    0.0000 H   0  0  0  0  0  0  0  0  0  0  0  0
    9.3267    1.9576    0.0000 H   0  0  0  0  0  0  0  0  0  0  0  0
    8.5297    1.9576    0.0000 H   0  0  0  0  0  0  0  0  0  0  0  0
    8.5297   -0.9923    0.0000 H   0  0  0  0  0  0  0  0  0  0  0  0
    9.3267   -0.9923    0.0000 H   0  0  0  0  0  0  0  0  0  0  0  0
   10.6810    2.1373    0.0000 H   0  0  0  0  0  0  0  0  0  0  0  0
   10.6810   -1.1720    0.0000 H   0  0  0  0  0  0  0  0  0  0  0  0
    6.7287    0.4576    0.0000 H   0  0  0  0  0  0  0  0  0  0  0  0
    5.9316    0.4576    0.0000 H   0  0  0  0  0  0  0  0  0  0  0  0
   12.1300    1.3156    0.0000 H   0  0  0  0  0  0  0  0  0  0  0  0
   12.1300   -0.3502    0.0000 H   0  0  0  0  0  0  0  0  0  0  0  0
    5.4641   -1.1373    0.0000 H   0  0  0  0  0  0  0  0  0  0  0  0
    3.3335   -0.9923    0.0000 H   0  0  0  0  0  0  0  0  0  0  0  0
    4.1306   -0.9923    0.0000 H   0  0  0  0  0  0  0  0  0  0  0  0
    3.2646    0.4576    0.0000 H   0  0  0  0  0  0  0  0  0  0  0  0
    2.4675    0.4576    0.0000 H   0  0  0  0  0  0  0  0  0  0  0  0
    1.6900    0.0196    0.0000 H   0  0  0  0  0  0  0  0  0  0  0  0
    1.4631   -0.8273    0.0000 H   0  0  0  0  0  0  0  0  0  0  0  0
    2.3100   -1.0543    0.0000 H   0  0  0  0  0  0  0  0  0  0  0  0
  1 10  2  0  0  0  0
  2 17  2  0  0  0  0
  3  5  1  0  0  0  0
  3  7  1  0  0  0  0
  3 10  1  0  0  0  0
  4 13  1  0  0  0  0
  4 17  1  0  0  0  0
  4 32  1  0  0  0  0
  5  6  1  0  0  0  0
  5 20  1  0  0  0  0
  5 21  1  0  0  0  0
  6  8  1  0  0  0  0
  6 22  1  0  0  0  0
  6 23  1  0  0  0  0
  7  9  1  0  0  0  0
  7 24  1  0  0  0  0
  7 25  1  0  0  0  0
  8  9  1  0  0  0  0
  8 11  2  0  0  0  0
  9 12  2  0  0  0  0
 10 13  1  0  0  0  0
 11 14  1  0  0  0  0
 11 26  1  0  0  0  0
 12 15  1  0  0  0  0
 12 27  1  0  0  0  0
 13 28  1  0  0  0  0
 13 29  1  0  0  0  0
 14 15  2  0  0  0  0
 14 30  1  0  0  0  0
 15 31  1  0  0  0  0
 16 17  1  0  0  0  0
 16 18  1  0  0  0  0
 16 33  1  0  0  0  0
 16 34  1  0  0  0  0
 18 19  1  0  0  0  0
 18 35  1  0  0  0  0
 18 36  1  0  0  0  0
 19 37  1  0  0  0  0
 19 38  1  0  0  0  0
 19 39  1  0  0  0  0
M  END
> <PUBCHEM_COMPOUND_CID>
47205776

> <PUBCHEM_COMPOUND_CANONICALIZED>
1

> <PUBCHEM_CACTVS_COMPLEXITY>
330

> <PUBCHEM_CACTVS_HBOND_ACCEPTOR>
2

> <PUBCHEM_CACTVS_HBOND_DONOR>
1

> <PUBCHEM_CACTVS_ROTATABLE_BOND>
4

> <PUBCHEM_CACTVS_SUBSKEYS>
AAADceBzMAAAAAAAAAAAAAAAAAAAAAAAAAA8QAAAAAAAAACxAAAAHgAQAAAADADBmAQyAIPAAACIAiFSEACCAAAgAAAIiIGIBIgIYDKAkTGUIAhglgCIiAcQgIAOgAAAAAAQAAAAAAAAACAAAAAAAAAAAA==

> <PUBCHEM_IUPAC_OPENEYE_NAME>
N-[2-(3,4-dihydro-1H-isoquinolin-2-yl)-2-oxo-ethyl]butanamide

> <PUBCHEM_IUPAC_CAS_NAME>
N-[2-(3,4-dihydro-1H-isoquinolin-2-yl)-2-oxoethyl]butanamide

> <PUBCHEM_IUPAC_NAME>
N-[2-(3,4-dihydro-1H-isoquinolin-2-yl)-2-oxoethyl]butanamide

> <PUBCHEM_IUPAC_SYSTEMATIC_NAME>
N-[2-(3,4-dihydro-1H-isoquinolin-2-yl)-2-oxidanylidene-ethyl]butanamide

> <PUBCHEM_IUPAC_TRADITIONAL_NAME>
N-[2-(3,4-dihydro-1H-isoquinolin-2-yl)-2-keto-ethyl]butyramide

> <PUBCHEM_IUPAC_INCHI>
InChI=1S/C15H20N2O2/c1-2-5-14(18)16-10-15(19)17-9-8-12-6-3-4-7-13(12)11-17/h3-4,6-7H,2,5,8-11H2,1H3,(H,16,18)

> <PUBCHEM_IUPAC_INCHIKEY>
NITSZDZLOPCYHJ-UHFFFAOYSA-N

> <PUBCHEM_XLOGP3_AA>
1.4

> <PUBCHEM_EXACT_MASS>
260.152478

> <PUBCHEM_MOLECULAR_FORMULA>
C15H20N2O2

> <PUBCHEM_MOLECULAR_WEIGHT>
260.3315

> <PUBCHEM_OPENEYE_CAN_SMILES>
CCCC(=O)NCC(=O)N1CCC2=CC=CC=C2C1

> <PUBCHEM_OPENEYE_ISO_SMILES>
CCCC(=O)NCC(=O)N1CCC2=CC=CC=C2C1

> <PUBCHEM_CACTVS_TPSA>
49.4

> <PUBCHEM_MONOISOTOPIC_WEIGHT>
260.152478

> <PUBCHEM_TOTAL_CHARGE>
0

> <PUBCHEM_HEAVY_ATOM_COUNT>
19

> <PUBCHEM_ATOM_DEF_STEREO_COUNT>
0

> <PUBCHEM_ATOM_UDEF_STEREO_COUNT>
0

> <PUBCHEM_BOND_DEF_STEREO_COUNT>
0

> <PUBCHEM_BOND_UDEF_STEREO_COUNT>
0

> <PUBCHEM_ISOTOPIC_ATOM_COUNT>
0

> <PUBCHEM_COMPONENT_COUNT>
1

> <PUBCHEM_CACTVS_TAUTO_COUNT>
2

> <PUBCHEM_COORDINATE_TYPE>
1
5
255

> <PUBCHEM_BONDANNOTATIONS>
11  14  8
12  15  8
14  15  8
8  11  8
8  9  8
9  12  8

$$$$

