443484
  -OEChem-07051213023D

 52 54  0     1  0  0  0  0  0999 V2000
   -1.4197   -1.1415    0.3263 C   0  0  2  0  0  0  0  0  0  0  0  0
    1.4901    1.0111    1.1624 C   0  0  2  0  0  0  0  0  0  0  0  0
   -1.0231    0.3981    0.3699 C   0  0  2  0  0  0  0  0  0  0  0  0
    2.2741   -0.2632    0.7471 C   0  0  0  0  0  0  0  0  0  0  0  0
   -0.0305    0.7840    1.5158 C   0  0  0  0  0  0  0  0  0  0  0  0
   -0.2573   -2.1939    0.2887 C   0  0  0  0  0  0  0  0  0  0  0  0
    1.6494   -0.7048   -0.5863 C   0  0  0  0  0  0  0  0  0  0  0  0
    1.6985    2.1310    0.1155 C   0  0  0  0  0  0  0  0  0  0  0  0
   -2.2860   -1.3495   -0.9473 C   0  0  0  0  0  0  0  0  0  0  0  0
    0.9409   -2.0336   -0.6665 C   0  0  0  0  0  0  0  0  0  0  0  0
   -2.2732    1.2977    0.2493 C   0  0  0  0  0  0  0  0  0  0  0  0
    1.8176    1.6699   -1.3523 C   0  0  0  0  0  0  0  0  0  0  0  0
    1.5940    0.1902   -1.6076 C   0  0  0  0  0  0  0  0  0  0  0  0
   -2.2661   -1.5229    1.5795 C   0  0  0  0  0  0  0  0  0  0  0  0
   -3.5593   -0.5047   -0.9567 C   0  0  0  0  0  0  0  0  0  0  0  0
    3.7884    0.0404    0.5077 C   0  0  0  0  0  0  0  0  0  0  0  0
    2.3204   -1.2798    1.9161 C   0  0  0  0  0  0  0  0  0  0  0  0
   -3.3880    0.8598   -0.3676 C   0  0  0  0  0  0  0  0  0  0  0  0
   -2.2256    2.7253    0.7215 C   0  0  0  0  0  0  0  0  0  0  0  0
    1.1555   -0.1136   -3.0155 C   0  0  0  0  0  0  0  0  0  0  0  0
    1.9380    1.3817    2.0971 H   0  0  0  0  0  0  0  0  0  0  0  0
   -0.5365    0.6312   -0.5741 H   0  0  0  0  0  0  0  0  0  0  0  0
   -0.3473    1.7167    1.9925 H   0  0  0  0  0  0  0  0  0  0  0  0
   -0.1033    0.0552    2.3267 H   0  0  0  0  0  0  0  0  0  0  0  0
   -0.7030   -3.1714    0.0469 H   0  0  0  0  0  0  0  0  0  0  0  0
    0.1091   -2.3522    1.3023 H   0  0  0  0  0  0  0  0  0  0  0  0
    2.6246    2.6670    0.3656 H   0  0  0  0  0  0  0  0  0  0  0  0
    0.9124    2.8885    0.2048 H   0  0  0  0  0  0  0  0  0  0  0  0
   -2.5686   -2.4039   -1.0613 H   0  0  0  0  0  0  0  0  0  0  0  0
   -1.6900   -1.0991   -1.8345 H   0  0  0  0  0  0  0  0  0  0  0  0
    0.5672   -2.2384   -1.6735 H   0  0  0  0  0  0  0  0  0  0  0  0
    1.6665   -2.8325   -0.4701 H   0  0  0  0  0  0  0  0  0  0  0  0
    2.7894    1.9675   -1.7646 H   0  0  0  0  0  0  0  0  0  0  0  0
    1.0703    2.2380   -1.9231 H   0  0  0  0  0  0  0  0  0  0  0  0
   -1.6623   -1.5047    2.4929 H   0  0  0  0  0  0  0  0  0  0  0  0
   -3.1152   -0.8560    1.7507 H   0  0  0  0  0  0  0  0  0  0  0  0
   -2.6684   -2.5382    1.4791 H   0  0  0  0  0  0  0  0  0  0  0  0
   -4.3482   -1.0231   -0.3984 H   0  0  0  0  0  0  0  0  0  0  0  0
   -3.9184   -0.4119   -1.9883 H   0  0  0  0  0  0  0  0  0  0  0  0
    4.3388   -0.8870    0.3038 H   0  0  0  0  0  0  0  0  0  0  0  0
    3.9939    0.7077   -0.3318 H   0  0  0  0  0  0  0  0  0  0  0  0
    4.2376    0.5054    1.3937 H   0  0  0  0  0  0  0  0  0  0  0  0
    2.6679   -2.2637    1.5830 H   0  0  0  0  0  0  0  0  0  0  0  0
    3.0181   -0.9434    2.6943 H   0  0  0  0  0  0  0  0  0  0  0  0
    1.3740   -1.4059    2.4385 H   0  0  0  0  0  0  0  0  0  0  0  0
   -4.2460    1.5213   -0.4628 H   0  0  0  0  0  0  0  0  0  0  0  0
   -1.3432    3.2342    0.3247 H   0  0  0  0  0  0  0  0  0  0  0  0
   -2.2133    2.7736    1.8144 H   0  0  0  0  0  0  0  0  0  0  0  0
   -3.0968    3.3002    0.3877 H   0  0  0  0  0  0  0  0  0  0  0  0
    0.1066    0.1628   -3.1592 H   0  0  0  0  0  0  0  0  0  0  0  0
    1.2893   -1.1636   -3.2875 H   0  0  0  0  0  0  0  0  0  0  0  0
    1.7609    0.4599   -3.7266 H   0  0  0  0  0  0  0  0  0  0  0  0
  1  3  1  0  0  0  0
  1  6  1  0  0  0  0
  1  9  1  0  0  0  0
  1 14  1  0  0  0  0
  2  4  1  0  0  0  0
  2  5  1  0  0  0  0
  2  8  1  0  0  0  0
  2 21  1  0  0  0  0
  3  5  1  0  0  0  0
  3 11  1  0  0  0  0
  3 22  1  0  0  0  0
  4  7  1  0  0  0  0
  4 16  1  0  0  0  0
  4 17  1  0  0  0  0
  5 23  1  0  0  0  0
  5 24  1  0  0  0  0
  6 10  1  0  0  0  0
  6 25  1  0  0  0  0
  6 26  1  0  0  0  0
  7 10  1  0  0  0  0
  7 13  2  0  0  0  0
  8 12  1  0  0  0  0
  8 27  1  0  0  0  0
  8 28  1  0  0  0  0
  9 15  1  0  0  0  0
  9 29  1  0  0  0  0
  9 30  1  0  0  0  0
 10 31  1  0  0  0  0
 10 32  1  0  0  0  0
 11 18  2  0  0  0  0
 11 19  1  0  0  0  0
 12 13  1  0  0  0  0
 12 33  1  0  0  0  0
 12 34  1  0  0  0  0
 13 20  1  0  0  0  0
 14 35  1  0  0  0  0
 14 36  1  0  0  0  0
 14 37  1  0  0  0  0
 15 18  1  0  0  0  0
 15 38  1  0  0  0  0
 15 39  1  0  0  0  0
 16 40  1  0  0  0  0
 16 41  1  0  0  0  0
 16 42  1  0  0  0  0
 17 43  1  0  0  0  0
 17 44  1  0  0  0  0
 17 45  1  0  0  0  0
 18 46  1  0  0  0  0
 19 47  1  0  0  0  0
 19 48  1  0  0  0  0
 19 49  1  0  0  0  0
 20 50  1  0  0  0  0
 20 51  1  0  0  0  0
 20 52  1  0  0  0  0
M  END
> <PUBCHEM_COMPOUND_CID>
443484

> <PUBCHEM_CONFORMER_RMSD>
0.6

> <PUBCHEM_CONFORMER_DIVERSEORDER>
1

> <PUBCHEM_MMFF94_PARTIAL_CHARGES>
12
10 0.14
11 -0.28
12 0.14
13 -0.28
15 0.14
18 -0.29
19 0.14
20 0.14
3 0.14
4 0.14
46 0.15
7 -0.28

> <PUBCHEM_EFFECTIVE_ROTOR_COUNT>
1.6

> <PUBCHEM_PHARMACOPHORE_FEATURES>
3
3 4 16 17 hydrophobe
6 1 3 9 11 15 18 rings
6 2 4 7 8 12 13 rings

> <PUBCHEM_HEAVY_ATOM_COUNT>
20

> <PUBCHEM_ATOM_DEF_STEREO_COUNT>
3

> <PUBCHEM_ATOM_UDEF_STEREO_COUNT>
0

> <PUBCHEM_BOND_DEF_STEREO_COUNT>
0

> <PUBCHEM_BOND_UDEF_STEREO_COUNT>
0

> <PUBCHEM_ISOTOPIC_ATOM_COUNT>
0

> <PUBCHEM_COMPONENT_COUNT>
1

> <PUBCHEM_CACTVS_TAUTO_COUNT>
1

> <PUBCHEM_CONFORMER_ID>
0006C45C00000001

> <PUBCHEM_MMFF94_ENERGY>
89.3045

> <PUBCHEM_FEATURE_SELFOVERLAP>
15.223

> <PUBCHEM_SHAPE_FINGERPRINT>
10863032 1 18059011666573628892
10948715 1 18260837033167989472
11578080 2 6698679342926279770
11640471 11 17988636337915746996
12011746 2 18339375140197450462
128993 33 17986078912735352197
13132413 78 18410579526144696192
13134695 92 17489316329596328612
13140716 1 18336829684874502721
14115302 16 18059856138706320131
14181834 199 18059855116540890606
144361 1 16810667816741720854
14817 1 16527792564939487566
15852999 172 17168156666481724415
15881359 60 16445338662984888151
16945 1 18191017898833198168
17492 54 17101744854531559501
17980427 23 18188228545055427368
18981168 100 18197751432458703843
192875 21 18338815449881724141
20691752 17 18053653961223489081
20905425 154 17895765139114144055
21330990 113 18124884705680390546
23419403 2 15890609680790010786
23557571 272 17603874386186183959
23559900 14 17751923764621985574
2748010 2 17756145587822873755
5262128 65 17604688045727680109
6992083 37 17631739377534337386
74978 22 17775287144717194603

> <PUBCHEM_SHAPE_MULTIPOLES>
411.59
5.04
2.41
2.01
1.53
0.5
0.96
0.48
-0.12
0.67
-0.4
-0.93
-0.22
-0.44

> <PUBCHEM_SHAPE_SELFOVERLAP>
852.239

> <PUBCHEM_SHAPE_VOLUME>
231.2

> <PUBCHEM_COORDINATE_TYPE>
2
5
10

$$$$

