442512
  -OEChem-07051212583D

 32 33  0     1  0  0  0  0  0999 V2000
    0.8971    2.9700    0.2755 O   0  0  0  0  0  0  0  0  0  0  0  0
    2.0908   -2.3076    0.1721 O   0  0  0  0  0  0  0  0  0  0  0  0
   -3.5003    0.6150   -0.3521 O   0  0  0  0  0  0  0  0  0  0  0  0
    2.9652   -0.1026   -0.2769 C   0  0  2  0  0  0  0  0  0  0  0  0
    2.5659    1.2593    0.2808 C   0  0  0  0  0  0  0  0  0  0  0  0
    1.2719    1.7512   -0.3632 C   0  0  1  0  0  0  0  0  0  0  0  0
    0.1673    0.7286   -0.2423 C   0  0  0  0  0  0  0  0  0  0  0  0
    0.4512   -0.6378   -0.0769 C   0  0  0  0  0  0  0  0  0  0  0  0
    1.8587   -1.1171   -0.0198 C   0  0  0  0  0  0  0  0  0  0  0  0
    4.2833   -0.5638    0.3414 C   0  0  0  0  0  0  0  0  0  0  0  0
   -1.1764    1.1244   -0.3490 C   0  0  0  0  0  0  0  0  0  0  0  0
   -0.5879   -1.5733    0.0225 C   0  0  0  0  0  0  0  0  0  0  0  0
   -1.9149   -1.1557   -0.0623 C   0  0  0  0  0  0  0  0  0  0  0  0
   -2.2092    0.1906   -0.2533 C   0  0  0  0  0  0  0  0  0  0  0  0
   -3.0079   -2.1675    0.0443 C   0  0  0  0  0  0  0  0  0  0  0  0
   -4.1547    0.9863    0.8593 C   0  0  0  0  0  0  0  0  0  0  0  0
    3.0964   -0.0365   -1.3646 H   0  0  0  0  0  0  0  0  0  0  0  0
    3.3613    1.9955    0.1081 H   0  0  0  0  0  0  0  0  0  0  0  0
    2.4402    1.2058    1.3716 H   0  0  0  0  0  0  0  0  0  0  0  0
    1.4319    1.9612   -1.4277 H   0  0  0  0  0  0  0  0  0  0  0  0
    5.0771    0.1687    0.1619 H   0  0  0  0  0  0  0  0  0  0  0  0
    4.1867   -0.7071    1.4234 H   0  0  0  0  0  0  0  0  0  0  0  0
    4.6057   -1.5176   -0.0902 H   0  0  0  0  0  0  0  0  0  0  0  0
   -1.4254    2.1713   -0.5095 H   0  0  0  0  0  0  0  0  0  0  0  0
   -0.3684   -2.6295    0.1600 H   0  0  0  0  0  0  0  0  0  0  0  0
    1.6172    3.6083    0.1349 H   0  0  0  0  0  0  0  0  0  0  0  0
   -3.4411   -2.1532    1.0492 H   0  0  0  0  0  0  0  0  0  0  0  0
   -3.7973   -1.9758   -0.6902 H   0  0  0  0  0  0  0  0  0  0  0  0
   -2.6373   -3.1799   -0.1505 H   0  0  0  0  0  0  0  0  0  0  0  0
   -3.6641    1.8576    1.3047 H   0  0  0  0  0  0  0  0  0  0  0  0
   -4.1624    0.1567    1.5726 H   0  0  0  0  0  0  0  0  0  0  0  0
   -5.1885    1.2517    0.6220 H   0  0  0  0  0  0  0  0  0  0  0  0
  1  6  1  0  0  0  0
  1 26  1  0  0  0  0
  2  9  2  0  0  0  0
  3 14  1  0  0  0  0
  3 16  1  0  0  0  0
  4  5  1  0  0  0  0
  4  9  1  0  0  0  0
  4 10  1  0  0  0  0
  4 17  1  0  0  0  0
  5  6  1  0  0  0  0
  5 18  1  0  0  0  0
  5 19  1  0  0  0  0
  6  7  1  0  0  0  0
  6 20  1  0  0  0  0
  7  8  2  0  0  0  0
  7 11  1  0  0  0  0
  8  9  1  0  0  0  0
  8 12  1  0  0  0  0
 10 21  1  0  0  0  0
 10 22  1  0  0  0  0
 10 23  1  0  0  0  0
 11 14  2  0  0  0  0
 11 24  1  0  0  0  0
 12 13  2  0  0  0  0
 12 25  1  0  0  0  0
 13 14  1  0  0  0  0
 13 15  1  0  0  0  0
 15 27  1  0  0  0  0
 15 28  1  0  0  0  0
 15 29  1  0  0  0  0
 16 30  1  0  0  0  0
 16 31  1  0  0  0  0
 16 32  1  0  0  0  0
M  END
> <PUBCHEM_COMPOUND_CID>
442512

> <PUBCHEM_CONFORMER_RMSD>
0.6

> <PUBCHEM_CONFORMER_DIVERSEORDER>
2
1

> <PUBCHEM_MMFF94_PARTIAL_CHARGES>
17
1 -0.68
11 -0.15
12 -0.15
13 -0.14
14 0.08
15 0.14
16 0.28
2 -0.57
24 0.15
25 0.15
26 0.4
3 -0.36
4 0.06
6 0.42
7 -0.14
8 0.09
9 0.42

> <PUBCHEM_EFFECTIVE_ROTOR_COUNT>
1.6

> <PUBCHEM_PHARMACOPHORE_FEATURES>
6
1 1 acceptor
1 1 donor
1 2 acceptor
1 3 acceptor
6 4 5 6 7 8 9 rings
6 7 8 11 12 13 14 rings

> <PUBCHEM_HEAVY_ATOM_COUNT>
16

> <PUBCHEM_ATOM_DEF_STEREO_COUNT>
2

> <PUBCHEM_ATOM_UDEF_STEREO_COUNT>
0

> <PUBCHEM_BOND_DEF_STEREO_COUNT>
0

> <PUBCHEM_BOND_UDEF_STEREO_COUNT>
0

> <PUBCHEM_ISOTOPIC_ATOM_COUNT>
0

> <PUBCHEM_COMPONENT_COUNT>
1

> <PUBCHEM_CACTVS_TAUTO_COUNT>
2

> <PUBCHEM_CONFORMER_ID>
0006C09000000002

> <PUBCHEM_MMFF94_ENERGY>
49.3062

> <PUBCHEM_FEATURE_SELFOVERLAP>
30.467

> <PUBCHEM_SHAPE_FINGERPRINT>
10062212 137 18411990130480003370
10130415 120 18342179981327344448
10608611 8 18339365158493195701
10967382 1 18339080500724094671
10980938 120 18411982481032018188
11132069 177 18412271640016438314
11471102 20 18411423911977023957
12032990 46 18410008832455079878
12251169 10 18410006646210912841
12382932 28 18409451396864925402
13140716 1 18339079289580357609
13221675 6 18412545430985608447
13380535 21 18341040848636825335
13897977 150 18411423882144250965
14144814 61 18410857667989310811
14178342 30 18337403638101639074
15196674 1 18411419471392159918
15219456 202 18338801100205915017
15375462 189 18059860605445928058
15442244 35 18410011013775986385
15536298 74 18334858260378284660
16945 1 18412550928543656485
17804303 29 18411696565138303372
18186145 218 18335137630905442501
193761 8 18194965128017314679
19591789 44 15741617643154025255
200 152 18115317661596342719
20201158 50 18412267254754836174
20588541 1 18341050800017982470
21267235 1 18411410687762605119
21501502 16 18268145370798410261
221490 88 18197494030547139290
22721475 48 18342174453614698796
2334 1 18123751946024740293
23402539 116 18188784953514518460
23463225 33 18342461430718783150
23558518 356 18056194679239461011
23559900 14 18408037395812276644
2748010 2 18124881153035230452
335352 9 18411138073281755878
34934 24 18339369655234290278
350125 39 18267860597645479797
5104073 3 18411421670283560562
528886 8 18410017649611345482
53812653 166 18409169913382598200
5493415 88 18339366270915858754
69090 78 18409452492530069743
7364860 26 18192151495158229644
74978 22 18408884001752221445
7832392 63 18408323289365926545
8809292 202 18273213084268106954

> <PUBCHEM_SHAPE_MULTIPOLES>
311.66
6.42
2.47
0.7
1
0.29
-0.03
-0.45
-1.05
-0.07
-0.15
0.15
0.08
-0.21

> <PUBCHEM_SHAPE_SELFOVERLAP>
662.675

> <PUBCHEM_SHAPE_VOLUME>
175

> <PUBCHEM_COORDINATE_TYPE>
2
5
10

$$$$

