5281547
  -OEChem-07051212583D

 51 52  0     1  0  0  0  0  0999 V2000
   -0.1024    0.7649   -0.0221 O   0  0  0  0  0  0  0  0  0  0  0  0
    1.1028    0.3229   -1.9459 O   0  0  0  0  0  0  0  0  0  0  0  0
   -3.0997   -2.3952   -0.4806 O   0  0  0  0  0  0  0  0  0  0  0  0
    2.7657   -0.4876    0.8474 C   0  0  0  0  0  0  0  0  0  0  0  0
    3.5015    0.0028   -0.3650 C   0  0  1  0  0  0  0  0  0  0  0  0
    2.2557    0.6949    0.0877 C   0  0  1  0  0  0  0  0  0  0  0  0
    2.0549   -1.7944    0.7346 C   0  0  0  0  0  0  0  0  0  0  0  0
    3.3255   -0.2299    2.2068 C   0  0  0  0  0  0  0  0  0  0  0  0
    4.7694    0.7029   -0.2239 C   0  0  0  0  0  0  0  0  0  0  0  0
    1.0358    0.5706   -0.7505 C   0  0  0  0  0  0  0  0  0  0  0  0
    6.0018    0.1665   -0.1381 C   0  0  0  0  0  0  0  0  0  0  0  0
   -1.3227    0.6649   -0.7444 C   0  0  1  0  0  0  0  0  0  0  0  0
    7.2202    1.0354    0.0058 C   0  0  0  0  0  0  0  0  0  0  0  0
    6.2746   -1.3106   -0.1764 C   0  0  0  0  0  0  0  0  0  0  0  0
   -1.4979   -0.7626   -1.2479 C   0  0  0  0  0  0  0  0  0  0  0  0
   -2.4911    0.8995    0.1745 C   0  0  0  0  0  0  0  0  0  0  0  0
   -3.2677   -0.1755    0.3673 C   0  0  0  0  0  0  0  0  0  0  0  0
   -2.6693   -1.2514   -0.4478 C   0  0  0  0  0  0  0  0  0  0  0  0
   -2.6783    2.2571    0.7677 C   0  0  0  0  0  0  0  0  0  0  0  0
   -4.4827   -0.3927    1.1866 C   0  0  0  0  0  0  0  0  0  0  0  0
   -5.6634   -0.8218    0.3605 C   0  0  0  0  0  0  0  0  0  0  0  0
   -6.5515    0.0282   -0.1757 C   0  0  0  0  0  0  0  0  0  0  0  0
   -6.4811    1.5112   -0.0205 C   0  0  0  0  0  0  0  0  0  0  0  0
    3.4418   -0.6000   -1.2664 H   0  0  0  0  0  0  0  0  0  0  0  0
    2.3569    1.6695    0.5574 H   0  0  0  0  0  0  0  0  0  0  0  0
    2.6959   -2.6100    1.0874 H   0  0  0  0  0  0  0  0  0  0  0  0
    1.1455   -1.7922    1.3451 H   0  0  0  0  0  0  0  0  0  0  0  0
    1.7671   -2.0379   -0.2938 H   0  0  0  0  0  0  0  0  0  0  0  0
    4.1228   -0.9448    2.4373 H   0  0  0  0  0  0  0  0  0  0  0  0
    3.7359    0.7792    2.3221 H   0  0  0  0  0  0  0  0  0  0  0  0
    2.5446   -0.3431    2.9672 H   0  0  0  0  0  0  0  0  0  0  0  0
    4.7005    1.7897   -0.1979 H   0  0  0  0  0  0  0  0  0  0  0  0
   -1.3285    1.3867   -1.5704 H   0  0  0  0  0  0  0  0  0  0  0  0
    7.7480    0.7965    0.9348 H   0  0  0  0  0  0  0  0  0  0  0  0
    7.9032    0.8725   -0.8342 H   0  0  0  0  0  0  0  0  0  0  0  0
    6.9714    2.1016    0.0300 H   0  0  0  0  0  0  0  0  0  0  0  0
    6.9284   -1.5518   -1.0210 H   0  0  0  0  0  0  0  0  0  0  0  0
    6.7712   -1.6259    0.7472 H   0  0  0  0  0  0  0  0  0  0  0  0
    5.3655   -1.9097   -0.2818 H   0  0  0  0  0  0  0  0  0  0  0  0
   -0.6459   -1.4220   -1.0644 H   0  0  0  0  0  0  0  0  0  0  0  0
   -1.7750   -0.7774   -2.3067 H   0  0  0  0  0  0  0  0  0  0  0  0
   -1.7703    2.5700    1.2933 H   0  0  0  0  0  0  0  0  0  0  0  0
   -3.4966    2.2961    1.4905 H   0  0  0  0  0  0  0  0  0  0  0  0
   -2.8883    2.9871   -0.0204 H   0  0  0  0  0  0  0  0  0  0  0  0
   -4.7230    0.4728    1.8107 H   0  0  0  0  0  0  0  0  0  0  0  0
   -4.2770   -1.1929    1.9102 H   0  0  0  0  0  0  0  0  0  0  0  0
   -5.7956   -1.8871    0.1884 H   0  0  0  0  0  0  0  0  0  0  0  0
   -7.3766   -0.3731   -0.7576 H   0  0  0  0  0  0  0  0  0  0  0  0
   -7.3568    1.8621    0.5348 H   0  0  0  0  0  0  0  0  0  0  0  0
   -5.5928    1.8852    0.4856 H   0  0  0  0  0  0  0  0  0  0  0  0
   -6.5060    1.9772   -1.0113 H   0  0  0  0  0  0  0  0  0  0  0  0
  1 10  1  0  0  0  0
  1 12  1  0  0  0  0
  2 10  2  0  0  0  0
  3 18  2  0  0  0  0
  4  5  1  0  0  0  0
  4  6  1  0  0  0  0
  4  7  1  0  0  0  0
  4  8  1  0  0  0  0
  5  6  1  0  0  0  0
  5  9  1  0  0  0  0
  5 24  1  0  0  0  0
  6 10  1  0  0  0  0
  6 25  1  0  0  0  0
  7 26  1  0  0  0  0
  7 27  1  0  0  0  0
  7 28  1  0  0  0  0
  8 29  1  0  0  0  0
  8 30  1  0  0  0  0
  8 31  1  0  0  0  0
  9 11  2  0  0  0  0
  9 32  1  0  0  0  0
 11 13  1  0  0  0  0
 11 14  1  0  0  0  0
 12 15  1  0  0  0  0
 12 16  1  0  0  0  0
 12 33  1  0  0  0  0
 13 34  1  0  0  0  0
 13 35  1  0  0  0  0
 13 36  1  0  0  0  0
 14 37  1  0  0  0  0
 14 38  1  0  0  0  0
 14 39  1  0  0  0  0
 15 18  1  0  0  0  0
 15 40  1  0  0  0  0
 15 41  1  0  0  0  0
 16 17  2  0  0  0  0
 16 19  1  0  0  0  0
 17 18  1  0  0  0  0
 17 20  1  0  0  0  0
 19 42  1  0  0  0  0
 19 43  1  0  0  0  0
 19 44  1  0  0  0  0
 20 21  1  0  0  0  0
 20 45  1  0  0  0  0
 20 46  1  0  0  0  0
 21 22  2  0  0  0  0
 21 47  1  0  0  0  0
 22 23  1  0  0  0  0
 22 48  1  0  0  0  0
 23 49  1  0  0  0  0
 23 50  1  0  0  0  0
 23 51  1  0  0  0  0
M  END
> <PUBCHEM_COMPOUND_CID>
5281547

> <PUBCHEM_CONFORMER_RMSD>
0.8

> <PUBCHEM_CONFORMER_DIVERSEORDER>
1
159
131
202
196
197
104
245
261
111
74
242
211
277
92
114
174
240
248
235
247
263
165
275
229
56
186
237
214
246
78
45
270
126
171
88
226
262
61
279
134
85
189
213
266
212
204
219
49
158
127
139
76
224
264
120
17
249
267
144
36
130
157
259
272
122
274
135
252
50
132
182
239
198
37
162
175
269
255
95
151
23
75
82
210
191
238
32
195
156
91
258
180
117
154
206
276
243
26
227
96
244
256
260
84
54
230
251
101
205
102
140
231
170
268
116
93
185
22
67
193
81
141
142
64
89
169
271
121
51
278
176
200
236
167
15
215
164
161
209
71
79
220
110
83
118
149
113
199
48
44
192
160
187
216
115
280
129
145
125
94
181
188
24
178
46
58
138
72
150
124
241
99
273
108
232
63
12
29
208
137
106
207
107
233
168
223
103
57
18
109
80
77
250
7
253
8
173
147
68
16
143
184
2
177
194
42
52
55
152
218
265
128
172
70
66
133
201
9
86
148
73
203
31
190
217
166
40
136
41
10
21
19
257
87
69
163
13
225
11
65
28
38
222
33
20
59
183
4
228
6
234
30
221
53
123
3
34
27
43
179
47
62
155
25
39
254
105
146
119
60
5
90
14
35
112
100
97
153
98

> <PUBCHEM_MMFF94_PARTIAL_CHARGES>
28
1 -0.43
10 0.72
11 -0.28
12 0.42
13 0.14
14 0.14
15 0.06
16 -0.28
17 -0.12
18 0.49
19 0.14
2 -0.57
20 0.28
21 -0.29
22 -0.29
23 0.14
24 0.1
25 0.1
3 -0.57
32 0.15
4 -0.19
47 0.15
48 0.15
5 -0.06
6 -0.1
7 0.09
8 0.09
9 -0.19

> <PUBCHEM_EFFECTIVE_ROTOR_COUNT>
7

> <PUBCHEM_PHARMACOPHORE_FEATURES>
6
1 2 acceptor
1 23 hydrophobe
1 3 acceptor
3 11 13 14 hydrophobe
3 4 7 8 hydrophobe
5 12 15 16 17 18 rings

> <PUBCHEM_HEAVY_ATOM_COUNT>
23

> <PUBCHEM_ATOM_DEF_STEREO_COUNT>
3

> <PUBCHEM_ATOM_UDEF_STEREO_COUNT>
0

> <PUBCHEM_BOND_DEF_STEREO_COUNT>
1

> <PUBCHEM_BOND_UDEF_STEREO_COUNT>
0

> <PUBCHEM_ISOTOPIC_ATOM_COUNT>
0

> <PUBCHEM_COMPONENT_COUNT>
1

> <PUBCHEM_CACTVS_TAUTO_COUNT>
5

> <PUBCHEM_CONFORMER_ID>
0050970B00000001

> <PUBCHEM_MMFF94_ENERGY>
31.8793

> <PUBCHEM_FEATURE_SELFOVERLAP>
30.446

> <PUBCHEM_SHAPE_FINGERPRINT>
10366900 7 16805602581647794515
11045977 3 17603590677525760211
11089746 13 15430036556453290723
11315181 36 18341888580776535073
11646440 116 7493004084950775102
12236239 1 18201435865573773637
12516196 113 17561365080080290228
12553582 1 18201170874760646718
12596602 18 18272083859982659369
12788726 201 18342460382652357233
13533116 47 17968098689502561031
13911987 19 15051150364866584694
14170010 4 5906047045965243450
14251764 18 15936410048530830268
14341114 176 18334009489152336704
15183329 4 15791727508165433994
15537594 2 17632865208838313346
15716309 27 18202284693578470444
1813 80 17560509699110410966
19489759 90 17603584132596799227
200 152 17060624386303890572
20645477 70 15769508615740378912
21033648 29 16660655097328842216
21065198 48 18342176729757624304
21267235 1 18342168968788487366
21521721 280 17417525810079590372
22224240 67 17989208118944297424
23035841 295 18342459240349051570
23402539 116 18114185229318367525
23559900 14 18335989662233588609
23622692 88 18334013878318860597
34797466 226 17676759904238422644
3633792 109 18202288043668870413
4325135 7 15841550778103457206
4340502 62 15482676767230006706
7226269 152 18261111885827512065

> <PUBCHEM_SHAPE_MULTIPOLES>
455.72
17.39
1.68
1.26
4.53
0.19
-0.22
-1.53
-1.21
-1.04
-0.09
0.44
0.09
-0.53

> <PUBCHEM_SHAPE_SELFOVERLAP>
937.143

> <PUBCHEM_SHAPE_VOLUME>
266.8

> <PUBCHEM_COORDINATE_TYPE>
2
5
10

$$$$

