12931
  -OEChem-06261207333D

 45 47  0     0  0  0  0  0  0999 V2000
   -3.3490   -0.9485   -0.4719 O   0  0  0  0  0  0  0  0  0  0  0  0
   -0.6844    2.7573   -0.3476 O   0  0  0  0  0  0  0  0  0  0  0  0
   -4.4460    1.2911    1.4163 O   0  0  0  0  0  0  0  0  0  0  0  0
    5.4427    0.6872    0.2016 O   0  0  0  0  0  0  0  0  0  0  0  0
   -0.1367    0.4356   -0.1930 N   0  0  0  0  0  0  0  0  0  0  0  0
   -2.2767    1.1017   -0.4595 N   0  0  0  0  0  0  0  0  0  0  0  0
   -0.9207   -0.8220   -0.1454 C   0  0  0  0  0  0  0  0  0  0  0  0
   -0.6075   -1.7759   -1.3205 C   0  0  0  0  0  0  0  0  0  0  0  0
   -0.9373   -1.4558    1.2658 C   0  0  0  0  0  0  0  0  0  0  0  0
   -1.2014   -3.1753   -1.1642 C   0  0  0  0  0  0  0  0  0  0  0  0
   -1.5168   -2.8693    1.3067 C   0  0  0  0  0  0  0  0  0  0  0  0
   -0.9357   -3.7582    0.2165 C   0  0  0  0  0  0  0  0  0  0  0  0
   -2.3370   -0.2626   -0.3853 C   0  0  0  0  0  0  0  0  0  0  0  0
   -0.9828    1.5691   -0.3367 C   0  0  0  0  0  0  0  0  0  0  0  0
    1.3034    0.5010   -0.0906 C   0  0  0  0  0  0  0  0  0  0  0  0
   -3.4246    1.9696   -0.6465 C   0  0  0  0  0  0  0  0  0  0  0  0
    1.9535    1.7361   -0.1305 C   0  0  0  0  0  0  0  0  0  0  0  0
    2.0493   -0.6715    0.0471 C   0  0  0  0  0  0  0  0  0  0  0  0
   -4.0021    2.4243    0.6814 C   0  0  0  0  0  0  0  0  0  0  0  0
    3.3435    1.7986   -0.0332 C   0  0  0  0  0  0  0  0  0  0  0  0
    3.4395   -0.6090    0.1445 C   0  0  0  0  0  0  0  0  0  0  0  0
    4.0866    0.6262    0.1045 C   0  0  0  0  0  0  0  0  0  0  0  0
    6.1403   -0.5497    0.3404 C   0  0  0  0  0  0  0  0  0  0  0  0
    0.4615   -1.8948   -1.5016 H   0  0  0  0  0  0  0  0  0  0  0  0
   -0.9876   -1.3461   -2.2581 H   0  0  0  0  0  0  0  0  0  0  0  0
   -1.5004   -0.8231    1.9654 H   0  0  0  0  0  0  0  0  0  0  0  0
    0.0743   -1.5029    1.6814 H   0  0  0  0  0  0  0  0  0  0  0  0
   -0.7771   -3.8359   -1.9295 H   0  0  0  0  0  0  0  0  0  0  0  0
   -2.2814   -3.1470   -1.3487 H   0  0  0  0  0  0  0  0  0  0  0  0
   -2.6075   -2.8286    1.2049 H   0  0  0  0  0  0  0  0  0  0  0  0
   -1.3155   -3.3137    2.2885 H   0  0  0  0  0  0  0  0  0  0  0  0
   -1.3823   -4.7567    0.2831 H   0  0  0  0  0  0  0  0  0  0  0  0
    0.1435   -3.8789    0.3692 H   0  0  0  0  0  0  0  0  0  0  0  0
   -4.1835    1.4117   -1.2063 H   0  0  0  0  0  0  0  0  0  0  0  0
   -3.1210    2.8414   -1.2354 H   0  0  0  0  0  0  0  0  0  0  0  0
    1.4563    2.6882   -0.2390 H   0  0  0  0  0  0  0  0  0  0  0  0
    1.6115   -1.6574    0.1314 H   0  0  0  0  0  0  0  0  0  0  0  0
   -4.8617    3.0809    0.5180 H   0  0  0  0  0  0  0  0  0  0  0  0
   -3.2649    2.9638    1.2848 H   0  0  0  0  0  0  0  0  0  0  0  0
    3.8435    2.7629   -0.0656 H   0  0  0  0  0  0  0  0  0  0  0  0
    3.9550   -1.5565    0.2598 H   0  0  0  0  0  0  0  0  0  0  0  0
   -3.6589    0.7786    1.6669 H   0  0  0  0  0  0  0  0  0  0  0  0
    6.0034   -1.1898   -0.5378 H   0  0  0  0  0  0  0  0  0  0  0  0
    5.8729   -1.0599    1.2720 H   0  0  0  0  0  0  0  0  0  0  0  0
    7.2078   -0.3137    0.4004 H   0  0  0  0  0  0  0  0  0  0  0  0
  1 13  2  0  0  0  0
  2 14  2  0  0  0  0
  3 19  1  0  0  0  0
  3 42  1  0  0  0  0
  4 22  1  0  0  0  0
  4 23  1  0  0  0  0
  5  7  1  0  0  0  0
  5 14  1  0  0  0  0
  5 15  1  0  0  0  0
  6 13  1  0  0  0  0
  6 14  1  0  0  0  0
  6 16  1  0  0  0  0
  7  8  1  0  0  0  0
  7  9  1  0  0  0  0
  7 13  1  0  0  0  0
  8 10  1  0  0  0  0
  8 24  1  0  0  0  0
  8 25  1  0  0  0  0
  9 11  1  0  0  0  0
  9 26  1  0  0  0  0
  9 27  1  0  0  0  0
 10 12  1  0  0  0  0
 10 28  1  0  0  0  0
 10 29  1  0  0  0  0
 11 12  1  0  0  0  0
 11 30  1  0  0  0  0
 11 31  1  0  0  0  0
 12 32  1  0  0  0  0
 12 33  1  0  0  0  0
 15 17  2  0  0  0  0
 15 18  1  0  0  0  0
 16 19  1  0  0  0  0
 16 34  1  0  0  0  0
 16 35  1  0  0  0  0
 17 20  1  0  0  0  0
 17 36  1  0  0  0  0
 18 21  2  0  0  0  0
 18 37  1  0  0  0  0
 19 38  1  0  0  0  0
 19 39  1  0  0  0  0
 20 22  2  0  0  0  0
 20 40  1  0  0  0  0
 21 22  1  0  0  0  0
 21 41  1  0  0  0  0
 23 43  1  0  0  0  0
 23 44  1  0  0  0  0
 23 45  1  0  0  0  0
M  END
> <PUBCHEM_COMPOUND_CID>
12931

> <PUBCHEM_CONFORMER_RMSD>
0.8

> <PUBCHEM_CONFORMER_DIVERSEORDER>
1
8
6
7
3
4
5
2

> <PUBCHEM_MMFF94_PARTIAL_CHARGES>
23
1 -0.57
13 0.57
14 0.69
15 0.12
16 0.3
17 -0.15
18 -0.15
19 0.28
2 -0.57
20 -0.15
21 -0.15
22 0.08
23 0.28
3 -0.68
36 0.15
37 0.15
4 -0.36
40 0.15
41 0.15
42 0.4
5 -0.48
6 -0.42
7 0.36

> <PUBCHEM_EFFECTIVE_ROTOR_COUNT>
5.4

> <PUBCHEM_PHARMACOPHORE_FEATURES>
8
1 1 acceptor
1 2 acceptor
1 3 acceptor
1 3 donor
1 4 acceptor
5 5 6 7 13 14 rings
6 15 17 18 20 21 22 rings
6 7 8 9 10 11 12 rings

> <PUBCHEM_HEAVY_ATOM_COUNT>
23

> <PUBCHEM_ATOM_DEF_STEREO_COUNT>
0

> <PUBCHEM_ATOM_UDEF_STEREO_COUNT>
0

> <PUBCHEM_BOND_DEF_STEREO_COUNT>
0

> <PUBCHEM_BOND_UDEF_STEREO_COUNT>
0

> <PUBCHEM_ISOTOPIC_ATOM_COUNT>
0

> <PUBCHEM_COMPONENT_COUNT>
1

> <PUBCHEM_CACTVS_TAUTO_COUNT>
1

> <PUBCHEM_CONFORMER_ID>
0000328300000001

> <PUBCHEM_MMFF94_ENERGY>
67.31

> <PUBCHEM_FEATURE_SELFOVERLAP>
40.6

> <PUBCHEM_SHAPE_FINGERPRINT>
10382601 240 17976809106648705489
10411042 1 17834679296912162958
10493431 412 18336824286016572473
10616163 171 18339645534391113614
10906281 52 18188195590103479500
11405975 8 18410578345387633080
12553582 1 17548128935935797094
12616971 3 17132120122439017228
12788726 201 18265913358047491291
13004483 165 17902519181388498959
13140716 1 18339640023805576680
13257819 101 16700634504689186189
13583140 156 16486983902932710037
138480 1 17258220094927928742
14790565 3 18265890440049505552
14866123 147 18411983537774023027
15042514 8 18341328899055556779
15196674 1 18410859841617724780
15309172 13 18339359772651822129
16945 1 18196087742680266861
19591789 44 18411699915592647699
20028762 73 18261387807480451167
20681677 155 18411423921300136176
20739085 24 17982149421318372872
20905425 154 17112131300733840198
21065198 57 18337957784147875064
21267235 1 18412542076958950766
21524375 3 18410578422322263901
21731228 192 18411130372806326905
221490 88 18196934362781935056
22224240 67 18336822078946818593
2334 1 18411141320725651669
23402539 116 18334305253089641685
23557571 272 18188484680062246988
23558518 356 17985827026152295200
23559900 14 18334583430518152736
23598288 3 18265891363646127686
23728640 28 18410859832542474034
335352 9 18410858802177545812
3411729 13 17976252758181675177
5104073 3 18339367366729015256
559249 180 18340496651006665890
6138700 20 17905325487740570590
7226269 152 18113621231002984392
7364860 26 17833552675708510975
81228 2 18053117133245110441
8809292 202 18271529685132655234
9709674 26 18408885114449594142

> <PUBCHEM_SHAPE_MULTIPOLES>
439.89
8.8
3.74
1.05
11.94
2.34
-0.11
-4.22
-1.71
-3.57
-0.02
-0.82
0.48
-0.36

> <PUBCHEM_SHAPE_SELFOVERLAP>
935.733

> <PUBCHEM_SHAPE_VOLUME>
243.7

> <PUBCHEM_COORDINATE_TYPE>
2
5
10

$$$$

