11671
  -OEChem-06261205583D

 15 14  0     0  0  0  0  0  0999 V2000
   -1.0169    1.3814   -0.0906 O   0  0  0  0  0  0  0  0  0  0  0  0
    1.4607   -1.2067    0.0173 O   0  0  0  0  0  0  0  0  0  0  0  0
    1.5868    1.0519   -0.0104 O   0  0  0  0  0  0  0  0  0  0  0  0
   -0.6161    0.0139   -0.0002 C   0  0  0  0  0  0  0  0  0  0  0  0
   -1.1581   -0.7193   -1.2237 C   0  0  0  0  0  0  0  0  0  0  0  0
   -1.1634   -0.5537    1.3061 C   0  0  0  0  0  0  0  0  0  0  0  0
    0.9069    0.0326    0.0014 C   0  0  0  0  0  0  0  0  0  0  0  0
   -0.9231   -1.7883   -1.1923 H   0  0  0  0  0  0  0  0  0  0  0  0
   -2.2451   -0.6036   -1.2981 H   0  0  0  0  0  0  0  0  0  0  0  0
   -0.7325   -0.3096   -2.1473 H   0  0  0  0  0  0  0  0  0  0  0  0
   -0.7637   -0.0039    2.1662 H   0  0  0  0  0  0  0  0  0  0  0  0
   -0.9020   -1.6097    1.4299 H   0  0  0  0  0  0  0  0  0  0  0  0
   -2.2538   -0.4558    1.3480 H   0  0  0  0  0  0  0  0  0  0  0  0
   -0.7459    1.7208   -0.9609 H   0  0  0  0  0  0  0  0  0  0  0  0
    2.4409   -1.1694    0.0180 H   0  0  0  0  0  0  0  0  0  0  0  0
  1  4  1  0  0  0  0
  1 14  1  0  0  0  0
  2  7  1  0  0  0  0
  2 15  1  0  0  0  0
  3  7  2  0  0  0  0
  4  5  1  0  0  0  0
  4  6  1  0  0  0  0
  4  7  1  0  0  0  0
  5  8  1  0  0  0  0
  5  9  1  0  0  0  0
  5 10  1  0  0  0  0
  6 11  1  0  0  0  0
  6 12  1  0  0  0  0
  6 13  1  0  0  0  0
M  END
> <PUBCHEM_COMPOUND_CID>
11671

> <PUBCHEM_CONFORMER_RMSD>
0.4

> <PUBCHEM_CONFORMER_DIVERSEORDER>
1
2
3

> <PUBCHEM_MMFF94_PARTIAL_CHARGES>
7
1 -0.68
14 0.4
15 0.5
2 -0.65
3 -0.57
4 0.34
7 0.66

> <PUBCHEM_EFFECTIVE_ROTOR_COUNT>
1

> <PUBCHEM_PHARMACOPHORE_FEATURES>
6
1 1 acceptor
1 1 donor
1 2 acceptor
1 3 acceptor
3 2 3 7 anion
3 4 5 6 hydrophobe

> <PUBCHEM_HEAVY_ATOM_COUNT>
7

> <PUBCHEM_ATOM_DEF_STEREO_COUNT>
0

> <PUBCHEM_ATOM_UDEF_STEREO_COUNT>
0

> <PUBCHEM_BOND_DEF_STEREO_COUNT>
0

> <PUBCHEM_BOND_UDEF_STEREO_COUNT>
0

> <PUBCHEM_ISOTOPIC_ATOM_COUNT>
0

> <PUBCHEM_COMPONENT_COUNT>
1

> <PUBCHEM_CACTVS_TAUTO_COUNT>
1

> <PUBCHEM_CONFORMER_ID>
00002D9700000001

> <PUBCHEM_MMFF94_ENERGY>
7.7825

> <PUBCHEM_FEATURE_SELFOVERLAP>
30.517

> <PUBCHEM_SHAPE_FINGERPRINT>
137420 1 6355654753321979213
20096714 4 18267025152959434684
21040471 1 17825112750922326037
24536 1 17988926660656923212
29004967 10 18196937664957722979
5943 1 14136651651282319717

> <PUBCHEM_SHAPE_MULTIPOLES>
126.45
1.87
1.22
1.1
0.53
0.15
0.1
-0.06
0.01
0.13
-0.09
-0.61
-0.24
-0.07

> <PUBCHEM_SHAPE_SELFOVERLAP>
236.681

> <PUBCHEM_SHAPE_VOLUME>
79.9

> <PUBCHEM_COORDINATE_TYPE>
2
5
10

$$$$

