17395650
  -OEChem-06241222513D

 38 40  0     0  0  0  0  0  0999 V2000
   -1.6827    5.2348   -0.6588 F   0  0  0  0  0  0  0  0  0  0  0  0
    1.5212   -1.3891   -0.3753 O   0  0  0  0  0  0  0  0  0  0  0  0
    3.3347   -1.9941   -1.6578 O   0  0  0  0  0  0  0  0  0  0  0  0
   -3.1181   -0.0034    0.4308 N   0  0  0  0  0  0  0  0  0  0  0  0
   -1.2159   -1.1765   -0.2696 N   0  0  0  0  0  0  0  0  0  0  0  0
   -3.1089   -2.3360    0.6415 N   0  0  0  0  0  0  0  0  0  0  0  0
   -1.1743   -3.5670   -0.0656 N   0  0  0  0  0  0  0  0  0  0  0  0
   -3.0382   -4.6726    0.8302 N   0  0  0  0  0  0  0  0  0  0  0  0
    2.7887    0.4830    0.8101 N   0  0  0  0  0  0  0  0  0  0  0  0
   -2.7530    1.3304    0.1542 C   0  0  0  0  0  0  0  0  0  0  0  0
   -2.4492   -1.2309    0.2588 C   0  0  0  0  0  0  0  0  0  0  0  0
   -0.6397   -2.3822   -0.4024 C   0  0  0  0  0  0  0  0  0  0  0  0
    0.7340   -2.4074   -0.9810 C   0  0  0  0  0  0  0  0  0  0  0  0
   -3.7320    2.2679   -0.1751 C   0  0  0  0  0  0  0  0  0  0  0  0
   -1.4124    1.7118    0.2091 C   0  0  0  0  0  0  0  0  0  0  0  0
   -3.3705    3.5868   -0.4494 C   0  0  0  0  0  0  0  0  0  0  0  0
   -1.0508    3.0309   -0.0652 C   0  0  0  0  0  0  0  0  0  0  0  0
   -2.0300    3.9683   -0.3947 C   0  0  0  0  0  0  0  0  0  0  0  0
   -2.4103   -3.4666    0.4496 C   0  0  0  0  0  0  0  0  0  0  0  0
    3.5197   -0.1980   -0.1007 C   0  0  0  0  0  0  0  0  0  0  0  0
    2.8082   -1.2924   -0.8081 C   0  0  0  0  0  0  0  0  0  0  0  0
    4.8474    0.0735   -0.3894 C   0  0  0  0  0  0  0  0  0  0  0  0
    5.4646    1.1106    0.3012 C   0  0  0  0  0  0  0  0  0  0  0  0
    4.7454    1.8342    1.2460 C   0  0  0  0  0  0  0  0  0  0  0  0
    3.4222    1.4841    1.4614 C   0  0  0  0  0  0  0  0  0  0  0  0
   -4.0886   -0.1232    0.7053 H   0  0  0  0  0  0  0  0  0  0  0  0
    1.2018   -3.3831   -0.8044 H   0  0  0  0  0  0  0  0  0  0  0  0
    0.6656   -2.2306   -2.0606 H   0  0  0  0  0  0  0  0  0  0  0  0
   -4.7801    1.9831   -0.2222 H   0  0  0  0  0  0  0  0  0  0  0  0
   -0.6230    1.0278    0.5025 H   0  0  0  0  0  0  0  0  0  0  0  0
   -4.1324    4.3169   -0.7062 H   0  0  0  0  0  0  0  0  0  0  0  0
   -0.0082    3.3307   -0.0135 H   0  0  0  0  0  0  0  0  0  0  0  0
    5.4056   -0.4927   -1.1273 H   0  0  0  0  0  0  0  0  0  0  0  0
    6.5040    1.3547    0.1037 H   0  0  0  0  0  0  0  0  0  0  0  0
   -3.9691   -4.6459    1.2228 H   0  0  0  0  0  0  0  0  0  0  0  0
   -2.5500   -5.5484    0.7042 H   0  0  0  0  0  0  0  0  0  0  0  0
    5.2059    2.6468    1.7960 H   0  0  0  0  0  0  0  0  0  0  0  0
    2.8172    2.0178    2.1869 H   0  0  0  0  0  0  0  0  0  0  0  0
  1 18  1  0  0  0  0
  2 13  1  0  0  0  0
  2 21  1  0  0  0  0
  3 21  2  0  0  0  0
  4 10  1  0  0  0  0
  4 11  1  0  0  0  0
  4 26  1  0  0  0  0
  5 11  2  0  0  0  0
  5 12  1  0  0  0  0
  6 11  1  0  0  0  0
  6 19  2  0  0  0  0
  7 12  2  0  0  0  0
  7 19  1  0  0  0  0
  8 19  1  0  0  0  0
  8 35  1  0  0  0  0
  8 36  1  0  0  0  0
  9 20  1  0  0  0  0
  9 25  2  0  0  0  0
 10 14  2  0  0  0  0
 10 15  1  0  0  0  0
 12 13  1  0  0  0  0
 13 27  1  0  0  0  0
 13 28  1  0  0  0  0
 14 16  1  0  0  0  0
 14 29  1  0  0  0  0
 15 17  2  0  0  0  0
 15 30  1  0  0  0  0
 16 18  2  0  0  0  0
 16 31  1  0  0  0  0
 17 18  1  0  0  0  0
 17 32  1  0  0  0  0
 20 21  1  0  0  0  0
 20 22  2  0  0  0  0
 22 23  1  0  0  0  0
 22 33  1  0  0  0  0
 23 24  2  0  0  0  0
 23 34  1  0  0  0  0
 24 25  1  0  0  0  0
 24 37  1  0  0  0  0
 25 38  1  0  0  0  0
M  END
> <PUBCHEM_COMPOUND_CID>
17395650

> <PUBCHEM_CONFORMER_RMSD>
1.2

> <PUBCHEM_CONFORMER_DIVERSEORDER>
1
37
61
29
53
43
45
24
51
39
7
3
59
52
38
22
62
18
9
55
56
60
46
33
23
50
34
40
58
57
30
4
25
17
27
8
54
12
19
31
44
2
14
28
20
13
26
15
11
32
49
10
21
48
16
6
36
35
42
47
41
5

> <PUBCHEM_MMFF94_PARTIAL_CHARGES>
36
1 -0.19
10 0.1
11 0.72
12 0.48
13 0.42
14 -0.15
15 -0.15
16 -0.15
17 -0.15
18 0.19
19 0.72
2 -0.43
20 0.4
21 0.63
22 -0.15
23 -0.15
24 -0.15
25 0.16
26 0.4
29 0.15
3 -0.57
30 0.15
31 0.15
32 0.15
33 0.15
34 0.15
35 0.4
36 0.4
37 0.15
38 0.15
4 -0.6
5 -0.62
6 -0.62
7 -0.62
8 -0.9
9 -0.62

> <PUBCHEM_EFFECTIVE_ROTOR_COUNT>
6

> <PUBCHEM_PHARMACOPHORE_FEATURES>
9
1 3 acceptor
1 4 donor
1 8 donor
1 9 acceptor
4 4 5 6 11 cation
4 6 7 8 19 cation
6 10 14 15 16 17 18 rings
6 5 6 7 11 12 19 rings
6 9 20 22 23 24 25 rings

> <PUBCHEM_HEAVY_ATOM_COUNT>
25

> <PUBCHEM_ATOM_DEF_STEREO_COUNT>
0

> <PUBCHEM_ATOM_UDEF_STEREO_COUNT>
0

> <PUBCHEM_BOND_DEF_STEREO_COUNT>
0

> <PUBCHEM_BOND_UDEF_STEREO_COUNT>
0

> <PUBCHEM_ISOTOPIC_ATOM_COUNT>
0

> <PUBCHEM_COMPONENT_COUNT>
1

> <PUBCHEM_CACTVS_TAUTO_COUNT>
9

> <PUBCHEM_CONFORMER_ID>
01096FC200000001

> <PUBCHEM_MMFF94_ENERGY>
75.4407

> <PUBCHEM_FEATURE_SELFOVERLAP>
45.712

> <PUBCHEM_SHAPE_FINGERPRINT>
10006869 2 18340495547153169923
10319926 262 18409741660199675714
10670039 82 18194387915348286380
10688039 33 18194402178396488802
11370993 70 18266182927237434548
11595378 159 18201450129693128338
12107183 9 18055366987982385002
12769317 202 17474955796919703189
13402501 40 18260832587565796704
13561361 72 18337115549324114240
138480 1 16682038674528163937
13965767 371 17628637754143411838
14363568 33 17402882332919659152
14466204 15 17475520954718624506
14468879 13 18127119990854310369
15961568 22 17977663109403516652
16988056 13 16109540587759560124
1768 85 17759791942586845449
17974551 9 17700687630204899634
18681886 176 16752136930994562427
19611394 137 16977299839709636090
20398071 114 18192995043793804980
23559900 14 17043175429509349905
3117164 225 18196952169706308610
3187 122 18195255407661158059
3524813 1 17823136714185166594
469060 322 18122891045616269146
474144 1 17482828970622449332
508706 21 18408044017981836516
56638632 33 17052465786846164674
7808743 9 18412820292377568548
84936 182 17474104779520408389
9981440 41 18054507178077932803

> <PUBCHEM_SHAPE_MULTIPOLES>
465.59
9.51
6.53
1.04
11.99
0.54
0.02
4.25
1.24
-9.13
-0.29
0.84
-0.14
2.86

> <PUBCHEM_SHAPE_SELFOVERLAP>
1009.752

> <PUBCHEM_SHAPE_VOLUME>
251.3

> <PUBCHEM_COORDINATE_TYPE>
2
5
10

$$$$

