5318659
  -OEChem-07051213083D

 53 55  0     1  0  0  0  0  0999 V2000
    0.8762    1.2713    0.5255 O   0  0  0  0  0  0  0  0  0  0  0  0
    2.1039    0.3017   -1.2056 O   0  0  0  0  0  0  0  0  0  0  0  0
    0.3101    4.7191   -1.6329 O   0  0  0  0  0  0  0  0  0  0  0  0
   -0.1293    4.7230    1.2241 O   0  0  0  0  0  0  0  0  0  0  0  0
    2.4891    2.8659   -2.3390 O   0  0  0  0  0  0  0  0  0  0  0  0
    0.2195    0.9865    3.1795 O   0  0  0  0  0  0  0  0  0  0  0  0
    1.5023   -4.2150    0.3022 O   0  0  0  0  0  0  0  0  0  0  0  0
    5.3281   -1.7218    1.6587 O   0  0  0  0  0  0  0  0  0  0  0  0
    0.5179   -2.4090   -2.4007 O   0  0  0  0  0  0  0  0  0  0  0  0
   -6.8578   -0.2159    1.0191 O   0  0  0  0  0  0  0  0  0  0  0  0
    0.9936    3.8548   -0.7239 C   0  0  1  0  0  0  0  0  0  0  0  0
    0.0483    3.5477    0.4378 C   0  0  1  0  0  0  0  0  0  0  0  0
    1.4089    2.5763   -1.4520 C   0  0  2  0  0  0  0  0  0  0  0  0
    0.6144    2.4308    1.3179 C   0  0  1  0  0  0  0  0  0  0  0  0
    1.8720    1.5017   -0.4684 C   0  0  1  0  0  0  0  0  0  0  0  0
   -0.3644    2.0262    2.4157 C   0  0  0  0  0  0  0  0  0  0  0  0
    2.5225   -0.7858   -0.4892 C   0  0  0  0  0  0  0  0  0  0  0  0
    1.7723   -1.9586   -0.4700 C   0  0  0  0  0  0  0  0  0  0  0  0
    3.7159   -0.7023    0.2236 C   0  0  0  0  0  0  0  0  0  0  0  0
    2.2183   -3.0556    0.2673 C   0  0  0  0  0  0  0  0  0  0  0  0
    4.1621   -1.7993    0.9607 C   0  0  0  0  0  0  0  0  0  0  0  0
    0.5231   -2.0422   -1.2181 C   0  0  0  0  0  0  0  0  0  0  0  0
    3.4133   -2.9759    0.9824 C   0  0  0  0  0  0  0  0  0  0  0  0
   -0.7505   -1.6435   -0.5312 C   0  0  0  0  0  0  0  0  0  0  0  0
   -1.9183   -1.6783   -1.1898 C   0  0  0  0  0  0  0  0  0  0  0  0
   -3.2166   -1.2933   -0.6088 C   0  0  0  0  0  0  0  0  0  0  0  0
   -3.3621   -1.2653    0.7686 C   0  0  0  0  0  0  0  0  0  0  0  0
   -4.2667   -0.9676   -1.4518 C   0  0  0  0  0  0  0  0  0  0  0  0
   -4.5915   -0.9014    1.3181 C   0  0  0  0  0  0  0  0  0  0  0  0
   -5.4960   -0.6036   -0.9022 C   0  0  0  0  0  0  0  0  0  0  0  0
   -5.6584   -0.5707    0.4827 C   0  0  0  0  0  0  0  0  0  0  0  0
    1.8766    4.4057   -0.3774 H   0  0  0  0  0  0  0  0  0  0  0  0
   -0.9354    3.2657    0.0424 H   0  0  0  0  0  0  0  0  0  0  0  0
    0.5822    2.2048   -2.0693 H   0  0  0  0  0  0  0  0  0  0  0  0
    1.5517    2.7435    1.7980 H   0  0  0  0  0  0  0  0  0  0  0  0
    2.8070    1.8227    0.0090 H   0  0  0  0  0  0  0  0  0  0  0  0
   -1.3019    1.6458    1.9963 H   0  0  0  0  0  0  0  0  0  0  0  0
   -0.5902    2.8609    3.0854 H   0  0  0  0  0  0  0  0  0  0  0  0
    0.0480    5.5140   -1.1375 H   0  0  0  0  0  0  0  0  0  0  0  0
    0.7373    4.9764    1.5853 H   0  0  0  0  0  0  0  0  0  0  0  0
    3.2335    3.1991   -1.8095 H   0  0  0  0  0  0  0  0  0  0  0  0
    0.4165    0.2516    2.5736 H   0  0  0  0  0  0  0  0  0  0  0  0
    4.3205    0.2001    0.2002 H   0  0  0  0  0  0  0  0  0  0  0  0
    3.7623   -3.8303    1.5575 H   0  0  0  0  0  0  0  0  0  0  0  0
   -0.6512   -1.3136    0.4966 H   0  0  0  0  0  0  0  0  0  0  0  0
    1.9667   -4.8595    0.8633 H   0  0  0  0  0  0  0  0  0  0  0  0
    5.4831   -2.5695    2.1095 H   0  0  0  0  0  0  0  0  0  0  0  0
   -1.9501   -1.9940   -2.2298 H   0  0  0  0  0  0  0  0  0  0  0  0
   -2.5667   -1.5343    1.4563 H   0  0  0  0  0  0  0  0  0  0  0  0
   -4.1554   -0.9873   -2.5327 H   0  0  0  0  0  0  0  0  0  0  0  0
   -4.7137   -0.8814    2.3977 H   0  0  0  0  0  0  0  0  0  0  0  0
   -6.3193   -0.3479   -1.5638 H   0  0  0  0  0  0  0  0  0  0  0  0
   -7.4802   -0.0202    0.2976 H   0  0  0  0  0  0  0  0  0  0  0  0
  1 14  1  0  0  0  0
  1 15  1  0  0  0  0
  2 15  1  0  0  0  0
  2 17  1  0  0  0  0
  3 11  1  0  0  0  0
  3 39  1  0  0  0  0
  4 12  1  0  0  0  0
  4 40  1  0  0  0  0
  5 13  1  0  0  0  0
  5 41  1  0  0  0  0
  6 16  1  0  0  0  0
  6 42  1  0  0  0  0
  7 20  1  0  0  0  0
  7 46  1  0  0  0  0
  8 21  1  0  0  0  0
  8 47  1  0  0  0  0
  9 22  2  0  0  0  0
 10 31  1  0  0  0  0
 10 53  1  0  0  0  0
 11 12  1  0  0  0  0
 11 13  1  0  0  0  0
 11 32  1  0  0  0  0
 12 14  1  0  0  0  0
 12 33  1  0  0  0  0
 13 15  1  0  0  0  0
 13 34  1  0  0  0  0
 14 16  1  0  0  0  0
 14 35  1  0  0  0  0
 15 36  1  0  0  0  0
 16 37  1  0  0  0  0
 16 38  1  0  0  0  0
 17 18  1  0  0  0  0
 17 19  2  0  0  0  0
 18 20  2  0  0  0  0
 18 22  1  0  0  0  0
 19 21  1  0  0  0  0
 19 43  1  0  0  0  0
 20 23  1  0  0  0  0
 21 23  2  0  0  0  0
 22 24  1  0  0  0  0
 23 44  1  0  0  0  0
 24 25  2  0  0  0  0
 24 45  1  0  0  0  0
 25 26  1  0  0  0  0
 25 48  1  0  0  0  0
 26 27  2  0  0  0  0
 26 28  1  0  0  0  0
 27 29  1  0  0  0  0
 27 49  1  0  0  0  0
 28 30  2  0  0  0  0
 28 50  1  0  0  0  0
 29 31  2  0  0  0  0
 29 51  1  0  0  0  0
 30 31  1  0  0  0  0
 30 52  1  0  0  0  0
M  END
> <PUBCHEM_COMPOUND_CID>
5318659

> <PUBCHEM_CONFORMER_RMSD>
1

> <PUBCHEM_CONFORMER_DIVERSEORDER>
1
140
169
211
74
119
151
116
192
190
89
83
84
133
53
187
30
125
183
102
126
64
178
180
191
129
158
117
176
114
66
206
196
105
78
75
97
20
52
90
177
70
194
57
2
99
94
108
45
184
13
145
76
91
141
23
10
98
160
87
29
67
123
174
172
103
118
207
59
137
56
12
154
200
11
164
127
161
193
100
143
5
107
69
146
37
81
68
130
27
25
205
7
73
201
168
156
61
181
152
198
14
8
42
148
36
93
49
204
188
163
132
60
150
136
51
144
17
147
50
134
202
6
77
79
47
9
110
71
46
32
34
31
167
15
80
58
101
112
43
18
63
82
26
24
199
208
44
157
209
155
62
96
54
124
138
166
195
4
175
106
88
210
40
3
186
135
171
162
182
65
115
109
86
111
121
104
149
48
55
72
139
189
39
197
159
85
120
16
113
170
41
128
185
203
38
122
165
19
21
95
142
92
173
153
33
22
179
28
35
131

> <PUBCHEM_MMFF94_PARTIAL_CHARGES>
46
1 -0.56
10 -0.53
11 0.28
12 0.28
13 0.28
14 0.28
15 0.56
16 0.28
17 0.08
18 0.09
19 -0.15
2 -0.36
20 0.08
21 0.08
22 0.47
23 -0.15
24 -0.14
25 -0.18
26 0.03
27 -0.15
28 -0.15
29 -0.15
3 -0.68
30 -0.15
31 0.08
39 0.4
4 -0.68
40 0.4
41 0.4
42 0.4
43 0.15
44 0.15
45 0.15
46 0.45
47 0.45
48 0.15
49 0.15
5 -0.68
50 0.15
51 0.15
52 0.15
53 0.45
6 -0.68
7 -0.53
8 -0.53
9 -0.57

> <PUBCHEM_EFFECTIVE_ROTOR_COUNT>
7.2

> <PUBCHEM_PHARMACOPHORE_FEATURES>
17
1 1 acceptor
1 10 donor
1 2 acceptor
1 3 acceptor
1 3 donor
1 4 acceptor
1 4 donor
1 5 acceptor
1 5 donor
1 6 acceptor
1 6 donor
1 7 donor
1 8 donor
1 9 acceptor
6 1 11 12 13 14 15 rings
6 17 18 19 20 21 23 rings
6 26 27 28 29 30 31 rings

> <PUBCHEM_HEAVY_ATOM_COUNT>
31

> <PUBCHEM_ATOM_DEF_STEREO_COUNT>
5

> <PUBCHEM_ATOM_UDEF_STEREO_COUNT>
0

> <PUBCHEM_BOND_DEF_STEREO_COUNT>
1

> <PUBCHEM_BOND_UDEF_STEREO_COUNT>
0

> <PUBCHEM_ISOTOPIC_ATOM_COUNT>
0

> <PUBCHEM_COMPONENT_COUNT>
1

> <PUBCHEM_CACTVS_TAUTO_COUNT>
57

> <PUBCHEM_CONFORMER_ID>
0051280300000001

> <PUBCHEM_MMFF94_ENERGY>
102.1875

> <PUBCHEM_FEATURE_SELFOVERLAP>
86.325

> <PUBCHEM_SHAPE_FINGERPRINT>
10162869 55 18260275132157649815
10165383 225 17624115123499998749
10688039 33 18341055240845536747
1100329 8 18123187897340341516
11456790 92 18200590415248894691
11720765 8 18272094885253976441
12156800 1 17407162027401469833
12166972 35 18261402113509968863
12633257 1 18411700972155278327
13583140 156 18271244924733628671
151778 21 18125997166428550205
17809404 112 14273730725656010119
17980427 23 17677066658849344879
18336668 15 18260274061665729611
21344244 78 18410581720625454779
23558518 356 17830751854083359782
24893989 43 15096386596552875800
345986 75 17984723339352695090
469060 322 18198902694511465474
474144 1 18263066769856065857
5252454 2 17979912718604325605
5895379 119 15936954267936870907

> <PUBCHEM_SHAPE_MULTIPOLES>
579.27
9.67
5.8
2.16
16.14
6.2
-0.5
-7.26
-2.51
-5.14
0.59
-0.27
1.09
-1.9

> <PUBCHEM_SHAPE_SELFOVERLAP>
1245.142

> <PUBCHEM_SHAPE_VOLUME>
316.3

> <PUBCHEM_COORDINATE_TYPE>
2
5
10

$$$$

