9397
  -OEChem-06261203402D

 40 39  0     0  0  0  0  0  0999 V2000
    5.3301    0.0670    0.0000 F   0  0  0  0  0  0  0  0  0  0  0  0
    7.3301    0.0670    0.0000 F   0  0  0  0  0  0  0  0  0  0  0  0
    4.9641    0.7010    0.0000 F   0  0  0  0  0  0  0  0  0  0  0  0
    5.9641    2.4330    0.0000 F   0  0  0  0  0  0  0  0  0  0  0  0
    7.6962    0.7010    0.0000 F   0  0  0  0  0  0  0  0  0  0  0  0
    6.6962    2.4330    0.0000 F   0  0  0  0  0  0  0  0  0  0  0  0
    5.3301   -0.9330    0.0000 F   0  0  0  0  0  0  0  0  0  0  0  0
    7.3301   -0.9330    0.0000 F   0  0  0  0  0  0  0  0  0  0  0  0
    5.0981    2.9330    0.0000 F   0  0  0  0  0  0  0  0  0  0  0  0
    8.5622    1.2010    0.0000 F   0  0  0  0  0  0  0  0  0  0  0  0
    7.5622    2.9330    0.0000 F   0  0  0  0  0  0  0  0  0  0  0  0
    4.0981    1.2010    0.0000 F   0  0  0  0  0  0  0  0  0  0  0  0
    5.3301   -1.9330    0.0000 F   0  0  0  0  0  0  0  0  0  0  0  0
    7.3301   -1.9330    0.0000 F   0  0  0  0  0  0  0  0  0  0  0  0
    4.2320    3.4330    0.0000 F   0  0  0  0  0  0  0  0  0  0  0  0
    3.2320    1.7010    0.0000 F   0  0  0  0  0  0  0  0  0  0  0  0
    9.4282    1.7010    0.0000 F   0  0  0  0  0  0  0  0  0  0  0  0
    8.4282    3.4330    0.0000 F   0  0  0  0  0  0  0  0  0  0  0  0
    6.3301   -3.9330    0.0000 F   0  0  0  0  0  0  0  0  0  0  0  0
    5.3301   -2.9330    0.0000 F   0  0  0  0  0  0  0  0  0  0  0  0
    7.3301   -2.9330    0.0000 F   0  0  0  0  0  0  0  0  0  0  0  0
   10.6603    3.5670    0.0000 F   0  0  0  0  0  0  0  0  0  0  0  0
   10.2942    2.2010    0.0000 F   0  0  0  0  0  0  0  0  0  0  0  0
    9.2942    3.9330    0.0000 F   0  0  0  0  0  0  0  0  0  0  0  0
    2.0000    3.5670    0.0000 F   0  0  0  0  0  0  0  0  0  0  0  0
    2.3660    2.2010    0.0000 F   0  0  0  0  0  0  0  0  0  0  0  0
    3.3660    3.9330    0.0000 F   0  0  0  0  0  0  0  0  0  0  0  0
    6.3301    1.0670    0.0000 N   0  0  0  0  0  0  0  0  0  0  0  0
    7.1962    1.5670    0.0000 C   0  0  0  0  0  0  0  0  0  0  0  0
    5.4641    1.5670    0.0000 C   0  0  0  0  0  0  0  0  0  0  0  0
    6.3301    0.0670    0.0000 C   0  0  0  0  0  0  0  0  0  0  0  0
    6.3301   -0.9330    0.0000 C   0  0  0  0  0  0  0  0  0  0  0  0
    4.5981    2.0670    0.0000 C   0  0  0  0  0  0  0  0  0  0  0  0
    8.0622    2.0670    0.0000 C   0  0  0  0  0  0  0  0  0  0  0  0
    6.3301   -1.9330    0.0000 C   0  0  0  0  0  0  0  0  0  0  0  0
    3.7320    2.5670    0.0000 C   0  0  0  0  0  0  0  0  0  0  0  0
    8.9282    2.5670    0.0000 C   0  0  0  0  0  0  0  0  0  0  0  0
    9.7942    3.0670    0.0000 C   0  0  0  0  0  0  0  0  0  0  0  0
    2.8660    3.0670    0.0000 C   0  0  0  0  0  0  0  0  0  0  0  0
    6.3301   -2.9330    0.0000 C   0  0  0  0  0  0  0  0  0  0  0  0
  1 31  1  0  0  0  0
  2 31  1  0  0  0  0
  3 30  1  0  0  0  0
  4 30  1  0  0  0  0
  5 29  1  0  0  0  0
  6 29  1  0  0  0  0
  7 32  1  0  0  0  0
  8 32  1  0  0  0  0
  9 33  1  0  0  0  0
 10 34  1  0  0  0  0
 11 34  1  0  0  0  0
 12 33  1  0  0  0  0
 13 35  1  0  0  0  0
 14 35  1  0  0  0  0
 15 36  1  0  0  0  0
 16 36  1  0  0  0  0
 17 37  1  0  0  0  0
 18 37  1  0  0  0  0
 19 40  1  0  0  0  0
 20 40  1  0  0  0  0
 21 40  1  0  0  0  0
 22 38  1  0  0  0  0
 23 38  1  0  0  0  0
 24 38  1  0  0  0  0
 25 39  1  0  0  0  0
 26 39  1  0  0  0  0
 27 39  1  0  0  0  0
 28 29  1  0  0  0  0
 28 30  1  0  0  0  0
 28 31  1  0  0  0  0
 29 34  1  0  0  0  0
 30 33  1  0  0  0  0
 31 32  1  0  0  0  0
 32 35  1  0  0  0  0
 33 36  1  0  0  0  0
 34 37  1  0  0  0  0
 35 40  1  0  0  0  0
 36 39  1  0  0  0  0
 37 38  1  0  0  0  0
M  END
> <PUBCHEM_COMPOUND_CID>
9397

> <PUBCHEM_COMPOUND_CANONICALIZED>
1

> <PUBCHEM_CACTVS_COMPLEXITY>
792

> <PUBCHEM_CACTVS_HBOND_ACCEPTOR>
28

> <PUBCHEM_CACTVS_HBOND_DONOR>
0

> <PUBCHEM_CACTVS_ROTATABLE_BOND>
9

> <PUBCHEM_CACTVS_SUBSKEYS>
AAADcQByAcAAAAAAAAAAAAAAAAAAAAAAAAAAAAAAAAAAAAAAAAAADQAAAAAACAABABAAAAMAAAAAAAAAAAAAAAAAAAAAAAAAAAAAAAAAgAAEAAAAAACAAAAAAAAAAAAAAAAAAAAAAAAAAAAAAAAAAAAAAA==

> <PUBCHEM_IUPAC_OPENEYE_NAME>
1,1,2,2,3,3,4,4,4-nonafluoro-N,N-bis(1,1,2,2,3,3,4,4,4-nonafluorobutyl)butan-1-amine

> <PUBCHEM_IUPAC_CAS_NAME>
1,1,2,2,3,3,4,4,4-nonafluoro-N,N-bis(1,1,2,2,3,3,4,4,4-nonafluorobutyl)-1-butanamine

> <PUBCHEM_IUPAC_NAME>
1,1,2,2,3,3,4,4,4-nonafluoro-N,N-bis(1,1,2,2,3,3,4,4,4-nonafluorobutyl)butan-1-amine

> <PUBCHEM_IUPAC_SYSTEMATIC_NAME>
1,1,2,2,3,3,4,4,4-nonakis(fluoranyl)-N,N-bis[1,1,2,2,3,3,4,4,4-nonakis(fluoranyl)butyl]butan-1-amine

> <PUBCHEM_IUPAC_TRADITIONAL_NAME>
tris(1,1,2,2,3,3,4,4,4-nonafluorobutyl)amine

> <PUBCHEM_IUPAC_INCHI>
InChI=1S/C12F27N/c13-1(14,7(25,26)27)4(19,20)10(34,35)40(11(36,37)5(21,22)2(15,16)8(28,29)30)12(38,39)6(23,24)3(17,18)9(31,32)33

> <PUBCHEM_IUPAC_INCHIKEY>
RVZRBWKZFJCCIB-UHFFFAOYSA-N

> <PUBCHEM_XLOGP3_AA>
9.9

> <PUBCHEM_EXACT_MASS>
670.959961

> <PUBCHEM_MOLECULAR_FORMULA>
C12F27N

> <PUBCHEM_MOLECULAR_WEIGHT>
671.091986

> <PUBCHEM_OPENEYE_CAN_SMILES>
C(C(C(F)(F)F)(F)F)(C(N(C(C(C(C(F)(F)F)(F)F)(F)F)(F)F)C(C(C(C(F)(F)F)(F)F)(F)F)(F)F)(F)F)(F)F

> <PUBCHEM_OPENEYE_ISO_SMILES>
C(C(C(F)(F)F)(F)F)(C(N(C(C(C(C(F)(F)F)(F)F)(F)F)(F)F)C(C(C(C(F)(F)F)(F)F)(F)F)(F)F)(F)F)(F)F

> <PUBCHEM_CACTVS_TPSA>
3.2

> <PUBCHEM_MONOISOTOPIC_WEIGHT>
670.959961

> <PUBCHEM_TOTAL_CHARGE>
0

> <PUBCHEM_HEAVY_ATOM_COUNT>
40

> <PUBCHEM_ATOM_DEF_STEREO_COUNT>
0

> <PUBCHEM_ATOM_UDEF_STEREO_COUNT>
0

> <PUBCHEM_BOND_DEF_STEREO_COUNT>
0

> <PUBCHEM_BOND_UDEF_STEREO_COUNT>
0

> <PUBCHEM_ISOTOPIC_ATOM_COUNT>
0

> <PUBCHEM_COMPONENT_COUNT>
1

> <PUBCHEM_CACTVS_TAUTO_COUNT>
1

> <PUBCHEM_COORDINATE_TYPE>
1
5
255

$$$$

