443917
  -OEChem-07051213032D

 72 76  0     1  0  0  0  0  0999 V2000
    5.4641    0.0950    0.0000 O   0  0  0  0  0  0  0  0  0  0  0  0
    6.3301   -2.4050    0.0000 O   0  0  0  0  0  0  0  0  0  0  0  0
    8.0622   -2.4050    0.0000 O   0  0  0  0  0  0  0  0  0  0  0  0
    4.5981   -2.4050    0.0000 O   0  0  0  0  0  0  0  0  0  0  0  0
    2.8660   -1.4050    0.0000 O   0  0  0  0  0  0  0  0  0  0  0  0
    4.5981    1.5950    0.0000 O   0  0  0  0  0  0  0  0  0  0  0  0
    2.8660    0.5950    0.0000 O   0  0  0  0  0  0  0  0  0  0  0  0
    6.3301   -4.4050    0.0000 O   0  0  0  0  0  0  0  0  0  0  0  0
    8.0622   -5.4050    0.0000 O   0  0  0  0  0  0  0  0  0  0  0  0
    9.7942   -4.4050    0.0000 O   0  0  0  0  0  0  0  0  0  0  0  0
    6.3301    3.5950    0.0000 O   0  3  0  0  0  0  0  0  0  0  0  0
    8.0785    0.5604    0.0000 O   0  0  0  0  0  0  0  0  0  0  0  0
    9.8602    3.6192    0.0000 O   0  0  0  0  0  0  0  0  0  0  0  0
    2.0000    5.0950    0.0000 O   0  0  0  0  0  0  0  0  0  0  0  0
    5.4641   -0.9050    0.0000 C   0  0  1  0  0  0  0  0  0  0  0  0
    4.5981   -1.4050    0.0000 C   0  0  2  0  0  0  0  0  0  0  0  0
    3.7320   -0.9050    0.0000 C   0  0  1  0  0  0  0  0  0  0  0  0
    3.7320    0.0950    0.0000 C   0  0  2  0  0  0  0  0  0  0  0  0
    7.1962   -3.9050    0.0000 C   0  0  1  0  0  0  0  0  0  0  0  0
    7.1962   -2.9050    0.0000 C   0  0  2  0  0  0  0  0  0  0  0  0
    8.0622   -4.4050    0.0000 C   0  0  1  0  0  0  0  0  0  0  0  0
    8.9282   -3.9050    0.0000 C   0  0  2  0  0  0  0  0  0  0  0  0
    4.5981    0.5950    0.0000 C   0  0  1  0  0  0  0  0  0  0  0  0
    6.3301   -1.4050    0.0000 C   0  0  0  0  0  0  0  0  0  0  0  0
    8.9282   -2.9050    0.0000 C   0  0  2  0  0  0  0  0  0  0  0  0
    9.7942   -2.4050    0.0000 C   0  0  0  0  0  0  0  0  0  0  0  0
    5.4641    2.0950    0.0000 C   0  0  0  0  0  0  0  0  0  0  0  0
    5.4641    3.0950    0.0000 C   0  0  0  0  0  0  0  0  0  0  0  0
    6.3301    1.5950    0.0000 C   0  0  0  0  0  0  0  0  0  0  0  0
    7.1962    2.0950    0.0000 C   0  0  0  0  0  0  0  0  0  0  0  0
    7.1962    3.0950    0.0000 C   0  0  0  0  0  0  0  0  0  0  0  0
    4.5981    3.5950    0.0000 C   0  0  0  0  0  0  0  0  0  0  0  0
    8.0901    1.5603    0.0000 C   0  0  0  0  0  0  0  0  0  0  0  0
    8.0901    3.6297    0.0000 C   0  0  0  0  0  0  0  0  0  0  0  0
    4.5981    4.5950    0.0000 C   0  0  0  0  0  0  0  0  0  0  0  0
    3.7320    3.0950    0.0000 C   0  0  0  0  0  0  0  0  0  0  0  0
    8.9962    2.0742    0.0000 C   0  0  0  0  0  0  0  0  0  0  0  0
    8.9962    3.1158    0.0000 C   0  0  0  0  0  0  0  0  0  0  0  0
    3.7320    5.0950    0.0000 C   0  0  0  0  0  0  0  0  0  0  0  0
    2.8660    3.5950    0.0000 C   0  0  0  0  0  0  0  0  0  0  0  0
    2.8660    4.5950    0.0000 C   0  0  0  0  0  0  0  0  0  0  0  0
    6.0010   -0.5950    0.0000 H   0  0  0  0  0  0  0  0  0  0  0  0
    5.1350   -1.7150    0.0000 H   0  0  0  0  0  0  0  0  0  0  0  0
    3.7320   -1.5250    0.0000 H   0  0  0  0  0  0  0  0  0  0  0  0
    3.7320    0.7150    0.0000 H   0  0  0  0  0  0  0  0  0  0  0  0
    6.6592   -3.5950    0.0000 H   0  0  0  0  0  0  0  0  0  0  0  0
    6.6592   -3.2150    0.0000 H   0  0  0  0  0  0  0  0  0  0  0  0
    7.5252   -4.7150    0.0000 H   0  0  0  0  0  0  0  0  0  0  0  0
    9.4651   -3.5950    0.0000 H   0  0  0  0  0  0  0  0  0  0  0  0
    4.0611    0.9050    0.0000 H   0  0  0  0  0  0  0  0  0  0  0  0
    6.9407   -1.5127    0.0000 H   0  0  0  0  0  0  0  0  0  0  0  0
    6.5422   -0.8224    0.0000 H   0  0  0  0  0  0  0  0  0  0  0  0
    8.9282   -2.2850    0.0000 H   0  0  0  0  0  0  0  0  0  0  0  0
   10.1042   -2.9419    0.0000 H   0  0  0  0  0  0  0  0  0  0  0  0
   10.3312   -2.0950    0.0000 H   0  0  0  0  0  0  0  0  0  0  0  0
    9.4842   -1.8681    0.0000 H   0  0  0  0  0  0  0  0  0  0  0  0
    4.0611   -2.7150    0.0000 H   0  0  0  0  0  0  0  0  0  0  0  0
    2.8660   -2.0250    0.0000 H   0  0  0  0  0  0  0  0  0  0  0  0
    2.3291    0.2850    0.0000 H   0  0  0  0  0  0  0  0  0  0  0  0
    6.3301   -5.0250    0.0000 H   0  0  0  0  0  0  0  0  0  0  0  0
    8.5991   -5.7150    0.0000 H   0  0  0  0  0  0  0  0  0  0  0  0
   10.3312   -4.0950    0.0000 H   0  0  0  0  0  0  0  0  0  0  0  0
    6.3301    0.9750    0.0000 H   0  0  0  0  0  0  0  0  0  0  0  0
    8.0829    4.2496    0.0000 H   0  0  0  0  0  0  0  0  0  0  0  0
    5.1350    4.9050    0.0000 H   0  0  0  0  0  0  0  0  0  0  0  0
    3.7320    2.4750    0.0000 H   0  0  0  0  0  0  0  0  0  0  0  0
    9.5319    1.7621    0.0000 H   0  0  0  0  0  0  0  0  0  0  0  0
    3.7320    5.7150    0.0000 H   0  0  0  0  0  0  0  0  0  0  0  0
    2.3291    3.2850    0.0000 H   0  0  0  0  0  0  0  0  0  0  0  0
    8.6118    0.2442    0.0000 H   0  0  0  0  0  0  0  0  0  0  0  0
   10.3984    3.3112    0.0000 H   0  0  0  0  0  0  0  0  0  0  0  0
    2.0000    5.7150    0.0000 H   0  0  0  0  0  0  0  0  0  0  0  0
  1 15  1  0  0  0  0
  1 23  1  0  0  0  0
 20  2  1  6  0  0  0
  2 24  1  0  0  0  0
  3 20  1  0  0  0  0
  3 25  1  0  0  0  0
 16  4  1  1  0  0  0
  4 57  1  0  0  0  0
 17  5  1  6  0  0  0
  5 58  1  0  0  0  0
 23  6  1  6  0  0  0
  6 27  1  0  0  0  0
 18  7  1  1  0  0  0
  7 59  1  0  0  0  0
 19  8  1  1  0  0  0
  8 60  1  0  0  0  0
 21  9  1  1  0  0  0
  9 61  1  0  0  0  0
 22 10  1  6  0  0  0
 10 62  1  0  0  0  0
 11 28  2  0  0  0  0
 11 31  1  0  0  0  0
 12 33  1  0  0  0  0
 12 70  1  0  0  0  0
 13 38  1  0  0  0  0
 13 71  1  0  0  0  0
 14 41  1  0  0  0  0
 14 72  1  0  0  0  0
 15 16  1  0  0  0  0
 15 24  1  6  0  0  0
 15 42  1  0  0  0  0
 16 17  1  0  0  0  0
 16 43  1  0  0  0  0
 17 18  1  0  0  0  0
 17 44  1  0  0  0  0
 18 23  1  0  0  0  0
 18 45  1  0  0  0  0
 19 20  1  0  0  0  0
 19 21  1  0  0  0  0
 19 46  1  0  0  0  0
 20 47  1  0  0  0  0
 21 22  1  0  0  0  0
 21 48  1  0  0  0  0
 22 25  1  0  0  0  0
 22 49  1  0  0  0  0
 23 50  1  0  0  0  0
 24 51  1  0  0  0  0
 24 52  1  0  0  0  0
 25 26  1  1  0  0  0
 25 53  1  0  0  0  0
 26 54  1  0  0  0  0
 26 55  1  0  0  0  0
 26 56  1  0  0  0  0
 27 28  1  0  0  0  0
 27 29  2  0  0  0  0
 28 32  1  0  0  0  0
 29 30  1  0  0  0  0
 29 63  1  0  0  0  0
 30 31  1  0  0  0  0
 30 33  2  0  0  0  0
 31 34  2  0  0  0  0
 32 35  2  0  0  0  0
 32 36  1  0  0  0  0
 33 37  1  0  0  0  0
 34 38  1  0  0  0  0
 34 64  1  0  0  0  0
 35 39  1  0  0  0  0
 35 65  1  0  0  0  0
 36 40  2  0  0  0  0
 36 66  1  0  0  0  0
 37 38  2  0  0  0  0
 37 67  1  0  0  0  0
 39 41  2  0  0  0  0
 39 68  1  0  0  0  0
 40 41  1  0  0  0  0
 40 69  1  0  0  0  0
M  CHG  1  11   1
M  END
> <PUBCHEM_COMPOUND_CID>
443917

> <PUBCHEM_COMPOUND_CANONICALIZED>
1

> <PUBCHEM_CACTVS_COMPLEXITY>
843

> <PUBCHEM_CACTVS_HBOND_ACCEPTOR>
13

> <PUBCHEM_CACTVS_HBOND_DONOR>
9

> <PUBCHEM_CACTVS_ROTATABLE_BOND>
6

> <PUBCHEM_CACTVS_SUBSKEYS>
AAADceB4PAAAAAAAAAAAAAAAAAAAAAAAAAA0aJECAAAAAACR9AAAGgAACAAADBSwmAMyDsAABkCIAqBSAAICCAAkIAAIiAFGiMgdNzaGNR6ieWKl4BUPuYfK7OzOIAAACAAIAABAAAAQABAAAAAAAAAAAA==

> <PUBCHEM_IUPAC_OPENEYE_NAME>
(2R,3R,4R,5R,6S)-2-[[(2R,3S,4S,5R,6S)-6-[5,7-dihydroxy-2-(4-hydroxyphenyl)chromenylium-3-yl]oxy-3,4,5-trihydroxy-tetrahydropyran-2-yl]methoxy]-6-methyl-tetrahydropyran-3,4,5-triol

> <PUBCHEM_IUPAC_CAS_NAME>
(2R,3R,4R,5R,6S)-2-[[(2R,3S,4S,5R,6S)-6-[[5,7-dihydroxy-2-(4-hydroxyphenyl)-1-benzopyrylium-3-yl]oxy]-3,4,5-trihydroxy-2-oxanyl]methoxy]-6-methyloxane-3,4,5-triol

> <PUBCHEM_IUPAC_NAME>
(2R,3R,4R,5R,6S)-2-[[(2R,3S,4S,5R,6S)-6-[5,7-dihydroxy-2-(4-hydroxyphenyl)chromenylium-3-yl]oxy-3,4,5-trihydroxyoxan-2-yl]methoxy]-6-methyloxane-3,4,5-triol

> <PUBCHEM_IUPAC_SYSTEMATIC_NAME>
(2R,3R,4R,5R,6S)-2-[[(2R,3S,4S,5R,6S)-6-[2-(4-hydroxyphenyl)-5,7-bis(oxidanyl)chromenylium-3-yl]oxy-3,4,5-tris(oxidanyl)oxan-2-yl]methoxy]-6-methyl-oxane-3,4,5-triol

> <PUBCHEM_IUPAC_TRADITIONAL_NAME>
(2R,3R,4R,5R,6S)-2-[[(2R,3S,4S,5R,6S)-6-[[5,7-dihydroxy-2-(4-hydroxyphenyl)-1-benzopyrylium-3-yl]oxy]-3,4,5-trihydroxy-tetrahydropyran-2-yl]methoxy]-6-methyl-tetrahydropyran-3,4,5-triol

> <PUBCHEM_IUPAC_INCHI>
InChI=1S/C27H30O14/c1-10-19(31)21(33)23(35)26(38-10)37-9-18-20(32)22(34)24(36)27(41-18)40-17-8-14-15(30)6-13(29)7-16(14)39-25(17)11-2-4-12(28)5-3-11/h2-8,10,18-24,26-27,31-36H,9H2,1H3,(H2-,28,29,30)/p+1/t10-,18+,19-,20+,21+,22-,23+,24+,26+,27+/m0/s1

> <PUBCHEM_IUPAC_INCHIKEY>
IFYOHQQBIKDHFT-ASZXTAQUSA-O

> <PUBCHEM_EXACT_MASS>
579.171381

> <PUBCHEM_MOLECULAR_FORMULA>
C27H31O14+

> <PUBCHEM_MOLECULAR_WEIGHT>
579.52664

> <PUBCHEM_OPENEYE_CAN_SMILES>
CC1C(C(C(C(O1)OCC2C(C(C(C(O2)OC3=C([O+]=C4C=C(C=C(C4=C3)O)O)C5=CC=C(C=C5)O)O)O)O)O)O)O

> <PUBCHEM_OPENEYE_ISO_SMILES>
C[C@H]1[C@@H]([C@H]([C@H]([C@@H](O1)OC[C@@H]2[C@H]([C@@H]([C@H]([C@@H](O2)OC3=C([O+]=C4C=C(C=C(C4=C3)O)O)C5=CC=C(C=C5)O)O)O)O)O)O)O

> <PUBCHEM_CACTVS_TPSA>
220

> <PUBCHEM_MONOISOTOPIC_WEIGHT>
579.171381

> <PUBCHEM_TOTAL_CHARGE>
1

> <PUBCHEM_HEAVY_ATOM_COUNT>
41

> <PUBCHEM_ATOM_DEF_STEREO_COUNT>
10

> <PUBCHEM_ATOM_UDEF_STEREO_COUNT>
0

> <PUBCHEM_BOND_DEF_STEREO_COUNT>
0

> <PUBCHEM_BOND_UDEF_STEREO_COUNT>
0

> <PUBCHEM_ISOTOPIC_ATOM_COUNT>
0

> <PUBCHEM_COMPONENT_COUNT>
1

> <PUBCHEM_CACTVS_TAUTO_COUNT>
53

> <PUBCHEM_COORDINATE_TYPE>
1
5
255

> <PUBCHEM_BONDANNOTATIONS>
22  10  6
11  28  8
11  31  8
15  24  6
20  2  6
25  26  5
27  28  8
27  29  8
29  30  8
30  31  8
30  33  8
31  34  8
32  35  8
32  36  8
33  37  8
34  38  8
35  39  8
36  40  8
37  38  8
39  41  8
16  4  5
40  41  8
17  5  6
23  6  6
18  7  5
19  8  5
21  9  5

$$$$

