6442707
  -OEChem-07051212553D

 27 26  0     1  0  0  0  0  0999 V2000
   -5.8062   -1.7270    0.6025 O   0  0  0  0  0  0  0  0  0  0  0  0
   -5.7539    1.8853    0.1625 O   0  0  0  0  0  0  0  0  0  0  0  0
   -5.3953   -0.4958    0.0124 C   0  0  1  0  0  0  0  0  0  0  0  0
   -6.1376    0.6356    0.7167 C   0  0  0  0  0  0  0  0  0  0  0  0
   -3.9048   -0.3612    0.1677 C   0  0  0  0  0  0  0  0  0  0  0  0
   -3.0579   -0.2793   -0.8677 C   0  0  0  0  0  0  0  0  0  0  0  0
   -1.6559   -0.1541   -0.6760 C   0  0  0  0  0  0  0  0  0  0  0  0
    8.3272   -0.4192    0.3149 C   0  0  0  0  0  0  0  0  0  0  0  0
    6.8467   -0.5049    0.1377 C   0  0  0  0  0  0  0  0  0  0  0  0
    6.0149    0.5273    0.3313 C   0  0  0  0  0  0  0  0  0  0  0  0
   -0.4703   -0.0486   -0.5195 C   0  0  0  0  0  0  0  0  0  0  0  0
    4.6120    0.3988    0.1483 C   0  0  0  0  0  0  0  0  0  0  0  0
    0.8849    0.0716   -0.3403 C   0  0  0  0  0  0  0  0  0  0  0  0
    3.4257    0.2955   -0.0064 C   0  0  0  0  0  0  0  0  0  0  0  0
    2.0704    0.1762   -0.1841 C   0  0  0  0  0  0  0  0  0  0  0  0
   -5.6669   -0.5161   -1.0497 H   0  0  0  0  0  0  0  0  0  0  0  0
   -7.2202    0.5136    0.5993 H   0  0  0  0  0  0  0  0  0  0  0  0
   -5.9248    0.6413    1.7921 H   0  0  0  0  0  0  0  0  0  0  0  0
   -3.5179   -0.3402    1.1850 H   0  0  0  0  0  0  0  0  0  0  0  0
   -6.7653   -1.8122    0.4663 H   0  0  0  0  0  0  0  0  0  0  0  0
   -3.4294   -0.3038   -1.8871 H   0  0  0  0  0  0  0  0  0  0  0  0
   -6.2519    2.5728    0.6366 H   0  0  0  0  0  0  0  0  0  0  0  0
    8.8297   -0.6686   -0.6245 H   0  0  0  0  0  0  0  0  0  0  0  0
    8.6516    0.5806    0.6204 H   0  0  0  0  0  0  0  0  0  0  0  0
    8.6526   -1.1318    1.0790 H   0  0  0  0  0  0  0  0  0  0  0  0
    6.4529   -1.4720   -0.1668 H   0  0  0  0  0  0  0  0  0  0  0  0
    6.3997    1.4956    0.6347 H   0  0  0  0  0  0  0  0  0  0  0  0
  1  3  1  0  0  0  0
  1 20  1  0  0  0  0
  2  4  1  0  0  0  0
  2 22  1  0  0  0  0
  3  4  1  0  0  0  0
  3  5  1  0  0  0  0
  3 16  1  0  0  0  0
  4 17  1  0  0  0  0
  4 18  1  0  0  0  0
  5  6  2  0  0  0  0
  5 19  1  0  0  0  0
  6  7  1  0  0  0  0
  6 21  1  0  0  0  0
  7 11  3  0  0  0  0
  8  9  1  0  0  0  0
  8 23  1  0  0  0  0
  8 24  1  0  0  0  0
  8 25  1  0  0  0  0
  9 10  2  0  0  0  0
  9 26  1  0  0  0  0
 10 12  1  0  0  0  0
 10 27  1  0  0  0  0
 11 13  1  0  0  0  0
 12 14  3  0  0  0  0
 13 15  3  0  0  0  0
 14 15  1  0  0  0  0
M  END
> <PUBCHEM_COMPOUND_CID>
6442707

> <PUBCHEM_CONFORMER_RMSD>
0.6

> <PUBCHEM_CONFORMER_DIVERSEORDER>
1
3
5
4
2

> <PUBCHEM_MMFF94_PARTIAL_CHARGES>
17
1 -0.68
10 -0.09
12 -0.06
19 0.15
2 -0.68
20 0.4
21 0.15
22 0.4
26 0.15
27 0.15
3 0.42
4 0.28
5 -0.29
6 -0.09
7 -0.06
8 0.14
9 -0.29

> <PUBCHEM_EFFECTIVE_ROTOR_COUNT>
2

> <PUBCHEM_PHARMACOPHORE_FEATURES>
5
1 1 acceptor
1 1 donor
1 2 acceptor
1 2 donor
1 8 hydrophobe

> <PUBCHEM_HEAVY_ATOM_COUNT>
15

> <PUBCHEM_ATOM_DEF_STEREO_COUNT>
1

> <PUBCHEM_ATOM_UDEF_STEREO_COUNT>
0

> <PUBCHEM_BOND_DEF_STEREO_COUNT>
2

> <PUBCHEM_BOND_UDEF_STEREO_COUNT>
0

> <PUBCHEM_ISOTOPIC_ATOM_COUNT>
0

> <PUBCHEM_COMPONENT_COUNT>
1

> <PUBCHEM_CACTVS_TAUTO_COUNT>
1

> <PUBCHEM_CONFORMER_ID>
00624ED300000001

> <PUBCHEM_MMFF94_ENERGY>
5.3369

> <PUBCHEM_FEATURE_SELFOVERLAP>
25.371

> <PUBCHEM_SHAPE_FINGERPRINT>
10066227 49 12319474216193333648
10087517 78 5184079114948880851
10299344 5 17989767796106369098
10968037 39 11600006552783518277
11089746 13 4967606183160669402
11315181 36 18059855039679839533
12091667 2 17967817137326643751
125118 31 17894631444475344736
12714333 28 7132439025435942798
13288520 33 11383829364661016749
14123256 10 13398631654344372792
1420 363 15410895162841514952
14251718 22 10447930572381203636
14251764 18 18335422348978022540
14251764 46 18334577936226040574
14729087 3 16081087099432261001
155225 1 15068893197405840827
15716309 27 17418374688109664053
17093844 174 17894636937479526503
17834076 25 15430035448525840654
20281389 69 17603588504230214336
21150785 3 9367342639557800012
21267235 1 15985383391347914764
21315763 28 18335703810405270825
220451 1 17703795816780236658
22896161 15 12031782570198966012
23035841 295 17632297869802406850
23402539 116 17168151117494799885
23521765 1 18408042905764544318
23559900 14 11815890128678830878
246663 6 16702017582478384962
28498 318 17167858699948662910
300161 21 15502376729453898940
33532 11 18060424642770309034
42788 4 18334576823818889932
8209 1 10231756695725849630

> <PUBCHEM_SHAPE_MULTIPOLES>
296.95
23.6
1.06
0.79
19.63
0.11
-0.03
-0.82
5.85
-1.8
0.15
-0.44
-0.04
0.02

> <PUBCHEM_SHAPE_SELFOVERLAP>
573.899

> <PUBCHEM_SHAPE_VOLUME>
176.9

> <PUBCHEM_COORDINATE_TYPE>
2
5
10

$$$$

