11954086
  -OEChem-07051213063D

 63 66  0     1  0  0  0  0  0999 V2000
    4.5730    0.7036    1.0009 O   0  0  0  0  0  0  0  0  0  0  0  0
    4.0260    2.2422   -0.6333 O   0  0  0  0  0  0  0  0  0  0  0  0
   -6.2704    0.0895   -0.6575 O   0  0  0  0  0  0  0  0  0  0  0  0
   -6.1893    1.2241    1.3884 O   0  0  0  0  0  0  0  0  0  0  0  0
    2.2051    0.1843    0.4684 C   0  0  1  0  0  0  0  0  0  0  0  0
    1.5022   -1.1807    0.2970 C   0  0  2  0  0  0  0  0  0  0  0  0
    3.7011   -0.2536    0.4037 C   0  0  2  0  0  0  0  0  0  0  0  0
   -0.0196   -1.0801    0.4336 C   0  0  1  0  0  0  0  0  0  0  0  0
    2.2624   -2.0947    1.2520 C   0  0  0  0  0  0  0  0  0  0  0  0
    1.6989    1.1159   -0.6449 C   0  0  0  0  0  0  0  0  0  0  0  0
   -0.5651   -0.1289   -0.6737 C   0  0  2  0  0  0  0  0  0  0  0  0
    3.7145   -1.5837    1.2048 C   0  0  0  0  0  0  0  0  0  0  0  0
    0.1627    1.2410   -0.6446 C   0  0  0  0  0  0  0  0  0  0  0  0
    1.9150    0.8613    1.8407 C   0  0  0  0  0  0  0  0  0  0  0  0
   -0.7107   -2.4397    0.3030 C   0  0  0  0  0  0  0  0  0  0  0  0
    4.2554   -0.4777   -1.0089 C   0  0  0  0  0  0  0  0  0  0  0  0
   -2.0892   -0.0530   -0.6366 C   0  0  0  0  0  0  0  0  0  0  0  0
   -2.2011   -2.2943    0.5949 C   0  0  0  0  0  0  0  0  0  0  0  0
   -2.8454   -1.1040   -0.0728 C   0  0  0  0  0  0  0  0  0  0  0  0
    5.6747   -1.0261   -0.9579 C   0  0  0  0  0  0  0  0  0  0  0  0
   -2.7801    1.0142   -1.2376 C   0  0  0  0  0  0  0  0  0  0  0  0
    4.6384    1.9154    0.3743 C   0  0  0  0  0  0  0  0  0  0  0  0
   -4.2499   -1.0372   -0.0770 C   0  0  0  0  0  0  0  0  0  0  0  0
    6.2328   -1.2249   -2.3580 C   0  0  0  0  0  0  0  0  0  0  0  0
   -4.1758    1.0638   -1.2424 C   0  0  0  0  0  0  0  0  0  0  0  0
   -4.9111    0.0408   -0.6581 C   0  0  0  0  0  0  0  0  0  0  0  0
    5.5866    2.8141    1.1086 C   0  0  0  0  0  0  0  0  0  0  0  0
   -6.8220    0.7333    0.4629 C   0  0  0  0  0  0  0  0  0  0  0  0
   -8.3191    0.7350    0.3703 C   0  0  0  0  0  0  0  0  0  0  0  0
    1.6927   -1.5620   -0.7171 H   0  0  0  0  0  0  0  0  0  0  0  0
   -0.2755   -0.6804    1.4228 H   0  0  0  0  0  0  0  0  0  0  0  0
    2.2010   -3.1435    0.9432 H   0  0  0  0  0  0  0  0  0  0  0  0
    1.8680   -2.0282    2.2722 H   0  0  0  0  0  0  0  0  0  0  0  0
    2.0129    0.7807   -1.6384 H   0  0  0  0  0  0  0  0  0  0  0  0
    2.0031    2.1515   -0.5014 H   0  0  0  0  0  0  0  0  0  0  0  0
   -0.3273   -0.5831   -1.6482 H   0  0  0  0  0  0  0  0  0  0  0  0
    4.0813   -1.4204    2.2257 H   0  0  0  0  0  0  0  0  0  0  0  0
    4.3329   -2.3781    0.7886 H   0  0  0  0  0  0  0  0  0  0  0  0
   -0.1735    1.8208    0.2237 H   0  0  0  0  0  0  0  0  0  0  0  0
   -0.1108    1.8325   -1.5265 H   0  0  0  0  0  0  0  0  0  0  0  0
    2.2983    0.2751    2.6820 H   0  0  0  0  0  0  0  0  0  0  0  0
    2.3814    1.8506    1.9009 H   0  0  0  0  0  0  0  0  0  0  0  0
    0.8495    1.0162    2.0260 H   0  0  0  0  0  0  0  0  0  0  0  0
   -0.2850   -3.1711    0.9987 H   0  0  0  0  0  0  0  0  0  0  0  0
   -0.5654   -2.8398   -0.7088 H   0  0  0  0  0  0  0  0  0  0  0  0
    4.2430    0.3865   -1.6730 H   0  0  0  0  0  0  0  0  0  0  0  0
    3.6416   -1.2236   -1.5293 H   0  0  0  0  0  0  0  0  0  0  0  0
   -2.3439   -2.1894    1.6781 H   0  0  0  0  0  0  0  0  0  0  0  0
   -2.7099   -3.2149    0.2842 H   0  0  0  0  0  0  0  0  0  0  0  0
    5.7488   -1.9933   -0.4585 H   0  0  0  0  0  0  0  0  0  0  0  0
    6.3411   -0.3391   -0.4246 H   0  0  0  0  0  0  0  0  0  0  0  0
   -2.2480    1.8270   -1.7224 H   0  0  0  0  0  0  0  0  0  0  0  0
   -4.8299   -1.8381    0.3773 H   0  0  0  0  0  0  0  0  0  0  0  0
    5.6261   -1.9375   -2.9262 H   0  0  0  0  0  0  0  0  0  0  0  0
    6.2604   -0.2795   -2.9094 H   0  0  0  0  0  0  0  0  0  0  0  0
    7.2545   -1.6149   -2.3077 H   0  0  0  0  0  0  0  0  0  0  0  0
   -4.6798    1.9055   -1.7100 H   0  0  0  0  0  0  0  0  0  0  0  0
    6.5865    2.3732    1.1121 H   0  0  0  0  0  0  0  0  0  0  0  0
    5.2308    2.9720    2.1298 H   0  0  0  0  0  0  0  0  0  0  0  0
    5.6341    3.7824    0.6021 H   0  0  0  0  0  0  0  0  0  0  0  0
   -8.6324    1.2714   -0.5287 H   0  0  0  0  0  0  0  0  0  0  0  0
   -8.7361    1.2436    1.2441 H   0  0  0  0  0  0  0  0  0  0  0  0
   -8.6887   -0.2932    0.3544 H   0  0  0  0  0  0  0  0  0  0  0  0
  1  7  1  0  0  0  0
  1 22  1  0  0  0  0
  2 22  2  0  0  0  0
  3 26  1  0  0  0  0
  3 28  1  0  0  0  0
  4 28  2  0  0  0  0
  5  6  1  0  0  0  0
  5  7  1  0  0  0  0
  5 10  1  0  0  0  0
  5 14  1  0  0  0  0
  6  8  1  0  0  0  0
  6  9  1  0  0  0  0
  6 30  1  0  0  0  0
  7 12  1  0  0  0  0
  7 16  1  0  0  0  0
  8 11  1  0  0  0  0
  8 15  1  0  0  0  0
  8 31  1  0  0  0  0
  9 12  1  0  0  0  0
  9 32  1  0  0  0  0
  9 33  1  0  0  0  0
 10 13  1  0  0  0  0
 10 34  1  0  0  0  0
 10 35  1  0  0  0  0
 11 13  1  0  0  0  0
 11 17  1  0  0  0  0
 11 36  1  0  0  0  0
 12 37  1  0  0  0  0
 12 38  1  0  0  0  0
 13 39  1  0  0  0  0
 13 40  1  0  0  0  0
 14 41  1  0  0  0  0
 14 42  1  0  0  0  0
 14 43  1  0  0  0  0
 15 18  1  0  0  0  0
 15 44  1  0  0  0  0
 15 45  1  0  0  0  0
 16 20  1  0  0  0  0
 16 46  1  0  0  0  0
 16 47  1  0  0  0  0
 17 19  2  0  0  0  0
 17 21  1  0  0  0  0
 18 19  1  0  0  0  0
 18 48  1  0  0  0  0
 18 49  1  0  0  0  0
 19 23  1  0  0  0  0
 20 24  1  0  0  0  0
 20 50  1  0  0  0  0
 20 51  1  0  0  0  0
 21 25  2  0  0  0  0
 21 52  1  0  0  0  0
 22 27  1  0  0  0  0
 23 26  2  0  0  0  0
 23 53  1  0  0  0  0
 24 54  1  0  0  0  0
 24 55  1  0  0  0  0
 24 56  1  0  0  0  0
 25 26  1  0  0  0  0
 25 57  1  0  0  0  0
 27 58  1  0  0  0  0
 27 59  1  0  0  0  0
 27 60  1  0  0  0  0
 28 29  1  0  0  0  0
 29 61  1  0  0  0  0
 29 62  1  0  0  0  0
 29 63  1  0  0  0  0
M  END
> <PUBCHEM_COMPOUND_CID>
11954086

> <PUBCHEM_CONFORMER_RMSD>
0.8

> <PUBCHEM_CONFORMER_DIVERSEORDER>
1
4
2
3

> <PUBCHEM_MMFF94_PARTIAL_CHARGES>
20
1 -0.43
11 0.14
17 -0.14
18 0.14
19 -0.14
2 -0.57
21 -0.15
22 0.66
23 -0.15
25 -0.15
26 0.08
27 0.06
28 0.66
29 0.06
3 -0.23
4 -0.57
52 0.15
53 0.15
57 0.15
7 0.28

> <PUBCHEM_EFFECTIVE_ROTOR_COUNT>
7.4

> <PUBCHEM_PHARMACOPHORE_FEATURES>
7
1 2 acceptor
1 24 hydrophobe
1 4 acceptor
5 5 6 7 9 12 rings
6 17 19 21 23 25 26 rings
6 5 6 8 10 11 13 rings
6 8 11 15 17 18 19 rings

> <PUBCHEM_HEAVY_ATOM_COUNT>
29

> <PUBCHEM_ATOM_DEF_STEREO_COUNT>
5

> <PUBCHEM_ATOM_UDEF_STEREO_COUNT>
0

> <PUBCHEM_BOND_DEF_STEREO_COUNT>
0

> <PUBCHEM_BOND_UDEF_STEREO_COUNT>
0

> <PUBCHEM_ISOTOPIC_ATOM_COUNT>
0

> <PUBCHEM_COMPONENT_COUNT>
1

> <PUBCHEM_CACTVS_TAUTO_COUNT>
1

> <PUBCHEM_CONFORMER_ID>
00B667A600000001

> <PUBCHEM_MMFF94_ENERGY>
112.5244

> <PUBCHEM_FEATURE_SELFOVERLAP>
35.614

> <PUBCHEM_SHAPE_FINGERPRINT>
10 15 17561369448078140017
10674148 151 18187639263063397078
10816530 90 17845928534078848660
11578080 2 17971768682857934728
12236239 1 18041001730867418485
12403259 415 18272098227070283733
12596602 18 18187644674579356363
12730499 353 18130787884345533586
13782708 43 11311791586753419096
13914758 101 16009303322850750771
14114211 68 17560222735329727066
14251752 14 15068622716975499791
14341114 176 18202285827281083517
14347332 77 8430056251531059121
14617045 38 18131347535579493919
14790565 3 18272089349077652517
14849402 71 18335421202428301673
15183329 4 17676199199719161123
15196674 1 18272097062685935115
15475509 35 15912782711532831194
15475509 8 18263348339047549470
15840311 113 18408600358086584557
1813 80 15841556305357122319
18608769 82 17775275046021578067
21033648 29 18189628154442307482
21130935 74 18341897394434802147
21267235 1 18058733640355924050
21421861 104 17702688621640422698
21792934 111 17917164891429880893
22224240 67 18273216396695317875
22393880 68 18341894061455653998
22956985 138 12677529133342042913
23559900 14 18410009906449871364
239999 70 18409732855347510806
24771293 8 18196944283713992108
2747138 104 17988633091838550673
29717793 49 17603581941741601998
335352 9 18343305868761099270
34797466 226 18259988154061294692
350125 39 18130507530835192309
3545911 37 18131071549686791895
3633792 109 17603297159956610354
3680242 22 17988374706125871704
4093350 32 17822009805171661422
4325135 7 12391504274256266711
4340502 62 18342185440484141120
5104073 3 18202009784974162851
542803 24 18113341903519963941
5718773 13 9295027768300009624
9658208 31 18201434732225186466

> <PUBCHEM_SHAPE_MULTIPOLES>
573.33
17.52
2.37
1.49
21.45
0.11
0.2
6.16
1.02
-2.56
-0.61
-1.65
-0.01
1.17

> <PUBCHEM_SHAPE_SELFOVERLAP>
1227.179

> <PUBCHEM_SHAPE_VOLUME>
314.9

> <PUBCHEM_COORDINATE_TYPE>
2
5
10

$$$$

