16722112
  -OEChem-07051212492D

 87 89  0     1  0  0  0  0  0999 V2000
    4.2690   -3.2531    0.0000 O   0  0  0  0  0  0  0  0  0  0  0  0
   13.8439    0.2944    0.0000 O   0  0  0  0  0  0  0  0  0  0  0  0
   12.9682    2.7911    0.0000 O   0  0  0  0  0  0  0  0  0  0  0  0
   16.4323    2.8044    0.0000 O   0  0  0  0  0  0  0  0  0  0  0  0
   15.5875   -2.6989    0.0000 O   0  0  0  0  0  0  0  0  0  0  0  0
   17.3041    1.3078    0.0000 O   0  0  0  0  0  0  0  0  0  0  0  0
   12.1196   -1.7122    0.0000 O   0  0  0  0  0  0  0  0  0  0  0  0
   14.7273   -4.2022    0.0000 O   0  0  0  0  0  0  0  0  0  0  0  0
   12.0887    6.2877    0.0000 O   0  0  0  0  0  0  0  0  0  0  0  0
   13.8208    6.2944    0.0000 O   0  0  0  0  0  0  0  0  0  0  0  0
    9.4965    4.7777    0.0000 O   0  0  0  0  0  0  0  0  0  0  0  0
   10.3683    3.2810    0.0000 O   0  0  0  0  0  0  0  0  0  0  0  0
    6.0290   -4.2184    0.0000 N   0  0  0  0  0  0  0  0  0  0  0  0
    6.0290   -6.2877    0.0000 N   0  0  0  0  0  0  0  0  0  0  0  0
    8.6671   -4.7256    0.0000 N   0  0  0  0  0  0  0  0  0  0  0  0
    4.2690   -6.2531    0.0000 N   0  0  0  0  0  0  0  0  0  0  0  0
   15.5759    0.3011    0.0000 N   0  0  0  0  0  0  0  0  0  0  0  0
    3.4030   -4.7531    0.0000 N   0  0  0  0  0  0  0  0  0  0  0  0
   12.9914   -3.2089    0.0000 N   0  0  0  0  0  0  0  0  0  0  0  0
   13.8285    4.2944    0.0000 N   0  0  0  0  0  0  0  0  0  0  0  0
    2.5369   -6.2531    0.0000 N   0  0  0  0  0  0  0  0  0  0  0  0
    6.9350   -4.7322    0.0000 C   0  0  2  0  0  0  0  0  0  0  0  0
    6.9350   -5.7739    0.0000 C   0  0  0  0  0  0  0  0  0  0  0  0
    7.7991   -4.2289    0.0000 C   0  0  0  0  0  0  0  0  0  0  0  0
    5.1350   -4.7531    0.0000 C   0  0  0  0  0  0  0  0  0  0  0  0
    5.1350   -5.7531    0.0000 C   0  0  0  0  0  0  0  0  0  0  0  0
    4.2690   -4.2531    0.0000 C   0  0  0  0  0  0  0  0  0  0  0  0
   15.5721    1.3011    0.0000 C   0  0  1  0  0  0  0  0  0  0  0  0
    9.5312   -4.2222    0.0000 C   0  0  0  0  0  0  0  0  0  0  0  0
   14.7041    1.7977    0.0000 C   0  0  0  0  0  0  0  0  0  0  0  0
   13.8516   -1.7056    0.0000 C   0  0  0  0  0  0  0  0  0  0  0  0
   13.8555   -2.7056    0.0000 C   0  0  1  0  0  0  0  0  0  0  0  0
   14.7003    2.7977    0.0000 C   0  0  0  0  0  0  0  0  0  0  0  0
   14.7157   -1.2022    0.0000 C   0  0  0  0  0  0  0  0  0  0  0  0
    3.4030   -5.7531    0.0000 C   0  0  0  0  0  0  0  0  0  0  0  0
   12.9605    4.7910    0.0000 C   0  0  1  0  0  0  0  0  0  0  0  0
   14.7118   -0.2022    0.0000 C   0  0  0  0  0  0  0  0  0  0  0  0
   10.3991   -4.7189    0.0000 C   0  0  0  0  0  0  0  0  0  0  0  0
    9.5273   -3.2222    0.0000 C   0  0  0  0  0  0  0  0  0  0  0  0
   13.8323    3.2944    0.0000 C   0  0  0  0  0  0  0  0  0  0  0  0
   11.2593   -3.2156    0.0000 C   0  0  0  0  0  0  0  0  0  0  0  0
   12.0964    4.2877    0.0000 C   0  0  0  0  0  0  0  0  0  0  0  0
   11.2632   -4.2156    0.0000 C   0  0  0  0  0  0  0  0  0  0  0  0
   10.3914   -2.7189    0.0000 C   0  0  0  0  0  0  0  0  0  0  0  0
   12.1234   -2.7122    0.0000 C   0  0  0  0  0  0  0  0  0  0  0  0
   16.4362    1.8044    0.0000 C   0  0  0  0  0  0  0  0  0  0  0  0
   14.7234   -3.2022    0.0000 C   0  0  0  0  0  0  0  0  0  0  0  0
   11.2285    4.7844    0.0000 C   0  0  0  0  0  0  0  0  0  0  0  0
   12.9567    5.7910    0.0000 C   0  0  0  0  0  0  0  0  0  0  0  0
   10.3644    4.2810    0.0000 C   0  0  0  0  0  0  0  0  0  0  0  0
    6.9314   -4.1123    0.0000 H   0  0  0  0  0  0  0  0  0  0  0  0
    7.1441   -6.3576    0.0000 H   0  0  0  0  0  0  0  0  0  0  0  0
    7.5459   -5.6678    0.0000 H   0  0  0  0  0  0  0  0  0  0  0  0
    8.1958   -3.7524    0.0000 H   0  0  0  0  0  0  0  0  0  0  0  0
    7.3988   -3.7555    0.0000 H   0  0  0  0  0  0  0  0  0  0  0  0
    6.0218   -3.5984    0.0000 H   0  0  0  0  0  0  0  0  0  0  0  0
    6.0218   -6.9077    0.0000 H   0  0  0  0  0  0  0  0  0  0  0  0
    8.6694   -5.3456    0.0000 H   0  0  0  0  0  0  0  0  0  0  0  0
    4.2690   -6.8731    0.0000 H   0  0  0  0  0  0  0  0  0  0  0  0
   16.1102    0.9932    0.0000 H   0  0  0  0  0  0  0  0  0  0  0  0
   14.0931    1.9030    0.0000 H   0  0  0  0  0  0  0  0  0  0  0  0
   14.4943    1.2143    0.0000 H   0  0  0  0  0  0  0  0  0  0  0  0
   13.6373   -1.1238    0.0000 H   0  0  0  0  0  0  0  0  0  0  0  0
   13.2414   -1.8156    0.0000 H   0  0  0  0  0  0  0  0  0  0  0  0
   13.3173   -2.3976    0.0000 H   0  0  0  0  0  0  0  0  0  0  0  0
   15.3113    2.6924    0.0000 H   0  0  0  0  0  0  0  0  0  0  0  0
   14.9101    3.3812    0.0000 H   0  0  0  0  0  0  0  0  0  0  0  0
   14.9300   -1.7840    0.0000 H   0  0  0  0  0  0  0  0  0  0  0  0
   15.3259   -1.0922    0.0000 H   0  0  0  0  0  0  0  0  0  0  0  0
   16.1141   -0.0068    0.0000 H   0  0  0  0  0  0  0  0  0  0  0  0
   13.4963    5.1031    0.0000 H   0  0  0  0  0  0  0  0  0  0  0  0
   10.4015   -5.3389    0.0000 H   0  0  0  0  0  0  0  0  0  0  0  0
    8.9892   -2.9143    0.0000 H   0  0  0  0  0  0  0  0  0  0  0  0
   12.9938   -3.8289    0.0000 H   0  0  0  0  0  0  0  0  0  0  0  0
   11.6997    3.8112    0.0000 H   0  0  0  0  0  0  0  0  0  0  0  0
   12.4968    3.8143    0.0000 H   0  0  0  0  0  0  0  0  0  0  0  0
   14.3642    4.6064    0.0000 H   0  0  0  0  0  0  0  0  0  0  0  0
   11.8013   -4.5235    0.0000 H   0  0  0  0  0  0  0  0  0  0  0  0
   10.3890   -2.0989    0.0000 H   0  0  0  0  0  0  0  0  0  0  0  0
   11.6252    5.2608    0.0000 H   0  0  0  0  0  0  0  0  0  0  0  0
   10.8281    5.2578    0.0000 H   0  0  0  0  0  0  0  0  0  0  0  0
    2.0000   -5.9431    0.0000 H   0  0  0  0  0  0  0  0  0  0  0  0
    2.5369   -6.8731    0.0000 H   0  0  0  0  0  0  0  0  0  0  0  0
   16.9681    3.1165    0.0000 H   0  0  0  0  0  0  0  0  0  0  0  0
   16.1256   -3.0068    0.0000 H   0  0  0  0  0  0  0  0  0  0  0  0
   12.0863    6.9077    0.0000 H   0  0  0  0  0  0  0  0  0  0  0  0
    8.9607    4.4656    0.0000 H   0  0  0  0  0  0  0  0  0  0  0  0
  1 27  2  0  0  0  0
  2 37  2  0  0  0  0
  3 40  2  0  0  0  0
  4 46  1  0  0  0  0
  4 84  1  0  0  0  0
  5 47  1  0  0  0  0
  5 85  1  0  0  0  0
  6 46  2  0  0  0  0
  7 45  2  0  0  0  0
  8 47  2  0  0  0  0
  9 49  1  0  0  0  0
  9 86  1  0  0  0  0
 10 49  2  0  0  0  0
 11 50  1  0  0  0  0
 11 87  1  0  0  0  0
 12 50  2  0  0  0  0
 13 22  1  0  0  0  0
 13 25  1  0  0  0  0
 13 56  1  0  0  0  0
 14 23  1  0  0  0  0
 14 26  1  0  0  0  0
 14 57  1  0  0  0  0
 15 24  1  0  0  0  0
 15 29  1  0  0  0  0
 15 58  1  0  0  0  0
 16 26  1  0  0  0  0
 16 35  1  0  0  0  0
 16 59  1  0  0  0  0
 28 17  1  1  0  0  0
 17 37  1  0  0  0  0
 17 70  1  0  0  0  0
 18 27  1  0  0  0  0
 18 35  2  0  0  0  0
 32 19  1  1  0  0  0
 19 45  1  0  0  0  0
 19 74  1  0  0  0  0
 36 20  1  1  0  0  0
 20 40  1  0  0  0  0
 20 77  1  0  0  0  0
 21 35  1  0  0  0  0
 21 82  1  0  0  0  0
 21 83  1  0  0  0  0
 22 23  1  0  0  0  0
 22 24  1  1  0  0  0
 22 51  1  0  0  0  0
 23 52  1  0  0  0  0
 23 53  1  0  0  0  0
 24 54  1  0  0  0  0
 24 55  1  0  0  0  0
 25 26  2  0  0  0  0
 25 27  1  0  0  0  0
 28 30  1  0  0  0  0
 28 46  1  0  0  0  0
 28 60  1  0  0  0  0
 29 38  2  0  0  0  0
 29 39  1  0  0  0  0
 30 33  1  0  0  0  0
 30 61  1  0  0  0  0
 30 62  1  0  0  0  0
 31 32  1  0  0  0  0
 31 34  1  0  0  0  0
 31 63  1  0  0  0  0
 31 64  1  0  0  0  0
 32 47  1  0  0  0  0
 32 65  1  0  0  0  0
 33 40  1  0  0  0  0
 33 66  1  0  0  0  0
 33 67  1  0  0  0  0
 34 37  1  0  0  0  0
 34 68  1  0  0  0  0
 34 69  1  0  0  0  0
 36 42  1  0  0  0  0
 36 49  1  0  0  0  0
 36 71  1  0  0  0  0
 38 43  1  0  0  0  0
 38 72  1  0  0  0  0
 39 44  2  0  0  0  0
 39 73  1  0  0  0  0
 41 43  2  0  0  0  0
 41 44  1  0  0  0  0
 41 45  1  0  0  0  0
 42 48  1  0  0  0  0
 42 75  1  0  0  0  0
 42 76  1  0  0  0  0
 43 78  1  0  0  0  0
 44 79  1  0  0  0  0
 48 50  1  0  0  0  0
 48 80  1  0  0  0  0
 48 81  1  0  0  0  0
M  END
> <PUBCHEM_COMPOUND_CID>
16722112

> <PUBCHEM_COMPOUND_CANONICALIZED>
1

> <PUBCHEM_CACTVS_COMPLEXITY>
1410

> <PUBCHEM_CACTVS_HBOND_ACCEPTOR>
15

> <PUBCHEM_CACTVS_HBOND_DONOR>
12

> <PUBCHEM_CACTVS_ROTATABLE_BOND>
19

> <PUBCHEM_CACTVS_SUBSKEYS>
AAADcfB7/AAAAAAAAAAAAAAAAAAAAAAAAAAwQIAAAAAAAACBAAAAHgAQCAAADCjBmAQxyILAAgCoAiXSfACCAAElAgAJiIGIZMiKYDLA1bGUYQhslgLYyce8vwKeCAAAAAAAAAAQAAAAAAAAAAAAAAAAAA==

> <PUBCHEM_IUPAC_OPENEYE_NAME>
(2S)-2-[[(4S)-4-[[(4S)-4-[[4-[[(6S)-2-amino-4-oxo-5,6,7,8-tetrahydro-1H-pteridin-6-yl]methylamino]benzoyl]amino]-4-carboxy-butanoyl]amino]-4-carboxy-butanoyl]amino]pentanedioic acid

> <PUBCHEM_IUPAC_CAS_NAME>
(2S)-2-[[(4S)-4-[[(4S)-4-[[[4-[[(6S)-2-amino-4-oxo-5,6,7,8-tetrahydro-1H-pteridin-6-yl]methylamino]phenyl]-oxomethyl]amino]-4-carboxy-1-oxobutyl]amino]-4-carboxy-1-oxobutyl]amino]pentanedioic acid

> <PUBCHEM_IUPAC_NAME>
(2S)-2-[[(4S)-4-[[(4S)-4-[[4-[[(6S)-2-amino-4-oxo-5,6,7,8-tetrahydro-1H-pteridin-6-yl]methylamino]benzoyl]amino]-4-carboxybutanoyl]amino]-4-carboxybutanoyl]amino]pentanedioic acid

> <PUBCHEM_IUPAC_SYSTEMATIC_NAME>
(2S)-2-[[(4S)-4-[[(4S)-4-[[4-[[(6S)-2-azanyl-4-oxidanylidene-5,6,7,8-tetrahydro-1H-pteridin-6-yl]methylamino]phenyl]carbonylamino]-5-oxidanyl-5-oxidanylidene-pentanoyl]amino]-5-oxidanyl-5-oxidanylidene-pentanoyl]amino]pentanedioic acid

> <PUBCHEM_IUPAC_TRADITIONAL_NAME>
(2S)-2-[[(4S)-4-[[(4S)-4-[[4-[[(6S)-2-amino-4-keto-5,6,7,8-tetrahydro-1H-pteridin-6-yl]methylamino]benzoyl]amino]-4-carboxy-butanoyl]amino]-4-carboxy-butanoyl]amino]glutaric acid

> <PUBCHEM_IUPAC_INCHI>
InChI=1S/C29H37N9O12/c30-29-37-23-22(25(44)38-29)33-15(12-32-23)11-31-14-3-1-13(2-4-14)24(43)36-18(28(49)50)6-9-20(40)34-16(26(45)46)5-8-19(39)35-17(27(47)48)7-10-21(41)42/h1-4,15-18,31,33H,5-12H2,(H,34,40)(H,35,39)(H,36,43)(H,41,42)(H,45,46)(H,47,48)(H,49,50)(H4,30,32,37,38,44)/t15-,16-,17-,18-/m0/s1

> <PUBCHEM_IUPAC_INCHIKEY>
RXWVHRYZTWZATH-XSLAGTTESA-N

> <PUBCHEM_XLOGP3_AA>
-2.2

> <PUBCHEM_EXACT_MASS>
703.256168

> <PUBCHEM_MOLECULAR_FORMULA>
C29H37N9O12

> <PUBCHEM_MOLECULAR_WEIGHT>
703.65718

> <PUBCHEM_OPENEYE_CAN_SMILES>
C1C(NC2=C(N1)NC(=NC2=O)N)CNC3=CC=C(C=C3)C(=O)NC(CCC(=O)NC(CCC(=O)NC(CCC(=O)O)C(=O)O)C(=O)O)C(=O)O

> <PUBCHEM_OPENEYE_ISO_SMILES>
C1[C@@H](NC2=C(N1)NC(=NC2=O)N)CNC3=CC=C(C=C3)C(=O)N[C@@H](CCC(=O)N[C@@H](CCC(=O)N[C@@H](CCC(=O)O)C(=O)O)C(=O)O)C(=O)O

> <PUBCHEM_CACTVS_TPSA>
340

> <PUBCHEM_MONOISOTOPIC_WEIGHT>
703.256168

> <PUBCHEM_TOTAL_CHARGE>
0

> <PUBCHEM_HEAVY_ATOM_COUNT>
50

> <PUBCHEM_ATOM_DEF_STEREO_COUNT>
4

> <PUBCHEM_ATOM_UDEF_STEREO_COUNT>
0

> <PUBCHEM_BOND_DEF_STEREO_COUNT>
0

> <PUBCHEM_BOND_UDEF_STEREO_COUNT>
0

> <PUBCHEM_ISOTOPIC_ATOM_COUNT>
0

> <PUBCHEM_COMPONENT_COUNT>
1

> <PUBCHEM_CACTVS_TAUTO_COUNT>
340

> <PUBCHEM_COORDINATE_TYPE>
1
5
255

> <PUBCHEM_BONDANNOTATIONS>
16  26  8
16  35  8
28  17  5
18  27  8
18  35  8
32  19  5
36  20  5
22  24  5
25  26  8
25  27  8
29  38  8
29  39  8
38  43  8
39  44  8
41  43  8
41  44  8

$$$$

