5362124
  -OEChem-07051212523D

 59 61  0     1  0  0  0  0  0999 V2000
   -0.7095    1.9626    1.5907 O   0  0  0  0  0  0  0  0  0  0  0  0
    0.9589   -1.8286   -1.4404 O   0  0  0  0  0  0  0  0  0  0  0  0
    0.8227   -2.9805    0.5517 O   0  0  0  0  0  0  0  0  0  0  0  0
   -1.5932    1.6425   -1.9673 O   0  0  0  0  0  0  0  0  0  0  0  0
   -2.1448    3.8314   -2.1970 O   0  0  0  0  0  0  0  0  0  0  0  0
    0.2246   -0.5476    1.7508 N   0  0  0  0  0  0  0  0  0  0  0  0
   -2.6319    1.3654    0.4219 N   0  0  0  0  0  0  0  0  0  0  0  0
   -1.1977   -0.3903    1.4402 C   0  0  1  0  0  0  0  0  0  0  0  0
   -2.0431   -0.9557    2.5771 C   0  0  0  0  0  0  0  0  0  0  0  0
   -3.5056   -0.5324    2.5162 C   0  0  0  0  0  0  0  0  0  0  0  0
    1.0189   -0.5465    0.5330 C   0  0  1  0  0  0  0  0  0  0  0  0
   -1.4852    1.0894    1.1921 C   0  0  0  0  0  0  0  0  0  0  0  0
   -4.0700   -0.5448    1.1185 C   0  0  0  0  0  0  0  0  0  0  0  0
   -3.6750    0.4111    0.1546 C   0  0  0  0  0  0  0  0  0  0  0  0
    2.4914   -0.2069    0.8151 C   0  0  0  0  0  0  0  0  0  0  0  0
    3.4007   -0.1565   -0.4208 C   0  0  0  0  0  0  0  0  0  0  0  0
   -2.7680    2.6973   -0.1671 C   0  0  0  0  0  0  0  0  0  0  0  0
    0.9232   -1.9349   -0.0773 C   0  0  0  0  0  0  0  0  0  0  0  0
   -5.0764   -1.4743    0.8056 C   0  0  0  0  0  0  0  0  0  0  0  0
   -4.3523    0.4404   -1.0778 C   0  0  0  0  0  0  0  0  0  0  0  0
    4.8230    0.2392   -0.1137 C   0  0  0  0  0  0  0  0  0  0  0  0
   -5.7093   -1.4493   -0.4346 C   0  0  0  0  0  0  0  0  0  0  0  0
   -5.3538   -0.4871   -1.3716 C   0  0  0  0  0  0  0  0  0  0  0  0
   -2.1470    2.7998   -1.5364 C   0  0  0  0  0  0  0  0  0  0  0  0
    5.1929    1.5841   -0.1354 C   0  0  0  0  0  0  0  0  0  0  0  0
    5.7688   -0.7393    0.1928 C   0  0  0  0  0  0  0  0  0  0  0  0
    0.8687   -3.0632   -2.1587 C   0  0  0  0  0  0  0  0  0  0  0  0
    6.5084    1.9503    0.1489 C   0  0  0  0  0  0  0  0  0  0  0  0
    7.0842   -0.3729    0.4773 C   0  0  0  0  0  0  0  0  0  0  0  0
    7.4540    0.9719    0.4554 C   0  0  0  0  0  0  0  0  0  0  0  0
    0.9221   -2.7746   -3.6438 C   0  0  0  0  0  0  0  0  0  0  0  0
   -1.4351   -0.9549    0.5294 H   0  0  0  0  0  0  0  0  0  0  0  0
   -1.9791   -2.0518    2.5499 H   0  0  0  0  0  0  0  0  0  0  0  0
   -1.6433   -0.6493    3.5530 H   0  0  0  0  0  0  0  0  0  0  0  0
   -4.0907   -1.1829    3.1785 H   0  0  0  0  0  0  0  0  0  0  0  0
   -3.6255    0.4775    2.9305 H   0  0  0  0  0  0  0  0  0  0  0  0
    0.6349    0.1918   -0.1826 H   0  0  0  0  0  0  0  0  0  0  0  0
    0.5242    0.1906    2.3868 H   0  0  0  0  0  0  0  0  0  0  0  0
    2.9060   -0.9379    1.5235 H   0  0  0  0  0  0  0  0  0  0  0  0
    2.5374    0.7666    1.3224 H   0  0  0  0  0  0  0  0  0  0  0  0
    3.4184   -1.1328   -0.9200 H   0  0  0  0  0  0  0  0  0  0  0  0
    2.9827    0.5434   -1.1560 H   0  0  0  0  0  0  0  0  0  0  0  0
   -2.2592    3.4257    0.4733 H   0  0  0  0  0  0  0  0  0  0  0  0
   -3.8262    2.9753   -0.2209 H   0  0  0  0  0  0  0  0  0  0  0  0
   -5.3883   -2.2147    1.5385 H   0  0  0  0  0  0  0  0  0  0  0  0
   -4.1217    1.1637   -1.8520 H   0  0  0  0  0  0  0  0  0  0  0  0
   -6.4892   -2.1698   -0.6622 H   0  0  0  0  0  0  0  0  0  0  0  0
   -5.8552   -0.4558   -2.3347 H   0  0  0  0  0  0  0  0  0  0  0  0
    4.4645    2.3556   -0.3707 H   0  0  0  0  0  0  0  0  0  0  0  0
    5.4923   -1.7901    0.2153 H   0  0  0  0  0  0  0  0  0  0  0  0
   -0.0758   -3.5607   -1.9119 H   0  0  0  0  0  0  0  0  0  0  0  0
    1.7063   -3.7109   -1.8771 H   0  0  0  0  0  0  0  0  0  0  0  0
    6.7963    2.9974    0.1324 H   0  0  0  0  0  0  0  0  0  0  0  0
    7.8206   -1.1346    0.7166 H   0  0  0  0  0  0  0  0  0  0  0  0
    8.4782    1.2571    0.6773 H   0  0  0  0  0  0  0  0  0  0  0  0
    0.1009   -2.1123   -3.9372 H   0  0  0  0  0  0  0  0  0  0  0  0
    1.8533   -2.2598   -3.9026 H   0  0  0  0  0  0  0  0  0  0  0  0
    0.8558   -3.6987   -4.2246 H   0  0  0  0  0  0  0  0  0  0  0  0
   -1.1973    1.7343   -2.8601 H   0  0  0  0  0  0  0  0  0  0  0  0
  1 12  2  0  0  0  0
  2 18  1  0  0  0  0
  2 27  1  0  0  0  0
  3 18  2  0  0  0  0
  4 24  1  0  0  0  0
  4 59  1  0  0  0  0
  5 24  2  0  0  0  0
  6  8  1  0  0  0  0
  6 11  1  0  0  0  0
  6 38  1  0  0  0  0
  7 12  1  0  0  0  0
  7 14  1  0  0  0  0
  7 17  1  0  0  0  0
  8  9  1  0  0  0  0
  8 12  1  0  0  0  0
  8 32  1  0  0  0  0
  9 10  1  0  0  0  0
  9 33  1  0  0  0  0
  9 34  1  0  0  0  0
 10 13  1  0  0  0  0
 10 35  1  0  0  0  0
 10 36  1  0  0  0  0
 11 15  1  0  0  0  0
 11 18  1  0  0  0  0
 11 37  1  0  0  0  0
 13 14  1  0  0  0  0
 13 19  2  0  0  0  0
 14 20  2  0  0  0  0
 15 16  1  0  0  0  0
 15 39  1  0  0  0  0
 15 40  1  0  0  0  0
 16 21  1  0  0  0  0
 16 41  1  0  0  0  0
 16 42  1  0  0  0  0
 17 24  1  0  0  0  0
 17 43  1  0  0  0  0
 17 44  1  0  0  0  0
 19 22  1  0  0  0  0
 19 45  1  0  0  0  0
 20 23  1  0  0  0  0
 20 46  1  0  0  0  0
 21 25  2  0  0  0  0
 21 26  1  0  0  0  0
 22 23  2  0  0  0  0
 22 47  1  0  0  0  0
 23 48  1  0  0  0  0
 25 28  1  0  0  0  0
 25 49  1  0  0  0  0
 26 29  2  0  0  0  0
 26 50  1  0  0  0  0
 27 31  1  0  0  0  0
 27 51  1  0  0  0  0
 27 52  1  0  0  0  0
 28 30  2  0  0  0  0
 28 53  1  0  0  0  0
 29 30  1  0  0  0  0
 29 54  1  0  0  0  0
 30 55  1  0  0  0  0
 31 56  1  0  0  0  0
 31 57  1  0  0  0  0
 31 58  1  0  0  0  0
M  END
> <PUBCHEM_COMPOUND_CID>
5362124

> <PUBCHEM_CONFORMER_RMSD>
1

> <PUBCHEM_CONFORMER_DIVERSEORDER>
1
28
21
57
38
16
20
63
69
12
58
7
54
6
35
67
70
33
31
40
37
24
43
60
47
36
68
62
42
3
32
17
14
59
41
55
39
30
26
48
2
4
66
61
52
44
29
65
34
11
56
25
45
53
27
9
23
22
15
51
8
64
46
13
49
10
19
50
5
18

> <PUBCHEM_MMFF94_PARTIAL_CHARGES>
39
1 -0.57
10 0.14
11 0.33
12 0.57
13 -0.14
14 0.12
16 0.14
17 0.36
18 0.66
19 -0.15
2 -0.43
20 -0.15
21 -0.14
22 -0.15
23 -0.15
24 0.66
25 -0.15
26 -0.15
27 0.28
28 -0.15
29 -0.15
3 -0.57
30 -0.15
38 0.36
4 -0.65
45 0.15
46 0.15
47 0.15
48 0.15
49 0.15
5 -0.57
50 0.15
53 0.15
54 0.15
55 0.15
59 0.5
6 -0.9
7 -0.48
8 0.33

> <PUBCHEM_EFFECTIVE_ROTOR_COUNT>
10.8

> <PUBCHEM_PHARMACOPHORE_FEATURES>
10
1 1 acceptor
1 3 acceptor
1 4 acceptor
1 5 acceptor
1 6 cation
1 6 donor
3 4 5 24 anion
6 13 14 19 20 22 23 rings
6 21 25 26 28 29 30 rings
7 7 8 9 10 12 13 14 rings

> <PUBCHEM_HEAVY_ATOM_COUNT>
31

> <PUBCHEM_ATOM_DEF_STEREO_COUNT>
2

> <PUBCHEM_ATOM_UDEF_STEREO_COUNT>
0

> <PUBCHEM_BOND_DEF_STEREO_COUNT>
0

> <PUBCHEM_BOND_UDEF_STEREO_COUNT>
0

> <PUBCHEM_ISOTOPIC_ATOM_COUNT>
0

> <PUBCHEM_COMPONENT_COUNT>
1

> <PUBCHEM_CACTVS_TAUTO_COUNT>
1

> <PUBCHEM_CONFORMER_ID>
0051D1CC00000001

> <PUBCHEM_MMFF94_ENERGY>
83.1833

> <PUBCHEM_FEATURE_SELFOVERLAP>
50.814

> <PUBCHEM_SHAPE_FINGERPRINT>
10369192 42 18040709260495212420
11488393 25 17897437513892136206
11578080 2 17897434215546773205
11991303 11 18188210884482462894
12128747 34 17917713552406832538
12156800 1 13324083567426907095
12166972 35 15051437263869908319
12516196 113 12607403261406749426
12596602 18 15984817074588993928
13911987 19 17967810540241455624
14068700 675 14979958034228069814
14466204 15 12679190422496952071
14856354 85 16298384613522424231
14904385 45 11024110941621269814
15238133 3 11023828430735027531
15295992 7 11815598784516418655
15537594 2 14851606604721223948
17974551 9 10015280456681615087
17980427 23 18272640260132345493
19489759 90 17346877832138210008
21315764 268 18343303635594649408
21639891 77 16486109705996190937
23559900 14 17837778086046680362
25019877 29 18041271072092540198
27425 322 17549560938452457781
4258327 124 18044371627012710472
469060 322 18335147457743078695
5171179 24 13826800293745998864
6009941 240 8574711312796111012
77296 10 18131353055024114802
9981440 41 17489300919084606499
999808 66 14490467543553538021

> <PUBCHEM_SHAPE_MULTIPOLES>
598.66
15.49
3.27
2.51
24.48
0.04
0.94
-3.03
-1.3
-0.64
2.99
-2.46
0.76
1.62

> <PUBCHEM_SHAPE_SELFOVERLAP>
1260.286

> <PUBCHEM_SHAPE_VOLUME>
332.7

> <PUBCHEM_COORDINATE_TYPE>
2
5
10

$$$$

