9772
  -OEChem-06261204022D

 12 10  0     0  0  0  0  0  0999 V2000
    1.0675    0.0000    0.0000 Cl  0  0  0  0  0  0  0  0  0  0  0  0
    0.0000    2.8660    0.0000 F   0  0  0  0  0  0  0  0  0  0  0  0
    0.3660    4.2320    0.0000 F   0  0  0  0  0  0  0  0  0  0  0  0
    1.3660    2.5000    0.0000 F   0  0  0  0  0  0  0  0  0  0  0  0
    2.5981    3.3660    0.0000 N   0  0  0  0  0  0  0  0  0  0  0  0
    1.7320    3.8660    0.0000 C   0  0  0  0  0  0  0  0  0  0  0  0
    0.8660    3.3660    0.0000 C   0  0  0  0  0  0  0  0  0  0  0  0
    2.1306    4.3410    0.0000 H   0  0  0  0  0  0  0  0  0  0  0  0
    1.3335    4.3410    0.0000 H   0  0  0  0  0  0  0  0  0  0  0  0
    3.1350    3.6760    0.0000 H   0  0  0  0  0  0  0  0  0  0  0  0
    2.5981    2.7460    0.0000 H   0  0  0  0  0  0  0  0  0  0  0  0
    2.0675    0.0000    0.0000 H   0  0  0  0  0  0  0  0  0  0  0  0
  1 12  1  0  0  0  0
  2  7  1  0  0  0  0
  3  7  1  0  0  0  0
  4  7  1  0  0  0  0
  5  6  1  0  0  0  0
  5 10  1  0  0  0  0
  5 11  1  0  0  0  0
  6  7  1  0  0  0  0
  6  8  1  0  0  0  0
  6  9  1  0  0  0  0
M  END
> <PUBCHEM_COMPOUND_CID>
9772

> <PUBCHEM_COMPOUND_CANONICALIZED>
1

> <PUBCHEM_CACTVS_COMPLEXITY>
38.5

> <PUBCHEM_CACTVS_HBOND_ACCEPTOR>
4

> <PUBCHEM_CACTVS_HBOND_DONOR>
2

> <PUBCHEM_CACTVS_ROTATABLE_BOND>
0

> <PUBCHEM_CACTVS_SUBSKEYS>
AAADcYBCAYAEAAAAAAAAAAAAAAAAAAAAAAAAAAAAAAAAAAAAAAAAHQAQAAAAAADBABQAAABAAAAAAAAAAAAAAAAAAAAAAIAAAAAAAAAAAAAAAAAAAAAAAAAAAAAAAAAAAAAAAAAAAAAAAAAAAAAAAAAAAA==

> <PUBCHEM_IUPAC_OPENEYE_NAME>
2,2,2-trifluoroethanamine hydrochloride

> <PUBCHEM_IUPAC_CAS_NAME>
2,2,2-trifluoroethanamine hydrochloride

> <PUBCHEM_IUPAC_NAME>
2,2,2-trifluoroethanamine hydrochloride

> <PUBCHEM_IUPAC_SYSTEMATIC_NAME>
2,2,2-tris(fluoranyl)ethanamine hydrochloride

> <PUBCHEM_IUPAC_TRADITIONAL_NAME>
2,2,2-trifluoroethylamine hydrochloride

> <PUBCHEM_IUPAC_INCHI>
InChI=1S/C2H4F3N.ClH/c3-2(4,5)1-6;/h1,6H2;1H

> <PUBCHEM_IUPAC_INCHIKEY>
ZTUJDPKOHPKRMO-UHFFFAOYSA-N

> <PUBCHEM_EXACT_MASS>
135.006262

> <PUBCHEM_MOLECULAR_FORMULA>
C2H5ClF3N

> <PUBCHEM_MOLECULAR_WEIGHT>
135.51601

> <PUBCHEM_OPENEYE_CAN_SMILES>
C(C(F)(F)F)N.Cl

> <PUBCHEM_OPENEYE_ISO_SMILES>
C(C(F)(F)F)N.Cl

> <PUBCHEM_CACTVS_TPSA>
26

> <PUBCHEM_MONOISOTOPIC_WEIGHT>
135.006262

> <PUBCHEM_TOTAL_CHARGE>
0

> <PUBCHEM_HEAVY_ATOM_COUNT>
7

> <PUBCHEM_ATOM_DEF_STEREO_COUNT>
0

> <PUBCHEM_ATOM_UDEF_STEREO_COUNT>
0

> <PUBCHEM_BOND_DEF_STEREO_COUNT>
0

> <PUBCHEM_BOND_UDEF_STEREO_COUNT>
0

> <PUBCHEM_ISOTOPIC_ATOM_COUNT>
0

> <PUBCHEM_COMPONENT_COUNT>
2

> <PUBCHEM_CACTVS_TAUTO_COUNT>
1

> <PUBCHEM_COORDINATE_TYPE>
1
5
255

$$$$

