5281305
  -OEChem-07051212562D

 81 85  0     1  0  0  0  0  0999 V2000
    7.3494    0.9405    0.0000 O   0  0  0  0  0  0  0  0  0  0  0  0
    7.9771   -1.9063    0.0000 O   0  0  0  0  0  0  0  0  0  0  0  0
    5.3307    1.6441    0.0000 O   0  0  0  0  0  0  0  0  0  0  0  0
    7.0628    2.6441    0.0000 O   0  0  0  0  0  0  0  0  0  0  0  0
    9.6906    0.1796    0.0000 O   0  0  0  0  0  0  0  0  0  0  0  0
    9.4288    2.0101    0.0000 O   0  0  0  0  0  0  0  0  0  0  0  0
    7.9288    2.8761    0.0000 O   0  0  0  0  0  0  0  0  0  0  0  0
    9.7386   -1.8589    0.0000 O   0  0  0  0  0  0  0  0  0  0  0  0
    2.5357   -1.9082    0.0000 O   0  0  0  0  0  0  0  0  0  0  0  0
    2.5519    0.1834    0.0000 O   0  0  0  0  0  0  0  0  0  0  0  0
   10.5974   -1.2961    0.0000 O   0  0  0  0  0  0  0  0  0  0  0  0
   14.0054    0.7981    0.0000 O   0  0  0  0  0  0  0  0  0  0  0  0
   14.9122   -0.6777    0.0000 O   0  0  0  0  0  0  0  0  0  0  0  0
    7.0628   -0.3559    0.0000 C   0  0  2  0  0  0  0  0  0  0  0  0
    6.1968    0.1441    0.0000 C   0  0  1  0  0  0  0  0  0  0  0  0
    7.9288    0.1441    0.0000 C   0  0  2  0  0  0  0  0  0  0  0  0
    5.2868   -0.3628    0.0000 C   0  0  2  0  0  0  0  0  0  0  0  0
    7.9288    1.1441    0.0000 C   0  0  1  0  0  0  0  0  0  0  0  0
    7.0789   -1.3974    0.0000 C   0  0  1  0  0  0  0  0  0  0  0  0
    6.1968    1.1441    0.0000 C   0  0  2  0  0  0  0  0  0  0  0  0
    5.2787   -1.4044    0.0000 C   0  0  1  0  0  0  0  0  0  0  0  0
    6.9494    0.2477    0.0000 C   0  0  0  0  0  0  0  0  0  0  0  0
    7.0628    1.6441    0.0000 C   0  0  2  0  0  0  0  0  0  0  0  0
    6.1808   -1.9252    0.0000 C   0  0  0  0  0  0  0  0  0  0  0  0
    8.8386   -0.3439    0.0000 C   0  0  2  0  0  0  0  0  0  0  0  0
    4.3599    0.2013    0.0000 C   0  0  0  0  0  0  0  0  0  0  0  0
    4.9520    0.5795    0.0000 C   0  0  0  0  0  0  0  0  0  0  0  0
    4.3433   -1.9541    0.0000 C   0  0  0  0  0  0  0  0  0  0  0  0
    8.4288    2.0101    0.0000 C   0  0  0  0  0  0  0  0  0  0  0  0
    8.8629   -1.3760    0.0000 C   0  0  0  0  0  0  0  0  0  0  0  0
    3.4120   -0.3266    0.0000 C   0  0  0  0  0  0  0  0  0  0  0  0
    3.4037   -1.4116    0.0000 C   0  0  0  0  0  0  0  0  0  0  0  0
    4.3472   -2.9541    0.0000 C   0  0  0  0  0  0  0  0  0  0  0  0
   10.5700   -0.2965    0.0000 C   0  0  0  0  0  0  0  0  0  0  0  0
    9.9288    2.8761    0.0000 C   0  0  0  0  0  0  0  0  0  0  0  0
   11.4220    0.2271    0.0000 C   0  0  0  0  0  0  0  0  0  0  0  0
   12.3014   -0.2490    0.0000 C   0  0  0  0  0  0  0  0  0  0  0  0
   13.1534    0.2745    0.0000 C   0  0  0  0  0  0  0  0  0  0  0  0
   12.3288   -1.2486    0.0000 C   0  0  0  0  0  0  0  0  0  0  0  0
   13.6769   -0.5775    0.0000 C   0  0  0  0  0  0  0  0  0  0  0  0
   12.6299    1.1265    0.0000 C   0  0  0  0  0  0  0  0  0  0  0  0
   14.8848    0.3220    0.0000 C   0  0  0  0  0  0  0  0  0  0  0  0
   15.7368    0.8455    0.0000 C   0  0  0  0  0  0  0  0  0  0  0  0
    5.4606    0.5691    0.0000 H   0  0  0  0  0  0  0  0  0  0  0  0
    8.3538   -0.5920    0.0000 H   0  0  0  0  0  0  0  0  0  0  0  0
    7.0856   -2.2474    0.0000 H   0  0  0  0  0  0  0  0  0  0  0  0
    6.1968    1.7641    0.0000 H   0  0  0  0  0  0  0  0  0  0  0  0
    5.2820   -2.2544    0.0000 H   0  0  0  0  0  0  0  0  0  0  0  0
    6.5222    0.6971    0.0000 H   0  0  0  0  0  0  0  0  0  0  0  0
    6.3974   -0.0347    0.0000 H   0  0  0  0  0  0  0  0  0  0  0  0
    7.5997    1.9541    0.0000 H   0  0  0  0  0  0  0  0  0  0  0  0
    5.7835   -2.4012    0.0000 H   0  0  0  0  0  0  0  0  0  0  0  0
    6.5818   -2.3981    0.0000 H   0  0  0  0  0  0  0  0  0  0  0  0
    9.3833   -0.6402    0.0000 H   0  0  0  0  0  0  0  0  0  0  0  0
    4.7681    0.6680    0.0000 H   0  0  0  0  0  0  0  0  0  0  0  0
    3.9700    0.6834    0.0000 H   0  0  0  0  0  0  0  0  0  0  0  0
    5.5362    0.7871    0.0000 H   0  0  0  0  0  0  0  0  0  0  0  0
    4.7444    1.1638    0.0000 H   0  0  0  0  0  0  0  0  0  0  0  0
    4.3678    0.3720    0.0000 H   0  0  0  0  0  0  0  0  0  0  0  0
    5.3307    2.2641    0.0000 H   0  0  0  0  0  0  0  0  0  0  0  0
    6.5259    2.9541    0.0000 H   0  0  0  0  0  0  0  0  0  0  0  0
    3.7272   -2.9565    0.0000 H   0  0  0  0  0  0  0  0  0  0  0  0
    4.3496   -3.5741    0.0000 H   0  0  0  0  0  0  0  0  0  0  0  0
    4.9672   -2.9517    0.0000 H   0  0  0  0  0  0  0  0  0  0  0  0
    2.0000   -1.5962    0.0000 H   0  0  0  0  0  0  0  0  0  0  0  0
   10.4658    2.5661    0.0000 H   0  0  0  0  0  0  0  0  0  0  0  0
   10.2388    3.4131    0.0000 H   0  0  0  0  0  0  0  0  0  0  0  0
    9.3919    3.1861    0.0000 H   0  0  0  0  0  0  0  0  0  0  0  0
   11.4050    0.8468    0.0000 H   0  0  0  0  0  0  0  0  0  0  0  0
   11.7090   -1.2656    0.0000 H   0  0  0  0  0  0  0  0  0  0  0  0
   12.3458   -1.8684    0.0000 H   0  0  0  0  0  0  0  0  0  0  0  0
   12.9486   -1.2317    0.0000 H   0  0  0  0  0  0  0  0  0  0  0  0
   13.1487   -0.9021    0.0000 H   0  0  0  0  0  0  0  0  0  0  0  0
   14.0015   -1.1057    0.0000 H   0  0  0  0  0  0  0  0  0  0  0  0
   14.2052   -0.2529    0.0000 H   0  0  0  0  0  0  0  0  0  0  0  0
   13.1581    1.4511    0.0000 H   0  0  0  0  0  0  0  0  0  0  0  0
   12.3053    1.6548    0.0000 H   0  0  0  0  0  0  0  0  0  0  0  0
   12.1016    0.8019    0.0000 H   0  0  0  0  0  0  0  0  0  0  0  0
   16.0614    0.3173    0.0000 H   0  0  0  0  0  0  0  0  0  0  0  0
   16.2651    1.1701    0.0000 H   0  0  0  0  0  0  0  0  0  0  0  0
   15.4122    1.3738    0.0000 H   0  0  0  0  0  0  0  0  0  0  0  0
  1 18  1  0  0  0  0
  1 22  1  0  0  0  0
  2 19  1  0  0  0  0
  2 30  1  0  0  0  0
 20  3  1  1  0  0  0
  3 60  1  0  0  0  0
 23  4  1  6  0  0  0
  4 61  1  0  0  0  0
 25  5  1  1  0  0  0
  5 34  1  0  0  0  0
  6 29  1  0  0  0  0
  6 35  1  0  0  0  0
  7 29  2  0  0  0  0
  8 30  2  0  0  0  0
  9 32  1  0  0  0  0
  9 65  1  0  0  0  0
 10 31  2  0  0  0  0
 11 34  2  0  0  0  0
 12 38  1  0  0  0  0
 12 42  1  0  0  0  0
 13 42  2  0  0  0  0
 14 15  1  0  0  0  0
 14 16  1  0  0  0  0
 14 19  1  0  0  0  0
 14 22  1  1  0  0  0
 15 17  1  0  0  0  0
 15 20  1  0  0  0  0
 15 44  1  6  0  0  0
 16 18  1  0  0  0  0
 16 25  1  0  0  0  0
 16 45  1  1  0  0  0
 17 21  1  0  0  0  0
 17 26  1  0  0  0  0
 17 27  1  1  0  0  0
 18 23  1  0  0  0  0
 18 29  1  1  0  0  0
 19 24  1  0  0  0  0
 19 46  1  1  0  0  0
 20 23  1  0  0  0  0
 20 47  1  0  0  0  0
 21 24  1  0  0  0  0
 21 28  1  0  0  0  0
 21 48  1  6  0  0  0
 22 49  1  0  0  0  0
 22 50  1  0  0  0  0
 23 51  1  0  0  0  0
 24 52  1  0  0  0  0
 24 53  1  0  0  0  0
 25 30  1  0  0  0  0
 25 54  1  0  0  0  0
 26 31  1  0  0  0  0
 26 55  1  0  0  0  0
 26 56  1  0  0  0  0
 27 57  1  0  0  0  0
 27 58  1  0  0  0  0
 27 59  1  0  0  0  0
 28 32  2  0  0  0  0
 28 33  1  0  0  0  0
 31 32  1  0  0  0  0
 33 62  1  0  0  0  0
 33 63  1  0  0  0  0
 33 64  1  0  0  0  0
 34 36  1  0  0  0  0
 35 66  1  0  0  0  0
 35 67  1  0  0  0  0
 35 68  1  0  0  0  0
 36 37  2  0  0  0  0
 36 69  1  0  0  0  0
 37 38  1  0  0  0  0
 37 39  1  0  0  0  0
 38 40  1  0  0  0  0
 38 41  1  0  0  0  0
 39 70  1  0  0  0  0
 39 71  1  0  0  0  0
 39 72  1  0  0  0  0
 40 73  1  0  0  0  0
 40 74  1  0  0  0  0
 40 75  1  0  0  0  0
 41 76  1  0  0  0  0
 41 77  1  0  0  0  0
 41 78  1  0  0  0  0
 42 43  1  0  0  0  0
 43 79  1  0  0  0  0
 43 80  1  0  0  0  0
 43 81  1  0  0  0  0
M  END
> <PUBCHEM_COMPOUND_CID>
5281305

> <PUBCHEM_COMPOUND_CANONICALIZED>
1

> <PUBCHEM_CACTVS_COMPLEXITY>
1360

> <PUBCHEM_CACTVS_HBOND_ACCEPTOR>
13

> <PUBCHEM_CACTVS_HBOND_DONOR>
3

> <PUBCHEM_CACTVS_ROTATABLE_BOND>
8

> <PUBCHEM_CACTVS_SUBSKEYS>
AAADcfB4PAAAAAAAAAAAAAAAAAAAASAAAAA0YIEABIAAAEjQAAAAGgAACAAAD1SggAICCAAABgCIAqDSCAIAAAAgIAAACAFAAEgBFBYAIQQCUAAFoAALIQPK7vzPgAAAAAAAAADAAAYQADCAAAAAAAAAAA==

> <PUBCHEM_IUPAC_INCHI>
InChI=1S/C30H38O13/c1-12(27(4,5)43-14(3)31)8-18(33)42-21-23-29-11-40-30(23,26(38)39-7)24(36)20(35)22(29)28(6)10-16(32)19(34)13(2)15(28)9-17(29)41-25(21)37/h8,15,17,20-24,34-36H,9-11H2,1-7H3/b12-8+/t15-,17+,20+,21+,22+,23+,24-,28-,29+,30-/m0/s1

> <PUBCHEM_IUPAC_INCHIKEY>
SREUSBYRKOPNJK-AJPRWBMOSA-N

> <PUBCHEM_XLOGP3>
0.8

> <PUBCHEM_EXACT_MASS>
606.231241

> <PUBCHEM_MOLECULAR_FORMULA>
C30H38O13

> <PUBCHEM_MOLECULAR_WEIGHT>
606.61492

> <PUBCHEM_OPENEYE_CAN_SMILES>
CC1=C(C(=O)CC2(C1CC3C45C2C(C(C(C4C(C(=O)O3)OC(=O)C=C(C)C(C)(C)OC(=O)C)(OC5)C(=O)OC)O)O)C)O

> <PUBCHEM_OPENEYE_ISO_SMILES>
CC1=C(C(=O)C[C@]2([C@H]1C[C@@H]3[C@]45[C@@H]2[C@H]([C@@H]([C@]([C@@H]4[C@H](C(=O)O3)OC(=O)/C=C(\C)/C(C)(C)OC(=O)C)(OC5)C(=O)OC)O)O)C)O

> <PUBCHEM_CACTVS_TPSA>
192

> <PUBCHEM_MONOISOTOPIC_WEIGHT>
606.231241

> <PUBCHEM_TOTAL_CHARGE>
0

> <PUBCHEM_HEAVY_ATOM_COUNT>
43

> <PUBCHEM_ATOM_DEF_STEREO_COUNT>
10

> <PUBCHEM_ATOM_UDEF_STEREO_COUNT>
0

> <PUBCHEM_BOND_DEF_STEREO_COUNT>
1

> <PUBCHEM_BOND_UDEF_STEREO_COUNT>
0

> <PUBCHEM_ISOTOPIC_ATOM_COUNT>
0

> <PUBCHEM_COMPONENT_COUNT>
1

> <PUBCHEM_CACTVS_TAUTO_COUNT>
34

> <PUBCHEM_COORDINATE_TYPE>
1
5
255

> <PUBCHEM_BONDANNOTATIONS>
14  22  5
15  44  6
16  45  5
17  27  5
18  29  5
19  46  5
21  48  6
20  3  5
23  4  6
25  5  5

$$$$

