195786
  -OEChem-07051213122D

 36 38  0     0  0  0  0  0  0999 V2000
    6.0682    1.2277    0.0000 O   0  0  0  0  0  0  0  0  0  0  0  0
    6.0682   -2.7722    0.0000 O   0  0  0  0  0  0  0  0  0  0  0  0
    9.5984   -1.7964    0.0000 O   0  0  0  0  0  0  0  0  0  0  0  0
    4.3198    1.2623    0.0000 O   0  0  0  0  0  0  0  0  0  0  0  0
    2.5381   -1.7964    0.0000 O   0  0  0  0  0  0  0  0  0  0  0  0
    6.9343   -0.2723    0.0000 C   0  0  0  0  0  0  0  0  0  0  0  0
    7.8282    0.2624    0.0000 C   0  0  0  0  0  0  0  0  0  0  0  0
    6.9343   -1.2723    0.0000 C   0  0  0  0  0  0  0  0  0  0  0  0
    7.8167    1.2623    0.0000 C   0  0  0  0  0  0  0  0  0  0  0  0
    5.2022   -0.2723    0.0000 C   0  0  0  0  0  0  0  0  0  0  0  0
    6.0682    0.2277    0.0000 C   0  0  0  0  0  0  0  0  0  0  0  0
    5.2022   -1.2723    0.0000 C   0  0  0  0  0  0  0  0  0  0  0  0
    6.0682   -1.7722    0.0000 C   0  0  0  0  0  0  0  0  0  0  0  0
    8.6768    1.7723    0.0000 C   0  0  0  0  0  0  0  0  0  0  0  0
    8.7343   -0.2514    0.0000 C   0  0  0  0  0  0  0  0  0  0  0  0
    7.8282   -1.8069    0.0000 C   0  0  0  0  0  0  0  0  0  0  0  0
    8.7343   -1.2931    0.0000 C   0  0  0  0  0  0  0  0  0  0  0  0
    4.3083    0.2624    0.0000 C   0  0  0  0  0  0  0  0  0  0  0  0
    4.3083   -1.8069    0.0000 C   0  0  0  0  0  0  0  0  0  0  0  0
    8.6653    2.7722    0.0000 C   0  0  0  0  0  0  0  0  0  0  0  0
    3.4022   -1.2931    0.0000 C   0  0  0  0  0  0  0  0  0  0  0  0
    3.4022   -0.2514    0.0000 C   0  0  0  0  0  0  0  0  0  0  0  0
    7.5979    1.8425    0.0000 H   0  0  0  0  0  0  0  0  0  0  0  0
    7.2074    1.1476    0.0000 H   0  0  0  0  0  0  0  0  0  0  0  0
    8.8956    1.1922    0.0000 H   0  0  0  0  0  0  0  0  0  0  0  0
    9.2861    1.8870    0.0000 H   0  0  0  0  0  0  0  0  0  0  0  0
    9.2700    0.0606    0.0000 H   0  0  0  0  0  0  0  0  0  0  0  0
    7.8210   -2.4269    0.0000 H   0  0  0  0  0  0  0  0  0  0  0  0
    4.3154   -2.4269    0.0000 H   0  0  0  0  0  0  0  0  0  0  0  0
    9.2852    2.7794    0.0000 H   0  0  0  0  0  0  0  0  0  0  0  0
    8.6581    3.3922    0.0000 H   0  0  0  0  0  0  0  0  0  0  0  0
    8.0453    2.7651    0.0000 H   0  0  0  0  0  0  0  0  0  0  0  0
    2.8665    0.0606    0.0000 H   0  0  0  0  0  0  0  0  0  0  0  0
   10.1365   -1.4885    0.0000 H   0  0  0  0  0  0  0  0  0  0  0  0
    3.7865    1.5785    0.0000 H   0  0  0  0  0  0  0  0  0  0  0  0
    2.0000   -1.4885    0.0000 H   0  0  0  0  0  0  0  0  0  0  0  0
  1 11  2  0  0  0  0
  2 13  2  0  0  0  0
  3 17  1  0  0  0  0
  3 34  1  0  0  0  0
  4 18  1  0  0  0  0
  4 35  1  0  0  0  0
  5 21  1  0  0  0  0
  5 36  1  0  0  0  0
  6  7  2  0  0  0  0
  6  8  1  0  0  0  0
  6 11  1  0  0  0  0
  7  9  1  0  0  0  0
  7 15  1  0  0  0  0
  8 13  1  0  0  0  0
  8 16  2  0  0  0  0
  9 14  1  0  0  0  0
  9 23  1  0  0  0  0
  9 24  1  0  0  0  0
 10 11  1  0  0  0  0
 10 12  2  0  0  0  0
 10 18  1  0  0  0  0
 12 13  1  0  0  0  0
 12 19  1  0  0  0  0
 14 20  1  0  0  0  0
 14 25  1  0  0  0  0
 14 26  1  0  0  0  0
 15 17  2  0  0  0  0
 15 27  1  0  0  0  0
 16 17  1  0  0  0  0
 16 28  1  0  0  0  0
 18 22  2  0  0  0  0
 19 21  2  0  0  0  0
 19 29  1  0  0  0  0
 20 30  1  0  0  0  0
 20 31  1  0  0  0  0
 20 32  1  0  0  0  0
 21 22  1  0  0  0  0
 22 33  1  0  0  0  0
M  END
> <PUBCHEM_COMPOUND_CID>
195786

> <PUBCHEM_COMPOUND_CANONICALIZED>
1

> <PUBCHEM_CACTVS_COMPLEXITY>
462

> <PUBCHEM_CACTVS_HBOND_ACCEPTOR>
5

> <PUBCHEM_CACTVS_HBOND_DONOR>
3

> <PUBCHEM_CACTVS_ROTATABLE_BOND>
2

> <PUBCHEM_CACTVS_SUBSKEYS>
AAADccB4OAAAAAAAAAAAAAAAAAAAAAAAAAAwYMAAAAAAAADBQAAAGgAACAAADASAmAAyBoAAAgCIAqBSAAACAAAkIAAAiAEGCMgIJzaCFRKAcUAl4BUImYeL7PTOoAADCAAYAADAAAYQADAAAAAAAAAAAA==

> <PUBCHEM_IUPAC_OPENEYE_NAME>
1,3,6-trihydroxy-8-propyl-anthracene-9,10-dione

> <PUBCHEM_IUPAC_CAS_NAME>
1,3,6-trihydroxy-8-propylanthracene-9,10-dione

> <PUBCHEM_IUPAC_NAME>
1,3,6-trihydroxy-8-propylanthracene-9,10-dione

> <PUBCHEM_IUPAC_SYSTEMATIC_NAME>
1,3,6-tris(oxidanyl)-8-propyl-anthracene-9,10-dione

> <PUBCHEM_IUPAC_TRADITIONAL_NAME>
1,3,6-trihydroxy-8-propyl-9,10-anthraquinone

> <PUBCHEM_IUPAC_INCHI>
InChI=1S/C17H14O5/c1-2-3-8-4-9(18)5-11-14(8)17(22)15-12(16(11)21)6-10(19)7-13(15)20/h4-7,18-20H,2-3H2,1H3

> <PUBCHEM_IUPAC_INCHIKEY>
JLGHVXJQLZFPRR-UHFFFAOYSA-N

> <PUBCHEM_XLOGP3_AA>
3.7

> <PUBCHEM_EXACT_MASS>
298.084124

> <PUBCHEM_MOLECULAR_FORMULA>
C17H14O5

> <PUBCHEM_MOLECULAR_WEIGHT>
298.29006

> <PUBCHEM_OPENEYE_CAN_SMILES>
CCCC1=C2C(=CC(=C1)O)C(=O)C3=CC(=CC(=C3C2=O)O)O

> <PUBCHEM_OPENEYE_ISO_SMILES>
CCCC1=C2C(=CC(=C1)O)C(=O)C3=CC(=CC(=C3C2=O)O)O

> <PUBCHEM_CACTVS_TPSA>
94.8

> <PUBCHEM_MONOISOTOPIC_WEIGHT>
298.084124

> <PUBCHEM_TOTAL_CHARGE>
0

> <PUBCHEM_HEAVY_ATOM_COUNT>
22

> <PUBCHEM_ATOM_DEF_STEREO_COUNT>
0

> <PUBCHEM_ATOM_UDEF_STEREO_COUNT>
0

> <PUBCHEM_BOND_DEF_STEREO_COUNT>
0

> <PUBCHEM_BOND_UDEF_STEREO_COUNT>
0

> <PUBCHEM_ISOTOPIC_ATOM_COUNT>
0

> <PUBCHEM_COMPONENT_COUNT>
1

> <PUBCHEM_CACTVS_TAUTO_COUNT>
998

> <PUBCHEM_COORDINATE_TYPE>
1
5
255

> <PUBCHEM_BONDANNOTATIONS>
10  12  8
10  18  8
12  19  8
15  17  8
16  17  8
18  22  8
19  21  8
21  22  8
6  7  8
6  8  8
7  15  8
8  16  8

$$$$

