3802
  -OEChem-06251223413D

 44 47  0     0  0  0  0  0  0999 V2000
   -1.3689   -1.0647    0.3744 N   0  0  0  0  0  0  0  0  0  0  0  0
   -4.1267   -1.7736    0.2512 N   0  0  0  0  0  0  0  0  0  0  0  0
    0.8552   -1.4031    0.0776 N   0  0  0  0  0  0  0  0  0  0  0  0
    2.3093    1.1050    0.8223 N   0  0  0  0  0  0  0  0  0  0  0  0
    4.2914   -0.0227    0.3131 N   0  0  0  0  0  0  0  0  0  0  0  0
   -1.7589   -2.3990   -0.0795 C   0  0  0  0  0  0  0  0  0  0  0  0
   -2.3306   -0.4076    1.2585 C   0  0  0  0  0  0  0  0  0  0  0  0
   -3.1609   -2.3581   -0.6904 C   0  0  0  0  0  0  0  0  0  0  0  0
   -3.7203   -0.4095    0.6186 C   0  0  0  0  0  0  0  0  0  0  0  0
   -0.1270   -0.5503    0.1394 C   0  0  0  0  0  0  0  0  0  0  0  0
   -0.0249    0.9332   -0.0033 C   0  0  0  0  0  0  0  0  0  0  0  0
   -5.4703   -1.7718   -0.3256 C   0  0  0  0  0  0  0  0  0  0  0  0
    1.0836    1.6651    0.4339 C   0  0  0  0  0  0  0  0  0  0  0  0
   -1.1480    1.6170   -0.5133 C   0  0  0  0  0  0  0  0  0  0  0  0
    2.2159   -1.1620   -0.1049 C   0  0  0  0  0  0  0  0  0  0  0  0
   -1.1931    3.0099   -0.5494 C   0  0  0  0  0  0  0  0  0  0  0  0
    1.0060    3.0761    0.4089 C   0  0  0  0  0  0  0  0  0  0  0  0
    2.9282   -0.0558    0.3501 C   0  0  0  0  0  0  0  0  0  0  0  0
   -0.1187    3.7430   -0.0727 C   0  0  0  0  0  0  0  0  0  0  0  0
    2.9527   -2.2264   -0.6517 C   0  0  0  0  0  0  0  0  0  0  0  0
   -2.3877    3.7067   -1.1071 C   0  0  0  0  0  0  0  0  0  0  0  0
    4.3364   -2.1840   -0.7283 C   0  0  0  0  0  0  0  0  0  0  0  0
    4.9572   -1.0674   -0.2218 C   0  0  0  0  0  0  0  0  0  0  0  0
   -1.7291   -3.0939    0.7687 H   0  0  0  0  0  0  0  0  0  0  0  0
   -1.0671   -2.7819   -0.8393 H   0  0  0  0  0  0  0  0  0  0  0  0
   -2.0548    0.6026    1.5740 H   0  0  0  0  0  0  0  0  0  0  0  0
   -2.3703   -0.9841    2.1933 H   0  0  0  0  0  0  0  0  0  0  0  0
   -3.1372   -1.7825   -1.6256 H   0  0  0  0  0  0  0  0  0  0  0  0
   -3.4575   -3.3833   -0.9428 H   0  0  0  0  0  0  0  0  0  0  0  0
   -4.4282   -0.0049    1.3526 H   0  0  0  0  0  0  0  0  0  0  0  0
   -3.7607    0.2481   -0.2557 H   0  0  0  0  0  0  0  0  0  0  0  0
   -6.1961   -1.3728    0.3917 H   0  0  0  0  0  0  0  0  0  0  0  0
   -5.7894   -2.7938   -0.5591 H   0  0  0  0  0  0  0  0  0  0  0  0
   -5.5280   -1.1747   -1.2430 H   0  0  0  0  0  0  0  0  0  0  0  0
   -1.9715    1.0704   -0.9597 H   0  0  0  0  0  0  0  0  0  0  0  0
    2.9765    1.7745    1.1945 H   0  0  0  0  0  0  0  0  0  0  0  0
    1.8529    3.6726    0.7456 H   0  0  0  0  0  0  0  0  0  0  0  0
   -0.1294    4.8291   -0.0893 H   0  0  0  0  0  0  0  0  0  0  0  0
    2.4367   -3.1185   -1.0025 H   0  0  0  0  0  0  0  0  0  0  0  0
   -3.3059    3.1571   -0.8732 H   0  0  0  0  0  0  0  0  0  0  0  0
   -2.4982    4.7102   -0.6822 H   0  0  0  0  0  0  0  0  0  0  0  0
   -2.2973    3.7961   -2.1941 H   0  0  0  0  0  0  0  0  0  0  0  0
    4.9030   -3.0070   -1.1468 H   0  0  0  0  0  0  0  0  0  0  0  0
    6.0376   -0.9730   -0.2313 H   0  0  0  0  0  0  0  0  0  0  0  0
  1  6  1  0  0  0  0
  1  7  1  0  0  0  0
  1 10  1  0  0  0  0
  2  8  1  0  0  0  0
  2  9  1  0  0  0  0
  2 12  1  0  0  0  0
  3 10  2  0  0  0  0
  3 15  1  0  0  0  0
  4 13  1  0  0  0  0
  4 18  1  0  0  0  0
  4 36  1  0  0  0  0
  5 18  1  0  0  0  0
  5 23  2  0  0  0  0
  6  8  1  0  0  0  0
  6 24  1  0  0  0  0
  6 25  1  0  0  0  0
  7  9  1  0  0  0  0
  7 26  1  0  0  0  0
  7 27  1  0  0  0  0
  8 28  1  0  0  0  0
  8 29  1  0  0  0  0
  9 30  1  0  0  0  0
  9 31  1  0  0  0  0
 10 11  1  0  0  0  0
 11 13  2  0  0  0  0
 11 14  1  0  0  0  0
 12 32  1  0  0  0  0
 12 33  1  0  0  0  0
 12 34  1  0  0  0  0
 13 17  1  0  0  0  0
 14 16  2  0  0  0  0
 14 35  1  0  0  0  0
 15 18  2  0  0  0  0
 15 20  1  0  0  0  0
 16 19  1  0  0  0  0
 16 21  1  0  0  0  0
 17 19  2  0  0  0  0
 17 37  1  0  0  0  0
 19 38  1  0  0  0  0
 20 22  2  0  0  0  0
 20 39  1  0  0  0  0
 21 40  1  0  0  0  0
 21 41  1  0  0  0  0
 21 42  1  0  0  0  0
 22 23  1  0  0  0  0
 22 43  1  0  0  0  0
 23 44  1  0  0  0  0
M  END
> <PUBCHEM_COMPOUND_CID>
3802

> <PUBCHEM_CONFORMER_RMSD>
0.6

> <PUBCHEM_CONFORMER_DIVERSEORDER>
1
7
3
8
2
6
4
5

> <PUBCHEM_MMFF94_PARTIAL_CHARGES>
30
1 -0.79
10 0.41
11 0.09
12 0.27
13 0.1
14 -0.15
15 0.18
16 -0.14
17 -0.15
18 0.41
19 -0.15
2 -0.81
20 -0.15
21 0.14
22 -0.15
23 0.16
3 -0.63
35 0.15
36 0.4
37 0.15
38 0.15
39 0.15
4 -0.6
43 0.15
44 0.15
5 -0.62
6 0.37
7 0.37
8 0.27
9 0.27

> <PUBCHEM_EFFECTIVE_ROTOR_COUNT>
2.4

> <PUBCHEM_PHARMACOPHORE_FEATURES>
9
1 2 cation
1 4 cation
1 4 donor
1 5 acceptor
3 1 3 10 cation
6 1 2 6 7 8 9 rings
6 11 13 14 16 17 19 rings
6 5 15 18 20 22 23 rings
7 3 4 10 11 13 15 18 rings

> <PUBCHEM_HEAVY_ATOM_COUNT>
23

> <PUBCHEM_ATOM_DEF_STEREO_COUNT>
0

> <PUBCHEM_ATOM_UDEF_STEREO_COUNT>
0

> <PUBCHEM_BOND_DEF_STEREO_COUNT>
0

> <PUBCHEM_BOND_UDEF_STEREO_COUNT>
0

> <PUBCHEM_ISOTOPIC_ATOM_COUNT>
0

> <PUBCHEM_COMPONENT_COUNT>
1

> <PUBCHEM_CACTVS_TAUTO_COUNT>
4

> <PUBCHEM_CONFORMER_ID>
00000EDA00000001

> <PUBCHEM_MMFF94_ENERGY>
98.8094

> <PUBCHEM_FEATURE_SELFOVERLAP>
45.687

> <PUBCHEM_SHAPE_FINGERPRINT>
10319926 262 18049466987424165162
10411042 1 18410855451570343443
10688039 33 18343863311991070351
10906281 52 18055910996660428216
10967382 1 18194683657346237752
11578080 2 17025189317137586857
116883 192 18411985745286531357
12403259 226 18408889529232739171
12553582 1 18339633448010043370
12788726 201 18272652385035947530
13009979 54 17969203574128903139
13140716 1 17905900171390936384
13540713 4 18189064251844766520
13583140 156 14707496957005661947
138480 1 15168263049827524176
14790565 3 17688302812718243536
15042514 8 18267025153259959234
15081414 286 18196934379577039597
15420108 30 17254576902067990072
15848702 151 18333448716520779995
16087824 20 18267021838273915045
16752209 62 18200035178091560858
17357779 13 18339936964558243037
17980427 23 17603573128779843209
1813 80 18412538782376253746
18335252 114 18339093601693133503
19141452 34 18259979396945023675
19591789 44 18338233876791669795
20739085 24 17980491057051528024
21049683 271 18125988382740362540
21267235 1 18335128757482559451
21285901 2 18334287695226750255
21478907 32 18338518650266730210
21524375 3 17264684102438920202
21641784 216 18058429007295115484
221490 88 18052251795982584107
22182313 1 18263382368327026216
23352939 185 18261663788581579976
23419403 2 17749974213681881937
23557571 272 18336256955576259142
23559900 14 18118408349847811955
2748010 2 18336561498537609656
3091708 16 9353103955056097368
3380486 145 18193255598301205025
3421961 26 18264489490193394761
352729 6 17761493986163687690
4409770 3 18196654227238818069
6443956 14 18340207367082851589
68521 5 18341610455510013111
7164475 11 18341322401345051230
7237137 82 18269539689514153692
7364860 26 18048877394664537961
81228 2 18272079543603791432
9709674 26 17973727175666708798

> <PUBCHEM_SHAPE_MULTIPOLES>
448.42
8.47
4.52
0.9
1.19
4.3
0.01
-8.07
-0.78
-2.57
-1.15
-0.24
0.13
1.1

> <PUBCHEM_SHAPE_SELFOVERLAP>
977.036

> <PUBCHEM_SHAPE_VOLUME>
236.8

> <PUBCHEM_COORDINATE_TYPE>
2
5
10

$$$$

