1786
  -OEChem-07051212513D

 45 47  0     0  0  0  0  0  0999 V2000
   -0.9105   -0.2727    1.3750 O   0  0  0  0  0  0  0  0  0  0  0  0
    6.9776    0.7731    0.6134 O   0  0  0  0  0  0  0  0  0  0  0  0
   -6.9337   -1.1264   -0.2913 O   0  0  0  0  0  0  0  0  0  0  0  0
   -6.8265    1.0847   -0.8633 N   0  0  0  0  0  0  0  0  0  0  0  0
    8.2038    0.1223    0.5510 N   0  0  0  0  0  0  0  0  0  0  0  0
    2.4526    0.8043    0.0917 C   0  0  0  0  0  0  0  0  0  0  0  0
    3.8363    0.1558    0.1599 C   0  0  0  0  0  0  0  0  0  0  0  0
    1.3971   -0.0664    0.7700 C   0  0  0  0  0  0  0  0  0  0  0  0
    4.8879    1.0138   -0.5493 C   0  0  0  0  0  0  0  0  0  0  0  0
    0.0247    0.5913    0.7442 C   0  0  0  0  0  0  0  0  0  0  0  0
    6.2604    0.3966   -0.4543 C   0  0  0  0  0  0  0  0  0  0  0  0
    6.9234   -0.4690   -1.2374 C   0  0  0  0  0  0  0  0  0  0  0  0
   -2.2095   -0.1988    0.9437 C   0  0  0  0  0  0  0  0  0  0  0  0
   -4.8452   -0.0483    0.0725 C   0  0  0  0  0  0  0  0  0  0  0  0
    8.1481   -0.6138   -0.5627 C   0  0  0  0  0  0  0  0  0  0  0  0
   -6.2391    0.0324   -0.3877 C   0  0  0  0  0  0  0  0  0  0  0  0
   -2.7045    1.0045    0.4545 C   0  0  0  0  0  0  0  0  0  0  0  0
   -3.0185   -1.3276    1.0019 C   0  0  0  0  0  0  0  0  0  0  0  0
   -4.0270    1.0800    0.0174 C   0  0  0  0  0  0  0  0  0  0  0  0
   -4.3409   -1.2521    0.5647 C   0  0  0  0  0  0  0  0  0  0  0  0
   -8.1496   -0.8704   -0.9762 C   0  0  0  0  0  0  0  0  0  0  0  0
   -8.2043    0.6350   -1.0894 C   0  0  0  0  0  0  0  0  0  0  0  0
    9.2976   -1.4482   -0.9481 C   0  0  0  0  0  0  0  0  0  0  0  0
    2.1743    0.9685   -0.9564 H   0  0  0  0  0  0  0  0  0  0  0  0
    2.4856    1.7879    0.5757 H   0  0  0  0  0  0  0  0  0  0  0  0
    4.1224    0.0094    1.2093 H   0  0  0  0  0  0  0  0  0  0  0  0
    3.8011   -0.8402   -0.2995 H   0  0  0  0  0  0  0  0  0  0  0  0
    1.6818   -0.2680    1.8103 H   0  0  0  0  0  0  0  0  0  0  0  0
    1.3416   -1.0463    0.2791 H   0  0  0  0  0  0  0  0  0  0  0  0
    4.9129    2.0187   -0.1105 H   0  0  0  0  0  0  0  0  0  0  0  0
    4.6226    1.1328   -1.6068 H   0  0  0  0  0  0  0  0  0  0  0  0
    0.0547    1.5444    1.2848 H   0  0  0  0  0  0  0  0  0  0  0  0
   -0.2376    0.7754   -0.3059 H   0  0  0  0  0  0  0  0  0  0  0  0
    6.5944   -0.9347   -2.1543 H   0  0  0  0  0  0  0  0  0  0  0  0
   -2.1100    1.9122    0.4217 H   0  0  0  0  0  0  0  0  0  0  0  0
   -2.6292   -2.2667    1.3848 H   0  0  0  0  0  0  0  0  0  0  0  0
   -8.9963   -1.2738   -0.4134 H   0  0  0  0  0  0  0  0  0  0  0  0
   -8.1113   -1.3559   -1.9571 H   0  0  0  0  0  0  0  0  0  0  0  0
   -8.5747    0.9514   -2.0692 H   0  0  0  0  0  0  0  0  0  0  0  0
   -8.8571    1.0664   -0.3224 H   0  0  0  0  0  0  0  0  0  0  0  0
   -4.4003    2.0299   -0.3562 H   0  0  0  0  0  0  0  0  0  0  0  0
   -4.9492   -2.1504    0.6224 H   0  0  0  0  0  0  0  0  0  0  0  0
   10.1900   -0.8320   -1.0997 H   0  0  0  0  0  0  0  0  0  0  0  0
    9.5176   -2.1872   -0.1707 H   0  0  0  0  0  0  0  0  0  0  0  0
    9.1024   -1.9898   -1.8794 H   0  0  0  0  0  0  0  0  0  0  0  0
  1 10  1  0  0  0  0
  1 13  1  0  0  0  0
  2  5  1  0  0  0  0
  2 11  1  0  0  0  0
  3 16  1  0  0  0  0
  3 21  1  0  0  0  0
  4 16  2  0  0  0  0
  4 22  1  0  0  0  0
  5 15  2  0  0  0  0
  6  7  1  0  0  0  0
  6  8  1  0  0  0  0
  6 24  1  0  0  0  0
  6 25  1  0  0  0  0
  7  9  1  0  0  0  0
  7 26  1  0  0  0  0
  7 27  1  0  0  0  0
  8 10  1  0  0  0  0
  8 28  1  0  0  0  0
  8 29  1  0  0  0  0
  9 11  1  0  0  0  0
  9 30  1  0  0  0  0
  9 31  1  0  0  0  0
 10 32  1  0  0  0  0
 10 33  1  0  0  0  0
 11 12  2  0  0  0  0
 12 15  1  0  0  0  0
 12 34  1  0  0  0  0
 13 17  2  0  0  0  0
 13 18  1  0  0  0  0
 14 16  1  0  0  0  0
 14 19  2  0  0  0  0
 14 20  1  0  0  0  0
 15 23  1  0  0  0  0
 17 19  1  0  0  0  0
 17 35  1  0  0  0  0
 18 20  2  0  0  0  0
 18 36  1  0  0  0  0
 19 41  1  0  0  0  0
 20 42  1  0  0  0  0
 21 22  1  0  0  0  0
 21 37  1  0  0  0  0
 21 38  1  0  0  0  0
 22 39  1  0  0  0  0
 22 40  1  0  0  0  0
 23 43  1  0  0  0  0
 23 44  1  0  0  0  0
 23 45  1  0  0  0  0
M  END
> <PUBCHEM_COMPOUND_CID>
1786

> <PUBCHEM_CONFORMER_RMSD>
1

> <PUBCHEM_CONFORMER_DIVERSEORDER>
1
189
566
29
356
89
387
227
716
247
639
58
132
52
560
62
224
67
211
249
54
238
622
307
123
274
151
177
35
410
203
700
27
36
12
245
432
199
393
40
11
466
74
34
125
599
156
444
210
21
293
95
10
185
3
92
322
232
426
186
662
108
64
527
46
314
44
4
255
296
53
49
59
717
131
539
14
313
647
144
495
24
335
91
666
295
477
118
294
743
657
111
474
93
710
8
600
512
281
87
310
30
167
463
332
561
605
19
478
159
667
157
222
5
722
195
270
88
268
18
543
17
692
194
668
480
25
78
500
389
714
711
519

> <PUBCHEM_MMFF94_PARTIAL_CHARGES>
25
1 -0.36
10 0.28
11 -0.04
12 -0.15
13 0.08
14 0.09
15 0.11
16 0.51
17 -0.15
18 -0.15
19 -0.15
2 -0.02
20 -0.15
21 0.28
22 0.25
23 0.18
3 -0.43
34 0.15
35 0.15
36 0.15
4 -0.7
41 0.15
42 0.15
5 -0.41
9 0.18

> <PUBCHEM_EFFECTIVE_ROTOR_COUNT>
8.6

> <PUBCHEM_PHARMACOPHORE_FEATURES>
6
1 1 acceptor
1 5 acceptor
4 6 7 8 9 hydrophobe
5 2 5 11 12 15 rings
5 3 4 16 21 22 rings
6 13 14 17 18 19 20 rings

> <PUBCHEM_HEAVY_ATOM_COUNT>
23

> <PUBCHEM_ATOM_DEF_STEREO_COUNT>
0

> <PUBCHEM_ATOM_UDEF_STEREO_COUNT>
0

> <PUBCHEM_BOND_DEF_STEREO_COUNT>
0

> <PUBCHEM_BOND_UDEF_STEREO_COUNT>
0

> <PUBCHEM_ISOTOPIC_ATOM_COUNT>
0

> <PUBCHEM_COMPONENT_COUNT>
1

> <PUBCHEM_CACTVS_TAUTO_COUNT>
1

> <PUBCHEM_CONFORMER_ID>
000006FA00000001

> <PUBCHEM_MMFF94_ENERGY>
45.3002

> <PUBCHEM_FEATURE_SELFOVERLAP>
30.446

> <PUBCHEM_SHAPE_FINGERPRINT>
10 15 10375874073639128921
10066227 49 18114740538156191494
10299344 5 5039949654574834552
106641 1 6843919469115059742
10670039 82 18201723981298554237
11135609 127 17845366662642188412
11315181 36 18408879612264211273
11638347 137 14129333023601244444
11719270 70 18335420184478685126
12082328 90 17676768764096635901
12643181 29 16588028983535062943
13073987 5 6483090513519308952
13177829 20 7060375925112758786
13668630 136 17385720296502746910
13885169 127 17821725070120101169
13964095 4 18131351903798260057
14123256 10 18040152915979660503
14251764 18 17418098727749726888
14251764 46 16805603668121441964
14617042 71 10591744482489454126
14849402 71 7204475733428595970
14933364 13 10952050040273809962
15183329 4 17989485234545169792
15461852 350 16630520705454236715
15510794 2 18334013900700772298
155225 1 15482677897059509245
15690457 1 16877943850107642926
15706992 2 15985101955975755013
15716309 27 13839980028090750920
2026 5 17458898357910624382
21095123 293 14333408960557107894
21130935 74 6194300490159923444
21150785 3 18040155114844608410
21315763 28 17966968335856914464
21585482 111 15553901004505383509
21792961 116 18341607123142984107
22224240 67 8214142953956247764
23559900 14 18189901924337808177
246663 6 16081087073620278341
249057 3 18131068203701474909
28498 318 18343863329909534590
3663271 9 6194574264323276854
3711267 37 13686291405299670982
4325135 7 17418094325719426412
437795 150 18199472052952848399
437795 83 15841008740736451455
5758199 1 9151175346428525620
5969126 39 16950562207644686649
6201320 82 16843903060854937629
636775 8 17917428667806883171
6394761 36 17060619997279733534
9689198 14 11887955449748175580
9953998 17 9511456728354429029
9962374 69 13840282363765939793

> <PUBCHEM_SHAPE_MULTIPOLES>
445.76
32.69
1.24
1.13
30.17
0.18
0.02
6.46
13.76
-0.27
0.06
-0.33
0.12
1.17

> <PUBCHEM_SHAPE_SELFOVERLAP>
938.635

> <PUBCHEM_SHAPE_VOLUME>
252.5

> <PUBCHEM_COORDINATE_TYPE>
2
5
10

$$$$

