443811
  -OEChem-07051213032D

 58 62  0     1  0  0  0  0  0999 V2000
    6.9189    3.1643    0.0000 O   0  0  0  0  0  0  0  0  0  0  0  0
    4.3151    4.6542    0.0000 O   0  0  0  0  0  0  0  0  0  0  0  0
    6.0433    5.6609    0.0000 O   0  0  0  0  0  0  0  0  0  0  0  0
    5.7293   -5.9691    0.0000 O   0  0  0  0  0  0  0  0  0  0  0  0
    4.2889    1.6231    0.0000 O   0  0  0  0  0  0  0  0  0  0  0  0
    7.0009   -2.9538    0.0000 O   0  0  0  0  0  0  0  0  0  0  0  0
    2.5405   -1.4052    0.0000 O   0  0  0  0  0  0  0  0  0  0  0  0
    6.9088   -1.9083    0.0000 O   0  0  0  0  0  0  0  0  0  0  0  0
    3.4446    0.0917    0.0000 O   0  0  0  0  0  0  0  0  0  0  0  0
    6.0548    2.6609    0.0000 C   0  0  2  0  0  0  0  0  0  0  0  0
    5.1869    3.1576    0.0000 C   0  0  0  0  0  0  0  0  0  0  0  0
    5.1830    4.1576    0.0000 C   0  0  2  0  0  0  0  0  0  0  0  0
    6.0471    4.6609    0.0000 C   0  0  1  0  0  0  0  0  0  0  0  0
    6.9151    4.1643    0.0000 C   0  0  1  0  0  0  0  0  0  0  0  0
    5.2260   -5.1050    0.0000 C   0  0  2  0  0  0  0  0  0  0  0  0
    4.2864   -4.5625    0.0000 C   0  0  0  0  0  0  0  0  0  0  0  0
    6.0587    1.6610    0.0000 C   0  0  0  0  0  0  0  0  0  0  0  0
    4.2947   -3.4776    0.0000 C   0  0  0  0  0  0  0  0  0  0  0  0
    6.1614   -4.5553    0.0000 C   0  0  0  0  0  0  0  0  0  0  0  0
    5.1928   -2.9498    0.0000 C   0  0  0  0  0  0  0  0  0  0  0  0
    5.1767   -1.9083    0.0000 C   0  0  0  0  0  0  0  0  0  0  0  0
    6.1447   -3.4704    0.0000 C   0  0  0  0  0  0  0  0  0  0  0  0
    5.1767    0.0917    0.0000 C   0  0  0  0  0  0  0  0  0  0  0  0
    4.3107   -1.4083    0.0000 C   0  0  0  0  0  0  0  0  0  0  0  0
    5.1606    1.1332    0.0000 C   0  0  0  0  0  0  0  0  0  0  0  0
    6.0427   -0.4083    0.0000 C   0  0  0  0  0  0  0  0  0  0  0  0
    7.7792    4.6676    0.0000 C   0  0  0  0  0  0  0  0  0  0  0  0
    4.7293   -5.9730    0.0000 C   0  0  0  0  0  0  0  0  0  0  0  0
    6.0427   -1.4083    0.0000 C   0  0  0  0  0  0  0  0  0  0  0  0
    6.9608    1.1401    0.0000 C   0  0  0  0  0  0  0  0  0  0  0  0
    3.3926   -2.9568    0.0000 C   0  0  0  0  0  0  0  0  0  0  0  0
    4.3107   -0.4083    0.0000 C   0  0  0  0  0  0  0  0  0  0  0  0
    3.4007   -1.9152    0.0000 C   0  0  0  0  0  0  0  0  0  0  0  0
    6.9527    0.0985    0.0000 C   0  0  0  0  0  0  0  0  0  0  0  0
    5.3203    2.2331    0.0000 H   0  0  0  0  0  0  0  0  0  0  0  0
    4.5759    3.2629    0.0000 H   0  0  0  0  0  0  0  0  0  0  0  0
    4.9771    2.5742    0.0000 H   0  0  0  0  0  0  0  0  0  0  0  0
    5.1806    4.7776    0.0000 H   0  0  0  0  0  0  0  0  0  0  0  0
    5.5090    4.9688    0.0000 H   0  0  0  0  0  0  0  0  0  0  0  0
    7.4532    3.8563    0.0000 H   0  0  0  0  0  0  0  0  0  0  0  0
    3.6763   -4.4517    0.0000 H   0  0  0  0  0  0  0  0  0  0  0  0
    4.0728   -5.1446    0.0000 H   0  0  0  0  0  0  0  0  0  0  0  0
    6.3794   -5.1357    0.0000 H   0  0  0  0  0  0  0  0  0  0  0  0
    6.7706   -4.4398    0.0000 H   0  0  0  0  0  0  0  0  0  0  0  0
    8.0912    4.1319    0.0000 H   0  0  0  0  0  0  0  0  0  0  0  0
    8.3149    4.9797    0.0000 H   0  0  0  0  0  0  0  0  0  0  0  0
    7.4671    5.2033    0.0000 H   0  0  0  0  0  0  0  0  0  0  0  0
    4.1912   -5.6650    0.0000 H   0  0  0  0  0  0  0  0  0  0  0  0
    4.4214   -6.5111    0.0000 H   0  0  0  0  0  0  0  0  0  0  0  0
    5.2675   -6.2809    0.0000 H   0  0  0  0  0  0  0  0  0  0  0  0
    7.4989    1.4481    0.0000 H   0  0  0  0  0  0  0  0  0  0  0  0
    2.8545   -3.2647    0.0000 H   0  0  0  0  0  0  0  0  0  0  0  0
    7.4860   -0.2177    0.0000 H   0  0  0  0  0  0  0  0  0  0  0  0
    4.3127    5.2742    0.0000 H   0  0  0  0  0  0  0  0  0  0  0  0
    6.5790    5.9730    0.0000 H   0  0  0  0  0  0  0  0  0  0  0  0
    6.3493   -5.9667    0.0000 H   0  0  0  0  0  0  0  0  0  0  0  0
    3.7556    1.3070    0.0000 H   0  0  0  0  0  0  0  0  0  0  0  0
    2.0000   -1.7090    0.0000 H   0  0  0  0  0  0  0  0  0  0  0  0
  1 10  1  0  0  0  0
  1 14  1  0  0  0  0
 12  2  1  1  0  0  0
  2 54  1  0  0  0  0
 13  3  1  6  0  0  0
  3 55  1  0  0  0  0
 15  4  1  6  0  0  0
  4 56  1  0  0  0  0
  5 25  1  0  0  0  0
  5 57  1  0  0  0  0
  6 22  2  0  0  0  0
  7 33  1  0  0  0  0
  7 58  1  0  0  0  0
  8 29  2  0  0  0  0
  9 32  2  0  0  0  0
 10 11  1  0  0  0  0
 10 17  1  0  0  0  0
 10 35  1  6  0  0  0
 11 12  1  0  0  0  0
 11 36  1  0  0  0  0
 11 37  1  0  0  0  0
 12 13  1  0  0  0  0
 12 38  1  0  0  0  0
 13 14  1  0  0  0  0
 13 39  1  0  0  0  0
 14 27  1  1  0  0  0
 14 40  1  0  0  0  0
 15 16  1  0  0  0  0
 15 19  1  0  0  0  0
 15 28  1  0  0  0  0
 16 18  1  0  0  0  0
 16 41  1  0  0  0  0
 16 42  1  0  0  0  0
 17 25  2  0  0  0  0
 17 30  1  0  0  0  0
 18 20  1  0  0  0  0
 18 31  2  0  0  0  0
 19 22  1  0  0  0  0
 19 43  1  0  0  0  0
 19 44  1  0  0  0  0
 20 21  2  0  0  0  0
 20 22  1  0  0  0  0
 21 24  1  0  0  0  0
 21 29  1  0  0  0  0
 23 25  1  0  0  0  0
 23 26  2  0  0  0  0
 23 32  1  0  0  0  0
 24 32  1  0  0  0  0
 24 33  2  0  0  0  0
 26 29  1  0  0  0  0
 26 34  1  0  0  0  0
 27 45  1  0  0  0  0
 27 46  1  0  0  0  0
 27 47  1  0  0  0  0
 28 48  1  0  0  0  0
 28 49  1  0  0  0  0
 28 50  1  0  0  0  0
 30 34  2  0  0  0  0
 30 51  1  0  0  0  0
 31 33  1  0  0  0  0
 31 52  1  0  0  0  0
 34 53  1  0  0  0  0
M  END
> <PUBCHEM_COMPOUND_CID>
443811

> <PUBCHEM_COMPOUND_CANONICALIZED>
1

> <PUBCHEM_CACTVS_COMPLEXITY>
874

> <PUBCHEM_CACTVS_HBOND_ACCEPTOR>
9

> <PUBCHEM_CACTVS_HBOND_DONOR>
5

> <PUBCHEM_CACTVS_ROTATABLE_BOND>
1

> <PUBCHEM_CACTVS_SUBSKEYS>
AAADceB4PAAAAAAAAAAAAAAAAAAAAAAAAAA0YMGCAAAAAADBQAAAGgAACAAADFSgmAIyBoAABgCIAqBSAAACAAAkIAAIiAEGCMgJNzaCNRqCcUAl4BELuYfL7vTu4AADAAAYAADAAAYAADAAAAAAAAAAAA==

> <PUBCHEM_IUPAC_OPENEYE_NAME>
(3R)-9-[(2R,4R,5S,6R)-4,5-dihydroxy-6-methyl-tetrahydropyran-2-yl]-3,6,8-trihydroxy-3-methyl-2,4-dihydrobenzo[a]anthracene-1,7,12-trione

> <PUBCHEM_IUPAC_CAS_NAME>
(3R)-9-[(2R,4R,5S,6R)-4,5-dihydroxy-6-methyl-2-oxanyl]-3,6,8-trihydroxy-3-methyl-2,4-dihydrobenzo[a]anthracene-1,7,12-trione

> <PUBCHEM_IUPAC_NAME>
(3R)-9-[(2R,4R,5S,6R)-4,5-dihydroxy-6-methyloxan-2-yl]-3,6,8-trihydroxy-3-methyl-2,4-dihydrobenzo[a]anthracene-1,7,12-trione

> <PUBCHEM_IUPAC_SYSTEMATIC_NAME>
(3R)-3-methyl-9-[(2R,4R,5S,6R)-6-methyl-4,5-bis(oxidanyl)oxan-2-yl]-3,6,8-tris(oxidanyl)-2,4-dihydrobenzo[a]anthracene-1,7,12-trione

> <PUBCHEM_IUPAC_TRADITIONAL_NAME>
(3R)-9-[(2R,4R,5S,6R)-4,5-dihydroxy-6-methyl-tetrahydropyran-2-yl]-3,6,8-trihydroxy-3-methyl-2,4-dihydrobenz[a]anthracene-1,7,12-trione

> <PUBCHEM_IUPAC_INCHI>
InChI=1S/C25H24O9/c1-9-21(29)14(27)6-16(34-9)11-3-4-12-18(22(11)30)24(32)19-13(26)5-10-7-25(2,33)8-15(28)17(10)20(19)23(12)31/h3-5,9,14,16,21,26-27,29-30,33H,6-8H2,1-2H3/t9-,14-,16-,21-,25-/m1/s1

> <PUBCHEM_IUPAC_INCHIKEY>
RPINDSDUVXDEGE-WUZSHGJPSA-N

> <PUBCHEM_XLOGP3_AA>
1

> <PUBCHEM_EXACT_MASS>
468.142032

> <PUBCHEM_MOLECULAR_FORMULA>
C25H24O9

> <PUBCHEM_MOLECULAR_WEIGHT>
468.45266

> <PUBCHEM_OPENEYE_CAN_SMILES>
CC1C(C(CC(O1)C2=C(C3=C(C=C2)C(=O)C4=C5C(=CC(=C4C3=O)O)CC(CC5=O)(C)O)O)O)O

> <PUBCHEM_OPENEYE_ISO_SMILES>
C[C@@H]1[C@H]([C@@H](C[C@@H](O1)C2=C(C3=C(C=C2)C(=O)C4=C5C(=CC(=C4C3=O)O)C[C@@](CC5=O)(C)O)O)O)O

> <PUBCHEM_CACTVS_TPSA>
162

> <PUBCHEM_MONOISOTOPIC_WEIGHT>
468.142032

> <PUBCHEM_TOTAL_CHARGE>
0

> <PUBCHEM_HEAVY_ATOM_COUNT>
34

> <PUBCHEM_ATOM_DEF_STEREO_COUNT>
5

> <PUBCHEM_ATOM_UDEF_STEREO_COUNT>
0

> <PUBCHEM_BOND_DEF_STEREO_COUNT>
0

> <PUBCHEM_BOND_UDEF_STEREO_COUNT>
0

> <PUBCHEM_ISOTOPIC_ATOM_COUNT>
0

> <PUBCHEM_COMPONENT_COUNT>
1

> <PUBCHEM_CACTVS_TAUTO_COUNT>
129

> <PUBCHEM_COORDINATE_TYPE>
1
5
255

> <PUBCHEM_BONDANNOTATIONS>
10  35  6
14  27  5
17  25  8
17  30  8
18  20  8
18  31  8
12  2  5
20  21  8
21  24  8
23  25  8
23  26  8
24  33  8
26  34  8
13  3  6
30  34  8
31  33  8
15  4  6

$$$$

