62158
  -OEChem-07051213142D

 31 31  0     0  0  0  0  0  0999 V2000
    5.1350   -0.0600    0.0000 O   0  0  0  0  0  0  0  0  0  0  0  0
    8.5991    2.9400    0.0000 O   0  0  0  0  0  0  0  0  0  0  0  0
    2.5369   -0.5600    0.0000 O   0  0  0  0  0  0  0  0  0  0  0  0
    7.7331   -3.5600    0.0000 O   0  5  0  0  0  0  0  0  0  0  0  0
    6.0010   -3.5600    0.0000 O   0  0  0  0  0  0  0  0  0  0  0  0
    6.8671    0.9400    0.0000 N   0  0  0  0  0  0  0  0  0  0  0  0
    6.8671   -3.0600    0.0000 N   0  3  0  0  0  0  0  0  0  0  0  0
    6.8671   -0.0600    0.0000 C   0  0  0  0  0  0  0  0  0  0  0  0
    6.0010   -0.5600    0.0000 C   0  0  0  0  0  0  0  0  0  0  0  0
    7.7331    1.4400    0.0000 C   0  0  0  0  0  0  0  0  0  0  0  0
    7.7331   -0.5600    0.0000 C   0  0  0  0  0  0  0  0  0  0  0  0
    6.0010   -1.5600    0.0000 C   0  0  0  0  0  0  0  0  0  0  0  0
    6.8671   -2.0600    0.0000 C   0  0  0  0  0  0  0  0  0  0  0  0
    7.7331   -1.5600    0.0000 C   0  0  0  0  0  0  0  0  0  0  0  0
    7.7331    2.4400    0.0000 C   0  0  0  0  0  0  0  0  0  0  0  0
    4.2690   -0.5600    0.0000 C   0  0  0  0  0  0  0  0  0  0  0  0
    3.4030   -0.0600    0.0000 C   0  0  0  0  0  0  0  0  0  0  0  0
    6.3301    1.2500    0.0000 H   0  0  0  0  0  0  0  0  0  0  0  0
    7.9451    0.8574    0.0000 H   0  0  0  0  0  0  0  0  0  0  0  0
    8.3437    1.5477    0.0000 H   0  0  0  0  0  0  0  0  0  0  0  0
    8.2700   -0.2500    0.0000 H   0  0  0  0  0  0  0  0  0  0  0  0
    5.4641   -1.8700    0.0000 H   0  0  0  0  0  0  0  0  0  0  0  0
    8.2700   -1.8700    0.0000 H   0  0  0  0  0  0  0  0  0  0  0  0
    3.8705   -1.0350    0.0000 H   0  0  0  0  0  0  0  0  0  0  0  0
    4.6675   -1.0350    0.0000 H   0  0  0  0  0  0  0  0  0  0  0  0
    7.5210    3.0226    0.0000 H   0  0  0  0  0  0  0  0  0  0  0  0
    7.1225    2.3323    0.0000 H   0  0  0  0  0  0  0  0  0  0  0  0
    3.8015    0.4149    0.0000 H   0  0  0  0  0  0  0  0  0  0  0  0
    3.0044    0.4149    0.0000 H   0  0  0  0  0  0  0  0  0  0  0  0
    8.5991    3.5600    0.0000 H   0  0  0  0  0  0  0  0  0  0  0  0
    2.0000   -0.2500    0.0000 H   0  0  0  0  0  0  0  0  0  0  0  0
  1  9  1  0  0  0  0
  1 16  1  0  0  0  0
  2 15  1  0  0  0  0
  2 30  1  0  0  0  0
  3 17  1  0  0  0  0
  3 31  1  0  0  0  0
  4  7  1  0  0  0  0
  5  7  2  0  0  0  0
  6  8  1  0  0  0  0
  6 10  1  0  0  0  0
  6 18  1  0  0  0  0
  7 13  1  0  0  0  0
  8  9  2  0  0  0  0
  8 11  1  0  0  0  0
  9 12  1  0  0  0  0
 10 15  1  0  0  0  0
 10 19  1  0  0  0  0
 10 20  1  0  0  0  0
 11 14  2  0  0  0  0
 11 21  1  0  0  0  0
 12 13  2  0  0  0  0
 12 22  1  0  0  0  0
 13 14  1  0  0  0  0
 14 23  1  0  0  0  0
 15 26  1  0  0  0  0
 15 27  1  0  0  0  0
 16 17  1  0  0  0  0
 16 24  1  0  0  0  0
 16 25  1  0  0  0  0
 17 28  1  0  0  0  0
 17 29  1  0  0  0  0
M  CHG  2   4  -1   7   1
M  END
> <PUBCHEM_COMPOUND_CID>
62158

> <PUBCHEM_COMPOUND_CANONICALIZED>
1

> <PUBCHEM_CACTVS_COMPLEXITY>
233

> <PUBCHEM_CACTVS_HBOND_ACCEPTOR>
6

> <PUBCHEM_CACTVS_HBOND_DONOR>
3

> <PUBCHEM_CACTVS_ROTATABLE_BOND>
6

> <PUBCHEM_CACTVS_SUBSKEYS>
AAADccBzOAAAAAAAAAAAAAAAAAAAAAAAAAAwAAAAAAAAAAABAAAAHgAUCAAACAzhkAYwxoLQRgCBACRCQwCCCAAhIgAoiIAPbIoPNiLEsZuHOCjm0Bnb6AeQUAEAAACAAgAAEAAAAQAEAAAgAAAAAAAAAA==

> <PUBCHEM_IUPAC_OPENEYE_NAME>
2-[2-(2-hydroxyethoxy)-4-nitro-anilino]ethanol

> <PUBCHEM_IUPAC_CAS_NAME>
2-[2-(2-hydroxyethoxy)-4-nitroanilino]ethanol

> <PUBCHEM_IUPAC_NAME>
2-[2-(2-hydroxyethoxy)-4-nitroanilino]ethanol

> <PUBCHEM_IUPAC_SYSTEMATIC_NAME>
2-[[2-(2-hydroxyethyloxy)-4-nitro-phenyl]amino]ethanol

> <PUBCHEM_IUPAC_TRADITIONAL_NAME>
2-[2-(2-hydroxyethoxy)-4-nitro-anilino]ethanol

> <PUBCHEM_IUPAC_INCHI>
InChI=1S/C10H14N2O5/c13-4-3-11-9-2-1-8(12(15)16)7-10(9)17-6-5-14/h1-2,7,11,13-14H,3-6H2

> <PUBCHEM_IUPAC_INCHIKEY>
PNENOUKIPPERMY-UHFFFAOYSA-N

> <PUBCHEM_XLOGP3_AA>
0.3

> <PUBCHEM_EXACT_MASS>
242.090272

> <PUBCHEM_MOLECULAR_FORMULA>
C10H14N2O5

> <PUBCHEM_MOLECULAR_WEIGHT>
242.22856

> <PUBCHEM_OPENEYE_CAN_SMILES>
C1=CC(=C(C=C1[N+](=O)[O-])OCCO)NCCO

> <PUBCHEM_OPENEYE_ISO_SMILES>
C1=CC(=C(C=C1[N+](=O)[O-])OCCO)NCCO

> <PUBCHEM_CACTVS_TPSA>
108

> <PUBCHEM_MONOISOTOPIC_WEIGHT>
242.090272

> <PUBCHEM_TOTAL_CHARGE>
0

> <PUBCHEM_HEAVY_ATOM_COUNT>
17

> <PUBCHEM_ATOM_DEF_STEREO_COUNT>
0

> <PUBCHEM_ATOM_UDEF_STEREO_COUNT>
0

> <PUBCHEM_BOND_DEF_STEREO_COUNT>
0

> <PUBCHEM_BOND_UDEF_STEREO_COUNT>
0

> <PUBCHEM_ISOTOPIC_ATOM_COUNT>
0

> <PUBCHEM_COMPONENT_COUNT>
1

> <PUBCHEM_CACTVS_TAUTO_COUNT>
1

> <PUBCHEM_COORDINATE_TYPE>
1
5
255

> <PUBCHEM_BONDANNOTATIONS>
11  14  8
12  13  8
13  14  8
8  11  8
8  9  8
9  12  8

$$$$

