7404
  -OEChem-06261202043D

 17 17  0     0  0  0  0  0  0999 V2000
    3.3222   -0.0045    1.7940 Cl  0  0  0  0  0  0  0  0  0  0  0  0
    2.8037    0.0018   -0.1862 S   0  0  0  0  0  0  0  0  0  0  0  0
    3.2576    1.2732   -0.7177 O   0  0  0  0  0  0  0  0  0  0  0  0
    3.2836   -1.2656   -0.7051 O   0  0  0  0  0  0  0  0  0  0  0  0
   -3.7558    1.0957    0.0749 O   0  5  0  0  0  0  0  0  0  0  0  0
   -3.7546   -1.0996    0.0668 O   0  0  0  0  0  0  0  0  0  0  0  0
   -3.1473   -0.0015    0.0474 N   0  3  0  0  0  0  0  0  0  0  0  0
    1.0590    0.0009   -0.1170 C   0  0  0  0  0  0  0  0  0  0  0  0
    0.3614    1.2085   -0.0853 C   0  0  0  0  0  0  0  0  0  0  0  0
    0.3626   -1.2076   -0.0941 C   0  0  0  0  0  0  0  0  0  0  0  0
   -1.7287   -0.0006   -0.0077 C   0  0  0  0  0  0  0  0  0  0  0  0
   -1.0324    1.2077   -0.0306 C   0  0  0  0  0  0  0  0  0  0  0  0
   -1.0313   -1.2083   -0.0395 C   0  0  0  0  0  0  0  0  0  0  0  0
    0.8838    2.1609   -0.0964 H   0  0  0  0  0  0  0  0  0  0  0  0
    0.8865   -2.1591   -0.1128 H   0  0  0  0  0  0  0  0  0  0  0  0
   -1.5424    2.1674   -0.0057 H   0  0  0  0  0  0  0  0  0  0  0  0
   -1.5405   -2.1686   -0.0217 H   0  0  0  0  0  0  0  0  0  0  0  0
  1  2  1  0  0  0  0
  2  3  2  0  0  0  0
  2  4  2  0  0  0  0
  2  8  1  0  0  0  0
  5  7  1  0  0  0  0
  6  7  2  0  0  0  0
  7 11  1  0  0  0  0
  8  9  2  0  0  0  0
  8 10  1  0  0  0  0
  9 12  1  0  0  0  0
  9 14  1  0  0  0  0
 10 13  2  0  0  0  0
 10 15  1  0  0  0  0
 11 12  2  0  0  0  0
 11 13  1  0  0  0  0
 12 16  1  0  0  0  0
 13 17  1  0  0  0  0
M  CHG  2   5  -1   7   1
M  END
> <PUBCHEM_COMPOUND_CID>
7404

> <PUBCHEM_CONFORMER_RMSD>
0.6

> <PUBCHEM_CONFORMER_DIVERSEORDER>
1

> <PUBCHEM_MMFF94_PARTIAL_CHARGES>
17
1 -0.19
10 -0.15
11 0.13
12 -0.15
13 -0.15
14 0.15
15 0.15
16 0.15
17 0.15
2 1.49
3 -0.65
4 -0.65
5 -0.52
6 -0.52
7 0.91
8 -0.01
9 -0.15

> <PUBCHEM_EFFECTIVE_ROTOR_COUNT>
2

> <PUBCHEM_PHARMACOPHORE_FEATURES>
4
1 5 acceptor
1 5 anion
1 6 acceptor
6 8 9 10 11 12 13 rings

> <PUBCHEM_HEAVY_ATOM_COUNT>
13

> <PUBCHEM_ATOM_DEF_STEREO_COUNT>
0

> <PUBCHEM_ATOM_UDEF_STEREO_COUNT>
0

> <PUBCHEM_BOND_DEF_STEREO_COUNT>
0

> <PUBCHEM_BOND_UDEF_STEREO_COUNT>
0

> <PUBCHEM_ISOTOPIC_ATOM_COUNT>
0

> <PUBCHEM_COMPONENT_COUNT>
1

> <PUBCHEM_CACTVS_TAUTO_COUNT>
1

> <PUBCHEM_CONFORMER_ID>
00001CEC00000001

> <PUBCHEM_MMFF94_ENERGY>
25.9179

> <PUBCHEM_FEATURE_SELFOVERLAP>
20.379

> <PUBCHEM_SHAPE_FINGERPRINT>
10130415 120 18202006520930639088
10219947 1 18410005537750667375
11132069 177 18408610279059572329
11543360 7 15051442761449347619
12032990 46 18410284813815171543
12932764 1 17167865257372076644
13296908 3 18407757049351661495
14144814 61 18413387622548518785
14325111 11 18411133632412269445
14993402 34 18343298141465730053
16945 1 18410863161015073087
18186145 218 17704071797929084806
19026448 4 16370443341299836157
19026448 5 16415479367633030943
193761 8 17546162364773183909
20559304 39 18131357448949147010
20645476 183 17560504111110395638
21501925 9 18339089198212165227
23402539 116 18261682535865738206
23402655 69 18264502852918535869
23463225 33 18342740749347740962
23532345 42 18335988584048597336
23559900 14 18335700585486296414
2748010 2 18122344850334972055
3286 77 17313385681738550050
5084963 1 18261950864300957304
7364860 26 18335417942463136444

> <PUBCHEM_SHAPE_MULTIPOLES>
244.79
6.53
1.42
0.95
1.64
0
-0.39
-0.01
-0.72
0.15
0.17
-1.16
0
-0.01

> <PUBCHEM_SHAPE_SELFOVERLAP>
490.331

> <PUBCHEM_SHAPE_VOLUME>
146.5

> <PUBCHEM_COORDINATE_TYPE>
2
5
10

$$$$

