11028
  -OEChem-06261205142D

  8  6  0     0  0  0  0  0  0999 V2000
    2.2690    1.5000    0.0000 O   0  5  0  0  0  0  0  0  0  0  0  0
    1.4030    0.0000    0.0000 O   0  0  0  0  0  0  0  0  0  0  0  0
    0.5369    1.5000    0.0000 C   0  0  0  0  0  0  0  0  0  0  0  0
    1.4030    1.0000    0.0000 C   0  0  0  0  0  0  0  0  0  0  0  0
    3.1350    1.0000    0.0000 Li  0  3  0  0  0  0  0  0  0  0  0  0
    0.8469    2.0369    0.0000 H   0  0  0  0  0  0  0  0  0  0  0  0
    0.0000    1.8100    0.0000 H   0  0  0  0  0  0  0  0  0  0  0  0
    0.2269    0.9631    0.0000 H   0  0  0  0  0  0  0  0  0  0  0  0
  1  4  1  0  0  0  0
  2  4  2  0  0  0  0
  3  4  1  0  0  0  0
  3  6  1  0  0  0  0
  3  7  1  0  0  0  0
  3  8  1  0  0  0  0
M  CHG  2   1  -1   5   1
M  END
> <PUBCHEM_COMPOUND_CID>
11028

> <PUBCHEM_COMPOUND_CANONICALIZED>
1

> <PUBCHEM_CACTVS_COMPLEXITY>
25.5

> <PUBCHEM_CACTVS_HBOND_ACCEPTOR>
2

> <PUBCHEM_CACTVS_HBOND_DONOR>
0

> <PUBCHEM_CACTVS_ROTATABLE_BOND>
0

> <PUBCHEM_CACTVS_SUBSKEYS>
AAADcQhAMAAAAAAAAAAAAAAAAAAAAAAAAAAAAAAAAAAAAAAAAAAAGgAAAAAAAACAgAACCAAAAAAIAACQCAAAAAAAAAAAAAAAAAAAAAAAAAAAAAAAAAAAAAAAAAAAAAAAAAAAAAAAAAAAAAAAAAAAAAAAAA==

> <PUBCHEM_IUPAC_OPENEYE_NAME>
lithium acetate

> <PUBCHEM_IUPAC_CAS_NAME>
lithium acetate

> <PUBCHEM_IUPAC_NAME>
lithium acetate

> <PUBCHEM_IUPAC_SYSTEMATIC_NAME>
lithium ethanoate

> <PUBCHEM_IUPAC_TRADITIONAL_NAME>
lithium acetate

> <PUBCHEM_IUPAC_INCHI>
InChI=1S/C2H4O2.Li/c1-2(3)4;/h1H3,(H,3,4);/q;+1/p-1

> <PUBCHEM_IUPAC_INCHIKEY>
XIXADJRWDQXREU-UHFFFAOYSA-M

> <PUBCHEM_EXACT_MASS>
66.029309

> <PUBCHEM_MOLECULAR_FORMULA>
C2H3LiO2

> <PUBCHEM_MOLECULAR_WEIGHT>
65.98502

> <PUBCHEM_OPENEYE_CAN_SMILES>
[Li+].CC(=O)[O-]

> <PUBCHEM_OPENEYE_ISO_SMILES>
[Li+].CC(=O)[O-]

> <PUBCHEM_CACTVS_TPSA>
40.1

> <PUBCHEM_MONOISOTOPIC_WEIGHT>
66.029309

> <PUBCHEM_TOTAL_CHARGE>
0

> <PUBCHEM_HEAVY_ATOM_COUNT>
5

> <PUBCHEM_ATOM_DEF_STEREO_COUNT>
0

> <PUBCHEM_ATOM_UDEF_STEREO_COUNT>
0

> <PUBCHEM_BOND_DEF_STEREO_COUNT>
0

> <PUBCHEM_BOND_UDEF_STEREO_COUNT>
0

> <PUBCHEM_ISOTOPIC_ATOM_COUNT>
0

> <PUBCHEM_COMPONENT_COUNT>
2

> <PUBCHEM_CACTVS_TAUTO_COUNT>
1

> <PUBCHEM_COORDINATE_TYPE>
1
5
255

$$$$

