23724672
  -OEChem-07051213082D

 60 63  0     1  0  0  0  0  0999 V2000
    4.8787    6.6820    0.0000 S   0  0  0  0  0  0  0  0  0  0  0  0
    4.8804    7.6820    0.0000 S   0  0  0  0  0  0  0  0  0  0  0  0
    5.0474    0.3391    0.0000 P   0  0  3  0  0  0  0  0  0  0  0  0
    4.4026   -3.1141    0.0000 O   0  0  0  0  0  0  0  0  0  0  0  0
    6.7485   -4.2060    0.0000 O   0  0  0  0  0  0  0  0  0  0  0  0
    6.7523   -2.0304    0.0000 O   0  0  0  0  0  0  0  0  0  0  0  0
    5.3548   -0.6125    0.0000 O   0  0  0  0  0  0  0  0  0  0  0  0
    4.7400    1.2906    0.0000 O   0  0  0  0  0  0  0  0  0  0  0  0
    5.9990    0.6464    0.0000 O   0  0  0  0  0  0  0  0  0  0  0  0
    4.0958    0.0317    0.0000 O   0  0  0  0  0  0  0  0  0  0  0  0
    6.3882    1.8230    0.0000 O   0  0  0  0  0  0  0  0  0  0  0  0
    4.6783   -4.8747    0.0000 N   0  0  0  0  0  0  0  0  0  0  0  0
    4.6783   -6.4841    0.0000 N   0  0  0  0  0  0  0  0  0  0  0  0
    2.8660   -4.6794    0.0000 N   0  0  0  0  0  0  0  0  0  0  0  0
    2.0000   -6.1794    0.0000 N   0  0  0  0  0  0  0  0  0  0  0  0
    2.8660   -7.6794    0.0000 N   0  0  0  0  0  0  0  0  0  0  0  0
    5.9405   -3.6168    0.0000 C   0  0  2  0  0  0  0  0  0  0  0  0
    5.9422   -2.6168    0.0000 C   0  0  1  0  0  0  0  0  0  0  0  0
    4.9889   -3.9242    0.0000 C   0  0  1  0  0  0  0  0  0  0  0  0
    4.9917   -2.3061    0.0000 C   0  0  1  0  0  0  0  0  0  0  0  0
    4.6844   -1.3545    0.0000 C   0  0  0  0  0  0  0  0  0  0  0  0
    3.7320   -5.1794    0.0000 C   0  0  0  0  0  0  0  0  0  0  0  0
    5.2619   -5.6794    0.0000 C   0  0  0  0  0  0  0  0  0  0  0  0
    5.8292    6.3714    0.0000 C   0  0  3  0  0  0  0  0  0  0  0  0
    3.7320   -6.1794    0.0000 C   0  0  0  0  0  0  0  0  0  0  0  0
    6.1365    5.4198    0.0000 C   0  0  0  0  0  0  0  0  0  0  0  0
    5.4661    4.6778    0.0000 C   0  0  0  0  0  0  0  0  0  0  0  0
    6.4184    7.1794    0.0000 C   0  0  0  0  0  0  0  0  0  0  0  0
    5.7735    3.7262    0.0000 C   0  0  0  0  0  0  0  0  0  0  0  0
    5.8320    7.9894    0.0000 C   0  0  0  0  0  0  0  0  0  0  0  0
    5.1031    2.9842    0.0000 C   0  0  0  0  0  0  0  0  0  0  0  0
    2.8660   -6.6794    0.0000 C   0  0  0  0  0  0  0  0  0  0  0  0
    5.4104    2.0326    0.0000 C   0  0  0  0  0  0  0  0  0  0  0  0
    2.0000   -5.1794    0.0000 C   0  0  0  0  0  0  0  0  0  0  0  0
    6.4934   -3.3363    0.0000 H   0  0  0  0  0  0  0  0  0  0  0  0
    6.4942   -2.8992    0.0000 H   0  0  0  0  0  0  0  0  0  0  0  0
    5.4266   -4.3633    0.0000 H   0  0  0  0  0  0  0  0  0  0  0  0
    4.3795   -2.2081    0.0000 H   0  0  0  0  0  0  0  0  0  0  0  0
    4.3035   -0.8653    0.0000 H   0  0  0  0  0  0  0  0  0  0  0  0
    4.1364   -1.6446    0.0000 H   0  0  0  0  0  0  0  0  0  0  0  0
    7.3154   -3.9548    0.0000 H   0  0  0  0  0  0  0  0  0  0  0  0
    7.3182   -2.2836    0.0000 H   0  0  0  0  0  0  0  0  0  0  0  0
    5.8819   -5.6794    0.0000 H   0  0  0  0  0  0  0  0  0  0  0  0
    5.3900    5.9337    0.0000 H   0  0  0  0  0  0  0  0  0  0  0  0
    6.5174    4.9306    0.0000 H   0  0  0  0  0  0  0  0  0  0  0  0
    6.6845    5.7099    0.0000 H   0  0  0  0  0  0  0  0  0  0  0  0
    5.0853    5.1670    0.0000 H   0  0  0  0  0  0  0  0  0  0  0  0
    4.9182    4.3877    0.0000 H   0  0  0  0  0  0  0  0  0  0  0  0
    6.8784    6.7637    0.0000 H   0  0  0  0  0  0  0  0  0  0  0  0
    6.8798    7.5934    0.0000 H   0  0  0  0  0  0  0  0  0  0  0  0
    6.1544    3.2370    0.0000 H   0  0  0  0  0  0  0  0  0  0  0  0
    6.3214    4.0163    0.0000 H   0  0  0  0  0  0  0  0  0  0  0  0
    6.3694    8.2985    0.0000 H   0  0  0  0  0  0  0  0  0  0  0  0
    5.5808    8.5562    0.0000 H   0  0  0  0  0  0  0  0  0  0  0  0
    4.7222    3.4734    0.0000 H   0  0  0  0  0  0  0  0  0  0  0  0
    4.5552    2.6941    0.0000 H   0  0  0  0  0  0  0  0  0  0  0  0
    1.4631   -4.8694    0.0000 H   0  0  0  0  0  0  0  0  0  0  0  0
    6.4590    0.2308    0.0000 H   0  0  0  0  0  0  0  0  0  0  0  0
    2.3291   -7.9894    0.0000 H   0  0  0  0  0  0  0  0  0  0  0  0
    3.4030   -7.9894    0.0000 H   0  0  0  0  0  0  0  0  0  0  0  0
  1  2  1  0  0  0  0
  1 24  1  0  0  0  0
  2 30  1  0  0  0  0
  3  7  1  0  0  0  0
  3  8  1  0  0  0  0
  3  9  1  0  0  0  0
  3 10  2  0  0  0  0
  4 19  1  0  0  0  0
  4 20  1  0  0  0  0
 17  5  1  1  0  0  0
  5 41  1  0  0  0  0
 18  6  1  1  0  0  0
  6 42  1  0  0  0  0
  7 21  1  0  0  0  0
  8 33  1  0  0  0  0
  9 58  1  0  0  0  0
 11 33  2  0  0  0  0
 19 12  1  6  0  0  0
 12 22  1  0  0  0  0
 12 23  1  0  0  0  0
 13 23  2  0  0  0  0
 13 25  1  0  0  0  0
 14 22  2  0  0  0  0
 14 34  1  0  0  0  0
 15 32  1  0  0  0  0
 15 34  2  0  0  0  0
 16 32  1  0  0  0  0
 16 59  1  0  0  0  0
 16 60  1  0  0  0  0
 17 18  1  0  0  0  0
 17 19  1  0  0  0  0
 17 35  1  0  0  0  0
 18 20  1  0  0  0  0
 18 36  1  0  0  0  0
 19 37  1  0  0  0  0
 20 21  1  6  0  0  0
 20 38  1  0  0  0  0
 21 39  1  0  0  0  0
 21 40  1  0  0  0  0
 22 25  1  0  0  0  0
 23 43  1  0  0  0  0
 24 26  1  0  0  0  0
 24 28  1  0  0  0  0
 24 44  1  0  0  0  0
 25 32  2  0  0  0  0
 26 27  1  0  0  0  0
 26 45  1  0  0  0  0
 26 46  1  0  0  0  0
 27 29  1  0  0  0  0
 27 47  1  0  0  0  0
 27 48  1  0  0  0  0
 28 30  1  0  0  0  0
 28 49  1  0  0  0  0
 28 50  1  0  0  0  0
 29 31  1  0  0  0  0
 29 51  1  0  0  0  0
 29 52  1  0  0  0  0
 30 53  1  0  0  0  0
 30 54  1  0  0  0  0
 31 33  1  0  0  0  0
 31 55  1  0  0  0  0
 31 56  1  0  0  0  0
 34 57  1  0  0  0  0
M  END
> <PUBCHEM_COMPOUND_CID>
23724672

> <PUBCHEM_COMPOUND_CANONICALIZED>
1

> <PUBCHEM_CACTVS_COMPLEXITY>
759

> <PUBCHEM_CACTVS_HBOND_ACCEPTOR>
14

> <PUBCHEM_CACTVS_HBOND_DONOR>
4

> <PUBCHEM_CACTVS_ROTATABLE_BOND>
11

> <PUBCHEM_CACTVS_SUBSKEYS>
AAADceB7vAJgAAAAAAAAAAAAAAAAAWJEgAAsAAAAAAAAAFgB+AAAHgQQCCAACBzl1waF+L9MFxCoQQbxbICAgC0REKABUCEoVBCDWBJAyEAeRAgPAALTACH4+KKAAAAAAAAAAAAAAAAAAAAAAAAAAAAAAA==

> <PUBCHEM_IUPAC_OPENEYE_NAME>
[[(2R,3S,4R,5R)-5-(6-aminopurin-9-yl)-3,4-dihydroxy-tetrahydrofuran-2-yl]methoxy-hydroxy-phosphoryl] 5-(dithiolan-3-yl)pentanoate

> <PUBCHEM_IUPAC_CAS_NAME>
5-(3-dithiolanyl)pentanoic acid [[(2R,3S,4R,5R)-5-(6-aminopurin-9-yl)-3,4-dihydroxy-2-oxolanyl]methoxy-hydroxyphosphoryl] ester

> <PUBCHEM_IUPAC_NAME>
[[(2R,3S,4R,5R)-5-(6-aminopurin-9-yl)-3,4-dihydroxyoxolan-2-yl]methoxy-hydroxyphosphoryl] 5-(dithiolan-3-yl)pentanoate

> <PUBCHEM_IUPAC_SYSTEMATIC_NAME>
[[(2R,3S,4R,5R)-5-(6-aminopurin-9-yl)-3,4-bis(oxidanyl)oxolan-2-yl]methoxy-oxidanyl-phosphoryl] 5-(1,2-dithiolan-3-yl)pentanoate

> <PUBCHEM_IUPAC_TRADITIONAL_NAME>
5-(dithiolan-3-yl)valeric acid [[(2R,3S,4R,5R)-5-adenin-9-yl-3,4-dihydroxy-tetrahydrofuran-2-yl]methoxy-hydroxy-phosphoryl] ester

> <PUBCHEM_IUPAC_INCHI>
InChI=1S/C18H26N5O8PS2/c19-16-13-17(21-8-20-16)23(9-22-13)18-15(26)14(25)11(30-18)7-29-32(27,28)31-12(24)4-2-1-3-10-5-6-33-34-10/h8-11,14-15,18,25-26H,1-7H2,(H,27,28)(H2,19,20,21)/t10?,11-,14-,15-,18-/m1/s1

> <PUBCHEM_IUPAC_INCHIKEY>
QWEGOCJRZOKSOE-NLJBGGCZSA-N

> <PUBCHEM_XLOGP3>
-1.1

> <PUBCHEM_EXACT_MASS>
535.096041

> <PUBCHEM_MOLECULAR_FORMULA>
C18H26N5O8PS2

> <PUBCHEM_MOLECULAR_WEIGHT>
535.531502

> <PUBCHEM_OPENEYE_CAN_SMILES>
C1CSSC1CCCCC(=O)OP(=O)(O)OCC2C(C(C(O2)N3C=NC4=C3N=CN=C4N)O)O

> <PUBCHEM_OPENEYE_ISO_SMILES>
C1CSSC1CCCCC(=O)OP(=O)(O)OC[C@@H]2[C@H]([C@H]([C@@H](O2)N3C=NC4=C3N=CN=C4N)O)O

> <PUBCHEM_CACTVS_TPSA>
243

> <PUBCHEM_MONOISOTOPIC_WEIGHT>
535.096041

> <PUBCHEM_TOTAL_CHARGE>
0

> <PUBCHEM_HEAVY_ATOM_COUNT>
34

> <PUBCHEM_ATOM_DEF_STEREO_COUNT>
4

> <PUBCHEM_ATOM_UDEF_STEREO_COUNT>
1

> <PUBCHEM_BOND_DEF_STEREO_COUNT>
0

> <PUBCHEM_BOND_UDEF_STEREO_COUNT>
0

> <PUBCHEM_ISOTOPIC_ATOM_COUNT>
0

> <PUBCHEM_COMPONENT_COUNT>
1

> <PUBCHEM_CACTVS_TAUTO_COUNT>
3

> <PUBCHEM_COORDINATE_TYPE>
1
5
255

> <PUBCHEM_BONDANNOTATIONS>
19  12  6
12  22  8
12  23  8
13  23  8
13  25  8
14  22  8
14  34  8
15  32  8
15  34  8
20  21  6
22  25  8
24  26  3
25  32  8
17  5  5
18  6  5

$$$$

