442731
  -OEChem-07051212593D

 50 53  0     1  0  0  0  0  0999 V2000
   -2.3352    0.0240    0.6694 O   0  0  0  0  0  0  0  0  0  0  0  0
   -1.4272    0.5836   -1.4058 O   0  0  0  0  0  0  0  0  0  0  0  0
   -5.4339   -2.0168   -1.0913 O   0  0  0  0  0  0  0  0  0  0  0  0
   -5.6244   -1.2281    1.6831 O   0  0  0  0  0  0  0  0  0  0  0  0
   -3.9066   -0.0207   -2.6288 O   0  0  0  0  0  0  0  0  0  0  0  0
   -2.1882    0.5889    3.3556 O   0  0  0  0  0  0  0  0  0  0  0  0
    0.3973   -1.1921   -1.1209 O   0  0  0  0  0  0  0  0  0  0  0  0
    3.8773    2.4206    0.7220 O   0  0  0  0  0  0  0  0  0  0  0  0
    2.1106   -3.0834   -0.8993 O   0  0  0  0  0  0  0  0  0  0  0  0
   -4.7791   -0.8706   -0.5456 C   0  0  1  0  0  0  0  0  0  0  0  0
   -4.4277   -1.1754    0.9107 C   0  0  1  0  0  0  0  0  0  0  0  0
   -3.5253   -0.5625   -1.3645 C   0  0  2  0  0  0  0  0  0  0  0  0
   -3.5031   -0.0985    1.4832 C   0  0  1  0  0  0  0  0  0  0  0  0
   -2.6348    0.4575   -0.6553 C   0  0  1  0  0  0  0  0  0  0  0  0
   -3.0446   -0.4413    2.8972 C   0  0  0  0  0  0  0  0  0  0  0  0
   -0.4898    1.4511   -0.9283 C   0  0  0  0  0  0  0  0  0  0  0  0
    0.8033    1.0539   -0.5673 C   0  0  0  0  0  0  0  0  0  0  0  0
    1.7127    1.9977   -0.0853 C   0  0  0  0  0  0  0  0  0  0  0  0
    1.1949   -0.3642   -0.6996 C   0  0  0  0  0  0  0  0  0  0  0  0
    2.5626   -0.7695   -0.3158 C   0  0  0  0  0  0  0  0  0  0  0  0
   -0.8681    2.7883   -0.8058 C   0  0  0  0  0  0  0  0  0  0  0  0
    3.4718    0.1744    0.1664 C   0  0  0  0  0  0  0  0  0  0  0  0
    3.0802    1.5925    0.2990 C   0  0  0  0  0  0  0  0  0  0  0  0
    1.3288    3.3387    0.0358 C   0  0  0  0  0  0  0  0  0  0  0  0
    0.0390    3.7301   -0.3245 C   0  0  0  0  0  0  0  0  0  0  0  0
    2.9463   -2.1103   -0.4368 C   0  0  0  0  0  0  0  0  0  0  0  0
    4.7647   -0.2228    0.5280 C   0  0  0  0  0  0  0  0  0  0  0  0
    5.1429   -1.5601    0.4062 C   0  0  0  0  0  0  0  0  0  0  0  0
    4.2358   -2.5020   -0.0752 C   0  0  0  0  0  0  0  0  0  0  0  0
    6.5199   -1.9828    0.7935 C   0  0  0  0  0  0  0  0  0  0  0  0
   -5.4953   -0.0423   -0.6122 H   0  0  0  0  0  0  0  0  0  0  0  0
   -3.9524   -2.1637    0.9615 H   0  0  0  0  0  0  0  0  0  0  0  0
   -2.9726   -1.4888   -1.5652 H   0  0  0  0  0  0  0  0  0  0  0  0
   -4.0097    0.8757    1.5178 H   0  0  0  0  0  0  0  0  0  0  0  0
   -3.1523    1.4250   -0.6246 H   0  0  0  0  0  0  0  0  0  0  0  0
   -2.4807   -1.3797    2.9196 H   0  0  0  0  0  0  0  0  0  0  0  0
   -3.8835   -0.5161    3.5940 H   0  0  0  0  0  0  0  0  0  0  0  0
   -6.2164   -2.1943   -0.5417 H   0  0  0  0  0  0  0  0  0  0  0  0
   -5.4134   -1.6556    2.5300 H   0  0  0  0  0  0  0  0  0  0  0  0
   -3.0901    0.1787   -3.1181 H   0  0  0  0  0  0  0  0  0  0  0  0
   -1.8564    3.1275   -1.1029 H   0  0  0  0  0  0  0  0  0  0  0  0
   -1.4464    0.6553    2.7301 H   0  0  0  0  0  0  0  0  0  0  0  0
    2.0181    4.0925    0.4068 H   0  0  0  0  0  0  0  0  0  0  0  0
   -0.2559    4.7717   -0.2355 H   0  0  0  0  0  0  0  0  0  0  0  0
    5.4814    0.5018    0.9071 H   0  0  0  0  0  0  0  0  0  0  0  0
    4.5380   -3.5430   -0.1648 H   0  0  0  0  0  0  0  0  0  0  0  0
    7.2426   -1.1772    0.6255 H   0  0  0  0  0  0  0  0  0  0  0  0
    6.5438   -2.2604    1.8520 H   0  0  0  0  0  0  0  0  0  0  0  0
    6.8531   -2.8399    0.1984 H   0  0  0  0  0  0  0  0  0  0  0  0
    2.5737   -3.9384   -0.9030 H   0  0  0  0  0  0  0  0  0  0  0  0
  1 13  1  0  0  0  0
  1 14  1  0  0  0  0
  2 14  1  0  0  0  0
  2 16  1  0  0  0  0
  3 10  1  0  0  0  0
  3 38  1  0  0  0  0
  4 11  1  0  0  0  0
  4 39  1  0  0  0  0
  5 12  1  0  0  0  0
  5 40  1  0  0  0  0
  6 15  1  0  0  0  0
  6 42  1  0  0  0  0
  7 19  2  0  0  0  0
  8 23  2  0  0  0  0
  9 26  1  0  0  0  0
  9 50  1  0  0  0  0
 10 11  1  0  0  0  0
 10 12  1  0  0  0  0
 10 31  1  0  0  0  0
 11 13  1  0  0  0  0
 11 32  1  0  0  0  0
 12 14  1  0  0  0  0
 12 33  1  0  0  0  0
 13 15  1  0  0  0  0
 13 34  1  0  0  0  0
 14 35  1  0  0  0  0
 15 36  1  0  0  0  0
 15 37  1  0  0  0  0
 16 17  1  0  0  0  0
 16 21  2  0  0  0  0
 17 18  2  0  0  0  0
 17 19  1  0  0  0  0
 18 23  1  0  0  0  0
 18 24  1  0  0  0  0
 19 20  1  0  0  0  0
 20 22  2  0  0  0  0
 20 26  1  0  0  0  0
 21 25  1  0  0  0  0
 21 41  1  0  0  0  0
 22 23  1  0  0  0  0
 22 27  1  0  0  0  0
 24 25  2  0  0  0  0
 24 43  1  0  0  0  0
 25 44  1  0  0  0  0
 26 29  2  0  0  0  0
 27 28  2  0  0  0  0
 27 45  1  0  0  0  0
 28 29  1  0  0  0  0
 28 30  1  0  0  0  0
 29 46  1  0  0  0  0
 30 47  1  0  0  0  0
 30 48  1  0  0  0  0
 30 49  1  0  0  0  0
M  END
> <PUBCHEM_COMPOUND_CID>
442731

> <PUBCHEM_CONFORMER_RMSD>
0.8

> <PUBCHEM_CONFORMER_DIVERSEORDER>
1
30
15
24
36
2
11
41
31
39
25
37
43
8
42
16
3
28
27
4
6
13
5
21
40
10
22
32
44
34
18
45
29
23
35
26
33
14
46
19
20
9
17
38
12
7

> <PUBCHEM_MMFF94_PARTIAL_CHARGES>
40
1 -0.56
10 0.28
11 0.28
12 0.28
13 0.28
14 0.56
15 0.28
16 0.08
17 0.09
18 0.09
19 0.4
2 -0.36
20 0.09
21 -0.15
22 0.09
23 0.4
24 -0.15
25 -0.15
26 0.08
27 -0.15
28 -0.14
29 -0.15
3 -0.68
30 0.14
38 0.4
39 0.4
4 -0.68
40 0.4
41 0.15
42 0.4
43 0.15
44 0.15
45 0.15
46 0.15
5 -0.68
50 0.45
6 -0.68
7 -0.57
8 -0.57
9 -0.53

> <PUBCHEM_EFFECTIVE_ROTOR_COUNT>
4.2

> <PUBCHEM_PHARMACOPHORE_FEATURES>
17
1 1 acceptor
1 2 acceptor
1 3 acceptor
1 3 donor
1 4 acceptor
1 4 donor
1 5 acceptor
1 5 donor
1 6 acceptor
1 6 donor
1 7 acceptor
1 8 acceptor
1 9 donor
6 1 10 11 12 13 14 rings
6 16 17 18 21 24 25 rings
6 17 18 19 20 22 23 rings
6 20 22 26 27 28 29 rings

> <PUBCHEM_HEAVY_ATOM_COUNT>
30

> <PUBCHEM_ATOM_DEF_STEREO_COUNT>
5

> <PUBCHEM_ATOM_UDEF_STEREO_COUNT>
0

> <PUBCHEM_BOND_DEF_STEREO_COUNT>
0

> <PUBCHEM_BOND_UDEF_STEREO_COUNT>
0

> <PUBCHEM_ISOTOPIC_ATOM_COUNT>
0

> <PUBCHEM_COMPONENT_COUNT>
1

> <PUBCHEM_CACTVS_TAUTO_COUNT>
12

> <PUBCHEM_CONFORMER_ID>
0006C16B00000001

> <PUBCHEM_MMFF94_ENERGY>
100.9608

> <PUBCHEM_FEATURE_SELFOVERLAP>
86.382

> <PUBCHEM_SHAPE_FINGERPRINT>
11488393 25 17201332106663461708
11582403 64 16257082443074002949
11595378 159 16515400772367472905
11796584 16 16988571169032783841
11991303 11 17768807911526605684
12166972 35 18187654540119436235
12236239 1 17604147017883222093
12363563 72 18273207616758654901
12422481 6 17895468253773747932
12553582 1 18336255821182569398
12596602 18 17313665953665430346
12788726 201 17911532196007781785
13009979 54 17676487211783763719
13140716 1 17760093917236542788
13402501 40 18131630075724003003
13544653 18 18342457058025617596
13782708 43 17632007543114793307
13965767 371 17244662902389536633
14341114 328 17095512968616977795
14739800 52 16227190084921145616
14790565 3 17764307237383841100
14849402 71 17531820039592010056
15361156 5 18201432623084936348
15475509 84 17895467137077815033
15927050 60 17831586371298717900
17349148 13 18113896026978144227
1813 80 18260817228799501060
19315092 285 17604731970547821171
20028762 73 18114188505767355646
20511986 3 17821450145300572953
20739085 24 18336256869439698572
21033650 10 16343430621317852453
21756936 100 14346378817409827582
21796203 349 18266714966722235384
23559900 14 16917065521052056917
3380486 145 18128529375639632715
3737641 26 17970621020943244294
44802255 64 15116136789257324164
469060 322 18262797488370448320
508706 21 17203050677976917307
5104073 3 18047205321848684258
5309563 4 18410862074520411102
7288768 16 16087880754622523824

> <PUBCHEM_SHAPE_MULTIPOLES>
564.56
12.05
3.49
1.95
0.61
2.46
1.29
-10.53
2.45
2.67
-0.41
-3.43
-0.41
0.59

> <PUBCHEM_SHAPE_SELFOVERLAP>
1248.272

> <PUBCHEM_SHAPE_VOLUME>
299

> <PUBCHEM_COORDINATE_TYPE>
2
5
10

$$$$

