11810
  -OEChem-06261206092D

 18 18  0     0  0  0  0  0  0999 V2000
    2.0000    0.7500    0.0000 Cl  0  0  0  0  0  0  0  0  0  0  0  0
    5.4641    0.7500    0.0000 Cl  0  0  0  0  0  0  0  0  0  0  0  0
    5.4641   -1.2500    0.0000 Cl  0  0  0  0  0  0  0  0  0  0  0  0
    2.0000   -1.2500    0.0000 Cl  0  0  0  0  0  0  0  0  0  0  0  0
    3.7320   -2.2500    0.0000 Cl  0  0  0  0  0  0  0  0  0  0  0  0
    3.7320    0.7500    0.0000 C   0  0  0  0  0  0  0  0  0  0  0  0
    3.7320    1.7500    0.0000 C   0  0  0  0  0  0  0  0  0  0  0  0
    2.8660    0.2500    0.0000 C   0  0  0  0  0  0  0  0  0  0  0  0
    4.5981    0.2500    0.0000 C   0  0  0  0  0  0  0  0  0  0  0  0
    4.5981    2.2500    0.0000 C   0  0  0  0  0  0  0  0  0  0  0  0
    4.5981   -0.7500    0.0000 C   0  0  0  0  0  0  0  0  0  0  0  0
    2.8660   -0.7500    0.0000 C   0  0  0  0  0  0  0  0  0  0  0  0
    3.7320   -1.2500    0.0000 C   0  0  0  0  0  0  0  0  0  0  0  0
    3.5200    2.3326    0.0000 H   0  0  0  0  0  0  0  0  0  0  0  0
    3.1215    1.6423    0.0000 H   0  0  0  0  0  0  0  0  0  0  0  0
    4.9081    1.7131    0.0000 H   0  0  0  0  0  0  0  0  0  0  0  0
    5.1350    2.5600    0.0000 H   0  0  0  0  0  0  0  0  0  0  0  0
    4.2881    2.7869    0.0000 H   0  0  0  0  0  0  0  0  0  0  0  0
  1  8  1  0  0  0  0
  2  9  1  0  0  0  0
  3 11  1  0  0  0  0
  4 12  1  0  0  0  0
  5 13  1  0  0  0  0
  6  7  1  0  0  0  0
  6  8  2  0  0  0  0
  6  9  1  0  0  0  0
  7 10  1  0  0  0  0
  7 14  1  0  0  0  0
  7 15  1  0  0  0  0
  8 12  1  0  0  0  0
  9 11  2  0  0  0  0
 10 16  1  0  0  0  0
 10 17  1  0  0  0  0
 10 18  1  0  0  0  0
 11 13  1  0  0  0  0
 12 13  2  0  0  0  0
M  END
> <PUBCHEM_COMPOUND_CID>
11810

> <PUBCHEM_COMPOUND_CANONICALIZED>
1

> <PUBCHEM_CACTVS_COMPLEXITY>
158

> <PUBCHEM_CACTVS_HBOND_ACCEPTOR>
0

> <PUBCHEM_CACTVS_HBOND_DONOR>
0

> <PUBCHEM_CACTVS_ROTATABLE_BOND>
1

> <PUBCHEM_CACTVS_SUBSKEYS>
AAADcYBwAAAHAAAAAAAAAAAAAAAAAAAAAAAwAAAAAAAAAAABAAAAGAIAAAAADAKAGCACAIAAAACAAgBAAAACAAAgBAAAikAAAogIICKBEhCAIAAggAAIiAcAgIAOBAAQIACBAAQIACBAAQIACAAAAAAAAA==

> <PUBCHEM_IUPAC_OPENEYE_NAME>
1,2,3,4,5-pentachloro-6-ethyl-benzene

> <PUBCHEM_IUPAC_CAS_NAME>
1,2,3,4,5-pentachloro-6-ethylbenzene

> <PUBCHEM_IUPAC_NAME>
1,2,3,4,5-pentachloro-6-ethylbenzene

> <PUBCHEM_IUPAC_SYSTEMATIC_NAME>
1,2,3,4,5-pentakis(chloranyl)-6-ethyl-benzene

> <PUBCHEM_IUPAC_TRADITIONAL_NAME>
1,2,3,4,5-pentachloro-6-ethyl-benzene

> <PUBCHEM_IUPAC_INCHI>
InChI=1S/C8H5Cl5/c1-2-3-4(9)6(11)8(13)7(12)5(3)10/h2H2,1H3

> <PUBCHEM_IUPAC_INCHIKEY>
JBLPFPMLHWDSFR-UHFFFAOYSA-N

> <PUBCHEM_XLOGP3_AA>
5.9

> <PUBCHEM_EXACT_MASS>
277.880438

> <PUBCHEM_MOLECULAR_FORMULA>
C8H5Cl5

> <PUBCHEM_MOLECULAR_WEIGHT>
278.3903

> <PUBCHEM_OPENEYE_CAN_SMILES>
CCC1=C(C(=C(C(=C1Cl)Cl)Cl)Cl)Cl

> <PUBCHEM_OPENEYE_ISO_SMILES>
CCC1=C(C(=C(C(=C1Cl)Cl)Cl)Cl)Cl

> <PUBCHEM_CACTVS_TPSA>
0

> <PUBCHEM_MONOISOTOPIC_WEIGHT>
275.883389

> <PUBCHEM_TOTAL_CHARGE>
0

> <PUBCHEM_HEAVY_ATOM_COUNT>
13

> <PUBCHEM_ATOM_DEF_STEREO_COUNT>
0

> <PUBCHEM_ATOM_UDEF_STEREO_COUNT>
0

> <PUBCHEM_BOND_DEF_STEREO_COUNT>
0

> <PUBCHEM_BOND_UDEF_STEREO_COUNT>
0

> <PUBCHEM_ISOTOPIC_ATOM_COUNT>
0

> <PUBCHEM_COMPONENT_COUNT>
1

> <PUBCHEM_CACTVS_TAUTO_COUNT>
1

> <PUBCHEM_COORDINATE_TYPE>
1
5
255

> <PUBCHEM_BONDANNOTATIONS>
11  13  8
12  13  8
6  8  8
6  9  8
8  12  8
9  11  8

$$$$

