13312
  -OEChem-06261208512D

 49 49  0     0  0  0  0  0  0999 V2000
    3.3700    0.0000    0.0000 Cl  0  5  0  0  0  0  0  0  0  0  0  0
    5.6200    6.9860    0.0000 O   0  0  0  0  0  0  0  0  0  0  0  0
    1.6200    6.9860    0.0000 N   0  3  0  0  0  0  0  0  0  0  0  0
    4.1200    6.1200    0.0000 C   0  0  0  0  0  0  0  0  0  0  0  0
    3.1200    6.1200    0.0000 C   0  0  0  0  0  0  0  0  0  0  0  0
    2.6200    6.9860    0.0000 C   0  0  0  0  0  0  0  0  0  0  0  0
    4.1200    5.1200    0.0000 C   0  0  0  0  0  0  0  0  0  0  0  0
    4.1200    7.1200    0.0000 C   0  0  0  0  0  0  0  0  0  0  0  0
    5.1200    6.1200    0.0000 C   0  0  0  0  0  0  0  0  0  0  0  0
    5.6200    5.2540    0.0000 C   0  0  0  0  0  0  0  0  0  0  0  0
    0.6200    6.9860    0.0000 C   0  0  0  0  0  0  0  0  0  0  0  0
    1.6200    7.9860    0.0000 C   0  0  0  0  0  0  0  0  0  0  0  0
    4.9860    7.6200    0.0000 C   0  0  0  0  0  0  0  0  0  0  0  0
    3.2540    4.6200    0.0000 C   0  0  0  0  0  0  0  0  0  0  0  0
    3.2540    7.6200    0.0000 C   0  0  0  0  0  0  0  0  0  0  0  0
    4.9860    4.6200    0.0000 C   0  0  0  0  0  0  0  0  0  0  0  0
    6.6200    5.2540    0.0000 C   0  0  0  0  0  0  0  0  0  0  0  0
    4.9860    8.6200    0.0000 C   0  0  0  0  0  0  0  0  0  0  0  0
    3.2540    3.6200    0.0000 C   0  0  0  0  0  0  0  0  0  0  0  0
    3.2540    8.6200    0.0000 C   0  0  0  0  0  0  0  0  0  0  0  0
    4.9860    3.6200    0.0000 C   0  0  0  0  0  0  0  0  0  0  0  0
    4.1200    9.1200    0.0000 C   0  0  0  0  0  0  0  0  0  0  0  0
    4.1200    3.1200    0.0000 C   0  0  0  0  0  0  0  0  0  0  0  0
    2.5374    5.9079    0.0000 H   0  0  0  0  0  0  0  0  0  0  0  0
    3.2277    5.5094    0.0000 H   0  0  0  0  0  0  0  0  0  0  0  0
    3.2026    7.1981    0.0000 H   0  0  0  0  0  0  0  0  0  0  0  0
    2.5123    7.5966    0.0000 H   0  0  0  0  0  0  0  0  0  0  0  0
    1.6200    6.3660    0.0000 H   0  0  0  0  0  0  0  0  0  0  0  0
    5.0374    5.0419    0.0000 H   0  0  0  0  0  0  0  0  0  0  0  0
    5.7277    4.6434    0.0000 H   0  0  0  0  0  0  0  0  0  0  0  0
    0.6200    7.6060    0.0000 H   0  0  0  0  0  0  0  0  0  0  0  0
    0.0000    6.9860    0.0000 H   0  0  0  0  0  0  0  0  0  0  0  0
    0.6200    6.3660    0.0000 H   0  0  0  0  0  0  0  0  0  0  0  0
    2.2400    7.9860    0.0000 H   0  0  0  0  0  0  0  0  0  0  0  0
    1.6200    8.6060    0.0000 H   0  0  0  0  0  0  0  0  0  0  0  0
    1.0000    7.9860    0.0000 H   0  0  0  0  0  0  0  0  0  0  0  0
    5.5230    7.3100    0.0000 H   0  0  0  0  0  0  0  0  0  0  0  0
    2.7170    4.9300    0.0000 H   0  0  0  0  0  0  0  0  0  0  0  0
    2.7170    7.3100    0.0000 H   0  0  0  0  0  0  0  0  0  0  0  0
    5.5230    4.9300    0.0000 H   0  0  0  0  0  0  0  0  0  0  0  0
    6.6200    4.6340    0.0000 H   0  0  0  0  0  0  0  0  0  0  0  0
    7.2400    5.2540    0.0000 H   0  0  0  0  0  0  0  0  0  0  0  0
    6.6200    5.8740    0.0000 H   0  0  0  0  0  0  0  0  0  0  0  0
    5.5230    8.9300    0.0000 H   0  0  0  0  0  0  0  0  0  0  0  0
    2.7170    3.3100    0.0000 H   0  0  0  0  0  0  0  0  0  0  0  0
    2.7170    8.9300    0.0000 H   0  0  0  0  0  0  0  0  0  0  0  0
    5.5230    3.3100    0.0000 H   0  0  0  0  0  0  0  0  0  0  0  0
    4.1200    9.7400    0.0000 H   0  0  0  0  0  0  0  0  0  0  0  0
    4.1200    2.5000    0.0000 H   0  0  0  0  0  0  0  0  0  0  0  0
  2  9  2  0  0  0  0
  3  6  1  0  0  0  0
  3 11  1  0  0  0  0
  3 12  1  0  0  0  0
  3 28  1  0  0  0  0
  4  5  1  0  0  0  0
  4  7  1  0  0  0  0
  4  8  1  0  0  0  0
  4  9  1  0  0  0  0
  5  6  1  0  0  0  0
  5 24  1  0  0  0  0
  5 25  1  0  0  0  0
  6 26  1  0  0  0  0
  6 27  1  0  0  0  0
  7 14  2  0  0  0  0
  7 16  1  0  0  0  0
  8 13  2  0  0  0  0
  8 15  1  0  0  0  0
  9 10  1  0  0  0  0
 10 17  1  0  0  0  0
 10 29  1  0  0  0  0
 10 30  1  0  0  0  0
 11 31  1  0  0  0  0
 11 32  1  0  0  0  0
 11 33  1  0  0  0  0
 12 34  1  0  0  0  0
 12 35  1  0  0  0  0
 12 36  1  0  0  0  0
 13 18  1  0  0  0  0
 13 37  1  0  0  0  0
 14 19  1  0  0  0  0
 14 38  1  0  0  0  0
 15 20  2  0  0  0  0
 15 39  1  0  0  0  0
 16 21  2  0  0  0  0
 16 40  1  0  0  0  0
 17 41  1  0  0  0  0
 17 42  1  0  0  0  0
 17 43  1  0  0  0  0
 18 22  2  0  0  0  0
 18 44  1  0  0  0  0
 19 23  2  0  0  0  0
 19 45  1  0  0  0  0
 20 22  1  0  0  0  0
 20 46  1  0  0  0  0
 21 23  1  0  0  0  0
 21 47  1  0  0  0  0
 22 48  1  0  0  0  0
 23 49  1  0  0  0  0
M  CHG  2   1  -1   3   1
M  END
> <PUBCHEM_COMPOUND_CID>
13312

> <PUBCHEM_COMPOUND_CANONICALIZED>
1

> <PUBCHEM_CACTVS_COMPLEXITY>
320

> <PUBCHEM_CACTVS_HBOND_ACCEPTOR>
2

> <PUBCHEM_CACTVS_HBOND_DONOR>
1

> <PUBCHEM_CACTVS_ROTATABLE_BOND>
7

> <PUBCHEM_CACTVS_SUBSKEYS>
AAADceB6IAAEAAAAAAAAAAAAAAAAAAAAAAAwYAAAAAAAAAABQAAAHgAQAAAADgTBmAQyAIPAAACIAqBSAAACAAAgAAAIiIEIAIgIIDKAlRCEIAAgkAAIiAcciMCPgAAAAAAAAAAAAAAAAAAAAAAAAAAAAA==

> <PUBCHEM_IUPAC_OPENEYE_NAME>
dimethyl-(4-oxo-3,3-diphenyl-hexyl)ammonium chloride

> <PUBCHEM_IUPAC_CAS_NAME>
dimethyl-(4-oxo-3,3-diphenylhexyl)ammonium chloride

> <PUBCHEM_IUPAC_NAME>
dimethyl-(4-oxo-3,3-diphenylhexyl)azanium chloride

> <PUBCHEM_IUPAC_SYSTEMATIC_NAME>
dimethyl-(4-oxidanylidene-3,3-diphenyl-hexyl)azanium chloride

> <PUBCHEM_IUPAC_TRADITIONAL_NAME>
(4-keto-3,3-diphenyl-hexyl)-dimethyl-ammonium chloride

> <PUBCHEM_IUPAC_INCHI>
InChI=1S/C20H25NO.ClH/c1-4-19(22)20(15-16-21(2)3,17-11-7-5-8-12-17)18-13-9-6-10-14-18;/h5-14H,4,15-16H2,1-3H3;1H

> <PUBCHEM_IUPAC_INCHIKEY>
GYWUCVKLUKFJLC-UHFFFAOYSA-N

> <PUBCHEM_EXACT_MASS>
331.170292

> <PUBCHEM_MOLECULAR_FORMULA>
C20H26ClNO

> <PUBCHEM_MOLECULAR_WEIGHT>
331.87954

> <PUBCHEM_OPENEYE_CAN_SMILES>
CCC(=O)C(CC[NH+](C)C)(C1=CC=CC=C1)C2=CC=CC=C2.[Cl-]

> <PUBCHEM_OPENEYE_ISO_SMILES>
CCC(=O)C(CC[NH+](C)C)(C1=CC=CC=C1)C2=CC=CC=C2.[Cl-]

> <PUBCHEM_CACTVS_TPSA>
21.5

> <PUBCHEM_MONOISOTOPIC_WEIGHT>
331.170292

> <PUBCHEM_TOTAL_CHARGE>
0

> <PUBCHEM_HEAVY_ATOM_COUNT>
23

> <PUBCHEM_ATOM_DEF_STEREO_COUNT>
0

> <PUBCHEM_ATOM_UDEF_STEREO_COUNT>
0

> <PUBCHEM_BOND_DEF_STEREO_COUNT>
0

> <PUBCHEM_BOND_UDEF_STEREO_COUNT>
0

> <PUBCHEM_ISOTOPIC_ATOM_COUNT>
0

> <PUBCHEM_COMPONENT_COUNT>
2

> <PUBCHEM_CACTVS_TAUTO_COUNT>
2

> <PUBCHEM_COORDINATE_TYPE>
1
5
255

> <PUBCHEM_BONDANNOTATIONS>
13  18  8
14  19  8
15  20  8
16  21  8
18  22  8
19  23  8
20  22  8
21  23  8
7  14  8
7  16  8
8  13  8
8  15  8

$$$$

