64989
  -OEChem-07051213013D

 31 32  0     0  0  0  0  0  0999 V2000
   -3.5179   -0.7383   -0.4439 P   0  0  0  0  0  0  0  0  0  0  0  0
   -1.8901    1.0456    0.3624 O   0  0  0  0  0  0  0  0  0  0  0  0
   -2.4230   -1.2538   -1.5151 O   0  0  0  0  0  0  0  0  0  0  0  0
   -4.8966   -0.7496   -1.2872 O   0  0  0  0  0  0  0  0  0  0  0  0
    3.8182   -1.0519   -1.5367 O   0  0  0  0  0  0  0  0  0  0  0  0
   -3.5570   -1.5001    0.8473 O   0  0  0  0  0  0  0  0  0  0  0  0
    0.9135    1.7704    0.4714 N   0  0  0  0  0  0  0  0  0  0  0  0
    0.8128   -0.5633    1.1489 N   0  0  0  0  0  0  0  0  0  0  0  0
    2.5720    1.5714   -1.0278 N   0  0  0  0  0  0  0  0  0  0  0  0
    2.3907   -1.9876    0.0313 N   0  0  0  0  0  0  0  0  0  0  0  0
    0.8874   -2.8196    1.6449 N   0  0  0  0  0  0  0  0  0  0  0  0
   -0.1116    2.3878    1.2757 C   0  0  0  0  0  0  0  0  0  0  0  0
    1.2869    0.4701    0.4483 C   0  0  0  0  0  0  0  0  0  0  0  0
   -1.4714    2.3850    0.5905 C   0  0  0  0  0  0  0  0  0  0  0  0
    2.2945    0.3576   -0.4647 C   0  0  0  0  0  0  0  0  0  0  0  0
    1.7244    2.4024   -0.4448 C   0  0  0  0  0  0  0  0  0  0  0  0
   -3.1579    0.9975   -0.2771 C   0  0  0  0  0  0  0  0  0  0  0  0
    2.9128   -0.9278   -0.7209 C   0  0  0  0  0  0  0  0  0  0  0  0
    1.4122   -1.7959    0.8972 C   0  0  0  0  0  0  0  0  0  0  0  0
   -0.1571    1.8433    2.2255 H   0  0  0  0  0  0  0  0  0  0  0  0
    0.2056    3.4137    1.4926 H   0  0  0  0  0  0  0  0  0  0  0  0
   -2.2011    2.8917    1.2323 H   0  0  0  0  0  0  0  0  0  0  0  0
   -1.4150    2.9176   -0.3666 H   0  0  0  0  0  0  0  0  0  0  0  0
    1.6493    3.4631   -0.6430 H   0  0  0  0  0  0  0  0  0  0  0  0
    0.0599   -0.4850    1.8247 H   0  0  0  0  0  0  0  0  0  0  0  0
   -3.9163    1.4861    0.3427 H   0  0  0  0  0  0  0  0  0  0  0  0
   -3.1102    1.4835   -1.2567 H   0  0  0  0  0  0  0  0  0  0  0  0
    0.1352   -2.6603    2.3062 H   0  0  0  0  0  0  0  0  0  0  0  0
    1.2372   -3.7673    1.5556 H   0  0  0  0  0  0  0  0  0  0  0  0
   -2.4010   -2.2056   -1.7512 H   0  0  0  0  0  0  0  0  0  0  0  0
   -5.3268   -1.6092   -1.4824 H   0  0  0  0  0  0  0  0  0  0  0  0
  1  3  1  0  0  0  0
  1  4  1  0  0  0  0
  1  6  2  0  0  0  0
  1 17  1  0  0  0  0
  2 14  1  0  0  0  0
  2 17  1  0  0  0  0
  3 30  1  0  0  0  0
  4 31  1  0  0  0  0
  5 18  2  0  0  0  0
  7 12  1  0  0  0  0
  7 13  1  0  0  0  0
  7 16  1  0  0  0  0
  8 13  1  0  0  0  0
  8 19  1  0  0  0  0
  8 25  1  0  0  0  0
  9 15  1  0  0  0  0
  9 16  2  0  0  0  0
 10 18  1  0  0  0  0
 10 19  2  0  0  0  0
 11 19  1  0  0  0  0
 11 28  1  0  0  0  0
 11 29  1  0  0  0  0
 12 14  1  0  0  0  0
 12 20  1  0  0  0  0
 12 21  1  0  0  0  0
 13 15  2  0  0  0  0
 14 22  1  0  0  0  0
 14 23  1  0  0  0  0
 15 18  1  0  0  0  0
 16 24  1  0  0  0  0
 17 26  1  0  0  0  0
 17 27  1  0  0  0  0
M  END
> <PUBCHEM_COMPOUND_CID>
64989

> <PUBCHEM_CONFORMER_RMSD>
0.6

> <PUBCHEM_CONFORMER_DIVERSEORDER>
1
9
12
4
28
20
17
13
22
5
2
10
31
8
19
15
7
6
14
23
11
26
30
21
16
25
3
29
32
27
24
18

> <PUBCHEM_MMFF94_PARTIAL_CHARGES>
25
1 1.24
10 -0.66
11 -0.85
12 0.26
13 -0.07
14 0.28
15 0.14
16 0.04
17 0.28
18 0.87
19 0.55
2 -0.56
24 0.15
25 0.4
28 0.4
29 0.4
3 -0.77
30 0.5
31 0.5
4 -0.77
5 -0.57
6 -0.7
7 0.05
8 -0.53
9 -0.57

> <PUBCHEM_EFFECTIVE_ROTOR_COUNT>
5

> <PUBCHEM_PHARMACOPHORE_FEATURES>
12
1 10 donor
1 11 donor
1 2 acceptor
1 3 acceptor
1 4 acceptor
1 5 acceptor
1 6 acceptor
1 8 donor
3 7 9 16 cation
4 1 3 4 6 anion
5 7 9 13 15 16 rings
6 8 10 13 15 18 19 rings

> <PUBCHEM_HEAVY_ATOM_COUNT>
19

> <PUBCHEM_ATOM_DEF_STEREO_COUNT>
0

> <PUBCHEM_ATOM_UDEF_STEREO_COUNT>
0

> <PUBCHEM_BOND_DEF_STEREO_COUNT>
0

> <PUBCHEM_BOND_UDEF_STEREO_COUNT>
0

> <PUBCHEM_ISOTOPIC_ATOM_COUNT>
0

> <PUBCHEM_COMPONENT_COUNT>
1

> <PUBCHEM_CACTVS_TAUTO_COUNT>
6

> <PUBCHEM_CONFORMER_ID>
0000FDDD00000001

> <PUBCHEM_MMFF94_ENERGY>
7.9959

> <PUBCHEM_FEATURE_SELFOVERLAP>
61.172

> <PUBCHEM_SHAPE_FINGERPRINT>
11321824 6 16759454162926883336
11806522 49 18335983142699930312
12400797 292 18410569587237133636
12403259 327 14129061391982954167
12553582 1 18337953514607277321
14787075 74 18260833661972499512
16752209 62 17971201563013929833
16945 1 17481954120380959528
20291156 8 18334013925668911253
20645477 70 18261967236922161349
21452121 99 17559673919585546282
21634736 98 18409158922608877556
21731516 1 18260270758931025553
22112679 90 17981325913210658634
23379529 103 17968922154686483510
23402539 116 18268982263042058134
238 59 18123198909182970071
2748010 2 17112108765393963144
2871803 45 18412827962877708445
3323516 105 18270675343102028979

> <PUBCHEM_SHAPE_MULTIPOLES>
340.61
6.71
3.07
1.38
6.4
0.46
0
-2.98
3.3
-0.74
-0.98
-0.12
-0.49
-0.72

> <PUBCHEM_SHAPE_SELFOVERLAP>
704.591

> <PUBCHEM_SHAPE_VOLUME>
196.7

> <PUBCHEM_COORDINATE_TYPE>
2
5
10

$$$$

