13399
  -OEChem-06261209392D

 17 18  0     0  0  0  0  0  0999 V2000
    4.6783   -1.2161    0.0000 N   0  0  0  0  0  0  0  0  0  0  0  0
    5.2619   -0.4113    0.0000 N   0  0  0  0  0  0  0  0  0  0  0  0
    4.9889    1.3439    0.0000 N   0  0  0  0  0  0  0  0  0  0  0  0
    3.7320    0.0887    0.0000 C   0  0  0  0  0  0  0  0  0  0  0  0
    3.7320   -0.9113    0.0000 C   0  0  0  0  0  0  0  0  0  0  0  0
    4.6783    0.3934    0.0000 C   0  0  0  0  0  0  0  0  0  0  0  0
    2.8660    0.5887    0.0000 C   0  0  0  0  0  0  0  0  0  0  0  0
    2.8660   -1.4113    0.0000 C   0  0  0  0  0  0  0  0  0  0  0  0
    2.0000    0.0887    0.0000 C   0  0  0  0  0  0  0  0  0  0  0  0
    2.0000   -0.9113    0.0000 C   0  0  0  0  0  0  0  0  0  0  0  0
    2.8660    1.2087    0.0000 H   0  0  0  0  0  0  0  0  0  0  0  0
    2.8660   -2.0313    0.0000 H   0  0  0  0  0  0  0  0  0  0  0  0
    4.8709   -1.8054    0.0000 H   0  0  0  0  0  0  0  0  0  0  0  0
    1.4631    0.3987    0.0000 H   0  0  0  0  0  0  0  0  0  0  0  0
    1.4631   -1.2213    0.0000 H   0  0  0  0  0  0  0  0  0  0  0  0
    5.5956    1.4718    0.0000 H   0  0  0  0  0  0  0  0  0  0  0  0
    4.5749    1.8054    0.0000 H   0  0  0  0  0  0  0  0  0  0  0  0
  1  2  1  0  0  0  0
  1  5  1  0  0  0  0
  1 13  1  0  0  0  0
  2  6  2  0  0  0  0
  3  6  1  0  0  0  0
  3 16  1  0  0  0  0
  3 17  1  0  0  0  0
  4  5  1  0  0  0  0
  4  6  1  0  0  0  0
  4  7  2  0  0  0  0
  5  8  2  0  0  0  0
  7  9  1  0  0  0  0
  7 11  1  0  0  0  0
  8 10  1  0  0  0  0
  8 12  1  0  0  0  0
  9 10  2  0  0  0  0
  9 14  1  0  0  0  0
 10 15  1  0  0  0  0
M  END
> <PUBCHEM_COMPOUND_CID>
13399

> <PUBCHEM_COMPOUND_CANONICALIZED>
1

> <PUBCHEM_CACTVS_COMPLEXITY>
126

> <PUBCHEM_CACTVS_HBOND_ACCEPTOR>
2

> <PUBCHEM_CACTVS_HBOND_DONOR>
2

> <PUBCHEM_CACTVS_ROTATABLE_BOND>
0

> <PUBCHEM_CACTVS_SUBSKEYS>
AAADcYBjAAAAAAAAAAAAAAAAAAAAAWAAAAAwAAAAAAAAAFgB8AAAHAAYAAAADAiBHgAx8PBjAACiAyZiYACSBAIgAgAcuSAwZJgIIKKA0dGApABwmAAIyAcQgAAOAAAAAAACAAAAAAAAAAQAAAAAAAAAAA==

> <PUBCHEM_IUPAC_OPENEYE_NAME>
1H-indazol-3-amine

> <PUBCHEM_IUPAC_CAS_NAME>
1H-indazol-3-amine

> <PUBCHEM_IUPAC_NAME>
1H-indazol-3-amine

> <PUBCHEM_IUPAC_SYSTEMATIC_NAME>
1H-indazol-3-amine

> <PUBCHEM_IUPAC_TRADITIONAL_NAME>
1H-indazol-3-ylamine

> <PUBCHEM_IUPAC_INCHI>
InChI=1S/C7H7N3/c8-7-5-3-1-2-4-6(5)9-10-7/h1-4H,(H3,8,9,10)

> <PUBCHEM_IUPAC_INCHIKEY>
YDTDKKULPWTHRV-UHFFFAOYSA-N

> <PUBCHEM_XLOGP3_AA>
1.2

> <PUBCHEM_EXACT_MASS>
133.063997

> <PUBCHEM_MOLECULAR_FORMULA>
C7H7N3

> <PUBCHEM_MOLECULAR_WEIGHT>
133.15058

> <PUBCHEM_OPENEYE_CAN_SMILES>
C1=CC=C2C(=C1)C(=NN2)N

> <PUBCHEM_OPENEYE_ISO_SMILES>
C1=CC=C2C(=C1)C(=NN2)N

> <PUBCHEM_CACTVS_TPSA>
54.7

> <PUBCHEM_MONOISOTOPIC_WEIGHT>
133.063997

> <PUBCHEM_TOTAL_CHARGE>
0

> <PUBCHEM_HEAVY_ATOM_COUNT>
10

> <PUBCHEM_ATOM_DEF_STEREO_COUNT>
0

> <PUBCHEM_ATOM_UDEF_STEREO_COUNT>
0

> <PUBCHEM_BOND_DEF_STEREO_COUNT>
0

> <PUBCHEM_BOND_UDEF_STEREO_COUNT>
0

> <PUBCHEM_ISOTOPIC_ATOM_COUNT>
0

> <PUBCHEM_COMPONENT_COUNT>
1

> <PUBCHEM_CACTVS_TAUTO_COUNT>
13

> <PUBCHEM_COORDINATE_TYPE>
1
5
255

> <PUBCHEM_BONDANNOTATIONS>
1  2  8
1  5  8
2  6  8
4  5  8
4  6  8
4  7  8
5  8  8
7  9  8
8  10  8
9  10  8

$$$$

