12333
  -OEChem-06261206493D

 19 18  0     0  0  0  0  0  0999 V2000
   -0.0011   -1.7611    0.8355 O   0  5  0  0  0  0  0  0  0  0  0  0
   -0.0212   -1.1259   -1.2741 O   0  0  0  0  0  0  0  0  0  0  0  0
   -0.0003   -0.9003   -0.0558 N   0  3  0  0  0  0  0  0  0  0  0  0
    0.0043    0.5198    0.3687 C   0  0  0  0  0  0  0  0  0  0  0  0
   -1.2635    1.1766   -0.1824 C   0  0  0  0  0  0  0  0  0  0  0  0
    1.2739    1.1696   -0.1867 C   0  0  0  0  0  0  0  0  0  0  0  0
   -2.5415    0.4676    0.2518 C   0  0  0  0  0  0  0  0  0  0  0  0
    2.5495    0.4537    0.2430 C   0  0  0  0  0  0  0  0  0  0  0  0
    0.0064    0.5399    1.4650 H   0  0  0  0  0  0  0  0  0  0  0  0
   -1.3025    2.2149    0.1698 H   0  0  0  0  0  0  0  0  0  0  0  0
   -1.2434    1.2238   -1.2787 H   0  0  0  0  0  0  0  0  0  0  0  0
    1.3197    2.2080    0.1643 H   0  0  0  0  0  0  0  0  0  0  0  0
    1.2499    1.2153   -1.2830 H   0  0  0  0  0  0  0  0  0  0  0  0
   -2.6359   -0.5255   -0.1974 H   0  0  0  0  0  0  0  0  0  0  0  0
   -2.5825    0.3633    1.3408 H   0  0  0  0  0  0  0  0  0  0  0  0
   -3.4137    1.0507   -0.0622 H   0  0  0  0  0  0  0  0  0  0  0  0
    2.5942    0.3503    1.3320 H   0  0  0  0  0  0  0  0  0  0  0  0
    2.6357   -0.5404   -0.2055 H   0  0  0  0  0  0  0  0  0  0  0  0
    3.4238    1.0311   -0.0752 H   0  0  0  0  0  0  0  0  0  0  0  0
  1  3  1  0  0  0  0
  2  3  2  0  0  0  0
  3  4  1  0  0  0  0
  4  5  1  0  0  0  0
  4  6  1  0  0  0  0
  4  9  1  0  0  0  0
  5  7  1  0  0  0  0
  5 10  1  0  0  0  0
  5 11  1  0  0  0  0
  6  8  1  0  0  0  0
  6 12  1  0  0  0  0
  6 13  1  0  0  0  0
  7 14  1  0  0  0  0
  7 15  1  0  0  0  0
  7 16  1  0  0  0  0
  8 17  1  0  0  0  0
  8 18  1  0  0  0  0
  8 19  1  0  0  0  0
M  CHG  2   1  -1   3   1
M  END
> <PUBCHEM_COMPOUND_CID>
12333

> <PUBCHEM_CONFORMER_RMSD>
0.6

> <PUBCHEM_CONFORMER_DIVERSEORDER>
1
3
10
4
7
9
6
8
2
5

> <PUBCHEM_MMFF94_PARTIAL_CHARGES>
4
1 -0.52
2 -0.52
3 0.8
4 0.24

> <PUBCHEM_EFFECTIVE_ROTOR_COUNT>
3

> <PUBCHEM_PHARMACOPHORE_FEATURES>
5
1 1 acceptor
1 1 anion
1 2 acceptor
1 7 hydrophobe
1 8 hydrophobe

> <PUBCHEM_HEAVY_ATOM_COUNT>
8

> <PUBCHEM_ATOM_DEF_STEREO_COUNT>
0

> <PUBCHEM_ATOM_UDEF_STEREO_COUNT>
0

> <PUBCHEM_BOND_DEF_STEREO_COUNT>
0

> <PUBCHEM_BOND_UDEF_STEREO_COUNT>
0

> <PUBCHEM_ISOTOPIC_ATOM_COUNT>
0

> <PUBCHEM_COMPONENT_COUNT>
1

> <PUBCHEM_CACTVS_TAUTO_COUNT>
2

> <PUBCHEM_CONFORMER_ID>
0000302D00000001

> <PUBCHEM_MMFF94_ENERGY>
6.4347

> <PUBCHEM_FEATURE_SELFOVERLAP>
25.45

> <PUBCHEM_SHAPE_FINGERPRINT>
137420 1 8664206512309545296
16714656 1 18411700941652260876
21040471 1 18410853235483107376
24536 1 17767985137953080904
5084963 1 18410011035198387233
528862 383 17916600867549805354
5943 1 14856628232932994455

> <PUBCHEM_SHAPE_MULTIPOLES>
147.92
2.83
1.56
0.86
0.02
0.54
0.14
-1.08
-0.33
-0.01
-0.04
0
0.26
-0.01

> <PUBCHEM_SHAPE_SELFOVERLAP>
268.214

> <PUBCHEM_SHAPE_VOLUME>
95.5

> <PUBCHEM_COORDINATE_TYPE>
2
5
10

$$$$

