7802
  -OEChem-06261202203D

 22 21  0     0  0  0  0  0  0999 V2000
   -1.1526   -1.3112    0.0139 O   0  0  0  0  0  0  0  0  0  0  0  0
    1.4193   -0.2313   -0.0312 C   0  0  0  0  0  0  0  0  0  0  0  0
    0.1999    0.6873    0.0048 C   0  0  0  0  0  0  0  0  0  0  0  0
    2.7202    0.5695    0.0037 C   0  0  0  0  0  0  0  0  0  0  0  0
   -1.1120   -0.0820    0.0093 C   0  0  0  0  0  0  0  0  0  0  0  0
   -2.3702    0.7705    0.0097 C   0  0  0  0  0  0  0  0  0  0  0  0
    3.9362   -0.3432    0.0060 C   0  0  0  0  0  0  0  0  0  0  0  0
   -3.6408   -0.0595   -0.0162 C   0  0  0  0  0  0  0  0  0  0  0  0
    1.3890   -0.8515   -0.9358 H   0  0  0  0  0  0  0  0  0  0  0  0
    1.3879   -0.9187    0.8235 H   0  0  0  0  0  0  0  0  0  0  0  0
    0.2259    1.3084    0.9071 H   0  0  0  0  0  0  0  0  0  0  0  0
    0.2039    1.3442   -0.8720 H   0  0  0  0  0  0  0  0  0  0  0  0
    2.7453    1.2013    0.8992 H   0  0  0  0  0  0  0  0  0  0  0  0
    2.7704    1.2359   -0.8653 H   0  0  0  0  0  0  0  0  0  0  0  0
   -2.3586    1.3954    0.9087 H   0  0  0  0  0  0  0  0  0  0  0  0
   -2.3421    1.4213   -0.8706 H   0  0  0  0  0  0  0  0  0  0  0  0
    3.9586   -0.9689   -0.8919 H   0  0  0  0  0  0  0  0  0  0  0  0
    3.9329   -0.9992    0.8824 H   0  0  0  0  0  0  0  0  0  0  0  0
    4.8555    0.2503    0.0295 H   0  0  0  0  0  0  0  0  0  0  0  0
   -4.5209    0.5908   -0.0180 H   0  0  0  0  0  0  0  0  0  0  0  0
   -3.6799   -0.6910   -0.9099 H   0  0  0  0  0  0  0  0  0  0  0  0
   -3.7010   -0.7140    0.8597 H   0  0  0  0  0  0  0  0  0  0  0  0
  1  5  2  0  0  0  0
  2  3  1  0  0  0  0
  2  4  1  0  0  0  0
  2  9  1  0  0  0  0
  2 10  1  0  0  0  0
  3  5  1  0  0  0  0
  3 11  1  0  0  0  0
  3 12  1  0  0  0  0
  4  7  1  0  0  0  0
  4 13  1  0  0  0  0
  4 14  1  0  0  0  0
  5  6  1  0  0  0  0
  6  8  1  0  0  0  0
  6 15  1  0  0  0  0
  6 16  1  0  0  0  0
  7 17  1  0  0  0  0
  7 18  1  0  0  0  0
  7 19  1  0  0  0  0
  8 20  1  0  0  0  0
  8 21  1  0  0  0  0
  8 22  1  0  0  0  0
M  END
> <PUBCHEM_COMPOUND_CID>
7802

> <PUBCHEM_CONFORMER_RMSD>
0.6

> <PUBCHEM_CONFORMER_DIVERSEORDER>
1
59
6
48
58
45
57
3
55
49
43
53
11
41
51
47
37
35
19
39
4
56
36
54
44
33
27
16
40
5
52
38
34
29
2
42
31
7
26
20
50
18
12
13
10
8
46
32
24
28
22
21
25
9
17
30
15
23
14

> <PUBCHEM_MMFF94_PARTIAL_CHARGES>
4
1 -0.57
3 0.06
5 0.45
6 0.06

> <PUBCHEM_EFFECTIVE_ROTOR_COUNT>
4

> <PUBCHEM_PHARMACOPHORE_FEATURES>
3
1 1 acceptor
1 7 hydrophobe
1 8 hydrophobe

> <PUBCHEM_HEAVY_ATOM_COUNT>
8

> <PUBCHEM_ATOM_DEF_STEREO_COUNT>
0

> <PUBCHEM_ATOM_UDEF_STEREO_COUNT>
0

> <PUBCHEM_BOND_DEF_STEREO_COUNT>
0

> <PUBCHEM_BOND_UDEF_STEREO_COUNT>
0

> <PUBCHEM_ISOTOPIC_ATOM_COUNT>
0

> <PUBCHEM_COMPONENT_COUNT>
1

> <PUBCHEM_CACTVS_TAUTO_COUNT>
3

> <PUBCHEM_CONFORMER_ID>
00001E7A00000001

> <PUBCHEM_MMFF94_ENERGY>
-1.166

> <PUBCHEM_FEATURE_SELFOVERLAP>
15.223

> <PUBCHEM_SHAPE_FINGERPRINT>
11062470 55 4895552974199902569
12932764 1 16845305903661398268
14325111 11 18410574011095425669
14390081 3 18260832596118736480
190213 19 17561362881077970952
20719005 15 18410573985167307874
23235685 24 18408046220846307047
23402539 116 17967542289321226293
3248919 1 16878212096257962464
5460574 1 9295288339395914661

> <PUBCHEM_SHAPE_MULTIPOLES>
158.77
6.57
0.97
0.61
1.87
0.1
0
0.16
0.01
-0.17
0
0.01
-0.02
0

> <PUBCHEM_SHAPE_SELFOVERLAP>
281.893

> <PUBCHEM_SHAPE_VOLUME>
103.9

> <PUBCHEM_COORDINATE_TYPE>
2
5
10

$$$$

