5281441
  -OEChem-07051212572D

 61 64  0     1  0  0  0  0  0999 V2000
    8.3834   -2.4658    0.0000 O   0  0  0  0  0  0  0  0  0  0  0  0
    8.4469   -0.1791    0.0000 O   0  0  0  0  0  0  0  0  0  0  0  0
    6.1586    1.0463    0.0000 O   0  0  0  0  0  0  0  0  0  0  0  0
    6.5416    3.4096    0.0000 O   0  0  0  0  0  0  0  0  0  0  0  0
    4.2404    0.2644    0.0000 O   0  0  0  0  0  0  0  0  0  0  0  0
    8.9085    1.5362    0.0000 O   0  0  0  0  0  0  0  0  0  0  0  0
    4.5113    1.5815    0.0000 O   0  0  0  0  0  0  0  0  0  0  0  0
    2.9945   -2.0228    0.0000 O   0  0  0  0  0  0  0  0  0  0  0  0
    2.6835   -0.7754    0.0000 O   0  0  0  0  0  0  0  0  0  0  0  0
    2.5252    0.0233    0.0000 O   0  0  0  0  0  0  0  0  0  0  0  0
    7.3884   -2.5701    0.0000 C   0  0  1  0  0  0  0  0  0  0  0  0
    7.7952   -1.6566    0.0000 C   0  0  1  0  0  0  0  0  0  0  0  0
    7.5873   -0.6784    0.0000 C   0  0  2  0  0  0  0  0  0  0  0  0
    6.8441   -0.0093    0.0000 C   0  0  1  0  0  0  0  0  0  0  0  0
    6.5224   -3.0701    0.0000 C   0  0  0  0  0  0  0  0  0  0  0  0
    5.8496    0.0952    0.0000 C   0  0  1  0  0  0  0  0  0  0  0  0
    6.9817   -3.4836    0.0000 C   0  0  0  0  0  0  0  0  0  0  0  0
    7.2508    0.8978    0.0000 C   0  0  0  0  0  0  0  0  0  0  0  0
    5.5279   -2.9656    0.0000 C   0  0  0  0  0  0  0  0  0  0  0  0
    4.9836   -0.4048    0.0000 C   0  0  2  0  0  0  0  0  0  0  0  0
    8.2393    0.7930    0.0000 C   0  0  0  0  0  0  0  0  0  0  0  0
    5.7985    2.7405    0.0000 C   0  0  2  0  0  0  0  0  0  0  0  0
    4.5768   -1.3183    0.0000 C   0  0  0  0  0  0  0  0  0  0  0  0
    4.7847   -2.2964    0.0000 C   0  0  0  0  0  0  0  0  0  0  0  0
    6.7496    2.4315    0.0000 C   0  0  1  0  0  0  0  0  0  0  0  0
    5.4895    1.7894    0.0000 C   0  0  0  0  0  0  0  0  0  0  0  0
    6.7523    1.7647    0.0000 C   0  0  0  0  0  0  0  0  0  0  0  0
    5.1294    3.4836    0.0000 C   0  0  0  0  0  0  0  0  0  0  0  0
    7.4187    1.6883    0.0000 C   0  0  0  0  0  0  0  0  0  0  0  0
    3.5823   -1.2138    0.0000 C   0  0  0  0  0  0  0  0  0  0  0  0
    3.3133    0.6390    0.0000 C   0  0  0  0  0  0  0  0  0  0  0  0
    3.1741    1.6292    0.0000 C   0  0  0  0  0  0  0  0  0  0  0  0
    2.0000   -1.9183    0.0000 C   0  0  0  0  0  0  0  0  0  0  0  0
    8.5716   -1.3107    0.0000 H   0  0  0  0  0  0  0  0  0  0  0  0
    8.3642   -1.0231    0.0000 H   0  0  0  0  0  0  0  0  0  0  0  0
    6.4201    0.7274    0.0000 H   0  0  0  0  0  0  0  0  0  0  0  0
    6.2702   -3.6365    0.0000 H   0  0  0  0  0  0  0  0  0  0  0  0
    6.3935   -2.4636    0.0000 H   0  0  0  0  0  0  0  0  0  0  0  0
    5.3678    0.4854    0.0000 H   0  0  0  0  0  0  0  0  0  0  0  0
    6.4153   -3.2315    0.0000 H   0  0  0  0  0  0  0  0  0  0  0  0
    6.7295   -4.0500    0.0000 H   0  0  0  0  0  0  0  0  0  0  0  0
    7.5481   -3.7358    0.0000 H   0  0  0  0  0  0  0  0  0  0  0  0
    4.9910   -3.2756    0.0000 H   0  0  0  0  0  0  0  0  0  0  0  0
    5.6568   -3.5720    0.0000 H   0  0  0  0  0  0  0  0  0  0  0  0
    5.0484    0.2119    0.0000 H   0  0  0  0  0  0  0  0  0  0  0  0
    4.2478   -2.6064    0.0000 H   0  0  0  0  0  0  0  0  0  0  0  0
    7.3020    2.7130    0.0000 H   0  0  0  0  0  0  0  0  0  0  0  0
    7.0632    2.3011    0.0000 H   0  0  0  0  0  0  0  0  0  0  0  0
    6.1323    1.7658    0.0000 H   0  0  0  0  0  0  0  0  0  0  0  0
    5.5901    3.8985    0.0000 H   0  0  0  0  0  0  0  0  0  0  0  0
    4.7145    3.9444    0.0000 H   0  0  0  0  0  0  0  0  0  0  0  0
    4.6686    3.0688    0.0000 H   0  0  0  0  0  0  0  0  0  0  0  0
    6.9579    1.2735    0.0000 H   0  0  0  0  0  0  0  0  0  0  0  0
    7.8335    1.2276    0.0000 H   0  0  0  0  0  0  0  0  0  0  0  0
    7.8794    2.1032    0.0000 H   0  0  0  0  0  0  0  0  0  0  0  0
    3.7880    1.7156    0.0000 H   0  0  0  0  0  0  0  0  0  0  0  0
    3.0878    2.2432    0.0000 H   0  0  0  0  0  0  0  0  0  0  0  0
    2.5601    1.5430    0.0000 H   0  0  0  0  0  0  0  0  0  0  0  0
    2.0648   -1.3016    0.0000 H   0  0  0  0  0  0  0  0  0  0  0  0
    1.3834   -1.8534    0.0000 H   0  0  0  0  0  0  0  0  0  0  0  0
    1.9352   -2.5349    0.0000 H   0  0  0  0  0  0  0  0  0  0  0  0
  1 11  1  0  0  0  0
  1 12  1  0  0  0  0
  2 13  1  0  0  0  0
  2 21  1  0  0  0  0
 16  3  1  1  0  0  0
  3 26  1  0  0  0  0
  4 22  1  0  0  0  0
  4 25  1  0  0  0  0
 20  5  1  6  0  0  0
  5 31  1  0  0  0  0
  6 21  2  0  0  0  0
  7 26  2  0  0  0  0
  8 30  1  0  0  0  0
  8 33  1  0  0  0  0
  9 30  2  0  0  0  0
 10 31  2  0  0  0  0
 11 12  1  0  0  0  0
 11 15  1  0  0  0  0
 11 17  1  1  0  0  0
 12 13  1  0  0  0  0
 12 34  1  6  0  0  0
 13 14  1  0  0  0  0
 13 35  1  1  0  0  0
 14 16  1  0  0  0  0
 14 18  1  0  0  0  0
 14 36  1  6  0  0  0
 15 19  1  0  0  0  0
 15 37  1  0  0  0  0
 15 38  1  0  0  0  0
 16 20  1  0  0  0  0
 16 39  1  0  0  0  0
 17 40  1  0  0  0  0
 17 41  1  0  0  0  0
 17 42  1  0  0  0  0
 18 21  1  0  0  0  0
 18 27  2  0  0  0  0
 19 24  1  0  0  0  0
 19 43  1  0  0  0  0
 19 44  1  0  0  0  0
 20 23  1  0  0  0  0
 20 45  1  0  0  0  0
 22 25  1  0  0  0  0
 22 26  1  0  0  0  0
 22 28  1  1  0  0  0
 23 24  2  0  0  0  0
 23 30  1  0  0  0  0
 24 46  1  0  0  0  0
 25 29  1  6  0  0  0
 25 47  1  0  0  0  0
 27 48  1  0  0  0  0
 27 49  1  0  0  0  0
 28 50  1  0  0  0  0
 28 51  1  0  0  0  0
 28 52  1  0  0  0  0
 29 53  1  0  0  0  0
 29 54  1  0  0  0  0
 29 55  1  0  0  0  0
 31 32  1  0  0  0  0
 32 56  1  0  0  0  0
 32 57  1  0  0  0  0
 32 58  1  0  0  0  0
 33 59  1  0  0  0  0
 33 60  1  0  0  0  0
 33 61  1  0  0  0  0
M  END
> <PUBCHEM_COMPOUND_CID>
5281441

> <PUBCHEM_COMPOUND_CANONICALIZED>
1

> <PUBCHEM_CACTVS_COMPLEXITY>
953

> <PUBCHEM_CACTVS_HBOND_ACCEPTOR>
10

> <PUBCHEM_CACTVS_HBOND_DONOR>
0

> <PUBCHEM_CACTVS_ROTATABLE_BOND>
7

> <PUBCHEM_CACTVS_SUBSKEYS>
AAADceB4PAAAAAAAAAAAAAAAEiQAASAAAAAAAAAAAAAAAACAAAAAGgAAAAAADVSggAICCAAABACIAiDSCAIAAAAgAAAACAFAAEgBBBYAIQQCEAAF4AAKIYPK7PzOAAAAAAAAAAAAAAAAAAAAAAAAAAAAAA==

> <PUBCHEM_IUPAC_INCHI>
InChI=1S/C23H28O10/c1-10-14-16(31-21(27)23(5)11(2)32-23)15(29-12(3)24)13(20(26)28-6)8-7-9-22(4)18(33-22)17(14)30-19(10)25/h8,11,14-18H,1,7,9H2,2-6H3/b13-8+/t11-,14-,15+,16+,17+,18-,22-,23-/m1/s1

> <PUBCHEM_IUPAC_INCHIKEY>
VCBNPTWPJQLHQN-FQAPAZNFSA-N

> <PUBCHEM_XLOGP3_AA>
1.4

> <PUBCHEM_EXACT_MASS>
464.168247

> <PUBCHEM_MOLECULAR_FORMULA>
C23H28O10

> <PUBCHEM_MOLECULAR_WEIGHT>
464.46242

> <PUBCHEM_OPENEYE_CAN_SMILES>
CC1C(O1)(C)C(=O)OC2C3C(C4C(O4)(CCC=C(C2OC(=O)C)C(=O)OC)C)OC(=O)C3=C

> <PUBCHEM_OPENEYE_ISO_SMILES>
C[C@@H]1[C@](O1)(C)C(=O)O[C@H]2[C@@H]3[C@@H]([C@@H]4[C@](O4)(CC/C=C(\[C@@H]2OC(=O)C)/C(=O)OC)C)OC(=O)C3=C

> <PUBCHEM_CACTVS_TPSA>
130

> <PUBCHEM_MONOISOTOPIC_WEIGHT>
464.168247

> <PUBCHEM_TOTAL_CHARGE>
0

> <PUBCHEM_HEAVY_ATOM_COUNT>
33

> <PUBCHEM_ATOM_DEF_STEREO_COUNT>
8

> <PUBCHEM_ATOM_UDEF_STEREO_COUNT>
0

> <PUBCHEM_BOND_DEF_STEREO_COUNT>
1

> <PUBCHEM_BOND_UDEF_STEREO_COUNT>
0

> <PUBCHEM_ISOTOPIC_ATOM_COUNT>
0

> <PUBCHEM_COMPONENT_COUNT>
1

> <PUBCHEM_CACTVS_TAUTO_COUNT>
1

> <PUBCHEM_COORDINATE_TYPE>
1
5
255

> <PUBCHEM_BONDANNOTATIONS>
11  17  5
12  34  6
13  35  5
14  36  6
22  28  5
25  29  6
16  3  5
20  5  6

$$$$

