101301
  -OEChem-07051213073D

 54 57  0     1  0  0  0  0  0999 V2000
    4.5346   -1.4908   -0.4721 O   0  0  0  0  0  0  0  0  0  0  0  0
   -4.6695    2.0640   -0.7111 O   0  0  0  0  0  0  0  0  0  0  0  0
    6.0035    0.8155   -0.1452 O   0  0  0  0  0  0  0  0  0  0  0  0
   -6.0192   -0.2121    0.1338 O   0  0  0  0  0  0  0  0  0  0  0  0
    0.3139   -1.4702    0.2337 N   0  0  2  0  0  0  0  0  0  0  0  0
   -0.3311   -0.2348   -0.2755 C   0  0  2  0  0  0  0  0  0  0  0  0
    0.3501    0.9691    0.4501 C   0  0  2  0  0  0  0  0  0  0  0  0
   -1.8538   -0.2270   -0.1570 C   0  0  0  0  0  0  0  0  0  0  0  0
    1.7039   -1.5570   -0.2464 C   0  0  0  0  0  0  0  0  0  0  0  0
   -0.4306   -2.6764   -0.1336 C   0  0  0  0  0  0  0  0  0  0  0  0
    1.8602    0.9219    0.2717 C   0  0  0  0  0  0  0  0  0  0  0  0
    2.5021   -0.2947   -0.0194 C   0  0  0  0  0  0  0  0  0  0  0  0
   -1.7985   -2.6518    0.5436 C   0  0  0  0  0  0  0  0  0  0  0  0
   -2.5501   -1.3893    0.2223 C   0  0  0  0  0  0  0  0  0  0  0  0
    0.0252    1.0304    1.9534 C   0  0  0  0  0  0  0  0  0  0  0  0
   -2.5924    0.9207   -0.4900 C   0  0  0  0  0  0  0  0  0  0  0  0
    2.6273    2.0866    0.4263 C   0  0  0  0  0  0  0  0  0  0  0  0
    3.8966   -0.3234   -0.1648 C   0  0  0  0  0  0  0  0  0  0  0  0
   -3.9479   -1.3671    0.3326 C   0  0  0  0  0  0  0  0  0  0  0  0
   -3.9847    0.9303   -0.3919 C   0  0  0  0  0  0  0  0  0  0  0  0
    4.6483    0.8405   -0.0074 C   0  0  0  0  0  0  0  0  0  0  0  0
   -4.6615   -0.2104    0.0275 C   0  0  0  0  0  0  0  0  0  0  0  0
    4.0142    2.0445    0.2878 C   0  0  0  0  0  0  0  0  0  0  0  0
    5.5013   -1.9629    0.4620 C   0  0  0  0  0  0  0  0  0  0  0  0
   -4.9086    2.9949    0.3425 C   0  0  0  0  0  0  0  0  0  0  0  0
    6.5264    1.0500   -1.4512 C   0  0  0  0  0  0  0  0  0  0  0  0
   -6.7597   -0.6006   -1.0218 C   0  0  0  0  0  0  0  0  0  0  0  0
   -0.1300   -0.1597   -1.3560 H   0  0  0  0  0  0  0  0  0  0  0  0
   -0.0001    1.8998   -0.0142 H   0  0  0  0  0  0  0  0  0  0  0  0
    1.7262   -1.7826   -1.3211 H   0  0  0  0  0  0  0  0  0  0  0  0
    2.1942   -2.3811    0.2866 H   0  0  0  0  0  0  0  0  0  0  0  0
    0.1020   -3.5728    0.2071 H   0  0  0  0  0  0  0  0  0  0  0  0
   -0.5411   -2.7551   -1.2235 H   0  0  0  0  0  0  0  0  0  0  0  0
   -1.6847   -2.7247    1.6325 H   0  0  0  0  0  0  0  0  0  0  0  0
   -2.3714   -3.5247    0.2082 H   0  0  0  0  0  0  0  0  0  0  0  0
    0.4903    1.9064    2.4200 H   0  0  0  0  0  0  0  0  0  0  0  0
   -1.0519    1.1095    2.1290 H   0  0  0  0  0  0  0  0  0  0  0  0
    0.3919    0.1469    2.4877 H   0  0  0  0  0  0  0  0  0  0  0  0
   -2.0846    1.8186   -0.8333 H   0  0  0  0  0  0  0  0  0  0  0  0
    2.1462    3.0337    0.6579 H   0  0  0  0  0  0  0  0  0  0  0  0
   -4.4809   -2.2604    0.6505 H   0  0  0  0  0  0  0  0  0  0  0  0
    4.5934    2.9556    0.4115 H   0  0  0  0  0  0  0  0  0  0  0  0
    5.3132   -1.5973    1.4776 H   0  0  0  0  0  0  0  0  0  0  0  0
    6.5066   -1.6817    0.1361 H   0  0  0  0  0  0  0  0  0  0  0  0
    5.4464   -3.0554    0.4792 H   0  0  0  0  0  0  0  0  0  0  0  0
   -3.9621    3.3635    0.7505 H   0  0  0  0  0  0  0  0  0  0  0  0
   -5.5058    2.5343    1.1357 H   0  0  0  0  0  0  0  0  0  0  0  0
   -5.4659    3.8413   -0.0680 H   0  0  0  0  0  0  0  0  0  0  0  0
    6.2571    2.0529   -1.7971 H   0  0  0  0  0  0  0  0  0  0  0  0
    6.1581    0.2978   -2.1559 H   0  0  0  0  0  0  0  0  0  0  0  0
    7.6164    0.9780   -1.4015 H   0  0  0  0  0  0  0  0  0  0  0  0
   -6.5522    0.0747   -1.8579 H   0  0  0  0  0  0  0  0  0  0  0  0
   -7.8247   -0.5425   -0.7816 H   0  0  0  0  0  0  0  0  0  0  0  0
   -6.5197   -1.6311   -1.3022 H   0  0  0  0  0  0  0  0  0  0  0  0
  1 18  1  0  0  0  0
  1 24  1  0  0  0  0
  2 20  1  0  0  0  0
  2 25  1  0  0  0  0
  3 21  1  0  0  0  0
  3 26  1  0  0  0  0
  4 22  1  0  0  0  0
  4 27  1  0  0  0  0
  5  6  1  0  0  0  0
  5  9  1  0  0  0  0
  5 10  1  0  0  0  0
  6  7  1  0  0  0  0
  6  8  1  0  0  0  0
  6 28  1  0  0  0  0
  7 11  1  0  0  0  0
  7 15  1  0  0  0  0
  7 29  1  0  0  0  0
  8 14  1  0  0  0  0
  8 16  2  0  0  0  0
  9 12  1  0  0  0  0
  9 30  1  0  0  0  0
  9 31  1  0  0  0  0
 10 13  1  0  0  0  0
 10 32  1  0  0  0  0
 10 33  1  0  0  0  0
 11 12  2  0  0  0  0
 11 17  1  0  0  0  0
 12 18  1  0  0  0  0
 13 14  1  0  0  0  0
 13 34  1  0  0  0  0
 13 35  1  0  0  0  0
 14 19  2  0  0  0  0
 15 36  1  0  0  0  0
 15 37  1  0  0  0  0
 15 38  1  0  0  0  0
 16 20  1  0  0  0  0
 16 39  1  0  0  0  0
 17 23  2  0  0  0  0
 17 40  1  0  0  0  0
 18 21  2  0  0  0  0
 19 22  1  0  0  0  0
 19 41  1  0  0  0  0
 20 22  2  0  0  0  0
 21 23  1  0  0  0  0
 23 42  1  0  0  0  0
 24 43  1  0  0  0  0
 24 44  1  0  0  0  0
 24 45  1  0  0  0  0
 25 46  1  0  0  0  0
 25 47  1  0  0  0  0
 25 48  1  0  0  0  0
 26 49  1  0  0  0  0
 26 50  1  0  0  0  0
 26 51  1  0  0  0  0
 27 52  1  0  0  0  0
 27 53  1  0  0  0  0
 27 54  1  0  0  0  0
M  END
> <PUBCHEM_COMPOUND_CID>
101301

> <PUBCHEM_CONFORMER_RMSD>
0.8

> <PUBCHEM_CONFORMER_DIVERSEORDER>
1
2

> <PUBCHEM_MMFF94_PARTIAL_CHARGES>
30
1 -0.36
10 0.27
11 -0.14
12 -0.14
13 0.14
14 -0.14
16 -0.15
17 -0.15
18 0.08
19 -0.15
2 -0.36
20 0.08
21 0.08
22 0.08
23 -0.15
24 0.28
25 0.28
26 0.28
27 0.28
3 -0.36
39 0.15
4 -0.36
40 0.15
41 0.15
42 0.15
5 -0.81
6 0.41
7 0.14
8 -0.14
9 0.41

> <PUBCHEM_EFFECTIVE_ROTOR_COUNT>
4.8

> <PUBCHEM_PHARMACOPHORE_FEATURES>
9
1 1 acceptor
1 2 acceptor
1 3 acceptor
1 4 acceptor
1 5 cation
6 11 12 17 18 21 23 rings
6 5 6 7 9 11 12 rings
6 5 6 8 10 13 14 rings
6 8 14 16 19 20 22 rings

> <PUBCHEM_HEAVY_ATOM_COUNT>
27

> <PUBCHEM_ATOM_DEF_STEREO_COUNT>
2

> <PUBCHEM_ATOM_UDEF_STEREO_COUNT>
0

> <PUBCHEM_BOND_DEF_STEREO_COUNT>
0

> <PUBCHEM_BOND_UDEF_STEREO_COUNT>
0

> <PUBCHEM_ISOTOPIC_ATOM_COUNT>
0

> <PUBCHEM_COMPONENT_COUNT>
1

> <PUBCHEM_CACTVS_TAUTO_COUNT>
1

> <PUBCHEM_CONFORMER_ID>
00018BB500000001

> <PUBCHEM_MMFF94_ENERGY>
120.551

> <PUBCHEM_FEATURE_SELFOVERLAP>
45.745

> <PUBCHEM_SHAPE_FINGERPRINT>
10906281 52 18115007710780464520
1100329 8 17184467062549476194
11578080 2 16699505332181118743
12011746 2 18411705348942457703
12390115 104 18336535110416707569
12403259 415 18334298634471438744
12788726 201 17895187857303639336
13402501 40 18410857655051849893
13533116 47 18186518839229404802
13668630 136 16805597036539002236
13785724 45 17763186139324353314
14790565 3 18411134779063269753
14931854 50 18333734641378956717
15183329 4 18410009935839506472
15196674 1 18410856576856614510
17349148 13 17749101197523348394
17844677 252 18409725175281710761
1813 80 4823216134447559395
18608769 82 18339078182370592123
21033648 29 18335711511192326088
21065198 57 18339924809969639026
21236236 1 18410012161239337509
21267235 1 18410288117019509999
21279426 13 18264487450215765628
21315764 268 18341901766215442133
21421861 104 17774457087339047650
21792961 116 18336815443195666750
221357 26 18259990353612323977
2215653 11 18259980457865061094
22224240 67 13470412141134428129
23559900 14 18188210884603314184
23569914 152 16812622074612964020
3004659 81 18343300405889668150
335352 9 18409729543859348750
350125 39 18410572877725102577
3545911 37 18410572855649087252
3680242 22 18268994365853736314
4073 2 17988638546083045946
4214541 1 18411700980391284629
495365 180 17313958415833077026
5104073 3 18342177782045574824
5265222 85 18193827155727608212
5283173 99 18409730685608707264
6328613 192 18272926095044057396
9996256 80 18408044000907644159

> <PUBCHEM_SHAPE_MULTIPOLES>
527.19
15.07
2.77
0.97
0.43
0.06
-0.12
-3.43
4.11
-0.76
-0.32
0.21
-0.22
-0.09

> <PUBCHEM_SHAPE_SELFOVERLAP>
1140.926

> <PUBCHEM_SHAPE_VOLUME>
290.4

> <PUBCHEM_COORDINATE_TYPE>
2
5
10

$$$$

