72276
  -OEChem-07051212583D

 35 37  0     1  0  0  0  0  0999 V2000
    0.4554    0.7571   -0.1114 O   0  0  0  0  0  0  0  0  0  0  0  0
   -0.0198   -1.3181    1.8283 O   0  0  0  0  0  0  0  0  0  0  0  0
    4.3334   -2.1453   -0.0043 O   0  0  0  0  0  0  0  0  0  0  0  0
    4.8215    2.5776   -0.3171 O   0  0  0  0  0  0  0  0  0  0  0  0
   -5.1189   -0.8225   -1.5254 O   0  0  0  0  0  0  0  0  0  0  0  0
   -5.8048    0.9634    0.4911 O   0  0  0  0  0  0  0  0  0  0  0  0
    0.0528   -1.6121    0.4327 C   0  0  1  0  0  0  0  0  0  0  0  0
   -0.3707   -0.3857   -0.3865 C   0  0  1  0  0  0  0  0  0  0  0  0
    1.4880   -1.9916    0.0735 C   0  0  0  0  0  0  0  0  0  0  0  0
    2.3596   -0.7696   -0.0367 C   0  0  0  0  0  0  0  0  0  0  0  0
    1.8044    0.5129   -0.1299 C   0  0  0  0  0  0  0  0  0  0  0  0
   -1.8267   -0.0272   -0.1539 C   0  0  0  0  0  0  0  0  0  0  0  0
    3.7534   -0.9121   -0.0674 C   0  0  0  0  0  0  0  0  0  0  0  0
    2.6318    1.6361   -0.2107 C   0  0  0  0  0  0  0  0  0  0  0  0
   -2.8188   -0.5931   -0.9529 C   0  0  0  0  0  0  0  0  0  0  0  0
   -2.1694    0.8683    0.8581 C   0  0  0  0  0  0  0  0  0  0  0  0
    4.5779    0.2096   -0.1623 C   0  0  0  0  0  0  0  0  0  0  0  0
    4.0172    1.4831   -0.2297 C   0  0  0  0  0  0  0  0  0  0  0  0
   -4.1571   -0.2628   -0.7396 C   0  0  0  0  0  0  0  0  0  0  0  0
   -3.5076    1.1987    1.0713 C   0  0  0  0  0  0  0  0  0  0  0  0
   -4.5014    0.6331    0.2726 C   0  0  0  0  0  0  0  0  0  0  0  0
   -0.6030   -2.4707    0.2456 H   0  0  0  0  0  0  0  0  0  0  0  0
   -0.2554   -0.6034   -1.4586 H   0  0  0  0  0  0  0  0  0  0  0  0
    1.5007   -2.5079   -0.8940 H   0  0  0  0  0  0  0  0  0  0  0  0
    1.8879   -2.6664    0.8395 H   0  0  0  0  0  0  0  0  0  0  0  0
    2.1897    2.6282   -0.2657 H   0  0  0  0  0  0  0  0  0  0  0  0
   -2.5491   -1.2932   -1.7399 H   0  0  0  0  0  0  0  0  0  0  0  0
   -0.9590   -1.2961    2.0778 H   0  0  0  0  0  0  0  0  0  0  0  0
   -1.4138    1.3149    1.4984 H   0  0  0  0  0  0  0  0  0  0  0  0
    5.6594    0.0989   -0.1825 H   0  0  0  0  0  0  0  0  0  0  0  0
   -3.7622    1.8965    1.8646 H   0  0  0  0  0  0  0  0  0  0  0  0
    5.3002   -2.0460   -0.0383 H   0  0  0  0  0  0  0  0  0  0  0  0
    4.2661    3.3752   -0.3553 H   0  0  0  0  0  0  0  0  0  0  0  0
   -4.6962   -1.4158   -2.1700 H   0  0  0  0  0  0  0  0  0  0  0  0
   -5.8521    1.5945    1.2297 H   0  0  0  0  0  0  0  0  0  0  0  0
  1  8  1  0  0  0  0
  1 11  1  0  0  0  0
  2  7  1  0  0  0  0
  2 28  1  0  0  0  0
  3 13  1  0  0  0  0
  3 32  1  0  0  0  0
  4 18  1  0  0  0  0
  4 33  1  0  0  0  0
  5 19  1  0  0  0  0
  5 34  1  0  0  0  0
  6 21  1  0  0  0  0
  6 35  1  0  0  0  0
  7  8  1  0  0  0  0
  7  9  1  0  0  0  0
  7 22  1  0  0  0  0
  8 12  1  0  0  0  0
  8 23  1  0  0  0  0
  9 10  1  0  0  0  0
  9 24  1  0  0  0  0
  9 25  1  0  0  0  0
 10 11  1  0  0  0  0
 10 13  2  0  0  0  0
 11 14  2  0  0  0  0
 12 15  2  0  0  0  0
 12 16  1  0  0  0  0
 13 17  1  0  0  0  0
 14 18  1  0  0  0  0
 14 26  1  0  0  0  0
 15 19  1  0  0  0  0
 15 27  1  0  0  0  0
 16 20  2  0  0  0  0
 16 29  1  0  0  0  0
 17 18  2  0  0  0  0
 17 30  1  0  0  0  0
 19 21  2  0  0  0  0
 20 21  1  0  0  0  0
 20 31  1  0  0  0  0
M  END
> <PUBCHEM_COMPOUND_CID>
72276

> <PUBCHEM_CONFORMER_RMSD>
0.6

> <PUBCHEM_CONFORMER_DIVERSEORDER>
2
7
6
3
8
9
5
4
10
1

> <PUBCHEM_MMFF94_PARTIAL_CHARGES>
31
1 -0.36
10 -0.14
11 0.08
12 -0.14
13 0.08
14 -0.15
15 -0.15
16 -0.15
17 -0.15
18 0.08
19 0.08
2 -0.68
20 -0.15
21 0.08
26 0.15
27 0.15
28 0.4
29 0.15
3 -0.53
30 0.15
31 0.15
32 0.45
33 0.45
34 0.45
35 0.45
4 -0.53
5 -0.53
6 -0.53
7 0.28
8 0.42
9 0.14

> <PUBCHEM_EFFECTIVE_ROTOR_COUNT>
1.8

> <PUBCHEM_PHARMACOPHORE_FEATURES>
10
1 1 acceptor
1 2 acceptor
1 2 donor
1 3 donor
1 4 donor
1 5 donor
1 6 donor
6 1 7 8 9 10 11 rings
6 10 11 13 14 17 18 rings
6 12 15 16 19 20 21 rings

> <PUBCHEM_HEAVY_ATOM_COUNT>
21

> <PUBCHEM_ATOM_DEF_STEREO_COUNT>
2

> <PUBCHEM_ATOM_UDEF_STEREO_COUNT>
0

> <PUBCHEM_BOND_DEF_STEREO_COUNT>
0

> <PUBCHEM_BOND_UDEF_STEREO_COUNT>
0

> <PUBCHEM_ISOTOPIC_ATOM_COUNT>
0

> <PUBCHEM_COMPONENT_COUNT>
1

> <PUBCHEM_CACTVS_TAUTO_COUNT>
90

> <PUBCHEM_CONFORMER_ID>
00011A5400000002

> <PUBCHEM_MMFF94_ENERGY>
59.9404

> <PUBCHEM_FEATURE_SELFOVERLAP>
50.779

> <PUBCHEM_SHAPE_FINGERPRINT>
10411042 1 17763744686909870250
10595046 47 18260550000424411557
10912923 1 18113899364257144177
11471102 20 18341895203747623462
12107183 9 17612865307024146113
12236239 1 18333449863714462621
12403259 415 17704075122355097989
12616971 3 18335420209757261327
13140716 1 18272650126236629626
13167823 11 18260268564002322783
13631057 29 18193563255704929135
13760787 5 18410014351303120709
14528608 73 18334575711512245636
14739800 52 17604446106700435216
15196674 1 18410572868597273143
15342168 16 18129654193357557692
15375358 24 16845577521730310805
15848702 151 18189895494761151150
17834072 33 18333452045188571063
18186145 218 18130788970892962494
19784866 240 16371273563390617782
200 152 18261115171113288607
204376 136 17988640761684588667
20612939 158 18411982472753320220
20645477 70 18411420635286502134
21033648 144 18271812289279576838
21033648 29 17131840875584891589
21267235 1 18335411421890456231
21709351 56 18337957916547731748
22079108 93 18130781244621220323
23402539 116 17822016423542347149
23402655 69 18334576806907955366
23557571 272 15068613946056280616
23558518 356 17341245961940213754
23559900 14 18341328921216104570
29717793 49 17968381238078086613
335352 9 18412260624279886294
34797466 226 15792014420075168064
4340502 62 17988913493009861315
474 4 18342455898468901812
5104073 3 18341894069406922099
542803 24 18409167714396363341
602551 16 15647633176076202319
633830 44 18341894116709557791
69090 78 18411140220908153078
7495541 125 16805614646142344267
8272917 22 18335697273823853254
9981440 41 17398124759139244680

> <PUBCHEM_SHAPE_MULTIPOLES>
396.95
11.38
2
1.01
5.2
0.08
-0.13
3.26
1.59
-2.45
-0.12
0.98
-0.17
-1.17

> <PUBCHEM_SHAPE_SELFOVERLAP>
876.493

> <PUBCHEM_SHAPE_VOLUME>
211.8

> <PUBCHEM_COORDINATE_TYPE>
2
5
10

$$$$

