17395695
  -OEChem-06241222512D

 45 47  0     0  0  0  0  0  0999 V2000
    5.8550   -0.0781    0.0000 S   0  0  0  0  0  0  0  0  0  0  0  0
    6.4763    1.8229    0.0000 O   0  0  0  0  0  0  0  0  0  0  0  0
   11.4544    1.2910    0.0000 O   0  0  0  0  0  0  0  0  0  0  0  0
   10.7472   -0.2901    0.0000 O   0  0  0  0  0  0  0  0  0  0  0  0
    8.5310    2.1977    0.0000 N   0  0  0  0  0  0  0  0  0  0  0  0
    4.5981   -1.3334    0.0000 N   0  0  0  0  0  0  0  0  0  0  0  0
    3.7320   -2.8334    0.0000 N   0  0  0  0  0  0  0  0  0  0  0  0
    6.1279   -1.8334    0.0000 N   0  0  0  0  0  0  0  0  0  0  0  0
    5.5443   -2.6381    0.0000 N   0  0  0  0  0  0  0  0  0  0  0  0
    8.8646    0.6144    0.0000 C   0  0  0  0  0  0  0  0  0  0  0  0
    8.1226    1.2848    0.0000 C   0  0  0  0  0  0  0  0  0  0  0  0
    9.7315    1.1129    0.0000 C   0  0  0  0  0  0  0  0  0  0  0  0
    9.5253    2.0914    0.0000 C   0  0  0  0  0  0  0  0  0  0  0  0
    7.1441    1.0786    0.0000 C   0  0  0  0  0  0  0  0  0  0  0  0
    8.7584   -0.3799    0.0000 C   0  0  0  0  0  0  0  0  0  0  0  0
    6.8335    0.1281    0.0000 C   0  0  0  0  0  0  0  0  0  0  0  0
   10.1957    2.8334    0.0000 C   0  0  0  0  0  0  0  0  0  0  0  0
    3.7320   -0.8334    0.0000 C   0  0  0  0  0  0  0  0  0  0  0  0
    5.5443   -1.0287    0.0000 C   0  0  0  0  0  0  0  0  0  0  0  0
    4.5981   -2.3334    0.0000 C   0  0  0  0  0  0  0  0  0  0  0  0
   10.6443    0.7046    0.0000 C   0  0  0  0  0  0  0  0  0  0  0  0
    2.8660   -1.3334    0.0000 C   0  0  0  0  0  0  0  0  0  0  0  0
    2.8660   -2.3334    0.0000 C   0  0  0  0  0  0  0  0  0  0  0  0
    3.7320    0.1666    0.0000 C   0  0  0  0  0  0  0  0  0  0  0  0
    2.0000   -2.8334    0.0000 C   0  0  0  0  0  0  0  0  0  0  0  0
   12.3672    0.8827    0.0000 C   0  0  0  0  0  0  0  0  0  0  0  0
    8.2219    2.7351    0.0000 H   0  0  0  0  0  0  0  0  0  0  0  0
    8.1419   -0.3141    0.0000 H   0  0  0  0  0  0  0  0  0  0  0  0
    8.6925   -0.9964    0.0000 H   0  0  0  0  0  0  0  0  0  0  0  0
    9.3749   -0.4458    0.0000 H   0  0  0  0  0  0  0  0  0  0  0  0
    6.8540   -0.4916    0.0000 H   0  0  0  0  0  0  0  0  0  0  0  0
    7.4473    0.0407    0.0000 H   0  0  0  0  0  0  0  0  0  0  0  0
   10.6557    2.4177    0.0000 H   0  0  0  0  0  0  0  0  0  0  0  0
   10.6114    3.2934    0.0000 H   0  0  0  0  0  0  0  0  0  0  0  0
    9.7357    3.2490    0.0000 H   0  0  0  0  0  0  0  0  0  0  0  0
    2.3291   -1.0234    0.0000 H   0  0  0  0  0  0  0  0  0  0  0  0
    4.3520    0.1666    0.0000 H   0  0  0  0  0  0  0  0  0  0  0  0
    3.7320    0.7866    0.0000 H   0  0  0  0  0  0  0  0  0  0  0  0
    3.1120    0.1666    0.0000 H   0  0  0  0  0  0  0  0  0  0  0  0
    1.6900   -2.2965    0.0000 H   0  0  0  0  0  0  0  0  0  0  0  0
    1.4631   -3.1434    0.0000 H   0  0  0  0  0  0  0  0  0  0  0  0
    2.3100   -3.3703    0.0000 H   0  0  0  0  0  0  0  0  0  0  0  0
   12.1141    0.3167    0.0000 H   0  0  0  0  0  0  0  0  0  0  0  0
   12.9332    0.6295    0.0000 H   0  0  0  0  0  0  0  0  0  0  0  0
   12.6204    1.4486    0.0000 H   0  0  0  0  0  0  0  0  0  0  0  0
  1 16  1  0  0  0  0
  1 19  1  0  0  0  0
  2 14  2  0  0  0  0
  3 21  1  0  0  0  0
  3 26  1  0  0  0  0
  4 21  2  0  0  0  0
  5 11  1  0  0  0  0
  5 13  1  0  0  0  0
  5 27  1  0  0  0  0
  6 18  1  0  0  0  0
  6 19  1  0  0  0  0
  6 20  1  0  0  0  0
  7 20  1  0  0  0  0
  7 23  2  0  0  0  0
  8  9  1  0  0  0  0
  8 19  2  0  0  0  0
  9 20  2  0  0  0  0
 10 11  2  0  0  0  0
 10 12  1  0  0  0  0
 10 15  1  0  0  0  0
 11 14  1  0  0  0  0
 12 13  2  0  0  0  0
 12 21  1  0  0  0  0
 13 17  1  0  0  0  0
 14 16  1  0  0  0  0
 15 28  1  0  0  0  0
 15 29  1  0  0  0  0
 15 30  1  0  0  0  0
 16 31  1  0  0  0  0
 16 32  1  0  0  0  0
 17 33  1  0  0  0  0
 17 34  1  0  0  0  0
 17 35  1  0  0  0  0
 18 22  2  0  0  0  0
 18 24  1  0  0  0  0
 22 23  1  0  0  0  0
 22 36  1  0  0  0  0
 23 25  1  0  0  0  0
 24 37  1  0  0  0  0
 24 38  1  0  0  0  0
 24 39  1  0  0  0  0
 25 40  1  0  0  0  0
 25 41  1  0  0  0  0
 25 42  1  0  0  0  0
 26 43  1  0  0  0  0
 26 44  1  0  0  0  0
 26 45  1  0  0  0  0
M  END
> <PUBCHEM_COMPOUND_CID>
17395695

> <PUBCHEM_COMPOUND_CANONICALIZED>
1

> <PUBCHEM_CACTVS_COMPLEXITY>
551

> <PUBCHEM_CACTVS_HBOND_ACCEPTOR>
7

> <PUBCHEM_CACTVS_HBOND_DONOR>
1

> <PUBCHEM_CACTVS_ROTATABLE_BOND>
6

> <PUBCHEM_CACTVS_SUBSKEYS>
AAADceB7sABAAAAAAAAAAAAAAAAAAWLAAAAsAAAAAAAAAFgB+AAAHgQYAAAADAyF3gKzmJfNnAiqA6TybACS0CtnArAFmSGwbNiILnrg/fmEFYhu0API6We8zwA+gAAAAAAAAAAAAAAAAAAAAAAAAAAAAA==

> <PUBCHEM_IUPAC_OPENEYE_NAME>
methyl 5-[2-[(5,7-dimethyl-[1,2,4]triazolo[4,3-a]pyrimidin-3-yl)sulfanyl]acetyl]-2,4-dimethyl-1H-pyrrole-3-carboxylate

> <PUBCHEM_IUPAC_CAS_NAME>
5-[2-[(5,7-dimethyl-[1,2,4]triazolo[4,3-a]pyrimidin-3-yl)thio]-1-oxoethyl]-2,4-dimethyl-1H-pyrrole-3-carboxylic acid methyl ester

> <PUBCHEM_IUPAC_NAME>
methyl 5-[2-[(5,7-dimethyl-[1,2,4]triazolo[4,3-a]pyrimidin-3-yl)sulfanyl]acetyl]-2,4-dimethyl-1H-pyrrole-3-carboxylate

> <PUBCHEM_IUPAC_SYSTEMATIC_NAME>
methyl 5-[2-[(5,7-dimethyl-[1,2,4]triazolo[4,3-a]pyrimidin-3-yl)sulfanyl]ethanoyl]-2,4-dimethyl-1H-pyrrole-3-carboxylate

> <PUBCHEM_IUPAC_TRADITIONAL_NAME>
5-[2-[(5,7-dimethyl-[1,2,4]triazolo[4,3-a]pyrimidin-3-yl)thio]acetyl]-2,4-dimethyl-1H-pyrrole-3-carboxylic acid methyl ester

> <PUBCHEM_IUPAC_INCHI>
InChI=1S/C17H19N5O3S/c1-8-6-9(2)22-16(18-8)20-21-17(22)26-7-12(23)14-10(3)13(11(4)19-14)15(24)25-5/h6,19H,7H2,1-5H3

> <PUBCHEM_IUPAC_INCHIKEY>
IVCFZEYFCHQOEH-UHFFFAOYSA-N

> <PUBCHEM_XLOGP3_AA>
3.3

> <PUBCHEM_EXACT_MASS>
373.12086

> <PUBCHEM_MOLECULAR_FORMULA>
C17H19N5O3S

> <PUBCHEM_MOLECULAR_WEIGHT>
373.42946

> <PUBCHEM_OPENEYE_CAN_SMILES>
CC1=CC(=NC2=NN=C(N12)SCC(=O)C3=C(C(=C(N3)C)C(=O)OC)C)C

> <PUBCHEM_OPENEYE_ISO_SMILES>
CC1=CC(=NC2=NN=C(N12)SCC(=O)C3=C(C(=C(N3)C)C(=O)OC)C)C

> <PUBCHEM_CACTVS_TPSA>
128

> <PUBCHEM_MONOISOTOPIC_WEIGHT>
373.12086

> <PUBCHEM_TOTAL_CHARGE>
0

> <PUBCHEM_HEAVY_ATOM_COUNT>
26

> <PUBCHEM_ATOM_DEF_STEREO_COUNT>
0

> <PUBCHEM_ATOM_UDEF_STEREO_COUNT>
0

> <PUBCHEM_BOND_DEF_STEREO_COUNT>
0

> <PUBCHEM_BOND_UDEF_STEREO_COUNT>
0

> <PUBCHEM_ISOTOPIC_ATOM_COUNT>
0

> <PUBCHEM_COMPONENT_COUNT>
1

> <PUBCHEM_CACTVS_TAUTO_COUNT>
33

> <PUBCHEM_COORDINATE_TYPE>
1
5
255

> <PUBCHEM_BONDANNOTATIONS>
10  11  8
10  12  8
12  13  8
18  22  8
22  23  8
5  11  8
5  13  8
6  18  8
6  19  8
6  20  8
7  20  8
7  23  8
8  19  8
8  9  8
9  20  8

$$$$

