14134
  -OEChem-06241222422D

 31 32  0     0  0  0  0  0  0999 V2000
    4.3211    1.3684    0.0000 O   0  0  0  0  0  0  0  0  0  0  0  0
    6.6353    0.0861    0.0000 O   0  0  0  0  0  0  0  0  0  0  0  0
    4.6783   -1.9358    0.0000 N   0  0  0  0  0  0  0  0  0  0  0  0
    6.2781    1.7809    0.0000 N   0  0  0  0  0  0  0  0  0  0  0  0
    3.7320   -0.6311    0.0000 C   0  0  0  0  0  0  0  0  0  0  0  0
    4.6783   -0.3264    0.0000 C   0  0  0  0  0  0  0  0  0  0  0  0
    3.7320   -1.6311    0.0000 C   0  0  0  0  0  0  0  0  0  0  0  0
    5.2619   -1.1311    0.0000 C   0  0  0  0  0  0  0  0  0  0  0  0
    2.8660   -0.1311    0.0000 C   0  0  0  0  0  0  0  0  0  0  0  0
    4.9889    0.6241    0.0000 C   0  0  0  0  0  0  0  0  0  0  0  0
    2.8660   -2.1311    0.0000 C   0  0  0  0  0  0  0  0  0  0  0  0
    6.2619   -1.1311    0.0000 C   0  0  0  0  0  0  0  0  0  0  0  0
    2.0000   -0.6311    0.0000 C   0  0  0  0  0  0  0  0  0  0  0  0
    2.0000   -1.6311    0.0000 C   0  0  0  0  0  0  0  0  0  0  0  0
    5.9674    0.8304    0.0000 C   0  0  0  0  0  0  0  0  0  0  0  0
    7.2566    1.9871    0.0000 C   0  0  0  0  0  0  0  0  0  0  0  0
    5.6103    2.5252    0.0000 C   0  0  0  0  0  0  0  0  0  0  0  0
    4.8709   -2.5252    0.0000 H   0  0  0  0  0  0  0  0  0  0  0  0
    2.8660    0.4889    0.0000 H   0  0  0  0  0  0  0  0  0  0  0  0
    2.8660   -2.7511    0.0000 H   0  0  0  0  0  0  0  0  0  0  0  0
    6.2619   -1.7511    0.0000 H   0  0  0  0  0  0  0  0  0  0  0  0
    6.8819   -1.1311    0.0000 H   0  0  0  0  0  0  0  0  0  0  0  0
    6.2619   -0.5111    0.0000 H   0  0  0  0  0  0  0  0  0  0  0  0
    1.4631   -0.3211    0.0000 H   0  0  0  0  0  0  0  0  0  0  0  0
    1.4631   -1.9411    0.0000 H   0  0  0  0  0  0  0  0  0  0  0  0
    7.3845    1.3804    0.0000 H   0  0  0  0  0  0  0  0  0  0  0  0
    7.8633    2.1150    0.0000 H   0  0  0  0  0  0  0  0  0  0  0  0
    7.1288    2.5938    0.0000 H   0  0  0  0  0  0  0  0  0  0  0  0
    6.0717    2.9392    0.0000 H   0  0  0  0  0  0  0  0  0  0  0  0
    5.1962    2.9866    0.0000 H   0  0  0  0  0  0  0  0  0  0  0  0
    5.1488    2.1111    0.0000 H   0  0  0  0  0  0  0  0  0  0  0  0
  1 10  2  0  0  0  0
  2 15  2  0  0  0  0
  3  7  1  0  0  0  0
  3  8  1  0  0  0  0
  3 18  1  0  0  0  0
  4 15  1  0  0  0  0
  4 16  1  0  0  0  0
  4 17  1  0  0  0  0
  5  6  1  0  0  0  0
  5  7  1  0  0  0  0
  5  9  2  0  0  0  0
  6  8  2  0  0  0  0
  6 10  1  0  0  0  0
  7 11  2  0  0  0  0
  8 12  1  0  0  0  0
  9 13  1  0  0  0  0
  9 19  1  0  0  0  0
 10 15  1  0  0  0  0
 11 14  1  0  0  0  0
 11 20  1  0  0  0  0
 12 21  1  0  0  0  0
 12 22  1  0  0  0  0
 12 23  1  0  0  0  0
 13 14  2  0  0  0  0
 13 24  1  0  0  0  0
 14 25  1  0  0  0  0
 16 26  1  0  0  0  0
 16 27  1  0  0  0  0
 16 28  1  0  0  0  0
 17 29  1  0  0  0  0
 17 30  1  0  0  0  0
 17 31  1  0  0  0  0
M  END
> <PUBCHEM_COMPOUND_CID>
14134

> <PUBCHEM_COMPOUND_CANONICALIZED>
1

> <PUBCHEM_CACTVS_COMPLEXITY>
327

> <PUBCHEM_CACTVS_HBOND_ACCEPTOR>
2

> <PUBCHEM_CACTVS_HBOND_DONOR>
1

> <PUBCHEM_CACTVS_ROTATABLE_BOND>
2

> <PUBCHEM_CACTVS_SUBSKEYS>
AAADccBzMAAAAAAAAAAAAAAAAAAAAWAAAAAwAAAAAAAAAFgB8AAAHgAQAAAADAyBngQywPPJkACoA6VyVACCgCAlAiAImSG4ZNgIIPrAlbGEIYhgkgDIyUccicCegAAAAAACAAAAAAAAAAQAAAAAAAAAAA==

> <PUBCHEM_IUPAC_OPENEYE_NAME>
N,N-dimethyl-2-(2-methyl-1H-indol-3-yl)-2-oxo-acetamide

> <PUBCHEM_IUPAC_CAS_NAME>
N,N-dimethyl-2-(2-methyl-1H-indol-3-yl)-2-oxoacetamide

> <PUBCHEM_IUPAC_NAME>
N,N-dimethyl-2-(2-methyl-1H-indol-3-yl)-2-oxoacetamide

> <PUBCHEM_IUPAC_SYSTEMATIC_NAME>
N,N-dimethyl-2-(2-methyl-1H-indol-3-yl)-2-oxidanylidene-ethanamide

> <PUBCHEM_IUPAC_TRADITIONAL_NAME>
2-keto-N,N-dimethyl-2-(2-methyl-1H-indol-3-yl)acetamide

> <PUBCHEM_IUPAC_INCHI>
InChI=1S/C13H14N2O2/c1-8-11(12(16)13(17)15(2)3)9-6-4-5-7-10(9)14-8/h4-7,14H,1-3H3

> <PUBCHEM_IUPAC_INCHIKEY>
CBMCIRIKRUXCDP-UHFFFAOYSA-N

> <PUBCHEM_XLOGP3_AA>
1.8

> <PUBCHEM_EXACT_MASS>
230.105528

> <PUBCHEM_MOLECULAR_FORMULA>
C13H14N2O2

> <PUBCHEM_MOLECULAR_WEIGHT>
230.26246

> <PUBCHEM_OPENEYE_CAN_SMILES>
CC1=C(C2=CC=CC=C2N1)C(=O)C(=O)N(C)C

> <PUBCHEM_OPENEYE_ISO_SMILES>
CC1=C(C2=CC=CC=C2N1)C(=O)C(=O)N(C)C

> <PUBCHEM_CACTVS_TPSA>
53.2

> <PUBCHEM_MONOISOTOPIC_WEIGHT>
230.105528

> <PUBCHEM_TOTAL_CHARGE>
0

> <PUBCHEM_HEAVY_ATOM_COUNT>
17

> <PUBCHEM_ATOM_DEF_STEREO_COUNT>
0

> <PUBCHEM_ATOM_UDEF_STEREO_COUNT>
0

> <PUBCHEM_BOND_DEF_STEREO_COUNT>
0

> <PUBCHEM_BOND_UDEF_STEREO_COUNT>
0

> <PUBCHEM_ISOTOPIC_ATOM_COUNT>
0

> <PUBCHEM_COMPONENT_COUNT>
1

> <PUBCHEM_CACTVS_TAUTO_COUNT>
12

> <PUBCHEM_COORDINATE_TYPE>
1
5
255

> <PUBCHEM_BONDANNOTATIONS>
11  14  8
13  14  8
3  7  8
3  8  8
5  6  8
5  7  8
5  9  8
6  8  8
7  11  8
9  13  8

$$$$

