23724705
  -OEChem-07051213082D

 75 79  0     1  0  0  0  0  0999 V2000
    6.0010   -0.8450    0.0000 O   0  0  0  0  0  0  0  0  0  0  0  0
    8.5991   -1.3450    0.0000 O   0  0  0  0  0  0  0  0  0  0  0  0
    5.1350   -2.3450    0.0000 O   0  0  0  0  0  0  0  0  0  0  0  0
    7.7331    0.1550    0.0000 O   0  0  0  0  0  0  0  0  0  0  0  0
    6.0010   -2.8450    0.0000 O   0  0  0  0  0  0  0  0  0  0  0  0
    7.7331   -3.8450    0.0000 O   0  0  0  0  0  0  0  0  0  0  0  0
    4.2690    0.1550    0.0000 O   0  0  0  0  0  0  0  0  0  0  0  0
    2.5369   -0.8450    0.0000 O   0  0  0  0  0  0  0  0  0  0  0  0
    2.5369   -2.8450    0.0000 O   0  0  0  0  0  0  0  0  0  0  0  0
    9.4651   -3.8450    0.0000 O   0  0  0  0  0  0  0  0  0  0  0  0
    3.4030   -4.3450    0.0000 O   0  0  0  0  0  0  0  0  0  0  0  0
    9.4651    2.1550    0.0000 O   0  3  0  0  0  0  0  0  0  0  0  0
   11.2135   -0.8796    0.0000 O   0  0  0  0  0  0  0  0  0  0  0  0
   12.9953    2.1792    0.0000 O   0  0  0  0  0  0  0  0  0  0  0  0
    5.1350    1.6550    0.0000 O   0  0  0  0  0  0  0  0  0  0  0  0
    6.8671    4.6550    0.0000 O   0  0  0  0  0  0  0  0  0  0  0  0
    5.1350    3.6550    0.0000 O   0  0  0  0  0  0  0  0  0  0  0  0
    6.8671   -1.3450    0.0000 C   0  0  2  0  0  0  0  0  0  0  0  0
    6.8671   -2.3450    0.0000 C   0  0  2  0  0  0  0  0  0  0  0  0
    7.7331   -2.8450    0.0000 C   0  0  1  0  0  0  0  0  0  0  0  0
    5.1350   -1.3450    0.0000 C   0  0  2  0  0  0  0  0  0  0  0  0
    4.2690   -0.8450    0.0000 C   0  0  1  0  0  0  0  0  0  0  0  0
    7.7331   -0.8450    0.0000 C   0  0  1  0  0  0  0  0  0  0  0  0
    8.5991   -2.3450    0.0000 C   0  0  1  0  0  0  0  0  0  0  0  0
    3.4030   -1.3450    0.0000 C   0  0  2  0  0  0  0  0  0  0  0  0
    3.4030   -2.3450    0.0000 C   0  0  1  0  0  0  0  0  0  0  0  0
    4.2690   -2.8450    0.0000 C   0  0  1  0  0  0  0  0  0  0  0  0
    9.4651   -2.8450    0.0000 C   0  0  0  0  0  0  0  0  0  0  0  0
    4.2690   -3.8450    0.0000 C   0  0  0  0  0  0  0  0  0  0  0  0
    8.5991    0.6550    0.0000 C   0  0  0  0  0  0  0  0  0  0  0  0
    8.5991    1.6550    0.0000 C   0  0  0  0  0  0  0  0  0  0  0  0
    9.4651    0.1550    0.0000 C   0  0  0  0  0  0  0  0  0  0  0  0
   10.3312    0.6550    0.0000 C   0  0  0  0  0  0  0  0  0  0  0  0
    7.7331    2.1550    0.0000 C   0  0  0  0  0  0  0  0  0  0  0  0
   10.3312    1.6550    0.0000 C   0  0  0  0  0  0  0  0  0  0  0  0
   11.2251    0.1203    0.0000 C   0  0  0  0  0  0  0  0  0  0  0  0
   11.2251    2.1897    0.0000 C   0  0  0  0  0  0  0  0  0  0  0  0
    7.7331    3.1550    0.0000 C   0  0  0  0  0  0  0  0  0  0  0  0
    6.8671    1.6550    0.0000 C   0  0  0  0  0  0  0  0  0  0  0  0
   12.1312    0.6342    0.0000 C   0  0  0  0  0  0  0  0  0  0  0  0
   12.1312    1.6758    0.0000 C   0  0  0  0  0  0  0  0  0  0  0  0
    6.0010    2.1550    0.0000 C   0  0  0  0  0  0  0  0  0  0  0  0
    6.8671    3.6550    0.0000 C   0  0  0  0  0  0  0  0  0  0  0  0
    6.0010    3.1550    0.0000 C   0  0  0  0  0  0  0  0  0  0  0  0
    6.3301   -1.6550    0.0000 H   0  0  0  0  0  0  0  0  0  0  0  0
    6.3301   -2.0350    0.0000 H   0  0  0  0  0  0  0  0  0  0  0  0
    8.2700   -3.1550    0.0000 H   0  0  0  0  0  0  0  0  0  0  0  0
    5.1350   -0.7250    0.0000 H   0  0  0  0  0  0  0  0  0  0  0  0
    4.8059   -0.5350    0.0000 H   0  0  0  0  0  0  0  0  0  0  0  0
    7.1962   -0.5350    0.0000 H   0  0  0  0  0  0  0  0  0  0  0  0
    9.1360   -2.0350    0.0000 H   0  0  0  0  0  0  0  0  0  0  0  0
    3.4030   -0.7250    0.0000 H   0  0  0  0  0  0  0  0  0  0  0  0
    3.4030   -2.9650    0.0000 H   0  0  0  0  0  0  0  0  0  0  0  0
    4.8059   -3.1550    0.0000 H   0  0  0  0  0  0  0  0  0  0  0  0
   10.0757   -2.9527    0.0000 H   0  0  0  0  0  0  0  0  0  0  0  0
    9.6772   -2.2624    0.0000 H   0  0  0  0  0  0  0  0  0  0  0  0
    4.4810   -4.4276    0.0000 H   0  0  0  0  0  0  0  0  0  0  0  0
    4.8796   -3.7373    0.0000 H   0  0  0  0  0  0  0  0  0  0  0  0
    6.0010   -3.4650    0.0000 H   0  0  0  0  0  0  0  0  0  0  0  0
    7.1962   -4.1550    0.0000 H   0  0  0  0  0  0  0  0  0  0  0  0
    3.7320    0.4650    0.0000 H   0  0  0  0  0  0  0  0  0  0  0  0
    2.0000   -1.1550    0.0000 H   0  0  0  0  0  0  0  0  0  0  0  0
    2.0000   -2.5350    0.0000 H   0  0  0  0  0  0  0  0  0  0  0  0
   10.0021   -4.1550    0.0000 H   0  0  0  0  0  0  0  0  0  0  0  0
    3.4030   -4.9650    0.0000 H   0  0  0  0  0  0  0  0  0  0  0  0
    9.4651   -0.4650    0.0000 H   0  0  0  0  0  0  0  0  0  0  0  0
   11.2179    2.8096    0.0000 H   0  0  0  0  0  0  0  0  0  0  0  0
    8.2700    3.4650    0.0000 H   0  0  0  0  0  0  0  0  0  0  0  0
    6.8671    1.0350    0.0000 H   0  0  0  0  0  0  0  0  0  0  0  0
   12.6669    0.3221    0.0000 H   0  0  0  0  0  0  0  0  0  0  0  0
   11.7469   -1.1958    0.0000 H   0  0  0  0  0  0  0  0  0  0  0  0
   13.5334    1.8712    0.0000 H   0  0  0  0  0  0  0  0  0  0  0  0
    4.5981    1.9650    0.0000 H   0  0  0  0  0  0  0  0  0  0  0  0
    7.4040    4.9650    0.0000 H   0  0  0  0  0  0  0  0  0  0  0  0
    5.1350    4.2750    0.0000 H   0  0  0  0  0  0  0  0  0  0  0  0
 18  1  1  1  0  0  0
 21  1  1  6  0  0  0
  2 23  1  0  0  0  0
  2 24  1  0  0  0  0
  3 21  1  0  0  0  0
  3 27  1  0  0  0  0
 23  4  1  6  0  0  0
  4 30  1  0  0  0  0
 19  5  1  6  0  0  0
  5 59  1  0  0  0  0
 20  6  1  1  0  0  0
  6 60  1  0  0  0  0
 22  7  1  1  0  0  0
  7 61  1  0  0  0  0
 25  8  1  6  0  0  0
  8 62  1  0  0  0  0
 26  9  1  1  0  0  0
  9 63  1  0  0  0  0
 10 28  1  0  0  0  0
 10 64  1  0  0  0  0
 11 29  1  0  0  0  0
 11 65  1  0  0  0  0
 12 31  2  0  0  0  0
 12 35  1  0  0  0  0
 13 36  1  0  0  0  0
 13 71  1  0  0  0  0
 14 41  1  0  0  0  0
 14 72  1  0  0  0  0
 15 42  1  0  0  0  0
 15 73  1  0  0  0  0
 16 43  1  0  0  0  0
 16 74  1  0  0  0  0
 17 44  1  0  0  0  0
 17 75  1  0  0  0  0
 18 19  1  0  0  0  0
 18 23  1  0  0  0  0
 18 45  1  0  0  0  0
 19 20  1  0  0  0  0
 19 46  1  0  0  0  0
 20 24  1  0  0  0  0
 20 47  1  0  0  0  0
 21 22  1  0  0  0  0
 21 48  1  0  0  0  0
 22 25  1  0  0  0  0
 22 49  1  0  0  0  0
 23 50  1  0  0  0  0
 24 28  1  6  0  0  0
 24 51  1  0  0  0  0
 25 26  1  0  0  0  0
 25 52  1  0  0  0  0
 26 27  1  0  0  0  0
 26 53  1  0  0  0  0
 27 29  1  6  0  0  0
 27 54  1  0  0  0  0
 28 55  1  0  0  0  0
 28 56  1  0  0  0  0
 29 57  1  0  0  0  0
 29 58  1  0  0  0  0
 30 31  1  0  0  0  0
 30 32  2  0  0  0  0
 31 34  1  0  0  0  0
 32 33  1  0  0  0  0
 32 66  1  0  0  0  0
 33 35  1  0  0  0  0
 33 36  2  0  0  0  0
 34 38  2  0  0  0  0
 34 39  1  0  0  0  0
 35 37  2  0  0  0  0
 36 40  1  0  0  0  0
 37 41  1  0  0  0  0
 37 67  1  0  0  0  0
 38 43  1  0  0  0  0
 38 68  1  0  0  0  0
 39 42  2  0  0  0  0
 39 69  1  0  0  0  0
 40 41  2  0  0  0  0
 40 70  1  0  0  0  0
 42 44  1  0  0  0  0
 43 44  2  0  0  0  0
M  CHG  1  12   1
M  END
> <PUBCHEM_COMPOUND_CID>
23724705

> <PUBCHEM_COMPOUND_CANONICALIZED>
1

> <PUBCHEM_CACTVS_COMPLEXITY>
919

> <PUBCHEM_CACTVS_HBOND_ACCEPTOR>
16

> <PUBCHEM_CACTVS_HBOND_DONOR>
12

> <PUBCHEM_CACTVS_ROTATABLE_BOND>
7

> <PUBCHEM_CACTVS_SUBSKEYS>
AAADceB4PgAAAAAAAAAAAAAAAAAAAAAAAAA0aJECAAAAAACR9AAAGgAACAAADBSwmAMwDsAABkCIAqBSAAICCAAkIAAAiAFGiMgdNzaGNR6ieWOl4BUPuYfK7PzOIAABCAAIQABAAAIQABCAAAAAAAAAAA==

> <PUBCHEM_IUPAC_OPENEYE_NAME>
(2S,3R,4S,5S,6R)-2-[(2S,3R,4S,5S,6R)-2-[5,7-dihydroxy-2-(3,4,5-trihydroxyphenyl)chromenylium-3-yl]oxy-4,5-dihydroxy-6-(hydroxymethyl)tetrahydropyran-3-yl]oxy-6-(hydroxymethyl)tetrahydropyran-3,4,5-triol

> <PUBCHEM_IUPAC_CAS_NAME>
(2S,3R,4S,5S,6R)-2-[[(2S,3R,4S,5S,6R)-2-[[5,7-dihydroxy-2-(3,4,5-trihydroxyphenyl)-1-benzopyrylium-3-yl]oxy]-4,5-dihydroxy-6-(hydroxymethyl)-3-oxanyl]oxy]-6-(hydroxymethyl)oxane-3,4,5-triol

> <PUBCHEM_IUPAC_NAME>
(2S,3R,4S,5S,6R)-2-[(2S,3R,4S,5S,6R)-2-[5,7-dihydroxy-2-(3,4,5-trihydroxyphenyl)chromenylium-3-yl]oxy-4,5-dihydroxy-6-(hydroxymethyl)oxan-3-yl]oxy-6-(hydroxymethyl)oxane-3,4,5-triol

> <PUBCHEM_IUPAC_SYSTEMATIC_NAME>
(2S,3R,4S,5S,6R)-2-[(2S,3R,4S,5S,6R)-2-[5,7-bis(oxidanyl)-2-[3,4,5-tris(oxidanyl)phenyl]chromenylium-3-yl]oxy-6-(hydroxymethyl)-4,5-bis(oxidanyl)oxan-3-yl]oxy-6-(hydroxymethyl)oxane-3,4,5-triol

> <PUBCHEM_IUPAC_TRADITIONAL_NAME>
(2S,3R,4S,5S,6R)-2-[(2S,3R,4S,5S,6R)-2-[[5,7-dihydroxy-2-(3,4,5-trihydroxyphenyl)-1-benzopyrylium-3-yl]oxy]-4,5-dihydroxy-6-methylol-tetrahydropyran-3-yl]oxy-6-methylol-tetrahydropyran-3,4,5-triol

> <PUBCHEM_IUPAC_INCHI>
InChI=1S/C27H30O17/c28-6-16-19(35)21(37)23(39)26(42-16)44-25-22(38)20(36)17(7-29)43-27(25)41-15-5-10-11(31)3-9(30)4-14(10)40-24(15)8-1-12(32)18(34)13(33)2-8/h1-5,16-17,19-23,25-29,35-39H,6-7H2,(H4-,30,31,32,33,34)/p+1/t16-,17-,19-,20-,21+,22+,23-,25-,26+,27-/m1/s1

> <PUBCHEM_IUPAC_INCHIKEY>
UYLDMCQVSGIZMI-ROOKUYIKSA-O

> <PUBCHEM_EXACT_MASS>
627.156125

> <PUBCHEM_MOLECULAR_FORMULA>
C27H31O17+

> <PUBCHEM_MOLECULAR_WEIGHT>
627.52484

> <PUBCHEM_OPENEYE_CAN_SMILES>
C1=C(C=C(C(=C1O)O)O)C2=C(C=C3C(=CC(=CC3=[O+]2)O)O)OC4C(C(C(C(O4)CO)O)O)OC5C(C(C(C(O5)CO)O)O)O

> <PUBCHEM_OPENEYE_ISO_SMILES>
C1=C(C=C(C(=C1O)O)O)C2=C(C=C3C(=CC(=CC3=[O+]2)O)O)O[C@H]4[C@@H]([C@H]([C@@H]([C@H](O4)CO)O)O)O[C@H]5[C@@H]([C@H]([C@@H]([C@H](O5)CO)O)O)O

> <PUBCHEM_CACTVS_TPSA>
281

> <PUBCHEM_MONOISOTOPIC_WEIGHT>
627.156125

> <PUBCHEM_TOTAL_CHARGE>
1

> <PUBCHEM_HEAVY_ATOM_COUNT>
44

> <PUBCHEM_ATOM_DEF_STEREO_COUNT>
10

> <PUBCHEM_ATOM_UDEF_STEREO_COUNT>
0

> <PUBCHEM_BOND_DEF_STEREO_COUNT>
0

> <PUBCHEM_BOND_UDEF_STEREO_COUNT>
0

> <PUBCHEM_ISOTOPIC_ATOM_COUNT>
0

> <PUBCHEM_COMPONENT_COUNT>
1

> <PUBCHEM_CACTVS_TAUTO_COUNT>
217

> <PUBCHEM_COORDINATE_TYPE>
1
5
255

> <PUBCHEM_BONDANNOTATIONS>
18  1  5
21  1  6
12  31  8
12  35  8
24  28  6
27  29  6
30  31  8
30  32  8
32  33  8
33  35  8
33  36  8
34  38  8
34  39  8
35  37  8
36  40  8
37  41  8
38  43  8
39  42  8
23  4  6
40  41  8
42  44  8
43  44  8
19  5  6
20  6  5
22  7  5
25  8  6
26  9  5

$$$$

