129539
  -OEChem-07051212513D

 39 41  0     0  0  0  0  0  0999 V2000
   -0.8376    2.6096   -0.7371 Cl  0  0  0  0  0  0  0  0  0  0  0  0
   -0.8428   -2.8198   -0.4378 Cl  0  0  0  0  0  0  0  0  0  0  0  0
    0.3715   -0.1171   -0.7922 O   0  0  0  0  0  0  0  0  0  0  0  0
   -5.7282    1.1750    0.1851 O   0  0  0  0  0  0  0  0  0  0  0  0
    5.5728    1.2559    0.4148 O   0  0  0  0  0  0  0  0  0  0  0  0
   -5.9274   -1.0976    0.3365 N   0  0  0  0  0  0  0  0  0  0  0  0
    6.8900    1.1174   -0.0060 N   0  0  0  0  0  0  0  0  0  0  0  0
    2.6705   -0.0612   -0.1129 C   0  0  0  0  0  0  0  0  0  0  0  0
    3.6392   -0.0129    1.0689 C   0  0  0  0  0  0  0  0  0  0  0  0
    1.2204   -0.0555    0.3505 C   0  0  0  0  0  0  0  0  0  0  0  0
    5.0740    0.0269    0.6071 C   0  0  0  0  0  0  0  0  0  0  0  0
   -3.7246   -0.0751   -0.0960 C   0  0  0  0  0  0  0  0  0  0  0  0
   -0.9746   -0.1036   -0.5637 C   0  0  0  0  0  0  0  0  0  0  0  0
   -5.1737   -0.0601    0.1514 C   0  0  0  0  0  0  0  0  0  0  0  0
   -7.0540    0.9575    0.6415 C   0  0  0  0  0  0  0  0  0  0  0  0
   -7.2728   -0.5259    0.4587 C   0  0  0  0  0  0  0  0  0  0  0  0
   -3.0358    1.1239   -0.2788 C   0  0  0  0  0  0  0  0  0  0  0  0
   -3.0384   -1.2885   -0.1470 C   0  0  0  0  0  0  0  0  0  0  0  0
    5.9706   -0.9367    0.3430 C   0  0  0  0  0  0  0  0  0  0  0  0
   -1.6608    1.1096   -0.5127 C   0  0  0  0  0  0  0  0  0  0  0  0
   -1.6633   -1.3027   -0.3808 C   0  0  0  0  0  0  0  0  0  0  0  0
    7.1047   -0.2008   -0.0412 C   0  0  0  0  0  0  0  0  0  0  0  0
    8.4200   -0.7184   -0.4514 C   0  0  0  0  0  0  0  0  0  0  0  0
    2.8559   -0.9545   -0.7235 H   0  0  0  0  0  0  0  0  0  0  0  0
    2.8403    0.7917   -0.7829 H   0  0  0  0  0  0  0  0  0  0  0  0
    3.4355    0.8695    1.6878 H   0  0  0  0  0  0  0  0  0  0  0  0
    3.4941   -0.8924    1.7079 H   0  0  0  0  0  0  0  0  0  0  0  0
    1.0333   -0.9175    1.0013 H   0  0  0  0  0  0  0  0  0  0  0  0
    1.0146    0.8572    0.9219 H   0  0  0  0  0  0  0  0  0  0  0  0
   -7.7606    1.5548    0.0580 H   0  0  0  0  0  0  0  0  0  0  0  0
   -7.1190    1.2569    1.6928 H   0  0  0  0  0  0  0  0  0  0  0  0
   -7.8182   -0.9589    1.3026 H   0  0  0  0  0  0  0  0  0  0  0  0
   -7.8392   -0.7329   -0.4560 H   0  0  0  0  0  0  0  0  0  0  0  0
   -3.5525    2.0799   -0.2429 H   0  0  0  0  0  0  0  0  0  0  0  0
   -3.5688   -2.2274   -0.0051 H   0  0  0  0  0  0  0  0  0  0  0  0
    5.8467   -2.0073    0.4099 H   0  0  0  0  0  0  0  0  0  0  0  0
    8.4418   -1.8128   -0.4302 H   0  0  0  0  0  0  0  0  0  0  0  0
    8.6616   -0.3983   -1.4702 H   0  0  0  0  0  0  0  0  0  0  0  0
    9.2056   -0.3548    0.2191 H   0  0  0  0  0  0  0  0  0  0  0  0
  1 20  1  0  0  0  0
  2 21  1  0  0  0  0
  3 10  1  0  0  0  0
  3 13  1  0  0  0  0
  4 14  1  0  0  0  0
  4 15  1  0  0  0  0
  5  7  1  0  0  0  0
  5 11  1  0  0  0  0
  6 14  2  0  0  0  0
  6 16  1  0  0  0  0
  7 22  2  0  0  0  0
  8  9  1  0  0  0  0
  8 10  1  0  0  0  0
  8 24  1  0  0  0  0
  8 25  1  0  0  0  0
  9 11  1  0  0  0  0
  9 26  1  0  0  0  0
  9 27  1  0  0  0  0
 10 28  1  0  0  0  0
 10 29  1  0  0  0  0
 11 19  2  0  0  0  0
 12 14  1  0  0  0  0
 12 17  2  0  0  0  0
 12 18  1  0  0  0  0
 13 20  2  0  0  0  0
 13 21  1  0  0  0  0
 15 16  1  0  0  0  0
 15 30  1  0  0  0  0
 15 31  1  0  0  0  0
 16 32  1  0  0  0  0
 16 33  1  0  0  0  0
 17 20  1  0  0  0  0
 17 34  1  0  0  0  0
 18 21  2  0  0  0  0
 18 35  1  0  0  0  0
 19 22  1  0  0  0  0
 19 36  1  0  0  0  0
 22 23  1  0  0  0  0
 23 37  1  0  0  0  0
 23 38  1  0  0  0  0
 23 39  1  0  0  0  0
M  END
> <PUBCHEM_COMPOUND_CID>
129539

> <PUBCHEM_CONFORMER_RMSD>
0.8

> <PUBCHEM_CONFORMER_DIVERSEORDER>
1
68
67
53
91
107
3
102
51
71
52
76
73
95
34
101
39
78
94
66
2
37
108
56
82
36
98
35
86
74
23
16
104
64
29
93
27
72
55
11
88
79
80
32
81
57
8
113
38
24
109
28
83
14
105
10
54
87
65
75
33
85
111
45
21
17
70
112
7
103
4
77
20
44
9
69
61
49
48
58
106
18
99
22
43
15
89
42
25
62
59
30
90
31
5
41
63
46
13
40
26
100
19
92
50
110
6
84
47
97
96
12
60

> <PUBCHEM_MMFF94_PARTIAL_CHARGES>
25
1 -0.18
10 0.28
11 -0.04
12 0.09
13 0.08
14 0.51
15 0.28
16 0.25
17 -0.15
18 -0.15
19 -0.15
2 -0.18
20 0.18
21 0.18
22 0.11
23 0.18
3 -0.36
34 0.15
35 0.15
36 0.15
4 -0.43
5 -0.02
6 -0.7
7 -0.41
9 0.18

> <PUBCHEM_EFFECTIVE_ROTOR_COUNT>
6.6

> <PUBCHEM_PHARMACOPHORE_FEATURES>
5
1 3 acceptor
1 7 acceptor
5 4 6 14 15 16 rings
5 5 7 11 19 22 rings
6 12 13 17 18 20 21 rings

> <PUBCHEM_HEAVY_ATOM_COUNT>
23

> <PUBCHEM_ATOM_DEF_STEREO_COUNT>
0

> <PUBCHEM_ATOM_UDEF_STEREO_COUNT>
0

> <PUBCHEM_BOND_DEF_STEREO_COUNT>
0

> <PUBCHEM_BOND_UDEF_STEREO_COUNT>
0

> <PUBCHEM_ISOTOPIC_ATOM_COUNT>
0

> <PUBCHEM_COMPONENT_COUNT>
1

> <PUBCHEM_CACTVS_TAUTO_COUNT>
1

> <PUBCHEM_CONFORMER_ID>
0001FA0300000001

> <PUBCHEM_MMFF94_ENERGY>
50.186

> <PUBCHEM_FEATURE_SELFOVERLAP>
25.371

> <PUBCHEM_SHAPE_FINGERPRINT>
10299344 5 18343584049450206674
106641 1 18342172242360669339
10968037 39 17917994975279237891
11315181 36 18272368668819284169
11524674 6 17167583773832332166
12236239 1 17775287179029499100
13533116 47 17489598904427364138
13914758 101 4823223792295230442
14123256 10 9727635007851979641
14251752 14 7709462714549377355
14251764 18 18410576171585431327
14251764 46 6122782777853080916
14341114 176 18410577271672208476
14617045 38 18410856577516504274
14933364 13 18410293610361783448
15183329 4 7420950893791791568
15461852 350 17894358766055418597
15849732 13 18272933812656897255
15927050 60 18334581230414469718
18006028 8 18272653441787663149
19489759 90 9079118873592936982
20281389 69 18333172764966853944
21095086 128 18131633400661582370
21150785 3 13542460960596101686
21267235 1 18272367568310767116
21304253 13 18335138683252337257
22224240 67 18333735710925909943
2297311 6 18411699902765924140
23035841 295 18343868818545345226
23559900 14 18187938209882529360
2838139 119 15213020449379926457
28498 318 17095519622170159102
3009799 131 7781515914609258979
335352 9 18410858737715723285
34797466 226 18333726906675574260
3545911 37 18408606972388409014
4073 2 18200591394280418058
4325135 7 18060699494643016246
4339292 15 14057300653843332621
5969126 39 11023832751693900835
6201320 215 14852432406683957707

> <PUBCHEM_SHAPE_MULTIPOLES>
449.5
22.7
1.91
0.83
22.14
0.13
-0.02
-0.22
-3.82
-1.1
0.43
0.1
-0.04
0.12

> <PUBCHEM_SHAPE_SELFOVERLAP>
941.342

> <PUBCHEM_SHAPE_VOLUME>
257.6

> <PUBCHEM_COORDINATE_TYPE>
2
5
10

$$$$

