5282060
  -OEChem-07051213023D

 44 48  0     0  0  0  0  0  0999 V2000
   -3.8562    1.9791   -0.0007 O   0  0  0  0  0  0  0  0  0  0  0  0
    3.3070    3.1116   -0.0005 O   0  0  0  0  0  0  0  0  0  0  0  0
   -4.8303   -0.3468   -0.0011 O   0  0  0  0  0  0  0  0  0  0  0  0
    0.5951   -3.5566    0.0023 O   0  0  0  0  0  0  0  0  0  0  0  0
   -1.9082   -4.0132   -0.0004 O   0  0  0  0  0  0  0  0  0  0  0  0
    3.1304   -3.2855   -0.0001 O   0  0  0  0  0  0  0  0  0  0  0  0
   -1.5308    2.5532    0.0007 C   0  0  0  0  0  0  0  0  0  0  0  0
   -0.1423    1.9169    0.0002 C   0  0  0  0  0  0  0  0  0  0  0  0
    0.0331    0.5200    0.0001 C   0  0  0  0  0  0  0  0  0  0  0  0
   -1.1242   -0.3812    0.0001 C   0  0  0  0  0  0  0  0  0  0  0  0
    1.3447   -0.0285    0.0002 C   0  0  0  0  0  0  0  0  0  0  0  0
   -2.6975    1.5618   -0.0005 C   0  0  0  0  0  0  0  0  0  0  0  0
   -2.4366    0.1051   -0.0004 C   0  0  0  0  0  0  0  0  0  0  0  0
   -0.9478   -1.7785    0.0003 C   0  0  0  0  0  0  0  0  0  0  0  0
    2.4730    0.8265   -0.0001 C   0  0  0  0  0  0  0  0  0  0  0  0
    1.5739   -1.4182    0.0003 C   0  0  0  0  0  0  0  0  0  0  0  0
   -1.7044    3.4242    1.2647 C   0  0  0  0  0  0  0  0  0  0  0  0
   -1.7037    3.4258   -1.2620 C   0  0  0  0  0  0  0  0  0  0  0  0
    0.9986    2.7416    0.0005 C   0  0  0  0  0  0  0  0  0  0  0  0
    0.4205   -2.3450    0.0007 C   0  0  0  0  0  0  0  0  0  0  0  0
    2.2839    2.2078    0.0002 C   0  0  0  0  0  0  0  0  0  0  0  0
   -3.5335   -0.7719   -0.0009 C   0  0  0  0  0  0  0  0  0  0  0  0
    3.7690    0.2866   -0.0006 C   0  0  0  0  0  0  0  0  0  0  0  0
   -2.0394   -2.6564   -0.0001 C   0  0  0  0  0  0  0  0  0  0  0  0
    2.8706   -1.9473    0.0001 C   0  0  0  0  0  0  0  0  0  0  0  0
   -3.3322   -2.1484   -0.0008 C   0  0  0  0  0  0  0  0  0  0  0  0
    3.9655   -1.0917   -0.0005 C   0  0  0  0  0  0  0  0  0  0  0  0
    5.0219    1.1090   -0.0015 C   0  0  0  0  0  0  0  0  0  0  0  0
   -0.9804    4.2449    1.3085 H   0  0  0  0  0  0  0  0  0  0  0  0
   -2.7016    3.8779    1.3091 H   0  0  0  0  0  0  0  0  0  0  0  0
   -1.5810    2.8235    2.1742 H   0  0  0  0  0  0  0  0  0  0  0  0
   -2.7010    3.8795   -1.3065 H   0  0  0  0  0  0  0  0  0  0  0  0
   -0.9799    4.2467   -1.3043 H   0  0  0  0  0  0  0  0  0  0  0  0
   -1.5797    2.8265   -2.1724 H   0  0  0  0  0  0  0  0  0  0  0  0
    0.8761    3.8228    0.0007 H   0  0  0  0  0  0  0  0  0  0  0  0
   -4.1840   -2.8243   -0.0012 H   0  0  0  0  0  0  0  0  0  0  0  0
    4.9714   -1.5053   -0.0009 H   0  0  0  0  0  0  0  0  0  0  0  0
    5.0881    1.7252    0.9010 H   0  0  0  0  0  0  0  0  0  0  0  0
    5.9229    0.4836   -0.0021 H   0  0  0  0  0  0  0  0  0  0  0  0
    5.0869    1.7250   -0.9043 H   0  0  0  0  0  0  0  0  0  0  0  0
    2.9530    4.0170   -0.0003 H   0  0  0  0  0  0  0  0  0  0  0  0
   -4.8810    0.6197   -0.0009 H   0  0  0  0  0  0  0  0  0  0  0  0
   -0.9751   -4.2717   -0.0023 H   0  0  0  0  0  0  0  0  0  0  0  0
    4.0913   -3.4343   -0.0003 H   0  0  0  0  0  0  0  0  0  0  0  0
  1 12  2  0  0  0  0
  2 21  1  0  0  0  0
  2 41  1  0  0  0  0
  3 22  1  0  0  0  0
  3 42  1  0  0  0  0
  4 20  2  0  0  0  0
  5 24  1  0  0  0  0
  5 43  1  0  0  0  0
  6 25  1  0  0  0  0
  6 44  1  0  0  0  0
  7  8  1  0  0  0  0
  7 12  1  0  0  0  0
  7 17  1  0  0  0  0
  7 18  1  0  0  0  0
  8  9  1  0  0  0  0
  8 19  2  0  0  0  0
  9 10  1  0  0  0  0
  9 11  2  0  0  0  0
 10 13  1  0  0  0  0
 10 14  2  0  0  0  0
 11 15  1  0  0  0  0
 11 16  1  0  0  0  0
 12 13  1  0  0  0  0
 13 22  2  0  0  0  0
 14 20  1  0  0  0  0
 14 24  1  0  0  0  0
 15 21  2  0  0  0  0
 15 23  1  0  0  0  0
 16 20  1  0  0  0  0
 16 25  2  0  0  0  0
 17 29  1  0  0  0  0
 17 30  1  0  0  0  0
 17 31  1  0  0  0  0
 18 32  1  0  0  0  0
 18 33  1  0  0  0  0
 18 34  1  0  0  0  0
 19 21  1  0  0  0  0
 19 35  1  0  0  0  0
 22 26  1  0  0  0  0
 23 27  2  0  0  0  0
 23 28  1  0  0  0  0
 24 26  2  0  0  0  0
 25 27  1  0  0  0  0
 26 36  1  0  0  0  0
 27 37  1  0  0  0  0
 28 38  1  0  0  0  0
 28 39  1  0  0  0  0
 28 40  1  0  0  0  0
M  END
> <PUBCHEM_COMPOUND_CID>
5282060

> <PUBCHEM_CONFORMER_RMSD>
0.6

> <PUBCHEM_CONFORMER_DIVERSEORDER>
1

> <PUBCHEM_MMFF94_PARTIAL_CHARGES>
29
1 -0.57
12 0.42
13 0.09
14 0.09
16 0.09
19 -0.15
2 -0.53
20 0.4
21 0.08
22 0.08
23 -0.14
24 0.08
25 0.08
26 -0.15
27 -0.15
28 0.14
3 -0.53
35 0.15
36 0.15
37 0.15
4 -0.57
41 0.45
42 0.45
43 0.45
44 0.45
5 -0.53
6 -0.53
7 0.2
8 -0.14

> <PUBCHEM_EFFECTIVE_ROTOR_COUNT>
0.2

> <PUBCHEM_PHARMACOPHORE_FEATURES>
12
1 1 acceptor
1 2 donor
1 3 donor
1 4 acceptor
1 5 donor
1 6 donor
3 7 17 18 hydrophobe
6 10 13 14 22 24 26 rings
6 11 15 16 23 25 27 rings
6 7 8 9 10 12 13 rings
6 8 9 11 15 19 21 rings
6 9 10 11 14 16 20 rings

> <PUBCHEM_HEAVY_ATOM_COUNT>
28

> <PUBCHEM_ATOM_DEF_STEREO_COUNT>
0

> <PUBCHEM_ATOM_UDEF_STEREO_COUNT>
0

> <PUBCHEM_BOND_DEF_STEREO_COUNT>
0

> <PUBCHEM_BOND_UDEF_STEREO_COUNT>
0

> <PUBCHEM_ISOTOPIC_ATOM_COUNT>
0

> <PUBCHEM_COMPONENT_COUNT>
1

> <PUBCHEM_CACTVS_TAUTO_COUNT>
996

> <PUBCHEM_CONFORMER_ID>
0050990C00000001

> <PUBCHEM_MMFF94_ENERGY>
110.5542

> <PUBCHEM_FEATURE_SELFOVERLAP>
61.047

> <PUBCHEM_SHAPE_FINGERPRINT>
10319926 262 18263105279260537720
10411042 1 17906452126049465414
10616163 171 18410291367935135310
10693767 8 17970654934252979383
10967382 1 18194402186590504839
1100329 8 17905608061943221274
11135609 187 18123201353162592069
11513181 2 18113619040073837158
11578080 2 17202223973791178966
12422481 6 18194659666355411289
12553582 1 18338522910942762179
12788726 201 18342179946920101418
12838862 33 18338536156954348773
13122387 1 17473826606983151622
13140716 1 18193280685062567440
13642711 20 14082626383074612174
138480 1 17041481085747474467
14178342 30 18264781028780016968
14223421 5 18410857650762092284
14790565 3 17976813512948249009
15196674 1 18338517542170039780
16728300 4 15830301992098503554
16945 1 18410575093289943270
17492 89 18411136978087038538
19591789 44 18122623018218740330
19930381 70 17113822886535964859
20028762 73 18115877472187114119
20510252 161 18335139829717760049
20739085 24 18198032856260083513
20775438 99 17252359299258598575
20905425 154 18408037403500072678
21267235 1 18338790126569806930
21421861 104 18273221910673703674
2334 1 18050004389682363939
23559900 14 18335988644632008480
23566358 2 18337674216952132548
238 59 16906690791573723309
2748010 2 18194404377065991383
335352 9 18410573946496791382
350125 39 18410853274217181160
5104073 3 18338797926293675456
9709674 26 18408318900004659574

> <PUBCHEM_SHAPE_MULTIPOLES>
541.01
7.31
5.04
0.72
2.4
0.61
0
0.02
0
-1.11
0
-0.2
-0.43
0

> <PUBCHEM_SHAPE_SELFOVERLAP>
1261.466

> <PUBCHEM_SHAPE_VOLUME>
274

> <PUBCHEM_COORDINATE_TYPE>
2
5
10

$$$$

