5281752
  -OEChem-07051212592D

 53 54  0     1  0  0  0  0  0999 V2000
    2.3100   -0.9977    0.0000 O   0  0  0  0  0  0  0  0  0  0  0  0
    6.9967   -1.1488    0.0000 O   0  0  0  0  0  0  0  0  0  0  0  0
    3.7583    0.6754    0.0000 O   0  0  0  0  0  0  0  0  0  0  0  0
    4.2759   -1.2565    0.0000 O   0  0  0  0  0  0  0  0  0  0  0  0
    6.0728   -0.7661    0.0000 O   0  0  0  0  0  0  0  0  0  0  0  0
    6.4041   -2.7546    0.0000 O   0  0  0  0  0  0  0  0  0  0  0  0
    7.6618    2.0476    0.0000 N   0  0  3  0  0  0  0  0  0  0  0  0
    3.5688   -1.9636    0.0000 C   0  0  1  0  0  0  0  0  0  0  0  0
    3.3100   -0.9977    0.0000 C   0  0  1  0  0  0  0  0  0  0  0  0
    4.5347   -2.2224    0.0000 C   0  0  0  0  0  0  0  0  0  0  0  0
    6.7379   -0.1829    0.0000 C   0  0  2  0  0  0  0  0  0  0  0  0
    7.6618    0.1998    0.0000 C   0  0  0  0  0  0  0  0  0  0  0  0
    2.8617   -2.6707    0.0000 C   0  0  0  0  0  0  0  0  0  0  0  0
    2.8100   -0.1316    0.0000 C   0  0  0  0  0  0  0  0  0  0  0  0
    8.0444    1.1237    0.0000 C   0  0  0  0  0  0  0  0  0  0  0  0
    5.2418   -1.5153    0.0000 C   0  0  0  0  0  0  0  0  0  0  0  0
    4.0171   -0.2905    0.0000 C   0  0  0  0  0  0  0  0  0  0  0  0
    5.4313    1.1237    0.0000 C   0  0  0  0  0  0  0  0  0  0  0  0
    5.8140    0.1998    0.0000 C   0  0  0  0  0  0  0  0  0  0  0  0
    6.7379    2.4302    0.0000 C   0  0  0  0  0  0  0  0  0  0  0  0
    4.4654    1.3825    0.0000 C   0  0  0  0  0  0  0  0  0  0  0  0
    5.8140    2.0476    0.0000 C   0  0  0  0  0  0  0  0  0  0  0  0
    6.2078   -1.7741    0.0000 C   0  0  0  0  0  0  0  0  0  0  0  0
    4.9830   -0.5494    0.0000 C   0  0  0  0  0  0  0  0  0  0  0  0
    8.3689    2.7546    0.0000 C   0  0  0  0  0  0  0  0  0  0  0  0
    5.2366   -0.0056    0.0000 C   0  0  0  0  0  0  0  0  0  0  0  0
    2.9699   -1.8031    0.0000 H   0  0  0  0  0  0  0  0  0  0  0  0
    4.2727   -2.7843    0.0000 H   0  0  0  0  0  0  0  0  0  0  0  0
    5.0426   -2.5780    0.0000 H   0  0  0  0  0  0  0  0  0  0  0  0
    7.5002   -0.5588    0.0000 H   0  0  0  0  0  0  0  0  0  0  0  0
    7.7427   -0.4149    0.0000 H   0  0  0  0  0  0  0  0  0  0  0  0
    8.2765    0.1189    0.0000 H   0  0  0  0  0  0  0  0  0  0  0  0
    2.4233   -2.2323    0.0000 H   0  0  0  0  0  0  0  0  0  0  0  0
    2.4233   -3.1091    0.0000 H   0  0  0  0  0  0  0  0  0  0  0  0
    3.3001   -3.1091    0.0000 H   0  0  0  0  0  0  0  0  0  0  0  0
    8.5363    0.7462    0.0000 H   0  0  0  0  0  0  0  0  0  0  0  0
    8.5363    1.5011    0.0000 H   0  0  0  0  0  0  0  0  0  0  0  0
    3.3469    0.1784    0.0000 H   0  0  0  0  0  0  0  0  0  0  0  0
    2.5000    0.4053    0.0000 H   0  0  0  0  0  0  0  0  0  0  0  0
    2.2731   -0.4416    0.0000 H   0  0  0  0  0  0  0  0  0  0  0  0
    7.1153    2.9221    0.0000 H   0  0  0  0  0  0  0  0  0  0  0  0
    6.3604    2.9221    0.0000 H   0  0  0  0  0  0  0  0  0  0  0  0
    4.7274    1.9444    0.0000 H   0  0  0  0  0  0  0  0  0  0  0  0
    3.9575    1.7381    0.0000 H   0  0  0  0  0  0  0  0  0  0  0  0
    5.3756    2.4860    0.0000 H   0  0  0  0  0  0  0  0  0  0  0  0
    2.0000   -1.5346    0.0000 H   0  0  0  0  0  0  0  0  0  0  0  0
    4.6274   -0.0415    0.0000 H   0  0  0  0  0  0  0  0  0  0  0  0
    8.8073    2.3162    0.0000 H   0  0  0  0  0  0  0  0  0  0  0  0
    8.8073    3.1931    0.0000 H   0  0  0  0  0  0  0  0  0  0  0  0
    7.9305    3.1931    0.0000 H   0  0  0  0  0  0  0  0  0  0  0  0
    5.7985   -0.2676    0.0000 H   0  0  0  0  0  0  0  0  0  0  0  0
    5.4986    0.5563    0.0000 H   0  0  0  0  0  0  0  0  0  0  0  0
    4.6747    0.2564    0.0000 H   0  0  0  0  0  0  0  0  0  0  0  0
  9  1  1  1  0  0  0
  1 46  1  0  0  0  0
  2 11  1  0  0  0  0
  2 23  1  0  0  0  0
  3 17  1  0  0  0  0
  3 21  1  0  0  0  0
  4 17  2  0  0  0  0
  5 19  2  0  0  0  0
  6 23  2  0  0  0  0
  7 15  1  0  0  0  0
  7 20  1  0  0  0  0
  7 25  1  0  0  0  0
  8  9  1  0  0  0  0
  8 10  1  0  0  0  0
  8 13  1  1  0  0  0
  8 27  1  0  0  0  0
  9 14  1  0  0  0  0
  9 17  1  0  0  0  0
 10 16  1  0  0  0  0
 10 28  1  0  0  0  0
 10 29  1  0  0  0  0
 11 12  1  0  0  0  0
 11 19  1  0  0  0  0
 11 30  1  6  0  0  0
 12 15  1  0  0  0  0
 12 31  1  0  0  0  0
 12 32  1  0  0  0  0
 13 33  1  0  0  0  0
 13 34  1  0  0  0  0
 13 35  1  0  0  0  0
 14 38  1  0  0  0  0
 14 39  1  0  0  0  0
 14 40  1  0  0  0  0
 15 36  1  0  0  0  0
 15 37  1  0  0  0  0
 16 23  1  0  0  0  0
 16 24  2  0  0  0  0
 18 19  1  0  0  0  0
 18 21  1  0  0  0  0
 18 22  2  0  0  0  0
 20 22  1  0  0  0  0
 20 41  1  0  0  0  0
 20 42  1  0  0  0  0
 21 43  1  0  0  0  0
 21 44  1  0  0  0  0
 22 45  1  0  0  0  0
 24 26  1  0  0  0  0
 24 47  1  0  0  0  0
 25 48  1  0  0  0  0
 25 49  1  0  0  0  0
 25 50  1  0  0  0  0
 26 51  1  0  0  0  0
 26 52  1  0  0  0  0
 26 53  1  0  0  0  0
M  END
> <PUBCHEM_COMPOUND_CID>
5281752

> <PUBCHEM_COMPOUND_CANONICALIZED>
1

> <PUBCHEM_CACTVS_COMPLEXITY>
652

> <PUBCHEM_CACTVS_HBOND_ACCEPTOR>
7

> <PUBCHEM_CACTVS_HBOND_DONOR>
1

> <PUBCHEM_CACTVS_ROTATABLE_BOND>
0

> <PUBCHEM_CACTVS_SUBSKEYS>
AAADceB6OAAAAAAAAAAAAAAAAAAAAAAAAAAAAAAAAAAQAAAAAAAAHgAACAAADVThgAYCCAMABgCIAqDSCAKAAAAgAAAACAFIAEgBBBYAoQQGUAAG4ACLIYPcbBxOgAAAAAAAAAAAAAAAAAAAAAAAAAAAAA==

> <PUBCHEM_IUPAC_OPENEYE_NAME>
(1R,4Z,6R,7R,11Z)-4-ethylidene-7-hydroxy-6,7,14-trimethyl-2,9-dioxa-14-azabicyclo[9.5.1]heptadec-11-ene-3,8,17-trione

> <PUBCHEM_IUPAC_CAS_NAME>
(1R,4Z,6R,7R,11Z)-4-ethylidene-7-hydroxy-6,7,14-trimethyl-2,9-dioxa-14-azabicyclo[9.5.1]heptadec-11-ene-3,8,17-trione

> <PUBCHEM_IUPAC_NAME>
(1R,4Z,6R,7R,11Z)-4-ethylidene-7-hydroxy-6,7,14-trimethyl-2,9-dioxa-14-azabicyclo[9.5.1]heptadec-11-ene-3,8,17-trione

> <PUBCHEM_IUPAC_SYSTEMATIC_NAME>
(1R,4Z,6R,7R,11Z)-4-ethylidene-6,7,14-trimethyl-7-oxidanyl-2,9-dioxa-14-azabicyclo[9.5.1]heptadec-11-ene-3,8,17-trione

> <PUBCHEM_IUPAC_TRADITIONAL_NAME>
(1R,4Z,6R,7R,11Z)-4-ethylidene-7-hydroxy-6,7,14-trimethyl-2,9-dioxa-14-azabicyclo[9.5.1]heptadec-11-ene-3,8,17-trione

> <PUBCHEM_IUPAC_INCHI>
InChI=1S/C19H27NO6/c1-5-13-10-12(2)19(3,24)18(23)25-11-14-6-8-20(4)9-7-15(16(14)21)26-17(13)22/h5-6,12,15,24H,7-11H2,1-4H3/b13-5-,14-6-/t12-,15-,19-/m1/s1

> <PUBCHEM_IUPAC_INCHIKEY>
HPDHKHMHQGCNPE-QLJRNOHWSA-N

> <PUBCHEM_XLOGP3_AA>
1.4

> <PUBCHEM_EXACT_MASS>
365.183838

> <PUBCHEM_MOLECULAR_FORMULA>
C19H27NO6

> <PUBCHEM_MOLECULAR_WEIGHT>
365.42078

> <PUBCHEM_OPENEYE_CAN_SMILES>
CC=C1CC(C(C(=O)OCC2=CCN(CCC(C2=O)OC1=O)C)(C)O)C

> <PUBCHEM_OPENEYE_ISO_SMILES>
C/C=C\1/C[C@H]([C@@](C(=O)OC/C/2=C/CN(CC[C@H](C2=O)OC1=O)C)(C)O)C

> <PUBCHEM_CACTVS_TPSA>
93.1

> <PUBCHEM_MONOISOTOPIC_WEIGHT>
365.183838

> <PUBCHEM_TOTAL_CHARGE>
0

> <PUBCHEM_HEAVY_ATOM_COUNT>
26

> <PUBCHEM_ATOM_DEF_STEREO_COUNT>
3

> <PUBCHEM_ATOM_UDEF_STEREO_COUNT>
0

> <PUBCHEM_BOND_DEF_STEREO_COUNT>
2

> <PUBCHEM_BOND_UDEF_STEREO_COUNT>
0

> <PUBCHEM_ISOTOPIC_ATOM_COUNT>
0

> <PUBCHEM_COMPONENT_COUNT>
1

> <PUBCHEM_CACTVS_TAUTO_COUNT>
1

> <PUBCHEM_COORDINATE_TYPE>
1
5
255

> <PUBCHEM_BONDANNOTATIONS>
9  1  5
11  30  6
8  13  5

$$$$

