46174012
  -OEChem-07051213112D

 34 34  0     1  0  0  0  0  0999 V2000
    3.4030   -1.5745    0.0000 O   0  0  0  0  0  0  0  0  0  0  0  0
    3.4030    0.4255    0.0000 O   0  0  0  0  0  0  0  0  0  0  0  0
    6.8671    0.4255    0.0000 O   0  0  0  0  0  0  0  0  0  0  0  0
    5.1350   -2.5745    0.0000 O   0  0  0  0  0  0  0  0  0  0  0  0
    6.8671   -1.5745    0.0000 O   0  0  0  0  0  0  0  0  0  0  0  0
    4.2690   -3.0745    0.0000 O   0  0  0  0  0  0  0  0  0  0  0  0
    5.1350    1.4255    0.0000 N   0  0  0  0  0  0  0  0  0  0  0  0
    5.1350    3.1576    0.0000 N   0  0  0  0  0  0  0  0  0  0  0  0
    6.6350    2.2915    0.0000 N   0  0  0  0  0  0  0  0  0  0  0  0
    2.5369   -3.0745    0.0000 N   0  0  0  0  0  0  0  0  0  0  0  0
    5.1350    0.4255    0.0000 C   0  0  1  0  0  0  0  0  0  0  0  0
    4.2690   -1.0745    0.0000 C   0  0  2  0  0  0  0  0  0  0  0  0
    4.2690   -0.0745    0.0000 C   0  0  1  0  0  0  0  0  0  0  0  0
    6.0010   -0.0745    0.0000 C   0  0  2  0  0  0  0  0  0  0  0  0
    5.1350   -1.5745    0.0000 C   0  0  1  0  0  0  0  0  0  0  0  0
    6.0010   -1.0745    0.0000 C   0  0  1  0  0  0  0  0  0  0  0  0
    5.6350    2.2915    0.0000 C   0  0  0  0  0  0  0  0  0  0  0  0
    3.4030   -2.5745    0.0000 C   0  0  0  0  0  0  0  0  0  0  0  0
    5.6720    0.7355    0.0000 H   0  0  0  0  0  0  0  0  0  0  0  0
    4.2690   -1.6945    0.0000 H   0  0  0  0  0  0  0  0  0  0  0  0
    4.2690    0.5455    0.0000 H   0  0  0  0  0  0  0  0  0  0  0  0
    6.5380   -0.3845    0.0000 H   0  0  0  0  0  0  0  0  0  0  0  0
    5.6720   -1.8845    0.0000 H   0  0  0  0  0  0  0  0  0  0  0  0
    6.5380   -0.7645    0.0000 H   0  0  0  0  0  0  0  0  0  0  0  0
    2.8660    0.1155    0.0000 H   0  0  0  0  0  0  0  0  0  0  0  0
    7.4040    0.1155    0.0000 H   0  0  0  0  0  0  0  0  0  0  0  0
    5.6720   -2.8845    0.0000 H   0  0  0  0  0  0  0  0  0  0  0  0
    6.8671   -2.1945    0.0000 H   0  0  0  0  0  0  0  0  0  0  0  0
    5.4450    3.6945    0.0000 H   0  0  0  0  0  0  0  0  0  0  0  0
    4.5150    3.1576    0.0000 H   0  0  0  0  0  0  0  0  0  0  0  0
    6.9450    2.8285    0.0000 H   0  0  0  0  0  0  0  0  0  0  0  0
    6.9450    1.7546    0.0000 H   0  0  0  0  0  0  0  0  0  0  0  0
    2.5369   -3.6945    0.0000 H   0  0  0  0  0  0  0  0  0  0  0  0
    2.0000   -2.7645    0.0000 H   0  0  0  0  0  0  0  0  0  0  0  0
 12  1  1  6  0  0  0
  1 18  1  0  0  0  0
 13  2  1  1  0  0  0
  2 25  1  0  0  0  0
 14  3  1  1  0  0  0
  3 26  1  0  0  0  0
 15  4  1  1  0  0  0
  4 27  1  0  0  0  0
 16  5  1  6  0  0  0
  5 28  1  0  0  0  0
  6 18  2  0  0  0  0
 11  7  1  6  0  0  0
  7 17  2  0  0  0  0
  8 17  1  0  0  0  0
  8 29  1  0  0  0  0
  8 30  1  0  0  0  0
  9 17  1  0  0  0  0
  9 31  1  0  0  0  0
  9 32  1  0  0  0  0
 10 18  1  0  0  0  0
 10 33  1  0  0  0  0
 10 34  1  0  0  0  0
 11 13  1  0  0  0  0
 11 14  1  0  0  0  0
 11 19  1  0  0  0  0
 12 13  1  0  0  0  0
 12 15  1  0  0  0  0
 12 20  1  0  0  0  0
 13 21  1  0  0  0  0
 14 16  1  0  0  0  0
 14 22  1  0  0  0  0
 15 16  1  0  0  0  0
 15 23  1  0  0  0  0
 16 24  1  0  0  0  0
M  END
> <PUBCHEM_COMPOUND_CID>
46174012

> <PUBCHEM_COMPOUND_CANONICALIZED>
1

> <PUBCHEM_CACTVS_COMPLEXITY>
347

> <PUBCHEM_CACTVS_HBOND_ACCEPTOR>
7

> <PUBCHEM_CACTVS_HBOND_DONOR>
7

> <PUBCHEM_CACTVS_ROTATABLE_BOND>
3

> <PUBCHEM_CACTVS_SUBSKEYS>
AAADceBzuAAAAAAAAAAAAAAAAAAAAAAAAAAwAAAAAAAAAAAAAAAAHgAQCAAACDzhgAYBCAJABgAoAAAAPAAAAAEAAAAAAAAAAAEDEAIAgAAIQAAHAAADAAHwcA0AAAAAAAAAAAACgAAUAACgAAAAAAAAAA==

> <PUBCHEM_IUPAC_OPENEYE_NAME>
[(1R,2S,3R,4R,5S,6R)-3-guanidino-2,4,5,6-tetrahydroxy-cyclohexyl] carbamate

> <PUBCHEM_IUPAC_CAS_NAME>
carbamic acid [(1R,2S,3R,4R,5S,6R)-3-(diaminomethylideneamino)-2,4,5,6-tetrahydroxycyclohexyl] ester

> <PUBCHEM_IUPAC_NAME>
[(1R,2S,3R,4R,5S,6R)-3-(diaminomethylideneamino)-2,4,5,6-tetrahydroxycyclohexyl] carbamate

> <PUBCHEM_IUPAC_SYSTEMATIC_NAME>
[(1R,2S,3R,4R,5S,6R)-3-[bis(azanyl)methylideneamino]-2,4,5,6-tetrakis(oxidanyl)cyclohexyl] carbamate

> <PUBCHEM_IUPAC_TRADITIONAL_NAME>
carbamic acid [(1R,2S,3R,4R,5S,6R)-3-guanidino-2,4,5,6-tetrahydroxy-cyclohexyl] ester

> <PUBCHEM_IUPAC_INCHI>
InChI=1S/C8H16N4O6/c9-7(10)12-1-2(13)4(15)5(16)6(3(1)14)18-8(11)17/h1-6,13-16H,(H2,11,17)(H4,9,10,12)/t1-,2-,3+,4+,5-,6-/m1/s1

> <PUBCHEM_IUPAC_INCHIKEY>
XGJUZTCIMWIGFC-DSMIOISRSA-N

> <PUBCHEM_XLOGP3_AA>
-4.6

> <PUBCHEM_EXACT_MASS>
264.106984

> <PUBCHEM_MOLECULAR_FORMULA>
C8H16N4O6

> <PUBCHEM_MOLECULAR_WEIGHT>
264.23584

> <PUBCHEM_OPENEYE_CAN_SMILES>
C1(C(C(C(C(C1O)OC(=O)N)O)O)O)N=C(N)N

> <PUBCHEM_OPENEYE_ISO_SMILES>
[C@H]1([C@H]([C@@H]([C@H]([C@@H]([C@H]1O)OC(=O)N)O)O)O)N=C(N)N

> <PUBCHEM_CACTVS_TPSA>
198

> <PUBCHEM_MONOISOTOPIC_WEIGHT>
264.106984

> <PUBCHEM_TOTAL_CHARGE>
0

> <PUBCHEM_HEAVY_ATOM_COUNT>
18

> <PUBCHEM_ATOM_DEF_STEREO_COUNT>
6

> <PUBCHEM_ATOM_UDEF_STEREO_COUNT>
0

> <PUBCHEM_BOND_DEF_STEREO_COUNT>
0

> <PUBCHEM_BOND_UDEF_STEREO_COUNT>
0

> <PUBCHEM_ISOTOPIC_ATOM_COUNT>
0

> <PUBCHEM_COMPONENT_COUNT>
1

> <PUBCHEM_CACTVS_TAUTO_COUNT>
4

> <PUBCHEM_COORDINATE_TYPE>
1
5
255

> <PUBCHEM_BONDANNOTATIONS>
12  1  6
13  2  5
14  3  5
15  4  5
16  5  6
11  7  6

$$$$

