3983
  -OEChem-07051213042D

 84 83  0     1  0  0  0  0  0999 V2000
    6.3301   -0.4720    0.0000 P   0  0  3  0  0  0  0  0  0  0  0  0
    5.4641   -0.9720    0.0000 O   0  0  0  0  0  0  0  0  0  0  0  0
   10.6603    0.0280    0.0000 O   0  0  0  0  0  0  0  0  0  0  0  0
    7.1962    0.0280    0.0000 O   0  0  0  0  0  0  0  0  0  0  0  0
    8.9282    1.0280    0.0000 O   0  0  0  0  0  0  0  0  0  0  0  0
    5.8301    0.3940    0.0000 O   0  5  0  0  0  0  0  0  0  0  0  0
    6.8301   -1.3380    0.0000 O   0  0  0  0  0  0  0  0  0  0  0  0
    2.8660   -0.4720    0.0000 N   0  3  0  0  0  0  0  0  0  0  0  0
   17.5885    0.0280    0.0000 C   0  0  0  0  0  0  0  0  0  0  0  0
   16.7224   -0.4720    0.0000 C   0  0  0  0  0  0  0  0  0  0  0  0
   18.4545   -0.4720    0.0000 C   0  0  0  0  0  0  0  0  0  0  0  0
   15.8564    0.0280    0.0000 C   0  0  0  0  0  0  0  0  0  0  0  0
   19.3205    0.0280    0.0000 C   0  0  0  0  0  0  0  0  0  0  0  0
   14.9904   -0.4720    0.0000 C   0  0  0  0  0  0  0  0  0  0  0  0
   20.1865   -0.4720    0.0000 C   0  0  0  0  0  0  0  0  0  0  0  0
   14.1244    0.0280    0.0000 C   0  0  0  0  0  0  0  0  0  0  0  0
   21.0526    0.0280    0.0000 C   0  0  0  0  0  0  0  0  0  0  0  0
    3.7320   -0.9720    0.0000 C   0  0  0  0  0  0  0  0  0  0  0  0
   13.2583   -0.4720    0.0000 C   0  0  0  0  0  0  0  0  0  0  0  0
   21.9186   -0.4720    0.0000 C   0  0  0  0  0  0  0  0  0  0  0  0
    2.0000    0.0280    0.0000 C   0  0  0  0  0  0  0  0  0  0  0  0
    2.3660   -1.3380    0.0000 C   0  0  0  0  0  0  0  0  0  0  0  0
    3.3660    0.3940    0.0000 C   0  0  0  0  0  0  0  0  0  0  0  0
   12.3923    0.0280    0.0000 C   0  0  0  0  0  0  0  0  0  0  0  0
   22.7846    0.0280    0.0000 C   0  0  0  0  0  0  0  0  0  0  0  0
    4.5981   -0.4720    0.0000 C   0  0  0  0  0  0  0  0  0  0  0  0
   23.6506   -0.4720    0.0000 C   0  0  0  0  0  0  0  0  0  0  0  0
   11.5263   -0.4720    0.0000 C   0  0  0  0  0  0  0  0  0  0  0  0
   24.5167    0.0280    0.0000 C   0  0  0  0  0  0  0  0  0  0  0  0
    9.7942   -0.4720    0.0000 C   0  0  0  0  0  0  0  0  0  0  0  0
    8.9282    0.0280    0.0000 C   0  0  3  0  0  0  0  0  0  0  0  0
    8.0622   -0.4720    0.0000 C   0  0  0  0  0  0  0  0  0  0  0  0
   17.9870    0.5030    0.0000 H   0  0  0  0  0  0  0  0  0  0  0  0
   17.1899    0.5030    0.0000 H   0  0  0  0  0  0  0  0  0  0  0  0
   16.3239   -0.9469    0.0000 H   0  0  0  0  0  0  0  0  0  0  0  0
   17.1210   -0.9469    0.0000 H   0  0  0  0  0  0  0  0  0  0  0  0
   18.0560   -0.9469    0.0000 H   0  0  0  0  0  0  0  0  0  0  0  0
   18.8530   -0.9469    0.0000 H   0  0  0  0  0  0  0  0  0  0  0  0
   16.2549    0.5030    0.0000 H   0  0  0  0  0  0  0  0  0  0  0  0
   15.4579    0.5030    0.0000 H   0  0  0  0  0  0  0  0  0  0  0  0
   19.7190    0.5030    0.0000 H   0  0  0  0  0  0  0  0  0  0  0  0
   18.9220    0.5030    0.0000 H   0  0  0  0  0  0  0  0  0  0  0  0
   14.5919   -0.9469    0.0000 H   0  0  0  0  0  0  0  0  0  0  0  0
   15.3889   -0.9469    0.0000 H   0  0  0  0  0  0  0  0  0  0  0  0
   19.7880   -0.9469    0.0000 H   0  0  0  0  0  0  0  0  0  0  0  0
   20.5851   -0.9469    0.0000 H   0  0  0  0  0  0  0  0  0  0  0  0
   14.5229    0.5030    0.0000 H   0  0  0  0  0  0  0  0  0  0  0  0
   13.7258    0.5030    0.0000 H   0  0  0  0  0  0  0  0  0  0  0  0
   21.4511    0.5030    0.0000 H   0  0  0  0  0  0  0  0  0  0  0  0
   20.6540    0.5030    0.0000 H   0  0  0  0  0  0  0  0  0  0  0  0
    3.3335   -1.4469    0.0000 H   0  0  0  0  0  0  0  0  0  0  0  0
    4.1306   -1.4469    0.0000 H   0  0  0  0  0  0  0  0  0  0  0  0
   12.8598   -0.9469    0.0000 H   0  0  0  0  0  0  0  0  0  0  0  0
   13.6569   -0.9469    0.0000 H   0  0  0  0  0  0  0  0  0  0  0  0
   21.5201   -0.9469    0.0000 H   0  0  0  0  0  0  0  0  0  0  0  0
   22.3171   -0.9469    0.0000 H   0  0  0  0  0  0  0  0  0  0  0  0
    3.9030    0.0840    0.0000 H   0  0  0  0  0  0  0  0  0  0  0  0
    3.6760    0.9310    0.0000 H   0  0  0  0  0  0  0  0  0  0  0  0
    2.8291    0.7040    0.0000 H   0  0  0  0  0  0  0  0  0  0  0  0
    1.8291   -1.0280    0.0000 H   0  0  0  0  0  0  0  0  0  0  0  0
    2.0560   -1.8750    0.0000 H   0  0  0  0  0  0  0  0  0  0  0  0
    2.9030   -1.6480    0.0000 H   0  0  0  0  0  0  0  0  0  0  0  0
    2.3100    0.5649    0.0000 H   0  0  0  0  0  0  0  0  0  0  0  0
    1.4631    0.3380    0.0000 H   0  0  0  0  0  0  0  0  0  0  0  0
    1.6900   -0.5089    0.0000 H   0  0  0  0  0  0  0  0  0  0  0  0
   12.7908    0.5030    0.0000 H   0  0  0  0  0  0  0  0  0  0  0  0
   11.9938    0.5030    0.0000 H   0  0  0  0  0  0  0  0  0  0  0  0
   23.1831    0.5030    0.0000 H   0  0  0  0  0  0  0  0  0  0  0  0
   22.3861    0.5030    0.0000 H   0  0  0  0  0  0  0  0  0  0  0  0
    4.9966    0.0030    0.0000 H   0  0  0  0  0  0  0  0  0  0  0  0
    4.1996    0.0030    0.0000 H   0  0  0  0  0  0  0  0  0  0  0  0
   23.2521   -0.9469    0.0000 H   0  0  0  0  0  0  0  0  0  0  0  0
   24.0492   -0.9469    0.0000 H   0  0  0  0  0  0  0  0  0  0  0  0
   11.1278   -0.9469    0.0000 H   0  0  0  0  0  0  0  0  0  0  0  0
   11.9248   -0.9469    0.0000 H   0  0  0  0  0  0  0  0  0  0  0  0
   24.8267   -0.5089    0.0000 H   0  0  0  0  0  0  0  0  0  0  0  0
   25.0536    0.3380    0.0000 H   0  0  0  0  0  0  0  0  0  0  0  0
   24.2067    0.5649    0.0000 H   0  0  0  0  0  0  0  0  0  0  0  0
    9.3957   -0.9469    0.0000 H   0  0  0  0  0  0  0  0  0  0  0  0
   10.1928   -0.9469    0.0000 H   0  0  0  0  0  0  0  0  0  0  0  0
    9.4651    0.3380    0.0000 H   0  0  0  0  0  0  0  0  0  0  0  0
    7.6636   -0.9469    0.0000 H   0  0  0  0  0  0  0  0  0  0  0  0
    8.4607   -0.9469    0.0000 H   0  0  0  0  0  0  0  0  0  0  0  0
    9.4651    1.3380    0.0000 H   0  0  0  0  0  0  0  0  0  0  0  0
  1  2  1  0  0  0  0
  1  4  1  0  0  0  0
  1  6  1  0  0  0  0
  1  7  2  0  0  0  0
  2 26  1  0  0  0  0
  3 28  1  0  0  0  0
  3 30  1  0  0  0  0
  4 32  1  0  0  0  0
  5 31  1  0  0  0  0
  5 84  1  0  0  0  0
  8 18  1  0  0  0  0
  8 21  1  0  0  0  0
  8 22  1  0  0  0  0
  8 23  1  0  0  0  0
  9 10  1  0  0  0  0
  9 11  1  0  0  0  0
  9 33  1  0  0  0  0
  9 34  1  0  0  0  0
 10 12  1  0  0  0  0
 10 35  1  0  0  0  0
 10 36  1  0  0  0  0
 11 13  1  0  0  0  0
 11 37  1  0  0  0  0
 11 38  1  0  0  0  0
 12 14  1  0  0  0  0
 12 39  1  0  0  0  0
 12 40  1  0  0  0  0
 13 15  1  0  0  0  0
 13 41  1  0  0  0  0
 13 42  1  0  0  0  0
 14 16  1  0  0  0  0
 14 43  1  0  0  0  0
 14 44  1  0  0  0  0
 15 17  1  0  0  0  0
 15 45  1  0  0  0  0
 15 46  1  0  0  0  0
 16 19  1  0  0  0  0
 16 47  1  0  0  0  0
 16 48  1  0  0  0  0
 17 20  1  0  0  0  0
 17 49  1  0  0  0  0
 17 50  1  0  0  0  0
 18 26  1  0  0  0  0
 18 51  1  0  0  0  0
 18 52  1  0  0  0  0
 19 24  1  0  0  0  0
 19 53  1  0  0  0  0
 19 54  1  0  0  0  0
 20 25  1  0  0  0  0
 20 55  1  0  0  0  0
 20 56  1  0  0  0  0
 21 63  1  0  0  0  0
 21 64  1  0  0  0  0
 21 65  1  0  0  0  0
 22 60  1  0  0  0  0
 22 61  1  0  0  0  0
 22 62  1  0  0  0  0
 23 57  1  0  0  0  0
 23 58  1  0  0  0  0
 23 59  1  0  0  0  0
 24 28  1  0  0  0  0
 24 66  1  0  0  0  0
 24 67  1  0  0  0  0
 25 27  1  0  0  0  0
 25 68  1  0  0  0  0
 25 69  1  0  0  0  0
 26 70  1  0  0  0  0
 26 71  1  0  0  0  0
 27 29  1  0  0  0  0
 27 72  1  0  0  0  0
 27 73  1  0  0  0  0
 28 74  1  0  0  0  0
 28 75  1  0  0  0  0
 29 76  1  0  0  0  0
 29 77  1  0  0  0  0
 29 78  1  0  0  0  0
 30 31  1  0  0  0  0
 30 79  1  0  0  0  0
 30 80  1  0  0  0  0
 31 32  1  0  0  0  0
 31 81  1  0  0  0  0
 32 82  1  0  0  0  0
 32 83  1  0  0  0  0
M  CHG  2   6  -1   8   1
M  END
> <PUBCHEM_COMPOUND_CID>
3983

> <PUBCHEM_COMPOUND_CANONICALIZED>
1

> <PUBCHEM_CACTVS_COMPLEXITY>
450

> <PUBCHEM_CACTVS_HBOND_ACCEPTOR>
6

> <PUBCHEM_CACTVS_HBOND_DONOR>
1

> <PUBCHEM_CACTVS_ROTATABLE_BOND>
24

> <PUBCHEM_CACTVS_SUBSKEYS>
AAADcfB6OAIAAAAAAAAAAAAAAAAAAAAAAAAAAAAAAAAAAAAAAAAAHgAACCAACBThgAYCAAMABxAAQAAAAIAAAAAAAAAAAAAIAAADEAIAAAACAAAFAAATAAGAwKAAAAAAAAAAAAAAAAAAAAAAAAAAAAAAAA==

> <PUBCHEM_IUPAC_OPENEYE_NAME>
(3-hexadecoxy-2-hydroxy-propyl) 2-(trimethylammonio)ethyl phosphate

> <PUBCHEM_IUPAC_CAS_NAME>
(3-hexadecoxy-2-hydroxypropyl) 2-(trimethylammonio)ethyl phosphate

> <PUBCHEM_IUPAC_NAME>
(3-hexadecoxy-2-hydroxypropyl) 2-(trimethylazaniumyl)ethyl phosphate

> <PUBCHEM_IUPAC_SYSTEMATIC_NAME>
(3-hexadecoxy-2-oxidanyl-propyl) 2-(trimethylazaniumyl)ethyl phosphate

> <PUBCHEM_IUPAC_TRADITIONAL_NAME>
(3-cetyloxy-2-hydroxy-propyl) 2-(trimethylammonio)ethyl phosphate

> <PUBCHEM_IUPAC_INCHI>
InChI=1S/C24H52NO6P/c1-5-6-7-8-9-10-11-12-13-14-15-16-17-18-20-29-22-24(26)23-31-32(27,28)30-21-19-25(2,3)4/h24,26H,5-23H2,1-4H3

> <PUBCHEM_IUPAC_INCHIKEY>
VLBPIWYTPAXCFJ-UHFFFAOYSA-N

> <PUBCHEM_XLOGP3_AA>
5.9

> <PUBCHEM_EXACT_MASS>
481.353225

> <PUBCHEM_MOLECULAR_FORMULA>
C24H52NO6P

> <PUBCHEM_MOLECULAR_WEIGHT>
481.646542

> <PUBCHEM_OPENEYE_CAN_SMILES>
CCCCCCCCCCCCCCCCOCC(COP(=O)([O-])OCC[N+](C)(C)C)O

> <PUBCHEM_OPENEYE_ISO_SMILES>
CCCCCCCCCCCCCCCCOCC(COP(=O)([O-])OCC[N+](C)(C)C)O

> <PUBCHEM_CACTVS_TPSA>
88

> <PUBCHEM_MONOISOTOPIC_WEIGHT>
481.353225

> <PUBCHEM_TOTAL_CHARGE>
0

> <PUBCHEM_HEAVY_ATOM_COUNT>
32

> <PUBCHEM_ATOM_DEF_STEREO_COUNT>
0

> <PUBCHEM_ATOM_UDEF_STEREO_COUNT>
1

> <PUBCHEM_BOND_DEF_STEREO_COUNT>
0

> <PUBCHEM_BOND_UDEF_STEREO_COUNT>
0

> <PUBCHEM_ISOTOPIC_ATOM_COUNT>
0

> <PUBCHEM_COMPONENT_COUNT>
1

> <PUBCHEM_CACTVS_TAUTO_COUNT>
1

> <PUBCHEM_COORDINATE_TYPE>
1
5
255

> <PUBCHEM_BONDANNOTATIONS>
31  5  3

$$$$

