439537
  -OEChem-07051212463D

 41 42  0     1  0  0  0  0  0999 V2000
   -1.8886    0.9656   -0.2486 O   0  0  0  0  0  0  0  0  0  0  0  0
    0.7370    0.2025    0.0335 O   0  0  0  0  0  0  0  0  0  0  0  0
    2.4403   -1.3901   -0.0799 O   0  0  0  0  0  0  0  0  0  0  0  0
   -2.4020   -2.6278    0.2391 O   0  0  0  0  0  0  0  0  0  0  0  0
   -5.0478   -1.6543   -0.3995 O   0  0  0  0  0  0  0  0  0  0  0  0
   -5.4271    1.0703    0.6558 O   0  0  0  0  0  0  0  0  0  0  0  0
    2.6544    2.2489   -0.4967 O   0  0  0  0  0  0  0  0  0  0  0  0
   -3.3222    2.8010   -0.1067 O   0  0  0  0  0  0  0  0  0  0  0  0
    5.3246    1.5475    0.3128 O   0  0  0  0  0  0  0  0  0  0  0  0
    4.8294   -0.9631    1.4152 O   0  0  0  0  0  0  0  0  0  0  0  0
   -1.5797   -0.3614    0.1812 C   0  0  1  0  0  0  0  0  0  0  0  0
   -2.6808   -1.3252   -0.2676 C   0  0  2  0  0  0  0  0  0  0  0  0
   -4.0460   -0.8653    0.2441 C   0  0  1  0  0  0  0  0  0  0  0  0
   -4.2843    0.6124   -0.0667 C   0  0  2  0  0  0  0  0  0  0  0  0
   -0.2257   -0.7342   -0.4141 C   0  0  0  0  0  0  0  0  0  0  0  0
    2.9988    0.9767    0.0515 C   0  0  1  0  0  0  0  0  0  0  0  0
   -3.0850    1.4672    0.3426 C   0  0  1  0  0  0  0  0  0  0  0  0
    2.0348   -0.0843   -0.4860 C   0  0  2  0  0  0  0  0  0  0  0  0
    4.4365    0.6514   -0.3497 C   0  0  2  0  0  0  0  0  0  0  0  0
    4.7928   -0.7932   -0.0027 C   0  0  2  0  0  0  0  0  0  0  0  0
    3.7406   -1.7447   -0.5577 C   0  0  0  0  0  0  0  0  0  0  0  0
   -1.4811   -0.3613    1.2754 H   0  0  0  0  0  0  0  0  0  0  0  0
   -2.7039   -1.3931   -1.3628 H   0  0  0  0  0  0  0  0  0  0  0  0
   -4.1399   -1.0605    1.3195 H   0  0  0  0  0  0  0  0  0  0  0  0
   -4.5068    0.7391   -1.1336 H   0  0  0  0  0  0  0  0  0  0  0  0
   -0.2741   -0.6952   -1.5092 H   0  0  0  0  0  0  0  0  0  0  0  0
    0.0494   -1.7475   -0.1025 H   0  0  0  0  0  0  0  0  0  0  0  0
    2.9067    1.0600    1.1416 H   0  0  0  0  0  0  0  0  0  0  0  0
    1.9839   -0.0327   -1.5821 H   0  0  0  0  0  0  0  0  0  0  0  0
   -2.9817    1.5022    1.4346 H   0  0  0  0  0  0  0  0  0  0  0  0
    4.5672    0.8084   -1.4279 H   0  0  0  0  0  0  0  0  0  0  0  0
    5.7875   -1.0489   -0.3831 H   0  0  0  0  0  0  0  0  0  0  0  0
    3.7364   -1.7454   -1.6536 H   0  0  0  0  0  0  0  0  0  0  0  0
    3.9354   -2.7665   -0.2162 H   0  0  0  0  0  0  0  0  0  0  0  0
   -3.1284   -3.2105   -0.0411 H   0  0  0  0  0  0  0  0  0  0  0  0
   -5.9123   -1.3357   -0.0879 H   0  0  0  0  0  0  0  0  0  0  0  0
   -5.5458    2.0125    0.4461 H   0  0  0  0  0  0  0  0  0  0  0  0
    3.1866    2.9214   -0.0392 H   0  0  0  0  0  0  0  0  0  0  0  0
   -2.7954    3.3903    0.4594 H   0  0  0  0  0  0  0  0  0  0  0  0
    5.1584    2.4399   -0.0345 H   0  0  0  0  0  0  0  0  0  0  0  0
    5.4704   -0.3219    1.7670 H   0  0  0  0  0  0  0  0  0  0  0  0
  1 11  1  0  0  0  0
  1 17  1  0  0  0  0
  2 15  1  0  0  0  0
  2 18  1  0  0  0  0
  3 18  1  0  0  0  0
  3 21  1  0  0  0  0
  4 12  1  0  0  0  0
  4 35  1  0  0  0  0
  5 13  1  0  0  0  0
  5 36  1  0  0  0  0
  6 14  1  0  0  0  0
  6 37  1  0  0  0  0
  7 16  1  0  0  0  0
  7 38  1  0  0  0  0
  8 17  1  0  0  0  0
  8 39  1  0  0  0  0
  9 19  1  0  0  0  0
  9 40  1  0  0  0  0
 10 20  1  0  0  0  0
 10 41  1  0  0  0  0
 11 12  1  0  0  0  0
 11 15  1  0  0  0  0
 11 22  1  0  0  0  0
 12 13  1  0  0  0  0
 12 23  1  0  0  0  0
 13 14  1  0  0  0  0
 13 24  1  0  0  0  0
 14 17  1  0  0  0  0
 14 25  1  0  0  0  0
 15 26  1  0  0  0  0
 15 27  1  0  0  0  0
 16 18  1  0  0  0  0
 16 19  1  0  0  0  0
 16 28  1  0  0  0  0
 17 30  1  0  0  0  0
 18 29  1  0  0  0  0
 19 20  1  0  0  0  0
 19 31  1  0  0  0  0
 20 21  1  0  0  0  0
 20 32  1  0  0  0  0
 21 33  1  0  0  0  0
 21 34  1  0  0  0  0
M  END
> <PUBCHEM_COMPOUND_CID>
439537

> <PUBCHEM_CONFORMER_RMSD>
0.8

> <PUBCHEM_CONFORMER_DIVERSEORDER>
3
54
21
47
31
13
19
26
9
6
37
15
20
49
28
23
38
36
44
35
53
55
33
51
42
32
48
30
4
46
50
2
24
5
52
17
18
39
57
14
1
16
11
10
25
12
27
43
40
7
45
8
22
41
34
56
29

> <PUBCHEM_MMFF94_PARTIAL_CHARGES>
28
1 -0.56
10 -0.68
11 0.28
12 0.28
13 0.28
14 0.28
15 0.28
16 0.28
17 0.56
18 0.56
19 0.28
2 -0.56
20 0.28
21 0.28
3 -0.56
35 0.4
36 0.4
37 0.4
38 0.4
39 0.4
4 -0.68
40 0.4
41 0.4
5 -0.68
6 -0.68
7 -0.68
8 -0.68
9 -0.68

> <PUBCHEM_EFFECTIVE_ROTOR_COUNT>
5.4

> <PUBCHEM_PHARMACOPHORE_FEATURES>
19
1 1 acceptor
1 10 acceptor
1 10 donor
1 2 acceptor
1 3 acceptor
1 4 acceptor
1 4 donor
1 5 acceptor
1 5 donor
1 6 acceptor
1 6 donor
1 7 acceptor
1 7 donor
1 8 acceptor
1 8 donor
1 9 acceptor
1 9 donor
6 1 11 12 13 14 17 rings
6 3 16 18 19 20 21 rings

> <PUBCHEM_HEAVY_ATOM_COUNT>
21

> <PUBCHEM_ATOM_DEF_STEREO_COUNT>
8

> <PUBCHEM_ATOM_UDEF_STEREO_COUNT>
1

> <PUBCHEM_BOND_DEF_STEREO_COUNT>
0

> <PUBCHEM_BOND_UDEF_STEREO_COUNT>
0

> <PUBCHEM_ISOTOPIC_ATOM_COUNT>
0

> <PUBCHEM_COMPONENT_COUNT>
1

> <PUBCHEM_CACTVS_TAUTO_COUNT>
1

> <PUBCHEM_CONFORMER_ID>
0006B4F100000003

> <PUBCHEM_MMFF94_ENERGY>
55.5304

> <PUBCHEM_FEATURE_SELFOVERLAP>
96.541

> <PUBCHEM_SHAPE_FINGERPRINT>
10616163 171 18336824178310334158
11405975 8 18342175553057904378
12107183 9 17836088149173951346
12236239 1 17917992789283270027
12596602 18 17561361764455124313
12670546 56 18341899584160662618
13167823 11 18413390942758887074
13675066 3 17967818266697482990
14341114 176 18411130342514897308
15042514 8 18340478968800751963
15196674 1 18409165515067074716
15256400 18 18338232768695499164
17492 89 18410007732548397862
17834072 33 18409167697037250062
17844677 252 18408595981203173124
1813 80 16988840588215571628
19050596 39 18411418401523407574
200 152 18113618963027688159
20645477 56 18411133662724960301
20645477 70 17095794529741220966
21033648 29 17313966206708794234
21065198 48 18342178869036361730
21065198 57 18410572890246260958
21065199 12 18409728460978892134
21267235 1 18410846655450843646
23402539 116 18408890637840639007
23557571 272 18114452418537564836
23559900 14 18334292089405249686
245318 6 16768154096375676004
300161 21 18410859849859031972
3004659 81 18412542133168045902
34797466 226 17531518781357577740
351380 180 18411136926683853373
3545911 37 18408036321231721308
42 15 18342455954392985126
4214541 1 18410009953050939597
474 4 17631446766108660428
5104073 3 18411135827040299170
542803 24 17458060477855944648
573450 72 18341901808932701170
7495541 125 17749113253153689459
77779 3 18409727378546822422
90127 26 18340193155437073738
9709674 26 18408877443105734183

> <PUBCHEM_SHAPE_MULTIPOLES>
373.48
12.92
2.34
0.75
1.69
0.38
0.1
0.81
1.43
-1.04
-0.09
0.4
-0.08
-0.32

> <PUBCHEM_SHAPE_SELFOVERLAP>
764.194

> <PUBCHEM_SHAPE_VOLUME>
210.6

> <PUBCHEM_COORDINATE_TYPE>
2
5
10

$$$$

