4759
  -OEChem-06261200203D

 45 47  0     1  0  0  0  0  0999 V2000
   -2.6805    0.3917   -2.1133 S   0  0  0  0  0  0  0  0  0  0  0  0
   -2.6321   -2.5328    1.1699 O   0  0  0  0  0  0  0  0  0  0  0  0
   -3.7704    0.7778    2.4016 O   0  0  0  0  0  0  0  0  0  0  0  0
   -5.8584    0.9953    1.5131 O   0  0  0  0  0  0  0  0  0  0  0  0
    1.3965   -0.6951   -1.8004 O   0  0  0  0  0  0  0  0  0  0  0  0
    3.7926   -0.9060   -0.6466 O   0  0  0  0  0  0  0  0  0  0  0  0
   -2.6712   -0.3077    0.3839 N   0  0  0  0  0  0  0  0  0  0  0  0
    0.2607   -1.4652    0.0712 N   0  0  0  0  0  0  0  0  0  0  0  0
   -1.6727    0.0691   -0.6215 C   0  0  1  0  0  0  0  0  0  0  0  0
   -4.1048    0.9775   -1.0677 C   0  0  0  0  0  0  0  0  0  0  0  0
   -4.0615    0.0554    0.1713 C   0  0  2  0  0  0  0  0  0  0  0  0
   -1.0875   -1.3422   -0.4764 C   0  0  2  0  0  0  0  0  0  0  0  0
   -2.2106   -1.5819    0.5515 C   0  0  0  0  0  0  0  0  0  0  0  0
   -3.8763    2.4625   -0.7502 C   0  0  0  0  0  0  0  0  0  0  0  0
   -5.4056    0.8040   -1.8546 C   0  0  0  0  0  0  0  0  0  0  0  0
   -4.6882    0.6581    1.4112 C   0  0  0  0  0  0  0  0  0  0  0  0
    1.4066   -1.1257   -0.6491 C   0  0  0  0  0  0  0  0  0  0  0  0
    2.6910   -1.3227    0.1427 C   0  0  1  0  0  0  0  0  0  0  0  0
    2.8909   -2.7857    0.5048 C   0  0  0  0  0  0  0  0  0  0  0  0
    4.5690    0.0973   -0.1947 C   0  0  0  0  0  0  0  0  0  0  0  0
    4.0228    1.3651    0.0501 C   0  0  0  0  0  0  0  0  0  0  0  0
    5.9362   -0.1098    0.0372 C   0  0  0  0  0  0  0  0  0  0  0  0
    4.8272    2.4046    0.5172 C   0  0  0  0  0  0  0  0  0  0  0  0
    6.7405    0.9296    0.5044 C   0  0  0  0  0  0  0  0  0  0  0  0
    6.1860    2.1868    0.7444 C   0  0  0  0  0  0  0  0  0  0  0  0
   -1.0415    0.8993   -0.2901 H   0  0  0  0  0  0  0  0  0  0  0  0
   -4.6027   -0.8819   -0.0185 H   0  0  0  0  0  0  0  0  0  0  0  0
   -1.2037   -1.9887   -1.3557 H   0  0  0  0  0  0  0  0  0  0  0  0
   -2.9753    2.6250   -0.1482 H   0  0  0  0  0  0  0  0  0  0  0  0
   -3.7798    3.0578   -1.6662 H   0  0  0  0  0  0  0  0  0  0  0  0
   -4.7207    2.8819   -0.1917 H   0  0  0  0  0  0  0  0  0  0  0  0
   -5.4053    1.4048   -2.7715 H   0  0  0  0  0  0  0  0  0  0  0  0
   -5.5736   -0.2413   -2.1385 H   0  0  0  0  0  0  0  0  0  0  0  0
   -6.2679    1.1220   -1.2580 H   0  0  0  0  0  0  0  0  0  0  0  0
    0.3817   -1.7836    1.0295 H   0  0  0  0  0  0  0  0  0  0  0  0
    2.6120   -0.7393    1.0701 H   0  0  0  0  0  0  0  0  0  0  0  0
   -4.1569    1.1689    3.2138 H   0  0  0  0  0  0  0  0  0  0  0  0
    2.8990   -3.4118   -0.3950 H   0  0  0  0  0  0  0  0  0  0  0  0
    2.1079   -3.1609    1.1701 H   0  0  0  0  0  0  0  0  0  0  0  0
    3.8580   -2.9296    0.9989 H   0  0  0  0  0  0  0  0  0  0  0  0
    2.9674    1.5540   -0.1294 H   0  0  0  0  0  0  0  0  0  0  0  0
    6.3762   -1.0866   -0.1470 H   0  0  0  0  0  0  0  0  0  0  0  0
    4.3958    3.3840    0.7023 H   0  0  0  0  0  0  0  0  0  0  0  0
    7.7986    0.7600    0.6813 H   0  0  0  0  0  0  0  0  0  0  0  0
    6.8124    2.9961    1.1078 H   0  0  0  0  0  0  0  0  0  0  0  0
  1  9  1  0  0  0  0
  1 10  1  0  0  0  0
  2 13  2  0  0  0  0
  3 16  1  0  0  0  0
  3 37  1  0  0  0  0
  4 16  2  0  0  0  0
  5 17  2  0  0  0  0
  6 18  1  0  0  0  0
  6 20  1  0  0  0  0
  7  9  1  0  0  0  0
  7 11  1  0  0  0  0
  7 13  1  0  0  0  0
  8 12  1  0  0  0  0
  8 17  1  0  0  0  0
  8 35  1  0  0  0  0
  9 12  1  0  0  0  0
  9 26  1  0  0  0  0
 10 11  1  0  0  0  0
 10 14  1  0  0  0  0
 10 15  1  0  0  0  0
 11 16  1  0  0  0  0
 11 27  1  0  0  0  0
 12 13  1  0  0  0  0
 12 28  1  0  0  0  0
 14 29  1  0  0  0  0
 14 30  1  0  0  0  0
 14 31  1  0  0  0  0
 15 32  1  0  0  0  0
 15 33  1  0  0  0  0
 15 34  1  0  0  0  0
 17 18  1  0  0  0  0
 18 19  1  0  0  0  0
 18 36  1  0  0  0  0
 19 38  1  0  0  0  0
 19 39  1  0  0  0  0
 19 40  1  0  0  0  0
 20 21  2  0  0  0  0
 20 22  1  0  0  0  0
 21 23  1  0  0  0  0
 21 41  1  0  0  0  0
 22 24  2  0  0  0  0
 22 42  1  0  0  0  0
 23 25  2  0  0  0  0
 23 43  1  0  0  0  0
 24 25  1  0  0  0  0
 24 44  1  0  0  0  0
 25 45  1  0  0  0  0
M  END
> <PUBCHEM_COMPOUND_CID>
4759

> <PUBCHEM_CONFORMER_RMSD>
1

> <PUBCHEM_CONFORMER_DIVERSEORDER>
1
646
318
759
780
272
382
378
251
8
820
803
130
441
79
331
97
147
401
158
210
75
259
46
335
6
263
98
383
163
312
580
499
762
12
252
31
365
500
101
303
269
28
137
245
154
743
2
63
236
724
165
476
689
433
212
51
176
533
454
19
559
525
179
15
284
268
59
599
20
398
41
362
229
765
660
626
455
692
58
379
377
81
314
475
372
215
438
103
234
376
7
104
37
156
211
299
304
60
9
632
641
173
631
787
82
273
140
285
24
258
201
658
21
260
726
10
153
148
69
265
218
107
437
17
249
361
282
13
322
622
336
280
47
3
110
78
25
182
346
43
310
267
167
38
298
514
65
490
139
145
94
124
736
553
283
190
370
89
277
83
288
39
460
29
423
184
355
72
92
241
122
181
368
113
240
567
70
545
715
522
118
11
466
32
690

> <PUBCHEM_MMFF94_PARTIAL_CHARGES>
29
1 -0.45
10 0.23
11 0.36
12 0.28
13 0.58
16 0.66
17 0.57
18 0.34
2 -0.57
20 0.08
21 -0.15
22 -0.15
23 -0.15
24 -0.15
25 -0.15
3 -0.65
35 0.37
37 0.5
4 -0.57
41 0.15
42 0.15
43 0.15
44 0.15
45 0.15
5 -0.57
6 -0.36
7 -0.59
8 -0.65
9 0.44

> <PUBCHEM_EFFECTIVE_ROTOR_COUNT>
6.8

> <PUBCHEM_PHARMACOPHORE_FEATURES>
11
1 2 acceptor
1 3 acceptor
1 4 acceptor
1 5 acceptor
1 6 acceptor
1 8 donor
3 10 14 15 hydrophobe
3 3 4 16 anion
4 7 9 12 13 rings
6 20 21 22 23 24 25 rings
7 1 7 9 10 11 12 13 rings

> <PUBCHEM_HEAVY_ATOM_COUNT>
25

> <PUBCHEM_ATOM_DEF_STEREO_COUNT>
0

> <PUBCHEM_ATOM_UDEF_STEREO_COUNT>
4

> <PUBCHEM_BOND_DEF_STEREO_COUNT>
0

> <PUBCHEM_BOND_UDEF_STEREO_COUNT>
0

> <PUBCHEM_ISOTOPIC_ATOM_COUNT>
0

> <PUBCHEM_COMPONENT_COUNT>
1

> <PUBCHEM_CACTVS_TAUTO_COUNT>
2

> <PUBCHEM_CONFORMER_ID>
0000129700000001

> <PUBCHEM_MMFF94_ENERGY>
73.6272

> <PUBCHEM_FEATURE_SELFOVERLAP>
59.623

> <PUBCHEM_SHAPE_FINGERPRINT>
10 15 17489585645699842380
10319926 262 16558752368488598626
10622 236 13037470568505909825
10670039 82 16443067213901701272
11089746 13 18409456903414101222
12633257 1 16272210756651115974
12788726 201 17241318221733599985
13103583 49 14620796015605861412
13402501 40 18412272726775754388
13675066 3 17560793377052286079
13914758 101 13686308976384976223
13955234 65 18268147737806399922
14178342 30 17560516210102210610
14341114 176 18202563999628377694
15163728 17 15359076369978773161
15183329 4 16370725916236775460
15188451 53 15554440761287304299
17780758 139 14836127645459809485
17857418 61 12031786959318016992
20554085 129 16629980914223074413
20645477 56 18131354128354274015
21033648 144 18409167718459339359
21033648 29 17846499279012185605
21859007 373 16484466132958390414
22122407 14 18192427700437214217
22393880 68 5328451571217002846
23198884 109 16877663461177376965
23559900 14 17702940482385675342
268830 7 18189049948891813283
2748736 6 18041851614822940064
2838139 119 18261118474027840668
2916195 48 18341898506192358845
351380 3 12103850051320311184
5104073 3 17631170964598800321
543368 44 17749111071553220881
559249 180 12967132709886092641
633830 44 17895466033286712438
6608658 132 16226317214016281033

> <PUBCHEM_SHAPE_MULTIPOLES>
479.03
16.52
2.53
1.64
13.67
0.36
-0.07
-10.35
-3.16
1.57
-0.47
-2.95
-0.34
1.26

> <PUBCHEM_SHAPE_SELFOVERLAP>
1000.199

> <PUBCHEM_SHAPE_VOLUME>
274.2

> <PUBCHEM_COORDINATE_TYPE>
2
5
10

$$$$

