5281245
  -OEChem-07051212552D

 97 96  0     0  0  0  0  0  0999 V2000
    2.5369   -0.2500    0.0000 O   0  0  0  0  0  0  0  0  0  0  0  0
    6.8671    0.2500    0.0000 C   0  0  0  0  0  0  0  0  0  0  0  0
    6.0010   -0.2500    0.0000 C   0  0  0  0  0  0  0  0  0  0  0  0
   26.7856   -0.2500    0.0000 C   0  0  0  0  0  0  0  0  0  0  0  0
   27.6517    0.2500    0.0000 C   0  0  0  0  0  0  0  0  0  0  0  0
    7.7331   -0.2500    0.0000 C   0  0  0  0  0  0  0  0  0  0  0  0
   25.9196    0.2500    0.0000 C   0  0  0  0  0  0  0  0  0  0  0  0
    5.1350    0.2500    0.0000 C   0  0  0  0  0  0  0  0  0  0  0  0
   28.5177   -0.2500    0.0000 C   0  0  0  0  0  0  0  0  0  0  0  0
    4.2690   -0.2500    0.0000 C   0  0  0  0  0  0  0  0  0  0  0  0
    7.7331   -1.2500    0.0000 C   0  0  0  0  0  0  0  0  0  0  0  0
   29.3837    0.2500    0.0000 C   0  0  0  0  0  0  0  0  0  0  0  0
    8.5991    0.2500    0.0000 C   0  0  0  0  0  0  0  0  0  0  0  0
   25.9196    1.2500    0.0000 C   0  0  0  0  0  0  0  0  0  0  0  0
   25.0536   -0.2500    0.0000 C   0  0  0  0  0  0  0  0  0  0  0  0
    3.4030    0.2500    0.0000 C   0  0  0  0  0  0  0  0  0  0  0  0
    4.2690   -1.2500    0.0000 C   0  0  0  0  0  0  0  0  0  0  0  0
   30.2497   -0.2500    0.0000 C   0  0  0  0  0  0  0  0  0  0  0  0
   29.3837    1.2500    0.0000 C   0  0  0  0  0  0  0  0  0  0  0  0
    9.4651   -0.2500    0.0000 C   0  0  0  0  0  0  0  0  0  0  0  0
   24.1876    0.2500    0.0000 C   0  0  0  0  0  0  0  0  0  0  0  0
   10.3312    0.2500    0.0000 C   0  0  0  0  0  0  0  0  0  0  0  0
   23.3215   -0.2500    0.0000 C   0  0  0  0  0  0  0  0  0  0  0  0
   11.1972   -0.2500    0.0000 C   0  0  0  0  0  0  0  0  0  0  0  0
   22.4555    0.2500    0.0000 C   0  0  0  0  0  0  0  0  0  0  0  0
   11.1972   -1.2500    0.0000 C   0  0  0  0  0  0  0  0  0  0  0  0
   12.0632    0.2500    0.0000 C   0  0  0  0  0  0  0  0  0  0  0  0
   22.4555    1.2500    0.0000 C   0  0  0  0  0  0  0  0  0  0  0  0
   21.5895   -0.2500    0.0000 C   0  0  0  0  0  0  0  0  0  0  0  0
   12.9292   -0.2500    0.0000 C   0  0  0  0  0  0  0  0  0  0  0  0
   20.7235    0.2500    0.0000 C   0  0  0  0  0  0  0  0  0  0  0  0
   13.7953    0.2500    0.0000 C   0  0  0  0  0  0  0  0  0  0  0  0
   19.8574   -0.2500    0.0000 C   0  0  0  0  0  0  0  0  0  0  0  0
   14.6613   -0.2500    0.0000 C   0  0  0  0  0  0  0  0  0  0  0  0
   18.9914    0.2500    0.0000 C   0  0  0  0  0  0  0  0  0  0  0  0
   15.5273    0.2500    0.0000 C   0  0  0  0  0  0  0  0  0  0  0  0
   18.1254   -0.2500    0.0000 C   0  0  0  0  0  0  0  0  0  0  0  0
   14.6613   -1.2500    0.0000 C   0  0  0  0  0  0  0  0  0  0  0  0
   18.9914    1.2500    0.0000 C   0  0  0  0  0  0  0  0  0  0  0  0
   16.3933   -0.2500    0.0000 C   0  0  0  0  0  0  0  0  0  0  0  0
   17.2594    0.2500    0.0000 C   0  0  0  0  0  0  0  0  0  0  0  0
    7.2656    0.7249    0.0000 H   0  0  0  0  0  0  0  0  0  0  0  0
    6.4685    0.7249    0.0000 H   0  0  0  0  0  0  0  0  0  0  0  0
    5.6025   -0.7249    0.0000 H   0  0  0  0  0  0  0  0  0  0  0  0
    6.3996   -0.7249    0.0000 H   0  0  0  0  0  0  0  0  0  0  0  0
   26.3871   -0.7249    0.0000 H   0  0  0  0  0  0  0  0  0  0  0  0
   27.1842   -0.7249    0.0000 H   0  0  0  0  0  0  0  0  0  0  0  0
   28.0502    0.7249    0.0000 H   0  0  0  0  0  0  0  0  0  0  0  0
   27.2531    0.7249    0.0000 H   0  0  0  0  0  0  0  0  0  0  0  0
    5.1350    0.8700    0.0000 H   0  0  0  0  0  0  0  0  0  0  0  0
   28.5177   -0.8700    0.0000 H   0  0  0  0  0  0  0  0  0  0  0  0
    7.1131   -1.2500    0.0000 H   0  0  0  0  0  0  0  0  0  0  0  0
    7.7331   -1.8700    0.0000 H   0  0  0  0  0  0  0  0  0  0  0  0
    8.3531   -1.2500    0.0000 H   0  0  0  0  0  0  0  0  0  0  0  0
    8.5991    0.8700    0.0000 H   0  0  0  0  0  0  0  0  0  0  0  0
   26.5396    1.2500    0.0000 H   0  0  0  0  0  0  0  0  0  0  0  0
   25.9196    1.8700    0.0000 H   0  0  0  0  0  0  0  0  0  0  0  0
   25.2996    1.2500    0.0000 H   0  0  0  0  0  0  0  0  0  0  0  0
   25.0536   -0.8700    0.0000 H   0  0  0  0  0  0  0  0  0  0  0  0
    3.8015    0.7249    0.0000 H   0  0  0  0  0  0  0  0  0  0  0  0
    3.0044    0.7249    0.0000 H   0  0  0  0  0  0  0  0  0  0  0  0
    3.6490   -1.2500    0.0000 H   0  0  0  0  0  0  0  0  0  0  0  0
    4.2690   -1.8700    0.0000 H   0  0  0  0  0  0  0  0  0  0  0  0
    4.8890   -1.2500    0.0000 H   0  0  0  0  0  0  0  0  0  0  0  0
   29.9397   -0.7869    0.0000 H   0  0  0  0  0  0  0  0  0  0  0  0
   30.7867   -0.5600    0.0000 H   0  0  0  0  0  0  0  0  0  0  0  0
   30.5597    0.2869    0.0000 H   0  0  0  0  0  0  0  0  0  0  0  0
   30.0037    1.2500    0.0000 H   0  0  0  0  0  0  0  0  0  0  0  0
   29.3837    1.8700    0.0000 H   0  0  0  0  0  0  0  0  0  0  0  0
   28.7637    1.2500    0.0000 H   0  0  0  0  0  0  0  0  0  0  0  0
    9.4651   -0.8700    0.0000 H   0  0  0  0  0  0  0  0  0  0  0  0
   24.1876    0.8700    0.0000 H   0  0  0  0  0  0  0  0  0  0  0  0
   10.3312    0.8700    0.0000 H   0  0  0  0  0  0  0  0  0  0  0  0
   23.3215   -0.8700    0.0000 H   0  0  0  0  0  0  0  0  0  0  0  0
    2.0000    0.0600    0.0000 H   0  0  0  0  0  0  0  0  0  0  0  0
   10.5772   -1.2500    0.0000 H   0  0  0  0  0  0  0  0  0  0  0  0
   11.1972   -1.8700    0.0000 H   0  0  0  0  0  0  0  0  0  0  0  0
   11.8172   -1.2500    0.0000 H   0  0  0  0  0  0  0  0  0  0  0  0
   12.0632    0.8700    0.0000 H   0  0  0  0  0  0  0  0  0  0  0  0
   23.0755    1.2500    0.0000 H   0  0  0  0  0  0  0  0  0  0  0  0
   22.4555    1.8700    0.0000 H   0  0  0  0  0  0  0  0  0  0  0  0
   21.8355    1.2500    0.0000 H   0  0  0  0  0  0  0  0  0  0  0  0
   21.5895   -0.8700    0.0000 H   0  0  0  0  0  0  0  0  0  0  0  0
   12.9292   -0.8700    0.0000 H   0  0  0  0  0  0  0  0  0  0  0  0
   20.7235    0.8700    0.0000 H   0  0  0  0  0  0  0  0  0  0  0  0
   13.7953    0.8700    0.0000 H   0  0  0  0  0  0  0  0  0  0  0  0
   19.8574   -0.8700    0.0000 H   0  0  0  0  0  0  0  0  0  0  0  0
   15.5273    0.8700    0.0000 H   0  0  0  0  0  0  0  0  0  0  0  0
   18.1254   -0.8700    0.0000 H   0  0  0  0  0  0  0  0  0  0  0  0
   14.0413   -1.2500    0.0000 H   0  0  0  0  0  0  0  0  0  0  0  0
   14.6613   -1.8700    0.0000 H   0  0  0  0  0  0  0  0  0  0  0  0
   15.2813   -1.2500    0.0000 H   0  0  0  0  0  0  0  0  0  0  0  0
   19.6114    1.2500    0.0000 H   0  0  0  0  0  0  0  0  0  0  0  0
   18.9914    1.8700    0.0000 H   0  0  0  0  0  0  0  0  0  0  0  0
   18.3714    1.2500    0.0000 H   0  0  0  0  0  0  0  0  0  0  0  0
   16.3933   -0.8700    0.0000 H   0  0  0  0  0  0  0  0  0  0  0  0
   17.2594    0.8700    0.0000 H   0  0  0  0  0  0  0  0  0  0  0  0
  1 16  1  0  0  0  0
  1 75  1  0  0  0  0
  2  3  1  0  0  0  0
  2  6  1  0  0  0  0
  2 42  1  0  0  0  0
  2 43  1  0  0  0  0
  3  8  1  0  0  0  0
  3 44  1  0  0  0  0
  3 45  1  0  0  0  0
  4  5  1  0  0  0  0
  4  7  1  0  0  0  0
  4 46  1  0  0  0  0
  4 47  1  0  0  0  0
  5  9  1  0  0  0  0
  5 48  1  0  0  0  0
  5 49  1  0  0  0  0
  6 11  1  0  0  0  0
  6 13  2  0  0  0  0
  7 14  1  0  0  0  0
  7 15  2  0  0  0  0
  8 10  2  0  0  0  0
  8 50  1  0  0  0  0
  9 12  2  0  0  0  0
  9 51  1  0  0  0  0
 10 16  1  0  0  0  0
 10 17  1  0  0  0  0
 11 52  1  0  0  0  0
 11 53  1  0  0  0  0
 11 54  1  0  0  0  0
 12 18  1  0  0  0  0
 12 19  1  0  0  0  0
 13 20  1  0  0  0  0
 13 55  1  0  0  0  0
 14 56  1  0  0  0  0
 14 57  1  0  0  0  0
 14 58  1  0  0  0  0
 15 21  1  0  0  0  0
 15 59  1  0  0  0  0
 16 60  1  0  0  0  0
 16 61  1  0  0  0  0
 17 62  1  0  0  0  0
 17 63  1  0  0  0  0
 17 64  1  0  0  0  0
 18 65  1  0  0  0  0
 18 66  1  0  0  0  0
 18 67  1  0  0  0  0
 19 68  1  0  0  0  0
 19 69  1  0  0  0  0
 19 70  1  0  0  0  0
 20 22  2  0  0  0  0
 20 71  1  0  0  0  0
 21 23  2  0  0  0  0
 21 72  1  0  0  0  0
 22 24  1  0  0  0  0
 22 73  1  0  0  0  0
 23 25  1  0  0  0  0
 23 74  1  0  0  0  0
 24 26  1  0  0  0  0
 24 27  2  0  0  0  0
 25 28  1  0  0  0  0
 25 29  2  0  0  0  0
 26 76  1  0  0  0  0
 26 77  1  0  0  0  0
 26 78  1  0  0  0  0
 27 30  1  0  0  0  0
 27 79  1  0  0  0  0
 28 80  1  0  0  0  0
 28 81  1  0  0  0  0
 28 82  1  0  0  0  0
 29 31  1  0  0  0  0
 29 83  1  0  0  0  0
 30 32  2  0  0  0  0
 30 84  1  0  0  0  0
 31 33  2  0  0  0  0
 31 85  1  0  0  0  0
 32 34  1  0  0  0  0
 32 86  1  0  0  0  0
 33 35  1  0  0  0  0
 33 87  1  0  0  0  0
 34 36  2  0  0  0  0
 34 38  1  0  0  0  0
 35 37  2  0  0  0  0
 35 39  1  0  0  0  0
 36 40  1  0  0  0  0
 36 88  1  0  0  0  0
 37 41  1  0  0  0  0
 37 89  1  0  0  0  0
 38 90  1  0  0  0  0
 38 91  1  0  0  0  0
 38 92  1  0  0  0  0
 39 93  1  0  0  0  0
 39 94  1  0  0  0  0
 39 95  1  0  0  0  0
 40 41  2  0  0  0  0
 40 96  1  0  0  0  0
 41 97  1  0  0  0  0
M  END
> <PUBCHEM_COMPOUND_CID>
5281245

> <PUBCHEM_COMPOUND_CANONICALIZED>
1

> <PUBCHEM_CACTVS_COMPLEXITY>
1170

> <PUBCHEM_CACTVS_HBOND_ACCEPTOR>
1

> <PUBCHEM_CACTVS_HBOND_DONOR>
1

> <PUBCHEM_CACTVS_ROTATABLE_BOND>
17

> <PUBCHEM_CACTVS_SUBSKEYS>
AAADcfB8IAAAAAAAAAAAAAAAAAAAAAAAAAAAAAAAAAAAAAAAAAAAGgAACAAADACggAICAAAAAgCAAiBCAAAAAAAgAAAICAAAAAgIFAIAAQAAUAAAgAAIkAIAAAAAAAAAAAAAAAAAAAAAAAAAAAAAAAAAAA==

> <PUBCHEM_IUPAC_OPENEYE_NAME>
(2E,6E,8E,10E,12E,14E,16E,18E,20E,22E,24E,26E)-2,6,10,14,19,23,27,31-octamethyldotriaconta-2,6,8,10,12,14,16,18,20,22,24,26,30-tridecaen-1-ol

> <PUBCHEM_IUPAC_CAS_NAME>
(2E,6E,8E,10E,12E,14E,16E,18E,20E,22E,24E,26E)-2,6,10,14,19,23,27,31-octamethyl-1-dotriaconta-2,6,8,10,12,14,16,18,20,22,24,26,30-tridecaenol

> <PUBCHEM_IUPAC_NAME>
(2E,6E,8E,10E,12E,14E,16E,18E,20E,22E,24E,26E)-2,6,10,14,19,23,27,31-octamethyldotriaconta-2,6,8,10,12,14,16,18,20,22,24,26,30-tridecaen-1-ol

> <PUBCHEM_IUPAC_SYSTEMATIC_NAME>
(2E,6E,8E,10E,12E,14E,16E,18E,20E,22E,24E,26E)-2,6,10,14,19,23,27,31-octamethyldotriaconta-2,6,8,10,12,14,16,18,20,22,24,26,30-tridecaen-1-ol

> <PUBCHEM_IUPAC_TRADITIONAL_NAME>
(2E,6E,8E,10E,12E,14E,16E,18E,20E,22E,24E,26E)-2,6,10,14,19,23,27,31-octamethyldotriaconta-2,6,8,10,12,14,16,18,20,22,24,26,30-tridecaen-1-ol

> <PUBCHEM_IUPAC_INCHI>
InChI=1S/C40H56O/c1-33(2)18-12-21-36(5)24-15-27-37(6)25-13-22-34(3)19-10-11-20-35(4)23-14-26-38(7)28-16-29-39(8)30-17-31-40(9)32-41/h10-11,13-16,18-20,22-29,31,41H,12,17,21,30,32H2,1-9H3/b11-10+,22-13+,23-14+,27-15+,28-16+,34-19+,35-20+,36-24+,37-25+,38-26+,39-29+,40-31+

> <PUBCHEM_IUPAC_INCHIKEY>
IFTRFNLCKUZSNG-SFEKFZNLSA-N

> <PUBCHEM_XLOGP3_AA>
14.3

> <PUBCHEM_EXACT_MASS>
552.433116

> <PUBCHEM_MOLECULAR_FORMULA>
C40H56O

> <PUBCHEM_MOLECULAR_WEIGHT>
552.87204

> <PUBCHEM_OPENEYE_CAN_SMILES>
CC(=CCCC(=CC=CC(=CC=CC(=CC=CC=C(C)C=CC=C(C)C=CC=C(C)CCC=C(C)CO)C)C)C)C

> <PUBCHEM_OPENEYE_ISO_SMILES>
CC(=CCC/C(=C/C=C/C(=C/C=C/C(=C/C=C/C=C(\C)/C=C/C=C(\C)/C=C/C=C(\C)/CC/C=C(\C)/CO)/C)/C)/C)C

> <PUBCHEM_CACTVS_TPSA>
20.2

> <PUBCHEM_MONOISOTOPIC_WEIGHT>
552.433116

> <PUBCHEM_TOTAL_CHARGE>
0

> <PUBCHEM_HEAVY_ATOM_COUNT>
41

> <PUBCHEM_ATOM_DEF_STEREO_COUNT>
0

> <PUBCHEM_ATOM_UDEF_STEREO_COUNT>
0

> <PUBCHEM_BOND_DEF_STEREO_COUNT>
12

> <PUBCHEM_BOND_UDEF_STEREO_COUNT>
0

> <PUBCHEM_ISOTOPIC_ATOM_COUNT>
0

> <PUBCHEM_COMPONENT_COUNT>
1

> <PUBCHEM_CACTVS_TAUTO_COUNT>
1

> <PUBCHEM_COORDINATE_TYPE>
1
5
255

$$$$

