65280
  -OEChem-07051213033D

 33 34  0     0  0  0  0  0  0999 V2000
    1.2544   -2.0960   -0.3708 S   0  0  0  0  0  0  0  0  0  0  0  0
    1.2211   -3.4701    0.1145 O   0  0  0  0  0  0  0  0  0  0  0  0
    1.6353   -1.8327   -1.7529 O   0  0  0  0  0  0  0  0  0  0  0  0
    3.5859    1.7119   -0.8513 O   0  0  0  0  0  0  0  0  0  0  0  0
   -4.2006    2.0455   -1.0456 O   0  0  0  0  0  0  0  0  0  0  0  0
    2.2357   -1.1615    0.6676 N   0  0  0  0  0  0  0  0  0  0  0  0
   -4.0762    0.3296    0.5663 N   0  0  0  0  0  0  0  0  0  0  0  0
    2.8091    0.5613   -0.9115 N   0  0  0  0  0  0  0  0  0  0  0  0
   -0.3147   -1.3821   -0.0947 C   0  0  0  0  0  0  0  0  0  0  0  0
   -0.7416   -0.3112   -0.8800 C   0  0  0  0  0  0  0  0  0  0  0  0
   -1.1415   -1.8825    0.9112 C   0  0  0  0  0  0  0  0  0  0  0  0
   -2.8220   -0.2411    0.3462 C   0  0  0  0  0  0  0  0  0  0  0  0
   -1.9952    0.2594   -0.6596 C   0  0  0  0  0  0  0  0  0  0  0  0
   -2.3952   -1.3119    1.1316 C   0  0  0  0  0  0  0  0  0  0  0  0
    2.8954    0.0375    0.3065 C   0  0  0  0  0  0  0  0  0  0  0  0
    3.6944    0.7872    1.1746 C   0  0  0  0  0  0  0  0  0  0  0  0
    4.1077    1.8356    0.3959 C   0  0  0  0  0  0  0  0  0  0  0  0
    4.9609    3.0055    0.6374 C   0  0  0  0  0  0  0  0  0  0  0  0
   -4.6710    1.4001   -0.1144 C   0  0  0  0  0  0  0  0  0  0  0  0
   -6.0420    1.7155    0.4290 C   0  0  0  0  0  0  0  0  0  0  0  0
    2.4398   -1.5353    1.6033 H   0  0  0  0  0  0  0  0  0  0  0  0
   -0.1136    0.0967   -1.6669 H   0  0  0  0  0  0  0  0  0  0  0  0
   -0.8267   -2.7111    1.5393 H   0  0  0  0  0  0  0  0  0  0  0  0
   -2.2555    1.0854   -1.3065 H   0  0  0  0  0  0  0  0  0  0  0  0
   -3.0287   -1.7109    1.9199 H   0  0  0  0  0  0  0  0  0  0  0  0
    3.9392    0.6031    2.2104 H   0  0  0  0  0  0  0  0  0  0  0  0
   -4.6188   -0.0913    1.3177 H   0  0  0  0  0  0  0  0  0  0  0  0
    5.8244    2.9974   -0.0349 H   0  0  0  0  0  0  0  0  0  0  0  0
    4.4018    3.9309    0.4684 H   0  0  0  0  0  0  0  0  0  0  0  0
    5.3329    3.0177    1.6666 H   0  0  0  0  0  0  0  0  0  0  0  0
   -6.6999    0.8522    0.2953 H   0  0  0  0  0  0  0  0  0  0  0  0
   -6.4647    2.5710   -0.1052 H   0  0  0  0  0  0  0  0  0  0  0  0
   -5.9724    1.9613    1.4924 H   0  0  0  0  0  0  0  0  0  0  0  0
  1  2  2  0  0  0  0
  1  3  2  0  0  0  0
  1  6  1  0  0  0  0
  1  9  1  0  0  0  0
  4  8  1  0  0  0  0
  4 17  1  0  0  0  0
  5 19  2  0  0  0  0
  6 15  1  0  0  0  0
  6 21  1  0  0  0  0
  7 12  1  0  0  0  0
  7 19  1  0  0  0  0
  7 27  1  0  0  0  0
  8 15  2  0  0  0  0
  9 10  2  0  0  0  0
  9 11  1  0  0  0  0
 10 13  1  0  0  0  0
 10 22  1  0  0  0  0
 11 14  2  0  0  0  0
 11 23  1  0  0  0  0
 12 13  2  0  0  0  0
 12 14  1  0  0  0  0
 13 24  1  0  0  0  0
 14 25  1  0  0  0  0
 15 16  1  0  0  0  0
 16 17  2  0  0  0  0
 16 26  1  0  0  0  0
 17 18  1  0  0  0  0
 18 28  1  0  0  0  0
 18 29  1  0  0  0  0
 18 30  1  0  0  0  0
 19 20  1  0  0  0  0
 20 31  1  0  0  0  0
 20 32  1  0  0  0  0
 20 33  1  0  0  0  0
M  END
> <PUBCHEM_COMPOUND_CID>
65280

> <PUBCHEM_CONFORMER_RMSD>
0.8

> <PUBCHEM_CONFORMER_DIVERSEORDER>
1
14
10
7
15
12
5
3
16
13
6
8
11
9
2
4

> <PUBCHEM_MMFF94_PARTIAL_CHARGES>
27
1 1.45
10 -0.15
11 -0.15
12 0.12
13 -0.15
14 -0.15
15 0.43
16 -0.15
17 -0.04
18 0.18
19 0.57
2 -0.65
20 0.06
21 0.42
22 0.15
23 0.15
24 0.15
25 0.15
26 0.15
27 0.37
3 -0.65
4 -0.02
5 -0.57
6 -0.7
7 -0.55
8 -0.41
9 -0.01

> <PUBCHEM_EFFECTIVE_ROTOR_COUNT>
5

> <PUBCHEM_PHARMACOPHORE_FEATURES>
8
1 2 acceptor
1 3 acceptor
1 5 acceptor
1 6 donor
1 7 donor
1 8 acceptor
5 4 8 15 16 17 rings
6 9 10 11 12 13 14 rings

> <PUBCHEM_HEAVY_ATOM_COUNT>
20

> <PUBCHEM_ATOM_DEF_STEREO_COUNT>
0

> <PUBCHEM_ATOM_UDEF_STEREO_COUNT>
0

> <PUBCHEM_BOND_DEF_STEREO_COUNT>
0

> <PUBCHEM_BOND_UDEF_STEREO_COUNT>
0

> <PUBCHEM_ISOTOPIC_ATOM_COUNT>
0

> <PUBCHEM_COMPONENT_COUNT>
1

> <PUBCHEM_CACTVS_TAUTO_COUNT>
4

> <PUBCHEM_CONFORMER_ID>
0000FF0000000001

> <PUBCHEM_MMFF94_ENERGY>
29.2848

> <PUBCHEM_FEATURE_SELFOVERLAP>
40.616

> <PUBCHEM_SHAPE_FINGERPRINT>
10498660 4 17895192160512573560
10968037 57 9727362350359023937
122479 349 18341614789111084690
12363563 72 9655308054876818592
12403259 118 18129382588178665560
12403259 415 18336532837972689618
12633257 1 16415203308779164984
12769317 202 18260555527757535176
13955234 65 18268143352433501963
13965767 371 18131081415558980180
14123255 52 18336548218392916992
14178342 30 17774993549543917107
14251731 5 9223238450713925720
14251764 38 18120657091766556201
14251764 75 18337383834039975632
14341114 328 16916505835743583864
14774955 27 18408610266375377341
14848178 96 18335418001928170489
15342168 16 18409168809586624165
17834072 32 18337674105399325856
1798214 55 18410010996923359728
18186145 218 18193828465471262255
193927 3 10375874116530948601
20157964 124 18338239379473171981
20281475 54 9151176488504567939
20403669 9 9295290551647379537
20775438 99 8933556650495118733
21033648 29 18190469268522944456
21401589 2 18342461400575242089
21452121 103 18270405026133816099
21618674 25 18412262843949952347
21756936 100 18194125114799512372
23403322 49 9078574606436120936
23559900 14 18265331896653200915
270888 7 18335704892948643384
27216 239 18125443012272713050
2838139 119 18335993012007346852
34797466 226 18040712619765981349
43658 37 18335702758322951599
465052 167 10375862005082000273
474 4 18408887364606041299
495365 180 18335983176643093223
5104073 3 18202284692908733811
633830 44 18334017185480608510
7062679 13 9079127647721077464
7064713 232 18200876150068687332
76465 3 9439409029403985257
77188 2 17689153835134639502
7808743 9 18123189005215472816
7970288 3 10015597107198725016
90316 7 16702310031096517927
960060 61 6771855299266132049
9981440 41 18341614763420649699

> <PUBCHEM_SHAPE_MULTIPOLES>
377.02
10.99
3.21
1.16
5.88
0.54
-0.14
-12.84
1.64
-1.97
0.06
-0.21
0.16
1.07

> <PUBCHEM_SHAPE_SELFOVERLAP>
782.751

> <PUBCHEM_SHAPE_VOLUME>
215.4

> <PUBCHEM_COORDINATE_TYPE>
2
5
10

$$$$

