51090963
  -OEChem-06241223013D

 41 43  0     1  0  0  0  0  0999 V2000
   -2.8545    1.1021   -1.3211 S   0  0  0  0  0  0  0  0  0  0  0  0
    5.1070    1.0631    0.9123 O   0  0  0  0  0  0  0  0  0  0  0  0
    1.8602   -1.3566   -1.3716 O   0  0  0  0  0  0  0  0  0  0  0  0
    2.5517   -0.6643    0.7311 N   0  0  0  0  0  0  0  0  0  0  0  0
   -3.0184   -1.0624    0.0719 N   0  0  0  0  0  0  0  0  0  0  0  0
    4.7054    0.1538   -0.1265 C   0  0  1  0  0  0  0  0  0  0  0  0
    5.9794   -0.2594   -0.8430 C   0  0  0  0  0  0  0  0  0  0  0  0
    6.8017    1.0009   -0.7447 C   0  0  0  0  0  0  0  0  0  0  0  0
    3.9442   -1.0115    0.4752 C   0  0  0  0  0  0  0  0  0  0  0  0
    6.4477    1.4982    0.6410 C   0  0  0  0  0  0  0  0  0  0  0  0
    1.5933   -0.8808   -0.2649 C   0  0  0  0  0  0  0  0  0  0  0  0
    0.1622   -0.4930    0.0841 C   0  0  0  0  0  0  0  0  0  0  0  0
    2.2844   -0.1046    2.0541 C   0  0  0  0  0  0  0  0  0  0  0  0
   -0.8155   -0.7640   -1.0618 C   0  0  0  0  0  0  0  0  0  0  0  0
   -2.2222   -0.3612   -0.7009 C   0  0  0  0  0  0  0  0  0  0  0  0
   -4.3375    0.7997   -0.4951 C   0  0  0  0  0  0  0  0  0  0  0  0
   -4.2357   -0.4093    0.1996 C   0  0  0  0  0  0  0  0  0  0  0  0
   -5.5069    1.5765   -0.4642 C   0  0  0  0  0  0  0  0  0  0  0  0
   -5.3448   -0.8544    0.9511 C   0  0  0  0  0  0  0  0  0  0  0  0
   -6.5898    1.1133    0.2872 C   0  0  0  0  0  0  0  0  0  0  0  0
   -6.5120   -0.0861    0.9864 C   0  0  0  0  0  0  0  0  0  0  0  0
    4.0698    0.7212   -0.8187 H   0  0  0  0  0  0  0  0  0  0  0  0
    6.4852   -1.0715   -0.3064 H   0  0  0  0  0  0  0  0  0  0  0  0
    5.8031   -0.5847   -1.8720 H   0  0  0  0  0  0  0  0  0  0  0  0
    6.4666    1.7232   -1.4985 H   0  0  0  0  0  0  0  0  0  0  0  0
    7.8743    0.8389   -0.8790 H   0  0  0  0  0  0  0  0  0  0  0  0
    3.9574   -1.8555   -0.2244 H   0  0  0  0  0  0  0  0  0  0  0  0
    4.4021   -1.3532    1.4108 H   0  0  0  0  0  0  0  0  0  0  0  0
    7.1009    1.0545    1.3998 H   0  0  0  0  0  0  0  0  0  0  0  0
    6.5058    2.5871    0.7238 H   0  0  0  0  0  0  0  0  0  0  0  0
    0.1434    0.5745    0.3342 H   0  0  0  0  0  0  0  0  0  0  0  0
   -0.1491   -1.0651    0.9661 H   0  0  0  0  0  0  0  0  0  0  0  0
    2.6310   -0.8128    2.8129 H   0  0  0  0  0  0  0  0  0  0  0  0
    1.2272    0.0920    2.2301 H   0  0  0  0  0  0  0  0  0  0  0  0
    2.8285    0.8374    2.1591 H   0  0  0  0  0  0  0  0  0  0  0  0
   -0.8150   -1.8352   -1.3013 H   0  0  0  0  0  0  0  0  0  0  0  0
   -0.4837   -0.2482   -1.9716 H   0  0  0  0  0  0  0  0  0  0  0  0
   -5.5748    2.5139   -1.0076 H   0  0  0  0  0  0  0  0  0  0  0  0
   -5.2950   -1.7899    1.5011 H   0  0  0  0  0  0  0  0  0  0  0  0
   -7.5044    1.6994    0.3245 H   0  0  0  0  0  0  0  0  0  0  0  0
   -7.3645   -0.4305    1.5654 H   0  0  0  0  0  0  0  0  0  0  0  0
  1 15  1  0  0  0  0
  1 16  1  0  0  0  0
  2  6  1  0  0  0  0
  2 10  1  0  0  0  0
  3 11  2  0  0  0  0
  4  9  1  0  0  0  0
  4 11  1  0  0  0  0
  4 13  1  0  0  0  0
  5 15  2  0  0  0  0
  5 17  1  0  0  0  0
  6  7  1  0  0  0  0
  6  9  1  0  0  0  0
  6 22  1  0  0  0  0
  7  8  1  0  0  0  0
  7 23  1  0  0  0  0
  7 24  1  0  0  0  0
  8 10  1  0  0  0  0
  8 25  1  0  0  0  0
  8 26  1  0  0  0  0
  9 27  1  0  0  0  0
  9 28  1  0  0  0  0
 10 29  1  0  0  0  0
 10 30  1  0  0  0  0
 11 12  1  0  0  0  0
 12 14  1  0  0  0  0
 12 31  1  0  0  0  0
 12 32  1  0  0  0  0
 13 33  1  0  0  0  0
 13 34  1  0  0  0  0
 13 35  1  0  0  0  0
 14 15  1  0  0  0  0
 14 36  1  0  0  0  0
 14 37  1  0  0  0  0
 16 17  1  0  0  0  0
 16 18  2  0  0  0  0
 17 19  2  0  0  0  0
 18 20  1  0  0  0  0
 18 38  1  0  0  0  0
 19 21  1  0  0  0  0
 19 39  1  0  0  0  0
 20 21  2  0  0  0  0
 20 40  1  0  0  0  0
 21 41  1  0  0  0  0
M  END
> <PUBCHEM_COMPOUND_CID>
51090963

> <PUBCHEM_CONFORMER_RMSD>
1.2

> <PUBCHEM_CONFORMER_DIVERSEORDER>
1
89
43
26
10
19
18
27
36
88
4
33
44
49
48
28
14
55
63
3
9
67
7
79
53
15
34
45
51
25
66
6
32
37
2
12
65
84
75
23
39
58
8
46
74
70
16
78
22
50
47
81
62
17
76
5
13
87
11
72
64
40
24
90
54
57
38
56
35
60
80
61
29
83
68
91
30
20
69
31
85
52
41
82
86
77
59
71
42
73
21

> <PUBCHEM_MMFF94_PARTIAL_CHARGES>
23
1 -0.08
10 0.28
11 0.57
12 0.06
13 0.3
14 0.18
15 0.2
16 0.04
17 0.23
18 -0.15
19 -0.15
2 -0.56
20 -0.15
21 -0.15
3 -0.57
38 0.15
39 0.15
4 -0.66
40 0.15
41 0.15
5 -0.57
6 0.28
9 0.3

> <PUBCHEM_EFFECTIVE_ROTOR_COUNT>
7

> <PUBCHEM_PHARMACOPHORE_FEATURES>
6
1 2 acceptor
1 3 acceptor
1 5 acceptor
5 1 5 15 16 17 rings
5 2 6 7 8 10 rings
6 16 17 18 19 20 21 rings

> <PUBCHEM_HEAVY_ATOM_COUNT>
21

> <PUBCHEM_ATOM_DEF_STEREO_COUNT>
0

> <PUBCHEM_ATOM_UDEF_STEREO_COUNT>
1

> <PUBCHEM_BOND_DEF_STEREO_COUNT>
0

> <PUBCHEM_BOND_UDEF_STEREO_COUNT>
0

> <PUBCHEM_ISOTOPIC_ATOM_COUNT>
0

> <PUBCHEM_COMPONENT_COUNT>
1

> <PUBCHEM_CACTVS_TAUTO_COUNT>
2

> <PUBCHEM_CONFORMER_ID>
030B961300000001

> <PUBCHEM_MMFF94_ENERGY>
39.7315

> <PUBCHEM_FEATURE_SELFOVERLAP>
30.517

> <PUBCHEM_SHAPE_FINGERPRINT>
10 15 18273496766757540497
10066227 112 17749392533697881336
10354089 29 18131070429138041068
10613725 11 14634867548269976124
106641 1 18130500865114273635
10670039 82 14201389521847771795
11315181 36 17560797720102427167
11719270 70 11240003351863825016
11724838 91 15913324659718744086
11796584 16 7420942080466432468
11858739 19 8358259254807869756
12236239 1 16917348173372136595
12516196 113 16702300161309124589
12596602 18 17703792556615196513
12670543 26 14562527384070325662
12730499 353 18412260653991787738
13177829 20 17346595253254702889
13403585 85 18131632305508134421
13533116 47 17845658170034663994
13668630 136 9367349240717163000
13685833 64 11455888065903747468
13862211 1 12895355494933020706
13955234 65 18200041767263028930
14251732 16 17917709089218100995
14251751 18 10303799995627709673
14251752 14 6483355508542883589
14251764 18 15626501675524810526
14341114 176 18272932751821054350
14848160 23 10447930572634235862
14849402 71 16916208971920379172
14933364 13 18412542119913801004
15048467 5 18334576837020237940
15183329 4 14056715751356901500
15188451 53 9871476405027412836
15419008 91 8718264551525444170
15461852 350 18187089447583814541
15716309 27 14979959168225697993
17834072 8 14345794942000777694
17857418 61 14477239362415373291
190975 80 14692562196049685921
19377110 9 16343707646507743392
19489759 90 8214147356656058495
20281389 69 18410294722410101496
20735858 18 15267346210790951264
21033648 29 18188783738777239144
21150785 3 16732707142944126781
21315763 178 16343707647051004227
21315764 119 6050450305613160725
21641784 216 17676753354044310888
22061861 79 9151170956586417979
22079108 93 17346882230664742482
221357 26 16225766333110839032
2215653 11 14634867540033372132
22224240 67 17346599655691361115
23198884 109 14056722344553609497
23402539 116 6555408708998228971
23559900 14 8213844973694460551
29717793 49 6338954473287501930
300161 21 17274829081860034551
3004659 81 6122500198916976422
3014965 18 17168419471800180078
34797466 226 18343291562219469526
3663271 9 17489591185880671833
4325135 7 17489867133213126260
4340502 62 16917071062287986026
465052 167 12247683777636498682
5104073 3 15912502340236438576
542803 24 18259990387512977015
559249 180 6483353318167825533
5718773 13 10735578190829180793
5758199 1 16988839467482210368
9689198 14 18410005516824697524
9971528 1 14418144997890283530

> <PUBCHEM_SHAPE_MULTIPOLES>
414.32
20.4
1.43
1.31
6.41
0.3
0.1
6.12
5.58
-0.65
0.11
1.01
-0.11
0.42

> <PUBCHEM_SHAPE_SELFOVERLAP>
859.547

> <PUBCHEM_SHAPE_VOLUME>
238.5

> <PUBCHEM_COORDINATE_TYPE>
2
5
10

$$$$

