442398
  -OEChem-07051212583D

 35 37  0     1  0  0  0  0  0999 V2000
    0.6994   -0.0535    1.4634 O   0  0  0  0  0  0  0  0  0  0  0  0
    1.0036    2.8506    0.9814 O   0  0  0  0  0  0  0  0  0  0  0  0
    1.5598    2.5721   -1.7012 O   0  0  0  0  0  0  0  0  0  0  0  0
    4.7235   -2.3982    0.6619 O   0  0  0  0  0  0  0  0  0  0  0  0
   -5.1940    0.4711    0.5250 O   0  0  0  0  0  0  0  0  0  0  0  0
   -4.8720   -1.7886   -1.0605 O   0  0  0  0  0  0  0  0  0  0  0  0
    0.1627    2.0116    0.1800 C   0  0  2  0  0  0  0  0  0  0  0  0
   -0.3362    0.8641    1.0675 C   0  0  1  0  0  0  0  0  0  0  0  0
    0.9446    1.4834   -1.0200 C   0  0  2  0  0  0  0  0  0  0  0  0
    1.9593    0.4683   -0.5711 C   0  0  0  0  0  0  0  0  0  0  0  0
    1.7711   -0.2293    0.6286 C   0  0  0  0  0  0  0  0  0  0  0  0
   -1.5548    0.1549    0.4979 C   0  0  0  0  0  0  0  0  0  0  0  0
    3.0752    0.1614   -1.3645 C   0  0  0  0  0  0  0  0  0  0  0  0
    2.7043   -1.1854    1.0428 C   0  0  0  0  0  0  0  0  0  0  0  0
   -2.8315    0.6405    0.7721 C   0  0  0  0  0  0  0  0  0  0  0  0
   -1.3907   -0.9783   -0.2960 C   0  0  0  0  0  0  0  0  0  0  0  0
    4.0025   -0.7956   -0.9502 C   0  0  0  0  0  0  0  0  0  0  0  0
    3.8195   -1.4657    0.2558 C   0  0  0  0  0  0  0  0  0  0  0  0
   -3.9495   -0.0100    0.2500 C   0  0  0  0  0  0  0  0  0  0  0  0
   -2.5088   -1.6288   -0.8180 C   0  0  0  0  0  0  0  0  0  0  0  0
   -3.7881   -1.1447   -0.5449 C   0  0  0  0  0  0  0  0  0  0  0  0
   -0.6665    2.6452   -0.1570 H   0  0  0  0  0  0  0  0  0  0  0  0
   -0.6517    1.3062    2.0229 H   0  0  0  0  0  0  0  0  0  0  0  0
    0.2686    0.9928   -1.7300 H   0  0  0  0  0  0  0  0  0  0  0  0
    3.2327    0.6657   -2.3147 H   0  0  0  0  0  0  0  0  0  0  0  0
    2.5571   -1.7192    1.9790 H   0  0  0  0  0  0  0  0  0  0  0  0
    1.3446    3.5545    0.4037 H   0  0  0  0  0  0  0  0  0  0  0  0
   -2.9557    1.5263    1.3902 H   0  0  0  0  0  0  0  0  0  0  0  0
   -0.4127   -1.3828   -0.5309 H   0  0  0  0  0  0  0  0  0  0  0  0
    0.8536    3.1803   -1.9787 H   0  0  0  0  0  0  0  0  0  0  0  0
    4.8618   -1.0097   -1.5801 H   0  0  0  0  0  0  0  0  0  0  0  0
   -2.3690   -2.5115   -1.4363 H   0  0  0  0  0  0  0  0  0  0  0  0
    5.4290   -2.4642   -0.0043 H   0  0  0  0  0  0  0  0  0  0  0  0
   -5.1118    1.2598    1.0884 H   0  0  0  0  0  0  0  0  0  0  0  0
   -4.5686   -2.5504   -1.5837 H   0  0  0  0  0  0  0  0  0  0  0  0
  1  8  1  0  0  0  0
  1 11  1  0  0  0  0
  2  7  1  0  0  0  0
  2 27  1  0  0  0  0
  3  9  1  0  0  0  0
  3 30  1  0  0  0  0
  4 18  1  0  0  0  0
  4 33  1  0  0  0  0
  5 19  1  0  0  0  0
  5 34  1  0  0  0  0
  6 21  1  0  0  0  0
  6 35  1  0  0  0  0
  7  8  1  0  0  0  0
  7  9  1  0  0  0  0
  7 22  1  0  0  0  0
  8 12  1  0  0  0  0
  8 23  1  0  0  0  0
  9 10  1  0  0  0  0
  9 24  1  0  0  0  0
 10 11  2  0  0  0  0
 10 13  1  0  0  0  0
 11 14  1  0  0  0  0
 12 15  2  0  0  0  0
 12 16  1  0  0  0  0
 13 17  2  0  0  0  0
 13 25  1  0  0  0  0
 14 18  2  0  0  0  0
 14 26  1  0  0  0  0
 15 19  1  0  0  0  0
 15 28  1  0  0  0  0
 16 20  2  0  0  0  0
 16 29  1  0  0  0  0
 17 18  1  0  0  0  0
 17 31  1  0  0  0  0
 19 21  2  0  0  0  0
 20 21  1  0  0  0  0
 20 32  1  0  0  0  0
M  END
> <PUBCHEM_COMPOUND_CID>
442398

> <PUBCHEM_CONFORMER_RMSD>
0.6

> <PUBCHEM_CONFORMER_DIVERSEORDER>
6
2
3
7
9
8
4
1
10
5

> <PUBCHEM_MMFF94_PARTIAL_CHARGES>
32
1 -0.36
10 -0.14
11 0.08
12 -0.14
13 -0.15
14 -0.15
15 -0.15
16 -0.15
17 -0.15
18 0.08
19 0.08
2 -0.68
20 -0.15
21 0.08
25 0.15
26 0.15
27 0.4
28 0.15
29 0.15
3 -0.68
30 0.4
31 0.15
32 0.15
33 0.45
34 0.45
35 0.45
4 -0.53
5 -0.53
6 -0.53
7 0.28
8 0.42
9 0.42

> <PUBCHEM_EFFECTIVE_ROTOR_COUNT>
1.8

> <PUBCHEM_PHARMACOPHORE_FEATURES>
11
1 1 acceptor
1 2 acceptor
1 2 donor
1 3 acceptor
1 3 donor
1 4 donor
1 5 donor
1 6 donor
6 1 7 8 9 10 11 rings
6 10 11 13 14 17 18 rings
6 12 15 16 19 20 21 rings

> <PUBCHEM_HEAVY_ATOM_COUNT>
21

> <PUBCHEM_ATOM_DEF_STEREO_COUNT>
3

> <PUBCHEM_ATOM_UDEF_STEREO_COUNT>
0

> <PUBCHEM_BOND_DEF_STEREO_COUNT>
0

> <PUBCHEM_BOND_UDEF_STEREO_COUNT>
0

> <PUBCHEM_ISOTOPIC_ATOM_COUNT>
0

> <PUBCHEM_COMPONENT_COUNT>
1

> <PUBCHEM_CACTVS_TAUTO_COUNT>
23

> <PUBCHEM_CONFORMER_ID>
0006C01E00000006

> <PUBCHEM_MMFF94_ENERGY>
64.4645

> <PUBCHEM_FEATURE_SELFOVERLAP>
55.862

> <PUBCHEM_SHAPE_FINGERPRINT>
10062212 137 18260265240177826455
11578080 2 18268730422881370900
12236239 1 18341044202705655234
12553582 1 18410012160485015595
12633257 1 15719688592729715014
12788726 201 18264470957678940728
12892183 10 15068620521662065066
13004483 165 18339931531804343392
13134695 92 18411418388718101236
14115302 16 18187076248310575691
14178342 30 17096067191439615363
15210252 30 14908190762757245935
15342816 4 18334853931273050022
16752209 62 18265057001850730729
16945 1 18043244850320304272
17349148 13 17676205754403562735
17804303 29 17894352176852847691
1798214 20 18413670218675444950
1813 80 18270391810624980526
18186145 218 16773796978678705403
200 152 17988639757237293386
20291156 8 18411701019161969858
20600515 1 17458337597810262089
20626108 58 18114468868225417679
21250096 35 18408323302156038818
22112679 90 18190153828470031688
221357 26 17489591181923152261
2255824 54 18199746951447242876
232386 152 17894348852263102935
23402539 116 18200876304882519786
23419403 2 18193025727436053276
23557571 272 17023730359702342688
23559900 14 17313374626419052628
23598291 2 18411129217397087213
2838139 119 13828983705312836342
312423 11 18264200319363380747
3323516 105 17060046017581225193
463206 1 18412266163670451050
465052 167 18340754976099264235
5104073 3 17967811596982746043
633830 44 17561084666588209861
6438754 60 17059506277874093738
7364860 26 17970350312821517680
7471813 234 18272087232080671308
74978 22 18262799545554346099
7808743 9 10663803183737017262
9981440 41 17473832723186127593

> <PUBCHEM_SHAPE_MULTIPOLES>
396.95
8.83
2.35
1.34
4.89
0.9
0.15
-5.78
0.84
-1.11
0.21
-0.57
0.24
-1.54

> <PUBCHEM_SHAPE_SELFOVERLAP>
875.231

> <PUBCHEM_SHAPE_VOLUME>
211.5

> <PUBCHEM_COORDINATE_TYPE>
2
5
10

$$$$

