156509
  -OEChem-07051213092D

 25 26  0     0  0  0  0  0  0999 V2000
    2.0000   -1.7730    0.0000 Br  0  0  0  0  0  0  0  0  0  0  0  0
    7.1279   -0.7730    0.0000 S   0  0  0  0  0  0  0  0  0  0  0  0
    6.8335    1.1885    0.0000 S   0  0  0  0  0  0  0  0  0  0  0  0
    5.8550    0.9823    0.0000 O   0  0  0  0  0  0  0  0  0  0  0  0
    7.8120    1.3947    0.0000 O   0  0  0  0  0  0  0  0  0  0  0  0
    6.6272    2.1670    0.0000 O   0  0  0  0  0  0  0  0  0  0  0  0
    7.0397    0.2100    0.0000 O   0  0  0  0  0  0  0  0  0  0  0  0
    5.5443   -1.5777    0.0000 N   0  0  0  0  0  0  0  0  0  0  0  0
    4.5981   -0.2730    0.0000 C   0  0  0  0  0  0  0  0  0  0  0  0
    4.5981   -1.2730    0.0000 C   0  0  0  0  0  0  0  0  0  0  0  0
    5.5443    0.0318    0.0000 C   0  0  0  0  0  0  0  0  0  0  0  0
    6.1279   -0.7730    0.0000 C   0  0  0  0  0  0  0  0  0  0  0  0
    3.7320    0.2270    0.0000 C   0  0  0  0  0  0  0  0  0  0  0  0
    3.7320   -1.7730    0.0000 C   0  0  0  0  0  0  0  0  0  0  0  0
    2.8660   -0.2730    0.0000 C   0  0  0  0  0  0  0  0  0  0  0  0
    2.8660   -1.2730    0.0000 C   0  0  0  0  0  0  0  0  0  0  0  0
    7.6279   -1.6390    0.0000 C   0  0  0  0  0  0  0  0  0  0  0  0
    5.7369   -2.1670    0.0000 H   0  0  0  0  0  0  0  0  0  0  0  0
    3.7320    0.8470    0.0000 H   0  0  0  0  0  0  0  0  0  0  0  0
    3.7320   -2.3930    0.0000 H   0  0  0  0  0  0  0  0  0  0  0  0
    2.3291    0.0370    0.0000 H   0  0  0  0  0  0  0  0  0  0  0  0
    7.0910   -1.9490    0.0000 H   0  0  0  0  0  0  0  0  0  0  0  0
    7.9379   -2.1759    0.0000 H   0  0  0  0  0  0  0  0  0  0  0  0
    8.1648   -1.3290    0.0000 H   0  0  0  0  0  0  0  0  0  0  0  0
    8.0046    1.9840    0.0000 H   0  0  0  0  0  0  0  0  0  0  0  0
  1 16  1  0  0  0  0
  2 12  1  0  0  0  0
  2 17  1  0  0  0  0
  3  4  1  0  0  0  0
  3  5  1  0  0  0  0
  3  6  2  0  0  0  0
  3  7  2  0  0  0  0
  4 11  1  0  0  0  0
  5 25  1  0  0  0  0
  8 10  1  0  0  0  0
  8 12  1  0  0  0  0
  8 18  1  0  0  0  0
  9 10  2  0  0  0  0
  9 11  1  0  0  0  0
  9 13  1  0  0  0  0
 10 14  1  0  0  0  0
 11 12  2  0  0  0  0
 13 15  2  0  0  0  0
 13 19  1  0  0  0  0
 14 16  2  0  0  0  0
 14 20  1  0  0  0  0
 15 16  1  0  0  0  0
 15 21  1  0  0  0  0
 17 22  1  0  0  0  0
 17 23  1  0  0  0  0
 17 24  1  0  0  0  0
M  END
> <PUBCHEM_COMPOUND_CID>
156509

> <PUBCHEM_COMPOUND_CANONICALIZED>
1

> <PUBCHEM_CACTVS_COMPLEXITY>
372

> <PUBCHEM_CACTVS_HBOND_ACCEPTOR>
5

> <PUBCHEM_CACTVS_HBOND_DONOR>
2

> <PUBCHEM_CACTVS_ROTATABLE_BOND>
3

> <PUBCHEM_CACTVS_SUBSKEYS>
AAADccByOABgEAAAAAAAAAAAAAAAAWAAAAAwAAAAAAAAAFgB8AAAHgRQCAABrAyB3gCyx/LJkIigAyRiRDSC0iBhajQImTI1bLgKJuLgkZOEMAhm0BnYyheQwKAOAgAAAAECAAAEAAAAAgQAAAAAAAAAAA==

> <PUBCHEM_IUPAC_OPENEYE_NAME>
(6-bromo-2-methylsulfanyl-1H-indol-3-yl) hydrogen sulfate

> <PUBCHEM_IUPAC_CAS_NAME>
sulfuric acid [6-bromo-2-(methylthio)-1H-indol-3-yl] ester

> <PUBCHEM_IUPAC_NAME>
(6-bromo-2-methylsulfanyl-1H-indol-3-yl) hydrogen sulfate

> <PUBCHEM_IUPAC_SYSTEMATIC_NAME>
(6-bromanyl-2-methylsulfanyl-1H-indol-3-yl) hydrogen sulfate

> <PUBCHEM_IUPAC_TRADITIONAL_NAME>
sulfuric acid [6-bromo-2-(methylthio)-1H-indol-3-yl] ester

> <PUBCHEM_IUPAC_INCHI>
InChI=1S/C9H8BrNO4S2/c1-16-9-8(15-17(12,13)14)6-3-2-5(10)4-7(6)11-9/h2-4,11H,1H3,(H,12,13,14)

> <PUBCHEM_IUPAC_INCHIKEY>
SATFYAMEGITBTG-UHFFFAOYSA-N

> <PUBCHEM_XLOGP3_AA>
2.6

> <PUBCHEM_EXACT_MASS>
336.907812

> <PUBCHEM_MOLECULAR_FORMULA>
C9H8BrNO4S2

> <PUBCHEM_MOLECULAR_WEIGHT>
338.19812

> <PUBCHEM_OPENEYE_CAN_SMILES>
CSC1=C(C2=C(N1)C=C(C=C2)Br)OS(=O)(=O)O

> <PUBCHEM_OPENEYE_ISO_SMILES>
CSC1=C(C2=C(N1)C=C(C=C2)Br)OS(=O)(=O)O

> <PUBCHEM_CACTVS_TPSA>
113

> <PUBCHEM_MONOISOTOPIC_WEIGHT>
336.907812

> <PUBCHEM_TOTAL_CHARGE>
0

> <PUBCHEM_HEAVY_ATOM_COUNT>
17

> <PUBCHEM_ATOM_DEF_STEREO_COUNT>
0

> <PUBCHEM_ATOM_UDEF_STEREO_COUNT>
0

> <PUBCHEM_BOND_DEF_STEREO_COUNT>
0

> <PUBCHEM_BOND_UDEF_STEREO_COUNT>
0

> <PUBCHEM_ISOTOPIC_ATOM_COUNT>
0

> <PUBCHEM_COMPONENT_COUNT>
1

> <PUBCHEM_CACTVS_TAUTO_COUNT>
1

> <PUBCHEM_COORDINATE_TYPE>
1
5
255

> <PUBCHEM_BONDANNOTATIONS>
10  14  8
11  12  8
13  15  8
14  16  8
15  16  8
8  10  8
8  12  8
9  10  8
9  11  8
9  13  8

$$$$

