86353
  -OEChem-07051213122D

 45 47  0     0  0  0  0  0  0999 V2000
    8.0622   -3.8815    0.0000 Cl  0  0  0  0  0  0  0  0  0  0  0  0
    3.2320   -3.2475    0.0000 F   0  0  0  0  0  0  0  0  0  0  0  0
    4.2320   -1.5155    0.0000 F   0  0  0  0  0  0  0  0  0  0  0  0
    2.0000   -1.3815    0.0000 F   0  0  0  0  0  0  0  0  0  0  0  0
    2.3660   -2.7475    0.0000 F   0  0  0  0  0  0  0  0  0  0  0  0
    3.3660   -1.0155    0.0000 F   0  0  0  0  0  0  0  0  0  0  0  0
    5.4641   -2.3815    0.0000 O   0  0  0  0  0  0  0  0  0  0  0  0
    5.9799    2.3618    0.0000 O   0  0  0  0  0  0  0  0  0  0  0  0
    8.0622    0.1185    0.0000 N   0  0  0  0  0  0  0  0  0  0  0  0
    7.2532    0.7063    0.0000 N   0  0  0  0  0  0  0  0  0  0  0  0
    8.5622    1.6573    0.0000 N   0  0  0  0  0  0  0  0  0  0  0  0
    7.3811    3.3799    0.0000 N   0  0  0  0  0  0  0  0  0  0  0  0
    8.0622   -0.8815    0.0000 C   0  0  0  0  0  0  0  0  0  0  0  0
    7.1962   -2.3815    0.0000 C   0  0  0  0  0  0  0  0  0  0  0  0
    7.1962   -1.3815    0.0000 C   0  0  0  0  0  0  0  0  0  0  0  0
    6.3301   -2.8815    0.0000 C   0  0  0  0  0  0  0  0  0  0  0  0
    8.8712    0.7063    0.0000 C   0  0  0  0  0  0  0  0  0  0  0  0
    8.9282   -1.3815    0.0000 C   0  0  0  0  0  0  0  0  0  0  0  0
    8.0622   -2.8815    0.0000 C   0  0  0  0  0  0  0  0  0  0  0  0
    4.5981   -2.8815    0.0000 C   0  0  0  0  0  0  0  0  0  0  0  0
    9.8222    0.3973    0.0000 C   0  0  0  0  0  0  0  0  0  0  0  0
    8.9282   -2.3815    0.0000 C   0  0  0  0  0  0  0  0  0  0  0  0
    3.7320   -2.3815    0.0000 C   0  0  0  0  0  0  0  0  0  0  0  0
    7.5622    1.6573    0.0000 C   0  0  0  0  0  0  0  0  0  0  0  0
   10.0302   -0.5809    0.0000 C   0  0  0  0  0  0  0  0  0  0  0  0
   10.5654    1.0664    0.0000 C   0  0  0  0  0  0  0  0  0  0  0  0
    2.8660   -1.8815    0.0000 C   0  0  0  0  0  0  0  0  0  0  0  0
   10.9812   -0.8899    0.0000 C   0  0  0  0  0  0  0  0  0  0  0  0
   11.5165    0.7574    0.0000 C   0  0  0  0  0  0  0  0  0  0  0  0
   11.7244   -0.2208    0.0000 C   0  0  0  0  0  0  0  0  0  0  0  0
    6.9744    2.4664    0.0000 C   0  0  0  0  0  0  0  0  0  0  0  0
    6.6592   -1.0715    0.0000 H   0  0  0  0  0  0  0  0  0  0  0  0
    5.9316   -3.3564    0.0000 H   0  0  0  0  0  0  0  0  0  0  0  0
    6.7287   -3.3564    0.0000 H   0  0  0  0  0  0  0  0  0  0  0  0
    9.4651   -1.0715    0.0000 H   0  0  0  0  0  0  0  0  0  0  0  0
    4.1996   -3.3564    0.0000 H   0  0  0  0  0  0  0  0  0  0  0  0
    4.9966   -3.3564    0.0000 H   0  0  0  0  0  0  0  0  0  0  0  0
    9.4651   -2.6915    0.0000 H   0  0  0  0  0  0  0  0  0  0  0  0
    9.5694   -0.9957    0.0000 H   0  0  0  0  0  0  0  0  0  0  0  0
   10.4365    1.6728    0.0000 H   0  0  0  0  0  0  0  0  0  0  0  0
   11.1101   -1.4964    0.0000 H   0  0  0  0  0  0  0  0  0  0  0  0
   11.9772    1.1722    0.0000 H   0  0  0  0  0  0  0  0  0  0  0  0
   12.3140   -0.4124    0.0000 H   0  0  0  0  0  0  0  0  0  0  0  0
    7.0167    3.8815    0.0000 H   0  0  0  0  0  0  0  0  0  0  0  0
    7.9977    3.4447    0.0000 H   0  0  0  0  0  0  0  0  0  0  0  0
  1 19  1  0  0  0  0
  2 23  1  0  0  0  0
  3 23  1  0  0  0  0
  4 27  1  0  0  0  0
  5 27  1  0  0  0  0
  6 27  1  0  0  0  0
  7 16  1  0  0  0  0
  7 20  1  0  0  0  0
  8 31  2  0  0  0  0
  9 10  1  0  0  0  0
  9 13  1  0  0  0  0
  9 17  1  0  0  0  0
 10 24  2  0  0  0  0
 11 17  2  0  0  0  0
 11 24  1  0  0  0  0
 12 31  1  0  0  0  0
 12 44  1  0  0  0  0
 12 45  1  0  0  0  0
 13 15  2  0  0  0  0
 13 18  1  0  0  0  0
 14 15  1  0  0  0  0
 14 16  1  0  0  0  0
 14 19  2  0  0  0  0
 15 32  1  0  0  0  0
 16 33  1  0  0  0  0
 16 34  1  0  0  0  0
 17 21  1  0  0  0  0
 18 22  2  0  0  0  0
 18 35  1  0  0  0  0
 19 22  1  0  0  0  0
 20 23  1  0  0  0  0
 20 36  1  0  0  0  0
 20 37  1  0  0  0  0
 21 25  2  0  0  0  0
 21 26  1  0  0  0  0
 22 38  1  0  0  0  0
 23 27  1  0  0  0  0
 24 31  1  0  0  0  0
 25 28  1  0  0  0  0
 25 39  1  0  0  0  0
 26 29  2  0  0  0  0
 26 40  1  0  0  0  0
 28 30  2  0  0  0  0
 28 41  1  0  0  0  0
 29 30  1  0  0  0  0
 29 42  1  0  0  0  0
 30 43  1  0  0  0  0
M  END
> <PUBCHEM_COMPOUND_CID>
86353

> <PUBCHEM_COMPOUND_CANONICALIZED>
1

> <PUBCHEM_CACTVS_COMPLEXITY>
621

> <PUBCHEM_CACTVS_HBOND_ACCEPTOR>
9

> <PUBCHEM_CACTVS_HBOND_DONOR>
1

> <PUBCHEM_CACTVS_ROTATABLE_BOND>
7

> <PUBCHEM_CACTVS_SUBSKEYS>
AAADccB7scAEAAAAAAAAAAAAAAAAAWAAAAAwYAAAAAAAAAAB0AAAHwIYAAAADAqhmzIx0IZIFACqAidydACShCsjB6AdiCCgbpiIbqLBu7mWMAhsyAPI6CewwCAOAABAQAABAAAAAICAAAIAAAAAAAAAAA==

> <PUBCHEM_IUPAC_OPENEYE_NAME>
1-[4-chloro-3-(2,2,3,3,3-pentafluoropropoxymethyl)phenyl]-5-phenyl-1,2,4-triazole-3-carboxamide

> <PUBCHEM_IUPAC_CAS_NAME>
1-[4-chloro-3-(2,2,3,3,3-pentafluoropropoxymethyl)phenyl]-5-phenyl-1,2,4-triazole-3-carboxamide

> <PUBCHEM_IUPAC_NAME>
1-[4-chloro-3-(2,2,3,3,3-pentafluoropropoxymethyl)phenyl]-5-phenyl-1,2,4-triazole-3-carboxamide

> <PUBCHEM_IUPAC_SYSTEMATIC_NAME>
1-[4-chloranyl-3-[2,2,3,3,3-pentakis(fluoranyl)propoxymethyl]phenyl]-5-phenyl-1,2,4-triazole-3-carboxamide

> <PUBCHEM_IUPAC_TRADITIONAL_NAME>
1-[4-chloro-3-(2,2,3,3,3-pentafluoropropoxymethyl)phenyl]-5-phenyl-1,2,4-triazole-3-carboxamide

> <PUBCHEM_IUPAC_INCHI>
InChI=1S/C19H14ClF5N4O2/c20-14-7-6-13(8-12(14)9-31-10-18(21,22)19(23,24)25)29-17(11-4-2-1-3-5-11)27-16(28-29)15(26)30/h1-8H,9-10H2,(H2,26,30)

> <PUBCHEM_IUPAC_INCHIKEY>
AOQMRUTZEYVDIL-UHFFFAOYSA-N

> <PUBCHEM_XLOGP3_AA>
4.6

> <PUBCHEM_EXACT_MASS>
460.072544

> <PUBCHEM_MOLECULAR_FORMULA>
C19H14ClF5N4O2

> <PUBCHEM_MOLECULAR_WEIGHT>
460.785076

> <PUBCHEM_OPENEYE_CAN_SMILES>
C1=CC=C(C=C1)C2=NC(=NN2C3=CC(=C(C=C3)Cl)COCC(C(F)(F)F)(F)F)C(=O)N

> <PUBCHEM_OPENEYE_ISO_SMILES>
C1=CC=C(C=C1)C2=NC(=NN2C3=CC(=C(C=C3)Cl)COCC(C(F)(F)F)(F)F)C(=O)N

> <PUBCHEM_CACTVS_TPSA>
83

> <PUBCHEM_MONOISOTOPIC_WEIGHT>
460.072544

> <PUBCHEM_TOTAL_CHARGE>
0

> <PUBCHEM_HEAVY_ATOM_COUNT>
31

> <PUBCHEM_ATOM_DEF_STEREO_COUNT>
0

> <PUBCHEM_ATOM_UDEF_STEREO_COUNT>
0

> <PUBCHEM_BOND_DEF_STEREO_COUNT>
0

> <PUBCHEM_BOND_UDEF_STEREO_COUNT>
0

> <PUBCHEM_ISOTOPIC_ATOM_COUNT>
0

> <PUBCHEM_COMPONENT_COUNT>
1

> <PUBCHEM_CACTVS_TAUTO_COUNT>
2

> <PUBCHEM_COORDINATE_TYPE>
1
5
255

> <PUBCHEM_BONDANNOTATIONS>
10  24  8
11  17  8
11  24  8
13  15  8
13  18  8
14  15  8
14  19  8
18  22  8
19  22  8
21  25  8
21  26  8
25  28  8
26  29  8
28  30  8
29  30  8
9  10  8
9  17  8

$$$$

