15385254
  -OEChem-07051213102D

 40 41  0     1  0  0  0  0  0999 V2000
    5.7949    1.5670    0.0000 Br  0  0  0  0  0  0  0  0  0  0  0  0
    3.5628    2.4330    0.0000 Cl  0  0  0  0  0  0  0  0  0  0  0  0
    2.2120    0.2407    0.0000 O   0  0  0  0  0  0  0  0  0  0  0  0
    4.0628   -0.4330    0.0000 C   0  0  2  0  0  0  0  0  0  0  0  0
    4.9289   -0.9330    0.0000 C   0  0  0  0  0  0  0  0  0  0  0  0
    3.1968    0.0670    0.0000 C   0  0  2  0  0  0  0  0  0  0  0  0
    4.9289    0.0670    0.0000 C   0  0  0  0  0  0  0  0  0  0  0  0
    3.1968    1.0670    0.0000 C   0  0  0  0  0  0  0  0  0  0  0  0
    4.0628    1.5670    0.0000 C   0  0  1  0  0  0  0  0  0  0  0  0
    4.9289    1.0670    0.0000 C   0  0  1  0  0  0  0  0  0  0  0  0
    3.1968   -0.9330    0.0000 C   0  0  0  0  0  0  0  0  0  0  0  0
    4.9289   -1.9330    0.0000 C   0  0  0  0  0  0  0  0  0  0  0  0
    5.9289   -0.9330    0.0000 C   0  0  0  0  0  0  0  0  0  0  0  0
    5.6949   -0.2902    0.0000 C   0  0  0  0  0  0  0  0  0  0  0  0
    3.1968   -1.9330    0.0000 C   0  0  0  0  0  0  0  0  0  0  0  0
    4.0628   -2.4330    0.0000 C   0  0  0  0  0  0  0  0  0  0  0  0
    4.5628    2.4330    0.0000 C   0  0  0  0  0  0  0  0  0  0  0  0
    2.2120   -1.1067    0.0000 C   0  0  0  0  0  0  0  0  0  0  0  0
    2.9848   -0.5156    0.0000 H   0  0  0  0  0  0  0  0  0  0  0  0
    5.1409   -0.5156    0.0000 H   0  0  0  0  0  0  0  0  0  0  0  0
    5.5395    0.1746    0.0000 H   0  0  0  0  0  0  0  0  0  0  0  0
    2.9848    1.6496    0.0000 H   0  0  0  0  0  0  0  0  0  0  0  0
    2.5862    0.9593    0.0000 H   0  0  0  0  0  0  0  0  0  0  0  0
    4.9289    1.6870    0.0000 H   0  0  0  0  0  0  0  0  0  0  0  0
    5.4658   -2.2430    0.0000 H   0  0  0  0  0  0  0  0  0  0  0  0
    6.0934   -0.7652    0.0000 H   0  0  0  0  0  0  0  0  0  0  0  0
    6.1699    0.1083    0.0000 H   0  0  0  0  0  0  0  0  0  0  0  0
    5.2964    0.1847    0.0000 H   0  0  0  0  0  0  0  0  0  0  0  0
    5.9289   -1.5530    0.0000 H   0  0  0  0  0  0  0  0  0  0  0  0
    6.5489   -0.9330    0.0000 H   0  0  0  0  0  0  0  0  0  0  0  0
    5.9289   -0.3130    0.0000 H   0  0  0  0  0  0  0  0  0  0  0  0
    2.5862   -1.8254    0.0000 H   0  0  0  0  0  0  0  0  0  0  0  0
    2.9848   -2.5156    0.0000 H   0  0  0  0  0  0  0  0  0  0  0  0
    4.0628   -3.0530    0.0000 H   0  0  0  0  0  0  0  0  0  0  0  0
    5.0998    2.1230    0.0000 H   0  0  0  0  0  0  0  0  0  0  0  0
    4.8728    2.9700    0.0000 H   0  0  0  0  0  0  0  0  0  0  0  0
    4.0259    2.7430    0.0000 H   0  0  0  0  0  0  0  0  0  0  0  0
    2.0000    0.8233    0.0000 H   0  0  0  0  0  0  0  0  0  0  0  0
    1.8135   -0.6317    0.0000 H   0  0  0  0  0  0  0  0  0  0  0  0
    2.0000   -1.6893    0.0000 H   0  0  0  0  0  0  0  0  0  0  0  0
 10  1  1  1  0  0  0
  9  2  1  6  0  0  0
  6  3  1  1  0  0  0
  3 38  1  0  0  0  0
  4  5  1  0  0  0  0
  4  6  1  0  0  0  0
  4  7  1  1  0  0  0
  4 11  1  0  0  0  0
  5 12  1  0  0  0  0
  5 13  1  0  0  0  0
  5 14  1  0  0  0  0
  6  8  1  0  0  0  0
  6 19  1  0  0  0  0
  7 10  1  0  0  0  0
  7 20  1  0  0  0  0
  7 21  1  0  0  0  0
  8  9  1  0  0  0  0
  8 22  1  0  0  0  0
  8 23  1  0  0  0  0
  9 10  1  0  0  0  0
  9 17  1  0  0  0  0
 10 24  1  0  0  0  0
 11 15  1  0  0  0  0
 11 18  2  0  0  0  0
 12 16  2  0  0  0  0
 12 25  1  0  0  0  0
 13 29  1  0  0  0  0
 13 30  1  0  0  0  0
 13 31  1  0  0  0  0
 14 26  1  0  0  0  0
 14 27  1  0  0  0  0
 14 28  1  0  0  0  0
 15 16  1  0  0  0  0
 15 32  1  0  0  0  0
 15 33  1  0  0  0  0
 16 34  1  0  0  0  0
 17 35  1  0  0  0  0
 17 36  1  0  0  0  0
 17 37  1  0  0  0  0
 18 39  1  0  0  0  0
 18 40  1  0  0  0  0
M  END
> <PUBCHEM_COMPOUND_CID>
15385254

> <PUBCHEM_COMPOUND_CANONICALIZED>
1

> <PUBCHEM_CACTVS_COMPLEXITY>
403

> <PUBCHEM_CACTVS_HBOND_ACCEPTOR>
1

> <PUBCHEM_CACTVS_HBOND_DONOR>
1

> <PUBCHEM_CACTVS_ROTATABLE_BOND>
0

> <PUBCHEM_CACTVS_SUBSKEYS>
AAADceBwIAAEEAAAAAAAAAAAAAAAAAAAAAAwQAAAAAAAAAAAAAAAGgJACAABzhaggAICAAAAAgCAAiBCAAAAAAAgAAAICAAAAigAEAIBAQAAQAAEwAAIAAOAwPAPgAAAAAAAAACIIAIiABEABAAAAAAAAA==

> <PUBCHEM_IUPAC_OPENEYE_NAME>
(6S,8S,9S,11S)-8-bromo-9-chloro-5,5,9-trimethyl-1-methylene-spiro[5.5]undec-3-en-11-ol

> <PUBCHEM_IUPAC_CAS_NAME>
(6S,8S,9S,11S)-8-bromo-9-chloro-5,5,9-trimethyl-1-methylene-11-spiro[5.5]undec-3-enol

> <PUBCHEM_IUPAC_NAME>
(6S,8S,9S,11S)-8-bromo-9-chloro-5,5,9-trimethyl-1-methylidenespiro[5.5]undec-3-en-11-ol

> <PUBCHEM_IUPAC_SYSTEMATIC_NAME>
(6S,8S,9S,11S)-8-bromanyl-9-chloranyl-5,5,9-trimethyl-1-methylidene-spiro[5.5]undec-3-en-11-ol

> <PUBCHEM_IUPAC_TRADITIONAL_NAME>
(6S,8S,9S,11S)-8-bromo-9-chloro-5,5,9-trimethyl-1-methylene-spiro[5.5]undec-3-en-11-ol

> <PUBCHEM_IUPAC_INCHI>
InChI=1S/C15H22BrClO/c1-10-6-5-7-13(2,3)15(10)8-11(16)14(4,17)9-12(15)18/h5,7,11-12,18H,1,6,8-9H2,2-4H3/t11-,12-,14-,15+/m0/s1

> <PUBCHEM_IUPAC_INCHIKEY>
QSMNBYDYMWRZTN-NZBPQXDJSA-N

> <PUBCHEM_XLOGP3_AA>
4.3

> <PUBCHEM_EXACT_MASS>
332.054255

> <PUBCHEM_MOLECULAR_FORMULA>
C15H22BrClO

> <PUBCHEM_MOLECULAR_WEIGHT>
333.69158

> <PUBCHEM_OPENEYE_CAN_SMILES>
CC1(C=CCC(=C)C12CC(C(CC2O)(C)Cl)Br)C

> <PUBCHEM_OPENEYE_ISO_SMILES>
C[C@@]1(C[C@@H]([C@@]2(C[C@@H]1Br)C(=C)CC=CC2(C)C)O)Cl

> <PUBCHEM_CACTVS_TPSA>
20.2

> <PUBCHEM_MONOISOTOPIC_WEIGHT>
332.054255

> <PUBCHEM_TOTAL_CHARGE>
0

> <PUBCHEM_HEAVY_ATOM_COUNT>
18

> <PUBCHEM_ATOM_DEF_STEREO_COUNT>
4

> <PUBCHEM_ATOM_UDEF_STEREO_COUNT>
0

> <PUBCHEM_BOND_DEF_STEREO_COUNT>
0

> <PUBCHEM_BOND_UDEF_STEREO_COUNT>
0

> <PUBCHEM_ISOTOPIC_ATOM_COUNT>
0

> <PUBCHEM_COMPONENT_COUNT>
1

> <PUBCHEM_CACTVS_TAUTO_COUNT>
1

> <PUBCHEM_COORDINATE_TYPE>
1
5
255

> <PUBCHEM_BONDANNOTATIONS>
10  1  5
9  2  6
6  3  5
4  7  5

$$$$

