440999
  -OEChem-07051212512D

 13 12  0     0  0  0  0  0  0999 V2000
    3.4030   -1.0600    0.0000 O   0  0  0  0  0  0  0  0  0  0  0  0
    4.2690    0.4400    0.0000 N   0  0  0  0  0  0  0  0  0  0  0  0
    6.0010    0.4400    0.0000 N   0  0  0  0  0  0  0  0  0  0  0  0
    2.5369    0.4400    0.0000 N   0  0  0  0  0  0  0  0  0  0  0  0
    5.1350   -0.0600    0.0000 C   0  0  0  0  0  0  0  0  0  0  0  0
    3.4030   -0.0600    0.0000 C   0  0  0  0  0  0  0  0  0  0  0  0
    4.7365   -0.5349    0.0000 H   0  0  0  0  0  0  0  0  0  0  0  0
    5.5335   -0.5349    0.0000 H   0  0  0  0  0  0  0  0  0  0  0  0
    4.2690    1.0600    0.0000 H   0  0  0  0  0  0  0  0  0  0  0  0
    6.5380    0.1300    0.0000 H   0  0  0  0  0  0  0  0  0  0  0  0
    6.0010    1.0600    0.0000 H   0  0  0  0  0  0  0  0  0  0  0  0
    2.0000    0.1300    0.0000 H   0  0  0  0  0  0  0  0  0  0  0  0
    2.5369    1.0600    0.0000 H   0  0  0  0  0  0  0  0  0  0  0  0
  1  6  2  0  0  0  0
  2  5  1  0  0  0  0
  2  6  1  0  0  0  0
  2  9  1  0  0  0  0
  3  5  1  0  0  0  0
  3 10  1  0  0  0  0
  3 11  1  0  0  0  0
  4  6  1  0  0  0  0
  4 12  1  0  0  0  0
  4 13  1  0  0  0  0
  5  7  1  0  0  0  0
  5  8  1  0  0  0  0
M  END
> <PUBCHEM_COMPOUND_CID>
440999

> <PUBCHEM_COMPOUND_CANONICALIZED>
1

> <PUBCHEM_CACTVS_COMPLEXITY>
52.8

> <PUBCHEM_CACTVS_HBOND_ACCEPTOR>
2

> <PUBCHEM_CACTVS_HBOND_DONOR>
3

> <PUBCHEM_CACTVS_ROTATABLE_BOND>
1

> <PUBCHEM_CACTVS_SUBSKEYS>
AAADcYBDIAAAAAAAAAAAAAAAAAAAAAAAAAAAAAAAAAAAAAAAAAAAFgAQAAAAAAAAAAQBAALAAAAIAAAAEAAAAAAAAAAAAIAIAACAAAAAAAAAAAAAAwAAAAAAAAAAAAAAAAAAAAAAAAAAAAAAAAAAAAAAAA==

> <PUBCHEM_IUPAC_OPENEYE_NAME>
aminomethylurea

> <PUBCHEM_IUPAC_CAS_NAME>
aminomethylurea

> <PUBCHEM_IUPAC_NAME>
aminomethylurea

> <PUBCHEM_IUPAC_SYSTEMATIC_NAME>
1-(aminomethyl)urea

> <PUBCHEM_IUPAC_TRADITIONAL_NAME>
aminomethylurea

> <PUBCHEM_IUPAC_INCHI>
InChI=1S/C2H7N3O/c3-1-5-2(4)6/h1,3H2,(H3,4,5,6)

> <PUBCHEM_IUPAC_INCHIKEY>
CKLDBLDTILPFHV-UHFFFAOYSA-N

> <PUBCHEM_XLOGP3>
-2

> <PUBCHEM_EXACT_MASS>
89.058912

> <PUBCHEM_MOLECULAR_FORMULA>
C2H7N3O

> <PUBCHEM_MOLECULAR_WEIGHT>
89.09648

> <PUBCHEM_OPENEYE_CAN_SMILES>
C(N)NC(=O)N

> <PUBCHEM_OPENEYE_ISO_SMILES>
C(N)NC(=O)N

> <PUBCHEM_CACTVS_TPSA>
81.1

> <PUBCHEM_MONOISOTOPIC_WEIGHT>
89.058912

> <PUBCHEM_TOTAL_CHARGE>
0

> <PUBCHEM_HEAVY_ATOM_COUNT>
6

> <PUBCHEM_ATOM_DEF_STEREO_COUNT>
0

> <PUBCHEM_ATOM_UDEF_STEREO_COUNT>
0

> <PUBCHEM_BOND_DEF_STEREO_COUNT>
0

> <PUBCHEM_BOND_UDEF_STEREO_COUNT>
0

> <PUBCHEM_ISOTOPIC_ATOM_COUNT>
0

> <PUBCHEM_COMPONENT_COUNT>
1

> <PUBCHEM_CACTVS_TAUTO_COUNT>
3

> <PUBCHEM_COORDINATE_TYPE>
1
5
255

$$$$

