442986
  -OEChem-07051213003D

 79 85  0     1  0  0  0  0  0999 V2000
    3.3222   -0.4001    0.7824 O   0  0  0  0  0  0  0  0  0  0  0  0
    1.7805   -2.6094    1.0246 O   0  0  0  0  0  0  0  0  0  0  0  0
   -0.1045   -1.4382    2.4892 O   0  0  0  0  0  0  0  0  0  0  0  0
    5.4536   -0.8892   -0.1648 O   0  0  0  0  0  0  0  0  0  0  0  0
   -2.5683   -2.3663    1.2769 O   0  0  0  0  0  0  0  0  0  0  0  0
   -1.2001   -1.7695   -2.0932 O   0  0  0  0  0  0  0  0  0  0  0  0
    6.1091    1.8665    0.1409 O   0  0  0  0  0  0  0  0  0  0  0  0
   -3.3142   -0.2275   -1.6103 O   0  0  0  0  0  0  0  0  0  0  0  0
   -3.3356    1.0417    1.1824 N   0  0  2  0  0  0  0  0  0  0  0  0
    2.1077    0.1527    0.1821 C   0  0  2  0  0  0  0  0  0  0  0  0
    1.4915   -0.9435   -0.7237 C   0  0  2  0  0  0  0  0  0  0  0  0
    2.6067    1.3672   -0.6360 C   0  0  2  0  0  0  0  0  0  0  0  0
    0.7919   -1.8746    0.2852 C   0  0  2  0  0  0  0  0  0  0  0  0
    0.0751   -0.8472    1.2035 C   0  0  2  0  0  0  0  0  0  0  0  0
    3.8352    0.6673   -1.2628 C   0  0  1  0  0  0  0  0  0  0  0  0
    1.0680    0.3599    1.2926 C   0  0  0  0  0  0  0  0  0  0  0  0
   -1.3104   -0.3713    0.6383 C   0  0  1  0  0  0  0  0  0  0  0  0
    4.4559    0.1019    0.0338 C   0  0  1  0  0  0  0  0  0  0  0  0
    2.5464   -1.5527   -1.6457 C   0  0  0  0  0  0  0  0  0  0  0  0
    3.4280   -0.4516   -2.2646 C   0  0  0  0  0  0  0  0  0  0  0  0
   -2.2239   -1.5373    0.1522 C   0  0  1  0  0  0  0  0  0  0  0  0
   -0.1278   -2.9423   -0.3103 C   0  0  0  0  0  0  0  0  0  0  0  0
    3.0726    2.5652    0.2485 C   0  0  0  0  0  0  0  0  0  0  0  0
   -1.4589   -2.4314   -0.8615 C   0  0  2  0  0  0  0  0  0  0  0  0
    5.0956    1.2046    0.8955 C   0  0  2  0  0  0  0  0  0  0  0  0
    1.6090    1.9461   -1.6517 C   0  0  0  0  0  0  0  0  0  0  0  0
    4.0552    2.2151    1.3639 C   0  0  0  0  0  0  0  0  0  0  0  0
   -3.5815   -0.9516   -0.4084 C   0  0  1  0  0  0  0  0  0  0  0  0
   -2.0801    0.4786    1.6802 C   0  0  0  0  0  0  0  0  0  0  0  0
   -4.2426    0.0065    0.6499 C   0  0  2  0  0  0  0  0  0  0  0  0
   -5.5800    0.6688    0.2434 C   0  0  0  0  0  0  0  0  0  0  0  0
   -4.5559   -2.0944   -0.7738 C   0  0  0  0  0  0  0  0  0  0  0  0
   -3.1220    2.1934    0.3012 C   0  0  0  0  0  0  0  0  0  0  0  0
   -4.4460    2.8910   -0.0366 C   0  0  2  0  0  0  0  0  0  0  0  0
   -5.4385    1.9006   -0.6449 C   0  0  0  0  0  0  0  0  0  0  0  0
   -4.2136    4.0713   -0.9785 C   0  0  0  0  0  0  0  0  0  0  0  0
    0.7230   -0.4924   -1.3561 H   0  0  0  0  0  0  0  0  0  0  0  0
    4.5034    1.3635   -1.7812 H   0  0  0  0  0  0  0  0  0  0  0  0
    1.5383    0.4022    2.2812 H   0  0  0  0  0  0  0  0  0  0  0  0
    0.5431    1.3069    1.1380 H   0  0  0  0  0  0  0  0  0  0  0  0
   -1.1000    0.2637   -0.2322 H   0  0  0  0  0  0  0  0  0  0  0  0
    2.0686   -2.1355   -2.4415 H   0  0  0  0  0  0  0  0  0  0  0  0
    3.1845   -2.2550   -1.0970 H   0  0  0  0  0  0  0  0  0  0  0  0
    4.3336   -0.9190   -2.6707 H   0  0  0  0  0  0  0  0  0  0  0  0
    2.9121   -0.0088   -3.1236 H   0  0  0  0  0  0  0  0  0  0  0  0
   -0.3373   -3.6954    0.4620 H   0  0  0  0  0  0  0  0  0  0  0  0
    0.4177   -3.4870   -1.0920 H   0  0  0  0  0  0  0  0  0  0  0  0
    2.2046    3.0654    0.6961 H   0  0  0  0  0  0  0  0  0  0  0  0
    3.5514    3.3114   -0.4007 H   0  0  0  0  0  0  0  0  0  0  0  0
   -2.0603   -3.3177   -1.0925 H   0  0  0  0  0  0  0  0  0  0  0  0
    5.5827    0.7812    1.7823 H   0  0  0  0  0  0  0  0  0  0  0  0
    2.0621    2.7768   -2.2053 H   0  0  0  0  0  0  0  0  0  0  0  0
    1.2667    1.2306   -2.4016 H   0  0  0  0  0  0  0  0  0  0  0  0
    0.7182    2.3321   -1.1436 H   0  0  0  0  0  0  0  0  0  0  0  0
    4.5393    3.1325    1.7191 H   0  0  0  0  0  0  0  0  0  0  0  0
    3.5005    1.8016    2.2139 H   0  0  0  0  0  0  0  0  0  0  0  0
   -2.3124   -0.1311    2.5629 H   0  0  0  0  0  0  0  0  0  0  0  0
   -1.4500    1.2883    2.0654 H   0  0  0  0  0  0  0  0  0  0  0  0
   -4.5044   -0.6317    1.5070 H   0  0  0  0  0  0  0  0  0  0  0  0
    2.3690   -1.9845    1.4784 H   0  0  0  0  0  0  0  0  0  0  0  0
    0.7671   -1.7058    2.8256 H   0  0  0  0  0  0  0  0  0  0  0  0
    5.9720   -0.9840    0.6513 H   0  0  0  0  0  0  0  0  0  0  0  0
   -1.7556   -2.6017    1.7531 H   0  0  0  0  0  0  0  0  0  0  0  0
   -6.0909    0.9841    1.1648 H   0  0  0  0  0  0  0  0  0  0  0  0
   -6.2579   -0.0477   -0.2285 H   0  0  0  0  0  0  0  0  0  0  0  0
   -5.4434   -1.7092   -1.2858 H   0  0  0  0  0  0  0  0  0  0  0  0
   -4.1115   -2.7932   -1.4889 H   0  0  0  0  0  0  0  0  0  0  0  0
   -4.8793   -2.6570    0.1072 H   0  0  0  0  0  0  0  0  0  0  0  0
   -2.5969    1.9160   -0.6190 H   0  0  0  0  0  0  0  0  0  0  0  0
   -2.4815    2.9239    0.8127 H   0  0  0  0  0  0  0  0  0  0  0  0
   -0.7754   -2.4073   -2.6917 H   0  0  0  0  0  0  0  0  0  0  0  0
    6.7444    1.1897   -0.1491 H   0  0  0  0  0  0  0  0  0  0  0  0
   -3.0156   -0.8566   -2.2880 H   0  0  0  0  0  0  0  0  0  0  0  0
   -4.8776    3.2854    0.8938 H   0  0  0  0  0  0  0  0  0  0  0  0
   -5.1136    1.6002   -1.6475 H   0  0  0  0  0  0  0  0  0  0  0  0
   -6.4186    2.3777   -0.7652 H   0  0  0  0  0  0  0  0  0  0  0  0
   -3.7798    3.7432   -1.9292 H   0  0  0  0  0  0  0  0  0  0  0  0
   -5.1556    4.5857   -1.1956 H   0  0  0  0  0  0  0  0  0  0  0  0
   -3.5304    4.7988   -0.5279 H   0  0  0  0  0  0  0  0  0  0  0  0
  1 10  1  0  0  0  0
  1 18  1  0  0  0  0
  2 13  1  0  0  0  0
  2 60  1  0  0  0  0
  3 14  1  0  0  0  0
  3 61  1  0  0  0  0
  4 18  1  0  0  0  0
  4 62  1  0  0  0  0
  5 21  1  0  0  0  0
  5 63  1  0  0  0  0
  6 24  1  0  0  0  0
  6 71  1  0  0  0  0
  7 25  1  0  0  0  0
  7 72  1  0  0  0  0
  8 28  1  0  0  0  0
  8 73  1  0  0  0  0
  9 29  1  0  0  0  0
  9 30  1  0  0  0  0
  9 33  1  0  0  0  0
 10 11  1  0  0  0  0
 10 12  1  0  0  0  0
 10 16  1  0  0  0  0
 11 13  1  0  0  0  0
 11 19  1  0  0  0  0
 11 37  1  0  0  0  0
 12 15  1  0  0  0  0
 12 23  1  0  0  0  0
 12 26  1  0  0  0  0
 13 14  1  0  0  0  0
 13 22  1  0  0  0  0
 14 16  1  0  0  0  0
 14 17  1  0  0  0  0
 15 18  1  0  0  0  0
 15 20  1  0  0  0  0
 15 38  1  0  0  0  0
 16 39  1  0  0  0  0
 16 40  1  0  0  0  0
 17 21  1  0  0  0  0
 17 29  1  0  0  0  0
 17 41  1  0  0  0  0
 18 25  1  0  0  0  0
 19 20  1  0  0  0  0
 19 42  1  0  0  0  0
 19 43  1  0  0  0  0
 20 44  1  0  0  0  0
 20 45  1  0  0  0  0
 21 24  1  0  0  0  0
 21 28  1  0  0  0  0
 22 24  1  0  0  0  0
 22 46  1  0  0  0  0
 22 47  1  0  0  0  0
 23 27  1  0  0  0  0
 23 48  1  0  0  0  0
 23 49  1  0  0  0  0
 24 50  1  0  0  0  0
 25 27  1  0  0  0  0
 25 51  1  0  0  0  0
 26 52  1  0  0  0  0
 26 53  1  0  0  0  0
 26 54  1  0  0  0  0
 27 55  1  0  0  0  0
 27 56  1  0  0  0  0
 28 30  1  0  0  0  0
 28 32  1  0  0  0  0
 29 57  1  0  0  0  0
 29 58  1  0  0  0  0
 30 31  1  0  0  0  0
 30 59  1  0  0  0  0
 31 35  1  0  0  0  0
 31 64  1  0  0  0  0
 31 65  1  0  0  0  0
 32 66  1  0  0  0  0
 32 67  1  0  0  0  0
 32 68  1  0  0  0  0
 33 34  1  0  0  0  0
 33 69  1  0  0  0  0
 33 70  1  0  0  0  0
 34 35  1  0  0  0  0
 34 36  1  0  0  0  0
 34 74  1  0  0  0  0
 35 75  1  0  0  0  0
 35 76  1  0  0  0  0
 36 77  1  0  0  0  0
 36 78  1  0  0  0  0
 36 79  1  0  0  0  0
M  END
> <PUBCHEM_COMPOUND_CID>
442986

> <PUBCHEM_CONFORMER_RMSD>
0.8

> <PUBCHEM_CONFORMER_DIVERSEORDER>
2
1
3

> <PUBCHEM_MMFF94_PARTIAL_CHARGES>
27
1 -0.56
10 0.28
13 0.28
14 0.28
18 0.56
2 -0.68
21 0.28
24 0.28
25 0.28
28 0.28
29 0.27
3 -0.68
30 0.27
33 0.27
4 -0.68
5 -0.68
6 -0.68
60 0.4
61 0.4
62 0.4
63 0.4
7 -0.68
71 0.4
72 0.4
73 0.4
8 -0.68
9 -0.81

> <PUBCHEM_EFFECTIVE_ROTOR_COUNT>
3

> <PUBCHEM_PHARMACOPHORE_FEATURES>
22
1 1 acceptor
1 2 acceptor
1 2 donor
1 3 acceptor
1 3 donor
1 4 acceptor
1 4 donor
1 5 acceptor
1 5 donor
1 6 acceptor
1 6 donor
1 7 acceptor
1 7 donor
1 8 acceptor
1 8 donor
1 9 cation
5 10 11 13 14 16 rings
6 13 14 17 21 22 24 rings
6 9 17 21 28 29 30 rings
6 9 30 31 33 34 35 rings
8 1 10 11 12 15 18 19 20 rings
8 1 10 12 15 18 23 25 27 rings

> <PUBCHEM_HEAVY_ATOM_COUNT>
36

> <PUBCHEM_ATOM_DEF_STEREO_COUNT>
14

> <PUBCHEM_ATOM_UDEF_STEREO_COUNT>
0

> <PUBCHEM_BOND_DEF_STEREO_COUNT>
0

> <PUBCHEM_BOND_UDEF_STEREO_COUNT>
0

> <PUBCHEM_ISOTOPIC_ATOM_COUNT>
0

> <PUBCHEM_COMPONENT_COUNT>
1

> <PUBCHEM_CACTVS_TAUTO_COUNT>
1

> <PUBCHEM_CONFORMER_ID>
0006C26A00000002

> <PUBCHEM_MMFF94_ENERGY>
159.0657

> <PUBCHEM_FEATURE_SELFOVERLAP>
112.892

> <PUBCHEM_SHAPE_FINGERPRINT>
10439779 11 18267877253128617472
10498660 4 18335138713448191001
10675989 125 17688593084125443785
11069576 57 15647887287953466076
11370993 70 18113614560717871486
11513181 2 18047476918210723333
11552529 35 13398340231801808153
11578080 2 17460051595146876464
11621639 179 17624129803667068428
12422481 6 18128554836596082408
12633257 1 16128653037601895737
12788726 201 17411881899996812635
13224815 77 16733531724866991786
13544653 18 10375866347061347083
13583140 156 17987518104895065794
13811026 1 18040997384782787454
13911987 19 16009585738546573464
13944108 23 16899052566148640749
13965767 371 18059020617048201133
14251764 38 18340205168192153340
14739800 52 18342470260860424921
14950920 106 14333113200835856685
15238133 3 17704063010885043772
15484559 13 14647186725819388345
15537594 2 6627487232126999293
17349148 13 17458332015006482146
18608769 82 18335420124438482683
20511986 3 18041291993495130786
20715895 44 18334012817329991585
20764821 26 18342731893147257029
20775530 9 7564471198964918357
21033648 144 18334568066776283677
21033648 29 18129649907301981705
21033650 10 18269534127183481612
21857420 4 15674650792427574941
21859007 373 18338242664896585728
22393880 68 18334852852840346919
23227448 37 18410570687318226877
23559900 14 17603576470206864374
23569943 247 16269993123228730506
2838139 119 18339367469296455221
3388396 114 17471022375955879717
3737641 26 9511199459544847632
392239 28 17702927155665879233
4144715 1 18058720446390529523
469060 322 18051958248269406475
474 4 17988920067929577339
5081480 168 17391325757416228319
508706 21 18413384328504002549
5283173 99 18333734593838871864
5895379 119 18271233950733114788
6036956 94 17407112158880139669
6328613 192 18271236111713548764
9981440 41 18342457024141049043

> <PUBCHEM_SHAPE_MULTIPOLES>
688.93
11.8
3.58
1.75
0.15
1.25
0.15
7.64
0.92
2.71
0.55
-0.52
-0.29
0.84

> <PUBCHEM_SHAPE_SELFOVERLAP>
1521.629

> <PUBCHEM_SHAPE_VOLUME>
363.2

> <PUBCHEM_COORDINATE_TYPE>
2
5
10

$$$$

