46173897
  -OEChem-07051213103D

 39 40  0     1  0  0  0  0  0999 V2000
    1.5241    1.5869   -1.2915 S   0  0  0  0  0  0  0  0  0  0  0  0
   -5.2295    1.3485    0.1088 O   0  0  0  0  0  0  0  0  0  0  0  0
   -2.0772   -1.9259    1.1536 O   0  0  0  0  0  0  0  0  0  0  0  0
   -0.1212   -2.5959   -1.4805 O   0  0  0  0  0  0  0  0  0  0  0  0
    1.6895   -1.5208   -0.5886 O   0  0  0  0  0  0  0  0  0  0  0  0
    4.4349   -0.3405    2.0459 O   0  0  0  0  0  0  0  0  0  0  0  0
   -1.7008   -0.5430   -0.7218 N   0  0  0  0  0  0  0  0  0  0  0  0
    4.3102    0.8542    0.0506 N   0  0  0  0  0  0  0  0  0  0  0  0
   -2.3903    0.7650   -0.7723 C   0  0  1  0  0  0  0  0  0  0  0  0
   -3.0893    0.3417    0.5482 C   0  0  2  0  0  0  0  0  0  0  0  0
   -1.2538    1.7907   -0.8514 C   0  0  0  0  0  0  0  0  0  0  0  0
   -2.2652   -0.9610    0.4472 C   0  0  0  0  0  0  0  0  0  0  0  0
   -4.5856    0.1421    0.5176 C   0  0  1  0  0  0  0  0  0  0  0  0
   -0.3627   -0.3732   -0.9379 C   0  0  0  0  0  0  0  0  0  0  0  0
   -0.0370    0.9210   -1.0450 C   0  0  0  0  0  0  0  0  0  0  0  0
   -5.1171   -0.2500    1.8930 C   0  0  0  0  0  0  0  0  0  0  0  0
    0.5294   -1.5275   -0.9692 C   0  0  0  0  0  0  0  0  0  0  0  0
    2.0580    1.7961    0.4231 C   0  0  0  0  0  0  0  0  0  0  0  0
    3.5648    1.9830    0.5383 C   0  0  0  0  0  0  0  0  0  0  0  0
    4.6844   -0.2178    0.8496 C   0  0  0  0  0  0  0  0  0  0  0  0
    5.4344   -1.2735    0.0823 C   0  0  0  0  0  0  0  0  0  0  0  0
   -3.0583    0.8154   -1.6427 H   0  0  0  0  0  0  0  0  0  0  0  0
   -2.7729    0.9624    1.3979 H   0  0  0  0  0  0  0  0  0  0  0  0
   -1.3986    2.4624   -1.7042 H   0  0  0  0  0  0  0  0  0  0  0  0
   -1.1814    2.3829    0.0666 H   0  0  0  0  0  0  0  0  0  0  0  0
   -4.8578   -0.6286   -0.2132 H   0  0  0  0  0  0  0  0  0  0  0  0
   -6.2038   -0.3825    1.8622 H   0  0  0  0  0  0  0  0  0  0  0  0
   -4.6618   -1.1791    2.2487 H   0  0  0  0  0  0  0  0  0  0  0  0
   -4.9145    0.5363    2.6288 H   0  0  0  0  0  0  0  0  0  0  0  0
   -6.1864    1.1770    0.0847 H   0  0  0  0  0  0  0  0  0  0  0  0
    1.5463    2.6679    0.8442 H   0  0  0  0  0  0  0  0  0  0  0  0
    1.7572    0.9204    1.0095 H   0  0  0  0  0  0  0  0  0  0  0  0
    3.8938    2.8633   -0.0253 H   0  0  0  0  0  0  0  0  0  0  0  0
    3.8279    2.1501    1.5889 H   0  0  0  0  0  0  0  0  0  0  0  0
    0.4503   -3.3924   -1.5162 H   0  0  0  0  0  0  0  0  0  0  0  0
    4.5556    0.8424   -0.9352 H   0  0  0  0  0  0  0  0  0  0  0  0
    6.2310   -0.8163   -0.5115 H   0  0  0  0  0  0  0  0  0  0  0  0
    5.8827   -1.9869    0.7792 H   0  0  0  0  0  0  0  0  0  0  0  0
    4.7438   -1.8024   -0.5802 H   0  0  0  0  0  0  0  0  0  0  0  0
  1 15  1  0  0  0  0
  1 18  1  0  0  0  0
  2 13  1  0  0  0  0
  2 30  1  0  0  0  0
  3 12  2  0  0  0  0
  4 17  1  0  0  0  0
  4 35  1  0  0  0  0
  5 17  2  0  0  0  0
  6 20  2  0  0  0  0
  7  9  1  0  0  0  0
  7 12  1  0  0  0  0
  7 14  1  0  0  0  0
  8 19  1  0  0  0  0
  8 20  1  0  0  0  0
  8 36  1  0  0  0  0
  9 10  1  0  0  0  0
  9 11  1  0  0  0  0
  9 22  1  0  0  0  0
 10 12  1  0  0  0  0
 10 13  1  0  0  0  0
 10 23  1  0  0  0  0
 11 15  1  0  0  0  0
 11 24  1  0  0  0  0
 11 25  1  0  0  0  0
 13 16  1  0  0  0  0
 13 26  1  0  0  0  0
 14 15  2  0  0  0  0
 14 17  1  0  0  0  0
 16 27  1  0  0  0  0
 16 28  1  0  0  0  0
 16 29  1  0  0  0  0
 18 19  1  0  0  0  0
 18 31  1  0  0  0  0
 18 32  1  0  0  0  0
 19 33  1  0  0  0  0
 19 34  1  0  0  0  0
 20 21  1  0  0  0  0
 21 37  1  0  0  0  0
 21 38  1  0  0  0  0
 21 39  1  0  0  0  0
M  END
> <PUBCHEM_COMPOUND_CID>
46173897

> <PUBCHEM_CONFORMER_RMSD>
0.8

> <PUBCHEM_CONFORMER_DIVERSEORDER>
1
177
23
152
129
33
99
141
131
172
167
160
109
114
180
168
29
127
74
69
73
121
146
15
6
122
38
103
147
83
93
119
102
111
134
32
124
138
128
30
136
130
178
57
95
144
28
94
70
43
18
113
115
90
59
92
158
11
86
155
25
132
110
82
175
126
75
17
164
26
12
145
163
35
65
45
148
37
42
116
88
123
140
91
24
34
27
9
100
179
20
142
106
174
96
171
51
62
78
19
161
137
135
31
76
4
133
156
39
8
169
162
107
13
150
81
36
80
60
151
72
14
143
120
52
125
77
64
87
49
71
157
117
63
46
53
118
55
165
48
166
3
47
21
159
173
41
79
5
105
84
50
67
89
176
154
98
54
149
108
104
101
22
97
170
7
66
44
40
112
153
2
61
16
139
56
10
85
68
58

> <PUBCHEM_MMFF94_PARTIAL_CHARGES>
23
1 -0.33
10 0.05
11 0.14
12 0.58
13 0.28
14 0.12
15 -0.04
17 0.71
18 0.23
19 0.3
2 -0.68
20 0.57
21 0.06
3 -0.57
30 0.4
35 0.5
36 0.37
4 -0.65
5 -0.57
6 -0.57
7 -0.39
8 -0.73
9 0.22

> <PUBCHEM_EFFECTIVE_ROTOR_COUNT>
7.4

> <PUBCHEM_PHARMACOPHORE_FEATURES>
9
1 2 acceptor
1 2 donor
1 3 acceptor
1 4 acceptor
1 5 acceptor
1 6 acceptor
1 8 donor
3 4 5 17 anion
7 7 9 10 11 12 14 15 rings

> <PUBCHEM_HEAVY_ATOM_COUNT>
21

> <PUBCHEM_ATOM_DEF_STEREO_COUNT>
3

> <PUBCHEM_ATOM_UDEF_STEREO_COUNT>
0

> <PUBCHEM_BOND_DEF_STEREO_COUNT>
0

> <PUBCHEM_BOND_UDEF_STEREO_COUNT>
0

> <PUBCHEM_ISOTOPIC_ATOM_COUNT>
0

> <PUBCHEM_COMPONENT_COUNT>
1

> <PUBCHEM_CACTVS_TAUTO_COUNT>
4

> <PUBCHEM_CONFORMER_ID>
02C08EC900000001

> <PUBCHEM_MMFF94_ENERGY>
59.3865

> <PUBCHEM_FEATURE_SELFOVERLAP>
45.723

> <PUBCHEM_SHAPE_FINGERPRINT>
10042902 136 15266483025216843787
10692045 39 17604138333079794534
11796584 16 15482672343076179001
11961588 58 5256397276115202801
12633257 1 18343872112553289514
12670546 177 9079123249574001920
12839892 36 18263075531642584503
13140716 1 18339077081961788750
14251764 30 15769782368345000224
14341114 176 18201715146181106568
14420673 8 18129943498223179194
15295992 7 17676774154174708176
16110190 28 18339653252810958320
16945 1 18127389182820263421
17349148 13 18341050710187620869
17959699 21 6915992460373471112
1813 80 15626226784158094740
20871999 31 9871483001580331461
212916 134 17531248344056349528
21304304 249 17988916735536590091
21452121 103 18336540642445276617
22182313 1 18267021854408624061
23559900 14 18129642210145646342
2838139 119 15936411190844685641
4340502 62 17676478433313702687
465052 167 18131624574002421048
474 4 17095236995424989524
5104073 3 18263089825250891986
7097593 13 18124601886073052324
8509985 295 18040715848954069264

> <PUBCHEM_SHAPE_MULTIPOLES>
396.71
10.75
2.21
1.51
2.25
0.2
-0.28
0.32
-6.5
0.94
0.5
-0.02
0.33
0.43

> <PUBCHEM_SHAPE_SELFOVERLAP>
810.316

> <PUBCHEM_SHAPE_VOLUME>
232.5

> <PUBCHEM_COORDINATE_TYPE>
2
5
10

$$$$

