440912
  -OEChem-07051212512D

 58 63  0     1  0  0  0  0  0999 V2000
    3.4578    1.6762    0.0000 O   0  0  0  0  0  0  0  0  0  0  0  0
    8.1667    0.0938    0.0000 O   0  0  0  0  0  0  0  0  0  0  0  0
    2.8412    0.0398    0.0000 N   0  0  3  0  0  0  0  0  0  0  0  0
    4.7134    0.1438    0.0000 C   0  0  2  0  0  0  0  0  0  0  0  0
    5.5830    0.7173    0.0000 C   0  0  3  0  0  0  0  0  0  0  0  0
    6.4839    0.2834    0.0000 C   0  0  3  0  0  0  0  0  0  0  0  0
    4.7832   -0.8955    0.0000 C   0  0  3  0  0  0  0  0  0  0  0  0
    3.8915   -1.5136    0.0000 C   0  0  2  0  0  0  0  0  0  0  0  0
    3.7470    0.6371    0.0000 C   0  0  3  0  0  0  0  0  0  0  0  0
    6.5778   -0.7540    0.0000 C   0  0  0  0  0  0  0  0  0  0  0  0
    5.7217   -1.3474    0.0000 C   0  0  0  0  0  0  0  0  0  0  0  0
    6.1940   -0.2166    0.0000 C   0  0  0  0  0  0  0  0  0  0  0  0
    6.3771    1.4601    0.0000 C   0  0  0  0  0  0  0  0  0  0  0  0
    5.3604    1.6922    0.0000 C   0  0  0  0  0  0  0  0  0  0  0  0
    7.3849    0.7173    0.0000 C   0  0  2  0  0  0  0  0  0  0  0  0
    6.9839    2.4740    0.0000 C   0  0  3  0  0  0  0  0  0  0  0  0
    2.9139   -1.0428    0.0000 C   0  0  0  0  0  0  0  0  0  0  0  0
    5.0745   -2.4740    0.0000 C   0  0  0  0  0  0  0  0  0  0  0  0
    5.9839    2.4740    0.0000 C   0  0  0  0  0  0  0  0  0  0  0  0
    6.4022   -1.7262    0.0000 C   0  0  0  0  0  0  0  0  0  0  0  0
    7.6074    1.6922    0.0000 C   0  0  0  0  0  0  0  0  0  0  0  0
    3.3558   -2.3580    0.0000 C   0  0  0  0  0  0  0  0  0  0  0  0
    2.0000    0.7148    0.0000 C   0  0  0  0  0  0  0  0  0  0  0  0
    2.3803    1.7241    0.0000 C   0  0  0  0  0  0  0  0  0  0  0  0
    8.5824    1.9147    0.0000 C   0  0  0  0  0  0  0  0  0  0  0  0
    6.2475    1.2472    0.0000 H   0  0  0  0  0  0  0  0  0  0  0  0
    4.8500   -1.7428    0.0000 H   0  0  0  0  0  0  0  0  0  0  0  0
    4.4052    1.1749    0.0000 H   0  0  0  0  0  0  0  0  0  0  0  0
    6.8386   -1.3165    0.0000 H   0  0  0  0  0  0  0  0  0  0  0  0
    7.1766   -0.5933    0.0000 H   0  0  0  0  0  0  0  0  0  0  0  0
    5.3611   -1.8517    0.0000 H   0  0  0  0  0  0  0  0  0  0  0  0
    6.1569   -1.7890    0.0000 H   0  0  0  0  0  0  0  0  0  0  0  0
    6.8139   -0.2093    0.0000 H   0  0  0  0  0  0  0  0  0  0  0  0
    6.2642    0.3994    0.0000 H   0  0  0  0  0  0  0  0  0  0  0  0
    5.9693    1.9272    0.0000 H   0  0  0  0  0  0  0  0  0  0  0  0
    5.8070    1.2163    0.0000 H   0  0  0  0  0  0  0  0  0  0  0  0
    4.9739    2.1769    0.0000 H   0  0  0  0  0  0  0  0  0  0  0  0
    4.8018    1.4232    0.0000 H   0  0  0  0  0  0  0  0  0  0  0  0
    7.3155    0.1012    0.0000 H   0  0  0  0  0  0  0  0  0  0  0  0
    7.3527    3.2398    0.0000 H   0  0  0  0  0  0  0  0  0  0  0  0
    2.2973   -0.9779    0.0000 H   0  0  0  0  0  0  0  0  0  0  0  0
    2.7445   -1.6392    0.0000 H   0  0  0  0  0  0  0  0  0  0  0  0
    4.6267   -2.9028    0.0000 H   0  0  0  0  0  0  0  0  0  0  0  0
    5.4439   -2.9720    0.0000 H   0  0  0  0  0  0  0  0  0  0  0  0
    6.1219    3.0785    0.0000 H   0  0  0  0  0  0  0  0  0  0  0  0
    5.4253    2.7430    0.0000 H   0  0  0  0  0  0  0  0  0  0  0  0
    6.6366   -2.3001    0.0000 H   0  0  0  0  0  0  0  0  0  0  0  0
    7.0010   -1.5653    0.0000 H   0  0  0  0  0  0  0  0  0  0  0  0
    2.8322   -2.0258    0.0000 H   0  0  0  0  0  0  0  0  0  0  0  0
    3.0236   -2.8815    0.0000 H   0  0  0  0  0  0  0  0  0  0  0  0
    3.8793   -2.6901    0.0000 H   0  0  0  0  0  0  0  0  0  0  0  0
    1.4460    0.9932    0.0000 H   0  0  0  0  0  0  0  0  0  0  0  0
    1.6649    0.1931    0.0000 H   0  0  0  0  0  0  0  0  0  0  0  0
    2.4728    2.3372    0.0000 H   0  0  0  0  0  0  0  0  0  0  0  0
    1.7804    1.8805    0.0000 H   0  0  0  0  0  0  0  0  0  0  0  0
    8.7439    0.3203    0.0000 H   0  0  0  0  0  0  0  0  0  0  0  0
    9.0041    1.4602    0.0000 H   0  0  0  0  0  0  0  0  0  0  0  0
    8.7651    2.5072    0.0000 H   0  0  0  0  0  0  0  0  0  0  0  0
  1  9  1  0  0  0  0
  1 24  1  0  0  0  0
 15  2  1  6  0  0  0
  2 56  1  0  0  0  0
  3  9  1  0  0  0  0
  3 17  1  0  0  0  0
  3 23  1  0  0  0  0
  4  5  1  0  0  0  0
  4  7  1  0  0  0  0
  4  9  1  0  0  0  0
  4 12  1  1  0  0  0
  5  6  1  0  0  0  0
  5 14  1  0  0  0  0
  5 26  1  0  0  0  0
  6 10  1  0  0  0  0
  6 13  1  0  0  0  0
  6 15  1  0  0  0  0
  7  8  1  0  0  0  0
  7 11  1  0  0  0  0
  7 27  1  0  0  0  0
  8 17  1  0  0  0  0
  8 18  1  0  0  0  0
  8 22  1  6  0  0  0
  9 28  1  0  0  0  0
 10 11  1  0  0  0  0
 10 29  1  0  0  0  0
 10 30  1  0  0  0  0
 11 31  1  0  0  0  0
 11 32  1  0  0  0  0
 12 20  1  0  0  0  0
 12 33  1  0  0  0  0
 12 34  1  0  0  0  0
 13 16  1  0  0  0  0
 13 35  1  0  0  0  0
 13 36  1  0  0  0  0
 14 19  1  0  0  0  0
 14 37  1  0  0  0  0
 14 38  1  0  0  0  0
 15 21  1  0  0  0  0
 15 39  1  0  0  0  0
 16 19  1  0  0  0  0
 16 21  1  0  0  0  0
 16 40  1  0  0  0  0
 17 41  1  0  0  0  0
 17 42  1  0  0  0  0
 18 20  1  0  0  0  0
 18 43  1  0  0  0  0
 18 44  1  0  0  0  0
 19 45  1  0  0  0  0
 19 46  1  0  0  0  0
 20 47  1  0  0  0  0
 20 48  1  0  0  0  0
 21 25  2  0  0  0  0
 22 49  1  0  0  0  0
 22 50  1  0  0  0  0
 22 51  1  0  0  0  0
 23 24  1  0  0  0  0
 23 52  1  0  0  0  0
 23 53  1  0  0  0  0
 24 54  1  0  0  0  0
 24 55  1  0  0  0  0
 25 57  1  0  0  0  0
 25 58  1  0  0  0  0
M  END
> <PUBCHEM_COMPOUND_CID>
440912

> <PUBCHEM_COMPOUND_CANONICALIZED>
1

> <PUBCHEM_CACTVS_COMPLEXITY>
634

> <PUBCHEM_CACTVS_HBOND_ACCEPTOR>
3

> <PUBCHEM_CACTVS_HBOND_DONOR>
1

> <PUBCHEM_CACTVS_ROTATABLE_BOND>
0

> <PUBCHEM_CACTVS_SUBSKEYS>
AAADcfB6MAAAAAAAAAAAAAAAAAAAAeIAAAA8YMEABgAWAFjwAAAAHgAACAAADxThgAYCAAMABgCAAgBCAAAAAAAgAAAAAAAIAAgCFAIAgQAPQAAEgACQEAGQ8P4PgAAAAAAAAACAAAQAACAAAYAABAAAAA==

> <PUBCHEM_IUPAC_INCHI>
InChI=1S/C22H33NO2/c1-14-15-4-5-17-21(12-15,18(14)24)9-6-16-20(2)7-3-8-22(16,17)19-23(13-20)10-11-25-19/h15-19,24H,1,3-13H2,2H3/t15?,16?,17?,18-,19?,20-,21?,22-/m0/s1

> <PUBCHEM_IUPAC_INCHIKEY>
MGAZMNWJFPAAIU-FEDPRYSUSA-N

> <PUBCHEM_XLOGP3_AA>
3.6

> <PUBCHEM_EXACT_MASS>
343.251129

> <PUBCHEM_MOLECULAR_FORMULA>
C22H33NO2

> <PUBCHEM_MOLECULAR_WEIGHT>
343.50292

> <PUBCHEM_OPENEYE_CAN_SMILES>
CC12CCCC3(C1CCC45C3CCC(C4)C(=C)C5O)C6N(C2)CCO6

> <PUBCHEM_OPENEYE_ISO_SMILES>
C[C@@]12CCC[C@@]3(C1CCC45C3CCC(C4)C(=C)[C@@H]5O)C6N(C2)CCO6

> <PUBCHEM_CACTVS_TPSA>
32.7

> <PUBCHEM_MONOISOTOPIC_WEIGHT>
343.251129

> <PUBCHEM_TOTAL_CHARGE>
0

> <PUBCHEM_HEAVY_ATOM_COUNT>
25

> <PUBCHEM_ATOM_DEF_STEREO_COUNT>
3

> <PUBCHEM_ATOM_UDEF_STEREO_COUNT>
5

> <PUBCHEM_BOND_DEF_STEREO_COUNT>
0

> <PUBCHEM_BOND_UDEF_STEREO_COUNT>
0

> <PUBCHEM_ISOTOPIC_ATOM_COUNT>
0

> <PUBCHEM_COMPONENT_COUNT>
1

> <PUBCHEM_CACTVS_TAUTO_COUNT>
1

> <PUBCHEM_COORDINATE_TYPE>
1
5
255

> <PUBCHEM_BONDANNOTATIONS>
16  40  3
15  2  6
4  12  5
5  26  3
6  10  3
7  27  3
8  22  6
9  28  3

$$$$

