3841
  -OEChem-06251223433D

 17 17  0     0  0  0  0  0  0999 V2000
   -0.8234    1.1002    0.1991 O   0  0  0  0  0  0  0  0  0  0  0  0
    2.8242    1.0375   -0.1230 O   0  0  0  0  0  0  0  0  0  0  0  0
    2.0967   -1.6853   -0.1406 O   0  0  0  0  0  0  0  0  0  0  0  0
   -3.3960    0.3154   -0.5516 N   0  0  0  0  0  0  0  0  0  0  0  0
   -1.1347   -0.2511    0.1878 C   0  0  0  0  0  0  0  0  0  0  0  0
   -2.5958   -0.5404    0.3118 C   0  0  0  0  0  0  0  0  0  0  0  0
   -0.2086   -1.2151    0.0784 C   0  0  0  0  0  0  0  0  0  0  0  0
    1.2184   -0.8374   -0.0364 C   0  0  0  0  0  0  0  0  0  0  0  0
    1.5219    0.6120   -0.0202 C   0  0  0  0  0  0  0  0  0  0  0  0
    0.4974    1.4642    0.0945 C   0  0  0  0  0  0  0  0  0  0  0  0
   -2.8976   -0.3649    1.3507 H   0  0  0  0  0  0  0  0  0  0  0  0
   -2.8174   -1.5892    0.0842 H   0  0  0  0  0  0  0  0  0  0  0  0
   -0.4604   -2.2690    0.0719 H   0  0  0  0  0  0  0  0  0  0  0  0
    0.5988    2.5403    0.1166 H   0  0  0  0  0  0  0  0  0  0  0  0
   -4.3849    0.1330   -0.3839 H   0  0  0  0  0  0  0  0  0  0  0  0
   -3.2291    0.0681   -1.5266 H   0  0  0  0  0  0  0  0  0  0  0  0
    2.8295    2.0100   -0.0950 H   0  0  0  0  0  0  0  0  0  0  0  0
  1  5  1  0  0  0  0
  1 10  1  0  0  0  0
  2  9  1  0  0  0  0
  2 17  1  0  0  0  0
  3  8  2  0  0  0  0
  4  6  1  0  0  0  0
  4 15  1  0  0  0  0
  4 16  1  0  0  0  0
  5  6  1  0  0  0  0
  5  7  2  0  0  0  0
  6 11  1  0  0  0  0
  6 12  1  0  0  0  0
  7  8  1  0  0  0  0
  7 13  1  0  0  0  0
  8  9  1  0  0  0  0
  9 10  2  0  0  0  0
 10 14  1  0  0  0  0
M  END
> <PUBCHEM_COMPOUND_CID>
3841

> <PUBCHEM_CONFORMER_RMSD>
0.4

> <PUBCHEM_CONFORMER_DIVERSEORDER>
2
3
1
4

> <PUBCHEM_MMFF94_PARTIAL_CHARGES>
15
1 -0.15
10 -0.07
13 0.15
14 0.15
15 0.36
16 0.36
17 0.45
2 -0.53
3 -0.57
4 -0.99
5 -0.06
6 0.41
7 -0.14
8 0.54
9 0.09

> <PUBCHEM_EFFECTIVE_ROTOR_COUNT>
1

> <PUBCHEM_PHARMACOPHORE_FEATURES>
6
1 1 acceptor
1 2 donor
1 3 acceptor
1 4 cation
1 4 donor
6 1 5 7 8 9 10 rings

> <PUBCHEM_HEAVY_ATOM_COUNT>
10

> <PUBCHEM_ATOM_DEF_STEREO_COUNT>
0

> <PUBCHEM_ATOM_UDEF_STEREO_COUNT>
0

> <PUBCHEM_BOND_DEF_STEREO_COUNT>
0

> <PUBCHEM_BOND_UDEF_STEREO_COUNT>
0

> <PUBCHEM_ISOTOPIC_ATOM_COUNT>
0

> <PUBCHEM_COMPONENT_COUNT>
1

> <PUBCHEM_CACTVS_TAUTO_COUNT>
2

> <PUBCHEM_CONFORMER_ID>
00000F0100000002

> <PUBCHEM_MMFF94_ENERGY>
14.525

> <PUBCHEM_FEATURE_SELFOVERLAP>
30.446

> <PUBCHEM_SHAPE_FINGERPRINT>
12897270 3 18409725140721155125
12932764 1 17385729071558801849
14325111 11 18411982442746558161
16945 1 18336541621011901072
20201158 50 18413390929836860491
20645477 70 18409172138650989591
21040471 1 18194401087189601456
23235685 24 18340491054036473200
23402655 69 18337123332321533533
23552423 10 18270956959311474242
241688 4 18123746714912797048
2748010 2 18339079414144861100
29004967 10 18341887459494243097
5084963 1 18114746065267008435

> <PUBCHEM_SHAPE_MULTIPOLES>
183.21
3.97
1.56
0.63
1.96
0.13
0
-0.24
-0.46
-0.78
0
0.13
0
0.13

> <PUBCHEM_SHAPE_SELFOVERLAP>
376.11

> <PUBCHEM_SHAPE_VOLUME>
103.7

> <PUBCHEM_COORDINATE_TYPE>
2
5
10

$$$$

