9112
  -OEChem-06261203253D

 43 49  0     0  0  0  0  0  0999 V2000
   -1.3410   -0.4125    0.0019 N   0  0  0  0  0  0  0  0  0  0  0  0
    2.2847    0.3341    0.0008 C   0  0  0  0  0  0  0  0  0  0  0  0
    1.0694   -0.3980    0.0016 C   0  0  0  0  0  0  0  0  0  0  0  0
    3.5357   -0.3386    0.0000 C   0  0  0  0  0  0  0  0  0  0  0  0
    2.2582    1.7425    0.0004 C   0  0  0  0  0  0  0  0  0  0  0  0
   -0.1731    0.2705    0.0017 C   0  0  0  0  0  0  0  0  0  0  0  0
   -0.1770    1.6723    0.0010 C   0  0  0  0  0  0  0  0  0  0  0  0
    3.5801   -1.7504    0.0002 C   0  0  0  0  0  0  0  0  0  0  0  0
    4.7431    0.4001   -0.0008 C   0  0  0  0  0  0  0  0  0  0  0  0
    1.0239    2.3965    0.0006 C   0  0  0  0  0  0  0  0  0  0  0  0
    1.1516   -1.8035    0.0019 C   0  0  0  0  0  0  0  0  0  0  0  0
   -2.5418    0.2098    0.0011 C   0  0  0  0  0  0  0  0  0  0  0  0
   -2.6083    1.6110    0.0001 C   0  0  0  0  0  0  0  0  0  0  0  0
    3.4618    2.4612   -0.0003 C   0  0  0  0  0  0  0  0  0  0  0  0
   -1.4102    2.3301    0.0003 C   0  0  0  0  0  0  0  0  0  0  0  0
    2.3806   -2.4678    0.0011 C   0  0  0  0  0  0  0  0  0  0  0  0
    4.6889    1.7985   -0.0010 C   0  0  0  0  0  0  0  0  0  0  0  0
   -3.7502   -0.5218    0.0007 C   0  0  0  0  0  0  0  0  0  0  0  0
    4.8212   -2.4041   -0.0010 C   0  0  0  0  0  0  0  0  0  0  0  0
    5.9695   -0.2805   -0.0019 C   0  0  0  0  0  0  0  0  0  0  0  0
   -4.9992    0.1512   -0.0005 C   0  0  0  0  0  0  0  0  0  0  0  0
   -3.8434    2.2717   -0.0013 C   0  0  0  0  0  0  0  0  0  0  0  0
    6.0071   -1.6731   -0.0020 C   0  0  0  0  0  0  0  0  0  0  0  0
   -5.0292    1.5472   -0.0016 C   0  0  0  0  0  0  0  0  0  0  0  0
   -3.7656   -1.9330    0.0004 C   0  0  0  0  0  0  0  0  0  0  0  0
   -6.1960   -0.5846   -0.0015 C   0  0  0  0  0  0  0  0  0  0  0  0
   -4.9632   -2.6514   -0.0006 C   0  0  0  0  0  0  0  0  0  0  0  0
   -6.1775   -1.9774   -0.0015 C   0  0  0  0  0  0  0  0  0  0  0  0
    0.9936    3.4860    0.0000 H   0  0  0  0  0  0  0  0  0  0  0  0
    0.2500   -2.4138    0.0025 H   0  0  0  0  0  0  0  0  0  0  0  0
   -1.4381    3.4197   -0.0005 H   0  0  0  0  0  0  0  0  0  0  0  0
    3.4564    3.5493   -0.0006 H   0  0  0  0  0  0  0  0  0  0  0  0
    2.3856   -3.5560    0.0012 H   0  0  0  0  0  0  0  0  0  0  0  0
    5.6027    2.3891   -0.0017 H   0  0  0  0  0  0  0  0  0  0  0  0
    4.8751   -3.4908   -0.0010 H   0  0  0  0  0  0  0  0  0  0  0  0
    6.9084    0.2693   -0.0026 H   0  0  0  0  0  0  0  0  0  0  0  0
   -3.8923    3.3585   -0.0022 H   0  0  0  0  0  0  0  0  0  0  0  0
    6.9625   -2.1898   -0.0029 H   0  0  0  0  0  0  0  0  0  0  0  0
   -5.9741    2.0860   -0.0028 H   0  0  0  0  0  0  0  0  0  0  0  0
   -2.8360   -2.4994    0.0010 H   0  0  0  0  0  0  0  0  0  0  0  0
   -7.1583   -0.0761   -0.0025 H   0  0  0  0  0  0  0  0  0  0  0  0
   -4.9437   -3.7373   -0.0008 H   0  0  0  0  0  0  0  0  0  0  0  0
   -7.1099   -2.5339   -0.0023 H   0  0  0  0  0  0  0  0  0  0  0  0
  1  6  1  0  0  0  0
  1 12  2  0  0  0  0
  2  3  2  0  0  0  0
  2  4  1  0  0  0  0
  2  5  1  0  0  0  0
  3  6  1  0  0  0  0
  3 11  1  0  0  0  0
  4  8  1  0  0  0  0
  4  9  2  0  0  0  0
  5 10  2  0  0  0  0
  5 14  1  0  0  0  0
  6  7  2  0  0  0  0
  7 10  1  0  0  0  0
  7 15  1  0  0  0  0
  8 16  1  0  0  0  0
  8 19  2  0  0  0  0
  9 17  1  0  0  0  0
  9 20  1  0  0  0  0
 10 29  1  0  0  0  0
 11 16  2  0  0  0  0
 11 30  1  0  0  0  0
 12 13  1  0  0  0  0
 12 18  1  0  0  0  0
 13 15  2  0  0  0  0
 13 22  1  0  0  0  0
 14 17  2  0  0  0  0
 14 32  1  0  0  0  0
 15 31  1  0  0  0  0
 16 33  1  0  0  0  0
 17 34  1  0  0  0  0
 18 21  1  0  0  0  0
 18 25  2  0  0  0  0
 19 23  1  0  0  0  0
 19 35  1  0  0  0  0
 20 23  2  0  0  0  0
 20 36  1  0  0  0  0
 21 24  1  0  0  0  0
 21 26  2  0  0  0  0
 22 24  2  0  0  0  0
 22 37  1  0  0  0  0
 23 38  1  0  0  0  0
 24 39  1  0  0  0  0
 25 27  1  0  0  0  0
 25 40  1  0  0  0  0
 26 28  1  0  0  0  0
 26 41  1  0  0  0  0
 27 28  2  0  0  0  0
 27 42  1  0  0  0  0
 28 43  1  0  0  0  0
M  END
> <PUBCHEM_COMPOUND_CID>
9112

> <PUBCHEM_CONFORMER_RMSD>
0.6

> <PUBCHEM_CONFORMER_DIVERSEORDER>
1

> <PUBCHEM_MMFF94_PARTIAL_CHARGES>
33
1 -0.62
10 -0.15
11 -0.15
12 0.31
14 -0.15
15 -0.15
16 -0.15
17 -0.15
19 -0.15
20 -0.15
22 -0.15
23 -0.15
24 -0.15
25 -0.15
26 -0.15
27 -0.15
28 -0.15
29 0.15
30 0.15
31 0.15
32 0.15
33 0.15
34 0.15
35 0.15
36 0.15
37 0.15
38 0.15
39 0.15
40 0.15
41 0.15
42 0.15
43 0.15
6 0.31

> <PUBCHEM_EFFECTIVE_ROTOR_COUNT>
0

> <PUBCHEM_PHARMACOPHORE_FEATURES>
8
1 1 acceptor
6 1 6 7 12 13 15 rings
6 12 13 18 21 22 24 rings
6 18 21 25 26 27 28 rings
6 2 3 4 8 11 16 rings
6 2 3 5 6 7 10 rings
6 2 4 5 9 14 17 rings
6 4 8 9 19 20 23 rings

> <PUBCHEM_HEAVY_ATOM_COUNT>
28

> <PUBCHEM_ATOM_DEF_STEREO_COUNT>
0

> <PUBCHEM_ATOM_UDEF_STEREO_COUNT>
0

> <PUBCHEM_BOND_DEF_STEREO_COUNT>
0

> <PUBCHEM_BOND_UDEF_STEREO_COUNT>
0

> <PUBCHEM_ISOTOPIC_ATOM_COUNT>
0

> <PUBCHEM_COMPONENT_COUNT>
1

> <PUBCHEM_CACTVS_TAUTO_COUNT>
1

> <PUBCHEM_CONFORMER_ID>
0000239800000001

> <PUBCHEM_MMFF94_ENERGY>
104.6348

> <PUBCHEM_FEATURE_SELFOVERLAP>
40.811

> <PUBCHEM_SHAPE_FINGERPRINT>
10050765 1 18410856581205056872
10074138 170 15663132686772634513
10595046 47 18410854330657582821
10622 236 17317627378956982703
10835480 77 18411428301893205477
10838868 158 17340953500137318419
11443803 9 17914335668409808316
11524674 6 16732702744871547727
11578080 2 13397765148565412206
117089 54 17911228431021743635
11963148 33 18196379112856575906
12107183 9 17904760325677876009
12166972 35 18131628972001830164
12236239 1 18040152920158602713
13383668 362 18337689529686994922
13402501 40 18412262826585785115
13782708 43 17775289399754711042
14341114 176 18410570686927895105
14790565 3 18409727331360230436
14955137 171 17894912983881124406
15082195 135 17987507118369021540
15196674 1 18410856568245801764
15320467 1 17185876091154759147
15352361 1 18410855464845187211
15361156 5 18059841896415762949
15510800 12 17415551022972549939
15927050 60 17685216071736222548
16110190 28 18334570244657200467
17492 89 18337109076623879902
17844677 252 18409724075764515961
17857418 61 18411419522493943531
1813 80 17346880052536380669
18608769 82 18408889508396037208
18681886 176 18408609154337245298
19591789 44 18410013221747879166
20028762 73 18334014999559208030
21130935 74 18261110785535279626
21133410 171 17474166060489698211
21197605 99 18336263423422817542
21236236 1 18409448107400004995
21267235 1 18410005546229961998
21279426 13 18412266176602007101
221490 88 18411978052931311634
22149856 69 18336252463008546601
22393880 68 18059304252583359013
23522609 53 18123155057235419580
23559900 14 18338525145027512633
24893989 43 16023084215311062455
3004659 81 18273498970049357096
329604 57 18410290298282446286
335352 9 18410857698919414421
338550 245 18341048527975092878
350125 39 18409448080970759748
3633792 109 18339370777196973797
3882209 13 17118925119011695579
4073 2 18130501942428671019
4214541 1 18410575115292456325
439807 62 18341610396161296627
46194498 28 17560804268883640773
463206 1 18192993721191888575
465052 167 18260827107688511718
484989 97 18340196415481236426
5104073 3 18333734636566914784
5776283 40 17977376145797010736
7495541 125 17749394736810089992
9709674 26 18270957956118290619

> <PUBCHEM_SHAPE_MULTIPOLES>
571.25
15.29
3.27
0.61
5.04
0.1
0
6.67
-0.01
-0.02
0
0
0
0

> <PUBCHEM_SHAPE_SELFOVERLAP>
1364.301

> <PUBCHEM_SHAPE_VOLUME>
279.9

> <PUBCHEM_COORDINATE_TYPE>
2
5
10

$$$$

