72523
  -OEChem-07051213093D

 53 53  0     1  0  0  0  0  0999 V2000
   -4.5204   -0.6375   -0.9190 N   0  0  0  0  0  0  0  0  0  0  0  0
   -4.2460    0.7838   -0.6735 C   0  0  1  0  0  0  0  0  0  0  0  0
   -5.4696    1.4956   -0.0793 C   0  0  0  0  0  0  0  0  0  0  0  0
   -5.0161   -1.3596    0.2580 C   0  0  1  0  0  0  0  0  0  0  0  0
   -6.0288    0.7775    1.1444 C   0  0  0  0  0  0  0  0  0  0  0  0
   -2.9832    0.9923    0.1677 C   0  0  0  0  0  0  0  0  0  0  0  0
   -6.2743   -0.6938    0.8283 C   0  0  0  0  0  0  0  0  0  0  0  0
   -1.7204    0.6796   -0.6358 C   0  0  0  0  0  0  0  0  0  0  0  0
   -0.4321    0.8050    0.1840 C   0  0  0  0  0  0  0  0  0  0  0  0
   -5.3132   -2.8053   -0.1399 C   0  0  0  0  0  0  0  0  0  0  0  0
    0.8244    0.4198   -0.6014 C   0  0  0  0  0  0  0  0  0  0  0  0
    2.1144    0.5569    0.2140 C   0  0  0  0  0  0  0  0  0  0  0  0
    3.3643    0.1036   -0.5456 C   0  0  0  0  0  0  0  0  0  0  0  0
    4.6172    0.2363    0.3244 C   0  0  0  0  0  0  0  0  0  0  0  0
    5.8973   -0.2286   -0.3759 C   0  0  0  0  0  0  0  0  0  0  0  0
    7.1534   -0.0722    0.4841 C   0  0  0  0  0  0  0  0  0  0  0  0
    8.3879   -0.6176   -0.2351 C   0  0  0  0  0  0  0  0  0  0  0  0
    9.6451   -0.4360    0.6005 C   0  0  0  0  0  0  0  0  0  0  0  0
   -4.0712    1.2470   -1.6535 H   0  0  0  0  0  0  0  0  0  0  0  0
   -5.2256    2.5328    0.1790 H   0  0  0  0  0  0  0  0  0  0  0  0
   -6.2566    1.5444   -0.8440 H   0  0  0  0  0  0  0  0  0  0  0  0
   -4.2415   -1.3895    1.0329 H   0  0  0  0  0  0  0  0  0  0  0  0
   -5.3260    0.8637    1.9816 H   0  0  0  0  0  0  0  0  0  0  0  0
   -6.9638    1.2525    1.4616 H   0  0  0  0  0  0  0  0  0  0  0  0
   -3.0003    0.4009    1.0892 H   0  0  0  0  0  0  0  0  0  0  0  0
   -2.9282    2.0417    0.4855 H   0  0  0  0  0  0  0  0  0  0  0  0
   -7.1023   -0.7749    0.1116 H   0  0  0  0  0  0  0  0  0  0  0  0
   -6.5934   -1.2127    1.7401 H   0  0  0  0  0  0  0  0  0  0  0  0
   -3.6986   -1.1054   -1.2955 H   0  0  0  0  0  0  0  0  0  0  0  0
   -1.6605    1.3516   -1.5009 H   0  0  0  0  0  0  0  0  0  0  0  0
   -1.7673   -0.3409   -1.0315 H   0  0  0  0  0  0  0  0  0  0  0  0
   -0.3336    1.8369    0.5428 H   0  0  0  0  0  0  0  0  0  0  0  0
   -0.5071    0.1660    1.0725 H   0  0  0  0  0  0  0  0  0  0  0  0
   -5.6744   -3.3765    0.7221 H   0  0  0  0  0  0  0  0  0  0  0  0
   -4.4115   -3.3036   -0.5132 H   0  0  0  0  0  0  0  0  0  0  0  0
   -6.0781   -2.8587   -0.9230 H   0  0  0  0  0  0  0  0  0  0  0  0
    0.7264   -0.6167   -0.9470 H   0  0  0  0  0  0  0  0  0  0  0  0
    0.8981    1.0473   -1.4981 H   0  0  0  0  0  0  0  0  0  0  0  0
    2.0188   -0.0346    1.1332 H   0  0  0  0  0  0  0  0  0  0  0  0
    2.2345    1.6030    0.5217 H   0  0  0  0  0  0  0  0  0  0  0  0
    3.2449   -0.9402   -0.8593 H   0  0  0  0  0  0  0  0  0  0  0  0
    3.4810    0.7046   -1.4551 H   0  0  0  0  0  0  0  0  0  0  0  0
    4.4832   -0.3464    1.2443 H   0  0  0  0  0  0  0  0  0  0  0  0
    4.7359    1.2838    0.6281 H   0  0  0  0  0  0  0  0  0  0  0  0
    5.7822   -1.2818   -0.6612 H   0  0  0  0  0  0  0  0  0  0  0  0
    6.0244    0.3388   -1.3061 H   0  0  0  0  0  0  0  0  0  0  0  0
    7.3007    0.9874    0.7254 H   0  0  0  0  0  0  0  0  0  0  0  0
    7.0171   -0.6043    1.4334 H   0  0  0  0  0  0  0  0  0  0  0  0
    8.2514   -1.6830   -0.4539 H   0  0  0  0  0  0  0  0  0  0  0  0
    8.5177   -0.1030   -1.1944 H   0  0  0  0  0  0  0  0  0  0  0  0
   10.5149   -0.8332    0.0680 H   0  0  0  0  0  0  0  0  0  0  0  0
    9.5608   -0.9642    1.5555 H   0  0  0  0  0  0  0  0  0  0  0  0
    9.8285    0.6230    0.8082 H   0  0  0  0  0  0  0  0  0  0  0  0
  1  2  1  0  0  0  0
  1  4  1  0  0  0  0
  1 29  1  0  0  0  0
  2  3  1  0  0  0  0
  2  6  1  0  0  0  0
  2 19  1  0  0  0  0
  3  5  1  0  0  0  0
  3 20  1  0  0  0  0
  3 21  1  0  0  0  0
  4  7  1  0  0  0  0
  4 10  1  0  0  0  0
  4 22  1  0  0  0  0
  5  7  1  0  0  0  0
  5 23  1  0  0  0  0
  5 24  1  0  0  0  0
  6  8  1  0  0  0  0
  6 25  1  0  0  0  0
  6 26  1  0  0  0  0
  7 27  1  0  0  0  0
  7 28  1  0  0  0  0
  8  9  1  0  0  0  0
  8 30  1  0  0  0  0
  8 31  1  0  0  0  0
  9 11  1  0  0  0  0
  9 32  1  0  0  0  0
  9 33  1  0  0  0  0
 10 34  1  0  0  0  0
 10 35  1  0  0  0  0
 10 36  1  0  0  0  0
 11 12  1  0  0  0  0
 11 37  1  0  0  0  0
 11 38  1  0  0  0  0
 12 13  1  0  0  0  0
 12 39  1  0  0  0  0
 12 40  1  0  0  0  0
 13 14  1  0  0  0  0
 13 41  1  0  0  0  0
 13 42  1  0  0  0  0
 14 15  1  0  0  0  0
 14 43  1  0  0  0  0
 14 44  1  0  0  0  0
 15 16  1  0  0  0  0
 15 45  1  0  0  0  0
 15 46  1  0  0  0  0
 16 17  1  0  0  0  0
 16 47  1  0  0  0  0
 16 48  1  0  0  0  0
 17 18  1  0  0  0  0
 17 49  1  0  0  0  0
 17 50  1  0  0  0  0
 18 51  1  0  0  0  0
 18 52  1  0  0  0  0
 18 53  1  0  0  0  0
M  END
> <PUBCHEM_COMPOUND_CID>
72523

> <PUBCHEM_CONFORMER_RMSD>
1.2

> <PUBCHEM_CONFORMER_DIVERSEORDER>
1
82
7
111
122
41
31
117
27
16
34
8
115
87
59
71
107
63
12
113
17
86
131
133
11
123
39
73
92
130
79
58
97
105
48
91
4
18
40
38
104
109
67
5
22
90
132
19
128
80
23
136
28
135
45
9
84
20
3
88
57
95
70
46
119
126
110
43
89
42
68
118
64
13
98
106
60
75
96
21
103
85
6
120
25
99
37
65
35
134
14
15
10
127
129
66
108
33
24
32
50
54
124
47
36
125
29
93
2
69
61
94
53
78
56
52
74
72
137
81
44
49
102
30
26
100
62
112
55
77
83
51
116
121
101
114
76

> <PUBCHEM_MMFF94_PARTIAL_CHARGES>
4
1 -0.9
2 0.27
29 0.36
4 0.27

> <PUBCHEM_EFFECTIVE_ROTOR_COUNT>
11.2

> <PUBCHEM_PHARMACOPHORE_FEATURES>
4
1 1 cation
1 1 donor
1 18 hydrophobe
6 1 2 3 4 5 7 rings

> <PUBCHEM_HEAVY_ATOM_COUNT>
18

> <PUBCHEM_ATOM_DEF_STEREO_COUNT>
2

> <PUBCHEM_ATOM_UDEF_STEREO_COUNT>
0

> <PUBCHEM_BOND_DEF_STEREO_COUNT>
0

> <PUBCHEM_BOND_UDEF_STEREO_COUNT>
0

> <PUBCHEM_ISOTOPIC_ATOM_COUNT>
0

> <PUBCHEM_COMPONENT_COUNT>
1

> <PUBCHEM_CACTVS_TAUTO_COUNT>
1

> <PUBCHEM_CONFORMER_ID>
00011B4B00000001

> <PUBCHEM_MMFF94_ENERGY>
-3.572

> <PUBCHEM_FEATURE_SELFOVERLAP>
20.297

> <PUBCHEM_SHAPE_FINGERPRINT>
10066227 49 16988008327408645946
10299344 5 18131068238762722730
11315181 36 18410291402685445681
12091667 2 16917067780532226757
125118 31 8070018983695716434
13288520 33 18273214184539233973
13885169 127 18410855499257978520
14123256 10 16343983624532820816
14251764 18 17775287171299498722
14251764 46 17489586779418305409
14344974 204 18042684992327735991
14428016 248 4750869378427807250
14617042 71 15792312389239832216
14729087 3 8070029960919455242
15183329 4 16558756698005491922
15461852 350 11239989049300670641
155225 1 6988329314055793643
15716309 27 18272086084712369396
17093844 174 17313105263518973081
1754908 1 18261120664888339314
17780758 139 18113896066344805289
1818759 1 18335136536649306710
195137 175 6338954486578722298
20281389 69 9295287231647734990
21095123 145 16805606911022126622
21150785 3 13686295768685164696
220451 1 18202565102664885128
22224240 67 15285646504136277340
23035841 295 18342173367019712225
23402539 116 16845575322986929181
23521765 1 18408042936082776300
246663 6 18131347518837071952
33532 11 18059860619248981090
33684 2 12247677180435155412
5758199 1 4967892048184781172
5969126 39 16415487064346353732
67123 10 18343582942023779972
8209 1 12967125026379627572
9953998 17 18259702307198370657
9980921 7 6483088328178333811

> <PUBCHEM_SHAPE_MULTIPOLES>
365.45
28.3
1.58
0.91
58.06
1.11
-0.05
8.03
-5.32
-4.09
0.06
-0.54
-0.04
-0.16

> <PUBCHEM_SHAPE_SELFOVERLAP>
680.344

> <PUBCHEM_SHAPE_VOLUME>
228.7

> <PUBCHEM_COORDINATE_TYPE>
2
5
10

$$$$

