17395801
  -OEChem-06241222523D

 45 47  0     1  0  0  0  0  0999 V2000
   -3.0566    2.4208   -1.2164 S   0  0  0  0  0  0  0  0  0  0  0  0
   -3.4741   -2.4581    0.1897 O   0  0  0  0  0  0  0  0  0  0  0  0
    4.0199   -0.8482    1.8154 O   0  0  0  0  0  0  0  0  0  0  0  0
   -0.5065   -2.9132   -0.8577 N   0  0  2  0  0  0  0  0  0  0  0  0
   -2.0849   -0.6553    0.6520 N   0  0  0  0  0  0  0  0  0  0  0  0
    1.1966   -0.7987   -1.0298 N   0  0  0  0  0  0  0  0  0  0  0  0
    2.5025   -2.0125    0.5523 N   0  0  0  0  0  0  0  0  0  0  0  0
    0.9042   -3.2221   -0.7785 C   0  0  0  0  0  0  0  0  0  0  0  0
   -3.1035    0.3703    0.6726 C   0  0  2  0  0  0  0  0  0  0  0  0
   -1.1075   -2.8466    0.4802 C   0  0  0  0  0  0  0  0  0  0  0  0
    1.5945   -1.9421   -0.3774 C   0  0  0  0  0  0  0  0  0  0  0  0
   -2.3577   -1.9938    0.4105 C   0  0  0  0  0  0  0  0  0  0  0  0
   -2.5057    1.6888    0.2303 C   0  0  0  0  0  0  0  0  0  0  0  0
   -1.2182   -3.9042   -1.6742 C   0  0  0  0  0  0  0  0  0  0  0  0
    1.7971    0.4170   -0.6969 C   0  0  0  0  0  0  0  0  0  0  0  0
   -3.7629    0.4521    2.0452 C   0  0  0  0  0  0  0  0  0  0  0  0
    2.7885    0.4329    0.2938 C   0  0  0  0  0  0  0  0  0  0  0  0
    3.1531   -0.8563    0.9470 C   0  0  0  0  0  0  0  0  0  0  0  0
   -1.5274    2.4366    0.8480 C   0  0  0  0  0  0  0  0  0  0  0  0
    1.4375    1.6122   -1.3249 C   0  0  0  0  0  0  0  0  0  0  0  0
    3.4148    1.6284    0.6561 C   0  0  0  0  0  0  0  0  0  0  0  0
   -1.2264    3.6262    0.1241 C   0  0  0  0  0  0  0  0  0  0  0  0
    2.0614    2.8079   -0.9650 C   0  0  0  0  0  0  0  0  0  0  0  0
    3.0469    2.8155    0.0227 C   0  0  0  0  0  0  0  0  0  0  0  0
   -1.9857    3.7424   -1.0193 C   0  0  0  0  0  0  0  0  0  0  0  0
    1.3137   -3.4936   -1.7597 H   0  0  0  0  0  0  0  0  0  0  0  0
    1.1306   -4.0368   -0.0806 H   0  0  0  0  0  0  0  0  0  0  0  0
   -3.8821    0.0658   -0.0391 H   0  0  0  0  0  0  0  0  0  0  0  0
   -1.3663   -3.8371    0.8750 H   0  0  0  0  0  0  0  0  0  0  0  0
   -0.4320   -2.3951    1.2178 H   0  0  0  0  0  0  0  0  0  0  0  0
   -1.1275   -0.3817    0.8560 H   0  0  0  0  0  0  0  0  0  0  0  0
   -0.7949   -3.9365   -2.6848 H   0  0  0  0  0  0  0  0  0  0  0  0
   -1.1563   -4.9118   -1.2472 H   0  0  0  0  0  0  0  0  0  0  0  0
   -2.2734   -3.6412   -1.7979 H   0  0  0  0  0  0  0  0  0  0  0  0
    0.4771   -0.8085   -1.7427 H   0  0  0  0  0  0  0  0  0  0  0  0
   -4.5358    1.2282    2.0643 H   0  0  0  0  0  0  0  0  0  0  0  0
   -4.2328   -0.5008    2.3121 H   0  0  0  0  0  0  0  0  0  0  0  0
   -3.0333    0.6861    2.8291 H   0  0  0  0  0  0  0  0  0  0  0  0
   -1.0454    2.1490    1.7737 H   0  0  0  0  0  0  0  0  0  0  0  0
    0.6721    1.6212   -2.0966 H   0  0  0  0  0  0  0  0  0  0  0  0
    4.1841    1.6556    1.4222 H   0  0  0  0  0  0  0  0  0  0  0  0
   -0.4915    4.3604    0.4275 H   0  0  0  0  0  0  0  0  0  0  0  0
    1.7800    3.7349   -1.4564 H   0  0  0  0  0  0  0  0  0  0  0  0
    3.5291    3.7490    0.2988 H   0  0  0  0  0  0  0  0  0  0  0  0
   -1.9625    4.5400   -1.7482 H   0  0  0  0  0  0  0  0  0  0  0  0
  1 13  1  0  0  0  0
  1 25  1  0  0  0  0
  2 12  2  0  0  0  0
  3 18  2  0  0  0  0
  4  8  1  0  0  0  0
  4 10  1  0  0  0  0
  4 14  1  0  0  0  0
  5  9  1  0  0  0  0
  5 12  1  0  0  0  0
  5 31  1  0  0  0  0
  6 11  1  0  0  0  0
  6 15  1  0  0  0  0
  6 35  1  0  0  0  0
  7 11  2  0  0  0  0
  7 18  1  0  0  0  0
  8 11  1  0  0  0  0
  8 26  1  0  0  0  0
  8 27  1  0  0  0  0
  9 13  1  0  0  0  0
  9 16  1  0  0  0  0
  9 28  1  0  0  0  0
 10 12  1  0  0  0  0
 10 29  1  0  0  0  0
 10 30  1  0  0  0  0
 13 19  2  0  0  0  0
 14 32  1  0  0  0  0
 14 33  1  0  0  0  0
 14 34  1  0  0  0  0
 15 17  1  0  0  0  0
 15 20  2  0  0  0  0
 16 36  1  0  0  0  0
 16 37  1  0  0  0  0
 16 38  1  0  0  0  0
 17 18  1  0  0  0  0
 17 21  2  0  0  0  0
 19 22  1  0  0  0  0
 19 39  1  0  0  0  0
 20 23  1  0  0  0  0
 20 40  1  0  0  0  0
 21 24  1  0  0  0  0
 21 41  1  0  0  0  0
 22 25  2  0  0  0  0
 22 42  1  0  0  0  0
 23 24  2  0  0  0  0
 23 43  1  0  0  0  0
 24 44  1  0  0  0  0
 25 45  1  0  0  0  0
M  END
> <PUBCHEM_COMPOUND_CID>
17395801

> <PUBCHEM_CONFORMER_RMSD>
1.2

> <PUBCHEM_CONFORMER_DIVERSEORDER>
1
113
124
88
34
47
141
11
170
136
91
155
117
112
102
134
89
179
151
20
57
116
21
71
153
115
166
137
39
14
158
106
176
36
152
17
37
132
66
30
53
162
98
72
70
76
174
131
16
22
43
78
2
7
49
121
67
146
83
81
94
147
60
129
167
46
32
135
79
99
33
69
92
154
8
26
101
74
87
61
28
123
118
4
51
41
111
5
165
58
3
15
85
142
84
18
90
109
138
108
114
25
172
27
180
100
55
148
168
38
122
44
75
12
13
139
65
19
171
56
62
175
159
143
156
31
120
144
40
104
23
97
157
45
110
128
68
52
35
145
48
42
96
6
103
10
169
125
82
64
54
133
59
73
77
149
105
163
130
127
178
24
29
161
63
164
80
119
86
9
126
140
160
150
107
50
177
95
93
173

> <PUBCHEM_MMFF94_PARTIAL_CHARGES>
33
1 -0.08
10 0.33
11 0.44
12 0.57
13 -0.14
14 0.27
15 0.1
17 0.09
18 0.69
19 -0.15
2 -0.57
20 -0.15
21 -0.15
22 -0.15
23 -0.15
24 -0.15
25 -0.11
3 -0.57
31 0.37
35 0.4
39 0.15
4 -0.81
40 0.15
41 0.15
42 0.15
43 0.15
44 0.15
45 0.15
5 -0.73
6 -0.55
7 -0.66
8 0.33
9 0.48

> <PUBCHEM_EFFECTIVE_ROTOR_COUNT>
7

> <PUBCHEM_PHARMACOPHORE_FEATURES>
9
1 2 acceptor
1 3 acceptor
1 4 cation
1 5 donor
1 6 donor
1 7 donor
5 1 13 19 22 25 rings
6 15 17 20 21 23 24 rings
6 6 7 11 15 17 18 rings

> <PUBCHEM_HEAVY_ATOM_COUNT>
25

> <PUBCHEM_ATOM_DEF_STEREO_COUNT>
0

> <PUBCHEM_ATOM_UDEF_STEREO_COUNT>
1

> <PUBCHEM_BOND_DEF_STEREO_COUNT>
0

> <PUBCHEM_BOND_UDEF_STEREO_COUNT>
0

> <PUBCHEM_ISOTOPIC_ATOM_COUNT>
0

> <PUBCHEM_COMPONENT_COUNT>
1

> <PUBCHEM_CACTVS_TAUTO_COUNT>
6

> <PUBCHEM_CONFORMER_ID>
0109705900000001

> <PUBCHEM_MMFF94_ENERGY>
60.0868

> <PUBCHEM_FEATURE_SELFOVERLAP>
45.729

> <PUBCHEM_SHAPE_FINGERPRINT>
10871710 139 17834385727100915493
11370993 70 18122078751283554968
12553582 1 18125985088917443881
12633257 1 18336540598825704145
13122387 1 18266455584540499033
13140716 1 18339063948373946779
13402501 40 17404018622341568287
13773456 30 18268729348791368101
13965767 371 18264465369615070816
14114207 22 15045853136349384849
14117953 113 18337387133038251349
14931854 50 16608846839693848925
17093844 170 17045704301636507596
19026451 147 16529765578363160494
19930381 70 17619067669787468177
20621476 13 17619073166770340973
20715895 44 18270413792816013309
22113638 7 18048879598399505327
22749437 52 18337676428865525441
238 59 18121234326843708861
238918 7 17329735599932342978
3052486 1 17545045905363350408
463206 1 16172837677263839867
6443956 14 17186440685890302932
7471813 234 16672755987539334358

> <PUBCHEM_SHAPE_MULTIPOLES>
486.68
6.45
5.73
1.49
0.08
1.52
-0.12
-2.23
-2.54
-1.54
2.2
-0.31
0.18
0.39

> <PUBCHEM_SHAPE_SELFOVERLAP>
1024.805

> <PUBCHEM_SHAPE_VOLUME>
276.1

> <PUBCHEM_COORDINATE_TYPE>
2
5
10

$$$$

