248932
  -OEChem-07051213062D

 49 52  0     1  0  0  0  0  0999 V2000
    2.0000   -2.1314    0.0000 O   0  0  0  0  0  0  0  0  0  0  0  0
    5.6610   -0.0791    0.0000 C   0  0  1  0  0  0  0  0  0  0  0  0
    6.5271   -0.5791    0.0000 C   0  0  2  0  0  0  0  0  0  0  0  0
    7.3931   -0.0791    0.0000 C   0  0  0  0  0  0  0  0  0  0  0  0
    8.3393    1.2257    0.0000 C   0  0  1  0  0  0  0  0  0  0  0  0
    4.7510   -0.5859    0.0000 C   0  0  2  0  0  0  0  0  0  0  0  0
    7.3931    0.9209    0.0000 C   0  0  0  0  0  0  0  0  0  0  0  0
    5.6610    0.9209    0.0000 C   0  0  0  0  0  0  0  0  0  0  0  0
    6.5271    1.4209    0.0000 C   0  0  0  0  0  0  0  0  0  0  0  0
    6.5431   -1.6206    0.0000 C   0  0  0  0  0  0  0  0  0  0  0  0
    8.3393   -0.3838    0.0000 C   0  0  0  0  0  0  0  0  0  0  0  0
    8.9229    0.4209    0.0000 C   0  0  0  0  0  0  0  0  0  0  0  0
    4.7430   -1.6275    0.0000 C   0  0  0  0  0  0  0  0  0  0  0  0
    5.6451   -2.1483    0.0000 C   0  0  0  0  0  0  0  0  0  0  0  0
    3.8242   -0.0218    0.0000 C   0  0  0  0  0  0  0  0  0  0  0  0
    9.1493    1.8120    0.0000 C   0  0  0  0  0  0  0  0  0  0  0  0
    8.0319    2.1772    0.0000 C   0  0  0  0  0  0  0  0  0  0  0  0
    2.8763   -0.5498    0.0000 C   0  0  0  0  0  0  0  0  0  0  0  0
    3.8076   -2.1772    0.0000 C   0  0  0  0  0  0  0  0  0  0  0  0
    2.8680   -1.6348    0.0000 C   0  0  0  0  0  0  0  0  0  0  0  0
   10.0622    1.4037    0.0000 C   0  0  0  0  0  0  0  0  0  0  0  0
    6.3972    0.3459    0.0000 H   0  0  0  0  0  0  0  0  0  0  0  0
    7.2664   -0.9984    0.0000 H   0  0  0  0  0  0  0  0  0  0  0  0
    4.7674    0.2639    0.0000 H   0  0  0  0  0  0  0  0  0  0  0  0
    5.4490    1.5035    0.0000 H   0  0  0  0  0  0  0  0  0  0  0  0
    5.0504    0.8133    0.0000 H   0  0  0  0  0  0  0  0  0  0  0  0
    6.9256    1.8959    0.0000 H   0  0  0  0  0  0  0  0  0  0  0  0
    6.1285    1.8959    0.0000 H   0  0  0  0  0  0  0  0  0  0  0  0
    6.7612   -2.2010    0.0000 H   0  0  0  0  0  0  0  0  0  0  0  0
    7.1523   -1.5051    0.0000 H   0  0  0  0  0  0  0  0  0  0  0  0
    8.0883   -0.9507    0.0000 H   0  0  0  0  0  0  0  0  0  0  0  0
    8.8767   -0.6930    0.0000 H   0  0  0  0  0  0  0  0  0  0  0  0
    9.3838    0.0062    0.0000 H   0  0  0  0  0  0  0  0  0  0  0  0
    9.3838    0.8357    0.0000 H   0  0  0  0  0  0  0  0  0  0  0  0
    5.2478   -2.6243    0.0000 H   0  0  0  0  0  0  0  0  0  0  0  0
    6.0460   -2.6212    0.0000 H   0  0  0  0  0  0  0  0  0  0  0  0
    4.2324    0.4448    0.0000 H   0  0  0  0  0  0  0  0  0  0  0  0
    3.4343    0.4602    0.0000 H   0  0  0  0  0  0  0  0  0  0  0  0
    9.4969    2.3254    0.0000 H   0  0  0  0  0  0  0  0  0  0  0  0
    8.7041    2.2435    0.0000 H   0  0  0  0  0  0  0  0  0  0  0  0
    8.6219    2.3678    0.0000 H   0  0  0  0  0  0  0  0  0  0  0  0
    7.8414    2.7672    0.0000 H   0  0  0  0  0  0  0  0  0  0  0  0
    7.4420    1.9867    0.0000 H   0  0  0  0  0  0  0  0  0  0  0  0
    2.6718    0.0355    0.0000 H   0  0  0  0  0  0  0  0  0  0  0  0
    2.2647   -0.6512    0.0000 H   0  0  0  0  0  0  0  0  0  0  0  0
    3.8100   -2.7972    0.0000 H   0  0  0  0  0  0  0  0  0  0  0  0
    9.8090    0.8378    0.0000 H   0  0  0  0  0  0  0  0  0  0  0  0
   10.6281    1.1506    0.0000 H   0  0  0  0  0  0  0  0  0  0  0  0
   10.3153    1.9697    0.0000 H   0  0  0  0  0  0  0  0  0  0  0  0
  1 20  2  0  0  0  0
  2  3  1  0  0  0  0
  2  6  1  0  0  0  0
  2  8  1  0  0  0  0
  2 22  1  6  0  0  0
  3  4  1  0  0  0  0
  3 10  1  0  0  0  0
  3 23  1  1  0  0  0
  4  7  2  0  0  0  0
  4 11  1  0  0  0  0
  5  7  1  0  0  0  0
  5 12  1  0  0  0  0
  5 16  1  0  0  0  0
  5 17  1  1  0  0  0
  6 13  1  0  0  0  0
  6 15  1  0  0  0  0
  6 24  1  1  0  0  0
  7  9  1  0  0  0  0
  8  9  1  0  0  0  0
  8 25  1  0  0  0  0
  8 26  1  0  0  0  0
  9 27  1  0  0  0  0
  9 28  1  0  0  0  0
 10 14  1  0  0  0  0
 10 29  1  0  0  0  0
 10 30  1  0  0  0  0
 11 12  1  0  0  0  0
 11 31  1  0  0  0  0
 11 32  1  0  0  0  0
 12 33  1  0  0  0  0
 12 34  1  0  0  0  0
 13 14  1  0  0  0  0
 13 19  2  0  0  0  0
 14 35  1  0  0  0  0
 14 36  1  0  0  0  0
 15 18  1  0  0  0  0
 15 37  1  0  0  0  0
 15 38  1  0  0  0  0
 16 21  1  0  0  0  0
 16 39  1  0  0  0  0
 16 40  1  0  0  0  0
 17 41  1  0  0  0  0
 17 42  1  0  0  0  0
 17 43  1  0  0  0  0
 18 20  1  0  0  0  0
 18 44  1  0  0  0  0
 18 45  1  0  0  0  0
 19 20  1  0  0  0  0
 19 46  1  0  0  0  0
 21 47  1  0  0  0  0
 21 48  1  0  0  0  0
 21 49  1  0  0  0  0
M  END
> <PUBCHEM_COMPOUND_CID>
248932

> <PUBCHEM_COMPOUND_CANONICALIZED>
1

> <PUBCHEM_CACTVS_COMPLEXITY>
538

> <PUBCHEM_CACTVS_HBOND_ACCEPTOR>
1

> <PUBCHEM_CACTVS_HBOND_DONOR>
0

> <PUBCHEM_CACTVS_ROTATABLE_BOND>
1

> <PUBCHEM_CACTVS_SUBSKEYS>
AAADceB4IAAAAAAAAAAAAAAAAAAAAQAAAAAwQIAAAAAAAGCAAAAAGgAAAAAADwSAgAACAAAAAACIAqBSAAAAAAAgAAAACAEAAEgAABIAAQAAAAAAgAAIAQMIiMCPgAAAAAAAAAAAAAQAACAAAAAAAAAAAA==

> <PUBCHEM_IUPAC_OPENEYE_NAME>
(8R,9R,10R,17R)-17-ethyl-17-methyl-2,6,7,8,9,10,11,12,15,16-decahydro-1H-cyclopenta[a]phenanthren-3-one

> <PUBCHEM_IUPAC_CAS_NAME>
(8R,9R,10R,17R)-17-ethyl-17-methyl-2,6,7,8,9,10,11,12,15,16-decahydro-1H-cyclopenta[a]phenanthren-3-one

> <PUBCHEM_IUPAC_NAME>
(8R,9R,10R,17R)-17-ethyl-17-methyl-2,6,7,8,9,10,11,12,15,16-decahydro-1H-cyclopenta[a]phenanthren-3-one

> <PUBCHEM_IUPAC_SYSTEMATIC_NAME>
(8R,9R,10R,17R)-17-ethyl-17-methyl-2,6,7,8,9,10,11,12,15,16-decahydro-1H-cyclopenta[a]phenanthren-3-one

> <PUBCHEM_IUPAC_TRADITIONAL_NAME>
(8R,9R,10R,17R)-17-ethyl-17-methyl-2,6,7,8,9,10,11,12,15,16-decahydro-1H-cyclopenta[a]phenanthren-3-one

> <PUBCHEM_IUPAC_INCHI>
InChI=1S/C20H28O/c1-3-20(2)11-10-18-17-6-4-13-12-14(21)5-7-15(13)16(17)8-9-19(18)20/h12,15-17H,3-11H2,1-2H3/t15-,16+,17+,20+/m0/s1

> <PUBCHEM_IUPAC_INCHIKEY>
HYLSPEVBFQROOR-TVKQPGBESA-N

> <PUBCHEM_XLOGP3_AA>
3.9

> <PUBCHEM_EXACT_MASS>
284.214016

> <PUBCHEM_MOLECULAR_FORMULA>
C20H28O

> <PUBCHEM_MOLECULAR_WEIGHT>
284.43572

> <PUBCHEM_OPENEYE_CAN_SMILES>
CCC1(CCC2=C1CCC3C2CCC4=CC(=O)CCC34)C

> <PUBCHEM_OPENEYE_ISO_SMILES>
CC[C@@]1(CCC2=C1CC[C@H]3[C@H]2CCC4=CC(=O)CC[C@H]34)C

> <PUBCHEM_CACTVS_TPSA>
17.1

> <PUBCHEM_MONOISOTOPIC_WEIGHT>
284.214016

> <PUBCHEM_TOTAL_CHARGE>
0

> <PUBCHEM_HEAVY_ATOM_COUNT>
21

> <PUBCHEM_ATOM_DEF_STEREO_COUNT>
4

> <PUBCHEM_ATOM_UDEF_STEREO_COUNT>
0

> <PUBCHEM_BOND_DEF_STEREO_COUNT>
0

> <PUBCHEM_BOND_UDEF_STEREO_COUNT>
0

> <PUBCHEM_ISOTOPIC_ATOM_COUNT>
0

> <PUBCHEM_COMPONENT_COUNT>
1

> <PUBCHEM_CACTVS_TAUTO_COUNT>
8

> <PUBCHEM_COORDINATE_TYPE>
1
5
255

> <PUBCHEM_BONDANNOTATIONS>
2  22  6
3  23  5
5  17  5
6  24  5

$$$$

