5462259
  -OEChem-07051212493D

 22 21  0     1  0  0  0  0  0999 V2000
   -2.8010    0.3022    1.1095 O   0  0  0  0  0  0  0  0  0  0  0  0
    0.6618    1.2523   -1.2352 O   0  0  0  0  0  0  0  0  0  0  0  0
   -1.8400    1.8618   -0.2232 O   0  0  0  0  0  0  0  0  0  0  0  0
    2.9870    0.8743   -0.3781 O   0  0  0  0  0  0  0  0  0  0  0  0
    2.1820   -0.3746    1.3714 O   0  0  0  0  0  0  0  0  0  0  0  0
   -0.8125   -1.4969   -0.1236 C   0  0  0  0  0  0  0  0  0  0  0  0
   -0.5264   -0.0833    0.4439 C   0  0  1  0  0  0  0  0  0  0  0  0
    0.3370   -2.4721    0.1474 C   0  0  0  0  0  0  0  0  0  0  0  0
   -1.1489   -1.4887   -1.6187 C   0  0  0  0  0  0  0  0  0  0  0  0
    0.6857    0.5512   -0.2333 C   0  0  0  0  0  0  0  0  0  0  0  0
   -1.7659    0.8031    0.3874 C   0  0  0  0  0  0  0  0  0  0  0  0
    2.0412    0.2706    0.3525 C   0  0  0  0  0  0  0  0  0  0  0  0
   -1.6927   -1.8971    0.3971 H   0  0  0  0  0  0  0  0  0  0  0  0
   -0.2937   -0.1555    1.5150 H   0  0  0  0  0  0  0  0  0  0  0  0
    1.2303   -2.2325   -0.4369 H   0  0  0  0  0  0  0  0  0  0  0  0
    0.5969   -2.4894    1.2104 H   0  0  0  0  0  0  0  0  0  0  0  0
    0.0387   -3.4901   -0.1285 H   0  0  0  0  0  0  0  0  0  0  0  0
   -0.2966   -1.1659   -2.2250 H   0  0  0  0  0  0  0  0  0  0  0  0
   -1.4285   -2.4940   -1.9527 H   0  0  0  0  0  0  0  0  0  0  0  0
   -1.9927   -0.8258   -1.8337 H   0  0  0  0  0  0  0  0  0  0  0  0
   -3.5898    0.8840    1.0699 H   0  0  0  0  0  0  0  0  0  0  0  0
    3.8861    0.7334   -0.0120 H   0  0  0  0  0  0  0  0  0  0  0  0
  1 11  1  0  0  0  0
  1 21  1  0  0  0  0
  2 10  2  0  0  0  0
  3 11  2  0  0  0  0
  4 12  1  0  0  0  0
  4 22  1  0  0  0  0
  5 12  2  0  0  0  0
  6  7  1  0  0  0  0
  6  8  1  0  0  0  0
  6  9  1  0  0  0  0
  6 13  1  0  0  0  0
  7 10  1  0  0  0  0
  7 11  1  0  0  0  0
  7 14  1  0  0  0  0
  8 15  1  0  0  0  0
  8 16  1  0  0  0  0
  8 17  1  0  0  0  0
  9 18  1  0  0  0  0
  9 19  1  0  0  0  0
  9 20  1  0  0  0  0
 10 12  1  0  0  0  0
M  END
> <PUBCHEM_COMPOUND_CID>
5462259

> <PUBCHEM_CONFORMER_RMSD>
0.6

> <PUBCHEM_CONFORMER_DIVERSEORDER>
1
15
14
20
22
5
10
18
19
8
21
4
12
17
11
13
3
6
16
9
7
2

> <PUBCHEM_MMFF94_PARTIAL_CHARGES>
11
1 -0.65
10 0.51
11 0.66
12 0.72
2 -0.57
21 0.5
22 0.5
3 -0.57
4 -0.65
5 -0.57
7 0.12

> <PUBCHEM_EFFECTIVE_ROTOR_COUNT>
4

> <PUBCHEM_PHARMACOPHORE_FEATURES>
9
1 1 acceptor
1 2 acceptor
1 3 acceptor
1 4 acceptor
1 5 acceptor
1 7 anion
3 1 3 11 anion
3 4 5 12 anion
3 6 8 9 hydrophobe

> <PUBCHEM_HEAVY_ATOM_COUNT>
12

> <PUBCHEM_ATOM_DEF_STEREO_COUNT>
1

> <PUBCHEM_ATOM_UDEF_STEREO_COUNT>
0

> <PUBCHEM_BOND_DEF_STEREO_COUNT>
0

> <PUBCHEM_BOND_UDEF_STEREO_COUNT>
0

> <PUBCHEM_ISOTOPIC_ATOM_COUNT>
0

> <PUBCHEM_COMPONENT_COUNT>
1

> <PUBCHEM_CACTVS_TAUTO_COUNT>
3

> <PUBCHEM_CONFORMER_ID>
005358F300000001

> <PUBCHEM_MMFF94_ENERGY>
19.5914

> <PUBCHEM_FEATURE_SELFOVERLAP>
46.047

> <PUBCHEM_SHAPE_FINGERPRINT>
1 1 18118114999096311679
10702982 57 18116452481633034431
12138202 97 17603581911297107500
12423570 1 16247644213379323027
15775835 57 18259979388175435785
16945 1 18339923830574579851
18185500 45 17766283076546483202
20511035 2 17833555969642380837
20653085 51 14706921839288234257
20871998 184 18043798797642510599
21040471 1 18334295404703049936
21930827 45 17603584093061222882
2748010 2 18052533567327199677
276578 36 18115008814455139187
5084963 1 18190158226516009771
528862 383 18268430320309088219
54338 74 18048330954596901447
81228 2 17971483892166717763

> <PUBCHEM_SHAPE_MULTIPOLES>
217.61
3.25
2.07
1.2
1.14
1.03
0.19
-1.29
-0.64
-0.68
0.31
-0.11
0.14
-0.58

> <PUBCHEM_SHAPE_SELFOVERLAP>
427.433

> <PUBCHEM_SHAPE_VOLUME>
129.1

> <PUBCHEM_COORDINATE_TYPE>
2
5
10

$$$$

