53297388
  -OEChem-07051213122D

 43 45  0     0  0  0  0  0  0999 V2000
    6.4144    2.4329    0.0000 O   0  0  0  0  0  0  0  0  0  0  0  0
    4.6660    2.3983    0.0000 O   0  0  0  0  0  0  0  0  0  0  0  0
    2.9176    2.4329    0.0000 O   0  0  0  0  0  0  0  0  0  0  0  0
    8.1923    2.4225    0.0000 O   0  0  0  0  0  0  0  0  0  0  0  0
    9.0564   -2.1291    0.0000 O   0  0  0  0  0  0  0  0  0  0  0  0
    7.3244   -2.1225    0.0000 O   0  0  0  0  0  0  0  0  0  0  0  0
    9.9243    2.4292    0.0000 O   0  0  0  0  0  0  0  0  0  0  0  0
    5.5321   -0.1017    0.0000 C   0  0  0  0  0  0  0  0  0  0  0  0
    4.6660   -0.6017    0.0000 C   0  0  0  0  0  0  0  0  0  0  0  0
    5.5321    0.8983    0.0000 C   0  0  0  0  0  0  0  0  0  0  0  0
    3.8000   -0.1017    0.0000 C   0  0  0  0  0  0  0  0  0  0  0  0
    3.8000    0.8983    0.0000 C   0  0  0  0  0  0  0  0  0  0  0  0
    7.3321   -0.1225    0.0000 C   0  0  0  0  0  0  0  0  0  0  0  0
    6.4260   -0.6363    0.0000 C   0  0  0  0  0  0  0  0  0  0  0  0
    7.3321    0.9192    0.0000 C   0  0  0  0  0  0  0  0  0  0  0  0
    6.4260    1.4330    0.0000 C   0  0  0  0  0  0  0  0  0  0  0  0
    4.6660    1.3983    0.0000 C   0  0  0  0  0  0  0  0  0  0  0  0
    8.1962   -0.6258    0.0000 C   0  0  0  0  0  0  0  0  0  0  0  0
    2.9061   -0.6363    0.0000 C   0  0  0  0  0  0  0  0  0  0  0  0
    2.9061    1.4330    0.0000 C   0  0  0  0  0  0  0  0  0  0  0  0
    8.1962    1.4225    0.0000 C   0  0  0  0  0  0  0  0  0  0  0  0
    2.0000   -0.1225    0.0000 C   0  0  0  0  0  0  0  0  0  0  0  0
    2.0000    0.9192    0.0000 C   0  0  0  0  0  0  0  0  0  0  0  0
    9.0641    0.9258    0.0000 C   0  0  0  0  0  0  0  0  0  0  0  0
    8.1923   -1.6258    0.0000 C   0  0  0  0  0  0  0  0  0  0  0  0
    9.9282    1.4292    0.0000 C   0  0  0  0  0  0  0  0  0  0  0  0
   10.7961    0.9325    0.0000 C   0  0  0  0  0  0  0  0  0  0  0  0
    4.2675   -1.0766    0.0000 H   0  0  0  0  0  0  0  0  0  0  0  0
    5.0646   -1.0766    0.0000 H   0  0  0  0  0  0  0  0  0  0  0  0
    6.4188   -1.2563    0.0000 H   0  0  0  0  0  0  0  0  0  0  0  0
    8.8063   -0.7358    0.0000 H   0  0  0  0  0  0  0  0  0  0  0  0
    8.4105   -0.0440    0.0000 H   0  0  0  0  0  0  0  0  0  0  0  0
    2.9132   -1.2563    0.0000 H   0  0  0  0  0  0  0  0  0  0  0  0
    1.4643   -0.4345    0.0000 H   0  0  0  0  0  0  0  0  0  0  0  0
    1.4643    1.2312    0.0000 H   0  0  0  0  0  0  0  0  0  0  0  0
    8.6674    0.4494    0.0000 H   0  0  0  0  0  0  0  0  0  0  0  0
    9.4645    0.4524    0.0000 H   0  0  0  0  0  0  0  0  0  0  0  0
    6.9478    2.7491    0.0000 H   0  0  0  0  0  0  0  0  0  0  0  0
    2.3843    2.7491    0.0000 H   0  0  0  0  0  0  0  0  0  0  0  0
   10.4882    0.3944    0.0000 H   0  0  0  0  0  0  0  0  0  0  0  0
   11.3343    0.6246    0.0000 H   0  0  0  0  0  0  0  0  0  0  0  0
   11.1041    1.4706    0.0000 H   0  0  0  0  0  0  0  0  0  0  0  0
    9.0540   -2.7491    0.0000 H   0  0  0  0  0  0  0  0  0  0  0  0
  1 16  1  0  0  0  0
  1 38  1  0  0  0  0
  2 17  2  0  0  0  0
  3 20  1  0  0  0  0
  3 39  1  0  0  0  0
  4 21  2  0  0  0  0
  5 25  1  0  0  0  0
  5 43  1  0  0  0  0
  6 25  2  0  0  0  0
  7 26  2  0  0  0  0
  8  9  1  0  0  0  0
  8 10  1  0  0  0  0
  8 14  2  0  0  0  0
  9 11  1  0  0  0  0
  9 28  1  0  0  0  0
  9 29  1  0  0  0  0
 10 16  2  0  0  0  0
 10 17  1  0  0  0  0
 11 12  2  0  0  0  0
 11 19  1  0  0  0  0
 12 17  1  0  0  0  0
 12 20  1  0  0  0  0
 13 14  1  0  0  0  0
 13 15  2  0  0  0  0
 13 18  1  0  0  0  0
 14 30  1  0  0  0  0
 15 16  1  0  0  0  0
 15 21  1  0  0  0  0
 18 25  1  0  0  0  0
 18 31  1  0  0  0  0
 18 32  1  0  0  0  0
 19 22  2  0  0  0  0
 19 33  1  0  0  0  0
 20 23  2  0  0  0  0
 21 24  1  0  0  0  0
 22 23  1  0  0  0  0
 22 34  1  0  0  0  0
 23 35  1  0  0  0  0
 24 26  1  0  0  0  0
 24 36  1  0  0  0  0
 24 37  1  0  0  0  0
 26 27  1  0  0  0  0
 27 40  1  0  0  0  0
 27 41  1  0  0  0  0
 27 42  1  0  0  0  0
M  END
> <PUBCHEM_COMPOUND_CID>
53297388

> <PUBCHEM_COMPOUND_CANONICALIZED>
1

> <PUBCHEM_CACTVS_COMPLEXITY>
642

> <PUBCHEM_CACTVS_HBOND_ACCEPTOR>
7

> <PUBCHEM_CACTVS_HBOND_DONOR>
3

> <PUBCHEM_CACTVS_ROTATABLE_BOND>
5

> <PUBCHEM_CACTVS_SUBSKEYS>
AAADceB4OAAAAAAAAAAAAAAAAAAAAAAAAAAwYMAAAAAAAADBQAAAGgAACAAADASAmAAyDoAAAgCIAqDSCAACAAAkIAAIiAEGCMgIJjaKFRKAcUAk4BEImQeI7vTuwAADAAAYAACAAAYAADAAAAAAAAAAAA==

> <PUBCHEM_IUPAC_OPENEYE_NAME>
2-[4,5-dihydroxy-10-oxo-3-(3-oxobutanoyl)-9H-anthracen-2-yl]acetic acid

> <PUBCHEM_IUPAC_CAS_NAME>
2-[3-(1,3-dioxobutyl)-4,5-dihydroxy-10-oxo-9H-anthracen-2-yl]acetic acid

> <PUBCHEM_IUPAC_NAME>
2-[4,5-dihydroxy-10-oxo-3-(3-oxobutanoyl)-9H-anthracen-2-yl]acetic acid

> <PUBCHEM_IUPAC_SYSTEMATIC_NAME>
2-[4,5-bis(oxidanyl)-10-oxidanylidene-3-(3-oxidanylidenebutanoyl)-9H-anthracen-2-yl]ethanoic acid

> <PUBCHEM_IUPAC_TRADITIONAL_NAME>
2-(3-acetoacetyl-4,5-dihydroxy-10-keto-9H-anthracen-2-yl)acetic acid

> <PUBCHEM_IUPAC_INCHI>
InChI=1S/C20H16O7/c1-9(21)5-14(23)17-12(8-15(24)25)7-11-6-10-3-2-4-13(22)16(10)19(26)18(11)20(17)27/h2-4,7,22,27H,5-6,8H2,1H3,(H,24,25)

> <PUBCHEM_IUPAC_INCHIKEY>
YUGKGSBEHZYJDB-UHFFFAOYSA-N

> <PUBCHEM_XLOGP3_AA>
2.2

> <PUBCHEM_EXACT_MASS>
368.089603

> <PUBCHEM_MOLECULAR_FORMULA>
C20H16O7

> <PUBCHEM_MOLECULAR_WEIGHT>
368.33684

> <PUBCHEM_OPENEYE_CAN_SMILES>
CC(=O)CC(=O)C1=C(C=C2CC3=C(C(=CC=C3)O)C(=O)C2=C1O)CC(=O)O

> <PUBCHEM_OPENEYE_ISO_SMILES>
CC(=O)CC(=O)C1=C(C=C2CC3=C(C(=CC=C3)O)C(=O)C2=C1O)CC(=O)O

> <PUBCHEM_CACTVS_TPSA>
129

> <PUBCHEM_MONOISOTOPIC_WEIGHT>
368.089603

> <PUBCHEM_TOTAL_CHARGE>
0

> <PUBCHEM_HEAVY_ATOM_COUNT>
27

> <PUBCHEM_ATOM_DEF_STEREO_COUNT>
0

> <PUBCHEM_ATOM_UDEF_STEREO_COUNT>
0

> <PUBCHEM_BOND_DEF_STEREO_COUNT>
0

> <PUBCHEM_BOND_UDEF_STEREO_COUNT>
0

> <PUBCHEM_ISOTOPIC_ATOM_COUNT>
0

> <PUBCHEM_COMPONENT_COUNT>
1

> <PUBCHEM_CACTVS_TAUTO_COUNT>
998

> <PUBCHEM_COORDINATE_TYPE>
1
5
255

> <PUBCHEM_BONDANNOTATIONS>
10  16  8
11  12  8
11  19  8
12  20  8
13  14  8
13  15  8
15  16  8
19  22  8
20  23  8
22  23  8
8  10  8
8  14  8

$$$$

