5832
  -OEChem-07051212543D

 53 56  0     1  0  0  0  0  0999 V2000
    3.9268   -0.5148   -0.5887 O   0  0  0  0  0  0  0  0  0  0  0  0
   -6.2540   -0.8932    1.3735 O   0  0  0  0  0  0  0  0  0  0  0  0
    5.4254    0.2102    1.0130 O   0  0  0  0  0  0  0  0  0  0  0  0
    1.4885   -0.1514   -0.5764 C   0  0  1  0  0  0  0  0  0  0  0  0
    0.6380    0.8936    0.1810 C   0  0  2  0  0  0  0  0  0  0  0  0
   -0.7574    1.0734   -0.4224 C   0  0  1  0  0  0  0  0  0  0  0  0
   -1.5080   -0.3018   -0.3778 C   0  0  2  0  0  0  0  0  0  0  0  0
    2.8424   -0.0182    0.1847 C   0  0  2  0  0  0  0  0  0  0  0  0
    0.7676   -1.5097   -0.4935 C   0  0  0  0  0  0  0  0  0  0  0  0
    1.5591    2.1073    0.2712 C   0  0  0  0  0  0  0  0  0  0  0  0
   -0.6760   -1.4325   -1.0253 C   0  0  0  0  0  0  0  0  0  0  0  0
   -2.9156   -0.1302   -1.0102 C   0  0  2  0  0  0  0  0  0  0  0  0
    2.9785    1.5142    0.3869 C   0  0  0  0  0  0  0  0  0  0  0  0
   -1.5628    2.1725    0.2994 C   0  0  0  0  0  0  0  0  0  0  0  0
    1.7064    0.1929   -2.0798 C   0  0  0  0  0  0  0  0  0  0  0  0
   -2.9904    2.2859   -0.2436 C   0  0  0  0  0  0  0  0  0  0  0  0
   -3.6464    0.9319   -0.2077 C   0  0  0  0  0  0  0  0  0  0  0  0
   -3.7607   -1.4060   -1.1449 C   0  0  0  0  0  0  0  0  0  0  0  0
    2.8530   -0.7052    1.4913 C   0  0  0  0  0  0  0  0  0  0  0  0
   -4.4008   -1.8235    0.1674 C   0  0  0  0  0  0  0  0  0  0  0  0
   -4.7281    0.6949    0.5496 C   0  0  0  0  0  0  0  0  0  0  0  0
   -5.2302   -0.6901    0.7243 C   0  0  0  0  0  0  0  0  0  0  0  0
    5.1723   -0.3330   -0.0537 C   0  0  0  0  0  0  0  0  0  0  0  0
    2.8621   -1.2639    2.5538 C   0  0  0  0  0  0  0  0  0  0  0  0
    6.2102   -0.9033   -0.9723 C   0  0  0  0  0  0  0  0  0  0  0  0
    0.4837    0.5456    1.2148 H   0  0  0  0  0  0  0  0  0  0  0  0
   -0.6652    1.3895   -1.4690 H   0  0  0  0  0  0  0  0  0  0  0  0
   -1.6364   -0.5762    0.6805 H   0  0  0  0  0  0  0  0  0  0  0  0
    0.7116   -1.8595    0.5439 H   0  0  0  0  0  0  0  0  0  0  0  0
    1.3240   -2.2752   -1.0477 H   0  0  0  0  0  0  0  0  0  0  0  0
    1.3197    2.7343    1.1364 H   0  0  0  0  0  0  0  0  0  0  0  0
    1.4829    2.7364   -0.6229 H   0  0  0  0  0  0  0  0  0  0  0  0
   -0.6706   -1.3143   -2.1146 H   0  0  0  0  0  0  0  0  0  0  0  0
   -1.1482   -2.4009   -0.8239 H   0  0  0  0  0  0  0  0  0  0  0  0
   -2.7790    0.2488   -2.0335 H   0  0  0  0  0  0  0  0  0  0  0  0
    3.6228    1.9739   -0.3727 H   0  0  0  0  0  0  0  0  0  0  0  0
    3.4038    1.7760    1.3635 H   0  0  0  0  0  0  0  0  0  0  0  0
   -1.0639    3.1418    0.1847 H   0  0  0  0  0  0  0  0  0  0  0  0
   -1.5976    1.9585    1.3757 H   0  0  0  0  0  0  0  0  0  0  0  0
    2.2435    1.1362   -2.2207 H   0  0  0  0  0  0  0  0  0  0  0  0
    2.2959   -0.5898   -2.5718 H   0  0  0  0  0  0  0  0  0  0  0  0
    0.7714    0.2780   -2.6390 H   0  0  0  0  0  0  0  0  0  0  0  0
   -2.9744    2.6565   -1.2756 H   0  0  0  0  0  0  0  0  0  0  0  0
   -3.5460    3.0215    0.3495 H   0  0  0  0  0  0  0  0  0  0  0  0
   -3.1849   -2.2341   -1.5678 H   0  0  0  0  0  0  0  0  0  0  0  0
   -4.5638   -1.2068   -1.8692 H   0  0  0  0  0  0  0  0  0  0  0  0
   -3.6493   -2.1091    0.9106 H   0  0  0  0  0  0  0  0  0  0  0  0
   -5.0583   -2.6820   -0.0075 H   0  0  0  0  0  0  0  0  0  0  0  0
   -5.2194    1.4777    1.1165 H   0  0  0  0  0  0  0  0  0  0  0  0
    2.8699   -1.7595    3.4962 H   0  0  0  0  0  0  0  0  0  0  0  0
    6.1693   -0.3938   -1.9382 H   0  0  0  0  0  0  0  0  0  0  0  0
    6.0458   -1.9767   -1.0953 H   0  0  0  0  0  0  0  0  0  0  0  0
    7.2025   -0.7496   -0.5387 H   0  0  0  0  0  0  0  0  0  0  0  0
  1  8  1  0  0  0  0
  1 23  1  0  0  0  0
  2 22  2  0  0  0  0
  3 23  2  0  0  0  0
  4  5  1  0  0  0  0
  4  8  1  0  0  0  0
  4  9  1  0  0  0  0
  4 15  1  0  0  0  0
  5  6  1  0  0  0  0
  5 10  1  0  0  0  0
  5 26  1  0  0  0  0
  6  7  1  0  0  0  0
  6 14  1  0  0  0  0
  6 27  1  0  0  0  0
  7 11  1  0  0  0  0
  7 12  1  0  0  0  0
  7 28  1  0  0  0  0
  8 13  1  0  0  0  0
  8 19  1  0  0  0  0
  9 11  1  0  0  0  0
  9 29  1  0  0  0  0
  9 30  1  0  0  0  0
 10 13  1  0  0  0  0
 10 31  1  0  0  0  0
 10 32  1  0  0  0  0
 11 33  1  0  0  0  0
 11 34  1  0  0  0  0
 12 17  1  0  0  0  0
 12 18  1  0  0  0  0
 12 35  1  0  0  0  0
 13 36  1  0  0  0  0
 13 37  1  0  0  0  0
 14 16  1  0  0  0  0
 14 38  1  0  0  0  0
 14 39  1  0  0  0  0
 15 40  1  0  0  0  0
 15 41  1  0  0  0  0
 15 42  1  0  0  0  0
 16 17  1  0  0  0  0
 16 43  1  0  0  0  0
 16 44  1  0  0  0  0
 17 21  2  0  0  0  0
 18 20  1  0  0  0  0
 18 45  1  0  0  0  0
 18 46  1  0  0  0  0
 19 24  3  0  0  0  0
 20 22  1  0  0  0  0
 20 47  1  0  0  0  0
 20 48  1  0  0  0  0
 21 22  1  0  0  0  0
 21 49  1  0  0  0  0
 23 25  1  0  0  0  0
 24 50  1  0  0  0  0
 25 51  1  0  0  0  0
 25 52  1  0  0  0  0
 25 53  1  0  0  0  0
M  END
> <PUBCHEM_COMPOUND_CID>
5832

> <PUBCHEM_CONFORMER_RMSD>
0.8

> <PUBCHEM_CONFORMER_DIVERSEORDER>
1
2

> <PUBCHEM_MMFF94_PARTIAL_CHARGES>
16
1 -0.43
12 0.14
16 0.14
17 -0.28
19 -0.2
2 -0.57
20 0.06
21 -0.14
22 0.49
23 0.66
24 -0.18
25 0.06
3 -0.57
49 0.15
50 0.18
8 0.48

> <PUBCHEM_EFFECTIVE_ROTOR_COUNT>
3.8

> <PUBCHEM_PHARMACOPHORE_FEATURES>
7
1 2 acceptor
1 24 hydrophobe
1 3 acceptor
5 4 5 8 10 13 rings
6 12 17 18 20 21 22 rings
6 4 5 6 7 9 11 rings
6 6 7 12 14 16 17 rings

> <PUBCHEM_HEAVY_ATOM_COUNT>
25

> <PUBCHEM_ATOM_DEF_STEREO_COUNT>
6

> <PUBCHEM_ATOM_UDEF_STEREO_COUNT>
0

> <PUBCHEM_BOND_DEF_STEREO_COUNT>
0

> <PUBCHEM_BOND_UDEF_STEREO_COUNT>
0

> <PUBCHEM_ISOTOPIC_ATOM_COUNT>
0

> <PUBCHEM_COMPONENT_COUNT>
1

> <PUBCHEM_CACTVS_TAUTO_COUNT>
8

> <PUBCHEM_CONFORMER_ID>
000016C800000001

> <PUBCHEM_MMFF94_ENERGY>
71.5507

> <PUBCHEM_FEATURE_SELFOVERLAP>
35.632

> <PUBCHEM_SHAPE_FINGERPRINT>
10 15 18334304141426393640
10366900 7 17418092113653338208
10675989 125 16821653540143510105
11089746 13 14707209933284184571
11421498 54 17703792569800830336
11595378 159 18342187703530927640
12035758 1 17603877719318214978
12107183 9 17267240432434816305
12166972 35 17561075878404796900
12236239 1 17988921206386048156
12403259 415 17748834028993270280
12553582 1 18410867555051550895
12596602 18 18059857276883209752
12633257 1 17894633613306662833
12788726 201 18341051925373650841
13140716 1 18190180075162532511
13224815 77 18410015416576472213
13583140 156 17916887775697029533
14178342 30 18117273868622685609
14341114 176 18259701203143823016
14955137 171 18260261945600293736
15196674 1 18261676986683959301
15209289 33 18341895186319944803
15537594 2 18060704974573594883
15788980 27 18411421708943520823
1601671 61 18334579079103923350
17138139 8 17559963104013300923
17349148 13 17632574950584461873
1813 80 17918268779122624693
18927931 339 18408884036359951599
200 152 16057162813117786717
20028762 73 18042128669914696279
20261772 1 18259985951122892687
20715895 44 7492741267775858475
21033648 29 17168724027403417432
21150785 3 16917057838046738774
21267235 1 18409440388679070980
21521721 280 17418084374813133268
22122407 14 14273727426942643147
22182313 1 17895748637892199469
23402539 116 18040443186875287988
23522609 53 18123155044329334348
23557571 272 18040432226488260189
23559900 14 18041565840240658580
2838139 119 13840262637508456467
335352 9 18333731334222484037
350125 39 18334572425862569260
351380 3 18343865506956917323
4340502 62 17489873717920295706
465052 167 18341608204936710915
474 4 5833703612794515492
5104073 3 18188214208163878265
5265222 85 17895470329255763510

> <PUBCHEM_SHAPE_MULTIPOLES>
496.88
12.49
2.02
1.51
0.3
0.72
0.43
-3.85
2.41
-1.26
0.08
0.93
-0.59
0.05

> <PUBCHEM_SHAPE_SELFOVERLAP>
1067.115

> <PUBCHEM_SHAPE_VOLUME>
270.5

> <PUBCHEM_COORDINATE_TYPE>
2
5
10

$$$$

