13913
  -OEChem-06241222402D

 29 30  0     0  0  0  0  0  0999 V2000
    2.0570    0.0526    0.0000 O   0  0  0  0  0  0  0  0  0  0  0  0
    3.5471    2.7262    0.0000 N   0  0  0  0  0  0  0  0  0  0  0  0
    2.3660    1.0036    0.0000 N   0  0  0  0  0  0  0  0  0  0  0  0
    3.9538    1.8126    0.0000 C   0  0  0  0  0  0  0  0  0  0  0  0
    3.3660    1.0036    0.0000 C   0  0  0  0  0  0  0  0  0  0  0  0
    2.8660   -0.5352    0.0000 C   0  0  0  0  0  0  0  0  0  0  0  0
    3.6750    0.0526    0.0000 C   0  0  0  0  0  0  0  0  0  0  0  0
    2.8660   -1.5352    0.0000 C   0  0  0  0  0  0  0  0  0  0  0  0
    4.1349    3.5352    0.0000 C   0  0  0  0  0  0  0  0  0  0  0  0
    2.5526    2.8307    0.0000 C   0  0  0  0  0  0  0  0  0  0  0  0
    2.0000   -2.0352    0.0000 C   0  0  0  0  0  0  0  0  0  0  0  0
    3.7320   -2.0352    0.0000 C   0  0  0  0  0  0  0  0  0  0  0  0
    2.0000   -3.0352    0.0000 C   0  0  0  0  0  0  0  0  0  0  0  0
    3.7320   -3.0352    0.0000 C   0  0  0  0  0  0  0  0  0  0  0  0
    2.8660   -3.5352    0.0000 C   0  0  0  0  0  0  0  0  0  0  0  0
    4.3845    1.3667    0.0000 H   0  0  0  0  0  0  0  0  0  0  0  0
    4.4678    2.1594    0.0000 H   0  0  0  0  0  0  0  0  0  0  0  0
    4.2647   -0.1390    0.0000 H   0  0  0  0  0  0  0  0  0  0  0  0
    4.6364    3.1708    0.0000 H   0  0  0  0  0  0  0  0  0  0  0  0
    4.4993    4.0368    0.0000 H   0  0  0  0  0  0  0  0  0  0  0  0
    3.6333    3.8996    0.0000 H   0  0  0  0  0  0  0  0  0  0  0  0
    2.6174    3.4473    0.0000 H   0  0  0  0  0  0  0  0  0  0  0  0
    1.9360    2.8955    0.0000 H   0  0  0  0  0  0  0  0  0  0  0  0
    2.4877    2.2141    0.0000 H   0  0  0  0  0  0  0  0  0  0  0  0
    1.4631   -1.7252    0.0000 H   0  0  0  0  0  0  0  0  0  0  0  0
    4.2690   -1.7252    0.0000 H   0  0  0  0  0  0  0  0  0  0  0  0
    1.4631   -3.3452    0.0000 H   0  0  0  0  0  0  0  0  0  0  0  0
    4.2690   -3.3452    0.0000 H   0  0  0  0  0  0  0  0  0  0  0  0
    2.8660   -4.1552    0.0000 H   0  0  0  0  0  0  0  0  0  0  0  0
  1  3  1  0  0  0  0
  1  6  1  0  0  0  0
  2  4  1  0  0  0  0
  2  9  1  0  0  0  0
  2 10  1  0  0  0  0
  3  5  2  0  0  0  0
  4  5  1  0  0  0  0
  4 16  1  0  0  0  0
  4 17  1  0  0  0  0
  5  7  1  0  0  0  0
  6  7  2  0  0  0  0
  6  8  1  0  0  0  0
  7 18  1  0  0  0  0
  8 11  2  0  0  0  0
  8 12  1  0  0  0  0
  9 19  1  0  0  0  0
  9 20  1  0  0  0  0
  9 21  1  0  0  0  0
 10 22  1  0  0  0  0
 10 23  1  0  0  0  0
 10 24  1  0  0  0  0
 11 13  1  0  0  0  0
 11 25  1  0  0  0  0
 12 14  2  0  0  0  0
 12 26  1  0  0  0  0
 13 15  2  0  0  0  0
 13 27  1  0  0  0  0
 14 15  1  0  0  0  0
 14 28  1  0  0  0  0
 15 29  1  0  0  0  0
M  END
> <PUBCHEM_COMPOUND_CID>
13913

> <PUBCHEM_COMPOUND_CANONICALIZED>
1

> <PUBCHEM_CACTVS_COMPLEXITY>
190

> <PUBCHEM_CACTVS_HBOND_ACCEPTOR>
3

> <PUBCHEM_CACTVS_HBOND_DONOR>
0

> <PUBCHEM_CACTVS_ROTATABLE_BOND>
3

> <PUBCHEM_CACTVS_SUBSKEYS>
AAADccBzIAAAAAAAAAAAAAAAAAAAAWAAAAAwAAAAAAAAAAABwAAAHgAEAAAADAzBngQyhJMQAACpA6RyQgCCAAAkIgAomCE+bNoIZjqAlZOUMYhmwBkIyce8yKCOAAAAAAAAAAAAAAAAAAAAAAAAAAAAAA==

> <PUBCHEM_IUPAC_OPENEYE_NAME>
N,N-dimethyl-1-(5-phenylisoxazol-3-yl)methanamine

> <PUBCHEM_IUPAC_CAS_NAME>
N,N-dimethyl-1-(5-phenyl-3-isoxazolyl)methanamine

> <PUBCHEM_IUPAC_NAME>
N,N-dimethyl-1-(5-phenyl-1,2-oxazol-3-yl)methanamine

> <PUBCHEM_IUPAC_SYSTEMATIC_NAME>
N,N-dimethyl-1-(5-phenyl-1,2-oxazol-3-yl)methanamine

> <PUBCHEM_IUPAC_TRADITIONAL_NAME>
dimethyl-[(5-phenylisoxazol-3-yl)methyl]amine

> <PUBCHEM_IUPAC_INCHI>
InChI=1S/C12H14N2O/c1-14(2)9-11-8-12(15-13-11)10-6-4-3-5-7-10/h3-8H,9H2,1-2H3

> <PUBCHEM_IUPAC_INCHIKEY>
UWMXSCVXWHUWDH-UHFFFAOYSA-N

> <PUBCHEM_XLOGP3_AA>
1.9

> <PUBCHEM_EXACT_MASS>
202.110613

> <PUBCHEM_MOLECULAR_FORMULA>
C12H14N2O

> <PUBCHEM_MOLECULAR_WEIGHT>
202.25236

> <PUBCHEM_OPENEYE_CAN_SMILES>
CN(C)CC1=NOC(=C1)C2=CC=CC=C2

> <PUBCHEM_OPENEYE_ISO_SMILES>
CN(C)CC1=NOC(=C1)C2=CC=CC=C2

> <PUBCHEM_CACTVS_TPSA>
29.3

> <PUBCHEM_MONOISOTOPIC_WEIGHT>
202.110613

> <PUBCHEM_TOTAL_CHARGE>
0

> <PUBCHEM_HEAVY_ATOM_COUNT>
15

> <PUBCHEM_ATOM_DEF_STEREO_COUNT>
0

> <PUBCHEM_ATOM_UDEF_STEREO_COUNT>
0

> <PUBCHEM_BOND_DEF_STEREO_COUNT>
0

> <PUBCHEM_BOND_UDEF_STEREO_COUNT>
0

> <PUBCHEM_ISOTOPIC_ATOM_COUNT>
0

> <PUBCHEM_COMPONENT_COUNT>
1

> <PUBCHEM_CACTVS_TAUTO_COUNT>
1

> <PUBCHEM_COORDINATE_TYPE>
1
5
255

> <PUBCHEM_BONDANNOTATIONS>
1  3  8
1  6  8
11  13  8
12  14  8
13  15  8
14  15  8
3  5  8
5  7  8
6  7  8
8  11  8
8  12  8

$$$$

