440460
  -OEChem-07051212493D

 78 81  0     1  0  0  0  0  0999 V2000
   -0.5143   -1.1683    1.1093 O   0  0  0  0  0  0  0  0  0  0  0  0
   -3.0636    3.0716    0.4423 O   0  0  0  0  0  0  0  0  0  0  0  0
   -6.5586    0.1263    2.2801 O   0  0  0  0  0  0  0  0  0  0  0  0
    8.2256   -1.7473   -0.8252 O   0  0  0  0  0  0  0  0  0  0  0  0
    7.7314   -1.7874    1.3863 O   0  0  0  0  0  0  0  0  0  0  0  0
    0.1013    0.1559   -0.8789 C   0  0  1  0  0  0  0  0  0  0  0  0
   -0.9749    1.2867   -0.7277 C   0  0  1  0  0  0  0  0  0  0  0  0
   -2.3536    0.8221   -0.1732 C   0  0  2  0  0  0  0  0  0  0  0  0
   -2.8170   -0.4717   -0.8967 C   0  0  2  0  0  0  0  0  0  0  0  0
   -4.2625   -0.9668   -0.4907 C   0  0  2  0  0  0  0  0  0  0  0  0
    1.3453    0.7006   -0.1028 C   0  0  2  0  0  0  0  0  0  0  0  0
   -0.3879   -1.1961   -0.3140 C   0  0  2  0  0  0  0  0  0  0  0  0
   -1.7520   -1.6032   -0.8698 C   0  0  0  0  0  0  0  0  0  0  0  0
   -5.2767    0.2139   -0.6065 C   0  0  2  0  0  0  0  0  0  0  0  0
   -0.2939    2.3917    0.0985 C   0  0  0  0  0  0  0  0  0  0  0  0
   -3.4160    1.9310   -0.3369 C   0  0  1  0  0  0  0  0  0  0  0  0
    1.1902    2.2150   -0.1732 C   0  0  0  0  0  0  0  0  0  0  0  0
   -4.7924    1.4730    0.1248 C   0  0  0  0  0  0  0  0  0  0  0  0
   -4.3099   -1.5271    0.9591 C   0  0  0  0  0  0  0  0  0  0  0  0
    0.4096   -0.0168   -2.3883 C   0  0  0  0  0  0  0  0  0  0  0  0
    2.7116    0.2260   -0.5796 C   0  0  1  0  0  0  0  0  0  0  0  0
   -6.6980   -0.1686   -0.1308 C   0  0  0  0  0  0  0  0  0  0  0  0
   -4.6731   -2.0845   -1.4907 C   0  0  0  0  0  0  0  0  0  0  0  0
   -5.7157   -1.9419    1.4104 C   0  0  0  0  0  0  0  0  0  0  0  0
   -6.7520   -0.8354    1.2465 C   0  0  1  0  0  0  0  0  0  0  0  0
    3.8705    0.8047    0.2583 C   0  0  0  0  0  0  0  0  0  0  0  0
    2.7701   -1.3047   -0.5424 C   0  0  0  0  0  0  0  0  0  0  0  0
    5.2501    0.3128   -0.1910 C   0  0  0  0  0  0  0  0  0  0  0  0
    6.4055    0.8732    0.6511 C   0  0  0  0  0  0  0  0  0  0  0  0
    7.8025    0.3575    0.2734 C   0  0  1  0  0  0  0  0  0  0  0  0
    8.8882    1.0126    1.1267 C   0  0  0  0  0  0  0  0  0  0  0  0
    7.9104   -1.1547    0.3520 C   0  0  0  0  0  0  0  0  0  0  0  0
   -1.1599    1.7196   -1.7221 H   0  0  0  0  0  0  0  0  0  0  0  0
   -2.2383    0.6209    0.8991 H   0  0  0  0  0  0  0  0  0  0  0  0
   -2.8975   -0.1840   -1.9581 H   0  0  0  0  0  0  0  0  0  0  0  0
    1.2525    0.4307    0.9587 H   0  0  0  0  0  0  0  0  0  0  0  0
    0.2964   -2.0140   -0.5355 H   0  0  0  0  0  0  0  0  0  0  0  0
   -2.1052   -2.4696   -0.3044 H   0  0  0  0  0  0  0  0  0  0  0  0
   -1.6250   -1.9672   -1.8981 H   0  0  0  0  0  0  0  0  0  0  0  0
   -5.3625    0.4850   -1.6690 H   0  0  0  0  0  0  0  0  0  0  0  0
   -0.6248    3.3929   -0.1937 H   0  0  0  0  0  0  0  0  0  0  0  0
   -0.4949    2.2612    1.1686 H   0  0  0  0  0  0  0  0  0  0  0  0
   -3.4695    2.2535   -1.3833 H   0  0  0  0  0  0  0  0  0  0  0  0
    1.4546    2.6060   -1.1623 H   0  0  0  0  0  0  0  0  0  0  0  0
    1.7859    2.7417    0.5780 H   0  0  0  0  0  0  0  0  0  0  0  0
   -4.7626    1.3235    1.2088 H   0  0  0  0  0  0  0  0  0  0  0  0
   -5.5075    2.2919   -0.0298 H   0  0  0  0  0  0  0  0  0  0  0  0
   -3.9192   -0.7870    1.6666 H   0  0  0  0  0  0  0  0  0  0  0  0
   -3.6650   -2.4059    1.0612 H   0  0  0  0  0  0  0  0  0  0  0  0
    1.0401   -0.8724   -2.6284 H   0  0  0  0  0  0  0  0  0  0  0  0
   -0.5155   -0.1587   -2.9598 H   0  0  0  0  0  0  0  0  0  0  0  0
    0.8874    0.8783   -2.8023 H   0  0  0  0  0  0  0  0  0  0  0  0
    2.8805    0.5458   -1.6153 H   0  0  0  0  0  0  0  0  0  0  0  0
   -7.1454   -0.8484   -0.8654 H   0  0  0  0  0  0  0  0  0  0  0  0
   -7.3285    0.7297   -0.1253 H   0  0  0  0  0  0  0  0  0  0  0  0
   -4.0357   -2.9693   -1.3954 H   0  0  0  0  0  0  0  0  0  0  0  0
   -4.5955   -1.7293   -2.5248 H   0  0  0  0  0  0  0  0  0  0  0  0
   -5.7013   -2.4273   -1.3495 H   0  0  0  0  0  0  0  0  0  0  0  0
   -5.6615   -2.2536    2.4608 H   0  0  0  0  0  0  0  0  0  0  0  0
   -6.0342   -2.8233    0.8422 H   0  0  0  0  0  0  0  0  0  0  0  0
   -7.7552   -1.2510    1.3960 H   0  0  0  0  0  0  0  0  0  0  0  0
   -0.7568   -2.0621    1.4055 H   0  0  0  0  0  0  0  0  0  0  0  0
    3.7235    0.5487    1.3153 H   0  0  0  0  0  0  0  0  0  0  0  0
    3.8647    1.8987    0.1940 H   0  0  0  0  0  0  0  0  0  0  0  0
   -2.9964    2.7928    1.3715 H   0  0  0  0  0  0  0  0  0  0  0  0
    2.5582   -1.6882    0.4616 H   0  0  0  0  0  0  0  0  0  0  0  0
    2.1082   -1.7918   -1.2516 H   0  0  0  0  0  0  0  0  0  0  0  0
    3.7464   -1.6919   -0.8413 H   0  0  0  0  0  0  0  0  0  0  0  0
    5.3108   -0.7740   -0.1087 H   0  0  0  0  0  0  0  0  0  0  0  0
    5.4094    0.5711   -1.2446 H   0  0  0  0  0  0  0  0  0  0  0  0
   -6.6628   -0.3296    3.1326 H   0  0  0  0  0  0  0  0  0  0  0  0
    6.2110    0.6357    1.7054 H   0  0  0  0  0  0  0  0  0  0  0  0
    6.3955    1.9678    0.5726 H   0  0  0  0  0  0  0  0  0  0  0  0
    7.9900    0.6435   -0.7703 H   0  0  0  0  0  0  0  0  0  0  0  0
    9.8803    0.6476    0.8395 H   0  0  0  0  0  0  0  0  0  0  0  0
    8.7483    0.7846    2.1891 H   0  0  0  0  0  0  0  0  0  0  0  0
    8.8776    2.1006    1.0059 H   0  0  0  0  0  0  0  0  0  0  0  0
    8.2874   -2.7226   -0.7394 H   0  0  0  0  0  0  0  0  0  0  0  0
  1 12  1  0  0  0  0
  1 62  1  0  0  0  0
  2 16  1  0  0  0  0
  2 65  1  0  0  0  0
  3 25  1  0  0  0  0
  3 71  1  0  0  0  0
  4 32  1  0  0  0  0
  4 78  1  0  0  0  0
  5 32  2  0  0  0  0
  6  7  1  0  0  0  0
  6 11  1  0  0  0  0
  6 12  1  0  0  0  0
  6 20  1  0  0  0  0
  7  8  1  0  0  0  0
  7 15  1  0  0  0  0
  7 33  1  0  0  0  0
  8  9  1  0  0  0  0
  8 16  1  0  0  0  0
  8 34  1  0  0  0  0
  9 10  1  0  0  0  0
  9 13  1  0  0  0  0
  9 35  1  0  0  0  0
 10 14  1  0  0  0  0
 10 19  1  0  0  0  0
 10 23  1  0  0  0  0
 11 17  1  0  0  0  0
 11 21  1  0  0  0  0
 11 36  1  0  0  0  0
 12 13  1  0  0  0  0
 12 37  1  0  0  0  0
 13 38  1  0  0  0  0
 13 39  1  0  0  0  0
 14 18  1  0  0  0  0
 14 22  1  0  0  0  0
 14 40  1  0  0  0  0
 15 17  1  0  0  0  0
 15 41  1  0  0  0  0
 15 42  1  0  0  0  0
 16 18  1  0  0  0  0
 16 43  1  0  0  0  0
 17 44  1  0  0  0  0
 17 45  1  0  0  0  0
 18 46  1  0  0  0  0
 18 47  1  0  0  0  0
 19 24  1  0  0  0  0
 19 48  1  0  0  0  0
 19 49  1  0  0  0  0
 20 50  1  0  0  0  0
 20 51  1  0  0  0  0
 20 52  1  0  0  0  0
 21 26  1  0  0  0  0
 21 27  1  0  0  0  0
 21 53  1  0  0  0  0
 22 25  1  0  0  0  0
 22 54  1  0  0  0  0
 22 55  1  0  0  0  0
 23 56  1  0  0  0  0
 23 57  1  0  0  0  0
 23 58  1  0  0  0  0
 24 25  1  0  0  0  0
 24 59  1  0  0  0  0
 24 60  1  0  0  0  0
 25 61  1  0  0  0  0
 26 28  1  0  0  0  0
 26 63  1  0  0  0  0
 26 64  1  0  0  0  0
 27 66  1  0  0  0  0
 27 67  1  0  0  0  0
 27 68  1  0  0  0  0
 28 29  1  0  0  0  0
 28 69  1  0  0  0  0
 28 70  1  0  0  0  0
 29 30  1  0  0  0  0
 29 72  1  0  0  0  0
 29 73  1  0  0  0  0
 30 31  1  0  0  0  0
 30 32  1  0  0  0  0
 30 74  1  0  0  0  0
 31 75  1  0  0  0  0
 31 76  1  0  0  0  0
 31 77  1  0  0  0  0
M  END
> <PUBCHEM_COMPOUND_CID>
440460

> <PUBCHEM_CONFORMER_RMSD>
1

> <PUBCHEM_CONFORMER_DIVERSEORDER>
4
196
7
31
194
76
145
72
199
32
198
81
129
143
19
39
77
120
197
127
41
164
65
15
189
35
71
106
114
67
51
87
195
172
85
123
113
21
153
190
29
73
141
116
122
98
36
24
38
124
57
37
84
125
18
58
74
137
60
154
42
193
97
130
162
188
119
150
20
91
117
90
109
22
53
10
187
144
34
168
126
40
111
149
158
138
167
44
70
28
45
9
191
152
160
46
192
63
182
155
104
83
25
59
66
30
94
105
180
43
75
112
175
107
12
50
68
103
56
139
3
135
157
62
159
86
142
101
82
133
16
54
128
184
146
171
47
79
95
2
178
186
110
166
89
92
48
132
33
151
165
102
108
80
156
121
17
140
11
176
131
5
26
163
161
49
8
181
88
148
136
170
177
147
93
183
55
173
64
115
134
174
52
69
6
179
23
13
99
185
14
61
96
100
1
27
118
78
169

> <PUBCHEM_MMFF94_PARTIAL_CHARGES>
14
1 -0.68
12 0.28
16 0.28
2 -0.68
25 0.28
3 -0.68
30 0.06
32 0.66
4 -0.65
5 -0.57
62 0.4
65 0.4
71 0.4
78 0.5

> <PUBCHEM_EFFECTIVE_ROTOR_COUNT>
8.2

> <PUBCHEM_PHARMACOPHORE_FEATURES>
16
1 1 acceptor
1 1 donor
1 2 acceptor
1 2 donor
1 27 hydrophobe
1 3 acceptor
1 3 donor
1 31 hydrophobe
1 4 acceptor
1 5 acceptor
3 4 5 32 anion
5 21 26 28 29 30 hydrophobe
5 6 7 11 15 17 rings
6 10 14 19 22 24 25 rings
6 6 7 8 9 12 13 rings
6 8 9 10 14 16 18 rings

> <PUBCHEM_HEAVY_ATOM_COUNT>
32

> <PUBCHEM_ATOM_DEF_STEREO_COUNT>
7

> <PUBCHEM_ATOM_UDEF_STEREO_COUNT>
5

> <PUBCHEM_BOND_DEF_STEREO_COUNT>
0

> <PUBCHEM_BOND_UDEF_STEREO_COUNT>
0

> <PUBCHEM_ISOTOPIC_ATOM_COUNT>
0

> <PUBCHEM_COMPONENT_COUNT>
1

> <PUBCHEM_CACTVS_TAUTO_COUNT>
1

> <PUBCHEM_CONFORMER_ID>
0006B88C00000004

> <PUBCHEM_MMFF94_ENERGY>
114.0461

> <PUBCHEM_FEATURE_SELFOVERLAP>
81.376

> <PUBCHEM_SHAPE_FINGERPRINT>
10 15 18260267434911090452
10076449 9 15410894050381591086
10299344 5 18343585144983118334
10319926 262 18115042861130451568
11135926 11 18412553127757303727
11315181 36 18060138721579007765
11524674 6 16732709333366924814
12082328 90 12607412104132585994
12166972 35 17632576033581171324
12236239 1 17704351043876031780
13140716 1 18191296080134378343
13782708 43 17561092406092708620
13811026 1 18261394481178744500
13914758 101 6338954465008758122
14251764 18 18407761430772093900
14849402 71 18263924324533753776
14856354 85 18335702685261379895
15183329 4 18334018306894353098
15461852 350 11239993447669039145
16994733 274 5328749556338513126
18608769 82 18410855438832952954
19611394 137 18341324492397973696
21130935 74 17895761686646734158
21150785 3 13542466462570618218
21267235 1 18413668007125801780
23559900 14 18267030461613294296
23576562 1 7565045164876068515
3178227 256 18187081733485044224
335352 9 18409173190991518669
3383291 50 18202281364531216570
4073 2 18200315408614179386
4093350 32 15502649447535742302
44802255 64 6194566568148583881
5104073 3 18263921205959241730
6009941 240 17988647423827828269
6201320 215 13985210185693314778
9896288 288 18264486363837648273
9953998 17 18259701199128482873
999808 66 18131347492698159299

> <PUBCHEM_SHAPE_MULTIPOLES>
629.2
23.34
2.35
1.43
45.83
0.68
0.03
-7.43
9.89
-1
0.13
-1.21
-0.46
0.39

> <PUBCHEM_SHAPE_SELFOVERLAP>
1306

> <PUBCHEM_SHAPE_VOLUME>
354.6

> <PUBCHEM_COORDINATE_TYPE>
2
5
10

$$$$

