46173884
  -OEChem-07051213102D

 42 42  0     1  0  0  0  0  0999 V2000
    6.0010   -0.4050    0.0000 S   0  0  0  0  0  0  0  0  0  0  0  0
    4.2690    2.5950    0.0000 S   0  0  0  0  0  0  0  0  0  0  0  0
    4.2690   -0.4050    0.0000 O   0  0  0  0  0  0  0  0  0  0  0  0
    4.2690   -3.4050    0.0000 O   0  0  0  0  0  0  0  0  0  0  0  0
    2.5369   -2.4050    0.0000 O   0  0  0  0  0  0  0  0  0  0  0  0
    6.0010   -2.4050    0.0000 O   0  0  0  0  0  0  0  0  0  0  0  0
    2.5369    0.5950    0.0000 O   0  0  0  0  0  0  0  0  0  0  0  0
    7.7331    2.5950    0.0000 O   0  0  0  0  0  0  0  0  0  0  0  0
    5.1350    2.0950    0.0000 O   0  0  0  0  0  0  0  0  0  0  0  0
    3.4030    3.0950    0.0000 O   0  0  0  0  0  0  0  0  0  0  0  0
    4.7690    3.4610    0.0000 O   0  0  0  0  0  0  0  0  0  0  0  0
    3.7690    1.7290    0.0000 O   0  0  0  0  0  0  0  0  0  0  0  0
    5.1350    1.0950    0.0000 N   0  0  0  0  0  0  0  0  0  0  0  0
    4.2690   -2.4050    0.0000 C   0  0  1  0  0  0  0  0  0  0  0  0
    3.4030   -1.9050    0.0000 C   0  0  1  0  0  0  0  0  0  0  0  0
    5.1350   -1.9050    0.0000 C   0  0  2  0  0  0  0  0  0  0  0  0
    3.4030   -0.9050    0.0000 C   0  0  1  0  0  0  0  0  0  0  0  0
    5.1350   -0.9050    0.0000 C   0  0  2  0  0  0  0  0  0  0  0  0
    2.5369   -0.4050    0.0000 C   0  0  0  0  0  0  0  0  0  0  0  0
    6.0010    0.5950    0.0000 C   0  0  0  0  0  0  0  0  0  0  0  0
    6.8671    1.0950    0.0000 C   0  0  3  0  0  0  0  0  0  0  0  0
    6.8671    2.0950    0.0000 C   0  0  0  0  0  0  0  0  0  0  0  0
    7.7331    0.5950    0.0000 C   0  0  0  0  0  0  0  0  0  0  0  0
    4.8059   -2.7150    0.0000 H   0  0  0  0  0  0  0  0  0  0  0  0
    3.4030   -2.5250    0.0000 H   0  0  0  0  0  0  0  0  0  0  0  0
    5.1350   -2.5250    0.0000 H   0  0  0  0  0  0  0  0  0  0  0  0
    3.4030   -0.2850    0.0000 H   0  0  0  0  0  0  0  0  0  0  0  0
    5.1350   -0.2850    0.0000 H   0  0  0  0  0  0  0  0  0  0  0  0
    1.9264   -0.2973    0.0000 H   0  0  0  0  0  0  0  0  0  0  0  0
    2.3249   -0.9876    0.0000 H   0  0  0  0  0  0  0  0  0  0  0  0
    3.7320   -3.7150    0.0000 H   0  0  0  0  0  0  0  0  0  0  0  0
    2.0000   -2.0950    0.0000 H   0  0  0  0  0  0  0  0  0  0  0  0
    6.5380   -2.0950    0.0000 H   0  0  0  0  0  0  0  0  0  0  0  0
    7.4040    1.4050    0.0000 H   0  0  0  0  0  0  0  0  0  0  0  0
    2.0000    0.9050    0.0000 H   0  0  0  0  0  0  0  0  0  0  0  0
    6.6550    2.6776    0.0000 H   0  0  0  0  0  0  0  0  0  0  0  0
    6.2565    1.9873    0.0000 H   0  0  0  0  0  0  0  0  0  0  0  0
    7.4231    0.0581    0.0000 H   0  0  0  0  0  0  0  0  0  0  0  0
    8.2700    0.2850    0.0000 H   0  0  0  0  0  0  0  0  0  0  0  0
    8.0431    1.1319    0.0000 H   0  0  0  0  0  0  0  0  0  0  0  0
    7.7331    3.2150    0.0000 H   0  0  0  0  0  0  0  0  0  0  0  0
    3.4030    3.7150    0.0000 H   0  0  0  0  0  0  0  0  0  0  0  0
 18  1  1  1  0  0  0
  1 20  1  0  0  0  0
  2  9  1  0  0  0  0
  2 10  1  0  0  0  0
  2 11  2  0  0  0  0
  2 12  2  0  0  0  0
  3 17  1  0  0  0  0
  3 18  1  0  0  0  0
 14  4  1  1  0  0  0
  4 31  1  0  0  0  0
 15  5  1  6  0  0  0
  5 32  1  0  0  0  0
 16  6  1  6  0  0  0
  6 33  1  0  0  0  0
  7 19  1  0  0  0  0
  7 35  1  0  0  0  0
  8 22  1  0  0  0  0
  8 41  1  0  0  0  0
  9 13  1  0  0  0  0
 10 42  1  0  0  0  0
 13 20  2  3  0  0  0
 14 15  1  0  0  0  0
 14 16  1  0  0  0  0
 14 24  1  0  0  0  0
 15 17  1  0  0  0  0
 15 25  1  0  0  0  0
 16 18  1  0  0  0  0
 16 26  1  0  0  0  0
 17 19  1  1  0  0  0
 17 27  1  0  0  0  0
 18 28  1  0  0  0  0
 19 29  1  0  0  0  0
 19 30  1  0  0  0  0
 20 21  1  0  0  0  0
 21 22  1  0  0  0  0
 21 23  1  0  0  0  0
 21 34  1  0  0  0  0
 22 36  1  0  0  0  0
 22 37  1  0  0  0  0
 23 38  1  0  0  0  0
 23 39  1  0  0  0  0
 23 40  1  0  0  0  0
M  END
> <PUBCHEM_COMPOUND_CID>
46173884

> <PUBCHEM_COMPOUND_CANONICALIZED>
1

> <PUBCHEM_CACTVS_COMPLEXITY>
506

> <PUBCHEM_CACTVS_HBOND_ACCEPTOR>
12

> <PUBCHEM_CACTVS_HBOND_DONOR>
6

> <PUBCHEM_CACTVS_ROTATABLE_BOND>
7

> <PUBCHEM_CACTVS_SUBSKEYS>
AAADceByPABgAAAAAAAAAAAAAAAAAAAAAAAkAAAAAAAAAAAAAAAAHgQECAAADRSlwAKCAAAQBoggAAAgADAAAAAAABAAAAAwAAABEAIgAAACQAAFAAAjAAHAYAQAAAAAAAAAAAAAAAAAAAAAAAAAAAAAAA==

> <PUBCHEM_IUPAC_OPENEYE_NAME>
[(2S,3R,4S,5S,6R)-3,4,5-trihydroxy-6-(hydroxymethyl)tetrahydropyran-2-yl] 3-hydroxy-2-methyl-N-sulfooxy-propanimidothioate

> <PUBCHEM_IUPAC_CAS_NAME>
3-hydroxy-2-methyl-N-sulfooxypropanimidothioic acid [(2S,3R,4S,5S,6R)-3,4,5-trihydroxy-6-(hydroxymethyl)-2-oxanyl] ester

> <PUBCHEM_IUPAC_NAME>
[(2S,3R,4S,5S,6R)-3,4,5-trihydroxy-6-(hydroxymethyl)oxan-2-yl] 3-hydroxy-2-methyl-N-sulfooxypropanimidothioate

> <PUBCHEM_IUPAC_SYSTEMATIC_NAME>
[(2S,3R,4S,5S,6R)-6-(hydroxymethyl)-3,4,5-tris(oxidanyl)oxan-2-yl] 2-methyl-3-oxidanyl-N-sulfooxy-propanimidothioate

> <PUBCHEM_IUPAC_TRADITIONAL_NAME>
3-hydroxy-2-methyl-N-sulfoxy-thiopropionimidic acid [(2S,3R,4S,5S,6R)-3,4,5-trihydroxy-6-methylol-tetrahydropyran-2-yl] ester

> <PUBCHEM_IUPAC_INCHI>
InChI=1S/C10H19NO10S2/c1-4(2-12)9(11-21-23(17,18)19)22-10-8(16)7(15)6(14)5(3-13)20-10/h4-8,10,12-16H,2-3H2,1H3,(H,17,18,19)/t4?,5-,6-,7+,8-,10+/m1/s1

> <PUBCHEM_IUPAC_INCHIKEY>
WMJAKSMGNADDKY-QTCACZPWSA-N

> <PUBCHEM_XLOGP3_AA>
-2

> <PUBCHEM_EXACT_MASS>
377.045038

> <PUBCHEM_MOLECULAR_FORMULA>
C10H19NO10S2

> <PUBCHEM_MOLECULAR_WEIGHT>
377.38856

> <PUBCHEM_OPENEYE_CAN_SMILES>
CC(CO)C(=NOS(=O)(=O)O)SC1C(C(C(C(O1)CO)O)O)O

> <PUBCHEM_OPENEYE_ISO_SMILES>
CC(CO)C(=NOS(=O)(=O)O)S[C@H]1[C@@H]([C@H]([C@@H]([C@H](O1)CO)O)O)O

> <PUBCHEM_CACTVS_TPSA>
220

> <PUBCHEM_MONOISOTOPIC_WEIGHT>
377.045038

> <PUBCHEM_TOTAL_CHARGE>
0

> <PUBCHEM_HEAVY_ATOM_COUNT>
23

> <PUBCHEM_ATOM_DEF_STEREO_COUNT>
5

> <PUBCHEM_ATOM_UDEF_STEREO_COUNT>
1

> <PUBCHEM_BOND_DEF_STEREO_COUNT>
0

> <PUBCHEM_BOND_UDEF_STEREO_COUNT>
1

> <PUBCHEM_ISOTOPIC_ATOM_COUNT>
0

> <PUBCHEM_COMPONENT_COUNT>
1

> <PUBCHEM_CACTVS_TAUTO_COUNT>
2

> <PUBCHEM_COORDINATE_TYPE>
1
5
255

> <PUBCHEM_BONDANNOTATIONS>
18  1  5
13  20  1
17  19  5
21  23  3
14  4  5
15  5  6
16  6  6

$$$$

