14161
  -OEChem-06241222423D

 30 32  0     0  0  0  0  0  0999 V2000
   -0.5554    3.0018    0.4077 Cl  0  0  0  0  0  0  0  0  0  0  0  0
    0.1118   -1.9810    0.9716 O   0  0  0  0  0  0  0  0  0  0  0  0
    2.2408    2.7197   -0.4258 O   0  0  0  0  0  0  0  0  0  0  0  0
   -1.5018    0.1919    1.1412 N   0  0  0  0  0  0  0  0  0  0  0  0
    1.9962   -0.8152    0.1994 C   0  0  0  0  0  0  0  0  0  0  0  0
    2.5543    0.4087   -0.1655 C   0  0  0  0  0  0  0  0  0  0  0  0
   -0.2138    0.3551    0.7118 C   0  0  0  0  0  0  0  0  0  0  0  0
    0.5947   -0.8991    0.6527 C   0  0  0  0  0  0  0  0  0  0  0  0
    1.7518    1.6425   -0.1052 C   0  0  0  0  0  0  0  0  0  0  0  0
    0.3460    1.5213    0.3549 C   0  0  0  0  0  0  0  0  0  0  0  0
    2.7712   -1.9803    0.1368 C   0  0  0  0  0  0  0  0  0  0  0  0
    3.8863    0.4707   -0.5934 C   0  0  0  0  0  0  0  0  0  0  0  0
   -2.6424   -0.0728    0.3773 C   0  0  0  0  0  0  0  0  0  0  0  0
    4.0980   -1.9157   -0.2897 C   0  0  0  0  0  0  0  0  0  0  0  0
    4.6547   -0.6920   -0.6542 C   0  0  0  0  0  0  0  0  0  0  0  0
   -3.8930   -0.2112    0.9938 C   0  0  0  0  0  0  0  0  0  0  0  0
   -2.5504   -0.2025   -1.0147 C   0  0  0  0  0  0  0  0  0  0  0  0
   -5.0313   -0.4746    0.2318 C   0  0  0  0  0  0  0  0  0  0  0  0
   -3.6886   -0.4657   -1.7768 C   0  0  0  0  0  0  0  0  0  0  0  0
   -4.9291   -0.6018   -1.1535 C   0  0  0  0  0  0  0  0  0  0  0  0
   -1.5879   -0.0526    2.1234 H   0  0  0  0  0  0  0  0  0  0  0  0
    2.3609   -2.9474    0.4154 H   0  0  0  0  0  0  0  0  0  0  0  0
    4.3435    1.4131   -0.8832 H   0  0  0  0  0  0  0  0  0  0  0  0
    4.6972   -2.8203   -0.3375 H   0  0  0  0  0  0  0  0  0  0  0  0
    5.6878   -0.6429   -0.9861 H   0  0  0  0  0  0  0  0  0  0  0  0
   -3.9885   -0.1135    2.0726 H   0  0  0  0  0  0  0  0  0  0  0  0
   -1.6010   -0.1040   -1.5347 H   0  0  0  0  0  0  0  0  0  0  0  0
   -5.9972   -0.5803    0.7169 H   0  0  0  0  0  0  0  0  0  0  0  0
   -3.6094   -0.5651   -2.8554 H   0  0  0  0  0  0  0  0  0  0  0  0
   -5.8153   -0.8067   -1.7468 H   0  0  0  0  0  0  0  0  0  0  0  0
  1 10  1  0  0  0  0
  2  8  2  0  0  0  0
  3  9  2  0  0  0  0
  4  7  1  0  0  0  0
  4 13  1  0  0  0  0
  4 21  1  0  0  0  0
  5  6  1  0  0  0  0
  5  8  1  0  0  0  0
  5 11  2  0  0  0  0
  6  9  1  0  0  0  0
  6 12  2  0  0  0  0
  7  8  1  0  0  0  0
  7 10  2  0  0  0  0
  9 10  1  0  0  0  0
 11 14  1  0  0  0  0
 11 22  1  0  0  0  0
 12 15  1  0  0  0  0
 12 23  1  0  0  0  0
 13 16  2  0  0  0  0
 13 17  1  0  0  0  0
 14 15  2  0  0  0  0
 14 24  1  0  0  0  0
 15 25  1  0  0  0  0
 16 18  1  0  0  0  0
 16 26  1  0  0  0  0
 17 19  2  0  0  0  0
 17 27  1  0  0  0  0
 18 20  2  0  0  0  0
 18 28  1  0  0  0  0
 19 20  1  0  0  0  0
 19 29  1  0  0  0  0
 20 30  1  0  0  0  0
M  END
> <PUBCHEM_COMPOUND_CID>
14161

> <PUBCHEM_CONFORMER_RMSD>
0.6

> <PUBCHEM_CONFORMER_DIVERSEORDER>
2
4
5
7
3
1
6

> <PUBCHEM_MMFF94_PARTIAL_CHARGES>
30
1 -0.14
10 0.15
11 -0.15
12 -0.15
13 0.1
14 -0.15
15 -0.15
16 -0.15
17 -0.15
18 -0.15
19 -0.15
2 -0.57
20 -0.15
21 0.4
22 0.15
23 0.15
24 0.15
25 0.15
26 0.15
27 0.15
28 0.15
29 0.15
3 -0.57
30 0.15
4 -0.6
5 0.09
6 0.09
7 0.11
8 0.47
9 0.47

> <PUBCHEM_EFFECTIVE_ROTOR_COUNT>
2

> <PUBCHEM_PHARMACOPHORE_FEATURES>
7
1 2 acceptor
1 3 acceptor
1 4 cation
1 4 donor
6 13 16 17 18 19 20 rings
6 5 6 11 12 14 15 rings
6 5 6 7 8 9 10 rings

> <PUBCHEM_HEAVY_ATOM_COUNT>
20

> <PUBCHEM_ATOM_DEF_STEREO_COUNT>
0

> <PUBCHEM_ATOM_UDEF_STEREO_COUNT>
0

> <PUBCHEM_BOND_DEF_STEREO_COUNT>
0

> <PUBCHEM_BOND_UDEF_STEREO_COUNT>
0

> <PUBCHEM_ISOTOPIC_ATOM_COUNT>
0

> <PUBCHEM_COMPONENT_COUNT>
1

> <PUBCHEM_CACTVS_TAUTO_COUNT>
3

> <PUBCHEM_CONFORMER_ID>
0000375100000002

> <PUBCHEM_MMFF94_ENERGY>
73.3751

> <PUBCHEM_FEATURE_SELFOVERLAP>
35.541

> <PUBCHEM_SHAPE_FINGERPRINT>
10062212 137 17894628158655972823
10498660 4 15769507503402020967
11471102 20 18341891874958000010
11796584 16 16370722638807451071
12236239 1 17894625946810989227
12553582 1 18335144214758166563
12730499 353 17775568646107514875
13134695 92 18408604742820789340
13140716 1 18196087734333192104
13862211 1 18411981399376006202
13911987 19 18129926923917899614
14576447 43 18261116244322570694
14739800 52 14045178490348450532
15848700 24 18409730681793332896
16945 1 18340752781286307056
17349148 13 18272372018429519154
17357779 13 18273216421373358532
1813 80 18113891697529589628
18186145 218 17917994971021226497
19784866 140 18342457088238023051
200 152 18408885165508978122
20612939 158 18411698755751232237
20626108 58 17241059695088683581
20645477 70 18341891848871685259
21267235 1 18335971043207332386
221357 26 18342748429292754565
221490 88 18197208153397911499
22646028 28 17894633647434344711
2334 1 17763165961593402400
23402539 116 18337388361393681098
23557571 272 14346057763707714883
23559900 14 18339919304349294232
2748010 2 17907841926337624776
2838139 119 15553301620255173990
2871803 45 18342740744904976692
3060560 45 18343026579479623998
3323516 105 18273497840837084979
46194498 28 17846218791878031389
5281201 14 18059858363557389133
602551 16 15647058139979418687
7164475 11 18265050421907942724
7471813 234 18187086156637130120
7495541 125 17989198209964440459
77492 1 17822284665819712417
7808743 9 15481843423093952775
9981440 41 16889224568367289025

> <PUBCHEM_SHAPE_MULTIPOLES>
396.74
9.57
2.37
1.16
4.91
1.64
0.22
-4.28
2.84
-1.91
-0.14
1.1
-0.2
-0.52

> <PUBCHEM_SHAPE_SELFOVERLAP>
871.402

> <PUBCHEM_SHAPE_VOLUME>
214.3

> <PUBCHEM_COORDINATE_TYPE>
2
5
10

$$$$

