10241
  -OEChem-07051212522D

 22 24  0     0  0  0  0  0  0999 V2000
    4.5274    1.6618    0.0000 O   0  0  0  0  0  0  0  0  0  0  0  0
    5.0274   -0.8771    0.0000 C   0  0  0  0  0  0  0  0  0  0  0  0
    4.0274   -0.8771    0.0000 C   0  0  0  0  0  0  0  0  0  0  0  0
    5.3364    0.0740    0.0000 C   0  0  0  0  0  0  0  0  0  0  0  0
    3.7183    0.0740    0.0000 C   0  0  0  0  0  0  0  0  0  0  0  0
    4.5274    0.6618    0.0000 C   0  0  0  0  0  0  0  0  0  0  0  0
    5.7123   -1.6618    0.0000 C   0  0  0  0  0  0  0  0  0  0  0  0
    3.3424   -1.6618    0.0000 C   0  0  0  0  0  0  0  0  0  0  0  0
    6.3518    0.3063    0.0000 C   0  0  0  0  0  0  0  0  0  0  0  0
    2.7029    0.3063    0.0000 C   0  0  0  0  0  0  0  0  0  0  0  0
    2.3219   -1.4531    0.0000 C   0  0  0  0  0  0  0  0  0  0  0  0
    6.7328   -1.4531    0.0000 C   0  0  0  0  0  0  0  0  0  0  0  0
    7.0547   -0.4624    0.0000 C   0  0  0  0  0  0  0  0  0  0  0  0
    2.0000   -0.4624    0.0000 C   0  0  0  0  0  0  0  0  0  0  0  0
    5.5139   -2.2492    0.0000 H   0  0  0  0  0  0  0  0  0  0  0  0
    3.5408   -2.2492    0.0000 H   0  0  0  0  0  0  0  0  0  0  0  0
    6.5365    0.8981    0.0000 H   0  0  0  0  0  0  0  0  0  0  0  0
    2.5182    0.8981    0.0000 H   0  0  0  0  0  0  0  0  0  0  0  0
    7.1459   -1.9154    0.0000 H   0  0  0  0  0  0  0  0  0  0  0  0
    1.9088   -1.9154    0.0000 H   0  0  0  0  0  0  0  0  0  0  0  0
    7.6607   -0.3312    0.0000 H   0  0  0  0  0  0  0  0  0  0  0  0
    1.3940   -0.3312    0.0000 H   0  0  0  0  0  0  0  0  0  0  0  0
  1  6  2  0  0  0  0
  2  3  1  0  0  0  0
  2  4  1  0  0  0  0
  2  7  2  0  0  0  0
  3  5  1  0  0  0  0
  3  8  2  0  0  0  0
  4  6  1  0  0  0  0
  4  9  2  0  0  0  0
  5  6  1  0  0  0  0
  5 10  2  0  0  0  0
  7 12  1  0  0  0  0
  7 15  1  0  0  0  0
  8 11  1  0  0  0  0
  8 16  1  0  0  0  0
  9 13  1  0  0  0  0
  9 17  1  0  0  0  0
 10 14  1  0  0  0  0
 10 18  1  0  0  0  0
 11 14  2  0  0  0  0
 11 20  1  0  0  0  0
 12 13  2  0  0  0  0
 12 19  1  0  0  0  0
 13 21  1  0  0  0  0
 14 22  1  0  0  0  0
M  END
> <PUBCHEM_COMPOUND_CID>
10241

> <PUBCHEM_COMPOUND_CANONICALIZED>
1

> <PUBCHEM_CACTVS_COMPLEXITY>
222

> <PUBCHEM_CACTVS_HBOND_ACCEPTOR>
1

> <PUBCHEM_CACTVS_HBOND_DONOR>
0

> <PUBCHEM_CACTVS_ROTATABLE_BOND>
0

> <PUBCHEM_CACTVS_SUBSKEYS>
AAADccBwIAAAAAAAAAAAAAAAAAAAAYAAAAAwYAAAAAAAAGABQAAAGgAAAAAADASAmAAwAIAAAACIAqBSAAACAAAkAAAIiAEAAMgIIDKAFRCAIQAggAAIiYcIiMCOgAAAAAAQAAAAAAAAACAAAQAACAAAAA==

> <PUBCHEM_IUPAC_OPENEYE_NAME>
fluoren-9-one

> <PUBCHEM_IUPAC_CAS_NAME>
9-fluorenone

> <PUBCHEM_IUPAC_NAME>
fluoren-9-one

> <PUBCHEM_IUPAC_SYSTEMATIC_NAME>
fluoren-9-one

> <PUBCHEM_IUPAC_TRADITIONAL_NAME>
fluoren-9-one

> <PUBCHEM_IUPAC_INCHI>
InChI=1S/C13H8O/c14-13-11-7-3-1-5-9(11)10-6-2-4-8-12(10)13/h1-8H

> <PUBCHEM_IUPAC_INCHIKEY>
YLQWCDOCJODRMT-UHFFFAOYSA-N

> <PUBCHEM_XLOGP3>
3.6

> <PUBCHEM_EXACT_MASS>
180.057515

> <PUBCHEM_MOLECULAR_FORMULA>
C13H8O

> <PUBCHEM_MOLECULAR_WEIGHT>
180.20202

> <PUBCHEM_OPENEYE_CAN_SMILES>
C1=CC=C2C(=C1)C3=CC=CC=C3C2=O

> <PUBCHEM_OPENEYE_ISO_SMILES>
C1=CC=C2C(=C1)C3=CC=CC=C3C2=O

> <PUBCHEM_CACTVS_TPSA>
17.1

> <PUBCHEM_MONOISOTOPIC_WEIGHT>
180.057515

> <PUBCHEM_TOTAL_CHARGE>
0

> <PUBCHEM_HEAVY_ATOM_COUNT>
14

> <PUBCHEM_ATOM_DEF_STEREO_COUNT>
0

> <PUBCHEM_ATOM_UDEF_STEREO_COUNT>
0

> <PUBCHEM_BOND_DEF_STEREO_COUNT>
0

> <PUBCHEM_BOND_UDEF_STEREO_COUNT>
0

> <PUBCHEM_ISOTOPIC_ATOM_COUNT>
0

> <PUBCHEM_COMPONENT_COUNT>
1

> <PUBCHEM_CACTVS_TAUTO_COUNT>
1

> <PUBCHEM_COORDINATE_TYPE>
1
5
255

> <PUBCHEM_BONDANNOTATIONS>
10  14  8
11  14  8
12  13  8
2  4  8
2  7  8
3  5  8
3  8  8
4  9  8
5  10  8
7  12  8
8  11  8
9  13  8

$$$$

