442010
  -OEChem-07051212562D

 71 75  0     1  0  0  0  0  0999 V2000
    5.6690   -2.3845    0.0000 O   0  0  0  0  0  0  0  0  0  0  0  0
    4.4206   -2.5531    0.0000 O   0  0  0  0  0  0  0  0  0  0  0  0
    4.3364    2.2967    0.0000 O   0  0  0  0  0  0  0  0  0  0  0  0
    7.9011   -1.5185    0.0000 O   0  0  0  0  0  0  0  0  0  0  0  0
    6.1690   -2.5185    0.0000 O   0  0  0  0  0  0  0  0  0  0  0  0
    3.4030    3.9485    0.0000 O   0  0  0  0  0  0  0  0  0  0  0  0
    2.6887   -2.5731    0.0000 O   0  0  0  0  0  0  0  0  0  0  0  0
    8.7671   -0.0185    0.0000 O   0  0  0  0  0  0  0  0  0  0  0  0
    5.3030   -4.0185    0.0000 O   0  0  0  0  0  0  0  0  0  0  0  0
    5.3030   -1.0185    0.0000 C   0  0  2  0  0  0  0  0  0  0  0  0
    5.3030   -0.0185    0.0000 C   0  0  1  0  0  0  0  0  0  0  0  0
    6.1690   -1.5185    0.0000 C   0  0  1  0  0  0  0  0  0  0  0  0
    4.4090    0.5162    0.0000 C   0  0  2  0  0  0  0  0  0  0  0  0
    4.4090   -1.5532    0.0000 C   0  0  2  0  0  0  0  0  0  0  0  0
    3.5030    0.0023    0.0000 C   0  0  1  0  0  0  0  0  0  0  0  0
    7.0350   -1.0185    0.0000 C   0  0  1  0  0  0  0  0  0  0  0  0
    6.1690    0.4815    0.0000 C   0  0  0  0  0  0  0  0  0  0  0  0
    6.6690   -2.3845    0.0000 C   0  0  0  0  0  0  0  0  0  0  0  0
    3.5030   -1.0393    0.0000 C   0  0  0  0  0  0  0  0  0  0  0  0
    3.9191    1.3879    0.0000 C   0  0  2  0  0  0  0  0  0  0  0  0
    7.0350   -0.0185    0.0000 C   0  0  0  0  0  0  0  0  0  0  0  0
    5.3030   -2.0185    0.0000 C   0  0  0  0  0  0  0  0  0  0  0  0
    4.9190    1.3763    0.0000 C   0  0  0  0  0  0  0  0  0  0  0  0
    2.9258    1.5039    0.0000 C   0  0  0  0  0  0  0  0  0  0  0  0
    2.6389    0.5056    0.0000 C   0  0  0  0  0  0  0  0  0  0  0  0
    2.7292    2.4844    0.0000 C   0  0  2  0  0  0  0  0  0  0  0  0
    3.6010    2.9744    0.0000 C   0  0  2  0  0  0  0  0  0  0  0  0
    2.0000    3.1600    0.0000 C   0  0  0  0  0  0  0  0  0  0  0  0
    3.5604   -3.0631    0.0000 C   0  0  0  0  0  0  0  0  0  0  0  0
    8.7671   -1.0185    0.0000 C   0  0  0  0  0  0  0  0  0  0  0  0
    6.1690   -3.5185    0.0000 C   0  0  0  0  0  0  0  0  0  0  0  0
    2.4156    4.0630    0.0000 C   0  0  0  0  0  0  0  0  0  0  0  0
    3.5720   -4.0630    0.0000 C   0  0  0  0  0  0  0  0  0  0  0  0
    9.6331   -1.5185    0.0000 C   0  0  0  0  0  0  0  0  0  0  0  0
    7.0350   -4.0185    0.0000 C   0  0  0  0  0  0  0  0  0  0  0  0
    5.3095    0.8315    0.0000 H   0  0  0  0  0  0  0  0  0  0  0  0
    3.8751   -1.8683    0.0000 H   0  0  0  0  0  0  0  0  0  0  0  0
    3.5066    0.6223    0.0000 H   0  0  0  0  0  0  0  0  0  0  0  0
    7.0350   -1.6385    0.0000 H   0  0  0  0  0  0  0  0  0  0  0  0
    6.5675    0.9564    0.0000 H   0  0  0  0  0  0  0  0  0  0  0  0
    5.7705    0.9564    0.0000 H   0  0  0  0  0  0  0  0  0  0  0  0
    6.7767   -2.9951    0.0000 H   0  0  0  0  0  0  0  0  0  0  0  0
    7.2516   -2.1725    0.0000 H   0  0  0  0  0  0  0  0  0  0  0  0
    2.8921   -0.9332    0.0000 H   0  0  0  0  0  0  0  0  0  0  0  0
    3.2939   -1.6230    0.0000 H   0  0  0  0  0  0  0  0  0  0  0  0
    4.7684    1.4226    0.0000 H   0  0  0  0  0  0  0  0  0  0  0  0
    7.6456   -0.1262    0.0000 H   0  0  0  0  0  0  0  0  0  0  0  0
    7.2471    0.5641    0.0000 H   0  0  0  0  0  0  0  0  0  0  0  0
    4.6924   -1.9108    0.0000 H   0  0  0  0  0  0  0  0  0  0  0  0
    5.0909   -2.6011    0.0000 H   0  0  0  0  0  0  0  0  0  0  0  0
    5.4523    1.0602    0.0000 H   0  0  0  0  0  0  0  0  0  0  0  0
    5.2352    1.9097    0.0000 H   0  0  0  0  0  0  0  0  0  0  0  0
    4.3857    1.6925    0.0000 H   0  0  0  0  0  0  0  0  0  0  0  0
    2.3085    1.4462    0.0000 H   0  0  0  0  0  0  0  0  0  0  0  0
    2.9187    0.8840    0.0000 H   0  0  0  0  0  0  0  0  0  0  0  0
    2.9510    1.0414    0.0000 H   0  0  0  0  0  0  0  0  0  0  0  0
    2.1031    0.8177    0.0000 H   0  0  0  0  0  0  0  0  0  0  0  0
    2.3268   -0.0301    0.0000 H   0  0  0  0  0  0  0  0  0  0  0  0
    1.9877    2.0689    0.0000 H   0  0  0  0  0  0  0  0  0  0  0  0
    4.3414    3.3918    0.0000 H   0  0  0  0  0  0  0  0  0  0  0  0
    1.3919    3.0391    0.0000 H   0  0  0  0  0  0  0  0  0  0  0  0
    2.1118    4.6035    0.0000 H   0  0  0  0  0  0  0  0  0  0  0  0
    2.9520   -4.0702    0.0000 H   0  0  0  0  0  0  0  0  0  0  0  0
    3.5792   -4.6830    0.0000 H   0  0  0  0  0  0  0  0  0  0  0  0
    4.1919   -4.0559    0.0000 H   0  0  0  0  0  0  0  0  0  0  0  0
    9.3231   -2.0554    0.0000 H   0  0  0  0  0  0  0  0  0  0  0  0
   10.1700   -1.8285    0.0000 H   0  0  0  0  0  0  0  0  0  0  0  0
    9.9431   -0.9816    0.0000 H   0  0  0  0  0  0  0  0  0  0  0  0
    6.7250   -4.5554    0.0000 H   0  0  0  0  0  0  0  0  0  0  0  0
    7.5720   -4.3285    0.0000 H   0  0  0  0  0  0  0  0  0  0  0  0
    7.3450   -3.4816    0.0000 H   0  0  0  0  0  0  0  0  0  0  0  0
 12  1  1  1  0  0  0
  1 18  1  0  0  0  0
 14  2  1  1  0  0  0
  2 29  1  0  0  0  0
  3 20  1  0  0  0  0
  3 27  1  0  0  0  0
 16  4  1  1  0  0  0
  4 30  1  0  0  0  0
  5 22  1  0  0  0  0
  5 31  1  0  0  0  0
  6 27  1  0  0  0  0
  6 32  1  0  0  0  0
  7 29  2  0  0  0  0
  8 30  2  0  0  0  0
  9 31  2  0  0  0  0
 10 11  1  0  0  0  0
 10 12  1  0  0  0  0
 10 14  1  0  0  0  0
 10 22  1  1  0  0  0
 11 13  1  0  0  0  0
 11 17  1  0  0  0  0
 11 36  1  6  0  0  0
 12 16  1  0  0  0  0
 12 18  1  0  0  0  0
 13 15  1  0  0  0  0
 13 20  1  0  0  0  0
 13 23  1  1  0  0  0
 14 19  1  0  0  0  0
 14 37  1  0  0  0  0
 15 19  1  0  0  0  0
 15 25  1  1  0  0  0
 15 38  1  0  0  0  0
 16 21  1  0  0  0  0
 16 39  1  0  0  0  0
 17 21  1  0  0  0  0
 17 40  1  0  0  0  0
 17 41  1  0  0  0  0
 18 42  1  0  0  0  0
 18 43  1  0  0  0  0
 19 44  1  0  0  0  0
 19 45  1  0  0  0  0
 20 24  1  0  0  0  0
 20 46  1  1  0  0  0
 21 47  1  0  0  0  0
 21 48  1  0  0  0  0
 22 49  1  0  0  0  0
 22 50  1  0  0  0  0
 23 51  1  0  0  0  0
 23 52  1  0  0  0  0
 23 53  1  0  0  0  0
 24 26  1  0  0  0  0
 24 54  1  0  0  0  0
 24 55  1  0  0  0  0
 25 56  1  0  0  0  0
 25 57  1  0  0  0  0
 25 58  1  0  0  0  0
 26 27  1  0  0  0  0
 26 28  1  0  0  0  0
 26 59  1  6  0  0  0
 27 60  1  6  0  0  0
 28 32  2  0  0  0  0
 28 61  1  0  0  0  0
 29 33  1  0  0  0  0
 30 34  1  0  0  0  0
 31 35  1  0  0  0  0
 32 62  1  0  0  0  0
 33 63  1  0  0  0  0
 33 64  1  0  0  0  0
 33 65  1  0  0  0  0
 34 66  1  0  0  0  0
 34 67  1  0  0  0  0
 34 68  1  0  0  0  0
 35 69  1  0  0  0  0
 35 70  1  0  0  0  0
 35 71  1  0  0  0  0
M  END
> <PUBCHEM_COMPOUND_CID>
442010

> <PUBCHEM_COMPOUND_CANONICALIZED>
1

> <PUBCHEM_CACTVS_COMPLEXITY>
932

> <PUBCHEM_CACTVS_HBOND_ACCEPTOR>
9

> <PUBCHEM_CACTVS_HBOND_DONOR>
0

> <PUBCHEM_CACTVS_ROTATABLE_BOND>
8

> <PUBCHEM_CACTVS_SUBSKEYS>
AAADcfB4PAAAAAAAAAAAAAAAEgAAASIAAAAwYAAAAAAQAADAAAAAGgAAAAAAD1SwgAMCCAAABACIACDSCAAACAAgIAAIAAAAAAgRAAIAAQAiAAAFwAAGAAHA4PwPgAAAAAAAAADAAAYAADCAAAAAAAAAAA==

> <PUBCHEM_IUPAC_OPENEYE_NAME>
[(1S,2R,4S,4aR,5R,6R,8aR)-1-[(3aS,5S,6aS)-3a,4,5,6a-tetrahydrofuro[2,3-b]furan-5-yl]-4,6-diacetoxy-1,2-dimethyl-spiro[decalin-5,2'-oxirane]-4a-yl]methyl acetate

> <PUBCHEM_IUPAC_CAS_NAME>
acetic acid [(3R,4R,4aR,5S,7R,8S,8aR)-8-[(3aS,5S,6aS)-3a,4,5,6a-tetrahydrofuro[2,3-b]furan-5-yl]-3,5-diacetyloxy-7,8-dimethyl-4a-spiro[2,3,5,6,7,8a-hexahydro-1H-naphthalene-4,2'-oxirane]yl]methyl ester

> <PUBCHEM_IUPAC_NAME>
[(3R,4R,4aR,5S,7R,8S,8aR)-8-[(3aS,5S,6aS)-3a,4,5,6a-tetrahydrofuro[2,3-b]furan-5-yl]-3,5-diacetyloxy-7,8-dimethylspiro[2,3,5,6,7,8a-hexahydro-1H-naphthalene-4,2'-oxirane]-4a-yl]methyl acetate

> <PUBCHEM_IUPAC_SYSTEMATIC_NAME>
[(3R,4R,4aR,5S,7R,8S,8aR)-8-[(3aS,5S,6aS)-3a,4,5,6a-tetrahydrofuro[2,3-b]furan-5-yl]-3,5-diacetyloxy-7,8-dimethyl-spiro[2,3,5,6,7,8a-hexahydro-1H-naphthalene-4,2'-oxirane]-4a-yl]methyl ethanoate

> <PUBCHEM_IUPAC_TRADITIONAL_NAME>
acetic acid [(1S,2R,4S,4aR,5R,6R,8aR)-1-[(3aS,5S,6aS)-3a,4,5,6a-tetrahydrofuro[2,3-b]furan-5-yl]-4,6-diacetoxy-1,2-dimethyl-spiro[decalin-5,2'-oxirane]-4a-yl]methyl ester

> <PUBCHEM_IUPAC_INCHI>
InChI=1S/C26H36O9/c1-14-10-22(34-17(4)29)25(12-31-15(2)27)19(6-7-20(33-16(3)28)26(25)13-32-26)24(14,5)21-11-18-8-9-30-23(18)35-21/h8-9,14,18-23H,6-7,10-13H2,1-5H3/t14-,18-,19-,20-,21+,22+,23+,24+,25+,26-/m1/s1

> <PUBCHEM_IUPAC_INCHIKEY>
QVORLEZTALRJNW-SHZKAIFQSA-N

> <PUBCHEM_XLOGP3_AA>
2.6

> <PUBCHEM_EXACT_MASS>
492.235933

> <PUBCHEM_MOLECULAR_FORMULA>
C26H36O9

> <PUBCHEM_MOLECULAR_WEIGHT>
492.55864

> <PUBCHEM_OPENEYE_CAN_SMILES>
CC1CC(C2(C(C1(C)C3CC4C=COC4O3)CCC(C25CO5)OC(=O)C)COC(=O)C)OC(=O)C

> <PUBCHEM_OPENEYE_ISO_SMILES>
C[C@@H]1C[C@@H]([C@@]2([C@@H]([C@@]1(C)[C@@H]3C[C@H]4C=CO[C@H]4O3)CC[C@H]([C@]25CO5)OC(=O)C)COC(=O)C)OC(=O)C

> <PUBCHEM_CACTVS_TPSA>
110

> <PUBCHEM_MONOISOTOPIC_WEIGHT>
492.235933

> <PUBCHEM_TOTAL_CHARGE>
0

> <PUBCHEM_HEAVY_ATOM_COUNT>
35

> <PUBCHEM_ATOM_DEF_STEREO_COUNT>
10

> <PUBCHEM_ATOM_UDEF_STEREO_COUNT>
0

> <PUBCHEM_BOND_DEF_STEREO_COUNT>
0

> <PUBCHEM_BOND_UDEF_STEREO_COUNT>
0

> <PUBCHEM_ISOTOPIC_ATOM_COUNT>
0

> <PUBCHEM_COMPONENT_COUNT>
1

> <PUBCHEM_CACTVS_TAUTO_COUNT>
1

> <PUBCHEM_COORDINATE_TYPE>
1
5
255

> <PUBCHEM_BONDANNOTATIONS>
12  1  5
10  22  5
11  36  6
13  23  5
15  25  5
14  2  5
20  46  5
26  59  6
27  60  6
16  4  5

$$$$

