853953
  -OEChem-06241222463D

 35 36  0     0  0  0  0  0  0999 V2000
   -2.9106   -2.1349    0.4273 F   0  0  0  0  0  0  0  0  0  0  0  0
    5.1755   -0.0231    0.0603 N   0  0  0  0  0  0  0  0  0  0  0  0
   -0.6147   -0.3760   -2.7254 N   0  0  0  0  0  0  0  0  0  0  0  0
    3.7756    0.0492    0.2130 C   0  0  0  0  0  0  0  0  0  0  0  0
    1.0059    0.1909    0.5160 C   0  0  0  0  0  0  0  0  0  0  0  0
    3.0483   -1.0997    0.5239 C   0  0  0  0  0  0  0  0  0  0  0  0
    3.1180    1.2689    0.0533 C   0  0  0  0  0  0  0  0  0  0  0  0
    1.6635   -1.0288    0.6755 C   0  0  0  0  0  0  0  0  0  0  0  0
    1.7332    1.3398    0.2049 C   0  0  0  0  0  0  0  0  0  0  0  0
   -0.4380    0.2648    0.6739 C   0  0  0  0  0  0  0  0  0  0  0  0
   -1.3738    0.1087   -0.2970 C   0  0  0  0  0  0  0  0  0  0  0  0
   -2.8218    0.1973   -0.0256 C   0  0  0  0  0  0  0  0  0  0  0  0
    5.8001   -1.2408   -0.4173 C   0  0  0  0  0  0  0  0  0  0  0  0
    6.0075    1.1239    0.3657 C   0  0  0  0  0  0  0  0  0  0  0  0
   -3.5203   -0.9448    0.3271 C   0  0  0  0  0  0  0  0  0  0  0  0
   -3.4504    1.4265   -0.1299 C   0  0  0  0  0  0  0  0  0  0  0  0
   -4.8886   -0.8551    0.5828 C   0  0  0  0  0  0  0  0  0  0  0  0
   -4.8186    1.5163    0.1260 C   0  0  0  0  0  0  0  0  0  0  0  0
   -5.5377    0.3755    0.4823 C   0  0  0  0  0  0  0  0  0  0  0  0
   -0.9532   -0.1586   -1.6368 C   0  0  0  0  0  0  0  0  0  0  0  0
    3.5306   -2.0625    0.6668 H   0  0  0  0  0  0  0  0  0  0  0  0
    3.6526    2.1798   -0.2009 H   0  0  0  0  0  0  0  0  0  0  0  0
    1.1105   -1.9325    0.9209 H   0  0  0  0  0  0  0  0  0  0  0  0
    1.2345    2.2975    0.0752 H   0  0  0  0  0  0  0  0  0  0  0  0
   -0.7624    0.4655    1.6941 H   0  0  0  0  0  0  0  0  0  0  0  0
    5.8858   -1.9755    0.3901 H   0  0  0  0  0  0  0  0  0  0  0  0
    6.8108   -1.0458   -0.7932 H   0  0  0  0  0  0  0  0  0  0  0  0
    5.2360   -1.6825   -1.2466 H   0  0  0  0  0  0  0  0  0  0  0  0
    7.0502    0.8250    0.5220 H   0  0  0  0  0  0  0  0  0  0  0  0
    5.6824    1.6222    1.2860 H   0  0  0  0  0  0  0  0  0  0  0  0
    5.9918    1.8452   -0.4582 H   0  0  0  0  0  0  0  0  0  0  0  0
   -2.9016    2.3230   -0.4064 H   0  0  0  0  0  0  0  0  0  0  0  0
   -5.4484   -1.7434    0.8602 H   0  0  0  0  0  0  0  0  0  0  0  0
   -5.3242    2.4744    0.0478 H   0  0  0  0  0  0  0  0  0  0  0  0
   -6.6030    0.4452    0.6816 H   0  0  0  0  0  0  0  0  0  0  0  0
  1 15  1  0  0  0  0
  2  4  1  0  0  0  0
  2 13  1  0  0  0  0
  2 14  1  0  0  0  0
  3 20  3  0  0  0  0
  4  6  2  0  0  0  0
  4  7  1  0  0  0  0
  5  8  2  0  0  0  0
  5  9  1  0  0  0  0
  5 10  1  0  0  0  0
  6  8  1  0  0  0  0
  6 21  1  0  0  0  0
  7  9  2  0  0  0  0
  7 22  1  0  0  0  0
  8 23  1  0  0  0  0
  9 24  1  0  0  0  0
 10 11  2  0  0  0  0
 10 25  1  0  0  0  0
 11 12  1  0  0  0  0
 11 20  1  0  0  0  0
 12 15  1  0  0  0  0
 12 16  2  0  0  0  0
 13 26  1  0  0  0  0
 13 27  1  0  0  0  0
 13 28  1  0  0  0  0
 14 29  1  0  0  0  0
 14 30  1  0  0  0  0
 14 31  1  0  0  0  0
 15 17  2  0  0  0  0
 16 18  1  0  0  0  0
 16 32  1  0  0  0  0
 17 19  1  0  0  0  0
 17 33  1  0  0  0  0
 18 19  2  0  0  0  0
 18 34  1  0  0  0  0
 19 35  1  0  0  0  0
M  END
> <PUBCHEM_COMPOUND_CID>
853953

> <PUBCHEM_CONFORMER_RMSD>
0.6

> <PUBCHEM_CONFORMER_DIVERSEORDER>
1
12
9
2
10
5
3
8
4
11
6
7

> <PUBCHEM_MMFF94_PARTIAL_CHARGES>
29
1 -0.19
10 -0.18
11 0.04
12 0.03
13 0.37
14 0.37
15 0.19
16 -0.15
17 -0.15
18 -0.15
19 -0.15
2 -0.84
20 0.49
21 0.15
22 0.15
23 0.15
24 0.15
25 0.15
3 -0.56
32 0.15
33 0.15
34 0.15
35 0.15
4 0.1
5 0.03
6 -0.15
7 -0.15
8 -0.15
9 -0.15

> <PUBCHEM_EFFECTIVE_ROTOR_COUNT>
3

> <PUBCHEM_PHARMACOPHORE_FEATURES>
4
1 2 cation
1 3 acceptor
6 12 15 16 17 18 19 rings
6 4 5 6 7 8 9 rings

> <PUBCHEM_HEAVY_ATOM_COUNT>
20

> <PUBCHEM_ATOM_DEF_STEREO_COUNT>
0

> <PUBCHEM_ATOM_UDEF_STEREO_COUNT>
0

> <PUBCHEM_BOND_DEF_STEREO_COUNT>
1

> <PUBCHEM_BOND_UDEF_STEREO_COUNT>
0

> <PUBCHEM_ISOTOPIC_ATOM_COUNT>
0

> <PUBCHEM_COMPONENT_COUNT>
1

> <PUBCHEM_CACTVS_TAUTO_COUNT>
1

> <PUBCHEM_CONFORMER_ID>
000D07C100000001

> <PUBCHEM_MMFF94_ENERGY>
73.0853

> <PUBCHEM_FEATURE_SELFOVERLAP>
20.297

> <PUBCHEM_SHAPE_FINGERPRINT>
10366900 7 15913610562179398744
12107183 9 17621041288547497761
12236239 1 18040997349547277880
128620 24 13758356691138098243
13583140 156 18114748140005003939
13675066 3 18113624465081202568
14251764 18 18187362121766346849
14341114 176 18411975866793139889
15048467 5 18201720673703796105
15788980 27 17821450153283819640
17844677 252 18410847763900734608
1813 80 16415474978234613695
18222031 100 16200154244691719317
200 152 18334575737160509400
21033648 29 16733282238479590153
21267235 1 18343012281865460899
23402539 116 18412548703755969188
23536379 177 18409448102846646608
23557571 272 16988564658073405222
23559900 14 18339930316281516001
300161 21 18273221910452007673
3004659 81 18343016736131960866
314173 85 16415760847015524581
3545911 37 18412262848260815481
4073 2 18059569140749859530
4214541 1 18412825794030032777
4325135 7 17775281656287060662
5104073 3 18341897393743225416
542803 24 17458344147555792513
7495541 125 12247380294730476597
77779 3 18413670205953813649

> <PUBCHEM_SHAPE_MULTIPOLES>
394.35
13.59
1.53
1.18
6.12
0.07
0.98
-0.77
-2.03
-0.19
-0.17
-0.33
0.22
0.36

> <PUBCHEM_SHAPE_SELFOVERLAP>
844.051

> <PUBCHEM_SHAPE_VOLUME>
219.8

> <PUBCHEM_COORDINATE_TYPE>
2
5
10

$$$$

