16061126
  -OEChem-07051213113D

 53 52  0     1  0  0  0  0  0999 V2000
    3.5718   -0.7121   -1.3208 O   0  0  0  0  0  0  0  0  0  0  0  0
   -4.5782    1.2140    1.0392 O   0  0  0  0  0  0  0  0  0  0  0  0
   -4.6235    0.0385   -0.9055 O   0  0  0  0  0  0  0  0  0  0  0  0
   -3.4183   -2.0862    0.8884 C   0  0  0  0  0  0  0  0  0  0  0  0
   -2.0686   -1.4027    1.1283 C   0  0  0  0  0  0  0  0  0  0  0  0
   -4.5983   -1.1662    1.1883 C   0  0  0  0  0  0  0  0  0  0  0  0
   -0.9302   -2.3355    0.8320 C   0  0  0  0  0  0  0  0  0  0  0  0
    4.5323   -0.3759   -0.3232 C   0  0  2  0  0  0  0  0  0  0  0  0
    5.0686   -1.6716    0.3003 C   0  0  0  0  0  0  0  0  0  0  0  0
   -0.8076   -1.6927   -1.5898 C   0  0  0  0  0  0  0  0  0  0  0  0
   -0.3686   -2.4645   -0.3792 C   0  0  0  0  0  0  0  0  0  0  0  0
    3.9832    0.5767    0.7103 C   0  0  0  0  0  0  0  0  0  0  0  0
    4.0248   -2.4708    1.0734 C   0  0  0  0  0  0  0  0  0  0  0  0
    0.2361   -0.7989   -2.2059 C   0  0  0  0  0  0  0  0  0  0  0  0
   -0.9671    1.3826   -1.9130 C   0  0  0  0  0  0  0  0  0  0  0  0
   -4.6035    0.0656    0.3182 C   0  0  0  0  0  0  0  0  0  0  0  0
    0.1906    0.5346   -2.3574 C   0  0  0  0  0  0  0  0  0  0  0  0
   -0.0483    2.0834    0.8678 C   0  0  0  0  0  0  0  0  0  0  0  0
    2.7290    1.0516    0.7676 C   0  0  0  0  0  0  0  0  0  0  0  0
   -0.5193    2.7554   -1.5029 C   0  0  0  0  0  0  0  0  0  0  0  0
   -0.1099    3.0675   -0.2639 C   0  0  0  0  0  0  0  0  0  0  0  0
    1.0259    2.4419    1.8539 C   0  0  0  0  0  0  0  0  0  0  0  0
    2.2789    1.9654    1.7938 C   0  0  0  0  0  0  0  0  0  0  0  0
   -3.4985   -2.9799    1.5201 H   0  0  0  0  0  0  0  0  0  0  0  0
   -3.4842   -2.4280   -0.1521 H   0  0  0  0  0  0  0  0  0  0  0  0
   -1.9947   -1.1071    2.1828 H   0  0  0  0  0  0  0  0  0  0  0  0
   -1.9813   -0.4710    0.5666 H   0  0  0  0  0  0  0  0  0  0  0  0
   -4.5742   -0.8663    2.2426 H   0  0  0  0  0  0  0  0  0  0  0  0
   -5.5467   -1.6911    1.0293 H   0  0  0  0  0  0  0  0  0  0  0  0
   -0.5594   -2.9478    1.6496 H   0  0  0  0  0  0  0  0  0  0  0  0
    5.3560    0.1341   -0.8366 H   0  0  0  0  0  0  0  0  0  0  0  0
    5.9046   -1.4407    0.9719 H   0  0  0  0  0  0  0  0  0  0  0  0
    5.4637   -2.3151   -0.4955 H   0  0  0  0  0  0  0  0  0  0  0  0
   -1.0577   -2.4418   -2.3547 H   0  0  0  0  0  0  0  0  0  0  0  0
   -1.7492   -1.1620   -1.4396 H   0  0  0  0  0  0  0  0  0  0  0  0
    0.4464   -3.1732   -0.5033 H   0  0  0  0  0  0  0  0  0  0  0  0
    4.6992    0.8943    1.4674 H   0  0  0  0  0  0  0  0  0  0  0  0
    3.1714   -2.7282    0.4382 H   0  0  0  0  0  0  0  0  0  0  0  0
    3.6551   -1.9170    1.9417 H   0  0  0  0  0  0  0  0  0  0  0  0
    4.4649   -3.4043    1.4388 H   0  0  0  0  0  0  0  0  0  0  0  0
    1.1162   -1.3100   -2.5934 H   0  0  0  0  0  0  0  0  0  0  0  0
   -1.5552    0.9295   -1.1130 H   0  0  0  0  0  0  0  0  0  0  0  0
   -1.6537    1.5002   -2.7608 H   0  0  0  0  0  0  0  0  0  0  0  0
    1.0180    1.0208   -2.8694 H   0  0  0  0  0  0  0  0  0  0  0  0
    0.0327    1.0439    0.5429 H   0  0  0  0  0  0  0  0  0  0  0  0
   -1.0028    2.1374    1.4086 H   0  0  0  0  0  0  0  0  0  0  0  0
    2.0311    0.7358    0.0034 H   0  0  0  0  0  0  0  0  0  0  0  0
   -0.5344    3.5349   -2.2604 H   0  0  0  0  0  0  0  0  0  0  0  0
    0.1586    4.1021   -0.0614 H   0  0  0  0  0  0  0  0  0  0  0  0
    0.7682    3.1380    2.6483 H   0  0  0  0  0  0  0  0  0  0  0  0
    2.9961    2.2813    2.5465 H   0  0  0  0  0  0  0  0  0  0  0  0
    4.0133   -1.2753   -1.9791 H   0  0  0  0  0  0  0  0  0  0  0  0
   -4.5750    2.0079    0.4629 H   0  0  0  0  0  0  0  0  0  0  0  0
  1  8  1  0  0  0  0
  1 52  1  0  0  0  0
  2 16  1  0  0  0  0
  2 53  1  0  0  0  0
  3 16  2  0  0  0  0
  4  5  1  0  0  0  0
  4  6  1  0  0  0  0
  4 24  1  0  0  0  0
  4 25  1  0  0  0  0
  5  7  1  0  0  0  0
  5 26  1  0  0  0  0
  5 27  1  0  0  0  0
  6 16  1  0  0  0  0
  6 28  1  0  0  0  0
  6 29  1  0  0  0  0
  7 11  2  0  0  0  0
  7 30  1  0  0  0  0
  8  9  1  0  0  0  0
  8 12  1  0  0  0  0
  8 31  1  0  0  0  0
  9 13  1  0  0  0  0
  9 32  1  0  0  0  0
  9 33  1  0  0  0  0
 10 11  1  0  0  0  0
 10 14  1  0  0  0  0
 10 34  1  0  0  0  0
 10 35  1  0  0  0  0
 11 36  1  0  0  0  0
 12 19  2  0  0  0  0
 12 37  1  0  0  0  0
 13 38  1  0  0  0  0
 13 39  1  0  0  0  0
 13 40  1  0  0  0  0
 14 17  2  0  0  0  0
 14 41  1  0  0  0  0
 15 17  1  0  0  0  0
 15 20  1  0  0  0  0
 15 42  1  0  0  0  0
 15 43  1  0  0  0  0
 17 44  1  0  0  0  0
 18 21  1  0  0  0  0
 18 22  1  0  0  0  0
 18 45  1  0  0  0  0
 18 46  1  0  0  0  0
 19 23  1  0  0  0  0
 19 47  1  0  0  0  0
 20 21  2  0  0  0  0
 20 48  1  0  0  0  0
 21 49  1  0  0  0  0
 22 23  2  0  0  0  0
 22 50  1  0  0  0  0
 23 51  1  0  0  0  0
M  END
> <PUBCHEM_COMPOUND_CID>
16061126

> <PUBCHEM_CONFORMER_RMSD>
1.6

> <PUBCHEM_CONFORMER_DIVERSEORDER>
4
15
16
42
38
24
36
68
53
5
89
29
28
50
77
64
10
60
33
86
67
54
52
25
13
87
51
91
71
1
88
35
63
62
49
61
14
27
41
57
76
65
85
21
11
58
59
8
72
83
66
90
7
32
17
74
56
44
81
46
82
93
80
94
47
73
30
9
48
92
95
97
34
20
3
75
40
39
37
19
12
55
22
43
23
96
70
2
18
78
79
26
45
31
84
69
6

> <PUBCHEM_MMFF94_PARTIAL_CHARGES>
32
1 -0.68
10 0.28
11 -0.29
12 -0.29
14 -0.29
15 0.28
16 0.66
17 -0.29
18 0.28
19 -0.15
2 -0.65
20 -0.29
21 -0.29
22 -0.29
23 -0.15
3 -0.57
30 0.15
36 0.15
37 0.15
41 0.15
44 0.15
47 0.15
48 0.15
49 0.15
5 0.14
50 0.15
51 0.15
52 0.4
53 0.5
6 0.06
7 -0.29
8 0.42

> <PUBCHEM_EFFECTIVE_ROTOR_COUNT>
13

> <PUBCHEM_PHARMACOPHORE_FEATURES>
7
1 1 acceptor
1 1 donor
1 13 hydrophobe
1 2 acceptor
1 3 acceptor
3 2 3 16 anion
4 4 5 6 7 hydrophobe

> <PUBCHEM_HEAVY_ATOM_COUNT>
23

> <PUBCHEM_ATOM_DEF_STEREO_COUNT>
1

> <PUBCHEM_ATOM_UDEF_STEREO_COUNT>
0

> <PUBCHEM_BOND_DEF_STEREO_COUNT>
5

> <PUBCHEM_BOND_UDEF_STEREO_COUNT>
0

> <PUBCHEM_ISOTOPIC_ATOM_COUNT>
0

> <PUBCHEM_COMPONENT_COUNT>
1

> <PUBCHEM_CACTVS_TAUTO_COUNT>
1

> <PUBCHEM_CONFORMER_ID>
00F512C600000004

> <PUBCHEM_MMFF94_ENERGY>
20.5252

> <PUBCHEM_FEATURE_SELFOVERLAP>
35.578

> <PUBCHEM_SHAPE_FINGERPRINT>
10764073 3 18190173688445995045
11140007 195 18129664080345548043
12467345 10 17274532140310563172
12596599 1 16699219162403798107
12633257 1 17968099703040756086
14251732 17 18186515523382510889
14251764 30 16558747897316932987
17974551 9 17971194716276566611
20429585 67 10735887200640038469
20600515 1 18266719385826994229
21330990 113 18343303694953428137
35225 105 18193827361653974990
445580 2 18410302401811594325
445580 42 18123491611700130138

> <PUBCHEM_SHAPE_MULTIPOLES>
455.72
9.3
3.67
2.22
0.53
0.89
0.94
-4.66
-3.46
-0.57
-0.66
0.09
0.65
1.02

> <PUBCHEM_SHAPE_SELFOVERLAP>
871.152

> <PUBCHEM_SHAPE_VOLUME>
276.2

> <PUBCHEM_COORDINATE_TYPE>
2
5
10

$$$$

