5210
  -OEChem-07051212533D

 45 46  0     1  0  0  0  0  0999 V2000
   -5.2916    1.2704    0.2392 Cl  0  0  0  0  0  0  0  0  0  0  0  0
    1.0909    1.0916   -0.8074 N   0  0  0  0  0  0  0  0  0  0  0  0
    0.3181   -1.0166    0.1398 C   0  0  0  0  0  0  0  0  0  0  0  0
    0.7011   -1.9615   -1.0183 C   0  0  0  0  0  0  0  0  0  0  0  0
    0.6479   -2.1807    1.0972 C   0  0  0  0  0  0  0  0  0  0  0  0
    1.3051    0.1430    0.2849 C   0  0  1  0  0  0  0  0  0  0  0  0
    0.3445   -3.1325   -0.0788 C   0  0  0  0  0  0  0  0  0  0  0  0
   -1.0989   -0.4412    0.1639 C   0  0  0  0  0  0  0  0  0  0  0  0
    2.7399   -0.4179    0.2725 C   0  0  0  0  0  0  0  0  0  0  0  0
    3.8705    0.6114    0.4796 C   0  0  0  0  0  0  0  0  0  0  0  0
   -1.6229    0.1185    1.3403 C   0  0  0  0  0  0  0  0  0  0  0  0
   -1.9010   -0.4597   -0.9889 C   0  0  0  0  0  0  0  0  0  0  0  0
   -0.2742    1.6146   -0.7697 C   0  0  0  0  0  0  0  0  0  0  0  0
    1.3593    0.4557   -2.0968 C   0  0  0  0  0  0  0  0  0  0  0  0
    3.6549    1.3540    1.8018 C   0  0  0  0  0  0  0  0  0  0  0  0
    3.9619    1.6182   -0.6675 C   0  0  0  0  0  0  0  0  0  0  0  0
   -2.9143    0.6455    1.3635 C   0  0  0  0  0  0  0  0  0  0  0  0
   -3.1923    0.0672   -0.9658 C   0  0  0  0  0  0  0  0  0  0  0  0
   -3.6990    0.6201    0.2105 C   0  0  0  0  0  0  0  0  0  0  0  0
    1.7299   -2.0943   -1.3548 H   0  0  0  0  0  0  0  0  0  0  0  0
    0.0960   -2.0157   -1.9266 H   0  0  0  0  0  0  0  0  0  0  0  0
   -0.0390   -2.3021    1.9436 H   0  0  0  0  0  0  0  0  0  0  0  0
    1.6420   -2.3658    1.4994 H   0  0  0  0  0  0  0  0  0  0  0  0
    1.1471    0.6492    1.2448 H   0  0  0  0  0  0  0  0  0  0  0  0
    0.9853   -4.0151   -0.1536 H   0  0  0  0  0  0  0  0  0  0  0  0
   -0.7032   -3.4504   -0.1357 H   0  0  0  0  0  0  0  0  0  0  0  0
    2.8904   -1.0896    1.1188 H   0  0  0  0  0  0  0  0  0  0  0  0
    3.0349   -1.0022   -0.5967 H   0  0  0  0  0  0  0  0  0  0  0  0
    4.8210    0.0656    0.5381 H   0  0  0  0  0  0  0  0  0  0  0  0
   -1.0287    0.1425    2.2504 H   0  0  0  0  0  0  0  0  0  0  0  0
   -1.5675   -0.8846   -1.9283 H   0  0  0  0  0  0  0  0  0  0  0  0
   -0.0686    2.6521   -1.1024 H   0  0  0  0  0  0  0  0  0  0  0  0
   -0.9359    1.4010   -1.6096 H   0  0  0  0  0  0  0  0  0  0  0  0
   -0.6709    1.9208    0.1999 H   0  0  0  0  0  0  0  0  0  0  0  0
    2.2799   -0.1178   -2.1974 H   0  0  0  0  0  0  0  0  0  0  0  0
    0.5243   -0.0934   -2.5339 H   0  0  0  0  0  0  0  0  0  0  0  0
    1.5101    1.2798   -2.8097 H   0  0  0  0  0  0  0  0  0  0  0  0
    2.7980    2.0341    1.7660 H   0  0  0  0  0  0  0  0  0  0  0  0
    4.5359    1.9622    2.0363 H   0  0  0  0  0  0  0  0  0  0  0  0
    3.5099    0.6548    2.6319 H   0  0  0  0  0  0  0  0  0  0  0  0
    4.0225    1.1239   -1.6402 H   0  0  0  0  0  0  0  0  0  0  0  0
    3.1626    2.3623   -0.6676 H   0  0  0  0  0  0  0  0  0  0  0  0
    4.8920    2.1910   -0.5605 H   0  0  0  0  0  0  0  0  0  0  0  0
   -3.2962    1.0720    2.2874 H   0  0  0  0  0  0  0  0  0  0  0  0
   -3.7934    0.0392   -1.8710 H   0  0  0  0  0  0  0  0  0  0  0  0
  1 19  1  0  0  0  0
  2  6  1  0  0  0  0
  2 13  1  0  0  0  0
  2 14  1  0  0  0  0
  3  4  1  0  0  0  0
  3  5  1  0  0  0  0
  3  6  1  0  0  0  0
  3  8  1  0  0  0  0
  4  7  1  0  0  0  0
  4 20  1  0  0  0  0
  4 21  1  0  0  0  0
  5  7  1  0  0  0  0
  5 22  1  0  0  0  0
  5 23  1  0  0  0  0
  6  9  1  0  0  0  0
  6 24  1  0  0  0  0
  7 25  1  0  0  0  0
  7 26  1  0  0  0  0
  8 11  2  0  0  0  0
  8 12  1  0  0  0  0
  9 10  1  0  0  0  0
  9 27  1  0  0  0  0
  9 28  1  0  0  0  0
 10 15  1  0  0  0  0
 10 16  1  0  0  0  0
 10 29  1  0  0  0  0
 11 17  1  0  0  0  0
 11 30  1  0  0  0  0
 12 18  2  0  0  0  0
 12 31  1  0  0  0  0
 13 32  1  0  0  0  0
 13 33  1  0  0  0  0
 13 34  1  0  0  0  0
 14 35  1  0  0  0  0
 14 36  1  0  0  0  0
 14 37  1  0  0  0  0
 15 38  1  0  0  0  0
 15 39  1  0  0  0  0
 15 40  1  0  0  0  0
 16 41  1  0  0  0  0
 16 42  1  0  0  0  0
 16 43  1  0  0  0  0
 17 19  2  0  0  0  0
 17 44  1  0  0  0  0
 18 19  1  0  0  0  0
 18 45  1  0  0  0  0
M  END
> <PUBCHEM_COMPOUND_CID>
5210

> <PUBCHEM_CONFORMER_RMSD>
0.8

> <PUBCHEM_CONFORMER_DIVERSEORDER>
1
2

> <PUBCHEM_MMFF94_PARTIAL_CHARGES>
16
1 -0.18
11 -0.15
12 -0.15
13 0.27
14 0.27
17 -0.15
18 -0.15
19 0.18
2 -0.81
3 0.11
30 0.15
31 0.15
44 0.15
45 0.15
6 0.27
8 -0.11

> <PUBCHEM_EFFECTIVE_ROTOR_COUNT>
5.8

> <PUBCHEM_PHARMACOPHORE_FEATURES>
4
1 2 cation
3 10 15 16 hydrophobe
4 3 4 5 7 rings
6 8 11 12 17 18 19 rings

> <PUBCHEM_HEAVY_ATOM_COUNT>
19

> <PUBCHEM_ATOM_DEF_STEREO_COUNT>
0

> <PUBCHEM_ATOM_UDEF_STEREO_COUNT>
1

> <PUBCHEM_BOND_DEF_STEREO_COUNT>
0

> <PUBCHEM_BOND_UDEF_STEREO_COUNT>
0

> <PUBCHEM_ISOTOPIC_ATOM_COUNT>
0

> <PUBCHEM_COMPONENT_COUNT>
1

> <PUBCHEM_CACTVS_TAUTO_COUNT>
1

> <PUBCHEM_CONFORMER_ID>
0000145A00000001

> <PUBCHEM_MMFF94_ENERGY>
127.4451

> <PUBCHEM_FEATURE_SELFOVERLAP>
20.297

> <PUBCHEM_SHAPE_FINGERPRINT>
10382601 240 18270395126123299227
10863032 1 16949997036881371214
10948715 1 17894355453564611358
11543360 7 15792017727310619144
11640471 11 18187080680764401913
11961588 58 16009334048988881129
12119455 92 18343029886598744962
12236239 1 18114185263429964845
12251169 10 16415474926605315305
12491281 212 17968093084453779338
12553582 1 10159704572964937544
12592029 89 18201726153913111675
12633257 1 16773792593638759889
12788726 201 17692254036949425850
12892183 10 15482400802010865260
13140716 1 18130503016244386529
13172582 1 18202281368820167726
14115302 16 13614223907013948785
14178342 30 18341041961344650035
14787075 74 17751368274646715619
15061688 2 18187650171736711328
15309172 13 18343303643508668538
15342168 16 18341327816607909701
15375358 24 17917713543458129853
15775835 57 18333733519970154689
16945 1 17346605174681969238
17804303 29 14261355777492354905
1813 80 17465372415076155302
18186145 218 18260546719137995052
19765921 60 18187369830752900651
204376 136 18412824659720771155
20511035 2 17559098883414798916
20600515 1 15697708281964815533
21296965 67 9871754593705613634
21452121 103 18265902534475937835
21524375 3 18333453144689954634
22182313 1 17843132655658905951
23184049 59 18202005430114304386
23402539 116 17676778590744042716
23419403 2 17271187619207479238
23493267 7 16587746438852921607
23557571 272 17459749220584944407
23559900 14 16127815321801375874
2748010 2 18197191750743844818
296302 2 18411982477180299009
298252 57 16588311557490533806
3250762 1 17623305170109350412
3323516 105 6555402115949070729
4072396 5 17988936590552902361
4340502 62 18411411826825419387
474 4 18408600357537666001
633830 44 17967820426918476268
7364860 26 18043809998896327319
81228 2 15604780509395781581
81539 233 18412262873819635423
84936 182 18114463486504704688

> <PUBCHEM_SHAPE_MULTIPOLES>
387.9
7.38
2.27
1.54
3.96
1.79
-0.09
-5.37
1.47
-1.04
0.03
-0.5
-0.28
-0.1

> <PUBCHEM_SHAPE_SELFOVERLAP>
802.229

> <PUBCHEM_SHAPE_VOLUME>
224.6

> <PUBCHEM_COORDINATE_TYPE>
2
5
10

$$$$

