54712597
  -OEChem-07051212563D

 58 59  0     0  0  0  0  0  0999 V2000
   -1.4839   -0.1293   -1.5624 O   0  0  0  0  0  0  0  0  0  0  0  0
    0.6717   -3.2055    0.2830 O   0  0  0  0  0  0  0  0  0  0  0  0
    0.3138    0.3941   -2.8538 O   0  0  0  0  0  0  0  0  0  0  0  0
   -5.3093   -1.1505    1.1030 O   0  0  0  0  0  0  0  0  0  0  0  0
    4.7985    0.6096   -0.0033 C   0  0  0  0  0  0  0  0  0  0  0  0
    4.2688    1.1824    1.3170 C   0  0  0  0  0  0  0  0  0  0  0  0
    3.9927   -0.5545   -0.5373 C   0  0  0  0  0  0  0  0  0  0  0  0
    1.7701    1.0181    1.9060 C   0  0  0  0  0  0  0  0  0  0  0  0
    0.3410    1.5169    1.8219 C   0  0  0  0  0  0  0  0  0  0  0  0
    2.8148    1.5607    1.2491 C   0  0  0  0  0  0  0  0  0  0  0  0
    2.0059   -1.5393   -1.8226 C   0  0  0  0  0  0  0  0  0  0  0  0
    2.8828   -0.4429   -1.2934 C   0  0  0  0  0  0  0  0  0  0  0  0
    0.0892    2.6723    0.8415 C   0  0  0  0  0  0  0  0  0  0  0  0
    0.6059   -1.4081   -1.3258 C   0  0  0  0  0  0  0  0  0  0  0  0
    4.4893   -1.9167   -0.1236 C   0  0  0  0  0  0  0  0  0  0  0  0
    0.0375   -2.1722   -0.3734 C   0  0  0  0  0  0  0  0  0  0  0  0
    2.0137   -0.1286    2.8559 C   0  0  0  0  0  0  0  0  0  0  0  0
   -1.3483   -1.9469    0.0440 C   0  0  0  0  0  0  0  0  0  0  0  0
   -1.3607    3.0390    0.6893 C   0  0  0  0  0  0  0  0  0  0  0  0
   -2.0704   -0.9267   -0.5655 C   0  0  0  0  0  0  0  0  0  0  0  0
   -0.1734   -0.3166   -1.9798 C   0  0  0  0  0  0  0  0  0  0  0  0
   -1.9783    3.4965   -0.4162 C   0  0  0  0  0  0  0  0  0  0  0  0
   -1.9925   -2.7057    1.0309 C   0  0  0  0  0  0  0  0  0  0  0  0
   -3.3942   -0.6452   -0.2254 C   0  0  0  0  0  0  0  0  0  0  0  0
   -3.3193   -2.4370    1.3840 C   0  0  0  0  0  0  0  0  0  0  0  0
   -4.0191   -1.4075    0.7563 C   0  0  0  0  0  0  0  0  0  0  0  0
   -3.4366    3.8464   -0.5046 C   0  0  0  0  0  0  0  0  0  0  0  0
   -1.2096    3.6973   -1.6946 C   0  0  0  0  0  0  0  0  0  0  0  0
    5.8499    0.3191    0.1134 H   0  0  0  0  0  0  0  0  0  0  0  0
    4.8001    1.4081   -0.7581 H   0  0  0  0  0  0  0  0  0  0  0  0
    4.8419    2.0863    1.5594 H   0  0  0  0  0  0  0  0  0  0  0  0
    4.4804    0.4812    2.1294 H   0  0  0  0  0  0  0  0  0  0  0  0
    0.0229    1.8257    2.8261 H   0  0  0  0  0  0  0  0  0  0  0  0
   -0.2964    0.6712    1.5354 H   0  0  0  0  0  0  0  0  0  0  0  0
    2.6368    2.4057    0.5878 H   0  0  0  0  0  0  0  0  0  0  0  0
    2.0087   -1.4657   -2.9191 H   0  0  0  0  0  0  0  0  0  0  0  0
    2.4077   -2.5385   -1.6488 H   0  0  0  0  0  0  0  0  0  0  0  0
    2.5853    0.5681   -1.5699 H   0  0  0  0  0  0  0  0  0  0  0  0
    0.4989    2.3802   -0.1308 H   0  0  0  0  0  0  0  0  0  0  0  0
    0.6288    3.5627    1.1866 H   0  0  0  0  0  0  0  0  0  0  0  0
    5.3255   -2.2185   -0.7625 H   0  0  0  0  0  0  0  0  0  0  0  0
    3.7359   -2.7040   -0.1389 H   0  0  0  0  0  0  0  0  0  0  0  0
    4.8532   -1.8813    0.9100 H   0  0  0  0  0  0  0  0  0  0  0  0
    2.1615    0.2471    3.8732 H   0  0  0  0  0  0  0  0  0  0  0  0
    1.1430   -0.7945    2.8663 H   0  0  0  0  0  0  0  0  0  0  0  0
    2.8613   -0.7589    2.5768 H   0  0  0  0  0  0  0  0  0  0  0  0
   -1.9612    2.9394    1.5925 H   0  0  0  0  0  0  0  0  0  0  0  0
   -1.4785   -3.5158    1.5426 H   0  0  0  0  0  0  0  0  0  0  0  0
   -3.9298    0.1601   -0.7202 H   0  0  0  0  0  0  0  0  0  0  0  0
   -3.7944   -3.0410    2.1528 H   0  0  0  0  0  0  0  0  0  0  0  0
   -1.5052    4.6435   -2.1624 H   0  0  0  0  0  0  0  0  0  0  0  0
   -3.9535    3.6624    0.4430 H   0  0  0  0  0  0  0  0  0  0  0  0
   -0.1267    3.7558   -1.5640 H   0  0  0  0  0  0  0  0  0  0  0  0
   -1.4335    2.8891   -2.3982 H   0  0  0  0  0  0  0  0  0  0  0  0
   -3.9266    3.2421   -1.2748 H   0  0  0  0  0  0  0  0  0  0  0  0
   -3.5626    4.9046   -0.7549 H   0  0  0  0  0  0  0  0  0  0  0  0
    1.5929   -3.2616   -0.0115 H   0  0  0  0  0  0  0  0  0  0  0  0
   -5.5794   -1.7750    1.7981 H   0  0  0  0  0  0  0  0  0  0  0  0
  1 20  1  0  0  0  0
  1 21  1  0  0  0  0
  2 16  1  0  0  0  0
  2 57  1  0  0  0  0
  3 21  2  0  0  0  0
  4 26  1  0  0  0  0
  4 58  1  0  0  0  0
  5  6  1  0  0  0  0
  5  7  1  0  0  0  0
  5 29  1  0  0  0  0
  5 30  1  0  0  0  0
  6 10  1  0  0  0  0
  6 31  1  0  0  0  0
  6 32  1  0  0  0  0
  7 12  2  0  0  0  0
  7 15  1  0  0  0  0
  8  9  1  0  0  0  0
  8 10  2  0  0  0  0
  8 17  1  0  0  0  0
  9 13  1  0  0  0  0
  9 33  1  0  0  0  0
  9 34  1  0  0  0  0
 10 35  1  0  0  0  0
 11 12  1  0  0  0  0
 11 14  1  0  0  0  0
 11 36  1  0  0  0  0
 11 37  1  0  0  0  0
 12 38  1  0  0  0  0
 13 19  1  0  0  0  0
 13 39  1  0  0  0  0
 13 40  1  0  0  0  0
 14 16  2  0  0  0  0
 14 21  1  0  0  0  0
 15 41  1  0  0  0  0
 15 42  1  0  0  0  0
 15 43  1  0  0  0  0
 16 18  1  0  0  0  0
 17 44  1  0  0  0  0
 17 45  1  0  0  0  0
 17 46  1  0  0  0  0
 18 20  2  0  0  0  0
 18 23  1  0  0  0  0
 19 22  2  0  0  0  0
 19 47  1  0  0  0  0
 20 24  1  0  0  0  0
 22 27  1  0  0  0  0
 22 28  1  0  0  0  0
 23 25  2  0  0  0  0
 23 48  1  0  0  0  0
 24 26  2  0  0  0  0
 24 49  1  0  0  0  0
 25 26  1  0  0  0  0
 25 50  1  0  0  0  0
 27 52  1  0  0  0  0
 27 55  1  0  0  0  0
 27 56  1  0  0  0  0
 28 51  1  0  0  0  0
 28 53  1  0  0  0  0
 28 54  1  0  0  0  0
M  END
> <PUBCHEM_COMPOUND_CID>
54712597

> <PUBCHEM_CONFORMER_RMSD>
1.4

> <PUBCHEM_CONFORMER_DIVERSEORDER>
2
80
86
55
17
62
70
1
64
4
47
61
13
87
38
23
85
66
36
71
42
91
5
81
50
74
52
73
93
98
20
30
89
90
63
104
92
3
39
35
37
69
9
67
6
31
83
82
40
32
49
28
95
72
43
10
65
58
12
78
75
19
76
14
24
41
100
102
29
103
7
88
45
56
79
8
94
101
99
15
57
26
51
33
77
27
11
22
60
68
54
53
25
18
97
16
59
34
48
84
21
46
44
96

> <PUBCHEM_MMFF94_PARTIAL_CHARGES>
36
1 -0.23
10 -0.29
11 0.28
12 -0.29
13 0.14
14 -0.12
15 0.14
16 0.05
17 0.14
18 0.03
19 -0.29
2 -0.53
20 0.08
21 0.71
22 -0.28
23 -0.15
24 -0.15
25 -0.15
26 0.08
27 0.14
28 0.14
3 -0.57
35 0.15
38 0.15
4 -0.53
47 0.15
48 0.15
49 0.15
5 0.14
50 0.15
57 0.45
58 0.45
6 0.14
7 -0.28
8 -0.28
9 0.14

> <PUBCHEM_EFFECTIVE_ROTOR_COUNT>
8

> <PUBCHEM_PHARMACOPHORE_FEATURES>
10
1 15 hydrophobe
1 17 hydrophobe
1 2 donor
1 3 acceptor
1 4 donor
3 22 27 28 hydrophobe
4 5 6 7 10 hydrophobe
4 8 9 13 19 hydrophobe
6 1 14 16 18 20 21 rings
6 18 20 23 24 25 26 rings

> <PUBCHEM_HEAVY_ATOM_COUNT>
28

> <PUBCHEM_ATOM_DEF_STEREO_COUNT>
0

> <PUBCHEM_ATOM_UDEF_STEREO_COUNT>
0

> <PUBCHEM_BOND_DEF_STEREO_COUNT>
2

> <PUBCHEM_BOND_UDEF_STEREO_COUNT>
0

> <PUBCHEM_ISOTOPIC_ATOM_COUNT>
0

> <PUBCHEM_COMPONENT_COUNT>
1

> <PUBCHEM_CACTVS_TAUTO_COUNT>
14

> <PUBCHEM_CONFORMER_ID>
0342D91500000002

> <PUBCHEM_MMFF94_ENERGY>
57.9284

> <PUBCHEM_FEATURE_SELFOVERLAP>
50.776

> <PUBCHEM_SHAPE_FINGERPRINT>
10119406 146 15518092367236959974
10688039 33 18412256212188092489
1100329 8 17474104779193854530
11244481 83 17624408675829741427
11370993 70 17766552834757666557
12156800 1 18269533061815743389
12422481 6 17823398526563985763
12633257 1 18050865329226375954
12788726 201 18127383748927024356
13402501 40 18187081762806114297
13726171 33 18409160009489792424
15721738 202 15194710205191929713
20600515 1 18267567045120512869
20691752 17 18189629245490840838
23419403 2 17749946777647117633
238 59 17024614375852090040
3052486 1 18271804665897554049
3187 122 18341335517547860805
35225 105 18124341499000487229
469060 322 18126819746970489161
474 4 16588571033508215054
6287921 2 16898495607525676624
7097593 13 17404309499413276497

> <PUBCHEM_SHAPE_MULTIPOLES>
552.75
7.87
4.57
2.33
2.15
3.55
-0.04
-1.43
1.93
-4.44
-0.15
0.8
0.28
2.51

> <PUBCHEM_SHAPE_SELFOVERLAP>
1140.573

> <PUBCHEM_SHAPE_VOLUME>
316.2

> <PUBCHEM_COORDINATE_TYPE>
2
5
10

$$$$

