12184
  -OEChem-06261206383D

 15 14  0     0  0  0  0  0  0999 V2000
   -0.7034    0.4554   -0.0026 O   0  0  0  0  0  0  0  0  0  0  0  0
    2.8523    0.2084    0.0134 O   0  0  0  0  0  0  0  0  0  0  0  0
    0.6908   -1.3843   -0.0034 O   0  0  0  0  0  0  0  0  0  0  0  0
   -1.8458   -0.4068    0.0026 C   0  0  0  0  0  0  0  0  0  0  0  0
   -3.1016    0.4387    0.0048 C   0  0  0  0  0  0  0  0  0  0  0  0
    0.5081   -0.1745   -0.0051 C   0  0  0  0  0  0  0  0  0  0  0  0
    1.5995    0.8632   -0.0096 C   0  0  0  0  0  0  0  0  0  0  0  0
   -1.8284   -1.0413   -0.8905 H   0  0  0  0  0  0  0  0  0  0  0  0
   -1.8229   -1.0380    0.8980 H   0  0  0  0  0  0  0  0  0  0  0  0
   -3.9963   -0.1900    0.0089 H   0  0  0  0  0  0  0  0  0  0  0  0
   -3.1245    1.0922    0.8831 H   0  0  0  0  0  0  0  0  0  0  0  0
   -3.1301    1.0887   -0.8759 H   0  0  0  0  0  0  0  0  0  0  0  0
    1.5184    1.4835    0.8866 H   0  0  0  0  0  0  0  0  0  0  0  0
    1.5335    1.4799   -0.9098 H   0  0  0  0  0  0  0  0  0  0  0  0
    2.9497   -0.2685   -0.8286 H   0  0  0  0  0  0  0  0  0  0  0  0
  1  4  1  0  0  0  0
  1  6  1  0  0  0  0
  2  7  1  0  0  0  0
  2 15  1  0  0  0  0
  3  6  2  0  0  0  0
  4  5  1  0  0  0  0
  4  8  1  0  0  0  0
  4  9  1  0  0  0  0
  5 10  1  0  0  0  0
  5 11  1  0  0  0  0
  5 12  1  0  0  0  0
  6  7  1  0  0  0  0
  7 13  1  0  0  0  0
  7 14  1  0  0  0  0
M  END
> <PUBCHEM_COMPOUND_CID>
12184

> <PUBCHEM_CONFORMER_RMSD>
0.4

> <PUBCHEM_CONFORMER_DIVERSEORDER>
1
39
22
11
32
23
3
9
35
14
17
2
5
28
34
19
10
30
4
13
12
26
29
15
24
33
31
7
6
16
18
38
36
27
25
37
8
20
21

> <PUBCHEM_MMFF94_PARTIAL_CHARGES>
7
1 -0.43
15 0.4
2 -0.68
3 -0.57
4 0.28
6 0.66
7 0.34

> <PUBCHEM_EFFECTIVE_ROTOR_COUNT>
3

> <PUBCHEM_PHARMACOPHORE_FEATURES>
3
1 2 acceptor
1 2 donor
1 3 acceptor

> <PUBCHEM_HEAVY_ATOM_COUNT>
7

> <PUBCHEM_ATOM_DEF_STEREO_COUNT>
0

> <PUBCHEM_ATOM_UDEF_STEREO_COUNT>
0

> <PUBCHEM_BOND_DEF_STEREO_COUNT>
0

> <PUBCHEM_BOND_UDEF_STEREO_COUNT>
0

> <PUBCHEM_ISOTOPIC_ATOM_COUNT>
0

> <PUBCHEM_COMPONENT_COUNT>
1

> <PUBCHEM_CACTVS_TAUTO_COUNT>
1

> <PUBCHEM_CONFORMER_ID>
00002F9800000001

> <PUBCHEM_MMFF94_ENERGY>
-0.2933

> <PUBCHEM_FEATURE_SELFOVERLAP>
15.23

> <PUBCHEM_SHAPE_FINGERPRINT>
14325111 11 18410575041818985444
14390081 3 18260832592135018545
20096714 4 18337673014303201960
21040471 1 18338516318273210950
29004967 10 18202557393457051553
5460574 1 9295291638183921121

> <PUBCHEM_SHAPE_MULTIPOLES>
126.45
4.19
1.01
0.57
1.17
0.21
0
-0.88
0.02
-0.19
0
0.05
-0.01
0

> <PUBCHEM_SHAPE_SELFOVERLAP>
227.661

> <PUBCHEM_SHAPE_VOLUME>
81.5

> <PUBCHEM_COORDINATE_TYPE>
2
5
10

$$$$

