441486
  -OEChem-07051212552D

 52 55  0     1  0  0  0  0  0999 V2000
    3.0000   -2.0638    0.0000 S   0  0  0  0  0  0  0  0  0  0  0  0
    9.6538    3.2438    0.0000 O   0  0  0  0  0  0  0  0  0  0  0  0
    3.0200    1.0278    0.0000 O   0  0  0  0  0  0  0  0  0  0  0  0
    3.0038   -1.0638    0.0000 O   0  0  0  0  0  0  0  0  0  0  0  0
    2.9961   -3.0638    0.0000 O   0  0  0  0  0  0  0  0  0  0  0  0
    2.0000   -2.0599    0.0000 O   0  0  0  0  0  0  0  0  0  0  0  0
    4.0000   -2.0676    0.0000 O   0  0  0  0  0  0  0  0  0  0  0  0
    8.3969    1.9886    0.0000 C   0  0  1  0  0  0  0  0  0  0  0  0
    8.3969    0.9886    0.0000 C   0  0  2  0  0  0  0  0  0  0  0  0
    7.5309    0.4886    0.0000 C   0  0  1  0  0  0  0  0  0  0  0  0
    6.6649    0.9886    0.0000 C   0  0  2  0  0  0  0  0  0  0  0  0
    9.3432    2.2933    0.0000 C   0  0  2  0  0  0  0  0  0  0  0  0
    7.5309    2.4886    0.0000 C   0  0  0  0  0  0  0  0  0  0  0  0
    9.3432    0.6838    0.0000 C   0  0  0  0  0  0  0  0  0  0  0  0
    6.6649    1.9886    0.0000 C   0  0  0  0  0  0  0  0  0  0  0  0
    9.9268    1.4886    0.0000 C   0  0  0  0  0  0  0  0  0  0  0  0
    7.5470   -0.5529    0.0000 C   0  0  0  0  0  0  0  0  0  0  0  0
    8.3969    2.9886    0.0000 C   0  0  0  0  0  0  0  0  0  0  0  0
    5.7549    0.4817    0.0000 C   0  0  0  0  0  0  0  0  0  0  0  0
    6.6489   -1.0807    0.0000 C   0  0  0  0  0  0  0  0  0  0  0  0
    5.7468   -0.5599    0.0000 C   0  0  0  0  0  0  0  0  0  0  0  0
    4.8280    1.0458    0.0000 C   0  0  0  0  0  0  0  0  0  0  0  0
    4.8114   -1.1096    0.0000 C   0  0  0  0  0  0  0  0  0  0  0  0
    3.8802    0.5179    0.0000 C   0  0  0  0  0  0  0  0  0  0  0  0
    3.8718   -0.5671    0.0000 C   0  0  0  0  0  0  0  0  0  0  0  0
    3.0315    2.0278    0.0000 C   0  0  0  0  0  0  0  0  0  0  0  0
    8.4869    0.1433    0.0000 H   0  0  0  0  0  0  0  0  0  0  0  0
    8.2703    0.0693    0.0000 H   0  0  0  0  0  0  0  0  0  0  0  0
    7.4010    1.4136    0.0000 H   0  0  0  0  0  0  0  0  0  0  0  0
    8.9057    2.7326    0.0000 H   0  0  0  0  0  0  0  0  0  0  0  0
    7.9294    2.9635    0.0000 H   0  0  0  0  0  0  0  0  0  0  0  0
    7.1324    2.9635    0.0000 H   0  0  0  0  0  0  0  0  0  0  0  0
    9.0921    0.1169    0.0000 H   0  0  0  0  0  0  0  0  0  0  0  0
    9.8805    0.3746    0.0000 H   0  0  0  0  0  0  0  0  0  0  0  0
    6.4528    2.5712    0.0000 H   0  0  0  0  0  0  0  0  0  0  0  0
    6.0543    1.8809    0.0000 H   0  0  0  0  0  0  0  0  0  0  0  0
   10.3876    1.0738    0.0000 H   0  0  0  0  0  0  0  0  0  0  0  0
   10.3876    1.9033    0.0000 H   0  0  0  0  0  0  0  0  0  0  0  0
    7.7650   -1.1333    0.0000 H   0  0  0  0  0  0  0  0  0  0  0  0
    8.1561   -0.4374    0.0000 H   0  0  0  0  0  0  0  0  0  0  0  0
    9.0169    2.9886    0.0000 H   0  0  0  0  0  0  0  0  0  0  0  0
    8.3969    3.6086    0.0000 H   0  0  0  0  0  0  0  0  0  0  0  0
    7.7769    2.9886    0.0000 H   0  0  0  0  0  0  0  0  0  0  0  0
    6.2516   -1.5567    0.0000 H   0  0  0  0  0  0  0  0  0  0  0  0
    7.0499   -1.5536    0.0000 H   0  0  0  0  0  0  0  0  0  0  0  0
   10.2605    3.3717    0.0000 H   0  0  0  0  0  0  0  0  0  0  0  0
    4.8400    1.6657    0.0000 H   0  0  0  0  0  0  0  0  0  0  0  0
    4.8138   -1.7296    0.0000 H   0  0  0  0  0  0  0  0  0  0  0  0
    3.6515    2.0206    0.0000 H   0  0  0  0  0  0  0  0  0  0  0  0
    3.0387    2.6477    0.0000 H   0  0  0  0  0  0  0  0  0  0  0  0
    2.4116    2.0349    0.0000 H   0  0  0  0  0  0  0  0  0  0  0  0
    2.4580   -3.3717    0.0000 H   0  0  0  0  0  0  0  0  0  0  0  0
  1  4  1  0  0  0  0
  1  5  1  0  0  0  0
  1  6  2  0  0  0  0
  1  7  2  0  0  0  0
 12  2  1  1  0  0  0
  2 46  1  0  0  0  0
  3 24  1  0  0  0  0
  3 26  1  0  0  0  0
  4 25  1  0  0  0  0
  5 52  1  0  0  0  0
  8  9  1  0  0  0  0
  8 12  1  0  0  0  0
  8 13  1  0  0  0  0
  8 18  1  1  0  0  0
  9 10  1  0  0  0  0
  9 14  1  0  0  0  0
  9 27  1  6  0  0  0
 10 11  1  0  0  0  0
 10 17  1  0  0  0  0
 10 28  1  1  0  0  0
 11 15  1  0  0  0  0
 11 19  1  0  0  0  0
 11 29  1  6  0  0  0
 12 16  1  0  0  0  0
 12 30  1  0  0  0  0
 13 15  1  0  0  0  0
 13 31  1  0  0  0  0
 13 32  1  0  0  0  0
 14 16  1  0  0  0  0
 14 33  1  0  0  0  0
 14 34  1  0  0  0  0
 15 35  1  0  0  0  0
 15 36  1  0  0  0  0
 16 37  1  0  0  0  0
 16 38  1  0  0  0  0
 17 20  1  0  0  0  0
 17 39  1  0  0  0  0
 17 40  1  0  0  0  0
 18 41  1  0  0  0  0
 18 42  1  0  0  0  0
 18 43  1  0  0  0  0
 19 21  1  0  0  0  0
 19 22  2  0  0  0  0
 20 21  1  0  0  0  0
 20 44  1  0  0  0  0
 20 45  1  0  0  0  0
 21 23  2  0  0  0  0
 22 24  1  0  0  0  0
 22 47  1  0  0  0  0
 23 25  1  0  0  0  0
 23 48  1  0  0  0  0
 24 25  2  0  0  0  0
 26 49  1  0  0  0  0
 26 50  1  0  0  0  0
 26 51  1  0  0  0  0
M  END
> <PUBCHEM_COMPOUND_CID>
441486

> <PUBCHEM_COMPOUND_CANONICALIZED>
1

> <PUBCHEM_CACTVS_COMPLEXITY>
630

> <PUBCHEM_CACTVS_HBOND_ACCEPTOR>
6

> <PUBCHEM_CACTVS_HBOND_DONOR>
2

> <PUBCHEM_CACTVS_ROTATABLE_BOND>
3

> <PUBCHEM_CACTVS_SUBSKEYS>
AAADceB4OABAAAAAAAAAAAAAAAAAAYAAAAAwYMAAAAAAAGDBAAAAGgAACAAADxSgmAIyBoAABoCAAiBCADACCAAgIAAAiAAGiIgNNiKEMRqAcCIkwBEKqAeAwPAPoAABAAAQQADAAAYAACCAAIAADAAAAA==

> <PUBCHEM_IUPAC_OPENEYE_NAME>
[(8R,9S,13S,14S,17S)-17-hydroxy-2-methoxy-13-methyl-6,7,8,9,11,12,14,15,16,17-decahydrocyclopenta[a]phenanthren-3-yl] hydrogen sulfate

> <PUBCHEM_IUPAC_CAS_NAME>
sulfuric acid [(8R,9S,13S,14S,17S)-17-hydroxy-2-methoxy-13-methyl-6,7,8,9,11,12,14,15,16,17-decahydrocyclopenta[a]phenanthren-3-yl] ester

> <PUBCHEM_IUPAC_NAME>
[(8R,9S,13S,14S,17S)-17-hydroxy-2-methoxy-13-methyl-6,7,8,9,11,12,14,15,16,17-decahydrocyclopenta[a]phenanthren-3-yl] hydrogen sulfate

> <PUBCHEM_IUPAC_SYSTEMATIC_NAME>
[(8R,9S,13S,14S,17S)-2-methoxy-13-methyl-17-oxidanyl-6,7,8,9,11,12,14,15,16,17-decahydrocyclopenta[a]phenanthren-3-yl] hydrogen sulfate

> <PUBCHEM_IUPAC_TRADITIONAL_NAME>
sulfuric acid [(8R,9S,13S,14S,17S)-17-hydroxy-2-methoxy-13-methyl-6,7,8,9,11,12,14,15,16,17-decahydrocyclopenta[a]phenanthren-3-yl] ester

> <PUBCHEM_IUPAC_INCHI>
InChI=1S/C19H26O6S/c1-19-8-7-12-13(15(19)5-6-18(19)20)4-3-11-9-17(25-26(21,22)23)16(24-2)10-14(11)12/h9-10,12-13,15,18,20H,3-8H2,1-2H3,(H,21,22,23)/t12-,13+,15-,18-,19-/m0/s1

> <PUBCHEM_IUPAC_INCHIKEY>
HKVMUVAMCRTTDB-SSTWWWIQSA-N

> <PUBCHEM_XLOGP3>
3.4

> <PUBCHEM_EXACT_MASS>
382.14501

> <PUBCHEM_MOLECULAR_FORMULA>
C19H26O6S

> <PUBCHEM_MOLECULAR_WEIGHT>
382.47114

> <PUBCHEM_OPENEYE_CAN_SMILES>
CC12CCC3C(C1CCC2O)CCC4=CC(=C(C=C34)OC)OS(=O)(=O)O

> <PUBCHEM_OPENEYE_ISO_SMILES>
C[C@]12CC[C@H]3[C@H]([C@@H]1CC[C@@H]2O)CCC4=CC(=C(C=C34)OC)OS(=O)(=O)O

> <PUBCHEM_CACTVS_TPSA>
101

> <PUBCHEM_MONOISOTOPIC_WEIGHT>
382.14501

> <PUBCHEM_TOTAL_CHARGE>
0

> <PUBCHEM_HEAVY_ATOM_COUNT>
26

> <PUBCHEM_ATOM_DEF_STEREO_COUNT>
5

> <PUBCHEM_ATOM_UDEF_STEREO_COUNT>
0

> <PUBCHEM_BOND_DEF_STEREO_COUNT>
0

> <PUBCHEM_BOND_UDEF_STEREO_COUNT>
0

> <PUBCHEM_ISOTOPIC_ATOM_COUNT>
0

> <PUBCHEM_COMPONENT_COUNT>
1

> <PUBCHEM_CACTVS_TAUTO_COUNT>
1

> <PUBCHEM_COORDINATE_TYPE>
1
5
255

> <PUBCHEM_BONDANNOTATIONS>
10  28  5
11  29  6
19  21  8
19  22  8
12  2  5
21  23  8
22  24  8
23  25  8
24  25  8
8  18  5
9  27  6

$$$$

