5280867
  -OEChem-07051212513D

 47 47  0     0  0  0  0  0  0999 V2000
    3.9102    3.3263    0.2042 O   0  0  0  0  0  0  0  0  0  0  0  0
   -4.0035   -0.6034   -0.4741 C   0  0  0  0  0  0  0  0  0  0  0  0
   -4.8425    0.5191   -1.1625 C   0  0  0  0  0  0  0  0  0  0  0  0
   -2.7108   -0.0341    0.1628 C   0  0  0  0  0  0  0  0  0  0  0  0
   -3.7331   -1.6694   -1.5627 C   0  0  0  0  0  0  0  0  0  0  0  0
   -4.8513   -1.2532    0.6439 C   0  0  0  0  0  0  0  0  0  0  0  0
   -2.6327    1.2692    0.5313 C   0  0  0  0  0  0  0  0  0  0  0  0
   -4.8034    1.8299   -0.4449 C   0  0  0  0  0  0  0  0  0  0  0  0
   -3.7727    2.1565    0.3422 C   0  0  0  0  0  0  0  0  0  0  0  0
   -1.6245   -0.9718    0.3734 C   0  0  0  0  0  0  0  0  0  0  0  0
   -1.4631    1.9504    1.1952 C   0  0  0  0  0  0  0  0  0  0  0  0
   -0.3329   -0.6537    0.1884 C   0  0  0  0  0  0  0  0  0  0  0  0
    0.8135   -1.5429    0.3789 C   0  0  0  0  0  0  0  0  0  0  0  0
    0.5288   -2.9588    0.8254 C   0  0  0  0  0  0  0  0  0  0  0  0
    2.0987   -1.1772    0.1802 C   0  0  0  0  0  0  0  0  0  0  0  0
    3.3013   -1.9758    0.3394 C   0  0  0  0  0  0  0  0  0  0  0  0
    4.5323   -1.4856    0.1066 C   0  0  0  0  0  0  0  0  0  0  0  0
    4.8567   -0.1269   -0.3268 C   0  0  0  0  0  0  0  0  0  0  0  0
    5.9549    0.0343   -1.3530 C   0  0  0  0  0  0  0  0  0  0  0  0
    4.2445    0.9847    0.1266 C   0  0  0  0  0  0  0  0  0  0  0  0
    4.5296    2.3822   -0.2744 C   0  0  0  0  0  0  0  0  0  0  0  0
   -5.8875    0.1969   -1.2552 H   0  0  0  0  0  0  0  0  0  0  0  0
   -4.4843    0.6966   -2.1856 H   0  0  0  0  0  0  0  0  0  0  0  0
   -3.0611   -1.2827   -2.3377 H   0  0  0  0  0  0  0  0  0  0  0  0
   -3.2800   -2.5765   -1.1480 H   0  0  0  0  0  0  0  0  0  0  0  0
   -4.6655   -1.9747   -2.0524 H   0  0  0  0  0  0  0  0  0  0  0  0
   -5.1083   -0.5330    1.4290 H   0  0  0  0  0  0  0  0  0  0  0  0
   -5.7902   -1.6538    0.2441 H   0  0  0  0  0  0  0  0  0  0  0  0
   -4.3215   -2.0859    1.1205 H   0  0  0  0  0  0  0  0  0  0  0  0
   -5.6192    2.5302   -0.5919 H   0  0  0  0  0  0  0  0  0  0  0  0
   -3.7728    3.1224    0.8379 H   0  0  0  0  0  0  0  0  0  0  0  0
   -1.9133   -1.9585    0.7215 H   0  0  0  0  0  0  0  0  0  0  0  0
   -0.8642    1.2744    1.8112 H   0  0  0  0  0  0  0  0  0  0  0  0
   -1.8009    2.7284    1.8912 H   0  0  0  0  0  0  0  0  0  0  0  0
   -0.8239    2.4345    0.4496 H   0  0  0  0  0  0  0  0  0  0  0  0
   -0.0633    0.3242   -0.2031 H   0  0  0  0  0  0  0  0  0  0  0  0
    1.3912   -3.6133    0.9448 H   0  0  0  0  0  0  0  0  0  0  0  0
   -0.1249   -3.4563    0.0988 H   0  0  0  0  0  0  0  0  0  0  0  0
    0.0192   -2.9498    1.7963 H   0  0  0  0  0  0  0  0  0  0  0  0
    2.1984   -0.1820   -0.2339 H   0  0  0  0  0  0  0  0  0  0  0  0
    3.2410   -3.0091    0.6555 H   0  0  0  0  0  0  0  0  0  0  0  0
    5.3833   -2.1522    0.2298 H   0  0  0  0  0  0  0  0  0  0  0  0
    6.3368   -0.9388   -1.6829 H   0  0  0  0  0  0  0  0  0  0  0  0
    6.8030    0.5875   -0.9353 H   0  0  0  0  0  0  0  0  0  0  0  0
    5.5876    0.5468   -2.2489 H   0  0  0  0  0  0  0  0  0  0  0  0
    3.5127    0.9289    0.9288 H   0  0  0  0  0  0  0  0  0  0  0  0
    5.3196    2.5343   -1.0248 H   0  0  0  0  0  0  0  0  0  0  0  0
  1 21  2  0  0  0  0
  2  3  1  0  0  0  0
  2  4  1  0  0  0  0
  2  5  1  0  0  0  0
  2  6  1  0  0  0  0
  3  8  1  0  0  0  0
  3 22  1  0  0  0  0
  3 23  1  0  0  0  0
  4  7  2  0  0  0  0
  4 10  1  0  0  0  0
  5 24  1  0  0  0  0
  5 25  1  0  0  0  0
  5 26  1  0  0  0  0
  6 27  1  0  0  0  0
  6 28  1  0  0  0  0
  6 29  1  0  0  0  0
  7  9  1  0  0  0  0
  7 11  1  0  0  0  0
  8  9  2  0  0  0  0
  8 30  1  0  0  0  0
  9 31  1  0  0  0  0
 10 12  2  0  0  0  0
 10 32  1  0  0  0  0
 11 33  1  0  0  0  0
 11 34  1  0  0  0  0
 11 35  1  0  0  0  0
 12 13  1  0  0  0  0
 12 36  1  0  0  0  0
 13 14  1  0  0  0  0
 13 15  2  0  0  0  0
 14 37  1  0  0  0  0
 14 38  1  0  0  0  0
 14 39  1  0  0  0  0
 15 16  1  0  0  0  0
 15 40  1  0  0  0  0
 16 17  2  0  0  0  0
 16 41  1  0  0  0  0
 17 18  1  0  0  0  0
 17 42  1  0  0  0  0
 18 19  1  0  0  0  0
 18 20  2  0  0  0  0
 19 43  1  0  0  0  0
 19 44  1  0  0  0  0
 19 45  1  0  0  0  0
 20 21  1  0  0  0  0
 20 46  1  0  0  0  0
 21 47  1  0  0  0  0
M  END
> <PUBCHEM_COMPOUND_CID>
5280867

> <PUBCHEM_CONFORMER_RMSD>
0.8

> <PUBCHEM_CONFORMER_DIVERSEORDER>
1
7
3
6
4
9
10
5
2
8

> <PUBCHEM_MMFF94_PARTIAL_CHARGES>
28
1 -0.57
10 -0.15
11 0.14
12 -0.15
13 -0.14
14 0.14
15 -0.15
16 -0.15
17 -0.15
18 -0.14
19 0.14
2 0.14
20 -0.14
21 0.5
3 0.14
30 0.15
31 0.15
32 0.15
36 0.15
4 -0.14
40 0.15
41 0.15
42 0.15
46 0.15
47 0.06
7 -0.14
8 -0.29
9 -0.15

> <PUBCHEM_EFFECTIVE_ROTOR_COUNT>
5.4

> <PUBCHEM_PHARMACOPHORE_FEATURES>
5
1 1 acceptor
1 14 hydrophobe
1 19 hydrophobe
3 2 5 6 hydrophobe
6 2 3 4 7 8 9 rings

> <PUBCHEM_HEAVY_ATOM_COUNT>
21

> <PUBCHEM_ATOM_DEF_STEREO_COUNT>
0

> <PUBCHEM_ATOM_UDEF_STEREO_COUNT>
0

> <PUBCHEM_BOND_DEF_STEREO_COUNT>
4

> <PUBCHEM_BOND_UDEF_STEREO_COUNT>
0

> <PUBCHEM_ISOTOPIC_ATOM_COUNT>
0

> <PUBCHEM_COMPONENT_COUNT>
1

> <PUBCHEM_CACTVS_TAUTO_COUNT>
1

> <PUBCHEM_CONFORMER_ID>
0050946300000001

> <PUBCHEM_MMFF94_ENERGY>
69.9886

> <PUBCHEM_FEATURE_SELFOVERLAP>
25.371

> <PUBCHEM_SHAPE_FINGERPRINT>
10670039 82 18339917204073324348
10906281 52 17897160441857705513
11089746 13 18342742923165838086
12788726 201 17315641961530550337
14251757 5 17968946288181643959
14251764 38 18408036325474317852
14528608 73 18411702088677372598
14848178 96 18343302548608818012
14931854 50 18335689534783740644
15196674 1 18411136948127125920
17834072 33 18408888442558683438
17844677 252 18409442609166990138
17959699 21 18411985783856613641
18681886 176 18335993072844121994
20554085 129 15123243151993208069
21033648 29 16486982824806027590
21623110 236 18409725171224218065
21709351 56 18338241577974396030
21857420 4 15582938887134942668
23559900 14 18044948010669330930
245318 6 17701804506728117524
2838139 119 18339645543080761838
3117164 225 10447113669723174942
3472631 163 18263645237647757693
34797466 226 17967526865676727342
474 4 18272931648098998242
5104073 3 18059574728006491579
53794403 172 18127119785181508004
633830 44 18341617065576133526

> <PUBCHEM_SHAPE_MULTIPOLES>
426.3
14.07
3.16
1.08
7.85
1.16
-0.25
4.3
-4.17
1.55
0.58
-0.49
-0.12
-0.71

> <PUBCHEM_SHAPE_SELFOVERLAP>
861.493

> <PUBCHEM_SHAPE_VOLUME>
248.6

> <PUBCHEM_COORDINATE_TYPE>
2
5
10

$$$$

