440272
  -OEChem-07051212493D

 35 35  0     1  0  0  0  0  0999 V2000
    1.8003   -2.2541    0.1263 P   0  0  0  0  0  0  0  0  0  0  0  0
   -1.1787   -0.9614   -0.4209 O   0  0  0  0  0  0  0  0  0  0  0  0
   -1.3265    3.1380   -0.2785 O   0  0  0  0  0  0  0  0  0  0  0  0
    1.1473   -0.9411   -0.5487 O   0  0  0  0  0  0  0  0  0  0  0  0
   -3.6335    1.6025    0.5218 O   0  0  0  0  0  0  0  0  0  0  0  0
   -3.3166   -2.6261    0.0138 O   0  0  0  0  0  0  0  0  0  0  0  0
    2.7262    1.4973   -1.2716 O   0  0  0  0  0  0  0  0  0  0  0  0
    2.4074   -1.7095    1.5227 O   0  0  0  0  0  0  0  0  0  0  0  0
    3.1163   -2.4996   -0.7807 O   0  0  0  0  0  0  0  0  0  0  0  0
    0.8817   -3.4352    0.2433 O   0  0  0  0  0  0  0  0  0  0  0  0
    1.1823    1.7738    0.4480 N   0  0  0  0  0  0  0  0  0  0  0  0
    0.0127    1.1445   -0.2273 C   0  0  2  0  0  0  0  0  0  0  0  0
   -1.2638    1.8217    0.2734 C   0  0  2  0  0  0  0  0  0  0  0  0
   -2.5105    1.0444   -0.1551 C   0  0  1  0  0  0  0  0  0  0  0  0
   -2.3640   -0.4416    0.1849 C   0  0  1  0  0  0  0  0  0  0  0  0
    0.0103   -0.3539    0.0824 C   0  0  1  0  0  0  0  0  0  0  0  0
   -3.5358   -1.2704   -0.3318 C   0  0  0  0  0  0  0  0  0  0  0  0
    2.4259    1.8865   -0.1460 C   0  0  0  0  0  0  0  0  0  0  0  0
    3.4190    2.5843    0.7442 C   0  0  0  0  0  0  0  0  0  0  0  0
    0.1357    1.3056   -1.3061 H   0  0  0  0  0  0  0  0  0  0  0  0
   -1.2521    1.9377    1.3642 H   0  0  0  0  0  0  0  0  0  0  0  0
   -2.6677    1.1809   -1.2327 H   0  0  0  0  0  0  0  0  0  0  0  0
   -2.2970   -0.5894    1.2714 H   0  0  0  0  0  0  0  0  0  0  0  0
    0.0711   -0.5272    1.1645 H   0  0  0  0  0  0  0  0  0  0  0  0
   -3.6191   -1.2117   -1.4221 H   0  0  0  0  0  0  0  0  0  0  0  0
   -4.4843   -0.9573    0.1124 H   0  0  0  0  0  0  0  0  0  0  0  0
    1.0648    2.0813    1.4094 H   0  0  0  0  0  0  0  0  0  0  0  0
   -1.3488    3.0589   -1.2475 H   0  0  0  0  0  0  0  0  0  0  0  0
   -4.4370    1.2401    0.1127 H   0  0  0  0  0  0  0  0  0  0  0  0
   -2.4708   -2.8976   -0.3821 H   0  0  0  0  0  0  0  0  0  0  0  0
    4.4065    2.5744    0.2746 H   0  0  0  0  0  0  0  0  0  0  0  0
    3.1077    3.6207    0.9015 H   0  0  0  0  0  0  0  0  0  0  0  0
    3.4823    2.0712    1.7081 H   0  0  0  0  0  0  0  0  0  0  0  0
    2.8104   -2.3498    2.1469 H   0  0  0  0  0  0  0  0  0  0  0  0
    3.6514   -3.3081   -0.6315 H   0  0  0  0  0  0  0  0  0  0  0  0
  1  4  1  0  0  0  0
  1  8  1  0  0  0  0
  1  9  1  0  0  0  0
  1 10  2  0  0  0  0
  2 15  1  0  0  0  0
  2 16  1  0  0  0  0
  3 13  1  0  0  0  0
  3 28  1  0  0  0  0
  4 16  1  0  0  0  0
  5 14  1  0  0  0  0
  5 29  1  0  0  0  0
  6 17  1  0  0  0  0
  6 30  1  0  0  0  0
  7 18  2  0  0  0  0
  8 34  1  0  0  0  0
  9 35  1  0  0  0  0
 11 12  1  0  0  0  0
 11 18  1  0  0  0  0
 11 27  1  0  0  0  0
 12 13  1  0  0  0  0
 12 16  1  0  0  0  0
 12 20  1  0  0  0  0
 13 14  1  0  0  0  0
 13 21  1  0  0  0  0
 14 15  1  0  0  0  0
 14 22  1  0  0  0  0
 15 17  1  0  0  0  0
 15 23  1  0  0  0  0
 16 24  1  0  0  0  0
 17 25  1  0  0  0  0
 17 26  1  0  0  0  0
 18 19  1  0  0  0  0
 19 31  1  0  0  0  0
 19 32  1  0  0  0  0
 19 33  1  0  0  0  0
M  END
> <PUBCHEM_COMPOUND_CID>
440272

> <PUBCHEM_CONFORMER_RMSD>
0.8

> <PUBCHEM_CONFORMER_DIVERSEORDER>
1
28
17
23
4
27
26
16
18
22
11
24
2
13
19
15
21
5
20
8
25
9
3
12
6
14
10
7

> <PUBCHEM_MMFF94_PARTIAL_CHARGES>
25
1 1.51
10 -0.7
11 -0.73
12 0.3
13 0.28
14 0.28
15 0.28
16 0.56
17 0.28
18 0.57
19 0.06
2 -0.56
27 0.37
28 0.4
29 0.4
3 -0.68
30 0.4
34 0.5
35 0.5
4 -0.55
5 -0.68
6 -0.68
7 -0.57
8 -0.77
9 -0.77

> <PUBCHEM_EFFECTIVE_ROTOR_COUNT>
6.2

> <PUBCHEM_PHARMACOPHORE_FEATURES>
14
1 10 acceptor
1 11 donor
1 2 acceptor
1 3 acceptor
1 3 donor
1 5 acceptor
1 5 donor
1 6 acceptor
1 6 donor
1 7 acceptor
1 8 acceptor
1 9 acceptor
4 1 8 9 10 anion
6 2 12 13 14 15 16 rings

> <PUBCHEM_HEAVY_ATOM_COUNT>
19

> <PUBCHEM_ATOM_DEF_STEREO_COUNT>
4

> <PUBCHEM_ATOM_UDEF_STEREO_COUNT>
1

> <PUBCHEM_BOND_DEF_STEREO_COUNT>
0

> <PUBCHEM_BOND_UDEF_STEREO_COUNT>
0

> <PUBCHEM_ISOTOPIC_ATOM_COUNT>
0

> <PUBCHEM_COMPONENT_COUNT>
1

> <PUBCHEM_CACTVS_TAUTO_COUNT>
2

> <PUBCHEM_CONFORMER_ID>
0006B7D000000001

> <PUBCHEM_MMFF94_ENERGY>
5.9336

> <PUBCHEM_FEATURE_SELFOVERLAP>
71.09

> <PUBCHEM_SHAPE_FINGERPRINT>
10967382 1 18122344579725814279
11578080 2 17344928505617865980
11680986 33 18410294752380024429
12553582 1 18123471845506467287
12839892 36 18265635203158933610
13083527 12 18197245635434857898
13140716 1 18411135866101244691
13380535 21 18409719669328731657
14178342 30 18337111172573247297
14787075 74 17391072530250155329
14790565 3 17907562641842331221
15042514 8 17691693281702661186
16945 1 18195249042799161029
193761 8 18410293652905242013
19591789 44 18265895752928389986
20028762 73 17107053214776777335
20510252 161 18044087947842291713
20600515 1 17684091661919008178
20645476 183 17339555991020035628
20645477 70 18340496582182012599
20671657 1 18263636423858024737
20905425 154 18335696131093319324
21501502 16 18410012152285269633
21650355 55 17620775198212466106
23184049 29 18339365278662420763
2334 1 18411137992067799399
23366157 5 18201999949809952660
23402539 116 17901678063656622332
23419403 2 17556900002315433974
23526113 38 17389362850272986560
23526114 1 18410571764732746847
23557571 272 17755857872955423790
23559900 14 18263651821289277094
2748010 2 18411134723624028581
2871803 45 18263925428217899383
352729 6 17692243045742363302
43471831 8 18340210670007660736
45790113 53 17980472683566297673
589210 1 18339361971469141489
5902787 121 18268996555944171930
7364860 26 18335983168284883916
81228 2 17469604473943173410

> <PUBCHEM_SHAPE_MULTIPOLES>
337.06
5.83
4.1
0.87
1.51
1.5
0.05
-0.39
0.15
-1.75
0.22
-0.57
0.07
-0.08

> <PUBCHEM_SHAPE_SELFOVERLAP>
659.085

> <PUBCHEM_SHAPE_VOLUME>
203.1

> <PUBCHEM_COORDINATE_TYPE>
2
5
10

$$$$

