8562
  -OEChem-06261202543D

 32 34  0     0  0  0  0  0  0999 V2000
    4.6512   -1.6263    0.3166 N   0  0  0  0  0  0  0  0  0  0  0  0
   -0.7631   -0.4688   -0.5631 N   0  0  0  0  0  0  0  0  0  0  0  0
   -1.3655   -0.3979    0.5321 N   0  0  0  0  0  0  0  0  0  0  0  0
    2.8819    0.0620    0.0302 C   0  0  0  0  0  0  0  0  0  0  0  0
    1.5150    0.3539   -0.1919 C   0  0  0  0  0  0  0  0  0  0  0  0
    3.2957   -1.2784    0.0981 C   0  0  0  0  0  0  0  0  0  0  0  0
    0.6022   -0.7032   -0.3396 C   0  0  0  0  0  0  0  0  0  0  0  0
    1.1012    1.6942   -0.2601 C   0  0  0  0  0  0  0  0  0  0  0  0
    3.7947    1.1190    0.1777 C   0  0  0  0  0  0  0  0  0  0  0  0
    2.3751   -2.3160   -0.0509 C   0  0  0  0  0  0  0  0  0  0  0  0
    1.0310   -2.0290   -0.2694 C   0  0  0  0  0  0  0  0  0  0  0  0
    2.0219    2.7318   -0.1114 C   0  0  0  0  0  0  0  0  0  0  0  0
    3.3661    2.4448    0.1071 C   0  0  0  0  0  0  0  0  0  0  0  0
   -2.7330   -0.1628    0.3088 C   0  0  0  0  0  0  0  0  0  0  0  0
   -3.6039   -1.2387    0.1666 C   0  0  0  0  0  0  0  0  0  0  0  0
   -3.2058    1.1435    0.2311 C   0  0  0  0  0  0  0  0  0  0  0  0
   -4.9611   -1.0058   -0.0559 C   0  0  0  0  0  0  0  0  0  0  0  0
   -4.5630    1.3762    0.0087 C   0  0  0  0  0  0  0  0  0  0  0  0
   -5.4406    0.3015   -0.1347 C   0  0  0  0  0  0  0  0  0  0  0  0
    0.0619    1.9617   -0.4347 H   0  0  0  0  0  0  0  0  0  0  0  0
    4.8545    0.9588    0.3498 H   0  0  0  0  0  0  0  0  0  0  0  0
    2.6930   -3.3545    0.0005 H   0  0  0  0  0  0  0  0  0  0  0  0
    0.3237   -2.8465   -0.3854 H   0  0  0  0  0  0  0  0  0  0  0  0
    1.6894    3.7642   -0.1676 H   0  0  0  0  0  0  0  0  0  0  0  0
    4.0818    3.2537    0.2223 H   0  0  0  0  0  0  0  0  0  0  0  0
    4.9070   -2.6046    0.3608 H   0  0  0  0  0  0  0  0  0  0  0  0
    5.3730   -0.9328    0.4387 H   0  0  0  0  0  0  0  0  0  0  0  0
   -3.2388   -2.2604    0.2273 H   0  0  0  0  0  0  0  0  0  0  0  0
   -2.5297    1.9868    0.3431 H   0  0  0  0  0  0  0  0  0  0  0  0
   -5.6445   -1.8425   -0.1675 H   0  0  0  0  0  0  0  0  0  0  0  0
   -4.9366    2.3942   -0.0524 H   0  0  0  0  0  0  0  0  0  0  0  0
   -6.4974    0.4829   -0.3077 H   0  0  0  0  0  0  0  0  0  0  0  0
  1  6  1  0  0  0  0
  1 26  1  0  0  0  0
  1 27  1  0  0  0  0
  2  3  2  0  0  0  0
  2  7  1  0  0  0  0
  3 14  1  0  0  0  0
  4  5  1  0  0  0  0
  4  6  1  0  0  0  0
  4  9  2  0  0  0  0
  5  7  1  0  0  0  0
  5  8  2  0  0  0  0
  6 10  2  0  0  0  0
  7 11  2  0  0  0  0
  8 12  1  0  0  0  0
  8 20  1  0  0  0  0
  9 13  1  0  0  0  0
  9 21  1  0  0  0  0
 10 11  1  0  0  0  0
 10 22  1  0  0  0  0
 11 23  1  0  0  0  0
 12 13  2  0  0  0  0
 12 24  1  0  0  0  0
 13 25  1  0  0  0  0
 14 15  2  0  0  0  0
 14 16  1  0  0  0  0
 15 17  1  0  0  0  0
 15 28  1  0  0  0  0
 16 18  2  0  0  0  0
 16 29  1  0  0  0  0
 17 19  2  0  0  0  0
 17 30  1  0  0  0  0
 18 19  1  0  0  0  0
 18 31  1  0  0  0  0
 19 32  1  0  0  0  0
M  END
> <PUBCHEM_COMPOUND_CID>
8562

> <PUBCHEM_CONFORMER_RMSD>
0.6

> <PUBCHEM_CONFORMER_DIVERSEORDER>
1
3
2

> <PUBCHEM_MMFF94_PARTIAL_CHARGES>
30
1 -0.9
10 -0.15
11 -0.15
12 -0.15
13 -0.15
14 0.18
15 -0.15
16 -0.15
17 -0.15
18 -0.15
19 -0.15
2 -0.18
20 0.15
21 0.15
22 0.15
23 0.15
24 0.15
25 0.15
26 0.4
27 0.4
28 0.15
29 0.15
3 -0.18
30 0.15
31 0.15
32 0.15
6 0.1
7 0.18
8 -0.15
9 -0.15

> <PUBCHEM_EFFECTIVE_ROTOR_COUNT>
2

> <PUBCHEM_PHARMACOPHORE_FEATURES>
5
1 1 cation
1 1 donor
6 14 15 16 17 18 19 rings
6 4 5 6 7 10 11 rings
6 4 5 8 9 12 13 rings

> <PUBCHEM_HEAVY_ATOM_COUNT>
19

> <PUBCHEM_ATOM_DEF_STEREO_COUNT>
0

> <PUBCHEM_ATOM_UDEF_STEREO_COUNT>
0

> <PUBCHEM_BOND_DEF_STEREO_COUNT>
0

> <PUBCHEM_BOND_UDEF_STEREO_COUNT>
0

> <PUBCHEM_ISOTOPIC_ATOM_COUNT>
0

> <PUBCHEM_COMPONENT_COUNT>
1

> <PUBCHEM_CACTVS_TAUTO_COUNT>
2

> <PUBCHEM_CONFORMER_ID>
0000217200000001

> <PUBCHEM_MMFF94_ENERGY>
70.7689

> <PUBCHEM_FEATURE_SELFOVERLAP>
25.398

> <PUBCHEM_SHAPE_FINGERPRINT>
10366900 7 17846774139391315019
10411042 1 18050286166051421854
10608611 8 18412825789729732061
11370993 70 18340488872430613283
11405975 8 18411695509140799275
11471102 20 18411138039191074940
12107183 9 17904197384409211417
12236239 1 17749392572009552343
12403259 327 16629696015551014640
12403259 415 17989490745051540197
12507557 5 18408887369011784977
12616971 3 18113618976361022167
12633257 1 18338792446327127977
13140716 1 18339370660947883690
13167372 99 18261386811042698921
13167823 11 18407762525888891399
14178342 30 17832724378591416304
14341114 176 18411693284178837123
14790565 3 18053655889907184556
15196674 1 18410573985568468369
15442244 35 18265329688949774801
15536298 74 18408602560998151045
17492 89 18409446969039330703
17844677 252 18410003356498085713
18681886 176 18187370930412487682
200 152 18187087252407184607
20157964 124 18410298012845530989
20645477 70 18408038524307429143
20715895 44 17973159823520164769
20739085 24 18343866611001103756
21033648 29 17418384610064698397
21065198 57 18412824694565929547
21267235 1 18336818779668110231
21452121 103 18336555936776280352
21709351 56 18336272313909785391
221490 88 18340760464524136483
22289505 5 18341054119822240532
22854114 111 18409446960068769525
23557571 272 5112011608152437019
23558518 356 17840870677058189018
23559900 14 18336831978313503675
2838139 119 15069198762358301344
3060560 45 18114173155870120566
335352 9 18338797926230384415
33824 294 18411982425529921720
3421961 26 18338802320583600506
351380 180 18412546505207421905
3545911 37 18411978040589845493
4214541 1 18411136974471689137
474 4 18341613655350416753
5104073 3 18411696582819287747
543358 83 18337103566037920689
6443956 14 18339920536572060214
7364860 26 18409164411439821174
77779 3 18410572881940987515
8272917 22 18408880737313352022
9709674 26 18411130330020853291
9981440 41 17762905363915122200

> <PUBCHEM_SHAPE_MULTIPOLES>
376.07
10.65
2.65
0.66
11.28
0.61
0
0.36
-0.59
-2.85
0.05
0.02
-0.01
-0.06

> <PUBCHEM_SHAPE_SELFOVERLAP>
834.523

> <PUBCHEM_SHAPE_VOLUME>
199.1

> <PUBCHEM_COORDINATE_TYPE>
2
5
10

$$$$

