5459885
  -OEChem-07051212453D

 31 31  0     1  0  0  0  0  0999 V2000
   -0.0895   -2.6083   -0.3460 O   0  0  0  0  0  0  0  0  0  0  0  0
    3.5365    0.5486   -0.4441 O   0  0  0  0  0  0  0  0  0  0  0  0
   -0.9560    2.1085   -0.1863 O   0  0  0  0  0  0  0  0  0  0  0  0
    1.7884    2.5884    0.4513 O   0  0  0  0  0  0  0  0  0  0  0  0
    2.7138   -2.1522    0.2084 N   0  0  0  0  0  0  0  0  0  0  0  0
   -1.8773   -0.5321    0.6004 N   0  0  0  0  0  0  0  0  0  0  0  0
   -4.1773   -0.3245    0.5912 N   0  0  0  0  0  0  0  0  0  0  0  0
   -3.0583    0.5338   -1.1994 N   0  0  0  0  0  0  0  0  0  0  0  0
    1.7865   -1.1099   -0.2543 C   0  0  1  0  0  0  0  0  0  0  0  0
    0.3702   -1.3989    0.2628 C   0  0  1  0  0  0  0  0  0  0  0  0
   -0.6044   -0.2727   -0.0949 C   0  0  2  0  0  0  0  0  0  0  0  0
    2.2957    0.2614    0.2072 C   0  0  2  0  0  0  0  0  0  0  0  0
   -0.0970    1.0987    0.3503 C   0  0  1  0  0  0  0  0  0  0  0  0
    1.3179    1.3798   -0.1540 C   0  0  1  0  0  0  0  0  0  0  0  0
   -2.9491   -0.1207    0.0074 C   0  0  0  0  0  0  0  0  0  0  0  0
    1.7933   -1.1537   -1.3517 H   0  0  0  0  0  0  0  0  0  0  0  0
    0.3764   -1.5526    1.3503 H   0  0  0  0  0  0  0  0  0  0  0  0
   -0.7349   -0.3023   -1.1839 H   0  0  0  0  0  0  0  0  0  0  0  0
    2.4867    0.2700    1.2884 H   0  0  0  0  0  0  0  0  0  0  0  0
   -0.1425    1.1912    1.4430 H   0  0  0  0  0  0  0  0  0  0  0  0
    1.3173    1.5630   -1.2352 H   0  0  0  0  0  0  0  0  0  0  0  0
    3.6380   -1.9928   -0.1898 H   0  0  0  0  0  0  0  0  0  0  0  0
    2.4142   -3.0602   -0.1433 H   0  0  0  0  0  0  0  0  0  0  0  0
    0.4279   -3.3408    0.0282 H   0  0  0  0  0  0  0  0  0  0  0  0
    4.2028   -0.0635   -0.0895 H   0  0  0  0  0  0  0  0  0  0  0  0
   -0.6126    2.9692    0.1084 H   0  0  0  0  0  0  0  0  0  0  0  0
    1.7880    2.4626    1.4155 H   0  0  0  0  0  0  0  0  0  0  0  0
   -4.2600   -0.7949    1.4859 H   0  0  0  0  0  0  0  0  0  0  0  0
   -5.0340   -0.0109    0.1482 H   0  0  0  0  0  0  0  0  0  0  0  0
   -3.9686    0.7979   -1.5616 H   0  0  0  0  0  0  0  0  0  0  0  0
   -2.2596    0.8151   -1.7549 H   0  0  0  0  0  0  0  0  0  0  0  0
  1 10  1  0  0  0  0
  1 24  1  0  0  0  0
  2 12  1  0  0  0  0
  2 25  1  0  0  0  0
  3 13  1  0  0  0  0
  3 26  1  0  0  0  0
  4 14  1  0  0  0  0
  4 27  1  0  0  0  0
  5  9  1  0  0  0  0
  5 22  1  0  0  0  0
  5 23  1  0  0  0  0
  6 11  1  0  0  0  0
  6 15  2  0  0  0  0
  7 15  1  0  0  0  0
  7 28  1  0  0  0  0
  7 29  1  0  0  0  0
  8 15  1  0  0  0  0
  8 30  1  0  0  0  0
  8 31  1  0  0  0  0
  9 10  1  0  0  0  0
  9 12  1  0  0  0  0
  9 16  1  0  0  0  0
 10 11  1  0  0  0  0
 10 17  1  0  0  0  0
 11 13  1  0  0  0  0
 11 18  1  0  0  0  0
 12 14  1  0  0  0  0
 12 19  1  0  0  0  0
 13 14  1  0  0  0  0
 13 20  1  0  0  0  0
 14 21  1  0  0  0  0
M  END
> <PUBCHEM_COMPOUND_CID>
5459885

> <PUBCHEM_CONFORMER_RMSD>
0.6

> <PUBCHEM_CONFORMER_DIVERSEORDER>
1
6
2
5
4
3
7

> <PUBCHEM_MMFF94_PARTIAL_CHARGES>
25
1 -0.68
10 0.28
11 0.25
12 0.28
13 0.28
14 0.28
15 0.55
2 -0.68
22 0.36
23 0.36
24 0.4
25 0.4
26 0.4
27 0.4
28 0.4
29 0.4
3 -0.68
30 0.4
31 0.4
4 -0.68
5 -0.99
6 -0.7
7 -0.85
8 -0.85
9 0.27

> <PUBCHEM_EFFECTIVE_ROTOR_COUNT>
2.2

> <PUBCHEM_PHARMACOPHORE_FEATURES>
14
1 1 acceptor
1 1 donor
1 2 acceptor
1 2 donor
1 3 acceptor
1 3 donor
1 4 acceptor
1 4 donor
1 5 cation
1 5 donor
1 7 donor
1 8 donor
4 6 7 8 15 cation
6 9 10 11 12 13 14 rings

> <PUBCHEM_HEAVY_ATOM_COUNT>
15

> <PUBCHEM_ATOM_DEF_STEREO_COUNT>
6

> <PUBCHEM_ATOM_UDEF_STEREO_COUNT>
0

> <PUBCHEM_BOND_DEF_STEREO_COUNT>
0

> <PUBCHEM_BOND_UDEF_STEREO_COUNT>
0

> <PUBCHEM_ISOTOPIC_ATOM_COUNT>
0

> <PUBCHEM_COMPONENT_COUNT>
1

> <PUBCHEM_CACTVS_TAUTO_COUNT>
2

> <PUBCHEM_CONFORMER_ID>
00534FAD00000001

> <PUBCHEM_MMFF94_ENERGY>
39.7105

> <PUBCHEM_FEATURE_SELFOVERLAP>
71.118

> <PUBCHEM_SHAPE_FINGERPRINT>
1 1 18338798914146715223
10219947 1 18409444804211627171
10967382 1 18410572864317974226
10980938 120 18411702054106624482
11206711 2 18196083571908333086
11471102 20 18411140272827289453
12654215 9 18199199549180390149
13140716 1 18121784932982013136
13380536 305 18336540530227227890
13897977 150 18338238154663544537
14251717 144 18408889520938333567
14911166 2 18336253558045923476
15219456 202 18272654575648206877
15775835 57 18410288073573913095
16945 1 18409172082346454808
17844478 74 17988638601927974925
18186145 218 18260830362899168845
193761 8 17761489592480644128
20201158 50 18341895194804215515
20588541 1 18411975828444233298
20606313 2 18410857676447480503
20645477 70 18410581721068423327
21501502 16 18267017452088412736
21639500 275 18336277751354037125
2334 1 17761493586916397392
23402539 116 18260275174326146070
23402655 69 18337400413404223493
23557571 272 17274827935325105189
25 1 18411981330023065420
2748010 2 18412544309998981813
528886 8 18409168779284534755
53812653 166 18337108960733037880
7364860 26 18335139774178558128
77492 1 17530964670636547459
81228 2 17040924732990732475

> <PUBCHEM_SHAPE_MULTIPOLES>
265.29
5.21
2.39
0.75
3.22
0.02
-0.07
0.19
-0.1
-1.47
0.05
0.29
-0.04
0.22

> <PUBCHEM_SHAPE_SELFOVERLAP>
535.605

> <PUBCHEM_SHAPE_VOLUME>
152.1

> <PUBCHEM_COORDINATE_TYPE>
2
5
10

$$$$

