36231
  -OEChem-07051213113D

 22 23  0     0  0  0  0  0  0999 V2000
    3.6117   -2.6510   -0.7097 Cl  0  0  0  0  0  0  0  0  0  0  0  0
   -3.6117   -2.6510    0.7097 Cl  0  0  0  0  0  0  0  0  0  0  0  0
    3.6123    2.6507    0.7107 Cl  0  0  0  0  0  0  0  0  0  0  0  0
   -3.6123    2.6507   -0.7106 Cl  0  0  0  0  0  0  0  0  0  0  0  0
    5.2513    0.0003   -0.0013 Cl  0  0  0  0  0  0  0  0  0  0  0  0
   -5.2514    0.0003    0.0012 Cl  0  0  0  0  0  0  0  0  0  0  0  0
    0.7234    0.0000    0.0000 C   0  0  0  0  0  0  0  0  0  0  0  0
   -0.7234    0.0001   -0.0001 C   0  0  0  0  0  0  0  0  0  0  0  0
    1.4207    1.1668    0.3128 C   0  0  0  0  0  0  0  0  0  0  0  0
   -1.4207    1.1669   -0.3128 C   0  0  0  0  0  0  0  0  0  0  0  0
    1.4208   -1.1668   -0.3126 C   0  0  0  0  0  0  0  0  0  0  0  0
   -1.4209   -1.1669    0.3126 C   0  0  0  0  0  0  0  0  0  0  0  0
    2.8158   -1.1668   -0.3124 C   0  0  0  0  0  0  0  0  0  0  0  0
   -2.8158   -1.1668    0.3124 C   0  0  0  0  0  0  0  0  0  0  0  0
    2.8156    1.1668    0.3128 C   0  0  0  0  0  0  0  0  0  0  0  0
   -2.8156    1.1668   -0.3129 C   0  0  0  0  0  0  0  0  0  0  0  0
    3.5131    0.0000    0.0003 C   0  0  0  0  0  0  0  0  0  0  0  0
   -3.5131    0.0000   -0.0002 C   0  0  0  0  0  0  0  0  0  0  0  0
    0.9040    2.0818    0.5929 H   0  0  0  0  0  0  0  0  0  0  0  0
   -0.9039    2.0818   -0.5928 H   0  0  0  0  0  0  0  0  0  0  0  0
    0.9041   -2.0817   -0.5927 H   0  0  0  0  0  0  0  0  0  0  0  0
   -0.9041   -2.0817    0.5927 H   0  0  0  0  0  0  0  0  0  0  0  0
  1 13  1  0  0  0  0
  2 14  1  0  0  0  0
  3 15  1  0  0  0  0
  4 16  1  0  0  0  0
  5 17  1  0  0  0  0
  6 18  1  0  0  0  0
  7  8  1  0  0  0  0
  7  9  2  0  0  0  0
  7 11  1  0  0  0  0
  8 10  2  0  0  0  0
  8 12  1  0  0  0  0
  9 15  1  0  0  0  0
  9 19  1  0  0  0  0
 10 16  1  0  0  0  0
 10 20  1  0  0  0  0
 11 13  2  0  0  0  0
 11 21  1  0  0  0  0
 12 14  2  0  0  0  0
 12 22  1  0  0  0  0
 13 17  1  0  0  0  0
 14 18  1  0  0  0  0
 15 17  2  0  0  0  0
 16 18  2  0  0  0  0
M  END
> <PUBCHEM_COMPOUND_CID>
36231

> <PUBCHEM_CONFORMER_RMSD>
0.6

> <PUBCHEM_CONFORMER_DIVERSEORDER>
1
2

> <PUBCHEM_MMFF94_PARTIAL_CHARGES>
20
1 -0.18
10 -0.15
11 -0.15
12 -0.15
13 0.18
14 0.18
15 0.18
16 0.18
17 0.18
18 0.18
19 0.15
2 -0.18
20 0.15
21 0.15
22 0.15
3 -0.18
4 -0.18
5 -0.18
6 -0.18
9 -0.15

> <PUBCHEM_EFFECTIVE_ROTOR_COUNT>
1

> <PUBCHEM_PHARMACOPHORE_FEATURES>
2
6 7 9 11 13 15 17 rings
6 8 10 12 14 16 18 rings

> <PUBCHEM_HEAVY_ATOM_COUNT>
18

> <PUBCHEM_ATOM_DEF_STEREO_COUNT>
0

> <PUBCHEM_ATOM_UDEF_STEREO_COUNT>
0

> <PUBCHEM_BOND_DEF_STEREO_COUNT>
0

> <PUBCHEM_BOND_UDEF_STEREO_COUNT>
0

> <PUBCHEM_ISOTOPIC_ATOM_COUNT>
0

> <PUBCHEM_COMPONENT_COUNT>
1

> <PUBCHEM_CACTVS_TAUTO_COUNT>
1

> <PUBCHEM_CONFORMER_ID>
00008D8700000001

> <PUBCHEM_MMFF94_ENERGY>
52.3361

> <PUBCHEM_FEATURE_SELFOVERLAP>
10.149

> <PUBCHEM_SHAPE_FINGERPRINT>
10608611 8 18411141333151825280
10616163 171 18411134701769942511
10646746 165 18342461439124328752
11405975 8 18410574006631562833
11471102 20 18333732425207077454
11552529 35 17750510668557397819
12403259 415 18410860961987192333
12500047 106 18270966850789923149
12507560 40 18409730698398280292
13134695 92 17241339087243892288
13544592 145 18268144442900988142
13583140 156 18261114058178715022
14866123 147 16676962220953799962
15196674 1 18410856563934756865
15219456 202 18409449176176896688
15442244 35 18190457362567150704
15961568 22 17773878597656684908
17804303 29 18268423710396416311
17834074 16 18410571790423461698
18186145 218 18128822017626440437
19141452 34 18336822010216798371
200 152 17748830721952666199
20279233 1 18410851062081878050
20510252 161 18410013273662462081
20645477 56 18343021120866211133
20645477 70 17895191168596856382
20681677 76 18409453561338518949
21065198 57 18410575106137915410
21065199 12 18410855430063390955
21065201 7 18130791178347838826
21267235 1 18410847763546884290
21709351 56 18335709321323182708
221357 26 18335706082738623061
221490 88 18409724050232257890
22943178 12 18410858762958018913
23402539 116 18130512937550268511
23402655 69 18189059839974850517
23557571 272 18131634495250528013
23559900 14 18410858754563282728
26918003 58 18407760322063961203
3004659 81 18056753450670342406
335352 9 18122344850245288421
350125 39 18410851027959620476
3545911 37 18410291414963393748
4214541 1 18411701014793182025
495365 180 17895773853813933904
5104073 3 18410856602589463442
5281201 14 18337106864520219084
69090 78 18408045108998650503
7364860 26 18334013891636025478
77779 3 18410854360616573004
9709674 26 18409729581860036919

> <PUBCHEM_SHAPE_MULTIPOLES>
381.65
10.48
2.87
0.79
0
0
0
0
0
0
0
0
0
1.93

> <PUBCHEM_SHAPE_SELFOVERLAP>
773.178

> <PUBCHEM_SHAPE_VOLUME>
215.1

> <PUBCHEM_COORDINATE_TYPE>
2
5
10

$$$$

