46173747
  -OEChem-07051212502D

 48 50  0     1  0  0  0  0  0999 V2000
    5.0474    2.1757    0.0000 P   0  0  3  0  0  0  0  0  0  0  0  0
    4.4026   -1.2775    0.0000 O   0  0  0  0  0  0  0  0  0  0  0  0
    6.7485   -2.3694    0.0000 O   0  0  0  0  0  0  0  0  0  0  0  0
    6.7523   -0.1938    0.0000 O   0  0  0  0  0  0  0  0  0  0  0  0
    5.3548    1.2241    0.0000 O   0  0  0  0  0  0  0  0  0  0  0  0
    4.7400    3.1272    0.0000 O   0  0  0  0  0  0  0  0  0  0  0  0
    5.9990    2.4830    0.0000 O   0  0  0  0  0  0  0  0  0  0  0  0
    4.0958    1.8683    0.0000 O   0  0  0  0  0  0  0  0  0  0  0  0
    6.3882    3.6596    0.0000 O   0  0  0  0  0  0  0  0  0  0  0  0
    3.8179    5.9820    0.0000 O   0  0  0  0  0  0  0  0  0  0  0  0
    4.6783   -3.0381    0.0000 N   0  0  0  0  0  0  0  0  0  0  0  0
    4.6783   -4.6475    0.0000 N   0  0  0  0  0  0  0  0  0  0  0  0
    2.8660   -2.8428    0.0000 N   0  0  0  0  0  0  0  0  0  0  0  0
    2.0000   -4.3428    0.0000 N   0  0  0  0  0  0  0  0  0  0  0  0
    2.8660   -5.8428    0.0000 N   0  0  0  0  0  0  0  0  0  0  0  0
    5.7735    5.5628    0.0000 N   0  0  0  0  0  0  0  0  0  0  0  0
    5.9405   -1.7802    0.0000 C   0  0  2  0  0  0  0  0  0  0  0  0
    5.9422   -0.7802    0.0000 C   0  0  1  0  0  0  0  0  0  0  0  0
    4.9889   -2.0875    0.0000 C   0  0  1  0  0  0  0  0  0  0  0  0
    4.9917   -0.4695    0.0000 C   0  0  1  0  0  0  0  0  0  0  0  0
    4.6844    0.4821    0.0000 C   0  0  0  0  0  0  0  0  0  0  0  0
    3.7320   -3.3428    0.0000 C   0  0  0  0  0  0  0  0  0  0  0  0
    5.2619   -3.8428    0.0000 C   0  0  0  0  0  0  0  0  0  0  0  0
    3.7320   -4.3428    0.0000 C   0  0  0  0  0  0  0  0  0  0  0  0
    2.8660   -4.8428    0.0000 C   0  0  0  0  0  0  0  0  0  0  0  0
    2.0000   -3.3428    0.0000 C   0  0  0  0  0  0  0  0  0  0  0  0
    5.4104    3.8692    0.0000 C   0  0  0  0  0  0  0  0  0  0  0  0
    5.1031    4.8208    0.0000 C   0  0  1  0  0  0  0  0  0  0  0  0
    4.1253    5.0304    0.0000 C   0  0  0  0  0  0  0  0  0  0  0  0
    5.8425   -2.3924    0.0000 H   0  0  0  0  0  0  0  0  0  0  0  0
    6.4942   -1.0626    0.0000 H   0  0  0  0  0  0  0  0  0  0  0  0
    5.4266   -2.5267    0.0000 H   0  0  0  0  0  0  0  0  0  0  0  0
    4.3795   -0.3715    0.0000 H   0  0  0  0  0  0  0  0  0  0  0  0
    4.3035    0.9713    0.0000 H   0  0  0  0  0  0  0  0  0  0  0  0
    4.1364    0.1920    0.0000 H   0  0  0  0  0  0  0  0  0  0  0  0
    7.3154   -2.1182    0.0000 H   0  0  0  0  0  0  0  0  0  0  0  0
    7.3182   -0.4469    0.0000 H   0  0  0  0  0  0  0  0  0  0  0  0
    5.8819   -3.8428    0.0000 H   0  0  0  0  0  0  0  0  0  0  0  0
    1.4631   -3.0328    0.0000 H   0  0  0  0  0  0  0  0  0  0  0  0
    2.3291   -6.1528    0.0000 H   0  0  0  0  0  0  0  0  0  0  0  0
    3.4030   -6.1528    0.0000 H   0  0  0  0  0  0  0  0  0  0  0  0
    6.4590    2.0674    0.0000 H   0  0  0  0  0  0  0  0  0  0  0  0
    5.7093    4.6909    0.0000 H   0  0  0  0  0  0  0  0  0  0  0  0
    3.5112    4.9452    0.0000 H   0  0  0  0  0  0  0  0  0  0  0  0
    4.1026    4.4108    0.0000 H   0  0  0  0  0  0  0  0  0  0  0  0
    5.5829    6.1528    0.0000 H   0  0  0  0  0  0  0  0  0  0  0  0
    6.3797    5.4328    0.0000 H   0  0  0  0  0  0  0  0  0  0  0  0
    3.2117    6.1120    0.0000 H   0  0  0  0  0  0  0  0  0  0  0  0
  1  5  1  0  0  0  0
  1  6  1  0  0  0  0
  1  7  1  0  0  0  0
  1  8  2  0  0  0  0
  2 19  1  0  0  0  0
  2 20  1  0  0  0  0
 17  3  1  1  0  0  0
  3 36  1  0  0  0  0
 18  4  1  1  0  0  0
  4 37  1  0  0  0  0
  5 21  1  0  0  0  0
  6 27  1  0  0  0  0
  7 42  1  0  0  0  0
  9 27  2  0  0  0  0
 10 29  1  0  0  0  0
 10 48  1  0  0  0  0
 19 11  1  6  0  0  0
 11 22  1  0  0  0  0
 11 23  1  0  0  0  0
 12 23  2  0  0  0  0
 12 24  1  0  0  0  0
 13 22  1  0  0  0  0
 13 26  2  0  0  0  0
 14 25  2  0  0  0  0
 14 26  1  0  0  0  0
 15 25  1  0  0  0  0
 15 40  1  0  0  0  0
 15 41  1  0  0  0  0
 28 16  1  1  0  0  0
 16 46  1  0  0  0  0
 16 47  1  0  0  0  0
 17 18  1  0  0  0  0
 17 19  1  0  0  0  0
 17 30  1  0  0  0  0
 18 20  1  0  0  0  0
 18 31  1  0  0  0  0
 19 32  1  0  0  0  0
 20 21  1  6  0  0  0
 20 33  1  0  0  0  0
 21 34  1  0  0  0  0
 21 35  1  0  0  0  0
 22 24  2  0  0  0  0
 23 38  1  0  0  0  0
 24 25  1  0  0  0  0
 26 39  1  0  0  0  0
 27 28  1  0  0  0  0
 28 29  1  0  0  0  0
 28 43  1  0  0  0  0
 29 44  1  0  0  0  0
 29 45  1  0  0  0  0
M  END
> <PUBCHEM_COMPOUND_CID>
46173747

> <PUBCHEM_COMPOUND_CANONICALIZED>
1

> <PUBCHEM_CACTVS_COMPLEXITY>
646

> <PUBCHEM_CACTVS_HBOND_ACCEPTOR>
14

> <PUBCHEM_CACTVS_HBOND_DONOR>
6

> <PUBCHEM_CACTVS_ROTATABLE_BOND>
8

> <PUBCHEM_CACTVS_SUBSKEYS>
AAADceBzvAIAAAAAAAAAAAAAAAAAAWJAAAAsAAAAAAAAAFgB+AAAHgAQCCAACDzhlwYF+L9MFxCoQQbxbICAgC0REKABUKGoVBCDWAZAyEAeRAgPMALTACDwMAIAAAAAAAAAAAAAAAAAAAAAAAAAAAAAAA==

> <PUBCHEM_IUPAC_OPENEYE_NAME>
[[(2R,3S,4R,5R)-5-(6-aminopurin-9-yl)-3,4-dihydroxy-tetrahydrofuran-2-yl]methoxy-hydroxy-phosphoryl] (2R)-2-amino-3-hydroxy-propanoate

> <PUBCHEM_IUPAC_CAS_NAME>
(2R)-2-amino-3-hydroxypropanoic acid [[(2R,3S,4R,5R)-5-(6-aminopurin-9-yl)-3,4-dihydroxy-2-oxolanyl]methoxy-hydroxyphosphoryl] ester

> <PUBCHEM_IUPAC_NAME>
[[(2R,3S,4R,5R)-5-(6-aminopurin-9-yl)-3,4-dihydroxyoxolan-2-yl]methoxy-hydroxyphosphoryl] (2R)-2-amino-3-hydroxypropanoate

> <PUBCHEM_IUPAC_SYSTEMATIC_NAME>
[[(2R,3S,4R,5R)-5-(6-aminopurin-9-yl)-3,4-bis(oxidanyl)oxolan-2-yl]methoxy-oxidanyl-phosphoryl] (2R)-2-azanyl-3-oxidanyl-propanoate

> <PUBCHEM_IUPAC_TRADITIONAL_NAME>
(2R)-2-amino-3-hydroxy-propionic acid [[(2R,3S,4R,5R)-5-adenin-9-yl-3,4-dihydroxy-tetrahydrofuran-2-yl]methoxy-hydroxy-phosphoryl] ester

> <PUBCHEM_IUPAC_INCHI>
InChI=1S/C13H19N6O9P/c14-5(1-20)13(23)28-29(24,25)26-2-6-8(21)9(22)12(27-6)19-4-18-7-10(15)16-3-17-11(7)19/h3-6,8-9,12,20-22H,1-2,14H2,(H,24,25)(H2,15,16,17)/t5-,6-,8-,9-,12-/m1/s1

> <PUBCHEM_IUPAC_INCHIKEY>
UVSYURUCZPPUQD-VQPBACBFSA-N

> <PUBCHEM_XLOGP3>
-6.8

> <PUBCHEM_EXACT_MASS>
434.095113

> <PUBCHEM_MOLECULAR_FORMULA>
C13H19N6O9P

> <PUBCHEM_MOLECULAR_WEIGHT>
434.298522

> <PUBCHEM_OPENEYE_CAN_SMILES>
C1=NC2=C(C(=N1)N)N=CN2C3C(C(C(O3)COP(=O)(O)OC(=O)C(CO)N)O)O

> <PUBCHEM_OPENEYE_ISO_SMILES>
C1=NC2=C(C(=N1)N)N=CN2[C@H]3[C@@H]([C@@H]([C@H](O3)COP(=O)(O)OC(=O)[C@@H](CO)N)O)O

> <PUBCHEM_CACTVS_TPSA>
238

> <PUBCHEM_MONOISOTOPIC_WEIGHT>
434.095113

> <PUBCHEM_TOTAL_CHARGE>
0

> <PUBCHEM_HEAVY_ATOM_COUNT>
29

> <PUBCHEM_ATOM_DEF_STEREO_COUNT>
5

> <PUBCHEM_ATOM_UDEF_STEREO_COUNT>
0

> <PUBCHEM_BOND_DEF_STEREO_COUNT>
0

> <PUBCHEM_BOND_UDEF_STEREO_COUNT>
0

> <PUBCHEM_ISOTOPIC_ATOM_COUNT>
0

> <PUBCHEM_COMPONENT_COUNT>
1

> <PUBCHEM_CACTVS_TAUTO_COUNT>
3

> <PUBCHEM_COORDINATE_TYPE>
1
5
255

> <PUBCHEM_BONDANNOTATIONS>
19  11  6
11  22  8
11  23  8
12  23  8
12  24  8
13  22  8
13  26  8
14  25  8
14  26  8
28  16  5
20  21  6
22  24  8
24  25  8
17  3  5
18  4  5

$$$$

