135538
  -OEChem-07051212493D

 20 20  0     0  0  0  0  0  0999 V2000
   -3.4442   -0.3083   -0.8890 O   0  0  0  0  0  0  0  0  0  0  0  0
    2.7750    0.3876   -0.0898 N   0  0  0  0  0  0  0  0  0  0  0  0
    3.5852   -0.6963   -0.3354 N   0  0  0  0  0  0  0  0  0  0  0  0
   -1.3912   -0.0032    0.2722 C   0  0  0  0  0  0  0  0  0  0  0  0
    1.3761    0.2562    0.0319 C   0  0  0  0  0  0  0  0  0  0  0  0
   -0.8206    1.2593    0.1111 C   0  0  0  0  0  0  0  0  0  0  0  0
   -0.5783   -1.1361    0.3133 C   0  0  0  0  0  0  0  0  0  0  0  0
    0.5630    1.3890   -0.0092 C   0  0  0  0  0  0  0  0  0  0  0  0
    0.8054   -1.0064    0.1931 C   0  0  0  0  0  0  0  0  0  0  0  0
   -2.8704   -0.1418    0.4018 C   0  0  0  0  0  0  0  0  0  0  0  0
   -1.4434    2.1492    0.0759 H   0  0  0  0  0  0  0  0  0  0  0  0
   -1.0116   -2.1249    0.4384 H   0  0  0  0  0  0  0  0  0  0  0  0
    0.9953    2.3784   -0.1348 H   0  0  0  0  0  0  0  0  0  0  0  0
    1.4069   -1.9103    0.2364 H   0  0  0  0  0  0  0  0  0  0  0  0
   -3.1396   -1.0047    1.0205 H   0  0  0  0  0  0  0  0  0  0  0  0
   -3.3155    0.7427    0.8694 H   0  0  0  0  0  0  0  0  0  0  0  0
    3.1497    1.3133   -0.2632 H   0  0  0  0  0  0  0  0  0  0  0  0
   -2.9519   -1.0063   -1.3539 H   0  0  0  0  0  0  0  0  0  0  0  0
    4.5232   -0.4832    0.0009 H   0  0  0  0  0  0  0  0  0  0  0  0
    3.6691   -0.8184   -1.3439 H   0  0  0  0  0  0  0  0  0  0  0  0
  1 10  1  0  0  0  0
  1 18  1  0  0  0  0
  2  3  1  0  0  0  0
  2  5  1  0  0  0  0
  2 17  1  0  0  0  0
  3 19  1  0  0  0  0
  3 20  1  0  0  0  0
  4  6  2  0  0  0  0
  4  7  1  0  0  0  0
  4 10  1  0  0  0  0
  5  8  2  0  0  0  0
  5  9  1  0  0  0  0
  6  8  1  0  0  0  0
  6 11  1  0  0  0  0
  7  9  2  0  0  0  0
  7 12  1  0  0  0  0
  8 13  1  0  0  0  0
  9 14  1  0  0  0  0
 10 15  1  0  0  0  0
 10 16  1  0  0  0  0
M  END
> <PUBCHEM_COMPOUND_CID>
135538

> <PUBCHEM_CONFORMER_RMSD>
0.4

> <PUBCHEM_CONFORMER_DIVERSEORDER>
2
7
1
4
6
3
5

> <PUBCHEM_MMFF94_PARTIAL_CHARGES>
18
1 -0.68
10 0.42
11 0.15
12 0.15
13 0.15
14 0.15
17 0.4
18 0.4
19 0.36
2 -0.51
20 0.36
3 -0.71
4 -0.14
5 0.1
6 -0.15
7 -0.15
8 -0.15
9 -0.15

> <PUBCHEM_EFFECTIVE_ROTOR_COUNT>
2

> <PUBCHEM_PHARMACOPHORE_FEATURES>
5
1 1 acceptor
1 1 donor
1 2 donor
1 3 donor
6 4 5 6 7 8 9 rings

> <PUBCHEM_HEAVY_ATOM_COUNT>
10

> <PUBCHEM_ATOM_DEF_STEREO_COUNT>
0

> <PUBCHEM_ATOM_UDEF_STEREO_COUNT>
0

> <PUBCHEM_BOND_DEF_STEREO_COUNT>
0

> <PUBCHEM_BOND_UDEF_STEREO_COUNT>
0

> <PUBCHEM_ISOTOPIC_ATOM_COUNT>
0

> <PUBCHEM_COMPONENT_COUNT>
1

> <PUBCHEM_CACTVS_TAUTO_COUNT>
1

> <PUBCHEM_CONFORMER_ID>
0002117200000002

> <PUBCHEM_MMFF94_ENERGY>
31.936

> <PUBCHEM_FEATURE_SELFOVERLAP>
26.901

> <PUBCHEM_SHAPE_FINGERPRINT>
10219947 1 18335135379973249095
11062470 55 14117798020152302510
11206711 2 18343020042365267989
12032990 46 18412254026060463723
12897270 3 18341896298637158293
14128692 85 18041566832335717415
14325111 11 18410853256868136696
14993402 34 18333734597991180479
16945 1 18342174462014761825
193761 8 17619629519664220257
20201158 50 18412543219072273650
21040471 1 18124594180648119369
21293036 1 18343584018746937223
23235685 24 18341896285662598713
23402655 69 18196108831545203885
23552423 10 17984979555679069154
2748010 2 18052532175509836922
29004967 10 18272082790767787801
369184 2 15140960694678061642
5084963 1 18261109673038289168

> <PUBCHEM_SHAPE_MULTIPOLES>
189.96
4.71
1.29
0.7
0.51
0.19
-0.03
-0.86
-0.93
0.16
0.06
-0.28
-0.03
0

> <PUBCHEM_SHAPE_SELFOVERLAP>
388.875

> <PUBCHEM_SHAPE_VOLUME>
109.9

> <PUBCHEM_COORDINATE_TYPE>
2
5
10

$$$$

