17395601
  -OEChem-06241222512D

 43 45  0     0  0  0  0  0  0999 V2000
    8.0622   -1.5173    0.0000 O   0  0  0  0  0  0  0  0  0  0  0  0
    5.4641    0.9827    0.0000 N   0  0  0  0  0  0  0  0  0  0  0  0
    3.7320   -0.0173    0.0000 N   0  0  0  0  0  0  0  0  0  0  0  0
    8.0622    1.4827    0.0000 N   0  0  0  0  0  0  0  0  0  0  0  0
    8.9282   -0.0173    0.0000 N   0  0  0  0  0  0  0  0  0  0  0  0
    4.5981    1.4827    0.0000 C   0  0  0  0  0  0  0  0  0  0  0  0
    5.4641   -0.0173    0.0000 C   0  0  0  0  0  0  0  0  0  0  0  0
    3.7320    0.9827    0.0000 C   0  0  0  0  0  0  0  0  0  0  0  0
    4.5981   -0.5173    0.0000 C   0  0  0  0  0  0  0  0  0  0  0  0
    6.3301    1.4827    0.0000 C   0  0  0  0  0  0  0  0  0  0  0  0
    2.8660   -0.5173    0.0000 C   0  0  0  0  0  0  0  0  0  0  0  0
    7.1962    0.9827    0.0000 C   0  0  0  0  0  0  0  0  0  0  0  0
    2.0000   -0.0173    0.0000 C   0  0  0  0  0  0  0  0  0  0  0  0
    7.1962   -0.0173    0.0000 C   0  0  0  0  0  0  0  0  0  0  0  0
    8.9282    0.9827    0.0000 C   0  0  0  0  0  0  0  0  0  0  0  0
    8.0622   -0.5173    0.0000 C   0  0  0  0  0  0  0  0  0  0  0  0
    9.8222   -0.5520    0.0000 C   0  0  0  0  0  0  0  0  0  0  0  0
    9.8222    1.5173    0.0000 C   0  0  0  0  0  0  0  0  0  0  0  0
   10.7282   -0.0381    0.0000 C   0  0  0  0  0  0  0  0  0  0  0  0
   10.7282    1.0035    0.0000 C   0  0  0  0  0  0  0  0  0  0  0  0
   11.5923   -0.5415    0.0000 C   0  0  0  0  0  0  0  0  0  0  0  0
    4.9966    1.9576    0.0000 H   0  0  0  0  0  0  0  0  0  0  0  0
    4.1996    1.9576    0.0000 H   0  0  0  0  0  0  0  0  0  0  0  0
    5.6762   -0.5999    0.0000 H   0  0  0  0  0  0  0  0  0  0  0  0
    6.0747    0.0903    0.0000 H   0  0  0  0  0  0  0  0  0  0  0  0
    3.5200    1.5653    0.0000 H   0  0  0  0  0  0  0  0  0  0  0  0
    3.1215    0.8750    0.0000 H   0  0  0  0  0  0  0  0  0  0  0  0
    4.1996   -0.9923    0.0000 H   0  0  0  0  0  0  0  0  0  0  0  0
    4.9966   -0.9923    0.0000 H   0  0  0  0  0  0  0  0  0  0  0  0
    6.7287    1.9576    0.0000 H   0  0  0  0  0  0  0  0  0  0  0  0
    5.9316    1.9576    0.0000 H   0  0  0  0  0  0  0  0  0  0  0  0
    2.4675   -0.9923    0.0000 H   0  0  0  0  0  0  0  0  0  0  0  0
    3.2646   -0.9923    0.0000 H   0  0  0  0  0  0  0  0  0  0  0  0
    2.3100    0.5196    0.0000 H   0  0  0  0  0  0  0  0  0  0  0  0
    1.4631    0.2927    0.0000 H   0  0  0  0  0  0  0  0  0  0  0  0
    1.6900   -0.5543    0.0000 H   0  0  0  0  0  0  0  0  0  0  0  0
    6.6592   -0.3273    0.0000 H   0  0  0  0  0  0  0  0  0  0  0  0
    9.8150   -1.1720    0.0000 H   0  0  0  0  0  0  0  0  0  0  0  0
    9.8150    2.1373    0.0000 H   0  0  0  0  0  0  0  0  0  0  0  0
   11.2639    1.3156    0.0000 H   0  0  0  0  0  0  0  0  0  0  0  0
   11.2802   -1.0772    0.0000 H   0  0  0  0  0  0  0  0  0  0  0  0
   12.1280   -0.8535    0.0000 H   0  0  0  0  0  0  0  0  0  0  0  0
   11.9044   -0.0057    0.0000 H   0  0  0  0  0  0  0  0  0  0  0  0
  1 16  2  0  0  0  0
  2  6  1  0  0  0  0
  2  7  1  0  0  0  0
  2 10  1  0  0  0  0
  3  8  1  0  0  0  0
  3  9  1  0  0  0  0
  3 11  1  0  0  0  0
  4 12  1  0  0  0  0
  4 15  2  0  0  0  0
  5 15  1  0  0  0  0
  5 16  1  0  0  0  0
  5 17  1  0  0  0  0
  6  8  1  0  0  0  0
  6 22  1  0  0  0  0
  6 23  1  0  0  0  0
  7  9  1  0  0  0  0
  7 24  1  0  0  0  0
  7 25  1  0  0  0  0
  8 26  1  0  0  0  0
  8 27  1  0  0  0  0
  9 28  1  0  0  0  0
  9 29  1  0  0  0  0
 10 12  1  0  0  0  0
 10 30  1  0  0  0  0
 10 31  1  0  0  0  0
 11 13  1  0  0  0  0
 11 32  1  0  0  0  0
 11 33  1  0  0  0  0
 12 14  2  0  0  0  0
 13 34  1  0  0  0  0
 13 35  1  0  0  0  0
 13 36  1  0  0  0  0
 14 16  1  0  0  0  0
 14 37  1  0  0  0  0
 15 18  1  0  0  0  0
 17 19  2  0  0  0  0
 17 38  1  0  0  0  0
 18 20  2  0  0  0  0
 18 39  1  0  0  0  0
 19 20  1  0  0  0  0
 19 21  1  0  0  0  0
 20 40  1  0  0  0  0
 21 41  1  0  0  0  0
 21 42  1  0  0  0  0
 21 43  1  0  0  0  0
M  END
> <PUBCHEM_COMPOUND_CID>
17395601

> <PUBCHEM_COMPOUND_CANONICALIZED>
1

> <PUBCHEM_CACTVS_COMPLEXITY>
551

> <PUBCHEM_CACTVS_HBOND_ACCEPTOR>
4

> <PUBCHEM_CACTVS_HBOND_DONOR>
0

> <PUBCHEM_CACTVS_ROTATABLE_BOND>
3

> <PUBCHEM_CACTVS_SUBSKEYS>
AAADceB7oAAAAAAAAAAAAAAAAAAAAAAAAAAsQIAAAAAAAACAAAAAHgAAAAAADAjBgAQDAAMAAACoAid2dACAAAEgAgAJCAAYAFgIQAAACQAQAAAABgCIgUIAAAAAAAAAAAAAAAAAAAAAAAAAAAAAAAAAAA==

> <PUBCHEM_IUPAC_OPENEYE_NAME>
2-[(4-ethylpiperazin-1-yl)methyl]-7-methyl-pyrido[1,2-a]pyrimidin-4-one

> <PUBCHEM_IUPAC_CAS_NAME>
2-[(4-ethyl-1-piperazinyl)methyl]-7-methyl-4-pyrido[1,2-a]pyrimidinone

> <PUBCHEM_IUPAC_NAME>
2-[(4-ethylpiperazin-1-yl)methyl]-7-methylpyrido[1,2-a]pyrimidin-4-one

> <PUBCHEM_IUPAC_SYSTEMATIC_NAME>
2-[(4-ethylpiperazin-1-yl)methyl]-7-methyl-pyrido[1,2-a]pyrimidin-4-one

> <PUBCHEM_IUPAC_TRADITIONAL_NAME>
2-[(4-ethylpiperazino)methyl]-7-methyl-pyrido[1,2-a]pyrimidin-4-one

> <PUBCHEM_IUPAC_INCHI>
InChI=1S/C16H22N4O/c1-3-18-6-8-19(9-7-18)12-14-10-16(21)20-11-13(2)4-5-15(20)17-14/h4-5,10-11H,3,6-9,12H2,1-2H3

> <PUBCHEM_IUPAC_INCHIKEY>
LXNAYYKXNGQDNA-UHFFFAOYSA-N

> <PUBCHEM_XLOGP3_AA>
0.1

> <PUBCHEM_EXACT_MASS>
286.179361

> <PUBCHEM_MOLECULAR_FORMULA>
C16H22N4O

> <PUBCHEM_MOLECULAR_WEIGHT>
286.37208

> <PUBCHEM_OPENEYE_CAN_SMILES>
CCN1CCN(CC1)CC2=CC(=O)N3C=C(C=CC3=N2)C

> <PUBCHEM_OPENEYE_ISO_SMILES>
CCN1CCN(CC1)CC2=CC(=O)N3C=C(C=CC3=N2)C

> <PUBCHEM_CACTVS_TPSA>
39.2

> <PUBCHEM_MONOISOTOPIC_WEIGHT>
286.179361

> <PUBCHEM_TOTAL_CHARGE>
0

> <PUBCHEM_HEAVY_ATOM_COUNT>
21

> <PUBCHEM_ATOM_DEF_STEREO_COUNT>
0

> <PUBCHEM_ATOM_UDEF_STEREO_COUNT>
0

> <PUBCHEM_BOND_DEF_STEREO_COUNT>
0

> <PUBCHEM_BOND_UDEF_STEREO_COUNT>
0

> <PUBCHEM_ISOTOPIC_ATOM_COUNT>
0

> <PUBCHEM_COMPONENT_COUNT>
1

> <PUBCHEM_CACTVS_TAUTO_COUNT>
1

> <PUBCHEM_COORDINATE_TYPE>
1
5
255

> <PUBCHEM_BONDANNOTATIONS>
12  14  8
14  16  8
15  18  8
17  19  8
18  20  8
19  20  8
4  12  8
4  15  8
5  15  8
5  16  8
5  17  8

$$$$

