158755
  -OEChem-07051212562D

 52 54  0     1  0  0  0  0  0999 V2000
    2.5381   -1.9612    0.0000 O   0  0  0  0  0  0  0  0  0  0  0  0
    7.8003   -1.9370    0.0000 O   0  0  0  0  0  0  0  0  0  0  0  0
    5.2022   -0.4370    0.0000 C   0  0  2  0  0  0  0  0  0  0  0  0
    5.2022   -1.4370    0.0000 C   0  0  1  0  0  0  0  0  0  0  0  0
    4.3083   -1.9717    0.0000 C   0  0  0  0  0  0  0  0  0  0  0  0
    6.0682    0.0630    0.0000 C   0  0  1  0  0  0  0  0  0  0  0  0
    4.3083    0.0976    0.0000 C   0  0  0  0  0  0  0  0  0  0  0  0
    3.4022   -1.4578    0.0000 C   0  0  1  0  0  0  0  0  0  0  0  0
    6.0682   -1.9370    0.0000 C   0  0  0  0  0  0  0  0  0  0  0  0
    3.4022   -0.4162    0.0000 C   0  0  0  0  0  0  0  0  0  0  0  0
    6.9343   -0.4370    0.0000 C   0  0  0  0  0  0  0  0  0  0  0  0
    6.0522    1.1045    0.0000 C   0  0  0  0  0  0  0  0  0  0  0  0
    5.2022    0.5630    0.0000 C   0  0  0  0  0  0  0  0  0  0  0  0
    6.9343   -1.4370    0.0000 C   0  0  0  0  0  0  0  0  0  0  0  0
    3.8183   -2.8434    0.0000 C   0  0  0  0  0  0  0  0  0  0  0  0
    4.8183   -2.8319    0.0000 C   0  0  0  0  0  0  0  0  0  0  0  0
    6.9502    1.6322    0.0000 C   0  0  0  0  0  0  0  0  0  0  0  0
    7.8523    1.1114    0.0000 C   0  0  1  0  0  0  0  0  0  0  0  0
    7.8443    0.0698    0.0000 C   0  0  0  0  0  0  0  0  0  0  0  0
    8.8523    1.1076    0.0000 C   0  0  0  0  0  0  0  0  0  0  0  0
    8.3556    1.9755    0.0000 C   0  0  0  0  0  0  0  0  0  0  0  0
    7.8590    2.8434    0.0000 C   0  0  0  0  0  0  0  0  0  0  0  0
    5.2088   -2.2870    0.0000 H   0  0  0  0  0  0  0  0  0  0  0  0
    6.8011    0.4936    0.0000 H   0  0  0  0  0  0  0  0  0  0  0  0
    4.7129    0.5674    0.0000 H   0  0  0  0  0  0  0  0  0  0  0  0
    3.9147    0.5766    0.0000 H   0  0  0  0  0  0  0  0  0  0  0  0
    2.8647   -1.1489    0.0000 H   0  0  0  0  0  0  0  0  0  0  0  0
    5.6697   -2.4120    0.0000 H   0  0  0  0  0  0  0  0  0  0  0  0
    6.4668   -2.4120    0.0000 H   0  0  0  0  0  0  0  0  0  0  0  0
    3.1932    0.1675    0.0000 H   0  0  0  0  0  0  0  0  0  0  0  0
    2.7914   -0.5223    0.0000 H   0  0  0  0  0  0  0  0  0  0  0  0
    5.8342    1.6849    0.0000 H   0  0  0  0  0  0  0  0  0  0  0  0
    5.4431    0.9890    0.0000 H   0  0  0  0  0  0  0  0  0  0  0  0
    5.8222    0.5630    0.0000 H   0  0  0  0  0  0  0  0  0  0  0  0
    5.2022    1.1830    0.0000 H   0  0  0  0  0  0  0  0  0  0  0  0
    4.5822    0.5630    0.0000 H   0  0  0  0  0  0  0  0  0  0  0  0
    3.2778   -2.5397    0.0000 H   0  0  0  0  0  0  0  0  0  0  0  0
    3.5146   -3.3839    0.0000 H   0  0  0  0  0  0  0  0  0  0  0  0
    4.3588   -3.1472    0.0000 H   0  0  0  0  0  0  0  0  0  0  0  0
    4.2850   -3.1481    0.0000 H   0  0  0  0  0  0  0  0  0  0  0  0
    5.1344   -3.3652    0.0000 H   0  0  0  0  0  0  0  0  0  0  0  0
    5.3516   -2.5157    0.0000 H   0  0  0  0  0  0  0  0  0  0  0  0
    7.3475    2.1082    0.0000 H   0  0  0  0  0  0  0  0  0  0  0  0
    6.5493    2.1051    0.0000 H   0  0  0  0  0  0  0  0  0  0  0  0
    8.3776   -0.2464    0.0000 H   0  0  0  0  0  0  0  0  0  0  0  0
    2.0000   -1.6533    0.0000 H   0  0  0  0  0  0  0  0  0  0  0  0
    8.8499    0.4876    0.0000 H   0  0  0  0  0  0  0  0  0  0  0  0
    9.4723    1.1052    0.0000 H   0  0  0  0  0  0  0  0  0  0  0  0
    8.8547    1.7276    0.0000 H   0  0  0  0  0  0  0  0  0  0  0  0
    8.9756    1.9731    0.0000 H   0  0  0  0  0  0  0  0  0  0  0  0
    8.1710    3.3792    0.0000 H   0  0  0  0  0  0  0  0  0  0  0  0
    7.2390    2.8458    0.0000 H   0  0  0  0  0  0  0  0  0  0  0  0
  8  1  1  6  0  0  0
  1 46  1  0  0  0  0
  2 14  2  0  0  0  0
  3  4  1  0  0  0  0
  3  6  1  0  0  0  0
  3  7  1  0  0  0  0
  3 13  1  6  0  0  0
  4  5  1  0  0  0  0
  4  9  1  0  0  0  0
  4 23  1  1  0  0  0
  5  8  1  0  0  0  0
  5 15  1  0  0  0  0
  5 16  1  0  0  0  0
  6 11  1  0  0  0  0
  6 12  1  0  0  0  0
  6 24  1  1  0  0  0
  7 10  1  0  0  0  0
  7 25  1  0  0  0  0
  7 26  1  0  0  0  0
  8 10  1  0  0  0  0
  8 27  1  0  0  0  0
  9 14  1  0  0  0  0
  9 28  1  0  0  0  0
  9 29  1  0  0  0  0
 10 30  1  0  0  0  0
 10 31  1  0  0  0  0
 11 14  1  0  0  0  0
 11 19  2  0  0  0  0
 12 17  1  0  0  0  0
 12 32  1  0  0  0  0
 12 33  1  0  0  0  0
 13 34  1  0  0  0  0
 13 35  1  0  0  0  0
 13 36  1  0  0  0  0
 15 37  1  0  0  0  0
 15 38  1  0  0  0  0
 15 39  1  0  0  0  0
 16 40  1  0  0  0  0
 16 41  1  0  0  0  0
 16 42  1  0  0  0  0
 17 18  1  0  0  0  0
 17 43  1  0  0  0  0
 17 44  1  0  0  0  0
 18 19  1  0  0  0  0
 18 20  1  6  0  0  0
 18 21  1  0  0  0  0
 19 45  1  0  0  0  0
 20 47  1  0  0  0  0
 20 48  1  0  0  0  0
 20 49  1  0  0  0  0
 21 22  2  0  0  0  0
 21 50  1  0  0  0  0
 22 51  1  0  0  0  0
 22 52  1  0  0  0  0
M  END
> <PUBCHEM_COMPOUND_CID>
158755

> <PUBCHEM_COMPOUND_CANONICALIZED>
1

> <PUBCHEM_CACTVS_COMPLEXITY>
544

> <PUBCHEM_CACTVS_HBOND_ACCEPTOR>
2

> <PUBCHEM_CACTVS_HBOND_DONOR>
1

> <PUBCHEM_CACTVS_ROTATABLE_BOND>
1

> <PUBCHEM_CACTVS_SUBSKEYS>
AAADceB4MAAAAAAAAAAAAAAAAAAAAAAAAAAwYIAAAAAAAADAAAAAGgAACAAADxSggAICAAAAAgCIAqBSAAAAAAAgAAAICAEAAEgAEBIAAQAAQAAEgAAIAYOIzPDPgAAAAAAAAABAAAYAADAAAAAAAAAAAA==

> <PUBCHEM_IUPAC_OPENEYE_NAME>
(2R,4aR,4bS,7S,10aS)-2-hydroxy-1,1,4a,7-tetramethyl-7-vinyl-2,3,4,4b,5,6,10,10a-octahydrophenanthren-9-one

> <PUBCHEM_IUPAC_CAS_NAME>
(2R,4aR,4bS,7S,10aS)-7-ethenyl-2-hydroxy-1,1,4a,7-tetramethyl-2,3,4,4b,5,6,10,10a-octahydrophenanthren-9-one

> <PUBCHEM_IUPAC_NAME>
(2R,4aR,4bS,7S,10aS)-7-ethenyl-2-hydroxy-1,1,4a,7-tetramethyl-2,3,4,4b,5,6,10,10a-octahydrophenanthren-9-one

> <PUBCHEM_IUPAC_SYSTEMATIC_NAME>
(2R,4aR,4bS,7S,10aS)-7-ethenyl-1,1,4a,7-tetramethyl-2-oxidanyl-2,3,4,4b,5,6,10,10a-octahydrophenanthren-9-one

> <PUBCHEM_IUPAC_TRADITIONAL_NAME>
(2R,4aR,4bS,7S,10aS)-2-hydroxy-1,1,4a,7-tetramethyl-7-vinyl-2,3,4,4b,5,6,10,10a-octahydrophenanthren-9-one

> <PUBCHEM_IUPAC_INCHI>
InChI=1S/C20H30O2/c1-6-19(4)9-7-14-13(12-19)15(21)11-16-18(2,3)17(22)8-10-20(14,16)5/h6,12,14,16-17,22H,1,7-11H2,2-5H3/t14-,16-,17-,19-,20+/m1/s1

> <PUBCHEM_IUPAC_INCHIKEY>
QOWLIQGNZBOQNG-JECYIRHJSA-N

> <PUBCHEM_XLOGP3_AA>
4.6

> <PUBCHEM_EXACT_MASS>
302.22458

> <PUBCHEM_MOLECULAR_FORMULA>
C20H30O2

> <PUBCHEM_MOLECULAR_WEIGHT>
302.451

> <PUBCHEM_OPENEYE_CAN_SMILES>
CC1(C(CCC2(C1CC(=O)C3=CC(CCC32)(C)C=C)C)O)C

> <PUBCHEM_OPENEYE_ISO_SMILES>
C[C@]1(CC[C@@H]2C(=C1)C(=O)C[C@H]3[C@]2(CC[C@H](C3(C)C)O)C)C=C

> <PUBCHEM_CACTVS_TPSA>
37.3

> <PUBCHEM_MONOISOTOPIC_WEIGHT>
302.22458

> <PUBCHEM_TOTAL_CHARGE>
0

> <PUBCHEM_HEAVY_ATOM_COUNT>
22

> <PUBCHEM_ATOM_DEF_STEREO_COUNT>
5

> <PUBCHEM_ATOM_UDEF_STEREO_COUNT>
0

> <PUBCHEM_BOND_DEF_STEREO_COUNT>
0

> <PUBCHEM_BOND_UDEF_STEREO_COUNT>
0

> <PUBCHEM_ISOTOPIC_ATOM_COUNT>
0

> <PUBCHEM_COMPONENT_COUNT>
1

> <PUBCHEM_CACTVS_TAUTO_COUNT>
2

> <PUBCHEM_COORDINATE_TYPE>
1
5
255

> <PUBCHEM_BONDANNOTATIONS>
8  1  6
18  20  6
3  13  6
4  23  5
6  24  5

$$$$

