242863
  -OEChem-07051213063D

 54 57  0     1  0  0  0  0  0999 V2000
   -4.4727    1.7993   -0.3261 O   0  0  0  0  0  0  0  0  0  0  0  0
   -4.6526   -0.6675   -1.3878 O   0  0  0  0  0  0  0  0  0  0  0  0
    6.2894   -0.3905   -0.2889 O   0  0  0  0  0  0  0  0  0  0  0  0
   -2.1404    0.9548   -0.2233 C   0  0  1  0  0  0  0  0  0  0  0  0
   -1.6204   -0.4107    0.2686 C   0  0  2  0  0  0  0  0  0  0  0  0
   -0.1566   -0.6368   -0.1100 C   0  0  1  0  0  0  0  0  0  0  0  0
   -3.6054    0.8408    0.2482 C   0  0  2  0  0  0  0  0  0  0  0  0
   -2.6814   -1.4039   -0.2097 C   0  0  0  0  0  0  0  0  0  0  0  0
   -4.0146   -0.6144   -0.1125 C   0  0  2  0  0  0  0  0  0  0  0  0
    0.7109    0.4583    0.5821 C   0  0  2  0  0  0  0  0  0  0  0  0
   -1.3282    2.0520    0.4796 C   0  0  0  0  0  0  0  0  0  0  0  0
    0.1871    1.8826    0.2552 C   0  0  0  0  0  0  0  0  0  0  0  0
    0.3545   -2.0158    0.3116 C   0  0  0  0  0  0  0  0  0  0  0  0
   -2.0617    1.1718   -1.7546 C   0  0  0  0  0  0  0  0  0  0  0  0
   -4.9739   -1.2089    0.9134 C   0  0  0  0  0  0  0  0  0  0  0  0
    2.1974    0.2390    0.3133 C   0  0  0  0  0  0  0  0  0  0  0  0
    1.7691   -2.2280   -0.2190 C   0  0  0  0  0  0  0  0  0  0  0  0
    2.6838   -1.0439   -0.0214 C   0  0  0  0  0  0  0  0  0  0  0  0
   -6.2797   -0.4383    0.9642 C   0  0  0  0  0  0  0  0  0  0  0  0
    3.1279    1.2805    0.4775 C   0  0  0  0  0  0  0  0  0  0  0  0
    4.0605   -1.2380   -0.2323 C   0  0  0  0  0  0  0  0  0  0  0  0
    4.4936    1.0718    0.2734 C   0  0  0  0  0  0  0  0  0  0  0  0
    4.9599   -0.1861   -0.0860 C   0  0  0  0  0  0  0  0  0  0  0  0
    7.1536    0.7319   -0.1156 C   0  0  0  0  0  0  0  0  0  0  0  0
   -1.6693   -0.4283    1.3705 H   0  0  0  0  0  0  0  0  0  0  0  0
   -0.0443   -0.5622   -1.1995 H   0  0  0  0  0  0  0  0  0  0  0  0
   -3.6383    0.9811    1.3365 H   0  0  0  0  0  0  0  0  0  0  0  0
   -2.4782   -1.7300   -1.2365 H   0  0  0  0  0  0  0  0  0  0  0  0
   -2.6840   -2.2976    0.4240 H   0  0  0  0  0  0  0  0  0  0  0  0
    0.5983    0.3318    1.6702 H   0  0  0  0  0  0  0  0  0  0  0  0
   -1.5197    2.0247    1.5604 H   0  0  0  0  0  0  0  0  0  0  0  0
   -1.6426    3.0455    0.1377 H   0  0  0  0  0  0  0  0  0  0  0  0
    0.4438    2.1437   -0.7785 H   0  0  0  0  0  0  0  0  0  0  0  0
    0.6886    2.6240    0.8882 H   0  0  0  0  0  0  0  0  0  0  0  0
   -0.2899   -2.8138   -0.0733 H   0  0  0  0  0  0  0  0  0  0  0  0
    0.3490   -2.1008    1.4060 H   0  0  0  0  0  0  0  0  0  0  0  0
   -1.0332    1.1778   -2.1255 H   0  0  0  0  0  0  0  0  0  0  0  0
   -2.5878    0.4005   -2.3223 H   0  0  0  0  0  0  0  0  0  0  0  0
   -2.4991    2.1380   -2.0315 H   0  0  0  0  0  0  0  0  0  0  0  0
   -4.5171   -1.2264    1.9100 H   0  0  0  0  0  0  0  0  0  0  0  0
   -5.2047   -2.2476    0.6454 H   0  0  0  0  0  0  0  0  0  0  0  0
    1.7189   -2.4375   -1.2953 H   0  0  0  0  0  0  0  0  0  0  0  0
    2.1964   -3.1128    0.2683 H   0  0  0  0  0  0  0  0  0  0  0  0
   -4.6408    1.5423   -1.2483 H   0  0  0  0  0  0  0  0  0  0  0  0
   -4.8341   -1.6004   -1.5942 H   0  0  0  0  0  0  0  0  0  0  0  0
   -6.1395    0.5800    1.3378 H   0  0  0  0  0  0  0  0  0  0  0  0
   -6.7686   -0.3875   -0.0135 H   0  0  0  0  0  0  0  0  0  0  0  0
   -6.9736   -0.9370    1.6497 H   0  0  0  0  0  0  0  0  0  0  0  0
    2.8101    2.2752    0.7752 H   0  0  0  0  0  0  0  0  0  0  0  0
    4.4311   -2.2222   -0.5118 H   0  0  0  0  0  0  0  0  0  0  0  0
    5.1346    1.9350    0.4170 H   0  0  0  0  0  0  0  0  0  0  0  0
    8.1736    0.3889   -0.3183 H   0  0  0  0  0  0  0  0  0  0  0  0
    7.1376    1.0960    0.9173 H   0  0  0  0  0  0  0  0  0  0  0  0
    6.9330    1.5248   -0.8383 H   0  0  0  0  0  0  0  0  0  0  0  0
  1  7  1  0  0  0  0
  1 44  1  0  0  0  0
  2  9  1  0  0  0  0
  2 45  1  0  0  0  0
  3 23  1  0  0  0  0
  3 24  1  0  0  0  0
  4  5  1  0  0  0  0
  4  7  1  0  0  0  0
  4 11  1  0  0  0  0
  4 14  1  0  0  0  0
  5  6  1  0  0  0  0
  5  8  1  0  0  0  0
  5 25  1  0  0  0  0
  6 10  1  0  0  0  0
  6 13  1  0  0  0  0
  6 26  1  0  0  0  0
  7  9  1  0  0  0  0
  7 27  1  0  0  0  0
  8  9  1  0  0  0  0
  8 28  1  0  0  0  0
  8 29  1  0  0  0  0
  9 15  1  0  0  0  0
 10 12  1  0  0  0  0
 10 16  1  0  0  0  0
 10 30  1  0  0  0  0
 11 12  1  0  0  0  0
 11 31  1  0  0  0  0
 11 32  1  0  0  0  0
 12 33  1  0  0  0  0
 12 34  1  0  0  0  0
 13 17  1  0  0  0  0
 13 35  1  0  0  0  0
 13 36  1  0  0  0  0
 14 37  1  0  0  0  0
 14 38  1  0  0  0  0
 14 39  1  0  0  0  0
 15 19  1  0  0  0  0
 15 40  1  0  0  0  0
 15 41  1  0  0  0  0
 16 18  2  0  0  0  0
 16 20  1  0  0  0  0
 17 18  1  0  0  0  0
 17 42  1  0  0  0  0
 17 43  1  0  0  0  0
 18 21  1  0  0  0  0
 19 46  1  0  0  0  0
 19 47  1  0  0  0  0
 19 48  1  0  0  0  0
 20 22  2  0  0  0  0
 20 49  1  0  0  0  0
 21 23  2  0  0  0  0
 21 50  1  0  0  0  0
 22 23  1  0  0  0  0
 22 51  1  0  0  0  0
 24 52  1  0  0  0  0
 24 53  1  0  0  0  0
 24 54  1  0  0  0  0
M  END
> <PUBCHEM_COMPOUND_CID>
242863

> <PUBCHEM_CONFORMER_RMSD>
0.6

> <PUBCHEM_CONFORMER_DIVERSEORDER>
1
2

> <PUBCHEM_MMFF94_PARTIAL_CHARGES>
19
1 -0.68
10 0.14
16 -0.14
17 0.14
18 -0.14
2 -0.68
20 -0.15
21 -0.15
22 -0.15
23 0.08
24 0.28
3 -0.36
44 0.4
45 0.4
49 0.15
50 0.15
51 0.15
7 0.28
9 0.28

> <PUBCHEM_EFFECTIVE_ROTOR_COUNT>
3.4

> <PUBCHEM_PHARMACOPHORE_FEATURES>
10
1 1 acceptor
1 1 donor
1 19 hydrophobe
1 2 acceptor
1 2 donor
1 3 acceptor
5 4 5 7 8 9 rings
6 16 18 20 21 22 23 rings
6 4 5 6 10 11 12 rings
6 6 10 13 16 17 18 rings

> <PUBCHEM_HEAVY_ATOM_COUNT>
24

> <PUBCHEM_ATOM_DEF_STEREO_COUNT>
6

> <PUBCHEM_ATOM_UDEF_STEREO_COUNT>
0

> <PUBCHEM_BOND_DEF_STEREO_COUNT>
0

> <PUBCHEM_BOND_UDEF_STEREO_COUNT>
0

> <PUBCHEM_ISOTOPIC_ATOM_COUNT>
0

> <PUBCHEM_COMPONENT_COUNT>
1

> <PUBCHEM_CACTVS_TAUTO_COUNT>
1

> <PUBCHEM_CONFORMER_ID>
0003B4AF00000001

> <PUBCHEM_MMFF94_ENERGY>
98.3076

> <PUBCHEM_FEATURE_SELFOVERLAP>
50.854

> <PUBCHEM_SHAPE_FINGERPRINT>
10 15 18270687464122380200
10591671 39 18201144491457081710
11488393 25 17460300286712596038
11578080 2 17272586172248747239
11796584 16 4967611685504561980
11963148 33 18201160953440201539
12011746 2 18411145718903888711
12166972 35 17917988369989179060
12236239 1 17775005704680464552
12403259 415 18335991895753680552
12553582 1 18335714831560228491
12596602 18 15482669057463139900
12788726 201 17168703179769260977
12838862 33 18336846228761608737
128620 24 18343581854083497887
12916748 109 18410006650817148914
13073987 5 18338517547161326690
13140716 1 18122623843295488723
13224815 77 18341052998814469123
13288520 33 18409728448378813897
13402501 40 18411417297869884362
13533116 47 5833445159486278820
13862211 1 18408892819130487882
14341114 176 18410006659143560350
14617045 38 18409161112762922315
14787075 74 18411983533320325690
14790565 3 18408597059087399569
15142383 8 4750882507462270850
15196674 1 18410012177786041618
15927050 60 17469600711568042492
17492 89 18195528322990477314
17980427 23 14045740469201678943
1813 80 17561075909054831309
18608769 82 18338514136593738466
18681886 176 18410016499219688224
19141452 34 17968095274882092071
19489759 90 15123793985221161207
200 152 18186241735911722930
21033650 10 15194160654645064350
21236236 1 18335699472720677073
21267235 1 18409722950293173923
21279426 13 18265330788793679678
21521721 280 18113616743078066960
21709351 56 18412832386467430180
221357 26 18187365445875952304
23402539 116 18335144193705148092
23522609 53 18118091763260781649
23557571 272 18341608239364858796
23559900 14 18261682493417764368
2871803 45 18411425024457968910
3004659 81 18413951685816517008
335352 9 18336264552761274559
34797466 226 17894901907524926348
34934 24 18338239392009732153
350125 39 18410290311420874176
3545911 37 18409728461163417578
4214541 1 18409167731312683281
4325135 7 18341891883273615166
4340502 62 16988844973657151914
474229 33 18411419501478367770
5104073 3 18338801233349947563
9709674 26 18336541711285777270

> <PUBCHEM_SHAPE_MULTIPOLES>
476.3
13.99
2.04
0.94
8.44
0.02
0.24
0.25
-0.56
-0.26
-0.02
-0.92
-0.11
0.61

> <PUBCHEM_SHAPE_SELFOVERLAP>
1026.021

> <PUBCHEM_SHAPE_VOLUME>
261.4

> <PUBCHEM_COORDINATE_TYPE>
2
5
10

$$$$

