6323381
  -OEChem-07051213152D

 37 39  0     1  0  0  0  0  0999 V2000
    9.3412    2.5896    0.0000 P   0  0  0  0  0  0  0  0  0  0  0  0
    6.8066    0.8252    0.0000 O   0  0  0  0  0  0  0  0  0  0  0  0
    5.5504    3.0874    0.0000 O   0  0  0  0  0  0  0  0  0  0  0  0
    8.5312    2.0032    0.0000 O   0  0  0  0  0  0  0  0  0  0  0  0
   10.1512    3.1760    0.0000 O   0  0  0  0  0  0  0  0  0  0  0  0
    9.9276    1.7796    0.0000 O   0  0  0  0  0  0  0  0  0  0  0  0
    8.7548    3.3996    0.0000 O   0  0  0  0  0  0  0  0  0  0  0  0
    2.0000   -0.2375    0.0000 O   0  0  0  0  0  0  0  0  0  0  0  0
    5.5443   -0.4327    0.0000 N   0  0  0  0  0  0  0  0  0  0  0  0
    5.5443   -2.0422    0.0000 N   0  0  0  0  0  0  0  0  0  0  0  0
    3.7320   -0.2375    0.0000 N   0  0  0  0  0  0  0  0  0  0  0  0
    2.8660   -1.7374    0.0000 N   0  0  0  0  0  0  0  0  0  0  0  0
    3.7320   -3.2374    0.0000 N   0  0  0  0  0  0  0  0  0  0  0  0
    5.8550    0.5178    0.0000 C   0  0  1  0  0  0  0  0  0  0  0  0
    5.8578    2.1358    0.0000 C   0  0  1  0  0  0  0  0  0  0  0  0
    5.2686    1.3278    0.0000 C   0  0  0  0  0  0  0  0  0  0  0  0
    6.8083    1.8252    0.0000 C   0  0  1  0  0  0  0  0  0  0  0  0
    7.6183    2.4116    0.0000 C   0  0  0  0  0  0  0  0  0  0  0  0
    4.5981   -0.7375    0.0000 C   0  0  0  0  0  0  0  0  0  0  0  0
    6.1279   -1.2374    0.0000 C   0  0  0  0  0  0  0  0  0  0  0  0
    4.5981   -1.7374    0.0000 C   0  0  0  0  0  0  0  0  0  0  0  0
    3.7320   -2.2374    0.0000 C   0  0  0  0  0  0  0  0  0  0  0  0
    2.8660   -0.7375    0.0000 C   0  0  0  0  0  0  0  0  0  0  0  0
    6.2926    0.0786    0.0000 H   0  0  0  0  0  0  0  0  0  0  0  0
    5.2456    2.2339    0.0000 H   0  0  0  0  0  0  0  0  0  0  0  0
    4.8085    1.7435    0.0000 H   0  0  0  0  0  0  0  0  0  0  0  0
    4.8071    0.9138    0.0000 H   0  0  0  0  0  0  0  0  0  0  0  0
    7.3602    1.5427    0.0000 H   0  0  0  0  0  0  0  0  0  0  0  0
    7.9659    2.9250    0.0000 H   0  0  0  0  0  0  0  0  0  0  0  0
    7.1731    2.8430    0.0000 H   0  0  0  0  0  0  0  0  0  0  0  0
    5.9660    3.5474    0.0000 H   0  0  0  0  0  0  0  0  0  0  0  0
    6.7479   -1.2374    0.0000 H   0  0  0  0  0  0  0  0  0  0  0  0
    2.3291   -2.0474    0.0000 H   0  0  0  0  0  0  0  0  0  0  0  0
    3.1951   -3.5474    0.0000 H   0  0  0  0  0  0  0  0  0  0  0  0
    4.2690   -3.5474    0.0000 H   0  0  0  0  0  0  0  0  0  0  0  0
   10.7172    2.9228    0.0000 H   0  0  0  0  0  0  0  0  0  0  0  0
    9.6744    1.2136    0.0000 H   0  0  0  0  0  0  0  0  0  0  0  0
  1  4  1  0  0  0  0
  1  5  1  0  0  0  0
  1  6  1  0  0  0  0
  1  7  2  0  0  0  0
  2 14  1  0  0  0  0
  2 17  1  0  0  0  0
 15  3  1  6  0  0  0
  3 31  1  0  0  0  0
  4 18  1  0  0  0  0
  5 36  1  0  0  0  0
  6 37  1  0  0  0  0
  8 23  2  0  0  0  0
 14  9  1  1  0  0  0
  9 19  1  0  0  0  0
  9 20  1  0  0  0  0
 10 20  2  0  0  0  0
 10 21  1  0  0  0  0
 11 19  2  0  0  0  0
 11 23  1  0  0  0  0
 12 22  1  0  0  0  0
 12 23  1  0  0  0  0
 12 33  1  0  0  0  0
 13 22  1  0  0  0  0
 13 34  1  0  0  0  0
 13 35  1  0  0  0  0
 14 16  1  0  0  0  0
 14 24  1  0  0  0  0
 15 16  1  0  0  0  0
 15 17  1  0  0  0  0
 15 25  1  0  0  0  0
 16 26  1  0  0  0  0
 16 27  1  0  0  0  0
 17 18  1  1  0  0  0
 17 28  1  0  0  0  0
 18 29  1  0  0  0  0
 18 30  1  0  0  0  0
 19 21  1  0  0  0  0
 20 32  1  0  0  0  0
 21 22  2  0  0  0  0
M  END
> <PUBCHEM_COMPOUND_CID>
6323381

> <PUBCHEM_COMPOUND_CANONICALIZED>
1

> <PUBCHEM_CACTVS_COMPLEXITY>
671

> <PUBCHEM_CACTVS_HBOND_ACCEPTOR>
9

> <PUBCHEM_CACTVS_HBOND_DONOR>
5

> <PUBCHEM_CACTVS_ROTATABLE_BOND>
4

> <PUBCHEM_CACTVS_SUBSKEYS>
AAADccBzuAIAAAAAAAAAAAAAAAAAASIAAAAgAAAAAAAAAEAAAAAAHgAQCCAACBzhgAYBAAPABxCoQAZhdICAAAEAAAABAAAIABCBUAIAiAAeQAAHAQCDAACwMAIAAAAAAAAAAAAAAAAAAAAAAAAAAAAAAA==

> <PUBCHEM_IUPAC_OPENEYE_NAME>
[(2R,3S,5R)-5-(6-amino-2-oxo-1H-purin-9-yl)-3-hydroxy-tetrahydrofuran-2-yl]methyl dihydrogen phosphate

> <PUBCHEM_IUPAC_CAS_NAME>
[(2R,3S,5R)-5-(6-amino-2-oxo-1H-purin-9-yl)-3-hydroxy-2-oxolanyl]methyl dihydrogen phosphate

> <PUBCHEM_IUPAC_NAME>
[(2R,3S,5R)-5-(6-amino-2-oxo-1H-purin-9-yl)-3-hydroxyoxolan-2-yl]methyl dihydrogen phosphate

> <PUBCHEM_IUPAC_SYSTEMATIC_NAME>
[(2R,3S,5R)-5-(6-azanyl-2-oxidanylidene-1H-purin-9-yl)-3-oxidanyl-oxolan-2-yl]methyl dihydrogen phosphate

> <PUBCHEM_IUPAC_TRADITIONAL_NAME>
[(2R,3S,5R)-5-(6-amino-2-keto-1H-purin-9-yl)-3-hydroxy-tetrahydrofuran-2-yl]methyl dihydrogen phosphate

> <PUBCHEM_IUPAC_INCHI>
InChI=1S/C10H14N5O7P/c11-8-7-9(14-10(17)13-8)15(3-12-7)6-1-4(16)5(22-6)2-21-23(18,19)20/h3-6,16H,1-2H2,(H2,18,19,20)(H3,11,13,14,17)/t4-,5+,6+/m0/s1

> <PUBCHEM_IUPAC_INCHIKEY>
GEQDRKVFKBSPSW-KVQBGUIXSA-N

> <PUBCHEM_XLOGP3_AA>
-3.7

> <PUBCHEM_EXACT_MASS>
347.063084

> <PUBCHEM_MOLECULAR_FORMULA>
C10H14N5O7P

> <PUBCHEM_MOLECULAR_WEIGHT>
347.221222

> <PUBCHEM_OPENEYE_CAN_SMILES>
C1C(C(OC1N2C=NC3=C(NC(=O)N=C32)N)COP(=O)(O)O)O

> <PUBCHEM_OPENEYE_ISO_SMILES>
C1[C@@H]([C@H](O[C@H]1N2C=NC3=C(NC(=O)N=C32)N)COP(=O)(O)O)O

> <PUBCHEM_CACTVS_TPSA>
179

> <PUBCHEM_MONOISOTOPIC_WEIGHT>
347.063084

> <PUBCHEM_TOTAL_CHARGE>
0

> <PUBCHEM_HEAVY_ATOM_COUNT>
23

> <PUBCHEM_ATOM_DEF_STEREO_COUNT>
3

> <PUBCHEM_ATOM_UDEF_STEREO_COUNT>
0

> <PUBCHEM_BOND_DEF_STEREO_COUNT>
0

> <PUBCHEM_BOND_UDEF_STEREO_COUNT>
0

> <PUBCHEM_ISOTOPIC_ATOM_COUNT>
0

> <PUBCHEM_COMPONENT_COUNT>
1

> <PUBCHEM_CACTVS_TAUTO_COUNT>
9

> <PUBCHEM_COORDINATE_TYPE>
1
5
255

> <PUBCHEM_BONDANNOTATIONS>
10  20  8
10  21  8
11  19  8
11  23  8
12  22  8
12  23  8
17  18  5
19  21  8
21  22  8
15  3  6
14  9  5
9  19  8
9  20  8

$$$$

