247022
  -OEChem-07051213073D

 54 57  0     1  0  0  0  0  0999 V2000
    0.2331   -2.2295   -1.0507 O   0  0  0  0  0  0  0  0  0  0  0  0
    4.9793   -0.9508    0.4825 N   0  0  0  0  0  0  0  0  0  0  0  0
   -0.4688   -0.3246    0.3447 C   0  0  1  0  0  0  0  0  0  0  0  0
    0.3350    0.8525   -0.3056 C   0  0  2  0  0  0  0  0  0  0  0  0
    1.7478    0.8622    0.2940 C   0  0  1  0  0  0  0  0  0  0  0  0
    2.5260   -0.4447    0.0419 C   0  0  2  0  0  0  0  0  0  0  0  0
   -1.9789   -0.3359   -0.1226 C   0  0  2  0  0  0  0  0  0  0  0  0
   -2.5787    1.0641    0.2364 C   0  0  1  0  0  0  0  0  0  0  0  0
    0.2863   -1.6869    0.2609 C   0  0  2  0  0  0  0  0  0  0  0  0
    1.7604   -1.5972    0.7167 C   0  0  0  0  0  0  0  0  0  0  0  0
   -0.3565    2.2069   -0.0745 C   0  0  0  0  0  0  0  0  0  0  0  0
    3.8572   -0.0617    0.7354 C   0  0  2  0  0  0  0  0  0  0  0  0
    2.7322    1.9555   -0.1200 C   0  0  0  0  0  0  0  0  0  0  0  0
   -1.8313    2.2028   -0.4649 C   0  0  0  0  0  0  0  0  0  0  0  0
   -2.7803   -1.4091    0.6664 C   0  0  0  0  0  0  0  0  0  0  0  0
    4.1135    1.3867    0.2638 C   0  0  0  0  0  0  0  0  0  0  0  0
   -4.0929    1.1594   -0.0036 C   0  0  0  0  0  0  0  0  0  0  0  0
    2.7711   -0.7524   -1.4591 C   0  0  0  0  0  0  0  0  0  0  0  0
   -2.1196   -0.6349   -1.6376 C   0  0  0  0  0  0  0  0  0  0  0  0
   -4.2930   -1.3258    0.4470 C   0  0  0  0  0  0  0  0  0  0  0  0
   -4.8419    0.0633    0.7486 C   0  0  0  0  0  0  0  0  0  0  0  0
   -0.4956   -0.0993    1.4239 H   0  0  0  0  0  0  0  0  0  0  0  0
    0.4024    0.7011   -1.3872 H   0  0  0  0  0  0  0  0  0  0  0  0
    1.6179    0.9787    1.3837 H   0  0  0  0  0  0  0  0  0  0  0  0
   -2.4377    1.2143    1.3184 H   0  0  0  0  0  0  0  0  0  0  0  0
   -0.2150   -2.4083    0.9162 H   0  0  0  0  0  0  0  0  0  0  0  0
    1.7706   -1.4520    1.8049 H   0  0  0  0  0  0  0  0  0  0  0  0
    2.2727   -2.5471    0.5209 H   0  0  0  0  0  0  0  0  0  0  0  0
    0.1569    2.9908   -0.6438 H   0  0  0  0  0  0  0  0  0  0  0  0
   -0.2747    2.4860    0.9842 H   0  0  0  0  0  0  0  0  0  0  0  0
    3.7048   -0.0387    1.8231 H   0  0  0  0  0  0  0  0  0  0  0  0
    2.5355    2.8999    0.3978 H   0  0  0  0  0  0  0  0  0  0  0  0
    2.6854    2.1506   -1.1972 H   0  0  0  0  0  0  0  0  0  0  0  0
   -2.2709    3.1671   -0.1819 H   0  0  0  0  0  0  0  0  0  0  0  0
   -1.9315    2.1254   -1.5534 H   0  0  0  0  0  0  0  0  0  0  0  0
   -2.5794   -1.2989    1.7404 H   0  0  0  0  0  0  0  0  0  0  0  0
   -2.4488   -2.4171    0.3904 H   0  0  0  0  0  0  0  0  0  0  0  0
    4.7833    1.4320   -0.6032 H   0  0  0  0  0  0  0  0  0  0  0  0
    4.5794    1.9756    1.0617 H   0  0  0  0  0  0  0  0  0  0  0  0
   -4.3269    1.1072   -1.0724 H   0  0  0  0  0  0  0  0  0  0  0  0
   -4.4598    2.1345    0.3403 H   0  0  0  0  0  0  0  0  0  0  0  0
    1.8532   -0.7514   -2.0502 H   0  0  0  0  0  0  0  0  0  0  0  0
    3.4381   -0.0271   -1.9359 H   0  0  0  0  0  0  0  0  0  0  0  0
    3.2314   -1.7396   -1.5818 H   0  0  0  0  0  0  0  0  0  0  0  0
   -3.1253   -0.4250   -2.0120 H   0  0  0  0  0  0  0  0  0  0  0  0
   -1.4315   -0.0474   -2.2502 H   0  0  0  0  0  0  0  0  0  0  0  0
   -1.9390   -1.6911   -1.8585 H   0  0  0  0  0  0  0  0  0  0  0  0
   -4.7921   -2.0599    1.0905 H   0  0  0  0  0  0  0  0  0  0  0  0
   -4.5390   -1.6030   -0.5844 H   0  0  0  0  0  0  0  0  0  0  0  0
   -5.9072    0.1032    0.4945 H   0  0  0  0  0  0  0  0  0  0  0  0
   -4.7679    0.2521    1.8270 H   0  0  0  0  0  0  0  0  0  0  0  0
    5.2374   -0.9274   -0.5026 H   0  0  0  0  0  0  0  0  0  0  0  0
    4.7085   -1.9124    0.6836 H   0  0  0  0  0  0  0  0  0  0  0  0
    0.6709   -3.0974   -1.0312 H   0  0  0  0  0  0  0  0  0  0  0  0
  1  9  1  0  0  0  0
  1 54  1  0  0  0  0
  2 12  1  0  0  0  0
  2 52  1  0  0  0  0
  2 53  1  0  0  0  0
  3  4  1  0  0  0  0
  3  7  1  0  0  0  0
  3  9  1  0  0  0  0
  3 22  1  0  0  0  0
  4  5  1  0  0  0  0
  4 11  1  0  0  0  0
  4 23  1  0  0  0  0
  5  6  1  0  0  0  0
  5 13  1  0  0  0  0
  5 24  1  0  0  0  0
  6 10  1  0  0  0  0
  6 12  1  0  0  0  0
  6 18  1  0  0  0  0
  7  8  1  0  0  0  0
  7 15  1  0  0  0  0
  7 19  1  0  0  0  0
  8 14  1  0  0  0  0
  8 17  1  0  0  0  0
  8 25  1  0  0  0  0
  9 10  1  0  0  0  0
  9 26  1  0  0  0  0
 10 27  1  0  0  0  0
 10 28  1  0  0  0  0
 11 14  1  0  0  0  0
 11 29  1  0  0  0  0
 11 30  1  0  0  0  0
 12 16  1  0  0  0  0
 12 31  1  0  0  0  0
 13 16  1  0  0  0  0
 13 32  1  0  0  0  0
 13 33  1  0  0  0  0
 14 34  1  0  0  0  0
 14 35  1  0  0  0  0
 15 20  1  0  0  0  0
 15 36  1  0  0  0  0
 15 37  1  0  0  0  0
 16 38  1  0  0  0  0
 16 39  1  0  0  0  0
 17 21  1  0  0  0  0
 17 40  1  0  0  0  0
 17 41  1  0  0  0  0
 18 42  1  0  0  0  0
 18 43  1  0  0  0  0
 18 44  1  0  0  0  0
 19 45  1  0  0  0  0
 19 46  1  0  0  0  0
 19 47  1  0  0  0  0
 20 21  1  0  0  0  0
 20 48  1  0  0  0  0
 20 49  1  0  0  0  0
 21 50  1  0  0  0  0
 21 51  1  0  0  0  0
M  END
> <PUBCHEM_COMPOUND_CID>
247022

> <PUBCHEM_CONFORMER_RMSD>
0.6

> <PUBCHEM_CONFORMER_DIVERSEORDER>
1

> <PUBCHEM_MMFF94_PARTIAL_CHARGES>
7
1 -0.68
12 0.27
2 -0.99
52 0.36
53 0.36
54 0.4
9 0.28

> <PUBCHEM_EFFECTIVE_ROTOR_COUNT>
2.2

> <PUBCHEM_PHARMACOPHORE_FEATURES>
8
1 1 acceptor
1 1 donor
1 2 cation
1 2 donor
5 5 6 12 13 16 rings
6 3 4 5 6 9 10 rings
6 3 4 7 8 11 14 rings
6 7 8 15 17 20 21 rings

> <PUBCHEM_HEAVY_ATOM_COUNT>
21

> <PUBCHEM_ATOM_DEF_STEREO_COUNT>
8

> <PUBCHEM_ATOM_UDEF_STEREO_COUNT>
0

> <PUBCHEM_BOND_DEF_STEREO_COUNT>
0

> <PUBCHEM_BOND_UDEF_STEREO_COUNT>
0

> <PUBCHEM_ISOTOPIC_ATOM_COUNT>
0

> <PUBCHEM_COMPONENT_COUNT>
1

> <PUBCHEM_CACTVS_TAUTO_COUNT>
1

> <PUBCHEM_CONFORMER_ID>
0003C4EE00000001

> <PUBCHEM_MMFF94_ENERGY>
72.5424

> <PUBCHEM_FEATURE_SELFOVERLAP>
40.683

> <PUBCHEM_SHAPE_FINGERPRINT>
10062212 137 18409457968080576619
10498660 4 18413387648429371845
10616163 171 18411136961238686193
10618630 7 18342737399283981485
10646746 165 18411138073540445612
10967382 1 18411701001760541680
11132069 177 18410853265763948489
11578080 2 16484736638504308630
12011746 2 18412546522587595391
12236239 1 17968097500001841419
12403259 226 18341619247783172368
12403259 415 18334583442954726760
12403814 3 18260834787000138495
12596599 1 18115567306185307115
12633257 1 18341326807649194153
13140716 1 18410853231351735633
13214271 11 18410577288577439799
13221675 6 18409729594844821189
13224815 77 18411699880858414949
13583140 156 16772137802726585240
13675066 3 18259988158340392112
14115302 16 17417802925163166674
14178342 30 18122066661335790792
14223421 5 18341049743487669589
14341114 176 18343861126032012864
14787075 74 18266176136972962105
14790565 3 18196080050015077388
15196674 1 18412545392325686609
15209289 33 18273215304702850146
15309172 13 18260550017419742263
15375358 24 18411701010872494787
15536298 74 18335135392879360456
16945 1 18270685379939322580
17349148 13 17561366188239621530
1813 80 17132113532978010157
18186145 218 18131357401356353468
19141452 34 18113898239271436719
19591789 44 18339362967854062067
200 152 18334585603386079823
20261772 1 18334014960450106826
20510252 161 18334010618417824393
21267235 1 18341604919661250003
21421861 104 17773038772303275587
22182313 1 18116714213009108470
23184049 59 18409446951378536621
23227448 37 18408041788914869951
2334 1 18338237063626131605
23402539 116 18335711515571390222
23463225 33 18342175557337125041
23557571 272 18409442617772365700
23559900 14 18266462194648258930
2748010 2 18410298007749067589
2871803 45 18272093794363145657
296302 2 14056721240124606698
3286 77 18130790049045681430
335352 9 18340770445800973860
34934 24 18411986888333238593
350125 39 18412824690408378624
4340502 62 15430031045999843831
5104073 3 18411982450978115929
633830 44 18409446977248697494
69090 78 18187650188826896670
7097593 13 17411634875147715443
7364860 26 18191870235024965774
84936 31 16733818842998226550
9709674 26 18337952406300012383

> <PUBCHEM_SHAPE_MULTIPOLES>
421.32
8.6
2.28
1.04
0.26
0.43
0.35
-0.15
-1.83
0.01
0.11
0.01
-0.31
0.2

> <PUBCHEM_SHAPE_SELFOVERLAP>
890.845

> <PUBCHEM_SHAPE_VOLUME>
232.5

> <PUBCHEM_COORDINATE_TYPE>
2
5
10

$$$$

