100221
  -OEChem-07051212492D

 50 52  0     1  0  0  0  0  0999 V2000
    6.7795    4.8034    0.0000 P   0  0  0  0  0  0  0  0  0  0  0  0
    6.1346    1.3502    0.0000 O   0  0  0  0  0  0  0  0  0  0  0  0
    8.4806    0.2584    0.0000 O   0  0  0  0  0  0  0  0  0  0  0  0
    8.4843    2.4340    0.0000 O   0  0  0  0  0  0  0  0  0  0  0  0
    7.0868    3.8518    0.0000 O   0  0  0  0  0  0  0  0  0  0  0  0
    6.4721    5.7550    0.0000 O   0  0  0  0  0  0  0  0  0  0  0  0
    7.7310    5.1108    0.0000 O   0  0  0  0  0  0  0  0  0  0  0  0
    5.8279    4.4960    0.0000 O   0  0  0  0  0  0  0  0  0  0  0  0
    6.4103   -0.4103    0.0000 N   0  0  0  0  0  0  0  0  0  0  0  0
    6.4103   -2.0198    0.0000 N   0  0  0  0  0  0  0  0  0  0  0  0
    4.5981   -0.2150    0.0000 N   0  0  0  0  0  0  0  0  0  0  0  0
    4.5981   -3.2150    0.0000 N   0  0  0  0  0  0  0  0  0  0  0  0
    3.7320   -1.7150    0.0000 N   0  0  0  0  0  0  0  0  0  0  0  0
    7.6726    0.8476    0.0000 C   0  0  2  0  0  0  0  0  0  0  0  0
    7.6743    1.8476    0.0000 C   0  0  1  0  0  0  0  0  0  0  0  0
    6.7210    0.5402    0.0000 C   0  0  1  0  0  0  0  0  0  0  0  0
    6.7238    2.1582    0.0000 C   0  0  1  0  0  0  0  0  0  0  0  0
    6.4164    3.1098    0.0000 C   0  0  0  0  0  0  0  0  0  0  0  0
    5.4641   -0.7150    0.0000 C   0  0  0  0  0  0  0  0  0  0  0  0
    6.9939   -1.2150    0.0000 C   0  0  0  0  0  0  0  0  0  0  0  0
    5.4641   -1.7150    0.0000 C   0  0  0  0  0  0  0  0  0  0  0  0
    4.5981   -2.2150    0.0000 C   0  0  0  0  0  0  0  0  0  0  0  0
    3.7320   -0.7150    0.0000 C   0  0  0  0  0  0  0  0  0  0  0  0
    3.7320   -3.7150    0.0000 C   0  0  0  0  0  0  0  0  0  0  0  0
    3.7320   -4.7150    0.0000 C   0  0  0  0  0  0  0  0  0  0  0  0
    2.8660   -5.2150    0.0000 C   0  0  0  0  0  0  0  0  0  0  0  0
    2.8660   -6.2150    0.0000 C   0  0  0  0  0  0  0  0  0  0  0  0
    2.0000   -4.7150    0.0000 C   0  0  0  0  0  0  0  0  0  0  0  0
    8.2255    1.1281    0.0000 H   0  0  0  0  0  0  0  0  0  0  0  0
    8.2262    1.5652    0.0000 H   0  0  0  0  0  0  0  0  0  0  0  0
    6.1085    0.4443    0.0000 H   0  0  0  0  0  0  0  0  0  0  0  0
    6.1116    2.2563    0.0000 H   0  0  0  0  0  0  0  0  0  0  0  0
    6.0356    3.5991    0.0000 H   0  0  0  0  0  0  0  0  0  0  0  0
    5.8685    2.8197    0.0000 H   0  0  0  0  0  0  0  0  0  0  0  0
    9.0474    0.5096    0.0000 H   0  0  0  0  0  0  0  0  0  0  0  0
    9.0503    2.1808    0.0000 H   0  0  0  0  0  0  0  0  0  0  0  0
    7.6139   -1.2150    0.0000 H   0  0  0  0  0  0  0  0  0  0  0  0
    3.1951   -0.4050    0.0000 H   0  0  0  0  0  0  0  0  0  0  0  0
    5.1350   -3.5250    0.0000 H   0  0  0  0  0  0  0  0  0  0  0  0
    3.5200   -3.1324    0.0000 H   0  0  0  0  0  0  0  0  0  0  0  0
    3.1215   -3.8227    0.0000 H   0  0  0  0  0  0  0  0  0  0  0  0
    6.8877    6.2150    0.0000 H   0  0  0  0  0  0  0  0  0  0  0  0
    7.8610    5.7170    0.0000 H   0  0  0  0  0  0  0  0  0  0  0  0
    4.2690   -5.0250    0.0000 H   0  0  0  0  0  0  0  0  0  0  0  0
    2.3100   -4.1781    0.0000 H   0  0  0  0  0  0  0  0  0  0  0  0
    1.4631   -4.4050    0.0000 H   0  0  0  0  0  0  0  0  0  0  0  0
    2.2460   -6.2150    0.0000 H   0  0  0  0  0  0  0  0  0  0  0  0
    2.8660   -6.8350    0.0000 H   0  0  0  0  0  0  0  0  0  0  0  0
    3.4860   -6.2150    0.0000 H   0  0  0  0  0  0  0  0  0  0  0  0
    1.6900   -5.2520    0.0000 H   0  0  0  0  0  0  0  0  0  0  0  0
  1  5  1  0  0  0  0
  1  6  1  0  0  0  0
  1  7  1  0  0  0  0
  1  8  2  0  0  0  0
  2 16  1  0  0  0  0
  2 17  1  0  0  0  0
 14  3  1  1  0  0  0
  3 35  1  0  0  0  0
 15  4  1  1  0  0  0
  4 36  1  0  0  0  0
  5 18  1  0  0  0  0
  6 42  1  0  0  0  0
  7 43  1  0  0  0  0
 16  9  1  6  0  0  0
  9 19  1  0  0  0  0
  9 20  1  0  0  0  0
 10 20  2  0  0  0  0
 10 21  1  0  0  0  0
 11 19  2  0  0  0  0
 11 23  1  0  0  0  0
 12 22  1  0  0  0  0
 12 24  1  0  0  0  0
 12 39  1  0  0  0  0
 13 22  1  0  0  0  0
 13 23  2  0  0  0  0
 14 15  1  0  0  0  0
 14 16  1  0  0  0  0
 14 29  1  0  0  0  0
 15 17  1  0  0  0  0
 15 30  1  0  0  0  0
 16 31  1  0  0  0  0
 17 18  1  6  0  0  0
 17 32  1  0  0  0  0
 18 33  1  0  0  0  0
 18 34  1  0  0  0  0
 19 21  1  0  0  0  0
 20 37  1  0  0  0  0
 21 22  2  0  0  0  0
 23 38  1  0  0  0  0
 24 25  1  0  0  0  0
 24 40  1  0  0  0  0
 24 41  1  0  0  0  0
 25 26  2  0  0  0  0
 25 44  1  0  0  0  0
 26 27  1  0  0  0  0
 26 28  1  0  0  0  0
 27 47  1  0  0  0  0
 27 48  1  0  0  0  0
 27 49  1  0  0  0  0
 28 45  1  0  0  0  0
 28 46  1  0  0  0  0
 28 50  1  0  0  0  0
M  END
> <PUBCHEM_COMPOUND_CID>
100221

> <PUBCHEM_COMPOUND_CANONICALIZED>
1

> <PUBCHEM_CACTVS_COMPLEXITY>
616

> <PUBCHEM_CACTVS_HBOND_ACCEPTOR>
11

> <PUBCHEM_CACTVS_HBOND_DONOR>
5

> <PUBCHEM_CACTVS_ROTATABLE_BOND>
7

> <PUBCHEM_CACTVS_SUBSKEYS>
AAADceBzuAIAAAAAAAAAAAAAAAAAAWJAAAAsAAAAAAAAAFgB+AAAHgAQCCAADBzhlwYH8L/MFxCgQyZjZICAgC0REKABWKAoVBCDWAJAyUAeRAgPEALTACDwMAIAAAAAAAAAAAAAAAAAAAAAAAAAAAAAAA==

> <PUBCHEM_IUPAC_OPENEYE_NAME>
[(2R,3S,4R,5R)-3,4-dihydroxy-5-[6-(3-methylbut-2-enylamino)purin-9-yl]tetrahydrofuran-2-yl]methyl dihydrogen phosphate

> <PUBCHEM_IUPAC_CAS_NAME>
[(2R,3S,4R,5R)-3,4-dihydroxy-5-[6-(3-methylbut-2-enylamino)-9-purinyl]-2-oxolanyl]methyl dihydrogen phosphate

> <PUBCHEM_IUPAC_NAME>
[(2R,3S,4R,5R)-3,4-dihydroxy-5-[6-(3-methylbut-2-enylamino)purin-9-yl]oxolan-2-yl]methyl dihydrogen phosphate

> <PUBCHEM_IUPAC_SYSTEMATIC_NAME>
[(2R,3S,4R,5R)-5-[6-(3-methylbut-2-enylamino)purin-9-yl]-3,4-bis(oxidanyl)oxolan-2-yl]methyl dihydrogen phosphate

> <PUBCHEM_IUPAC_TRADITIONAL_NAME>
[(2R,3S,4R,5R)-3,4-dihydroxy-5-[6-(3-methylbut-2-enylamino)purin-9-yl]tetrahydrofuran-2-yl]methyl dihydrogen phosphate

> <PUBCHEM_IUPAC_INCHI>
InChI=1S/C15H22N5O7P/c1-8(2)3-4-16-13-10-14(18-6-17-13)20(7-19-10)15-12(22)11(21)9(27-15)5-26-28(23,24)25/h3,6-7,9,11-12,15,21-22H,4-5H2,1-2H3,(H,16,17,18)(H2,23,24,25)/t9-,11-,12-,15-/m1/s1

> <PUBCHEM_IUPAC_INCHIKEY>
DUISZFLWBAPRBR-SDBHATRESA-N

> <PUBCHEM_XLOGP3>
-1.4

> <PUBCHEM_EXACT_MASS>
415.125685

> <PUBCHEM_MOLECULAR_FORMULA>
C15H22N5O7P

> <PUBCHEM_MOLECULAR_WEIGHT>
415.338242

> <PUBCHEM_OPENEYE_CAN_SMILES>
CC(=CCNC1=NC=NC2=C1N=CN2C3C(C(C(O3)COP(=O)(O)O)O)O)C

> <PUBCHEM_OPENEYE_ISO_SMILES>
CC(=CCNC1=NC=NC2=C1N=CN2[C@H]3[C@@H]([C@@H]([C@H](O3)COP(=O)(O)O)O)O)C

> <PUBCHEM_CACTVS_TPSA>
172

> <PUBCHEM_MONOISOTOPIC_WEIGHT>
415.125685

> <PUBCHEM_TOTAL_CHARGE>
0

> <PUBCHEM_HEAVY_ATOM_COUNT>
28

> <PUBCHEM_ATOM_DEF_STEREO_COUNT>
4

> <PUBCHEM_ATOM_UDEF_STEREO_COUNT>
0

> <PUBCHEM_BOND_DEF_STEREO_COUNT>
0

> <PUBCHEM_BOND_UDEF_STEREO_COUNT>
0

> <PUBCHEM_ISOTOPIC_ATOM_COUNT>
0

> <PUBCHEM_COMPONENT_COUNT>
1

> <PUBCHEM_CACTVS_TAUTO_COUNT>
3

> <PUBCHEM_COORDINATE_TYPE>
1
5
255

> <PUBCHEM_BONDANNOTATIONS>
10  20  8
10  21  8
11  19  8
11  23  8
13  22  8
13  23  8
17  18  6
19  21  8
21  22  8
14  3  5
15  4  5
16  9  6
9  19  8
9  20  8

$$$$

