17395587
  -OEChem-06241222512D

 39 40  0     1  0  0  0  0  0999 V2000
    2.8660   -4.3512    0.0000 F   0  0  0  0  0  0  0  0  0  0  0  0
    5.4641    1.1488    0.0000 O   0  0  0  0  0  0  0  0  0  0  0  0
    6.5468    4.3512    0.0000 O   0  0  0  0  0  0  0  0  0  0  0  0
    3.7320    0.1488    0.0000 N   0  0  3  0  0  0  0  0  0  0  0  0
    4.5981    2.6488    0.0000 N   0  0  0  0  0  0  0  0  0  0  0  0
    5.5686    4.1433    0.0000 N   0  0  0  0  0  0  0  0  0  0  0  0
    2.8660   -0.3512    0.0000 C   0  0  3  0  0  0  0  0  0  0  0  0
    2.8660   -1.3512    0.0000 C   0  0  0  0  0  0  0  0  0  0  0  0
    3.7320    1.1488    0.0000 C   0  0  0  0  0  0  0  0  0  0  0  0
    2.0000    0.1488    0.0000 C   0  0  0  0  0  0  0  0  0  0  0  0
    4.5981   -0.3512    0.0000 C   0  0  0  0  0  0  0  0  0  0  0  0
    2.0000   -1.8512    0.0000 C   0  0  0  0  0  0  0  0  0  0  0  0
    3.7320   -1.8512    0.0000 C   0  0  0  0  0  0  0  0  0  0  0  0
    4.5981    1.6488    0.0000 C   0  0  0  0  0  0  0  0  0  0  0  0
    2.0000   -2.8512    0.0000 C   0  0  0  0  0  0  0  0  0  0  0  0
    3.7320   -2.8512    0.0000 C   0  0  0  0  0  0  0  0  0  0  0  0
    2.8660   -3.3512    0.0000 C   0  0  0  0  0  0  0  0  0  0  0  0
    5.4641    3.1488    0.0000 C   0  0  0  0  0  0  0  0  0  0  0  0
    6.3776    2.7420    0.0000 C   0  0  0  0  0  0  0  0  0  0  0  0
    7.0468    3.4852    0.0000 C   0  0  0  0  0  0  0  0  0  0  0  0
    8.0413    3.3807    0.0000 C   0  0  0  0  0  0  0  0  0  0  0  0
    2.8660    0.2688    0.0000 H   0  0  0  0  0  0  0  0  0  0  0  0
    3.5200    1.7314    0.0000 H   0  0  0  0  0  0  0  0  0  0  0  0
    3.1215    1.0411    0.0000 H   0  0  0  0  0  0  0  0  0  0  0  0
    2.3100    0.6857    0.0000 H   0  0  0  0  0  0  0  0  0  0  0  0
    1.4631    0.4588    0.0000 H   0  0  0  0  0  0  0  0  0  0  0  0
    1.6900   -0.3882    0.0000 H   0  0  0  0  0  0  0  0  0  0  0  0
    4.2881   -0.8882    0.0000 H   0  0  0  0  0  0  0  0  0  0  0  0
    5.1350   -0.6612    0.0000 H   0  0  0  0  0  0  0  0  0  0  0  0
    4.9081    0.1857    0.0000 H   0  0  0  0  0  0  0  0  0  0  0  0
    1.4631   -1.5412    0.0000 H   0  0  0  0  0  0  0  0  0  0  0  0
    4.2690   -1.5412    0.0000 H   0  0  0  0  0  0  0  0  0  0  0  0
    1.4631   -3.1612    0.0000 H   0  0  0  0  0  0  0  0  0  0  0  0
    4.2690   -3.1612    0.0000 H   0  0  0  0  0  0  0  0  0  0  0  0
    4.0611    2.9588    0.0000 H   0  0  0  0  0  0  0  0  0  0  0  0
    6.5066    2.1356    0.0000 H   0  0  0  0  0  0  0  0  0  0  0  0
    7.9765    2.7641    0.0000 H   0  0  0  0  0  0  0  0  0  0  0  0
    8.6579    3.3159    0.0000 H   0  0  0  0  0  0  0  0  0  0  0  0
    8.1061    3.9973    0.0000 H   0  0  0  0  0  0  0  0  0  0  0  0
  1 17  1  0  0  0  0
  2 14  2  0  0  0  0
  3  6  1  0  0  0  0
  3 20  1  0  0  0  0
  4  7  1  0  0  0  0
  4  9  1  0  0  0  0
  4 11  1  0  0  0  0
  5 14  1  0  0  0  0
  5 18  1  0  0  0  0
  5 35  1  0  0  0  0
  6 18  2  0  0  0  0
  7  8  1  0  0  0  0
  7 10  1  0  0  0  0
  7 22  1  0  0  0  0
  8 12  2  0  0  0  0
  8 13  1  0  0  0  0
  9 14  1  0  0  0  0
  9 23  1  0  0  0  0
  9 24  1  0  0  0  0
 10 25  1  0  0  0  0
 10 26  1  0  0  0  0
 10 27  1  0  0  0  0
 11 28  1  0  0  0  0
 11 29  1  0  0  0  0
 11 30  1  0  0  0  0
 12 15  1  0  0  0  0
 12 31  1  0  0  0  0
 13 16  2  0  0  0  0
 13 32  1  0  0  0  0
 15 17  2  0  0  0  0
 15 33  1  0  0  0  0
 16 17  1  0  0  0  0
 16 34  1  0  0  0  0
 18 19  1  0  0  0  0
 19 20  2  0  0  0  0
 19 36  1  0  0  0  0
 20 21  1  0  0  0  0
 21 37  1  0  0  0  0
 21 38  1  0  0  0  0
 21 39  1  0  0  0  0
M  END
> <PUBCHEM_COMPOUND_CID>
17395587

> <PUBCHEM_COMPOUND_CANONICALIZED>
1

> <PUBCHEM_CACTVS_COMPLEXITY>
348

> <PUBCHEM_CACTVS_HBOND_ACCEPTOR>
5

> <PUBCHEM_CACTVS_HBOND_DONOR>
1

> <PUBCHEM_CACTVS_ROTATABLE_BOND>
5

> <PUBCHEM_CACTVS_SUBSKEYS>
AAADceBzMQAAAAAAAAAAAAAAAAAAAWAAAAAwAAAAAAAAAAABwAAAHwAUAAAADCzBmgwztJPQAACpAqNycgCCAAAlIgApmCG+bNqIZCrAmbGUIIhilQrIyEcQgIAOAAAAAAAAAAAAAAAAAAAAAAAAAAAAAA==

> <PUBCHEM_IUPAC_OPENEYE_NAME>
2-[1-(4-fluorophenyl)ethyl-methyl-amino]-N-(5-methylisoxazol-3-yl)acetamide

> <PUBCHEM_IUPAC_CAS_NAME>
2-[1-(4-fluorophenyl)ethyl-methylamino]-N-(5-methyl-3-isoxazolyl)acetamide

> <PUBCHEM_IUPAC_NAME>
2-[1-(4-fluorophenyl)ethyl-methylamino]-N-(5-methyl-1,2-oxazol-3-yl)acetamide

> <PUBCHEM_IUPAC_SYSTEMATIC_NAME>
2-[1-(4-fluorophenyl)ethyl-methyl-amino]-N-(5-methyl-1,2-oxazol-3-yl)ethanamide

> <PUBCHEM_IUPAC_TRADITIONAL_NAME>
2-[1-(4-fluorophenyl)ethyl-methyl-amino]-N-(5-methylisoxazol-3-yl)acetamide

> <PUBCHEM_IUPAC_INCHI>
InChI=1S/C15H18FN3O2/c1-10-8-14(18-21-10)17-15(20)9-19(3)11(2)12-4-6-13(16)7-5-12/h4-8,11H,9H2,1-3H3,(H,17,18,20)

> <PUBCHEM_IUPAC_INCHIKEY>
INHCINWCDZXMCZ-UHFFFAOYSA-N

> <PUBCHEM_XLOGP3_AA>
2.3

> <PUBCHEM_EXACT_MASS>
291.138305

> <PUBCHEM_MOLECULAR_FORMULA>
C15H18FN3O2

> <PUBCHEM_MOLECULAR_WEIGHT>
291.320723

> <PUBCHEM_OPENEYE_CAN_SMILES>
CC1=CC(=NO1)NC(=O)CN(C)C(C)C2=CC=C(C=C2)F

> <PUBCHEM_OPENEYE_ISO_SMILES>
CC1=CC(=NO1)NC(=O)CN(C)C(C)C2=CC=C(C=C2)F

> <PUBCHEM_CACTVS_TPSA>
58.4

> <PUBCHEM_MONOISOTOPIC_WEIGHT>
291.138305

> <PUBCHEM_TOTAL_CHARGE>
0

> <PUBCHEM_HEAVY_ATOM_COUNT>
21

> <PUBCHEM_ATOM_DEF_STEREO_COUNT>
0

> <PUBCHEM_ATOM_UDEF_STEREO_COUNT>
1

> <PUBCHEM_BOND_DEF_STEREO_COUNT>
0

> <PUBCHEM_BOND_UDEF_STEREO_COUNT>
0

> <PUBCHEM_ISOTOPIC_ATOM_COUNT>
0

> <PUBCHEM_COMPONENT_COUNT>
1

> <PUBCHEM_CACTVS_TAUTO_COUNT>
10

> <PUBCHEM_COORDINATE_TYPE>
1
5
255

> <PUBCHEM_BONDANNOTATIONS>
12  15  8
13  16  8
15  17  8
16  17  8
18  19  8
19  20  8
3  20  8
3  6  8
6  18  8
7  10  3
8  12  8
8  13  8

$$$$

