236180
  -OEChem-07051213063D

 57 60  0     1  0  0  0  0  0999 V2000
    0.3644   -0.0541   -1.5639 F   0  0  0  0  0  0  0  0  0  0  0  0
   -0.3108   -2.3089    1.1712 O   0  0  0  0  0  0  0  0  0  0  0  0
   -5.0764   -0.8466    0.1577 O   0  0  0  0  0  0  0  0  0  0  0  0
    6.1133    0.0775   -0.3222 O   0  0  0  0  0  0  0  0  0  0  0  0
   -0.4343    0.8648    0.4479 C   0  0  2  0  0  0  0  0  0  0  0  0
    0.3493   -0.3218   -0.2039 C   0  0  2  0  0  0  0  0  0  0  0  0
   -1.8677    0.8811   -0.1082 C   0  0  1  0  0  0  0  0  0  0  0  0
   -2.6468   -0.4208    0.1702 C   0  0  1  0  0  0  0  0  0  0  0  0
    1.8661   -0.3360    0.2421 C   0  0  2  0  0  0  0  0  0  0  0  0
    2.4746    1.0571   -0.1361 C   0  0  1  0  0  0  0  0  0  0  0  0
   -0.4089   -1.6762   -0.0926 C   0  0  2  0  0  0  0  0  0  0  0  0
   -4.0455   -0.0470   -0.4199 C   0  0  2  0  0  0  0  0  0  0  0  0
   -1.8930   -1.5774   -0.5179 C   0  0  0  0  0  0  0  0  0  0  0  0
    0.2584    2.2131    0.1820 C   0  0  0  0  0  0  0  0  0  0  0  0
   -2.8239    1.9731    0.3606 C   0  0  0  0  0  0  0  0  0  0  0  0
    1.7381    2.2086    0.5554 C   0  0  0  0  0  0  0  0  0  0  0  0
   -4.2235    1.4375    0.0033 C   0  0  0  0  0  0  0  0  0  0  0  0
    2.6556   -1.4211   -0.5451 C   0  0  0  0  0  0  0  0  0  0  0  0
    3.9894    1.1436    0.0965 C   0  0  0  0  0  0  0  0  0  0  0  0
   -2.8304   -0.7228    1.6874 C   0  0  0  0  0  0  0  0  0  0  0  0
    2.0375   -0.6173    1.7584 C   0  0  0  0  0  0  0  0  0  0  0  0
    4.1684   -1.3473   -0.3311 C   0  0  0  0  0  0  0  0  0  0  0  0
    4.7286    0.0345   -0.6506 C   0  0  2  0  0  0  0  0  0  0  0  0
   -4.1826   -0.1937   -1.9411 C   0  0  0  0  0  0  0  0  0  0  0  0
   -0.4734    0.7276    1.5329 H   0  0  0  0  0  0  0  0  0  0  0  0
   -1.7712    1.0104   -1.1968 H   0  0  0  0  0  0  0  0  0  0  0  0
    2.3333    1.1993   -1.2186 H   0  0  0  0  0  0  0  0  0  0  0  0
    0.0561   -2.3681   -0.8060 H   0  0  0  0  0  0  0  0  0  0  0  0
   -1.9034   -1.4337   -1.6049 H   0  0  0  0  0  0  0  0  0  0  0  0
   -2.4105   -2.5236   -0.3181 H   0  0  0  0  0  0  0  0  0  0  0  0
   -0.2428    3.0090    0.7454 H   0  0  0  0  0  0  0  0  0  0  0  0
    0.1632    2.4752   -0.8798 H   0  0  0  0  0  0  0  0  0  0  0  0
   -2.6293    2.9291   -0.1364 H   0  0  0  0  0  0  0  0  0  0  0  0
   -2.7433    2.1409    1.4405 H   0  0  0  0  0  0  0  0  0  0  0  0
    2.1783    3.1668    0.2532 H   0  0  0  0  0  0  0  0  0  0  0  0
    1.8500    2.1475    1.6438 H   0  0  0  0  0  0  0  0  0  0  0  0
   -4.8952    1.5382    0.8638 H   0  0  0  0  0  0  0  0  0  0  0  0
   -4.6594    2.0354   -0.8054 H   0  0  0  0  0  0  0  0  0  0  0  0
    2.4534   -1.3183   -1.6192 H   0  0  0  0  0  0  0  0  0  0  0  0
    2.3164   -2.4242   -0.2604 H   0  0  0  0  0  0  0  0  0  0  0  0
    4.3671    2.1137   -0.2527 H   0  0  0  0  0  0  0  0  0  0  0  0
    4.2375    1.1155    1.1638 H   0  0  0  0  0  0  0  0  0  0  0  0
   -3.3037   -1.7015    1.8298 H   0  0  0  0  0  0  0  0  0  0  0  0
   -1.8838   -0.7457    2.2316 H   0  0  0  0  0  0  0  0  0  0  0  0
   -3.4595    0.0157    2.1946 H   0  0  0  0  0  0  0  0  0  0  0  0
    1.8368   -1.6656    1.9975 H   0  0  0  0  0  0  0  0  0  0  0  0
    3.0545   -0.4241    2.1100 H   0  0  0  0  0  0  0  0  0  0  0  0
    1.3739   -0.0081    2.3768 H   0  0  0  0  0  0  0  0  0  0  0  0
    4.4282   -1.6292    0.6966 H   0  0  0  0  0  0  0  0  0  0  0  0
    4.6629   -2.0953   -0.9637 H   0  0  0  0  0  0  0  0  0  0  0  0
    4.6449    0.2184   -1.7289 H   0  0  0  0  0  0  0  0  0  0  0  0
   -3.4303    0.3744   -2.4945 H   0  0  0  0  0  0  0  0  0  0  0  0
   -4.1212   -1.2459   -2.2399 H   0  0  0  0  0  0  0  0  0  0  0  0
   -5.1701    0.1507   -2.2712 H   0  0  0  0  0  0  0  0  0  0  0  0
   -0.7630   -3.1675    1.1125 H   0  0  0  0  0  0  0  0  0  0  0  0
   -5.9323   -0.4843   -0.1286 H   0  0  0  0  0  0  0  0  0  0  0  0
    6.5561   -0.6283   -0.8237 H   0  0  0  0  0  0  0  0  0  0  0  0
  1  6  1  0  0  0  0
  2 11  1  0  0  0  0
  2 55  1  0  0  0  0
  3 12  1  0  0  0  0
  3 56  1  0  0  0  0
  4 23  1  0  0  0  0
  4 57  1  0  0  0  0
  5  6  1  0  0  0  0
  5  7  1  0  0  0  0
  5 14  1  0  0  0  0
  5 25  1  0  0  0  0
  6  9  1  0  0  0  0
  6 11  1  0  0  0  0
  7  8  1  0  0  0  0
  7 15  1  0  0  0  0
  7 26  1  0  0  0  0
  8 12  1  0  0  0  0
  8 13  1  0  0  0  0
  8 20  1  0  0  0  0
  9 10  1  0  0  0  0
  9 18  1  0  0  0  0
  9 21  1  0  0  0  0
 10 16  1  0  0  0  0
 10 19  1  0  0  0  0
 10 27  1  0  0  0  0
 11 13  1  0  0  0  0
 11 28  1  0  0  0  0
 12 17  1  0  0  0  0
 12 24  1  0  0  0  0
 13 29  1  0  0  0  0
 13 30  1  0  0  0  0
 14 16  1  0  0  0  0
 14 31  1  0  0  0  0
 14 32  1  0  0  0  0
 15 17  1  0  0  0  0
 15 33  1  0  0  0  0
 15 34  1  0  0  0  0
 16 35  1  0  0  0  0
 16 36  1  0  0  0  0
 17 37  1  0  0  0  0
 17 38  1  0  0  0  0
 18 22  1  0  0  0  0
 18 39  1  0  0  0  0
 18 40  1  0  0  0  0
 19 23  1  0  0  0  0
 19 41  1  0  0  0  0
 19 42  1  0  0  0  0
 20 43  1  0  0  0  0
 20 44  1  0  0  0  0
 20 45  1  0  0  0  0
 21 46  1  0  0  0  0
 21 47  1  0  0  0  0
 21 48  1  0  0  0  0
 22 23  1  0  0  0  0
 22 49  1  0  0  0  0
 22 50  1  0  0  0  0
 23 51  1  0  0  0  0
 24 52  1  0  0  0  0
 24 53  1  0  0  0  0
 24 54  1  0  0  0  0
M  END
> <PUBCHEM_COMPOUND_CID>
236180

> <PUBCHEM_CONFORMER_RMSD>
0.6

> <PUBCHEM_CONFORMER_DIVERSEORDER>
1

> <PUBCHEM_MMFF94_PARTIAL_CHARGES>
11
1 -0.34
11 0.28
12 0.28
2 -0.68
23 0.28
3 -0.68
4 -0.68
55 0.4
56 0.4
57 0.4
6 0.34

> <PUBCHEM_EFFECTIVE_ROTOR_COUNT>
2.2

> <PUBCHEM_PHARMACOPHORE_FEATURES>
10
1 2 acceptor
1 2 donor
1 3 acceptor
1 3 donor
1 4 acceptor
1 4 donor
5 7 8 12 15 17 rings
6 5 6 7 8 11 13 rings
6 5 6 9 10 14 16 rings
6 9 10 18 19 22 23 rings

> <PUBCHEM_HEAVY_ATOM_COUNT>
24

> <PUBCHEM_ATOM_DEF_STEREO_COUNT>
9

> <PUBCHEM_ATOM_UDEF_STEREO_COUNT>
0

> <PUBCHEM_BOND_DEF_STEREO_COUNT>
0

> <PUBCHEM_BOND_UDEF_STEREO_COUNT>
0

> <PUBCHEM_ISOTOPIC_ATOM_COUNT>
0

> <PUBCHEM_COMPONENT_COUNT>
1

> <PUBCHEM_CACTVS_TAUTO_COUNT>
1

> <PUBCHEM_CONFORMER_ID>
00039A9400000001

> <PUBCHEM_MMFF94_ENERGY>
100.1257

> <PUBCHEM_FEATURE_SELFOVERLAP>
50.828

> <PUBCHEM_SHAPE_FINGERPRINT>
10062212 137 17967255308259570261
10366900 7 17988927756010779505
10863032 1 18413106169125688114
10906281 52 18263342786087436452
10967382 1 18409167705489846104
11578080 2 14259626156072436364
12011746 2 18412266133647013837
12236239 1 17989205962770494226
12403259 226 18335425630085610457
12403259 415 18201728336315862053
12788726 201 18264209291065240280
12969540 114 18202015321097264695
13140716 1 18120087273737519715
13224815 77 18202285809774127753
13583140 156 16845570894300549577
13862211 1 18335424577828789190
14115302 16 18201992193236205428
14223421 5 18052252895361836419
14787075 74 18410573976572072544
14790565 3 18265887141329798136
15099037 51 18410292514554110444
15196674 1 18408884070186965460
15209289 33 18409729573422751673
15536298 74 18259989253757739896
15788980 27 18040716973981961708
15848702 151 17822003254813850182
16752209 62 18338243750895343513
16945 1 18261680268207453545
17349148 13 17748828505506831655
18186145 218 18202289117020362469
19591789 44 18338517555187018354
19862831 5 18343302561145287508
200 152 17967252004933782277
20028762 73 18041564624924014447
20775438 99 16742318884547499647
21029758 11 18333450949745479472
21033648 29 18201451250505765789
21267235 1 18335692832453012126
21279426 13 18266738167845411454
221357 26 18335424569186230541
22393880 68 18340220643212028549
23402539 116 18260831522535129140
23493267 7 18060135440133998449
23557571 272 5761664663299518195
23559900 14 18335705979880993040
2748010 2 18197782107341835867
296302 2 15698000746987434425
3004659 81 18270958059846748366
335352 9 18408321103043275276
34934 24 18409171000394406866
350125 39 18408318909016691201
4340502 62 16558741347486323648
474 4 17560230315878017420
5104073 3 18336264630007298562
633830 44 18411421747635169223
69090 78 18259987063044876694
9709674 26 18265616472453153347
9981440 41 17179986037386953816

> <PUBCHEM_SHAPE_MULTIPOLES>
469.03
9.69
2.11
1.23
3.59
0.44
0.09
-0.08
-2.09
-0.04
0.3
-0.62
-0.34
0.09

> <PUBCHEM_SHAPE_SELFOVERLAP>
1002.371

> <PUBCHEM_SHAPE_VOLUME>
261.9

> <PUBCHEM_COORDINATE_TYPE>
2
5
10

$$$$

