5280847
  -OEChem-07051212503D

 42 43  0     1  0  0  0  0  0999 V2000
    1.6941   -0.5089    0.4558 O   0  0  0  0  0  0  0  0  0  0  0  0
    5.4683    0.9478   -0.2519 O   0  0  0  0  0  0  0  0  0  0  0  0
    4.9001   -1.8508   -0.6997 O   0  0  0  0  0  0  0  0  0  0  0  0
    0.7832    1.6391    0.4449 O   0  0  0  0  0  0  0  0  0  0  0  0
    3.1022    2.5921   -0.8673 O   0  0  0  0  0  0  0  0  0  0  0  0
    1.0318   -3.1759    0.3896 O   0  0  0  0  0  0  0  0  0  0  0  0
   -7.3911   -0.3880   -1.4499 O   0  0  0  0  0  0  0  0  0  0  0  0
    4.1808    0.4481   -0.6166 C   0  0  1  0  0  0  0  0  0  0  0  0
    4.0298   -0.9508   -0.0187 C   0  0  1  0  0  0  0  0  0  0  0  0
    2.5872   -1.4449   -0.1503 C   0  0  1  0  0  0  0  0  0  0  0  0
    3.1004    1.3938   -0.0918 C   0  0  2  0  0  0  0  0  0  0  0  0
    1.7121    0.7616   -0.1909 C   0  0  1  0  0  0  0  0  0  0  0  0
    2.3850   -2.7886    0.5428 C   0  0  0  0  0  0  0  0  0  0  0  0
   -0.5244    1.2374    0.4635 C   0  0  0  0  0  0  0  0  0  0  0  0
   -1.1966    1.0183   -0.7348 C   0  0  0  0  0  0  0  0  0  0  0  0
   -1.1721    1.0518    1.6809 C   0  0  0  0  0  0  0  0  0  0  0  0
   -2.5300    0.6093   -0.7155 C   0  0  0  0  0  0  0  0  0  0  0  0
   -2.5056    0.6426    1.7001 C   0  0  0  0  0  0  0  0  0  0  0  0
   -3.1844    0.4213    0.5019 C   0  0  0  0  0  0  0  0  0  0  0  0
   -4.5749   -0.0042    0.5219 C   0  0  0  0  0  0  0  0  0  0  0  0
   -5.2336   -0.6084   -0.4936 C   0  0  0  0  0  0  0  0  0  0  0  0
   -6.6623   -1.0424   -0.4207 C   0  0  0  0  0  0  0  0  0  0  0  0
    4.1621    0.4113   -1.7128 H   0  0  0  0  0  0  0  0  0  0  0  0
    4.3363   -0.9320    1.0344 H   0  0  0  0  0  0  0  0  0  0  0  0
    3.3200    1.6849    0.9422 H   0  0  0  0  0  0  0  0  0  0  0  0
    2.3051   -1.5622   -1.2056 H   0  0  0  0  0  0  0  0  0  0  0  0
    1.4363    0.6458   -1.2473 H   0  0  0  0  0  0  0  0  0  0  0  0
    2.5937   -2.7215    1.6157 H   0  0  0  0  0  0  0  0  0  0  0  0
    3.0178   -3.5679    0.1085 H   0  0  0  0  0  0  0  0  0  0  0  0
    6.1302    0.3191   -0.5873 H   0  0  0  0  0  0  0  0  0  0  0  0
    4.6311   -1.8797   -1.6337 H   0  0  0  0  0  0  0  0  0  0  0  0
    2.9105    2.3546   -1.7905 H   0  0  0  0  0  0  0  0  0  0  0  0
    0.4792   -2.4728    0.7720 H   0  0  0  0  0  0  0  0  0  0  0  0
   -0.7101    1.1813   -1.6920 H   0  0  0  0  0  0  0  0  0  0  0  0
   -0.6466    1.2220    2.6164 H   0  0  0  0  0  0  0  0  0  0  0  0
   -3.0251    0.4728   -1.6725 H   0  0  0  0  0  0  0  0  0  0  0  0
   -2.9985    0.5000    2.6588 H   0  0  0  0  0  0  0  0  0  0  0  0
   -5.1134    0.1780    1.4497 H   0  0  0  0  0  0  0  0  0  0  0  0
   -4.7311   -0.8393   -1.4285 H   0  0  0  0  0  0  0  0  0  0  0  0
   -6.7334   -2.1219   -0.5834 H   0  0  0  0  0  0  0  0  0  0  0  0
   -7.1280   -0.8088    0.5419 H   0  0  0  0  0  0  0  0  0  0  0  0
   -7.3629    0.5675   -1.2700 H   0  0  0  0  0  0  0  0  0  0  0  0
  1 10  1  0  0  0  0
  1 12  1  0  0  0  0
  2  8  1  0  0  0  0
  2 30  1  0  0  0  0
  3  9  1  0  0  0  0
  3 31  1  0  0  0  0
  4 12  1  0  0  0  0
  4 14  1  0  0  0  0
  5 11  1  0  0  0  0
  5 32  1  0  0  0  0
  6 13  1  0  0  0  0
  6 33  1  0  0  0  0
  7 22  1  0  0  0  0
  7 42  1  0  0  0  0
  8  9  1  0  0  0  0
  8 11  1  0  0  0  0
  8 23  1  0  0  0  0
  9 10  1  0  0  0  0
  9 24  1  0  0  0  0
 10 13  1  0  0  0  0
 10 26  1  0  0  0  0
 11 12  1  0  0  0  0
 11 25  1  0  0  0  0
 12 27  1  0  0  0  0
 13 28  1  0  0  0  0
 13 29  1  0  0  0  0
 14 15  2  0  0  0  0
 14 16  1  0  0  0  0
 15 17  1  0  0  0  0
 15 34  1  0  0  0  0
 16 18  2  0  0  0  0
 16 35  1  0  0  0  0
 17 19  2  0  0  0  0
 17 36  1  0  0  0  0
 18 19  1  0  0  0  0
 18 37  1  0  0  0  0
 19 20  1  0  0  0  0
 20 21  2  0  0  0  0
 20 38  1  0  0  0  0
 21 22  1  0  0  0  0
 21 39  1  0  0  0  0
 22 40  1  0  0  0  0
 22 41  1  0  0  0  0
M  END
> <PUBCHEM_COMPOUND_CID>
5280847

> <PUBCHEM_CONFORMER_RMSD>
0.8

> <PUBCHEM_CONFORMER_DIVERSEORDER>
1
63
49
93
35
84
65
3
45
85
56
38
64
54
52
8
71
66
78
9
79
36
81
69
6
88
2
61
72
14
40
5
4
77
41
82
23
39
26
94
47
57
51
10
59
73
67
62
42
37
83
13
75
87
32
30
86
74
18
33
7
44
60
89
28
43
15
92
95
76
17
55
22
68
91
19
70
27
53
50
20
12
80
21
31
46
24
58
16
34
11
25
29
48
90

> <PUBCHEM_MMFF94_PARTIAL_CHARGES>
33
1 -0.56
10 0.28
11 0.28
12 0.56
13 0.28
14 0.08
15 -0.15
16 -0.15
17 -0.15
18 -0.15
19 0.03
2 -0.68
20 -0.18
21 -0.29
22 0.42
3 -0.68
30 0.4
31 0.4
32 0.4
33 0.4
34 0.15
35 0.15
36 0.15
37 0.15
38 0.15
39 0.15
4 -0.36
42 0.4
5 -0.68
6 -0.68
7 -0.68
8 0.28
9 0.28

> <PUBCHEM_EFFECTIVE_ROTOR_COUNT>
6.2

> <PUBCHEM_PHARMACOPHORE_FEATURES>
14
1 1 acceptor
1 2 acceptor
1 2 donor
1 3 acceptor
1 3 donor
1 4 acceptor
1 5 acceptor
1 5 donor
1 6 acceptor
1 6 donor
1 7 acceptor
1 7 donor
6 1 8 9 10 11 12 rings
6 14 15 16 17 18 19 rings

> <PUBCHEM_HEAVY_ATOM_COUNT>
22

> <PUBCHEM_ATOM_DEF_STEREO_COUNT>
5

> <PUBCHEM_ATOM_UDEF_STEREO_COUNT>
0

> <PUBCHEM_BOND_DEF_STEREO_COUNT>
1

> <PUBCHEM_BOND_UDEF_STEREO_COUNT>
0

> <PUBCHEM_ISOTOPIC_ATOM_COUNT>
0

> <PUBCHEM_COMPONENT_COUNT>
1

> <PUBCHEM_CACTVS_TAUTO_COUNT>
1

> <PUBCHEM_CONFORMER_ID>
0050944F00000001

> <PUBCHEM_MMFF94_ENERGY>
66.5777

> <PUBCHEM_FEATURE_SELFOVERLAP>
71.102

> <PUBCHEM_SHAPE_FINGERPRINT>
10366900 7 17774709961432058370
10447042 23 18411705395644032327
10693767 8 18189887790328690670
11796584 16 17968094193214718551
12107183 9 17687456184970250225
12236239 1 17967526891531180145
12596602 18 17385441029308109795
12788726 201 17603577543985079243
13167823 11 18333730230431407301
13533116 47 18259984855690097417
13836976 161 18272083864757544676
13862211 1 18269269248678334090
14576447 43 18408884074698236698
15183329 4 18340777031114823861
15238133 3 7997694228667320130
15348495 7 6771858619950805999
15537594 2 18186807946289076511
17134984 74 18341903940007210771
17138139 8 17970362412119183911
17492 89 18044090387457412838
17857418 61 18187085049099433375
200 152 18335417980448000673
20028762 73 18260547874696117078
20567600 247 18335989658582270687
20645477 70 18272654553703995353
21054139 6 18335703797504700726
21285901 2 17632303401667517581
21637258 2 18041006146041031635
22224240 67 18337115571173341056
23522609 53 17752456838936306209
23557571 272 17060342937245008589
23559900 14 18339929195664284345
23598288 3 17678176211947264577
2838139 119 11312063123856333907
2871803 45 18343018912714807922
3004659 81 18410296925807452171
33382 64 18410290282031187163
33824 294 18342172284993967434
3411729 13 15865214372323945025
351380 3 17821451257654910911
397830 11 7276536664781953349
4098825 35 18342462582482506597
4340502 62 18335427807538804736
439807 62 18264491677514222087
46194498 28 17775287123453667237
465052 167 17822289046828668847
5283384 97 18409173229314128887
602551 16 15647346224894830788
6327066 14 17769646500434997940
6913067 236 18131075926385151308

> <PUBCHEM_SHAPE_MULTIPOLES>
411.66
13.81
2.43
1.16
17.56
1.51
0.27
4.18
-5.27
-3.11
0.13
1.07
-0.24
-1.02

> <PUBCHEM_SHAPE_SELFOVERLAP>
854.654

> <PUBCHEM_SHAPE_VOLUME>
232.4

> <PUBCHEM_COORDINATE_TYPE>
2
5
10

$$$$

