18772468
  -OEChem-07051213123D

 37 39  0     0  0  0  0  0  0999 V2000
    4.3919   -2.5501    0.9611 Cl  0  0  0  0  0  0  0  0  0  0  0  0
   -1.0426    0.0985    1.2534 S   0  0  0  0  0  0  0  0  0  0  0  0
    3.9614    0.2043   -0.8020 S   0  0  0  0  0  0  0  0  0  0  0  0
   -0.5349   -3.4451    0.4296 F   0  0  0  0  0  0  0  0  0  0  0  0
   -2.6625    1.5949    2.6759 O   0  0  0  0  0  0  0  0  0  0  0  0
    4.3629    3.7547    0.7385 O   0  0  0  0  0  0  0  0  0  0  0  0
    5.0931    2.8973   -1.2356 O   0  0  0  0  0  0  0  0  0  0  0  0
   -3.0005    0.0371   -0.4588 N   0  0  0  0  0  0  0  0  0  0  0  0
   -3.4100    0.8789    0.5799 N   0  0  0  0  0  0  0  0  0  0  0  0
   -0.9956   -1.1498   -1.0660 N   0  0  0  0  0  0  0  0  0  0  0  0
   -5.1518    0.3387   -1.6189 C   0  0  0  0  0  0  0  0  0  0  0  0
   -5.4437    1.5069   -0.6883 C   0  0  0  0  0  0  0  0  0  0  0  0
   -3.6469    0.1478   -1.7564 C   0  0  0  0  0  0  0  0  0  0  0  0
   -4.8093    1.2512    0.6690 C   0  0  0  0  0  0  0  0  0  0  0  0
   -1.7210   -0.4301   -0.2778 C   0  0  0  0  0  0  0  0  0  0  0  0
   -2.5104    0.9966    1.6203 C   0  0  0  0  0  0  0  0  0  0  0  0
    0.2893   -1.4675   -0.5932 C   0  0  0  0  0  0  0  0  0  0  0  0
    1.3629   -0.6220   -0.8722 C   0  0  0  0  0  0  0  0  0  0  0  0
    0.4912   -2.6274    0.1549 C   0  0  0  0  0  0  0  0  0  0  0  0
    2.6385   -0.9364   -0.4034 C   0  0  0  0  0  0  0  0  0  0  0  0
    1.7667   -2.9418    0.6237 C   0  0  0  0  0  0  0  0  0  0  0  0
    2.8403   -2.0964    0.3445 C   0  0  0  0  0  0  0  0  0  0  0  0
    3.3669    1.7304   -0.0239 C   0  0  0  0  0  0  0  0  0  0  0  0
    4.3641    2.8293   -0.2542 C   0  0  0  0  0  0  0  0  0  0  0  0
   -5.6087   -0.5750   -1.2187 H   0  0  0  0  0  0  0  0  0  0  0  0
   -5.5961    0.5209   -2.6034 H   0  0  0  0  0  0  0  0  0  0  0  0
   -5.0378    2.4300   -1.1200 H   0  0  0  0  0  0  0  0  0  0  0  0
   -6.5247    1.6452   -0.5779 H   0  0  0  0  0  0  0  0  0  0  0  0
   -3.4566   -0.7541   -2.3496 H   0  0  0  0  0  0  0  0  0  0  0  0
   -3.2119    0.9933   -2.3033 H   0  0  0  0  0  0  0  0  0  0  0  0
   -4.9004    2.1366    1.3079 H   0  0  0  0  0  0  0  0  0  0  0  0
   -5.3254    0.4331    1.1862 H   0  0  0  0  0  0  0  0  0  0  0  0
    1.1884    0.2702   -1.4702 H   0  0  0  0  0  0  0  0  0  0  0  0
    1.9046   -3.8495    1.2057 H   0  0  0  0  0  0  0  0  0  0  0  0
    3.2611    1.5543    1.0508 H   0  0  0  0  0  0  0  0  0  0  0  0
    2.4078    2.0478   -0.4415 H   0  0  0  0  0  0  0  0  0  0  0  0
    5.0133    4.4701    0.5726 H   0  0  0  0  0  0  0  0  0  0  0  0
  1 22  1  0  0  0  0
  2 15  1  0  0  0  0
  2 16  1  0  0  0  0
  3 20  1  0  0  0  0
  3 23  1  0  0  0  0
  4 19  1  0  0  0  0
  5 16  2  0  0  0  0
  6 24  1  0  0  0  0
  6 37  1  0  0  0  0
  7 24  2  0  0  0  0
  8  9  1  0  0  0  0
  8 13  1  0  0  0  0
  8 15  1  0  0  0  0
  9 14  1  0  0  0  0
  9 16  1  0  0  0  0
 10 15  2  0  0  0  0
 10 17  1  0  0  0  0
 11 12  1  0  0  0  0
 11 13  1  0  0  0  0
 11 25  1  0  0  0  0
 11 26  1  0  0  0  0
 12 14  1  0  0  0  0
 12 27  1  0  0  0  0
 12 28  1  0  0  0  0
 13 29  1  0  0  0  0
 13 30  1  0  0  0  0
 14 31  1  0  0  0  0
 14 32  1  0  0  0  0
 17 18  2  0  0  0  0
 17 19  1  0  0  0  0
 18 20  1  0  0  0  0
 18 33  1  0  0  0  0
 19 21  2  0  0  0  0
 20 22  2  0  0  0  0
 21 22  1  0  0  0  0
 21 34  1  0  0  0  0
 23 24  1  0  0  0  0
 23 35  1  0  0  0  0
 23 36  1  0  0  0  0
M  END
> <PUBCHEM_COMPOUND_CID>
18772468

> <PUBCHEM_CONFORMER_RMSD>
0.8

> <PUBCHEM_CONFORMER_DIVERSEORDER>
2
20
15
25
21
11
23
17
12
16
14
8
13
3
18
10
22
28
27
19
26
7
9
6
24
5
4
1

> <PUBCHEM_MMFF94_PARTIAL_CHARGES>
25
1 -0.18
10 -0.63
13 0.37
14 0.3
15 0.64
16 0.77
17 0.18
18 -0.15
19 0.19
2 -0.28
20 0.1
21 -0.15
22 0.18
23 0.29
24 0.66
3 -0.33
33 0.15
34 0.15
37 0.5
4 -0.19
5 -0.57
6 -0.65
7 -0.57
8 -0.44
9 -0.34

> <PUBCHEM_EFFECTIVE_ROTOR_COUNT>
4.8

> <PUBCHEM_PHARMACOPHORE_FEATURES>
7
1 6 acceptor
1 7 acceptor
3 6 7 24 anion
3 8 10 15 cation
5 2 8 9 15 16 rings
6 17 18 19 20 21 22 rings
6 8 9 11 12 13 14 rings

> <PUBCHEM_HEAVY_ATOM_COUNT>
24

> <PUBCHEM_ATOM_DEF_STEREO_COUNT>
0

> <PUBCHEM_ATOM_UDEF_STEREO_COUNT>
0

> <PUBCHEM_BOND_DEF_STEREO_COUNT>
0

> <PUBCHEM_BOND_UDEF_STEREO_COUNT>
0

> <PUBCHEM_ISOTOPIC_ATOM_COUNT>
0

> <PUBCHEM_COMPONENT_COUNT>
1

> <PUBCHEM_CACTVS_TAUTO_COUNT>
1

> <PUBCHEM_CONFORMER_ID>
011E71F400000002

> <PUBCHEM_MMFF94_ENERGY>
52.7243

> <PUBCHEM_FEATURE_SELFOVERLAP>
35.649

> <PUBCHEM_SHAPE_FINGERPRINT>
10366900 7 17702090585376745782
10615611 76 17968926625926325089
10937287 8 18267585702685280292
11135609 127 18267886024174392813
11582403 64 15908879346280626295
11725454 13 17489598874014432535
12166972 35 18190191267900170618
12236239 1 17970359319568624599
12390115 104 18125703605645834396
12403259 327 15410900617513616140
12616971 3 18261955271006046231
13140716 1 18272368672513462370
13583140 156 18201428199157682651
13590594 115 18122340457269139216
13878862 14 18129685091167493852
13965767 371 17916322562749712300
14251764 38 18196938987813724093
14787075 74 18189334568101433223
14848178 96 18338233769945469388
14955137 171 18197773513440266258
15342168 16 18413389813045156652
15475509 8 17899113178803928310
1813 80 17469595669393138078
192875 21 18263368156026880418
21033648 144 18343304759994522199
21033648 29 17203608215922963669
21033650 10 16009014116737787418
21864079 5 18115007719106850144
22122407 14 18194109940543425513
22182937 141 18120922924577070768
23559900 14 18340772657788954186
23845131 108 18201718418661791514
283562 15 17765154965122470906
474 4 18409448098393410506
495365 180 17561084760333802643
5104073 3 18130788962414077547
5895379 119 17241316018953446336
6034566 193 17914039903005551700
633830 44 18188756361975491575
9981440 41 18121508955853825810

> <PUBCHEM_SHAPE_MULTIPOLES>
463.65
11.6
3.86
1.61
5.2
1.05
-0.5
8.51
2.06
-7.44
-0.65
1.67
0.55
-1.51

> <PUBCHEM_SHAPE_SELFOVERLAP>
954.158

> <PUBCHEM_SHAPE_VOLUME>
270.3

> <PUBCHEM_COORDINATE_TYPE>
2
5
10

$$$$

