441067
  -OEChem-07051212513D

 41 43  0     1  0  0  0  0  0999 V2000
    5.5576   -0.5134    0.1533 O   0  0  0  0  0  0  0  0  0  0  0  0
    3.7774   -2.6414    0.0403 O   0  0  0  0  0  0  0  0  0  0  0  0
   -5.4473    1.2528   -0.9288 O   0  0  0  0  0  0  0  0  0  0  0  0
   -6.2698   -0.8640    0.6739 O   0  0  0  0  0  0  0  0  0  0  0  0
   -0.4185    1.8629   -0.0360 N   0  0  0  0  0  0  0  0  0  0  0  0
   -0.0608    0.4507    0.2027 C   0  0  2  0  0  0  0  0  0  0  0  0
    1.4392    0.1870    0.1646 C   0  0  0  0  0  0  0  0  0  0  0  0
    2.3511    1.2578    0.2646 C   0  0  0  0  0  0  0  0  0  0  0  0
    1.8586    2.6798    0.3469 C   0  0  0  0  0  0  0  0  0  0  0  0
    0.3981    2.7554    0.7827 C   0  0  0  0  0  0  0  0  0  0  0  0
   -0.8489   -0.3808   -0.8177 C   0  0  0  0  0  0  0  0  0  0  0  0
    1.9454   -1.1217    0.1102 C   0  0  0  0  0  0  0  0  0  0  0  0
   -2.2921   -0.5067   -0.4232 C   0  0  0  0  0  0  0  0  0  0  0  0
    3.7316    1.0102    0.2448 C   0  0  0  0  0  0  0  0  0  0  0  0
    3.3212   -1.3591    0.1036 C   0  0  0  0  0  0  0  0  0  0  0  0
    4.2138   -0.2939    0.1641 C   0  0  0  0  0  0  0  0  0  0  0  0
   -3.2100    0.4400   -0.8625 C   0  0  0  0  0  0  0  0  0  0  0  0
   -2.6955   -1.5683    0.3781 C   0  0  0  0  0  0  0  0  0  0  0  0
   -4.5505    0.3235   -0.4952 C   0  0  0  0  0  0  0  0  0  0  0  0
   -4.0359   -1.6849    0.7455 C   0  0  0  0  0  0  0  0  0  0  0  0
   -4.9635   -0.7390    0.3087 C   0  0  0  0  0  0  0  0  0  0  0  0
    6.1991   -0.5469   -1.1205 C   0  0  0  0  0  0  0  0  0  0  0  0
   -0.3810    0.1869    1.2214 H   0  0  0  0  0  0  0  0  0  0  0  0
    2.4696    3.2472    1.0590 H   0  0  0  0  0  0  0  0  0  0  0  0
    1.9769    3.1428   -0.6409 H   0  0  0  0  0  0  0  0  0  0  0  0
    0.2924    2.5024    1.8454 H   0  0  0  0  0  0  0  0  0  0  0  0
    0.0416    3.7845    0.6632 H   0  0  0  0  0  0  0  0  0  0  0  0
   -0.4559   -1.3964   -0.9343 H   0  0  0  0  0  0  0  0  0  0  0  0
   -0.7654    0.0512   -1.8256 H   0  0  0  0  0  0  0  0  0  0  0  0
   -1.3978    2.0108    0.2038 H   0  0  0  0  0  0  0  0  0  0  0  0
    1.2764   -1.9778    0.0974 H   0  0  0  0  0  0  0  0  0  0  0  0
    4.4319    1.8408    0.2990 H   0  0  0  0  0  0  0  0  0  0  0  0
   -2.8921    1.2619   -1.4991 H   0  0  0  0  0  0  0  0  0  0  0  0
   -1.9809   -2.3092    0.7262 H   0  0  0  0  0  0  0  0  0  0  0  0
   -4.3439   -2.5171    1.3728 H   0  0  0  0  0  0  0  0  0  0  0  0
    4.7489   -2.6267    0.0852 H   0  0  0  0  0  0  0  0  0  0  0  0
    6.1116    0.4247   -1.6170 H   0  0  0  0  0  0  0  0  0  0  0  0
    5.7690   -1.3309   -1.7518 H   0  0  0  0  0  0  0  0  0  0  0  0
    7.2589   -0.7657   -0.9645 H   0  0  0  0  0  0  0  0  0  0  0  0
   -4.9829    1.9128   -1.4716 H   0  0  0  0  0  0  0  0  0  0  0  0
   -6.3692   -1.6567    1.2287 H   0  0  0  0  0  0  0  0  0  0  0  0
  1 16  1  0  0  0  0
  1 22  1  0  0  0  0
  2 15  1  0  0  0  0
  2 36  1  0  0  0  0
  3 19  1  0  0  0  0
  3 40  1  0  0  0  0
  4 21  1  0  0  0  0
  4 41  1  0  0  0  0
  5  6  1  0  0  0  0
  5 10  1  0  0  0  0
  5 30  1  0  0  0  0
  6  7  1  0  0  0  0
  6 11  1  0  0  0  0
  6 23  1  0  0  0  0
  7  8  1  0  0  0  0
  7 12  2  0  0  0  0
  8  9  1  0  0  0  0
  8 14  2  0  0  0  0
  9 10  1  0  0  0  0
  9 24  1  0  0  0  0
  9 25  1  0  0  0  0
 10 26  1  0  0  0  0
 10 27  1  0  0  0  0
 11 13  1  0  0  0  0
 11 28  1  0  0  0  0
 11 29  1  0  0  0  0
 12 15  1  0  0  0  0
 12 31  1  0  0  0  0
 13 17  2  0  0  0  0
 13 18  1  0  0  0  0
 14 16  1  0  0  0  0
 14 32  1  0  0  0  0
 15 16  2  0  0  0  0
 17 19  1  0  0  0  0
 17 33  1  0  0  0  0
 18 20  2  0  0  0  0
 18 34  1  0  0  0  0
 19 21  2  0  0  0  0
 20 21  1  0  0  0  0
 20 35  1  0  0  0  0
 22 37  1  0  0  0  0
 22 38  1  0  0  0  0
 22 39  1  0  0  0  0
M  END
> <PUBCHEM_COMPOUND_CID>
441067

> <PUBCHEM_CONFORMER_RMSD>
0.6

> <PUBCHEM_CONFORMER_DIVERSEORDER>
4
3
24
14
7
29
20
18
12
25
1
23
9
19
5
16
28
11
10
2
17
26
15
8
22
6
27
13
21

> <PUBCHEM_MMFF94_PARTIAL_CHARGES>
31
1 -0.36
10 0.27
11 0.14
12 -0.15
13 -0.14
14 -0.15
15 0.08
16 0.08
17 -0.15
18 -0.15
19 0.08
2 -0.53
20 -0.15
21 0.08
22 0.28
3 -0.53
30 0.36
31 0.15
32 0.15
33 0.15
34 0.15
35 0.15
36 0.45
4 -0.53
40 0.45
41 0.45
5 -0.9
6 0.41
7 -0.14
8 -0.14
9 0.14

> <PUBCHEM_EFFECTIVE_ROTOR_COUNT>
3.8

> <PUBCHEM_PHARMACOPHORE_FEATURES>
9
1 1 acceptor
1 2 donor
1 3 donor
1 4 donor
1 5 cation
1 5 donor
6 13 17 18 19 20 21 rings
6 5 6 7 8 9 10 rings
6 7 8 12 14 15 16 rings

> <PUBCHEM_HEAVY_ATOM_COUNT>
22

> <PUBCHEM_ATOM_DEF_STEREO_COUNT>
1

> <PUBCHEM_ATOM_UDEF_STEREO_COUNT>
0

> <PUBCHEM_BOND_DEF_STEREO_COUNT>
0

> <PUBCHEM_BOND_UDEF_STEREO_COUNT>
0

> <PUBCHEM_ISOTOPIC_ATOM_COUNT>
0

> <PUBCHEM_COMPONENT_COUNT>
1

> <PUBCHEM_CACTVS_TAUTO_COUNT>
54

> <PUBCHEM_CONFORMER_ID>
0006BAEB00000004

> <PUBCHEM_MMFF94_ENERGY>
66.9725

> <PUBCHEM_FEATURE_SELFOVERLAP>
45.695

> <PUBCHEM_SHAPE_FINGERPRINT>
10673678 19 17773298064449440980
11128504 68 15410894046271396046
11135609 187 18198615529030992836
11552529 35 17899129413474475115
11578080 2 13828406525810645988
12236239 1 17240763952125250027
12507560 40 18341335488057680285
12516196 113 18333452040761773842
12553582 1 18262249875687562782
12596602 18 16733268941250648819
12788726 201 18337957921059120016
13402501 40 18342175561700878555
13685833 64 18413103944659929755
14341114 176 18339074896224355121
14386348 63 18413670205642810987
14617045 38 18342452647084011994
14790565 3 17618505377006643984
14866123 147 17543630189510519691
15196674 1 18339082592373128769
15537594 2 18333169466527228046
15927050 60 17758398475112571900
16087824 20 18192992836756394361
17349148 13 16877942707487950093
17492 89 18050006885871642690
17844677 252 18342452630283801749
18222031 100 17967541181150819214
18785283 64 18127134065541480892
19141452 34 17386010537861344822
200 152 18187086160857711664
20645477 70 18260830375673262222
21033648 29 18129400262607593669
21033650 10 16485562350804744102
21054139 6 11239708635429035881
21065198 57 18340489963573482081
21065199 12 18269557135618581561
21267235 1 18335413582675432206
21279426 13 18268715098516205991
21641784 216 18200296828080028268
21792961 116 18271249430063943398
221357 26 18412268328871044093
221490 88 18341610348204318160
2215653 11 18411146848432808463
22182313 1 18192458379488972320
23559900 14 18412269419265450569
239999 70 18335417955358477486
26918003 58 18413394241230285002
2871803 45 18410012169897616510
3004659 81 18202283611157028070
314173 85 18040434408426416624
335352 9 18410013256508862853
3421961 26 18336549330794910096
345986 75 17822859800268578290
3545911 37 18412825776712954823
4214541 1 18341897385728120837
4463277 17 18409166602258465380
46194498 28 17775565299874337028
465052 167 18259980462033629270
5104073 3 18189905382186849538
7495541 125 18131633352994604388
8863177 126 18128808639025321195
9709674 26 18127412246504726363

> <PUBCHEM_SHAPE_MULTIPOLES>
424.29
13.36
2.39
0.88
3.94
0.99
0.1
-4.93
1.27
-1.22
-0.49
0.24
0.03
1.1

> <PUBCHEM_SHAPE_SELFOVERLAP>
918.639

> <PUBCHEM_SHAPE_VOLUME>
231.8

> <PUBCHEM_COORDINATE_TYPE>
2
5
10

$$$$

