162083
  -OEChem-07051213022D

 76 78  0     1  0  0  0  0  0999 V2000
    7.1962    0.2500    0.0000 O   0  0  0  0  0  0  0  0  0  0  0  0
    6.3301   -1.2500    0.0000 O   0  0  0  0  0  0  0  0  0  0  0  0
    6.3301    1.7500    0.0000 O   0  0  0  0  0  0  0  0  0  0  0  0
    5.4641   -0.7500    0.0000 O   0  0  0  0  0  0  0  0  0  0  0  0
    3.7320    0.2500    0.0000 O   0  0  0  0  0  0  0  0  0  0  0  0
    3.7320    2.2500    0.0000 O   0  0  0  0  0  0  0  0  0  0  0  0
   10.2976    0.2115    0.0000 O   0  0  0  0  0  0  0  0  0  0  0  0
    6.3301    3.7500    0.0000 O   0  0  0  0  0  0  0  0  0  0  0  0
    6.3301   -4.2500    0.0000 O   0  0  0  0  0  0  0  0  0  0  0  0
    8.0622   -4.2500    0.0000 O   0  0  0  0  0  0  0  0  0  0  0  0
    3.7320   -0.7500    0.0000 O   0  0  0  0  0  0  0  0  0  0  0  0
    2.8660    1.7500    0.0000 O   0  0  0  0  0  0  0  0  0  0  0  0
    4.5981    3.7500    0.0000 O   0  0  0  0  0  0  0  0  0  0  0  0
    9.9404    1.9063    0.0000 O   0  0  0  0  0  0  0  0  0  0  0  0
    5.4641    5.2500    0.0000 O   0  0  0  0  0  0  0  0  0  0  0  0
    8.0622   -1.2500    0.0000 C   0  0  2  0  0  0  0  0  0  0  0  0
    8.0622   -2.2500    0.0000 C   0  0  2  0  0  0  0  0  0  0  0  0
    7.1962   -0.7500    0.0000 C   0  0  2  0  0  0  0  0  0  0  0  0
    9.0084   -2.5547    0.0000 C   0  0  0  0  0  0  0  0  0  0  0  0
    9.0084   -0.9453    0.0000 C   0  0  0  0  0  0  0  0  0  0  0  0
    6.3301    0.7500    0.0000 C   0  0  2  0  0  0  0  0  0  0  0  0
    5.4641    0.2500    0.0000 C   0  0  1  0  0  0  0  0  0  0  0  0
    4.5981    0.7500    0.0000 C   0  0  2  0  0  0  0  0  0  0  0  0
    9.5920   -1.7500    0.0000 C   0  0  0  0  0  0  0  0  0  0  0  0
    7.1962   -2.7500    0.0000 C   0  0  0  0  0  0  0  0  0  0  0  0
    4.5981    1.7500    0.0000 C   0  0  1  0  0  0  0  0  0  0  0  0
    5.4641    2.2500    0.0000 C   0  0  1  0  0  0  0  0  0  0  0  0
    9.3191    0.0053    0.0000 C   0  0  0  0  0  0  0  0  0  0  0  0
    6.3301   -2.2500    0.0000 C   0  0  0  0  0  0  0  0  0  0  0  0
    5.4641    3.2500    0.0000 C   0  0  0  0  0  0  0  0  0  0  0  0
    7.1962   -3.7500    0.0000 C   0  0  0  0  0  0  0  0  0  0  0  0
    4.5981   -1.2500    0.0000 C   0  0  0  0  0  0  0  0  0  0  0  0
    2.8660    0.7500    0.0000 C   0  0  0  0  0  0  0  0  0  0  0  0
    3.7320    3.2500    0.0000 C   0  0  0  0  0  0  0  0  0  0  0  0
   10.6082    1.1620    0.0000 C   0  0  0  0  0  0  0  0  0  0  0  0
    4.5981   -2.2500    0.0000 C   0  0  0  0  0  0  0  0  0  0  0  0
    2.0000    0.2500    0.0000 C   0  0  0  0  0  0  0  0  0  0  0  0
    6.3301    4.7500    0.0000 C   0  0  0  0  0  0  0  0  0  0  0  0
    2.8660    3.7500    0.0000 C   0  0  0  0  0  0  0  0  0  0  0  0
    6.3301   -5.2500    0.0000 C   0  0  0  0  0  0  0  0  0  0  0  0
   11.5867    1.3682    0.0000 C   0  0  0  0  0  0  0  0  0  0  0  0
    7.1962    5.2500    0.0000 C   0  0  0  0  0  0  0  0  0  0  0  0
    8.1521   -0.4048    0.0000 H   0  0  0  0  0  0  0  0  0  0  0  0
    8.1521   -3.0952    0.0000 H   0  0  0  0  0  0  0  0  0  0  0  0
    6.6592   -0.4400    0.0000 H   0  0  0  0  0  0  0  0  0  0  0  0
    8.7574   -3.1216    0.0000 H   0  0  0  0  0  0  0  0  0  0  0  0
    9.5458   -2.8640    0.0000 H   0  0  0  0  0  0  0  0  0  0  0  0
    6.3301    0.1300    0.0000 H   0  0  0  0  0  0  0  0  0  0  0  0
    6.0010   -0.0600    0.0000 H   0  0  0  0  0  0  0  0  0  0  0  0
    4.5981    0.1300    0.0000 H   0  0  0  0  0  0  0  0  0  0  0  0
   10.2120   -1.7500    0.0000 H   0  0  0  0  0  0  0  0  0  0  0  0
    4.5981    2.3700    0.0000 H   0  0  0  0  0  0  0  0  0  0  0  0
    6.0010    2.5600    0.0000 H   0  0  0  0  0  0  0  0  0  0  0  0
    9.2985    0.6249    0.0000 H   0  0  0  0  0  0  0  0  0  0  0  0
    8.7052    0.0926    0.0000 H   0  0  0  0  0  0  0  0  0  0  0  0
    5.7932   -2.5600    0.0000 H   0  0  0  0  0  0  0  0  0  0  0  0
    5.2520    3.8326    0.0000 H   0  0  0  0  0  0  0  0  0  0  0  0
    4.8535    3.1423    0.0000 H   0  0  0  0  0  0  0  0  0  0  0  0
    3.9781   -2.2500    0.0000 H   0  0  0  0  0  0  0  0  0  0  0  0
    4.5981   -2.8700    0.0000 H   0  0  0  0  0  0  0  0  0  0  0  0
    5.2181   -2.2500    0.0000 H   0  0  0  0  0  0  0  0  0  0  0  0
    1.6900    0.7869    0.0000 H   0  0  0  0  0  0  0  0  0  0  0  0
    1.4631   -0.0600    0.0000 H   0  0  0  0  0  0  0  0  0  0  0  0
    2.3100   -0.2869    0.0000 H   0  0  0  0  0  0  0  0  0  0  0  0
    3.1760    4.2869    0.0000 H   0  0  0  0  0  0  0  0  0  0  0  0
    2.3291    4.0600    0.0000 H   0  0  0  0  0  0  0  0  0  0  0  0
    2.5560    3.2131    0.0000 H   0  0  0  0  0  0  0  0  0  0  0  0
    5.7101   -5.2500    0.0000 H   0  0  0  0  0  0  0  0  0  0  0  0
    6.3301   -5.8700    0.0000 H   0  0  0  0  0  0  0  0  0  0  0  0
    6.9501   -5.2500    0.0000 H   0  0  0  0  0  0  0  0  0  0  0  0
   11.7146    0.7615    0.0000 H   0  0  0  0  0  0  0  0  0  0  0  0
   12.1934    1.4961    0.0000 H   0  0  0  0  0  0  0  0  0  0  0  0
   11.4589    1.9749    0.0000 H   0  0  0  0  0  0  0  0  0  0  0  0
    7.5062    4.7131    0.0000 H   0  0  0  0  0  0  0  0  0  0  0  0
    7.7331    5.5600    0.0000 H   0  0  0  0  0  0  0  0  0  0  0  0
    6.8862    5.7869    0.0000 H   0  0  0  0  0  0  0  0  0  0  0  0
 18  1  1  1  0  0  0
 21  1  1  1  0  0  0
  2 18  1  0  0  0  0
  2 29  1  0  0  0  0
  3 21  1  0  0  0  0
  3 27  1  0  0  0  0
 22  4  1  6  0  0  0
  4 32  1  0  0  0  0
 23  5  1  1  0  0  0
  5 33  1  0  0  0  0
 26  6  1  6  0  0  0
  6 34  1  0  0  0  0
  7 28  1  0  0  0  0
  7 35  1  0  0  0  0
  8 30  1  0  0  0  0
  8 38  1  0  0  0  0
  9 31  1  0  0  0  0
  9 40  1  0  0  0  0
 10 31  2  0  0  0  0
 11 32  2  0  0  0  0
 12 33  2  0  0  0  0
 13 34  2  0  0  0  0
 14 35  2  0  0  0  0
 15 38  2  0  0  0  0
 16 17  1  0  0  0  0
 16 18  1  0  0  0  0
 16 20  1  0  0  0  0
 16 43  1  1  0  0  0
 17 19  1  0  0  0  0
 17 25  1  0  0  0  0
 17 44  1  1  0  0  0
 18 45  1  0  0  0  0
 19 24  1  0  0  0  0
 19 46  1  0  0  0  0
 19 47  1  0  0  0  0
 20 24  2  0  0  0  0
 20 28  1  0  0  0  0
 21 22  1  0  0  0  0
 21 48  1  0  0  0  0
 22 23  1  0  0  0  0
 22 49  1  0  0  0  0
 23 26  1  0  0  0  0
 23 50  1  0  0  0  0
 24 51  1  0  0  0  0
 25 29  2  0  0  0  0
 25 31  1  0  0  0  0
 26 27  1  0  0  0  0
 26 52  1  0  0  0  0
 27 30  1  1  0  0  0
 27 53  1  0  0  0  0
 28 54  1  0  0  0  0
 28 55  1  0  0  0  0
 29 56  1  0  0  0  0
 30 57  1  0  0  0  0
 30 58  1  0  0  0  0
 32 36  1  0  0  0  0
 33 37  1  0  0  0  0
 34 39  1  0  0  0  0
 35 41  1  0  0  0  0
 36 59  1  0  0  0  0
 36 60  1  0  0  0  0
 36 61  1  0  0  0  0
 37 62  1  0  0  0  0
 37 63  1  0  0  0  0
 37 64  1  0  0  0  0
 38 42  1  0  0  0  0
 39 65  1  0  0  0  0
 39 66  1  0  0  0  0
 39 67  1  0  0  0  0
 40 68  1  0  0  0  0
 40 69  1  0  0  0  0
 40 70  1  0  0  0  0
 41 71  1  0  0  0  0
 41 72  1  0  0  0  0
 41 73  1  0  0  0  0
 42 74  1  0  0  0  0
 42 75  1  0  0  0  0
 42 76  1  0  0  0  0
M  END
> <PUBCHEM_COMPOUND_CID>
162083

> <PUBCHEM_COMPOUND_CANONICALIZED>
1

> <PUBCHEM_CACTVS_COMPLEXITY>
1140

> <PUBCHEM_CACTVS_HBOND_ACCEPTOR>
15

> <PUBCHEM_CACTVS_HBOND_DONOR>
0

> <PUBCHEM_CACTVS_ROTATABLE_BOND>
16

> <PUBCHEM_CACTVS_SUBSKEYS>
AAADcfB4PAAAAAAAAAAAAAAAAAAAAQAAAAAkQAAAAAAAAEAAAAAAGgAAAAAADRSwgAMCCAAABACIAiDSCAAACAAgIAAACAEAAEgRBBIAIQAiEAAFwAAOIIPIbAwOgAAAAAAAAAAAAAAAAAAAAAAAAAAAAA==

> <PUBCHEM_IUPAC_OPENEYE_NAME>
methyl (1S,4aS,7aS)-7-(acetoxymethyl)-1-[(2S,3R,4S,5R,6R)-3,4,5-triacetoxy-6-(acetoxymethyl)tetrahydropyran-2-yl]oxy-1,4a,5,7a-tetrahydrocyclopenta[c]pyran-4-carboxylate

> <PUBCHEM_IUPAC_CAS_NAME>
(1S,4aS,7aS)-7-(acetyloxymethyl)-1-[[(2S,3R,4S,5R,6R)-3,4,5-triacetyloxy-6-(acetyloxymethyl)-2-oxanyl]oxy]-1,4a,5,7a-tetrahydrocyclopenta[c]pyran-4-carboxylic acid methyl ester

> <PUBCHEM_IUPAC_NAME>
methyl (1S,4aS,7aS)-7-(acetyloxymethyl)-1-[(2S,3R,4S,5R,6R)-3,4,5-triacetyloxy-6-(acetyloxymethyl)oxan-2-yl]oxy-1,4a,5,7a-tetrahydrocyclopenta[c]pyran-4-carboxylate

> <PUBCHEM_IUPAC_SYSTEMATIC_NAME>
methyl (1S,4aS,7aS)-7-(acetyloxymethyl)-1-[(2S,3R,4S,5R,6R)-3,4,5-triacetyloxy-6-(acetyloxymethyl)oxan-2-yl]oxy-1,4a,5,7a-tetrahydrocyclopenta[c]pyran-4-carboxylate

> <PUBCHEM_IUPAC_TRADITIONAL_NAME>
(1S,4aS,7aS)-7-(acetoxymethyl)-1-[(2S,3R,4S,5R,6R)-3,4,5-triacetoxy-6-(acetoxymethyl)tetrahydropyran-2-yl]oxy-1,4a,5,7a-tetrahydrocyclopenta[c]pyran-4-carboxylic acid methyl ester

> <PUBCHEM_IUPAC_INCHI>
InChI=1S/C27H34O15/c1-12(28)35-9-17-7-8-18-19(25(33)34-6)10-37-26(21(17)18)42-27-24(40-16(5)32)23(39-15(4)31)22(38-14(3)30)20(41-27)11-36-13(2)29/h7,10,18,20-24,26-27H,8-9,11H2,1-6H3/t18-,20-,21-,22-,23+,24-,26+,27+/m1/s1

> <PUBCHEM_IUPAC_INCHIKEY>
LKXMXUPYWQQHNY-JPGAYEHLSA-N

> <PUBCHEM_XLOGP3_AA>
0

> <PUBCHEM_EXACT_MASS>
598.18977

> <PUBCHEM_MOLECULAR_FORMULA>
C27H34O15

> <PUBCHEM_MOLECULAR_WEIGHT>
598.54986

> <PUBCHEM_OPENEYE_CAN_SMILES>
CC(=O)OCC1C(C(C(C(O1)OC2C3C(CC=C3COC(=O)C)C(=CO2)C(=O)OC)OC(=O)C)OC(=O)C)OC(=O)C

> <PUBCHEM_OPENEYE_ISO_SMILES>
CC(=O)OC[C@@H]1[C@H]([C@@H]([C@H]([C@@H](O1)O[C@H]2[C@H]3[C@H](CC=C3COC(=O)C)C(=CO2)C(=O)OC)OC(=O)C)OC(=O)C)OC(=O)C

> <PUBCHEM_CACTVS_TPSA>
186

> <PUBCHEM_MONOISOTOPIC_WEIGHT>
598.18977

> <PUBCHEM_TOTAL_CHARGE>
0

> <PUBCHEM_HEAVY_ATOM_COUNT>
42

> <PUBCHEM_ATOM_DEF_STEREO_COUNT>
8

> <PUBCHEM_ATOM_UDEF_STEREO_COUNT>
0

> <PUBCHEM_BOND_DEF_STEREO_COUNT>
0

> <PUBCHEM_BOND_UDEF_STEREO_COUNT>
0

> <PUBCHEM_ISOTOPIC_ATOM_COUNT>
0

> <PUBCHEM_COMPONENT_COUNT>
1

> <PUBCHEM_CACTVS_TAUTO_COUNT>
1

> <PUBCHEM_COORDINATE_TYPE>
1
5
255

> <PUBCHEM_BONDANNOTATIONS>
18  1  5
21  1  5
16  43  5
17  44  5
27  30  5
22  4  6
23  5  5
26  6  6

$$$$

