17396463
  -OEChem-06241222563D

 36 38  0     0  0  0  0  0  0999 V2000
   -4.3412   -0.5386   -1.3496 S   0  0  0  0  0  0  0  0  0  0  0  0
    0.6367   -2.0257    1.9974 S   0  0  0  0  0  0  0  0  0  0  0  0
   -1.0283    1.8395    1.7153 S   0  0  0  0  0  0  0  0  0  0  0  0
   -1.3566   -0.8962   -2.0588 O   0  0  0  0  0  0  0  0  0  0  0  0
    4.5837    0.0298    0.5287 N   0  0  0  0  0  0  0  0  0  0  0  0
   -1.1673   -1.8084    0.1095 N   0  0  0  0  0  0  0  0  0  0  0  0
    1.0155   -0.8625   -0.2798 N   0  0  0  0  0  0  0  0  0  0  0  0
   -2.6789    1.7869   -0.2735 N   0  0  0  0  0  0  0  0  0  0  0  0
    3.3813   -0.1039   -0.1151 C   0  0  0  0  0  0  0  0  0  0  0  0
    2.1929   -0.7718    0.4369 C   0  0  0  0  0  0  0  0  0  0  0  0
   -4.3480    0.0772    0.3508 C   0  0  0  0  0  0  0  0  0  0  0  0
   -3.1132    0.8608    0.6547 C   0  0  0  0  0  0  0  0  0  0  0  0
   -3.2611   -1.9701   -1.1131 C   0  0  0  0  0  0  0  0  0  0  0  0
    0.1256   -1.5036    0.4448 C   0  0  0  0  0  0  0  0  0  0  0  0
    3.4951    0.4947   -1.3503 C   0  0  0  0  0  0  0  0  0  0  0  0
   -1.8232   -1.4963   -1.0941 C   0  0  0  0  0  0  0  0  0  0  0  0
    2.1803   -1.3437    1.6917 C   0  0  0  0  0  0  0  0  0  0  0  0
    5.4636    0.7041   -0.2773 C   0  0  0  0  0  0  0  0  0  0  0  0
    4.8125    1.0061   -1.4529 C   0  0  0  0  0  0  0  0  0  0  0  0
   -2.3479    0.7471    1.7963 C   0  0  0  0  0  0  0  0  0  0  0  0
   -1.5878    2.3631    0.1797 C   0  0  0  0  0  0  0  0  0  0  0  0
   -0.8335    3.4114   -0.5413 C   0  0  0  0  0  0  0  0  0  0  0  0
   -5.2129    0.7404    0.4618 H   0  0  0  0  0  0  0  0  0  0  0  0
   -4.4875   -0.7504    1.0538 H   0  0  0  0  0  0  0  0  0  0  0  0
   -3.3760   -2.6469   -1.9659 H   0  0  0  0  0  0  0  0  0  0  0  0
   -3.5382   -2.5261   -0.2134 H   0  0  0  0  0  0  0  0  0  0  0  0
    4.7994   -0.3125    1.4550 H   0  0  0  0  0  0  0  0  0  0  0  0
    2.7203    0.5620   -2.1022 H   0  0  0  0  0  0  0  0  0  0  0  0
    2.9654   -1.4019    2.4325 H   0  0  0  0  0  0  0  0  0  0  0  0
   -1.6847   -2.3112    0.8256 H   0  0  0  0  0  0  0  0  0  0  0  0
    6.4710    0.9085    0.0568 H   0  0  0  0  0  0  0  0  0  0  0  0
    5.2407    1.5367   -2.2916 H   0  0  0  0  0  0  0  0  0  0  0  0
   -2.4926    0.0972    2.6477 H   0  0  0  0  0  0  0  0  0  0  0  0
   -0.7916    4.3374    0.0412 H   0  0  0  0  0  0  0  0  0  0  0  0
    0.1893    3.0830   -0.7529 H   0  0  0  0  0  0  0  0  0  0  0  0
   -1.3141    3.6408   -1.4980 H   0  0  0  0  0  0  0  0  0  0  0  0
  1 11  1  0  0  0  0
  1 13  1  0  0  0  0
  2 14  1  0  0  0  0
  2 17  1  0  0  0  0
  3 20  1  0  0  0  0
  3 21  1  0  0  0  0
  4 16  2  0  0  0  0
  5  9  1  0  0  0  0
  5 18  1  0  0  0  0
  5 27  1  0  0  0  0
  6 14  1  0  0  0  0
  6 16  1  0  0  0  0
  6 30  1  0  0  0  0
  7 10  1  0  0  0  0
  7 14  2  0  0  0  0
  8 12  1  0  0  0  0
  8 21  2  0  0  0  0
  9 10  1  0  0  0  0
  9 15  2  0  0  0  0
 10 17  2  0  0  0  0
 11 12  1  0  0  0  0
 11 23  1  0  0  0  0
 11 24  1  0  0  0  0
 12 20  2  0  0  0  0
 13 16  1  0  0  0  0
 13 25  1  0  0  0  0
 13 26  1  0  0  0  0
 15 19  1  0  0  0  0
 15 28  1  0  0  0  0
 17 29  1  0  0  0  0
 18 19  2  0  0  0  0
 18 31  1  0  0  0  0
 19 32  1  0  0  0  0
 20 33  1  0  0  0  0
 21 22  1  0  0  0  0
 22 34  1  0  0  0  0
 22 35  1  0  0  0  0
 22 36  1  0  0  0  0
M  END
> <PUBCHEM_COMPOUND_CID>
17396463

> <PUBCHEM_CONFORMER_RMSD>
1.2

> <PUBCHEM_CONFORMER_DIVERSEORDER>
1
95
85
41
74
64
14
67
34
44
81
82
39
53
90
109
43
26
28
23
87
57
18
100
52
19
32
27
59
75
3
105
60
15
102
16
83
97
62
99
31
29
77
5
72
92
49
21
42
107
69
68
7
11
45
96
51
73
103
55
71
70
35
25
91
22
61
54
104
46
40
30
58
76
80
2
101
20
8
13
48
94
47
65
4
66
9
84
98
89
6
78
37
106
36
10
63
108
93
79
17
38
86
88
50
33
56
24
12

> <PUBCHEM_MMFF94_PARTIAL_CHARGES>
29
1 -0.46
10 0.23
11 0.41
12 0.05
13 0.29
14 0.44
15 -0.15
16 0.57
17 -0.11
18 -0.3
19 -0.15
2 -0.08
20 -0.11
21 0.2
22 0.18
27 0.27
28 0.15
29 0.15
3 -0.08
30 0.37
31 0.15
32 0.15
33 0.15
4 -0.57
5 0.03
6 -0.49
7 -0.57
8 -0.57
9 -0.15

> <PUBCHEM_EFFECTIVE_ROTOR_COUNT>
7

> <PUBCHEM_PHARMACOPHORE_FEATURES>
8
1 4 acceptor
1 5 cation
1 5 donor
1 6 donor
1 8 acceptor
5 2 7 10 14 17 rings
5 3 8 12 20 21 rings
5 5 9 15 18 19 rings

> <PUBCHEM_HEAVY_ATOM_COUNT>
22

> <PUBCHEM_ATOM_DEF_STEREO_COUNT>
0

> <PUBCHEM_ATOM_UDEF_STEREO_COUNT>
0

> <PUBCHEM_BOND_DEF_STEREO_COUNT>
0

> <PUBCHEM_BOND_UDEF_STEREO_COUNT>
0

> <PUBCHEM_ISOTOPIC_ATOM_COUNT>
0

> <PUBCHEM_COMPONENT_COUNT>
1

> <PUBCHEM_CACTVS_TAUTO_COUNT>
3

> <PUBCHEM_CONFORMER_ID>
010972EF00000001

> <PUBCHEM_MMFF94_ENERGY>
20.5772

> <PUBCHEM_FEATURE_SELFOVERLAP>
40.594

> <PUBCHEM_SHAPE_FINGERPRINT>
10498660 4 18261117408348294093
10730089 88 17095510808021632894
10759866 29 18268436900314978323
10871710 139 18412541041872280685
10906281 52 18191020313349156225
11045977 3 12535348970130393078
11370993 70 16917342658196279361
11640471 11 18270681003399225176
12011746 2 17312829286290240445
12597179 24 6913499824712031739
12788726 201 18337118959691365489
13583140 156 15482389764350947344
13994607 96 17987215786077784298
14251751 93 18265328594044097372
14787075 74 18059002892145561931
14840074 17 18337940277740052241
14910302 57 17240759618714278078
15183329 4 18342447172208530998
15575132 122 18339357565234038549
17357779 13 17459208312582754831
17492 54 18410867572685068477
20715895 44 17407137907498703333
21623110 236 18115583721397741160
21864079 5 18129096891370116986
22907989 373 18192447474556399997
23402539 116 18334296431395737510
23419403 2 17341799029458983819
23557571 272 17386298584143325450
474 4 17917992772145923714

> <PUBCHEM_SHAPE_MULTIPOLES>
438.5
9.34
2.79
1.9
8.82
1.52
0.27
1.4
-3.4
-1.57
0.27
-0.34
-0.42
-1.97

> <PUBCHEM_SHAPE_SELFOVERLAP>
898.454

> <PUBCHEM_SHAPE_VOLUME>
257.3

> <PUBCHEM_COORDINATE_TYPE>
2
5
10

$$$$

