12843
  -OEChem-06261207263D

 26 26  0     1  0  0  0  0  0999 V2000
    4.7758    1.2160   -0.5881 Cl  0  0  0  0  0  0  0  0  0  0  0  0
   -2.0521    0.3734    0.3827 O   0  0  0  0  0  0  0  0  0  0  0  0
   -3.3219    0.7469   -1.5009 O   0  0  0  0  0  0  0  0  0  0  0  0
   -3.8443    1.7318    0.5099 N   0  0  0  0  0  0  0  0  0  0  0  0
   -0.4460   -1.3955    0.8048 C   0  0  0  0  0  0  0  0  0  0  0  0
   -1.6132   -0.9053   -0.0727 C   0  0  1  0  0  0  0  0  0  0  0  0
    0.8513   -0.7461    0.4579 C   0  0  0  0  0  0  0  0  0  0  0  0
   -2.7976   -1.8626   -0.0314 C   0  0  0  0  0  0  0  0  0  0  0  0
    1.6863   -1.3232   -0.4986 C   0  0  0  0  0  0  0  0  0  0  0  0
    1.2297    0.4379    1.0910 C   0  0  0  0  0  0  0  0  0  0  0  0
    2.8999   -0.7165   -0.8221 C   0  0  0  0  0  0  0  0  0  0  0  0
    2.4432    1.0447    0.7675 C   0  0  0  0  0  0  0  0  0  0  0  0
    3.2784    0.4676   -0.1892 C   0  0  0  0  0  0  0  0  0  0  0  0
   -3.0896    0.9308   -0.3109 C   0  0  0  0  0  0  0  0  0  0  0  0
   -0.3294   -2.4821    0.7000 H   0  0  0  0  0  0  0  0  0  0  0  0
   -0.6727   -1.2167    1.8642 H   0  0  0  0  0  0  0  0  0  0  0  0
   -1.2690   -0.8135   -1.1115 H   0  0  0  0  0  0  0  0  0  0  0  0
   -3.2561   -1.8721    0.9640 H   0  0  0  0  0  0  0  0  0  0  0  0
   -3.5850   -1.5959   -0.7420 H   0  0  0  0  0  0  0  0  0  0  0  0
   -2.4816   -2.8827   -0.2740 H   0  0  0  0  0  0  0  0  0  0  0  0
    1.4021   -2.2443   -1.0006 H   0  0  0  0  0  0  0  0  0  0  0  0
    0.5878    0.8982    1.8375 H   0  0  0  0  0  0  0  0  0  0  0  0
    3.5403   -1.1773   -1.5698 H   0  0  0  0  0  0  0  0  0  0  0  0
    2.7250    1.9672    1.2687 H   0  0  0  0  0  0  0  0  0  0  0  0
   -3.6117    1.8519    1.4900 H   0  0  0  0  0  0  0  0  0  0  0  0
   -4.6582    2.2273    0.1620 H   0  0  0  0  0  0  0  0  0  0  0  0
  1 13  1  0  0  0  0
  2  6  1  0  0  0  0
  2 14  1  0  0  0  0
  3 14  2  0  0  0  0
  4 14  1  0  0  0  0
  4 25  1  0  0  0  0
  4 26  1  0  0  0  0
  5  6  1  0  0  0  0
  5  7  1  0  0  0  0
  5 15  1  0  0  0  0
  5 16  1  0  0  0  0
  6  8  1  0  0  0  0
  6 17  1  0  0  0  0
  7  9  2  0  0  0  0
  7 10  1  0  0  0  0
  8 18  1  0  0  0  0
  8 19  1  0  0  0  0
  8 20  1  0  0  0  0
  9 11  1  0  0  0  0
  9 21  1  0  0  0  0
 10 12  2  0  0  0  0
 10 22  1  0  0  0  0
 11 13  2  0  0  0  0
 11 23  1  0  0  0  0
 12 13  1  0  0  0  0
 12 24  1  0  0  0  0
M  END
> <PUBCHEM_COMPOUND_CID>
12843

> <PUBCHEM_CONFORMER_RMSD>
0.6

> <PUBCHEM_CONFORMER_DIVERSEORDER>
2
37
19
9
25
38
39
8
6
13
14
34
11
33
31
28
35
3
15
5
24
16
20
41
40
4
10
32
27
18
1
23
22
7
36
29
12
26
30
17
21

> <PUBCHEM_MMFF94_PARTIAL_CHARGES>
19
1 -0.18
10 -0.15
11 -0.15
12 -0.15
13 0.18
14 0.78
2 -0.43
21 0.15
22 0.15
23 0.15
24 0.15
25 0.37
26 0.37
3 -0.57
4 -0.8
5 0.14
6 0.28
7 -0.14
9 -0.15

> <PUBCHEM_EFFECTIVE_ROTOR_COUNT>
4

> <PUBCHEM_PHARMACOPHORE_FEATURES>
3
1 3 acceptor
1 4 donor
6 7 9 10 11 12 13 rings

> <PUBCHEM_HEAVY_ATOM_COUNT>
14

> <PUBCHEM_ATOM_DEF_STEREO_COUNT>
0

> <PUBCHEM_ATOM_UDEF_STEREO_COUNT>
1

> <PUBCHEM_BOND_DEF_STEREO_COUNT>
0

> <PUBCHEM_BOND_UDEF_STEREO_COUNT>
0

> <PUBCHEM_ISOTOPIC_ATOM_COUNT>
0

> <PUBCHEM_COMPONENT_COUNT>
1

> <PUBCHEM_CACTVS_TAUTO_COUNT>
2

> <PUBCHEM_CONFORMER_ID>
0000322B00000002

> <PUBCHEM_MMFF94_ENERGY>
31.3286

> <PUBCHEM_FEATURE_SELFOVERLAP>
15.223

> <PUBCHEM_SHAPE_FINGERPRINT>
10498660 4 18130516296452110301
10608611 8 18334860472080727024
10618630 7 8142077672005377185
11769659 78 6915992439204485684
12251169 10 12319449987401192064
13380535 21 18412260670707309987
13764800 53 18130779079889014475
15775835 57 18060423533702810513
17834072 14 9655285991835515171
17834072 32 18202002109788736460
18186145 218 18341326786037226678
20281475 54 7997702990917204464
20361792 2 4750871563548172363
20645477 56 18412258419991082731
20645477 70 17895181243101645014
20671657 53 14706931747936009106
20711983 171 18272653420249289198
20767249 442 17846225487600027053
20871999 31 18187369783724603167
21501502 16 18412833490300541602
21713013 43 16154003343711924005
22646028 28 6411297931447565060
22802520 49 18186800287850327203
22926399 65 18341891879321714440
231179 274 17917435345372680556
23402539 116 18271532979177535462
23402655 69 17822571715205375041
23500284 214 18201712964047368569
23557571 272 18263351525691873103
23559900 14 18335699490623394866
25 1 18408882970807200114
305870 269 17775012309834179650
3268164 11 18269000795182323447
4028521 119 18341619234655443789
76465 3 8142088620030417900
81228 2 18057880243603146891
9882013 296 11239702085403026566

> <PUBCHEM_SHAPE_MULTIPOLES>
273.26
7.9
1.78
1.05
1.2
0.11
0.07
-3.86
2.04
-1.12
-0.02
-0.03
-0.12
0.28

> <PUBCHEM_SHAPE_SELFOVERLAP>
550.099

> <PUBCHEM_SHAPE_VOLUME>
161.1

> <PUBCHEM_COORDINATE_TYPE>
2
5
10

$$$$

