259037
  -OEChem-07051213152D

 74 78  0     1  0  0  0  0  0999 V2000
    8.4073   -1.3324    0.0000 O   0  0  0  0  0  0  0  0  0  0  0  0
    2.0000    4.0468    0.0000 O   0  0  0  0  0  0  0  0  0  0  0  0
   12.2101   -4.0501    0.0000 O   0  0  0  0  0  0  0  0  0  0  0  0
    6.4739    0.4024    0.0000 C   0  0  2  0  0  0  0  0  0  0  0  0
    7.3399    0.9024    0.0000 C   0  0  1  0  0  0  0  0  0  0  0  0
    5.6079    0.9024    0.0000 C   0  0  1  0  0  0  0  0  0  0  0  0
    5.6079    1.9024    0.0000 C   0  0  1  0  0  0  0  0  0  0  0  0
    4.7140    2.4371    0.0000 C   0  0  2  0  0  0  0  0  0  0  0  0
    8.0770    0.2353    0.0000 C   0  0  2  0  0  0  0  0  0  0  0  0
    7.3399    1.9024    0.0000 C   0  0  0  0  0  0  0  0  0  0  0  0
    6.6831   -0.5694    0.0000 C   0  0  0  0  0  0  0  0  0  0  0  0
    6.4739    2.4024    0.0000 C   0  0  0  0  0  0  0  0  0  0  0  0
    3.8079    1.9232    0.0000 C   0  0  2  0  0  0  0  0  0  0  0  0
    7.6718   -0.6725    0.0000 C   0  0  2  0  0  0  0  0  0  0  0  0
    4.7140    0.3677    0.0000 C   0  0  0  0  0  0  0  0  0  0  0  0
    3.8079    0.8816    0.0000 C   0  0  0  0  0  0  0  0  0  0  0  0
    4.7390    3.5218    0.0000 C   0  0  0  0  0  0  0  0  0  0  0  0
    8.2060    1.4024    0.0000 C   0  0  0  0  0  0  0  0  0  0  0  0
    2.8641    2.4585    0.0000 C   0  0  0  0  0  0  0  0  0  0  0  0
    9.0594    0.1286    0.0000 C   0  0  0  0  0  0  0  0  0  0  0  0
    5.5838    2.9304    0.0000 C   0  0  0  0  0  0  0  0  0  0  0  0
    3.8079    4.0787    0.0000 C   0  0  0  0  0  0  0  0  0  0  0  0
    2.8641    3.5435    0.0000 C   0  0  2  0  0  0  0  0  0  0  0  0
    9.2632   -0.8383    0.0000 C   0  0  0  0  0  0  0  0  0  0  0  0
    9.7304    0.8700    0.0000 C   0  0  0  0  0  0  0  0  0  0  0  0
   10.1763   -1.2458    0.0000 C   0  0  0  0  0  0  0  0  0  0  0  0
   10.2800   -2.2405    0.0000 C   0  0  0  0  0  0  0  0  0  0  0  0
   11.1932   -2.6480    0.0000 C   0  0  2  0  0  0  0  0  0  0  0  0
   11.2969   -3.6426    0.0000 C   0  0  0  0  0  0  0  0  0  0  0  0
   12.0027   -2.0609    0.0000 C   0  0  0  0  0  0  0  0  0  0  0  0
    5.7869   -0.0981    0.0000 H   0  0  0  0  0  0  0  0  0  0  0  0
    5.6144    0.0524    0.0000 H   0  0  0  0  0  0  0  0  0  0  0  0
    6.3440    1.4774    0.0000 H   0  0  0  0  0  0  0  0  0  0  0  0
    8.4250    1.0108    0.0000 H   0  0  0  0  0  0  0  0  0  0  0  0
    7.9505    1.7948    0.0000 H   0  0  0  0  0  0  0  0  0  0  0  0
    7.5520    2.4850    0.0000 H   0  0  0  0  0  0  0  0  0  0  0  0
    6.0666   -0.6355    0.0000 H   0  0  0  0  0  0  0  0  0  0  0  0
    6.6840   -1.1894    0.0000 H   0  0  0  0  0  0  0  0  0  0  0  0
    6.8724    2.8774    0.0000 H   0  0  0  0  0  0  0  0  0  0  0  0
    6.0754    2.8774    0.0000 H   0  0  0  0  0  0  0  0  0  0  0  0
    3.0734    1.4954    0.0000 H   0  0  0  0  0  0  0  0  0  0  0  0
    7.3271   -1.4494    0.0000 H   0  0  0  0  0  0  0  0  0  0  0  0
    4.3203   -0.1113    0.0000 H   0  0  0  0  0  0  0  0  0  0  0  0
    5.1185   -0.1020    0.0000 H   0  0  0  0  0  0  0  0  0  0  0  0
    3.1970    0.9877    0.0000 H   0  0  0  0  0  0  0  0  0  0  0  0
    3.5988    0.2979    0.0000 H   0  0  0  0  0  0  0  0  0  0  0  0
    5.3473    3.4016    0.0000 H   0  0  0  0  0  0  0  0  0  0  0  0
    4.9615    4.1005    0.0000 H   0  0  0  0  0  0  0  0  0  0  0  0
    8.5160    0.8655    0.0000 H   0  0  0  0  0  0  0  0  0  0  0  0
    8.7429    1.7124    0.0000 H   0  0  0  0  0  0  0  0  0  0  0  0
    7.8960    1.9394    0.0000 H   0  0  0  0  0  0  0  0  0  0  0  0
    2.2532    2.5646    0.0000 H   0  0  0  0  0  0  0  0  0  0  0  0
    2.6550    1.8748    0.0000 H   0  0  0  0  0  0  0  0  0  0  0  0
    5.8896    2.3911    0.0000 H   0  0  0  0  0  0  0  0  0  0  0  0
    6.1231    3.2362    0.0000 H   0  0  0  0  0  0  0  0  0  0  0  0
    5.2780    3.4697    0.0000 H   0  0  0  0  0  0  0  0  0  0  0  0
    4.2125    4.5485    0.0000 H   0  0  0  0  0  0  0  0  0  0  0  0
    3.4142    4.5577    0.0000 H   0  0  0  0  0  0  0  0  0  0  0  0
    2.3266    3.2345    0.0000 H   0  0  0  0  0  0  0  0  0  0  0  0
   10.1901    0.4540    0.0000 H   0  0  0  0  0  0  0  0  0  0  0  0
   10.1465    1.3297    0.0000 H   0  0  0  0  0  0  0  0  0  0  0  0
    9.2708    1.2861    0.0000 H   0  0  0  0  0  0  0  0  0  0  0  0
   10.7948   -1.2896    0.0000 H   0  0  0  0  0  0  0  0  0  0  0  0
   10.3269   -0.6444    0.0000 H   0  0  0  0  0  0  0  0  0  0  0  0
    2.0024    4.6668    0.0000 H   0  0  0  0  0  0  0  0  0  0  0  0
    9.6616   -2.1967    0.0000 H   0  0  0  0  0  0  0  0  0  0  0  0
   10.1295   -2.8419    0.0000 H   0  0  0  0  0  0  0  0  0  0  0  0
   11.1289   -2.0313    0.0000 H   0  0  0  0  0  0  0  0  0  0  0  0
   10.6784   -3.5988    0.0000 H   0  0  0  0  0  0  0  0  0  0  0  0
   11.1464   -4.2440    0.0000 H   0  0  0  0  0  0  0  0  0  0  0  0
   12.3667   -2.5628    0.0000 H   0  0  0  0  0  0  0  0  0  0  0  0
   12.5046   -1.6969    0.0000 H   0  0  0  0  0  0  0  0  0  0  0  0
   11.6387   -1.5590    0.0000 H   0  0  0  0  0  0  0  0  0  0  0  0
   12.2743   -4.6668    0.0000 H   0  0  0  0  0  0  0  0  0  0  0  0
  1 14  1  0  0  0  0
  1 24  1  0  0  0  0
 23  2  1  1  0  0  0
  2 65  1  0  0  0  0
  3 29  1  0  0  0  0
  3 74  1  0  0  0  0
  4  5  1  0  0  0  0
  4  6  1  0  0  0  0
  4 11  1  0  0  0  0
  4 31  1  6  0  0  0
  5  9  1  0  0  0  0
  5 10  1  0  0  0  0
  5 18  1  1  0  0  0
  6  7  1  0  0  0  0
  6 15  1  0  0  0  0
  6 32  1  1  0  0  0
  7  8  1  0  0  0  0
  7 12  1  0  0  0  0
  7 33  1  6  0  0  0
  8 13  1  0  0  0  0
  8 17  1  0  0  0  0
  8 21  1  1  0  0  0
  9 14  1  0  0  0  0
  9 20  1  0  0  0  0
  9 34  1  6  0  0  0
 10 12  1  0  0  0  0
 10 35  1  0  0  0  0
 10 36  1  0  0  0  0
 11 14  1  0  0  0  0
 11 37  1  0  0  0  0
 11 38  1  0  0  0  0
 12 39  1  0  0  0  0
 12 40  1  0  0  0  0
 13 16  1  0  0  0  0
 13 19  1  0  0  0  0
 13 41  1  1  0  0  0
 14 42  1  6  0  0  0
 15 16  1  0  0  0  0
 15 43  1  0  0  0  0
 15 44  1  0  0  0  0
 16 45  1  0  0  0  0
 16 46  1  0  0  0  0
 17 22  1  0  0  0  0
 17 47  1  0  0  0  0
 17 48  1  0  0  0  0
 18 49  1  0  0  0  0
 18 50  1  0  0  0  0
 18 51  1  0  0  0  0
 19 23  1  0  0  0  0
 19 52  1  0  0  0  0
 19 53  1  0  0  0  0
 20 24  2  0  0  0  0
 20 25  1  0  0  0  0
 21 54  1  0  0  0  0
 21 55  1  0  0  0  0
 21 56  1  0  0  0  0
 22 23  1  0  0  0  0
 22 57  1  0  0  0  0
 22 58  1  0  0  0  0
 23 59  1  0  0  0  0
 24 26  1  0  0  0  0
 25 60  1  0  0  0  0
 25 61  1  0  0  0  0
 25 62  1  0  0  0  0
 26 27  1  0  0  0  0
 26 63  1  0  0  0  0
 26 64  1  0  0  0  0
 27 28  1  0  0  0  0
 27 66  1  0  0  0  0
 27 67  1  0  0  0  0
 28 29  1  0  0  0  0
 28 30  1  1  0  0  0
 28 68  1  0  0  0  0
 29 69  1  0  0  0  0
 29 70  1  0  0  0  0
 30 71  1  0  0  0  0
 30 72  1  0  0  0  0
 30 73  1  0  0  0  0
M  END
> <PUBCHEM_COMPOUND_CID>
259037

> <PUBCHEM_COMPOUND_CANONICALIZED>
1

> <PUBCHEM_CACTVS_COMPLEXITY>
700

> <PUBCHEM_CACTVS_HBOND_ACCEPTOR>
3

> <PUBCHEM_CACTVS_HBOND_DONOR>
2

> <PUBCHEM_CACTVS_ROTATABLE_BOND>
4

> <PUBCHEM_CACTVS_SUBSKEYS>
AAADcfB4MAAAAAAAAAAAAAAAAAAAAYIAAAAwYMAAAAAQAGDAAAAAGgAACAAADxSggAICAAAABgCAAgBAAAAACAAgIAAACAAAAAgAEAIAAAACQAAEwAAIAAOA4PgPgAAAAAAAAADAAAYAACAAAYAADAAAAA==

> <PUBCHEM_IUPAC_INCHI>
InChI=1S/C27H44O3/c1-16(15-28)5-8-23-17(2)25-24(30-23)14-22-20-7-6-18-13-19(29)9-11-26(18,3)21(20)10-12-27(22,25)4/h16,18-22,24-25,28-29H,5-15H2,1-4H3/t16-,18-,19+,20-,21+,22+,24+,25+,26+,27+/m1/s1

> <PUBCHEM_IUPAC_INCHIKEY>
IQDKIMJGXXRZGR-HUEIYZRMSA-N

> <PUBCHEM_XLOGP3_AA>
5.7

> <PUBCHEM_EXACT_MASS>
416.329045

> <PUBCHEM_MOLECULAR_FORMULA>
C27H44O3

> <PUBCHEM_MOLECULAR_WEIGHT>
416.63646

> <PUBCHEM_OPENEYE_CAN_SMILES>
CC1=C(OC2C1C3(CCC4C(C3C2)CCC5C4(CCC(C5)O)C)C)CCC(C)CO

> <PUBCHEM_OPENEYE_ISO_SMILES>
CC1=C(O[C@@H]2[C@H]1[C@]3(CC[C@H]4[C@H]([C@@H]3C2)CC[C@H]5[C@@]4(CC[C@@H](C5)O)C)C)CC[C@@H](C)CO

> <PUBCHEM_CACTVS_TPSA>
49.7

> <PUBCHEM_MONOISOTOPIC_WEIGHT>
416.329045

> <PUBCHEM_TOTAL_CHARGE>
0

> <PUBCHEM_HEAVY_ATOM_COUNT>
30

> <PUBCHEM_ATOM_DEF_STEREO_COUNT>
10

> <PUBCHEM_ATOM_UDEF_STEREO_COUNT>
0

> <PUBCHEM_BOND_DEF_STEREO_COUNT>
0

> <PUBCHEM_BOND_UDEF_STEREO_COUNT>
0

> <PUBCHEM_ISOTOPIC_ATOM_COUNT>
0

> <PUBCHEM_COMPONENT_COUNT>
1

> <PUBCHEM_CACTVS_TAUTO_COUNT>
1

> <PUBCHEM_COORDINATE_TYPE>
1
5
255

> <PUBCHEM_BONDANNOTATIONS>
13  41  5
14  42  6
23  2  5
28  30  5
4  31  6
5  18  5
6  32  5
7  33  6
8  21  5
9  34  6

$$$$

