17395681
  -OEChem-06241222513D

 42 44  0     1  0  0  0  0  0999 V2000
   -4.3199    1.0260    0.0764 S   0  0  0  0  0  0  0  0  0  0  0  0
    6.0146   -0.6717   -0.6369 F   0  0  0  0  0  0  0  0  0  0  0  0
   -0.1110   -2.4262    1.6870 O   0  0  0  0  0  0  0  0  0  0  0  0
   -0.3242   -0.9198   -0.0685 N   0  0  0  0  0  0  0  0  0  0  0  0
   -0.5052    2.3791    0.8669 N   0  0  0  0  0  0  0  0  0  0  0  0
    0.0376    1.9044   -1.2336 N   0  0  0  0  0  0  0  0  0  0  0  0
    0.5330    0.1097    0.4719 C   0  0  2  0  0  0  0  0  0  0  0  0
    0.0278    1.4622    0.0043 C   0  0  0  0  0  0  0  0  0  0  0  0
    2.0065   -0.1000    0.1738 C   0  0  0  0  0  0  0  0  0  0  0  0
   -1.5058   -3.0093   -0.2034 C   0  0  0  0  0  0  0  0  0  0  0  0
   -0.5748   -2.1128    0.5939 C   0  0  0  0  0  0  0  0  0  0  0  0
   -2.9786   -2.7660    0.1282 C   0  0  0  0  0  0  0  0  0  0  0  0
    2.3951   -0.7586   -0.9928 C   0  0  0  0  0  0  0  0  0  0  0  0
    2.9720    0.3654    1.0666 C   0  0  0  0  0  0  0  0  0  0  0  0
   -0.8575    3.4762    0.1324 C   0  0  0  0  0  0  0  0  0  0  0  0
   -3.4060   -1.3617   -0.1759 C   0  0  0  0  0  0  0  0  0  0  0  0
   -0.6720    2.2328    2.2936 C   0  0  0  0  0  0  0  0  0  0  0  0
   -0.5125    3.1597   -1.1605 C   0  0  0  0  0  0  0  0  0  0  0  0
    3.7490   -0.9517   -1.2667 C   0  0  0  0  0  0  0  0  0  0  0  0
    4.3260    0.1721    0.7928 C   0  0  0  0  0  0  0  0  0  0  0  0
    4.7145   -0.4863   -0.3739 C   0  0  0  0  0  0  0  0  0  0  0  0
   -3.3018   -0.7605   -1.4634 C   0  0  0  0  0  0  0  0  0  0  0  0
   -3.9433   -0.5002    0.7553 C   0  0  0  0  0  0  0  0  0  0  0  0
   -3.7636    0.5372   -1.4675 C   0  0  0  0  0  0  0  0  0  0  0  0
    0.4307    0.0320    1.5608 H   0  0  0  0  0  0  0  0  0  0  0  0
   -0.6851   -0.7896   -1.0088 H   0  0  0  0  0  0  0  0  0  0  0  0
   -1.3136   -2.8852   -1.2759 H   0  0  0  0  0  0  0  0  0  0  0  0
   -1.2461   -4.0477    0.0354 H   0  0  0  0  0  0  0  0  0  0  0  0
   -3.1517   -2.9861    1.1892 H   0  0  0  0  0  0  0  0  0  0  0  0
   -3.6007   -3.4622   -0.4471 H   0  0  0  0  0  0  0  0  0  0  0  0
    1.6662   -1.1206   -1.7123 H   0  0  0  0  0  0  0  0  0  0  0  0
    2.6827    0.8809    1.9784 H   0  0  0  0  0  0  0  0  0  0  0  0
   -1.3069    4.3557    0.5720 H   0  0  0  0  0  0  0  0  0  0  0  0
   -1.3087    1.3652    2.4840 H   0  0  0  0  0  0  0  0  0  0  0  0
   -1.1492    3.1301    2.6966 H   0  0  0  0  0  0  0  0  0  0  0  0
    0.3131    2.1065    2.7492 H   0  0  0  0  0  0  0  0  0  0  0  0
   -0.6333    3.7713   -2.0426 H   0  0  0  0  0  0  0  0  0  0  0  0
    4.0523   -1.4619   -2.1762 H   0  0  0  0  0  0  0  0  0  0  0  0
    5.0780    0.5345    1.4874 H   0  0  0  0  0  0  0  0  0  0  0  0
   -2.9127   -1.2484   -2.3480 H   0  0  0  0  0  0  0  0  0  0  0  0
   -4.1334   -0.6879    1.8029 H   0  0  0  0  0  0  0  0  0  0  0  0
   -3.8001    1.2219   -2.3031 H   0  0  0  0  0  0  0  0  0  0  0  0
  1 23  1  0  0  0  0
  1 24  1  0  0  0  0
  2 21  1  0  0  0  0
  3 11  2  0  0  0  0
  4  7  1  0  0  0  0
  4 11  1  0  0  0  0
  4 26  1  0  0  0  0
  5  8  1  0  0  0  0
  5 15  1  0  0  0  0
  5 17  1  0  0  0  0
  6  8  2  0  0  0  0
  6 18  1  0  0  0  0
  7  8  1  0  0  0  0
  7  9  1  0  0  0  0
  7 25  1  0  0  0  0
  9 13  2  0  0  0  0
  9 14  1  0  0  0  0
 10 11  1  0  0  0  0
 10 12  1  0  0  0  0
 10 27  1  0  0  0  0
 10 28  1  0  0  0  0
 12 16  1  0  0  0  0
 12 29  1  0  0  0  0
 12 30  1  0  0  0  0
 13 19  1  0  0  0  0
 13 31  1  0  0  0  0
 14 20  2  0  0  0  0
 14 32  1  0  0  0  0
 15 18  2  0  0  0  0
 15 33  1  0  0  0  0
 16 22  1  0  0  0  0
 16 23  2  0  0  0  0
 17 34  1  0  0  0  0
 17 35  1  0  0  0  0
 17 36  1  0  0  0  0
 18 37  1  0  0  0  0
 19 21  2  0  0  0  0
 19 38  1  0  0  0  0
 20 21  1  0  0  0  0
 20 39  1  0  0  0  0
 22 24  2  0  0  0  0
 22 40  1  0  0  0  0
 23 41  1  0  0  0  0
 24 42  1  0  0  0  0
M  END
> <PUBCHEM_COMPOUND_CID>
17395681

> <PUBCHEM_CONFORMER_RMSD>
0.8

> <PUBCHEM_CONFORMER_DIVERSEORDER>
2
197
278
210
165
248
157
181
31
170
168
116
57
244
180
233
190
232
252
275
138
24
237
25
212
295
264
217
54
253
126
62
194
45
131
26
214
139
152
171
119
104
246
187
215
274
230
108
271
112
192
83
216
172
154
277
145
8
268
263
272
21
90
240
222
256
140
147
44
49
205
101
183
175
74
150
91
19
53
185
41
247
135
288
130
203
191
209
196
153
17
285
289
133
174
111
279
208
105
204
37
15
221
200
100
206
33
85
107
243
276
92
80
267
109
82
59
293
20
42
128
76
50
182
291
158
141
257
132
35
73
63
122
179
97
9
159
96
266
68
286
38
188
66
51
29
102
32
61
234
270
28
114
265
156
269
60
10
55
134
241
280
148
7
245
27
238
176
127
149
70
46
34
88
173
160
281
84
95
294
195
40
69
47
261
163
129
177
251
58
36
94
89
137
236
296
282
93
198
151
201
166
65
284
125
48
56
167
98
193
18
226
218
283
144
229
75
186
249
106
273
227
30
121
11
202
290
43
87
99
22
118
52
5
155
113
213
292
224
146
67
79
178
219
72
86
255
23
207
162
220
161
13
6
110
16
142
225
77
81
3
258
143
78
189
103
123
4
120
71
124
39
117
12
254
184
242
164
1
239
169
235
259
14
64
115
199
223
136
260
231
262
287
211
250
228

> <PUBCHEM_MMFF94_PARTIAL_CHARGES>
34
1 -0.08
10 0.06
11 0.57
12 0.18
13 -0.15
14 -0.15
15 -0.3
16 -0.18
17 0.26
18 0.08
19 -0.15
2 -0.19
20 -0.15
21 0.19
22 -0.15
23 -0.11
24 -0.11
26 0.37
3 -0.57
31 0.15
32 0.15
33 0.15
37 0.15
38 0.15
39 0.15
4 -0.73
40 0.15
41 0.15
42 0.15
5 0.05
6 -0.57
7 0.62
8 0.01
9 -0.14

> <PUBCHEM_EFFECTIVE_ROTOR_COUNT>
7

> <PUBCHEM_PHARMACOPHORE_FEATURES>
6
1 3 acceptor
1 4 donor
3 5 6 8 cation
5 1 16 22 23 24 rings
5 5 6 8 15 18 rings
6 9 13 14 19 20 21 rings

> <PUBCHEM_HEAVY_ATOM_COUNT>
24

> <PUBCHEM_ATOM_DEF_STEREO_COUNT>
0

> <PUBCHEM_ATOM_UDEF_STEREO_COUNT>
1

> <PUBCHEM_BOND_DEF_STEREO_COUNT>
0

> <PUBCHEM_BOND_UDEF_STEREO_COUNT>
0

> <PUBCHEM_ISOTOPIC_ATOM_COUNT>
0

> <PUBCHEM_COMPONENT_COUNT>
1

> <PUBCHEM_CACTVS_TAUTO_COUNT>
2

> <PUBCHEM_CONFORMER_ID>
01096FE100000002

> <PUBCHEM_MMFF94_ENERGY>
34.9596

> <PUBCHEM_FEATURE_SELFOVERLAP>
30.446

> <PUBCHEM_SHAPE_FINGERPRINT>
104564 63 18265617769992342473
10759866 29 17559687319751653490
11646440 116 18334003996200265569
12011746 2 18271257070990020311
12553582 1 18341060678622130705
12788726 201 18342740749738033976
12954195 1 18264200495425371878
13134695 92 17677897812214162521
13681431 1 17906724813696291528
14251740 79 18339639066038444962
14251757 5 18201428135023349350
14790565 3 18340198708751504245
14955137 171 18339624665023456651
16728300 4 16537694212402853065
16752209 62 18271254922947014402
17357779 13 18260834790994607292
17980427 23 4967618324975654731
20600515 1 18411417272179305724
21033648 29 17677057841070587115
21285901 2 18260823834438252718
23402539 116 18410293622951279886
23419403 2 17970371237833781097
23557571 272 18187642557287417684
23558518 356 18126271180904960846
23559900 14 18408887326605586638
2818148 4 17838597982544606467
3027735 51 18191587656046351275
350125 39 17979917434293929474
469060 322 17987781025692282497
5283173 99 18341898463606858124
7226269 152 18342463642590199274
81228 2 18339345436224730354

> <PUBCHEM_SHAPE_MULTIPOLES>
469.67
8.69
3.61
1.51
7.48
1.35
0.24
-3.15
-1.91
-2.59
0.35
-0.16
0.46
0.48

> <PUBCHEM_SHAPE_SELFOVERLAP>
993.706

> <PUBCHEM_SHAPE_VOLUME>
267.7

> <PUBCHEM_COORDINATE_TYPE>
2
5
10

$$$$

