442766
  -OEChem-07051212592D

 30 32  0     0  0  0  0  0  0999 V2000
    6.4144    1.9377    0.0000 O   0  0  0  0  0  0  0  0  0  0  0  0
    6.4144   -2.1315    0.0000 O   0  0  0  0  0  0  0  0  0  0  0  0
    4.6660    1.9031    0.0000 O   0  0  0  0  0  0  0  0  0  0  0  0
    4.6660   -2.0969    0.0000 O   0  0  0  0  0  0  0  0  0  0  0  0
    8.1962    0.9273    0.0000 O   0  0  0  0  0  0  0  0  0  0  0  0
    5.5321    0.4031    0.0000 C   0  0  0  0  0  0  0  0  0  0  0  0
    5.5321   -0.5969    0.0000 C   0  0  0  0  0  0  0  0  0  0  0  0
    3.8000    0.4031    0.0000 C   0  0  0  0  0  0  0  0  0  0  0  0
    3.8000   -0.5969    0.0000 C   0  0  0  0  0  0  0  0  0  0  0  0
    4.6660    0.9031    0.0000 C   0  0  0  0  0  0  0  0  0  0  0  0
    4.6660   -1.0969    0.0000 C   0  0  0  0  0  0  0  0  0  0  0  0
    6.4260    0.9378    0.0000 C   0  0  0  0  0  0  0  0  0  0  0  0
    6.4260   -1.1316    0.0000 C   0  0  0  0  0  0  0  0  0  0  0  0
    7.3321    0.4239    0.0000 C   0  0  0  0  0  0  0  0  0  0  0  0
    7.3321   -0.6177    0.0000 C   0  0  0  0  0  0  0  0  0  0  0  0
    2.9061    0.9378    0.0000 C   0  0  0  0  0  0  0  0  0  0  0  0
    2.9061   -1.1316    0.0000 C   0  0  0  0  0  0  0  0  0  0  0  0
    2.0000    0.4239    0.0000 C   0  0  0  0  0  0  0  0  0  0  0  0
    2.0000   -0.6177    0.0000 C   0  0  0  0  0  0  0  0  0  0  0  0
    7.2746    2.4477    0.0000 C   0  0  0  0  0  0  0  0  0  0  0  0
    7.8678   -0.9298    0.0000 H   0  0  0  0  0  0  0  0  0  0  0  0
    2.9132    1.5577    0.0000 H   0  0  0  0  0  0  0  0  0  0  0  0
    2.9132   -1.7515    0.0000 H   0  0  0  0  0  0  0  0  0  0  0  0
    1.4643    0.7360    0.0000 H   0  0  0  0  0  0  0  0  0  0  0  0
    1.4643   -0.9298    0.0000 H   0  0  0  0  0  0  0  0  0  0  0  0
    6.9478   -2.4477    0.0000 H   0  0  0  0  0  0  0  0  0  0  0  0
    8.7343    0.6193    0.0000 H   0  0  0  0  0  0  0  0  0  0  0  0
    7.5908    1.9144    0.0000 H   0  0  0  0  0  0  0  0  0  0  0  0
    7.8079    2.7639    0.0000 H   0  0  0  0  0  0  0  0  0  0  0  0
    6.9584    2.9810    0.0000 H   0  0  0  0  0  0  0  0  0  0  0  0
  1 12  1  0  0  0  0
  1 20  1  0  0  0  0
  2 13  1  0  0  0  0
  2 26  1  0  0  0  0
  3 10  2  0  0  0  0
  4 11  2  0  0  0  0
  5 14  1  0  0  0  0
  5 27  1  0  0  0  0
  6  7  2  0  0  0  0
  6 10  1  0  0  0  0
  6 12  1  0  0  0  0
  7 11  1  0  0  0  0
  7 13  1  0  0  0  0
  8  9  1  0  0  0  0
  8 10  1  0  0  0  0
  8 16  2  0  0  0  0
  9 11  1  0  0  0  0
  9 17  2  0  0  0  0
 12 14  2  0  0  0  0
 13 15  2  0  0  0  0
 14 15  1  0  0  0  0
 15 21  1  0  0  0  0
 16 18  1  0  0  0  0
 16 22  1  0  0  0  0
 17 19  1  0  0  0  0
 17 23  1  0  0  0  0
 18 19  2  0  0  0  0
 18 24  1  0  0  0  0
 19 25  1  0  0  0  0
 20 28  1  0  0  0  0
 20 29  1  0  0  0  0
 20 30  1  0  0  0  0
M  END
> <PUBCHEM_COMPOUND_CID>
442766

> <PUBCHEM_COMPOUND_CANONICALIZED>
1

> <PUBCHEM_CACTVS_COMPLEXITY>
421

> <PUBCHEM_CACTVS_HBOND_ACCEPTOR>
5

> <PUBCHEM_CACTVS_HBOND_DONOR>
2

> <PUBCHEM_CACTVS_ROTATABLE_BOND>
1

> <PUBCHEM_CACTVS_SUBSKEYS>
AAADccBwOAAAAAAAAAAAAAAAAAAAAAAAAAAwYMAAAAAAAADBQAAAGgAACAAADASAmAIyBoAABgCIAqBSAAACCAAkIAAIiAEGiMgNJzaGNRqAcWMl4BULuYfL7PTOoQABCAAYQADCAAYQADCAAAAAAAAAAA==

> <PUBCHEM_IUPAC_OPENEYE_NAME>
2,4-dihydroxy-1-methoxy-anthracene-9,10-dione

> <PUBCHEM_IUPAC_CAS_NAME>
2,4-dihydroxy-1-methoxyanthracene-9,10-dione

> <PUBCHEM_IUPAC_NAME>
2,4-dihydroxy-1-methoxyanthracene-9,10-dione

> <PUBCHEM_IUPAC_SYSTEMATIC_NAME>
1-methoxy-2,4-bis(oxidanyl)anthracene-9,10-dione

> <PUBCHEM_IUPAC_TRADITIONAL_NAME>
2,4-dihydroxy-1-methoxy-9,10-anthraquinone

> <PUBCHEM_IUPAC_INCHI>
InChI=1S/C15H10O5/c1-20-15-10(17)6-9(16)11-12(15)14(19)8-5-3-2-4-7(8)13(11)18/h2-6,16-17H,1H3

> <PUBCHEM_IUPAC_INCHIKEY>
NLORVHQRZMJFEZ-UHFFFAOYSA-N

> <PUBCHEM_XLOGP3_AA>
2.7

> <PUBCHEM_EXACT_MASS>
270.052823

> <PUBCHEM_MOLECULAR_FORMULA>
C15H10O5

> <PUBCHEM_MOLECULAR_WEIGHT>
270.2369

> <PUBCHEM_OPENEYE_CAN_SMILES>
COC1=C(C=C(C2=C1C(=O)C3=CC=CC=C3C2=O)O)O

> <PUBCHEM_OPENEYE_ISO_SMILES>
COC1=C(C=C(C2=C1C(=O)C3=CC=CC=C3C2=O)O)O

> <PUBCHEM_CACTVS_TPSA>
83.8

> <PUBCHEM_MONOISOTOPIC_WEIGHT>
270.052823

> <PUBCHEM_TOTAL_CHARGE>
0

> <PUBCHEM_HEAVY_ATOM_COUNT>
20

> <PUBCHEM_ATOM_DEF_STEREO_COUNT>
0

> <PUBCHEM_ATOM_UDEF_STEREO_COUNT>
0

> <PUBCHEM_BOND_DEF_STEREO_COUNT>
0

> <PUBCHEM_BOND_UDEF_STEREO_COUNT>
0

> <PUBCHEM_ISOTOPIC_ATOM_COUNT>
0

> <PUBCHEM_COMPONENT_COUNT>
1

> <PUBCHEM_CACTVS_TAUTO_COUNT>
12

> <PUBCHEM_COORDINATE_TYPE>
1
5
255

> <PUBCHEM_BONDANNOTATIONS>
12  14  8
13  15  8
14  15  8
16  18  8
17  19  8
18  19  8
6  12  8
6  7  8
7  13  8
8  16  8
8  9  8
9  17  8

$$$$

