246162
  -OEChem-07051213063D

 65 69  0     1  0  0  0  0  0999 V2000
   -6.4235   -1.0695   -0.3219 O   0  0  0  0  0  0  0  0  0  0  0  0
   -1.0410   -0.4500   -0.2374 C   0  0  2  0  0  0  0  0  0  0  0  0
    0.4243   -0.4409    0.3385 C   0  0  2  0  0  0  0  0  0  0  0  0
   -1.8658    0.7871    0.2480 C   0  0  2  0  0  0  0  0  0  0  0  0
   -3.2544    0.7298   -0.3973 C   0  0  1  0  0  0  0  0  0  0  0  0
   -4.0309   -0.5498   -0.0265 C   0  0  2  0  0  0  0  0  0  0  0  0
    1.0799    0.9150   -0.0758 C   0  0  1  0  0  0  0  0  0  0  0  0
   -1.8075   -1.7826   -0.0224 C   0  0  0  0  0  0  0  0  0  0  0  0
   -1.1462    2.1019   -0.0831 C   0  0  0  0  0  0  0  0  0  0  0  0
   -3.2485   -1.7547   -0.5649 C   0  0  0  0  0  0  0  0  0  0  0  0
    0.2905    2.1264    0.4336 C   0  0  0  0  0  0  0  0  0  0  0  0
    1.2682   -1.5826   -0.2940 C   0  0  0  0  0  0  0  0  0  0  0  0
   -4.2545    1.8487   -0.1156 C   0  0  0  0  0  0  0  0  0  0  0  0
   -5.3528   -0.2583   -0.7655 C   0  0  2  0  0  0  0  0  0  0  0  0
    2.5621    1.0092    0.3151 C   0  0  0  0  0  0  0  0  0  0  0  0
    3.3697   -0.1435   -0.2968 C   0  0  2  0  0  0  0  0  0  0  0  0
   -5.6166    1.2358   -0.4903 C   0  0  0  0  0  0  0  0  0  0  0  0
    2.7598   -1.5065    0.0468 C   0  0  0  0  0  0  0  0  0  0  0  0
    0.4120   -0.6358    1.8765 C   0  0  0  0  0  0  0  0  0  0  0  0
   -4.2891   -0.7343    1.4899 C   0  0  0  0  0  0  0  0  0  0  0  0
    4.8202   -0.0770    0.1485 C   0  0  0  0  0  0  0  0  0  0  0  0
    5.6894   -1.1682   -0.4684 C   0  0  0  0  0  0  0  0  0  0  0  0
    5.5294    1.1966   -0.3007 C   0  0  0  0  0  0  0  0  0  0  0  0
    7.1149   -0.6590   -0.2782 C   0  0  0  0  0  0  0  0  0  0  0  0
    7.0106    0.8623   -0.1582 C   0  0  0  0  0  0  0  0  0  0  0  0
   -0.9437   -0.3466   -1.3301 H   0  0  0  0  0  0  0  0  0  0  0  0
   -1.9824    0.7483    1.3359 H   0  0  0  0  0  0  0  0  0  0  0  0
   -3.0952    0.7351   -1.4890 H   0  0  0  0  0  0  0  0  0  0  0  0
    1.0522    0.9691   -1.1757 H   0  0  0  0  0  0  0  0  0  0  0  0
   -1.8324   -2.0417    1.0403 H   0  0  0  0  0  0  0  0  0  0  0  0
   -1.2807   -2.6005   -0.5264 H   0  0  0  0  0  0  0  0  0  0  0  0
   -1.6914    2.9490    0.3495 H   0  0  0  0  0  0  0  0  0  0  0  0
   -1.1374    2.2559   -1.1699 H   0  0  0  0  0  0  0  0  0  0  0  0
   -3.2062   -1.7161   -1.6612 H   0  0  0  0  0  0  0  0  0  0  0  0
   -3.7570   -2.6920   -0.3092 H   0  0  0  0  0  0  0  0  0  0  0  0
    0.7690    3.0527    0.0926 H   0  0  0  0  0  0  0  0  0  0  0  0
    0.2946    2.1619    1.5290 H   0  0  0  0  0  0  0  0  0  0  0  0
    1.1599   -1.5541   -1.3864 H   0  0  0  0  0  0  0  0  0  0  0  0
    0.8959   -2.5618    0.0296 H   0  0  0  0  0  0  0  0  0  0  0  0
   -4.0452    2.7452   -0.7079 H   0  0  0  0  0  0  0  0  0  0  0  0
   -4.2444    2.1389    0.9408 H   0  0  0  0  0  0  0  0  0  0  0  0
   -5.2387   -0.4168   -1.8447 H   0  0  0  0  0  0  0  0  0  0  0  0
    2.9531    1.9671   -0.0492 H   0  0  0  0  0  0  0  0  0  0  0  0
    2.6759    1.0261    1.4052 H   0  0  0  0  0  0  0  0  0  0  0  0
    3.3291   -0.0326   -1.3901 H   0  0  0  0  0  0  0  0  0  0  0  0
   -6.3470    1.3949    0.3106 H   0  0  0  0  0  0  0  0  0  0  0  0
   -6.0230    1.7141   -1.3886 H   0  0  0  0  0  0  0  0  0  0  0  0
    2.9107   -1.7332    1.1090 H   0  0  0  0  0  0  0  0  0  0  0  0
    3.2669   -2.3020   -0.5116 H   0  0  0  0  0  0  0  0  0  0  0  0
    0.0451   -1.6315    2.1471 H   0  0  0  0  0  0  0  0  0  0  0  0
    1.4091   -0.5459    2.3163 H   0  0  0  0  0  0  0  0  0  0  0  0
   -0.2193    0.0935    2.3899 H   0  0  0  0  0  0  0  0  0  0  0  0
   -3.3649   -0.7798    2.0721 H   0  0  0  0  0  0  0  0  0  0  0  0
   -4.8896    0.0761    1.9150 H   0  0  0  0  0  0  0  0  0  0  0  0
   -4.8265   -1.6706    1.6801 H   0  0  0  0  0  0  0  0  0  0  0  0
    4.8811   -0.1520    1.2436 H   0  0  0  0  0  0  0  0  0  0  0  0
    5.4791   -1.2818   -1.5391 H   0  0  0  0  0  0  0  0  0  0  0  0
    5.5531   -2.1432    0.0097 H   0  0  0  0  0  0  0  0  0  0  0  0
    5.2624    2.0691    0.3035 H   0  0  0  0  0  0  0  0  0  0  0  0
    5.3018    1.4265   -1.3489 H   0  0  0  0  0  0  0  0  0  0  0  0
   -6.6907   -0.7796    0.5660 H   0  0  0  0  0  0  0  0  0  0  0  0
    7.7581   -0.9583   -1.1119 H   0  0  0  0  0  0  0  0  0  0  0  0
    7.5508   -1.0742    0.6379 H   0  0  0  0  0  0  0  0  0  0  0  0
    7.3813    1.1824    0.8225 H   0  0  0  0  0  0  0  0  0  0  0  0
    7.6100    1.3735   -0.9182 H   0  0  0  0  0  0  0  0  0  0  0  0
  1 14  1  0  0  0  0
  1 61  1  0  0  0  0
  2  3  1  0  0  0  0
  2  4  1  0  0  0  0
  2  8  1  0  0  0  0
  2 26  1  0  0  0  0
  3  7  1  0  0  0  0
  3 12  1  0  0  0  0
  3 19  1  0  0  0  0
  4  5  1  0  0  0  0
  4  9  1  0  0  0  0
  4 27  1  0  0  0  0
  5  6  1  0  0  0  0
  5 13  1  0  0  0  0
  5 28  1  0  0  0  0
  6 10  1  0  0  0  0
  6 14  1  0  0  0  0
  6 20  1  0  0  0  0
  7 11  1  0  0  0  0
  7 15  1  0  0  0  0
  7 29  1  0  0  0  0
  8 10  1  0  0  0  0
  8 30  1  0  0  0  0
  8 31  1  0  0  0  0
  9 11  1  0  0  0  0
  9 32  1  0  0  0  0
  9 33  1  0  0  0  0
 10 34  1  0  0  0  0
 10 35  1  0  0  0  0
 11 36  1  0  0  0  0
 11 37  1  0  0  0  0
 12 18  1  0  0  0  0
 12 38  1  0  0  0  0
 12 39  1  0  0  0  0
 13 17  1  0  0  0  0
 13 40  1  0  0  0  0
 13 41  1  0  0  0  0
 14 17  1  0  0  0  0
 14 42  1  0  0  0  0
 15 16  1  0  0  0  0
 15 43  1  0  0  0  0
 15 44  1  0  0  0  0
 16 18  1  0  0  0  0
 16 21  1  0  0  0  0
 16 45  1  0  0  0  0
 17 46  1  0  0  0  0
 17 47  1  0  0  0  0
 18 48  1  0  0  0  0
 18 49  1  0  0  0  0
 19 50  1  0  0  0  0
 19 51  1  0  0  0  0
 19 52  1  0  0  0  0
 20 53  1  0  0  0  0
 20 54  1  0  0  0  0
 20 55  1  0  0  0  0
 21 22  1  0  0  0  0
 21 23  1  0  0  0  0
 21 56  1  0  0  0  0
 22 24  1  0  0  0  0
 22 57  1  0  0  0  0
 22 58  1  0  0  0  0
 23 25  1  0  0  0  0
 23 59  1  0  0  0  0
 23 60  1  0  0  0  0
 24 25  1  0  0  0  0
 24 62  1  0  0  0  0
 24 63  1  0  0  0  0
 25 64  1  0  0  0  0
 25 65  1  0  0  0  0
M  END
> <PUBCHEM_COMPOUND_CID>
246162

> <PUBCHEM_CONFORMER_RMSD>
0.8

> <PUBCHEM_CONFORMER_DIVERSEORDER>
1

> <PUBCHEM_MMFF94_PARTIAL_CHARGES>
3
1 -0.68
14 0.28
61 0.4

> <PUBCHEM_EFFECTIVE_ROTOR_COUNT>
4.2

> <PUBCHEM_PHARMACOPHORE_FEATURES>
7
1 1 acceptor
1 1 donor
5 21 22 23 24 25 rings
5 5 6 13 14 17 rings
6 2 3 4 7 9 11 rings
6 2 4 5 6 8 10 rings
6 3 7 12 15 16 18 rings

> <PUBCHEM_HEAVY_ATOM_COUNT>
25

> <PUBCHEM_ATOM_DEF_STEREO_COUNT>
8

> <PUBCHEM_ATOM_UDEF_STEREO_COUNT>
0

> <PUBCHEM_BOND_DEF_STEREO_COUNT>
0

> <PUBCHEM_BOND_UDEF_STEREO_COUNT>
0

> <PUBCHEM_ISOTOPIC_ATOM_COUNT>
0

> <PUBCHEM_COMPONENT_COUNT>
1

> <PUBCHEM_CACTVS_TAUTO_COUNT>
1

> <PUBCHEM_CONFORMER_ID>
0003C19200000001

> <PUBCHEM_MMFF94_ENERGY>
84.8731

> <PUBCHEM_FEATURE_SELFOVERLAP>
35.611

> <PUBCHEM_SHAPE_FINGERPRINT>
10 15 18342182125191557560
10906281 52 18336529590808407410
10968037 39 18410575085095634759
11315181 36 17313103038451594369
11488393 25 17242720129646544374
11524674 6 16298107574893678671
11578080 2 13913700143913531793
11719270 70 18260271884724744798
11963148 33 18408895018254932062
12011746 2 18410864261228366517
12166972 35 18060697291367537540
12236239 1 18059859488627719666
12516196 113 17967254187151962088
12788726 201 18335986479514830816
12838862 33 18338254720442303437
13288520 33 18261111864030668797
13402501 40 18407760339423158846
13533116 47 16009024034640245862
13862211 1 18408887347632004238
14251752 14 18412828001759059366
14251764 18 18259701199312845521
14790565 3 18410570703902341296
14856354 85 15357699660840310477
15183329 4 18409165528616777186
15196674 1 18410012177664611887
15788980 27 18410855455843769998
15927050 60 18343867705701774322
16087824 20 18338236102762174581
17492 89 17903362511624067111
18608769 82 18271239414316669483
18681886 176 18336272258112101040
200 152 17967534579437977560
21236236 1 18334010635444725529
21267235 1 18410008811022259415
21279426 13 18337389473647611014
21521721 280 17894912884943935080
23035841 295 18409167722928204146
23352939 185 18040432192191864840
23402539 116 18413390930016150246
23522609 53 18044346431891046800
23536379 177 18411700998061543362
23559900 14 18261683575169339184
3004659 81 18342458158417920740
335352 9 18408888425932683005
34797466 226 17385718068206387764
34934 24 18412267263265649459
350125 39 18409449197668031625
3545911 37 18409168813644292462
4073 2 18060133194721125570
4325135 7 18411138035054337492
4340502 62 16702301274022315114
4463277 17 18410293614350730660
5104073 3 18341048630869607650
5283173 99 18340488962667377692
542803 24 17632577154266545286
6138700 20 18412825815615437436
6328613 192 18410291406490036356
7226269 152 18412824702644232873
999808 66 18130496458420098387

> <PUBCHEM_SHAPE_MULTIPOLES>
508.62
16.28
2.01
0.95
13.77
0.35
0.36
-0.18
-3.09
-0.8
-0.07
-0.47
-0.17
0.23

> <PUBCHEM_SHAPE_SELFOVERLAP>
1080.675

> <PUBCHEM_SHAPE_VOLUME>
282.4

> <PUBCHEM_COORDINATE_TYPE>
2
5
10

$$$$

