5459866
  -OEChem-07051212483D

 60 63  0     0  0  0  0  0  0999 V2000
   -8.2463   -1.5980    2.1211 S   0  0  0  0  0  0  0  0  0  0  0  0
    8.3093   -1.6154    0.9238 S   0  0  0  0  0  0  0  0  0  0  0  0
   -2.8483   -0.9822   -2.4442 O   0  0  0  0  0  0  0  0  0  0  0  0
   -8.4783   -0.6685    0.7847 O   0  0  0  0  0  0  0  0  0  0  0  0
    7.2028   -2.6217    0.2405 O   0  0  0  0  0  0  0  0  0  0  0  0
   -9.6349   -2.4462    2.2527 O   0  0  0  0  0  0  0  0  0  0  0  0
    9.7437   -2.2263    0.4402 O   0  0  0  0  0  0  0  0  0  0  0  0
   -7.1720   -2.5386    1.8614 O   0  0  0  0  0  0  0  0  0  0  0  0
   -8.1706   -0.7106    3.2672 O   0  0  0  0  0  0  0  0  0  0  0  0
    8.2295   -1.7852    2.3631 O   0  0  0  0  0  0  0  0  0  0  0  0
    8.1683   -0.2935    0.3417 O   0  0  0  0  0  0  0  0  0  0  0  0
   -1.6674    0.8097   -1.4825 N   0  0  0  0  0  0  0  0  0  0  0  0
    1.8203    0.5930   -0.4355 N   0  0  0  0  0  0  0  0  0  0  0  0
   -0.1671   -1.0111   -1.5946 N   0  0  0  0  0  0  0  0  0  0  0  0
    0.3225    2.4789   -0.3017 C   0  0  0  0  0  0  0  0  0  0  0  0
    0.5799    1.0595   -0.6810 C   0  0  0  0  0  0  0  0  0  0  0  0
   -0.3963    0.2717   -1.2503 C   0  0  0  0  0  0  0  0  0  0  0  0
    1.5198    3.1784    0.3097 C   0  0  0  0  0  0  0  0  0  0  0  0
    2.0493   -0.6897   -0.7794 C   0  0  0  0  0  0  0  0  0  0  0  0
   -3.9685    1.1275   -2.1197 C   0  0  0  0  0  0  0  0  0  0  0  0
    3.3813   -1.1883   -0.5147 C   0  0  0  0  0  0  0  0  0  0  0  0
   -5.1696    0.6494   -1.3468 C   0  0  0  0  0  0  0  0  0  0  0  0
   -2.7842    0.1766   -2.0464 C   0  0  0  0  0  0  0  0  0  0  0  0
    1.0732   -1.4776   -1.3488 C   0  0  0  0  0  0  0  0  0  0  0  0
    2.4232    3.8578   -0.5077 C   0  0  0  0  0  0  0  0  0  0  0  0
    1.7189    3.1425    1.6898 C   0  0  0  0  0  0  0  0  0  0  0  0
    4.1709   -1.6568   -1.5648 C   0  0  0  0  0  0  0  0  0  0  0  0
    3.8758   -1.2021    0.7895 C   0  0  0  0  0  0  0  0  0  0  0  0
   -6.1283   -0.1492   -1.9704 C   0  0  0  0  0  0  0  0  0  0  0  0
   -5.3228    1.0051   -0.0069 C   0  0  0  0  0  0  0  0  0  0  0  0
    3.5254    4.5013    0.0550 C   0  0  0  0  0  0  0  0  0  0  0  0
    2.8211    3.7860    2.2526 C   0  0  0  0  0  0  0  0  0  0  0  0
    5.4548   -2.1391   -1.3108 C   0  0  0  0  0  0  0  0  0  0  0  0
    5.1597   -1.6845    1.0436 C   0  0  0  0  0  0  0  0  0  0  0  0
   -7.2403   -0.5919   -1.2542 C   0  0  0  0  0  0  0  0  0  0  0  0
   -6.4348    0.5625    0.7095 C   0  0  0  0  0  0  0  0  0  0  0  0
   -7.3935   -0.2360    0.0858 C   0  0  0  0  0  0  0  0  0  0  0  0
    5.9491   -2.1530   -0.0066 C   0  0  0  0  0  0  0  0  0  0  0  0
    3.7244    4.4654    1.4351 C   0  0  0  0  0  0  0  0  0  0  0  0
    0.0076    3.0484   -1.1860 H   0  0  0  0  0  0  0  0  0  0  0  0
   -0.5061    2.5268    0.4171 H   0  0  0  0  0  0  0  0  0  0  0  0
   -4.2275    1.2393   -3.1808 H   0  0  0  0  0  0  0  0  0  0  0  0
   -3.7026    2.1370   -1.7843 H   0  0  0  0  0  0  0  0  0  0  0  0
   -1.7957    1.7779   -1.2055 H   0  0  0  0  0  0  0  0  0  0  0  0
    1.2409   -2.5121   -1.6268 H   0  0  0  0  0  0  0  0  0  0  0  0
    2.2803    3.8913   -1.5845 H   0  0  0  0  0  0  0  0  0  0  0  0
    1.0236    2.6146    2.3370 H   0  0  0  0  0  0  0  0  0  0  0  0
    3.8063   -1.6498   -2.5893 H   0  0  0  0  0  0  0  0  0  0  0  0
    3.2727   -0.8459    1.6214 H   0  0  0  0  0  0  0  0  0  0  0  0
   -6.0193   -0.4348   -3.0133 H   0  0  0  0  0  0  0  0  0  0  0  0
   -4.5827    1.6273    0.4891 H   0  0  0  0  0  0  0  0  0  0  0  0
    4.2292    5.0296   -0.5814 H   0  0  0  0  0  0  0  0  0  0  0  0
    2.9767    3.7572    3.3270 H   0  0  0  0  0  0  0  0  0  0  0  0
   -7.9833   -1.2146   -1.7447 H   0  0  0  0  0  0  0  0  0  0  0  0
   -6.5432    0.8602    1.7483 H   0  0  0  0  0  0  0  0  0  0  0  0
    6.0662   -2.5009   -2.1329 H   0  0  0  0  0  0  0  0  0  0  0  0
    5.5223   -1.6995    2.0672 H   0  0  0  0  0  0  0  0  0  0  0  0
    4.5830    4.9659    1.8731 H   0  0  0  0  0  0  0  0  0  0  0  0
   -9.6759   -3.0717    3.0137 H   0  0  0  0  0  0  0  0  0  0  0  0
   10.5386   -1.7384    0.7599 H   0  0  0  0  0  0  0  0  0  0  0  0
  1  4  1  0  0  0  0
  1  6  1  0  0  0  0
  1  8  2  0  0  0  0
  1  9  2  0  0  0  0
  2  5  1  0  0  0  0
  2  7  1  0  0  0  0
  2 10  2  0  0  0  0
  2 11  2  0  0  0  0
  3 23  2  0  0  0  0
  4 37  1  0  0  0  0
  5 38  1  0  0  0  0
  6 59  1  0  0  0  0
  7 60  1  0  0  0  0
 12 17  1  0  0  0  0
 12 23  1  0  0  0  0
 12 44  1  0  0  0  0
 13 16  2  0  0  0  0
 13 19  1  0  0  0  0
 14 17  2  0  0  0  0
 14 24  1  0  0  0  0
 15 16  1  0  0  0  0
 15 18  1  0  0  0  0
 15 40  1  0  0  0  0
 15 41  1  0  0  0  0
 16 17  1  0  0  0  0
 18 25  2  0  0  0  0
 18 26  1  0  0  0  0
 19 21  1  0  0  0  0
 19 24  2  0  0  0  0
 20 22  1  0  0  0  0
 20 23  1  0  0  0  0
 20 42  1  0  0  0  0
 20 43  1  0  0  0  0
 21 27  2  0  0  0  0
 21 28  1  0  0  0  0
 22 29  2  0  0  0  0
 22 30  1  0  0  0  0
 24 45  1  0  0  0  0
 25 31  1  0  0  0  0
 25 46  1  0  0  0  0
 26 32  2  0  0  0  0
 26 47  1  0  0  0  0
 27 33  1  0  0  0  0
 27 48  1  0  0  0  0
 28 34  2  0  0  0  0
 28 49  1  0  0  0  0
 29 35  1  0  0  0  0
 29 50  1  0  0  0  0
 30 36  2  0  0  0  0
 30 51  1  0  0  0  0
 31 39  2  0  0  0  0
 31 52  1  0  0  0  0
 32 39  1  0  0  0  0
 32 53  1  0  0  0  0
 33 38  2  0  0  0  0
 33 56  1  0  0  0  0
 34 38  1  0  0  0  0
 34 57  1  0  0  0  0
 35 37  2  0  0  0  0
 35 54  1  0  0  0  0
 36 37  1  0  0  0  0
 36 55  1  0  0  0  0
 39 58  1  0  0  0  0
M  END
> <PUBCHEM_COMPOUND_CID>
5459866

> <PUBCHEM_CONFORMER_RMSD>
1.2

> <PUBCHEM_CONFORMER_DIVERSEORDER>
1
9
14
19
8
18
22
21
4
16
6
13
11
7
17
12
3
5
15
10
2
20

> <PUBCHEM_MMFF94_PARTIAL_CHARGES>
55
1 1.67
10 -0.65
11 -0.65
12 -0.55
13 -0.62
14 -0.62
15 0.29
16 0.17
17 0.43
18 -0.14
19 0.31
2 1.67
20 0.2
22 -0.14
23 0.57
24 0.16
25 -0.15
26 -0.15
27 -0.15
28 -0.15
29 -0.15
3 -0.57
30 -0.15
31 -0.15
32 -0.15
33 -0.15
34 -0.15
35 -0.15
36 -0.15
37 0.08
38 0.08
39 -0.15
4 -0.27
44 0.37
45 0.15
46 0.15
47 0.15
48 0.15
49 0.15
5 -0.27
50 0.15
51 0.15
52 0.15
53 0.15
54 0.15
55 0.15
56 0.15
57 0.15
58 0.15
59 0.5
6 -0.68
60 0.5
7 -0.68
8 -0.65
9 -0.65

> <PUBCHEM_EFFECTIVE_ROTOR_COUNT>
11

> <PUBCHEM_PHARMACOPHORE_FEATURES>
15
1 10 acceptor
1 11 acceptor
1 12 donor
1 13 acceptor
1 3 acceptor
1 6 acceptor
1 7 acceptor
1 8 acceptor
1 9 acceptor
4 1 6 8 9 anion
4 2 7 10 11 anion
6 13 14 16 17 19 24 rings
6 18 25 26 31 32 39 rings
6 21 27 28 33 34 38 rings
6 22 29 30 35 36 37 rings

> <PUBCHEM_HEAVY_ATOM_COUNT>
39

> <PUBCHEM_ATOM_DEF_STEREO_COUNT>
0

> <PUBCHEM_ATOM_UDEF_STEREO_COUNT>
0

> <PUBCHEM_BOND_DEF_STEREO_COUNT>
0

> <PUBCHEM_BOND_UDEF_STEREO_COUNT>
0

> <PUBCHEM_ISOTOPIC_ATOM_COUNT>
0

> <PUBCHEM_COMPONENT_COUNT>
1

> <PUBCHEM_CACTVS_TAUTO_COUNT>
3

> <PUBCHEM_CONFORMER_ID>
00534F9A00000001

> <PUBCHEM_MMFF94_ENERGY>
111.1575

> <PUBCHEM_FEATURE_SELFOVERLAP>
76.234

> <PUBCHEM_SHAPE_FINGERPRINT>
11181472 205 13984660365549991910
11411753 29 18131356310978727109
11456790 92 18408885152560987224
12717326 120 16844725310156477153
13512321 179 17385723552510119760
13540713 5 17606420768974097141
13673619 4 18272656782934707501
13782708 43 18131351908615479919
14849402 71 18260553277342702804
15776043 110 18261395580695815739
17852330 31 18041280946744722235
20721686 146 5906043742623995714
21049683 271 18412552024710480908
21781055 127 16153692207311278348
21792965 270 18269845229520411696
21927370 108 18261672700944667420
24771293 8 17313115167423486126
24771750 20 18266180539990207284
249057 25 17095533860050276813
3178227 256 18335138704299354014
437795 83 8862948273613657823
44426699 60 17703220716876324348
5104073 3 18042126458538547967
5385378 56 18189346666871695700
9962374 69 18188789270341890391

> <PUBCHEM_SHAPE_MULTIPOLES>
742.53
29.08
4.73
2.53
24.79
7.02
-1
-28.22
-19.75
-9.71
-2.16
4.88
-0.71
3.26

> <PUBCHEM_SHAPE_SELFOVERLAP>
1588.697

> <PUBCHEM_SHAPE_VOLUME>
411.1

> <PUBCHEM_COORDINATE_TYPE>
2
5
10

$$$$

