442311
  -OEChem-07051212572D

 45 48  0     1  0  0  0  0  0999 V2000
    6.2621   -2.5002    0.0000 O   0  0  0  0  0  0  0  0  0  0  0  0
    7.9942    0.5007    0.0000 O   0  0  0  0  0  0  0  0  0  0  0  0
    3.5836   -1.8045    0.0000 O   0  0  0  0  0  0  0  0  0  0  0  0
    5.3958    1.0002    0.0000 O   0  0  0  0  0  0  0  0  0  0  0  0
    2.0000   -0.9998    0.0000 O   0  0  0  0  0  0  0  0  0  0  0  0
    7.1279    1.0002    0.0000 O   0  0  0  0  0  0  0  0  0  0  0  0
    6.2619   -1.4998    0.0000 C   0  0  1  0  0  0  0  0  0  0  0  0
    5.3958   -1.9998    0.0000 C   0  0  1  0  0  0  0  0  0  0  0  0
    7.1279    0.0002    0.0000 C   0  0  1  0  0  0  0  0  0  0  0  0
    7.9939   -0.4998    0.0000 C   0  0  1  0  0  0  0  0  0  0  0  0
    4.5298   -1.4998    0.0000 C   0  0  2  0  0  0  0  0  0  0  0  0
    7.1279   -1.9998    0.0000 C   0  0  0  0  0  0  0  0  0  0  0  0
    7.9939   -1.4998    0.0000 C   0  0  0  0  0  0  0  0  0  0  0  0
    4.5298   -0.4998    0.0000 C   0  0  1  0  0  0  0  0  0  0  0  0
    6.2619   -0.4998    0.0000 C   0  0  0  0  0  0  0  0  0  0  0  0
    5.3958    0.0002    0.0000 C   0  0  1  0  0  0  0  0  0  0  0  0
    7.1279   -0.9998    0.0000 C   0  0  0  0  0  0  0  0  0  0  0  0
    6.2619    0.5002    0.0000 C   0  0  0  0  0  0  0  0  0  0  0  0
    3.5836   -0.1950    0.0000 C   0  0  0  0  0  0  0  0  0  0  0  0
    3.0000   -0.9998    0.0000 C   0  0  0  0  0  0  0  0  0  0  0  0
    3.2729    0.7555    0.0000 C   0  0  0  0  0  0  0  0  0  0  0  0
    6.2619    1.5002    0.0000 C   0  0  0  0  0  0  0  0  0  0  0  0
    6.2619    2.5002    0.0000 C   0  0  0  0  0  0  0  0  0  0  0  0
    4.9708   -2.7358    0.0000 H   0  0  0  0  0  0  0  0  0  0  0  0
    8.8439   -0.4999    0.0000 H   0  0  0  0  0  0  0  0  0  0  0  0
    4.4399   -2.3450    0.0000 H   0  0  0  0  0  0  0  0  0  0  0  0
    6.7294   -2.4747    0.0000 H   0  0  0  0  0  0  0  0  0  0  0  0
    7.5264   -2.4747    0.0000 H   0  0  0  0  0  0  0  0  0  0  0  0
    8.2060   -2.0824    0.0000 H   0  0  0  0  0  0  0  0  0  0  0  0
    8.6045   -1.3921    0.0000 H   0  0  0  0  0  0  0  0  0  0  0  0
    4.4399    0.3454    0.0000 H   0  0  0  0  0  0  0  0  0  0  0  0
    5.8633   -0.9747    0.0000 H   0  0  0  0  0  0  0  0  0  0  0  0
    6.6604   -0.9747    0.0000 H   0  0  0  0  0  0  0  0  0  0  0  0
    5.9328    0.3102    0.0000 H   0  0  0  0  0  0  0  0  0  0  0  0
    7.4379   -1.5367    0.0000 H   0  0  0  0  0  0  0  0  0  0  0  0
    7.6648   -0.6898    0.0000 H   0  0  0  0  0  0  0  0  0  0  0  0
    6.8179   -0.4628    0.0000 H   0  0  0  0  0  0  0  0  0  0  0  0
    6.5719    1.0372    0.0000 H   0  0  0  0  0  0  0  0  0  0  0  0
    5.7249    0.8102    0.0000 H   0  0  0  0  0  0  0  0  0  0  0  0
    5.9519   -0.0367    0.0000 H   0  0  0  0  0  0  0  0  0  0  0  0
    3.6870    1.2169    0.0000 H   0  0  0  0  0  0  0  0  0  0  0  0
    2.6663    0.8833    0.0000 H   0  0  0  0  0  0  0  0  0  0  0  0
    6.8819    2.5002    0.0000 H   0  0  0  0  0  0  0  0  0  0  0  0
    6.2619    3.1202    0.0000 H   0  0  0  0  0  0  0  0  0  0  0  0
    5.6419    2.5002    0.0000 H   0  0  0  0  0  0  0  0  0  0  0  0
  1  7  1  0  0  0  0
  1  8  1  0  0  0  0
  2  9  1  0  0  0  0
  2 10  1  0  0  0  0
  3 11  1  0  0  0  0
  3 20  1  0  0  0  0
 16  4  1  6  0  0  0
  4 22  1  0  0  0  0
  5 20  2  0  0  0  0
  6 22  2  0  0  0  0
  7  8  1  0  0  0  0
  7 12  1  0  0  0  0
  7 17  1  6  0  0  0
  8 11  1  0  0  0  0
  8 24  1  1  0  0  0
  9 10  1  0  0  0  0
  9 15  1  0  0  0  0
  9 18  1  6  0  0  0
 10 13  1  0  0  0  0
 10 25  1  1  0  0  0
 11 14  1  0  0  0  0
 11 26  1  6  0  0  0
 12 13  1  0  0  0  0
 12 27  1  0  0  0  0
 12 28  1  0  0  0  0
 13 29  1  0  0  0  0
 13 30  1  0  0  0  0
 14 16  1  0  0  0  0
 14 19  1  0  0  0  0
 14 31  1  1  0  0  0
 15 16  1  0  0  0  0
 15 32  1  0  0  0  0
 15 33  1  0  0  0  0
 16 34  1  0  0  0  0
 17 35  1  0  0  0  0
 17 36  1  0  0  0  0
 17 37  1  0  0  0  0
 18 38  1  0  0  0  0
 18 39  1  0  0  0  0
 18 40  1  0  0  0  0
 19 20  1  0  0  0  0
 19 21  2  0  0  0  0
 21 41  1  0  0  0  0
 21 42  1  0  0  0  0
 22 23  1  0  0  0  0
 23 43  1  0  0  0  0
 23 44  1  0  0  0  0
 23 45  1  0  0  0  0
M  END
> <PUBCHEM_COMPOUND_CID>
442311

> <PUBCHEM_COMPOUND_CANONICALIZED>
1

> <PUBCHEM_CACTVS_COMPLEXITY>
600

> <PUBCHEM_CACTVS_HBOND_ACCEPTOR>
6

> <PUBCHEM_CACTVS_HBOND_DONOR>
0

> <PUBCHEM_CACTVS_ROTATABLE_BOND>
2

> <PUBCHEM_CACTVS_SUBSKEYS>
AAADceB4OAAAAAAAAAAAAAAAEiQAASAAAAAAAAAAAAAAAADAAAAAGgAAAAAADVSggAICCAAABACIAgDSCAAAAAAgAAAAAAEAAEgBBBIAIQACAAAFwAACIIHK7PzOAAAAAAAAAAAAAAAAAAAAAAAAAAAAAA==

> <PUBCHEM_IUPAC_INCHI>
InChI=1S/C17H22O6/c1-8-12-10(20-9(2)18)7-17(4)11(22-17)5-6-16(3)14(23-16)13(12)21-15(8)19/h10-14H,1,5-7H2,2-4H3/t10-,11-,12-,13+,14-,16-,17-/m1/s1

> <PUBCHEM_IUPAC_INCHIKEY>
WVJZWGBZQIZLSZ-KLGRDHRDSA-N

> <PUBCHEM_XLOGP3_AA>
1.3

> <PUBCHEM_EXACT_MASS>
322.141638

> <PUBCHEM_MOLECULAR_FORMULA>
C17H22O6

> <PUBCHEM_MOLECULAR_WEIGHT>
322.35298

> <PUBCHEM_OPENEYE_CAN_SMILES>
CC(=O)OC1CC2(C(O2)CCC3(C(O3)C4C1C(=C)C(=O)O4)C)C

> <PUBCHEM_OPENEYE_ISO_SMILES>
CC(=O)O[C@@H]1C[C@@]2([C@H](O2)CC[C@@]3([C@H](O3)[C@@H]4[C@@H]1C(=C)C(=O)O4)C)C

> <PUBCHEM_CACTVS_TPSA>
77.7

> <PUBCHEM_MONOISOTOPIC_WEIGHT>
322.141638

> <PUBCHEM_TOTAL_CHARGE>
0

> <PUBCHEM_HEAVY_ATOM_COUNT>
23

> <PUBCHEM_ATOM_DEF_STEREO_COUNT>
7

> <PUBCHEM_ATOM_UDEF_STEREO_COUNT>
0

> <PUBCHEM_BOND_DEF_STEREO_COUNT>
0

> <PUBCHEM_BOND_UDEF_STEREO_COUNT>
0

> <PUBCHEM_ISOTOPIC_ATOM_COUNT>
0

> <PUBCHEM_COMPONENT_COUNT>
1

> <PUBCHEM_CACTVS_TAUTO_COUNT>
1

> <PUBCHEM_COORDINATE_TYPE>
1
5
255

> <PUBCHEM_BONDANNOTATIONS>
10  25  5
11  26  6
14  31  5
16  4  6
7  17  6
8  24  5
9  18  6

$$$$

