135260
  -OEChem-07051213092D

 54 55  0     1  0  0  0  0  0999 V2000
    7.1454   -0.8660    0.0000 O   0  0  0  0  0  0  0  0  0  0  0  0
    8.6454    0.0000    0.0000 O   0  0  0  0  0  0  0  0  0  0  0  0
    2.9397   -0.3008    0.0000 N   0  0  0  0  0  0  0  0  0  0  0  0
    5.6454    0.0000    0.0000 C   0  0  0  0  0  0  0  0  0  0  0  0
    4.6454    0.0000    0.0000 C   0  0  0  0  0  0  0  0  0  0  0  0
    6.6454    0.0000    0.0000 C   0  0  2  0  0  0  0  0  0  0  0  0
    3.7057    0.3420    0.0000 C   0  0  2  0  0  0  0  0  0  0  0  0
    5.6454   -1.0000    0.0000 C   0  0  0  0  0  0  0  0  0  0  0  0
    5.6454    1.0000    0.0000 C   0  0  0  0  0  0  0  0  0  0  0  0
    7.1454    0.8660    0.0000 C   0  0  0  0  0  0  0  0  0  0  0  0
    3.5321    1.3268    0.0000 C   0  0  0  0  0  0  0  0  0  0  0  0
    6.5115    1.5000    0.0000 C   0  0  0  0  0  0  0  0  0  0  0  0
    4.7794   -1.5000    0.0000 C   0  0  0  0  0  0  0  0  0  0  0  0
    4.7794    1.5000    0.0000 C   0  0  0  0  0  0  0  0  0  0  0  0
    6.5115   -1.5000    0.0000 C   0  0  0  0  0  0  0  0  0  0  0  0
    8.1454    0.8660    0.0000 C   0  0  0  0  0  0  0  0  0  0  0  0
    6.5115    2.5000    0.0000 C   0  0  0  0  0  0  0  0  0  0  0  0
    4.7794   -2.5000    0.0000 C   0  0  0  0  0  0  0  0  0  0  0  0
    4.7794    2.5000    0.0000 C   0  0  0  0  0  0  0  0  0  0  0  0
    6.5115   -2.5000    0.0000 C   0  0  0  0  0  0  0  0  0  0  0  0
    2.0000    0.0413    0.0000 C   0  0  0  0  0  0  0  0  0  0  0  0
    8.1454   -0.8660    0.0000 C   0  0  0  0  0  0  0  0  0  0  0  0
    5.6454    3.0000    0.0000 C   0  0  0  0  0  0  0  0  0  0  0  0
    5.6454   -3.0000    0.0000 C   0  0  0  0  0  0  0  0  0  0  0  0
    8.6454   -1.7320    0.0000 C   0  0  0  0  0  0  0  0  0  0  0  0
    4.2200   -0.4510    0.0000 H   0  0  0  0  0  0  0  0  0  0  0  0
    4.7531    0.6106    0.0000 H   0  0  0  0  0  0  0  0  0  0  0  0
    6.3354   -0.5369    0.0000 H   0  0  0  0  0  0  0  0  0  0  0  0
    3.1231    0.5541    0.0000 H   0  0  0  0  0  0  0  0  0  0  0  0
    7.2531    1.4766    0.0000 H   0  0  0  0  0  0  0  0  0  0  0  0
    6.5628    1.0781    0.0000 H   0  0  0  0  0  0  0  0  0  0  0  0
    4.1427    1.4345    0.0000 H   0  0  0  0  0  0  0  0  0  0  0  0
    3.4244    1.9374    0.0000 H   0  0  0  0  0  0  0  0  0  0  0  0
    2.9215    1.2192    0.0000 H   0  0  0  0  0  0  0  0  0  0  0  0
    7.0484    1.1900    0.0000 H   0  0  0  0  0  0  0  0  0  0  0  0
    4.2425   -1.1900    0.0000 H   0  0  0  0  0  0  0  0  0  0  0  0
    4.2425    1.1900    0.0000 H   0  0  0  0  0  0  0  0  0  0  0  0
    7.0484   -1.1900    0.0000 H   0  0  0  0  0  0  0  0  0  0  0  0
    3.0473   -0.9113    0.0000 H   0  0  0  0  0  0  0  0  0  0  0  0
    8.1454    0.2460    0.0000 H   0  0  0  0  0  0  0  0  0  0  0  0
    8.7654    0.8660    0.0000 H   0  0  0  0  0  0  0  0  0  0  0  0
    8.1454    1.4860    0.0000 H   0  0  0  0  0  0  0  0  0  0  0  0
    7.0484    2.8100    0.0000 H   0  0  0  0  0  0  0  0  0  0  0  0
    4.2425   -2.8100    0.0000 H   0  0  0  0  0  0  0  0  0  0  0  0
    4.2425    2.8100    0.0000 H   0  0  0  0  0  0  0  0  0  0  0  0
    7.0484   -2.8100    0.0000 H   0  0  0  0  0  0  0  0  0  0  0  0
    2.2120    0.6239    0.0000 H   0  0  0  0  0  0  0  0  0  0  0  0
    1.4174    0.2533    0.0000 H   0  0  0  0  0  0  0  0  0  0  0  0
    1.7880   -0.5414    0.0000 H   0  0  0  0  0  0  0  0  0  0  0  0
    5.6454    3.6200    0.0000 H   0  0  0  0  0  0  0  0  0  0  0  0
    5.6454   -3.6200    0.0000 H   0  0  0  0  0  0  0  0  0  0  0  0
    8.1085   -2.0420    0.0000 H   0  0  0  0  0  0  0  0  0  0  0  0
    8.9554   -2.2690    0.0000 H   0  0  0  0  0  0  0  0  0  0  0  0
    9.1824   -1.4220    0.0000 H   0  0  0  0  0  0  0  0  0  0  0  0
  6  1  1  6  0  0  0
  1 22  1  0  0  0  0
  2 22  2  0  0  0  0
  7  3  1  1  0  0  0
  3 21  1  0  0  0  0
  3 39  1  0  0  0  0
  4  5  1  0  0  0  0
  4  6  1  0  0  0  0
  4  8  1  0  0  0  0
  4  9  1  0  0  0  0
  5  7  1  0  0  0  0
  5 26  1  0  0  0  0
  5 27  1  0  0  0  0
  6 10  1  0  0  0  0
  6 28  1  0  0  0  0
  7 11  1  0  0  0  0
  7 29  1  0  0  0  0
  8 13  2  0  0  0  0
  8 15  1  0  0  0  0
  9 12  2  0  0  0  0
  9 14  1  0  0  0  0
 10 16  1  0  0  0  0
 10 30  1  0  0  0  0
 10 31  1  0  0  0  0
 11 32  1  0  0  0  0
 11 33  1  0  0  0  0
 11 34  1  0  0  0  0
 12 17  1  0  0  0  0
 12 35  1  0  0  0  0
 13 18  1  0  0  0  0
 13 36  1  0  0  0  0
 14 19  2  0  0  0  0
 14 37  1  0  0  0  0
 15 20  2  0  0  0  0
 15 38  1  0  0  0  0
 16 40  1  0  0  0  0
 16 41  1  0  0  0  0
 16 42  1  0  0  0  0
 17 23  2  0  0  0  0
 17 43  1  0  0  0  0
 18 24  2  0  0  0  0
 18 44  1  0  0  0  0
 19 23  1  0  0  0  0
 19 45  1  0  0  0  0
 20 24  1  0  0  0  0
 20 46  1  0  0  0  0
 21 47  1  0  0  0  0
 21 48  1  0  0  0  0
 21 49  1  0  0  0  0
 22 25  1  0  0  0  0
 23 50  1  0  0  0  0
 24 51  1  0  0  0  0
 25 52  1  0  0  0  0
 25 53  1  0  0  0  0
 25 54  1  0  0  0  0
M  END
> <PUBCHEM_COMPOUND_CID>
135260

> <PUBCHEM_COMPOUND_CANONICALIZED>
1

> <PUBCHEM_CACTVS_COMPLEXITY>
379

> <PUBCHEM_CACTVS_HBOND_ACCEPTOR>
3

> <PUBCHEM_CACTVS_HBOND_DONOR>
1

> <PUBCHEM_CACTVS_ROTATABLE_BOND>
9

> <PUBCHEM_CACTVS_SUBSKEYS>
AAADceB6MAAAAAAAAAAAAAAAAAAAAAAAAAAwYAAAAAAAAAABQAAAHgAQAAAADjzhmAYyCILABACIAiDSCAACAAAgAAAIiIAIAIgIICKAkRCGIAAk0AEIiAewwOAPgAAAAAAAAAAAAAAAAAAAAAAAAAAAAA==

> <PUBCHEM_IUPAC_OPENEYE_NAME>
[(1S,4S)-1-ethyl-4-(methylamino)-2,2-diphenyl-pentyl] acetate

> <PUBCHEM_IUPAC_CAS_NAME>
acetic acid [(3S,6S)-6-(methylamino)-4,4-diphenylheptan-3-yl] ester

> <PUBCHEM_IUPAC_NAME>
[(3S,6S)-6-(methylamino)-4,4-diphenylheptan-3-yl] acetate

> <PUBCHEM_IUPAC_SYSTEMATIC_NAME>
[(3S,6S)-6-(methylamino)-4,4-diphenyl-heptan-3-yl] ethanoate

> <PUBCHEM_IUPAC_TRADITIONAL_NAME>
acetic acid [(1S,4S)-1-ethyl-4-(methylamino)-2,2-diphenyl-pentyl] ester

> <PUBCHEM_IUPAC_INCHI>
InChI=1S/C22H29NO2/c1-5-21(25-18(3)24)22(16-17(2)23-4,19-12-8-6-9-13-19)20-14-10-7-11-15-20/h6-15,17,21,23H,5,16H2,1-4H3/t17-,21-/m0/s1

> <PUBCHEM_IUPAC_INCHIKEY>
VWCUGCYZZGRKEE-UWJYYQICSA-N

> <PUBCHEM_XLOGP3>
3.8

> <PUBCHEM_EXACT_MASS>
339.219829

> <PUBCHEM_MOLECULAR_FORMULA>
C22H29NO2

> <PUBCHEM_MOLECULAR_WEIGHT>
339.47116

> <PUBCHEM_OPENEYE_CAN_SMILES>
CCC(C(CC(C)NC)(C1=CC=CC=C1)C2=CC=CC=C2)OC(=O)C

> <PUBCHEM_OPENEYE_ISO_SMILES>
CC[C@@H](C(C[C@H](C)NC)(C1=CC=CC=C1)C2=CC=CC=C2)OC(=O)C

> <PUBCHEM_CACTVS_TPSA>
38.3

> <PUBCHEM_MONOISOTOPIC_WEIGHT>
339.219829

> <PUBCHEM_TOTAL_CHARGE>
0

> <PUBCHEM_HEAVY_ATOM_COUNT>
25

> <PUBCHEM_ATOM_DEF_STEREO_COUNT>
2

> <PUBCHEM_ATOM_UDEF_STEREO_COUNT>
0

> <PUBCHEM_BOND_DEF_STEREO_COUNT>
0

> <PUBCHEM_BOND_UDEF_STEREO_COUNT>
0

> <PUBCHEM_ISOTOPIC_ATOM_COUNT>
0

> <PUBCHEM_COMPONENT_COUNT>
1

> <PUBCHEM_CACTVS_TAUTO_COUNT>
1

> <PUBCHEM_COORDINATE_TYPE>
1
5
255

> <PUBCHEM_BONDANNOTATIONS>
6  1  6
12  17  8
13  18  8
14  19  8
15  20  8
17  23  8
18  24  8
19  23  8
20  24  8
7  3  5
8  13  8
8  15  8
9  12  8
9  14  8

$$$$

