21606893
  -OEChem-07051213092D

 77 81  0     1  0  0  0  0  0999 V2000
    2.5357   -3.2312    0.0000 N   0  0  0  0  0  0  0  0  0  0  0  0
    9.8885    3.0432    0.0000 N   0  0  0  0  0  0  0  0  0  0  0  0
    7.9288   -0.1788    0.0000 C   0  0  1  0  0  0  0  0  0  0  0  0
    7.9288   -1.1788    0.0000 C   0  0  2  0  0  0  0  0  0  0  0  0
    6.1968   -1.1788    0.0000 C   0  0  2  0  0  0  0  0  0  0  0  0
    5.2868   -1.6857    0.0000 C   0  0  2  0  0  0  0  0  0  0  0  0
    8.8750    0.1259    0.0000 C   0  0  2  0  0  0  0  0  0  0  0  0
    7.0628   -1.6788    0.0000 C   0  0  0  0  0  0  0  0  0  0  0  0
    7.0628    0.3212    0.0000 C   0  0  0  0  0  0  0  0  0  0  0  0
    6.1968   -0.1788    0.0000 C   0  0  0  0  0  0  0  0  0  0  0  0
    5.2787   -2.7273    0.0000 C   0  0  1  0  0  0  0  0  0  0  0  0
    8.8750   -1.4836    0.0000 C   0  0  0  0  0  0  0  0  0  0  0  0
    9.4586   -0.6788    0.0000 C   0  0  0  0  0  0  0  0  0  0  0  0
    4.3599   -1.1216    0.0000 C   0  0  0  0  0  0  0  0  0  0  0  0
    9.1857    1.0764    0.0000 C   0  0  1  0  0  0  0  0  0  0  0  0
    6.1808   -3.2481    0.0000 C   0  0  0  0  0  0  0  0  0  0  0  0
    7.9288    0.8212    0.0000 C   0  0  0  0  0  0  0  0  0  0  0  0
    7.0789   -2.7204    0.0000 C   0  0  0  0  0  0  0  0  0  0  0  0
    4.3433   -3.2770    0.0000 C   0  0  0  0  0  0  0  0  0  0  0  0
    5.2945   -0.6857    0.0000 C   0  0  0  0  0  0  0  0  0  0  0  0
    3.4120   -1.6496    0.0000 C   0  0  0  0  0  0  0  0  0  0  0  0
    3.4037   -2.7345    0.0000 C   0  0  1  0  0  0  0  0  0  0  0  0
   10.1642    1.2826    0.0000 C   0  0  0  0  0  0  0  0  0  0  0  0
    8.5179    1.8207    0.0000 C   0  0  0  0  0  0  0  0  0  0  0  0
   10.4749    2.2331    0.0000 C   0  0  0  0  0  0  0  0  0  0  0  0
   11.4265    2.5405    0.0000 C   0  0  0  0  0  0  0  0  0  0  0  0
   11.4282    3.5405    0.0000 C   0  0  0  0  0  0  0  0  0  0  0  0
   10.4777    3.8512    0.0000 C   0  0  0  0  0  0  0  0  0  0  0  0
   12.2345    1.9513    0.0000 C   0  0  0  0  0  0  0  0  0  0  0  0
   13.1487    2.3565    0.0000 C   0  0  0  0  0  0  0  0  0  0  0  0
   12.1282    0.9570    0.0000 C   0  0  0  0  0  0  0  0  0  0  0  0
    8.0188   -2.0241    0.0000 H   0  0  0  0  0  0  0  0  0  0  0  0
    6.9329   -0.7538    0.0000 H   0  0  0  0  0  0  0  0  0  0  0  0
    9.7148    0.2578    0.0000 H   0  0  0  0  0  0  0  0  0  0  0  0
    7.4613    0.7961    0.0000 H   0  0  0  0  0  0  0  0  0  0  0  0
    6.6643    0.7961    0.0000 H   0  0  0  0  0  0  0  0  0  0  0  0
    5.9847    0.4038    0.0000 H   0  0  0  0  0  0  0  0  0  0  0  0
    5.5862   -0.2865    0.0000 H   0  0  0  0  0  0  0  0  0  0  0  0
    5.2820   -3.5773    0.0000 H   0  0  0  0  0  0  0  0  0  0  0  0
    8.6240   -2.0505    0.0000 H   0  0  0  0  0  0  0  0  0  0  0  0
    9.4124   -1.7928    0.0000 H   0  0  0  0  0  0  0  0  0  0  0  0
    9.9195   -1.0936    0.0000 H   0  0  0  0  0  0  0  0  0  0  0  0
    9.9195   -0.2641    0.0000 H   0  0  0  0  0  0  0  0  0  0  0  0
    4.7681   -0.6550    0.0000 H   0  0  0  0  0  0  0  0  0  0  0  0
    3.9700   -0.6396    0.0000 H   0  0  0  0  0  0  0  0  0  0  0  0
    9.3783    1.6657    0.0000 H   0  0  0  0  0  0  0  0  0  0  0  0
    5.7835   -3.7241    0.0000 H   0  0  0  0  0  0  0  0  0  0  0  0
    6.5818   -3.7210    0.0000 H   0  0  0  0  0  0  0  0  0  0  0  0
    8.5488    0.8212    0.0000 H   0  0  0  0  0  0  0  0  0  0  0  0
    7.9288    1.4412    0.0000 H   0  0  0  0  0  0  0  0  0  0  0  0
    7.3088    0.8212    0.0000 H   0  0  0  0  0  0  0  0  0  0  0  0
    7.6193   -3.0241    0.0000 H   0  0  0  0  0  0  0  0  0  0  0  0
    3.9460   -3.7530    0.0000 H   0  0  0  0  0  0  0  0  0  0  0  0
    4.7443   -3.7499    0.0000 H   0  0  0  0  0  0  0  0  0  0  0  0
    5.9145   -0.6905    0.0000 H   0  0  0  0  0  0  0  0  0  0  0  0
    5.2993   -0.0657    0.0000 H   0  0  0  0  0  0  0  0  0  0  0  0
    4.6745   -0.6809    0.0000 H   0  0  0  0  0  0  0  0  0  0  0  0
    3.2075   -1.0643    0.0000 H   0  0  0  0  0  0  0  0  0  0  0  0
    2.8004   -1.7509    0.0000 H   0  0  0  0  0  0  0  0  0  0  0  0
    2.8686   -2.4214    0.0000 H   0  0  0  0  0  0  0  0  0  0  0  0
   10.1848    0.6630    0.0000 H   0  0  0  0  0  0  0  0  0  0  0  0
   10.7780    1.1953    0.0000 H   0  0  0  0  0  0  0  0  0  0  0  0
    8.9793    2.2348    0.0000 H   0  0  0  0  0  0  0  0  0  0  0  0
    8.1038    2.2822    0.0000 H   0  0  0  0  0  0  0  0  0  0  0  0
    8.0564    1.4066    0.0000 H   0  0  0  0  0  0  0  0  0  0  0  0
    2.0000   -2.9191    0.0000 H   0  0  0  0  0  0  0  0  0  0  0  0
    2.5334   -3.8512    0.0000 H   0  0  0  0  0  0  0  0  0  0  0  0
   12.0447    3.4746    0.0000 H   0  0  0  0  0  0  0  0  0  0  0  0
   11.5581    4.1467    0.0000 H   0  0  0  0  0  0  0  0  0  0  0  0
   10.7308    4.4171    0.0000 H   0  0  0  0  0  0  0  0  0  0  0  0
    9.9413    4.1621    0.0000 H   0  0  0  0  0  0  0  0  0  0  0  0
   11.5117    1.0229    0.0000 H   0  0  0  0  0  0  0  0  0  0  0  0
   12.0623    0.3405    0.0000 H   0  0  0  0  0  0  0  0  0  0  0  0
   12.7447    0.8911    0.0000 H   0  0  0  0  0  0  0  0  0  0  0  0
   13.3999    1.7896    0.0000 H   0  0  0  0  0  0  0  0  0  0  0  0
   13.7155    2.6077    0.0000 H   0  0  0  0  0  0  0  0  0  0  0  0
   12.8975    2.9233    0.0000 H   0  0  0  0  0  0  0  0  0  0  0  0
 22  1  1  6  0  0  0
  1 66  1  0  0  0  0
  1 67  1  0  0  0  0
  2 25  2  0  0  0  0
  2 28  1  0  0  0  0
  3  4  1  0  0  0  0
  3  7  1  0  0  0  0
  3  9  1  0  0  0  0
  3 17  1  1  0  0  0
  4  8  1  0  0  0  0
  4 12  1  0  0  0  0
  4 32  1  6  0  0  0
  5  6  1  0  0  0  0
  5  8  1  0  0  0  0
  5 10  1  0  0  0  0
  5 33  1  6  0  0  0
  6 11  1  0  0  0  0
  6 14  1  0  0  0  0
  6 20  1  1  0  0  0
  7 13  1  0  0  0  0
  7 15  1  0  0  0  0
  7 34  1  6  0  0  0
  8 18  2  0  0  0  0
  9 10  1  0  0  0  0
  9 35  1  0  0  0  0
  9 36  1  0  0  0  0
 10 37  1  0  0  0  0
 10 38  1  0  0  0  0
 11 16  1  0  0  0  0
 11 19  1  0  0  0  0
 11 39  1  6  0  0  0
 12 13  1  0  0  0  0
 12 40  1  0  0  0  0
 12 41  1  0  0  0  0
 13 42  1  0  0  0  0
 13 43  1  0  0  0  0
 14 21  1  0  0  0  0
 14 44  1  0  0  0  0
 14 45  1  0  0  0  0
 15 23  1  0  0  0  0
 15 24  1  6  0  0  0
 15 46  1  0  0  0  0
 16 18  1  0  0  0  0
 16 47  1  0  0  0  0
 16 48  1  0  0  0  0
 17 49  1  0  0  0  0
 17 50  1  0  0  0  0
 17 51  1  0  0  0  0
 18 52  1  0  0  0  0
 19 22  1  0  0  0  0
 19 53  1  0  0  0  0
 19 54  1  0  0  0  0
 20 55  1  0  0  0  0
 20 56  1  0  0  0  0
 20 57  1  0  0  0  0
 21 22  1  0  0  0  0
 21 58  1  0  0  0  0
 21 59  1  0  0  0  0
 22 60  1  0  0  0  0
 23 25  1  0  0  0  0
 23 61  1  0  0  0  0
 23 62  1  0  0  0  0
 24 63  1  0  0  0  0
 24 64  1  0  0  0  0
 24 65  1  0  0  0  0
 25 26  1  0  0  0  0
 26 27  1  0  0  0  0
 26 29  2  0  0  0  0
 27 28  1  0  0  0  0
 27 68  1  0  0  0  0
 27 69  1  0  0  0  0
 28 70  1  0  0  0  0
 28 71  1  0  0  0  0
 29 30  1  0  0  0  0
 29 31  1  0  0  0  0
 30 75  1  0  0  0  0
 30 76  1  0  0  0  0
 30 77  1  0  0  0  0
 31 72  1  0  0  0  0
 31 73  1  0  0  0  0
 31 74  1  0  0  0  0
M  END
> <PUBCHEM_COMPOUND_CID>
21606893

> <PUBCHEM_COMPOUND_CANONICALIZED>
1

> <PUBCHEM_CACTVS_COMPLEXITY>
815

> <PUBCHEM_CACTVS_HBOND_ACCEPTOR>
2

> <PUBCHEM_CACTVS_HBOND_DONOR>
1

> <PUBCHEM_CACTVS_ROTATABLE_BOND>
3

> <PUBCHEM_CACTVS_SUBSKEYS>
AAADcfB7AAAAAAAAAAAAAAAAAAAAAYIAAAAwYIAAAAAAAGCAAAAAHAAQAAAADyjBAAQCAAJAAACgAyBiBAAAAAAgAAAACIAwABgAAAIAgQAAAAAAkAAIAAMQgMAPgAAAAAAAAACQAASAACAAAQAACAAAAA==

> <PUBCHEM_IUPAC_OPENEYE_NAME>
(3R,5S,9R,10S,13R,14R,17R)-17-[(1R)-2-(4-isopropylidene-2,3-dihydropyrrol-5-yl)-1-methyl-ethyl]-10,13-dimethyl-2,3,4,5,6,9,11,12,14,15,16,17-dodecahydro-1H-cyclopenta[a]phenanthren-3-amine

> <PUBCHEM_IUPAC_CAS_NAME>
(3R,5S,9R,10S,13R,14R,17R)-10,13-dimethyl-17-[(2R)-1-(4-propan-2-ylidene-2,3-dihydropyrrol-5-yl)propan-2-yl]-2,3,4,5,6,9,11,12,14,15,16,17-dodecahydro-1H-cyclopenta[a]phenanthren-3-amine

> <PUBCHEM_IUPAC_NAME>
(3R,5S,9R,10S,13R,14R,17R)-10,13-dimethyl-17-[(2R)-1-(4-propan-2-ylidene-2,3-dihydropyrrol-5-yl)propan-2-yl]-2,3,4,5,6,9,11,12,14,15,16,17-dodecahydro-1H-cyclopenta[a]phenanthren-3-amine

> <PUBCHEM_IUPAC_SYSTEMATIC_NAME>
(3R,5S,9R,10S,13R,14R,17R)-10,13-dimethyl-17-[(2R)-1-(4-propan-2-ylidene-2,3-dihydropyrrol-5-yl)propan-2-yl]-2,3,4,5,6,9,11,12,14,15,16,17-dodecahydro-1H-cyclopenta[a]phenanthren-3-amine

> <PUBCHEM_IUPAC_TRADITIONAL_NAME>
[(3R,5S,9R,10S,13R,14R,17R)-17-[(1R)-2-(3-isopropylidene-1-pyrrolin-2-yl)-1-methyl-ethyl]-10,13-dimethyl-2,3,4,5,6,9,11,12,14,15,16,17-dodecahydro-1H-cyclopenta[a]phenanthren-3-yl]amine

> <PUBCHEM_IUPAC_INCHI>
InChI=1S/C29H46N2/c1-18(2)22-12-15-31-27(22)16-19(3)24-8-9-25-23-7-6-20-17-21(30)10-13-28(20,4)26(23)11-14-29(24,25)5/h7,19-21,24-26H,6,8-17,30H2,1-5H3/t19-,20+,21-,24-,25+,26+,28+,29-/m1/s1

> <PUBCHEM_IUPAC_INCHIKEY>
CWYDWJDPKSMUPT-MADLDNGBSA-N

> <PUBCHEM_XLOGP3_AA>
6.2

> <PUBCHEM_EXACT_MASS>
422.366099

> <PUBCHEM_MOLECULAR_FORMULA>
C29H46N2

> <PUBCHEM_MOLECULAR_WEIGHT>
422.68894

> <PUBCHEM_OPENEYE_CAN_SMILES>
CC(CC1=NCCC1=C(C)C)C2CCC3C2(CCC4C3=CCC5C4(CCC(C5)N)C)C

> <PUBCHEM_OPENEYE_ISO_SMILES>
C[C@H](CC1=NCCC1=C(C)C)[C@H]2CC[C@@H]3[C@@]2(CC[C@H]4C3=CC[C@@H]5[C@@]4(CC[C@H](C5)N)C)C

> <PUBCHEM_CACTVS_TPSA>
38.4

> <PUBCHEM_MONOISOTOPIC_WEIGHT>
422.366099

> <PUBCHEM_TOTAL_CHARGE>
0

> <PUBCHEM_HEAVY_ATOM_COUNT>
31

> <PUBCHEM_ATOM_DEF_STEREO_COUNT>
8

> <PUBCHEM_ATOM_UDEF_STEREO_COUNT>
0

> <PUBCHEM_BOND_DEF_STEREO_COUNT>
0

> <PUBCHEM_BOND_UDEF_STEREO_COUNT>
0

> <PUBCHEM_ISOTOPIC_ATOM_COUNT>
0

> <PUBCHEM_COMPONENT_COUNT>
1

> <PUBCHEM_CACTVS_TAUTO_COUNT>
1

> <PUBCHEM_COORDINATE_TYPE>
1
5
255

> <PUBCHEM_BONDANNOTATIONS>
22  1  6
11  39  6
15  24  6
3  17  5
4  32  6
5  33  6
6  20  5
7  34  6

$$$$

