442666
  -OEChem-07051212592D

 36 41  0     1  0  0  0  0  0999 V2000
    6.2719   -1.2985    0.0000 O   0  0  0  0  0  0  0  0  0  0  0  0
    6.4811    1.6733    0.0000 O   0  0  0  0  0  0  0  0  0  0  0  0
    4.7490    0.6733    0.0000 O   0  0  0  0  0  0  0  0  0  0  0  0
    8.4512    2.7219    0.0000 O   0  0  0  0  0  0  0  0  0  0  0  0
    2.2123   -1.3153    0.0000 O   0  0  0  0  0  0  0  0  0  0  0  0
    2.8914   -2.8371    0.0000 O   0  0  0  0  0  0  0  0  0  0  0  0
    9.9094    1.8948    0.0000 O   0  0  0  0  0  0  0  0  0  0  0  0
    5.6151    0.1733    0.0000 C   0  0  1  0  0  0  0  0  0  0  0  0
    6.4811   -0.3267    0.0000 C   0  0  2  0  0  0  0  0  0  0  0  0
    4.8780   -0.4938    0.0000 C   0  0  0  0  0  0  0  0  0  0  0  0
    5.6151    1.1733    0.0000 C   0  0  0  0  0  0  0  0  0  0  0  0
    7.3471    0.1733    0.0000 C   0  0  0  0  0  0  0  0  0  0  0  0
    5.2832   -1.4016    0.0000 C   0  0  0  0  0  0  0  0  0  0  0  0
    7.3471    1.1733    0.0000 C   0  0  0  0  0  0  0  0  0  0  0  0
    3.8499   -0.3706    0.0000 C   0  0  0  0  0  0  0  0  0  0  0  0
    8.2410   -0.3614    0.0000 C   0  0  0  0  0  0  0  0  0  0  0  0
    4.6882   -2.2491    0.0000 C   0  0  0  0  0  0  0  0  0  0  0  0
    8.2410    1.7079    0.0000 C   0  0  0  0  0  0  0  0  0  0  0  0
    3.2356   -1.2041    0.0000 C   0  0  0  0  0  0  0  0  0  0  0  0
    3.6576   -2.1497    0.0000 C   0  0  0  0  0  0  0  0  0  0  0  0
    9.1471    1.1941    0.0000 C   0  0  0  0  0  0  0  0  0  0  0  0
    9.1471    0.1525    0.0000 C   0  0  0  0  0  0  0  0  0  0  0  0
    2.0000   -2.3225    0.0000 C   0  0  0  0  0  0  0  0  0  0  0  0
    9.4802    2.8371    0.0000 C   0  0  0  0  0  0  0  0  0  0  0  0
    7.1681   -0.8272    0.0000 H   0  0  0  0  0  0  0  0  0  0  0  0
    5.4030    1.7559    0.0000 H   0  0  0  0  0  0  0  0  0  0  0  0
    5.0045    1.0656    0.0000 H   0  0  0  0  0  0  0  0  0  0  0  0
    3.6038    0.1985    0.0000 H   0  0  0  0  0  0  0  0  0  0  0  0
    4.7490    1.2933    0.0000 H   0  0  0  0  0  0  0  0  0  0  0  0
    8.2339   -0.9813    0.0000 H   0  0  0  0  0  0  0  0  0  0  0  0
    4.9474   -2.8123    0.0000 H   0  0  0  0  0  0  0  0  0  0  0  0
    9.6828   -0.1596    0.0000 H   0  0  0  0  0  0  0  0  0  0  0  0
    1.4101   -2.1316    0.0000 H   0  0  0  0  0  0  0  0  0  0  0  0
    1.7482   -2.8890    0.0000 H   0  0  0  0  0  0  0  0  0  0  0  0
   10.0683    3.0334    0.0000 H   0  0  0  0  0  0  0  0  0  0  0  0
    9.3468    3.4426    0.0000 H   0  0  0  0  0  0  0  0  0  0  0  0
  1  9  1  0  0  0  0
  1 13  1  0  0  0  0
  2 11  1  0  0  0  0
  2 14  1  0  0  0  0
  8  3  1  1  0  0  0
  3 29  1  0  0  0  0
  4 18  1  0  0  0  0
  4 24  1  0  0  0  0
  5 19  1  0  0  0  0
  5 23  1  0  0  0  0
  6 20  1  0  0  0  0
  6 23  1  0  0  0  0
  7 21  1  0  0  0  0
  7 24  1  0  0  0  0
  8  9  1  0  0  0  0
  8 10  1  0  0  0  0
  8 11  1  0  0  0  0
  9 12  1  0  0  0  0
  9 25  1  1  0  0  0
 10 13  1  0  0  0  0
 10 15  2  0  0  0  0
 11 26  1  0  0  0  0
 11 27  1  0  0  0  0
 12 14  2  0  0  0  0
 12 16  1  0  0  0  0
 13 17  2  0  0  0  0
 14 18  1  0  0  0  0
 15 19  1  0  0  0  0
 15 28  1  0  0  0  0
 16 22  2  0  0  0  0
 16 30  1  0  0  0  0
 17 20  1  0  0  0  0
 17 31  1  0  0  0  0
 18 21  2  0  0  0  0
 19 20  2  0  0  0  0
 21 22  1  0  0  0  0
 22 32  1  0  0  0  0
 23 33  1  0  0  0  0
 23 34  1  0  0  0  0
 24 35  1  0  0  0  0
 24 36  1  0  0  0  0
M  END
> <PUBCHEM_COMPOUND_CID>
442666

> <PUBCHEM_COMPOUND_CANONICALIZED>
1

> <PUBCHEM_CACTVS_COMPLEXITY>
529

> <PUBCHEM_CACTVS_HBOND_ACCEPTOR>
7

> <PUBCHEM_CACTVS_HBOND_DONOR>
1

> <PUBCHEM_CACTVS_ROTATABLE_BOND>
0

> <PUBCHEM_CACTVS_SUBSKEYS>
AAADccB4OAAAAAAAAAAAAAAAAAAAASJEgAA0YIAAAAAAAEiRQAAAGgAACAAADFSgmAMwDoAABgCAAiBCAAACCAAgIAAIiAAGiIgdJyKEMRqieCKlwBUPuAfA4PwOoQABCAAIQABCAAIQABCAAAAAAAAAAA==

> <PUBCHEM_IUPAC_INCHI>
InChI=1S/C17H12O7/c18-17-5-19-14-8(1-2-10-15(14)23-7-20-10)16(17)24-11-4-13-12(3-9(11)17)21-6-22-13/h1-4,16,18H,5-7H2/t16-,17+/m0/s1

> <PUBCHEM_IUPAC_INCHIKEY>
OOCFJEXFOZXGCV-DLBZAZTESA-N

> <PUBCHEM_XLOGP3_AA>
1.5

> <PUBCHEM_EXACT_MASS>
328.058303

> <PUBCHEM_MOLECULAR_FORMULA>
C17H12O7

> <PUBCHEM_MOLECULAR_WEIGHT>
328.27298

> <PUBCHEM_OPENEYE_CAN_SMILES>
C1C2(C(C3=C(O1)C4=C(C=C3)OCO4)OC5=CC6=C(C=C52)OCO6)O

> <PUBCHEM_OPENEYE_ISO_SMILES>
C1[C@@]2([C@H](C3=C(O1)C4=C(C=C3)OCO4)OC5=CC6=C(C=C52)OCO6)O

> <PUBCHEM_CACTVS_TPSA>
75.6

> <PUBCHEM_MONOISOTOPIC_WEIGHT>
328.058303

> <PUBCHEM_TOTAL_CHARGE>
0

> <PUBCHEM_HEAVY_ATOM_COUNT>
24

> <PUBCHEM_ATOM_DEF_STEREO_COUNT>
2

> <PUBCHEM_ATOM_UDEF_STEREO_COUNT>
0

> <PUBCHEM_BOND_DEF_STEREO_COUNT>
0

> <PUBCHEM_BOND_UDEF_STEREO_COUNT>
0

> <PUBCHEM_ISOTOPIC_ATOM_COUNT>
0

> <PUBCHEM_COMPONENT_COUNT>
1

> <PUBCHEM_CACTVS_TAUTO_COUNT>
1

> <PUBCHEM_COORDINATE_TYPE>
1
5
255

> <PUBCHEM_BONDANNOTATIONS>
10  13  8
10  15  8
12  14  8
12  16  8
13  17  8
14  18  8
15  19  8
16  22  8
17  20  8
18  21  8
19  20  8
21  22  8
8  3  5
9  25  5

$$$$

