442187
  -OEChem-07051212573D

 39 41  0     1  0  0  0  0  0999 V2000
    3.4283    1.0218   -0.2427 O   0  0  0  0  0  0  0  0  0  0  0  0
    4.1080   -1.1748   -0.3426 O   0  0  0  0  0  0  0  0  0  0  0  0
   -0.9806   -0.5995   -0.1775 C   0  0  2  0  0  0  0  0  0  0  0  0
   -0.2877    0.7317    0.3177 C   0  0  2  0  0  0  0  0  0  0  0  0
   -2.5477   -0.5997   -0.1738 C   0  0  0  0  0  0  0  0  0  0  0  0
   -0.8790    1.9125   -0.4833 C   0  0  0  0  0  0  0  0  0  0  0  0
   -3.0566    0.6810   -0.8864 C   0  0  0  0  0  0  0  0  0  0  0  0
   -0.3130   -1.8439    0.4625 C   0  0  0  0  0  0  0  0  0  0  0  0
    1.2024    0.5831    0.0716 C   0  0  0  0  0  0  0  0  0  0  0  0
   -2.4045    1.9755   -0.4098 C   0  0  0  0  0  0  0  0  0  0  0  0
    1.1815   -1.9333    0.0985 C   0  0  0  0  0  0  0  0  0  0  0  0
   -0.4222    1.0140    1.8308 C   0  0  0  0  0  0  0  0  0  0  0  0
    1.8149   -0.5971   -0.0105 C   0  0  0  0  0  0  0  0  0  0  0  0
   -3.0719   -1.8064   -0.9967 C   0  0  0  0  0  0  0  0  0  0  0  0
   -3.1811   -0.7238    1.2233 C   0  0  0  0  0  0  0  0  0  0  0  0
    2.1710    1.6899   -0.0641 C   0  0  0  0  0  0  0  0  0  0  0  0
    3.2379   -0.3310   -0.2170 C   0  0  0  0  0  0  0  0  0  0  0  0
   -0.7246   -0.6702   -1.2502 H   0  0  0  0  0  0  0  0  0  0  0  0
   -0.5836    1.8310   -1.5385 H   0  0  0  0  0  0  0  0  0  0  0  0
   -0.4703    2.8656   -0.1237 H   0  0  0  0  0  0  0  0  0  0  0  0
   -4.1452    0.7676   -0.7775 H   0  0  0  0  0  0  0  0  0  0  0  0
   -2.8671    0.5916   -1.9652 H   0  0  0  0  0  0  0  0  0  0  0  0
   -0.7918   -2.7705    0.1308 H   0  0  0  0  0  0  0  0  0  0  0  0
   -0.4218   -1.8192    1.5522 H   0  0  0  0  0  0  0  0  0  0  0  0
   -2.7330    2.2113    0.6075 H   0  0  0  0  0  0  0  0  0  0  0  0
   -2.7556    2.8024   -1.0391 H   0  0  0  0  0  0  0  0  0  0  0  0
    1.2818   -2.4451   -0.8664 H   0  0  0  0  0  0  0  0  0  0  0  0
    1.7000   -2.5467    0.8438 H   0  0  0  0  0  0  0  0  0  0  0  0
   -0.0939    0.1688    2.4441 H   0  0  0  0  0  0  0  0  0  0  0  0
    0.1932    1.8738    2.1255 H   0  0  0  0  0  0  0  0  0  0  0  0
   -1.4359    1.2693    2.1349 H   0  0  0  0  0  0  0  0  0  0  0  0
   -2.8819   -2.7593   -0.4926 H   0  0  0  0  0  0  0  0  0  0  0  0
   -4.1556   -1.7365   -1.1497 H   0  0  0  0  0  0  0  0  0  0  0  0
   -2.6047   -1.8487   -1.9869 H   0  0  0  0  0  0  0  0  0  0  0  0
   -2.7532   -1.5562    1.7904 H   0  0  0  0  0  0  0  0  0  0  0  0
   -3.0855    0.1817    1.8206 H   0  0  0  0  0  0  0  0  0  0  0  0
   -4.2589   -0.9128    1.1430 H   0  0  0  0  0  0  0  0  0  0  0  0
    1.9784    2.3119   -0.9425 H   0  0  0  0  0  0  0  0  0  0  0  0
    2.2280    2.3142    0.8316 H   0  0  0  0  0  0  0  0  0  0  0  0
  1 16  1  0  0  0  0
  1 17  1  0  0  0  0
  2 17  2  0  0  0  0
  3  4  1  0  0  0  0
  3  5  1  0  0  0  0
  3  8  1  0  0  0  0
  3 18  1  0  0  0  0
  4  6  1  0  0  0  0
  4  9  1  0  0  0  0
  4 12  1  0  0  0  0
  5  7  1  0  0  0  0
  5 14  1  0  0  0  0
  5 15  1  0  0  0  0
  6 10  1  0  0  0  0
  6 19  1  0  0  0  0
  6 20  1  0  0  0  0
  7 10  1  0  0  0  0
  7 21  1  0  0  0  0
  7 22  1  0  0  0  0
  8 11  1  0  0  0  0
  8 23  1  0  0  0  0
  8 24  1  0  0  0  0
  9 13  2  0  0  0  0
  9 16  1  0  0  0  0
 10 25  1  0  0  0  0
 10 26  1  0  0  0  0
 11 13  1  0  0  0  0
 11 27  1  0  0  0  0
 11 28  1  0  0  0  0
 12 29  1  0  0  0  0
 12 30  1  0  0  0  0
 12 31  1  0  0  0  0
 13 17  1  0  0  0  0
 14 32  1  0  0  0  0
 14 33  1  0  0  0  0
 14 34  1  0  0  0  0
 15 35  1  0  0  0  0
 15 36  1  0  0  0  0
 15 37  1  0  0  0  0
 16 38  1  0  0  0  0
 16 39  1  0  0  0  0
M  END
> <PUBCHEM_COMPOUND_CID>
442187

> <PUBCHEM_CONFORMER_RMSD>
0.6

> <PUBCHEM_CONFORMER_DIVERSEORDER>
1

> <PUBCHEM_MMFF94_PARTIAL_CHARGES>
8
1 -0.43
11 0.14
13 -0.12
16 0.42
17 0.71
2 -0.57
4 0.14
9 -0.28

> <PUBCHEM_EFFECTIVE_ROTOR_COUNT>
1.6

> <PUBCHEM_PHARMACOPHORE_FEATURES>
5
1 2 acceptor
3 5 14 15 hydrophobe
5 1 9 13 16 17 rings
6 3 4 5 6 7 10 rings
6 3 4 8 9 11 13 rings

> <PUBCHEM_HEAVY_ATOM_COUNT>
17

> <PUBCHEM_ATOM_DEF_STEREO_COUNT>
2

> <PUBCHEM_ATOM_UDEF_STEREO_COUNT>
0

> <PUBCHEM_BOND_DEF_STEREO_COUNT>
0

> <PUBCHEM_BOND_UDEF_STEREO_COUNT>
0

> <PUBCHEM_ISOTOPIC_ATOM_COUNT>
0

> <PUBCHEM_COMPONENT_COUNT>
1

> <PUBCHEM_CACTVS_TAUTO_COUNT>
1

> <PUBCHEM_CONFORMER_ID>
0006BF4B00000001

> <PUBCHEM_MMFF94_ENERGY>
44.5186

> <PUBCHEM_FEATURE_SELFOVERLAP>
25.459

> <PUBCHEM_SHAPE_FINGERPRINT>
10062212 137 18198915879639311362
10608611 8 18412830183207229212
10863032 1 18130229371013928075
10922523 26 18410854386486584372
10967382 1 18196094558345057093
11132069 177 18260835881879422746
11206711 2 18413105082535846630
11578080 2 17750256749969435753
11769659 78 18334862701253084590
12423570 1 16395499785415273185
12491281 212 18129378361867542689
13140716 1 18340771554166553264
13221675 6 18411698798489804523
13296908 3 18411138026105771460
13299463 15 18410294730773189297
14251745 187 18193005811345160619
14614273 12 17988091105029573173
14617773 55 17749934622789118912
15196674 1 18411702079828806196
15219456 202 18413107255647087617
15375462 189 18260261924067435187
15775835 57 18198619019931230868
15906896 17 16734939280081331713
16945 1 18411987931393145555
17844478 74 18200865202238818979
18186145 218 18260823778824963404
19422 9 17968372347316623751
200 152 17895201033793427756
20510252 161 18408603638908582464
20525323 117 18343303677947593129
21267235 1 18410848884581139751
21501502 16 18270127944897989139
22344851 262 17987790946713068141
22802520 49 18412826910521036945
2334 1 18413109437564392004
23402539 116 18340216219363883158
23419403 2 14650988325884885071
23493267 7 17632301193880182377
23559900 14 18189063135185028506
25 1 18128256885650102669
2748010 2 18341058432011622965
2871803 45 18340498776704332311
3286 77 17386293064952035643
353137 74 18412547612849964049
5104073 3 18412546526550539832
528886 8 18343028817136206785
8809292 202 18272365369350841227
9709674 26 18410571756617695910

> <PUBCHEM_SHAPE_MULTIPOLES>
338.11
5.77
2.23
1.07
2.46
0.04
0.39
-0.9
-1.14
-0.43
-0.21
-0.68
0.09
0.1

> <PUBCHEM_SHAPE_SELFOVERLAP>
721.712

> <PUBCHEM_SHAPE_VOLUME>
189.7

> <PUBCHEM_COORDINATE_TYPE>
2
5
10

$$$$

