47205793
  -OEChem-06241223003D

 49 48  0     1  0  0  0  0  0999 V2000
   -0.0386    0.4725   -1.1923 O   0  0  0  0  0  0  0  0  0  0  0  0
    4.2234    0.6765   -0.3574 O   0  0  0  0  0  0  0  0  0  0  0  0
    2.8638    1.0979    1.4451 O   0  0  0  0  0  0  0  0  0  0  0  0
   -4.5903    0.9945    0.3180 N   0  0  0  0  0  0  0  0  0  0  0  0
   -1.0138    0.1757    0.8927 N   0  0  0  0  0  0  0  0  0  0  0  0
    2.3231   -0.5051   -0.1435 N   0  0  0  0  0  0  0  0  0  0  0  0
   -3.3757    0.1999    0.0810 C   0  0  0  0  0  0  0  0  0  0  0  0
   -2.1865    0.9876    0.6629 C   0  0  0  0  0  0  0  0  0  0  0  0
    1.0762   -0.9519    0.4242 C   0  0  2  0  0  0  0  0  0  0  0  0
   -3.2184   -0.0165   -1.4312 C   0  0  0  0  0  0  0  0  0  0  0  0
   -3.5522   -1.1501    0.7895 C   0  0  0  0  0  0  0  0  0  0  0  0
    0.7642   -2.4319    0.1170 C   0  0  0  0  0  0  0  0  0  0  0  0
   -0.0274   -0.0160   -0.0642 C   0  0  0  0  0  0  0  0  0  0  0  0
   -5.7601    0.2914   -0.1993 C   0  0  0  0  0  0  0  0  0  0  0  0
   -4.4601    2.3093   -0.3023 C   0  0  0  0  0  0  0  0  0  0  0  0
    1.8548   -3.3513    0.6752 C   0  0  0  0  0  0  0  0  0  0  0  0
    0.5666   -2.7072   -1.3775 C   0  0  0  0  0  0  0  0  0  0  0  0
    3.1122    0.4818    0.4137 C   0  0  0  0  0  0  0  0  0  0  0  0
    5.1365    1.6781    0.1052 C   0  0  0  0  0  0  0  0  0  0  0  0
    6.3021    1.7647   -0.8568 C   0  0  0  0  0  0  0  0  0  0  0  0
   -2.4401    1.4050    1.6456 H   0  0  0  0  0  0  0  0  0  0  0  0
   -1.8811    1.8155    0.0129 H   0  0  0  0  0  0  0  0  0  0  0  0
    1.1619   -0.8357    1.5129 H   0  0  0  0  0  0  0  0  0  0  0  0
   -2.6226   -1.7306    0.7823 H   0  0  0  0  0  0  0  0  0  0  0  0
   -4.2811   -1.8069    0.3035 H   0  0  0  0  0  0  0  0  0  0  0  0
   -3.8415   -1.0223    1.8394 H   0  0  0  0  0  0  0  0  0  0  0  0
   -2.3589   -0.6742   -1.6106 H   0  0  0  0  0  0  0  0  0  0  0  0
   -4.0492   -0.5410   -1.9100 H   0  0  0  0  0  0  0  0  0  0  0  0
   -3.0041    0.8966   -1.9939 H   0  0  0  0  0  0  0  0  0  0  0  0
   -0.1772   -2.6900    0.6199 H   0  0  0  0  0  0  0  0  0  0  0  0
   -0.9266   -0.2801    1.7964 H   0  0  0  0  0  0  0  0  0  0  0  0
   -4.3758    2.3018   -1.3929 H   0  0  0  0  0  0  0  0  0  0  0  0
   -5.3687    2.8865   -0.0832 H   0  0  0  0  0  0  0  0  0  0  0  0
   -3.6590    2.9205    0.1224 H   0  0  0  0  0  0  0  0  0  0  0  0
   -5.9550   -0.6711    0.2799 H   0  0  0  0  0  0  0  0  0  0  0  0
   -5.7998    0.1801   -1.2864 H   0  0  0  0  0  0  0  0  0  0  0  0
   -6.6495    0.8839    0.0566 H   0  0  0  0  0  0  0  0  0  0  0  0
    1.4639   -2.4797   -1.9609 H   0  0  0  0  0  0  0  0  0  0  0  0
    0.3300   -3.7648   -1.5401 H   0  0  0  0  0  0  0  0  0  0  0  0
   -0.2658   -2.1280   -1.7871 H   0  0  0  0  0  0  0  0  0  0  0  0
    2.8147   -3.1962    0.1716 H   0  0  0  0  0  0  0  0  0  0  0  0
    1.9990   -3.1776    1.7468 H   0  0  0  0  0  0  0  0  0  0  0  0
    1.5761   -4.4025    0.5442 H   0  0  0  0  0  0  0  0  0  0  0  0
    2.6258   -0.8941   -1.0308 H   0  0  0  0  0  0  0  0  0  0  0  0
    5.4994    1.4079    1.1031 H   0  0  0  0  0  0  0  0  0  0  0  0
    4.6236    2.6450    0.1533 H   0  0  0  0  0  0  0  0  0  0  0  0
    6.8141    0.7995   -0.9298 H   0  0  0  0  0  0  0  0  0  0  0  0
    5.9528    2.0160   -1.8638 H   0  0  0  0  0  0  0  0  0  0  0  0
    7.0211    2.5223   -0.5330 H   0  0  0  0  0  0  0  0  0  0  0  0
  1 13  2  0  0  0  0
  2 18  1  0  0  0  0
  2 19  1  0  0  0  0
  3 18  2  0  0  0  0
  4  7  1  0  0  0  0
  4 14  1  0  0  0  0
  4 15  1  0  0  0  0
  5  8  1  0  0  0  0
  5 13  1  0  0  0  0
  5 31  1  0  0  0  0
  6  9  1  0  0  0  0
  6 18  1  0  0  0  0
  6 44  1  0  0  0  0
  7  8  1  0  0  0  0
  7 10  1  0  0  0  0
  7 11  1  0  0  0  0
  8 21  1  0  0  0  0
  8 22  1  0  0  0  0
  9 12  1  0  0  0  0
  9 13  1  0  0  0  0
  9 23  1  0  0  0  0
 10 27  1  0  0  0  0
 10 28  1  0  0  0  0
 10 29  1  0  0  0  0
 11 24  1  0  0  0  0
 11 25  1  0  0  0  0
 11 26  1  0  0  0  0
 12 16  1  0  0  0  0
 12 17  1  0  0  0  0
 12 30  1  0  0  0  0
 14 35  1  0  0  0  0
 14 36  1  0  0  0  0
 14 37  1  0  0  0  0
 15 32  1  0  0  0  0
 15 33  1  0  0  0  0
 15 34  1  0  0  0  0
 16 41  1  0  0  0  0
 16 42  1  0  0  0  0
 16 43  1  0  0  0  0
 17 38  1  0  0  0  0
 17 39  1  0  0  0  0
 17 40  1  0  0  0  0
 19 20  1  0  0  0  0
 19 45  1  0  0  0  0
 19 46  1  0  0  0  0
 20 47  1  0  0  0  0
 20 48  1  0  0  0  0
 20 49  1  0  0  0  0
M  END
> <PUBCHEM_COMPOUND_CID>
47205793

> <PUBCHEM_CONFORMER_RMSD>
1

> <PUBCHEM_CONFORMER_DIVERSEORDER>
1
93
103
160
137
20
167
150
163
4
158
30
106
14
115
157
107
49
67
120
164
73
10
159
128
58
114
118
141
50
110
61
152
89
34
16
84
145
85
78
124
72
170
42
60
171
131
51
139
102
121
69
46
18
83
130
126
123
148
147
80
169
62
19
98
57
112
24
41
59
144
105
146
82
166
127
94
142
40
132
27
119
74
117
77
154
70
43
44
140
95
135
45
32
125
76
48
129
68
161
172
111
153
99
31
56
100
17
28
133
79
86
66
134
173
13
26
156
90
108
97
149
168
55
151
116
122
25
113
29
54
104
65
101
5
155
92
53
71
138
136
12
38
63
81
37
143
21
36
7
33
8
88
109
96
39
15
6
162
64
3
35
23
165
52
2
47
91
9
75
11
87
22

> <PUBCHEM_MMFF94_PARTIAL_CHARGES>
16
1 -0.57
13 0.57
14 0.27
15 0.27
18 0.78
19 0.28
2 -0.43
3 -0.57
31 0.37
4 -0.81
44 0.37
5 -0.73
6 -0.73
7 0.27
8 0.3
9 0.36

> <PUBCHEM_EFFECTIVE_ROTOR_COUNT>
10

> <PUBCHEM_PHARMACOPHORE_FEATURES>
7
1 1 acceptor
1 3 acceptor
1 4 cation
1 5 donor
1 6 donor
3 12 16 17 hydrophobe
3 7 10 11 hydrophobe

> <PUBCHEM_HEAVY_ATOM_COUNT>
20

> <PUBCHEM_ATOM_DEF_STEREO_COUNT>
0

> <PUBCHEM_ATOM_UDEF_STEREO_COUNT>
1

> <PUBCHEM_BOND_DEF_STEREO_COUNT>
0

> <PUBCHEM_BOND_UDEF_STEREO_COUNT>
0

> <PUBCHEM_ISOTOPIC_ATOM_COUNT>
0

> <PUBCHEM_COMPONENT_COUNT>
1

> <PUBCHEM_CACTVS_TAUTO_COUNT>
4

> <PUBCHEM_CONFORMER_ID>
02D04DA100000001

> <PUBCHEM_MMFF94_ENERGY>
44.6661

> <PUBCHEM_FEATURE_SELFOVERLAP>
35.52

> <PUBCHEM_SHAPE_FINGERPRINT>
10366900 7 18334019376256749369
11823591 26 18410584959399670828
12633257 1 15841265957062380076
12892183 10 14907914798397544096
13631057 29 18189620441420119199
13740256 8 8502653705815336736
14790565 3 18341326696033512828
15183329 4 16515673443315731380
15375358 24 18272650186376415707
15961568 22 17988641921337029876
17980427 23 17131545029573956895
18186145 218 17530970142034596776
18222031 100 10519707830210017888
19784866 170 18343300374869985141
204376 136 18413108334063628618
20600515 1 15985092029140412341
20645477 70 18188491409996600279
21524375 3 18334575737783085714
22620623 9 16879358792296681190
23175994 123 7925637717124472762
23402539 116 18114182995603135484
23557571 272 16844725473159551223
23559900 14 17973174099447715523
293599 30 18409165481235123284
296302 2 18342458166580600433
3759504 43 18271241600306998618
458136 41 18411142463071128534
474 4 18411979148137779801
5104073 3 18199743825375703361
633830 44 18261112971831615988
7364860 26 18116433832917066722
7495541 125 7853562539363945089
77188 2 17549547757255847738
81539 233 18410011069821824174
8863177 126 7131849730037785429
9709674 26 18264486364190926331

> <PUBCHEM_SHAPE_MULTIPOLES>
379.04
12.15
2.85
1.13
3.44
2.38
0.19
-10.33
1.32
2.07
0.14
0.04
0.17
-0.2

> <PUBCHEM_SHAPE_SELFOVERLAP>
728.154

> <PUBCHEM_SHAPE_VOLUME>
232.4

> <PUBCHEM_COORDINATE_TYPE>
2
5
10

$$$$

