690730
  -OEChem-07051213073D

 18 19  0     0  0  0  0  0  0999 V2000
    1.8341   -2.3160    0.5075 S   0  0  0  0  0  0  0  0  0  0  0  0
    0.8275    0.2114   -0.0352 N   0  0  0  0  0  0  0  0  0  0  0  0
    1.4744    1.3963   -0.2142 N   0  0  0  0  0  0  0  0  0  0  0  0
    3.0605    0.0166   -0.0332 N   0  0  0  0  0  0  0  0  0  0  0  0
    2.8101    1.2329   -0.2591 N   0  0  0  0  0  0  0  0  0  0  0  0
   -0.5871    0.1171   -0.0252 C   0  0  0  0  0  0  0  0  0  0  0  0
   -1.2105   -1.0606   -0.4381 C   0  0  0  0  0  0  0  0  0  0  0  0
   -1.3557    1.2016    0.3981 C   0  0  0  0  0  0  0  0  0  0  0  0
    1.8670   -0.6846    0.1236 C   0  0  0  0  0  0  0  0  0  0  0  0
   -2.6022   -1.1537   -0.4279 C   0  0  0  0  0  0  0  0  0  0  0  0
   -2.7474    1.1083    0.4084 C   0  0  0  0  0  0  0  0  0  0  0  0
   -3.3706   -0.0694   -0.0047 C   0  0  0  0  0  0  0  0  0  0  0  0
   -0.6546   -1.9081   -0.8219 H   0  0  0  0  0  0  0  0  0  0  0  0
   -0.8965    2.1266    0.7364 H   0  0  0  0  0  0  0  0  0  0  0  0
    1.0343    2.2323   -0.5753 H   0  0  0  0  0  0  0  0  0  0  0  0
   -3.0884   -2.0662   -0.7604 H   0  0  0  0  0  0  0  0  0  0  0  0
   -3.3461    1.9516    0.7399 H   0  0  0  0  0  0  0  0  0  0  0  0
   -4.4544   -0.1411    0.0012 H   0  0  0  0  0  0  0  0  0  0  0  0
  1  9  2  0  0  0  0
  2  3  1  0  0  0  0
  2  6  1  0  0  0  0
  2  9  1  0  0  0  0
  3  5  1  0  0  0  0
  3 15  1  0  0  0  0
  4  5  2  0  0  0  0
  4  9  1  0  0  0  0
  6  7  2  0  0  0  0
  6  8  1  0  0  0  0
  7 10  1  0  0  0  0
  7 13  1  0  0  0  0
  8 11  2  0  0  0  0
  8 14  1  0  0  0  0
 10 12  2  0  0  0  0
 10 16  1  0  0  0  0
 11 12  1  0  0  0  0
 11 17  1  0  0  0  0
 12 18  1  0  0  0  0
M  END
> <PUBCHEM_COMPOUND_CID>
690730

> <PUBCHEM_CONFORMER_RMSD>
0.4

> <PUBCHEM_CONFORMER_DIVERSEORDER>
1
2
3

> <PUBCHEM_MMFF94_PARTIAL_CHARGES>
18
1 -0.38
10 -0.15
11 -0.15
12 -0.15
13 0.15
14 0.15
15 0.37
16 0.15
17 0.15
18 0.15
2 -0.18
3 -0.31
4 -0.21
5 -0.06
6 0.12
7 -0.15
8 -0.15
9 0.65

> <PUBCHEM_EFFECTIVE_ROTOR_COUNT>
1

> <PUBCHEM_PHARMACOPHORE_FEATURES>
3
1 1 acceptor
5 2 3 4 5 9 rings
6 6 7 8 10 11 12 rings

> <PUBCHEM_HEAVY_ATOM_COUNT>
12

> <PUBCHEM_ATOM_DEF_STEREO_COUNT>
0

> <PUBCHEM_ATOM_UDEF_STEREO_COUNT>
0

> <PUBCHEM_BOND_DEF_STEREO_COUNT>
0

> <PUBCHEM_BOND_UDEF_STEREO_COUNT>
0

> <PUBCHEM_ISOTOPIC_ATOM_COUNT>
0

> <PUBCHEM_COMPONENT_COUNT>
1

> <PUBCHEM_CACTVS_TAUTO_COUNT>
3

> <PUBCHEM_CONFORMER_ID>
000A8A2A00000001

> <PUBCHEM_MMFF94_ENERGY>
46.4676

> <PUBCHEM_FEATURE_SELFOVERLAP>
15.223

> <PUBCHEM_SHAPE_FINGERPRINT>
12202030 40 16199567216861558451
12897270 3 18338518538634120517
12932764 1 18341888640657845525
13380535 76 18343021060462460018
14144814 61 18409449219268975075
14325111 11 18409165532510843825
15279307 12 18409166601725942823
15279308 51 18191879026501241535
15442244 35 18121780792243090914
15669948 3 17968102997248880727
15775835 57 18408597076303893057
16945 1 18411141307597877105
18619055 16 18338244855071015165
20201158 50 18343586234997840043
20559304 39 18408888468323037098
20645477 70 18340774840080441015
20871998 184 17822569387797272663
20871998 22 17977386363091099970
21501502 16 18336548312840025439
22445834 79 18411418457500563195
23463225 33 18337673143099642239
23552423 10 18412263930413160847
2748010 2 16678655477244307039
3248919 1 17418085516530511889
3312278 4 18338234860666468507
369184 2 18412545418548937001
7364860 26 18261394489953327506
8030462 33 18334303049897863135

> <PUBCHEM_SHAPE_MULTIPOLES>
230.88
5.23
1.88
0.69
0.46
0.57
0.03
-0.11
0.06
-0.87
0.13
0.08
0.08
-0.67

> <PUBCHEM_SHAPE_SELFOVERLAP>
483.796

> <PUBCHEM_SHAPE_VOLUME>
131.2

> <PUBCHEM_COORDINATE_TYPE>
2
5
10

$$$$

