17395742
  -OEChem-06241222522D

 37 39  0     0  0  0  0  0  0999 V2000
    9.2113    1.3323    0.0000 F   0  0  0  0  0  0  0  0  0  0  0  0
    5.4641    0.4806    0.0000 O   0  0  0  0  0  0  0  0  0  0  0  0
    2.0000   -2.5194    0.0000 O   0  0  0  0  0  0  0  0  0  0  0  0
    5.4071    2.5684    0.0000 N   0  0  0  0  0  0  0  0  0  0  0  0
    3.7320    0.4806    0.0000 N   0  0  0  0  0  0  0  0  0  0  0  0
    4.0981    3.5194    0.0000 N   0  0  0  0  0  0  0  0  0  0  0  0
    4.5981    1.9806    0.0000 C   0  0  0  0  0  0  0  0  0  0  0  0
    6.3582    2.2594    0.0000 C   0  0  0  0  0  0  0  0  0  0  0  0
    4.5981    0.9806    0.0000 C   0  0  0  0  0  0  0  0  0  0  0  0
    5.0981    3.5194    0.0000 C   0  0  0  0  0  0  0  0  0  0  0  0
    3.7320   -0.5194    0.0000 C   0  0  0  0  0  0  0  0  0  0  0  0
    3.7891    2.5684    0.0000 C   0  0  0  0  0  0  0  0  0  0  0  0
    6.5661    1.2812    0.0000 C   0  0  0  0  0  0  0  0  0  0  0  0
    7.1013    2.9285    0.0000 C   0  0  0  0  0  0  0  0  0  0  0  0
    2.8660   -1.0194    0.0000 C   0  0  0  0  0  0  0  0  0  0  0  0
    4.5981   -1.0194    0.0000 C   0  0  0  0  0  0  0  0  0  0  0  0
    7.5171    0.9722    0.0000 C   0  0  0  0  0  0  0  0  0  0  0  0
    8.0524    2.6195    0.0000 C   0  0  0  0  0  0  0  0  0  0  0  0
    2.8660   -2.0194    0.0000 C   0  0  0  0  0  0  0  0  0  0  0  0
    8.2603    1.6413    0.0000 C   0  0  0  0  0  0  0  0  0  0  0  0
    4.5981   -2.0194    0.0000 C   0  0  0  0  0  0  0  0  0  0  0  0
    3.7320   -2.5194    0.0000 C   0  0  0  0  0  0  0  0  0  0  0  0
    2.0000   -3.5194    0.0000 C   0  0  0  0  0  0  0  0  0  0  0  0
    5.4625    4.0210    0.0000 H   0  0  0  0  0  0  0  0  0  0  0  0
    3.1994    2.3768    0.0000 H   0  0  0  0  0  0  0  0  0  0  0  0
    3.1951    0.7906    0.0000 H   0  0  0  0  0  0  0  0  0  0  0  0
    6.1053    0.8663    0.0000 H   0  0  0  0  0  0  0  0  0  0  0  0
    6.9724    3.5349    0.0000 H   0  0  0  0  0  0  0  0  0  0  0  0
    2.3291   -0.7094    0.0000 H   0  0  0  0  0  0  0  0  0  0  0  0
    5.1350   -0.7094    0.0000 H   0  0  0  0  0  0  0  0  0  0  0  0
    7.6460    0.3657    0.0000 H   0  0  0  0  0  0  0  0  0  0  0  0
    8.5131    3.0343    0.0000 H   0  0  0  0  0  0  0  0  0  0  0  0
    5.1350   -2.3294    0.0000 H   0  0  0  0  0  0  0  0  0  0  0  0
    3.7320   -3.1394    0.0000 H   0  0  0  0  0  0  0  0  0  0  0  0
    1.3800   -3.5194    0.0000 H   0  0  0  0  0  0  0  0  0  0  0  0
    2.0000   -4.1394    0.0000 H   0  0  0  0  0  0  0  0  0  0  0  0
    2.6200   -3.5194    0.0000 H   0  0  0  0  0  0  0  0  0  0  0  0
  1 20  1  0  0  0  0
  2  9  2  0  0  0  0
  3 19  1  0  0  0  0
  3 23  1  0  0  0  0
  4  7  1  0  0  0  0
  4  8  1  0  0  0  0
  4 10  1  0  0  0  0
  5  9  1  0  0  0  0
  5 11  1  0  0  0  0
  5 26  1  0  0  0  0
  6 10  2  0  0  0  0
  6 12  1  0  0  0  0
  7  9  1  0  0  0  0
  7 12  2  0  0  0  0
  8 13  2  0  0  0  0
  8 14  1  0  0  0  0
 10 24  1  0  0  0  0
 11 15  2  0  0  0  0
 11 16  1  0  0  0  0
 12 25  1  0  0  0  0
 13 17  1  0  0  0  0
 13 27  1  0  0  0  0
 14 18  2  0  0  0  0
 14 28  1  0  0  0  0
 15 19  1  0  0  0  0
 15 29  1  0  0  0  0
 16 21  2  0  0  0  0
 16 30  1  0  0  0  0
 17 20  2  0  0  0  0
 17 31  1  0  0  0  0
 18 20  1  0  0  0  0
 18 32  1  0  0  0  0
 19 22  2  0  0  0  0
 21 22  1  0  0  0  0
 21 33  1  0  0  0  0
 22 34  1  0  0  0  0
 23 35  1  0  0  0  0
 23 36  1  0  0  0  0
 23 37  1  0  0  0  0
M  END
> <PUBCHEM_COMPOUND_CID>
17395742

> <PUBCHEM_COMPOUND_CANONICALIZED>
1

> <PUBCHEM_CACTVS_COMPLEXITY>
401

> <PUBCHEM_CACTVS_HBOND_ACCEPTOR>
4

> <PUBCHEM_CACTVS_HBOND_DONOR>
1

> <PUBCHEM_CACTVS_ROTATABLE_BOND>
4

> <PUBCHEM_CACTVS_SUBSKEYS>
AAADccB7MQAAAAAAAAAAAAAAAAAAAWAAAAAwYAAAAAAAAAAB0AAAHwAQAAAACAzBlg4/1pfMFACoATV3dACCiC03MqAJ2AG+fMiMbmrE+buUMKhu1BvI6OeQUAMAAAAAAgAAAAAAAAAEAAAAAAAAAAAAAA==

> <PUBCHEM_IUPAC_OPENEYE_NAME>
3-(4-fluorophenyl)-N-(3-methoxyphenyl)imidazole-4-carboxamide

> <PUBCHEM_IUPAC_CAS_NAME>
3-(4-fluorophenyl)-N-(3-methoxyphenyl)-4-imidazolecarboxamide

> <PUBCHEM_IUPAC_NAME>
3-(4-fluorophenyl)-N-(3-methoxyphenyl)imidazole-4-carboxamide

> <PUBCHEM_IUPAC_SYSTEMATIC_NAME>
3-(4-fluorophenyl)-N-(3-methoxyphenyl)imidazole-4-carboxamide

> <PUBCHEM_IUPAC_TRADITIONAL_NAME>
3-(4-fluorophenyl)-N-(3-methoxyphenyl)imidazole-4-carboxamide

> <PUBCHEM_IUPAC_INCHI>
InChI=1S/C17H14FN3O2/c1-23-15-4-2-3-13(9-15)20-17(22)16-10-19-11-21(16)14-7-5-12(18)6-8-14/h2-11H,1H3,(H,20,22)

> <PUBCHEM_IUPAC_INCHIKEY>
QMYIRANKDLCQSQ-UHFFFAOYSA-N

> <PUBCHEM_XLOGP3_AA>
2.9

> <PUBCHEM_EXACT_MASS>
311.107005

> <PUBCHEM_MOLECULAR_FORMULA>
C17H14FN3O2

> <PUBCHEM_MOLECULAR_WEIGHT>
311.310363

> <PUBCHEM_OPENEYE_CAN_SMILES>
COC1=CC=CC(=C1)NC(=O)C2=CN=CN2C3=CC=C(C=C3)F

> <PUBCHEM_OPENEYE_ISO_SMILES>
COC1=CC=CC(=C1)NC(=O)C2=CN=CN2C3=CC=C(C=C3)F

> <PUBCHEM_CACTVS_TPSA>
56.2

> <PUBCHEM_MONOISOTOPIC_WEIGHT>
311.107005

> <PUBCHEM_TOTAL_CHARGE>
0

> <PUBCHEM_HEAVY_ATOM_COUNT>
23

> <PUBCHEM_ATOM_DEF_STEREO_COUNT>
0

> <PUBCHEM_ATOM_UDEF_STEREO_COUNT>
0

> <PUBCHEM_BOND_DEF_STEREO_COUNT>
0

> <PUBCHEM_BOND_UDEF_STEREO_COUNT>
0

> <PUBCHEM_ISOTOPIC_ATOM_COUNT>
0

> <PUBCHEM_COMPONENT_COUNT>
1

> <PUBCHEM_CACTVS_TAUTO_COUNT>
2

> <PUBCHEM_COORDINATE_TYPE>
1
5
255

> <PUBCHEM_BONDANNOTATIONS>
11  15  8
11  16  8
13  17  8
14  18  8
15  19  8
16  21  8
17  20  8
18  20  8
19  22  8
21  22  8
4  10  8
4  7  8
6  10  8
6  12  8
7  12  8
8  13  8
8  14  8

$$$$

