73079
  -OEChem-07051213102D

 65 67  0     1  0  0  0  0  0999 V2000
    6.3100   -0.3175    0.0000 O   0  0  0  0  0  0  0  0  0  0  0  0
    8.0420    0.6825    0.0000 O   0  0  0  0  0  0  0  0  0  0  0  0
    4.8100   -1.1836    0.0000 O   0  0  0  0  0  0  0  0  0  0  0  0
    9.7741   -0.3175    0.0000 O   0  0  0  0  0  0  0  0  0  0  0  0
    9.8216    0.7757    0.0000 O   0  0  0  0  0  0  0  0  0  0  0  0
    3.3100    1.4146    0.0000 O   0  0  0  0  0  0  0  0  0  0  0  0
    8.2695    2.8461    0.0000 O   0  0  0  0  0  0  0  0  0  0  0  0
    2.3100   -0.3175    0.0000 O   0  0  0  0  0  0  0  0  0  0  0  0
   10.3975    3.2985    0.0000 O   0  0  0  0  0  0  0  0  0  0  0  0
   11.8920    0.5008    0.0000 O   0  0  0  0  0  0  0  0  0  0  0  0
    6.6760   -2.6835    0.0000 N   0  0  0  0  0  0  0  0  0  0  0  0
    9.7741   -2.3175    0.0000 N   0  0  0  0  0  0  0  0  0  0  0  0
    5.3100    1.4145    0.0000 N   0  0  0  0  0  0  0  0  0  0  0  0
    3.8101   -2.9156    0.0000 N   0  0  0  0  0  0  0  0  0  0  0  0
    7.1760   -0.8175    0.0000 C   0  0  1  0  0  0  0  0  0  0  0  0
    8.0420   -0.3175    0.0000 C   0  0  1  0  0  0  0  0  0  0  0  0
    7.1760   -1.8175    0.0000 C   0  0  2  0  0  0  0  0  0  0  0  0
    8.9081   -0.8175    0.0000 C   0  0  2  0  0  0  0  0  0  0  0  0
    8.9081   -1.8175    0.0000 C   0  0  1  0  0  0  0  0  0  0  0  0
    8.0420   -2.3175    0.0000 C   0  0  0  0  0  0  0  0  0  0  0  0
    5.3100   -0.3175    0.0000 C   0  0  1  0  0  0  0  0  0  0  0  0
    8.9081    1.1825    0.0000 C   0  0  2  0  0  0  0  0  0  0  0  0
    4.8101    0.5486    0.0000 C   0  0  1  0  0  0  0  0  0  0  0  0
    3.8100    0.5486    0.0000 C   0  0  2  0  0  0  0  0  0  0  0  0
    9.0126    2.1770    0.0000 C   0  0  1  0  0  0  0  0  0  0  0  0
    3.3100   -0.3175    0.0000 C   0  0  1  0  0  0  0  0  0  0  0  0
    3.8100   -1.1836    0.0000 C   0  0  1  0  0  0  0  0  0  0  0  0
    9.9908    2.3849    0.0000 C   0  0  2  0  0  0  0  0  0  0  0  0
   10.4908    1.5189    0.0000 C   0  0  1  0  0  0  0  0  0  0  0  0
    3.3100   -2.0496    0.0000 C   0  0  0  0  0  0  0  0  0  0  0  0
   11.4853    1.4144    0.0000 C   0  0  0  0  0  0  0  0  0  0  0  0
    7.1760   -0.1975    0.0000 H   0  0  0  0  0  0  0  0  0  0  0  0
    8.5790   -0.0075    0.0000 H   0  0  0  0  0  0  0  0  0  0  0  0
    6.5772   -1.6570    0.0000 H   0  0  0  0  0  0  0  0  0  0  0  0
    8.9081   -0.1975    0.0000 H   0  0  0  0  0  0  0  0  0  0  0  0
    8.9081   -2.4375    0.0000 H   0  0  0  0  0  0  0  0  0  0  0  0
    7.6435   -2.7925    0.0000 H   0  0  0  0  0  0  0  0  0  0  0  0
    8.4406   -2.7925    0.0000 H   0  0  0  0  0  0  0  0  0  0  0  0
    5.6200    0.2194    0.0000 H   0  0  0  0  0  0  0  0  0  0  0  0
    8.3881    1.5202    0.0000 H   0  0  0  0  0  0  0  0  0  0  0  0
    5.4300    0.5486    0.0000 H   0  0  0  0  0  0  0  0  0  0  0  0
    3.1900    0.5486    0.0000 H   0  0  0  0  0  0  0  0  0  0  0  0
    8.4338    1.9548    0.0000 H   0  0  0  0  0  0  0  0  0  0  0  0
    3.0000    0.2195    0.0000 H   0  0  0  0  0  0  0  0  0  0  0  0
    4.1200   -1.7205    0.0000 H   0  0  0  0  0  0  0  0  0  0  0  0
   10.6099    2.4174    0.0000 H   0  0  0  0  0  0  0  0  0  0  0  0
   10.7129    0.9401    0.0000 H   0  0  0  0  0  0  0  0  0  0  0  0
    6.9860   -3.2205    0.0000 H   0  0  0  0  0  0  0  0  0  0  0  0
    6.0560   -2.6835    0.0000 H   0  0  0  0  0  0  0  0  0  0  0  0
    9.7741   -2.9375    0.0000 H   0  0  0  0  0  0  0  0  0  0  0  0
   10.3110   -2.0075    0.0000 H   0  0  0  0  0  0  0  0  0  0  0  0
   10.3110   -0.6275    0.0000 H   0  0  0  0  0  0  0  0  0  0  0  0
    2.8351   -1.6511    0.0000 H   0  0  0  0  0  0  0  0  0  0  0  0
    2.8351   -2.4481    0.0000 H   0  0  0  0  0  0  0  0  0  0  0  0
    5.0000    1.9515    0.0000 H   0  0  0  0  0  0  0  0  0  0  0  0
    5.9300    1.4145    0.0000 H   0  0  0  0  0  0  0  0  0  0  0  0
   12.0869    1.5643    0.0000 H   0  0  0  0  0  0  0  0  0  0  0  0
   11.4420    2.0328    0.0000 H   0  0  0  0  0  0  0  0  0  0  0  0
    2.6900    1.4146    0.0000 H   0  0  0  0  0  0  0  0  0  0  0  0
    8.3984    3.4526    0.0000 H   0  0  0  0  0  0  0  0  0  0  0  0
    2.0000   -0.8544    0.0000 H   0  0  0  0  0  0  0  0  0  0  0  0
   11.0141    3.3633    0.0000 H   0  0  0  0  0  0  0  0  0  0  0  0
    3.5001   -3.4526    0.0000 H   0  0  0  0  0  0  0  0  0  0  0  0
    4.4301   -2.9156    0.0000 H   0  0  0  0  0  0  0  0  0  0  0  0
   12.5086    0.4360    0.0000 H   0  0  0  0  0  0  0  0  0  0  0  0
 15  1  1  1  0  0  0
 21  1  1  1  0  0  0
 16  2  1  6  0  0  0
 22  2  1  1  0  0  0
  3 21  1  0  0  0  0
  3 27  1  0  0  0  0
 18  4  1  1  0  0  0
  4 52  1  0  0  0  0
  5 22  1  0  0  0  0
  5 29  1  0  0  0  0
 24  6  1  6  0  0  0
  6 59  1  0  0  0  0
 25  7  1  6  0  0  0
  7 60  1  0  0  0  0
 26  8  1  1  0  0  0
  8 61  1  0  0  0  0
 28  9  1  1  0  0  0
  9 62  1  0  0  0  0
 10 31  1  0  0  0  0
 10 65  1  0  0  0  0
 17 11  1  6  0  0  0
 11 48  1  0  0  0  0
 11 49  1  0  0  0  0
 19 12  1  6  0  0  0
 12 50  1  0  0  0  0
 12 51  1  0  0  0  0
 23 13  1  1  0  0  0
 13 55  1  0  0  0  0
 13 56  1  0  0  0  0
 14 30  1  0  0  0  0
 14 63  1  0  0  0  0
 14 64  1  0  0  0  0
 15 16  1  0  0  0  0
 15 17  1  0  0  0  0
 15 32  1  0  0  0  0
 16 18  1  0  0  0  0
 16 33  1  0  0  0  0
 17 20  1  0  0  0  0
 17 34  1  0  0  0  0
 18 19  1  0  0  0  0
 18 35  1  0  0  0  0
 19 20  1  0  0  0  0
 19 36  1  0  0  0  0
 20 37  1  0  0  0  0
 20 38  1  0  0  0  0
 21 23  1  0  0  0  0
 21 39  1  0  0  0  0
 22 25  1  0  0  0  0
 22 40  1  0  0  0  0
 23 24  1  0  0  0  0
 23 41  1  0  0  0  0
 24 26  1  0  0  0  0
 24 42  1  0  0  0  0
 25 28  1  0  0  0  0
 25 43  1  0  0  0  0
 26 27  1  0  0  0  0
 26 44  1  0  0  0  0
 27 30  1  6  0  0  0
 27 45  1  0  0  0  0
 28 29  1  0  0  0  0
 28 46  1  0  0  0  0
 29 31  1  1  0  0  0
 29 47  1  0  0  0  0
 30 53  1  0  0  0  0
 30 54  1  0  0  0  0
 31 57  1  0  0  0  0
 31 58  1  0  0  0  0
M  END
> <PUBCHEM_COMPOUND_CID>
73079

> <PUBCHEM_COMPOUND_CANONICALIZED>
1

> <PUBCHEM_CACTVS_COMPLEXITY>
593

> <PUBCHEM_CACTVS_HBOND_ACCEPTOR>
14

> <PUBCHEM_CACTVS_HBOND_DONOR>
10

> <PUBCHEM_CACTVS_ROTATABLE_BOND>
6

> <PUBCHEM_CACTVS_SUBSKEYS>
AAADcfB7vAAAAAAAAAAAAAAAAAAAASAAAAA0QAAAAAAAAAAAAAAAHgAQCAAACDzxgAcACABABgAAAAAAAAAAAAAAAAAAAIAAAAATEAIAwAAjQAAHEAAHAAHwcA0AAAAAAAAAAAAAgAAUCACgAAAAAAAAAA==

> <PUBCHEM_IUPAC_OPENEYE_NAME>
(2R,3S,4R,5R,6R)-5-amino-2-(aminomethyl)-6-[(1R,2R,3S,4R,6S)-4,6-diamino-2-[(2S,3R,4R,5R)-3,4-dihydroxy-5-(hydroxymethyl)tetrahydrofuran-2-yl]oxy-3-hydroxy-cyclohexoxy]tetrahydropyran-3,4-diol

> <PUBCHEM_IUPAC_CAS_NAME>
(2R,3S,4R,5R,6R)-5-amino-2-(aminomethyl)-6-[(1R,2R,3S,4R,6S)-4,6-diamino-2-[[(2S,3R,4R,5R)-3,4-dihydroxy-5-(hydroxymethyl)-2-oxolanyl]oxy]-3-hydroxycyclohexyl]oxyoxane-3,4-diol

> <PUBCHEM_IUPAC_NAME>
(2R,3S,4R,5R,6R)-5-amino-2-(aminomethyl)-6-[(1R,2R,3S,4R,6S)-4,6-diamino-2-[(2S,3R,4R,5R)-3,4-dihydroxy-5-(hydroxymethyl)oxolan-2-yl]oxy-3-hydroxycyclohexyl]oxyoxane-3,4-diol

> <PUBCHEM_IUPAC_SYSTEMATIC_NAME>
(2R,3S,4R,5R,6R)-2-(aminomethyl)-5-azanyl-6-[(1R,2R,3S,4R,6S)-4,6-bis(azanyl)-2-[(2S,3R,4R,5R)-5-(hydroxymethyl)-3,4-bis(oxidanyl)oxolan-2-yl]oxy-3-oxidanyl-cyclohexyl]oxy-oxane-3,4-diol

> <PUBCHEM_IUPAC_TRADITIONAL_NAME>
(2R,3S,4R,5R,6R)-5-amino-2-(aminomethyl)-6-[(1R,2R,3S,4R,6S)-4,6-diamino-2-[(2S,3R,4R,5R)-3,4-dihydroxy-5-methylol-tetrahydrofuran-2-yl]oxy-3-hydroxy-cyclohexoxy]tetrahydropyran-3,4-diol

> <PUBCHEM_IUPAC_INCHI>
InChI=1S/C17H34N4O10/c18-2-6-10(24)12(26)8(21)16(28-6)30-14-5(20)1-4(19)9(23)15(14)31-17-13(27)11(25)7(3-22)29-17/h4-17,22-27H,1-3,18-21H2/t4-,5+,6-,7-,8-,9+,10-,11+,12-,13-,14-,15-,16-,17+/m1/s1

> <PUBCHEM_IUPAC_INCHIKEY>
NSKGQURZWSPSBC-FEIQWUCZSA-N

> <PUBCHEM_XLOGP3_AA>
-6.3

> <PUBCHEM_EXACT_MASS>
454.227493

> <PUBCHEM_MOLECULAR_FORMULA>
C17H34N4O10

> <PUBCHEM_MOLECULAR_WEIGHT>
454.47266

> <PUBCHEM_OPENEYE_CAN_SMILES>
C1C(C(C(C(C1N)OC2C(C(C(C(O2)CN)O)O)N)OC3C(C(C(O3)CO)O)O)O)N

> <PUBCHEM_OPENEYE_ISO_SMILES>
C1[C@H]([C@@H]([C@H]([C@@H]([C@H]1N)O[C@@H]2[C@@H]([C@H]([C@@H]([C@H](O2)CN)O)O)N)O[C@H]3[C@@H]([C@H]([C@H](O3)CO)O)O)O)N

> <PUBCHEM_CACTVS_TPSA>
262

> <PUBCHEM_MONOISOTOPIC_WEIGHT>
454.227493

> <PUBCHEM_TOTAL_CHARGE>
0

> <PUBCHEM_HEAVY_ATOM_COUNT>
31

> <PUBCHEM_ATOM_DEF_STEREO_COUNT>
14

> <PUBCHEM_ATOM_UDEF_STEREO_COUNT>
0

> <PUBCHEM_BOND_DEF_STEREO_COUNT>
0

> <PUBCHEM_BOND_UDEF_STEREO_COUNT>
0

> <PUBCHEM_ISOTOPIC_ATOM_COUNT>
0

> <PUBCHEM_COMPONENT_COUNT>
1

> <PUBCHEM_CACTVS_TAUTO_COUNT>
1

> <PUBCHEM_COORDINATE_TYPE>
1
5
255

> <PUBCHEM_BONDANNOTATIONS>
15  1  5
21  1  5
17  11  6
19  12  6
23  13  5
16  2  6
22  2  5
27  30  6
29  31  5
18  4  5
24  6  6
25  7  6
26  8  5
28  9  5

$$$$

