10859043
  -OEChem-07051213082D

 48 47  0     1  0  0  0  0  0999 V2000
    4.2690    1.0950    0.0000 O   0  0  0  0  0  0  0  0  0  0  0  0
    2.5369   -0.9050    0.0000 O   0  0  0  0  0  0  0  0  0  0  0  0
   12.9292    0.0950    0.0000 O   0  0  0  0  0  0  0  0  0  0  0  0
   12.0632   -1.4050    0.0000 O   0  0  0  0  0  0  0  0  0  0  0  0
    4.2690    0.0950    0.0000 C   0  0  2  0  0  0  0  0  0  0  0  0
    3.4030   -0.4050    0.0000 C   0  0  0  0  0  0  0  0  0  0  0  0
    5.1350   -0.4050    0.0000 C   0  0  0  0  0  0  0  0  0  0  0  0
    6.0010    0.0950    0.0000 C   0  0  0  0  0  0  0  0  0  0  0  0
    2.9030    0.4610    0.0000 C   0  0  0  0  0  0  0  0  0  0  0  0
    3.9030   -1.2710    0.0000 C   0  0  0  0  0  0  0  0  0  0  0  0
    6.8671   -0.4050    0.0000 C   0  0  0  0  0  0  0  0  0  0  0  0
    7.7331    0.0950    0.0000 C   0  0  0  0  0  0  0  0  0  0  0  0
    8.5991   -0.4050    0.0000 C   0  0  0  0  0  0  0  0  0  0  0  0
    6.8671   -1.4050    0.0000 C   0  0  0  0  0  0  0  0  0  0  0  0
    9.4651    0.0950    0.0000 C   0  0  0  0  0  0  0  0  0  0  0  0
   10.3312   -0.4050    0.0000 C   0  0  0  0  0  0  0  0  0  0  0  0
   10.3312   -1.4050    0.0000 C   0  0  0  0  0  0  0  0  0  0  0  0
   11.1972    0.0950    0.0000 C   0  0  0  0  0  0  0  0  0  0  0  0
   12.0632   -0.4050    0.0000 C   0  0  0  0  0  0  0  0  0  0  0  0
   13.7953   -0.4050    0.0000 C   0  0  0  0  0  0  0  0  0  0  0  0
    4.8059    0.4050    0.0000 H   0  0  0  0  0  0  0  0  0  0  0  0
    4.7365   -0.8799    0.0000 H   0  0  0  0  0  0  0  0  0  0  0  0
    5.5335   -0.8799    0.0000 H   0  0  0  0  0  0  0  0  0  0  0  0
    6.3996    0.5699    0.0000 H   0  0  0  0  0  0  0  0  0  0  0  0
    5.6025    0.5699    0.0000 H   0  0  0  0  0  0  0  0  0  0  0  0
    3.4399    0.7710    0.0000 H   0  0  0  0  0  0  0  0  0  0  0  0
    2.5930    0.9980    0.0000 H   0  0  0  0  0  0  0  0  0  0  0  0
    2.3660    0.1510    0.0000 H   0  0  0  0  0  0  0  0  0  0  0  0
    3.3660   -1.5810    0.0000 H   0  0  0  0  0  0  0  0  0  0  0  0
    4.2130   -1.8080    0.0000 H   0  0  0  0  0  0  0  0  0  0  0  0
    4.4399   -0.9610    0.0000 H   0  0  0  0  0  0  0  0  0  0  0  0
    4.8059    1.4050    0.0000 H   0  0  0  0  0  0  0  0  0  0  0  0
    2.0000   -0.5950    0.0000 H   0  0  0  0  0  0  0  0  0  0  0  0
    7.7331    0.7150    0.0000 H   0  0  0  0  0  0  0  0  0  0  0  0
    8.2006   -0.8799    0.0000 H   0  0  0  0  0  0  0  0  0  0  0  0
    8.9976   -0.8799    0.0000 H   0  0  0  0  0  0  0  0  0  0  0  0
    6.2471   -1.4050    0.0000 H   0  0  0  0  0  0  0  0  0  0  0  0
    6.8671   -2.0250    0.0000 H   0  0  0  0  0  0  0  0  0  0  0  0
    7.4871   -1.4050    0.0000 H   0  0  0  0  0  0  0  0  0  0  0  0
    9.8637    0.5699    0.0000 H   0  0  0  0  0  0  0  0  0  0  0  0
    9.0666    0.5699    0.0000 H   0  0  0  0  0  0  0  0  0  0  0  0
    9.7112   -1.4050    0.0000 H   0  0  0  0  0  0  0  0  0  0  0  0
   10.3312   -2.0250    0.0000 H   0  0  0  0  0  0  0  0  0  0  0  0
   10.9512   -1.4050    0.0000 H   0  0  0  0  0  0  0  0  0  0  0  0
   11.1972    0.7150    0.0000 H   0  0  0  0  0  0  0  0  0  0  0  0
   13.4853   -0.9419    0.0000 H   0  0  0  0  0  0  0  0  0  0  0  0
   14.3322   -0.7150    0.0000 H   0  0  0  0  0  0  0  0  0  0  0  0
   14.1053    0.1319    0.0000 H   0  0  0  0  0  0  0  0  0  0  0  0
  5  1  1  1  0  0  0
  1 32  1  0  0  0  0
  2  6  1  0  0  0  0
  2 33  1  0  0  0  0
  3 19  1  0  0  0  0
  3 20  1  0  0  0  0
  4 19  2  0  0  0  0
  5  6  1  0  0  0  0
  5  7  1  0  0  0  0
  5 21  1  0  0  0  0
  6  9  1  0  0  0  0
  6 10  1  0  0  0  0
  7  8  1  0  0  0  0
  7 22  1  0  0  0  0
  7 23  1  0  0  0  0
  8 11  1  0  0  0  0
  8 24  1  0  0  0  0
  8 25  1  0  0  0  0
  9 26  1  0  0  0  0
  9 27  1  0  0  0  0
  9 28  1  0  0  0  0
 10 29  1  0  0  0  0
 10 30  1  0  0  0  0
 10 31  1  0  0  0  0
 11 12  2  0  0  0  0
 11 14  1  0  0  0  0
 12 13  1  0  0  0  0
 12 34  1  0  0  0  0
 13 15  1  0  0  0  0
 13 35  1  0  0  0  0
 13 36  1  0  0  0  0
 14 37  1  0  0  0  0
 14 38  1  0  0  0  0
 14 39  1  0  0  0  0
 15 16  1  0  0  0  0
 15 40  1  0  0  0  0
 15 41  1  0  0  0  0
 16 17  1  0  0  0  0
 16 18  2  0  0  0  0
 17 42  1  0  0  0  0
 17 43  1  0  0  0  0
 17 44  1  0  0  0  0
 18 19  1  0  0  0  0
 18 45  1  0  0  0  0
 20 46  1  0  0  0  0
 20 47  1  0  0  0  0
 20 48  1  0  0  0  0
M  END
> <PUBCHEM_COMPOUND_CID>
10859043

> <PUBCHEM_COMPOUND_CANONICALIZED>
1

> <PUBCHEM_CACTVS_COMPLEXITY>
367

> <PUBCHEM_CACTVS_HBOND_ACCEPTOR>
4

> <PUBCHEM_CACTVS_HBOND_DONOR>
2

> <PUBCHEM_CACTVS_ROTATABLE_BOND>
9

> <PUBCHEM_CACTVS_SUBSKEYS>
AAADceB4OAAAAAAAAAAAAAAAAAAAAAAAAAAAAAAAAAAAAAAAAAAAGgAACAAADFSggAICCAAABgCIAiDSCAAAAAAgAAAACAAAAEgBFAIAIQAAUAAEgAAJIQOAwEAMAAAAAAAAAAAAAAAAAAAAAAAAAAAAAA==

> <PUBCHEM_IUPAC_OPENEYE_NAME>
methyl (2E,6E,10S)-10,11-dihydroxy-3,7,11-trimethyl-dodeca-2,6-dienoate

> <PUBCHEM_IUPAC_CAS_NAME>
(2E,6E,10S)-10,11-dihydroxy-3,7,11-trimethyldodeca-2,6-dienoic acid methyl ester

> <PUBCHEM_IUPAC_NAME>
methyl (2E,6E,10S)-10,11-dihydroxy-3,7,11-trimethyldodeca-2,6-dienoate

> <PUBCHEM_IUPAC_SYSTEMATIC_NAME>
methyl (2E,6E,10S)-3,7,11-trimethyl-10,11-bis(oxidanyl)dodeca-2,6-dienoate

> <PUBCHEM_IUPAC_TRADITIONAL_NAME>
(2E,6E,10S)-10,11-dihydroxy-3,7,11-trimethyl-dodeca-2,6-dienoic acid methyl ester

> <PUBCHEM_IUPAC_INCHI>
InChI=1S/C16H28O4/c1-12(9-10-14(17)16(3,4)19)7-6-8-13(2)11-15(18)20-5/h7,11,14,17,19H,6,8-10H2,1-5H3/b12-7+,13-11+/t14-/m0/s1

> <PUBCHEM_IUPAC_INCHIKEY>
MBJDYYPZJXVUHJ-RATZTOCSSA-N

> <PUBCHEM_XLOGP3_AA>
3

> <PUBCHEM_EXACT_MASS>
284.198759

> <PUBCHEM_MOLECULAR_FORMULA>
C16H28O4

> <PUBCHEM_MOLECULAR_WEIGHT>
284.39112

> <PUBCHEM_OPENEYE_CAN_SMILES>
CC(=CCCC(=CC(=O)OC)C)CCC(C(C)(C)O)O

> <PUBCHEM_OPENEYE_ISO_SMILES>
C/C(=C\CC/C(=C/C(=O)OC)/C)/CC[C@@H](C(C)(C)O)O

> <PUBCHEM_CACTVS_TPSA>
66.8

> <PUBCHEM_MONOISOTOPIC_WEIGHT>
284.198759

> <PUBCHEM_TOTAL_CHARGE>
0

> <PUBCHEM_HEAVY_ATOM_COUNT>
20

> <PUBCHEM_ATOM_DEF_STEREO_COUNT>
1

> <PUBCHEM_ATOM_UDEF_STEREO_COUNT>
0

> <PUBCHEM_BOND_DEF_STEREO_COUNT>
2

> <PUBCHEM_BOND_UDEF_STEREO_COUNT>
0

> <PUBCHEM_ISOTOPIC_ATOM_COUNT>
0

> <PUBCHEM_COMPONENT_COUNT>
1

> <PUBCHEM_CACTVS_TAUTO_COUNT>
1

> <PUBCHEM_COORDINATE_TYPE>
1
5
255

> <PUBCHEM_BONDANNOTATIONS>
5  1  5

$$$$

