85259
  -OEChem-07051212573D

 43 43  0     1  0  0  0  0  0999 V2000
   -4.0534    0.7244    1.0185 O   0  0  0  0  0  0  0  0  0  0  0  0
    3.5509   -0.5031    1.0795 O   0  0  0  0  0  0  0  0  0  0  0  0
   -4.2928    0.8160   -1.2822 O   0  0  0  0  0  0  0  0  0  0  0  0
    0.2465   -1.2776   -0.1170 C   0  0  2  0  0  0  0  0  0  0  0  0
    1.4474   -2.1874   -0.3654 C   0  0  1  0  0  0  0  0  0  0  0  0
   -0.8983   -2.0445    0.5581 C   0  0  0  0  0  0  0  0  0  0  0  0
   -0.2339   -0.6377   -1.4322 C   0  0  0  0  0  0  0  0  0  0  0  0
   -2.0831   -1.1200    0.8589 C   0  0  0  0  0  0  0  0  0  0  0  0
    2.6292   -1.4060   -0.9592 C   0  0  0  0  0  0  0  0  0  0  0  0
   -1.5811    0.0166   -1.3176 C   0  0  0  0  0  0  0  0  0  0  0  0
    1.8699   -2.8595    0.9420 C   0  0  0  0  0  0  0  0  0  0  0  0
   -2.3998   -0.1962   -0.2775 C   0  0  0  0  0  0  0  0  0  0  0  0
    3.1198   -0.2913   -0.0505 C   0  0  0  0  0  0  0  0  0  0  0  0
   -3.6868    0.5038   -0.2693 C   0  0  0  0  0  0  0  0  0  0  0  0
    3.1120    1.0772   -0.6423 C   0  0  0  0  0  0  0  0  0  0  0  0
    2.9227    2.2150    0.0486 C   0  0  0  0  0  0  0  0  0  0  0  0
    2.9109    3.6041   -0.5259 C   0  0  0  0  0  0  0  0  0  0  0  0
    2.7207    2.1616    1.5405 C   0  0  0  0  0  0  0  0  0  0  0  0
   -5.3007    1.4046    1.1929 C   0  0  0  0  0  0  0  0  0  0  0  0
    0.5341   -0.4675    0.5683 H   0  0  0  0  0  0  0  0  0  0  0  0
    1.1784   -2.9769   -1.0795 H   0  0  0  0  0  0  0  0  0  0  0  0
   -0.5931   -2.4940    1.5082 H   0  0  0  0  0  0  0  0  0  0  0  0
   -1.2303   -2.8644   -0.0925 H   0  0  0  0  0  0  0  0  0  0  0  0
   -0.2866   -1.3865   -2.2321 H   0  0  0  0  0  0  0  0  0  0  0  0
    0.4753    0.1320   -1.7544 H   0  0  0  0  0  0  0  0  0  0  0  0
   -1.8480   -0.5222    1.7487 H   0  0  0  0  0  0  0  0  0  0  0  0
   -2.9539   -1.7404    1.1029 H   0  0  0  0  0  0  0  0  0  0  0  0
    2.3770   -1.0130   -1.9495 H   0  0  0  0  0  0  0  0  0  0  0  0
    3.4811   -2.0781   -1.1250 H   0  0  0  0  0  0  0  0  0  0  0  0
   -1.8640    0.6815   -2.1294 H   0  0  0  0  0  0  0  0  0  0  0  0
    2.8769   -3.2843    0.8610 H   0  0  0  0  0  0  0  0  0  0  0  0
    1.2080   -3.7005    1.1773 H   0  0  0  0  0  0  0  0  0  0  0  0
    1.8539   -2.1773    1.7980 H   0  0  0  0  0  0  0  0  0  0  0  0
    3.2271    1.1258   -1.7216 H   0  0  0  0  0  0  0  0  0  0  0  0
    3.6880    4.2174   -0.0588 H   0  0  0  0  0  0  0  0  0  0  0  0
    3.0975    3.5911   -1.6047 H   0  0  0  0  0  0  0  0  0  0  0  0
    1.9388    4.0791   -0.3599 H   0  0  0  0  0  0  0  0  0  0  0  0
    2.1918    3.0574    1.8868 H   0  0  0  0  0  0  0  0  0  0  0  0
    2.1002    1.3174    1.8558 H   0  0  0  0  0  0  0  0  0  0  0  0
    3.6846    2.1279    2.0582 H   0  0  0  0  0  0  0  0  0  0  0  0
   -5.4782    1.5195    2.2655 H   0  0  0  0  0  0  0  0  0  0  0  0
   -6.1164    0.8156    0.7627 H   0  0  0  0  0  0  0  0  0  0  0  0
   -5.2576    2.3977    0.7354 H   0  0  0  0  0  0  0  0  0  0  0  0
  1 14  1  0  0  0  0
  1 19  1  0  0  0  0
  2 13  2  0  0  0  0
  3 14  2  0  0  0  0
  4  5  1  0  0  0  0
  4  6  1  0  0  0  0
  4  7  1  0  0  0  0
  4 20  1  0  0  0  0
  5  9  1  0  0  0  0
  5 11  1  0  0  0  0
  5 21  1  0  0  0  0
  6  8  1  0  0  0  0
  6 22  1  0  0  0  0
  6 23  1  0  0  0  0
  7 10  1  0  0  0  0
  7 24  1  0  0  0  0
  7 25  1  0  0  0  0
  8 12  1  0  0  0  0
  8 26  1  0  0  0  0
  8 27  1  0  0  0  0
  9 13  1  0  0  0  0
  9 28  1  0  0  0  0
  9 29  1  0  0  0  0
 10 12  2  0  0  0  0
 10 30  1  0  0  0  0
 11 31  1  0  0  0  0
 11 32  1  0  0  0  0
 11 33  1  0  0  0  0
 12 14  1  0  0  0  0
 13 15  1  0  0  0  0
 15 16  2  0  0  0  0
 15 34  1  0  0  0  0
 16 17  1  0  0  0  0
 16 18  1  0  0  0  0
 17 35  1  0  0  0  0
 17 36  1  0  0  0  0
 17 37  1  0  0  0  0
 18 38  1  0  0  0  0
 18 39  1  0  0  0  0
 18 40  1  0  0  0  0
 19 41  1  0  0  0  0
 19 42  1  0  0  0  0
 19 43  1  0  0  0  0
M  END
> <PUBCHEM_COMPOUND_CID>
85259

> <PUBCHEM_CONFORMER_RMSD>
0.8

> <PUBCHEM_CONFORMER_DIVERSEORDER>
12
103
51
102
58
42
30
52
63
108
36
91
94
99
67
21
79
70
82
6
69
34
106
13
87
80
61
105
50
3
66
46
95
75
68
16
98
48
101
81
18
10
72
14
23
74
27
85
38
104
35
88
71
43
97
78
92
100
73
19
40
76
2
96
32
44
65
7
90
31
28
56
26
41
4
93
5
25
89
24
39
86
9
57
53
1
77
64
33
45
37
22
107
55
29
84
54
15
59
60
17
47
83
62
11
49
8
20

> <PUBCHEM_MMFF94_PARTIAL_CHARGES>
17
1 -0.43
10 -0.29
12 -0.12
13 0.49
14 0.71
15 -0.14
16 -0.28
17 0.14
18 0.14
19 0.28
2 -0.57
3 -0.57
30 0.15
34 0.15
7 0.14
8 0.14
9 0.06

> <PUBCHEM_EFFECTIVE_ROTOR_COUNT>
6.8

> <PUBCHEM_PHARMACOPHORE_FEATURES>
5
1 11 hydrophobe
1 2 acceptor
1 3 acceptor
3 16 17 18 hydrophobe
6 4 6 7 8 10 12 rings

> <PUBCHEM_HEAVY_ATOM_COUNT>
19

> <PUBCHEM_ATOM_DEF_STEREO_COUNT>
2

> <PUBCHEM_ATOM_UDEF_STEREO_COUNT>
0

> <PUBCHEM_BOND_DEF_STEREO_COUNT>
0

> <PUBCHEM_BOND_UDEF_STEREO_COUNT>
0

> <PUBCHEM_ISOTOPIC_ATOM_COUNT>
0

> <PUBCHEM_COMPONENT_COUNT>
1

> <PUBCHEM_CACTVS_TAUTO_COUNT>
5

> <PUBCHEM_CONFORMER_ID>
00014D0B0000000C

> <PUBCHEM_MMFF94_ENERGY>
37.7415

> <PUBCHEM_FEATURE_SELFOVERLAP>
25.371

> <PUBCHEM_SHAPE_FINGERPRINT>
10366900 7 18130782390902844959
11221954 11 18194117417795819396
11615756 256 18267300928720382324
11640471 11 17750249040333807670
11796584 16 12966833642739272825
12616999 72 7420939907291783138
12617007 42 17896300576187511020
12633257 1 18131083627256108914
13140716 1 18343021039045418258
14178342 30 17631724950792691523
14251764 30 13972586714222292328
14251764 75 18193543493943520569
14787075 74 18192151486948291559
14848178 96 18410012113514974181
15295992 7 18342451530619043890
15342168 16 18410005508050172557
15475509 84 16975612634431410425
18186145 218 18336826515104670663
18785283 64 18343862204163833984
19752476 56 17748826285230844632
20621476 13 18411146809288304237
21033648 29 17846506971383353229
21041028 32 17908715273467108742
21475661 188 18271818968144093733
21503847 285 18188481496900435398
21524375 3 18119536431956678374
21665062 11 18339644559137761514
21860390 5 18187925135632705060
21864079 5 18264486174826931700
22079108 93 18410846682175267339
23558518 356 18122918525439747710
23559900 14 18262797487880636559
31174 14 18200877399592836486
33382 64 10447340126886306621
474 4 18409735032083669837
49207404 50 18200020738353359531
4990 188 6338663042761286775
5048184 11 18123186801565083612
633830 44 18334008363422512789
7808743 9 17693088570701743980
960060 61 8358254839381003825

> <PUBCHEM_SHAPE_MULTIPOLES>
373.4
8.62
3.33
1.38
9.11
1.14
-0.03
6.17
-1.63
-3.72
-0.56
0.28
0.16
-0.25

> <PUBCHEM_SHAPE_SELFOVERLAP>
747.982

> <PUBCHEM_SHAPE_VOLUME>
218.6

> <PUBCHEM_COORDINATE_TYPE>
2
5
10

$$$$

