47641
  -OEChem-07051212543D

 43 45  0     1  0  0  0  0  0999 V2000
    0.5435    2.0246   -0.9387 N   0  0  1  0  0  0  0  0  0  0  0  0
    0.7230    1.3526    0.3467 C   0  0  0  0  0  0  0  0  0  0  0  0
    2.1042    0.7957    0.5051 C   0  0  0  0  0  0  0  0  0  0  0  0
    2.4328   -0.5076    0.0975 C   0  0  0  0  0  0  0  0  0  0  0  0
    3.7570   -0.9747    0.2745 C   0  0  0  0  0  0  0  0  0  0  0  0
   -0.8321    2.5019   -1.0793 C   0  0  0  0  0  0  0  0  0  0  0  0
    3.0672    1.6263    1.0791 C   0  0  0  0  0  0  0  0  0  0  0  0
    1.4853    3.1358   -1.0715 C   0  0  0  0  0  0  0  0  0  0  0  0
    1.4764   -1.3573   -0.4819 C   0  0  0  0  0  0  0  0  0  0  0  0
    4.7135   -0.1249    0.8537 C   0  0  0  0  0  0  0  0  0  0  0  0
    4.3694    1.1670    1.2529 C   0  0  0  0  0  0  0  0  0  0  0  0
    4.0858   -2.2777   -0.1331 C   0  0  0  0  0  0  0  0  0  0  0  0
   -1.8198    1.3806   -0.9470 C   0  0  0  0  0  0  0  0  0  0  0  0
    1.8207   -2.6491   -0.8809 C   0  0  0  0  0  0  0  0  0  0  0  0
    3.1229   -3.1086   -0.7067 C   0  0  0  0  0  0  0  0  0  0  0  0
   -2.7759    1.3487   -0.0050 C   0  0  0  0  0  0  0  0  0  0  0  0
   -3.7756    0.2795    0.1542 C   0  0  0  0  0  0  0  0  0  0  0  0
   -3.5362   -0.9651   -0.4068 C   0  0  0  0  0  0  0  0  0  0  0  0
   -4.9373    0.5376    0.8642 C   0  0  0  0  0  0  0  0  0  0  0  0
   -4.4830   -1.9777   -0.2534 C   0  0  0  0  0  0  0  0  0  0  0  0
   -5.8843   -0.4750    1.0175 C   0  0  0  0  0  0  0  0  0  0  0  0
   -5.6572   -1.7328    0.4588 C   0  0  0  0  0  0  0  0  0  0  0  0
   -0.0024    0.5547    0.5312 H   0  0  0  0  0  0  0  0  0  0  0  0
    0.5302    2.0589    1.1695 H   0  0  0  0  0  0  0  0  0  0  0  0
   -0.9683    2.9396   -2.0763 H   0  0  0  0  0  0  0  0  0  0  0  0
   -1.0458    3.2967   -0.3519 H   0  0  0  0  0  0  0  0  0  0  0  0
    2.8207    2.6304    1.4143 H   0  0  0  0  0  0  0  0  0  0  0  0
    1.4435    3.8331   -0.2268 H   0  0  0  0  0  0  0  0  0  0  0  0
    1.2569    3.7130   -1.9767 H   0  0  0  0  0  0  0  0  0  0  0  0
    2.5131    2.7917   -1.2212 H   0  0  0  0  0  0  0  0  0  0  0  0
    0.4501   -1.0536   -0.6616 H   0  0  0  0  0  0  0  0  0  0  0  0
    5.7372   -0.4632    1.0000 H   0  0  0  0  0  0  0  0  0  0  0  0
    5.1179    1.8126    1.7031 H   0  0  0  0  0  0  0  0  0  0  0  0
    5.0974   -2.6576   -0.0070 H   0  0  0  0  0  0  0  0  0  0  0  0
   -1.7351    0.5985   -1.6962 H   0  0  0  0  0  0  0  0  0  0  0  0
    1.0729   -3.2953   -1.3315 H   0  0  0  0  0  0  0  0  0  0  0  0
    3.3905   -4.1140   -1.0185 H   0  0  0  0  0  0  0  0  0  0  0  0
   -2.8454    2.1695    0.7054 H   0  0  0  0  0  0  0  0  0  0  0  0
   -2.6272   -1.2072   -0.9485 H   0  0  0  0  0  0  0  0  0  0  0  0
   -5.1293    1.5124    1.3048 H   0  0  0  0  0  0  0  0  0  0  0  0
   -4.3043   -2.9588   -0.6836 H   0  0  0  0  0  0  0  0  0  0  0  0
   -6.7985   -0.2844    1.5721 H   0  0  0  0  0  0  0  0  0  0  0  0
   -6.3938   -2.5217    0.5794 H   0  0  0  0  0  0  0  0  0  0  0  0
  1  2  1  0  0  0  0
  1  6  1  0  0  0  0
  1  8  1  0  0  0  0
  2  3  1  0  0  0  0
  2 23  1  0  0  0  0
  2 24  1  0  0  0  0
  3  4  1  0  0  0  0
  3  7  2  0  0  0  0
  4  5  1  0  0  0  0
  4  9  2  0  0  0  0
  5 10  1  0  0  0  0
  5 12  2  0  0  0  0
  6 13  1  0  0  0  0
  6 25  1  0  0  0  0
  6 26  1  0  0  0  0
  7 11  1  0  0  0  0
  7 27  1  0  0  0  0
  8 28  1  0  0  0  0
  8 29  1  0  0  0  0
  8 30  1  0  0  0  0
  9 14  1  0  0  0  0
  9 31  1  0  0  0  0
 10 11  2  0  0  0  0
 10 32  1  0  0  0  0
 11 33  1  0  0  0  0
 12 15  1  0  0  0  0
 12 34  1  0  0  0  0
 13 16  2  0  0  0  0
 13 35  1  0  0  0  0
 14 15  2  0  0  0  0
 14 36  1  0  0  0  0
 15 37  1  0  0  0  0
 16 17  1  0  0  0  0
 16 38  1  0  0  0  0
 17 18  2  0  0  0  0
 17 19  1  0  0  0  0
 18 20  1  0  0  0  0
 18 39  1  0  0  0  0
 19 21  2  0  0  0  0
 19 40  1  0  0  0  0
 20 22  2  0  0  0  0
 20 41  1  0  0  0  0
 21 22  1  0  0  0  0
 21 42  1  0  0  0  0
 22 43  1  0  0  0  0
M  END
> <PUBCHEM_COMPOUND_CID>
47641

> <PUBCHEM_CONFORMER_RMSD>
0.8

> <PUBCHEM_CONFORMER_DIVERSEORDER>
1
24
25
11
27
43
13
5
8
53
6
15
37
9
7
40
10
42
3
50
20
12
21
54
30
46
2
55
14
19
4
35
33
39
16
28
22
49
44
29
51
45
17
52
32
48
41
34
23
18
36
26
47
31
38

> <PUBCHEM_MMFF94_PARTIAL_CHARGES>
34
1 -0.81
10 -0.15
11 -0.15
12 -0.15
13 -0.29
14 -0.15
15 -0.15
16 -0.18
17 0.03
18 -0.15
19 -0.15
2 0.41
20 -0.15
21 -0.15
22 -0.15
27 0.15
3 -0.14
31 0.15
32 0.15
33 0.15
34 0.15
35 0.15
36 0.15
37 0.15
38 0.15
39 0.15
40 0.15
41 0.15
42 0.15
43 0.15
6 0.41
7 -0.15
8 0.27
9 -0.15

> <PUBCHEM_EFFECTIVE_ROTOR_COUNT>
5

> <PUBCHEM_PHARMACOPHORE_FEATURES>
4
1 1 cation
6 17 18 19 20 21 22 rings
6 3 4 5 7 10 11 rings
6 4 5 9 12 14 15 rings

> <PUBCHEM_HEAVY_ATOM_COUNT>
22

> <PUBCHEM_ATOM_DEF_STEREO_COUNT>
0

> <PUBCHEM_ATOM_UDEF_STEREO_COUNT>
0

> <PUBCHEM_BOND_DEF_STEREO_COUNT>
1

> <PUBCHEM_BOND_UDEF_STEREO_COUNT>
0

> <PUBCHEM_ISOTOPIC_ATOM_COUNT>
0

> <PUBCHEM_COMPONENT_COUNT>
1

> <PUBCHEM_CACTVS_TAUTO_COUNT>
1

> <PUBCHEM_CONFORMER_ID>
0000BA1900000001

> <PUBCHEM_MMFF94_ENERGY>
72.5535

> <PUBCHEM_FEATURE_SELFOVERLAP>
20.324

> <PUBCHEM_SHAPE_FINGERPRINT>
10076449 9 18187918526659536134
108634 29 18059569170319135258
11370993 144 18115588295964698233
11552529 35 17676782959195346303
12035758 1 18116175358513152154
12107183 9 17681539665613953179
12363563 72 17632574950885486681
12422481 6 18117868631736491866
12596602 18 16805322146063790691
12623949 98 18114172077427283870
12633257 1 18130509613562040635
12778500 126 17458613562696723233
12892183 10 18040718082236933721
13402501 40 18411981385847545563
13464513 79 18343021082032034112
13533116 47 18264766572447248635
13544653 18 18335426789468142189
13583140 156 17749120980317547185
13911882 115 18409726257697638298
14341114 176 18261105296814754603
14341114 328 16950563259874068227
1454969 45 18269838627701750260
14790565 3 17978508633671670788
14863182 85 18340482275497815004
15250474 111 18118966893650162207
15352361 1 18412824711698261015
16126227 98 17901958435624070408
16992610 120 18051122594317458180
16994733 274 4749719327825381906
1768 124 18263361409277310459
1813 80 17775843523682136645
19141452 34 18410009983733064465
193927 3 17917704687383362769
1979834 28 18335700511849184715
20403669 9 18202565077354049779
20739085 24 18411704253578370540
20775530 9 18338517572367115087
21197605 99 18193837033535931387
21673915 165 18335424538947353563
221490 88 18119534477804451038
23559900 14 18410581686750980201
25222932 49 17560247890456944723
3117164 225 18189605224213937233
316301 35 18269840981196284834
3421961 26 18409445907754257185
3633792 109 18335430114806609197
3737641 26 18261391204166066318
5104073 3 18262528125001137144
9709674 26 18271239435590513099

> <PUBCHEM_SHAPE_MULTIPOLES>
447.77
12.55
3.5
1.14
14.27
0.36
0.01
6.17
4.69
-2.3
-1.41
-0.24
-0.41
1.13

> <PUBCHEM_SHAPE_SELFOVERLAP>
968.161

> <PUBCHEM_SHAPE_VOLUME>
245.9

> <PUBCHEM_COORDINATE_TYPE>
2
5
10

$$$$

