11632
  -OEChem-06261205553D

 27 26  0     0  0  0  0  0  0999 V2000
    4.9672    1.0349   -0.7152 F   0  0  0  0  0  0  0  0  0  0  0  0
   -4.9672    1.0350    0.7152 F   0  0  0  0  0  0  0  0  0  0  0  0
    0.0002    0.0216    0.0001 O   0  0  0  0  0  0  0  0  0  0  0  0
    2.3841    0.1367    0.1941 C   0  0  0  0  0  0  0  0  0  0  0  0
   -2.3841    0.1366   -0.1941 C   0  0  0  0  0  0  0  0  0  0  0  0
    1.1711   -0.7776    0.0953 C   0  0  0  0  0  0  0  0  0  0  0  0
   -1.1712   -0.7778   -0.0953 C   0  0  0  0  0  0  0  0  0  0  0  0
    3.6842   -0.6595    0.2833 C   0  0  0  0  0  0  0  0  0  0  0  0
   -3.6843   -0.6595   -0.2833 C   0  0  0  0  0  0  0  0  0  0  0  0
    4.8920    0.2548    0.3955 C   0  0  0  0  0  0  0  0  0  0  0  0
   -4.8921    0.2548   -0.3955 C   0  0  0  0  0  0  0  0  0  0  0  0
    2.2768    0.7880    1.0705 H   0  0  0  0  0  0  0  0  0  0  0  0
    2.4055    0.8057   -0.6753 H   0  0  0  0  0  0  0  0  0  0  0  0
   -2.2767    0.7878   -1.0707 H   0  0  0  0  0  0  0  0  0  0  0  0
   -2.4055    0.8058    0.6752 H   0  0  0  0  0  0  0  0  0  0  0  0
    1.2528   -1.4151   -0.7928 H   0  0  0  0  0  0  0  0  0  0  0  0
    1.1088   -1.4161    0.9844 H   0  0  0  0  0  0  0  0  0  0  0  0
   -1.2528   -1.4151    0.7930 H   0  0  0  0  0  0  0  0  0  0  0  0
   -1.1088   -1.4162   -0.9843 H   0  0  0  0  0  0  0  0  0  0  0  0
    3.7880   -1.2790   -0.6152 H   0  0  0  0  0  0  0  0  0  0  0  0
    3.6548   -1.3300    1.1495 H   0  0  0  0  0  0  0  0  0  0  0  0
   -3.7881   -1.2788    0.6152 H   0  0  0  0  0  0  0  0  0  0  0  0
   -3.6549   -1.3301   -1.1494 H   0  0  0  0  0  0  0  0  0  0  0  0
    5.8161   -0.3265    0.4609 H   0  0  0  0  0  0  0  0  0  0  0  0
    4.8241    0.9103    1.2686 H   0  0  0  0  0  0  0  0  0  0  0  0
   -5.8162   -0.3264   -0.4609 H   0  0  0  0  0  0  0  0  0  0  0  0
   -4.8242    0.9104   -1.2686 H   0  0  0  0  0  0  0  0  0  0  0  0
  1 10  1  0  0  0  0
  2 11  1  0  0  0  0
  3  6  1  0  0  0  0
  3  7  1  0  0  0  0
  4  6  1  0  0  0  0
  4  8  1  0  0  0  0
  4 12  1  0  0  0  0
  4 13  1  0  0  0  0
  5  7  1  0  0  0  0
  5  9  1  0  0  0  0
  5 14  1  0  0  0  0
  5 15  1  0  0  0  0
  6 16  1  0  0  0  0
  6 17  1  0  0  0  0
  7 18  1  0  0  0  0
  7 19  1  0  0  0  0
  8 10  1  0  0  0  0
  8 20  1  0  0  0  0
  8 21  1  0  0  0  0
  9 11  1  0  0  0  0
  9 22  1  0  0  0  0
  9 23  1  0  0  0  0
 10 24  1  0  0  0  0
 10 25  1  0  0  0  0
 11 26  1  0  0  0  0
 11 27  1  0  0  0  0
M  END
> <PUBCHEM_COMPOUND_CID>
11632

> <PUBCHEM_CONFORMER_RMSD>
0.8

> <PUBCHEM_CONFORMER_DIVERSEORDER>
1
95
105
109
70
11
65
111
116
37
82
113
89
45
40
2
55
106
78
18
60
39
87
47
100
12
101
86
92
64
20
80
63
16
53
114
71
119
35
66
17
41
19
97
21
84
103
58
72
57
7
77
48
108
42
59
33
115
68
91
26
44
118
76
93
61
32
96
62
27
31
107
90
34
46
88
110
8
56
75
52
22
112
117
3
28
99
43
51
67
38
102
6
74
83
85
49
25
29
5
73
36
15
104
81
79
94
54
30
24
23
9
98
4
69
10
14
13
50

> <PUBCHEM_MMFF94_PARTIAL_CHARGES>
7
1 -0.34
10 0.34
11 0.34
2 -0.34
3 -0.56
6 0.28
7 0.28

> <PUBCHEM_EFFECTIVE_ROTOR_COUNT>
8

> <PUBCHEM_PHARMACOPHORE_FEATURES>
1
1 3 acceptor

> <PUBCHEM_HEAVY_ATOM_COUNT>
11

> <PUBCHEM_ATOM_DEF_STEREO_COUNT>
0

> <PUBCHEM_ATOM_UDEF_STEREO_COUNT>
0

> <PUBCHEM_BOND_DEF_STEREO_COUNT>
0

> <PUBCHEM_BOND_UDEF_STEREO_COUNT>
0

> <PUBCHEM_ISOTOPIC_ATOM_COUNT>
0

> <PUBCHEM_COMPONENT_COUNT>
1

> <PUBCHEM_CACTVS_TAUTO_COUNT>
1

> <PUBCHEM_CONFORMER_ID>
00002D7000000001

> <PUBCHEM_MMFF94_ENERGY>
4.9193

> <PUBCHEM_FEATURE_SELFOVERLAP>
5.074

> <PUBCHEM_SHAPE_FINGERPRINT>
100836 57 18334572456100887489
11062470 55 18410858758673796010
14123238 8 18413673504288256215
14252887 29 15051456058778606298
15242439 84 15864073160811107687
15501527 16 18339643451542958573
17834072 33 18335987467151502047
17834076 25 18334577940468208262
18342897 14 18410294709203381297
20645477 70 17822288046007006182
20767249 213 18411420627144661365
20828058 44 13470685949525696681
21119208 17 15719395022823918094
212847 35 18408889534013003288
23402539 116 17603594027542144181
23402655 69 18113339716875299094
42788 4 18410295808709740742
449060 50 17775005699673632950
49783359 22 13110963119728282065
7062679 6 18187639262989791297

> <PUBCHEM_SHAPE_MULTIPOLES>
205.96
12.69
0.94
0.7
0
0.01
0
3.52
0
0
0
0
0.07
-0.57

> <PUBCHEM_SHAPE_SELFOVERLAP>
369.326

> <PUBCHEM_SHAPE_VOLUME>
132.9

> <PUBCHEM_COORDINATE_TYPE>
2
5
10

$$$$

