4001
  -OEChem-06251223483D

 42 44  0     1  0  0  0  0  0999 V2000
    5.4744    0.5033   -0.5797 Br  0  0  0  0  0  0  0  0  0  0  0  0
   -1.2211   -0.7567    1.0443 O   0  0  0  0  0  0  0  0  0  0  0  0
   -2.6985   -0.9077    0.8679 O   0  0  0  0  0  0  0  0  0  0  0  0
   -4.8876   -1.4372   -0.7434 O   0  0  0  0  0  0  0  0  0  0  0  0
    0.7917    0.4230    0.4466 C   0  0  1  0  0  0  0  0  0  0  0  0
   -0.7261    0.3606    0.2726 C   0  0  2  0  0  0  0  0  0  0  0  0
    2.9900   -0.9063    0.1168 C   0  0  0  0  0  0  0  0  0  0  0  0
    1.4375   -0.9046    0.0177 C   0  0  0  0  0  0  0  0  0  0  0  0
    1.3739    1.5943   -0.3508 C   0  0  0  0  0  0  0  0  0  0  0  0
   -1.4156    1.6229    0.8233 C   0  0  0  0  0  0  0  0  0  0  0  0
    3.5235    0.3128   -0.6809 C   0  0  1  0  0  0  0  0  0  0  0  0
    2.8963    1.6438   -0.2615 C   0  0  0  0  0  0  0  0  0  0  0  0
   -3.2124    0.1068   -0.0244 C   0  0  1  0  0  0  0  0  0  0  0  0
   -2.9360    1.4676    0.6421 C   0  0  0  0  0  0  0  0  0  0  0  0
   -1.1284    0.1353   -1.1625 C   0  0  0  0  0  0  0  0  0  0  0  0
   -2.4500    0.0003   -1.3203 C   0  0  0  0  0  0  0  0  0  0  0  0
    3.4017   -0.8912    1.6053 C   0  0  0  0  0  0  0  0  0  0  0  0
    3.4907   -2.2294   -0.5032 C   0  0  0  0  0  0  0  0  0  0  0  0
   -4.7043   -0.1377   -0.2099 C   0  0  0  0  0  0  0  0  0  0  0  0
    1.0082    0.5734    1.5124 H   0  0  0  0  0  0  0  0  0  0  0  0
    1.0402   -1.7279    0.6257 H   0  0  0  0  0  0  0  0  0  0  0  0
    1.1695   -1.1404   -1.0197 H   0  0  0  0  0  0  0  0  0  0  0  0
    0.9972    2.5507    0.0259 H   0  0  0  0  0  0  0  0  0  0  0  0
    1.1031    1.5431   -1.4107 H   0  0  0  0  0  0  0  0  0  0  0  0
   -1.1005    2.5376    0.3109 H   0  0  0  0  0  0  0  0  0  0  0  0
   -1.1962    1.7479    1.8908 H   0  0  0  0  0  0  0  0  0  0  0  0
    3.3334    0.1597   -1.7509 H   0  0  0  0  0  0  0  0  0  0  0  0
    3.2622    2.4539   -0.9054 H   0  0  0  0  0  0  0  0  0  0  0  0
    3.1939    1.9116    0.7598 H   0  0  0  0  0  0  0  0  0  0  0  0
   -3.4168    1.5175    1.6270 H   0  0  0  0  0  0  0  0  0  0  0  0
   -3.3321    2.2944    0.0400 H   0  0  0  0  0  0  0  0  0  0  0  0
   -0.4534    0.0945   -2.0060 H   0  0  0  0  0  0  0  0  0  0  0  0
   -2.9164   -0.1503   -2.2846 H   0  0  0  0  0  0  0  0  0  0  0  0
    2.8981   -1.6945    2.1561 H   0  0  0  0  0  0  0  0  0  0  0  0
    4.4775   -1.0507    1.7321 H   0  0  0  0  0  0  0  0  0  0  0  0
    3.1492    0.0505    2.1006 H   0  0  0  0  0  0  0  0  0  0  0  0
    4.5741   -2.3473   -0.3998 H   0  0  0  0  0  0  0  0  0  0  0  0
    3.0245   -3.0928   -0.0144 H   0  0  0  0  0  0  0  0  0  0  0  0
    3.2490   -2.2842   -1.5706 H   0  0  0  0  0  0  0  0  0  0  0  0
   -5.1539    0.5935   -0.8903 H   0  0  0  0  0  0  0  0  0  0  0  0
   -5.2267   -0.0994    0.7522 H   0  0  0  0  0  0  0  0  0  0  0  0
   -5.8448   -1.5712   -0.8496 H   0  0  0  0  0  0  0  0  0  0  0  0
  1 11  1  0  0  0  0
  2  3  1  0  0  0  0
  2  6  1  0  0  0  0
  3 13  1  0  0  0  0
  4 19  1  0  0  0  0
  4 42  1  0  0  0  0
  5  6  1  0  0  0  0
  5  8  1  0  0  0  0
  5  9  1  0  0  0  0
  5 20  1  0  0  0  0
  6 10  1  0  0  0  0
  6 15  1  0  0  0  0
  7  8  1  0  0  0  0
  7 11  1  0  0  0  0
  7 17  1  0  0  0  0
  7 18  1  0  0  0  0
  8 21  1  0  0  0  0
  8 22  1  0  0  0  0
  9 12  1  0  0  0  0
  9 23  1  0  0  0  0
  9 24  1  0  0  0  0
 10 14  1  0  0  0  0
 10 25  1  0  0  0  0
 10 26  1  0  0  0  0
 11 12  1  0  0  0  0
 11 27  1  0  0  0  0
 12 28  1  0  0  0  0
 12 29  1  0  0  0  0
 13 14  1  0  0  0  0
 13 16  1  0  0  0  0
 13 19  1  0  0  0  0
 14 30  1  0  0  0  0
 14 31  1  0  0  0  0
 15 16  2  0  0  0  0
 15 32  1  0  0  0  0
 16 33  1  0  0  0  0
 17 34  1  0  0  0  0
 17 35  1  0  0  0  0
 17 36  1  0  0  0  0
 18 37  1  0  0  0  0
 18 38  1  0  0  0  0
 18 39  1  0  0  0  0
 19 40  1  0  0  0  0
 19 41  1  0  0  0  0
M  END
> <PUBCHEM_COMPOUND_CID>
4001

> <PUBCHEM_CONFORMER_RMSD>
0.6

> <PUBCHEM_CONFORMER_DIVERSEORDER>
3
27
24
25
8
23
17
14
5
26
12
4
13
15
2
20
21
1
16
9
18
22
11
10
7
19
6

> <PUBCHEM_MMFF94_PARTIAL_CHARGES>
13
1 -0.23
11 0.23
13 0.42
15 -0.29
16 -0.29
19 0.28
2 -0.28
3 -0.28
32 0.15
33 0.15
4 -0.68
42 0.4
6 0.42

> <PUBCHEM_EFFECTIVE_ROTOR_COUNT>
4

> <PUBCHEM_PHARMACOPHORE_FEATURES>
6
1 1 hydrophobe
1 4 acceptor
1 4 donor
3 7 17 18 hydrophobe
6 5 7 8 9 11 12 rings
8 2 3 6 10 13 14 15 16 rings

> <PUBCHEM_HEAVY_ATOM_COUNT>
19

> <PUBCHEM_ATOM_DEF_STEREO_COUNT>
0

> <PUBCHEM_ATOM_UDEF_STEREO_COUNT>
4

> <PUBCHEM_BOND_DEF_STEREO_COUNT>
0

> <PUBCHEM_BOND_UDEF_STEREO_COUNT>
0

> <PUBCHEM_ISOTOPIC_ATOM_COUNT>
0

> <PUBCHEM_COMPONENT_COUNT>
1

> <PUBCHEM_CACTVS_TAUTO_COUNT>
1

> <PUBCHEM_CONFORMER_ID>
00000FA100000003

> <PUBCHEM_MMFF94_ENERGY>
72.2929

> <PUBCHEM_FEATURE_SELFOVERLAP>
30.447

> <PUBCHEM_SHAPE_FINGERPRINT>
10062212 137 18187931732918651337
10366900 7 18334856095751619800
11089746 13 11383835935096219103
11471102 20 18272087193336086804
11578080 2 17751669694966960808
12107183 9 17686330280156237592
12236239 1 18040712567530210204
12553582 1 17895206479775010044
12616999 72 18410852166516220918
128620 24 18334296465876528652
12932764 1 17168150065475517544
13224815 77 18259989275221910056
13288520 33 17603862303889344317
13296908 3 18188491397053318686
13533116 47 18409730694425378155
13581323 91 17095525114504928629
13583140 156 16806185374091569480
13675066 3 17603874433098378191
14144814 61 18411696616915430672
14289901 80 18260827120003636259
14576447 43 18335422344255819902
15196674 1 18337668723789096364
15375358 24 16272206375473263412
15848702 151 18342175591902338709
16945 1 18113627771805100192
17349148 13 18412554206025618688
17492 89 18261671579367950871
17834072 33 18409166593230544636
18186145 218 17774998042042083506
18222031 100 17023192591553348669
18681886 176 18260831458685606488
19422 9 18334009536022313633
200 152 18408886217855080421
20279233 1 16702299057623913552
20281475 54 18334295404666237066
20559304 39 18259705605691088264
20645477 70 18272090521819949926
21267235 1 18334284353762766406
2255824 54 18202558489032323602
22646028 28 18260550051700352966
23402539 116 18334576845457529717
23402655 69 18341333382991098341
23557571 272 17095235942931298321
23559900 14 18339083674757953449
2838139 119 8934735349109826827
296302 2 18131066043654671844
312423 11 18261943124316436620
3286 77 18201446890754816028
34797466 226 16443337621507657060
465052 167 17750230301882365799
474 4 18197496230161634804
5104073 3 18335418018917707456
69090 78 18060423490985486555
7364860 26 18335421219164740600
9709674 26 18411973680707774058

> <PUBCHEM_SHAPE_MULTIPOLES>
379.35
9.84
1.73
1.16
0.37
0.09
-0.09
1.7
1.54
0.75
-0.03
0.05
0.12
-0.7

> <PUBCHEM_SHAPE_SELFOVERLAP>
785.105

> <PUBCHEM_SHAPE_VOLUME>
224.7

> <PUBCHEM_COORDINATE_TYPE>
2
5
10

$$$$

