23724762
  -OEChem-07051213082D

 16 16  0     1  0  0  0  0  0999 V2000
    5.7281   -1.3127    0.0000 F   0  0  0  0  0  0  0  0  0  0  0  0
    3.7601   -0.6133    0.0000 O   0  0  0  0  0  0  0  0  0  0  0  0
    7.2144    0.0255    0.0000 O   0  0  0  0  0  0  0  0  0  0  0  0
    2.0000   -0.3346    0.0000 O   0  0  0  0  0  0  0  0  0  0  0  0
    6.0554    1.3127    0.0000 O   0  0  0  0  0  0  0  0  0  0  0  0
    4.5691   -0.0255    0.0000 C   0  0  3  0  0  0  0  0  0  0  0  0
    5.5202   -0.3346    0.0000 C   0  0  3  0  0  0  0  0  0  0  0  0
    4.2601    0.9255    0.0000 C   0  0  0  0  0  0  0  0  0  0  0  0
    3.2601    0.9255    0.0000 C   0  0  0  0  0  0  0  0  0  0  0  0
    2.9511   -0.0255    0.0000 C   0  0  0  0  0  0  0  0  0  0  0  0
    6.2633    0.3346    0.0000 C   0  0  0  0  0  0  0  0  0  0  0  0
    4.6661   -0.6379    0.0000 H   0  0  0  0  0  0  0  0  0  0  0  0
    5.0594   -0.7494    0.0000 H   0  0  0  0  0  0  0  0  0  0  0  0
    4.6245    1.4271    0.0000 H   0  0  0  0  0  0  0  0  0  0  0  0
    2.8956    1.4271    0.0000 H   0  0  0  0  0  0  0  0  0  0  0  0
    7.6751    0.4404    0.0000 H   0  0  0  0  0  0  0  0  0  0  0  0
  1  7  1  0  0  0  0
  2  6  1  0  0  0  0
  2 10  1  0  0  0  0
  3 11  1  0  0  0  0
  3 16  1  0  0  0  0
  4 10  2  0  0  0  0
  5 11  2  0  0  0  0
  6  7  1  0  0  0  0
  6  8  1  0  0  0  0
  6 12  1  0  0  0  0
  7 11  1  0  0  0  0
  7 13  1  0  0  0  0
  8  9  2  0  0  0  0
  8 14  1  0  0  0  0
  9 10  1  0  0  0  0
  9 15  1  0  0  0  0
M  END
> <PUBCHEM_COMPOUND_CID>
23724762

> <PUBCHEM_COMPOUND_CANONICALIZED>
1

> <PUBCHEM_CACTVS_COMPLEXITY>
223

> <PUBCHEM_CACTVS_HBOND_ACCEPTOR>
5

> <PUBCHEM_CACTVS_HBOND_DONOR>
1

> <PUBCHEM_CACTVS_ROTATABLE_BOND>
2

> <PUBCHEM_CACTVS_SUBSKEYS>
AAADcYBgOQAAAAAAAAAAAAAAAAAAAQAAAAAAAAAAAAAAAAAAAAAAGwAACAAACBSggAIACAAABgCIACDSCAAAAAAgAAAICAEAAEgABBQAIQACUAAFoAAIIYIAAAAAAAAAAAAAAAAAAAAAAAAAAAAAAAAAAA==

> <PUBCHEM_IUPAC_OPENEYE_NAME>
2-fluoro-2-(5-oxo-2H-furan-2-yl)acetic acid

> <PUBCHEM_IUPAC_CAS_NAME>
2-fluoro-2-(5-oxo-2H-furan-2-yl)acetic acid

> <PUBCHEM_IUPAC_NAME>
2-fluoro-2-(5-oxo-2H-furan-2-yl)acetic acid

> <PUBCHEM_IUPAC_SYSTEMATIC_NAME>
2-fluoranyl-2-(5-oxidanylidene-2H-furan-2-yl)ethanoic acid

> <PUBCHEM_IUPAC_TRADITIONAL_NAME>
2-fluoro-2-(5-keto-2H-furan-2-yl)acetic acid

> <PUBCHEM_IUPAC_INCHI>
InChI=1S/C6H5FO4/c7-5(6(9)10)3-1-2-4(8)11-3/h1-3,5H,(H,9,10)

> <PUBCHEM_IUPAC_INCHIKEY>
YVULEJQYAMRENW-UHFFFAOYSA-N

> <PUBCHEM_XLOGP3_AA>
0.2

> <PUBCHEM_EXACT_MASS>
160.017187

> <PUBCHEM_MOLECULAR_FORMULA>
C6H5FO4

> <PUBCHEM_MOLECULAR_WEIGHT>
160.099903

> <PUBCHEM_OPENEYE_CAN_SMILES>
C1=CC(=O)OC1C(C(=O)O)F

> <PUBCHEM_OPENEYE_ISO_SMILES>
C1=CC(=O)OC1C(C(=O)O)F

> <PUBCHEM_CACTVS_TPSA>
63.6

> <PUBCHEM_MONOISOTOPIC_WEIGHT>
160.017187

> <PUBCHEM_TOTAL_CHARGE>
0

> <PUBCHEM_HEAVY_ATOM_COUNT>
11

> <PUBCHEM_ATOM_DEF_STEREO_COUNT>
0

> <PUBCHEM_ATOM_UDEF_STEREO_COUNT>
2

> <PUBCHEM_BOND_DEF_STEREO_COUNT>
0

> <PUBCHEM_BOND_UDEF_STEREO_COUNT>
0

> <PUBCHEM_ISOTOPIC_ATOM_COUNT>
0

> <PUBCHEM_COMPONENT_COUNT>
1

> <PUBCHEM_CACTVS_TAUTO_COUNT>
1

> <PUBCHEM_COORDINATE_TYPE>
1
5
255

> <PUBCHEM_BONDANNOTATIONS>
7  1  3
6  8  3

$$$$

