5280801
  -OEChem-07051212503D

 20 19  0     0  0  0  0  0  0999 V2000
    2.3275    1.7038   -0.4762 O   0  0  0  0  0  0  0  0  0  0  0  0
   -4.9799    0.3768   -0.1651 O   0  0  0  0  0  0  0  0  0  0  0  0
   -3.4795   -1.1453   -0.9298 O   0  0  0  0  0  0  0  0  0  0  0  0
    4.4831    0.2269   -0.4054 O   0  0  0  0  0  0  0  0  0  0  0  0
    3.3966   -1.6325    0.3112 O   0  0  0  0  0  0  0  0  0  0  0  0
   -2.7800    0.5238    0.7090 C   0  0  0  0  0  0  0  0  0  0  0  0
   -1.4350   -0.1364    0.6748 C   0  0  0  0  0  0  0  0  0  0  0  0
   -0.3074    0.4924    0.3073 C   0  0  0  0  0  0  0  0  0  0  0  0
    0.9858   -0.1608    0.2837 C   0  0  0  0  0  0  0  0  0  0  0  0
   -3.7444   -0.1892   -0.2141 C   0  0  0  0  0  0  0  0  0  0  0  0
    2.1583    0.3980   -0.0709 C   0  0  0  0  0  0  0  0  0  0  0  0
    3.3751   -0.4575   -0.0245 C   0  0  0  0  0  0  0  0  0  0  0  0
   -2.7185    1.5726    0.3996 H   0  0  0  0  0  0  0  0  0  0  0  0
   -3.1742    0.4740    1.7294 H   0  0  0  0  0  0  0  0  0  0  0  0
   -1.3961   -1.1781    0.9871 H   0  0  0  0  0  0  0  0  0  0  0  0
   -0.3452    1.5356    0.0059 H   0  0  0  0  0  0  0  0  0  0  0  0
    0.9695   -1.2063    0.5886 H   0  0  0  0  0  0  0  0  0  0  0  0
    3.2712    1.8360   -0.6701 H   0  0  0  0  0  0  0  0  0  0  0  0
   -5.6125   -0.0753   -0.7633 H   0  0  0  0  0  0  0  0  0  0  0  0
    5.2878   -0.3335   -0.3765 H   0  0  0  0  0  0  0  0  0  0  0  0
  1 11  1  0  0  0  0
  1 18  1  0  0  0  0
  2 10  1  0  0  0  0
  2 19  1  0  0  0  0
  3 10  2  0  0  0  0
  4 12  1  0  0  0  0
  4 20  1  0  0  0  0
  5 12  2  0  0  0  0
  6  7  1  0  0  0  0
  6 10  1  0  0  0  0
  6 13  1  0  0  0  0
  6 14  1  0  0  0  0
  7  8  2  0  0  0  0
  7 15  1  0  0  0  0
  8  9  1  0  0  0  0
  8 16  1  0  0  0  0
  9 11  2  0  0  0  0
  9 17  1  0  0  0  0
 11 12  1  0  0  0  0
M  END
> <PUBCHEM_COMPOUND_CID>
5280801

> <PUBCHEM_CONFORMER_RMSD>
0.6

> <PUBCHEM_CONFORMER_DIVERSEORDER>
1
14
2
19
26
23
5
25
18
11
16
12
10
20
3
24
7
21
4
17
13
15
9
22
6
8

> <PUBCHEM_MMFF94_PARTIAL_CHARGES>
18
1 -0.53
10 0.66
11 0.09
12 0.71
15 0.15
16 0.15
17 0.15
18 0.45
19 0.5
2 -0.65
20 0.5
3 -0.57
4 -0.65
5 -0.57
6 0.2
7 -0.29
8 -0.15
9 -0.15

> <PUBCHEM_EFFECTIVE_ROTOR_COUNT>
4

> <PUBCHEM_PHARMACOPHORE_FEATURES>
7
1 1 donor
1 2 acceptor
1 3 acceptor
1 4 acceptor
1 5 acceptor
3 2 3 10 anion
3 4 5 12 anion

> <PUBCHEM_HEAVY_ATOM_COUNT>
12

> <PUBCHEM_ATOM_DEF_STEREO_COUNT>
0

> <PUBCHEM_ATOM_UDEF_STEREO_COUNT>
0

> <PUBCHEM_BOND_DEF_STEREO_COUNT>
2

> <PUBCHEM_BOND_UDEF_STEREO_COUNT>
0

> <PUBCHEM_ISOTOPIC_ATOM_COUNT>
0

> <PUBCHEM_COMPONENT_COUNT>
1

> <PUBCHEM_CACTVS_TAUTO_COUNT>
3

> <PUBCHEM_CONFORMER_ID>
0050942100000001

> <PUBCHEM_MMFF94_ENERGY>
13.5936

> <PUBCHEM_FEATURE_SELFOVERLAP>
35.638

> <PUBCHEM_SHAPE_FINGERPRINT>
11062470 55 17703789219245986273
11471102 20 18273492369301885956
11987891 27 18187088364165482302
13897977 58 11671774992749425247
14123238 8 6122500207264181377
14251717 144 18341895233612395794
14252887 29 5112014949262277492
15477762 27 18411980273930550454
177051 138 17675922122952342518
17834072 33 18114461176408456324
18186145 218 17418381268210681625
200 152 18334014995126219985
20279233 1 17418368099861999410
20645477 70 17989205996998890490
21119208 17 18409168818313656661
22485316 2 18187368726745578875
23402539 116 18410016550036472701
23402655 69 18341613745507865277
23557571 272 16081356509793525168
522135 26 18202282519813406778
93112 12 18343299232429614547

> <PUBCHEM_SHAPE_MULTIPOLES>
217.61
9.44
1.14
0.78
2.96
0.04
0.02
1.04
-1.55
-0.7
-0.11
0.3
0.03
-0.65

> <PUBCHEM_SHAPE_SELFOVERLAP>
425.133

> <PUBCHEM_SHAPE_VOLUME>
129.3

> <PUBCHEM_COORDINATE_TYPE>
2
5
10

$$$$

