8327
  -OEChem-06261202442D

 26 28  0     0  0  0  0  0  0999 V2000
    2.9176   -2.1927    0.0000 Cl  0  0  0  0  0  0  0  0  0  0  0  0
    4.6660    1.8419    0.0000 O   0  0  0  0  0  0  0  0  0  0  0  0
    4.6660   -2.1581    0.0000 O   0  0  0  0  0  0  0  0  0  0  0  0
    6.4144    1.8765    0.0000 N   0  0  0  0  0  0  0  0  0  0  0  0
    5.5321    0.3419    0.0000 C   0  0  0  0  0  0  0  0  0  0  0  0
    5.5321   -0.6581    0.0000 C   0  0  0  0  0  0  0  0  0  0  0  0
    3.8000    0.3419    0.0000 C   0  0  0  0  0  0  0  0  0  0  0  0
    3.8000   -0.6581    0.0000 C   0  0  0  0  0  0  0  0  0  0  0  0
    4.6660    0.8419    0.0000 C   0  0  0  0  0  0  0  0  0  0  0  0
    4.6660   -1.1581    0.0000 C   0  0  0  0  0  0  0  0  0  0  0  0
    6.4260    0.8766    0.0000 C   0  0  0  0  0  0  0  0  0  0  0  0
    6.4260   -1.1928    0.0000 C   0  0  0  0  0  0  0  0  0  0  0  0
    2.9061    0.8766    0.0000 C   0  0  0  0  0  0  0  0  0  0  0  0
    2.9061   -1.1928    0.0000 C   0  0  0  0  0  0  0  0  0  0  0  0
    7.3321    0.3627    0.0000 C   0  0  0  0  0  0  0  0  0  0  0  0
    7.3321   -0.6789    0.0000 C   0  0  0  0  0  0  0  0  0  0  0  0
    2.0000    0.3627    0.0000 C   0  0  0  0  0  0  0  0  0  0  0  0
    2.0000   -0.6789    0.0000 C   0  0  0  0  0  0  0  0  0  0  0  0
    6.4188   -1.8127    0.0000 H   0  0  0  0  0  0  0  0  0  0  0  0
    2.9132    1.4965    0.0000 H   0  0  0  0  0  0  0  0  0  0  0  0
    7.8678    0.6748    0.0000 H   0  0  0  0  0  0  0  0  0  0  0  0
    7.8678   -0.9910    0.0000 H   0  0  0  0  0  0  0  0  0  0  0  0
    1.4643    0.6748    0.0000 H   0  0  0  0  0  0  0  0  0  0  0  0
    1.4643   -0.9910    0.0000 H   0  0  0  0  0  0  0  0  0  0  0  0
    6.9478    2.1927    0.0000 H   0  0  0  0  0  0  0  0  0  0  0  0
    5.8740    2.1803    0.0000 H   0  0  0  0  0  0  0  0  0  0  0  0
  1 14  1  0  0  0  0
  2  9  2  0  0  0  0
  3 10  2  0  0  0  0
  4 11  1  0  0  0  0
  4 25  1  0  0  0  0
  4 26  1  0  0  0  0
  5  6  2  0  0  0  0
  5  9  1  0  0  0  0
  5 11  1  0  0  0  0
  6 10  1  0  0  0  0
  6 12  1  0  0  0  0
  7  8  2  0  0  0  0
  7  9  1  0  0  0  0
  7 13  1  0  0  0  0
  8 10  1  0  0  0  0
  8 14  1  0  0  0  0
 11 15  2  0  0  0  0
 12 16  2  0  0  0  0
 12 19  1  0  0  0  0
 13 17  2  0  0  0  0
 13 20  1  0  0  0  0
 14 18  2  0  0  0  0
 15 16  1  0  0  0  0
 15 21  1  0  0  0  0
 16 22  1  0  0  0  0
 17 18  1  0  0  0  0
 17 23  1  0  0  0  0
 18 24  1  0  0  0  0
M  END
> <PUBCHEM_COMPOUND_CID>
8327

> <PUBCHEM_COMPOUND_CANONICALIZED>
1

> <PUBCHEM_CACTVS_COMPLEXITY>
384

> <PUBCHEM_CACTVS_HBOND_ACCEPTOR>
3

> <PUBCHEM_CACTVS_HBOND_DONOR>
1

> <PUBCHEM_CACTVS_ROTATABLE_BOND>
0

> <PUBCHEM_CACTVS_SUBSKEYS>
AAADccByMAAEAAAAAAAAAAAAAAAAAAAAAAAwYMAAAAAAAADBQAAAHgIQAAAADA6BmCAwwIBAAACIAqRSQACCAAAkBwAIiAEAZsgIIDqBl5GAIYBgkAAIzccdiMCOgAAAYAATAACAAATAACYAAAAAAAAAAA==

> <PUBCHEM_IUPAC_OPENEYE_NAME>
1-amino-5-chloro-anthracene-9,10-dione

> <PUBCHEM_IUPAC_CAS_NAME>
1-amino-5-chloroanthracene-9,10-dione

> <PUBCHEM_IUPAC_NAME>
1-amino-5-chloroanthracene-9,10-dione

> <PUBCHEM_IUPAC_SYSTEMATIC_NAME>
1-azanyl-5-chloranyl-anthracene-9,10-dione

> <PUBCHEM_IUPAC_TRADITIONAL_NAME>
1-amino-5-chloro-9,10-anthraquinone

> <PUBCHEM_IUPAC_INCHI>
InChI=1S/C14H8ClNO2/c15-9-5-1-3-7-11(9)13(17)8-4-2-6-10(16)12(8)14(7)18/h1-6H,16H2

> <PUBCHEM_IUPAC_INCHIKEY>
QIHMGEKACAOTPE-UHFFFAOYSA-N

> <PUBCHEM_XLOGP3_AA>
3.4

> <PUBCHEM_EXACT_MASS>
257.024356

> <PUBCHEM_MOLECULAR_FORMULA>
C14H8ClNO2

> <PUBCHEM_MOLECULAR_WEIGHT>
257.67182

> <PUBCHEM_OPENEYE_CAN_SMILES>
C1=CC2=C(C(=C1)N)C(=O)C3=C(C2=O)C(=CC=C3)Cl

> <PUBCHEM_OPENEYE_ISO_SMILES>
C1=CC2=C(C(=C1)N)C(=O)C3=C(C2=O)C(=CC=C3)Cl

> <PUBCHEM_CACTVS_TPSA>
60.2

> <PUBCHEM_MONOISOTOPIC_WEIGHT>
257.024356

> <PUBCHEM_TOTAL_CHARGE>
0

> <PUBCHEM_HEAVY_ATOM_COUNT>
18

> <PUBCHEM_ATOM_DEF_STEREO_COUNT>
0

> <PUBCHEM_ATOM_UDEF_STEREO_COUNT>
0

> <PUBCHEM_BOND_DEF_STEREO_COUNT>
0

> <PUBCHEM_BOND_UDEF_STEREO_COUNT>
0

> <PUBCHEM_ISOTOPIC_ATOM_COUNT>
0

> <PUBCHEM_COMPONENT_COUNT>
1

> <PUBCHEM_CACTVS_TAUTO_COUNT>
5

> <PUBCHEM_COORDINATE_TYPE>
1
5
255

> <PUBCHEM_BONDANNOTATIONS>
11  15  8
12  16  8
13  17  8
14  18  8
15  16  8
17  18  8
5  11  8
5  6  8
6  12  8
7  13  8
7  8  8
8  14  8

$$$$

