10922550
  -OEChem-07051213152D

 45 44  0     0  0  0  0  0  0999 V2000
    2.0000    1.1900    0.0000 O   0  0  0  0  0  0  0  0  0  0  0  0
    7.1962    1.1900    0.0000 C   0  0  0  0  0  0  0  0  0  0  0  0
    6.3301    0.6900    0.0000 C   0  0  0  0  0  0  0  0  0  0  0  0
    8.0622    0.6900    0.0000 C   0  0  0  0  0  0  0  0  0  0  0  0
    5.4641    1.1900    0.0000 C   0  0  0  0  0  0  0  0  0  0  0  0
    8.9282    1.1900    0.0000 C   0  0  0  0  0  0  0  0  0  0  0  0
    4.5981    0.6900    0.0000 C   0  0  0  0  0  0  0  0  0  0  0  0
    9.7942    0.6900    0.0000 C   0  0  0  0  0  0  0  0  0  0  0  0
    3.7320    1.1900    0.0000 C   0  0  0  0  0  0  0  0  0  0  0  0
   10.6603    1.1900    0.0000 C   0  0  0  0  0  0  0  0  0  0  0  0
    2.8660    0.6900    0.0000 C   0  0  0  0  0  0  0  0  0  0  0  0
   11.5263    0.6900    0.0000 C   0  0  0  0  0  0  0  0  0  0  0  0
   13.2583   -0.3100    0.0000 C   0  0  0  0  0  0  0  0  0  0  0  0
   12.3923    1.1900    0.0000 C   0  0  0  0  0  0  0  0  0  0  0  0
   14.1244   -0.8100    0.0000 C   0  0  0  0  0  0  0  0  0  0  0  0
   13.2583    0.6900    0.0000 C   0  0  0  0  0  0  0  0  0  0  0  0
   14.1244   -1.8100    0.0000 C   0  0  0  0  0  0  0  0  0  0  0  0
    7.5947    1.6650    0.0000 H   0  0  0  0  0  0  0  0  0  0  0  0
    6.7976    1.6650    0.0000 H   0  0  0  0  0  0  0  0  0  0  0  0
    5.9316    0.2151    0.0000 H   0  0  0  0  0  0  0  0  0  0  0  0
    6.7287    0.2151    0.0000 H   0  0  0  0  0  0  0  0  0  0  0  0
    7.6636    0.2151    0.0000 H   0  0  0  0  0  0  0  0  0  0  0  0
    8.4607    0.2151    0.0000 H   0  0  0  0  0  0  0  0  0  0  0  0
    5.8626    1.6650    0.0000 H   0  0  0  0  0  0  0  0  0  0  0  0
    5.0656    1.6650    0.0000 H   0  0  0  0  0  0  0  0  0  0  0  0
    9.3267    1.6650    0.0000 H   0  0  0  0  0  0  0  0  0  0  0  0
    8.5297    1.6650    0.0000 H   0  0  0  0  0  0  0  0  0  0  0  0
    4.1996    0.2151    0.0000 H   0  0  0  0  0  0  0  0  0  0  0  0
    4.9966    0.2151    0.0000 H   0  0  0  0  0  0  0  0  0  0  0  0
    9.3957    0.2151    0.0000 H   0  0  0  0  0  0  0  0  0  0  0  0
   10.1928    0.2151    0.0000 H   0  0  0  0  0  0  0  0  0  0  0  0
    4.1306    1.6650    0.0000 H   0  0  0  0  0  0  0  0  0  0  0  0
    3.3335    1.6650    0.0000 H   0  0  0  0  0  0  0  0  0  0  0  0
   10.6603    1.8100    0.0000 H   0  0  0  0  0  0  0  0  0  0  0  0
    2.8660    0.0700    0.0000 H   0  0  0  0  0  0  0  0  0  0  0  0
   11.5263    0.0700    0.0000 H   0  0  0  0  0  0  0  0  0  0  0  0
   12.6477   -0.2023    0.0000 H   0  0  0  0  0  0  0  0  0  0  0  0
   13.0463   -0.8926    0.0000 H   0  0  0  0  0  0  0  0  0  0  0  0
   12.3923    1.8100    0.0000 H   0  0  0  0  0  0  0  0  0  0  0  0
   14.7349   -0.9177    0.0000 H   0  0  0  0  0  0  0  0  0  0  0  0
   14.3364   -0.2274    0.0000 H   0  0  0  0  0  0  0  0  0  0  0  0
   13.7953    1.0000    0.0000 H   0  0  0  0  0  0  0  0  0  0  0  0
   13.5044   -1.8100    0.0000 H   0  0  0  0  0  0  0  0  0  0  0  0
   14.1244   -2.4300    0.0000 H   0  0  0  0  0  0  0  0  0  0  0  0
   14.7444   -1.8100    0.0000 H   0  0  0  0  0  0  0  0  0  0  0  0
  1 11  2  0  0  0  0
  2  3  1  0  0  0  0
  2  4  1  0  0  0  0
  2 18  1  0  0  0  0
  2 19  1  0  0  0  0
  3  5  1  0  0  0  0
  3 20  1  0  0  0  0
  3 21  1  0  0  0  0
  4  6  1  0  0  0  0
  4 22  1  0  0  0  0
  4 23  1  0  0  0  0
  5  7  1  0  0  0  0
  5 24  1  0  0  0  0
  5 25  1  0  0  0  0
  6  8  1  0  0  0  0
  6 26  1  0  0  0  0
  6 27  1  0  0  0  0
  7  9  1  0  0  0  0
  7 28  1  0  0  0  0
  7 29  1  0  0  0  0
  8 10  1  0  0  0  0
  8 30  1  0  0  0  0
  8 31  1  0  0  0  0
  9 11  1  0  0  0  0
  9 32  1  0  0  0  0
  9 33  1  0  0  0  0
 10 12  2  0  0  0  0
 10 34  1  0  0  0  0
 11 35  1  0  0  0  0
 12 14  1  0  0  0  0
 12 36  1  0  0  0  0
 13 15  1  0  0  0  0
 13 16  1  0  0  0  0
 13 37  1  0  0  0  0
 13 38  1  0  0  0  0
 14 16  2  0  0  0  0
 14 39  1  0  0  0  0
 15 17  1  0  0  0  0
 15 40  1  0  0  0  0
 15 41  1  0  0  0  0
 16 42  1  0  0  0  0
 17 43  1  0  0  0  0
 17 44  1  0  0  0  0
 17 45  1  0  0  0  0
M  END
> <PUBCHEM_COMPOUND_CID>
10922550

> <PUBCHEM_COMPOUND_CANONICALIZED>
1

> <PUBCHEM_CACTVS_COMPLEXITY>
204

> <PUBCHEM_CACTVS_HBOND_ACCEPTOR>
1

> <PUBCHEM_CACTVS_HBOND_DONOR>
0

> <PUBCHEM_CACTVS_ROTATABLE_BOND>
12

> <PUBCHEM_CACTVS_SUBSKEYS>
AAADceB4IAAAAAAAAAAAAAAAAAAAAAAAAAAAAAAAAAAAAAAAAAAAGgAAAAAACACggAICAAAAAACIAChSgAAAAAAgAAAICAEAAAgIABIAAQAAAAAAgAAIgAMIiICAAAAAAAAAAAAAAAAAAAAAAAAAAAAAAA==

> <PUBCHEM_IUPAC_OPENEYE_NAME>
(10E,12Z)-hexadeca-10,12-dienal

> <PUBCHEM_IUPAC_CAS_NAME>
(10E,12Z)-hexadeca-10,12-dienal

> <PUBCHEM_IUPAC_NAME>
(10E,12Z)-hexadeca-10,12-dienal

> <PUBCHEM_IUPAC_SYSTEMATIC_NAME>
(10E,12Z)-hexadeca-10,12-dienal

> <PUBCHEM_IUPAC_TRADITIONAL_NAME>
(10E,12Z)-hexadeca-10,12-dienal

> <PUBCHEM_IUPAC_INCHI>
InChI=1S/C16H28O/c1-2-3-4-5-6-7-8-9-10-11-12-13-14-15-16-17/h4-7,16H,2-3,8-15H2,1H3/b5-4-,7-6+

> <PUBCHEM_IUPAC_INCHIKEY>
OSFASEAZCNYZBW-SCFJQAPRSA-N

> <PUBCHEM_XLOGP3_AA>
5.7

> <PUBCHEM_EXACT_MASS>
236.214016

> <PUBCHEM_MOLECULAR_FORMULA>
C16H28O

> <PUBCHEM_MOLECULAR_WEIGHT>
236.39292

> <PUBCHEM_OPENEYE_CAN_SMILES>
CCCC=CC=CCCCCCCCCC=O

> <PUBCHEM_OPENEYE_ISO_SMILES>
CCC/C=C\C=C\CCCCCCCCC=O

> <PUBCHEM_CACTVS_TPSA>
17.1

> <PUBCHEM_MONOISOTOPIC_WEIGHT>
236.214016

> <PUBCHEM_TOTAL_CHARGE>
0

> <PUBCHEM_HEAVY_ATOM_COUNT>
17

> <PUBCHEM_ATOM_DEF_STEREO_COUNT>
0

> <PUBCHEM_ATOM_UDEF_STEREO_COUNT>
0

> <PUBCHEM_BOND_DEF_STEREO_COUNT>
2

> <PUBCHEM_BOND_UDEF_STEREO_COUNT>
0

> <PUBCHEM_ISOTOPIC_ATOM_COUNT>
0

> <PUBCHEM_COMPONENT_COUNT>
1

> <PUBCHEM_CACTVS_TAUTO_COUNT>
2

> <PUBCHEM_COORDINATE_TYPE>
1
5
255

$$$$

