11954090
  -OEChem-07051213063D

 55 58  0     1  0  0  0  0  0999 V2000
   -4.7849    0.8580   -0.7067 O   0  0  0  0  0  0  0  0  0  0  0  0
    6.1307    0.1967    0.9142 O   0  0  0  0  0  0  0  0  0  0  0  0
   -2.3535    0.4585   -0.4797 C   0  0  1  0  0  0  0  0  0  0  0  0
   -1.6054   -0.7563    0.1098 C   0  0  2  0  0  0  0  0  0  0  0  0
   -0.1493   -0.8571   -0.3667 C   0  0  1  0  0  0  0  0  0  0  0  0
    0.6154    0.4425    0.0581 C   0  0  1  0  0  0  0  0  0  0  0  0
   -3.7879    0.2146    0.0836 C   0  0  2  0  0  0  0  0  0  0  0  0
    2.1346    0.3826   -0.3565 C   0  0  1  0  0  0  0  0  0  0  0  0
   -1.6261    1.7285   -0.0096 C   0  0  0  0  0  0  0  0  0  0  0  0
   -2.5468   -1.9235   -0.1697 C   0  0  0  0  0  0  0  0  0  0  0  0
   -0.1381    1.7197   -0.4081 C   0  0  0  0  0  0  0  0  0  0  0  0
    0.5300   -2.1180    0.1872 C   0  0  0  0  0  0  0  0  0  0  0  0
   -3.9591   -1.3235   -0.0394 C   0  0  0  0  0  0  0  0  0  0  0  0
    2.7343   -0.9123    0.2801 C   0  0  1  0  0  0  0  0  0  0  0  0
    2.0116   -2.1839   -0.1706 C   0  0  0  0  0  0  0  0  0  0  0  0
   -2.4042    0.4597   -2.0361 C   0  0  0  0  0  0  0  0  0  0  0  0
   -4.0187    0.6643    1.5317 C   0  0  0  0  0  0  0  0  0  0  0  0
    2.2994    0.4180   -1.8946 C   0  0  0  0  0  0  0  0  0  0  0  0
    2.9315    1.5626    0.1860 C   0  0  0  0  0  0  0  0  0  0  0  0
    4.2462   -1.0220    0.0708 C   0  0  0  0  0  0  0  0  0  0  0  0
    4.1954    1.4955    0.6250 C   0  0  0  0  0  0  0  0  0  0  0  0
    4.9469    0.2179    0.5809 C   0  0  0  0  0  0  0  0  0  0  0  0
   -5.4021    0.2776    2.0101 C   0  0  0  0  0  0  0  0  0  0  0  0
   -1.5607   -0.6517    1.2045 H   0  0  0  0  0  0  0  0  0  0  0  0
   -0.1394   -0.9447   -1.4581 H   0  0  0  0  0  0  0  0  0  0  0  0
    0.5923    0.4762    1.1594 H   0  0  0  0  0  0  0  0  0  0  0  0
   -1.6722    1.8202    1.0820 H   0  0  0  0  0  0  0  0  0  0  0  0
   -2.1121    2.6227   -0.4177 H   0  0  0  0  0  0  0  0  0  0  0  0
   -2.3975   -2.7437    0.5404 H   0  0  0  0  0  0  0  0  0  0  0  0
   -2.3963   -2.3288   -1.1767 H   0  0  0  0  0  0  0  0  0  0  0  0
   -0.0548    1.8425   -1.4917 H   0  0  0  0  0  0  0  0  0  0  0  0
    0.3196    2.6101    0.0355 H   0  0  0  0  0  0  0  0  0  0  0  0
    0.0345   -3.0156   -0.2007 H   0  0  0  0  0  0  0  0  0  0  0  0
    0.4234   -2.1469    1.2793 H   0  0  0  0  0  0  0  0  0  0  0  0
   -4.5500   -1.5936   -0.9234 H   0  0  0  0  0  0  0  0  0  0  0  0
   -4.4543   -1.7982    0.8086 H   0  0  0  0  0  0  0  0  0  0  0  0
    2.5827   -0.8408    1.3702 H   0  0  0  0  0  0  0  0  0  0  0  0
    2.4537   -3.0587    0.3219 H   0  0  0  0  0  0  0  0  0  0  0  0
    2.1321   -2.3416   -1.2483 H   0  0  0  0  0  0  0  0  0  0  0  0
   -1.4143    0.4456   -2.4985 H   0  0  0  0  0  0  0  0  0  0  0  0
   -2.9504   -0.4000   -2.4373 H   0  0  0  0  0  0  0  0  0  0  0  0
   -2.9090    1.3615   -2.4022 H   0  0  0  0  0  0  0  0  0  0  0  0
   -3.9450    1.7570    1.5919 H   0  0  0  0  0  0  0  0  0  0  0  0
   -3.2760    0.2461    2.2181 H   0  0  0  0  0  0  0  0  0  0  0  0
    3.3505    0.3458   -2.1955 H   0  0  0  0  0  0  0  0  0  0  0  0
    1.7694   -0.3969   -2.3943 H   0  0  0  0  0  0  0  0  0  0  0  0
    1.9277    1.3573   -2.3186 H   0  0  0  0  0  0  0  0  0  0  0  0
    2.4655    2.5434    0.1852 H   0  0  0  0  0  0  0  0  0  0  0  0
    4.5092   -1.1697   -0.9812 H   0  0  0  0  0  0  0  0  0  0  0  0
    4.6292   -1.8785    0.6386 H   0  0  0  0  0  0  0  0  0  0  0  0
   -5.6127    0.3530   -0.6446 H   0  0  0  0  0  0  0  0  0  0  0  0
    4.7142    2.3773    0.9830 H   0  0  0  0  0  0  0  0  0  0  0  0
   -6.1996    0.6495    1.3611 H   0  0  0  0  0  0  0  0  0  0  0  0
   -5.5367   -0.7962    2.1533 H   0  0  0  0  0  0  0  0  0  0  0  0
   -5.5723    0.7308    2.9943 H   0  0  0  0  0  0  0  0  0  0  0  0
  1  7  1  0  0  0  0
  1 51  1  0  0  0  0
  2 22  2  0  0  0  0
  3  4  1  0  0  0  0
  3  7  1  0  0  0  0
  3  9  1  0  0  0  0
  3 16  1  0  0  0  0
  4  5  1  0  0  0  0
  4 10  1  0  0  0  0
  4 24  1  0  0  0  0
  5  6  1  0  0  0  0
  5 12  1  0  0  0  0
  5 25  1  0  0  0  0
  6  8  1  0  0  0  0
  6 11  1  0  0  0  0
  6 26  1  0  0  0  0
  7 13  1  0  0  0  0
  7 17  1  0  0  0  0
  8 14  1  0  0  0  0
  8 18  1  0  0  0  0
  8 19  1  0  0  0  0
  9 11  1  0  0  0  0
  9 27  1  0  0  0  0
  9 28  1  0  0  0  0
 10 13  1  0  0  0  0
 10 29  1  0  0  0  0
 10 30  1  0  0  0  0
 11 31  1  0  0  0  0
 11 32  1  0  0  0  0
 12 15  1  0  0  0  0
 12 33  1  0  0  0  0
 12 34  1  0  0  0  0
 13 35  1  0  0  0  0
 13 36  1  0  0  0  0
 14 15  1  0  0  0  0
 14 20  1  0  0  0  0
 14 37  1  0  0  0  0
 15 38  1  0  0  0  0
 15 39  1  0  0  0  0
 16 40  1  0  0  0  0
 16 41  1  0  0  0  0
 16 42  1  0  0  0  0
 17 23  1  0  0  0  0
 17 43  1  0  0  0  0
 17 44  1  0  0  0  0
 18 45  1  0  0  0  0
 18 46  1  0  0  0  0
 18 47  1  0  0  0  0
 19 21  2  0  0  0  0
 19 48  1  0  0  0  0
 20 22  1  0  0  0  0
 20 49  1  0  0  0  0
 20 50  1  0  0  0  0
 21 22  1  0  0  0  0
 21 52  1  0  0  0  0
 23 53  1  0  0  0  0
 23 54  1  0  0  0  0
 23 55  1  0  0  0  0
M  END
> <PUBCHEM_COMPOUND_CID>
11954090

> <PUBCHEM_CONFORMER_RMSD>
0.6

> <PUBCHEM_CONFORMER_DIVERSEORDER>
1

> <PUBCHEM_MMFF94_PARTIAL_CHARGES>
11
1 -0.68
19 -0.29
2 -0.57
20 0.06
21 -0.14
22 0.49
48 0.15
51 0.4
52 0.15
7 0.28
8 0.14

> <PUBCHEM_EFFECTIVE_ROTOR_COUNT>
2.6

> <PUBCHEM_PHARMACOPHORE_FEATURES>
8
1 1 acceptor
1 1 donor
1 2 acceptor
1 23 hydrophobe
5 3 4 7 10 13 rings
6 3 4 5 6 9 11 rings
6 5 6 8 12 14 15 rings
6 8 14 19 20 21 22 rings

> <PUBCHEM_HEAVY_ATOM_COUNT>
23

> <PUBCHEM_ATOM_DEF_STEREO_COUNT>
7

> <PUBCHEM_ATOM_UDEF_STEREO_COUNT>
0

> <PUBCHEM_BOND_DEF_STEREO_COUNT>
0

> <PUBCHEM_BOND_UDEF_STEREO_COUNT>
0

> <PUBCHEM_ISOTOPIC_ATOM_COUNT>
0

> <PUBCHEM_COMPONENT_COUNT>
1

> <PUBCHEM_CACTVS_TAUTO_COUNT>
2

> <PUBCHEM_CONFORMER_ID>
00B667AA00000001

> <PUBCHEM_MMFF94_ENERGY>
85.7811

> <PUBCHEM_FEATURE_SELFOVERLAP>
40.684

> <PUBCHEM_SHAPE_FINGERPRINT>
10 15 18131071515601529184
11089746 13 17240490199278367272
11132069 177 18343864403081620503
11796584 16 14908186364689355760
12236239 1 17676211299095422423
12403259 415 18342745113409385164
12403814 3 17775568628769091357
12553582 1 18341036472112883589
12596602 18 17822001017748033347
12633257 1 18341888554726753689
12788726 201 16661196087420207297
13140716 1 18266733580857548225
13224815 77 18409730655459215151
13675066 3 18060699494047040541
14178342 30 18337102376537863827
14341114 176 18410572916348140354
14341114 328 18187080629140567240
14790565 3 18195802969275025436
15163728 17 14925326720970700731
15196674 1 18411422778253376654
15209294 21 18113329817344810793
15238133 3 16877937269753619712
15309172 13 18410568505395888051
15536298 74 18335138713263730694
15788980 27 17847064367437430669
16945 1 18338518650308597151
17349148 13 17917992763408003624
1813 80 17346309410232838815
18186145 218 18408036312504506980
200 152 18260559904735053871
21033648 29 18200615651654481132
21267235 1 18412539881930345830
21421861 104 18200315562399961778
21637258 2 15769485431876245107
22182313 1 18129949016865472271
23402539 116 18261685787356460772
23557571 272 18041277647682175254
23559900 14 18408045113573062622
26918003 58 18273219698422719144
296302 2 16081084887487127973
335352 9 18411704309001235726
34797466 226 14924225963090654704
34934 24 18410582811757832359
350125 39 18412265017694358716
3545911 37 18412266146494901374
3633792 109 18262528112701829757
3680242 22 18411702119042785474
392239 28 18408609141062278256
465052 167 16916774163408345536
474 4 18261114045647331832
5104073 3 18337677399834005770
542803 24 17312822680097750328
633830 44 18040432166416545700
7495541 125 15626211395316568622
9709674 26 18410853261358724590

> <PUBCHEM_SHAPE_MULTIPOLES>
461.59
10.97
1.97
1.35
2.29
0.57
0.18
-1.53
-4.51
0.36
0
-1.12
-0.33
0

> <PUBCHEM_SHAPE_SELFOVERLAP>
984.73

> <PUBCHEM_SHAPE_VOLUME>
255.6

> <PUBCHEM_COORDINATE_TYPE>
2
5
10

$$$$

