173708
  -OEChem-07051213042D

 61 64  0     1  0  0  0  0  0999 V2000
    9.0470    1.4836    0.0000 Cl  0  0  0  0  0  0  0  0  0  0  0  0
    9.7942   -0.6900    0.0000 O   0  0  0  0  0  0  0  0  0  0  0  0
    5.4641    0.8100    0.0000 O   0  0  0  0  0  0  0  0  0  0  0  0
    9.5710    0.5760    0.0000 O   0  0  0  0  0  0  0  0  0  0  0  0
    7.1962   -2.1900    0.0000 N   0  0  0  0  0  0  0  0  0  0  0  0
    4.5981   -0.6900    0.0000 N   0  0  0  0  0  0  0  0  0  0  0  0
   12.3923    0.8100    0.0000 N   0  0  0  0  0  0  0  0  0  0  0  0
    7.1962   -0.1900    0.0000 C   0  0  3  0  0  0  0  0  0  0  0  0
    6.3301   -0.6900    0.0000 C   0  0  0  0  0  0  0  0  0  0  0  0
    8.0622   -0.6900    0.0000 C   0  0  0  0  0  0  0  0  0  0  0  0
    7.1962    0.8100    0.0000 C   0  0  0  0  0  0  0  0  0  0  0  0
    6.3301   -1.6900    0.0000 C   0  0  0  0  0  0  0  0  0  0  0  0
    8.0622   -1.6900    0.0000 C   0  0  0  0  0  0  0  0  0  0  0  0
    5.4641   -0.1900    0.0000 C   0  0  0  0  0  0  0  0  0  0  0  0
    8.9282   -0.1900    0.0000 C   0  0  0  0  0  0  0  0  0  0  0  0
    5.4641   -2.1900    0.0000 C   0  0  0  0  0  0  0  0  0  0  0  0
    8.9282   -2.1900    0.0000 C   0  0  0  0  0  0  0  0  0  0  0  0
    8.0622    1.3100    0.0000 C   0  0  0  0  0  0  0  0  0  0  0  0
    6.3301    1.3100    0.0000 C   0  0  0  0  0  0  0  0  0  0  0  0
    8.0622    2.3100    0.0000 C   0  0  0  0  0  0  0  0  0  0  0  0
    6.3301    2.3100    0.0000 C   0  0  0  0  0  0  0  0  0  0  0  0
    7.1962    2.8100    0.0000 C   0  0  0  0  0  0  0  0  0  0  0  0
   10.6603   -0.1900    0.0000 C   0  0  0  0  0  0  0  0  0  0  0  0
    3.7320   -0.1900    0.0000 C   0  0  0  0  0  0  0  0  0  0  0  0
   11.5263   -0.6900    0.0000 C   0  0  0  0  0  0  0  0  0  0  0  0
   12.3923   -0.1900    0.0000 C   0  0  0  0  0  0  0  0  0  0  0  0
    3.7320    0.8100    0.0000 C   0  0  0  0  0  0  0  0  0  0  0  0
    2.8660   -0.6900    0.0000 C   0  0  0  0  0  0  0  0  0  0  0  0
    2.8660    1.3100    0.0000 C   0  0  0  0  0  0  0  0  0  0  0  0
    2.0000   -0.1900    0.0000 C   0  0  0  0  0  0  0  0  0  0  0  0
   13.2583   -0.6900    0.0000 C   0  0  0  0  0  0  0  0  0  0  0  0
    2.0000    0.8100    0.0000 C   0  0  0  0  0  0  0  0  0  0  0  0
   14.1244   -0.1900    0.0000 C   0  0  0  0  0  0  0  0  0  0  0  0
   13.2583    1.3100    0.0000 C   0  0  0  0  0  0  0  0  0  0  0  0
   14.1244    0.8100    0.0000 C   0  0  0  0  0  0  0  0  0  0  0  0
    6.6592    0.1200    0.0000 H   0  0  0  0  0  0  0  0  0  0  0  0
    7.1962   -2.8100    0.0000 H   0  0  0  0  0  0  0  0  0  0  0  0
    5.1541   -1.6531    0.0000 H   0  0  0  0  0  0  0  0  0  0  0  0
    4.9272   -2.5000    0.0000 H   0  0  0  0  0  0  0  0  0  0  0  0
    5.7741   -2.7269    0.0000 H   0  0  0  0  0  0  0  0  0  0  0  0
    8.6182   -2.7269    0.0000 H   0  0  0  0  0  0  0  0  0  0  0  0
    9.4651   -2.5000    0.0000 H   0  0  0  0  0  0  0  0  0  0  0  0
    9.2382   -1.6531    0.0000 H   0  0  0  0  0  0  0  0  0  0  0  0
    5.7932    1.0000    0.0000 H   0  0  0  0  0  0  0  0  0  0  0  0
    4.5981   -1.3100    0.0000 H   0  0  0  0  0  0  0  0  0  0  0  0
    8.5991    2.6200    0.0000 H   0  0  0  0  0  0  0  0  0  0  0  0
    5.7932    2.6200    0.0000 H   0  0  0  0  0  0  0  0  0  0  0  0
    7.1962    3.4300    0.0000 H   0  0  0  0  0  0  0  0  0  0  0  0
   11.0588    0.2849    0.0000 H   0  0  0  0  0  0  0  0  0  0  0  0
   10.2617    0.2849    0.0000 H   0  0  0  0  0  0  0  0  0  0  0  0
   11.1278   -1.1650    0.0000 H   0  0  0  0  0  0  0  0  0  0  0  0
   11.9248   -1.1650    0.0000 H   0  0  0  0  0  0  0  0  0  0  0  0
    4.2690    1.1200    0.0000 H   0  0  0  0  0  0  0  0  0  0  0  0
    2.8660   -1.3100    0.0000 H   0  0  0  0  0  0  0  0  0  0  0  0
    2.8660    1.9300    0.0000 H   0  0  0  0  0  0  0  0  0  0  0  0
    1.4631   -0.5000    0.0000 H   0  0  0  0  0  0  0  0  0  0  0  0
   13.2583   -1.3100    0.0000 H   0  0  0  0  0  0  0  0  0  0  0  0
    1.4631    1.1200    0.0000 H   0  0  0  0  0  0  0  0  0  0  0  0
   14.6613   -0.5000    0.0000 H   0  0  0  0  0  0  0  0  0  0  0  0
   13.2583    1.9300    0.0000 H   0  0  0  0  0  0  0  0  0  0  0  0
   14.6613    1.1200    0.0000 H   0  0  0  0  0  0  0  0  0  0  0  0
  1 18  1  0  0  0  0
  2 15  1  0  0  0  0
  2 23  1  0  0  0  0
  3 14  2  0  0  0  0
  4 15  2  0  0  0  0
  5 12  1  0  0  0  0
  5 13  1  0  0  0  0
  5 37  1  0  0  0  0
  6 14  1  0  0  0  0
  6 24  1  0  0  0  0
  6 45  1  0  0  0  0
  7 26  1  0  0  0  0
  7 34  2  0  0  0  0
  8  9  1  0  0  0  0
  8 10  1  0  0  0  0
  8 11  1  0  0  0  0
  8 36  1  0  0  0  0
  9 12  2  0  0  0  0
  9 14  1  0  0  0  0
 10 13  2  0  0  0  0
 10 15  1  0  0  0  0
 11 18  1  0  0  0  0
 11 19  2  0  0  0  0
 12 16  1  0  0  0  0
 13 17  1  0  0  0  0
 16 38  1  0  0  0  0
 16 39  1  0  0  0  0
 16 40  1  0  0  0  0
 17 41  1  0  0  0  0
 17 42  1  0  0  0  0
 17 43  1  0  0  0  0
 18 20  2  0  0  0  0
 19 21  1  0  0  0  0
 19 44  1  0  0  0  0
 20 22  1  0  0  0  0
 20 46  1  0  0  0  0
 21 22  2  0  0  0  0
 21 47  1  0  0  0  0
 22 48  1  0  0  0  0
 23 25  1  0  0  0  0
 23 49  1  0  0  0  0
 23 50  1  0  0  0  0
 24 27  2  0  0  0  0
 24 28  1  0  0  0  0
 25 26  1  0  0  0  0
 25 51  1  0  0  0  0
 25 52  1  0  0  0  0
 26 31  2  0  0  0  0
 27 29  1  0  0  0  0
 27 53  1  0  0  0  0
 28 30  2  0  0  0  0
 28 54  1  0  0  0  0
 29 32  2  0  0  0  0
 29 55  1  0  0  0  0
 30 32  1  0  0  0  0
 30 56  1  0  0  0  0
 31 33  1  0  0  0  0
 31 57  1  0  0  0  0
 32 58  1  0  0  0  0
 33 35  2  0  0  0  0
 33 59  1  0  0  0  0
 34 35  1  0  0  0  0
 34 60  1  0  0  0  0
 35 61  1  0  0  0  0
M  END
> <PUBCHEM_COMPOUND_CID>
173708

> <PUBCHEM_COMPOUND_CANONICALIZED>
1

> <PUBCHEM_CACTVS_COMPLEXITY>
833

> <PUBCHEM_CACTVS_HBOND_ACCEPTOR>
5

> <PUBCHEM_CACTVS_HBOND_DONOR>
2

> <PUBCHEM_CACTVS_ROTATABLE_BOND>
8

> <PUBCHEM_CACTVS_SUBSKEYS>
AAADceB7MAAEAAAAAAAAAAAAAAAAAAAAAAA8YIEAAAAAAAAB0AAAHgIQAAAADQrhniY+yJLIFACoAzX3XACCgCAxByAI2CE4ZtgIJPLBs5GGMAhm1AHI6UeY3+KOgAAAAAABAAAAAAAAAAIAAAAAAAAAAA==

> <PUBCHEM_IUPAC_OPENEYE_NAME>
2-(2-pyridyl)ethyl 4-(2-chlorophenyl)-2,6-dimethyl-5-(phenylcarbamoyl)-1,4-dihydropyridine-3-carboxylate

> <PUBCHEM_IUPAC_CAS_NAME>
5-[anilino(oxo)methyl]-4-(2-chlorophenyl)-2,6-dimethyl-1,4-dihydropyridine-3-carboxylic acid 2-(2-pyridinyl)ethyl ester

> <PUBCHEM_IUPAC_NAME>
2-pyridin-2-ylethyl 4-(2-chlorophenyl)-2,6-dimethyl-5-(phenylcarbamoyl)-1,4-dihydropyridine-3-carboxylate

> <PUBCHEM_IUPAC_SYSTEMATIC_NAME>
2-pyridin-2-ylethyl 4-(2-chlorophenyl)-2,6-dimethyl-5-(phenylcarbamoyl)-1,4-dihydropyridine-3-carboxylate

> <PUBCHEM_IUPAC_TRADITIONAL_NAME>
4-(2-chlorophenyl)-2,6-dimethyl-5-(phenylcarbamoyl)-1,4-dihydropyridine-3-carboxylic acid 2-(2-pyridyl)ethyl ester

> <PUBCHEM_IUPAC_INCHI>
InChI=1S/C28H26ClN3O3/c1-18-24(27(33)32-21-11-4-3-5-12-21)26(22-13-6-7-14-23(22)29)25(19(2)31-18)28(34)35-17-15-20-10-8-9-16-30-20/h3-14,16,26,31H,15,17H2,1-2H3,(H,32,33)

> <PUBCHEM_IUPAC_INCHIKEY>
YGKDFWHVQNDMLG-UHFFFAOYSA-N

> <PUBCHEM_XLOGP3_AA>
5.1

> <PUBCHEM_EXACT_MASS>
487.166269

> <PUBCHEM_MOLECULAR_FORMULA>
C28H26ClN3O3

> <PUBCHEM_MOLECULAR_WEIGHT>
487.97734

> <PUBCHEM_OPENEYE_CAN_SMILES>
CC1=C(C(C(=C(N1)C)C(=O)OCCC2=CC=CC=N2)C3=CC=CC=C3Cl)C(=O)NC4=CC=CC=C4

> <PUBCHEM_OPENEYE_ISO_SMILES>
CC1=C(C(C(=C(N1)C)C(=O)OCCC2=CC=CC=N2)C3=CC=CC=C3Cl)C(=O)NC4=CC=CC=C4

> <PUBCHEM_CACTVS_TPSA>
80.3

> <PUBCHEM_MONOISOTOPIC_WEIGHT>
487.166269

> <PUBCHEM_TOTAL_CHARGE>
0

> <PUBCHEM_HEAVY_ATOM_COUNT>
35

> <PUBCHEM_ATOM_DEF_STEREO_COUNT>
0

> <PUBCHEM_ATOM_UDEF_STEREO_COUNT>
1

> <PUBCHEM_BOND_DEF_STEREO_COUNT>
0

> <PUBCHEM_BOND_UDEF_STEREO_COUNT>
0

> <PUBCHEM_ISOTOPIC_ATOM_COUNT>
0

> <PUBCHEM_COMPONENT_COUNT>
1

> <PUBCHEM_CACTVS_TAUTO_COUNT>
18

> <PUBCHEM_COORDINATE_TYPE>
1
5
255

> <PUBCHEM_BONDANNOTATIONS>
11  18  8
11  19  8
18  20  8
19  21  8
20  22  8
21  22  8
24  27  8
24  28  8
26  31  8
27  29  8
28  30  8
29  32  8
30  32  8
31  33  8
33  35  8
34  35  8
7  26  8
7  34  8
8  11  3

$$$$

