184884
  -OEChem-07051213092D

 31 34  0     0  0  0  0  0  0999 V2000
    2.0000   -0.8592    0.0000 Br  0  0  0  0  0  0  0  0  0  0  0  0
    5.5047    0.0533    0.0000 N   0  0  0  0  0  0  0  0  0  0  0  0
    7.0300    1.4545    0.0000 N   0  0  0  0  0  0  0  0  0  0  0  0
    8.0321   -1.0709    0.0000 N   0  0  0  0  0  0  0  0  0  0  0  0
    8.5745    0.9723    0.0000 C   0  0  0  0  0  0  0  0  0  0  0  0
    6.3137   -0.5345    0.0000 C   0  0  0  0  0  0  0  0  0  0  0  0
    7.6271    0.6523    0.0000 C   0  0  0  0  0  0  0  0  0  0  0  0
    8.5630    1.9723    0.0000 C   0  0  0  0  0  0  0  0  0  0  0  0
    7.3291   -0.3022    0.0000 C   0  0  0  0  0  0  0  0  0  0  0  0
    6.0047   -1.4855    0.0000 C   0  0  0  0  0  0  0  0  0  0  0  0
    7.6084    2.2703    0.0000 C   0  0  0  0  0  0  0  0  0  0  0  0
    5.0047   -1.4855    0.0000 C   0  0  0  0  0  0  0  0  0  0  0  0
    4.6957   -0.5345    0.0000 C   0  0  0  0  0  0  0  0  0  0  0  0
    6.6897   -2.2703    0.0000 C   0  0  0  0  0  0  0  0  0  0  0  0
    4.3197   -2.2703    0.0000 C   0  0  0  0  0  0  0  0  0  0  0  0
    3.6803   -0.3022    0.0000 C   0  0  0  0  0  0  0  0  0  0  0  0
    7.7102   -2.0616    0.0000 C   0  0  0  0  0  0  0  0  0  0  0  0
    3.2992   -2.0616    0.0000 C   0  0  0  0  0  0  0  0  0  0  0  0
    2.9773   -1.0709    0.0000 C   0  0  0  0  0  0  0  0  0  0  0  0
    8.7104    0.3674    0.0000 H   0  0  0  0  0  0  0  0  0  0  0  0
    9.1904    1.0443    0.0000 H   0  0  0  0  0  0  0  0  0  0  0  0
    9.1803    1.9146    0.0000 H   0  0  0  0  0  0  0  0  0  0  0  0
    8.6849    2.5802    0.0000 H   0  0  0  0  0  0  0  0  0  0  0  0
    7.8540    2.8395    0.0000 H   0  0  0  0  0  0  0  0  0  0  0  0
    7.0679    2.5740    0.0000 H   0  0  0  0  0  0  0  0  0  0  0  0
    5.5047    0.6733    0.0000 H   0  0  0  0  0  0  0  0  0  0  0  0
    6.4913   -2.8577    0.0000 H   0  0  0  0  0  0  0  0  0  0  0  0
    4.5181   -2.8577    0.0000 H   0  0  0  0  0  0  0  0  0  0  0  0
    3.4955    0.2896    0.0000 H   0  0  0  0  0  0  0  0  0  0  0  0
    8.1233   -2.5239    0.0000 H   0  0  0  0  0  0  0  0  0  0  0  0
    2.8861   -2.5239    0.0000 H   0  0  0  0  0  0  0  0  0  0  0  0
  1 19  1  0  0  0  0
  2  6  1  0  0  0  0
  2 13  1  0  0  0  0
  2 26  1  0  0  0  0
  3  7  2  0  0  0  0
  3 11  1  0  0  0  0
  4  9  2  0  0  0  0
  4 17  1  0  0  0  0
  5  7  1  0  0  0  0
  5  8  1  0  0  0  0
  5 20  1  0  0  0  0
  5 21  1  0  0  0  0
  6  9  1  0  0  0  0
  6 10  2  0  0  0  0
  7  9  1  0  0  0  0
  8 11  1  0  0  0  0
  8 22  1  0  0  0  0
  8 23  1  0  0  0  0
 10 12  1  0  0  0  0
 10 14  1  0  0  0  0
 11 24  1  0  0  0  0
 11 25  1  0  0  0  0
 12 13  2  0  0  0  0
 12 15  1  0  0  0  0
 13 16  1  0  0  0  0
 14 17  2  0  0  0  0
 14 27  1  0  0  0  0
 15 18  2  0  0  0  0
 15 28  1  0  0  0  0
 16 19  2  0  0  0  0
 16 29  1  0  0  0  0
 17 30  1  0  0  0  0
 18 19  1  0  0  0  0
 18 31  1  0  0  0  0
M  END
> <PUBCHEM_COMPOUND_CID>
184884

> <PUBCHEM_COMPOUND_CANONICALIZED>
1

> <PUBCHEM_CACTVS_COMPLEXITY>
384

> <PUBCHEM_CACTVS_HBOND_ACCEPTOR>
2

> <PUBCHEM_CACTVS_HBOND_DONOR>
1

> <PUBCHEM_CACTVS_ROTATABLE_BOND>
1

> <PUBCHEM_CACTVS_SUBSKEYS>
AAADccBzAAAAEAAAAAAAAAAAAAAAAWIAAAA8QAAAAAAAAFgB/gAAHABQAAABrAjBHgQ8wPLJkACgAzRnRACCgCQxEiQI2SA4dLgIYOLAkZGUIAhgkADIyhcQgMAOggAAAAECAAAEAAAAAgQAAAAAAAAAAA==

> <PUBCHEM_IUPAC_OPENEYE_NAME>
7-bromo-1-(3,4-dihydro-2H-pyrrol-5-yl)-9H-pyrido[3,4-b]indole

> <PUBCHEM_IUPAC_CAS_NAME>
7-bromo-1-(3,4-dihydro-2H-pyrrol-5-yl)-9H-pyrido[3,4-b]indole

> <PUBCHEM_IUPAC_NAME>
7-bromo-1-(3,4-dihydro-2H-pyrrol-5-yl)-9H-pyrido[3,4-b]indole

> <PUBCHEM_IUPAC_SYSTEMATIC_NAME>
7-bromanyl-1-(3,4-dihydro-2H-pyrrol-5-yl)-9H-pyrido[3,4-b]indole

> <PUBCHEM_IUPAC_TRADITIONAL_NAME>
7-bromo-1-(1-pyrrolin-2-yl)-9H-$b-carboline

> <PUBCHEM_IUPAC_INCHI>
InChI=1S/C15H12BrN3/c16-9-3-4-10-11-5-7-18-15(12-2-1-6-17-12)14(11)19-13(10)8-9/h3-5,7-8,19H,1-2,6H2

> <PUBCHEM_IUPAC_INCHIKEY>
NHZZFYFNMOVHSJ-UHFFFAOYSA-N

> <PUBCHEM_XLOGP3_AA>
3.1

> <PUBCHEM_EXACT_MASS>
313.021459

> <PUBCHEM_MOLECULAR_FORMULA>
C15H12BrN3

> <PUBCHEM_MOLECULAR_WEIGHT>
314.17988

> <PUBCHEM_OPENEYE_CAN_SMILES>
C1CC(=NC1)C2=NC=CC3=C2NC4=C3C=CC(=C4)Br

> <PUBCHEM_OPENEYE_ISO_SMILES>
C1CC(=NC1)C2=NC=CC3=C2NC4=C3C=CC(=C4)Br

> <PUBCHEM_CACTVS_TPSA>
41

> <PUBCHEM_MONOISOTOPIC_WEIGHT>
313.021459

> <PUBCHEM_TOTAL_CHARGE>
0

> <PUBCHEM_HEAVY_ATOM_COUNT>
19

> <PUBCHEM_ATOM_DEF_STEREO_COUNT>
0

> <PUBCHEM_ATOM_UDEF_STEREO_COUNT>
0

> <PUBCHEM_BOND_DEF_STEREO_COUNT>
0

> <PUBCHEM_BOND_UDEF_STEREO_COUNT>
0

> <PUBCHEM_ISOTOPIC_ATOM_COUNT>
0

> <PUBCHEM_COMPONENT_COUNT>
1

> <PUBCHEM_CACTVS_TAUTO_COUNT>
4

> <PUBCHEM_COORDINATE_TYPE>
1
5
255

> <PUBCHEM_BONDANNOTATIONS>
10  12  8
10  14  8
12  13  8
12  15  8
13  16  8
14  17  8
15  18  8
16  19  8
18  19  8
2  13  8
2  6  8
4  17  8
4  9  8
6  10  8
6  9  8

$$$$

