622289
  -OEChem-07051213113D

 30 33  0     0  0  0  0  0  0999 V2000
   -3.7938   -0.0708   -0.2477 O   0  0  0  0  0  0  0  0  0  0  0  0
   -0.0220    2.9824   -0.0558 O   0  0  0  0  0  0  0  0  0  0  0  0
   -2.7157    2.5188   -0.1869 O   0  0  0  0  0  0  0  0  0  0  0  0
    0.3275    0.7240   -0.0479 N   0  0  0  0  0  0  0  0  0  0  0  0
   -1.8182   -2.2267   -0.1616 N   0  0  0  0  0  0  0  0  0  0  0  0
   -0.1671   -0.5448   -0.0766 C   0  0  0  0  0  0  0  0  0  0  0  0
    0.8582   -1.4588   -0.0311 C   0  0  0  0  0  0  0  0  0  0  0  0
    1.7217    0.6308    0.0185 C   0  0  0  0  0  0  0  0  0  0  0  0
    2.0679   -0.7386    0.0296 C   0  0  0  0  0  0  0  0  0  0  0  0
   -1.5532   -0.8581   -0.1439 C   0  0  0  0  0  0  0  0  0  0  0  0
   -0.4758    1.8560   -0.0816 C   0  0  0  0  0  0  0  0  0  0  0  0
   -2.4358    0.1548   -0.1822 C   0  0  0  0  0  0  0  0  0  0  0  0
    0.5115   -2.8492   -0.0528 C   0  0  0  0  0  0  0  0  0  0  0  0
    2.7120    1.6274    0.0699 C   0  0  0  0  0  0  0  0  0  0  0  0
    3.4284   -1.1037    0.0937 C   0  0  0  0  0  0  0  0  0  0  0  0
   -1.9524    1.5630   -0.1535 C   0  0  0  0  0  0  0  0  0  0  0  0
   -0.8010   -3.1753   -0.1167 C   0  0  0  0  0  0  0  0  0  0  0  0
    4.0528    1.2356    0.1330 C   0  0  0  0  0  0  0  0  0  0  0  0
    4.4079   -0.1086    0.1448 C   0  0  0  0  0  0  0  0  0  0  0  0
   -4.3529   -0.1582    1.0490 C   0  0  0  0  0  0  0  0  0  0  0  0
    1.2806   -3.6121   -0.0189 H   0  0  0  0  0  0  0  0  0  0  0  0
   -2.7788   -2.5424   -0.2103 H   0  0  0  0  0  0  0  0  0  0  0  0
    2.4609    2.6826    0.0620 H   0  0  0  0  0  0  0  0  0  0  0  0
    3.7214   -2.1500    0.1037 H   0  0  0  0  0  0  0  0  0  0  0  0
   -1.1556   -4.1979   -0.1376 H   0  0  0  0  0  0  0  0  0  0  0  0
    4.8288    1.9958    0.1733 H   0  0  0  0  0  0  0  0  0  0  0  0
    5.4564   -0.3896    0.1942 H   0  0  0  0  0  0  0  0  0  0  0  0
   -3.9393   -1.0047    1.6081 H   0  0  0  0  0  0  0  0  0  0  0  0
   -5.4301   -0.3191    0.9449 H   0  0  0  0  0  0  0  0  0  0  0  0
   -4.2042    0.7705    1.6110 H   0  0  0  0  0  0  0  0  0  0  0  0
  1 12  1  0  0  0  0
  1 20  1  0  0  0  0
  2 11  2  0  0  0  0
  3 16  2  0  0  0  0
  4  6  1  0  0  0  0
  4  8  1  0  0  0  0
  4 11  1  0  0  0  0
  5 10  1  0  0  0  0
  5 17  1  0  0  0  0
  5 22  1  0  0  0  0
  6  7  2  0  0  0  0
  6 10  1  0  0  0  0
  7  9  1  0  0  0  0
  7 13  1  0  0  0  0
  8  9  1  0  0  0  0
  8 14  2  0  0  0  0
  9 15  2  0  0  0  0
 10 12  2  0  0  0  0
 11 16  1  0  0  0  0
 12 16  1  0  0  0  0
 13 17  2  0  0  0  0
 13 21  1  0  0  0  0
 14 18  1  0  0  0  0
 14 23  1  0  0  0  0
 15 19  1  0  0  0  0
 15 24  1  0  0  0  0
 17 25  1  0  0  0  0
 18 19  2  0  0  0  0
 18 26  1  0  0  0  0
 19 27  1  0  0  0  0
 20 28  1  0  0  0  0
 20 29  1  0  0  0  0
 20 30  1  0  0  0  0
M  END
> <PUBCHEM_COMPOUND_CID>
622289

> <PUBCHEM_CONFORMER_RMSD>
0.6

> <PUBCHEM_CONFORMER_DIVERSEORDER>
1

> <PUBCHEM_MMFF94_PARTIAL_CHARGES>
26
1 -0.36
10 0.15
11 0.58
12 0.09
13 -0.1
14 -0.15
15 -0.15
16 0.56
17 -0.05
18 -0.15
19 -0.15
2 -0.57
20 0.28
21 0.15
22 0.4
23 0.15
24 0.15
25 0.15
26 0.15
27 0.15
3 -0.57
4 0.29
5 -0.6
6 -0.2
7 -0.05
8 -0.15

> <PUBCHEM_EFFECTIVE_ROTOR_COUNT>
1

> <PUBCHEM_PHARMACOPHORE_FEATURES>
9
1 1 acceptor
1 2 acceptor
1 3 acceptor
1 5 cation
1 5 donor
5 4 6 7 8 9 rings
6 4 6 10 11 12 16 rings
6 5 6 7 10 13 17 rings
6 8 9 14 15 18 19 rings

> <PUBCHEM_HEAVY_ATOM_COUNT>
20

> <PUBCHEM_ATOM_DEF_STEREO_COUNT>
0

> <PUBCHEM_ATOM_UDEF_STEREO_COUNT>
0

> <PUBCHEM_BOND_DEF_STEREO_COUNT>
0

> <PUBCHEM_BOND_UDEF_STEREO_COUNT>
0

> <PUBCHEM_ISOTOPIC_ATOM_COUNT>
0

> <PUBCHEM_COMPONENT_COUNT>
1

> <PUBCHEM_CACTVS_TAUTO_COUNT>
3

> <PUBCHEM_CONFORMER_ID>
00097ED100000001

> <PUBCHEM_MMFF94_ENERGY>
64.7533

> <PUBCHEM_FEATURE_SELFOVERLAP>
46.004

> <PUBCHEM_SHAPE_FINGERPRINT>
10319926 262 18118711863282758120
10411042 1 16248285770425907359
10493431 412 18335413526703850505
10608611 8 18263649476759165096
10967382 1 18410576193039071342
1100329 8 18266175020165589465
11132069 177 18337961095092607800
11578080 2 17054192140761823452
12173636 292 18410299090344206766
12390115 104 18189036737593983968
12553582 1 17690841164465327678
12592029 89 18340483464803245266
13140716 1 18122620553160609913
13583140 156 16916524595733250504
138480 1 17329431056464817031
14178342 30 17831871518050356488
14223421 5 18124593338924044087
14790565 3 18337941355434250857
15042514 8 18268427940865830506
15196674 1 18339080492218672980
15209294 21 17822842182650294521
15309172 13 18410006641784148299
15442244 35 18339931523446868234
16945 1 18410863139540295070
1813 80 16915948577365875386
193761 8 17834115629497859615
19591789 44 18410290349853988162
20028762 73 17971185929491943047
20261772 1 18338508647477646315
20510252 161 18261392290529327560
20739085 24 18196909232343198161
21029758 27 18201711830313477205
21267235 1 18411973676787060698
21524375 3 18333733519886187406
22182313 1 18267858566052141597
23184049 59 18410284796613989123
2334 1 18410859849780027620
23402539 116 18334587823251312271
23559900 14 18261112994218893262
238 59 17120616150297738549
2748010 2 18267584787472273885
335352 9 18410294722705598430
34934 24 18339932502403713762
350125 39 18338793550064988696
352729 6 18410013268945235030
43471831 8 18269558410649284202
5104073 3 18339927137915975248
54173680 148 18267586797538353026
6438718 38 17895756162664625175
69090 78 18408608036939184526
7364860 26 17832427870723040102
81228 2 17977966591249164130
8809292 202 18340205198409443994
9709674 26 18334293146146715246

> <PUBCHEM_SHAPE_MULTIPOLES>
384.02
6.65
3.2
0.67
1.25
0.7
-0.07
-1.45
-1.06
-0.84
0.23
-0.23
0.02
0.08

> <PUBCHEM_SHAPE_SELFOVERLAP>
881.375

> <PUBCHEM_SHAPE_VOLUME>
198.9

> <PUBCHEM_COORDINATE_TYPE>
2
5
10

$$$$

