44237293
  -OEChem-07051213103D

 28 27  0     1  0  0  0  0  0999 V2000
   -4.5649   -0.0798    0.0845 S   0  0  0  0  0  0  0  0  0  0  0  0
    2.2207    0.0517    1.5846 O   0  0  0  0  0  0  0  0  0  0  0  0
    1.3758   -2.3510   -1.5116 O   0  0  0  0  0  0  0  0  0  0  0  0
    0.6707   -2.7331    0.6176 O   0  0  0  0  0  0  0  0  0  0  0  0
    2.1020    1.8411   -1.5313 O   0  0  0  0  0  0  0  0  0  0  0  0
    2.2289    2.5581    0.6185 O   0  0  0  0  0  0  0  0  0  0  0  0
    0.7195   -0.4526   -0.2565 C   0  0  1  0  0  0  0  0  0  0  0  0
   -0.4592   -0.0660    0.6586 C   0  0  0  0  0  0  0  0  0  0  0  0
   -1.8176   -0.2380   -0.0361 C   0  0  0  0  0  0  0  0  0  0  0  0
    2.0584    0.1724    0.1783 C   0  0  1  0  0  0  0  0  0  0  0  0
   -2.9600    0.1322    0.9067 C   0  0  0  0  0  0  0  0  0  0  0  0
    0.8970   -1.9609   -0.3027 C   0  0  0  0  0  0  0  0  0  0  0  0
    2.1324    1.6428   -0.1885 C   0  0  0  0  0  0  0  0  0  0  0  0
   -4.6036    1.4832   -0.8221 C   0  0  0  0  0  0  0  0  0  0  0  0
    0.4777   -0.1272   -1.2771 H   0  0  0  0  0  0  0  0  0  0  0  0
   -0.3648    0.9875    0.9507 H   0  0  0  0  0  0  0  0  0  0  0  0
   -0.4437   -0.6521    1.5856 H   0  0  0  0  0  0  0  0  0  0  0  0
   -1.9268   -1.2786   -0.3658 H   0  0  0  0  0  0  0  0  0  0  0  0
   -1.8374    0.3933   -0.9320 H   0  0  0  0  0  0  0  0  0  0  0  0
    2.9090   -0.3328   -0.2946 H   0  0  0  0  0  0  0  0  0  0  0  0
   -2.8607    1.1580    1.2767 H   0  0  0  0  0  0  0  0  0  0  0  0
   -2.9466   -0.5305    1.7787 H   0  0  0  0  0  0  0  0  0  0  0  0
    3.1174    0.3576    1.8038 H   0  0  0  0  0  0  0  0  0  0  0  0
    1.5091   -3.3219   -1.5561 H   0  0  0  0  0  0  0  0  0  0  0  0
   -5.5543    1.5605   -1.3569 H   0  0  0  0  0  0  0  0  0  0  0  0
   -3.7954    1.5303   -1.5557 H   0  0  0  0  0  0  0  0  0  0  0  0
   -4.5281    2.3291   -0.1337 H   0  0  0  0  0  0  0  0  0  0  0  0
    2.1589    2.7929   -1.7618 H   0  0  0  0  0  0  0  0  0  0  0  0
  1 11  1  0  0  0  0
  1 14  1  0  0  0  0
  2 10  1  0  0  0  0
  2 23  1  0  0  0  0
  3 12  1  0  0  0  0
  3 24  1  0  0  0  0
  4 12  2  0  0  0  0
  5 13  1  0  0  0  0
  5 28  1  0  0  0  0
  6 13  2  0  0  0  0
  7  8  1  0  0  0  0
  7 10  1  0  0  0  0
  7 12  1  0  0  0  0
  7 15  1  0  0  0  0
  8  9  1  0  0  0  0
  8 16  1  0  0  0  0
  8 17  1  0  0  0  0
  9 11  1  0  0  0  0
  9 18  1  0  0  0  0
  9 19  1  0  0  0  0
 10 13  1  0  0  0  0
 10 20  1  0  0  0  0
 11 21  1  0  0  0  0
 11 22  1  0  0  0  0
 14 25  1  0  0  0  0
 14 26  1  0  0  0  0
 14 27  1  0  0  0  0
M  END
> <PUBCHEM_COMPOUND_CID>
44237293

> <PUBCHEM_CONFORMER_RMSD>
0.8

> <PUBCHEM_CONFORMER_DIVERSEORDER>
1
172
67
162
171
238
234
195
277
14
146
109
205
101
200
207
261
166
271
203
116
206
27
149
51
243
98
71
129
179
276
242
180
49
217
47
209
38
7
157
194
156
223
81
141
107
235
58
237
262
111
139
94
29
274
189
147
272
59
8
123
125
60
100
233
199
225
43
245
32
21
70
104
148
128
22
18
143
138
241
126
230
273
236
87
240
73
13
155
153
268
191
35
122
114
256
253
48
198
34
167
31
6
103
250
142
44
144
178
266
37
231
221
119
160
15
56
184
170
218
11
254
124
46
74
270
187
226
265
82
258
86
202
165
76
134
26
45
72
183
214
108
136
75
211
181
275
69
130
54
229
12
53
212
163
224
80
78
79
227
232
25
255
188
219
93
63
90
4
152
102
246
57
260
161
239
30
193
95
16
269
251
117
10
83
222
5
89
28
159
247
263
264
61
158
65
24
17
110
39
127
20
3
267
257
66
190
140
135
216
192
131
77
52
121
120
173
132
23
168
118
2
154
259
213
9
84
99
50
220
19
176
201
145
42
105
85
210
96
248
186
113
174
244
33
115
175
36
169
133
228
196
151
112
88
249
62
55
197
137
208
40
91
182
177
252
204
150
41
185
215
106
97
164
68
64
92

> <PUBCHEM_MMFF94_PARTIAL_CHARGES>
15
1 -0.46
10 0.34
11 0.23
12 0.66
13 0.66
14 0.23
2 -0.68
23 0.4
24 0.5
28 0.5
3 -0.65
4 -0.57
5 -0.65
6 -0.57
7 0.06

> <PUBCHEM_EFFECTIVE_ROTOR_COUNT>
7

> <PUBCHEM_PHARMACOPHORE_FEATURES>
10
1 14 hydrophobe
1 2 acceptor
1 2 donor
1 3 acceptor
1 4 acceptor
1 5 acceptor
1 6 acceptor
3 3 4 12 anion
3 5 6 13 anion
5 1 7 8 9 11 hydrophobe

> <PUBCHEM_HEAVY_ATOM_COUNT>
14

> <PUBCHEM_ATOM_DEF_STEREO_COUNT>
0

> <PUBCHEM_ATOM_UDEF_STEREO_COUNT>
2

> <PUBCHEM_BOND_DEF_STEREO_COUNT>
0

> <PUBCHEM_BOND_UDEF_STEREO_COUNT>
0

> <PUBCHEM_ISOTOPIC_ATOM_COUNT>
0

> <PUBCHEM_COMPONENT_COUNT>
1

> <PUBCHEM_CACTVS_TAUTO_COUNT>
1

> <PUBCHEM_CONFORMER_ID>
02A301ED00000001

> <PUBCHEM_MMFF94_ENERGY>
14.4256

> <PUBCHEM_FEATURE_SELFOVERLAP>
50.867

> <PUBCHEM_SHAPE_FINGERPRINT>
14123255 52 18195245516336222516
14415576 193 18342457032640883437
17134986 127 18265044739444852548
18186145 218 18042391452976800113
20645477 70 18261110842076697119
20671657 53 17974282428727934239
20708731 107 18261943145854641766
21499 59 18262800649208070757
21524375 3 18265330616651979266
22096605 113 18410015429609145089
2255824 54 18336537339283402431
23532345 1 18411984667987997489
23557571 272 17774426206312964803
3060560 45 18334851688951903572
6049 1 17986931103451405409
7364860 26 18261669371727815031
81228 2 17255676396357277250
81539 233 18411417297933064359

> <PUBCHEM_SHAPE_MULTIPOLES>
262.62
6.81
2.58
1.2
11.23
0.47
-0.11
-3.23
-0.56
-2.43
-0.54
-0.47
-0.01
0.52

> <PUBCHEM_SHAPE_SELFOVERLAP>
488.804

> <PUBCHEM_SHAPE_VOLUME>
165.7

> <PUBCHEM_COORDINATE_TYPE>
2
5
10

$$$$

