4828
  -OEChem-07051212533D

 38 39  0     1  0  0  0  0  0999 V2000
   -0.1604   -1.6209   -0.5169 O   0  0  0  0  0  0  0  0  0  0  0  0
    2.2569   -2.9044   -1.1529 O   0  0  0  0  0  0  0  0  0  0  0  0
    2.5704    0.2789    0.7112 N   0  0  0  0  0  0  0  0  0  0  0  0
   -2.8398    2.1809   -0.4326 N   0  0  0  0  0  0  0  0  0  0  0  0
    2.1449   -2.0538   -0.0082 C   0  0  1  0  0  0  0  0  0  0  0  0
    2.5922   -0.6472   -0.4129 C   0  0  0  0  0  0  0  0  0  0  0  0
    3.0536    1.5938    0.3124 C   0  0  0  0  0  0  0  0  0  0  0  0
    0.7064   -2.1067    0.5016 C   0  0  0  0  0  0  0  0  0  0  0  0
   -1.6072    0.3212   -0.4319 C   0  0  0  0  0  0  0  0  0  0  0  0
   -1.3195   -1.0189   -0.1051 C   0  0  0  0  0  0  0  0  0  0  0  0
    4.4912    1.4991   -0.1908 C   0  0  0  0  0  0  0  0  0  0  0  0
    2.9487    2.5532    1.4938 C   0  0  0  0  0  0  0  0  0  0  0  0
   -2.8054    0.8802    0.0176 C   0  0  0  0  0  0  0  0  0  0  0  0
   -0.9252    1.3310   -1.1670 C   0  0  0  0  0  0  0  0  0  0  0  0
   -2.2388   -1.7482    0.6577 C   0  0  0  0  0  0  0  0  0  0  0  0
   -3.7338    0.1634    0.7806 C   0  0  0  0  0  0  0  0  0  0  0  0
   -1.7079    2.4624   -1.1496 C   0  0  0  0  0  0  0  0  0  0  0  0
   -3.4267   -1.1640    1.0929 C   0  0  0  0  0  0  0  0  0  0  0  0
    2.8111   -2.4577    0.7635 H   0  0  0  0  0  0  0  0  0  0  0  0
    1.9697   -0.2793   -1.2374 H   0  0  0  0  0  0  0  0  0  0  0  0
    3.6007   -0.7628   -0.8244 H   0  0  0  0  0  0  0  0  0  0  0  0
    2.4208    1.9945   -0.4893 H   0  0  0  0  0  0  0  0  0  0  0  0
    3.1423   -0.0897    1.4709 H   0  0  0  0  0  0  0  0  0  0  0  0
    0.6055   -1.5244    1.4260 H   0  0  0  0  0  0  0  0  0  0  0  0
    0.4305   -3.1471    0.7098 H   0  0  0  0  0  0  0  0  0  0  0  0
    4.9271    2.5012   -0.2813 H   0  0  0  0  0  0  0  0  0  0  0  0
    5.1300    0.9314    0.4956 H   0  0  0  0  0  0  0  0  0  0  0  0
    4.5586    1.0507   -1.1868 H   0  0  0  0  0  0  0  0  0  0  0  0
    1.9150    2.6242    1.8505 H   0  0  0  0  0  0  0  0  0  0  0  0
    3.2687    3.5602    1.2052 H   0  0  0  0  0  0  0  0  0  0  0  0
    3.5751    2.2294    2.3328 H   0  0  0  0  0  0  0  0  0  0  0  0
    0.0333    1.2429   -1.6593 H   0  0  0  0  0  0  0  0  0  0  0  0
   -2.0398   -2.7860    0.9138 H   0  0  0  0  0  0  0  0  0  0  0  0
    3.1911   -2.9124   -1.4229 H   0  0  0  0  0  0  0  0  0  0  0  0
   -3.5922    2.8328   -0.2587 H   0  0  0  0  0  0  0  0  0  0  0  0
   -4.6591    0.6170    1.1194 H   0  0  0  0  0  0  0  0  0  0  0  0
   -1.5603    3.4413   -1.5836 H   0  0  0  0  0  0  0  0  0  0  0  0
   -4.1276   -1.7492    1.6828 H   0  0  0  0  0  0  0  0  0  0  0  0
  1  8  1  0  0  0  0
  1 10  1  0  0  0  0
  2  5  1  0  0  0  0
  2 34  1  0  0  0  0
  3  6  1  0  0  0  0
  3  7  1  0  0  0  0
  3 23  1  0  0  0  0
  4 13  1  0  0  0  0
  4 17  1  0  0  0  0
  4 35  1  0  0  0  0
  5  6  1  0  0  0  0
  5  8  1  0  0  0  0
  5 19  1  0  0  0  0
  6 20  1  0  0  0  0
  6 21  1  0  0  0  0
  7 11  1  0  0  0  0
  7 12  1  0  0  0  0
  7 22  1  0  0  0  0
  8 24  1  0  0  0  0
  8 25  1  0  0  0  0
  9 10  1  0  0  0  0
  9 13  2  0  0  0  0
  9 14  1  0  0  0  0
 10 15  2  0  0  0  0
 11 26  1  0  0  0  0
 11 27  1  0  0  0  0
 11 28  1  0  0  0  0
 12 29  1  0  0  0  0
 12 30  1  0  0  0  0
 12 31  1  0  0  0  0
 13 16  1  0  0  0  0
 14 17  2  0  0  0  0
 14 32  1  0  0  0  0
 15 18  1  0  0  0  0
 15 33  1  0  0  0  0
 16 18  2  0  0  0  0
 16 36  1  0  0  0  0
 17 37  1  0  0  0  0
 18 38  1  0  0  0  0
M  END
> <PUBCHEM_COMPOUND_CID>
4828

> <PUBCHEM_CONFORMER_RMSD>
0.8

> <PUBCHEM_CONFORMER_DIVERSEORDER>
1
100
128
39
142
15
146
122
77
107
131
89
138
140
88
97
145
9
42
139
123
73
92
105
8
94
31
50
76
27
90
98
101
59
29
72
10
143
147
65
85
127
134
45
144
137
63
83
99
36
96
67
33
14
66
110
18
55
82
106
79
21
111
6
102
69
12
86
61
35
91
78
7
30
41
75
121
53
44
126
64
115
46
114
80
48
130
74
40
71
52
124
84
108
120
87
2
11
113
103
24
34
22
3
141
17
43
109
25
57
38
132
26
118
95
119
93
135
13
125
16
60
47
136
68
112
4
19
70
23
58
20
28
129
49
133
62
117
104
32
56
37
54
81
5
116
51

> <PUBCHEM_MMFF94_PARTIAL_CHARGES>
23
1 -0.36
10 0.08
13 -0.15
14 -0.15
15 -0.15
16 -0.15
17 -0.3
18 -0.15
2 -0.68
23 0.36
3 -0.9
32 0.15
33 0.15
34 0.4
35 0.27
36 0.15
37 0.15
38 0.15
4 0.03
5 0.28
6 0.27
7 0.27
8 0.28

> <PUBCHEM_EFFECTIVE_ROTOR_COUNT>
6

> <PUBCHEM_PHARMACOPHORE_FEATURES>
10
1 1 acceptor
1 2 acceptor
1 2 donor
1 3 cation
1 3 donor
1 4 cation
1 4 donor
3 7 11 12 hydrophobe
5 4 9 13 14 17 rings
6 9 10 13 15 16 18 rings

> <PUBCHEM_HEAVY_ATOM_COUNT>
18

> <PUBCHEM_ATOM_DEF_STEREO_COUNT>
0

> <PUBCHEM_ATOM_UDEF_STEREO_COUNT>
1

> <PUBCHEM_BOND_DEF_STEREO_COUNT>
0

> <PUBCHEM_BOND_UDEF_STEREO_COUNT>
0

> <PUBCHEM_ISOTOPIC_ATOM_COUNT>
0

> <PUBCHEM_COMPONENT_COUNT>
1

> <PUBCHEM_CACTVS_TAUTO_COUNT>
1

> <PUBCHEM_CONFORMER_ID>
000012DC00000001

> <PUBCHEM_MMFF94_ENERGY>
31.6275

> <PUBCHEM_FEATURE_SELFOVERLAP>
50.838

> <PUBCHEM_SHAPE_FINGERPRINT>
10165383 225 18116701937865969400
10366900 7 18411139091278811832
10608611 8 18340769359237622679
11715629 250 18408885122643948038
12403259 226 18053662761542971847
12633257 1 18197218267839769217
13083527 12 17478875105529406483
13140716 1 18199185277257318555
14026960 21 18411419488155408170
14223421 5 18413105091041521319
14386348 128 18408324363181922024
15475509 84 14521982231699079721
15806764 133 18046889752572296975
173720 79 14835573586985425405
18981168 100 18268448964666830219
20645476 183 14996273700299626463
20681677 76 18340211902742623391
21524375 3 18336832970720143234
23175994 123 17756137144112745062
23419403 2 16333301563657710067
23557571 272 18131064905483174251
23559900 14 18059285595187656567
238 59 18046663158571695836
2748010 2 18272086153837976391
3187 122 17845942822991780597
3524813 1 18335420102293655336
44154327 71 18056753231004089420
6049 1 18268421498351173671
7097593 13 17271184324851493170
8050 44 18410583902257428344
81228 2 17917419965284574107
9925002 15 16602378429999562510

> <PUBCHEM_SHAPE_MULTIPOLES>
348.73
7.18
3.31
1.16
3.24
0.29
-0.09
-2.69
-1.74
1.23
0.43
0.08
-0.31
1.83

> <PUBCHEM_SHAPE_SELFOVERLAP>
725.933

> <PUBCHEM_SHAPE_VOLUME>
201

> <PUBCHEM_COORDINATE_TYPE>
2
5
10

$$$$

