251868
  -OEChem-07051213072D

 56 59  0     1  0  0  0  0  0999 V2000
   10.1642    1.8046    0.0000 O   0  0  0  0  0  0  0  0  0  0  0  0
    2.5357   -2.7092    0.0000 O   0  0  0  0  0  0  0  0  0  0  0  0
    8.5179    2.3426    0.0000 O   0  0  0  0  0  0  0  0  0  0  0  0
    7.9288   -0.6569    0.0000 C   0  0  2  0  0  0  0  0  0  0  0  0
    7.9288    0.3431    0.0000 C   0  0  2  0  0  0  0  0  0  0  0  0
    7.0628   -1.1569    0.0000 C   0  0  1  0  0  0  0  0  0  0  0  0
    6.1968   -0.6569    0.0000 C   0  0  1  0  0  0  0  0  0  0  0  0
    5.2868   -1.1638    0.0000 C   0  0  2  0  0  0  0  0  0  0  0  0
    7.0628    0.8431    0.0000 C   0  0  0  0  0  0  0  0  0  0  0  0
    8.8750    0.6478    0.0000 C   0  0  2  0  0  0  0  0  0  0  0  0
    6.1968    0.3431    0.0000 C   0  0  0  0  0  0  0  0  0  0  0  0
    8.8750   -0.9616    0.0000 C   0  0  0  0  0  0  0  0  0  0  0  0
    9.4586   -0.1569    0.0000 C   0  0  0  0  0  0  0  0  0  0  0  0
    7.0789   -2.1984    0.0000 C   0  0  0  0  0  0  0  0  0  0  0  0
    5.2787   -2.2054    0.0000 C   0  0  0  0  0  0  0  0  0  0  0  0
    7.9288    1.3431    0.0000 C   0  0  0  0  0  0  0  0  0  0  0  0
    4.3599   -0.5997    0.0000 C   0  0  0  0  0  0  0  0  0  0  0  0
    6.1808   -2.7262    0.0000 C   0  0  0  0  0  0  0  0  0  0  0  0
    5.2945   -0.1638    0.0000 C   0  0  0  0  0  0  0  0  0  0  0  0
    4.3433   -2.7551    0.0000 C   0  0  0  0  0  0  0  0  0  0  0  0
    3.4120   -1.1276    0.0000 C   0  0  0  0  0  0  0  0  0  0  0  0
    9.1857    1.5983    0.0000 C   0  0  0  0  0  0  0  0  0  0  0  0
    3.4037   -2.2126    0.0000 C   0  0  2  0  0  0  0  0  0  0  0  0
   10.4749    2.7551    0.0000 C   0  0  0  0  0  0  0  0  0  0  0  0
    8.0188   -1.5021    0.0000 H   0  0  0  0  0  0  0  0  0  0  0  0
    7.8022   -1.5762    0.0000 H   0  0  0  0  0  0  0  0  0  0  0  0
    6.9329   -0.2319    0.0000 H   0  0  0  0  0  0  0  0  0  0  0  0
    7.4613    1.3180    0.0000 H   0  0  0  0  0  0  0  0  0  0  0  0
    6.6643    1.3180    0.0000 H   0  0  0  0  0  0  0  0  0  0  0  0
    9.4875    0.7440    0.0000 H   0  0  0  0  0  0  0  0  0  0  0  0
    5.9847    0.9257    0.0000 H   0  0  0  0  0  0  0  0  0  0  0  0
    5.5862    0.2354    0.0000 H   0  0  0  0  0  0  0  0  0  0  0  0
    8.6240   -1.5286    0.0000 H   0  0  0  0  0  0  0  0  0  0  0  0
    9.4124   -1.2709    0.0000 H   0  0  0  0  0  0  0  0  0  0  0  0
    9.9195   -0.5716    0.0000 H   0  0  0  0  0  0  0  0  0  0  0  0
    9.9195    0.2578    0.0000 H   0  0  0  0  0  0  0  0  0  0  0  0
    7.2969   -2.7788    0.0000 H   0  0  0  0  0  0  0  0  0  0  0  0
    7.6880   -2.0829    0.0000 H   0  0  0  0  0  0  0  0  0  0  0  0
    8.5488    1.3431    0.0000 H   0  0  0  0  0  0  0  0  0  0  0  0
    7.9288    1.9631    0.0000 H   0  0  0  0  0  0  0  0  0  0  0  0
    7.3088    1.3431    0.0000 H   0  0  0  0  0  0  0  0  0  0  0  0
    4.7681   -0.1330    0.0000 H   0  0  0  0  0  0  0  0  0  0  0  0
    3.9700   -0.1176    0.0000 H   0  0  0  0  0  0  0  0  0  0  0  0
    6.1832   -3.3462    0.0000 H   0  0  0  0  0  0  0  0  0  0  0  0
    5.9145   -0.1686    0.0000 H   0  0  0  0  0  0  0  0  0  0  0  0
    5.2993    0.4562    0.0000 H   0  0  0  0  0  0  0  0  0  0  0  0
    4.6745   -0.1590    0.0000 H   0  0  0  0  0  0  0  0  0  0  0  0
    3.9460   -3.2311    0.0000 H   0  0  0  0  0  0  0  0  0  0  0  0
    4.7443   -3.2280    0.0000 H   0  0  0  0  0  0  0  0  0  0  0  0
    3.2075   -0.5423    0.0000 H   0  0  0  0  0  0  0  0  0  0  0  0
    2.8004   -1.2290    0.0000 H   0  0  0  0  0  0  0  0  0  0  0  0
    3.4025   -2.8326    0.0000 H   0  0  0  0  0  0  0  0  0  0  0  0
    2.0000   -2.3972    0.0000 H   0  0  0  0  0  0  0  0  0  0  0  0
   11.0642    2.5625    0.0000 H   0  0  0  0  0  0  0  0  0  0  0  0
   10.6675    3.3444    0.0000 H   0  0  0  0  0  0  0  0  0  0  0  0
    9.8856    2.9477    0.0000 H   0  0  0  0  0  0  0  0  0  0  0  0
  1 22  1  0  0  0  0
  1 24  1  0  0  0  0
 23  2  1  1  0  0  0
  2 53  1  0  0  0  0
  3 22  2  0  0  0  0
  4  5  1  0  0  0  0
  4  6  1  0  0  0  0
  4 12  1  0  0  0  0
  4 25  1  6  0  0  0
  5  9  1  0  0  0  0
  5 10  1  0  0  0  0
  5 16  1  1  0  0  0
  6  7  1  0  0  0  0
  6 14  1  0  0  0  0
  6 26  1  1  0  0  0
  7  8  1  0  0  0  0
  7 11  1  0  0  0  0
  7 27  1  6  0  0  0
  8 15  1  0  0  0  0
  8 17  1  0  0  0  0
  8 19  1  1  0  0  0
  9 11  1  0  0  0  0
  9 28  1  0  0  0  0
  9 29  1  0  0  0  0
 10 13  1  0  0  0  0
 10 22  1  1  0  0  0
 10 30  1  0  0  0  0
 11 31  1  0  0  0  0
 11 32  1  0  0  0  0
 12 13  1  0  0  0  0
 12 33  1  0  0  0  0
 12 34  1  0  0  0  0
 13 35  1  0  0  0  0
 13 36  1  0  0  0  0
 14 18  1  0  0  0  0
 14 37  1  0  0  0  0
 14 38  1  0  0  0  0
 15 18  2  0  0  0  0
 15 20  1  0  0  0  0
 16 39  1  0  0  0  0
 16 40  1  0  0  0  0
 16 41  1  0  0  0  0
 17 21  1  0  0  0  0
 17 42  1  0  0  0  0
 17 43  1  0  0  0  0
 18 44  1  0  0  0  0
 19 45  1  0  0  0  0
 19 46  1  0  0  0  0
 19 47  1  0  0  0  0
 20 23  1  0  0  0  0
 20 48  1  0  0  0  0
 20 49  1  0  0  0  0
 21 23  1  0  0  0  0
 21 50  1  0  0  0  0
 21 51  1  0  0  0  0
 23 52  1  0  0  0  0
 24 54  1  0  0  0  0
 24 55  1  0  0  0  0
 24 56  1  0  0  0  0
M  END
> <PUBCHEM_COMPOUND_CID>
251868

> <PUBCHEM_COMPOUND_CANONICALIZED>
1

> <PUBCHEM_CACTVS_COMPLEXITY>
567

> <PUBCHEM_CACTVS_HBOND_ACCEPTOR>
3

> <PUBCHEM_CACTVS_HBOND_DONOR>
1

> <PUBCHEM_CACTVS_ROTATABLE_BOND>
2

> <PUBCHEM_CACTVS_SUBSKEYS>
AAADcfB4MAAAAAAAAAAAAAAAAAAAAYAAAAAwYIAAAAAAAGCAAAAAGgAACAAADxSggAICCAAABgCIAiDSCAAAAAAgAAAACAEAAAgAEBIAAQAAQAAEwAAIAAOIyPCPgAAAAAAAAADAAAQAACAAAQAACAAAAA==

> <PUBCHEM_IUPAC_OPENEYE_NAME>
methyl (3S,8S,9S,10R,13S,14S,17S)-3-hydroxy-10,13-dimethyl-2,3,4,7,8,9,11,12,14,15,16,17-dodecahydro-1H-cyclopenta[a]phenanthrene-17-carboxylate

> <PUBCHEM_IUPAC_CAS_NAME>
(3S,8S,9S,10R,13S,14S,17S)-3-hydroxy-10,13-dimethyl-2,3,4,7,8,9,11,12,14,15,16,17-dodecahydro-1H-cyclopenta[a]phenanthrene-17-carboxylic acid methyl ester

> <PUBCHEM_IUPAC_NAME>
methyl (3S,8S,9S,10R,13S,14S,17S)-3-hydroxy-10,13-dimethyl-2,3,4,7,8,9,11,12,14,15,16,17-dodecahydro-1H-cyclopenta[a]phenanthrene-17-carboxylate

> <PUBCHEM_IUPAC_SYSTEMATIC_NAME>
methyl (3S,8S,9S,10R,13S,14S,17S)-10,13-dimethyl-3-oxidanyl-2,3,4,7,8,9,11,12,14,15,16,17-dodecahydro-1H-cyclopenta[a]phenanthrene-17-carboxylate

> <PUBCHEM_IUPAC_TRADITIONAL_NAME>
(3S,8S,9S,10R,13S,14S,17S)-3-hydroxy-10,13-dimethyl-2,3,4,7,8,9,11,12,14,15,16,17-dodecahydro-1H-cyclopenta[a]phenanthrene-17-carboxylic acid methyl ester

> <PUBCHEM_IUPAC_INCHI>
InChI=1S/C21H32O3/c1-20-10-8-14(22)12-13(20)4-5-15-16-6-7-18(19(23)24-3)21(16,2)11-9-17(15)20/h4,14-18,22H,5-12H2,1-3H3/t14-,15-,16-,17-,18+,20-,21-/m0/s1

> <PUBCHEM_IUPAC_INCHIKEY>
WGYHVQYXJNPQAA-WPWXJNKXSA-N

> <PUBCHEM_XLOGP3>
4.4

> <PUBCHEM_EXACT_MASS>
332.235145

> <PUBCHEM_MOLECULAR_FORMULA>
C21H32O3

> <PUBCHEM_MOLECULAR_WEIGHT>
332.47698

> <PUBCHEM_OPENEYE_CAN_SMILES>
CC12CCC3C(C1CCC2C(=O)OC)CC=C4C3(CCC(C4)O)C

> <PUBCHEM_OPENEYE_ISO_SMILES>
C[C@]12CC[C@H]3[C@H]([C@@H]1CC[C@@H]2C(=O)OC)CC=C4[C@@]3(CC[C@@H](C4)O)C

> <PUBCHEM_CACTVS_TPSA>
46.5

> <PUBCHEM_MONOISOTOPIC_WEIGHT>
332.235145

> <PUBCHEM_TOTAL_CHARGE>
0

> <PUBCHEM_HEAVY_ATOM_COUNT>
24

> <PUBCHEM_ATOM_DEF_STEREO_COUNT>
7

> <PUBCHEM_ATOM_UDEF_STEREO_COUNT>
0

> <PUBCHEM_BOND_DEF_STEREO_COUNT>
0

> <PUBCHEM_BOND_UDEF_STEREO_COUNT>
0

> <PUBCHEM_ISOTOPIC_ATOM_COUNT>
0

> <PUBCHEM_COMPONENT_COUNT>
1

> <PUBCHEM_CACTVS_TAUTO_COUNT>
1

> <PUBCHEM_COORDINATE_TYPE>
1
5
255

> <PUBCHEM_BONDANNOTATIONS>
10  22  5
23  2  5
4  25  6
5  16  5
6  26  5
7  27  6
8  19  5

$$$$

