10669
  -OEChem-06261204493D

 44 45  0     1  0  0  0  0  0999 V2000
    0.6047    1.5694   -0.0881 O   0  0  0  0  0  0  0  0  0  0  0  0
    0.0694   -4.7162   -0.0285 O   0  0  0  0  0  0  0  0  0  0  0  0
    4.2861    1.4537   -0.2278 N   0  0  0  0  0  0  0  0  0  0  0  0
   -0.4025    0.8675    0.6277 C   0  0  2  0  0  0  0  0  0  0  0  0
   -0.2758   -0.6334    0.4513 C   0  0  0  0  0  0  0  0  0  0  0  0
   -1.7717    1.3919    0.2482 C   0  0  0  0  0  0  0  0  0  0  0  0
    1.9046    1.1006    0.2456 C   0  0  0  0  0  0  0  0  0  0  0  0
    2.9289    1.8913   -0.5525 C   0  0  0  0  0  0  0  0  0  0  0  0
    0.0355   -1.4150    1.5479 C   0  0  0  0  0  0  0  0  0  0  0  0
   -0.4748   -1.1819   -0.8020 C   0  0  0  0  0  0  0  0  0  0  0  0
   -2.7923    1.3502    1.1816 C   0  0  0  0  0  0  0  0  0  0  0  0
   -1.9705    1.9012   -1.0227 C   0  0  0  0  0  0  0  0  0  0  0  0
    0.1523   -2.7955    1.3855 C   0  0  0  0  0  0  0  0  0  0  0  0
   -0.3583   -2.5624   -0.9644 C   0  0  0  0  0  0  0  0  0  0  0  0
   -0.0448   -3.3692    0.1294 C   0  0  0  0  0  0  0  0  0  0  0  0
    4.5452    1.6113    1.2028 C   0  0  0  0  0  0  0  0  0  0  0  0
    5.2665    2.2051   -1.0106 C   0  0  0  0  0  0  0  0  0  0  0  0
   -4.0533    1.8334    0.8323 C   0  0  0  0  0  0  0  0  0  0  0  0
   -3.2316    2.3845   -1.3718 C   0  0  0  0  0  0  0  0  0  0  0  0
   -4.2729    2.3504   -0.4443 C   0  0  0  0  0  0  0  0  0  0  0  0
   -0.1448   -5.2369   -1.3396 C   0  0  0  0  0  0  0  0  0  0  0  0
   -0.2556    1.1249    1.6870 H   0  0  0  0  0  0  0  0  0  0  0  0
    2.0312    1.2397    1.3235 H   0  0  0  0  0  0  0  0  0  0  0  0
    2.0349    0.0425   -0.0034 H   0  0  0  0  0  0  0  0  0  0  0  0
    2.7282    1.7409   -1.6213 H   0  0  0  0  0  0  0  0  0  0  0  0
    2.7921    2.9653   -0.3663 H   0  0  0  0  0  0  0  0  0  0  0  0
    0.1919   -0.9799    2.5305 H   0  0  0  0  0  0  0  0  0  0  0  0
   -0.7032   -0.5713   -1.6693 H   0  0  0  0  0  0  0  0  0  0  0  0
   -2.6315    0.9482    2.1777 H   0  0  0  0  0  0  0  0  0  0  0  0
   -1.1786    1.9336   -1.7649 H   0  0  0  0  0  0  0  0  0  0  0  0
    0.3971   -3.4189    2.2411 H   0  0  0  0  0  0  0  0  0  0  0  0
   -0.5202   -2.9415   -1.9677 H   0  0  0  0  0  0  0  0  0  0  0  0
    4.0224    0.8566    1.7985 H   0  0  0  0  0  0  0  0  0  0  0  0
    4.2859    2.6109    1.5704 H   0  0  0  0  0  0  0  0  0  0  0  0
    5.6084    1.4469    1.4176 H   0  0  0  0  0  0  0  0  0  0  0  0
    6.2803    1.8392   -0.8134 H   0  0  0  0  0  0  0  0  0  0  0  0
    5.2377    3.2785   -0.7900 H   0  0  0  0  0  0  0  0  0  0  0  0
    5.0891    2.0686   -2.0833 H   0  0  0  0  0  0  0  0  0  0  0  0
   -4.8643    1.8065    1.5542 H   0  0  0  0  0  0  0  0  0  0  0  0
   -3.4035    2.7859   -2.3662 H   0  0  0  0  0  0  0  0  0  0  0  0
   -5.2549    2.7262   -0.7164 H   0  0  0  0  0  0  0  0  0  0  0  0
   -0.0156   -6.3226   -1.2814 H   0  0  0  0  0  0  0  0  0  0  0  0
    0.6027   -4.8634   -2.0478 H   0  0  0  0  0  0  0  0  0  0  0  0
   -1.1689   -5.0547   -1.6826 H   0  0  0  0  0  0  0  0  0  0  0  0
  1  4  1  0  0  0  0
  1  7  1  0  0  0  0
  2 15  1  0  0  0  0
  2 21  1  0  0  0  0
  3  8  1  0  0  0  0
  3 16  1  0  0  0  0
  3 17  1  0  0  0  0
  4  5  1  0  0  0  0
  4  6  1  0  0  0  0
  4 22  1  0  0  0  0
  5  9  2  0  0  0  0
  5 10  1  0  0  0  0
  6 11  2  0  0  0  0
  6 12  1  0  0  0  0
  7  8  1  0  0  0  0
  7 23  1  0  0  0  0
  7 24  1  0  0  0  0
  8 25  1  0  0  0  0
  8 26  1  0  0  0  0
  9 13  1  0  0  0  0
  9 27  1  0  0  0  0
 10 14  2  0  0  0  0
 10 28  1  0  0  0  0
 11 18  1  0  0  0  0
 11 29  1  0  0  0  0
 12 19  2  0  0  0  0
 12 30  1  0  0  0  0
 13 15  2  0  0  0  0
 13 31  1  0  0  0  0
 14 15  1  0  0  0  0
 14 32  1  0  0  0  0
 16 33  1  0  0  0  0
 16 34  1  0  0  0  0
 16 35  1  0  0  0  0
 17 36  1  0  0  0  0
 17 37  1  0  0  0  0
 17 38  1  0  0  0  0
 18 20  2  0  0  0  0
 18 39  1  0  0  0  0
 19 20  1  0  0  0  0
 19 40  1  0  0  0  0
 20 41  1  0  0  0  0
 21 42  1  0  0  0  0
 21 43  1  0  0  0  0
 21 44  1  0  0  0  0
M  END
> <PUBCHEM_COMPOUND_CID>
10669

> <PUBCHEM_CONFORMER_RMSD>
0.8

> <PUBCHEM_CONFORMER_DIVERSEORDER>
2
23
7
14
22
26
13
25
4
12
11
17
15
20
27
8
28
21
6
16
3
10
9
19
1
18
5
24

> <PUBCHEM_MMFF94_PARTIAL_CHARGES>
30
1 -0.56
10 -0.15
11 -0.15
12 -0.15
13 -0.15
14 -0.15
15 0.08
16 0.27
17 0.27
18 -0.15
19 -0.15
2 -0.36
20 -0.15
21 0.28
27 0.15
28 0.15
29 0.15
3 -0.81
30 0.15
31 0.15
32 0.15
39 0.15
4 0.57
40 0.15
41 0.15
5 -0.14
6 -0.14
7 0.28
8 0.27
9 -0.15

> <PUBCHEM_EFFECTIVE_ROTOR_COUNT>
7

> <PUBCHEM_PHARMACOPHORE_FEATURES>
5
1 1 acceptor
1 2 acceptor
1 3 cation
6 5 9 10 13 14 15 rings
6 6 11 12 18 19 20 rings

> <PUBCHEM_HEAVY_ATOM_COUNT>
21

> <PUBCHEM_ATOM_DEF_STEREO_COUNT>
0

> <PUBCHEM_ATOM_UDEF_STEREO_COUNT>
1

> <PUBCHEM_BOND_DEF_STEREO_COUNT>
0

> <PUBCHEM_BOND_UDEF_STEREO_COUNT>
0

> <PUBCHEM_ISOTOPIC_ATOM_COUNT>
0

> <PUBCHEM_COMPONENT_COUNT>
1

> <PUBCHEM_CACTVS_TAUTO_COUNT>
1

> <PUBCHEM_CONFORMER_ID>
000029AD00000002

> <PUBCHEM_MMFF94_ENERGY>
70.9065

> <PUBCHEM_FEATURE_SELFOVERLAP>
25.371

> <PUBCHEM_SHAPE_FINGERPRINT>
107951 10 17845353540952375330
11488393 25 18195794396235070171
11578080 2 15766122282755862263
121448 382 18189633673655026669
12643181 29 18337941365115189294
12707595 3 17478324696900756539
12788726 201 18053110527511738394
13004483 165 17617096906578499194
133893 2 17978217593327609969
13540713 4 17700120291565099321
13681431 1 17617948366427802233
13968360 50 18267883816186097213
14468879 13 16230310468592479720
15842332 3 17701552710334033200
17539 30 17977105660843882310
1813 80 10735871824219938216
18915476 22 18196368341594932049
204376 136 18413107277201506705
21120745 212 17476338522986295596
21524375 3 18342738498685034617
23419403 2 17466735650617009527
23559900 14 17692256652779129153
23598288 3 17912625922636077732
23728640 28 18340485543888663112
3057174 1 18338520836584120798
3729539 64 18050545625046301334
458136 41 18336823216648869601
46194498 28 17479770498947100093
532947 4 18193273233584615030
6138700 20 18051970622249481526
6669772 16 18335133245933945670
6786 2 18337377309968302154
81228 2 17836094368323915217
81539 233 18270683198254549049
84936 31 18048617085233914393

> <PUBCHEM_SHAPE_MULTIPOLES>
415.45
7.31
6.1
1.42
4.44
11.53
-0.09
-12.74
0.69
1.9
2.06
-0.12
0.3
-0.04

> <PUBCHEM_SHAPE_SELFOVERLAP>
867.482

> <PUBCHEM_SHAPE_VOLUME>
237.1

> <PUBCHEM_COORDINATE_TYPE>
2
5
10

$$$$

