10519
  -OEChem-06261204382D

 58 58  0     0  0  0  0  0  0999 V2000
    3.8014    0.0000    0.0000 Cl  0  5  0  0  0  0  0  0  0  0  0  0
    0.4030    6.1200    0.0000 O   0  0  0  0  0  0  0  0  0  0  0  0
    2.9030    6.9860    0.0000 O   0  0  0  0  0  0  0  0  0  0  0  0
    5.8144    6.7215    0.0000 N   0  3  0  0  0  0  0  0  0  0  0  0
    3.3426    5.7780    0.0000 N   0  0  0  0  0  0  0  0  0  0  0  0
    5.0484    6.0787    0.0000 C   0  0  0  0  0  0  0  0  0  0  0  0
    6.5805    7.3643    0.0000 C   0  0  0  0  0  0  0  0  0  0  0  0
    6.4572    5.9555    0.0000 C   0  0  0  0  0  0  0  0  0  0  0  0
    5.1716    7.4876    0.0000 C   0  0  0  0  0  0  0  0  0  0  0  0
    4.1087    6.4208    0.0000 C   0  0  0  0  0  0  0  0  0  0  0  0
    7.5202    7.0223    0.0000 C   0  0  0  0  0  0  0  0  0  0  0  0
    6.1152    5.0158    0.0000 C   0  0  0  0  0  0  0  0  0  0  0  0
    1.4030    6.1200    0.0000 C   0  0  0  0  0  0  0  0  0  0  0  0
    2.4030    6.1200    0.0000 C   0  0  0  0  0  0  0  0  0  0  0  0
    3.5164    4.7932    0.0000 C   0  0  0  0  0  0  0  0  0  0  0  0
    1.4030    5.1200    0.0000 C   0  0  0  0  0  0  0  0  0  0  0  0
    1.4030    7.1200    0.0000 C   0  0  0  0  0  0  0  0  0  0  0  0
    2.2690    7.6200    0.0000 C   0  0  0  0  0  0  0  0  0  0  0  0
    0.5369    4.6200    0.0000 C   0  0  0  0  0  0  0  0  0  0  0  0
    0.5369    7.6200    0.0000 C   0  0  0  0  0  0  0  0  0  0  0  0
    2.2690    4.6200    0.0000 C   0  0  0  0  0  0  0  0  0  0  0  0
    2.2690    8.6200    0.0000 C   0  0  0  0  0  0  0  0  0  0  0  0
    0.5369    3.6200    0.0000 C   0  0  0  0  0  0  0  0  0  0  0  0
    0.5369    8.6200    0.0000 C   0  0  0  0  0  0  0  0  0  0  0  0
    2.2690    3.6200    0.0000 C   0  0  0  0  0  0  0  0  0  0  0  0
    1.4030    9.1200    0.0000 C   0  0  0  0  0  0  0  0  0  0  0  0
    1.4030    3.1200    0.0000 C   0  0  0  0  0  0  0  0  0  0  0  0
    4.7384    5.5418    0.0000 H   0  0  0  0  0  0  0  0  0  0  0  0
    5.5233    5.6802    0.0000 H   0  0  0  0  0  0  0  0  0  0  0  0
    6.8905    7.9012    0.0000 H   0  0  0  0  0  0  0  0  0  0  0  0
    6.1055    7.7628    0.0000 H   0  0  0  0  0  0  0  0  0  0  0  0
    6.9942    5.6455    0.0000 H   0  0  0  0  0  0  0  0  0  0  0  0
    6.8558    6.4304    0.0000 H   0  0  0  0  0  0  0  0  0  0  0  0
    5.6466    7.8861    0.0000 H   0  0  0  0  0  0  0  0  0  0  0  0
    4.7731    7.9625    0.0000 H   0  0  0  0  0  0  0  0  0  0  0  0
    4.6967    7.0890    0.0000 H   0  0  0  0  0  0  0  0  0  0  0  0
    4.4187    6.9577    0.0000 H   0  0  0  0  0  0  0  0  0  0  0  0
    3.6338    6.8193    0.0000 H   0  0  0  0  0  0  0  0  0  0  0  0
    5.5326    5.2278    0.0000 H   0  0  0  0  0  0  0  0  0  0  0  0
    7.3081    6.4397    0.0000 H   0  0  0  0  0  0  0  0  0  0  0  0
    8.1028    6.8102    0.0000 H   0  0  0  0  0  0  0  0  0  0  0  0
    7.7322    7.6049    0.0000 H   0  0  0  0  0  0  0  0  0  0  0  0
    5.9032    4.4332    0.0000 H   0  0  0  0  0  0  0  0  0  0  0  0
    6.6978    4.8037    0.0000 H   0  0  0  0  0  0  0  0  0  0  0  0
    2.9058    4.6855    0.0000 H   0  0  0  0  0  0  0  0  0  0  0  0
    3.6241    4.1827    0.0000 H   0  0  0  0  0  0  0  0  0  0  0  0
    4.1270    4.9010    0.0000 H   0  0  0  0  0  0  0  0  0  0  0  0
    0.0930    6.6569    0.0000 H   0  0  0  0  0  0  0  0  0  0  0  0
    0.0000    4.9300    0.0000 H   0  0  0  0  0  0  0  0  0  0  0  0
    2.8059    7.3100    0.0000 H   0  0  0  0  0  0  0  0  0  0  0  0
    2.8059    4.9300    0.0000 H   0  0  0  0  0  0  0  0  0  0  0  0
    0.0000    7.3100    0.0000 H   0  0  0  0  0  0  0  0  0  0  0  0
    2.8059    8.9300    0.0000 H   0  0  0  0  0  0  0  0  0  0  0  0
    0.0000    3.3100    0.0000 H   0  0  0  0  0  0  0  0  0  0  0  0
    0.0000    8.9300    0.0000 H   0  0  0  0  0  0  0  0  0  0  0  0
    2.8059    3.3100    0.0000 H   0  0  0  0  0  0  0  0  0  0  0  0
    1.4030    9.7400    0.0000 H   0  0  0  0  0  0  0  0  0  0  0  0
    1.4030    2.5000    0.0000 H   0  0  0  0  0  0  0  0  0  0  0  0
  2 13  1  0  0  0  0
  2 48  1  0  0  0  0
  3 14  2  0  0  0  0
  4  6  1  0  0  0  0
  4  7  1  0  0  0  0
  4  8  1  0  0  0  0
  4  9  1  0  0  0  0
  5 10  1  0  0  0  0
  5 14  1  0  0  0  0
  5 15  1  0  0  0  0
  6 10  1  0  0  0  0
  6 28  1  0  0  0  0
  6 29  1  0  0  0  0
  7 11  1  0  0  0  0
  7 30  1  0  0  0  0
  7 31  1  0  0  0  0
  8 12  1  0  0  0  0
  8 32  1  0  0  0  0
  8 33  1  0  0  0  0
  9 34  1  0  0  0  0
  9 35  1  0  0  0  0
  9 36  1  0  0  0  0
 10 37  1  0  0  0  0
 10 38  1  0  0  0  0
 11 40  1  0  0  0  0
 11 41  1  0  0  0  0
 11 42  1  0  0  0  0
 12 39  1  0  0  0  0
 12 43  1  0  0  0  0
 12 44  1  0  0  0  0
 13 14  1  0  0  0  0
 13 16  1  0  0  0  0
 13 17  1  0  0  0  0
 15 45  1  0  0  0  0
 15 46  1  0  0  0  0
 15 47  1  0  0  0  0
 16 19  2  0  0  0  0
 16 21  1  0  0  0  0
 17 18  2  0  0  0  0
 17 20  1  0  0  0  0
 18 22  1  0  0  0  0
 18 50  1  0  0  0  0
 19 23  1  0  0  0  0
 19 49  1  0  0  0  0
 20 24  2  0  0  0  0
 20 52  1  0  0  0  0
 21 25  2  0  0  0  0
 21 51  1  0  0  0  0
 22 26  2  0  0  0  0
 22 53  1  0  0  0  0
 23 27  2  0  0  0  0
 23 54  1  0  0  0  0
 24 26  1  0  0  0  0
 24 55  1  0  0  0  0
 25 27  1  0  0  0  0
 25 56  1  0  0  0  0
 26 57  1  0  0  0  0
 27 58  1  0  0  0  0
M  CHG  2   1  -1   4   1
M  END
> <PUBCHEM_COMPOUND_CID>
10519

> <PUBCHEM_COMPOUND_CANONICALIZED>
1

> <PUBCHEM_CACTVS_COMPLEXITY>
417

> <PUBCHEM_CACTVS_HBOND_ACCEPTOR>
3

> <PUBCHEM_CACTVS_HBOND_DONOR>
1

> <PUBCHEM_CACTVS_ROTATABLE_BOND>
8

> <PUBCHEM_CACTVS_SUBSKEYS>
AAADceB7MAAEAAAAAAAAAAAAAAAAAAAAAAAwYAAAAAAAAAABQAAAHgAACAAADETBmAQyAIMAAgCIAiFSEAICAAAgAAAIiAFICIgKZjKAlRGUcAAkxgGYmAeYyOCOgAAAAAAAAAAAAAAAAAAAAAAAAAAAAA==

> <PUBCHEM_IUPAC_OPENEYE_NAME>
diethyl-[2-[(2-hydroxy-2,2-diphenyl-acetyl)-methyl-amino]ethyl]-methyl-ammonium chloride

> <PUBCHEM_IUPAC_CAS_NAME>
diethyl-[2-[(2-hydroxy-1-oxo-2,2-diphenylethyl)-methylamino]ethyl]-methylammonium chloride

> <PUBCHEM_IUPAC_NAME>
diethyl-[2-[(2-hydroxy-2,2-diphenylacetyl)-methylamino]ethyl]-methylazanium chloride

> <PUBCHEM_IUPAC_SYSTEMATIC_NAME>
diethyl-methyl-[2-[methyl-(2-oxidanyl-2,2-diphenyl-ethanoyl)amino]ethyl]azanium chloride

> <PUBCHEM_IUPAC_TRADITIONAL_NAME>
2-[benziloyl(methyl)amino]ethyl-diethyl-methyl-ammonium chloride

> <PUBCHEM_IUPAC_INCHI>
InChI=1S/C22H31N2O2.ClH/c1-5-24(4,6-2)18-17-23(3)21(25)22(26,19-13-9-7-10-14-19)20-15-11-8-12-16-20;/h7-16,26H,5-6,17-18H2,1-4H3;1H/q+1;/p-1

> <PUBCHEM_IUPAC_INCHIKEY>
YDRMGHLFXKTTHY-UHFFFAOYSA-M

> <PUBCHEM_EXACT_MASS>
390.207406

> <PUBCHEM_MOLECULAR_FORMULA>
C22H31ClN2O2

> <PUBCHEM_MOLECULAR_WEIGHT>
390.94674

> <PUBCHEM_OPENEYE_CAN_SMILES>
CC[N+](C)(CC)CCN(C)C(=O)C(C1=CC=CC=C1)(C2=CC=CC=C2)O.[Cl-]

> <PUBCHEM_OPENEYE_ISO_SMILES>
CC[N+](C)(CC)CCN(C)C(=O)C(C1=CC=CC=C1)(C2=CC=CC=C2)O.[Cl-]

> <PUBCHEM_CACTVS_TPSA>
40.5

> <PUBCHEM_MONOISOTOPIC_WEIGHT>
390.207406

> <PUBCHEM_TOTAL_CHARGE>
0

> <PUBCHEM_HEAVY_ATOM_COUNT>
27

> <PUBCHEM_ATOM_DEF_STEREO_COUNT>
0

> <PUBCHEM_ATOM_UDEF_STEREO_COUNT>
0

> <PUBCHEM_BOND_DEF_STEREO_COUNT>
0

> <PUBCHEM_BOND_UDEF_STEREO_COUNT>
0

> <PUBCHEM_ISOTOPIC_ATOM_COUNT>
0

> <PUBCHEM_COMPONENT_COUNT>
2

> <PUBCHEM_CACTVS_TAUTO_COUNT>
1

> <PUBCHEM_COORDINATE_TYPE>
1
5
255

> <PUBCHEM_BONDANNOTATIONS>
16  19  8
16  21  8
17  18  8
17  20  8
18  22  8
19  23  8
20  24  8
21  25  8
22  26  8
23  27  8
24  26  8
25  27  8

$$$$

