114829
  -OEChem-07051212583D

 31 33  0     1  0  0  0  0  0999 V2000
    0.2957   -0.6770   -0.1517 O   0  0  0  0  0  0  0  0  0  0  0  0
    1.8183    3.1303   -0.0259 O   0  0  0  0  0  0  0  0  0  0  0  0
    4.6427   -2.5665   -0.0162 O   0  0  0  0  0  0  0  0  0  0  0  0
   -5.9713   -0.7899   -0.2509 O   0  0  0  0  0  0  0  0  0  0  0  0
   -0.4727    0.4025    0.4021 C   0  0  1  0  0  0  0  0  0  0  0  0
   -0.1141    1.7290   -0.2650 C   0  0  0  0  0  0  0  0  0  0  0  0
   -1.9424    0.0833    0.2271 C   0  0  0  0  0  0  0  0  0  0  0  0
    1.3556    1.9967   -0.0696 C   0  0  0  0  0  0  0  0  0  0  0  0
    2.2267    0.8052   -0.0051 C   0  0  0  0  0  0  0  0  0  0  0  0
    1.6479   -0.4656   -0.0725 C   0  0  0  0  0  0  0  0  0  0  0  0
   -2.7554   -0.0906    1.3467 C   0  0  0  0  0  0  0  0  0  0  0  0
   -2.4823   -0.0356   -1.0531 C   0  0  0  0  0  0  0  0  0  0  0  0
    3.6142    0.9453    0.0779 C   0  0  0  0  0  0  0  0  0  0  0  0
    2.4624   -1.5985   -0.0911 C   0  0  0  0  0  0  0  0  0  0  0  0
    3.8485   -1.4608   -0.0099 C   0  0  0  0  0  0  0  0  0  0  0  0
    4.4223   -0.1922    0.0794 C   0  0  0  0  0  0  0  0  0  0  0  0
   -4.1095   -0.3838    1.1860 C   0  0  0  0  0  0  0  0  0  0  0  0
   -3.8365   -0.3288   -1.2139 C   0  0  0  0  0  0  0  0  0  0  0  0
   -4.6501   -0.5030   -0.0943 C   0  0  0  0  0  0  0  0  0  0  0  0
   -0.2452    0.4561    1.4771 H   0  0  0  0  0  0  0  0  0  0  0  0
   -0.6866    2.5485    0.1840 H   0  0  0  0  0  0  0  0  0  0  0  0
   -0.2935    1.7215   -1.3460 H   0  0  0  0  0  0  0  0  0  0  0  0
   -2.3492   -0.0008    2.3506 H   0  0  0  0  0  0  0  0  0  0  0  0
   -1.8631    0.0849   -1.9377 H   0  0  0  0  0  0  0  0  0  0  0  0
    4.0814    1.9246    0.1311 H   0  0  0  0  0  0  0  0  0  0  0  0
    2.0191   -2.5890   -0.1581 H   0  0  0  0  0  0  0  0  0  0  0  0
    5.5011   -0.0757    0.1423 H   0  0  0  0  0  0  0  0  0  0  0  0
   -4.7383   -0.5185    2.0619 H   0  0  0  0  0  0  0  0  0  0  0  0
   -4.2449   -0.4216   -2.2166 H   0  0  0  0  0  0  0  0  0  0  0  0
    5.5723   -2.2873    0.0471 H   0  0  0  0  0  0  0  0  0  0  0  0
   -6.1733   -0.8352   -1.2013 H   0  0  0  0  0  0  0  0  0  0  0  0
  1  5  1  0  0  0  0
  1 10  1  0  0  0  0
  2  8  2  0  0  0  0
  3 15  1  0  0  0  0
  3 30  1  0  0  0  0
  4 19  1  0  0  0  0
  4 31  1  0  0  0  0
  5  6  1  0  0  0  0
  5  7  1  0  0  0  0
  5 20  1  0  0  0  0
  6  8  1  0  0  0  0
  6 21  1  0  0  0  0
  6 22  1  0  0  0  0
  7 11  2  0  0  0  0
  7 12  1  0  0  0  0
  8  9  1  0  0  0  0
  9 10  2  0  0  0  0
  9 13  1  0  0  0  0
 10 14  1  0  0  0  0
 11 17  1  0  0  0  0
 11 23  1  0  0  0  0
 12 18  2  0  0  0  0
 12 24  1  0  0  0  0
 13 16  2  0  0  0  0
 13 25  1  0  0  0  0
 14 15  2  0  0  0  0
 14 26  1  0  0  0  0
 15 16  1  0  0  0  0
 16 27  1  0  0  0  0
 17 19  2  0  0  0  0
 17 28  1  0  0  0  0
 18 19  1  0  0  0  0
 18 29  1  0  0  0  0
M  END
> <PUBCHEM_COMPOUND_CID>
114829

> <PUBCHEM_CONFORMER_RMSD>
0.6

> <PUBCHEM_CONFORMER_DIVERSEORDER>
1
2
3
4

> <PUBCHEM_MMFF94_PARTIAL_CHARGES>
28
1 -0.36
10 0.08
11 -0.15
12 -0.15
13 -0.15
14 -0.15
15 0.08
16 -0.15
17 -0.15
18 -0.15
19 0.08
2 -0.57
23 0.15
24 0.15
25 0.15
26 0.15
27 0.15
28 0.15
29 0.15
3 -0.53
30 0.45
31 0.45
4 -0.53
5 0.42
6 0.06
7 -0.14
8 0.42
9 0.09

> <PUBCHEM_EFFECTIVE_ROTOR_COUNT>
1.6

> <PUBCHEM_PHARMACOPHORE_FEATURES>
7
1 1 acceptor
1 2 acceptor
1 3 donor
1 4 donor
6 1 5 6 8 9 10 rings
6 7 11 12 17 18 19 rings
6 9 10 13 14 15 16 rings

> <PUBCHEM_HEAVY_ATOM_COUNT>
19

> <PUBCHEM_ATOM_DEF_STEREO_COUNT>
1

> <PUBCHEM_ATOM_UDEF_STEREO_COUNT>
0

> <PUBCHEM_BOND_DEF_STEREO_COUNT>
0

> <PUBCHEM_BOND_UDEF_STEREO_COUNT>
0

> <PUBCHEM_ISOTOPIC_ATOM_COUNT>
0

> <PUBCHEM_COMPONENT_COUNT>
1

> <PUBCHEM_CACTVS_TAUTO_COUNT>
18

> <PUBCHEM_CONFORMER_ID>
0001C08D00000001

> <PUBCHEM_MMFF94_ENERGY>
53.0489

> <PUBCHEM_FEATURE_SELFOVERLAP>
35.55

> <PUBCHEM_SHAPE_FINGERPRINT>
11471102 20 18412544275813524560
11796584 16 16702306767079778154
12032990 46 18340766043944694394
12236239 1 17749388144488801947
12363563 72 18341606079291870226
12553582 1 18408321116397558430
12670546 56 17748827406164359881
13134695 92 18410576175822681900
13140716 1 18049726218163615512
13533116 47 18335137536716686537
13544592 145 17989487412067208547
13544653 18 18341609356240958924
13862211 1 18411139182085496466
13955234 65 18264769857116477456
14252887 29 18410577292903990912
14386348 63 17846497015506385043
15196674 1 18410856607085175740
15848700 24 18411981386379808132
15848702 151 18408320008137610447
16945 1 18410854318152521512
17349148 13 17749390351864842911
17357779 13 18202294614330913365
1813 80 18188477081995899916
18186145 218 17632863023079390649
18222031 100 18333730247479537702
200 152 18261114071622688393
20028762 73 18113623395218680390
20645477 70 18343305829430815833
21065201 7 16702308923322015745
21267235 1 18336259124387076302
21641784 216 17987216972222651276
221357 26 18272097110558245277
221490 88 18198055885278690467
22224240 67 18116445752348034632
2255824 54 18262796255477807956
22646028 1 17967814950892975187
22646028 28 18113900450963153799
23175994 123 18131066043823671997
23402539 116 18263927798887183954
23557571 272 17131841958001286717
23559900 14 17346595244638323087
2871803 45 18131069376586379386
34797466 226 16486960787302626862
46194498 28 17632576007209682093
465052 167 18334852809848956815
474 4 18045505209698394808
5104073 3 18335984267501197968
5281201 14 17989488523936308869
573450 72 17095521799322906651
602551 16 14996573841162007845
7471813 234 17967821535131120401
77492 1 17676763180870837425
7970288 3 18338518667668950918
9709674 26 18128814149526130539
9971528 1 18408606959176726008
9981440 41 17252883653886915417

> <PUBCHEM_SHAPE_MULTIPOLES>
367.53
10.53
2.09
0.94
6.56
0.83
-0.06
-5.21
0.12
-3.1
0.09
1.1
-0.06
0

> <PUBCHEM_SHAPE_SELFOVERLAP>
813.64

> <PUBCHEM_SHAPE_VOLUME>
196.2

> <PUBCHEM_COORDINATE_TYPE>
2
5
10

$$$$

