9624
  -OEChem-06261203523D

  5  4  0     0  0  0  0  0  0999 V2000
    1.8477   -0.0004   -0.3500 Br  0  0  0  0  0  0  0  0  0  0  0  0
   -0.8001    1.4572   -0.5838 Cl  0  0  0  0  0  0  0  0  0  0  0  0
   -0.8008   -1.4567   -0.5841 Cl  0  0  0  0  0  0  0  0  0  0  0  0
   -0.1981   -0.0002    1.4344 F   0  0  0  0  0  0  0  0  0  0  0  0
   -0.0487    0.0000    0.0835 C   0  0  0  0  0  0  0  0  0  0  0  0
  1  5  1  0  0  0  0
  2  5  1  0  0  0  0
  3  5  1  0  0  0  0
  4  5  1  0  0  0  0
M  END
> <PUBCHEM_COMPOUND_CID>
9624

> <PUBCHEM_CONFORMER_RMSD>
0.4

> <PUBCHEM_CONFORMER_DIVERSEORDER>
1

> <PUBCHEM_MMFF94_PARTIAL_CHARGES>
5
1 -0.23
2 -0.29
3 -0.29
4 -0.34
5 1.15

> <PUBCHEM_EFFECTIVE_ROTOR_COUNT>
0

> <PUBCHEM_PHARMACOPHORE_FEATURES>
1
1 1 hydrophobe

> <PUBCHEM_HEAVY_ATOM_COUNT>
5

> <PUBCHEM_ATOM_DEF_STEREO_COUNT>
0

> <PUBCHEM_ATOM_UDEF_STEREO_COUNT>
0

> <PUBCHEM_BOND_DEF_STEREO_COUNT>
0

> <PUBCHEM_BOND_UDEF_STEREO_COUNT>
0

> <PUBCHEM_ISOTOPIC_ATOM_COUNT>
0

> <PUBCHEM_COMPONENT_COUNT>
1

> <PUBCHEM_CACTVS_TAUTO_COUNT>
1

> <PUBCHEM_CONFORMER_ID>
0000259800000001

> <PUBCHEM_MMFF94_ENERGY>
0.0097

> <PUBCHEM_FEATURE_SELFOVERLAP>
5.074

> <PUBCHEM_SHAPE_FINGERPRINT>
139733 1 11454799532349828870
16714656 1 18410859858343465277
20096714 4 17700133493534379428
24536 1 17168133577270109094
29004967 10 17837773326800376714
5943 1 14084097632252230803

> <PUBCHEM_SHAPE_MULTIPOLES>
105.31
1.77
1.55
1.06
1.17
0
0.33
0
-0.36
-0.77
-0.43
-0.09
0
0

> <PUBCHEM_SHAPE_SELFOVERLAP>
158.439

> <PUBCHEM_SHAPE_VOLUME>
80.7

> <PUBCHEM_COORDINATE_TYPE>
2
5
10

$$$$

