24721
  -OEChem-07051213132D

 70 70  0     1  0  0  0  0  0999 V2000
    8.9731    3.3285    0.0000 O   0  0  0  0  0  0  0  0  0  0  0  0
    1.4860    3.1200    0.0000 O   0  0  0  0  0  0  0  0  0  0  0  0
    9.8391    1.8285    0.0000 O   0  0  0  0  0  0  0  0  0  0  0  0
    2.3521    1.6200    0.0000 O   0  0  0  0  0  0  0  0  0  0  0  0
    8.1071    1.8285    0.0000 N   0  0  0  0  0  0  0  0  0  0  0  0
    0.6200    1.6200    0.0000 N   0  0  0  0  0  0  0  0  0  0  0  0
   10.7051    6.3285    0.0000 C   0  0  0  0  0  0  0  0  0  0  0  0
    3.2181    6.1200    0.0000 C   0  0  3  0  0  0  0  0  0  0  0  0
   11.5712    6.8285    0.0000 C   0  0  0  0  0  0  0  0  0  0  0  0
    9.8391    6.8285    0.0000 C   0  0  0  0  0  0  0  0  0  0  0  0
    4.0841    6.6200    0.0000 C   0  0  0  0  0  0  0  0  0  0  0  0
   10.7051    5.3285    0.0000 C   0  0  0  0  0  0  0  0  0  0  0  0
    3.2181    5.1200    0.0000 C   0  0  0  0  0  0  0  0  0  0  0  0
    4.0841    7.6200    0.0000 C   0  0  0  0  0  0  0  0  0  0  0  0
    2.3521    6.6200    0.0000 C   0  0  0  0  0  0  0  0  0  0  0  0
   11.5712    7.8285    0.0000 C   0  0  0  0  0  0  0  0  0  0  0  0
    9.8391    7.8285    0.0000 C   0  0  0  0  0  0  0  0  0  0  0  0
    9.8391    4.8285    0.0000 C   0  0  0  0  0  0  0  0  0  0  0  0
   11.5712    4.8285    0.0000 C   0  0  0  0  0  0  0  0  0  0  0  0
    2.3521    4.6200    0.0000 C   0  0  0  0  0  0  0  0  0  0  0  0
    4.0841    4.6200    0.0000 C   0  0  0  0  0  0  0  0  0  0  0  0
    4.9501    8.1200    0.0000 C   0  0  0  0  0  0  0  0  0  0  0  0
    9.8391    3.8285    0.0000 C   0  0  0  0  0  0  0  0  0  0  0  0
   11.5712    3.8285    0.0000 C   0  0  0  0  0  0  0  0  0  0  0  0
    2.3521    3.6200    0.0000 C   0  0  0  0  0  0  0  0  0  0  0  0
   10.7051    3.3285    0.0000 C   0  0  0  0  0  0  0  0  0  0  0  0
    4.0841    3.6200    0.0000 C   0  0  0  0  0  0  0  0  0  0  0  0
    3.2181    3.1200    0.0000 C   0  0  0  0  0  0  0  0  0  0  0  0
    8.9731    2.3285    0.0000 C   0  0  0  0  0  0  0  0  0  0  0  0
    1.4860    2.1200    0.0000 C   0  0  0  0  0  0  0  0  0  0  0  0
    8.1071    0.8285    0.0000 C   0  0  0  0  0  0  0  0  0  0  0  0
    0.6200    0.6200    0.0000 C   0  0  0  0  0  0  0  0  0  0  0  0
   10.7051    6.9485    0.0000 H   0  0  0  0  0  0  0  0  0  0  0  0
    2.4820    5.6950    0.0000 H   0  0  0  0  0  0  0  0  0  0  0  0
   11.7832    6.2459    0.0000 H   0  0  0  0  0  0  0  0  0  0  0  0
   12.1817    6.9361    0.0000 H   0  0  0  0  0  0  0  0  0  0  0  0
    9.2285    6.9361    0.0000 H   0  0  0  0  0  0  0  0  0  0  0  0
    9.6271    6.2459    0.0000 H   0  0  0  0  0  0  0  0  0  0  0  0
    4.2962    6.0374    0.0000 H   0  0  0  0  0  0  0  0  0  0  0  0
    4.6947    6.7277    0.0000 H   0  0  0  0  0  0  0  0  0  0  0  0
    3.8720    8.2026    0.0000 H   0  0  0  0  0  0  0  0  0  0  0  0
    3.4735    7.5123    0.0000 H   0  0  0  0  0  0  0  0  0  0  0  0
    2.6620    7.1569    0.0000 H   0  0  0  0  0  0  0  0  0  0  0  0
    1.8151    6.9300    0.0000 H   0  0  0  0  0  0  0  0  0  0  0  0
    2.0420    6.0831    0.0000 H   0  0  0  0  0  0  0  0  0  0  0  0
   12.1912    7.8285    0.0000 H   0  0  0  0  0  0  0  0  0  0  0  0
   11.5712    8.4485    0.0000 H   0  0  0  0  0  0  0  0  0  0  0  0
   10.9512    7.8285    0.0000 H   0  0  0  0  0  0  0  0  0  0  0  0
   10.4591    7.8285    0.0000 H   0  0  0  0  0  0  0  0  0  0  0  0
    9.8391    8.4485    0.0000 H   0  0  0  0  0  0  0  0  0  0  0  0
    9.2191    7.8285    0.0000 H   0  0  0  0  0  0  0  0  0  0  0  0
    9.3022    5.1385    0.0000 H   0  0  0  0  0  0  0  0  0  0  0  0
   12.1081    5.1385    0.0000 H   0  0  0  0  0  0  0  0  0  0  0  0
    1.8151    4.9300    0.0000 H   0  0  0  0  0  0  0  0  0  0  0  0
    4.6210    4.9300    0.0000 H   0  0  0  0  0  0  0  0  0  0  0  0
    5.2601    7.5831    0.0000 H   0  0  0  0  0  0  0  0  0  0  0  0
    5.4871    8.4300    0.0000 H   0  0  0  0  0  0  0  0  0  0  0  0
    4.6401    8.6569    0.0000 H   0  0  0  0  0  0  0  0  0  0  0  0
   12.1081    3.5185    0.0000 H   0  0  0  0  0  0  0  0  0  0  0  0
   10.7051    2.7085    0.0000 H   0  0  0  0  0  0  0  0  0  0  0  0
    4.6210    3.3100    0.0000 H   0  0  0  0  0  0  0  0  0  0  0  0
    3.2181    2.5000    0.0000 H   0  0  0  0  0  0  0  0  0  0  0  0
    7.5701    2.1385    0.0000 H   0  0  0  0  0  0  0  0  0  0  0  0
    0.0831    1.9300    0.0000 H   0  0  0  0  0  0  0  0  0  0  0  0
    7.4871    0.8285    0.0000 H   0  0  0  0  0  0  0  0  0  0  0  0
    8.1071    0.2085    0.0000 H   0  0  0  0  0  0  0  0  0  0  0  0
    8.7271    0.8285    0.0000 H   0  0  0  0  0  0  0  0  0  0  0  0
    0.0000    0.6200    0.0000 H   0  0  0  0  0  0  0  0  0  0  0  0
    0.6200    0.0000    0.0000 H   0  0  0  0  0  0  0  0  0  0  0  0
    1.2400    0.6200    0.0000 H   0  0  0  0  0  0  0  0  0  0  0  0
  1 23  1  0  0  0  0
  1 29  1  0  0  0  0
  2 25  1  0  0  0  0
  2 30  1  0  0  0  0
  3 29  2  0  0  0  0
  4 30  2  0  0  0  0
  5 29  1  0  0  0  0
  5 31  1  0  0  0  0
  5 63  1  0  0  0  0
  6 30  1  0  0  0  0
  6 32  1  0  0  0  0
  6 64  1  0  0  0  0
  7  9  1  0  0  0  0
  7 10  1  0  0  0  0
  7 12  1  0  0  0  0
  7 33  1  0  0  0  0
  8 11  1  0  0  0  0
  8 13  1  0  0  0  0
  8 15  1  0  0  0  0
  8 34  1  0  0  0  0
  9 16  1  0  0  0  0
  9 35  1  0  0  0  0
  9 36  1  0  0  0  0
 10 17  1  0  0  0  0
 10 37  1  0  0  0  0
 10 38  1  0  0  0  0
 11 14  1  0  0  0  0
 11 39  1  0  0  0  0
 11 40  1  0  0  0  0
 12 18  2  0  0  0  0
 12 19  1  0  0  0  0
 13 20  2  0  0  0  0
 13 21  1  0  0  0  0
 14 22  1  0  0  0  0
 14 41  1  0  0  0  0
 14 42  1  0  0  0  0
 15 43  1  0  0  0  0
 15 44  1  0  0  0  0
 15 45  1  0  0  0  0
 16 46  1  0  0  0  0
 16 47  1  0  0  0  0
 16 48  1  0  0  0  0
 17 49  1  0  0  0  0
 17 50  1  0  0  0  0
 17 51  1  0  0  0  0
 18 23  1  0  0  0  0
 18 52  1  0  0  0  0
 19 24  2  0  0  0  0
 19 53  1  0  0  0  0
 20 25  1  0  0  0  0
 20 54  1  0  0  0  0
 21 27  2  0  0  0  0
 21 55  1  0  0  0  0
 22 56  1  0  0  0  0
 22 57  1  0  0  0  0
 22 58  1  0  0  0  0
 23 26  2  0  0  0  0
 24 26  1  0  0  0  0
 24 59  1  0  0  0  0
 25 28  2  0  0  0  0
 26 60  1  0  0  0  0
 27 28  1  0  0  0  0
 27 61  1  0  0  0  0
 28 62  1  0  0  0  0
 31 65  1  0  0  0  0
 31 66  1  0  0  0  0
 31 67  1  0  0  0  0
 32 68  1  0  0  0  0
 32 69  1  0  0  0  0
 32 70  1  0  0  0  0
M  END
> <PUBCHEM_COMPOUND_CID>
24721

> <PUBCHEM_COMPOUND_CANONICALIZED>
1

> <PUBCHEM_CACTVS_COMPLEXITY>
432

> <PUBCHEM_CACTVS_HBOND_ACCEPTOR>
4

> <PUBCHEM_CACTVS_HBOND_DONOR>
2

> <PUBCHEM_CACTVS_ROTATABLE_BOND>
10

> <PUBCHEM_CACTVS_SUBSKEYS>
AAADcfB7OAAAAAAAAAAAAAAAAAAAAAAAAAAwYAAAAAAAAAABQAAAHgAQAAAADQSAmAQyDoLABACIAiBCGAACCAAgIAAIiIAOCIkMJiKEMRqIMiAkwhEIqAeAwPAOgAABAAAAAAAAAAIAAAAAAAAAAAAAAA==

> <PUBCHEM_IUPAC_OPENEYE_NAME>
[3-(1-ethylpropyl)phenyl] N-methylcarbamate; [3-(1-methylbutyl)phenyl] N-methylcarbamate

> <PUBCHEM_IUPAC_CAS_NAME>
N-methylcarbamic acid (3-pentan-2-ylphenyl) ester; N-methylcarbamic acid (3-pentan-3-ylphenyl) ester

> <PUBCHEM_IUPAC_NAME>
(3-pentan-2-ylphenyl) N-methylcarbamate; (3-pentan-3-ylphenyl) N-methylcarbamate

> <PUBCHEM_IUPAC_SYSTEMATIC_NAME>
(3-pentan-2-ylphenyl) N-methylcarbamate; (3-pentan-3-ylphenyl) N-methylcarbamate

> <PUBCHEM_IUPAC_TRADITIONAL_NAME>
N-methylcarbamic acid [3-(1-ethylpropyl)phenyl] ester; N-methylcarbamic acid [3-(1-methylbutyl)phenyl] ester

> <PUBCHEM_IUPAC_INCHI>
InChI=1S/2C13H19NO2/c1-4-6-10(2)11-7-5-8-12(9-11)16-13(15)14-3;1-4-10(5-2)11-7-6-8-12(9-11)16-13(15)14-3/h5,7-10H,4,6H2,1-3H3,(H,14,15);6-10H,4-5H2,1-3H3,(H,14,15)

> <PUBCHEM_IUPAC_INCHIKEY>
MYTVVMGUDBRCDJ-UHFFFAOYSA-N

> <PUBCHEM_EXACT_MASS>
442.283158

> <PUBCHEM_MOLECULAR_FORMULA>
C26H38N2O4

> <PUBCHEM_MOLECULAR_WEIGHT>
442.59092

> <PUBCHEM_OPENEYE_CAN_SMILES>
CCCC(C)C1=CC(=CC=C1)OC(=O)NC.CCC(CC)C1=CC(=CC=C1)OC(=O)NC

> <PUBCHEM_OPENEYE_ISO_SMILES>
CCCC(C)C1=CC(=CC=C1)OC(=O)NC.CCC(CC)C1=CC(=CC=C1)OC(=O)NC

> <PUBCHEM_CACTVS_TPSA>
76.7

> <PUBCHEM_MONOISOTOPIC_WEIGHT>
442.283158

> <PUBCHEM_TOTAL_CHARGE>
0

> <PUBCHEM_HEAVY_ATOM_COUNT>
32

> <PUBCHEM_ATOM_DEF_STEREO_COUNT>
0

> <PUBCHEM_ATOM_UDEF_STEREO_COUNT>
1

> <PUBCHEM_BOND_DEF_STEREO_COUNT>
0

> <PUBCHEM_BOND_UDEF_STEREO_COUNT>
0

> <PUBCHEM_ISOTOPIC_ATOM_COUNT>
0

> <PUBCHEM_COMPONENT_COUNT>
2

> <PUBCHEM_CACTVS_TAUTO_COUNT>
4

> <PUBCHEM_COORDINATE_TYPE>
1
5
255

> <PUBCHEM_BONDANNOTATIONS>
12  18  8
12  19  8
13  20  8
13  21  8
18  23  8
19  24  8
20  25  8
21  27  8
23  26  8
24  26  8
25  28  8
27  28  8
8  34  3

$$$$

