51090870
  -OEChem-06241223002D

 47 48  0     0  0  0  0  0  0999 V2000
    3.7320   -1.6307    0.0000 O   0  0  0  0  0  0  0  0  0  0  0  0
    7.1962   -2.6307    0.0000 O   0  0  0  0  0  0  0  0  0  0  0  0
    8.0622   -1.1307    0.0000 N   0  0  0  0  0  0  0  0  0  0  0  0
    9.2942    1.4081    0.0000 N   0  0  0  0  0  0  0  0  0  0  0  0
   10.6032    0.4571    0.0000 N   0  0  0  0  0  0  0  0  0  0  0  0
    8.9852    0.4571    0.0000 N   0  0  0  0  0  0  0  0  0  0  0  0
   10.8820    2.2172    0.0000 C   0  0  0  0  0  0  0  0  0  0  0  0
   10.2942    1.4081    0.0000 C   0  0  0  0  0  0  0  0  0  0  0  0
    5.4641   -1.6307    0.0000 C   0  0  0  0  0  0  0  0  0  0  0  0
    6.3301   -1.1307    0.0000 C   0  0  0  0  0  0  0  0  0  0  0  0
    9.7942   -1.1307    0.0000 C   0  0  0  0  0  0  0  0  0  0  0  0
    8.9282   -1.6307    0.0000 C   0  0  0  0  0  0  0  0  0  0  0  0
    9.7942   -0.1307    0.0000 C   0  0  0  0  0  0  0  0  0  0  0  0
   11.8765    2.1126    0.0000 C   0  0  0  0  0  0  0  0  0  0  0  0
   10.4753    3.1307    0.0000 C   0  0  0  0  0  0  0  0  0  0  0  0
    4.5981   -1.1307    0.0000 C   0  0  0  0  0  0  0  0  0  0  0  0
    7.1962   -1.6307    0.0000 C   0  0  0  0  0  0  0  0  0  0  0  0
   10.6603   -1.6307    0.0000 C   0  0  0  0  0  0  0  0  0  0  0  0
    8.9282   -2.6307    0.0000 C   0  0  0  0  0  0  0  0  0  0  0  0
   10.6603   -2.6307    0.0000 C   0  0  0  0  0  0  0  0  0  0  0  0
    9.7942   -3.1307    0.0000 C   0  0  0  0  0  0  0  0  0  0  0  0
    2.8660   -1.1307    0.0000 C   0  0  0  0  0  0  0  0  0  0  0  0
    2.0000   -1.6307    0.0000 C   0  0  0  0  0  0  0  0  0  0  0  0
   11.2464    2.7188    0.0000 H   0  0  0  0  0  0  0  0  0  0  0  0
    5.0656   -2.1056    0.0000 H   0  0  0  0  0  0  0  0  0  0  0  0
    5.8626   -2.1056    0.0000 H   0  0  0  0  0  0  0  0  0  0  0  0
    6.7287   -0.6558    0.0000 H   0  0  0  0  0  0  0  0  0  0  0  0
    5.9316   -0.6558    0.0000 H   0  0  0  0  0  0  0  0  0  0  0  0
   11.0417    3.3829    0.0000 H   0  0  0  0  0  0  0  0  0  0  0  0
   10.2231    3.6971    0.0000 H   0  0  0  0  0  0  0  0  0  0  0  0
    9.9089    2.8785    0.0000 H   0  0  0  0  0  0  0  0  0  0  0  0
   11.8117    1.4960    0.0000 H   0  0  0  0  0  0  0  0  0  0  0  0
   12.4931    2.0478    0.0000 H   0  0  0  0  0  0  0  0  0  0  0  0
   11.9413    2.7292    0.0000 H   0  0  0  0  0  0  0  0  0  0  0  0
    4.9966   -0.6558    0.0000 H   0  0  0  0  0  0  0  0  0  0  0  0
    4.1996   -0.6558    0.0000 H   0  0  0  0  0  0  0  0  0  0  0  0
    8.0622   -0.5107    0.0000 H   0  0  0  0  0  0  0  0  0  0  0  0
    8.9298    1.9097    0.0000 H   0  0  0  0  0  0  0  0  0  0  0  0
   11.1972   -1.3207    0.0000 H   0  0  0  0  0  0  0  0  0  0  0  0
    8.3913   -2.9407    0.0000 H   0  0  0  0  0  0  0  0  0  0  0  0
   11.1972   -2.9407    0.0000 H   0  0  0  0  0  0  0  0  0  0  0  0
    9.7942   -3.7507    0.0000 H   0  0  0  0  0  0  0  0  0  0  0  0
    3.2646   -0.6558    0.0000 H   0  0  0  0  0  0  0  0  0  0  0  0
    2.4675   -0.6558    0.0000 H   0  0  0  0  0  0  0  0  0  0  0  0
    1.6900   -1.0938    0.0000 H   0  0  0  0  0  0  0  0  0  0  0  0
    1.4631   -1.9407    0.0000 H   0  0  0  0  0  0  0  0  0  0  0  0
    2.3100   -2.1676    0.0000 H   0  0  0  0  0  0  0  0  0  0  0  0
  1 16  1  0  0  0  0
  1 22  1  0  0  0  0
  2 17  2  0  0  0  0
  3 12  1  0  0  0  0
  3 17  1  0  0  0  0
  3 37  1  0  0  0  0
  4  6  1  0  0  0  0
  4  8  1  0  0  0  0
  4 38  1  0  0  0  0
  5  8  2  0  0  0  0
  5 13  1  0  0  0  0
  6 13  2  0  0  0  0
  7  8  1  0  0  0  0
  7 14  1  0  0  0  0
  7 15  1  0  0  0  0
  7 24  1  0  0  0  0
  9 10  1  0  0  0  0
  9 16  1  0  0  0  0
  9 25  1  0  0  0  0
  9 26  1  0  0  0  0
 10 17  1  0  0  0  0
 10 27  1  0  0  0  0
 10 28  1  0  0  0  0
 11 12  1  0  0  0  0
 11 13  1  0  0  0  0
 11 18  2  0  0  0  0
 12 19  2  0  0  0  0
 14 32  1  0  0  0  0
 14 33  1  0  0  0  0
 14 34  1  0  0  0  0
 15 29  1  0  0  0  0
 15 30  1  0  0  0  0
 15 31  1  0  0  0  0
 16 35  1  0  0  0  0
 16 36  1  0  0  0  0
 18 20  1  0  0  0  0
 18 39  1  0  0  0  0
 19 21  1  0  0  0  0
 19 40  1  0  0  0  0
 20 21  2  0  0  0  0
 20 41  1  0  0  0  0
 21 42  1  0  0  0  0
 22 23  1  0  0  0  0
 22 43  1  0  0  0  0
 22 44  1  0  0  0  0
 23 45  1  0  0  0  0
 23 46  1  0  0  0  0
 23 47  1  0  0  0  0
M  END
> <PUBCHEM_COMPOUND_CID>
51090870

> <PUBCHEM_COMPOUND_CANONICALIZED>
1

> <PUBCHEM_CACTVS_COMPLEXITY>
365

> <PUBCHEM_CACTVS_HBOND_ACCEPTOR>
4

> <PUBCHEM_CACTVS_HBOND_DONOR>
2

> <PUBCHEM_CACTVS_ROTATABLE_BOND>
8

> <PUBCHEM_CACTVS_SUBSKEYS>
AAADceB7sAAAAAAAAAAAAAAAAAAAAWAAAAAwAAAAAAAAAAABwAAAHgAYAAAADQihmwIz0IbrFACqAidydACSgAuhAqAdqCEwZJiIKLLA2ZGGIAhknALIyAcygAAOAAAAAAACAAAAAAAAAAQAAAAAAAAAAA==

> <PUBCHEM_IUPAC_OPENEYE_NAME>
4-ethoxy-N-[2-(5-isopropyl-1H-1,2,4-triazol-3-yl)phenyl]butanamide

> <PUBCHEM_IUPAC_CAS_NAME>
4-ethoxy-N-[2-(5-propan-2-yl-1H-1,2,4-triazol-3-yl)phenyl]butanamide

> <PUBCHEM_IUPAC_NAME>
4-ethoxy-N-[2-(5-propan-2-yl-1H-1,2,4-triazol-3-yl)phenyl]butanamide

> <PUBCHEM_IUPAC_SYSTEMATIC_NAME>
4-ethoxy-N-[2-(5-propan-2-yl-1H-1,2,4-triazol-3-yl)phenyl]butanamide

> <PUBCHEM_IUPAC_TRADITIONAL_NAME>
4-ethoxy-N-[2-(5-isopropyl-1H-1,2,4-triazol-3-yl)phenyl]butyramide

> <PUBCHEM_IUPAC_INCHI>
InChI=1S/C17H24N4O2/c1-4-23-11-7-10-15(22)18-14-9-6-5-8-13(14)17-19-16(12(2)3)20-21-17/h5-6,8-9,12H,4,7,10-11H2,1-3H3,(H,18,22)(H,19,20,21)

> <PUBCHEM_IUPAC_INCHIKEY>
NLPWXJBGJMXYPE-UHFFFAOYSA-N

> <PUBCHEM_XLOGP3_AA>
2.5

> <PUBCHEM_EXACT_MASS>
316.189926

> <PUBCHEM_MOLECULAR_FORMULA>
C17H24N4O2

> <PUBCHEM_MOLECULAR_WEIGHT>
316.39806

> <PUBCHEM_OPENEYE_CAN_SMILES>
CCOCCCC(=O)NC1=CC=CC=C1C2=NNC(=N2)C(C)C

> <PUBCHEM_OPENEYE_ISO_SMILES>
CCOCCCC(=O)NC1=CC=CC=C1C2=NNC(=N2)C(C)C

> <PUBCHEM_CACTVS_TPSA>
79.9

> <PUBCHEM_MONOISOTOPIC_WEIGHT>
316.189926

> <PUBCHEM_TOTAL_CHARGE>
0

> <PUBCHEM_HEAVY_ATOM_COUNT>
23

> <PUBCHEM_ATOM_DEF_STEREO_COUNT>
0

> <PUBCHEM_ATOM_UDEF_STEREO_COUNT>
0

> <PUBCHEM_BOND_DEF_STEREO_COUNT>
0

> <PUBCHEM_BOND_UDEF_STEREO_COUNT>
0

> <PUBCHEM_ISOTOPIC_ATOM_COUNT>
0

> <PUBCHEM_COMPONENT_COUNT>
1

> <PUBCHEM_CACTVS_TAUTO_COUNT>
77

> <PUBCHEM_COORDINATE_TYPE>
1
5
255

> <PUBCHEM_BONDANNOTATIONS>
11  12  8
11  18  8
12  19  8
18  20  8
19  21  8
20  21  8
4  6  8
4  8  8
5  13  8
5  8  8
6  13  8

$$$$

