442895
  -OEChem-07051213003D

 63 65  0     1  0  0  0  0  0999 V2000
    0.8956   -1.5273    1.3861 O   0  0  0  0  0  0  0  0  0  0  0  0
   -3.5734   -2.6273    0.3946 O   0  0  0  0  0  0  0  0  0  0  0  0
    3.5928   -2.5274   -1.1647 O   0  0  0  0  0  0  0  0  0  0  0  0
   -3.8407    2.8089   -0.4901 O   0  0  0  0  0  0  0  0  0  0  0  0
    4.0088    2.6257    0.7533 O   0  0  0  0  0  0  0  0  0  0  0  0
   -6.1689    1.3167   -0.2092 O   0  0  0  0  0  0  0  0  0  0  0  0
    6.2075    1.3757   -0.4000 O   0  0  0  0  0  0  0  0  0  0  0  0
   -1.1008   -1.1984    0.1224 C   0  0  1  0  0  0  0  0  0  0  0  0
    0.0811   -0.6065   -0.6518 C   0  0  1  0  0  0  0  0  0  0  0  0
    1.2548   -1.3461    0.0023 C   0  0  1  0  0  0  0  0  0  0  0  0
   -0.5210   -1.3040    1.5431 C   0  0  2  0  0  0  0  0  0  0  0  0
   -2.4563   -0.5369    0.0351 C   0  0  0  0  0  0  0  0  0  0  0  0
    0.0074   -0.8267   -2.1586 C   0  0  0  0  0  0  0  0  0  0  0  0
    2.5781   -0.6294   -0.1089 C   0  0  0  0  0  0  0  0  0  0  0  0
   -0.6906   -0.0698    2.4247 C   0  0  0  0  0  0  0  0  0  0  0  0
   -3.6289   -1.2837    0.1757 C   0  0  0  0  0  0  0  0  0  0  0  0
   -2.5362    0.8399   -0.1886 C   0  0  0  0  0  0  0  0  0  0  0  0
    3.6855   -1.2544   -0.6878 C   0  0  0  0  0  0  0  0  0  0  0  0
    2.6950    0.6766    0.3736 C   0  0  0  0  0  0  0  0  0  0  0  0
   -3.7799    1.4659   -0.2712 C   0  0  0  0  0  0  0  0  0  0  0  0
   -4.8728   -0.6577    0.0931 C   0  0  0  0  0  0  0  0  0  0  0  0
    3.9110    1.3530    0.2777 C   0  0  0  0  0  0  0  0  0  0  0  0
    4.9016   -0.5780   -0.7836 C   0  0  0  0  0  0  0  0  0  0  0  0
   -4.9482    0.7171   -0.1302 C   0  0  0  0  0  0  0  0  0  0  0  0
    5.0144    0.7258   -0.3009 C   0  0  0  0  0  0  0  0  0  0  0  0
   -4.8162   -3.3142    0.5264 C   0  0  0  0  0  0  0  0  0  0  0  0
    3.8889   -3.5838   -0.2536 C   0  0  0  0  0  0  0  0  0  0  0  0
   -3.8498    3.6534    0.6593 C   0  0  0  0  0  0  0  0  0  0  0  0
    3.7151    3.6827   -0.1582 C   0  0  0  0  0  0  0  0  0  0  0  0
   -6.7693    1.3967   -1.5005 C   0  0  0  0  0  0  0  0  0  0  0  0
    7.1154    1.2337    0.6908 C   0  0  0  0  0  0  0  0  0  0  0  0
   -1.2139   -2.2255   -0.2580 H   0  0  0  0  0  0  0  0  0  0  0  0
    0.1617    0.4688   -0.4708 H   0  0  0  0  0  0  0  0  0  0  0  0
    1.3153   -2.3558   -0.4194 H   0  0  0  0  0  0  0  0  0  0  0  0
   -0.9424   -2.1696    2.0671 H   0  0  0  0  0  0  0  0  0  0  0  0
   -0.8640   -0.3201   -2.5853 H   0  0  0  0  0  0  0  0  0  0  0  0
   -0.0688   -1.8909   -2.4056 H   0  0  0  0  0  0  0  0  0  0  0  0
    0.9002   -0.4301   -2.6530 H   0  0  0  0  0  0  0  0  0  0  0  0
   -1.7401    0.1065    2.6776 H   0  0  0  0  0  0  0  0  0  0  0  0
   -0.2853    0.8283    1.9489 H   0  0  0  0  0  0  0  0  0  0  0  0
   -0.1352   -0.1990    3.3605 H   0  0  0  0  0  0  0  0  0  0  0  0
   -1.6494    1.4565   -0.2904 H   0  0  0  0  0  0  0  0  0  0  0  0
    1.8517    1.1767    0.8414 H   0  0  0  0  0  0  0  0  0  0  0  0
   -5.8179   -1.1806    0.1950 H   0  0  0  0  0  0  0  0  0  0  0  0
    5.7614   -1.0664   -1.2359 H   0  0  0  0  0  0  0  0  0  0  0  0
   -4.5831   -4.3708    0.6950 H   0  0  0  0  0  0  0  0  0  0  0  0
   -5.3772   -2.9701    1.4020 H   0  0  0  0  0  0  0  0  0  0  0  0
   -5.4060   -3.2632   -0.3952 H   0  0  0  0  0  0  0  0  0  0  0  0
    4.9495   -3.5634    0.0163 H   0  0  0  0  0  0  0  0  0  0  0  0
    3.2733   -3.5121    0.6486 H   0  0  0  0  0  0  0  0  0  0  0  0
    3.6728   -4.5340   -0.7494 H   0  0  0  0  0  0  0  0  0  0  0  0
   -2.9310    3.5211    1.2395 H   0  0  0  0  0  0  0  0  0  0  0  0
   -3.9036    4.6918    0.3211 H   0  0  0  0  0  0  0  0  0  0  0  0
   -4.7231    3.4433    1.2849 H   0  0  0  0  0  0  0  0  0  0  0  0
    2.6799    3.6115   -0.5068 H   0  0  0  0  0  0  0  0  0  0  0  0
    4.4014    3.6585   -1.0105 H   0  0  0  0  0  0  0  0  0  0  0  0
    3.8429    4.6332    0.3668 H   0  0  0  0  0  0  0  0  0  0  0  0
   -6.9434    0.3946   -1.9050 H   0  0  0  0  0  0  0  0  0  0  0  0
   -7.7318    1.9054   -1.3997 H   0  0  0  0  0  0  0  0  0  0  0  0
   -6.1382    1.9737   -2.1839 H   0  0  0  0  0  0  0  0  0  0  0  0
    7.3988    0.1842    0.8195 H   0  0  0  0  0  0  0  0  0  0  0  0
    6.6719    1.6194    1.6142 H   0  0  0  0  0  0  0  0  0  0  0  0
    8.0145    1.8138    0.4659 H   0  0  0  0  0  0  0  0  0  0  0  0
  1 10  1  0  0  0  0
  1 11  1  0  0  0  0
  2 16  1  0  0  0  0
  2 26  1  0  0  0  0
  3 18  1  0  0  0  0
  3 27  1  0  0  0  0
  4 20  1  0  0  0  0
  4 28  1  0  0  0  0
  5 22  1  0  0  0  0
  5 29  1  0  0  0  0
  6 24  1  0  0  0  0
  6 30  1  0  0  0  0
  7 25  1  0  0  0  0
  7 31  1  0  0  0  0
  8  9  1  0  0  0  0
  8 11  1  0  0  0  0
  8 12  1  0  0  0  0
  8 32  1  0  0  0  0
  9 10  1  0  0  0  0
  9 13  1  0  0  0  0
  9 33  1  0  0  0  0
 10 14  1  0  0  0  0
 10 34  1  0  0  0  0
 11 15  1  0  0  0  0
 11 35  1  0  0  0  0
 12 16  1  0  0  0  0
 12 17  2  0  0  0  0
 13 36  1  0  0  0  0
 13 37  1  0  0  0  0
 13 38  1  0  0  0  0
 14 18  1  0  0  0  0
 14 19  2  0  0  0  0
 15 39  1  0  0  0  0
 15 40  1  0  0  0  0
 15 41  1  0  0  0  0
 16 21  2  0  0  0  0
 17 20  1  0  0  0  0
 17 42  1  0  0  0  0
 18 23  2  0  0  0  0
 19 22  1  0  0  0  0
 19 43  1  0  0  0  0
 20 24  2  0  0  0  0
 21 24  1  0  0  0  0
 21 44  1  0  0  0  0
 22 25  2  0  0  0  0
 23 25  1  0  0  0  0
 23 45  1  0  0  0  0
 26 46  1  0  0  0  0
 26 47  1  0  0  0  0
 26 48  1  0  0  0  0
 27 49  1  0  0  0  0
 27 50  1  0  0  0  0
 27 51  1  0  0  0  0
 28 52  1  0  0  0  0
 28 53  1  0  0  0  0
 28 54  1  0  0  0  0
 29 55  1  0  0  0  0
 29 56  1  0  0  0  0
 29 57  1  0  0  0  0
 30 58  1  0  0  0  0
 30 59  1  0  0  0  0
 30 60  1  0  0  0  0
 31 61  1  0  0  0  0
 31 62  1  0  0  0  0
 31 63  1  0  0  0  0
M  END
> <PUBCHEM_COMPOUND_CID>
442895

> <PUBCHEM_CONFORMER_RMSD>
1

> <PUBCHEM_CONFORMER_DIVERSEORDER>
1
6
30
26
35
29
21
10
28
23
8
15
4
31
22
20
17
14
24
25
12
7
13
36
32
27
33
5
2
18
34
9
11
19
16
3

> <PUBCHEM_MMFF94_PARTIAL_CHARGES>
32
1 -0.56
10 0.42
11 0.28
12 -0.14
14 -0.14
16 0.08
17 -0.15
18 0.08
19 -0.15
2 -0.36
20 0.08
21 -0.15
22 0.08
23 -0.15
24 0.08
25 0.08
26 0.28
27 0.28
28 0.28
29 0.28
3 -0.36
30 0.28
31 0.28
4 -0.36
42 0.15
43 0.15
44 0.15
45 0.15
5 -0.36
6 -0.36
7 -0.36
8 0.14

> <PUBCHEM_EFFECTIVE_ROTOR_COUNT>
9

> <PUBCHEM_PHARMACOPHORE_FEATURES>
10
1 1 acceptor
1 2 acceptor
1 3 acceptor
1 4 acceptor
1 5 acceptor
1 6 acceptor
1 7 acceptor
5 1 8 9 10 11 rings
6 12 16 17 20 21 24 rings
6 14 18 19 22 23 25 rings

> <PUBCHEM_HEAVY_ATOM_COUNT>
31

> <PUBCHEM_ATOM_DEF_STEREO_COUNT>
4

> <PUBCHEM_ATOM_UDEF_STEREO_COUNT>
0

> <PUBCHEM_BOND_DEF_STEREO_COUNT>
0

> <PUBCHEM_BOND_UDEF_STEREO_COUNT>
0

> <PUBCHEM_ISOTOPIC_ATOM_COUNT>
0

> <PUBCHEM_COMPONENT_COUNT>
1

> <PUBCHEM_CACTVS_TAUTO_COUNT>
1

> <PUBCHEM_CONFORMER_ID>
0006C20F00000001

> <PUBCHEM_MMFF94_ENERGY>
154.3901

> <PUBCHEM_FEATURE_SELFOVERLAP>
50.753

> <PUBCHEM_SHAPE_FINGERPRINT>
10835480 77 18409451392770405247
11405975 8 18339078301790945307
12107183 9 17908707580726943074
12596602 18 14836108940993741252
13402501 40 18413672392346004860
13583140 156 18259982643571138358
13911987 19 16950280706839681719
14251764 38 18411411800259614872
14739800 52 18341910605141872336
15064981 194 18341313528016834325
15183329 4 18335980981914369834
16989378 47 16517624058721800526
17349148 13 16271924874647991459
17844677 252 18409157831434125991
17980427 23 17560794377779634303
18222031 100 14345800460849604659
20511986 3 17417543509528638015
21033648 144 18341057405825455333
21033648 29 17917417735674354010
21065198 57 18409727395658412239
21315763 129 18339923710763959840
21315764 268 18340490075084747013
23559900 14 18337110163060779618
23569914 2 17761263982049945189
23569943 247 16342044124697567922
2838139 119 18409455768952261476
34797466 226 18113893900969333223
3493558 16 18409158922361542205
4073 2 18272082782115062762
4144715 1 18339069497144651762
5104073 3 18201152256046050066

> <PUBCHEM_SHAPE_MULTIPOLES>
596.88
15.86
3.88
1.34
1.26
0.86
0.18
7.06
-2.34
-0.29
0.22
-0.3
-0.24
1.7

> <PUBCHEM_SHAPE_SELFOVERLAP>
1261.05

> <PUBCHEM_SHAPE_VOLUME>
339.9

> <PUBCHEM_COORDINATE_TYPE>
2
5
10

$$$$

