5355967
  -OEChem-07051213062D

 31 32  0     0  0  0  0  0  0999 V2000
    3.0000   -0.7500    0.0000 S   0  0  0  0  0  0  0  0  0  0  0  0
    4.0000   -0.7500    0.0000 O   0  0  0  0  0  0  0  0  0  0  0  0
    2.0000   -0.7500    0.0000 O   0  0  0  0  0  0  0  0  0  0  0  0
    3.0000    2.2500    0.0000 O   0  0  0  0  0  0  0  0  0  0  0  0
    3.0000   -1.7500    0.0000 C   0  0  0  0  0  0  0  0  0  0  0  0
    3.0000    0.2500    0.0000 C   0  0  0  0  0  0  0  0  0  0  0  0
    2.1340   -2.2500    0.0000 C   0  0  0  0  0  0  0  0  0  0  0  0
    3.8660   -2.2500    0.0000 C   0  0  0  0  0  0  0  0  0  0  0  0
    4.7320    2.2500    0.0000 C   0  0  0  0  0  0  0  0  0  0  0  0
    3.8660    0.7500    0.0000 C   0  0  0  0  0  0  0  0  0  0  0  0
    3.8660    1.7500    0.0000 C   0  0  0  0  0  0  0  0  0  0  0  0
    2.1340   -3.2500    0.0000 C   0  0  0  0  0  0  0  0  0  0  0  0
    3.8660   -3.2500    0.0000 C   0  0  0  0  0  0  0  0  0  0  0  0
    3.0000   -3.7500    0.0000 C   0  0  0  0  0  0  0  0  0  0  0  0
    5.5981    1.7500    0.0000 C   0  0  0  0  0  0  0  0  0  0  0  0
    4.7320    3.2500    0.0000 C   0  0  0  0  0  0  0  0  0  0  0  0
    6.4641    2.2500    0.0000 C   0  0  0  0  0  0  0  0  0  0  0  0
    5.5981    3.7500    0.0000 C   0  0  0  0  0  0  0  0  0  0  0  0
    6.4641    3.2500    0.0000 C   0  0  0  0  0  0  0  0  0  0  0  0
    2.4631    0.5600    0.0000 H   0  0  0  0  0  0  0  0  0  0  0  0
    1.5970   -1.9400    0.0000 H   0  0  0  0  0  0  0  0  0  0  0  0
    4.4030   -1.9400    0.0000 H   0  0  0  0  0  0  0  0  0  0  0  0
    4.4030    0.4400    0.0000 H   0  0  0  0  0  0  0  0  0  0  0  0
    1.5970   -3.5600    0.0000 H   0  0  0  0  0  0  0  0  0  0  0  0
    4.4030   -3.5600    0.0000 H   0  0  0  0  0  0  0  0  0  0  0  0
    3.0000   -4.3700    0.0000 H   0  0  0  0  0  0  0  0  0  0  0  0
    5.5981    1.1300    0.0000 H   0  0  0  0  0  0  0  0  0  0  0  0
    4.1951    3.5600    0.0000 H   0  0  0  0  0  0  0  0  0  0  0  0
    7.0010    1.9400    0.0000 H   0  0  0  0  0  0  0  0  0  0  0  0
    5.5981    4.3700    0.0000 H   0  0  0  0  0  0  0  0  0  0  0  0
    7.0010    3.5600    0.0000 H   0  0  0  0  0  0  0  0  0  0  0  0
  1  2  2  0  0  0  0
  1  3  2  0  0  0  0
  1  5  1  0  0  0  0
  1  6  1  0  0  0  0
  4 11  2  0  0  0  0
  5  7  2  0  0  0  0
  5  8  1  0  0  0  0
  6 10  2  0  0  0  0
  6 20  1  0  0  0  0
  7 12  1  0  0  0  0
  7 21  1  0  0  0  0
  8 13  2  0  0  0  0
  8 22  1  0  0  0  0
  9 11  1  0  0  0  0
  9 15  2  0  0  0  0
  9 16  1  0  0  0  0
 10 11  1  0  0  0  0
 10 23  1  0  0  0  0
 12 14  2  0  0  0  0
 12 24  1  0  0  0  0
 13 14  1  0  0  0  0
 13 25  1  0  0  0  0
 14 26  1  0  0  0  0
 15 17  1  0  0  0  0
 15 27  1  0  0  0  0
 16 18  2  0  0  0  0
 16 28  1  0  0  0  0
 17 19  2  0  0  0  0
 17 29  1  0  0  0  0
 18 19  1  0  0  0  0
 18 30  1  0  0  0  0
 19 31  1  0  0  0  0
M  END
> <PUBCHEM_COMPOUND_CID>
5355967

> <PUBCHEM_COMPOUND_CANONICALIZED>
1

> <PUBCHEM_CACTVS_COMPLEXITY>
419

> <PUBCHEM_CACTVS_HBOND_ACCEPTOR>
3

> <PUBCHEM_CACTVS_HBOND_DONOR>
0

> <PUBCHEM_CACTVS_ROTATABLE_BOND>
4

> <PUBCHEM_CACTVS_SUBSKEYS>
AAADccBwMABAAAAAAAAAAAAAAAAAAAAAAAAwYAAAAAAAAAABQAAAGgQAAAAADASE2ACwAYAAAAqIAqBSAHBCAAAkCBAIiBkAAMgIIDKgFRCAIQAggAAIiYcIiICOAAAAAAAAAAAAAAAAAAAAAAAAAAAAAA==

> <PUBCHEM_IUPAC_OPENEYE_NAME>
(E)-3-(benzenesulfonyl)-1-phenyl-prop-2-en-1-one

> <PUBCHEM_IUPAC_CAS_NAME>
(E)-3-(benzenesulfonyl)-1-phenyl-2-propen-1-one

> <PUBCHEM_IUPAC_NAME>
(E)-3-(benzenesulfonyl)-1-phenylprop-2-en-1-one

> <PUBCHEM_IUPAC_SYSTEMATIC_NAME>
(E)-1-phenyl-3-(phenylsulfonyl)prop-2-en-1-one

> <PUBCHEM_IUPAC_TRADITIONAL_NAME>
(E)-3-besyl-1-phenyl-prop-2-en-1-one

> <PUBCHEM_IUPAC_INCHI>
InChI=1S/C15H12O3S/c16-15(13-7-3-1-4-8-13)11-12-19(17,18)14-9-5-2-6-10-14/h1-12H/b12-11+

> <PUBCHEM_IUPAC_INCHIKEY>
KPWYLVJFIPLFCW-VAWYXSNFSA-N

> <PUBCHEM_XLOGP3_AA>
2.6

> <PUBCHEM_EXACT_MASS>
272.050715

> <PUBCHEM_MOLECULAR_FORMULA>
C15H12O3S

> <PUBCHEM_MOLECULAR_WEIGHT>
272.31898

> <PUBCHEM_OPENEYE_CAN_SMILES>
C1=CC=C(C=C1)C(=O)C=CS(=O)(=O)C2=CC=CC=C2

> <PUBCHEM_OPENEYE_ISO_SMILES>
C1=CC=C(C=C1)C(=O)/C=C/S(=O)(=O)C2=CC=CC=C2

> <PUBCHEM_CACTVS_TPSA>
59.6

> <PUBCHEM_MONOISOTOPIC_WEIGHT>
272.050715

> <PUBCHEM_TOTAL_CHARGE>
0

> <PUBCHEM_HEAVY_ATOM_COUNT>
19

> <PUBCHEM_ATOM_DEF_STEREO_COUNT>
0

> <PUBCHEM_ATOM_UDEF_STEREO_COUNT>
0

> <PUBCHEM_BOND_DEF_STEREO_COUNT>
1

> <PUBCHEM_BOND_UDEF_STEREO_COUNT>
0

> <PUBCHEM_ISOTOPIC_ATOM_COUNT>
0

> <PUBCHEM_COMPONENT_COUNT>
1

> <PUBCHEM_CACTVS_TAUTO_COUNT>
1

> <PUBCHEM_COORDINATE_TYPE>
1
5
255

> <PUBCHEM_BONDANNOTATIONS>
12  14  8
13  14  8
15  17  8
16  18  8
17  19  8
18  19  8
5  7  8
5  8  8
7  12  8
8  13  8
9  15  8
9  16  8

$$$$

