586323
  -OEChem-06241222463D

 32 33  0     0  0  0  0  0  0999 V2000
   -6.4526    0.8562    0.6359 O   0  0  0  0  0  0  0  0  0  0  0  0
    6.4537   -0.8575    0.6326 O   0  0  0  0  0  0  0  0  0  0  0  0
   -6.0475   -1.2311    1.4395 O   0  0  0  0  0  0  0  0  0  0  0  0
    6.0491    1.2280    1.4409 O   0  0  0  0  0  0  0  0  0  0  0  0
   -0.4839    0.4653   -1.3474 N   0  0  0  0  0  0  0  0  0  0  0  0
    0.4834   -0.4622   -1.3453 N   0  0  0  0  0  0  0  0  0  0  0  0
   -1.7727    0.2933   -0.8007 C   0  0  0  0  0  0  0  0  0  0  0  0
    1.7670   -0.2921   -0.8016 C   0  0  0  0  0  0  0  0  0  0  0  0
   -2.0982   -0.8921   -0.1414 C   0  0  0  0  0  0  0  0  0  0  0  0
    2.0988    0.8926   -0.1377 C   0  0  0  0  0  0  0  0  0  0  0  0
   -2.7221    1.3080   -0.9206 C   0  0  0  0  0  0  0  0  0  0  0  0
    2.7219   -1.3059   -0.9221 C   0  0  0  0  0  0  0  0  0  0  0  0
   -4.3227   -0.0480    0.2778 C   0  0  0  0  0  0  0  0  0  0  0  0
    4.3235    0.0474    0.2781 C   0  0  0  0  0  0  0  0  0  0  0  0
   -3.3734   -1.0627    0.3979 C   0  0  0  0  0  0  0  0  0  0  0  0
    3.3743    1.0620    0.4009 C   0  0  0  0  0  0  0  0  0  0  0  0
   -3.9971    1.1375   -0.3813 C   0  0  0  0  0  0  0  0  0  0  0  0
    3.9973   -1.1366   -0.3834 C   0  0  0  0  0  0  0  0  0  0  0  0
   -5.6527   -0.2263    0.8391 C   0  0  0  0  0  0  0  0  0  0  0  0
    5.6539    0.2246    0.8386 C   0  0  0  0  0  0  0  0  0  0  0  0
   -0.3087    1.3228   -1.8600 H   0  0  0  0  0  0  0  0  0  0  0  0
    0.3066   -1.3196   -1.8578 H   0  0  0  0  0  0  0  0  0  0  0  0
   -1.3801   -1.7000   -0.0302 H   0  0  0  0  0  0  0  0  0  0  0  0
    1.3810    1.7008   -0.0237 H   0  0  0  0  0  0  0  0  0  0  0  0
   -2.4803    2.2362   -1.4321 H   0  0  0  0  0  0  0  0  0  0  0  0
    2.4807   -2.2336   -1.4353 H   0  0  0  0  0  0  0  0  0  0  0  0
   -3.6074   -1.9935    0.9080 H   0  0  0  0  0  0  0  0  0  0  0  0
    3.6088    1.9917    0.9128 H   0  0  0  0  0  0  0  0  0  0  0  0
   -4.7056    1.9528   -0.4976 H   0  0  0  0  0  0  0  0  0  0  0  0
    4.7056   -1.9518   -0.5020 H   0  0  0  0  0  0  0  0  0  0  0  0
   -7.3466    0.7262    1.0185 H   0  0  0  0  0  0  0  0  0  0  0  0
    7.3479   -0.7284    1.0147 H   0  0  0  0  0  0  0  0  0  0  0  0
  1 19  1  0  0  0  0
  1 31  1  0  0  0  0
  2 20  1  0  0  0  0
  2 32  1  0  0  0  0
  3 19  2  0  0  0  0
  4 20  2  0  0  0  0
  5  6  1  0  0  0  0
  5  7  1  0  0  0  0
  5 21  1  0  0  0  0
  6  8  1  0  0  0  0
  6 22  1  0  0  0  0
  7  9  2  0  0  0  0
  7 11  1  0  0  0  0
  8 10  2  0  0  0  0
  8 12  1  0  0  0  0
  9 15  1  0  0  0  0
  9 23  1  0  0  0  0
 10 16  1  0  0  0  0
 10 24  1  0  0  0  0
 11 17  2  0  0  0  0
 11 25  1  0  0  0  0
 12 18  2  0  0  0  0
 12 26  1  0  0  0  0
 13 15  2  0  0  0  0
 13 17  1  0  0  0  0
 13 19  1  0  0  0  0
 14 16  2  0  0  0  0
 14 18  1  0  0  0  0
 14 20  1  0  0  0  0
 15 27  1  0  0  0  0
 16 28  1  0  0  0  0
 17 29  1  0  0  0  0
 18 30  1  0  0  0  0
M  END
> <PUBCHEM_COMPOUND_CID>
586323

> <PUBCHEM_CONFORMER_RMSD>
0.8

> <PUBCHEM_CONFORMER_DIVERSEORDER>
1
6
2
5
4
3
7

> <PUBCHEM_MMFF94_PARTIAL_CHARGES>
32
1 -0.65
10 -0.15
11 -0.15
12 -0.15
13 0.09
14 0.09
15 -0.15
16 -0.15
17 -0.15
18 -0.15
19 0.63
2 -0.65
20 0.63
21 0.4
22 0.4
23 0.15
24 0.15
25 0.15
26 0.15
27 0.15
28 0.15
29 0.15
3 -0.57
30 0.15
31 0.5
32 0.5
4 -0.57
5 -0.5
6 -0.5
7 0.1
8 0.1
9 -0.15

> <PUBCHEM_EFFECTIVE_ROTOR_COUNT>
5

> <PUBCHEM_PHARMACOPHORE_FEATURES>
10
1 1 acceptor
1 2 acceptor
1 3 acceptor
1 4 acceptor
1 5 donor
1 6 donor
3 1 3 19 anion
3 2 4 20 anion
6 7 9 11 13 15 17 rings
6 8 10 12 14 16 18 rings

> <PUBCHEM_HEAVY_ATOM_COUNT>
20

> <PUBCHEM_ATOM_DEF_STEREO_COUNT>
0

> <PUBCHEM_ATOM_UDEF_STEREO_COUNT>
0

> <PUBCHEM_BOND_DEF_STEREO_COUNT>
0

> <PUBCHEM_BOND_UDEF_STEREO_COUNT>
0

> <PUBCHEM_ISOTOPIC_ATOM_COUNT>
0

> <PUBCHEM_COMPONENT_COUNT>
1

> <PUBCHEM_CACTVS_TAUTO_COUNT>
3

> <PUBCHEM_CONFORMER_ID>
0008F25300000001

> <PUBCHEM_MMFF94_ENERGY>
69.115

> <PUBCHEM_FEATURE_SELFOVERLAP>
52.543

> <PUBCHEM_SHAPE_FINGERPRINT>
10 15 18409733937310127616
10354089 29 17894347778853633764
10670039 82 5978118924431934706
11089746 13 15574724586087649816
11724838 91 17458629978140868935
12507560 40 18335420217925222732
12516196 113 15267344015904401364
12555020 224 12967127207632495425
12596602 18 18410856581119934080
12633257 1 18410573937906810912
12954195 1 10807669882654559367
13167372 99 16805596023005731058
13288520 33 16559032692820009053
13533116 47 18042395992662624438
13668630 136 14045740434688511400
13862211 1 17060334090245160267
14251752 14 14692582030672830839
14251764 18 18410573955086680214
14341114 176 18410012143837785836
15183329 4 7565072661863072548
15188451 53 17775004553576663475
15348495 7 18338797810255659537
15475509 35 17845663685157982450
15575132 122 14851873799284843827
17870717 6 9295288357066368309
1813 80 16415473878522708006
18222031 100 13973969792222266876
19784866 240 14979955874128284799
20281389 69 15068621612483278234
20526848 3 15791447115040330456
21065199 12 18338799021436436828
21637258 2 15769781234077825581
22122407 14 16878214282417344867
22224240 67 18334018271965084590
23198884 109 8574438633901866351
23559900 14 18125422345138284463
26918003 58 18410293609691649513
2767999 5 15574434331775793057
2871803 45 10375874082518973788
29717793 49 13542466488108488774
300161 21 14779269721786650196
3004659 81 11887956540537883044
312425 54 18270672173516307219
3472631 163 14490478560281951672
351380 3 15698002924551639066
3545911 37 18186800288172145518
4340502 62 18411700998009172746
465052 167 14907887276400046867
5104073 3 18266459999666438626
542803 24 15647054871482750348
559249 180 16128661864513764167
5924683 9 18189340078660661935

> <PUBCHEM_SHAPE_MULTIPOLES>
378.15
16.81
1.33
1.21
0.02
0
0
0
8.81
0
0.01
0
0
1.46

> <PUBCHEM_SHAPE_SELFOVERLAP>
815.185

> <PUBCHEM_SHAPE_VOLUME>
207.5

> <PUBCHEM_COORDINATE_TYPE>
2
5
10

$$$$

