655
  -OEChem-07051212513D

 20 19  0     0  0  0  0  0  0999 V2000
    0.4731    2.5307   -0.8550 S   0  0  0  0  0  0  0  0  0  0  0  0
    0.0135    0.8634    0.0326 P   0  0  0  0  0  0  0  0  0  0  0  0
    0.9640   -0.4135   -0.2853 O   0  0  0  0  0  0  0  0  0  0  0  0
   -1.4804    0.3245   -0.3073 O   0  0  0  0  0  0  0  0  0  0  0  0
    0.0170    0.9262    1.6548 O   0  0  0  0  0  0  0  0  0  0  0  0
    2.3120   -0.4162    0.1525 C   0  0  0  0  0  0  0  0  0  0  0  0
   -1.9227   -0.9325    0.1746 C   0  0  0  0  0  0  0  0  0  0  0  0
    2.9658   -1.7138   -0.2720 C   0  0  0  0  0  0  0  0  0  0  0  0
   -3.3423   -1.1688   -0.2949 C   0  0  0  0  0  0  0  0  0  0  0  0
    2.8437    0.4311   -0.2902 H   0  0  0  0  0  0  0  0  0  0  0  0
    2.3410   -0.3211    1.2422 H   0  0  0  0  0  0  0  0  0  0  0  0
   -1.2684   -1.7220   -0.2071 H   0  0  0  0  0  0  0  0  0  0  0  0
   -1.8888   -0.9412    1.2674 H   0  0  0  0  0  0  0  0  0  0  0  0
    4.0096   -1.7499    0.0519 H   0  0  0  0  0  0  0  0  0  0  0  0
    2.4336   -2.5708    0.1539 H   0  0  0  0  0  0  0  0  0  0  0  0
    2.9293   -1.8257   -1.3607 H   0  0  0  0  0  0  0  0  0  0  0  0
   -3.7160   -2.1333    0.0598 H   0  0  0  0  0  0  0  0  0  0  0  0
   -4.0056   -0.3772    0.0692 H   0  0  0  0  0  0  0  0  0  0  0  0
   -3.3949   -1.1499   -1.3885 H   0  0  0  0  0  0  0  0  0  0  0  0
   -0.1965    0.1195    2.1694 H   0  0  0  0  0  0  0  0  0  0  0  0
  1  2  2  0  0  0  0
  2  3  1  0  0  0  0
  2  4  1  0  0  0  0
  2  5  1  0  0  0  0
  3  6  1  0  0  0  0
  4  7  1  0  0  0  0
  5 20  1  0  0  0  0
  6  8  1  0  0  0  0
  6 10  1  0  0  0  0
  6 11  1  0  0  0  0
  7  9  1  0  0  0  0
  7 12  1  0  0  0  0
  7 13  1  0  0  0  0
  8 14  1  0  0  0  0
  8 15  1  0  0  0  0
  8 16  1  0  0  0  0
  9 17  1  0  0  0  0
  9 18  1  0  0  0  0
  9 19  1  0  0  0  0
M  END
> <PUBCHEM_COMPOUND_CID>
655

> <PUBCHEM_CONFORMER_RMSD>
0.6

> <PUBCHEM_CONFORMER_DIVERSEORDER>
1
15
7
11
9
12
5
13
6
3
4
10
2
14
8

> <PUBCHEM_MMFF94_PARTIAL_CHARGES>
8
1 -0.68
2 1.49
20 0.5
3 -0.55
4 -0.55
5 -0.77
6 0.28
7 0.28

> <PUBCHEM_EFFECTIVE_ROTOR_COUNT>
4

> <PUBCHEM_PHARMACOPHORE_FEATURES>
1
1 5 acceptor

> <PUBCHEM_HEAVY_ATOM_COUNT>
9

> <PUBCHEM_ATOM_DEF_STEREO_COUNT>
0

> <PUBCHEM_ATOM_UDEF_STEREO_COUNT>
0

> <PUBCHEM_BOND_DEF_STEREO_COUNT>
0

> <PUBCHEM_BOND_UDEF_STEREO_COUNT>
0

> <PUBCHEM_ISOTOPIC_ATOM_COUNT>
0

> <PUBCHEM_COMPONENT_COUNT>
1

> <PUBCHEM_CACTVS_TAUTO_COUNT>
2

> <PUBCHEM_CONFORMER_ID>
0000028F00000001

> <PUBCHEM_MMFF94_ENERGY>
-13.6758

> <PUBCHEM_FEATURE_SELFOVERLAP>
5.074

> <PUBCHEM_SHAPE_FINGERPRINT>
14128692 85 18336820909876501948
14390081 3 9799696999767970919
20645477 70 18126292935299696991
20653085 51 11671771706714257010
20711985 344 18126295374070286225
23552423 10 18195809566207005375
23552449 1 18197501942256667836
528862 383 18194969530422103196
76951 1 17244689071092364952

> <PUBCHEM_SHAPE_MULTIPOLES>
175.31
4.31
2.33
0.97
1.48
1.44
-0.36
-3.88
0.71
-0.99
0.63
-0.03
0.32
-0.03

> <PUBCHEM_SHAPE_SELFOVERLAP>
290.379

> <PUBCHEM_SHAPE_VOLUME>
121.9

> <PUBCHEM_COORDINATE_TYPE>
2
5
10

$$$$

