47205022
  -OEChem-06241222572D

 30 31  0     0  0  0  0  0  0999 V2000
    2.8660   -4.4547    0.0000 Br  0  0  0  0  0  0  0  0  0  0  0  0
    2.8660   -0.4547    0.0000 S   0  0  0  0  0  0  0  0  0  0  0  0
    2.8660    1.5453    0.0000 O   0  0  0  0  0  0  0  0  0  0  0  0
    4.5981    1.5453    0.0000 N   0  0  0  0  0  0  0  0  0  0  0  0
    5.5686    4.0398    0.0000 N   0  0  0  0  0  0  0  0  0  0  0  0
    6.5468    4.2477    0.0000 N   0  0  0  0  0  0  0  0  0  0  0  0
    4.5981    2.5453    0.0000 C   0  0  0  0  0  0  0  0  0  0  0  0
    5.4641    3.0453    0.0000 C   0  0  0  0  0  0  0  0  0  0  0  0
    3.7320    0.0453    0.0000 C   0  0  0  0  0  0  0  0  0  0  0  0
    3.7320    1.0453    0.0000 C   0  0  0  0  0  0  0  0  0  0  0  0
    6.3776    2.6386    0.0000 C   0  0  0  0  0  0  0  0  0  0  0  0
    2.8660   -1.4547    0.0000 C   0  0  0  0  0  0  0  0  0  0  0  0
    7.0468    3.3817    0.0000 C   0  0  0  0  0  0  0  0  0  0  0  0
    2.0000   -1.9547    0.0000 C   0  0  0  0  0  0  0  0  0  0  0  0
    3.7320   -1.9547    0.0000 C   0  0  0  0  0  0  0  0  0  0  0  0
    2.0000   -2.9547    0.0000 C   0  0  0  0  0  0  0  0  0  0  0  0
    3.7320   -2.9547    0.0000 C   0  0  0  0  0  0  0  0  0  0  0  0
    2.8660   -3.4547    0.0000 C   0  0  0  0  0  0  0  0  0  0  0  0
    4.3860    3.1279    0.0000 H   0  0  0  0  0  0  0  0  0  0  0  0
    3.9875    2.4376    0.0000 H   0  0  0  0  0  0  0  0  0  0  0  0
    5.1350    1.2353    0.0000 H   0  0  0  0  0  0  0  0  0  0  0  0
    3.9441   -0.5373    0.0000 H   0  0  0  0  0  0  0  0  0  0  0  0
    4.3426    0.1530    0.0000 H   0  0  0  0  0  0  0  0  0  0  0  0
    6.5066    2.0321    0.0000 H   0  0  0  0  0  0  0  0  0  0  0  0
    5.1079    4.4547    0.0000 H   0  0  0  0  0  0  0  0  0  0  0  0
    7.6634    3.3169    0.0000 H   0  0  0  0  0  0  0  0  0  0  0  0
    1.4631   -1.6447    0.0000 H   0  0  0  0  0  0  0  0  0  0  0  0
    4.2690   -1.6447    0.0000 H   0  0  0  0  0  0  0  0  0  0  0  0
    1.4631   -3.2647    0.0000 H   0  0  0  0  0  0  0  0  0  0  0  0
    4.2690   -3.2647    0.0000 H   0  0  0  0  0  0  0  0  0  0  0  0
  1 18  1  0  0  0  0
  2  9  1  0  0  0  0
  2 12  1  0  0  0  0
  3 10  2  0  0  0  0
  4  7  1  0  0  0  0
  4 10  1  0  0  0  0
  4 21  1  0  0  0  0
  5  6  1  0  0  0  0
  5  8  1  0  0  0  0
  5 25  1  0  0  0  0
  6 13  2  0  0  0  0
  7  8  1  0  0  0  0
  7 19  1  0  0  0  0
  7 20  1  0  0  0  0
  8 11  2  0  0  0  0
  9 10  1  0  0  0  0
  9 22  1  0  0  0  0
  9 23  1  0  0  0  0
 11 13  1  0  0  0  0
 11 24  1  0  0  0  0
 12 14  2  0  0  0  0
 12 15  1  0  0  0  0
 13 26  1  0  0  0  0
 14 16  1  0  0  0  0
 14 27  1  0  0  0  0
 15 17  2  0  0  0  0
 15 28  1  0  0  0  0
 16 18  2  0  0  0  0
 16 29  1  0  0  0  0
 17 18  1  0  0  0  0
 17 30  1  0  0  0  0
M  END
> <PUBCHEM_COMPOUND_CID>
47205022

> <PUBCHEM_COMPOUND_CANONICALIZED>
1

> <PUBCHEM_CACTVS_COMPLEXITY>
272

> <PUBCHEM_CACTVS_HBOND_ACCEPTOR>
3

> <PUBCHEM_CACTVS_HBOND_DONOR>
2

> <PUBCHEM_CACTVS_ROTATABLE_BOND>
5

> <PUBCHEM_CACTVS_SUBSKEYS>
AAADccBzIABAEAAAAAAAAAAAAAAAAWAAAAAwAAAAAAAAAAABwAAAHgRYAAABqAjF1gS8gZLjAAiqATV3UACSBAAgihQYubg4ZLgIYKKg0dGUpAhgngCoyhcAAAAAAAEAAAAAAAAAAgAAAAAAAAAAAAAAAA==

> <PUBCHEM_IUPAC_OPENEYE_NAME>
2-(4-bromophenyl)sulfanyl-N-(1H-pyrazol-5-ylmethyl)acetamide

> <PUBCHEM_IUPAC_CAS_NAME>
2-[(4-bromophenyl)thio]-N-(1H-pyrazol-5-ylmethyl)acetamide

> <PUBCHEM_IUPAC_NAME>
2-(4-bromophenyl)sulfanyl-N-(1H-pyrazol-5-ylmethyl)acetamide

> <PUBCHEM_IUPAC_SYSTEMATIC_NAME>
2-(4-bromophenyl)sulfanyl-N-(1H-pyrazol-5-ylmethyl)ethanamide

> <PUBCHEM_IUPAC_TRADITIONAL_NAME>
2-[(4-bromophenyl)thio]-N-(1H-pyrazol-5-ylmethyl)acetamide

> <PUBCHEM_IUPAC_INCHI>
InChI=1S/C12H12BrN3OS/c13-9-1-3-11(4-2-9)18-8-12(17)14-7-10-5-6-15-16-10/h1-6H,7-8H2,(H,14,17)(H,15,16)

> <PUBCHEM_IUPAC_INCHIKEY>
BODAORODQJRYLZ-UHFFFAOYSA-N

> <PUBCHEM_XLOGP3_AA>
2.3

> <PUBCHEM_EXACT_MASS>
324.988445

> <PUBCHEM_MOLECULAR_FORMULA>
C12H12BrN3OS

> <PUBCHEM_MOLECULAR_WEIGHT>
326.21218

> <PUBCHEM_OPENEYE_CAN_SMILES>
C1=CC(=CC=C1SCC(=O)NCC2=CC=NN2)Br

> <PUBCHEM_OPENEYE_ISO_SMILES>
C1=CC(=CC=C1SCC(=O)NCC2=CC=NN2)Br

> <PUBCHEM_CACTVS_TPSA>
83.1

> <PUBCHEM_MONOISOTOPIC_WEIGHT>
324.988445

> <PUBCHEM_TOTAL_CHARGE>
0

> <PUBCHEM_HEAVY_ATOM_COUNT>
18

> <PUBCHEM_ATOM_DEF_STEREO_COUNT>
0

> <PUBCHEM_ATOM_UDEF_STEREO_COUNT>
0

> <PUBCHEM_BOND_DEF_STEREO_COUNT>
0

> <PUBCHEM_BOND_UDEF_STEREO_COUNT>
0

> <PUBCHEM_ISOTOPIC_ATOM_COUNT>
0

> <PUBCHEM_COMPONENT_COUNT>
1

> <PUBCHEM_CACTVS_TAUTO_COUNT>
4

> <PUBCHEM_COORDINATE_TYPE>
1
5
255

> <PUBCHEM_BONDANNOTATIONS>
11  13  8
12  14  8
12  15  8
14  16  8
15  17  8
16  18  8
17  18  8
5  6  8
5  8  8
6  13  8
8  11  8

$$$$

