11066347
  -OEChem-07051213103D

 36 38  0     1  0  0  0  0  0999 V2000
   -4.3753   -1.4223    0.3690 Br  0  0  0  0  0  0  0  0  0  0  0  0
    0.9076    1.3526   -0.3734 O   0  0  0  0  0  0  0  0  0  0  0  0
    1.0295   -1.1011   -0.2140 C   0  0  1  0  0  0  0  0  0  0  0  0
    1.8061    0.2189   -0.5645 C   0  0  2  0  0  0  0  0  0  0  0  0
    2.9403    0.2904    0.4870 C   0  0  2  0  0  0  0  0  0  0  0  0
    1.5646   -1.5379    1.1702 C   0  0  0  0  0  0  0  0  0  0  0  0
    2.3023   -0.3273    1.7310 C   0  0  0  0  0  0  0  0  0  0  0  0
   -0.3603   -0.5605   -0.1236 C   0  0  0  0  0  0  0  0  0  0  0  0
    1.1457   -2.2422   -1.2249 C   0  0  0  0  0  0  0  0  0  0  0  0
    2.3459    0.3294   -1.9914 C   0  0  0  0  0  0  0  0  0  0  0  0
   -0.3419    0.8200   -0.2196 C   0  0  0  0  0  0  0  0  0  0  0  0
    3.4946    1.6818    0.7640 C   0  0  0  0  0  0  0  0  0  0  0  0
   -1.5603   -1.2330    0.0537 C   0  0  0  0  0  0  0  0  0  0  0  0
   -1.4956    1.5784   -0.1398 C   0  0  0  0  0  0  0  0  0  0  0  0
   -2.7405   -0.4887    0.1290 C   0  0  0  0  0  0  0  0  0  0  0  0
   -2.7078    0.9102    0.0331 C   0  0  0  0  0  0  0  0  0  0  0  0
   -3.9549    1.7313    0.1142 C   0  0  0  0  0  0  0  0  0  0  0  0
    3.7680   -0.3584    0.1678 H   0  0  0  0  0  0  0  0  0  0  0  0
    2.2850   -2.3586    1.0591 H   0  0  0  0  0  0  0  0  0  0  0  0
    0.7823   -1.8832    1.8546 H   0  0  0  0  0  0  0  0  0  0  0  0
    1.5983    0.3651    2.2078 H   0  0  0  0  0  0  0  0  0  0  0  0
    3.0485   -0.6179    2.4771 H   0  0  0  0  0  0  0  0  0  0  0  0
    0.7312   -1.9676   -2.2013 H   0  0  0  0  0  0  0  0  0  0  0  0
    2.1901   -2.5391   -1.3703 H   0  0  0  0  0  0  0  0  0  0  0  0
    0.5992   -3.1292   -0.8833 H   0  0  0  0  0  0  0  0  0  0  0  0
    3.0826   -0.4484   -2.2139 H   0  0  0  0  0  0  0  0  0  0  0  0
    1.5337    0.2642   -2.7239 H   0  0  0  0  0  0  0  0  0  0  0  0
    2.8205    1.3036   -2.1536 H   0  0  0  0  0  0  0  0  0  0  0  0
    4.2921    1.6308    1.5130 H   0  0  0  0  0  0  0  0  0  0  0  0
    3.9171    2.1235   -0.1436 H   0  0  0  0  0  0  0  0  0  0  0  0
    2.7261    2.3605    1.1478 H   0  0  0  0  0  0  0  0  0  0  0  0
   -1.5718   -2.3156    0.1370 H   0  0  0  0  0  0  0  0  0  0  0  0
   -1.4455    2.6599   -0.2122 H   0  0  0  0  0  0  0  0  0  0  0  0
   -4.4490    1.5902    1.0811 H   0  0  0  0  0  0  0  0  0  0  0  0
   -3.7437    2.8023    0.0172 H   0  0  0  0  0  0  0  0  0  0  0  0
   -4.6446    1.4686   -0.6946 H   0  0  0  0  0  0  0  0  0  0  0  0
  1 15  1  0  0  0  0
  2  4  1  0  0  0  0
  2 11  1  0  0  0  0
  3  4  1  0  0  0  0
  3  6  1  0  0  0  0
  3  8  1  0  0  0  0
  3  9  1  0  0  0  0
  4  5  1  0  0  0  0
  4 10  1  0  0  0  0
  5  7  1  0  0  0  0
  5 12  1  0  0  0  0
  5 18  1  0  0  0  0
  6  7  1  0  0  0  0
  6 19  1  0  0  0  0
  6 20  1  0  0  0  0
  7 21  1  0  0  0  0
  7 22  1  0  0  0  0
  8 11  2  0  0  0  0
  8 13  1  0  0  0  0
  9 23  1  0  0  0  0
  9 24  1  0  0  0  0
  9 25  1  0  0  0  0
 10 26  1  0  0  0  0
 10 27  1  0  0  0  0
 10 28  1  0  0  0  0
 11 14  1  0  0  0  0
 12 29  1  0  0  0  0
 12 30  1  0  0  0  0
 12 31  1  0  0  0  0
 13 15  2  0  0  0  0
 13 32  1  0  0  0  0
 14 16  2  0  0  0  0
 14 33  1  0  0  0  0
 15 16  1  0  0  0  0
 16 17  1  0  0  0  0
 17 34  1  0  0  0  0
 17 35  1  0  0  0  0
 17 36  1  0  0  0  0
M  END
> <PUBCHEM_COMPOUND_CID>
11066347

> <PUBCHEM_CONFORMER_RMSD>
0.6

> <PUBCHEM_CONFORMER_DIVERSEORDER>
1

> <PUBCHEM_MMFF94_PARTIAL_CHARGES>
13
1 -0.11
11 0.08
13 -0.15
14 -0.15
15 0.11
16 -0.14
17 0.14
2 -0.36
3 0.14
32 0.15
33 0.15
4 0.28
8 -0.14

> <PUBCHEM_EFFECTIVE_ROTOR_COUNT>
0.8

> <PUBCHEM_PHARMACOPHORE_FEATURES>
5
1 1 hydrophobe
1 2 acceptor
5 2 3 4 8 11 rings
5 3 4 5 6 7 rings
6 8 11 13 14 15 16 rings

> <PUBCHEM_HEAVY_ATOM_COUNT>
17

> <PUBCHEM_ATOM_DEF_STEREO_COUNT>
3

> <PUBCHEM_ATOM_UDEF_STEREO_COUNT>
0

> <PUBCHEM_BOND_DEF_STEREO_COUNT>
0

> <PUBCHEM_BOND_UDEF_STEREO_COUNT>
0

> <PUBCHEM_ISOTOPIC_ATOM_COUNT>
0

> <PUBCHEM_COMPONENT_COUNT>
1

> <PUBCHEM_CACTVS_TAUTO_COUNT>
1

> <PUBCHEM_CONFORMER_ID>
00A8DBEB00000001

> <PUBCHEM_MMFF94_ENERGY>
60.3053

> <PUBCHEM_FEATURE_SELFOVERLAP>
26.07

> <PUBCHEM_SHAPE_FINGERPRINT>
10608611 8 18335985367213369325
10948715 1 18263086535306059704
11031198 65 16008745780150222952
11132069 177 18412825802667407409
12382932 28 18410578417869138617
12553582 1 18267012861596795159
13140716 1 18267865167522520003
13296908 3 17894908555516660637
13538477 17 18272930570035638221
14144814 61 18413388743988553313
14178342 30 18410857693885864769
14223421 5 18411142480055520129
14252887 29 18336530630702631459
14289901 80 17385730209788367281
14787075 74 17482839965474345986
15219456 202 18187363267773742807
15775835 57 18412547612966255536
16945 1 18270672052661149343
1813 80 16772110478640975282
18186145 218 17677889213942960209
19010151 120 16916517951482069261
20510252 161 18259981561745567769
20525323 117 18336837424374057519
20559304 39 18272932704386490443
20645477 70 17168426090165292357
21501502 16 18201997750855203919
21501925 9 18201443549739686651
2334 1 18412538843033303575
23388829 49 18267315226766445327
23402539 116 18267879297986256527
23493267 7 17987213625693585570
23557571 272 18260828185508914411
23559900 14 18189897689346676670
25 1 15792013320958834986
2748010 2 18338508768032071183
296302 2 15985102998449787317
495365 180 17460327765780641661
5104073 3 18412547625930175481
7097593 13 17770517617895141363
7364860 26 18189616223281855302
9709674 26 18263083374257576639

> <PUBCHEM_SHAPE_MULTIPOLES>
349.92
6.52
2.07
1.29
5.05
0.13
-0.14
-1.07
1.24
0.53
-0.09
-1.35
0.25
0.26

> <PUBCHEM_SHAPE_SELFOVERLAP>
748.412

> <PUBCHEM_SHAPE_VOLUME>
203.7

> <PUBCHEM_COORDINATE_TYPE>
2
5
10

$$$$

