442082
  -OEChem-07051212562D

 86 92  0     1  0  0  0  0  0999 V2000
    7.2333   -1.7052    0.0000 O   0  0  0  0  0  0  0  0  0  0  0  0
    6.3210   -2.4959    0.0000 O   0  0  0  0  0  0  0  0  0  0  0  0
    6.0169   -3.5501    0.0000 O   0  0  0  0  0  0  0  0  0  0  0  0
    8.4766    0.2331    0.0000 O   0  0  0  0  0  0  0  0  0  0  0  0
    9.2897    0.7019    0.0000 O   0  0  0  0  0  0  0  0  0  0  0  0
    6.2448    0.8464    0.0000 O   0  0  0  0  0  0  0  0  0  0  0  0
    4.5321    1.1046    0.0000 O   0  0  0  0  0  0  0  0  0  0  0  0
    5.9101    4.4364    0.0000 O   0  0  0  0  0  0  0  0  0  0  0  0
    2.4847    4.9527    0.0000 O   0  0  0  0  0  0  0  0  0  0  0  0
    8.1557   -2.3686    0.0000 C   0  0  1  0  0  0  0  0  0  0  0  0
    7.2434   -2.3686    0.0000 C   0  0  2  0  0  0  0  0  0  0  0  0
    6.7873   -3.1587    0.0000 C   0  0  2  0  0  0  0  0  0  0  0  0
    7.2434   -3.9487    0.0000 C   0  0  2  0  0  0  0  0  0  0  0  0
    8.6118   -3.1587    0.0000 C   0  0  1  0  0  0  0  0  0  0  0  0
    8.7245   -1.6553    0.0000 C   0  0  1  0  0  0  0  0  0  0  0  0
    8.1557   -3.9487    0.0000 C   0  0  0  0  0  0  0  0  0  0  0  0
    5.3884   -2.4959    0.0000 C   0  0  3  0  0  0  0  0  0  0  0  0
    8.5215   -0.7659    0.0000 C   0  0  1  0  0  0  0  0  0  0  0  0
    6.6746   -1.6553    0.0000 C   0  0  0  0  0  0  0  0  0  0  0  0
    9.6118   -3.1587    0.0000 C   0  0  0  0  0  0  0  0  0  0  0  0
    7.6996   -0.3701    0.0000 C   0  0  0  0  0  0  0  0  0  0  0  0
    7.0869   -4.9364    0.0000 C   0  0  0  0  0  0  0  0  0  0  0  0
    9.6331   -1.7371    0.0000 C   0  0  0  0  0  0  0  0  0  0  0  0
    6.8776   -0.7659    0.0000 C   0  0  0  0  0  0  0  0  0  0  0  0
    4.4374   -2.1869    0.0000 C   0  0  0  0  0  0  0  0  0  0  0  0
    9.3047   -0.2980    0.0000 C   0  0  0  0  0  0  0  0  0  0  0  0
    9.9917   -0.8982    0.0000 C   0  0  0  0  0  0  0  0  0  0  0  0
    7.8640   -5.5658    0.0000 C   0  0  0  0  0  0  0  0  0  0  0  0
    6.0958   -0.1424    0.0000 C   0  0  0  0  0  0  0  0  0  0  0  0
    6.1533   -5.2947    0.0000 C   0  0  0  0  0  0  0  0  0  0  0  0
    3.6942   -2.8560    0.0000 C   0  0  0  0  0  0  0  0  0  0  0  0
   10.9666   -0.6757    0.0000 C   0  0  0  0  0  0  0  0  0  0  0  0
    2.7432   -2.5470    0.0000 C   0  0  0  0  0  0  0  0  0  0  0  0
    3.9021   -3.8341    0.0000 C   0  0  0  0  0  0  0  0  0  0  0  0
    2.0000   -3.2161    0.0000 C   0  0  0  0  0  0  0  0  0  0  0  0
    3.1590   -4.5033    0.0000 C   0  0  0  0  0  0  0  0  0  0  0  0
    5.4630    1.4699    0.0000 C   0  0  0  0  0  0  0  0  0  0  0  0
    2.2079   -4.1942    0.0000 C   0  0  0  0  0  0  0  0  0  0  0  0
    5.6120    2.4587    0.0000 C   0  0  0  0  0  0  0  0  0  0  0  0
    4.8302    3.0822    0.0000 C   0  0  0  0  0  0  0  0  0  0  0  0
    4.9793    4.0710    0.0000 C   0  0  0  0  0  0  0  0  0  0  0  0
    3.8993    2.7169    0.0000 C   0  0  0  0  0  0  0  0  0  0  0  0
    4.1974    4.6945    0.0000 C   0  0  0  0  0  0  0  0  0  0  0  0
    3.1175    3.3404    0.0000 C   0  0  0  0  0  0  0  0  0  0  0  0
    3.2666    4.3292    0.0000 C   0  0  0  0  0  0  0  0  0  0  0  0
    6.0592    5.4252    0.0000 C   0  0  0  0  0  0  0  0  0  0  0  0
    7.6684   -3.1047    0.0000 H   0  0  0  0  0  0  0  0  0  0  0  0
    6.5544   -3.9762    0.0000 H   0  0  0  0  0  0  0  0  0  0  0  0
    8.9218   -2.6217    0.0000 H   0  0  0  0  0  0  0  0  0  0  0  0
    9.0586   -2.4369    0.0000 H   0  0  0  0  0  0  0  0  0  0  0  0
    8.0480   -4.5593    0.0000 H   0  0  0  0  0  0  0  0  0  0  0  0
    8.7383   -4.1608    0.0000 H   0  0  0  0  0  0  0  0  0  0  0  0
    6.0701   -1.7933    0.0000 H   0  0  0  0  0  0  0  0  0  0  0  0
    9.6118   -3.7787    0.0000 H   0  0  0  0  0  0  0  0  0  0  0  0
   10.2318   -3.1587    0.0000 H   0  0  0  0  0  0  0  0  0  0  0  0
    9.6118   -2.5387    0.0000 H   0  0  0  0  0  0  0  0  0  0  0  0
    8.0861    0.1146    0.0000 H   0  0  0  0  0  0  0  0  0  0  0  0
    7.3130    0.1146    0.0000 H   0  0  0  0  0  0  0  0  0  0  0  0
    9.9511   -2.2694    0.0000 H   0  0  0  0  0  0  0  0  0  0  0  0
    4.7284   -1.6394    0.0000 H   0  0  0  0  0  0  0  0  0  0  0  0
    3.9488   -1.8052    0.0000 H   0  0  0  0  0  0  0  0  0  0  0  0
    7.9263    0.5187    0.0000 H   0  0  0  0  0  0  0  0  0  0  0  0
    7.4738   -6.0476    0.0000 H   0  0  0  0  0  0  0  0  0  0  0  0
    8.3458   -5.9560    0.0000 H   0  0  0  0  0  0  0  0  0  0  0  0
    8.2542   -5.0840    0.0000 H   0  0  0  0  0  0  0  0  0  0  0  0
    5.5081    0.0550    0.0000 H   0  0  0  0  0  0  0  0  0  0  0  0
    5.7993   -0.6869    0.0000 H   0  0  0  0  0  0  0  0  0  0  0  0
    5.6715   -4.9045    0.0000 H   0  0  0  0  0  0  0  0  0  0  0  0
    6.0563   -5.9071    0.0000 H   0  0  0  0  0  0  0  0  0  0  0  0
   11.1046   -1.2802    0.0000 H   0  0  0  0  0  0  0  0  0  0  0  0
   11.5711   -0.5378    0.0000 H   0  0  0  0  0  0  0  0  0  0  0  0
   10.8286   -0.0713    0.0000 H   0  0  0  0  0  0  0  0  0  0  0  0
    2.6142   -1.9405    0.0000 H   0  0  0  0  0  0  0  0  0  0  0  0
    4.4918   -4.0257    0.0000 H   0  0  0  0  0  0  0  0  0  0  0  0
    1.4104   -3.0245    0.0000 H   0  0  0  0  0  0  0  0  0  0  0  0
    3.2879   -5.1097    0.0000 H   0  0  0  0  0  0  0  0  0  0  0  0
    1.7472   -4.6091    0.0000 H   0  0  0  0  0  0  0  0  0  0  0  0
    6.1998    2.2613    0.0000 H   0  0  0  0  0  0  0  0  0  0  0  0
    5.9086    3.0032    0.0000 H   0  0  0  0  0  0  0  0  0  0  0  0
    3.8069    2.1038    0.0000 H   0  0  0  0  0  0  0  0  0  0  0  0
    4.2898    5.3076    0.0000 H   0  0  0  0  0  0  0  0  0  0  0  0
    2.5404    3.1139    0.0000 H   0  0  0  0  0  0  0  0  0  0  0  0
    6.6722    5.3328    0.0000 H   0  0  0  0  0  0  0  0  0  0  0  0
    6.1516    6.0383    0.0000 H   0  0  0  0  0  0  0  0  0  0  0  0
    5.4461    5.5176    0.0000 H   0  0  0  0  0  0  0  0  0  0  0  0
    2.5771    5.5658    0.0000 H   0  0  0  0  0  0  0  0  0  0  0  0
 10  1  1  6  0  0  0
  1 17  1  0  0  0  0
  2 12  1  0  0  0  0
  2 17  1  0  0  0  0
  3 13  1  0  0  0  0
  3 17  1  0  0  0  0
 18  4  1  1  0  0  0
  4 62  1  0  0  0  0
  5 26  2  0  0  0  0
  6 29  1  0  0  0  0
  6 37  1  0  0  0  0
  7 37  2  0  0  0  0
  8 41  1  0  0  0  0
  8 46  1  0  0  0  0
  9 45  1  0  0  0  0
  9 86  1  0  0  0  0
 10 11  1  0  0  0  0
 10 14  1  0  0  0  0
 10 15  1  0  0  0  0
 11 12  1  0  0  0  0
 11 19  1  0  0  0  0
 11 47  1  1  0  0  0
 12 13  1  0  0  0  0
 12 48  1  1  0  0  0
 13 16  1  0  0  0  0
 13 22  1  1  0  0  0
 14 16  1  0  0  0  0
 14 20  1  6  0  0  0
 14 49  1  0  0  0  0
 15 18  1  0  0  0  0
 15 23  1  0  0  0  0
 15 50  1  6  0  0  0
 16 51  1  0  0  0  0
 16 52  1  0  0  0  0
 17 25  1  0  0  0  0
 18 21  1  0  0  0  0
 18 26  1  0  0  0  0
 19 24  2  0  0  0  0
 19 53  1  0  0  0  0
 20 54  1  0  0  0  0
 20 55  1  0  0  0  0
 20 56  1  0  0  0  0
 21 24  1  0  0  0  0
 21 57  1  0  0  0  0
 21 58  1  0  0  0  0
 22 28  1  0  0  0  0
 22 30  2  0  0  0  0
 23 27  2  0  0  0  0
 23 59  1  0  0  0  0
 24 29  1  0  0  0  0
 25 31  1  0  0  0  0
 25 60  1  0  0  0  0
 25 61  1  0  0  0  0
 26 27  1  0  0  0  0
 27 32  1  0  0  0  0
 28 63  1  0  0  0  0
 28 64  1  0  0  0  0
 28 65  1  0  0  0  0
 29 66  1  0  0  0  0
 29 67  1  0  0  0  0
 30 68  1  0  0  0  0
 30 69  1  0  0  0  0
 31 33  2  0  0  0  0
 31 34  1  0  0  0  0
 32 70  1  0  0  0  0
 32 71  1  0  0  0  0
 32 72  1  0  0  0  0
 33 35  1  0  0  0  0
 33 73  1  0  0  0  0
 34 36  2  0  0  0  0
 34 74  1  0  0  0  0
 35 38  2  0  0  0  0
 35 75  1  0  0  0  0
 36 38  1  0  0  0  0
 36 76  1  0  0  0  0
 37 39  1  0  0  0  0
 38 77  1  0  0  0  0
 39 40  1  0  0  0  0
 39 78  1  0  0  0  0
 39 79  1  0  0  0  0
 40 41  2  0  0  0  0
 40 42  1  0  0  0  0
 41 43  1  0  0  0  0
 42 44  2  0  0  0  0
 42 80  1  0  0  0  0
 43 45  2  0  0  0  0
 43 81  1  0  0  0  0
 44 45  1  0  0  0  0
 44 82  1  0  0  0  0
 46 83  1  0  0  0  0
 46 84  1  0  0  0  0
 46 85  1  0  0  0  0
M  END
> <PUBCHEM_COMPOUND_CID>
442082

> <PUBCHEM_COMPOUND_CANONICALIZED>
1

> <PUBCHEM_CACTVS_COMPLEXITY>
1330

> <PUBCHEM_CACTVS_HBOND_ACCEPTOR>
9

> <PUBCHEM_CACTVS_HBOND_DONOR>
2

> <PUBCHEM_CACTVS_ROTATABLE_BOND>
9

> <PUBCHEM_CACTVS_SUBSKEYS>
AAADcfB8PAAAAAAAAAAAAAAAAAAAASIAAAA0YMEABIgAAACBQAAAGgAACAAADVSgmAIyDoAABgCIAqDSCAICCAAgIAAIiAFGCMgdJzKGNRqicCAlwBUOuYfK7PyOoAAACAAIAADCAAYQADCAAAAAAAAAAA==

> <PUBCHEM_IUPAC_INCHI>
InChI=1S/C37H40O9/c1-21(2)35-17-23(4)37-28(33(35)44-36(45-35,46-37)19-24-9-7-6-8-10-24)14-25(18-34(41)30(37)13-22(3)32(34)40)20-43-31(39)15-26-11-12-27(38)16-29(26)42-5/h6-14,16,23,28,30,33,38,41H,1,15,17-20H2,2-5H3/t23-,28+,30-,33-,34-,35-,36?,37-/m1/s1

> <PUBCHEM_IUPAC_INCHIKEY>
OYWHJFQVSOUQSF-PKRQWDGKSA-N

> <PUBCHEM_XLOGP3_AA>
4.5

> <PUBCHEM_EXACT_MASS>
628.267233

> <PUBCHEM_MOLECULAR_FORMULA>
C37H40O9

> <PUBCHEM_MOLECULAR_WEIGHT>
628.7081

> <PUBCHEM_OPENEYE_CAN_SMILES>
CC1CC2(C3C4C1(C5C=C(C(=O)C5(CC(=C4)COC(=O)CC6=C(C=C(C=C6)O)OC)O)C)OC(O3)(O2)CC7=CC=CC=C7)C(=C)C

> <PUBCHEM_OPENEYE_ISO_SMILES>
C[C@@H]1C[C@]2([C@H]3[C@H]4[C@]1([C@@H]5C=C(C(=O)[C@]5(CC(=C4)COC(=O)CC6=C(C=C(C=C6)O)OC)O)C)OC(O3)(O2)CC7=CC=CC=C7)C(=C)C

> <PUBCHEM_CACTVS_TPSA>
121

> <PUBCHEM_MONOISOTOPIC_WEIGHT>
628.267233

> <PUBCHEM_TOTAL_CHARGE>
0

> <PUBCHEM_HEAVY_ATOM_COUNT>
46

> <PUBCHEM_ATOM_DEF_STEREO_COUNT>
7

> <PUBCHEM_ATOM_UDEF_STEREO_COUNT>
1

> <PUBCHEM_BOND_DEF_STEREO_COUNT>
0

> <PUBCHEM_BOND_UDEF_STEREO_COUNT>
0

> <PUBCHEM_ISOTOPIC_ATOM_COUNT>
0

> <PUBCHEM_COMPONENT_COUNT>
1

> <PUBCHEM_CACTVS_TAUTO_COUNT>
9

> <PUBCHEM_COORDINATE_TYPE>
1
5
255

> <PUBCHEM_BONDANNOTATIONS>
10  1  6
11  47  5
12  48  5
13  22  5
14  20  6
15  50  6
17  25  3
31  33  8
31  34  8
33  35  8
34  36  8
35  38  8
36  38  8
18  4  5
40  41  8
40  42  8
41  43  8
42  44  8
43  45  8
44  45  8

$$$$

