441744
  -OEChem-07051212552D

 56 60  0     1  0  0  0  0  0999 V2000
    7.9641   -0.1902    0.0000 O   0  0  0  0  0  0  0  0  0  0  0  0
    9.0440    1.1639    0.0000 O   0  0  0  0  0  0  0  0  0  0  0  0
    2.0000    0.0724    0.0000 N   0  0  0  0  0  0  0  0  0  0  0  0
    6.2813   -0.0006    0.0000 C   0  0  1  0  0  0  0  0  0  0  0  0
    5.3803    0.4333    0.0000 C   0  0  2  0  0  0  0  0  0  0  0  0
    4.5107   -0.1402    0.0000 C   0  0  1  0  0  0  0  0  0  0  0  0
    4.5806   -1.1795    0.0000 C   0  0  1  0  0  0  0  0  0  0  0  0
    3.6888   -1.7976    0.0000 C   0  0  1  0  0  0  0  0  0  0  0  0
    6.3751   -1.0380    0.0000 C   0  0  0  0  0  0  0  0  0  0  0  0
    6.1744    1.1761    0.0000 C   0  0  0  0  0  0  0  0  0  0  0  0
    5.5190   -1.6314    0.0000 C   0  0  0  0  0  0  0  0  0  0  0  0
    7.1822    0.4333    0.0000 C   0  0  1  0  0  0  0  0  0  0  0  0
    6.7813    2.1900    0.0000 C   0  0  1  0  0  0  0  0  0  0  0  0
    5.1578    1.4082    0.0000 C   0  0  0  0  0  0  0  0  0  0  0  0
    3.5443    0.3531    0.0000 C   0  0  0  0  0  0  0  0  0  0  0  0
    5.7813    2.1900    0.0000 C   0  0  0  0  0  0  0  0  0  0  0  0
    7.4048    1.4082    0.0000 C   0  0  0  0  0  0  0  0  0  0  0  0
    2.7113   -1.3268    0.0000 C   0  0  0  0  0  0  0  0  0  0  0  0
    2.6386   -0.2442    0.0000 C   0  0  0  0  0  0  0  0  0  0  0  0
    3.3277    0.8203    0.0000 C   0  0  0  0  0  0  0  0  0  0  0  0
    2.2082   -1.4371    0.0000 C   0  0  0  0  0  0  0  0  0  0  0  0
    3.7674   -2.7945    0.0000 C   0  0  0  0  0  0  0  0  0  0  0  0
    8.3797    1.6307    0.0000 C   0  0  0  0  0  0  0  0  0  0  0  0
    8.8950    0.1751    0.0000 C   0  0  0  0  0  0  0  0  0  0  0  0
    9.6768   -0.4484    0.0000 C   0  0  0  0  0  0  0  0  0  0  0  0
    4.6145    0.8021    0.0000 H   0  0  0  0  0  0  0  0  0  0  0  0
    4.6376   -2.0276    0.0000 H   0  0  0  0  0  0  0  0  0  0  0  0
    6.6359   -1.6005    0.0000 H   0  0  0  0  0  0  0  0  0  0  0  0
    6.9739   -0.8773    0.0000 H   0  0  0  0  0  0  0  0  0  0  0  0
    5.7666    1.6432    0.0000 H   0  0  0  0  0  0  0  0  0  0  0  0
    5.6044    0.9323    0.0000 H   0  0  0  0  0  0  0  0  0  0  0  0
    5.1584   -2.1357    0.0000 H   0  0  0  0  0  0  0  0  0  0  0  0
    5.9542   -2.0730    0.0000 H   0  0  0  0  0  0  0  0  0  0  0  0
    7.7675    0.6380    0.0000 H   0  0  0  0  0  0  0  0  0  0  0  0
    6.9704    3.0187    0.0000 H   0  0  0  0  0  0  0  0  0  0  0  0
    4.7712    1.8929    0.0000 H   0  0  0  0  0  0  0  0  0  0  0  0
    4.5992    1.1392    0.0000 H   0  0  0  0  0  0  0  0  0  0  0  0
    3.9165    0.8489    0.0000 H   0  0  0  0  0  0  0  0  0  0  0  0
    3.1195    0.8046    0.0000 H   0  0  0  0  0  0  0  0  0  0  0  0
    5.9192    2.7945    0.0000 H   0  0  0  0  0  0  0  0  0  0  0  0
    5.2227    2.4590    0.0000 H   0  0  0  0  0  0  0  0  0  0  0  0
    2.0947   -1.2619    0.0000 H   0  0  0  0  0  0  0  0  0  0  0  0
    2.5418   -1.9232    0.0000 H   0  0  0  0  0  0  0  0  0  0  0  0
    2.3908    0.3241    0.0000 H   0  0  0  0  0  0  0  0  0  0  0  0
    2.0362   -0.3910    0.0000 H   0  0  0  0  0  0  0  0  0  0  0  0
    3.3800    1.4381    0.0000 H   0  0  0  0  0  0  0  0  0  0  0  0
    1.5883   -1.4444    0.0000 H   0  0  0  0  0  0  0  0  0  0  0  0
    2.1380   -2.0531    0.0000 H   0  0  0  0  0  0  0  0  0  0  0  0
    3.1493   -2.8432    0.0000 H   0  0  0  0  0  0  0  0  0  0  0  0
    3.8161   -3.4126    0.0000 H   0  0  0  0  0  0  0  0  0  0  0  0
    4.3855   -2.7458    0.0000 H   0  0  0  0  0  0  0  0  0  0  0  0
    8.8014    1.1762    0.0000 H   0  0  0  0  0  0  0  0  0  0  0  0
    8.5624    2.2232    0.0000 H   0  0  0  0  0  0  0  0  0  0  0  0
    9.2902   -0.9331    0.0000 H   0  0  0  0  0  0  0  0  0  0  0  0
   10.1615   -0.8349    0.0000 H   0  0  0  0  0  0  0  0  0  0  0  0
   10.0634    0.0364    0.0000 H   0  0  0  0  0  0  0  0  0  0  0  0
 12  1  1  1  0  0  0
  1 24  1  0  0  0  0
  2 24  2  0  0  0  0
  3 20  2  0  0  0  0
  3 21  1  0  0  0  0
  4  5  1  0  0  0  0
  4  9  1  6  0  0  0
  4 10  1  0  0  0  0
  4 12  1  0  0  0  0
  5  6  1  0  0  0  0
  5 14  1  0  0  0  0
  5 26  1  1  0  0  0
  6  7  1  0  0  0  0
  6 15  1  1  0  0  0
  6 20  1  0  0  0  0
  7  8  1  0  0  0  0
  7 11  1  0  0  0  0
  7 27  1  1  0  0  0
  8 18  1  0  0  0  0
  8 21  1  0  0  0  0
  8 22  1  1  0  0  0
  9 11  1  0  0  0  0
  9 28  1  0  0  0  0
  9 29  1  0  0  0  0
 10 13  1  0  0  0  0
 10 30  1  0  0  0  0
 10 31  1  0  0  0  0
 11 32  1  0  0  0  0
 11 33  1  0  0  0  0
 12 17  1  0  0  0  0
 12 34  1  0  0  0  0
 13 16  1  0  0  0  0
 13 17  1  0  0  0  0
 13 35  1  6  0  0  0
 14 16  1  0  0  0  0
 14 36  1  0  0  0  0
 14 37  1  0  0  0  0
 15 19  1  0  0  0  0
 15 38  1  0  0  0  0
 15 39  1  0  0  0  0
 16 40  1  0  0  0  0
 16 41  1  0  0  0  0
 17 23  2  0  0  0  0
 18 19  1  0  0  0  0
 18 42  1  0  0  0  0
 18 43  1  0  0  0  0
 19 44  1  0  0  0  0
 19 45  1  0  0  0  0
 20 46  1  0  0  0  0
 21 47  1  0  0  0  0
 21 48  1  0  0  0  0
 22 49  1  0  0  0  0
 22 50  1  0  0  0  0
 22 51  1  0  0  0  0
 23 52  1  0  0  0  0
 23 53  1  0  0  0  0
 24 25  1  0  0  0  0
 25 54  1  0  0  0  0
 25 55  1  0  0  0  0
 25 56  1  0  0  0  0
M  END
> <PUBCHEM_COMPOUND_CID>
441744

> <PUBCHEM_COMPOUND_CANONICALIZED>
1

> <PUBCHEM_CACTVS_COMPLEXITY>
669

> <PUBCHEM_CACTVS_HBOND_ACCEPTOR>
3

> <PUBCHEM_CACTVS_HBOND_DONOR>
0

> <PUBCHEM_CACTVS_ROTATABLE_BOND>
2

> <PUBCHEM_CACTVS_SUBSKEYS>
AAADceB6MAAAAAAAAAAAAAAAAAAAAYAAAAAwYMEABgAQAADAAAAAHgAAAAAADxThgAYCCAIABACoAhDzDAAAAAAgAAAAAAAgAAgABAIAoQACAAAEgAAAIAGQwPAPgAAAAAAAAACAAAQAACAAAYAABAAAAA==

> <PUBCHEM_IUPAC_INCHI>
InChI=1S/C22H31NO2/c1-14-16-5-6-18-21(11-16,19(14)25-15(2)24)10-7-17-20(3)8-4-9-22(17,18)13-23-12-20/h13,16-19H,1,4-12H2,2-3H3/t16-,17-,18-,19-,20+,21-,22+/m1/s1

> <PUBCHEM_IUPAC_INCHIKEY>
XLRFZCAOXVMMEG-CBDMQDTOSA-N

> <PUBCHEM_XLOGP3_AA>
3.4

> <PUBCHEM_EXACT_MASS>
341.235479

> <PUBCHEM_MOLECULAR_FORMULA>
C22H31NO2

> <PUBCHEM_MOLECULAR_WEIGHT>
341.48704

> <PUBCHEM_OPENEYE_CAN_SMILES>
CC(=O)OC1C(=C)C2CCC3C1(C2)CCC4C35CCCC4(CN=C5)C

> <PUBCHEM_OPENEYE_ISO_SMILES>
CC(=O)O[C@@H]1C(=C)[C@@H]2CC[C@@H]3[C@]1(C2)CC[C@H]4[C@@]35CCC[C@]4(CN=C5)C

> <PUBCHEM_CACTVS_TPSA>
38.7

> <PUBCHEM_MONOISOTOPIC_WEIGHT>
341.235479

> <PUBCHEM_TOTAL_CHARGE>
0

> <PUBCHEM_HEAVY_ATOM_COUNT>
25

> <PUBCHEM_ATOM_DEF_STEREO_COUNT>
7

> <PUBCHEM_ATOM_UDEF_STEREO_COUNT>
0

> <PUBCHEM_BOND_DEF_STEREO_COUNT>
0

> <PUBCHEM_BOND_UDEF_STEREO_COUNT>
0

> <PUBCHEM_ISOTOPIC_ATOM_COUNT>
0

> <PUBCHEM_COMPONENT_COUNT>
1

> <PUBCHEM_CACTVS_TAUTO_COUNT>
1

> <PUBCHEM_COORDINATE_TYPE>
1
5
255

> <PUBCHEM_BONDANNOTATIONS>
12  1  5
13  35  6
4  9  6
5  26  5
6  15  5
7  27  5
8  22  5

$$$$

