10583108
  -OEChem-07051213103D

 21 21  0     1  0  0  0  0  0999 V2000
   -2.2278    1.2981   -0.5620 O   0  0  0  0  0  0  0  0  0  0  0  0
    0.2372    2.5105    0.3687 O   0  0  0  0  0  0  0  0  0  0  0  0
   -2.5399   -1.4189    0.2421 O   0  0  0  0  0  0  0  0  0  0  0  0
    2.5276    0.8684   -0.1608 O   0  0  0  0  0  0  0  0  0  0  0  0
    2.0788   -1.7608   -0.4196 O   0  0  0  0  0  0  0  0  0  0  0  0
   -1.2131    0.5964    0.1617 C   0  0  2  0  0  0  0  0  0  0  0  0
    0.1535    1.1961   -0.1894 C   0  0  2  0  0  0  0  0  0  0  0  0
   -1.3060   -0.8806   -0.2308 C   0  0  1  0  0  0  0  0  0  0  0  0
    1.3111    0.3825    0.3830 C   0  0  1  0  0  0  0  0  0  0  0  0
   -0.1780   -1.7048    0.3707 C   0  0  0  0  0  0  0  0  0  0  0  0
    1.1565   -1.0870    0.0363 C   0  0  0  0  0  0  0  0  0  0  0  0
   -1.4403    0.7333    1.2261 H   0  0  0  0  0  0  0  0  0  0  0  0
    0.2494    1.3114   -1.2763 H   0  0  0  0  0  0  0  0  0  0  0  0
   -1.3108   -0.9781   -1.3229 H   0  0  0  0  0  0  0  0  0  0  0  0
    1.3652    0.4863    1.4727 H   0  0  0  0  0  0  0  0  0  0  0  0
   -0.2156   -2.7300   -0.0147 H   0  0  0  0  0  0  0  0  0  0  0  0
   -0.2664   -1.7742    1.4611 H   0  0  0  0  0  0  0  0  0  0  0  0
   -2.1513    2.2393   -0.3289 H   0  0  0  0  0  0  0  0  0  0  0  0
    1.1082    2.8725    0.1315 H   0  0  0  0  0  0  0  0  0  0  0  0
   -2.5597   -1.3220    1.2095 H   0  0  0  0  0  0  0  0  0  0  0  0
    3.2546    0.4013    0.2854 H   0  0  0  0  0  0  0  0  0  0  0  0
  1  6  1  0  0  0  0
  1 18  1  0  0  0  0
  2  7  1  0  0  0  0
  2 19  1  0  0  0  0
  3  8  1  0  0  0  0
  3 20  1  0  0  0  0
  4  9  1  0  0  0  0
  4 21  1  0  0  0  0
  5 11  2  0  0  0  0
  6  7  1  0  0  0  0
  6  8  1  0  0  0  0
  6 12  1  0  0  0  0
  7  9  1  0  0  0  0
  7 13  1  0  0  0  0
  8 10  1  0  0  0  0
  8 14  1  0  0  0  0
  9 11  1  0  0  0  0
  9 15  1  0  0  0  0
 10 11  1  0  0  0  0
 10 16  1  0  0  0  0
 10 17  1  0  0  0  0
M  END
> <PUBCHEM_COMPOUND_CID>
10583108

> <PUBCHEM_CONFORMER_RMSD>
0.4

> <PUBCHEM_CONFORMER_DIVERSEORDER>
2
1
4
6
3
5

> <PUBCHEM_MMFF94_PARTIAL_CHARGES>
15
1 -0.68
10 0.06
11 0.45
18 0.4
19 0.4
2 -0.68
20 0.4
21 0.4
3 -0.68
4 -0.68
5 -0.57
6 0.28
7 0.28
8 0.28
9 0.34

> <PUBCHEM_EFFECTIVE_ROTOR_COUNT>
1

> <PUBCHEM_PHARMACOPHORE_FEATURES>
10
1 1 acceptor
1 1 donor
1 2 acceptor
1 2 donor
1 3 acceptor
1 3 donor
1 4 acceptor
1 4 donor
1 5 acceptor
6 6 7 8 9 10 11 rings

> <PUBCHEM_HEAVY_ATOM_COUNT>
11

> <PUBCHEM_ATOM_DEF_STEREO_COUNT>
4

> <PUBCHEM_ATOM_UDEF_STEREO_COUNT>
0

> <PUBCHEM_BOND_DEF_STEREO_COUNT>
0

> <PUBCHEM_BOND_UDEF_STEREO_COUNT>
0

> <PUBCHEM_ISOTOPIC_ATOM_COUNT>
0

> <PUBCHEM_COMPONENT_COUNT>
1

> <PUBCHEM_CACTVS_TAUTO_COUNT>
6

> <PUBCHEM_CONFORMER_ID>
00A17C4400000002

> <PUBCHEM_MMFF94_ENERGY>
17.8873

> <PUBCHEM_FEATURE_SELFOVERLAP>
50.767

> <PUBCHEM_SHAPE_FINGERPRINT>
11206711 2 18340489941645088869
161256 15 18267582403839192983
16945 1 18193563267850780775
18185500 45 18052261979149114859
193761 8 18338797947726293528
20588541 1 18196645198906676146
21040471 1 18411989082454891368
23552423 10 18272367611381791814
241688 4 18338514252251601594
2748010 2 18410294734973269542
5084963 1 17825665551894251370
66348 1 17834960045790545219

> <PUBCHEM_SHAPE_MULTIPOLES>
197.03
2.88
2.31
0.66
0.2
0.44
-0.01
-0.4
0.27
-0.06
-0.09
0.01
0
0.28

> <PUBCHEM_SHAPE_SELFOVERLAP>
397.892

> <PUBCHEM_SHAPE_VOLUME>
114

> <PUBCHEM_COORDINATE_TYPE>
2
5
10

$$$$

