46173996
  -OEChem-07051213102D

 67 72  0     1  0  0  0  0  0999 V2000
   10.4781   -1.6068    0.0000 O   0  0  0  0  0  0  0  0  0  0  0  0
    6.9059   -1.8368    0.0000 O   0  0  0  0  0  0  0  0  0  0  0  0
    8.6658    1.1979    0.0000 O   0  0  0  0  0  0  0  0  0  0  0  0
    5.1357    0.2221    0.0000 O   0  0  0  0  0  0  0  0  0  0  0  0
   11.0617   -2.5341    0.0000 O   0  0  0  0  0  0  0  0  0  0  0  0
   14.0617   -0.8021    0.0000 O   0  0  0  0  0  0  0  0  0  0  0  0
   13.0564    2.3161    0.0000 O   0  0  0  0  0  0  0  0  0  0  0  0
   11.7207    3.8047    0.0000 O   0  0  0  0  0  0  0  0  0  0  0  0
    2.5357   -1.3363    0.0000 O   0  0  0  0  0  0  0  0  0  0  0  0
   14.0617   -4.2662    0.0000 O   0  0  0  0  0  0  0  0  0  0  0  0
    2.5434   -3.3362    0.0000 O   0  0  0  0  0  0  0  0  0  0  0  0
   10.4781    0.0026    0.0000 C   0  0  1  0  0  0  0  0  0  0  0  0
   11.0617   -0.8021    0.0000 C   0  0  1  0  0  0  0  0  0  0  0  0
    9.5319   -0.3021    0.0000 C   0  0  0  0  0  0  0  0  0  0  0  0
    9.5319   -1.3021    0.0000 C   0  0  0  0  0  0  0  0  0  0  0  0
    7.7998   -0.3021    0.0000 C   0  0  0  0  0  0  0  0  0  0  0  0
   12.0617   -0.8021    0.0000 C   0  0  0  0  0  0  0  0  0  0  0  0
    8.6658    0.1979    0.0000 C   0  0  0  0  0  0  0  0  0  0  0  0
    6.9059    0.2326    0.0000 C   0  0  0  0  0  0  0  0  0  0  0  0
   10.7888    0.9532    0.0000 C   0  0  0  0  0  0  0  0  0  0  0  0
    5.9998   -0.2813    0.0000 C   0  0  1  0  0  0  0  0  0  0  0  0
    7.7998   -1.3021    0.0000 C   0  0  0  0  0  0  0  0  0  0  0  0
    5.9998   -1.3229    0.0000 C   0  0  1  0  0  0  0  0  0  0  0  0
    8.6658   -1.8021    0.0000 C   0  0  0  0  0  0  0  0  0  0  0  0
   12.5617   -1.6681    0.0000 C   0  0  0  0  0  0  0  0  0  0  0  0
    5.1357   -1.8262    0.0000 C   0  0  0  0  0  0  0  0  0  0  0  0
   11.7673    1.1594    0.0000 C   0  0  0  0  0  0  0  0  0  0  0  0
   10.1209    1.6975    0.0000 C   0  0  0  0  0  0  0  0  0  0  0  0
   12.0617   -2.5341    0.0000 C   0  0  0  0  0  0  0  0  0  0  0  0
   13.5617   -1.6681    0.0000 C   0  0  0  0  0  0  0  0  0  0  0  0
   12.0779    2.1099    0.0000 C   0  0  0  0  0  0  0  0  0  0  0  0
   10.4316    2.6480    0.0000 C   0  0  0  0  0  0  0  0  0  0  0  0
    4.2678   -1.3296    0.0000 C   0  0  0  0  0  0  0  0  0  0  0  0
    5.1396   -2.8262    0.0000 C   0  0  0  0  0  0  0  0  0  0  0  0
   11.4101    2.8542    0.0000 C   0  0  0  0  0  0  0  0  0  0  0  0
   12.5617   -3.4002    0.0000 C   0  0  0  0  0  0  0  0  0  0  0  0
   14.0617   -2.5341    0.0000 C   0  0  0  0  0  0  0  0  0  0  0  0
    3.4037   -1.8329    0.0000 C   0  0  0  0  0  0  0  0  0  0  0  0
    4.2755   -3.3296    0.0000 C   0  0  0  0  0  0  0  0  0  0  0  0
   13.5617   -3.4002    0.0000 C   0  0  0  0  0  0  0  0  0  0  0  0
    3.4075   -2.8329    0.0000 C   0  0  0  0  0  0  0  0  0  0  0  0
   11.0906    0.0988    0.0000 H   0  0  0  0  0  0  0  0  0  0  0  0
   11.3434   -1.3544    0.0000 H   0  0  0  0  0  0  0  0  0  0  0  0
   12.6443   -0.5900    0.0000 H   0  0  0  0  0  0  0  0  0  0  0  0
   11.9540   -0.1915    0.0000 H   0  0  0  0  0  0  0  0  0  0  0  0
    7.3105    0.7024    0.0000 H   0  0  0  0  0  0  0  0  0  0  0  0
    6.5122    0.7116    0.0000 H   0  0  0  0  0  0  0  0  0  0  0  0
    5.4623   -0.5902    0.0000 H   0  0  0  0  0  0  0  0  0  0  0  0
    5.4623   -1.0139    0.0000 H   0  0  0  0  0  0  0  0  0  0  0  0
    8.6658   -2.4221    0.0000 H   0  0  0  0  0  0  0  0  0  0  0  0
   12.1813    0.6979    0.0000 H   0  0  0  0  0  0  0  0  0  0  0  0
    9.5142    1.5696    0.0000 H   0  0  0  0  0  0  0  0  0  0  0  0
    8.1289    1.5079    0.0000 H   0  0  0  0  0  0  0  0  0  0  0  0
    5.1381    0.8421    0.0000 H   0  0  0  0  0  0  0  0  0  0  0  0
   10.0175    3.1094    0.0000 H   0  0  0  0  0  0  0  0  0  0  0  0
    4.2654   -0.7096    0.0000 H   0  0  0  0  0  0  0  0  0  0  0  0
    5.6777   -3.1342    0.0000 H   0  0  0  0  0  0  0  0  0  0  0  0
   12.2517   -3.9371    0.0000 H   0  0  0  0  0  0  0  0  0  0  0  0
   14.6817   -2.5341    0.0000 H   0  0  0  0  0  0  0  0  0  0  0  0
    4.2779   -3.9496    0.0000 H   0  0  0  0  0  0  0  0  0  0  0  0
   10.7517   -3.0711    0.0000 H   0  0  0  0  0  0  0  0  0  0  0  0
   14.6817   -0.8021    0.0000 H   0  0  0  0  0  0  0  0  0  0  0  0
   13.2490    2.9054    0.0000 H   0  0  0  0  0  0  0  0  0  0  0  0
   11.3067    4.2662    0.0000 H   0  0  0  0  0  0  0  0  0  0  0  0
    2.0000   -1.6483    0.0000 H   0  0  0  0  0  0  0  0  0  0  0  0
   14.6817   -4.2662    0.0000 H   0  0  0  0  0  0  0  0  0  0  0  0
    2.5458   -3.9562    0.0000 H   0  0  0  0  0  0  0  0  0  0  0  0
  1 13  1  0  0  0  0
  1 15  1  0  0  0  0
  2 22  1  0  0  0  0
  2 23  1  0  0  0  0
  3 18  1  0  0  0  0
  3 53  1  0  0  0  0
 21  4  1  1  0  0  0
  4 54  1  0  0  0  0
  5 29  1  0  0  0  0
  5 61  1  0  0  0  0
  6 30  1  0  0  0  0
  6 62  1  0  0  0  0
  7 31  1  0  0  0  0
  7 63  1  0  0  0  0
  8 35  1  0  0  0  0
  8 64  1  0  0  0  0
  9 38  1  0  0  0  0
  9 65  1  0  0  0  0
 10 40  1  0  0  0  0
 10 66  1  0  0  0  0
 11 41  1  0  0  0  0
 11 67  1  0  0  0  0
 12 13  1  0  0  0  0
 12 14  1  0  0  0  0
 12 20  1  1  0  0  0
 12 42  1  0  0  0  0
 13 17  1  1  0  0  0
 13 43  1  0  0  0  0
 14 15  2  0  0  0  0
 14 18  1  0  0  0  0
 15 24  1  0  0  0  0
 16 18  2  0  0  0  0
 16 19  1  0  0  0  0
 16 22  1  0  0  0  0
 17 25  1  0  0  0  0
 17 44  1  0  0  0  0
 17 45  1  0  0  0  0
 19 21  1  0  0  0  0
 19 46  1  0  0  0  0
 19 47  1  0  0  0  0
 20 27  2  0  0  0  0
 20 28  1  0  0  0  0
 21 23  1  0  0  0  0
 21 48  1  0  0  0  0
 22 24  2  0  0  0  0
 23 26  1  6  0  0  0
 23 49  1  0  0  0  0
 24 50  1  0  0  0  0
 25 29  2  0  0  0  0
 25 30  1  0  0  0  0
 26 33  2  0  0  0  0
 26 34  1  0  0  0  0
 27 31  1  0  0  0  0
 27 51  1  0  0  0  0
 28 32  2  0  0  0  0
 28 52  1  0  0  0  0
 29 36  1  0  0  0  0
 30 37  2  0  0  0  0
 31 35  2  0  0  0  0
 32 35  1  0  0  0  0
 32 55  1  0  0  0  0
 33 38  1  0  0  0  0
 33 56  1  0  0  0  0
 34 39  2  0  0  0  0
 34 57  1  0  0  0  0
 36 40  2  0  0  0  0
 36 58  1  0  0  0  0
 37 40  1  0  0  0  0
 37 59  1  0  0  0  0
 38 41  2  0  0  0  0
 39 41  1  0  0  0  0
 39 60  1  0  0  0  0
M  END
> <PUBCHEM_COMPOUND_CID>
46173996

> <PUBCHEM_COMPOUND_CANONICALIZED>
1

> <PUBCHEM_CACTVS_COMPLEXITY>
881

> <PUBCHEM_CACTVS_HBOND_ACCEPTOR>
11

> <PUBCHEM_CACTVS_HBOND_DONOR>
9

> <PUBCHEM_CACTVS_ROTATABLE_BOND>
4

> <PUBCHEM_CACTVS_SUBSKEYS>
AAADceB4PAAAAAAAAAAAAAAAAAAAASAAAAA0YMGCAAAAAEiRVAAAGgAACAAADRSgmAIwBoAABgCAAiBCAAACCAAgIAAIiAAGiIgNNyKGMRqCeCGlwBULuAfA4PwOoAADCAAIQABAAAYQABCAAAAAAAAAAA==

> <PUBCHEM_IUPAC_OPENEYE_NAME>
2-[[(2R,3R,6S,7R)-3,7-bis(3,4-dihydroxyphenyl)-4,6-dihydroxy-3,5,6,7-tetrahydro-2H-furo[3,2-g]chromen-2-yl]methyl]benzene-1,3,5-triol

> <PUBCHEM_IUPAC_CAS_NAME>
2-[[(2R,3R,6S,7R)-3,7-bis(3,4-dihydroxyphenyl)-4,6-dihydroxy-3,5,6,7-tetrahydro-2H-furo[3,2-g][1]benzopyran-2-yl]methyl]benzene-1,3,5-triol

> <PUBCHEM_IUPAC_NAME>
2-[[(2R,3R,6S,7R)-3,7-bis(3,4-dihydroxyphenyl)-4,6-dihydroxy-3,5,6,7-tetrahydro-2H-furo[3,2-g]chromen-2-yl]methyl]benzene-1,3,5-triol

> <PUBCHEM_IUPAC_SYSTEMATIC_NAME>
2-[[(2R,3R,6S,7R)-3,7-bis[3,4-bis(oxidanyl)phenyl]-4,6-bis(oxidanyl)-3,5,6,7-tetrahydro-2H-furo[3,2-g]chromen-2-yl]methyl]benzene-1,3,5-triol

> <PUBCHEM_IUPAC_TRADITIONAL_NAME>
2-[[(2R,3R,6S,7R)-3,7-bis(3,4-dihydroxyphenyl)-4,6-dihydroxy-3,5,6,7-tetrahydro-2H-furo[3,2-g]chromen-2-yl]methyl]phloroglucinol

> <PUBCHEM_IUPAC_INCHI>
InChI=1S/C30H26O11/c31-14-7-19(34)15(20(35)8-14)10-25-27(12-1-3-17(32)21(36)5-12)28-26(40-25)11-24-16(29(28)39)9-23(38)30(41-24)13-2-4-18(33)22(37)6-13/h1-8,11,23,25,27,30-39H,9-10H2/t23-,25+,27-,30+/m0/s1

> <PUBCHEM_IUPAC_INCHIKEY>
FFCVTFZKQFEUKL-YJRUHBOJSA-N

> <PUBCHEM_XLOGP3_AA>
3.5

> <PUBCHEM_EXACT_MASS>
562.147512

> <PUBCHEM_MOLECULAR_FORMULA>
C30H26O11

> <PUBCHEM_MOLECULAR_WEIGHT>
562.52084

> <PUBCHEM_OPENEYE_CAN_SMILES>
C1C(C(OC2=CC3=C(C(C(O3)CC4=C(C=C(C=C4O)O)O)C5=CC(=C(C=C5)O)O)C(=C21)O)C6=CC(=C(C=C6)O)O)O

> <PUBCHEM_OPENEYE_ISO_SMILES>
C1[C@@H]([C@H](OC2=CC3=C([C@H]([C@H](O3)CC4=C(C=C(C=C4O)O)O)C5=CC(=C(C=C5)O)O)C(=C21)O)C6=CC(=C(C=C6)O)O)O

> <PUBCHEM_CACTVS_TPSA>
201

> <PUBCHEM_MONOISOTOPIC_WEIGHT>
562.147512

> <PUBCHEM_TOTAL_CHARGE>
0

> <PUBCHEM_HEAVY_ATOM_COUNT>
41

> <PUBCHEM_ATOM_DEF_STEREO_COUNT>
4

> <PUBCHEM_ATOM_UDEF_STEREO_COUNT>
0

> <PUBCHEM_BOND_DEF_STEREO_COUNT>
0

> <PUBCHEM_BOND_UDEF_STEREO_COUNT>
0

> <PUBCHEM_ISOTOPIC_ATOM_COUNT>
0

> <PUBCHEM_COMPONENT_COUNT>
1

> <PUBCHEM_CACTVS_TAUTO_COUNT>
994

> <PUBCHEM_COORDINATE_TYPE>
1
5
255

> <PUBCHEM_BONDANNOTATIONS>
12  20  5
13  17  5
14  15  8
14  18  8
15  24  8
16  18  8
16  22  8
20  27  8
20  28  8
22  24  8
23  26  6
25  29  8
25  30  8
26  33  8
26  34  8
27  31  8
28  32  8
29  36  8
30  37  8
31  35  8
32  35  8
33  38  8
34  39  8
36  40  8
37  40  8
38  41  8
39  41  8
21  4  5

$$$$

