439373
  -OEChem-07051212453D

 22 22  0     1  0  0  0  0  0999 V2000
    0.5631    1.2808    0.0312 O   0  0  0  0  0  0  0  0  0  0  0  0
    0.3011   -1.5248    0.9628 O   0  0  0  0  0  0  0  0  0  0  0  0
    2.8483   -1.4075   -0.0605 O   0  0  0  0  0  0  0  0  0  0  0  0
   -2.2282    1.6373   -0.0272 O   0  0  0  0  0  0  0  0  0  0  0  0
   -3.8746   -0.5722    0.2955 O   0  0  0  0  0  0  0  0  0  0  0  0
    2.8169    1.4231    0.4612 O   0  0  0  0  0  0  0  0  0  0  0  0
   -0.3131    0.2825   -0.5287 C   0  0  1  0  0  0  0  0  0  0  0  0
    0.4482   -1.0228   -0.3610 C   0  0  1  0  0  0  0  0  0  0  0  0
    1.8707   -0.5581   -0.5971 C   0  0  1  0  0  0  0  0  0  0  0  0
   -1.6577    0.3439    0.1736 C   0  0  2  0  0  0  0  0  0  0  0  0
    1.8524    0.8126    0.0296 C   0  0  0  0  0  0  0  0  0  0  0  0
   -2.6270   -0.6948   -0.3794 C   0  0  0  0  0  0  0  0  0  0  0  0
   -0.4258    0.5417   -1.5897 H   0  0  0  0  0  0  0  0  0  0  0  0
    0.1436   -1.8059   -1.0617 H   0  0  0  0  0  0  0  0  0  0  0  0
    2.0659   -0.4233   -1.6671 H   0  0  0  0  0  0  0  0  0  0  0  0
   -1.5573    0.2340    1.2594 H   0  0  0  0  0  0  0  0  0  0  0  0
   -2.8162   -0.5326   -1.4459 H   0  0  0  0  0  0  0  0  0  0  0  0
   -2.2731   -1.7188   -0.2420 H   0  0  0  0  0  0  0  0  0  0  0  0
   -0.5591   -1.9715    1.0229 H   0  0  0  0  0  0  0  0  0  0  0  0
    2.6056   -1.6012    0.8609 H   0  0  0  0  0  0  0  0  0  0  0  0
   -1.5929    2.2914    0.3112 H   0  0  0  0  0  0  0  0  0  0  0  0
   -4.1874    0.3396    0.1670 H   0  0  0  0  0  0  0  0  0  0  0  0
  1  7  1  0  0  0  0
  1 11  1  0  0  0  0
  2  8  1  0  0  0  0
  2 19  1  0  0  0  0
  3  9  1  0  0  0  0
  3 20  1  0  0  0  0
  4 10  1  0  0  0  0
  4 21  1  0  0  0  0
  5 12  1  0  0  0  0
  5 22  1  0  0  0  0
  6 11  2  0  0  0  0
  7  8  1  0  0  0  0
  7 10  1  0  0  0  0
  7 13  1  0  0  0  0
  8  9  1  0  0  0  0
  8 14  1  0  0  0  0
  9 11  1  0  0  0  0
  9 15  1  0  0  0  0
 10 12  1  0  0  0  0
 10 16  1  0  0  0  0
 12 17  1  0  0  0  0
 12 18  1  0  0  0  0
M  END
> <PUBCHEM_COMPOUND_CID>
439373

> <PUBCHEM_CONFORMER_RMSD>
0.6

> <PUBCHEM_CONFORMER_DIVERSEORDER>
1
5
2
4
3

> <PUBCHEM_MMFF94_PARTIAL_CHARGES>
16
1 -0.43
10 0.28
11 0.66
12 0.28
19 0.4
2 -0.68
20 0.4
21 0.4
22 0.4
3 -0.68
4 -0.68
5 -0.68
6 -0.57
7 0.28
8 0.28
9 0.34

> <PUBCHEM_EFFECTIVE_ROTOR_COUNT>
2.8

> <PUBCHEM_PHARMACOPHORE_FEATURES>
10
1 2 acceptor
1 2 donor
1 3 acceptor
1 3 donor
1 4 acceptor
1 4 donor
1 5 acceptor
1 5 donor
1 6 acceptor
5 1 7 8 9 11 rings

> <PUBCHEM_HEAVY_ATOM_COUNT>
12

> <PUBCHEM_ATOM_DEF_STEREO_COUNT>
4

> <PUBCHEM_ATOM_UDEF_STEREO_COUNT>
0

> <PUBCHEM_BOND_DEF_STEREO_COUNT>
0

> <PUBCHEM_BOND_UDEF_STEREO_COUNT>
0

> <PUBCHEM_ISOTOPIC_ATOM_COUNT>
0

> <PUBCHEM_COMPONENT_COUNT>
1

> <PUBCHEM_CACTVS_TAUTO_COUNT>
6

> <PUBCHEM_CONFORMER_ID>
0006B44D00000001

> <PUBCHEM_MMFF94_ENERGY>
20.8822

> <PUBCHEM_FEATURE_SELFOVERLAP>
50.766

> <PUBCHEM_SHAPE_FINGERPRINT>
12897270 3 18412265043041695263
12932764 1 18337100246138899237
13380535 76 18267869380827278354
14325111 11 18409730659807033909
15775835 57 18040995081714835605
16945 1 18264492784454448780
19973954 147 18335700580579594101
20645477 70 18335708264782482847
20653091 64 18337952393515194456
20871998 22 18042961176389169998
21040471 1 18340483370561429452
21501925 9 18337684086855582650
23235685 24 18267310832872697428
23552423 10 18343298205874434597
2748010 2 18410296946913166660
3248919 1 17418366987254550805
5084963 1 18131347535542200638

> <PUBCHEM_SHAPE_MULTIPOLES>
211.74
4.74
1.59
0.74
2.46
0.15
-0.01
-0.2
-0.29
-0.5
-0.16
-0.05
-0.13
0.16

> <PUBCHEM_SHAPE_SELFOVERLAP>
429.839

> <PUBCHEM_SHAPE_VOLUME>
123.9

> <PUBCHEM_COORDINATE_TYPE>
2
5
10

$$$$

