586122
  -OEChem-06241222453D

 39 40  0     0  0  0  0  0  0999 V2000
   -7.6816   -0.5093   -0.0049 O   0  0  0  0  0  0  0  0  0  0  0  0
    0.1962    1.9344    0.0073 O   0  0  0  0  0  0  0  0  0  0  0  0
    5.3901   -2.5577    0.0010 O   0  0  0  0  0  0  0  0  0  0  0  0
   -2.3095    0.9278    0.0015 N   0  0  0  0  0  0  0  0  0  0  0  0
    1.1634   -0.1733    0.0069 N   0  0  0  0  0  0  0  0  0  0  0  0
    2.4215    0.3234    0.0041 N   0  0  0  0  0  0  0  0  0  0  0  0
   -3.6498    0.5696    0.0002 C   0  0  0  0  0  0  0  0  0  0  0  0
   -1.2258   -0.0214    0.0055 C   0  0  0  0  0  0  0  0  0  0  0  0
   -4.0333   -0.7835    0.0028 C   0  0  0  0  0  0  0  0  0  0  0  0
   -4.6580    1.5503   -0.0042 C   0  0  0  0  0  0  0  0  0  0  0  0
   -6.3669   -0.1575   -0.0035 C   0  0  0  0  0  0  0  0  0  0  0  0
   -5.3809   -1.1441    0.0009 C   0  0  0  0  0  0  0  0  0  0  0  0
   -6.0055    1.1897   -0.0059 C   0  0  0  0  0  0  0  0  0  0  0  0
    0.0977    0.7100    0.0083 C   0  0  0  0  0  0  0  0  0  0  0  0
    4.7763   -0.2390   -0.0004 C   0  0  0  0  0  0  0  0  0  0  0  0
    5.7356   -1.2393   -0.0016 C   0  0  0  0  0  0  0  0  0  0  0  0
    5.1343    1.1006   -0.0024 C   0  0  0  0  0  0  0  0  0  0  0  0
    3.3436   -0.5835    0.0031 C   0  0  0  0  0  0  0  0  0  0  0  0
    7.0866   -0.8921   -0.0047 C   0  0  0  0  0  0  0  0  0  0  0  0
    6.4853    1.4478   -0.0054 C   0  0  0  0  0  0  0  0  0  0  0  0
    7.4615    0.4516   -0.0066 C   0  0  0  0  0  0  0  0  0  0  0  0
   -7.9806   -1.9045   -0.0020 C   0  0  0  0  0  0  0  0  0  0  0  0
   -1.2608   -0.6546   -0.8888 H   0  0  0  0  0  0  0  0  0  0  0  0
   -1.2652   -0.6522    0.9012 H   0  0  0  0  0  0  0  0  0  0  0  0
   -2.0919    1.9186   -0.0003 H   0  0  0  0  0  0  0  0  0  0  0  0
   -3.2972   -1.5831    0.0061 H   0  0  0  0  0  0  0  0  0  0  0  0
   -4.3936    2.6054   -0.0063 H   0  0  0  0  0  0  0  0  0  0  0  0
   -5.5918   -2.2081    0.0030 H   0  0  0  0  0  0  0  0  0  0  0  0
   -6.7692    1.9626   -0.0094 H   0  0  0  0  0  0  0  0  0  0  0  0
    4.3975    1.8985   -0.0015 H   0  0  0  0  0  0  0  0  0  0  0  0
    1.0402   -1.1813    0.0071 H   0  0  0  0  0  0  0  0  0  0  0  0
    3.0867   -1.6587    0.0044 H   0  0  0  0  0  0  0  0  0  0  0  0
    7.8580   -1.6576   -0.0055 H   0  0  0  0  0  0  0  0  0  0  0  0
    6.7775    2.4939   -0.0069 H   0  0  0  0  0  0  0  0  0  0  0  0
    8.5133    0.7221   -0.0090 H   0  0  0  0  0  0  0  0  0  0  0  0
   -7.6180   -2.3917    0.9094 H   0  0  0  0  0  0  0  0  0  0  0  0
   -7.6147   -2.3964   -0.9097 H   0  0  0  0  0  0  0  0  0  0  0  0
   -9.0713   -2.0012   -0.0038 H   0  0  0  0  0  0  0  0  0  0  0  0
    6.1986   -3.0982   -0.0002 H   0  0  0  0  0  0  0  0  0  0  0  0
  1 11  1  0  0  0  0
  1 22  1  0  0  0  0
  2 14  2  0  0  0  0
  3 16  1  0  0  0  0
  3 39  1  0  0  0  0
  4  7  1  0  0  0  0
  4  8  1  0  0  0  0
  4 25  1  0  0  0  0
  5  6  1  0  0  0  0
  5 14  1  0  0  0  0
  5 31  1  0  0  0  0
  6 18  2  0  0  0  0
  7  9  2  0  0  0  0
  7 10  1  0  0  0  0
  8 14  1  0  0  0  0
  8 23  1  0  0  0  0
  8 24  1  0  0  0  0
  9 12  1  0  0  0  0
  9 26  1  0  0  0  0
 10 13  2  0  0  0  0
 10 27  1  0  0  0  0
 11 12  2  0  0  0  0
 11 13  1  0  0  0  0
 12 28  1  0  0  0  0
 13 29  1  0  0  0  0
 15 16  1  0  0  0  0
 15 17  2  0  0  0  0
 15 18  1  0  0  0  0
 16 19  2  0  0  0  0
 17 20  1  0  0  0  0
 17 30  1  0  0  0  0
 18 32  1  0  0  0  0
 19 21  1  0  0  0  0
 19 33  1  0  0  0  0
 20 21  2  0  0  0  0
 20 34  1  0  0  0  0
 21 35  1  0  0  0  0
 22 36  1  0  0  0  0
 22 37  1  0  0  0  0
 22 38  1  0  0  0  0
M  END
> <PUBCHEM_COMPOUND_CID>
586122

> <PUBCHEM_CONFORMER_RMSD>
0.8

> <PUBCHEM_CONFORMER_DIVERSEORDER>
1
29
7
32
31
26
8
20
23
28
14
30
15
9
17
27
21
2
3
18
24
11
6
25
5
16
19
4
12
22
10
13

> <PUBCHEM_MMFF94_PARTIAL_CHARGES>
34
1 -0.36
10 -0.15
11 0.08
12 -0.15
13 -0.15
14 0.57
15 0.09
16 0.08
17 -0.15
18 0.3
19 -0.15
2 -0.57
20 -0.15
21 -0.15
22 0.28
25 0.4
26 0.15
27 0.15
28 0.15
29 0.15
3 -0.53
30 0.15
31 0.37
32 0.06
33 0.15
34 0.15
35 0.15
39 0.45
4 -0.87
5 -0.37
6 -0.51
7 0.1
8 0.43
9 -0.15

> <PUBCHEM_EFFECTIVE_ROTOR_COUNT>
7

> <PUBCHEM_PHARMACOPHORE_FEATURES>
9
1 1 acceptor
1 2 acceptor
1 3 donor
1 4 cation
1 4 donor
1 5 donor
1 6 acceptor
6 15 16 17 19 20 21 rings
6 7 9 10 11 12 13 rings

> <PUBCHEM_HEAVY_ATOM_COUNT>
22

> <PUBCHEM_ATOM_DEF_STEREO_COUNT>
0

> <PUBCHEM_ATOM_UDEF_STEREO_COUNT>
0

> <PUBCHEM_BOND_DEF_STEREO_COUNT>
0

> <PUBCHEM_BOND_UDEF_STEREO_COUNT>
1

> <PUBCHEM_ISOTOPIC_ATOM_COUNT>
0

> <PUBCHEM_COMPONENT_COUNT>
1

> <PUBCHEM_CACTVS_TAUTO_COUNT>
8

> <PUBCHEM_CONFORMER_ID>
0008F18A00000001

> <PUBCHEM_MMFF94_ENERGY>
73.073

> <PUBCHEM_FEATURE_SELFOVERLAP>
45.674

> <PUBCHEM_SHAPE_FINGERPRINT>
10299344 5 18334293167051540339
10595046 47 18410854404115086752
11315181 36 18407758141212488057
11524674 6 16515687723934200727
11719270 70 18040718099643688910
12091667 2 17418091040523417597
12516196 113 18334014995015807560
13288520 33 18411419514827317941
13533116 47 17274831315606863850
13685833 64 18408884031780017313
13885169 127 18412545440409252765
13899415 154 17240482498945428680
13968360 50 14548746118181347504
14123256 10 17632579348551812915
14178184 131 18042967563486399231
14251764 18 18259703389408569447
14251764 46 17418656167228432673
14461889 52 18341054017607935786
14933364 13 18409729573423037476
15183329 4 15770057237239859804
15716309 27 18259705597090422391
15849732 13 18412545401126403869
18006028 8 18187085052851445585
18335252 98 18409728457047837282
20157964 124 18411135845190741394
21130935 74 18335419118419291746
21150785 3 17917993862851033761
21267235 1 18341891867143447569
21315763 28 18411982477043265840
220451 1 14779550105657331021
22896161 15 18410856546754900677
23035841 295 18410856572767362721
232437 2 18410855474184370446
23536379 177 18410292536129362144
23559900 14 18339085874514458129
33532 11 18410857680705972794
34797466 226 16950557758316984524
397830 11 14997431438646579422
4073 2 18059288765226936098
4325135 7 18412544297641672292
4463277 17 18410293622750962508
67123 10 18411136913656507213
8209 1 18410856555344828773
999808 66 18131059412906013315

> <PUBCHEM_SHAPE_MULTIPOLES>
420.2
26.83
1.8
0.59
3.72
0.38
0
6.99
-0.07
-0.11
0
0
0
0

> <PUBCHEM_SHAPE_SELFOVERLAP>
886.594

> <PUBCHEM_SHAPE_VOLUME>
235.2

> <PUBCHEM_COORDINATE_TYPE>
2
5
10

$$$$

