5283827
  -OEChem-07051213103D

 68 71  0     1  0  0  0  0  0999 V2000
   -1.5088    2.6071    0.3828 O   0  0  0  0  0  0  0  0  0  0  0  0
   -5.8301    0.5691    2.3151 O   0  0  0  0  0  0  0  0  0  0  0  0
    6.6888    1.0313    2.5358 O   0  0  0  0  0  0  0  0  0  0  0  0
    7.4189    0.8067    0.3974 O   0  0  0  0  0  0  0  0  0  0  0  0
    0.4089    0.6745   -0.5806 C   0  0  2  0  0  0  0  0  0  0  0  0
    1.1439   -0.6785   -0.6995 C   0  0  1  0  0  0  0  0  0  0  0  0
   -1.0941    0.5708   -0.8778 C   0  0  1  0  0  0  0  0  0  0  0  0
   -1.7301   -0.4297    0.1473 C   0  0  1  0  0  0  0  0  0  0  0  0
   -3.2852   -0.5762   -0.0639 C   0  0  2  0  0  0  0  0  0  0  0  0
    2.5885   -0.2012   -0.4107 C   0  0  2  0  0  0  0  0  0  0  0  0
   -3.9089    0.8533    0.0274 C   0  0  1  0  0  0  0  0  0  0  0  0
    0.5563   -1.6229    0.3580 C   0  0  0  0  0  0  0  0  0  0  0  0
   -0.9660   -1.7807    0.1954 C   0  0  0  0  0  0  0  0  0  0  0  0
   -1.7951    1.9432   -0.8482 C   0  0  1  0  0  0  0  0  0  0  0  0
    1.2620    1.6209   -1.4201 C   0  0  0  0  0  0  0  0  0  0  0  0
    2.7024    1.1213   -1.2041 C   0  0  0  0  0  0  0  0  0  0  0  0
   -3.3127    1.8177   -1.0094 C   0  0  0  0  0  0  0  0  0  0  0  0
   -3.9133   -1.4362    1.0696 C   0  0  0  0  0  0  0  0  0  0  0  0
    1.0436   -1.3349   -2.0992 C   0  0  0  0  0  0  0  0  0  0  0  0
    3.7078   -1.1817   -0.7306 C   0  0  1  0  0  0  0  0  0  0  0  0
   -5.4465    0.8425   -0.0390 C   0  0  0  0  0  0  0  0  0  0  0  0
   -3.5937   -1.2585   -1.4222 C   0  0  0  0  0  0  0  0  0  0  0  0
   -5.4474   -1.4506    1.0520 C   0  0  0  0  0  0  0  0  0  0  0  0
   -6.0517   -0.0481    1.0470 C   0  0  1  0  0  0  0  0  0  0  0  0
    5.0780   -0.5409   -0.4286 C   0  0  0  0  0  0  0  0  0  0  0  0
    3.5003   -2.4867    0.0451 C   0  0  0  0  0  0  0  0  0  0  0  0
    5.2285   -0.0598    1.0159 C   0  0  0  0  0  0  0  0  0  0  0  0
    6.5554    0.6284    1.2450 C   0  0  0  0  0  0  0  0  0  0  0  0
    0.5049    1.0225    0.4614 H   0  0  0  0  0  0  0  0  0  0  0  0
   -1.2233    0.1780   -1.8913 H   0  0  0  0  0  0  0  0  0  0  0  0
   -1.5906   -0.0003    1.1505 H   0  0  0  0  0  0  0  0  0  0  0  0
    2.6175    0.0491    0.6580 H   0  0  0  0  0  0  0  0  0  0  0  0
   -3.6629    1.2551    1.0204 H   0  0  0  0  0  0  0  0  0  0  0  0
    0.7624   -1.2411    1.3661 H   0  0  0  0  0  0  0  0  0  0  0  0
    0.9760   -2.6282    0.3109 H   0  0  0  0  0  0  0  0  0  0  0  0
   -1.1674   -2.3654   -0.7074 H   0  0  0  0  0  0  0  0  0  0  0  0
   -1.3278   -2.3814    1.0375 H   0  0  0  0  0  0  0  0  0  0  0  0
   -1.4066    2.5804   -1.6499 H   0  0  0  0  0  0  0  0  0  0  0  0
    1.1518    2.6627   -1.1024 H   0  0  0  0  0  0  0  0  0  0  0  0
    0.9943    1.5681   -2.4814 H   0  0  0  0  0  0  0  0  0  0  0  0
    3.1874    0.9826   -2.1771 H   0  0  0  0  0  0  0  0  0  0  0  0
    3.2875    1.8606   -0.6462 H   0  0  0  0  0  0  0  0  0  0  0  0
   -3.5571    1.4919   -2.0265 H   0  0  0  0  0  0  0  0  0  0  0  0
   -3.7658    2.8077   -0.8725 H   0  0  0  0  0  0  0  0  0  0  0  0
   -3.5770   -1.0586    2.0442 H   0  0  0  0  0  0  0  0  0  0  0  0
   -3.5660   -2.4740    1.0034 H   0  0  0  0  0  0  0  0  0  0  0  0
    1.5134   -0.7274   -2.8791 H   0  0  0  0  0  0  0  0  0  0  0  0
    1.5275   -2.3161   -2.1196 H   0  0  0  0  0  0  0  0  0  0  0  0
    0.0096   -1.5006   -2.4130 H   0  0  0  0  0  0  0  0  0  0  0  0
    3.7134   -1.4258   -1.8002 H   0  0  0  0  0  0  0  0  0  0  0  0
   -5.8122    1.8684    0.0967 H   0  0  0  0  0  0  0  0  0  0  0  0
   -5.7878    0.5132   -1.0264 H   0  0  0  0  0  0  0  0  0  0  0  0
   -3.1203   -0.7525   -2.2668 H   0  0  0  0  0  0  0  0  0  0  0  0
   -3.2500   -2.2981   -1.4312 H   0  0  0  0  0  0  0  0  0  0  0  0
   -4.6646   -1.2881   -1.6408 H   0  0  0  0  0  0  0  0  0  0  0  0
   -5.8022   -2.0049    0.1759 H   0  0  0  0  0  0  0  0  0  0  0  0
   -5.7949   -2.0013    1.9347 H   0  0  0  0  0  0  0  0  0  0  0  0
   -7.1362   -0.1096    0.9042 H   0  0  0  0  0  0  0  0  0  0  0  0
    5.8701   -1.2691   -0.6490 H   0  0  0  0  0  0  0  0  0  0  0  0
    5.2576    0.2957   -1.1153 H   0  0  0  0  0  0  0  0  0  0  0  0
   -1.7664    2.0439    1.1283 H   0  0  0  0  0  0  0  0  0  0  0  0
    3.1927   -2.3159    1.0813 H   0  0  0  0  0  0  0  0  0  0  0  0
    2.7882   -3.1471   -0.4535 H   0  0  0  0  0  0  0  0  0  0  0  0
    4.4383   -3.0539    0.0811 H   0  0  0  0  0  0  0  0  0  0  0  0
   -6.2453    0.0072    2.9914 H   0  0  0  0  0  0  0  0  0  0  0  0
    4.4669    0.6796    1.2759 H   0  0  0  0  0  0  0  0  0  0  0  0
    5.1631   -0.9065    1.7068 H   0  0  0  0  0  0  0  0  0  0  0  0
    7.5491    1.4758    2.6927 H   0  0  0  0  0  0  0  0  0  0  0  0
  1 14  1  0  0  0  0
  1 61  1  0  0  0  0
  2 24  1  0  0  0  0
  2 65  1  0  0  0  0
  3 28  1  0  0  0  0
  3 68  1  0  0  0  0
  4 28  2  0  0  0  0
  5  6  1  0  0  0  0
  5  7  1  0  0  0  0
  5 15  1  0  0  0  0
  5 29  1  0  0  0  0
  6 10  1  0  0  0  0
  6 12  1  0  0  0  0
  6 19  1  0  0  0  0
  7  8  1  0  0  0  0
  7 14  1  0  0  0  0
  7 30  1  0  0  0  0
  8  9  1  0  0  0  0
  8 13  1  0  0  0  0
  8 31  1  0  0  0  0
  9 11  1  0  0  0  0
  9 18  1  0  0  0  0
  9 22  1  0  0  0  0
 10 16  1  0  0  0  0
 10 20  1  0  0  0  0
 10 32  1  0  0  0  0
 11 17  1  0  0  0  0
 11 21  1  0  0  0  0
 11 33  1  0  0  0  0
 12 13  1  0  0  0  0
 12 34  1  0  0  0  0
 12 35  1  0  0  0  0
 13 36  1  0  0  0  0
 13 37  1  0  0  0  0
 14 17  1  0  0  0  0
 14 38  1  0  0  0  0
 15 16  1  0  0  0  0
 15 39  1  0  0  0  0
 15 40  1  0  0  0  0
 16 41  1  0  0  0  0
 16 42  1  0  0  0  0
 17 43  1  0  0  0  0
 17 44  1  0  0  0  0
 18 23  1  0  0  0  0
 18 45  1  0  0  0  0
 18 46  1  0  0  0  0
 19 47  1  0  0  0  0
 19 48  1  0  0  0  0
 19 49  1  0  0  0  0
 20 25  1  0  0  0  0
 20 26  1  0  0  0  0
 20 50  1  0  0  0  0
 21 24  1  0  0  0  0
 21 51  1  0  0  0  0
 21 52  1  0  0  0  0
 22 53  1  0  0  0  0
 22 54  1  0  0  0  0
 22 55  1  0  0  0  0
 23 24  1  0  0  0  0
 23 56  1  0  0  0  0
 23 57  1  0  0  0  0
 24 58  1  0  0  0  0
 25 27  1  0  0  0  0
 25 59  1  0  0  0  0
 25 60  1  0  0  0  0
 26 62  1  0  0  0  0
 26 63  1  0  0  0  0
 26 64  1  0  0  0  0
 27 28  1  0  0  0  0
 27 66  1  0  0  0  0
 27 67  1  0  0  0  0
M  END
> <PUBCHEM_COMPOUND_CID>
5283827

> <PUBCHEM_CONFORMER_RMSD>
0.8

> <PUBCHEM_CONFORMER_DIVERSEORDER>
3
5
6
1
4
2

> <PUBCHEM_MMFF94_PARTIAL_CHARGES>
11
1 -0.68
14 0.28
2 -0.68
24 0.28
27 0.06
28 0.66
3 -0.65
4 -0.57
61 0.4
65 0.4
68 0.5

> <PUBCHEM_EFFECTIVE_ROTOR_COUNT>
6.2

> <PUBCHEM_PHARMACOPHORE_FEATURES>
12
1 1 acceptor
1 1 donor
1 2 acceptor
1 2 donor
1 26 hydrophobe
1 3 acceptor
1 4 acceptor
3 3 4 28 anion
5 5 6 10 15 16 rings
6 5 6 7 8 12 13 rings
6 7 8 9 11 14 17 rings
6 9 11 18 21 23 24 rings

> <PUBCHEM_HEAVY_ATOM_COUNT>
28

> <PUBCHEM_ATOM_DEF_STEREO_COUNT>
10

> <PUBCHEM_ATOM_UDEF_STEREO_COUNT>
0

> <PUBCHEM_BOND_DEF_STEREO_COUNT>
0

> <PUBCHEM_BOND_UDEF_STEREO_COUNT>
0

> <PUBCHEM_ISOTOPIC_ATOM_COUNT>
0

> <PUBCHEM_COMPONENT_COUNT>
1

> <PUBCHEM_CACTVS_TAUTO_COUNT>
1

> <PUBCHEM_CONFORMER_ID>
00509FF300000003

> <PUBCHEM_MMFF94_ENERGY>
96.8401

> <PUBCHEM_FEATURE_SELFOVERLAP>
61.04

> <PUBCHEM_SHAPE_FINGERPRINT>
10 15 18342178843715015992
10554248 39 13840821240043038812
10693767 8 10519720964347395712
12035758 1 18412823573125629032
12166972 35 16056591032590156143
12403259 415 18188206606535890158
12596602 18 17530679909419720099
12838862 33 18201448004248636933
12892183 10 18338802324904746774
13140716 1 18127403458453083699
13540713 4 18125439966940498887
13668630 136 14117520947991908992
13782708 43 15410890747520124787
14251764 18 17275100605439640558
14341114 176 18341603871320016622
14528608 73 7492999644022733911
14840074 17 15285360604631251432
14849402 71 18128811946461628588
14856354 85 15068631456738517269
15131766 46 16081667577722503576
15196674 1 18272921709919026997
15575132 122 14779260934162211440
17349148 13 16988831804791328735
17980427 23 18260835847620054748
1813 80 16128371627730391494
19377110 9 18272083911875662136
20028762 73 18341888559281229611
2026 5 12535084048142862280
20567600 247 13901915509609691480
21033648 29 18187942706127764840
21130935 74 18261387884056899019
21267235 1 18201141243781505751
21637258 2 14764633006049922216
22122407 14 16588300545189093570
22182313 1 18265041625709536663
22224240 67 18040718056414239447
23402539 116 18412263930582128727
23522609 53 16198999864603634485
23559900 14 18272366464704697381
2838139 119 16226052171890483984
3004659 81 17561071515271658654
335352 9 18201711878380634877
3383291 50 17632573838262358138
350125 39 18272642446202017260
392239 28 18409166601783913505
4058900 60 4967623762409357397
4093350 32 17168416151864066398
4340502 62 18411702093436810306
5104073 3 18268713990404172258
6608658 132 4967342291627712331

> <PUBCHEM_SHAPE_MULTIPOLES>
552.75
15.77
2.18
1.67
12.61
0.17
0.45
0.62
10.35
-0.65
-0.26
0.77
0.08
1.07

> <PUBCHEM_SHAPE_SELFOVERLAP>
1158.612

> <PUBCHEM_SHAPE_VOLUME>
309.8

> <PUBCHEM_COORDINATE_TYPE>
2
5
10

$$$$

