230975
  -OEChem-07051213063D

 52 55  0     1  0  0  0  0  0999 V2000
   -4.5970   -0.9164    0.9283 O   0  0  0  0  0  0  0  0  0  0  0  0
    6.1831   -0.2478   -0.6463 O   0  0  0  0  0  0  0  0  0  0  0  0
   -2.2002   -0.4858    0.4880 C   0  0  1  0  0  0  0  0  0  0  0  0
   -1.5209    0.7578   -0.1278 C   0  0  2  0  0  0  0  0  0  0  0  0
   -0.0317    0.8447    0.2162 C   0  0  1  0  0  0  0  0  0  0  0  0
   -3.6830   -0.2357    0.0718 C   0  0  2  0  0  0  0  0  0  0  0  0
    0.6942   -0.4103   -0.3550 C   0  0  2  0  0  0  0  0  0  0  0  0
   -1.5095   -1.7320   -0.0899 C   0  0  0  0  0  0  0  0  0  0  0  0
   -2.4364    1.9043    0.2851 C   0  0  0  0  0  0  0  0  0  0  0  0
   -3.8511    1.2952    0.2670 C   0  0  0  0  0  0  0  0  0  0  0  0
    0.0146   -1.7125    0.1433 C   0  0  0  0  0  0  0  0  0  0  0  0
    0.6301    2.1039   -0.3402 C   0  0  0  0  0  0  0  0  0  0  0  0
   -2.1038   -0.5443    2.0413 C   0  0  0  0  0  0  0  0  0  0  0  0
    2.2083   -0.3325   -0.1347 C   0  0  0  0  0  0  0  0  0  0  0  0
   -4.0471   -0.6351   -1.3636 C   0  0  0  0  0  0  0  0  0  0  0  0
    2.0887    2.1729    0.1059 C   0  0  0  0  0  0  0  0  0  0  0  0
    2.8307    0.8547    0.0563 C   0  0  0  0  0  0  0  0  0  0  0  0
    2.9946   -1.6246   -0.2277 C   0  0  0  0  0  0  0  0  0  0  0  0
   -5.4720   -0.2447   -1.6948 C   0  0  0  0  0  0  0  0  0  0  0  0
    4.3242    1.0045    0.2045 C   0  0  0  0  0  0  0  0  0  0  0  0
    4.4188   -1.5490    0.3059 C   0  0  0  0  0  0  0  0  0  0  0  0
    5.0654   -0.2672   -0.1334 C   0  0  0  0  0  0  0  0  0  0  0  0
   -1.5797    0.6952   -1.2249 H   0  0  0  0  0  0  0  0  0  0  0  0
    0.0899    0.8706    1.3066 H   0  0  0  0  0  0  0  0  0  0  0  0
    0.5629   -0.4059   -1.4486 H   0  0  0  0  0  0  0  0  0  0  0  0
   -1.6718   -1.7955   -1.1723 H   0  0  0  0  0  0  0  0  0  0  0  0
   -1.9372   -2.6446    0.3421 H   0  0  0  0  0  0  0  0  0  0  0  0
   -2.3609    2.7517   -0.4044 H   0  0  0  0  0  0  0  0  0  0  0  0
   -2.1924    2.2732    1.2876 H   0  0  0  0  0  0  0  0  0  0  0  0
   -4.3570    1.5275    1.2123 H   0  0  0  0  0  0  0  0  0  0  0  0
   -4.4277    1.7953   -0.5122 H   0  0  0  0  0  0  0  0  0  0  0  0
    0.2369   -1.8696    1.2051 H   0  0  0  0  0  0  0  0  0  0  0  0
    0.4300   -2.5759   -0.3908 H   0  0  0  0  0  0  0  0  0  0  0  0
    0.1118    3.0069    0.0014 H   0  0  0  0  0  0  0  0  0  0  0  0
    0.5780    2.1037   -1.4367 H   0  0  0  0  0  0  0  0  0  0  0  0
   -2.5797   -1.4564    2.4205 H   0  0  0  0  0  0  0  0  0  0  0  0
   -1.0746   -0.5553    2.4077 H   0  0  0  0  0  0  0  0  0  0  0  0
   -2.6015    0.3029    2.5237 H   0  0  0  0  0  0  0  0  0  0  0  0
   -3.9730   -1.7243   -1.4704 H   0  0  0  0  0  0  0  0  0  0  0  0
   -3.3753   -0.1857   -2.1015 H   0  0  0  0  0  0  0  0  0  0  0  0
    2.1306    2.5461    1.1373 H   0  0  0  0  0  0  0  0  0  0  0  0
    2.5999    2.9141   -0.5205 H   0  0  0  0  0  0  0  0  0  0  0  0
   -5.4299   -0.4173    0.9631 H   0  0  0  0  0  0  0  0  0  0  0  0
    2.4994   -2.4216    0.3355 H   0  0  0  0  0  0  0  0  0  0  0  0
    3.0129   -1.9344   -1.2802 H   0  0  0  0  0  0  0  0  0  0  0  0
   -6.2023   -0.6475   -0.9874 H   0  0  0  0  0  0  0  0  0  0  0  0
   -5.6262    0.8322   -1.7850 H   0  0  0  0  0  0  0  0  0  0  0  0
   -5.7318   -0.6638   -2.6745 H   0  0  0  0  0  0  0  0  0  0  0  0
    4.6865    1.7834   -0.4764 H   0  0  0  0  0  0  0  0  0  0  0  0
    4.5748    1.2888    1.2318 H   0  0  0  0  0  0  0  0  0  0  0  0
    5.0038   -2.4010   -0.0556 H   0  0  0  0  0  0  0  0  0  0  0  0
    4.4298   -1.5743    1.4016 H   0  0  0  0  0  0  0  0  0  0  0  0
  1  6  1  0  0  0  0
  1 43  1  0  0  0  0
  2 22  2  0  0  0  0
  3  4  1  0  0  0  0
  3  6  1  0  0  0  0
  3  8  1  0  0  0  0
  3 13  1  0  0  0  0
  4  5  1  0  0  0  0
  4  9  1  0  0  0  0
  4 23  1  0  0  0  0
  5  7  1  0  0  0  0
  5 12  1  0  0  0  0
  5 24  1  0  0  0  0
  6 10  1  0  0  0  0
  6 15  1  0  0  0  0
  7 11  1  0  0  0  0
  7 14  1  0  0  0  0
  7 25  1  0  0  0  0
  8 11  1  0  0  0  0
  8 26  1  0  0  0  0
  8 27  1  0  0  0  0
  9 10  1  0  0  0  0
  9 28  1  0  0  0  0
  9 29  1  0  0  0  0
 10 30  1  0  0  0  0
 10 31  1  0  0  0  0
 11 32  1  0  0  0  0
 11 33  1  0  0  0  0
 12 16  1  0  0  0  0
 12 34  1  0  0  0  0
 12 35  1  0  0  0  0
 13 36  1  0  0  0  0
 13 37  1  0  0  0  0
 13 38  1  0  0  0  0
 14 17  2  0  0  0  0
 14 18  1  0  0  0  0
 15 19  1  0  0  0  0
 15 39  1  0  0  0  0
 15 40  1  0  0  0  0
 16 17  1  0  0  0  0
 16 41  1  0  0  0  0
 16 42  1  0  0  0  0
 17 20  1  0  0  0  0
 18 21  1  0  0  0  0
 18 44  1  0  0  0  0
 18 45  1  0  0  0  0
 19 46  1  0  0  0  0
 19 47  1  0  0  0  0
 19 48  1  0  0  0  0
 20 22  1  0  0  0  0
 20 49  1  0  0  0  0
 20 50  1  0  0  0  0
 21 22  1  0  0  0  0
 21 51  1  0  0  0  0
 21 52  1  0  0  0  0
M  END
> <PUBCHEM_COMPOUND_CID>
230975

> <PUBCHEM_CONFORMER_RMSD>
0.6

> <PUBCHEM_CONFORMER_DIVERSEORDER>
1

> <PUBCHEM_MMFF94_PARTIAL_CHARGES>
12
1 -0.68
14 -0.28
16 0.14
17 -0.28
18 0.14
2 -0.57
20 0.2
21 0.06
22 0.45
43 0.4
6 0.28
7 0.14

> <PUBCHEM_EFFECTIVE_ROTOR_COUNT>
3

> <PUBCHEM_PHARMACOPHORE_FEATURES>
8
1 1 acceptor
1 1 donor
1 19 hydrophobe
1 2 acceptor
5 3 4 6 9 10 rings
6 14 17 18 20 21 22 rings
6 3 4 5 7 8 11 rings
6 5 7 12 14 16 17 rings

> <PUBCHEM_HEAVY_ATOM_COUNT>
22

> <PUBCHEM_ATOM_DEF_STEREO_COUNT>
5

> <PUBCHEM_ATOM_UDEF_STEREO_COUNT>
0

> <PUBCHEM_BOND_DEF_STEREO_COUNT>
0

> <PUBCHEM_BOND_UDEF_STEREO_COUNT>
0

> <PUBCHEM_ISOTOPIC_ATOM_COUNT>
0

> <PUBCHEM_COMPONENT_COUNT>
1

> <PUBCHEM_CACTVS_TAUTO_COUNT>
8

> <PUBCHEM_CONFORMER_ID>
0003863F00000001

> <PUBCHEM_MMFF94_ENERGY>
66.9104

> <PUBCHEM_FEATURE_SELFOVERLAP>
40.685

> <PUBCHEM_SHAPE_FINGERPRINT>
10 15 18341058420287348976
10062212 137 18260832626710768337
10366900 7 18344145899701979320
11315181 36 18202560670796770528
11578080 2 16700061688563064678
11796584 16 16702306767433218986
12011746 2 18341897393843289060
12107183 9 17615684476613339202
12166972 35 17749390343248619312
12236239 1 17603587400618596493
12403259 226 18337677421188106825
12403259 415 17846502500380231557
12403260 363 18334862714138272185
128620 24 5472860359141600218
13140716 1 18193546775350528755
13533116 47 18114466643284827640
13583140 156 17346602945942037555
13862211 1 18408891754400474750
15099037 51 18342179968194470791
15196674 1 18410854403930242888
15375358 24 18343301461823693810
15536298 74 18334295362122739544
15788980 27 18113336422645789532
15848702 151 18186799222619518038
16945 1 18266447733308581489
17349148 13 17967531268118386606
17357779 13 18130520685697748949
17804303 29 18410006633162902840
18186145 218 17847065480414170161
18222031 100 18259710008164175622
192875 21 18260552195131821545
200 152 18113623382738848893
20028762 73 17822300054202939646
20645477 70 18341611482408012908
21029758 11 18408326587716518401
21033648 29 17845949458684474621
21236236 1 18338236071778934077
21267235 1 18410281519912794090
21279426 13 18127132093881823910
21285901 2 18201446929578242966
21521239 73 18263663792012030175
21637258 2 15647348390349599813
23402539 116 18260270763109954789
23557571 272 13984648287489552195
23559900 14 18338242544178598264
2871803 45 18271810150876343342
3004659 81 18130221671055782446
3286 77 17240773852003898601
335352 9 18410854374029171333
34797466 226 16443064950717569816
34934 24 18411421713607980418
350125 39 18410006667754905833
351380 180 18410014333759312905
4214541 1 18410290337064018912
4921388 177 15912749610035335584
5104073 3 18410009965899140000
5283173 99 17988092212846669421
602551 16 14996576031484663053
69090 78 18333734602186102670
9709674 26 18335976549482142894
9981440 41 17402058790326684312

> <PUBCHEM_SHAPE_MULTIPOLES>
441.01
11.25
2.03
1.11
4.7
0.51
0.13
-1.83
-2.58
0.56
0.06
-1.47
-0.22
-0.09

> <PUBCHEM_SHAPE_SELFOVERLAP>
941.787

> <PUBCHEM_SHAPE_VOLUME>
243.9

> <PUBCHEM_COORDINATE_TYPE>
2
5
10

$$$$

