15691
  -OEChem-07051212522D

 16 16  0     1  0  0  0  0  0999 V2000
    3.7320    1.5000    0.0000 Cl  0  0  0  0  0  0  0  0  0  0  0  0
    2.0000    0.5000    0.0000 Cl  0  0  0  0  0  0  0  0  0  0  0  0
    5.4641    0.5000    0.0000 Cl  0  0  0  0  0  0  0  0  0  0  0  0
    2.0000   -1.5000    0.0000 Cl  0  0  0  0  0  0  0  0  0  0  0  0
    3.7320    0.5000    0.0000 C   0  0  3  0  0  0  0  0  0  0  0  0
    2.8660    0.0000    0.0000 C   0  0  3  0  0  0  0  0  0  0  0  0
    4.5981    0.0000    0.0000 C   0  0  3  0  0  0  0  0  0  0  0  0
    2.8660   -1.0000    0.0000 C   0  0  3  0  0  0  0  0  0  0  0  0
    4.5981   -1.0000    0.0000 C   0  0  0  0  0  0  0  0  0  0  0  0
    3.7320   -1.5000    0.0000 C   0  0  0  0  0  0  0  0  0  0  0  0
    4.4682    0.9250    0.0000 H   0  0  0  0  0  0  0  0  0  0  0  0
    2.8660    0.8500    0.0000 H   0  0  0  0  0  0  0  0  0  0  0  0
    4.5981    0.8500    0.0000 H   0  0  0  0  0  0  0  0  0  0  0  0
    2.8660   -1.8500    0.0000 H   0  0  0  0  0  0  0  0  0  0  0  0
    5.1350   -1.3100    0.0000 H   0  0  0  0  0  0  0  0  0  0  0  0
    3.7320   -2.1200    0.0000 H   0  0  0  0  0  0  0  0  0  0  0  0
  1  5  1  0  0  0  0
  2  6  1  0  0  0  0
  3  7  1  0  0  0  0
  4  8  1  0  0  0  0
  5  6  1  0  0  0  0
  5  7  1  0  0  0  0
  5 11  1  0  0  0  0
  6  8  1  0  0  0  0
  6 12  1  0  0  0  0
  7  9  1  0  0  0  0
  7 13  1  0  0  0  0
  8 10  1  0  0  0  0
  8 14  1  0  0  0  0
  9 10  2  0  0  0  0
  9 15  1  0  0  0  0
 10 16  1  0  0  0  0
M  END
> <PUBCHEM_COMPOUND_CID>
15691

> <PUBCHEM_COMPOUND_CANONICALIZED>
1

> <PUBCHEM_CACTVS_COMPLEXITY>
129

> <PUBCHEM_CACTVS_HBOND_ACCEPTOR>
0

> <PUBCHEM_CACTVS_HBOND_DONOR>
0

> <PUBCHEM_CACTVS_ROTATABLE_BOND>
0

> <PUBCHEM_CACTVS_SUBSKEYS>
AAADcYBgAAAHAAAAAAAAAAAAAAAAAAAAAAAgAAAAAAAAAAAAAAAAGAIAAAAACAOAAEAAAAAAAACAACBCAAAAAAAgAAAICEAAAggAAAIBAQAAAAAAgAAIAAMAAAAAAAAAAAAAAAAAAAAAAAAAAAAAAAAAAA==

> <PUBCHEM_IUPAC_OPENEYE_NAME>
3,4,5,6-tetrachlorocyclohexene

> <PUBCHEM_IUPAC_CAS_NAME>
3,4,5,6-tetrachlorocyclohexene

> <PUBCHEM_IUPAC_NAME>
3,4,5,6-tetrachlorocyclohexene

> <PUBCHEM_IUPAC_SYSTEMATIC_NAME>
3,4,5,6-tetrakis(chloranyl)cyclohexene

> <PUBCHEM_IUPAC_TRADITIONAL_NAME>
3,4,5,6-tetrachlorocyclohexene

> <PUBCHEM_IUPAC_INCHI>
InChI=1S/C6H6Cl4/c7-3-1-2-4(8)6(10)5(3)9/h1-6H

> <PUBCHEM_IUPAC_INCHIKEY>
CHTOKGBXCBVHQO-UHFFFAOYSA-N

> <PUBCHEM_XLOGP3>
3.7

> <PUBCHEM_EXACT_MASS>
219.919411

> <PUBCHEM_MOLECULAR_FORMULA>
C6H6Cl4

> <PUBCHEM_MOLECULAR_WEIGHT>
219.92384

> <PUBCHEM_OPENEYE_CAN_SMILES>
C1=CC(C(C(C1Cl)Cl)Cl)Cl

> <PUBCHEM_OPENEYE_ISO_SMILES>
C1=CC(C(C(C1Cl)Cl)Cl)Cl

> <PUBCHEM_CACTVS_TPSA>
0

> <PUBCHEM_MONOISOTOPIC_WEIGHT>
217.922361

> <PUBCHEM_TOTAL_CHARGE>
0

> <PUBCHEM_HEAVY_ATOM_COUNT>
10

> <PUBCHEM_ATOM_DEF_STEREO_COUNT>
0

> <PUBCHEM_ATOM_UDEF_STEREO_COUNT>
4

> <PUBCHEM_BOND_DEF_STEREO_COUNT>
0

> <PUBCHEM_BOND_UDEF_STEREO_COUNT>
0

> <PUBCHEM_ISOTOPIC_ATOM_COUNT>
0

> <PUBCHEM_COMPONENT_COUNT>
1

> <PUBCHEM_CACTVS_TAUTO_COUNT>
1

> <PUBCHEM_COORDINATE_TYPE>
1
5
255

> <PUBCHEM_BONDANNOTATIONS>
5  11  3
6  12  3
7  13  3
8  14  3

$$$$

