247748
  -OEChem-07051213062D

 62 66  0     1  0  0  0  0  0999 V2000
   10.7333    2.3883    0.0000 O   0  0  0  0  0  0  0  0  0  0  0  0
    8.9770    0.4971    0.0000 C   0  0  1  0  0  0  0  0  0  0  0  0
    8.1110   -0.0029    0.0000 C   0  0  1  0  0  0  0  0  0  0  0  0
    8.9770    1.4971    0.0000 C   0  0  1  0  0  0  0  0  0  0  0  0
    7.2450    0.4971    0.0000 C   0  0  1  0  0  0  0  0  0  0  0  0
    6.3350   -0.0097    0.0000 C   0  0  2  0  0  0  0  0  0  0  0  0
    9.9233    1.8019    0.0000 C   0  0  2  0  0  0  0  0  0  0  0  0
    8.1110    1.9971    0.0000 C   0  0  0  0  0  0  0  0  0  0  0  0
    7.2450    1.4971    0.0000 C   0  0  0  0  0  0  0  0  0  0  0  0
    6.3270   -1.0513    0.0000 C   0  0  1  0  0  0  0  0  0  0  0  0
    9.9233    0.1924    0.0000 C   0  0  0  0  0  0  0  0  0  0  0  0
    8.1271   -1.0444    0.0000 C   0  0  0  0  0  0  0  0  0  0  0  0
   10.5069    0.9971    0.0000 C   0  0  0  0  0  0  0  0  0  0  0  0
    7.2290   -1.5721    0.0000 C   0  0  0  0  0  0  0  0  0  0  0  0
    5.4082    0.5544    0.0000 C   0  0  0  0  0  0  0  0  0  0  0  0
    8.9770    2.4971    0.0000 C   0  0  0  0  0  0  0  0  0  0  0  0
    5.3915   -1.6010    0.0000 C   0  0  0  0  0  0  0  0  0  0  0  0
    6.3427    0.9903    0.0000 C   0  0  0  0  0  0  0  0  0  0  0  0
    9.6159    2.7534    0.0000 C   0  0  0  0  0  0  0  0  0  0  0  0
    4.4603    0.0264    0.0000 C   0  0  0  0  0  0  0  0  0  0  0  0
    4.4519   -1.0585    0.0000 C   0  0  0  0  0  0  0  0  0  0  0  0
    3.5840   -1.5552    0.0000 C   0  0  0  0  0  0  0  0  0  0  0  0
    2.6720   -1.1450    0.0000 C   0  0  0  0  0  0  0  0  0  0  0  0
    3.4756   -2.5493    0.0000 C   0  0  0  0  0  0  0  0  0  0  0  0
    2.0000   -1.8855    0.0000 C   0  0  0  0  0  0  0  0  0  0  0  0
    2.4967   -2.7534    0.0000 C   0  0  0  0  0  0  0  0  0  0  0  0
    9.0670   -0.3481    0.0000 H   0  0  0  0  0  0  0  0  0  0  0  0
    8.8504   -0.4222    0.0000 H   0  0  0  0  0  0  0  0  0  0  0  0
    7.9811    0.9221    0.0000 H   0  0  0  0  0  0  0  0  0  0  0  0
    8.5096    2.4721    0.0000 H   0  0  0  0  0  0  0  0  0  0  0  0
    7.7125    2.4721    0.0000 H   0  0  0  0  0  0  0  0  0  0  0  0
    7.0329    2.0797    0.0000 H   0  0  0  0  0  0  0  0  0  0  0  0
    6.6344    1.3895    0.0000 H   0  0  0  0  0  0  0  0  0  0  0  0
    6.3302   -1.9013    0.0000 H   0  0  0  0  0  0  0  0  0  0  0  0
    9.6722   -0.3745    0.0000 H   0  0  0  0  0  0  0  0  0  0  0  0
   10.4606   -0.1168    0.0000 H   0  0  0  0  0  0  0  0  0  0  0  0
    8.3451   -1.6248    0.0000 H   0  0  0  0  0  0  0  0  0  0  0  0
    8.7362   -0.9289    0.0000 H   0  0  0  0  0  0  0  0  0  0  0  0
   10.9677    0.5824    0.0000 H   0  0  0  0  0  0  0  0  0  0  0  0
   10.9677    1.4119    0.0000 H   0  0  0  0  0  0  0  0  0  0  0  0
    6.8317   -2.0481    0.0000 H   0  0  0  0  0  0  0  0  0  0  0  0
    7.6300   -2.0450    0.0000 H   0  0  0  0  0  0  0  0  0  0  0  0
    5.8164    1.0210    0.0000 H   0  0  0  0  0  0  0  0  0  0  0  0
    5.0182    1.0364    0.0000 H   0  0  0  0  0  0  0  0  0  0  0  0
    9.5970    2.4971    0.0000 H   0  0  0  0  0  0  0  0  0  0  0  0
    8.9770    3.1171    0.0000 H   0  0  0  0  0  0  0  0  0  0  0  0
    8.3570    2.4971    0.0000 H   0  0  0  0  0  0  0  0  0  0  0  0
    4.9942   -2.0770    0.0000 H   0  0  0  0  0  0  0  0  0  0  0  0
    5.7925   -2.0739    0.0000 H   0  0  0  0  0  0  0  0  0  0  0  0
    6.9627    0.9855    0.0000 H   0  0  0  0  0  0  0  0  0  0  0  0
    6.3475    1.6102    0.0000 H   0  0  0  0  0  0  0  0  0  0  0  0
    5.7227    0.9950    0.0000 H   0  0  0  0  0  0  0  0  0  0  0  0
   10.2059    2.9440    0.0000 H   0  0  0  0  0  0  0  0  0  0  0  0
    9.4253    3.3434    0.0000 H   0  0  0  0  0  0  0  0  0  0  0  0
    9.0259    2.5629    0.0000 H   0  0  0  0  0  0  0  0  0  0  0  0
    4.2557    0.6117    0.0000 H   0  0  0  0  0  0  0  0  0  0  0  0
    3.8486   -0.0750    0.0000 H   0  0  0  0  0  0  0  0  0  0  0  0
   11.2993    2.1351    0.0000 H   0  0  0  0  0  0  0  0  0  0  0  0
    2.5454   -0.5380    0.0000 H   0  0  0  0  0  0  0  0  0  0  0  0
    3.9348   -2.9660    0.0000 H   0  0  0  0  0  0  0  0  0  0  0  0
    1.3836   -1.8183    0.0000 H   0  0  0  0  0  0  0  0  0  0  0  0
    2.2423   -3.3189    0.0000 H   0  0  0  0  0  0  0  0  0  0  0  0
  7  1  1  1  0  0  0
  1 58  1  0  0  0  0
  2  3  1  0  0  0  0
  2  4  1  0  0  0  0
  2 11  1  0  0  0  0
  2 27  1  6  0  0  0
  3  5  1  0  0  0  0
  3 12  1  0  0  0  0
  3 28  1  1  0  0  0
  4  7  1  0  0  0  0
  4  8  1  0  0  0  0
  4 16  1  1  0  0  0
  5  6  1  0  0  0  0
  5  9  1  0  0  0  0
  5 29  1  6  0  0  0
  6 10  1  0  0  0  0
  6 15  1  0  0  0  0
  6 18  1  1  0  0  0
  7 13  1  0  0  0  0
  7 19  1  0  0  0  0
  8  9  1  0  0  0  0
  8 30  1  0  0  0  0
  8 31  1  0  0  0  0
  9 32  1  0  0  0  0
  9 33  1  0  0  0  0
 10 14  1  0  0  0  0
 10 17  1  0  0  0  0
 10 34  1  6  0  0  0
 11 13  1  0  0  0  0
 11 35  1  0  0  0  0
 11 36  1  0  0  0  0
 12 14  1  0  0  0  0
 12 37  1  0  0  0  0
 12 38  1  0  0  0  0
 13 39  1  0  0  0  0
 13 40  1  0  0  0  0
 14 41  1  0  0  0  0
 14 42  1  0  0  0  0
 15 20  1  0  0  0  0
 15 43  1  0  0  0  0
 15 44  1  0  0  0  0
 16 45  1  0  0  0  0
 16 46  1  0  0  0  0
 16 47  1  0  0  0  0
 17 21  1  0  0  0  0
 17 48  1  0  0  0  0
 17 49  1  0  0  0  0
 18 50  1  0  0  0  0
 18 51  1  0  0  0  0
 18 52  1  0  0  0  0
 19 53  1  0  0  0  0
 19 54  1  0  0  0  0
 19 55  1  0  0  0  0
 20 21  1  0  0  0  0
 20 56  1  0  0  0  0
 20 57  1  0  0  0  0
 21 22  2  0  0  0  0
 22 23  1  0  0  0  0
 22 24  1  0  0  0  0
 23 25  2  0  0  0  0
 23 59  1  0  0  0  0
 24 26  2  0  0  0  0
 24 60  1  0  0  0  0
 25 26  1  0  0  0  0
 25 61  1  0  0  0  0
 26 62  1  0  0  0  0
M  END
> <PUBCHEM_COMPOUND_CID>
247748

> <PUBCHEM_COMPOUND_CANONICALIZED>
1

> <PUBCHEM_CACTVS_COMPLEXITY>
685

> <PUBCHEM_CACTVS_HBOND_ACCEPTOR>
1

> <PUBCHEM_CACTVS_HBOND_DONOR>
1

> <PUBCHEM_CACTVS_ROTATABLE_BOND>
0

> <PUBCHEM_CACTVS_SUBSKEYS>
AAADcfB4IAAAAAAAAAAAAAAAAAAAAYIAAAAwYMAAAAAAAGDAAAAAGgAACAAAD0SAgAACAAAAAgCAAiBCAAAAAAAgAAAICAAAAAgIAAIAAQAAQAAEgAAIgAOAwPAPgAAAAAAAAACAAAQAACAAAYAADAAAAA==

> <PUBCHEM_IUPAC_OPENEYE_NAME>
(5S,8R,9S,10S,13S,14S,17S)-3-cyclopenta-2,4-dien-1-ylidene-10,13,17-trimethyl-2,4,5,6,7,8,9,11,12,14,15,16-dodecahydro-1H-cyclopenta[a]phenanthren-17-ol

> <PUBCHEM_IUPAC_CAS_NAME>
(5S,8R,9S,10S,13S,14S,17S)-3-(1-cyclopenta-2,4-dienylidene)-10,13,17-trimethyl-2,4,5,6,7,8,9,11,12,14,15,16-dodecahydro-1H-cyclopenta[a]phenanthren-17-ol

> <PUBCHEM_IUPAC_NAME>
(5S,8R,9S,10S,13S,14S,17S)-3-cyclopenta-2,4-dien-1-ylidene-10,13,17-trimethyl-2,4,5,6,7,8,9,11,12,14,15,16-dodecahydro-1H-cyclopenta[a]phenanthren-17-ol

> <PUBCHEM_IUPAC_SYSTEMATIC_NAME>
(5S,8R,9S,10S,13S,14S,17S)-3-cyclopenta-2,4-dien-1-ylidene-10,13,17-trimethyl-2,4,5,6,7,8,9,11,12,14,15,16-dodecahydro-1H-cyclopenta[a]phenanthren-17-ol

> <PUBCHEM_IUPAC_TRADITIONAL_NAME>
(5S,8R,9S,10S,13S,14S,17S)-3-cyclopenta-2,4-dien-1-ylidene-10,13,17-trimethyl-2,4,5,6,7,8,9,11,12,14,15,16-dodecahydro-1H-cyclopenta[a]phenanthren-17-ol

> <PUBCHEM_IUPAC_INCHI>
InChI=1S/C25H36O/c1-23-13-10-18(17-6-4-5-7-17)16-19(23)8-9-20-21(23)11-14-24(2)22(20)12-15-25(24,3)26/h4-7,19-22,26H,8-16H2,1-3H3/t19-,20+,21-,22-,23-,24-,25-/m0/s1

> <PUBCHEM_IUPAC_INCHIKEY>
SIECXYXJFIDLDH-JNFBOQJPSA-N

> <PUBCHEM_XLOGP3_AA>
6.2

> <PUBCHEM_EXACT_MASS>
352.276616

> <PUBCHEM_MOLECULAR_FORMULA>
C25H36O

> <PUBCHEM_MOLECULAR_WEIGHT>
352.55274

> <PUBCHEM_OPENEYE_CAN_SMILES>
CC12CCC(=C3C=CC=C3)CC1CCC4C2CCC5(C4CCC5(C)O)C

> <PUBCHEM_OPENEYE_ISO_SMILES>
C[C@]12CCC(=C3C=CC=C3)C[C@@H]1CC[C@@H]4[C@@H]2CC[C@]5([C@H]4CC[C@]5(C)O)C

> <PUBCHEM_CACTVS_TPSA>
20.2

> <PUBCHEM_MONOISOTOPIC_WEIGHT>
352.276616

> <PUBCHEM_TOTAL_CHARGE>
0

> <PUBCHEM_HEAVY_ATOM_COUNT>
26

> <PUBCHEM_ATOM_DEF_STEREO_COUNT>
7

> <PUBCHEM_ATOM_UDEF_STEREO_COUNT>
0

> <PUBCHEM_BOND_DEF_STEREO_COUNT>
0

> <PUBCHEM_BOND_UDEF_STEREO_COUNT>
0

> <PUBCHEM_ISOTOPIC_ATOM_COUNT>
0

> <PUBCHEM_COMPONENT_COUNT>
1

> <PUBCHEM_CACTVS_TAUTO_COUNT>
1

> <PUBCHEM_COORDINATE_TYPE>
1
5
255

> <PUBCHEM_BONDANNOTATIONS>
7  1  5
10  34  6
2  27  6
3  28  5
4  16  5
5  29  6
6  18  5

$$$$

