15359
  -OEChem-07051213133D

 32 32  0     0  0  0  0  0  0999 V2000
    0.4820   -3.0311    0.0708 O   0  0  0  0  0  0  0  0  0  0  0  0
    1.4505    1.5248    0.1076 N   0  0  0  0  0  0  0  0  0  0  0  0
   -3.0020    0.0589   -0.0318 N   0  0  0  0  0  0  0  0  0  0  0  0
   -0.7856    0.8219    0.0379 N   0  0  0  0  0  0  0  0  0  0  0  0
    1.0029   -0.7770    0.0906 N   0  0  0  0  0  0  0  0  0  0  0  0
   -1.2752   -1.5271    0.0195 N   0  0  0  0  0  0  0  0  0  0  0  0
    2.8821    1.3189    0.1529 C   0  0  0  0  0  0  0  0  0  0  0  0
    3.5530    2.5749    0.6927 C   0  0  0  0  0  0  0  0  0  0  0  0
    3.3906    0.9732   -1.2407 C   0  0  0  0  0  0  0  0  0  0  0  0
    0.5288    0.4929    0.0778 C   0  0  0  0  0  0  0  0  0  0  0  0
   -1.6204   -0.2295    0.0107 C   0  0  0  0  0  0  0  0  0  0  0  0
   -3.5154    1.3928   -0.0460 C   0  0  0  0  0  0  0  0  0  0  0  0
    0.0523   -1.7248    0.0598 C   0  0  0  0  0  0  0  0  0  0  0  0
   -5.0302    1.3686   -0.1153 C   0  0  0  0  0  0  0  0  0  0  0  0
    1.8866   -3.2374    0.1135 C   0  0  0  0  0  0  0  0  0  0  0  0
    3.1269    0.4997    0.8407 H   0  0  0  0  0  0  0  0  0  0  0  0
    1.0847    2.4682    0.0479 H   0  0  0  0  0  0  0  0  0  0  0  0
    4.6378    2.4408    0.7585 H   0  0  0  0  0  0  0  0  0  0  0  0
    3.3565    3.4414    0.0511 H   0  0  0  0  0  0  0  0  0  0  0  0
    3.1806    2.8154    1.6947 H   0  0  0  0  0  0  0  0  0  0  0  0
    2.9488    0.0446   -1.6163 H   0  0  0  0  0  0  0  0  0  0  0  0
    4.4780    0.8424   -1.2345 H   0  0  0  0  0  0  0  0  0  0  0  0
    3.1502    1.7650   -1.9594 H   0  0  0  0  0  0  0  0  0  0  0  0
   -3.2084    1.9302    0.8586 H   0  0  0  0  0  0  0  0  0  0  0  0
   -3.1297    1.9424   -0.9124 H   0  0  0  0  0  0  0  0  0  0  0  0
   -3.6293   -0.7370   -0.0504 H   0  0  0  0  0  0  0  0  0  0  0  0
   -5.3750    0.8565   -1.0201 H   0  0  0  0  0  0  0  0  0  0  0  0
   -5.4557    0.8453    0.7477 H   0  0  0  0  0  0  0  0  0  0  0  0
   -5.4286    2.3880   -0.1270 H   0  0  0  0  0  0  0  0  0  0  0  0
    2.3738   -2.8170   -0.7728 H   0  0  0  0  0  0  0  0  0  0  0  0
    2.0690   -4.3161    0.1171 H   0  0  0  0  0  0  0  0  0  0  0  0
    2.3185   -2.8204    1.0296 H   0  0  0  0  0  0  0  0  0  0  0  0
  1 13  1  0  0  0  0
  1 15  1  0  0  0  0
  2  7  1  0  0  0  0
  2 10  1  0  0  0  0
  2 17  1  0  0  0  0
  3 11  1  0  0  0  0
  3 12  1  0  0  0  0
  3 26  1  0  0  0  0
  4 10  1  0  0  0  0
  4 11  2  0  0  0  0
  5 10  2  0  0  0  0
  5 13  1  0  0  0  0
  6 11  1  0  0  0  0
  6 13  2  0  0  0  0
  7  8  1  0  0  0  0
  7  9  1  0  0  0  0
  7 16  1  0  0  0  0
  8 18  1  0  0  0  0
  8 19  1  0  0  0  0
  8 20  1  0  0  0  0
  9 21  1  0  0  0  0
  9 22  1  0  0  0  0
  9 23  1  0  0  0  0
 12 14  1  0  0  0  0
 12 24  1  0  0  0  0
 12 25  1  0  0  0  0
 14 27  1  0  0  0  0
 14 28  1  0  0  0  0
 14 29  1  0  0  0  0
 15 30  1  0  0  0  0
 15 31  1  0  0  0  0
 15 32  1  0  0  0  0
M  END
> <PUBCHEM_COMPOUND_CID>
15359

> <PUBCHEM_CONFORMER_RMSD>
0.6

> <PUBCHEM_CONFORMER_DIVERSEORDER>
1
80
35
56
46
43
61
60
55
76
54
51
20
30
74
78
16
31
70
44
68
71
50
4
38
23
14
52
63
27
81
57
40
2
67
41
58
45
34
65
49
39
5
6
47
37
66
72
33
10
26
12
19
22
9
73
59
3
29
79
64
62
7
15
75
24
32
77
13
21
53
36
42
69
18
25
48
17
28
8
11

> <PUBCHEM_MMFF94_PARTIAL_CHARGES>
14
1 -0.36
10 0.72
11 0.72
12 0.37
13 0.7
15 0.28
17 0.4
2 -0.87
26 0.4
3 -0.87
4 -0.62
5 -0.62
6 -0.62
7 0.37

> <PUBCHEM_EFFECTIVE_ROTOR_COUNT>
5

> <PUBCHEM_PHARMACOPHORE_FEATURES>
6
1 2 donor
1 3 donor
3 7 8 9 hydrophobe
4 2 4 5 10 cation
4 3 4 6 11 cation
6 4 5 6 10 11 13 rings

> <PUBCHEM_HEAVY_ATOM_COUNT>
15

> <PUBCHEM_ATOM_DEF_STEREO_COUNT>
0

> <PUBCHEM_ATOM_UDEF_STEREO_COUNT>
0

> <PUBCHEM_BOND_DEF_STEREO_COUNT>
0

> <PUBCHEM_BOND_UDEF_STEREO_COUNT>
0

> <PUBCHEM_ISOTOPIC_ATOM_COUNT>
0

> <PUBCHEM_COMPONENT_COUNT>
1

> <PUBCHEM_CACTVS_TAUTO_COUNT>
9

> <PUBCHEM_CONFORMER_ID>
00003BFF00000001

> <PUBCHEM_MMFF94_ENERGY>
40.0748

> <PUBCHEM_FEATURE_SELFOVERLAP>
30.488

> <PUBCHEM_SHAPE_FINGERPRINT>
10465860 228 18337669840581112593
10726558 24 18412537700102485092
11543360 7 16008753455178140389
12173636 292 18123471583402524004
12500047 106 18192993717160645804
12532896 13 18265054643691807732
12644460 14 18269264828401956899
12730499 353 18411129247899545761
13294875 104 18114760277645983680
13380535 21 18413100671905302027
13380535 76 18342460326801522331
13955234 65 18338796840089078811
14123255 52 18410014308253714505
17134986 127 18411981334460672004
1741750 31 18338520711988156544
18186145 218 18115292398192590392
20510252 161 18045776780406063793
20645476 183 17986380097612130292
20645477 56 18120650236771593216
20645477 70 18268998755684475391
20671657 1 18336265764116118607
212916 134 18117298989860072064
21499 59 18411146809725562957
21524375 3 18271816670167180851
23402539 116 17757843225276195079
23419403 2 17482503781056714674
23526113 38 17605266277559511504
25 1 18411418427440988885
2748010 2 18339909425228233054
305870 269 18411983546178639347
3071541 12 18337390568579466963
3071541 158 17910957168521311086
3071541 250 18048872197764847710
3071541 37 18341326790231739885
3091708 16 9118098720596791315
43471831 8 18341335483145859434
5104073 3 18270111448778120561
633830 44 18259703380560789469
7364860 26 18265616657126275434
81228 2 17472416552130072962
81539 233 18273216421615717501
84936 182 18187931715417523089
88987 49 17980191994763755396

> <PUBCHEM_SHAPE_MULTIPOLES>
277.92
7.07
3.39
0.74
6.66
2.88
-0.12
-6.58
-0.52
-2.88
0.43
-0.52
-0.22
0.24

> <PUBCHEM_SHAPE_SELFOVERLAP>
549.476

> <PUBCHEM_SHAPE_VOLUME>
163

> <PUBCHEM_COORDINATE_TYPE>
2
5
10

$$$$

