441724
  -OEChem-07051212553D

 75 81  0     1  0  0  0  0  0999 V2000
    0.3554    1.0782    2.4013 O   0  0  0  0  0  0  0  0  0  0  0  0
    1.9124    2.1916    1.0316 O   0  0  0  0  0  0  0  0  0  0  0  0
   -0.4341    2.8141   -0.2192 O   0  0  0  0  0  0  0  0  0  0  0  0
   -0.7378   -2.9795   -1.2249 O   0  0  0  0  0  0  0  0  0  0  0  0
    3.9688    1.3553   -1.1821 O   0  0  0  0  0  0  0  0  0  0  0  0
    4.6395   -1.2572    0.3326 O   0  0  0  0  0  0  0  0  0  0  0  0
   -4.1563    1.9995   -1.2016 O   0  0  0  0  0  0  0  0  0  0  0  0
   -1.5584   -1.1730    1.5002 N   0  0  2  0  0  0  0  0  0  0  0  0
   -0.7018   -0.5479   -0.7566 C   0  0  1  0  0  0  0  0  0  0  0  0
    0.1708    0.7054    1.0398 C   0  0  2  0  0  0  0  0  0  0  0  0
   -0.3635   -0.7273    0.7561 C   0  0  1  0  0  0  0  0  0  0  0  0
   -1.6344    0.7154   -0.6242 C   0  0  2  0  0  0  0  0  0  0  0  0
    0.6178   -0.2072   -1.5900 C   0  0  1  0  0  0  0  0  0  0  0  0
    1.5883    0.8993    0.4711 C   0  0  1  0  0  0  0  0  0  0  0  0
    1.5443    0.9248   -1.0624 C   0  0  1  0  0  0  0  0  0  0  0  0
   -0.9119    1.6308    0.3979 C   0  0  2  0  0  0  0  0  0  0  0  0
   -3.0019    0.2823   -0.0077 C   0  0  2  0  0  0  0  0  0  0  0  0
   -1.4262   -1.7516   -1.4564 C   0  0  2  0  0  0  0  0  0  0  0  0
    1.6043   -1.3857   -1.8046 C   0  0  0  0  0  0  0  0  0  0  0  0
    2.9950   -0.8811   -1.3965 C   0  0  1  0  0  0  0  0  0  0  0  0
    2.8947    0.6031   -1.7053 C   0  0  2  0  0  0  0  0  0  0  0  0
    2.6732   -0.0659    1.0458 C   0  0  0  0  0  0  0  0  0  0  0  0
   -2.7458   -0.3084    1.4167 C   0  0  0  0  0  0  0  0  0  0  0  0
    3.2310   -1.1405    0.1008 C   0  0  2  0  0  0  0  0  0  0  0  0
   -3.6775   -0.7441   -0.9372 C   0  0  0  0  0  0  0  0  0  0  0  0
   -2.8786   -2.0153   -1.0798 C   0  0  0  0  0  0  0  0  0  0  0  0
   -3.9754    1.4783    0.0955 C   0  0  0  0  0  0  0  0  0  0  0  0
    1.2887    2.1697    2.3301 C   0  0  0  0  0  0  0  0  0  0  0  0
   -1.2699   -1.5628    2.8746 C   0  0  0  0  0  0  0  0  0  0  0  0
   -2.4460   -2.2972    3.4954 C   0  0  0  0  0  0  0  0  0  0  0  0
   -1.2731   -4.0288   -2.0165 C   0  0  0  0  0  0  0  0  0  0  0  0
    3.8457    2.7414   -1.4884 C   0  0  0  0  0  0  0  0  0  0  0  0
    4.9073   -1.6300    1.6733 C   0  0  0  0  0  0  0  0  0  0  0  0
   -5.0447    3.1142   -1.2093 C   0  0  0  0  0  0  0  0  0  0  0  0
    0.4127   -1.4883    0.8799 H   0  0  0  0  0  0  0  0  0  0  0  0
   -1.7665    1.1981   -1.5993 H   0  0  0  0  0  0  0  0  0  0  0  0
    0.2796    0.1041   -2.5901 H   0  0  0  0  0  0  0  0  0  0  0  0
    1.2154    1.8942   -1.4427 H   0  0  0  0  0  0  0  0  0  0  0  0
   -1.5642    2.0027    1.1904 H   0  0  0  0  0  0  0  0  0  0  0  0
   -1.4065   -1.5370   -2.5349 H   0  0  0  0  0  0  0  0  0  0  0  0
    1.3673   -2.2897   -1.2472 H   0  0  0  0  0  0  0  0  0  0  0  0
    1.6061   -1.6561   -2.8681 H   0  0  0  0  0  0  0  0  0  0  0  0
    3.7838   -1.3612   -1.9865 H   0  0  0  0  0  0  0  0  0  0  0  0
    2.8498    0.7451   -2.7944 H   0  0  0  0  0  0  0  0  0  0  0  0
    3.5052    0.5675    1.3852 H   0  0  0  0  0  0  0  0  0  0  0  0
    2.3130   -0.5508    1.9627 H   0  0  0  0  0  0  0  0  0  0  0  0
   -2.6692    0.5000    2.1549 H   0  0  0  0  0  0  0  0  0  0  0  0
   -3.6435   -0.8755    1.6925 H   0  0  0  0  0  0  0  0  0  0  0  0
    2.7882   -2.1113    0.3583 H   0  0  0  0  0  0  0  0  0  0  0  0
   -4.6780   -0.9984   -0.5641 H   0  0  0  0  0  0  0  0  0  0  0  0
   -3.8216   -0.3184   -1.9389 H   0  0  0  0  0  0  0  0  0  0  0  0
   -3.3721   -2.6186   -1.8527 H   0  0  0  0  0  0  0  0  0  0  0  0
   -2.9521   -2.6171   -0.1656 H   0  0  0  0  0  0  0  0  0  0  0  0
   -3.5993    2.2630    0.7595 H   0  0  0  0  0  0  0  0  0  0  0  0
   -4.9407    1.1446    0.4976 H   0  0  0  0  0  0  0  0  0  0  0  0
    0.7642    3.1162    2.4920 H   0  0  0  0  0  0  0  0  0  0  0  0
    2.0516    2.0418    3.1038 H   0  0  0  0  0  0  0  0  0  0  0  0
   -1.1989    3.2702   -0.6100 H   0  0  0  0  0  0  0  0  0  0  0  0
   -1.0117   -0.7035    3.5023 H   0  0  0  0  0  0  0  0  0  0  0  0
   -0.4106   -2.2444    2.8897 H   0  0  0  0  0  0  0  0  0  0  0  0
   -3.2814   -1.6286    3.7251 H   0  0  0  0  0  0  0  0  0  0  0  0
   -2.8057   -3.1042    2.8478 H   0  0  0  0  0  0  0  0  0  0  0  0
   -2.1360   -2.7517    4.4429 H   0  0  0  0  0  0  0  0  0  0  0  0
   -2.1700   -4.4566   -1.5594 H   0  0  0  0  0  0  0  0  0  0  0  0
   -1.4663   -3.7149   -3.0475 H   0  0  0  0  0  0  0  0  0  0  0  0
   -0.5255   -4.8275   -2.0496 H   0  0  0  0  0  0  0  0  0  0  0  0
    4.7497    3.2433   -1.1319 H   0  0  0  0  0  0  0  0  0  0  0  0
    3.7774    2.8911   -2.5705 H   0  0  0  0  0  0  0  0  0  0  0  0
    2.9904    3.2029   -0.9922 H   0  0  0  0  0  0  0  0  0  0  0  0
    4.2836   -2.4706    1.9948 H   0  0  0  0  0  0  0  0  0  0  0  0
    4.8042   -0.7902    2.3653 H   0  0  0  0  0  0  0  0  0  0  0  0
    5.9512   -1.9551    1.7229 H   0  0  0  0  0  0  0  0  0  0  0  0
   -5.1451    3.4653   -2.2397 H   0  0  0  0  0  0  0  0  0  0  0  0
   -6.0318    2.8184   -0.8414 H   0  0  0  0  0  0  0  0  0  0  0  0
   -4.6410    3.9279   -0.5992 H   0  0  0  0  0  0  0  0  0  0  0  0
  1 10  1  0  0  0  0
  1 28  1  0  0  0  0
  2 14  1  0  0  0  0
  2 28  1  0  0  0  0
  3 16  1  0  0  0  0
  3 58  1  0  0  0  0
  4 18  1  0  0  0  0
  4 31  1  0  0  0  0
  5 21  1  0  0  0  0
  5 32  1  0  0  0  0
  6 24  1  0  0  0  0
  6 33  1  0  0  0  0
  7 27  1  0  0  0  0
  7 34  1  0  0  0  0
  8 11  1  0  0  0  0
  8 23  1  0  0  0  0
  8 29  1  0  0  0  0
  9 11  1  0  0  0  0
  9 12  1  0  0  0  0
  9 13  1  0  0  0  0
  9 18  1  0  0  0  0
 10 11  1  0  0  0  0
 10 14  1  0  0  0  0
 10 16  1  0  0  0  0
 11 35  1  0  0  0  0
 12 16  1  0  0  0  0
 12 17  1  0  0  0  0
 12 36  1  0  0  0  0
 13 15  1  0  0  0  0
 13 19  1  0  0  0  0
 13 37  1  0  0  0  0
 14 15  1  0  0  0  0
 14 22  1  0  0  0  0
 15 21  1  0  0  0  0
 15 38  1  0  0  0  0
 16 39  1  0  0  0  0
 17 23  1  0  0  0  0
 17 25  1  0  0  0  0
 17 27  1  0  0  0  0
 18 26  1  0  0  0  0
 18 40  1  0  0  0  0
 19 20  1  0  0  0  0
 19 41  1  0  0  0  0
 19 42  1  0  0  0  0
 20 21  1  0  0  0  0
 20 24  1  0  0  0  0
 20 43  1  0  0  0  0
 21 44  1  0  0  0  0
 22 24  1  0  0  0  0
 22 45  1  0  0  0  0
 22 46  1  0  0  0  0
 23 47  1  0  0  0  0
 23 48  1  0  0  0  0
 24 49  1  0  0  0  0
 25 26  1  0  0  0  0
 25 50  1  0  0  0  0
 25 51  1  0  0  0  0
 26 52  1  0  0  0  0
 26 53  1  0  0  0  0
 27 54  1  0  0  0  0
 27 55  1  0  0  0  0
 28 56  1  0  0  0  0
 28 57  1  0  0  0  0
 29 30  1  0  0  0  0
 29 59  1  0  0  0  0
 29 60  1  0  0  0  0
 30 61  1  0  0  0  0
 30 62  1  0  0  0  0
 30 63  1  0  0  0  0
 31 64  1  0  0  0  0
 31 65  1  0  0  0  0
 31 66  1  0  0  0  0
 32 67  1  0  0  0  0
 32 68  1  0  0  0  0
 32 69  1  0  0  0  0
 33 70  1  0  0  0  0
 33 71  1  0  0  0  0
 33 72  1  0  0  0  0
 34 73  1  0  0  0  0
 34 74  1  0  0  0  0
 34 75  1  0  0  0  0
M  END
> <PUBCHEM_COMPOUND_CID>
441724

> <PUBCHEM_CONFORMER_RMSD>
1

> <PUBCHEM_CONFORMER_DIVERSEORDER>
1

> <PUBCHEM_MMFF94_PARTIAL_CHARGES>
24
1 -0.56
10 0.28
11 0.27
14 0.28
16 0.28
18 0.28
2 -0.56
21 0.28
23 0.27
24 0.28
27 0.28
28 0.56
29 0.27
3 -0.68
31 0.28
32 0.28
33 0.28
34 0.28
4 -0.56
5 -0.56
58 0.4
6 -0.56
7 -0.56
8 -0.81

> <PUBCHEM_EFFECTIVE_ROTOR_COUNT>
8.6

> <PUBCHEM_PHARMACOPHORE_FEATURES>
14
1 1 acceptor
1 2 acceptor
1 3 acceptor
1 3 donor
1 4 acceptor
1 5 acceptor
1 6 acceptor
1 7 acceptor
1 8 cation
5 1 2 10 14 28 rings
6 9 12 17 18 25 26 rings
8 13 14 15 19 20 21 22 24 rings
8 8 9 10 11 12 16 17 23 rings
8 9 10 11 12 13 14 15 16 rings

> <PUBCHEM_HEAVY_ATOM_COUNT>
34

> <PUBCHEM_ATOM_DEF_STEREO_COUNT>
12

> <PUBCHEM_ATOM_UDEF_STEREO_COUNT>
1

> <PUBCHEM_BOND_DEF_STEREO_COUNT>
0

> <PUBCHEM_BOND_UDEF_STEREO_COUNT>
0

> <PUBCHEM_ISOTOPIC_ATOM_COUNT>
0

> <PUBCHEM_COMPONENT_COUNT>
1

> <PUBCHEM_CACTVS_TAUTO_COUNT>
1

> <PUBCHEM_CONFORMER_ID>
0006BD7C00000001

> <PUBCHEM_MMFF94_ENERGY>
193.0333

> <PUBCHEM_FEATURE_SELFOVERLAP>
72.677

> <PUBCHEM_SHAPE_FINGERPRINT>
107951 10 17916855933025865523
10863032 1 17774708780321261696
10906281 52 17385724703424464608
10930396 42 17538046732690592714
10948715 1 18202838855390825789
11578080 2 18262816068215172584
12035758 1 18113626719912542569
12156800 1 16531239378983449671
12173636 292 17489582351370112333
12553582 1 17459169872483173616
12633257 1 17822004255504787219
13140716 1 17677902235924910658
13224815 77 15791723088311634022
133893 2 17826224095306517072
13583140 156 18128521696528452528
14223421 5 17244708853642833542
14955137 171 11166499968727987133
15219462 58 17771357374095504688
15664445 248 17111585389295431703
16945 1 17676475151283403217
17349148 13 16588024597671728922
20600515 1 17458348550218926960
20691752 17 17614286563253121023
20715895 44 18120940761344623765
20905425 154 17101725033109756182
229495 10 17979606001666790248
23419403 2 16458799804183103850
23559900 14 17895184563253497654
27425 322 17917716781837519965
3380486 77 18042122218862318942
469060 322 17474942134581469475

> <PUBCHEM_SHAPE_MULTIPOLES>
653.64
7.6
3.48
2.74
1.44
0.36
-1.87
-2.36
1.21
-1.77
1.02
-0.41
1.47
0.26

> <PUBCHEM_SHAPE_SELFOVERLAP>
1442.454

> <PUBCHEM_SHAPE_VOLUME>
345.4

> <PUBCHEM_COORDINATE_TYPE>
2
5
10

$$$$

