656565
  -OEChem-07051212552D

 53 55  0     1  0  0  0  0  0999 V2000
    6.2781    0.5112    0.0000 S   0  0  0  0  0  0  0  0  0  0  0  0
    8.2816   -1.7217    0.0000 S   0  0  0  0  0  0  0  0  0  0  0  0
    4.6318    1.0493    0.0000 O   0  0  0  0  0  0  0  0  0  0  0  0
    5.5637    3.9008    0.0000 O   0  0  0  0  0  0  0  0  0  0  0  0
    3.6067    3.4884    0.0000 O   0  0  0  0  0  0  0  0  0  0  0  0
    6.8994    2.4122    0.0000 O   0  0  0  0  0  0  0  0  0  0  0  0
    2.6747    0.6368    0.0000 O   0  0  0  0  0  0  0  0  0  0  0  0
    4.9889   -4.1561    0.0000 O   0  0  0  0  0  0  0  0  0  0  0  0
    7.6138   -0.9774    0.0000 O   0  0  0  0  0  0  0  0  0  0  0  0
    8.9495   -2.4660    0.0000 O   0  0  0  0  0  0  0  0  0  0  0  0
    7.5373   -2.3896    0.0000 O   0  0  0  0  0  0  0  0  0  0  0  0
    9.0259   -1.0539    0.0000 O   0  0  0  0  0  0  0  0  0  0  0  0
    4.6783   -3.2056    0.0000 N   0  0  0  0  0  0  0  0  0  0  0  0
    6.6353   -1.1836    0.0000 N   0  0  0  0  0  0  0  0  0  0  0  0
    5.2531    2.9503    0.0000 C   0  0  1  0  0  0  0  0  0  0  0  0
    4.2746    2.7441    0.0000 C   0  0  1  0  0  0  0  0  0  0  0  0
    5.9209    2.2060    0.0000 C   0  0  2  0  0  0  0  0  0  0  0  0
    3.9639    1.7936    0.0000 C   0  0  1  0  0  0  0  0  0  0  0  0
    5.6103    1.2555    0.0000 C   0  0  2  0  0  0  0  0  0  0  0  0
    2.9854    1.5873    0.0000 C   0  0  0  0  0  0  0  0  0  0  0  0
    5.9674   -0.4393    0.0000 C   0  0  0  0  0  0  0  0  0  0  0  0
    4.9889   -0.6456    0.0000 C   0  0  0  0  0  0  0  0  0  0  0  0
    4.6783   -1.5961    0.0000 C   0  0  0  0  0  0  0  0  0  0  0  0
    3.7320   -1.9008    0.0000 C   0  0  0  0  0  0  0  0  0  0  0  0
    3.7320   -2.9008    0.0000 C   0  0  0  0  0  0  0  0  0  0  0  0
    5.2619   -2.4008    0.0000 C   0  0  0  0  0  0  0  0  0  0  0  0
    2.8660   -1.4008    0.0000 C   0  0  0  0  0  0  0  0  0  0  0  0
    2.8660   -3.4008    0.0000 C   0  0  0  0  0  0  0  0  0  0  0  0
    2.0000   -1.9008    0.0000 C   0  0  0  0  0  0  0  0  0  0  0  0
    2.0000   -2.9008    0.0000 C   0  0  0  0  0  0  0  0  0  0  0  0
    5.9674   -4.3623    0.0000 C   0  0  0  0  0  0  0  0  0  0  0  0
    4.8390    3.4118    0.0000 H   0  0  0  0  0  0  0  0  0  0  0  0
    4.4672    3.3334    0.0000 H   0  0  0  0  0  0  0  0  0  0  0  0
    6.1135    2.7953    0.0000 H   0  0  0  0  0  0  0  0  0  0  0  0
    3.7713    1.2042    0.0000 H   0  0  0  0  0  0  0  0  0  0  0  0
    6.2169    1.3833    0.0000 H   0  0  0  0  0  0  0  0  0  0  0  0
    2.9648    2.2070    0.0000 H   0  0  0  0  0  0  0  0  0  0  0  0
    2.3716    1.6747    0.0000 H   0  0  0  0  0  0  0  0  0  0  0  0
    5.1497    4.3623    0.0000 H   0  0  0  0  0  0  0  0  0  0  0  0
    3.0000    3.3605    0.0000 H   0  0  0  0  0  0  0  0  0  0  0  0
    7.3135    1.9508    0.0000 H   0  0  0  0  0  0  0  0  0  0  0  0
    4.9684   -0.0259    0.0000 H   0  0  0  0  0  0  0  0  0  0  0  0
    4.3751   -0.5582    0.0000 H   0  0  0  0  0  0  0  0  0  0  0  0
    2.0681    0.5090    0.0000 H   0  0  0  0  0  0  0  0  0  0  0  0
    5.8819   -2.4008    0.0000 H   0  0  0  0  0  0  0  0  0  0  0  0
    2.8660   -0.7808    0.0000 H   0  0  0  0  0  0  0  0  0  0  0  0
    2.8660   -4.0208    0.0000 H   0  0  0  0  0  0  0  0  0  0  0  0
    1.4631   -1.5908    0.0000 H   0  0  0  0  0  0  0  0  0  0  0  0
    1.4631   -3.2108    0.0000 H   0  0  0  0  0  0  0  0  0  0  0  0
    5.8396   -4.9690    0.0000 H   0  0  0  0  0  0  0  0  0  0  0  0
    6.5741   -4.4901    0.0000 H   0  0  0  0  0  0  0  0  0  0  0  0
    6.0953   -3.7556    0.0000 H   0  0  0  0  0  0  0  0  0  0  0  0
    8.7569   -3.0553    0.0000 H   0  0  0  0  0  0  0  0  0  0  0  0
 19  1  1  6  0  0  0
  1 21  1  0  0  0  0
  2  9  1  0  0  0  0
  2 10  1  0  0  0  0
  2 11  2  0  0  0  0
  2 12  2  0  0  0  0
  3 18  1  0  0  0  0
  3 19  1  0  0  0  0
 15  4  1  6  0  0  0
  4 39  1  0  0  0  0
 16  5  1  1  0  0  0
  5 40  1  0  0  0  0
 17  6  1  1  0  0  0
  6 41  1  0  0  0  0
  7 20  1  0  0  0  0
  7 44  1  0  0  0  0
  8 13  1  0  0  0  0
  8 31  1  0  0  0  0
  9 14  1  0  0  0  0
 10 53  1  0  0  0  0
 13 25  1  0  0  0  0
 13 26  1  0  0  0  0
 14 21  2  3  0  0  0
 15 16  1  0  0  0  0
 15 17  1  0  0  0  0
 15 32  1  0  0  0  0
 16 18  1  0  0  0  0
 16 33  1  0  0  0  0
 17 19  1  0  0  0  0
 17 34  1  0  0  0  0
 18 20  1  6  0  0  0
 18 35  1  0  0  0  0
 19 36  1  0  0  0  0
 20 37  1  0  0  0  0
 20 38  1  0  0  0  0
 21 22  1  0  0  0  0
 22 23  1  0  0  0  0
 22 42  1  0  0  0  0
 22 43  1  0  0  0  0
 23 24  1  0  0  0  0
 23 26  2  0  0  0  0
 24 25  1  0  0  0  0
 24 27  2  0  0  0  0
 25 28  2  0  0  0  0
 26 45  1  0  0  0  0
 27 29  1  0  0  0  0
 27 46  1  0  0  0  0
 28 30  1  0  0  0  0
 28 47  1  0  0  0  0
 29 30  2  0  0  0  0
 29 48  1  0  0  0  0
 30 49  1  0  0  0  0
 31 50  1  0  0  0  0
 31 51  1  0  0  0  0
 31 52  1  0  0  0  0
M  END
> <PUBCHEM_COMPOUND_CID>
656565

> <PUBCHEM_COMPOUND_CANONICALIZED>
1

> <PUBCHEM_CACTVS_COMPLEXITY>
733

> <PUBCHEM_CACTVS_HBOND_ACCEPTOR>
12

> <PUBCHEM_CACTVS_HBOND_DONOR>
5

> <PUBCHEM_CACTVS_ROTATABLE_BOND>
8

> <PUBCHEM_CACTVS_SUBSKEYS>
AAADceB7PABgAAAAAAAAAAAAAAAAAWAAAAA0QAAAAAAAAFgB8AAAHgQECAAADBzl3ga+wPIYFoigAzRnRDCCgCAxAjAo2CA4ZJgJMOLgkZGGYAhlgADryAfQ4MQOgAAAAAACAAAAAAAAAAQAAAAAAAAAAA==

> <PUBCHEM_IUPAC_OPENEYE_NAME>
[(2S,3R,4S,5S,6R)-3,4,5-trihydroxy-6-(hydroxymethyl)tetrahydropyran-2-yl] 2-(1-methoxyindol-3-yl)-N-sulfooxy-ethanimidothioate

> <PUBCHEM_IUPAC_CAS_NAME>
2-(1-methoxy-3-indolyl)-N-sulfooxyethanimidothioic acid [(2S,3R,4S,5S,6R)-3,4,5-trihydroxy-6-(hydroxymethyl)-2-oxanyl] ester

> <PUBCHEM_IUPAC_NAME>
[(2S,3R,4S,5S,6R)-3,4,5-trihydroxy-6-(hydroxymethyl)oxan-2-yl] 2-(1-methoxyindol-3-yl)-N-sulfooxyethanimidothioate

> <PUBCHEM_IUPAC_SYSTEMATIC_NAME>
[(2S,3R,4S,5S,6R)-6-(hydroxymethyl)-3,4,5-tris(oxidanyl)oxan-2-yl] 2-(1-methoxyindol-3-yl)-N-sulfooxy-ethanimidothioate

> <PUBCHEM_IUPAC_TRADITIONAL_NAME>
2-(1-methoxyindol-3-yl)-N-sulfoxy-thioacetimidic acid [(2S,3R,4S,5S,6R)-3,4,5-trihydroxy-6-methylol-tetrahydropyran-2-yl] ester

> <PUBCHEM_IUPAC_INCHI>
InChI=1S/C17H22N2O10S2/c1-27-19-7-9(10-4-2-3-5-11(10)19)6-13(18-29-31(24,25)26)30-17-16(23)15(22)14(21)12(8-20)28-17/h2-5,7,12,14-17,20-23H,6,8H2,1H3,(H,24,25,26)/t12-,14-,15+,16-,17+/m1/s1

> <PUBCHEM_IUPAC_INCHIKEY>
PKKMITFKYRCCOL-CMZRPVNOSA-N

> <PUBCHEM_XLOGP3_AA>
0.3

> <PUBCHEM_EXACT_MASS>
478.071587

> <PUBCHEM_MOLECULAR_FORMULA>
C17H22N2O10S2

> <PUBCHEM_MOLECULAR_WEIGHT>
478.49398

> <PUBCHEM_OPENEYE_CAN_SMILES>
CON1C=C(C2=CC=CC=C21)CC(=NOS(=O)(=O)O)SC3C(C(C(C(O3)CO)O)O)O

> <PUBCHEM_OPENEYE_ISO_SMILES>
CON1C=C(C2=CC=CC=C21)CC(=NOS(=O)(=O)O)S[C@H]3[C@@H]([C@H]([C@@H]([C@H](O3)CO)O)O)O

> <PUBCHEM_CACTVS_TPSA>
214

> <PUBCHEM_MONOISOTOPIC_WEIGHT>
478.071587

> <PUBCHEM_TOTAL_CHARGE>
0

> <PUBCHEM_HEAVY_ATOM_COUNT>
31

> <PUBCHEM_ATOM_DEF_STEREO_COUNT>
5

> <PUBCHEM_ATOM_UDEF_STEREO_COUNT>
0

> <PUBCHEM_BOND_DEF_STEREO_COUNT>
0

> <PUBCHEM_BOND_UDEF_STEREO_COUNT>
1

> <PUBCHEM_ISOTOPIC_ATOM_COUNT>
0

> <PUBCHEM_COMPONENT_COUNT>
1

> <PUBCHEM_CACTVS_TAUTO_COUNT>
2

> <PUBCHEM_COORDINATE_TYPE>
1
5
255

> <PUBCHEM_BONDANNOTATIONS>
19  1  6
13  25  8
13  26  8
14  21  1
18  20  6
23  24  8
23  26  8
24  25  8
24  27  8
25  28  8
27  29  8
28  30  8
29  30  8
15  4  6
16  5  5
17  6  5

$$$$

