11536759
  -OEChem-07051213082D

 34 34  0     1  0  0  0  0  0999 V2000
    3.0000   -2.0950    0.0000 S   0  0  0  0  0  0  0  0  0  0  0  0
    5.5981   -0.5950    0.0000 O   0  0  0  0  0  0  0  0  0  0  0  0
    3.0000   -1.0950    0.0000 O   0  0  0  0  0  0  0  0  0  0  0  0
    3.0000    0.9050    0.0000 O   0  0  0  0  0  0  0  0  0  0  0  0
    6.4641    0.9050    0.0000 O   0  0  0  0  0  0  0  0  0  0  0  0
    5.5981   -2.5950    0.0000 O   0  0  0  0  0  0  0  0  0  0  0  0
    3.0000   -3.0950    0.0000 O   0  0  0  0  0  0  0  0  0  0  0  0
    6.4641    1.9050    0.0000 O   0  0  0  0  0  0  0  0  0  0  0  0
    2.0000   -2.0950    0.0000 O   0  0  0  0  0  0  0  0  0  0  0  0
    4.0000   -2.0950    0.0000 O   0  0  0  0  0  0  0  0  0  0  0  0
    4.7320    1.9050    0.0000 N   0  0  0  0  0  0  0  0  0  0  0  0
    3.8660    0.4050    0.0000 C   0  0  1  0  0  0  0  0  0  0  0  0
    3.8660   -0.5950    0.0000 C   0  0  2  0  0  0  0  0  0  0  0  0
    4.7320    0.9050    0.0000 C   0  0  2  0  0  0  0  0  0  0  0  0
    4.7320   -1.0950    0.0000 C   0  0  1  0  0  0  0  0  0  0  0  0
    5.5981    0.4050    0.0000 C   0  0  3  0  0  0  0  0  0  0  0  0
    4.7320   -2.0950    0.0000 C   0  0  0  0  0  0  0  0  0  0  0  0
    5.5981    2.4050    0.0000 C   0  0  0  0  0  0  0  0  0  0  0  0
    5.5981    3.4050    0.0000 C   0  0  0  0  0  0  0  0  0  0  0  0
    3.8660    1.0250    0.0000 H   0  0  0  0  0  0  0  0  0  0  0  0
    3.8660   -1.2150    0.0000 H   0  0  0  0  0  0  0  0  0  0  0  0
    5.2690    1.2150    0.0000 H   0  0  0  0  0  0  0  0  0  0  0  0
    5.2690   -1.4050    0.0000 H   0  0  0  0  0  0  0  0  0  0  0  0
    5.5981    1.0250    0.0000 H   0  0  0  0  0  0  0  0  0  0  0  0
    4.1215   -1.9873    0.0000 H   0  0  0  0  0  0  0  0  0  0  0  0
    4.5200   -2.6776    0.0000 H   0  0  0  0  0  0  0  0  0  0  0  0
    4.1951    2.2150    0.0000 H   0  0  0  0  0  0  0  0  0  0  0  0
    2.4631    0.5950    0.0000 H   0  0  0  0  0  0  0  0  0  0  0  0
    7.0010    0.5950    0.0000 H   0  0  0  0  0  0  0  0  0  0  0  0
    5.5981   -3.2150    0.0000 H   0  0  0  0  0  0  0  0  0  0  0  0
    6.2181    3.4050    0.0000 H   0  0  0  0  0  0  0  0  0  0  0  0
    5.5981    4.0250    0.0000 H   0  0  0  0  0  0  0  0  0  0  0  0
    4.9781    3.4050    0.0000 H   0  0  0  0  0  0  0  0  0  0  0  0
    2.4631   -3.4050    0.0000 H   0  0  0  0  0  0  0  0  0  0  0  0
  1  3  1  0  0  0  0
  1  7  1  0  0  0  0
  1  9  2  0  0  0  0
  1 10  2  0  0  0  0
  2 15  1  0  0  0  0
  2 16  1  0  0  0  0
 13  3  1  6  0  0  0
 12  4  1  6  0  0  0
  4 28  1  0  0  0  0
  5 16  1  0  0  0  0
  5 29  1  0  0  0  0
  6 17  1  0  0  0  0
  6 30  1  0  0  0  0
  7 34  1  0  0  0  0
  8 18  2  0  0  0  0
 14 11  1  1  0  0  0
 11 18  1  0  0  0  0
 11 27  1  0  0  0  0
 12 13  1  0  0  0  0
 12 14  1  0  0  0  0
 12 20  1  0  0  0  0
 13 15  1  0  0  0  0
 13 21  1  0  0  0  0
 14 16  1  0  0  0  0
 14 22  1  0  0  0  0
 15 17  1  6  0  0  0
 15 23  1  0  0  0  0
 16 24  1  0  0  0  0
 17 25  1  0  0  0  0
 17 26  1  0  0  0  0
 18 19  1  0  0  0  0
 19 31  1  0  0  0  0
 19 32  1  0  0  0  0
 19 33  1  0  0  0  0
M  END
> <PUBCHEM_COMPOUND_CID>
11536759

> <PUBCHEM_COMPOUND_CANONICALIZED>
1

> <PUBCHEM_CACTVS_COMPLEXITY>
418

> <PUBCHEM_CACTVS_HBOND_ACCEPTOR>
9

> <PUBCHEM_CACTVS_HBOND_DONOR>
5

> <PUBCHEM_CACTVS_ROTATABLE_BOND>
4

> <PUBCHEM_CACTVS_SUBSKEYS>
AAADccByPABAAAAAAAAAAAAAAAAAAAAAAAAkAAAAAAAAAAAAAAAAHgAQCAAACDzxgAcCCALABoAIAAEQEDAAAAAAAAAAAIAIAAATEAIAgAAHQAAHFgCXAAHwcAcAAAAAAAAAAAAAAAAAAAAAAAAAAAAAAA==

> <PUBCHEM_IUPAC_OPENEYE_NAME>
[(2R,3R,4R,5R)-5-acetamido-4,6-dihydroxy-2-(hydroxymethyl)tetrahydropyran-3-yl] hydrogen sulfate

> <PUBCHEM_IUPAC_CAS_NAME>
sulfuric acid [(2R,3R,4R,5R)-5-acetamido-4,6-dihydroxy-2-(hydroxymethyl)-3-oxanyl] ester

> <PUBCHEM_IUPAC_NAME>
[(2R,3R,4R,5R)-5-acetamido-4,6-dihydroxy-2-(hydroxymethyl)oxan-3-yl] hydrogen sulfate

> <PUBCHEM_IUPAC_SYSTEMATIC_NAME>
[(2R,3R,4R,5R)-5-acetamido-2-(hydroxymethyl)-4,6-bis(oxidanyl)oxan-3-yl] hydrogen sulfate

> <PUBCHEM_IUPAC_TRADITIONAL_NAME>
sulfuric acid [(2R,3R,4R,5R)-5-acetamido-4,6-dihydroxy-2-methylol-tetrahydropyran-3-yl] ester

> <PUBCHEM_IUPAC_INCHI>
InChI=1S/C8H15NO9S/c1-3(11)9-5-6(12)7(18-19(14,15)16)4(2-10)17-8(5)13/h4-8,10,12-13H,2H2,1H3,(H,9,11)(H,14,15,16)/t4-,5-,6-,7+,8?/m1/s1

> <PUBCHEM_IUPAC_INCHIKEY>
WHCJUIFHMJFEFZ-IYWGXSQHSA-N

> <PUBCHEM_XLOGP3_AA>
-3.5

> <PUBCHEM_EXACT_MASS>
301.046752

> <PUBCHEM_MOLECULAR_FORMULA>
C8H15NO9S

> <PUBCHEM_MOLECULAR_WEIGHT>
301.271

> <PUBCHEM_OPENEYE_CAN_SMILES>
CC(=O)NC1C(C(C(OC1O)CO)OS(=O)(=O)O)O

> <PUBCHEM_OPENEYE_ISO_SMILES>
CC(=O)N[C@@H]1[C@H]([C@H]([C@H](OC1O)CO)OS(=O)(=O)O)O

> <PUBCHEM_CACTVS_TPSA>
171

> <PUBCHEM_MONOISOTOPIC_WEIGHT>
301.046752

> <PUBCHEM_TOTAL_CHARGE>
0

> <PUBCHEM_HEAVY_ATOM_COUNT>
19

> <PUBCHEM_ATOM_DEF_STEREO_COUNT>
4

> <PUBCHEM_ATOM_UDEF_STEREO_COUNT>
1

> <PUBCHEM_BOND_DEF_STEREO_COUNT>
0

> <PUBCHEM_BOND_UDEF_STEREO_COUNT>
0

> <PUBCHEM_ISOTOPIC_ATOM_COUNT>
0

> <PUBCHEM_COMPONENT_COUNT>
1

> <PUBCHEM_CACTVS_TAUTO_COUNT>
2

> <PUBCHEM_COORDINATE_TYPE>
1
5
255

> <PUBCHEM_BONDANNOTATIONS>
14  11  5
15  17  6
13  3  6
12  4  6
16  5  3

$$$$

