5280779
  -OEChem-07051212503D

 20 19  0     0  0  0  0  0  0999 V2000
   -4.1028    1.2685    0.2462 O   0  0  0  0  0  0  0  0  0  0  0  0
   -0.2881   -2.3901    1.0736 O   0  0  0  0  0  0  0  0  0  0  0  0
   -2.5159    0.9981   -1.3543 O   0  0  0  0  0  0  0  0  0  0  0  0
   -0.7287   -2.0063   -1.1225 O   0  0  0  0  0  0  0  0  0  0  0  0
    1.9770   -1.1549   -0.4051 O   0  0  0  0  0  0  0  0  0  0  0  0
    4.0170    0.3093   -0.3772 O   0  0  0  0  0  0  0  0  0  0  0  0
    2.7713    2.0908    0.3684 O   0  0  0  0  0  0  0  0  0  0  0  0
   -2.0454    0.3110    0.9415 C   0  0  0  0  0  0  0  0  0  0  0  0
   -0.7075   -0.1733    0.4504 C   0  0  0  0  0  0  0  0  0  0  0  0
    0.4369    0.5319    0.3971 C   0  0  0  0  0  0  0  0  0  0  0  0
   -2.8745    0.8825   -0.1904 C   0  0  0  0  0  0  0  0  0  0  0  0
   -0.5814   -1.5947    0.0180 C   0  0  0  0  0  0  0  0  0  0  0  0
    1.7442   -0.0131   -0.0480 C   0  0  0  0  0  0  0  0  0  0  0  0
    2.8978    0.9404    0.0022 C   0  0  0  0  0  0  0  0  0  0  0  0
   -1.9056    1.0969    1.6923 H   0  0  0  0  0  0  0  0  0  0  0  0
   -2.5971   -0.5148    1.4035 H   0  0  0  0  0  0  0  0  0  0  0  0
    0.4126    1.5705    0.7135 H   0  0  0  0  0  0  0  0  0  0  0  0
   -4.6476    1.6414   -0.4794 H   0  0  0  0  0  0  0  0  0  0  0  0
   -0.2043   -3.3317    0.8116 H   0  0  0  0  0  0  0  0  0  0  0  0
    4.8029    0.8954   -0.3464 H   0  0  0  0  0  0  0  0  0  0  0  0
  1 11  1  0  0  0  0
  1 18  1  0  0  0  0
  2 12  1  0  0  0  0
  2 19  1  0  0  0  0
  3 11  2  0  0  0  0
  4 12  2  0  0  0  0
  5 13  2  0  0  0  0
  6 14  1  0  0  0  0
  6 20  1  0  0  0  0
  7 14  2  0  0  0  0
  8  9  1  0  0  0  0
  8 11  1  0  0  0  0
  8 15  1  0  0  0  0
  8 16  1  0  0  0  0
  9 10  2  0  0  0  0
  9 12  1  0  0  0  0
 10 13  1  0  0  0  0
 10 17  1  0  0  0  0
 13 14  1  0  0  0  0
M  END
> <PUBCHEM_COMPOUND_CID>
5280779

> <PUBCHEM_CONFORMER_RMSD>
0.6

> <PUBCHEM_CONFORMER_DIVERSEORDER>
1
38
22
4
33
13
26
32
16
39
41
29
37
25
19
10
9
7
20
12
35
14
27
40
30
11
31
18
43
24
3
6
42
34
23
5
17
21
36
15
8
2
28

> <PUBCHEM_MMFF94_PARTIAL_CHARGES>
18
1 -0.65
10 -0.14
11 0.66
12 0.71
13 0.56
14 0.72
17 0.15
18 0.5
19 0.5
2 -0.65
20 0.5
3 -0.57
4 -0.57
5 -0.57
6 -0.65
7 -0.57
8 0.2
9 -0.12

> <PUBCHEM_EFFECTIVE_ROTOR_COUNT>
5

> <PUBCHEM_PHARMACOPHORE_FEATURES>
10
1 1 acceptor
1 2 acceptor
1 3 acceptor
1 4 acceptor
1 5 acceptor
1 6 acceptor
1 7 acceptor
3 1 3 11 anion
3 2 4 12 anion
3 6 7 14 anion

> <PUBCHEM_HEAVY_ATOM_COUNT>
14

> <PUBCHEM_ATOM_DEF_STEREO_COUNT>
0

> <PUBCHEM_ATOM_UDEF_STEREO_COUNT>
0

> <PUBCHEM_BOND_DEF_STEREO_COUNT>
1

> <PUBCHEM_BOND_UDEF_STEREO_COUNT>
0

> <PUBCHEM_ISOTOPIC_ATOM_COUNT>
0

> <PUBCHEM_COMPONENT_COUNT>
1

> <PUBCHEM_CACTVS_TAUTO_COUNT>
4

> <PUBCHEM_CONFORMER_ID>
0050940B00000001

> <PUBCHEM_MMFF94_ENERGY>
28.8746

> <PUBCHEM_FEATURE_SELFOVERLAP>
50.934

> <PUBCHEM_SHAPE_FINGERPRINT>
1 1 18268994352726019815
10922049 32 18411412921488022747
12138202 97 18188207611231365142
122479 349 18340201899542199384
12251169 10 12895064115661752025
12932764 1 18201157651015349856
13380535 76 18335419067259232206
14325111 11 18410009944571852801
14897335 6 18334298652035942298
15775835 57 18411138056318235653
16945 1 18189325943384843378
18186145 218 18261393385740589581
20281407 28 9871753498420296872
20645477 56 18341894031158676832
20653085 51 18335420144995128779
21499 59 18408888459981074245
21524375 3 18411701001892306531
23382010 3 18042142997861485817
23402539 116 18040722484541306716
23559900 14 18187921752222036820
25 1 18336546109252751284
2748010 2 18044367228485845928
6333449 129 18335984160037168452
69090 78 18408325458224223247
81228 2 17909836431392135075
81539 233 18129664230869876423

> <PUBCHEM_SHAPE_MULTIPOLES>
247.03
5.71
2.03
0.95
0.7
0.92
0.09
-3.77
0.55
-0.03
-0.07
-0.46
0.16
0.26

> <PUBCHEM_SHAPE_SELFOVERLAP>
500.316

> <PUBCHEM_SHAPE_VOLUME>
141.3

> <PUBCHEM_COORDINATE_TYPE>
2
5
10

$$$$

