64696
  -OEChem-07051213003D

 41 43  0     1  0  0  0  0  0999 V2000
   -0.6459    0.4765    0.7787 O   0  0  0  0  0  0  0  0  0  0  0  0
    0.3953   -0.5919   -0.9758 O   0  0  0  0  0  0  0  0  0  0  0  0
    0.5286    3.0220    0.0593 O   0  0  0  0  0  0  0  0  0  0  0  0
   -4.5795    0.6191   -0.3435 N   0  0  0  0  0  0  0  0  0  0  0  0
   -3.7470   -0.1480   -1.2868 C   0  0  2  0  0  0  0  0  0  0  0  0
   -4.3771   -0.0995    0.9269 C   0  0  1  0  0  0  0  0  0  0  0  0
   -4.1142   -1.5952   -0.9585 C   0  0  0  0  0  0  0  0  0  0  0  0
   -4.5324   -1.5631    0.5134 C   0  0  0  0  0  0  0  0  0  0  0  0
   -2.2745    0.1814   -0.9951 C   0  0  0  0  0  0  0  0  0  0  0  0
   -2.9680    0.2349    1.4410 C   0  0  0  0  0  0  0  0  0  0  0  0
   -1.8721   -0.1618    0.4438 C   0  0  0  0  0  0  0  0  0  0  0  0
    0.4260    0.1726   -0.0199 C   0  0  0  0  0  0  0  0  0  0  0  0
    1.6626    0.9242    0.4644 C   0  0  1  0  0  0  0  0  0  0  0  0
    2.9236    0.1070    0.2329 C   0  0  0  0  0  0  0  0  0  0  0  0
    1.7362    2.3099   -0.1926 C   0  0  0  0  0  0  0  0  0  0  0  0
    3.3541   -0.7531    1.2234 C   0  0  0  0  0  0  0  0  0  0  0  0
    3.6019    0.2480   -0.9614 C   0  0  0  0  0  0  0  0  0  0  0  0
    4.5108   -1.5031    1.0110 C   0  0  0  0  0  0  0  0  0  0  0  0
    4.7586   -0.5021   -1.1738 C   0  0  0  0  0  0  0  0  0  0  0  0
    5.2130   -1.3777   -0.1874 C   0  0  0  0  0  0  0  0  0  0  0  0
   -3.9915    0.1043   -2.3234 H   0  0  0  0  0  0  0  0  0  0  0  0
   -5.1267    0.1909    1.6694 H   0  0  0  0  0  0  0  0  0  0  0  0
   -3.2898   -2.2933   -1.1359 H   0  0  0  0  0  0  0  0  0  0  0  0
   -4.9650   -1.9224   -1.5684 H   0  0  0  0  0  0  0  0  0  0  0  0
   -5.5802   -1.8759    0.5979 H   0  0  0  0  0  0  0  0  0  0  0  0
   -3.9321   -2.2436    1.1259 H   0  0  0  0  0  0  0  0  0  0  0  0
   -1.6808   -0.3715   -1.7281 H   0  0  0  0  0  0  0  0  0  0  0  0
   -2.0837    1.2450   -1.1929 H   0  0  0  0  0  0  0  0  0  0  0  0
   -2.8951    1.3089    1.6601 H   0  0  0  0  0  0  0  0  0  0  0  0
   -2.7838   -0.2716    2.3967 H   0  0  0  0  0  0  0  0  0  0  0  0
   -1.7158   -1.2455    0.5295 H   0  0  0  0  0  0  0  0  0  0  0  0
   -4.2548    1.5823   -0.2722 H   0  0  0  0  0  0  0  0  0  0  0  0
    1.5470    1.0702    1.5480 H   0  0  0  0  0  0  0  0  0  0  0  0
    1.8123    2.2590   -1.2816 H   0  0  0  0  0  0  0  0  0  0  0  0
    2.5776    2.8982    0.1888 H   0  0  0  0  0  0  0  0  0  0  0  0
    2.8122   -0.8594    2.1584 H   0  0  0  0  0  0  0  0  0  0  0  0
    3.2718    0.8939   -1.7657 H   0  0  0  0  0  0  0  0  0  0  0  0
    0.4359    3.1073    1.0235 H   0  0  0  0  0  0  0  0  0  0  0  0
    4.8640   -2.1857    1.7785 H   0  0  0  0  0  0  0  0  0  0  0  0
    5.3024   -0.4098   -2.1095 H   0  0  0  0  0  0  0  0  0  0  0  0
    6.1126   -1.9630   -0.3535 H   0  0  0  0  0  0  0  0  0  0  0  0
  1 11  1  0  0  0  0
  1 12  1  0  0  0  0
  2 12  2  0  0  0  0
  3 15  1  0  0  0  0
  3 38  1  0  0  0  0
  4  5  1  0  0  0  0
  4  6  1  0  0  0  0
  4 32  1  0  0  0  0
  5  7  1  0  0  0  0
  5  9  1  0  0  0  0
  5 21  1  0  0  0  0
  6  8  1  0  0  0  0
  6 10  1  0  0  0  0
  6 22  1  0  0  0  0
  7  8  1  0  0  0  0
  7 23  1  0  0  0  0
  7 24  1  0  0  0  0
  8 25  1  0  0  0  0
  8 26  1  0  0  0  0
  9 11  1  0  0  0  0
  9 27  1  0  0  0  0
  9 28  1  0  0  0  0
 10 11  1  0  0  0  0
 10 29  1  0  0  0  0
 10 30  1  0  0  0  0
 11 31  1  0  0  0  0
 12 13  1  0  0  0  0
 13 14  1  0  0  0  0
 13 15  1  0  0  0  0
 13 33  1  0  0  0  0
 14 16  2  0  0  0  0
 14 17  1  0  0  0  0
 15 34  1  0  0  0  0
 15 35  1  0  0  0  0
 16 18  1  0  0  0  0
 16 36  1  0  0  0  0
 17 19  2  0  0  0  0
 17 37  1  0  0  0  0
 18 20  2  0  0  0  0
 18 39  1  0  0  0  0
 19 20  1  0  0  0  0
 19 40  1  0  0  0  0
 20 41  1  0  0  0  0
M  END
> <PUBCHEM_COMPOUND_CID>
64696

> <PUBCHEM_CONFORMER_RMSD>
0.8

> <PUBCHEM_CONFORMER_DIVERSEORDER>
3
48
46
59
54
50
45
43
7
32
56
10
58
35
53
28
24
30
36
31
39
38
51
34
40
13
11
55
47
49
17
26
29
57
16
33
4
42
23
5
44
37
15
52
9
25
21
19
1
8
12
6
41
20
18
27
22
14
2

> <PUBCHEM_MMFF94_PARTIAL_CHARGES>
23
1 -0.43
11 0.28
12 0.66
13 0.2
14 -0.14
15 0.28
16 -0.15
17 -0.15
18 -0.15
19 -0.15
2 -0.57
20 -0.15
3 -0.68
32 0.36
36 0.15
37 0.15
38 0.4
39 0.15
4 -0.9
40 0.15
41 0.15
5 0.27
6 0.27

> <PUBCHEM_EFFECTIVE_ROTOR_COUNT>
6.2

> <PUBCHEM_PHARMACOPHORE_FEATURES>
7
1 2 acceptor
1 3 acceptor
1 3 donor
1 4 cation
1 4 donor
6 14 16 17 18 19 20 rings
8 4 5 6 7 8 9 10 11 rings

> <PUBCHEM_HEAVY_ATOM_COUNT>
20

> <PUBCHEM_ATOM_DEF_STEREO_COUNT>
1

> <PUBCHEM_ATOM_UDEF_STEREO_COUNT>
2

> <PUBCHEM_BOND_DEF_STEREO_COUNT>
0

> <PUBCHEM_BOND_UDEF_STEREO_COUNT>
0

> <PUBCHEM_ISOTOPIC_ATOM_COUNT>
0

> <PUBCHEM_COMPONENT_COUNT>
1

> <PUBCHEM_CACTVS_TAUTO_COUNT>
1

> <PUBCHEM_CONFORMER_ID>
0000FCB800000003

> <PUBCHEM_MMFF94_ENERGY>
44.8146

> <PUBCHEM_FEATURE_SELFOVERLAP>
35.52

> <PUBCHEM_SHAPE_FINGERPRINT>
10062212 137 17967251975422899175
10366900 7 17417817218903771291
10498660 4 14045750317403147007
10670039 82 10015590562216925730
11405975 8 18410012109636368281
11543360 7 15985100816827953484
11615757 297 18410572855886327737
12236239 1 18040150712503156136
12403259 118 6266890251819897098
12516196 113 18411139134719030368
12553582 1 18411418431978516898
12596602 18 17821454542972856178
12670546 56 15140966183393162447
128620 24 11959731572808811563
12892183 10 15647336381383734322
12916754 54 18338237042899952695
13009979 54 17968643969575392169
13134695 92 18413109429069844948
13167823 11 18411982429693254003
13533116 47 18194682567083960075
13631057 29 10879406380632103585
13675066 3 16660081104998502535
14251764 75 7419505079020531402
14528608 73 11671780451109565514
14573314 32 16702302360279853286
15188451 53 17241060829081849815
15239154 128 11600010954914370439
15788980 27 17458346338247497995
15848700 24 18408044026624628852
16752209 62 18200322150911233976
17349148 13 17967246473195500055
17492 89 18118407241662139263
17844677 252 18343580737445118949
1813 80 18260822722458486532
18186145 218 18342181025125762209
18222031 100 18260833695851682948
193927 3 18113610175377043942
19784866 34 10159697993043072868
200 152 18059856198972849890
20369508 70 18342741797784004520
20645477 70 18341889667576937870
21250096 35 18413111679816746114
221357 26 17917716798932590205
22646028 1 18114183025240489083
22854114 59 7709459428714786074
22950370 63 18411976979474356662
23175994 123 18273210915351930805
23402539 116 18335420205035013233
23557571 272 16371271329490808457
23559900 14 17274824614640385797
23596394 208 17132119026451983074
2838139 119 8500172078666851307
2916195 48 11959435770285665854
296302 2 7925916988914705983
312423 11 18335972078521401633
314173 85 18259987106500841352
34797466 226 15913033309905663102
351380 3 18408600370533460986
42 15 16660642964262378158
465052 167 18409440376037281878
4990 188 15339119056944774498
5104073 3 17822569400708490155
5281201 14 16988841670410173334
5924683 9 14274036393893524693
7164475 11 18057324097125478140
7495541 125 18130219363597658170
7970288 3 18409731789742908366
8863177 126 17986097531661635475
960060 61 17917992776340534406
9841814 1 18411147913785424416
9971528 1 18261116257603208912
9981440 41 17032497556131856048

> <PUBCHEM_SHAPE_MULTIPOLES>
389
11.89
1.85
1.3
0.5
1.11
-0.02
-5.99
-0.72
0.76
0.07
-0.25
-0.22
-0.47

> <PUBCHEM_SHAPE_SELFOVERLAP>
827.996

> <PUBCHEM_SHAPE_VOLUME>
216

> <PUBCHEM_COORDINATE_TYPE>
2
5
10

$$$$

