441288
  -OEChem-07051212533D

 83 89  0     1  0  0  0  0  0999 V2000
    2.7252    1.5684    1.0649 O   0  0  0  0  0  0  0  0  0  0  0  0
    1.8706   -0.4074    2.0013 O   0  0  0  0  0  0  0  0  0  0  0  0
    1.7110    0.6073   -2.1443 O   0  0  0  0  0  0  0  0  0  0  0  0
    5.6510   -1.6321   -1.4022 O   0  0  0  0  0  0  0  0  0  0  0  0
   -0.4343    2.1781   -1.7773 O   0  0  0  0  0  0  0  0  0  0  0  0
    2.6491   -0.3207   -0.1989 N   0  0  0  0  0  0  0  0  0  0  0  0
    5.1685   -0.5077    0.5616 N   0  0  0  0  0  0  0  0  0  0  0  0
    0.5093    1.9463    0.3392 N   0  0  0  0  0  0  0  0  0  0  0  0
   -4.2301    2.7746   -0.2205 N   0  0  1  0  0  0  0  0  0  0  0  0
   -7.2847   -2.3251    0.5909 N   0  0  0  0  0  0  0  0  0  0  0  0
    4.2414   -0.2777    1.6674 C   0  0  2  0  0  0  0  0  0  0  0  0
    2.8684    0.1485    1.1474 C   0  0  1  0  0  0  0  0  0  0  0  0
    3.3390   -1.4911   -0.7390 C   0  0  1  0  0  0  0  0  0  0  0  0
    4.9823    0.6930    2.5967 C   0  0  0  0  0  0  0  0  0  0  0  0
    1.8869    1.8634   -0.0627 C   0  0  2  0  0  0  0  0  0  0  0  0
    6.4644    0.0842    0.8197 C   0  0  0  0  0  0  0  0  0  0  0  0
    6.1250    1.2430    1.7432 C   0  0  0  0  0  0  0  0  0  0  0  0
    4.8341   -1.2051   -0.5868 C   0  0  0  0  0  0  0  0  0  0  0  0
    2.0579    0.6686   -0.9748 C   0  0  0  0  0  0  0  0  0  0  0  0
    2.9211   -2.7987   -0.0871 C   0  0  0  0  0  0  0  0  0  0  0  0
    2.3629    3.1493   -0.7150 C   0  0  0  0  0  0  0  0  0  0  0  0
    3.5780   -4.0399   -0.7172 C   0  0  0  0  0  0  0  0  0  0  0  0
    3.8373    3.0468   -1.1118 C   0  0  0  0  0  0  0  0  0  0  0  0
    2.1465    4.3454    0.2143 C   0  0  0  0  0  0  0  0  0  0  0  0
   -0.5408    2.0975   -0.5564 C   0  0  0  0  0  0  0  0  0  0  0  0
   -1.8753    2.1307    0.1248 C   0  0  1  0  0  0  0  0  0  0  0  0
   -4.6686    1.3619   -0.4012 C   0  0  1  0  0  0  0  0  0  0  0  0
   -2.8551    2.9643   -0.7047 C   0  0  0  0  0  0  0  0  0  0  0  0
    3.2918   -4.1527   -2.2153 C   0  0  0  0  0  0  0  0  0  0  0  0
    5.0897   -4.0058   -0.4807 C   0  0  0  0  0  0  0  0  0  0  0  0
   -3.5799    0.3274    0.0150 C   0  0  0  0  0  0  0  0  0  0  0  0
   -2.3194    0.7094    0.2846 C   0  0  0  0  0  0  0  0  0  0  0  0
   -6.0403    1.1442    0.3393 C   0  0  0  0  0  0  0  0  0  0  0  0
   -3.9885   -1.0907    0.1282 C   0  0  0  0  0  0  0  0  0  0  0  0
   -6.3841   -0.3009    0.4122 C   0  0  0  0  0  0  0  0  0  0  0  0
   -5.3648   -1.2698    0.3100 C   0  0  0  0  0  0  0  0  0  0  0  0
   -5.1186    3.7232   -0.8999 C   0  0  0  0  0  0  0  0  0  0  0  0
   -5.9317   -2.5283    0.4260 C   0  0  0  0  0  0  0  0  0  0  0  0
   -7.5689   -0.9766    0.5864 C   0  0  0  0  0  0  0  0  0  0  0  0
   -3.1958   -2.2433    0.0671 C   0  0  0  0  0  0  0  0  0  0  0  0
   -5.1559   -3.6870    0.3685 C   0  0  0  0  0  0  0  0  0  0  0  0
   -3.7746   -3.5150    0.1865 C   0  0  0  0  0  0  0  0  0  0  0  0
    4.1522   -1.2408    2.1868 H   0  0  0  0  0  0  0  0  0  0  0  0
    3.1209   -1.5084   -1.8119 H   0  0  0  0  0  0  0  0  0  0  0  0
    5.4054    0.1332    3.4405 H   0  0  0  0  0  0  0  0  0  0  0  0
    4.3507    1.4802    3.0178 H   0  0  0  0  0  0  0  0  0  0  0  0
    7.0836   -0.6662    1.3227 H   0  0  0  0  0  0  0  0  0  0  0  0
    6.9523    0.3945   -0.1082 H   0  0  0  0  0  0  0  0  0  0  0  0
    6.9818    1.5600    2.3446 H   0  0  0  0  0  0  0  0  0  0  0  0
    5.7818    2.1058    1.1690 H   0  0  0  0  0  0  0  0  0  0  0  0
    1.8308   -2.8998   -0.1715 H   0  0  0  0  0  0  0  0  0  0  0  0
    3.1332   -2.8002    0.9876 H   0  0  0  0  0  0  0  0  0  0  0  0
    1.8002    3.3427   -1.6367 H   0  0  0  0  0  0  0  0  0  0  0  0
    0.3147    1.9143    1.3353 H   0  0  0  0  0  0  0  0  0  0  0  0
    2.1804   -0.3272    2.9191 H   0  0  0  0  0  0  0  0  0  0  0  0
    3.1610   -4.9220   -0.2150 H   0  0  0  0  0  0  0  0  0  0  0  0
    4.0396    2.1894   -1.7603 H   0  0  0  0  0  0  0  0  0  0  0  0
    4.1381    3.9436   -1.6656 H   0  0  0  0  0  0  0  0  0  0  0  0
    4.4850    2.9831   -0.2370 H   0  0  0  0  0  0  0  0  0  0  0  0
    1.0858    4.5061    0.4312 H   0  0  0  0  0  0  0  0  0  0  0  0
    2.5205    5.2634   -0.2527 H   0  0  0  0  0  0  0  0  0  0  0  0
    2.6750    4.2213    1.1657 H   0  0  0  0  0  0  0  0  0  0  0  0
   -1.7721    2.5790    1.1216 H   0  0  0  0  0  0  0  0  0  0  0  0
   -4.8401    1.1818   -1.4746 H   0  0  0  0  0  0  0  0  0  0  0  0
   -2.8027    2.7202   -1.7750 H   0  0  0  0  0  0  0  0  0  0  0  0
   -2.5613    4.0186   -0.6117 H   0  0  0  0  0  0  0  0  0  0  0  0
    3.7861   -3.3725   -2.8019 H   0  0  0  0  0  0  0  0  0  0  0  0
    2.2156   -4.0990   -2.4099 H   0  0  0  0  0  0  0  0  0  0  0  0
    3.6490   -5.1169   -2.5941 H   0  0  0  0  0  0  0  0  0  0  0  0
    5.6782   -3.7871   -1.3736 H   0  0  0  0  0  0  0  0  0  0  0  0
    5.3952   -5.0355   -0.2422 H   0  0  0  0  0  0  0  0  0  0  0  0
    5.4007   -3.4329    0.3966 H   0  0  0  0  0  0  0  0  0  0  0  0
   -1.5830   -0.0100    0.6338 H   0  0  0  0  0  0  0  0  0  0  0  0
   -6.8455    1.6740   -0.1818 H   0  0  0  0  0  0  0  0  0  0  0  0
   -5.9820    1.5420    1.3609 H   0  0  0  0  0  0  0  0  0  0  0  0
   -4.7512    4.7490   -0.7790 H   0  0  0  0  0  0  0  0  0  0  0  0
   -5.2016    3.5153   -1.9727 H   0  0  0  0  0  0  0  0  0  0  0  0
   -6.1214    3.7176   -0.4630 H   0  0  0  0  0  0  0  0  0  0  0  0
   -8.5857   -0.6315    0.7109 H   0  0  0  0  0  0  0  0  0  0  0  0
   -2.1217   -2.1738   -0.0841 H   0  0  0  0  0  0  0  0  0  0  0  0
   -7.9707   -3.0585    0.7041 H   0  0  0  0  0  0  0  0  0  0  0  0
   -5.5938   -4.6745    0.4586 H   0  0  0  0  0  0  0  0  0  0  0  0
   -3.1362   -4.3941    0.1335 H   0  0  0  0  0  0  0  0  0  0  0  0
  1 12  1  0  0  0  0
  1 15  1  0  0  0  0
  2 12  1  0  0  0  0
  2 55  1  0  0  0  0
  3 19  2  0  0  0  0
  4 18  2  0  0  0  0
  5 25  2  0  0  0  0
  6 12  1  0  0  0  0
  6 13  1  0  0  0  0
  6 19  1  0  0  0  0
  7 11  1  0  0  0  0
  7 16  1  0  0  0  0
  7 18  1  0  0  0  0
  8 15  1  0  0  0  0
  8 25  1  0  0  0  0
  8 54  1  0  0  0  0
  9 27  1  0  0  0  0
  9 28  1  0  0  0  0
  9 37  1  0  0  0  0
 10 38  1  0  0  0  0
 10 39  1  0  0  0  0
 10 81  1  0  0  0  0
 11 12  1  0  0  0  0
 11 14  1  0  0  0  0
 11 43  1  0  0  0  0
 13 18  1  0  0  0  0
 13 20  1  0  0  0  0
 13 44  1  0  0  0  0
 14 17  1  0  0  0  0
 14 45  1  0  0  0  0
 14 46  1  0  0  0  0
 15 19  1  0  0  0  0
 15 21  1  0  0  0  0
 16 17  1  0  0  0  0
 16 47  1  0  0  0  0
 16 48  1  0  0  0  0
 17 49  1  0  0  0  0
 17 50  1  0  0  0  0
 20 22  1  0  0  0  0
 20 51  1  0  0  0  0
 20 52  1  0  0  0  0
 21 23  1  0  0  0  0
 21 24  1  0  0  0  0
 21 53  1  0  0  0  0
 22 29  1  0  0  0  0
 22 30  1  0  0  0  0
 22 56  1  0  0  0  0
 23 57  1  0  0  0  0
 23 58  1  0  0  0  0
 23 59  1  0  0  0  0
 24 60  1  0  0  0  0
 24 61  1  0  0  0  0
 24 62  1  0  0  0  0
 25 26  1  0  0  0  0
 26 28  1  0  0  0  0
 26 32  1  0  0  0  0
 26 63  1  0  0  0  0
 27 31  1  0  0  0  0
 27 33  1  0  0  0  0
 27 64  1  0  0  0  0
 28 65  1  0  0  0  0
 28 66  1  0  0  0  0
 29 67  1  0  0  0  0
 29 68  1  0  0  0  0
 29 69  1  0  0  0  0
 30 70  1  0  0  0  0
 30 71  1  0  0  0  0
 30 72  1  0  0  0  0
 31 32  2  0  0  0  0
 31 34  1  0  0  0  0
 32 73  1  0  0  0  0
 33 35  1  0  0  0  0
 33 74  1  0  0  0  0
 33 75  1  0  0  0  0
 34 36  2  0  0  0  0
 34 40  1  0  0  0  0
 35 36  1  0  0  0  0
 35 39  2  0  0  0  0
 36 38  1  0  0  0  0
 37 76  1  0  0  0  0
 37 77  1  0  0  0  0
 37 78  1  0  0  0  0
 38 41  2  0  0  0  0
 39 79  1  0  0  0  0
 40 42  2  0  0  0  0
 40 80  1  0  0  0  0
 41 42  1  0  0  0  0
 41 82  1  0  0  0  0
 42 83  1  0  0  0  0
M  END
> <PUBCHEM_COMPOUND_CID>
441288

> <PUBCHEM_CONFORMER_RMSD>
1

> <PUBCHEM_CONFORMER_DIVERSEORDER>
8
31
11
20
6
30
18
32
4
7
10
25
23
3
14
5
12
2
17
16
1
27
9
13
28
22
26
29
15
24
19
21

> <PUBCHEM_MMFF94_PARTIAL_CHARGES>
40
1 -0.56
10 0.03
11 0.3
12 0.86
13 0.36
15 0.64
16 0.3
18 0.57
19 0.57
2 -0.68
25 0.57
26 0.2
27 0.41
28 0.27
3 -0.57
31 -0.17
32 -0.29
33 0.18
34 0.03
35 -0.18
37 0.27
38 -0.15
39 -0.3
4 -0.57
40 -0.15
41 -0.15
42 -0.15
5 -0.57
54 0.37
55 0.4
6 -0.66
7 -0.66
73 0.15
79 0.15
8 -0.73
80 0.15
81 0.27
82 0.15
83 0.15
9 -0.81

> <PUBCHEM_EFFECTIVE_ROTOR_COUNT>
8

> <PUBCHEM_PHARMACOPHORE_FEATURES>
19
1 1 acceptor
1 10 cation
1 10 donor
1 2 acceptor
1 2 donor
1 3 acceptor
1 4 acceptor
1 5 acceptor
1 8 donor
1 9 cation
3 21 23 24 hydrophobe
3 22 29 30 hydrophobe
5 1 6 12 15 19 rings
5 10 35 36 38 39 rings
5 7 11 14 16 17 rings
6 27 31 33 34 35 36 rings
6 34 36 38 40 41 42 rings
6 6 7 11 12 13 18 rings
6 9 26 27 28 31 32 rings

> <PUBCHEM_HEAVY_ATOM_COUNT>
42

> <PUBCHEM_ATOM_DEF_STEREO_COUNT>
3

> <PUBCHEM_ATOM_UDEF_STEREO_COUNT>
3

> <PUBCHEM_BOND_DEF_STEREO_COUNT>
0

> <PUBCHEM_BOND_UDEF_STEREO_COUNT>
0

> <PUBCHEM_ISOTOPIC_ATOM_COUNT>
0

> <PUBCHEM_COMPONENT_COUNT>
1

> <PUBCHEM_CACTVS_TAUTO_COUNT>
2

> <PUBCHEM_CONFORMER_ID>
0006BBC800000008

> <PUBCHEM_MMFF94_ENERGY>
126.7455

> <PUBCHEM_FEATURE_SELFOVERLAP>
97.016

> <PUBCHEM_SHAPE_FINGERPRINT>
10169797 241 18058718118391115480
10864689 126 17909270526675066373
11135609 12 18410859836705156649
11443803 9 17986943065584724100
117089 54 18263634216213478742
12107698 1 18272938180680783307
12128747 34 18114466776507506205
12422481 6 18335124411718765947
131258 43 17896019075784576332
13811026 1 18410016558531338202
14068700 675 18131078134062184536
14556957 393 14979959219986924079
15001296 14 18057889048269636155
15320467 1 18411415099121636879
15361156 5 18129648726116929219
15799311 1 18338497678489900565
17492 89 18411416211633457621
17909252 39 18338226090016072826
22889206 1 17610347035177858641
23559900 14 18337114574335083933
23572383 38 18335706091143830855
25222932 49 17988938790066534970
3004659 81 18130504150284213461
32027 91 18047755089524392374
3383291 50 18271805684506846275
354706 109 18192172570868777843
397830 11 18336277747123101392
4073 2 18335707186350110856
4144715 1 18265335199298701513
4435113 14 18116141363003609007
4461854 278 18262515871534118802
484989 97 18261385703157537630
513532 50 18341335587005848906
5776283 40 18196636433658900342
613672 6 18338818782781783077
6176135 31 18336264540267230595
6698420 124 17973726080857321641
9831232 110 18411697708090305575

> <PUBCHEM_SHAPE_MULTIPOLES>
810.09
18.67
5.74
1.56
15.96
1.78
0.17
9.17
4.57
-0.36
-2.2
-2.74
0.03
3.29

> <PUBCHEM_SHAPE_SELFOVERLAP>
1787.438

> <PUBCHEM_SHAPE_VOLUME>
432.9

> <PUBCHEM_COORDINATE_TYPE>
2
5
10

$$$$

