442183
  -OEChem-07051212573D

 38 41  0     1  0  0  0  0  0999 V2000
    2.9879   -0.4276    1.2969 O   0  0  0  0  0  0  0  0  0  0  0  0
    1.6335   -0.2459   -1.9504 O   0  0  0  0  0  0  0  0  0  0  0  0
   -1.8846    1.4505   -0.3923 O   0  0  0  0  0  0  0  0  0  0  0  0
    0.6433    3.0157   -0.2804 O   0  0  0  0  0  0  0  0  0  0  0  0
   -3.7943    1.3068    0.8808 O   0  0  0  0  0  0  0  0  0  0  0  0
    1.5106   -0.3272   -0.5283 C   0  0  1  0  0  0  0  0  0  0  0  0
    0.3881    0.6027    0.0131 C   0  0  2  0  0  0  0  0  0  0  0  0
    1.5130   -1.7626   -0.0551 C   0  0  2  0  0  0  0  0  0  0  0  0
    2.8194    0.2055    0.0282 C   0  0  1  0  0  0  0  0  0  0  0  0
   -0.8711    0.5348   -0.8835 C   0  0  1  0  0  0  0  0  0  0  0  0
   -1.6090   -0.8110   -1.0046 C   0  0  1  0  0  0  0  0  0  0  0  0
    2.6519    1.7220    0.0952 C   0  0  0  0  0  0  0  0  0  0  0  0
    1.1581    1.9180   -0.1048 C   0  0  0  0  0  0  0  0  0  0  0  0
    0.1511   -2.4533    0.0677 C   0  0  0  0  0  0  0  0  0  0  0  0
    2.3046   -1.6993    1.2537 C   0  0  0  0  0  0  0  0  0  0  0  0
   -0.8305   -2.1399   -1.0647 C   0  0  0  0  0  0  0  0  0  0  0  0
    0.0577    0.5438    1.5235 C   0  0  0  0  0  0  0  0  0  0  0  0
   -2.6471   -0.6550    0.0591 C   0  0  0  0  0  0  0  0  0  0  0  0
   -2.8827    0.7890    0.2617 C   0  0  0  0  0  0  0  0  0  0  0  0
   -3.3001   -1.5670    0.7839 C   0  0  0  0  0  0  0  0  0  0  0  0
    2.1013   -2.3549   -0.7718 H   0  0  0  0  0  0  0  0  0  0  0  0
    3.6904   -0.0498   -0.5880 H   0  0  0  0  0  0  0  0  0  0  0  0
   -0.6202    0.8900   -1.8908 H   0  0  0  0  0  0  0  0  0  0  0  0
   -2.1738   -0.7647   -1.9496 H   0  0  0  0  0  0  0  0  0  0  0  0
    3.1699    2.2120   -0.7342 H   0  0  0  0  0  0  0  0  0  0  0  0
    2.9621    2.1358    1.0574 H   0  0  0  0  0  0  0  0  0  0  0  0
   -0.3200   -2.2687    1.0359 H   0  0  0  0  0  0  0  0  0  0  0  0
    0.3402   -3.5358    0.0593 H   0  0  0  0  0  0  0  0  0  0  0  0
    1.6756   -1.7735    2.1456 H   0  0  0  0  0  0  0  0  0  0  0  0
    3.0536   -2.4966    1.3032 H   0  0  0  0  0  0  0  0  0  0  0  0
   -0.2907   -2.1833   -2.0195 H   0  0  0  0  0  0  0  0  0  0  0  0
   -1.5583   -2.9607   -1.1131 H   0  0  0  0  0  0  0  0  0  0  0  0
   -0.4488   -0.3732    1.8203 H   0  0  0  0  0  0  0  0  0  0  0  0
    0.9427    0.6500    2.1583 H   0  0  0  0  0  0  0  0  0  0  0  0
   -0.5933    1.3778    1.8138 H   0  0  0  0  0  0  0  0  0  0  0  0
    1.7507    0.6830   -2.2098 H   0  0  0  0  0  0  0  0  0  0  0  0
   -3.1257   -2.6278    0.6440 H   0  0  0  0  0  0  0  0  0  0  0  0
   -4.0276   -1.2830    1.5371 H   0  0  0  0  0  0  0  0  0  0  0  0
  1  9  1  0  0  0  0
  1 15  1  0  0  0  0
  2  6  1  0  0  0  0
  2 36  1  0  0  0  0
  3 10  1  0  0  0  0
  3 19  1  0  0  0  0
  4 13  2  0  0  0  0
  5 19  2  0  0  0  0
  6  7  1  0  0  0  0
  6  8  1  0  0  0  0
  6  9  1  0  0  0  0
  7 10  1  0  0  0  0
  7 13  1  0  0  0  0
  7 17  1  0  0  0  0
  8 14  1  0  0  0  0
  8 15  1  0  0  0  0
  8 21  1  0  0  0  0
  9 12  1  0  0  0  0
  9 22  1  0  0  0  0
 10 11  1  0  0  0  0
 10 23  1  0  0  0  0
 11 16  1  0  0  0  0
 11 18  1  0  0  0  0
 11 24  1  0  0  0  0
 12 13  1  0  0  0  0
 12 25  1  0  0  0  0
 12 26  1  0  0  0  0
 14 16  1  0  0  0  0
 14 27  1  0  0  0  0
 14 28  1  0  0  0  0
 15 29  1  0  0  0  0
 15 30  1  0  0  0  0
 16 31  1  0  0  0  0
 16 32  1  0  0  0  0
 17 33  1  0  0  0  0
 17 34  1  0  0  0  0
 17 35  1  0  0  0  0
 18 19  1  0  0  0  0
 18 20  2  0  0  0  0
 20 37  1  0  0  0  0
 20 38  1  0  0  0  0
M  END
> <PUBCHEM_COMPOUND_CID>
442183

> <PUBCHEM_CONFORMER_RMSD>
0.6

> <PUBCHEM_CONFORMER_DIVERSEORDER>
2
1

> <PUBCHEM_MMFF94_PARTIAL_CHARGES>
19
1 -0.56
10 0.28
11 0.14
12 0.06
13 0.45
15 0.28
18 -0.12
19 0.71
2 -0.68
20 -0.3
3 -0.43
36 0.4
37 0.15
38 0.15
4 -0.57
5 -0.57
6 0.28
7 0.06
9 0.28

> <PUBCHEM_EFFECTIVE_ROTOR_COUNT>
1.2

> <PUBCHEM_PHARMACOPHORE_FEATURES>
9
1 1 acceptor
1 2 acceptor
1 2 donor
1 4 acceptor
1 5 acceptor
5 1 6 8 9 15 rings
5 3 10 11 18 19 rings
5 6 7 9 12 13 rings
7 6 7 8 10 11 14 16 rings

> <PUBCHEM_HEAVY_ATOM_COUNT>
20

> <PUBCHEM_ATOM_DEF_STEREO_COUNT>
6

> <PUBCHEM_ATOM_UDEF_STEREO_COUNT>
0

> <PUBCHEM_BOND_DEF_STEREO_COUNT>
0

> <PUBCHEM_BOND_UDEF_STEREO_COUNT>
0

> <PUBCHEM_ISOTOPIC_ATOM_COUNT>
0

> <PUBCHEM_COMPONENT_COUNT>
1

> <PUBCHEM_CACTVS_TAUTO_COUNT>
2

> <PUBCHEM_CONFORMER_ID>
0006BF4700000002

> <PUBCHEM_MMFF94_ENERGY>
77.1012

> <PUBCHEM_FEATURE_SELFOVERLAP>
46.205

> <PUBCHEM_SHAPE_FINGERPRINT>
10064457 181 16629945724975309099
10863032 1 18413670205616274890
10948715 1 18262514767552696928
10967382 1 18338519745562161189
11067466 332 17987785307336566862
11086676 242 18270687592127016144
12251169 10 18411978087802681513
12382932 28 18337679731574050299
12423570 1 15666167313105203254
12491281 212 18125724491639206288
12633257 1 18271237339609517291
12696612 119 18410295787240062236
13132413 78 18336837407199430600
13140716 1 18338241564772586808
13172582 1 18335427893079214046
13221675 6 18338515214361205478
14178342 30 18335703892273316107
14223421 5 18341047415726398739
144361 1 17897156919140452046
15375462 189 18130792308240690450
15775835 57 18412821382623684007
16945 1 18193286204026957950
21501502 16 18338241457514435655
22445834 79 18341335483335282579
2334 1 18410581673169284924
23419403 2 15678935438853176206
23463225 33 18340773735740608627
23493267 7 18041267803627279356
2748010 2 18263649635135047590
3286 77 18059576836840772963
5939293 188 18335137600482390832
90525 40 18334860489381973927

> <PUBCHEM_SHAPE_MULTIPOLES>
382.24
4.8
2.62
1.26
2.33
0.18
0.03
0.41
-1.34
-0.3
0.01
-0.2
-0.27
-0.45

> <PUBCHEM_SHAPE_SELFOVERLAP>
848.479

> <PUBCHEM_SHAPE_VOLUME>
204.4

> <PUBCHEM_COORDINATE_TYPE>
2
5
10

$$$$

