5356754
  -OEChem-07051213073D

 34 36  0     0  0  0  0  0  0999 V2000
    1.4859    1.7086   -0.1247 O   0  0  0  0  0  0  0  0  0  0  0  0
    3.3706    2.9447    0.2200 O   0  0  0  0  0  0  0  0  0  0  0  0
   -3.1394    1.6229   -0.8748 O   0  0  0  0  0  0  0  0  0  0  0  0
   -5.8468   -0.8604    2.0213 O   0  0  0  0  0  0  0  0  0  0  0  0
   -4.2965    0.7481    1.5588 O   0  0  0  0  0  0  0  0  0  0  0  0
   -2.6129   -0.6707   -0.8659 N   0  0  0  0  0  0  0  0  0  0  0  0
    1.5632   -0.7320   -0.1936 C   0  0  0  0  0  0  0  0  0  0  0  0
    3.0109   -0.6671    0.0420 C   0  0  0  0  0  0  0  0  0  0  0  0
    0.8417    0.4616   -0.2702 C   0  0  0  0  0  0  0  0  0  0  0  0
    3.6312    0.5866    0.1841 C   0  0  0  0  0  0  0  0  0  0  0  0
    0.8305   -1.9198   -0.3518 C   0  0  0  0  0  0  0  0  0  0  0  0
   -0.5375    0.5034   -0.4914 C   0  0  0  0  0  0  0  0  0  0  0  0
   -1.2359   -0.6874   -0.6444 C   0  0  0  0  0  0  0  0  0  0  0  0
    3.8306   -1.8077    0.1355 C   0  0  0  0  0  0  0  0  0  0  0  0
   -0.5527   -1.8981   -0.5745 C   0  0  0  0  0  0  0  0  0  0  0  0
    2.8491    1.8435    0.1002 C   0  0  0  0  0  0  0  0  0  0  0  0
    5.0130    0.6917    0.4104 C   0  0  0  0  0  0  0  0  0  0  0  0
    5.2064   -1.7032    0.3610 C   0  0  0  0  0  0  0  0  0  0  0  0
    5.7973   -0.4541    0.4983 C   0  0  0  0  0  0  0  0  0  0  0  0
   -3.4588    0.4432   -0.9653 C   0  0  0  0  0  0  0  0  0  0  0  0
   -4.8769    0.0396   -1.2074 C   0  0  0  0  0  0  0  0  0  0  0  0
   -5.6946   -0.1783   -0.1703 C   0  0  0  0  0  0  0  0  0  0  0  0
   -5.1782   -0.0152    1.2026 C   0  0  0  0  0  0  0  0  0  0  0  0
    1.3099   -2.8936   -0.3069 H   0  0  0  0  0  0  0  0  0  0  0  0
   -0.9909    1.4837   -0.5313 H   0  0  0  0  0  0  0  0  0  0  0  0
    3.4218   -2.8095    0.0357 H   0  0  0  0  0  0  0  0  0  0  0  0
   -1.0817   -2.8411   -0.6915 H   0  0  0  0  0  0  0  0  0  0  0  0
    5.4951    1.6596    0.5207 H   0  0  0  0  0  0  0  0  0  0  0  0
    5.8132   -2.6017    0.4285 H   0  0  0  0  0  0  0  0  0  0  0  0
    6.8657   -0.3718    0.6734 H   0  0  0  0  0  0  0  0  0  0  0  0
   -3.0450   -1.5872   -0.9670 H   0  0  0  0  0  0  0  0  0  0  0  0
   -5.1973   -0.0953   -2.2332 H   0  0  0  0  0  0  0  0  0  0  0  0
   -6.7128   -0.5185   -0.3172 H   0  0  0  0  0  0  0  0  0  0  0  0
   -5.5397   -0.7916    2.9504 H   0  0  0  0  0  0  0  0  0  0  0  0
  1  9  1  0  0  0  0
  1 16  1  0  0  0  0
  2 16  2  0  0  0  0
  3 20  2  0  0  0  0
  4 23  1  0  0  0  0
  4 34  1  0  0  0  0
  5 23  2  0  0  0  0
  6 13  1  0  0  0  0
  6 20  1  0  0  0  0
  6 31  1  0  0  0  0
  7  8  1  0  0  0  0
  7  9  2  0  0  0  0
  7 11  1  0  0  0  0
  8 10  1  0  0  0  0
  8 14  2  0  0  0  0
  9 12  1  0  0  0  0
 10 16  1  0  0  0  0
 10 17  2  0  0  0  0
 11 15  2  0  0  0  0
 11 24  1  0  0  0  0
 12 13  2  0  0  0  0
 12 25  1  0  0  0  0
 13 15  1  0  0  0  0
 14 18  1  0  0  0  0
 14 26  1  0  0  0  0
 15 27  1  0  0  0  0
 17 19  1  0  0  0  0
 17 28  1  0  0  0  0
 18 19  2  0  0  0  0
 18 29  1  0  0  0  0
 19 30  1  0  0  0  0
 20 21  1  0  0  0  0
 21 22  2  0  0  0  0
 21 32  1  0  0  0  0
 22 23  1  0  0  0  0
 22 33  1  0  0  0  0
M  END
> <PUBCHEM_COMPOUND_CID>
5356754

> <PUBCHEM_CONFORMER_RMSD>
0.6

> <PUBCHEM_CONFORMER_DIVERSEORDER>
1
8
14
10
7
9
13
2
11
3
5
12
15
6
4
16

> <PUBCHEM_MMFF94_PARTIAL_CHARGES>
32
1 -0.23
10 0.09
11 -0.15
12 -0.15
13 0.12
14 -0.15
15 -0.15
16 0.63
17 -0.15
18 -0.15
19 -0.15
2 -0.57
20 0.62
21 -0.14
22 -0.14
23 0.71
24 0.15
25 0.15
26 0.15
27 0.15
28 0.15
29 0.15
3 -0.57
30 0.15
31 0.37
32 0.15
33 0.15
34 0.5
4 -0.65
5 -0.57
6 -0.55
9 0.08

> <PUBCHEM_EFFECTIVE_ROTOR_COUNT>
4

> <PUBCHEM_PHARMACOPHORE_FEATURES>
9
1 2 acceptor
1 3 acceptor
1 4 acceptor
1 5 acceptor
1 6 donor
3 4 5 23 anion
6 1 7 8 9 10 16 rings
6 7 9 11 12 13 15 rings
6 8 10 14 17 18 19 rings

> <PUBCHEM_HEAVY_ATOM_COUNT>
23

> <PUBCHEM_ATOM_DEF_STEREO_COUNT>
0

> <PUBCHEM_ATOM_UDEF_STEREO_COUNT>
0

> <PUBCHEM_BOND_DEF_STEREO_COUNT>
1

> <PUBCHEM_BOND_UDEF_STEREO_COUNT>
0

> <PUBCHEM_ISOTOPIC_ATOM_COUNT>
0

> <PUBCHEM_COMPONENT_COUNT>
1

> <PUBCHEM_CACTVS_TAUTO_COUNT>
3

> <PUBCHEM_CONFORMER_ID>
0051BCD200000001

> <PUBCHEM_MMFF94_ENERGY>
86.2459

> <PUBCHEM_FEATURE_SELFOVERLAP>
45.776

> <PUBCHEM_SHAPE_FINGERPRINT>
10 15 18059582347806072696
10688039 33 18130791200150288380
10906281 52 18261946376498197502
11045977 3 17989205941169193835
11405975 8 18335704892816352170
11545043 162 17489870457697310749
11646440 116 18260553329377598184
12166972 35 17967817154300947328
12236239 1 17676211268566557671
12403259 415 18201170909020503205
12616971 3 18186805768339451277
13140716 1 18338234856202851998
13533116 47 17458346381740977278
13583140 156 17417547877120098439
13782708 43 17417535825400330754
14251764 18 18260835878043287318
14341114 176 18343299266773535127
14341114 328 17676194768056483081
14849402 71 17968662601534113944
15081414 286 18261672675195865374
15188451 53 16486972848335639555
15196674 1 18338244863497614620
15348495 7 18202278066243479609
15475509 35 16916520228421359632
15475509 8 17823677807492948364
17349148 13 17894912944577611136
17844677 252 18412263960594269069
18769570 83 15719390655000700715
18785283 64 18271801272883862124
19489759 90 16486977315111806375
21033648 144 18191042135101905276
21033648 29 17987819465375268973
21033650 10 15647872878179866698
21267235 1 18338236072527890382
21279426 13 18195255648664604206
21623969 137 18342735230135775042
21682296 61 18266458895944947422
21792961 116 18129939092388612278
23402539 116 15068630391428040459
23536379 177 15502374538820318998
23557571 272 16988288698003449743
23559900 14 18188503380676667368
23569943 247 17679857391202284014
25147074 1 18116158778852861862
3178227 256 18341890809954148322
335352 9 18409456869465696118
34797466 226 15841259428685898550
350125 39 18410296938450183388
4340502 62 16988849388994171834
465052 167 18201719578793071290
5104073 3 18264499390504768002
542803 24 17095245817055577095
602551 16 16271919389984940763
7495541 125 17275099526996563686
8863177 126 17988636372233742210
9996256 80 18335143051254812751

> <PUBCHEM_SHAPE_MULTIPOLES>
439
14.24
2.06
1.13
8.62
0.6
-0.4
-0.67
-4.49
-2.45
0.06
2.16
-0.07
0.24

> <PUBCHEM_SHAPE_SELFOVERLAP>
969.559

> <PUBCHEM_SHAPE_VOLUME>
232.4

> <PUBCHEM_COORDINATE_TYPE>
2
5
10

$$$$

