44563198
  -OEChem-07051213102D

 65 67  0     1  0  0  0  0  0999 V2000
    8.6270   -0.2847    0.0000 O   0  0  0  0  0  0  0  0  0  0  0  0
    2.5369   -0.7500    0.0000 O   0  0  0  0  0  0  0  0  0  0  0  0
    5.1350   -0.2500    0.0000 O   0  0  0  0  0  0  0  0  0  0  0  0
    6.8671    2.7500    0.0000 O   0  0  0  0  0  0  0  0  0  0  0  0
    8.6155    2.7846    0.0000 O   0  0  0  0  0  0  0  0  0  0  0  0
    9.5254   -1.7708    0.0000 O   0  0  0  0  0  0  0  0  0  0  0  0
   12.9895   -1.7842    0.0000 O   0  0  0  0  0  0  0  0  0  0  0  0
    6.0010   -1.7500    0.0000 C   0  0  2  0  0  0  0  0  0  0  0  0
    5.1350   -1.2500    0.0000 C   0  0  0  0  0  0  0  0  0  0  0  0
    6.8671   -1.2500    0.0000 C   0  0  0  0  0  0  0  0  0  0  0  0
    4.2690   -1.7500    0.0000 C   0  0  0  0  0  0  0  0  0  0  0  0
    3.4030   -1.2500    0.0000 C   0  0  0  0  0  0  0  0  0  0  0  0
    6.8671   -0.2500    0.0000 C   0  0  0  0  0  0  0  0  0  0  0  0
    6.0010   -2.7500    0.0000 C   0  0  0  0  0  0  0  0  0  0  0  0
    7.7331    0.2500    0.0000 C   0  0  0  0  0  0  0  0  0  0  0  0
    9.5331    0.2292    0.0000 C   0  0  1  0  0  0  0  0  0  0  0  0
    7.7331    1.2500    0.0000 C   0  0  0  0  0  0  0  0  0  0  0  0
    9.5331    1.2708    0.0000 C   0  0  0  0  0  0  0  0  0  0  0  0
    2.9030   -2.1160    0.0000 C   0  0  0  0  0  0  0  0  0  0  0  0
    3.9030   -0.3840    0.0000 C   0  0  0  0  0  0  0  0  0  0  0  0
    6.0010    0.2500    0.0000 C   0  0  0  0  0  0  0  0  0  0  0  0
    8.6270    1.7847    0.0000 C   0  0  0  0  0  0  0  0  0  0  0  0
    6.8671    1.7500    0.0000 C   0  0  0  0  0  0  0  0  0  0  0  0
    5.1350   -3.2500    0.0000 C   0  0  0  0  0  0  0  0  0  0  0  0
    6.0010    1.2500    0.0000 C   0  0  0  0  0  0  0  0  0  0  0  0
   10.3972   -0.2742    0.0000 C   0  0  0  0  0  0  0  0  0  0  0  0
    6.8671   -3.2500    0.0000 C   0  0  0  0  0  0  0  0  0  0  0  0
   10.3933   -1.2741    0.0000 C   0  0  0  0  0  0  0  0  0  0  0  0
   11.2651    0.2225    0.0000 C   0  0  0  0  0  0  0  0  0  0  0  0
   11.2574   -1.7775    0.0000 C   0  0  0  0  0  0  0  0  0  0  0  0
   12.1292   -0.2808    0.0000 C   0  0  0  0  0  0  0  0  0  0  0  0
   12.1254   -1.2808    0.0000 C   0  0  0  0  0  0  0  0  0  0  0  0
    6.0010    3.2500    0.0000 C   0  0  0  0  0  0  0  0  0  0  0  0
    5.4641   -2.0600    0.0000 H   0  0  0  0  0  0  0  0  0  0  0  0
    5.5335   -0.7751    0.0000 H   0  0  0  0  0  0  0  0  0  0  0  0
    4.7365   -0.7751    0.0000 H   0  0  0  0  0  0  0  0  0  0  0  0
    7.0791   -1.8326    0.0000 H   0  0  0  0  0  0  0  0  0  0  0  0
    7.4776   -1.1423    0.0000 H   0  0  0  0  0  0  0  0  0  0  0  0
    3.8705   -2.2250    0.0000 H   0  0  0  0  0  0  0  0  0  0  0  0
    4.6675   -2.2250    0.0000 H   0  0  0  0  0  0  0  0  0  0  0  0
    9.5282   -0.6208    0.0000 H   0  0  0  0  0  0  0  0  0  0  0  0
   10.1440    1.1647    0.0000 H   0  0  0  0  0  0  0  0  0  0  0  0
    9.7422    1.8545    0.0000 H   0  0  0  0  0  0  0  0  0  0  0  0
    4.4399   -0.6940    0.0000 H   0  0  0  0  0  0  0  0  0  0  0  0
    4.2130    0.1530    0.0000 H   0  0  0  0  0  0  0  0  0  0  0  0
    3.3660   -0.0740    0.0000 H   0  0  0  0  0  0  0  0  0  0  0  0
    2.3660   -1.8060    0.0000 H   0  0  0  0  0  0  0  0  0  0  0  0
    2.5930   -2.6530    0.0000 H   0  0  0  0  0  0  0  0  0  0  0  0
    3.4399   -2.4260    0.0000 H   0  0  0  0  0  0  0  0  0  0  0  0
    4.8250   -2.7131    0.0000 H   0  0  0  0  0  0  0  0  0  0  0  0
    4.5981   -3.5600    0.0000 H   0  0  0  0  0  0  0  0  0  0  0  0
    5.4450   -3.7869    0.0000 H   0  0  0  0  0  0  0  0  0  0  0  0
    5.4641    1.5600    0.0000 H   0  0  0  0  0  0  0  0  0  0  0  0
    2.0000   -1.0600    0.0000 H   0  0  0  0  0  0  0  0  0  0  0  0
    6.8671   -3.8700    0.0000 H   0  0  0  0  0  0  0  0  0  0  0  0
    7.4040   -2.9400    0.0000 H   0  0  0  0  0  0  0  0  0  0  0  0
   11.2675    0.8425    0.0000 H   0  0  0  0  0  0  0  0  0  0  0  0
    4.5981    0.0600    0.0000 H   0  0  0  0  0  0  0  0  0  0  0  0
   11.2550   -2.3975    0.0000 H   0  0  0  0  0  0  0  0  0  0  0  0
   12.6674    0.0271    0.0000 H   0  0  0  0  0  0  0  0  0  0  0  0
    6.3110    3.7869    0.0000 H   0  0  0  0  0  0  0  0  0  0  0  0
    5.4641    3.5600    0.0000 H   0  0  0  0  0  0  0  0  0  0  0  0
    5.6910    2.7131    0.0000 H   0  0  0  0  0  0  0  0  0  0  0  0
    9.5230   -2.3908    0.0000 H   0  0  0  0  0  0  0  0  0  0  0  0
   13.5276   -1.4762    0.0000 H   0  0  0  0  0  0  0  0  0  0  0  0
  1 15  1  0  0  0  0
  1 16  1  0  0  0  0
  2 12  1  0  0  0  0
  2 54  1  0  0  0  0
  3 21  1  0  0  0  0
  3 58  1  0  0  0  0
  4 23  1  0  0  0  0
  4 33  1  0  0  0  0
  5 22  2  0  0  0  0
  6 28  1  0  0  0  0
  6 64  1  0  0  0  0
  7 32  1  0  0  0  0
  7 65  1  0  0  0  0
  8  9  1  6  0  0  0
  8 10  1  0  0  0  0
  8 14  1  0  0  0  0
  8 34  1  0  0  0  0
  9 11  1  0  0  0  0
  9 35  1  0  0  0  0
  9 36  1  0  0  0  0
 10 13  1  0  0  0  0
 10 37  1  0  0  0  0
 10 38  1  0  0  0  0
 11 12  1  0  0  0  0
 11 39  1  0  0  0  0
 11 40  1  0  0  0  0
 12 19  1  0  0  0  0
 12 20  1  0  0  0  0
 13 15  2  0  0  0  0
 13 21  1  0  0  0  0
 14 24  1  0  0  0  0
 14 27  2  0  0  0  0
 15 17  1  0  0  0  0
 16 18  1  0  0  0  0
 16 26  1  0  0  0  0
 16 41  1  6  0  0  0
 17 22  1  0  0  0  0
 17 23  2  0  0  0  0
 18 22  1  0  0  0  0
 18 42  1  0  0  0  0
 18 43  1  0  0  0  0
 19 47  1  0  0  0  0
 19 48  1  0  0  0  0
 19 49  1  0  0  0  0
 20 44  1  0  0  0  0
 20 45  1  0  0  0  0
 20 46  1  0  0  0  0
 21 25  2  0  0  0  0
 23 25  1  0  0  0  0
 24 50  1  0  0  0  0
 24 51  1  0  0  0  0
 24 52  1  0  0  0  0
 25 53  1  0  0  0  0
 26 28  2  0  0  0  0
 26 29  1  0  0  0  0
 27 55  1  0  0  0  0
 27 56  1  0  0  0  0
 28 30  1  0  0  0  0
 29 31  2  0  0  0  0
 29 57  1  0  0  0  0
 30 32  2  0  0  0  0
 30 59  1  0  0  0  0
 31 32  1  0  0  0  0
 31 60  1  0  0  0  0
 33 61  1  0  0  0  0
 33 62  1  0  0  0  0
 33 63  1  0  0  0  0
M  END
> <PUBCHEM_COMPOUND_CID>
44563198

> <PUBCHEM_COMPOUND_CANONICALIZED>
1

> <PUBCHEM_CACTVS_COMPLEXITY>
692

> <PUBCHEM_CACTVS_HBOND_ACCEPTOR>
7

> <PUBCHEM_CACTVS_HBOND_DONOR>
4

> <PUBCHEM_CACTVS_ROTATABLE_BOND>
8

> <PUBCHEM_CACTVS_SUBSKEYS>
AAADcfB4OAAAAAAAAAAAAAAAAAAAAAAAAAA0YIAAAAAAAACRQAAAGgAACAAADVSgmAIyBoAABgCIAqBSAAACCAAkIAAIiAEGCMgMJzaGNRqCeWCl4BUIuQeI7OzOIAACCAAIAABAAAQQABAAAAAAAAAAAA==

> <PUBCHEM_IUPAC_OPENEYE_NAME>
(2S)-2-(2,4-dihydroxyphenyl)-7-hydroxy-8-[(2R)-5-hydroxy-2-isopropenyl-5-methyl-hexyl]-5-methoxy-chroman-4-one

> <PUBCHEM_IUPAC_CAS_NAME>
(2S)-2-(2,4-dihydroxyphenyl)-7-hydroxy-8-[(2R)-5-hydroxy-5-methyl-2-(1-methylethenyl)hexyl]-5-methoxy-3,4-dihydro-2H-1-benzopyran-4-one

> <PUBCHEM_IUPAC_NAME>
(2S)-2-(2,4-dihydroxyphenyl)-7-hydroxy-8-[(2R)-5-hydroxy-5-methyl-2-prop-1-en-2-ylhexyl]-5-methoxy-2,3-dihydrochromen-4-one

> <PUBCHEM_IUPAC_SYSTEMATIC_NAME>
(2S)-2-[2,4-bis(oxidanyl)phenyl]-5-methoxy-8-[(2R)-5-methyl-5-oxidanyl-2-prop-1-en-2-yl-hexyl]-7-oxidanyl-2,3-dihydrochromen-4-one

> <PUBCHEM_IUPAC_TRADITIONAL_NAME>
(2S)-2-(2,4-dihydroxyphenyl)-7-hydroxy-8-[(2R)-2-(3-hydroxy-3-methyl-butyl)-3-methyl-but-3-enyl]-5-methoxy-chroman-4-one

> <PUBCHEM_IUPAC_INCHI>
InChI=1S/C26H32O7/c1-14(2)15(8-9-26(3,4)31)10-18-20(29)12-23(32-5)24-21(30)13-22(33-25(18)24)17-7-6-16(27)11-19(17)28/h6-7,11-12,15,22,27-29,31H,1,8-10,13H2,2-5H3/t15-,22+/m1/s1

> <PUBCHEM_IUPAC_INCHIKEY>
XMUPAAIHKAIUSU-QRQCRPRQSA-N

> <PUBCHEM_XLOGP3_AA>
4.2

> <PUBCHEM_EXACT_MASS>
456.214803

> <PUBCHEM_MOLECULAR_FORMULA>
C26H32O7

> <PUBCHEM_MOLECULAR_WEIGHT>
456.52808

> <PUBCHEM_OPENEYE_CAN_SMILES>
CC(=C)C(CCC(C)(C)O)CC1=C(C=C(C2=C1OC(CC2=O)C3=C(C=C(C=C3)O)O)OC)O

> <PUBCHEM_OPENEYE_ISO_SMILES>
CC(=C)[C@H](CCC(C)(C)O)CC1=C(C=C(C2=C1O[C@@H](CC2=O)C3=C(C=C(C=C3)O)O)OC)O

> <PUBCHEM_CACTVS_TPSA>
116

> <PUBCHEM_MONOISOTOPIC_WEIGHT>
456.214803

> <PUBCHEM_TOTAL_CHARGE>
0

> <PUBCHEM_HEAVY_ATOM_COUNT>
33

> <PUBCHEM_ATOM_DEF_STEREO_COUNT>
2

> <PUBCHEM_ATOM_UDEF_STEREO_COUNT>
0

> <PUBCHEM_BOND_DEF_STEREO_COUNT>
0

> <PUBCHEM_BOND_UDEF_STEREO_COUNT>
0

> <PUBCHEM_ISOTOPIC_ATOM_COUNT>
0

> <PUBCHEM_COMPONENT_COUNT>
1

> <PUBCHEM_CACTVS_TAUTO_COUNT>
81

> <PUBCHEM_COORDINATE_TYPE>
1
5
255

> <PUBCHEM_BONDANNOTATIONS>
13  15  8
13  21  8
15  17  8
16  41  6
17  23  8
21  25  8
23  25  8
26  28  8
26  29  8
28  30  8
29  31  8
30  32  8
31  32  8
8  9  6

$$$$

