47205606
  -OEChem-06241222592D

 33 34  0     0  0  0  0  0  0999 V2000
    3.7320   -4.1830    0.0000 Cl  0  0  0  0  0  0  0  0  0  0  0  0
    4.5981    3.3170    0.0000 O   0  0  0  0  0  0  0  0  0  0  0  0
    5.4641   -0.1830    0.0000 O   0  0  0  0  0  0  0  0  0  0  0  0
    5.4641    1.8170    0.0000 N   0  0  0  0  0  0  0  0  0  0  0  0
    3.7320   -0.1830    0.0000 N   0  0  0  0  0  0  0  0  0  0  0  0
    6.3301    3.3170    0.0000 C   0  0  0  0  0  0  0  0  0  0  0  0
    7.3301    3.3170    0.0000 C   0  0  0  0  0  0  0  0  0  0  0  0
    6.8301    4.1830    0.0000 C   0  0  0  0  0  0  0  0  0  0  0  0
    5.4641    2.8170    0.0000 C   0  0  0  0  0  0  0  0  0  0  0  0
    4.5981    1.3170    0.0000 C   0  0  0  0  0  0  0  0  0  0  0  0
    4.5981    0.3170    0.0000 C   0  0  0  0  0  0  0  0  0  0  0  0
    3.7320   -1.1830    0.0000 C   0  0  0  0  0  0  0  0  0  0  0  0
    2.8660   -1.6830    0.0000 C   0  0  0  0  0  0  0  0  0  0  0  0
    4.5981   -1.6830    0.0000 C   0  0  0  0  0  0  0  0  0  0  0  0
    2.8660   -2.6830    0.0000 C   0  0  0  0  0  0  0  0  0  0  0  0
    2.0000   -1.1830    0.0000 C   0  0  0  0  0  0  0  0  0  0  0  0
    4.5981   -2.6830    0.0000 C   0  0  0  0  0  0  0  0  0  0  0  0
    3.7320   -3.1830    0.0000 C   0  0  0  0  0  0  0  0  0  0  0  0
    5.8917    3.7554    0.0000 H   0  0  0  0  0  0  0  0  0  0  0  0
    7.3051    4.5815    0.0000 H   0  0  0  0  0  0  0  0  0  0  0  0
    6.3552    4.5815    0.0000 H   0  0  0  0  0  0  0  0  0  0  0  0
    7.4378    2.7064    0.0000 H   0  0  0  0  0  0  0  0  0  0  0  0
    7.9127    3.5290    0.0000 H   0  0  0  0  0  0  0  0  0  0  0  0
    6.0010    1.5070    0.0000 H   0  0  0  0  0  0  0  0  0  0  0  0
    4.3860    1.8996    0.0000 H   0  0  0  0  0  0  0  0  0  0  0  0
    3.9875    1.2093    0.0000 H   0  0  0  0  0  0  0  0  0  0  0  0
    3.1951    0.1270    0.0000 H   0  0  0  0  0  0  0  0  0  0  0  0
    5.1350   -1.3730    0.0000 H   0  0  0  0  0  0  0  0  0  0  0  0
    2.3291   -2.9930    0.0000 H   0  0  0  0  0  0  0  0  0  0  0  0
    2.3100   -0.6461    0.0000 H   0  0  0  0  0  0  0  0  0  0  0  0
    1.4631   -0.8730    0.0000 H   0  0  0  0  0  0  0  0  0  0  0  0
    1.6900   -1.7200    0.0000 H   0  0  0  0  0  0  0  0  0  0  0  0
    5.1350   -2.9930    0.0000 H   0  0  0  0  0  0  0  0  0  0  0  0
  1 18  1  0  0  0  0
  2  9  2  0  0  0  0
  3 11  2  0  0  0  0
  4  9  1  0  0  0  0
  4 10  1  0  0  0  0
  4 24  1  0  0  0  0
  5 11  1  0  0  0  0
  5 12  1  0  0  0  0
  5 27  1  0  0  0  0
  6  7  1  0  0  0  0
  6  8  1  0  0  0  0
  6  9  1  0  0  0  0
  6 19  1  0  0  0  0
  7  8  1  0  0  0  0
  7 22  1  0  0  0  0
  7 23  1  0  0  0  0
  8 20  1  0  0  0  0
  8 21  1  0  0  0  0
 10 11  1  0  0  0  0
 10 25  1  0  0  0  0
 10 26  1  0  0  0  0
 12 13  2  0  0  0  0
 12 14  1  0  0  0  0
 13 15  1  0  0  0  0
 13 16  1  0  0  0  0
 14 17  2  0  0  0  0
 14 28  1  0  0  0  0
 15 18  2  0  0  0  0
 15 29  1  0  0  0  0
 16 30  1  0  0  0  0
 16 31  1  0  0  0  0
 16 32  1  0  0  0  0
 17 18  1  0  0  0  0
 17 33  1  0  0  0  0
M  END
> <PUBCHEM_COMPOUND_CID>
47205606

> <PUBCHEM_COMPOUND_CANONICALIZED>
1

> <PUBCHEM_CACTVS_COMPLEXITY>
331

> <PUBCHEM_CACTVS_HBOND_ACCEPTOR>
2

> <PUBCHEM_CACTVS_HBOND_DONOR>
2

> <PUBCHEM_CACTVS_ROTATABLE_BOND>
4

> <PUBCHEM_CACTVS_SUBSKEYS>
AAADccBzMAAEAAAAAAAAAAAAGAAAAAAAAAAwAAAAAAAAAAABAAAAHgIQAAAADQrBmCQywILAAACIAiVSUACCAAAhBwAIiIGIZogIYDLBk7GUIAhglgDIyAcQgAAOAABAIAACAAAAAIBAAAQAAAAAAAAAAA==

> <PUBCHEM_IUPAC_OPENEYE_NAME>
N-[2-(4-chloro-2-methyl-anilino)-2-oxo-ethyl]cyclopropanecarboxamide

> <PUBCHEM_IUPAC_CAS_NAME>
N-[2-(4-chloro-2-methylanilino)-2-oxoethyl]cyclopropanecarboxamide

> <PUBCHEM_IUPAC_NAME>
N-[2-(4-chloro-2-methylanilino)-2-oxoethyl]cyclopropanecarboxamide

> <PUBCHEM_IUPAC_SYSTEMATIC_NAME>
N-[2-[(4-chloranyl-2-methyl-phenyl)amino]-2-oxidanylidene-ethyl]cyclopropanecarboxamide

> <PUBCHEM_IUPAC_TRADITIONAL_NAME>
N-[2-(4-chloro-2-methyl-anilino)-2-keto-ethyl]cyclopropanecarboxamide

> <PUBCHEM_IUPAC_INCHI>
InChI=1S/C13H15ClN2O2/c1-8-6-10(14)4-5-11(8)16-12(17)7-15-13(18)9-2-3-9/h4-6,9H,2-3,7H2,1H3,(H,15,18)(H,16,17)

> <PUBCHEM_IUPAC_INCHIKEY>
XJDJYWYEPAILLQ-UHFFFAOYSA-N

> <PUBCHEM_XLOGP3_AA>
1.9

> <PUBCHEM_EXACT_MASS>
266.082205

> <PUBCHEM_MOLECULAR_FORMULA>
C13H15ClN2O2

> <PUBCHEM_MOLECULAR_WEIGHT>
266.7234

> <PUBCHEM_OPENEYE_CAN_SMILES>
CC1=C(C=CC(=C1)Cl)NC(=O)CNC(=O)C2CC2

> <PUBCHEM_OPENEYE_ISO_SMILES>
CC1=C(C=CC(=C1)Cl)NC(=O)CNC(=O)C2CC2

> <PUBCHEM_CACTVS_TPSA>
58.2

> <PUBCHEM_MONOISOTOPIC_WEIGHT>
266.082205

> <PUBCHEM_TOTAL_CHARGE>
0

> <PUBCHEM_HEAVY_ATOM_COUNT>
18

> <PUBCHEM_ATOM_DEF_STEREO_COUNT>
0

> <PUBCHEM_ATOM_UDEF_STEREO_COUNT>
0

> <PUBCHEM_BOND_DEF_STEREO_COUNT>
0

> <PUBCHEM_BOND_UDEF_STEREO_COUNT>
0

> <PUBCHEM_ISOTOPIC_ATOM_COUNT>
0

> <PUBCHEM_COMPONENT_COUNT>
1

> <PUBCHEM_CACTVS_TAUTO_COUNT>
6

> <PUBCHEM_COORDINATE_TYPE>
1
5
255

> <PUBCHEM_BONDANNOTATIONS>
12  13  8
12  14  8
13  15  8
14  17  8
15  18  8
17  18  8

$$$$

