174862
  -OEChem-07051213002D

 53 53  0     0  0  0  0  0  0999 V2000
    5.4641   -5.6900    0.0000 O   0  0  0  0  0  0  0  0  0  0  0  0
    2.0000   -5.6900    0.0000 O   0  0  0  0  0  0  0  0  0  0  0  0
    6.3301    0.8100    0.0000 C   0  0  0  0  0  0  0  0  0  0  0  0
    6.3301    1.8100    0.0000 C   0  0  0  0  0  0  0  0  0  0  0  0
    5.4641    0.3100    0.0000 C   0  0  0  0  0  0  0  0  0  0  0  0
    7.1962    2.3100    0.0000 C   0  0  0  0  0  0  0  0  0  0  0  0
    5.4641   -0.6900    0.0000 C   0  0  0  0  0  0  0  0  0  0  0  0
    7.1962    3.3100    0.0000 C   0  0  0  0  0  0  0  0  0  0  0  0
    4.5981   -1.1900    0.0000 C   0  0  0  0  0  0  0  0  0  0  0  0
    8.0622    3.8100    0.0000 C   0  0  0  0  0  0  0  0  0  0  0  0
    4.5981   -2.1900    0.0000 C   0  0  0  0  0  0  0  0  0  0  0  0
    8.0622    4.8100    0.0000 C   0  0  0  0  0  0  0  0  0  0  0  0
    3.7320   -2.6900    0.0000 C   0  0  0  0  0  0  0  0  0  0  0  0
    8.9282    5.3100    0.0000 C   0  0  0  0  0  0  0  0  0  0  0  0
    3.7320   -3.6900    0.0000 C   0  0  0  0  0  0  0  0  0  0  0  0
    8.9282    6.3100    0.0000 C   0  0  0  0  0  0  0  0  0  0  0  0
    2.8660   -4.1900    0.0000 C   0  0  0  0  0  0  0  0  0  0  0  0
    4.5981   -4.1900    0.0000 C   0  0  0  0  0  0  0  0  0  0  0  0
    4.5981   -5.1900    0.0000 C   0  0  0  0  0  0  0  0  0  0  0  0
    2.8660   -5.1900    0.0000 C   0  0  0  0  0  0  0  0  0  0  0  0
    3.7320   -5.6900    0.0000 C   0  0  0  0  0  0  0  0  0  0  0  0
    6.5422    0.2274    0.0000 H   0  0  0  0  0  0  0  0  0  0  0  0
    6.9407    0.9177    0.0000 H   0  0  0  0  0  0  0  0  0  0  0  0
    6.1181    2.3926    0.0000 H   0  0  0  0  0  0  0  0  0  0  0  0
    5.7196    1.7023    0.0000 H   0  0  0  0  0  0  0  0  0  0  0  0
    5.2520    0.8926    0.0000 H   0  0  0  0  0  0  0  0  0  0  0  0
    4.8535    0.2023    0.0000 H   0  0  0  0  0  0  0  0  0  0  0  0
    7.4082    1.7274    0.0000 H   0  0  0  0  0  0  0  0  0  0  0  0
    7.8067    2.4177    0.0000 H   0  0  0  0  0  0  0  0  0  0  0  0
    5.6762   -1.2726    0.0000 H   0  0  0  0  0  0  0  0  0  0  0  0
    6.0747   -0.5823    0.0000 H   0  0  0  0  0  0  0  0  0  0  0  0
    6.9841    3.8926    0.0000 H   0  0  0  0  0  0  0  0  0  0  0  0
    6.5856    3.2023    0.0000 H   0  0  0  0  0  0  0  0  0  0  0  0
    4.3860   -0.6074    0.0000 H   0  0  0  0  0  0  0  0  0  0  0  0
    3.9875   -1.2977    0.0000 H   0  0  0  0  0  0  0  0  0  0  0  0
    8.2742    3.2274    0.0000 H   0  0  0  0  0  0  0  0  0  0  0  0
    8.6728    3.9177    0.0000 H   0  0  0  0  0  0  0  0  0  0  0  0
    4.8101   -2.7726    0.0000 H   0  0  0  0  0  0  0  0  0  0  0  0
    5.2087   -2.0823    0.0000 H   0  0  0  0  0  0  0  0  0  0  0  0
    7.8501    5.3926    0.0000 H   0  0  0  0  0  0  0  0  0  0  0  0
    7.4516    4.7023    0.0000 H   0  0  0  0  0  0  0  0  0  0  0  0
    3.5200   -2.1074    0.0000 H   0  0  0  0  0  0  0  0  0  0  0  0
    3.1215   -2.7977    0.0000 H   0  0  0  0  0  0  0  0  0  0  0  0
    9.1403    4.7274    0.0000 H   0  0  0  0  0  0  0  0  0  0  0  0
    9.5388    5.4177    0.0000 H   0  0  0  0  0  0  0  0  0  0  0  0
    9.5482    6.3100    0.0000 H   0  0  0  0  0  0  0  0  0  0  0  0
    8.9282    6.9300    0.0000 H   0  0  0  0  0  0  0  0  0  0  0  0
    8.3082    6.3100    0.0000 H   0  0  0  0  0  0  0  0  0  0  0  0
    2.3291   -3.8800    0.0000 H   0  0  0  0  0  0  0  0  0  0  0  0
    5.1350   -3.8800    0.0000 H   0  0  0  0  0  0  0  0  0  0  0  0
    3.7320   -6.3100    0.0000 H   0  0  0  0  0  0  0  0  0  0  0  0
    5.4641   -6.3100    0.0000 H   0  0  0  0  0  0  0  0  0  0  0  0
    2.0000   -6.3100    0.0000 H   0  0  0  0  0  0  0  0  0  0  0  0
  1 19  1  0  0  0  0
  1 52  1  0  0  0  0
  2 20  1  0  0  0  0
  2 53  1  0  0  0  0
  3  4  1  0  0  0  0
  3  5  1  0  0  0  0
  3 22  1  0  0  0  0
  3 23  1  0  0  0  0
  4  6  1  0  0  0  0
  4 24  1  0  0  0  0
  4 25  1  0  0  0  0
  5  7  1  0  0  0  0
  5 26  1  0  0  0  0
  5 27  1  0  0  0  0
  6  8  1  0  0  0  0
  6 28  1  0  0  0  0
  6 29  1  0  0  0  0
  7  9  1  0  0  0  0
  7 30  1  0  0  0  0
  7 31  1  0  0  0  0
  8 10  1  0  0  0  0
  8 32  1  0  0  0  0
  8 33  1  0  0  0  0
  9 11  1  0  0  0  0
  9 34  1  0  0  0  0
  9 35  1  0  0  0  0
 10 12  1  0  0  0  0
 10 36  1  0  0  0  0
 10 37  1  0  0  0  0
 11 13  1  0  0  0  0
 11 38  1  0  0  0  0
 11 39  1  0  0  0  0
 12 14  1  0  0  0  0
 12 40  1  0  0  0  0
 12 41  1  0  0  0  0
 13 15  1  0  0  0  0
 13 42  1  0  0  0  0
 13 43  1  0  0  0  0
 14 16  1  0  0  0  0
 14 44  1  0  0  0  0
 14 45  1  0  0  0  0
 15 17  2  0  0  0  0
 15 18  1  0  0  0  0
 16 46  1  0  0  0  0
 16 47  1  0  0  0  0
 16 48  1  0  0  0  0
 17 20  1  0  0  0  0
 17 49  1  0  0  0  0
 18 19  2  0  0  0  0
 18 50  1  0  0  0  0
 19 21  1  0  0  0  0
 20 21  2  0  0  0  0
 21 51  1  0  0  0  0
M  END
> <PUBCHEM_COMPOUND_CID>
174862

> <PUBCHEM_COMPOUND_CANONICALIZED>
1

> <PUBCHEM_CACTVS_COMPLEXITY>
220

> <PUBCHEM_CACTVS_HBOND_ACCEPTOR>
2

> <PUBCHEM_CACTVS_HBOND_DONOR>
2

> <PUBCHEM_CACTVS_ROTATABLE_BOND>
12

> <PUBCHEM_CACTVS_SUBSKEYS>
AAADcfB4MAAAAAAAAAAAAAAAAAAAAAAAAAAwAAAAAAAAAAABAAAAGgAACAAADASAmAAyBoAAAgCAAiBCAAACAAAgIAAAiAAGCIgIJyKCERKAcAAlwBUImAeA4PQOAAABCAAAAAAAAAIQAAAAAAAAAAAAAA==

> <PUBCHEM_IUPAC_OPENEYE_NAME>
5-tridecylbenzene-1,3-diol

> <PUBCHEM_IUPAC_CAS_NAME>
5-tridecylbenzene-1,3-diol

> <PUBCHEM_IUPAC_NAME>
5-tridecylbenzene-1,3-diol

> <PUBCHEM_IUPAC_SYSTEMATIC_NAME>
5-tridecylbenzene-1,3-diol

> <PUBCHEM_IUPAC_TRADITIONAL_NAME>
5-tridecylresorcinol

> <PUBCHEM_IUPAC_INCHI>
InChI=1S/C19H32O2/c1-2-3-4-5-6-7-8-9-10-11-12-13-17-14-18(20)16-19(21)15-17/h14-16,20-21H,2-13H2,1H3

> <PUBCHEM_IUPAC_INCHIKEY>
UXOGOSLLGMYCNL-UHFFFAOYSA-N

> <PUBCHEM_XLOGP3_AA>
8

> <PUBCHEM_EXACT_MASS>
292.24023

> <PUBCHEM_MOLECULAR_FORMULA>
C19H32O2

> <PUBCHEM_MOLECULAR_WEIGHT>
292.45618

> <PUBCHEM_OPENEYE_CAN_SMILES>
CCCCCCCCCCCCCC1=CC(=CC(=C1)O)O

> <PUBCHEM_OPENEYE_ISO_SMILES>
CCCCCCCCCCCCCC1=CC(=CC(=C1)O)O

> <PUBCHEM_CACTVS_TPSA>
40.5

> <PUBCHEM_MONOISOTOPIC_WEIGHT>
292.24023

> <PUBCHEM_TOTAL_CHARGE>
0

> <PUBCHEM_HEAVY_ATOM_COUNT>
21

> <PUBCHEM_ATOM_DEF_STEREO_COUNT>
0

> <PUBCHEM_ATOM_UDEF_STEREO_COUNT>
0

> <PUBCHEM_BOND_DEF_STEREO_COUNT>
0

> <PUBCHEM_BOND_UDEF_STEREO_COUNT>
0

> <PUBCHEM_ISOTOPIC_ATOM_COUNT>
0

> <PUBCHEM_COMPONENT_COUNT>
1

> <PUBCHEM_CACTVS_TAUTO_COUNT>
10

> <PUBCHEM_COORDINATE_TYPE>
1
5
255

> <PUBCHEM_BONDANNOTATIONS>
15  17  8
15  18  8
17  20  8
18  19  8
19  21  8
20  21  8

$$$$

