12639
  -OEChem-06261207113D

 17 17  0     0  0  0  0  0  0999 V2000
   -0.9858    0.4201    0.0447 O   0  0  0  0  0  0  0  0  0  0  0  0
    0.2272   -1.5263   -0.0770 O   0  0  0  0  0  0  0  0  0  0  0  0
    1.2571    0.5532    0.0948 N   0  0  0  0  0  0  0  0  0  0  0  0
    2.4983    0.1634    0.6960 C   0  0  0  0  0  0  0  0  0  0  0  0
    2.4042    0.4237   -0.7546 C   0  0  0  0  0  0  0  0  0  0  0  0
    0.1737   -0.3032    0.0120 C   0  0  0  0  0  0  0  0  0  0  0  0
   -2.1975   -0.3392   -0.0324 C   0  0  0  0  0  0  0  0  0  0  0  0
   -3.3771    0.6083    0.0164 C   0  0  0  0  0  0  0  0  0  0  0  0
    2.5483   -0.8573    1.0466 H   0  0  0  0  0  0  0  0  0  0  0  0
    2.9174    0.9223    1.3402 H   0  0  0  0  0  0  0  0  0  0  0  0
    2.7560    1.3677   -1.1438 H   0  0  0  0  0  0  0  0  0  0  0  0
    2.3803   -0.4110   -1.4402 H   0  0  0  0  0  0  0  0  0  0  0  0
   -2.2150   -0.9041   -0.9711 H   0  0  0  0  0  0  0  0  0  0  0  0
   -2.2464   -1.0350    0.8126 H   0  0  0  0  0  0  0  0  0  0  0  0
   -4.3217    0.0602   -0.0405 H   0  0  0  0  0  0  0  0  0  0  0  0
   -3.3632    1.1937    0.9417 H   0  0  0  0  0  0  0  0  0  0  0  0
   -3.3323    1.3226   -0.8123 H   0  0  0  0  0  0  0  0  0  0  0  0
  1  6  1  0  0  0  0
  1  7  1  0  0  0  0
  2  6  2  0  0  0  0
  3  4  1  0  0  0  0
  3  5  1  0  0  0  0
  3  6  1  0  0  0  0
  4  5  1  0  0  0  0
  4  9  1  0  0  0  0
  4 10  1  0  0  0  0
  5 11  1  0  0  0  0
  5 12  1  0  0  0  0
  7  8  1  0  0  0  0
  7 13  1  0  0  0  0
  7 14  1  0  0  0  0
  8 15  1  0  0  0  0
  8 16  1  0  0  0  0
  8 17  1  0  0  0  0
M  END
> <PUBCHEM_COMPOUND_CID>
12639

> <PUBCHEM_CONFORMER_RMSD>
0.6

> <PUBCHEM_CONFORMER_DIVERSEORDER>
1
14
4
2
13
5
6
3
7
10
8
12
9
11

> <PUBCHEM_MMFF94_PARTIAL_CHARGES>
11
1 -0.43
10 0.1
11 0.1
12 0.1
2 -0.57
3 -0.36
4 -0.05
5 -0.05
6 0.78
7 0.28
9 0.1

> <PUBCHEM_EFFECTIVE_ROTOR_COUNT>
3.6

> <PUBCHEM_PHARMACOPHORE_FEATURES>
1
1 2 acceptor

> <PUBCHEM_HEAVY_ATOM_COUNT>
8

> <PUBCHEM_ATOM_DEF_STEREO_COUNT>
0

> <PUBCHEM_ATOM_UDEF_STEREO_COUNT>
0

> <PUBCHEM_BOND_DEF_STEREO_COUNT>
0

> <PUBCHEM_BOND_UDEF_STEREO_COUNT>
0

> <PUBCHEM_ISOTOPIC_ATOM_COUNT>
0

> <PUBCHEM_COMPONENT_COUNT>
1

> <PUBCHEM_CACTVS_TAUTO_COUNT>
1

> <PUBCHEM_CONFORMER_ID>
0000315F00000001

> <PUBCHEM_MMFF94_ENERGY>
19.2792

> <PUBCHEM_FEATURE_SELFOVERLAP>
5.074

> <PUBCHEM_SHAPE_FINGERPRINT>
11062470 55 6483354421552121889
14325111 11 18410573963703001419
14390081 3 18186241744855306281
21040471 1 18409730621310518758
23235685 24 18412545405215707245
5460574 1 9223235147810182961

> <PUBCHEM_SHAPE_MULTIPOLES>
147.92
4.78
0.97
0.73
2.47
0.3
-0.01
-1.25
0.06
0.06
-0.04
-0.35
-0.05
-0.08

> <PUBCHEM_SHAPE_SELFOVERLAP>
281.143

> <PUBCHEM_SHAPE_VOLUME>
92.9

> <PUBCHEM_COORDINATE_TYPE>
2
5
10

$$$$

