441172
  -OEChem-07051212523D

 61 65  0     1  0  0  0  0  0999 V2000
   -0.1377    4.1668   -1.2967 O   0  0  0  0  0  0  0  0  0  0  0  0
    0.9019    3.7443    2.1673 O   0  0  0  0  0  0  0  0  0  0  0  0
   -3.0242    3.3194    0.0530 O   0  0  0  0  0  0  0  0  0  0  0  0
    0.1031   -1.1853    0.2736 O   0  0  0  0  0  0  0  0  0  0  0  0
    1.9618   -0.7438   -1.1148 O   0  0  0  0  0  0  0  0  0  0  0  0
   -5.0194    1.7790    0.0350 O   0  0  0  0  0  0  0  0  0  0  0  0
   -1.8972   -2.5545   -0.0700 O   0  0  0  0  0  0  0  0  0  0  0  0
    4.9622   -0.5356   -2.0905 O   0  0  0  0  0  0  0  0  0  0  0  0
   -7.1485    0.3514    0.0295 O   0  0  0  0  0  0  0  0  0  0  0  0
   -6.6065   -4.3536   -0.0606 O   0  0  0  0  0  0  0  0  0  0  0  0
    4.8634   -3.4290    1.6339 O   0  0  0  0  0  0  0  0  0  0  0  0
    6.4459   -4.6566    0.5835 O   0  0  0  0  0  0  0  0  0  0  0  0
    5.1353   -1.3311    0.0807 N   0  0  0  0  0  0  0  0  0  0  0  0
   -0.2652    3.7287    0.0546 C   0  0  2  0  0  0  0  0  0  0  0  0
    1.1012    3.7783    0.7535 C   0  0  2  0  0  0  0  0  0  0  0  0
   -0.8565    2.3378    0.0321 C   0  0  0  0  0  0  0  0  0  0  0  0
   -0.0118    1.2066   -0.0242 C   0  0  0  0  0  0  0  0  0  0  0  0
    2.0077    2.6438    0.3265 C   0  0  0  0  0  0  0  0  0  0  0  0
    1.4596    1.3951   -0.0479 C   0  0  0  0  0  0  0  0  0  0  0  0
   -2.2541    2.1902    0.0333 C   0  0  0  0  0  0  0  0  0  0  0  0
   -0.6208   -0.0631   -0.0390 C   0  0  0  0  0  0  0  0  0  0  0  0
   -2.8328    0.9200    0.0056 C   0  0  0  0  0  0  0  0  0  0  0  0
   -2.0172   -0.2067   -0.0256 C   0  0  0  0  0  0  0  0  0  0  0  0
    2.3558    0.3840   -0.4416 C   0  0  0  0  0  0  0  0  0  0  0  0
    3.3986    2.8412    0.3386 C   0  0  0  0  0  0  0  0  0  0  0  0
    4.2597    1.8183   -0.0441 C   0  0  0  0  0  0  0  0  0  0  0  0
    3.7383    0.5927   -0.4390 C   0  0  0  0  0  0  0  0  0  0  0  0
   -4.3038    0.7853    0.0131 C   0  0  0  0  0  0  0  0  0  0  0  0
   -2.6120   -1.5602   -0.0452 C   0  0  0  0  0  0  0  0  0  0  0  0
   -4.8994   -0.5660   -0.0068 C   0  0  0  0  0  0  0  0  0  0  0  0
   -4.0827   -1.6981   -0.0344 C   0  0  0  0  0  0  0  0  0  0  0  0
    5.7317    2.0724   -0.0312 C   0  0  0  0  0  0  0  0  0  0  0  0
    4.6450   -0.4591   -0.8939 C   0  0  0  0  0  0  0  0  0  0  0  0
   -6.2921   -0.7092    0.0024 C   0  0  0  0  0  0  0  0  0  0  0  0
   -4.6587   -2.9740   -0.0527 C   0  0  0  0  0  0  0  0  0  0  0  0
   -6.0470   -3.1125   -0.0434 C   0  0  0  0  0  0  0  0  0  0  0  0
   -6.8619   -1.9825   -0.0159 C   0  0  0  0  0  0  0  0  0  0  0  0
    6.0579   -2.4057   -0.2077 C   0  0  1  0  0  0  0  0  0  0  0  0
    7.4955   -1.9234   -0.0868 C   0  0  0  0  0  0  0  0  0  0  0  0
    5.8246   -3.6051    0.6957 C   0  0  0  0  0  0  0  0  0  0  0  0
   -0.9365    4.4278    0.5659 H   0  0  0  0  0  0  0  0  0  0  0  0
    1.5872    4.7316    0.5091 H   0  0  0  0  0  0  0  0  0  0  0  0
    3.7975    3.8052    0.6466 H   0  0  0  0  0  0  0  0  0  0  0  0
    0.3441    3.4894   -1.8012 H   0  0  0  0  0  0  0  0  0  0  0  0
    0.3773    4.5264    2.4091 H   0  0  0  0  0  0  0  0  0  0  0  0
    5.9666    3.0915    0.2953 H   0  0  0  0  0  0  0  0  0  0  0  0
    6.2347    1.3885    0.6602 H   0  0  0  0  0  0  0  0  0  0  0  0
    6.1533    1.9501   -1.0344 H   0  0  0  0  0  0  0  0  0  0  0  0
   -3.9501    3.1083    0.2412 H   0  0  0  0  0  0  0  0  0  0  0  0
    0.8087   -0.9418    0.8958 H   0  0  0  0  0  0  0  0  0  0  0  0
    2.6232   -1.4491   -1.0285 H   0  0  0  0  0  0  0  0  0  0  0  0
   -4.0335   -3.8632   -0.0742 H   0  0  0  0  0  0  0  0  0  0  0  0
    4.8473   -1.1945    1.0458 H   0  0  0  0  0  0  0  0  0  0  0  0
   -7.9424   -2.1061   -0.0088 H   0  0  0  0  0  0  0  0  0  0  0  0
    5.8676   -2.7430   -1.2334 H   0  0  0  0  0  0  0  0  0  0  0  0
   -8.0666    0.0308    0.0314 H   0  0  0  0  0  0  0  0  0  0  0  0
    8.2028   -2.7227   -0.3324 H   0  0  0  0  0  0  0  0  0  0  0  0
    7.6868   -1.0813   -0.7606 H   0  0  0  0  0  0  0  0  0  0  0  0
    7.7145   -1.5889    0.9338 H   0  0  0  0  0  0  0  0  0  0  0  0
   -5.8978   -5.0195   -0.0786 H   0  0  0  0  0  0  0  0  0  0  0  0
    4.7427   -4.2280    2.1900 H   0  0  0  0  0  0  0  0  0  0  0  0
  1 14  1  0  0  0  0
  1 44  1  0  0  0  0
  2 15  1  0  0  0  0
  2 45  1  0  0  0  0
  3 20  1  0  0  0  0
  3 49  1  0  0  0  0
  4 21  1  0  0  0  0
  4 50  1  0  0  0  0
  5 24  1  0  0  0  0
  5 51  1  0  0  0  0
  6 28  2  0  0  0  0
  7 29  2  0  0  0  0
  8 33  2  0  0  0  0
  9 34  1  0  0  0  0
  9 56  1  0  0  0  0
 10 36  1  0  0  0  0
 10 60  1  0  0  0  0
 11 40  1  0  0  0  0
 11 61  1  0  0  0  0
 12 40  2  0  0  0  0
 13 33  1  0  0  0  0
 13 38  1  0  0  0  0
 13 53  1  0  0  0  0
 14 15  1  0  0  0  0
 14 16  1  0  0  0  0
 14 41  1  0  0  0  0
 15 18  1  0  0  0  0
 15 42  1  0  0  0  0
 16 17  2  0  0  0  0
 16 20  1  0  0  0  0
 17 19  1  0  0  0  0
 17 21  1  0  0  0  0
 18 19  2  0  0  0  0
 18 25  1  0  0  0  0
 19 24  1  0  0  0  0
 20 22  2  0  0  0  0
 21 23  2  0  0  0  0
 22 23  1  0  0  0  0
 22 28  1  0  0  0  0
 23 29  1  0  0  0  0
 24 27  2  0  0  0  0
 25 26  2  0  0  0  0
 25 43  1  0  0  0  0
 26 27  1  0  0  0  0
 26 32  1  0  0  0  0
 27 33  1  0  0  0  0
 28 30  1  0  0  0  0
 29 31  1  0  0  0  0
 30 31  2  0  0  0  0
 30 34  1  0  0  0  0
 31 35  1  0  0  0  0
 32 46  1  0  0  0  0
 32 47  1  0  0  0  0
 32 48  1  0  0  0  0
 34 37  2  0  0  0  0
 35 36  2  0  0  0  0
 35 52  1  0  0  0  0
 36 37  1  0  0  0  0
 37 54  1  0  0  0  0
 38 39  1  0  0  0  0
 38 40  1  0  0  0  0
 38 55  1  0  0  0  0
 39 57  1  0  0  0  0
 39 58  1  0  0  0  0
 39 59  1  0  0  0  0
M  END
> <PUBCHEM_COMPOUND_CID>
441172

> <PUBCHEM_CONFORMER_RMSD>
0.8

> <PUBCHEM_CONFORMER_DIVERSEORDER>
1
3
5
2
4

> <PUBCHEM_MMFF94_PARTIAL_CHARGES>
49
1 -0.68
10 -0.53
11 -0.65
12 -0.57
13 -0.73
14 0.42
15 0.42
16 -0.14
18 -0.14
2 -0.68
20 0.08
21 0.08
22 0.09
23 0.09
24 0.08
25 -0.15
26 -0.14
27 0.09
28 0.4
29 0.4
3 -0.53
30 0.09
31 0.09
32 0.14
33 0.54
34 0.08
35 -0.15
36 0.08
37 -0.15
38 0.36
4 -0.53
40 0.66
43 0.15
44 0.4
45 0.4
49 0.45
5 -0.53
50 0.45
51 0.45
52 0.15
53 0.37
54 0.15
56 0.45
6 -0.57
60 0.45
61 0.5
7 -0.57
8 -0.57
9 -0.53

> <PUBCHEM_EFFECTIVE_ROTOR_COUNT>
4.4

> <PUBCHEM_PHARMACOPHORE_FEATURES>
21
1 1 acceptor
1 1 donor
1 10 donor
1 11 acceptor
1 12 acceptor
1 13 donor
1 2 acceptor
1 2 donor
1 3 donor
1 4 donor
1 5 donor
1 6 acceptor
1 7 acceptor
1 8 acceptor
1 9 donor
3 11 12 40 anion
6 14 15 16 17 18 19 rings
6 16 17 20 21 22 23 rings
6 18 19 24 25 26 27 rings
6 22 23 28 29 30 31 rings
6 30 31 34 35 36 37 rings

> <PUBCHEM_HEAVY_ATOM_COUNT>
40

> <PUBCHEM_ATOM_DEF_STEREO_COUNT>
2

> <PUBCHEM_ATOM_UDEF_STEREO_COUNT>
1

> <PUBCHEM_BOND_DEF_STEREO_COUNT>
0

> <PUBCHEM_BOND_UDEF_STEREO_COUNT>
0

> <PUBCHEM_ISOTOPIC_ATOM_COUNT>
0

> <PUBCHEM_COMPONENT_COUNT>
1

> <PUBCHEM_CACTVS_TAUTO_COUNT>
994

> <PUBCHEM_CONFORMER_ID>
0006BB5400000001

> <PUBCHEM_MMFF94_ENERGY>
146.5848

> <PUBCHEM_FEATURE_SELFOVERLAP>
106.747

> <PUBCHEM_SHAPE_FINGERPRINT>
10050765 1 18410292536404311664
10411042 1 18409446981833743348
10622 236 17986117525019396962
11456790 92 18261661654568455377
11578080 2 5398594903343892305
117089 54 18411131429316378858
11756154 67 18410570712713458534
11963148 33 18265338300549432414
12107183 9 18262225720902292793
12166972 35 18060414703234408268
131258 38 18269002994463957230
13402501 40 18336543798961487133
1361 4 18411418393186979310
13782708 43 18342739598497121911
13811026 1 18409736127242184532
14068700 675 18186517700925590353
14347332 77 18342176721637064382
14394314 77 18410853300076344256
14866123 147 18263638640562569489
15001296 14 18270405009597544794
15274700 147 14152096598350818871
15320467 1 17617941327082769406
15347591 1 18412263965163991108
15351339 4 18273220802751937754
15448158 6 18411423894908125940
15890870 6 18121495749463406252
16628084 112 18057887037703436066
16992752 21 18337381765089163166
17492 89 18410858745846715064
18393751 57 17685516251459830824
208703 8 18340213002661069586
21130935 74 18334574590847684235
21279426 13 18410576146369509309
21703447 108 18410301290021732864
21792965 20 18045252481406762355
23522609 53 18050530110897304269
23559900 14 18336832966615028025
23569914 152 18048914997847364823
23569943 247 18341612672167683195
24771750 20 17408515152796454237
3004659 81 18202001040979682614
32027 91 18408611344654826685
335352 9 18337953369190487933
350125 39 18264485079921968685
3504750 166 17910682287000414250
3886686 26 17328585532529803782
4046055 25 18201999945236106492
4073 2 18126281930817556994
4144715 1 18195236721055310931
44880168 125 17240479243450019646
4756088 132 18122915217709197459
50009960 94 18269294442444939098
5104073 3 18113334228223866288
5265222 85 17110718973769890416
6057620 51 18271515439395963484
6201320 77 17344311559647167611
6697151 62 18114480997429709701
7970288 3 18411420639396956802
9831232 110 18126286338129346495
9961470 85 17183633629063452066

> <PUBCHEM_SHAPE_MULTIPOLES>
747.77
18.47
5.96
0.95
2.13
0.99
0.04
22.33
-0.13
-3.55
1.42
-1.12
-0.18
-0.78

> <PUBCHEM_SHAPE_SELFOVERLAP>
1693.412

> <PUBCHEM_SHAPE_VOLUME>
386.4

> <PUBCHEM_COORDINATE_TYPE>
2
5
10

$$$$

