7420
  -OEChem-07051212443D

 16 16  0     0  0  0  0  0  0999 V2000
   -2.7174    1.5039    0.0005 O   0  0  0  0  0  0  0  0  0  0  0  0
    2.8294   -0.7452    0.0009 O   0  0  0  0  0  0  0  0  0  0  0  0
    2.4154    1.4898   -0.0002 O   0  0  0  0  0  0  0  0  0  0  0  0
    0.5911   -0.0581   -0.0003 C   0  0  0  0  0  0  0  0  0  0  0  0
   -0.4028    0.9206   -0.0002 C   0  0  0  0  0  0  0  0  0  0  0  0
    0.2406   -1.4082   -0.0002 C   0  0  0  0  0  0  0  0  0  0  0  0
   -1.7473    0.5492   -0.0001 C   0  0  0  0  0  0  0  0  0  0  0  0
   -1.1040   -1.7796   -0.0001 C   0  0  0  0  0  0  0  0  0  0  0  0
   -2.0979   -0.8009    0.0000 C   0  0  0  0  0  0  0  0  0  0  0  0
    1.9929    0.3288   -0.0003 C   0  0  0  0  0  0  0  0  0  0  0  0
   -0.1441    1.9767   -0.0001 H   0  0  0  0  0  0  0  0  0  0  0  0
    0.9815   -2.2027   -0.0003 H   0  0  0  0  0  0  0  0  0  0  0  0
   -1.3775   -2.8308    0.0000 H   0  0  0  0  0  0  0  0  0  0  0  0
   -3.1417   -1.1034    0.0002 H   0  0  0  0  0  0  0  0  0  0  0  0
   -3.5875    1.0690    0.0006 H   0  0  0  0  0  0  0  0  0  0  0  0
    3.7721   -0.4736    0.0014 H   0  0  0  0  0  0  0  0  0  0  0  0
  1  7  1  0  0  0  0
  1 15  1  0  0  0  0
  2 10  1  0  0  0  0
  2 16  1  0  0  0  0
  3 10  2  0  0  0  0
  4  5  2  0  0  0  0
  4  6  1  0  0  0  0
  4 10  1  0  0  0  0
  5  7  1  0  0  0  0
  5 11  1  0  0  0  0
  6  8  2  0  0  0  0
  6 12  1  0  0  0  0
  7  9  2  0  0  0  0
  8  9  1  0  0  0  0
  8 13  1  0  0  0  0
  9 14  1  0  0  0  0
M  END
> <PUBCHEM_COMPOUND_CID>
7420

> <PUBCHEM_CONFORMER_RMSD>
0.4

> <PUBCHEM_CONFORMER_DIVERSEORDER>
1
2

> <PUBCHEM_MMFF94_PARTIAL_CHARGES>
16
1 -0.53
10 0.63
11 0.15
12 0.15
13 0.15
14 0.15
15 0.45
16 0.5
2 -0.65
3 -0.57
4 0.09
5 -0.15
6 -0.15
7 0.08
8 -0.15
9 -0.15

> <PUBCHEM_EFFECTIVE_ROTOR_COUNT>
1

> <PUBCHEM_PHARMACOPHORE_FEATURES>
5
1 1 donor
1 2 acceptor
1 3 acceptor
3 2 3 10 anion
6 4 5 6 7 8 9 rings

> <PUBCHEM_HEAVY_ATOM_COUNT>
10

> <PUBCHEM_ATOM_DEF_STEREO_COUNT>
0

> <PUBCHEM_ATOM_UDEF_STEREO_COUNT>
0

> <PUBCHEM_BOND_DEF_STEREO_COUNT>
0

> <PUBCHEM_BOND_UDEF_STEREO_COUNT>
0

> <PUBCHEM_ISOTOPIC_ATOM_COUNT>
0

> <PUBCHEM_COMPONENT_COUNT>
1

> <PUBCHEM_CACTVS_TAUTO_COUNT>
3

> <PUBCHEM_CONFORMER_ID>
00001CFC00000001

> <PUBCHEM_MMFF94_ENERGY>
26.452

> <PUBCHEM_FEATURE_SELFOVERLAP>
25.429

> <PUBCHEM_SHAPE_FINGERPRINT>
12932764 1 17604709950303261486
14325111 11 18410575088979307616
16945 1 18338799038653456295
193761 8 15888840394787696871
19973954 147 18338796706649699420
20653085 51 18411125952905197240
20871998 184 18116987785030060751
21040471 1 18410856581199067559
23235685 24 18337677536919653865
23552423 10 18272370824196651302
241688 4 16463329336353619827
2748010 2 18410572868465242087
369184 2 18335421218642065754
5084963 1 18260267442836380418

> <PUBCHEM_SHAPE_MULTIPOLES>
188.19
3.69
1.74
0.59
1.21
0.15
0
-0.92
0
-0.49
0
-0.03
0.02
0

> <PUBCHEM_SHAPE_SELFOVERLAP>
397.239

> <PUBCHEM_SHAPE_VOLUME>
105.9

> <PUBCHEM_COORDINATE_TYPE>
2
5
10

$$$$

