7006
  -OEChem-06261201402D

 16 17  0     0  0  0  0  0  0999 V2000
    2.8660   -1.8100    0.0000 O   0  0  0  0  0  0  0  0  0  0  0  0
    2.8660    1.1900    0.0000 N   0  0  0  0  0  0  0  0  0  0  0  0
    2.0000   -0.3100    0.0000 N   0  0  0  0  0  0  0  0  0  0  0  0
    2.0000    0.6900    0.0000 N   0  0  0  0  0  0  0  0  0  0  0  0
    3.7320   -0.3100    0.0000 C   0  0  0  0  0  0  0  0  0  0  0  0
    3.7320    0.6900    0.0000 C   0  0  0  0  0  0  0  0  0  0  0  0
    4.6260   -0.8447    0.0000 C   0  0  0  0  0  0  0  0  0  0  0  0
    4.6260    1.2247    0.0000 C   0  0  0  0  0  0  0  0  0  0  0  0
    5.5321   -0.3308    0.0000 C   0  0  0  0  0  0  0  0  0  0  0  0
    5.5321    0.7108    0.0000 C   0  0  0  0  0  0  0  0  0  0  0  0
    2.8660   -0.8100    0.0000 C   0  0  0  0  0  0  0  0  0  0  0  0
    4.6188   -1.4646    0.0000 H   0  0  0  0  0  0  0  0  0  0  0  0
    4.6188    1.8446    0.0000 H   0  0  0  0  0  0  0  0  0  0  0  0
    2.8660    1.8100    0.0000 H   0  0  0  0  0  0  0  0  0  0  0  0
    6.0678   -0.6429    0.0000 H   0  0  0  0  0  0  0  0  0  0  0  0
    6.0678    1.0229    0.0000 H   0  0  0  0  0  0  0  0  0  0  0  0
  1 11  2  0  0  0  0
  2  4  1  0  0  0  0
  2  6  1  0  0  0  0
  2 14  1  0  0  0  0
  3  4  2  0  0  0  0
  3 11  1  0  0  0  0
  5  6  1  0  0  0  0
  5  7  2  0  0  0  0
  5 11  1  0  0  0  0
  6  8  2  0  0  0  0
  7  9  1  0  0  0  0
  7 12  1  0  0  0  0
  8 10  1  0  0  0  0
  8 13  1  0  0  0  0
  9 10  2  0  0  0  0
  9 15  1  0  0  0  0
 10 16  1  0  0  0  0
M  END
> <PUBCHEM_COMPOUND_CID>
7006

> <PUBCHEM_COMPOUND_CANONICALIZED>
1

> <PUBCHEM_CACTVS_COMPLEXITY>
202

> <PUBCHEM_CACTVS_HBOND_ACCEPTOR>
3

> <PUBCHEM_CACTVS_HBOND_DONOR>
1

> <PUBCHEM_CACTVS_ROTATABLE_BOND>
0

> <PUBCHEM_CACTVS_SUBSKEYS>
AAADcYBjIAAAAAAAAAAAAAAAAAAAAAAAAAAwQAAAAAAAAACBAAAAHgAYAAAADAiBmAAwwIBiAACKAiVSUACCBAAkAgAYiAEAZMgIIDqA1ZGAIYBgkAAIyccYiACOAAAAAAACAAAAAAAAAAQAAAAAAAAAAA==

> <PUBCHEM_IUPAC_OPENEYE_NAME>
1H-1,2,3-benzotriazin-4-one

> <PUBCHEM_IUPAC_CAS_NAME>
1H-1,2,3-benzotriazin-4-one

> <PUBCHEM_IUPAC_NAME>
1H-1,2,3-benzotriazin-4-one

> <PUBCHEM_IUPAC_SYSTEMATIC_NAME>
1H-1,2,3-benzotriazin-4-one

> <PUBCHEM_IUPAC_TRADITIONAL_NAME>
1H-1,2,3-benzotriazin-4-one

> <PUBCHEM_IUPAC_INCHI>
InChI=1S/C7H5N3O/c11-7-5-3-1-2-4-6(5)8-10-9-7/h1-4H,(H,8,9,11)

> <PUBCHEM_IUPAC_INCHIKEY>
DMSSTTLDFWKBSX-UHFFFAOYSA-N

> <PUBCHEM_XLOGP3>
0.8

> <PUBCHEM_EXACT_MASS>
147.043262

> <PUBCHEM_MOLECULAR_FORMULA>
C7H5N3O

> <PUBCHEM_MOLECULAR_WEIGHT>
147.1341

> <PUBCHEM_OPENEYE_CAN_SMILES>
C1=CC=C2C(=C1)C(=O)N=NN2

> <PUBCHEM_OPENEYE_ISO_SMILES>
C1=CC=C2C(=C1)C(=O)N=NN2

> <PUBCHEM_CACTVS_TPSA>
53.8

> <PUBCHEM_MONOISOTOPIC_WEIGHT>
147.043262

> <PUBCHEM_TOTAL_CHARGE>
0

> <PUBCHEM_HEAVY_ATOM_COUNT>
11

> <PUBCHEM_ATOM_DEF_STEREO_COUNT>
0

> <PUBCHEM_ATOM_UDEF_STEREO_COUNT>
0

> <PUBCHEM_BOND_DEF_STEREO_COUNT>
0

> <PUBCHEM_BOND_UDEF_STEREO_COUNT>
0

> <PUBCHEM_ISOTOPIC_ATOM_COUNT>
0

> <PUBCHEM_COMPONENT_COUNT>
1

> <PUBCHEM_CACTVS_TAUTO_COUNT>
3

> <PUBCHEM_COORDINATE_TYPE>
1
5
255

> <PUBCHEM_BONDANNOTATIONS>
2  4  8
2  6  8
3  11  8
3  4  8
5  11  8
5  6  8
5  7  8
6  8  8
7  9  8
8  10  8
9  10  8

$$$$

