5281776
  -OEChem-07051212593D

 58 60  0     1  0  0  0  0  0999 V2000
   -2.7163    1.0564    0.3229 O   0  0  0  0  0  0  0  0  0  0  0  0
   -3.5766   -1.0384   -0.2385 O   0  0  0  0  0  0  0  0  0  0  0  0
   -0.1288   -0.0767    0.4945 O   0  0  0  0  0  0  0  0  0  0  0  0
   -5.2406    2.2919    0.5036 O   0  0  0  0  0  0  0  0  0  0  0  0
   -0.2254   -2.9397    1.1834 O   0  0  0  0  0  0  0  0  0  0  0  0
   -2.0366   -4.3440   -0.5783 O   0  0  0  0  0  0  0  0  0  0  0  0
   -5.5701   -2.2841   -1.6633 O   0  0  0  0  0  0  0  0  0  0  0  0
    0.9138   -1.0933    2.2881 O   0  0  0  0  0  0  0  0  0  0  0  0
    8.2669    0.7407   -1.4697 O   0  0  0  0  0  0  0  0  0  0  0  0
   -3.1535    1.9674   -0.6861 C   0  0  1  0  0  0  0  0  0  0  0  0
   -2.4077   -0.2222   -0.2311 C   0  0  2  0  0  0  0  0  0  0  0  0
   -1.3160   -0.8574    0.6302 C   0  0  1  0  0  0  0  0  0  0  0  0
   -4.1435    2.9750   -0.0934 C   0  0  2  0  0  0  0  0  0  0  0  0
   -1.9267    2.6805   -1.2547 C   0  0  0  0  0  0  0  0  0  0  0  0
   -1.0306   -2.2948    0.1953 C   0  0  2  0  0  0  0  0  0  0  0  0
   -2.3246   -3.0947    0.0443 C   0  0  1  0  0  0  0  0  0  0  0  0
   -3.4865    3.8658    0.9599 C   0  0  0  0  0  0  0  0  0  0  0  0
   -3.3408   -2.3282   -0.8058 C   0  0  1  0  0  0  0  0  0  0  0  0
   -1.2647    3.5936   -0.2193 C   0  0  0  0  0  0  0  0  0  0  0  0
   -2.2592    4.5759    0.3961 C   0  0  0  0  0  0  0  0  0  0  0  0
   -4.6813   -3.0530   -0.8736 C   0  0  0  0  0  0  0  0  0  0  0  0
    0.9426   -0.5038    1.2195 C   0  0  0  0  0  0  0  0  0  0  0  0
    2.1681   -0.1244    0.4805 C   0  0  0  0  0  0  0  0  0  0  0  0
    3.3687   -0.4450    0.9834 C   0  0  0  0  0  0  0  0  0  0  0  0
    4.6564   -0.1328    0.3388 C   0  0  0  0  0  0  0  0  0  0  0  0
    4.7115    0.8679   -0.6176 C   0  0  0  0  0  0  0  0  0  0  0  0
    5.7870   -0.8467    0.7015 C   0  0  0  0  0  0  0  0  0  0  0  0
    5.9305    1.1628   -1.2281 C   0  0  0  0  0  0  0  0  0  0  0  0
    7.0060   -0.5517    0.0911 C   0  0  0  0  0  0  0  0  0  0  0  0
    7.0779    0.4530   -0.8737 C   0  0  0  0  0  0  0  0  0  0  0  0
   -3.6770    1.4150   -1.4781 H   0  0  0  0  0  0  0  0  0  0  0  0
   -2.0327   -0.1117   -1.2579 H   0  0  0  0  0  0  0  0  0  0  0  0
   -1.6265   -0.8257    1.6838 H   0  0  0  0  0  0  0  0  0  0  0  0
   -4.5490    3.6030   -0.8955 H   0  0  0  0  0  0  0  0  0  0  0  0
   -2.2284    3.2830   -2.1203 H   0  0  0  0  0  0  0  0  0  0  0  0
   -1.1802    1.9611   -1.6083 H   0  0  0  0  0  0  0  0  0  0  0  0
   -0.4519   -2.3164   -0.7360 H   0  0  0  0  0  0  0  0  0  0  0  0
   -2.7353   -3.3046    1.0405 H   0  0  0  0  0  0  0  0  0  0  0  0
   -4.2114    4.6032    1.3254 H   0  0  0  0  0  0  0  0  0  0  0  0
   -3.2039    3.2704    1.8376 H   0  0  0  0  0  0  0  0  0  0  0  0
   -2.9738   -2.1978   -1.8330 H   0  0  0  0  0  0  0  0  0  0  0  0
   -0.8170    2.9842    0.5754 H   0  0  0  0  0  0  0  0  0  0  0  0
   -0.4454    4.1482   -0.6908 H   0  0  0  0  0  0  0  0  0  0  0  0
   -1.7676    5.1499    1.1896 H   0  0  0  0  0  0  0  0  0  0  0  0
   -2.5764    5.2960   -0.3682 H   0  0  0  0  0  0  0  0  0  0  0  0
   -4.5912   -4.0404   -1.3338 H   0  0  0  0  0  0  0  0  0  0  0  0
   -5.1278   -3.1649    0.1200 H   0  0  0  0  0  0  0  0  0  0  0  0
   -4.8832    1.6912    1.1799 H   0  0  0  0  0  0  0  0  0  0  0  0
   -0.7108   -2.9252    2.0259 H   0  0  0  0  0  0  0  0  0  0  0  0
   -2.8036   -4.9260   -0.4470 H   0  0  0  0  0  0  0  0  0  0  0  0
   -5.6448   -1.4060   -1.2522 H   0  0  0  0  0  0  0  0  0  0  0  0
    2.0324    0.3864   -0.4657 H   0  0  0  0  0  0  0  0  0  0  0  0
    3.4392   -0.9831    1.9260 H   0  0  0  0  0  0  0  0  0  0  0  0
    3.8498    1.4600   -0.9089 H   0  0  0  0  0  0  0  0  0  0  0  0
    5.7468   -1.6333    1.4503 H   0  0  0  0  0  0  0  0  0  0  0  0
    5.9817    1.9497   -1.9758 H   0  0  0  0  0  0  0  0  0  0  0  0
    7.8925   -1.1122    0.3757 H   0  0  0  0  0  0  0  0  0  0  0  0
    8.9521    0.1544   -1.1052 H   0  0  0  0  0  0  0  0  0  0  0  0
  1 10  1  0  0  0  0
  1 11  1  0  0  0  0
  2 11  1  0  0  0  0
  2 18  1  0  0  0  0
  3 12  1  0  0  0  0
  3 22  1  0  0  0  0
  4 13  1  0  0  0  0
  4 48  1  0  0  0  0
  5 15  1  0  0  0  0
  5 49  1  0  0  0  0
  6 16  1  0  0  0  0
  6 50  1  0  0  0  0
  7 21  1  0  0  0  0
  7 51  1  0  0  0  0
  8 22  2  0  0  0  0
  9 30  1  0  0  0  0
  9 58  1  0  0  0  0
 10 13  1  0  0  0  0
 10 14  1  0  0  0  0
 10 31  1  0  0  0  0
 11 12  1  0  0  0  0
 11 32  1  0  0  0  0
 12 15  1  0  0  0  0
 12 33  1  0  0  0  0
 13 17  1  0  0  0  0
 13 34  1  0  0  0  0
 14 19  1  0  0  0  0
 14 35  1  0  0  0  0
 14 36  1  0  0  0  0
 15 16  1  0  0  0  0
 15 37  1  0  0  0  0
 16 18  1  0  0  0  0
 16 38  1  0  0  0  0
 17 20  1  0  0  0  0
 17 39  1  0  0  0  0
 17 40  1  0  0  0  0
 18 21  1  0  0  0  0
 18 41  1  0  0  0  0
 19 20  1  0  0  0  0
 19 42  1  0  0  0  0
 19 43  1  0  0  0  0
 20 44  1  0  0  0  0
 20 45  1  0  0  0  0
 21 46  1  0  0  0  0
 21 47  1  0  0  0  0
 22 23  1  0  0  0  0
 23 24  2  0  0  0  0
 23 52  1  0  0  0  0
 24 25  1  0  0  0  0
 24 53  1  0  0  0  0
 25 26  2  0  0  0  0
 25 27  1  0  0  0  0
 26 28  1  0  0  0  0
 26 54  1  0  0  0  0
 27 29  2  0  0  0  0
 27 55  1  0  0  0  0
 28 30  2  0  0  0  0
 28 56  1  0  0  0  0
 29 30  1  0  0  0  0
 29 57  1  0  0  0  0
M  END
> <PUBCHEM_COMPOUND_CID>
5281776

> <PUBCHEM_CONFORMER_RMSD>
1

> <PUBCHEM_CONFORMER_DIVERSEORDER>
1
237
109
132
111
212
69
214
55
199
97
211
122
58
54
15
178
101
4
88
73
121
81
219
71
66
79
104
189
6
99
183
184
34
107
84
163
20
129
207
24
156
57
92
52
72
194
49
151
148
28
37
23
10
177
153
202
106
65
160
68
158
21
171
140
32
125
105
7
170
167
210
221
80
144
165
146
209
31
197
116
59
188
26
168
19
103
2
205
77
173
134
113
70
220
218
30
192
91
16
131
215
62
124
128
40
50
75
152
198
138
135
85
33
233
93
5
86
147
120
161
25
29
164
22
74
231
154
94
185
157
83
51
61
14
235
63
95
119
43
230
186
166
227
236
139
201
228
162
141
136
56
229
127
187
11
90
117
98
216
149
64
53
96
133
137
200
108
118
48
191
176
224
41
222
145
190
203
35
39
174
225
27
89
60
196
76
169
8
142
206
159
46
182
114
13
181
102
226
12
87
217
82
115
36
44
232
47
67
9
175
193
123
112
208
179
38
195
110
234
78
180
143
45
17
204
223
213
100
155
18
130
150
42
126
172
3

> <PUBCHEM_MMFF94_PARTIAL_CHARGES>
37
1 -0.56
10 0.28
11 0.56
12 0.28
13 0.28
15 0.28
16 0.28
18 0.28
2 -0.56
21 0.28
22 0.71
23 -0.14
24 -0.18
25 0.03
26 -0.15
27 -0.15
28 -0.15
29 -0.15
3 -0.43
30 0.08
4 -0.68
48 0.4
49 0.4
5 -0.68
50 0.4
51 0.4
52 0.15
53 0.15
54 0.15
55 0.15
56 0.15
57 0.15
58 0.45
6 -0.68
7 -0.68
8 -0.57
9 -0.53

> <PUBCHEM_EFFECTIVE_ROTOR_COUNT>
9.4

> <PUBCHEM_PHARMACOPHORE_FEATURES>
15
1 1 acceptor
1 2 acceptor
1 4 acceptor
1 4 donor
1 5 acceptor
1 5 donor
1 6 acceptor
1 6 donor
1 7 acceptor
1 7 donor
1 8 acceptor
1 9 donor
6 10 13 14 17 19 20 rings
6 2 11 12 15 16 18 rings
6 25 26 27 28 29 30 rings

> <PUBCHEM_HEAVY_ATOM_COUNT>
30

> <PUBCHEM_ATOM_DEF_STEREO_COUNT>
7

> <PUBCHEM_ATOM_UDEF_STEREO_COUNT>
0

> <PUBCHEM_BOND_DEF_STEREO_COUNT>
1

> <PUBCHEM_BOND_UDEF_STEREO_COUNT>
0

> <PUBCHEM_ISOTOPIC_ATOM_COUNT>
0

> <PUBCHEM_COMPONENT_COUNT>
1

> <PUBCHEM_CACTVS_TAUTO_COUNT>
2

> <PUBCHEM_CONFORMER_ID>
005097F000000001

> <PUBCHEM_MMFF94_ENERGY>
84.4763

> <PUBCHEM_FEATURE_SELFOVERLAP>
76.2

> <PUBCHEM_SHAPE_FINGERPRINT>
10165383 225 18115301302287439241
10411042 1 18122344580317262091
10454371 7 18410006637695461668
10595046 47 18342739586155506198
10670039 82 18343306955324092684
10871710 139 18342461448009591027
1100329 8 18338242570934734997
11049842 53 18048898564875527258
11211813 163 18338231691492385046
12107183 9 18054799652856824314
12788726 201 18342468010245268875
12954195 1 18335708238727718547
13383668 90 17749104457293296311
13540713 5 18128835203055201090
13673619 4 17677051222552169027
13690498 29 18187928318430525630
13757389 114 18334575725014390983
13782708 43 17458914721345676806
13911987 19 18125178249710752885
14251757 5 18409446981807415312
14294032 229 18335978774797474425
14347332 77 18336553737447199218
1454969 45 18340209695894661945
14713325 29 18410011052657902795
14790565 3 17832424576319457553
14955137 171 18053097321062731923
15064981 194 17559374869930025862
15183329 4 17988931046652443410
15198563 99 18336274466279374597
15297060 5 18261107538883096793
15575132 122 17986676072088202829
15705408 1 17620504327984672871
15876981 60 18341889645711972053
16087824 20 18409736197449596357
16990350 14 17181365332122927112
16991971 28 18120102685036044951
16992828 155 17774165745947609836
16994733 274 14979142248883809367
20101258 96 18196925574619646971
21033650 10 18269531950162550838
21120745 212 18410856530208320161
21133410 127 17336458009989035988
21796203 349 18197188418956694737
23559900 14 18048325439722022875
25147074 1 18058466433318528562
255183 451 17686907120499111567
3552219 110 17988636355902587935
3610482 184 18201141227250249412
38570 142 17845077649506690826
497634 4 18201726132596544078
50677037 204 17988359274641433868
5171179 24 18116721715890297993
5283173 99 18408324385221040384
531348 171 18410570726005107314
550186 7 18333450962830452222
6327066 14 18127415763903944613
6608658 132 18201442492824680980
6700243 42 17755544245531483846
7237137 82 18410576184512537800
7808743 9 18338802337183188633

> <PUBCHEM_SHAPE_MULTIPOLES>
564.56
16.4
5.42
1.32
36.64
1.76
0.1
2.46
-6.34
-12.04
-0.31
0.46
-0.19
-2.81

> <PUBCHEM_SHAPE_SELFOVERLAP>
1185.118

> <PUBCHEM_SHAPE_VOLUME>
313.1

> <PUBCHEM_COORDINATE_TYPE>
2
5
10

$$$$

