54739
  -OEChem-07051212502D

 40 42  0     1  0  0  0  0  0999 V2000
    3.8253   -2.7130    0.0000 O   0  0  0  0  0  0  0  0  0  0  0  0
    5.3147    2.4030    0.0000 O   0  0  0  0  0  0  0  0  0  0  0  0
    4.4487    0.9030    0.0000 O   0  0  0  0  0  0  0  0  0  0  0  0
    4.4012   -0.1903    0.0000 N   0  0  0  0  0  0  0  0  0  0  0  0
    5.2102   -1.5915    0.0000 N   0  0  0  0  0  0  0  0  0  0  0  0
    7.0468   -0.5970    0.0000 N   0  0  0  0  0  0  0  0  0  0  0  0
    3.7320   -0.9334    0.0000 C   0  0  3  0  0  0  0  0  0  0  0  0
    2.8660   -1.4334    0.0000 C   0  0  0  0  0  0  0  0  0  0  0  0
    4.2320   -1.7994    0.0000 C   0  0  0  0  0  0  0  0  0  0  0  0
    2.9889   -0.2643    0.0000 C   0  0  0  0  0  0  0  0  0  0  0  0
    2.0000   -0.9334    0.0000 C   0  0  0  0  0  0  0  0  0  0  0  0
    2.8660   -2.4334    0.0000 C   0  0  0  0  0  0  0  0  0  0  0  0
    5.3147   -0.5970    0.0000 C   0  0  0  0  0  0  0  0  0  0  0  0
    6.1808   -0.0970    0.0000 C   0  0  0  0  0  0  0  0  0  0  0  0
    6.1808    0.9030    0.0000 C   0  0  0  0  0  0  0  0  0  0  0  0
    7.9128   -0.0970    0.0000 C   0  0  0  0  0  0  0  0  0  0  0  0
    7.9128    0.9030    0.0000 C   0  0  0  0  0  0  0  0  0  0  0  0
    7.0468    1.4030    0.0000 C   0  0  0  0  0  0  0  0  0  0  0  0
    5.3147    1.4030    0.0000 C   0  0  0  0  0  0  0  0  0  0  0  0
    8.8067   -0.6317    0.0000 C   0  0  0  0  0  0  0  0  0  0  0  0
    8.8067    1.4377    0.0000 C   0  0  0  0  0  0  0  0  0  0  0  0
    9.7128   -0.1178    0.0000 C   0  0  0  0  0  0  0  0  0  0  0  0
    9.7128    0.9238    0.0000 C   0  0  0  0  0  0  0  0  0  0  0  0
    2.8660   -0.8134    0.0000 H   0  0  0  0  0  0  0  0  0  0  0  0
    3.4038    0.1965    0.0000 H   0  0  0  0  0  0  0  0  0  0  0  0
    2.5282    0.1506    0.0000 H   0  0  0  0  0  0  0  0  0  0  0  0
    2.5740   -0.7250    0.0000 H   0  0  0  0  0  0  0  0  0  0  0  0
    2.3100   -0.3965    0.0000 H   0  0  0  0  0  0  0  0  0  0  0  0
    1.4631   -0.6234    0.0000 H   0  0  0  0  0  0  0  0  0  0  0  0
    2.2460   -2.4334    0.0000 H   0  0  0  0  0  0  0  0  0  0  0  0
    2.8660   -3.0534    0.0000 H   0  0  0  0  0  0  0  0  0  0  0  0
    3.4860   -2.4334    0.0000 H   0  0  0  0  0  0  0  0  0  0  0  0
    1.6900   -1.4704    0.0000 H   0  0  0  0  0  0  0  0  0  0  0  0
    5.6710   -2.0064    0.0000 H   0  0  0  0  0  0  0  0  0  0  0  0
    7.0468    2.0230    0.0000 H   0  0  0  0  0  0  0  0  0  0  0  0
    8.7996   -1.2516    0.0000 H   0  0  0  0  0  0  0  0  0  0  0  0
    8.7996    2.0576    0.0000 H   0  0  0  0  0  0  0  0  0  0  0  0
   10.2485   -0.4299    0.0000 H   0  0  0  0  0  0  0  0  0  0  0  0
   10.2485    1.2359    0.0000 H   0  0  0  0  0  0  0  0  0  0  0  0
    4.7778    2.7130    0.0000 H   0  0  0  0  0  0  0  0  0  0  0  0
  1  9  2  0  0  0  0
  2 19  1  0  0  0  0
  2 40  1  0  0  0  0
  3 19  2  0  0  0  0
  4  7  1  0  0  0  0
  4 13  2  0  0  0  0
  5  9  1  0  0  0  0
  5 13  1  0  0  0  0
  5 34  1  0  0  0  0
  6 14  2  0  0  0  0
  6 16  1  0  0  0  0
  7  8  1  0  0  0  0
  7  9  1  0  0  0  0
  7 10  1  0  0  0  0
  8 11  1  0  0  0  0
  8 12  1  0  0  0  0
  8 24  1  0  0  0  0
 10 25  1  0  0  0  0
 10 26  1  0  0  0  0
 10 27  1  0  0  0  0
 11 28  1  0  0  0  0
 11 29  1  0  0  0  0
 11 33  1  0  0  0  0
 12 30  1  0  0  0  0
 12 31  1  0  0  0  0
 12 32  1  0  0  0  0
 13 14  1  0  0  0  0
 14 15  1  0  0  0  0
 15 18  2  0  0  0  0
 15 19  1  0  0  0  0
 16 17  1  0  0  0  0
 16 20  2  0  0  0  0
 17 18  1  0  0  0  0
 17 21  2  0  0  0  0
 18 35  1  0  0  0  0
 20 22  1  0  0  0  0
 20 36  1  0  0  0  0
 21 23  1  0  0  0  0
 21 37  1  0  0  0  0
 22 23  2  0  0  0  0
 22 38  1  0  0  0  0
 23 39  1  0  0  0  0
M  END
> <PUBCHEM_COMPOUND_CID>
54739

> <PUBCHEM_COMPOUND_CANONICALIZED>
1

> <PUBCHEM_CACTVS_COMPLEXITY>
545

> <PUBCHEM_CACTVS_HBOND_ACCEPTOR>
5

> <PUBCHEM_CACTVS_HBOND_DONOR>
2

> <PUBCHEM_CACTVS_ROTATABLE_BOND>
3

> <PUBCHEM_CACTVS_SUBSKEYS>
AAADceB7MAAAAAAAAAAAAAAAAAAAAQAAAAA8QAAAAAAAAACx8AAAHgAQCAAADYiBngAzyPLIEgCoAyfyfACCgCElAiAJmCGwbNgIZvrAnZGUcYhmxAHI2ce82eOegAAAAAACAAAAAAAAAAQAAAAAAAAAAA==

> <PUBCHEM_IUPAC_OPENEYE_NAME>
2-(4-isopropyl-4-methyl-5-oxo-1H-imidazol-2-yl)quinoline-3-carboxylic acid

> <PUBCHEM_IUPAC_CAS_NAME>
2-(4-methyl-5-oxo-4-propan-2-yl-1H-imidazol-2-yl)-3-quinolinecarboxylic acid

> <PUBCHEM_IUPAC_NAME>
2-(4-methyl-5-oxo-4-propan-2-yl-1H-imidazol-2-yl)quinoline-3-carboxylic acid

> <PUBCHEM_IUPAC_SYSTEMATIC_NAME>
2-(4-methyl-5-oxidanylidene-4-propan-2-yl-1H-imidazol-2-yl)quinoline-3-carboxylic acid

> <PUBCHEM_IUPAC_TRADITIONAL_NAME>
2-(4-isopropyl-5-keto-4-methyl-2-imidazolin-2-yl)quinoline-3-carboxylic acid

> <PUBCHEM_IUPAC_INCHI>
InChI=1S/C17H17N3O3/c1-9(2)17(3)16(23)19-14(20-17)13-11(15(21)22)8-10-6-4-5-7-12(10)18-13/h4-9H,1-3H3,(H,21,22)(H,19,20,23)

> <PUBCHEM_IUPAC_INCHIKEY>
CABMTIJINOIHOD-UHFFFAOYSA-N

> <PUBCHEM_XLOGP3_AA>
2.5

> <PUBCHEM_EXACT_MASS>
311.126991

> <PUBCHEM_MOLECULAR_FORMULA>
C17H17N3O3

> <PUBCHEM_MOLECULAR_WEIGHT>
311.33518

> <PUBCHEM_OPENEYE_CAN_SMILES>
CC(C)C1(C(=O)NC(=N1)C2=NC3=CC=CC=C3C=C2C(=O)O)C

> <PUBCHEM_OPENEYE_ISO_SMILES>
CC(C)C1(C(=O)NC(=N1)C2=NC3=CC=CC=C3C=C2C(=O)O)C

> <PUBCHEM_CACTVS_TPSA>
91.6

> <PUBCHEM_MONOISOTOPIC_WEIGHT>
311.126991

> <PUBCHEM_TOTAL_CHARGE>
0

> <PUBCHEM_HEAVY_ATOM_COUNT>
23

> <PUBCHEM_ATOM_DEF_STEREO_COUNT>
0

> <PUBCHEM_ATOM_UDEF_STEREO_COUNT>
1

> <PUBCHEM_BOND_DEF_STEREO_COUNT>
0

> <PUBCHEM_BOND_UDEF_STEREO_COUNT>
0

> <PUBCHEM_ISOTOPIC_ATOM_COUNT>
0

> <PUBCHEM_COMPONENT_COUNT>
1

> <PUBCHEM_CACTVS_TAUTO_COUNT>
3

> <PUBCHEM_COORDINATE_TYPE>
1
5
255

> <PUBCHEM_BONDANNOTATIONS>
14  15  8
15  18  8
16  17  8
16  20  8
17  18  8
17  21  8
20  22  8
21  23  8
22  23  8
6  14  8
6  16  8
7  10  3

$$$$

