656742
  -OEChem-07051213043D

 50 53  0     1  0  0  0  0  0999 V2000
    0.2233    2.8423   -0.1879 O   0  0  0  0  0  0  0  0  0  0  0  0
    5.0682   -0.5861    0.6672 O   0  0  0  0  0  0  0  0  0  0  0  0
   -3.8533    0.5270    0.7297 N   0  0  0  0  0  0  0  0  0  0  0  0
   -5.2301   -1.4067    0.9427 N   0  0  0  0  0  0  0  0  0  0  0  0
    1.8276    0.4007   -0.6752 C   0  0  2  0  0  0  0  0  0  0  0  0
    0.4231    0.4014    0.0273 C   0  0  2  0  0  0  0  0  0  0  0  0
   -0.5512   -0.6481   -0.6045 C   0  0  2  0  0  0  0  0  0  0  0  0
    2.4055   -1.0599   -0.6756 C   0  0  2  0  0  0  0  0  0  0  0  0
   -1.8626   -0.6044    0.1775 C   0  0  1  0  0  0  0  0  0  0  0  0
    0.0519   -2.0549   -0.6037 C   0  0  0  0  0  0  0  0  0  0  0  0
   -2.5494    0.7599    0.0628 C   0  0  2  0  0  0  0  0  0  0  0  0
    1.4225   -2.0833   -1.2712 C   0  0  0  0  0  0  0  0  0  0  0  0
    2.8625    1.3252    0.0335 C   0  0  0  0  0  0  0  0  0  0  0  0
    2.8622   -1.5280    0.7281 C   0  0  0  0  0  0  0  0  0  0  0  0
   -0.2904    1.7760    0.1454 C   0  0  0  0  0  0  0  0  0  0  0  0
   -1.6783    1.7772    0.7870 C   0  0  0  0  0  0  0  0  0  0  0  0
    1.7142    0.8986   -2.1398 C   0  0  0  0  0  0  0  0  0  0  0  0
   -3.0033   -1.5391   -0.1445 C   0  0  0  0  0  0  0  0  0  0  0  0
    3.2803    0.8537    1.4250 C   0  0  0  0  0  0  0  0  0  0  0  0
    3.8395   -0.5632    1.3905 C   0  0  2  0  0  0  0  0  0  0  0  0
   -2.8636    1.2597   -1.3656 C   0  0  0  0  0  0  0  0  0  0  0  0
   -4.0984   -0.7482    0.5513 C   0  0  0  0  0  0  0  0  0  0  0  0
    0.5801    0.1068    1.0741 H   0  0  0  0  0  0  0  0  0  0  0  0
   -0.7552   -0.3816   -1.6471 H   0  0  0  0  0  0  0  0  0  0  0  0
    3.2993   -1.0712   -1.3162 H   0  0  0  0  0  0  0  0  0  0  0  0
   -1.6146   -0.7885    1.2375 H   0  0  0  0  0  0  0  0  0  0  0  0
   -0.6129   -2.7448   -1.1375 H   0  0  0  0  0  0  0  0  0  0  0  0
    0.1261   -2.4346    0.4220 H   0  0  0  0  0  0  0  0  0  0  0  0
    1.8410   -3.0943   -1.1922 H   0  0  0  0  0  0  0  0  0  0  0  0
    1.3019   -1.8949   -2.3447 H   0  0  0  0  0  0  0  0  0  0  0  0
    2.4991    2.3537    0.1078 H   0  0  0  0  0  0  0  0  0  0  0  0
    3.7666    1.3881   -0.5885 H   0  0  0  0  0  0  0  0  0  0  0  0
    2.0019   -1.6626    1.3922 H   0  0  0  0  0  0  0  0  0  0  0  0
    3.3427   -2.5098    0.6277 H   0  0  0  0  0  0  0  0  0  0  0  0
   -1.5664    1.5415    1.8515 H   0  0  0  0  0  0  0  0  0  0  0  0
   -2.1087    2.7830    0.7219 H   0  0  0  0  0  0  0  0  0  0  0  0
    2.6802    0.8194   -2.6528 H   0  0  0  0  0  0  0  0  0  0  0  0
    0.9941    0.3273   -2.7303 H   0  0  0  0  0  0  0  0  0  0  0  0
    1.4148    1.9498   -2.1899 H   0  0  0  0  0  0  0  0  0  0  0  0
   -2.8801   -2.5299    0.3001 H   0  0  0  0  0  0  0  0  0  0  0  0
   -3.2186   -1.6296   -1.2123 H   0  0  0  0  0  0  0  0  0  0  0  0
    4.0435    1.5422    1.8077 H   0  0  0  0  0  0  0  0  0  0  0  0
    2.4292    0.9057    2.1127 H   0  0  0  0  0  0  0  0  0  0  0  0
    4.0560   -0.9044    2.4089 H   0  0  0  0  0  0  0  0  0  0  0  0
   -1.9617    1.4696   -1.9482 H   0  0  0  0  0  0  0  0  0  0  0  0
   -3.4644    0.5420   -1.9337 H   0  0  0  0  0  0  0  0  0  0  0  0
   -3.4454    2.1885   -1.3218 H   0  0  0  0  0  0  0  0  0  0  0  0
    5.6806    0.0254    1.1105 H   0  0  0  0  0  0  0  0  0  0  0  0
   -5.9834   -0.9180    1.4142 H   0  0  0  0  0  0  0  0  0  0  0  0
   -5.3559   -2.3993    0.7752 H   0  0  0  0  0  0  0  0  0  0  0  0
  1 15  2  0  0  0  0
  2 20  1  0  0  0  0
  2 48  1  0  0  0  0
  3 11  1  0  0  0  0
  3 22  2  0  0  0  0
  4 22  1  0  0  0  0
  4 49  1  0  0  0  0
  4 50  1  0  0  0  0
  5  6  1  0  0  0  0
  5  8  1  0  0  0  0
  5 13  1  0  0  0  0
  5 17  1  0  0  0  0
  6  7  1  0  0  0  0
  6 15  1  0  0  0  0
  6 23  1  0  0  0  0
  7  9  1  0  0  0  0
  7 10  1  0  0  0  0
  7 24  1  0  0  0  0
  8 12  1  0  0  0  0
  8 14  1  0  0  0  0
  8 25  1  0  0  0  0
  9 11  1  0  0  0  0
  9 18  1  0  0  0  0
  9 26  1  0  0  0  0
 10 12  1  0  0  0  0
 10 27  1  0  0  0  0
 10 28  1  0  0  0  0
 11 16  1  0  0  0  0
 11 21  1  0  0  0  0
 12 29  1  0  0  0  0
 12 30  1  0  0  0  0
 13 19  1  0  0  0  0
 13 31  1  0  0  0  0
 13 32  1  0  0  0  0
 14 20  1  0  0  0  0
 14 33  1  0  0  0  0
 14 34  1  0  0  0  0
 15 16  1  0  0  0  0
 16 35  1  0  0  0  0
 16 36  1  0  0  0  0
 17 37  1  0  0  0  0
 17 38  1  0  0  0  0
 17 39  1  0  0  0  0
 18 22  1  0  0  0  0
 18 40  1  0  0  0  0
 18 41  1  0  0  0  0
 19 20  1  0  0  0  0
 19 42  1  0  0  0  0
 19 43  1  0  0  0  0
 20 44  1  0  0  0  0
 21 45  1  0  0  0  0
 21 46  1  0  0  0  0
 21 47  1  0  0  0  0
M  END
> <PUBCHEM_COMPOUND_CID>
656742

> <PUBCHEM_CONFORMER_RMSD>
0.6

> <PUBCHEM_CONFORMER_DIVERSEORDER>
1
2

> <PUBCHEM_MMFF94_PARTIAL_CHARGES>
14
1 -0.57
11 0.25
15 0.45
16 0.06
18 0.06
2 -0.68
20 0.28
22 0.44
3 -0.7
4 -0.85
48 0.4
49 0.4
50 0.4
6 0.06

> <PUBCHEM_EFFECTIVE_ROTOR_COUNT>
1.6

> <PUBCHEM_PHARMACOPHORE_FEATURES>
9
1 1 acceptor
1 2 acceptor
1 2 donor
1 4 donor
3 3 4 22 cation
5 3 9 11 18 22 rings
6 5 6 7 8 10 12 rings
6 5 8 13 14 19 20 rings
6 6 7 9 11 15 16 rings

> <PUBCHEM_HEAVY_ATOM_COUNT>
22

> <PUBCHEM_ATOM_DEF_STEREO_COUNT>
7

> <PUBCHEM_ATOM_UDEF_STEREO_COUNT>
0

> <PUBCHEM_BOND_DEF_STEREO_COUNT>
0

> <PUBCHEM_BOND_UDEF_STEREO_COUNT>
0

> <PUBCHEM_ISOTOPIC_ATOM_COUNT>
0

> <PUBCHEM_COMPONENT_COUNT>
1

> <PUBCHEM_CACTVS_TAUTO_COUNT>
9

> <PUBCHEM_CONFORMER_ID>
000A056600000001

> <PUBCHEM_MMFF94_ENERGY>
74.1365

> <PUBCHEM_FEATURE_SELFOVERLAP>
45.82

> <PUBCHEM_SHAPE_FINGERPRINT>
10759866 29 18058721382724625932
10948715 1 6411001089315090104
10967382 1 18263354816005950511
11132069 177 18335136501381881935
11796584 16 17060342894838661171
12011746 2 18262810686936752518
12236239 1 18060133246049313956
12251169 10 18408892836631928626
12382932 28 18335706060899445266
12403814 3 18272933800325766149
12553582 1 18335128761982521207
12633257 1 18340473483789580435
12892183 10 18341628052581920866
13140716 1 17974288725123181355
13224815 77 18333729126213264709
13583140 156 17916606317536158446
14178342 30 18262508312253988977
14223421 5 18117278266510583574
14787075 74 18202003175251362002
15375462 478 18342745138878235526
16945 1 18122057873489337388
17349148 13 18410300189782215175
17804303 29 18118680165606539046
1813 80 17560802169340639822
200 152 15051734200755258451
20028762 73 17969502607096281775
20261772 1 18260551086898448802
20559304 39 18339914944171290916
20626108 58 17703794703861395809
20715895 44 17984993854126741133
21069387 34 16917345948067361632
21267235 1 18411692184282529266
21637258 2 16486706843825737650
22182313 1 18262234542437778671
23184049 59 18334299742614783130
2334 1 18408599262457941231
23402539 116 18261406545541321271
23419403 2 16250609987113308929
23463225 33 18411981364330004212
23557571 272 18408320016505986099
23559900 14 18192990645931877974
25 1 8935009157078569249
2748010 2 18263073469799176711
2838139 119 6120776233990365490
296302 2 15140681384196076067
312423 11 17203033141255727709
3286 77 16056885710328001940
394222 165 17771609166927843724
4072396 5 18408045113293481363
4340502 62 14201392755557030551
465052 167 18128809760211952939
474 4 14129067980183152858
484985 159 15762223415014788762
5104073 3 18337110158733580089
84936 31 16154270670987389950
9709674 26 18117564148002368935

> <PUBCHEM_SHAPE_MULTIPOLES>
431.05
7.94
2.31
1.39
2.46
0.28
0.35
-2.13
-3.45
0.18
0.26
-0.7
0.09
0.33

> <PUBCHEM_SHAPE_SELFOVERLAP>
926.402

> <PUBCHEM_SHAPE_VOLUME>
236.2

> <PUBCHEM_COORDINATE_TYPE>
2
5
10

$$$$

