9146
  -OEChem-07051213143D

 32 36  0     0  0  0  0  0  0999 V2000
   -0.2572    0.9889   -0.0009 C   0  0  0  0  0  0  0  0  0  0  0  0
    0.1261   -0.3540   -0.0013 C   0  0  0  0  0  0  0  0  0  0  0  0
   -1.6382    1.1145   -0.0004 C   0  0  0  0  0  0  0  0  0  0  0  0
   -1.1193   -1.1449   -0.0010 C   0  0  0  0  0  0  0  0  0  0  0  0
   -2.2056   -0.2208   -0.0003 C   0  0  0  0  0  0  0  0  0  0  0  0
    1.5009   -0.6628   -0.0008 C   0  0  0  0  0  0  0  0  0  0  0  0
    0.6118    2.0757   -0.0003 C   0  0  0  0  0  0  0  0  0  0  0  0
    2.4286    0.4282   -0.0002 C   0  0  0  0  0  0  0  0  0  0  0  0
    1.9802    1.7702   -0.0001 C   0  0  0  0  0  0  0  0  0  0  0  0
   -2.2165    2.3725    0.0005 C   0  0  0  0  0  0  0  0  0  0  0  0
    0.0257    3.3562    0.0002 C   0  0  0  0  0  0  0  0  0  0  0  0
   -1.3842   -2.5037   -0.0009 C   0  0  0  0  0  0  0  0  0  0  0  0
   -3.5266   -0.6373    0.0009 C   0  0  0  0  0  0  0  0  0  0  0  0
    2.0321   -1.9711   -0.0004 C   0  0  0  0  0  0  0  0  0  0  0  0
   -1.3754    3.4952    0.0007 C   0  0  0  0  0  0  0  0  0  0  0  0
    3.8081    0.1691    0.0007 C   0  0  0  0  0  0  0  0  0  0  0  0
   -2.7189   -2.9297    0.0003 C   0  0  0  0  0  0  0  0  0  0  0  0
   -3.7777   -2.0082    0.0014 C   0  0  0  0  0  0  0  0  0  0  0  0
    3.4098   -2.2027    0.0007 C   0  0  0  0  0  0  0  0  0  0  0  0
    4.2961   -1.1352    0.0012 C   0  0  0  0  0  0  0  0  0  0  0  0
    2.7029    2.5854    0.0004 H   0  0  0  0  0  0  0  0  0  0  0  0
   -3.2939    2.5011    0.0010 H   0  0  0  0  0  0  0  0  0  0  0  0
    0.6489    4.2470    0.0005 H   0  0  0  0  0  0  0  0  0  0  0  0
   -0.6062   -3.2546   -0.0016 H   0  0  0  0  0  0  0  0  0  0  0  0
   -4.3479    0.0710    0.0016 H   0  0  0  0  0  0  0  0  0  0  0  0
    1.3914   -2.8437   -0.0007 H   0  0  0  0  0  0  0  0  0  0  0  0
   -1.8122    4.4907    0.0013 H   0  0  0  0  0  0  0  0  0  0  0  0
    4.5245    0.9887    0.0012 H   0  0  0  0  0  0  0  0  0  0  0  0
   -2.9398   -3.9944    0.0005 H   0  0  0  0  0  0  0  0  0  0  0  0
   -4.8026   -2.3693    0.0025 H   0  0  0  0  0  0  0  0  0  0  0  0
    3.7868   -3.2215    0.0011 H   0  0  0  0  0  0  0  0  0  0  0  0
    5.3670   -1.3154    0.0021 H   0  0  0  0  0  0  0  0  0  0  0  0
  1  2  2  0  0  0  0
  1  3  1  0  0  0  0
  1  7  1  0  0  0  0
  2  4  1  0  0  0  0
  2  6  1  0  0  0  0
  3  5  1  0  0  0  0
  3 10  2  0  0  0  0
  4  5  1  0  0  0  0
  4 12  2  0  0  0  0
  5 13  2  0  0  0  0
  6  8  1  0  0  0  0
  6 14  2  0  0  0  0
  7  9  2  0  0  0  0
  7 11  1  0  0  0  0
  8  9  1  0  0  0  0
  8 16  2  0  0  0  0
  9 21  1  0  0  0  0
 10 15  1  0  0  0  0
 10 22  1  0  0  0  0
 11 15  2  0  0  0  0
 11 23  1  0  0  0  0
 12 17  1  0  0  0  0
 12 24  1  0  0  0  0
 13 18  1  0  0  0  0
 13 25  1  0  0  0  0
 14 19  1  0  0  0  0
 14 26  1  0  0  0  0
 15 27  1  0  0  0  0
 16 20  1  0  0  0  0
 16 28  1  0  0  0  0
 17 18  2  0  0  0  0
 17 29  1  0  0  0  0
 18 30  1  0  0  0  0
 19 20  2  0  0  0  0
 19 31  1  0  0  0  0
 20 32  1  0  0  0  0
M  END
> <PUBCHEM_COMPOUND_CID>
9146

> <PUBCHEM_CONFORMER_RMSD>
0.6

> <PUBCHEM_CONFORMER_DIVERSEORDER>
1

> <PUBCHEM_MMFF94_PARTIAL_CHARGES>
24
10 -0.15
11 -0.15
12 -0.15
13 -0.15
14 -0.15
15 -0.15
16 -0.15
17 -0.15
18 -0.15
19 -0.15
20 -0.15
21 0.15
22 0.15
23 0.15
24 0.15
25 0.15
26 0.15
27 0.15
28 0.15
29 0.15
30 0.15
31 0.15
32 0.15
9 -0.15

> <PUBCHEM_EFFECTIVE_ROTOR_COUNT>
0

> <PUBCHEM_PHARMACOPHORE_FEATURES>
5
5 1 2 3 4 5 rings
6 1 2 6 7 8 9 rings
6 1 3 7 10 11 15 rings
6 4 5 12 13 17 18 rings
6 6 8 14 16 19 20 rings

> <PUBCHEM_HEAVY_ATOM_COUNT>
20

> <PUBCHEM_ATOM_DEF_STEREO_COUNT>
0

> <PUBCHEM_ATOM_UDEF_STEREO_COUNT>
0

> <PUBCHEM_BOND_DEF_STEREO_COUNT>
0

> <PUBCHEM_BOND_UDEF_STEREO_COUNT>
0

> <PUBCHEM_ISOTOPIC_ATOM_COUNT>
0

> <PUBCHEM_COMPONENT_COUNT>
1

> <PUBCHEM_CACTVS_TAUTO_COUNT>
1

> <PUBCHEM_CONFORMER_ID>
000023BA00000001

> <PUBCHEM_MMFF94_ENERGY>
88.4807

> <PUBCHEM_FEATURE_SELFOVERLAP>
25.692

> <PUBCHEM_SHAPE_FINGERPRINT>
10319926 262 18120400863366936386
10411042 1 18338797814572537315
10616163 171 18337669823527921894
10693767 8 17610329451306812294
10967382 1 18050285860369382055
1100329 8 18337669823459577521
11578080 2 17416435154215423940
116883 192 18409447003008016518
12173636 292 18050853522123817852
12553582 1 18338794511731682479
12788726 201 18343302599773899282
13140716 1 17832988243627557769
138480 1 15528553201971248545
14081887 123 18264224628619599426
14178342 30 18268727159042946562
14223421 5 18408047303616006616
14790565 3 17977094987882865513
14866123 147 18121498226608840603
15042514 8 18267582592548891211
15196674 1 18410575046029530726
15442244 35 18265046947358385123
16087824 20 18339359786328352645
16752209 62 18268159827653105763
16945 1 18410856516737849221
19591789 44 17545597220044014497
20028762 73 18115310120060629581
20510252 161 18262801911611841080
20645477 70 17765165964580980895
20775438 99 17108525560395008839
20905425 154 18335977593390973260
21029758 11 18410019818854595159
21267235 1 18338789040054415970
21478907 32 18410858784855179867
221357 26 18267889232699014279
221490 88 17909545065069110571
2255824 54 17762898762444457277
23184049 29 18410572903025550926
2334 1 18338516322399340742
23402539 116 18262247702365325007
23557571 272 18188202217295701870
23559900 14 17901954368300141662
238 59 17041528966338563279
2748010 2 18338236093089960901
3091708 16 9351138041240193561
335352 9 18410855477856716055
34934 24 18337962185740156671
350125 39 18339072821481240713
352729 6 17977666738028077509
43471831 8 17258778646834546681
5104073 3 18409167701379775402
54173680 148 18338797930657343504
6443956 14 18268712697371050503
7364860 26 17905890279849060193
81228 2 18342735234419952608
9709674 26 18117841221070520686

> <PUBCHEM_SHAPE_MULTIPOLES>
411.59
6.26
4.13
0.62
2.88
2
0
-4.39
0
-2.07
0
0
0
0

> <PUBCHEM_SHAPE_SELFOVERLAP>
969.511

> <PUBCHEM_SHAPE_VOLUME>
192

> <PUBCHEM_COORDINATE_TYPE>
2
5
10

$$$$

