443301
  -OEChem-07051213023D

 63 65  0     1  0  0  0  0  0999 V2000
   -0.1884   -0.0439   -1.0558 O   0  0  0  0  0  0  0  0  0  0  0  0
   -3.0129    1.6422    2.5974 O   0  0  0  0  0  0  0  0  0  0  0  0
   -2.2354    0.8763    0.5509 N   0  0  0  0  0  0  0  0  0  0  0  0
    1.0892   -0.3257    0.8921 N   0  0  0  0  0  0  0  0  0  0  0  0
   -5.1352    2.8182    1.3603 N   0  0  0  0  0  0  0  0  0  0  0  0
   -3.4195   -4.1474   -0.9272 N   0  0  0  0  0  0  0  0  0  0  0  0
   -4.1179   -6.1032    0.2799 N   0  0  0  0  0  0  0  0  0  0  0  0
   -4.3417   -5.9917   -1.9857 N   0  0  0  0  0  0  0  0  0  0  0  0
   -1.3027   -0.0830    1.0844 C   0  0  1  0  0  0  0  0  0  0  0  0
   -1.9585   -1.4500    1.3153 C   0  0  0  0  0  0  0  0  0  0  0  0
   -2.4165   -2.1499    0.0302 C   0  0  0  0  0  0  0  0  0  0  0  0
   -3.9141    2.6290    0.5762 C   0  0  2  0  0  0  0  0  0  0  0  0
   -0.0843   -0.1569    0.1624 C   0  0  0  0  0  0  0  0  0  0  0  0
   -3.0268    1.6731    1.3679 C   0  0  0  0  0  0  0  0  0  0  0  0
   -3.2112    3.9786    0.3697 C   0  0  0  0  0  0  0  0  0  0  0  0
   -3.0007   -3.5260    0.3301 C   0  0  0  0  0  0  0  0  0  0  0  0
   -1.9444    3.8609   -0.4448 C   0  0  0  0  0  0  0  0  0  0  0  0
    2.4086   -0.4358    0.3924 C   0  0  0  0  0  0  0  0  0  0  0  0
    3.4582   -0.6029    1.2809 C   0  0  0  0  0  0  0  0  0  0  0  0
    4.7734   -0.7125    0.8007 C   0  0  0  0  0  0  0  0  0  0  0  0
    2.6214   -0.3734   -0.9716 C   0  0  0  0  0  0  0  0  0  0  0  0
    5.0086   -0.6508   -0.5935 C   0  0  0  0  0  0  0  0  0  0  0  0
   -0.7409    3.6320    0.2023 C   0  0  0  0  0  0  0  0  0  0  0  0
   -2.0102    3.9835   -1.8232 C   0  0  0  0  0  0  0  0  0  0  0  0
    3.9216   -0.4810   -1.4663 C   0  0  0  0  0  0  0  0  0  0  0  0
    5.8602   -0.8828    1.6737 C   0  0  0  0  0  0  0  0  0  0  0  0
    0.4289    3.5231   -0.5496 C   0  0  0  0  0  0  0  0  0  0  0  0
   -0.8403    3.8744   -2.5751 C   0  0  0  0  0  0  0  0  0  0  0  0
    6.3239   -0.7604   -1.0736 C   0  0  0  0  0  0  0  0  0  0  0  0
    0.3792    3.6441   -1.9382 C   0  0  0  0  0  0  0  0  0  0  0  0
   -3.9241   -5.3394   -0.8496 C   0  0  0  0  0  0  0  0  0  0  0  0
    7.1605   -0.9899    1.1793 C   0  0  0  0  0  0  0  0  0  0  0  0
    7.3918   -0.9286   -0.1916 C   0  0  0  0  0  0  0  0  0  0  0  0
   -0.9765    0.2973    2.0610 H   0  0  0  0  0  0  0  0  0  0  0  0
   -2.8181   -1.3348    1.9878 H   0  0  0  0  0  0  0  0  0  0  0  0
   -1.2385   -2.0999    1.8292 H   0  0  0  0  0  0  0  0  0  0  0  0
   -3.1656   -1.5377   -0.4863 H   0  0  0  0  0  0  0  0  0  0  0  0
   -1.5750   -2.2712   -0.6613 H   0  0  0  0  0  0  0  0  0  0  0  0
   -2.3251    0.9519   -0.4584 H   0  0  0  0  0  0  0  0  0  0  0  0
   -4.1811    2.1804   -0.3874 H   0  0  0  0  0  0  0  0  0  0  0  0
   -3.8927    4.6844   -0.1244 H   0  0  0  0  0  0  0  0  0  0  0  0
   -2.9659    4.4374    1.3380 H   0  0  0  0  0  0  0  0  0  0  0  0
   -3.8588   -3.4160    1.0042 H   0  0  0  0  0  0  0  0  0  0  0  0
   -2.2393   -4.1414    0.8247 H   0  0  0  0  0  0  0  0  0  0  0  0
    1.0093   -0.3922    1.9044 H   0  0  0  0  0  0  0  0  0  0  0  0
   -5.5772    1.9171    1.5378 H   0  0  0  0  0  0  0  0  0  0  0  0
   -4.9107    3.2187    2.2703 H   0  0  0  0  0  0  0  0  0  0  0  0
    3.2655   -0.6490    2.3511 H   0  0  0  0  0  0  0  0  0  0  0  0
    1.8506   -0.2459   -1.7169 H   0  0  0  0  0  0  0  0  0  0  0  0
   -0.6878    3.5414    1.2834 H   0  0  0  0  0  0  0  0  0  0  0  0
   -2.9556    4.1601   -2.3280 H   0  0  0  0  0  0  0  0  0  0  0  0
    4.0803   -0.4309   -2.5417 H   0  0  0  0  0  0  0  0  0  0  0  0
    5.7030   -0.9334    2.7491 H   0  0  0  0  0  0  0  0  0  0  0  0
    1.3782    3.3423   -0.0540 H   0  0  0  0  0  0  0  0  0  0  0  0
   -0.8790    3.9673   -3.6565 H   0  0  0  0  0  0  0  0  0  0  0  0
    6.5282   -0.7155   -2.1413 H   0  0  0  0  0  0  0  0  0  0  0  0
    1.2900    3.5574   -2.5235 H   0  0  0  0  0  0  0  0  0  0  0  0
    7.9923   -1.1211    1.8652 H   0  0  0  0  0  0  0  0  0  0  0  0
    8.4043   -1.0120   -0.5759 H   0  0  0  0  0  0  0  0  0  0  0  0
   -4.5249   -7.0305    0.2200 H   0  0  0  0  0  0  0  0  0  0  0  0
   -3.8666   -5.7743    1.2052 H   0  0  0  0  0  0  0  0  0  0  0  0
   -4.2633   -5.5563   -2.8984 H   0  0  0  0  0  0  0  0  0  0  0  0
   -4.7385   -6.9242   -1.9464 H   0  0  0  0  0  0  0  0  0  0  0  0
  1 13  2  0  0  0  0
  2 14  2  0  0  0  0
  3  9  1  0  0  0  0
  3 14  1  0  0  0  0
  3 39  1  0  0  0  0
  4 13  1  0  0  0  0
  4 18  1  0  0  0  0
  4 45  1  0  0  0  0
  5 12  1  0  0  0  0
  5 46  1  0  0  0  0
  5 47  1  0  0  0  0
  6 16  1  0  0  0  0
  6 31  2  0  0  0  0
  7 31  1  0  0  0  0
  7 60  1  0  0  0  0
  7 61  1  0  0  0  0
  8 31  1  0  0  0  0
  8 62  1  0  0  0  0
  8 63  1  0  0  0  0
  9 10  1  0  0  0  0
  9 13  1  0  0  0  0
  9 34  1  0  0  0  0
 10 11  1  0  0  0  0
 10 35  1  0  0  0  0
 10 36  1  0  0  0  0
 11 16  1  0  0  0  0
 11 37  1  0  0  0  0
 11 38  1  0  0  0  0
 12 14  1  0  0  0  0
 12 15  1  0  0  0  0
 12 40  1  0  0  0  0
 15 17  1  0  0  0  0
 15 41  1  0  0  0  0
 15 42  1  0  0  0  0
 16 43  1  0  0  0  0
 16 44  1  0  0  0  0
 17 23  2  0  0  0  0
 17 24  1  0  0  0  0
 18 19  2  0  0  0  0
 18 21  1  0  0  0  0
 19 20  1  0  0  0  0
 19 48  1  0  0  0  0
 20 22  1  0  0  0  0
 20 26  2  0  0  0  0
 21 25  2  0  0  0  0
 21 49  1  0  0  0  0
 22 25  1  0  0  0  0
 22 29  2  0  0  0  0
 23 27  1  0  0  0  0
 23 50  1  0  0  0  0
 24 28  2  0  0  0  0
 24 51  1  0  0  0  0
 25 52  1  0  0  0  0
 26 32  1  0  0  0  0
 26 53  1  0  0  0  0
 27 30  2  0  0  0  0
 27 54  1  0  0  0  0
 28 30  1  0  0  0  0
 28 55  1  0  0  0  0
 29 33  1  0  0  0  0
 29 56  1  0  0  0  0
 30 57  1  0  0  0  0
 32 33  2  0  0  0  0
 32 58  1  0  0  0  0
 33 59  1  0  0  0  0
M  END
> <PUBCHEM_COMPOUND_CID>
443301

> <PUBCHEM_CONFORMER_RMSD>
1.2

> <PUBCHEM_CONFORMER_DIVERSEORDER>
1
111
70
134
103
127
144
199
187
71
21
33
158
157
115
126
90
200
98
181
218
156
101
196
180
85
116
214
120
167
89
53
151
62
208
217
84
216
149
35
39
105
95
164
122
121
148
172
77
24
4
88
188
195
49
138
175
168
219
192
141
186
87
207
106
14
166
165
161
46
20
190
92
140
209
51
54
179
36
183
204
47
52
177
23
162
7
119
97
194
17
78
124
213
42
185
73
94
44
15
8
206
50
182
169
160
16
173
197
129
48
86
113
202
109
170
38
154
69
82
220
108
210
30
136
31
178
60
81
56
25
75
43
110
153
198
114
133
125
171
184
152
3
131
102
9
104
147
174
68
176
79
130
76
64
146
91
80
32
37
189
13
139
5
55
201
40
12
205
66
132
83
2
191
211
107
58
99
59
26
123
128
112
63
28
150
215
135
41
65
155
29
57
142
18
67
19
96
34
117
145
22
27
118
159
72
74
45
10
163
6
203
137
11
193
93
212
100
61
143

> <PUBCHEM_MMFF94_PARTIAL_CHARGES>
49
1 -0.57
12 0.33
13 0.57
14 0.57
15 0.14
16 0.25
17 -0.14
18 0.12
19 -0.15
2 -0.57
21 -0.15
23 -0.15
24 -0.15
25 -0.15
26 -0.15
27 -0.15
28 -0.15
29 -0.15
3 -0.73
30 -0.15
31 0.55
32 -0.15
33 -0.15
39 0.37
4 -0.55
45 0.37
46 0.36
47 0.36
48 0.15
49 0.15
5 -0.99
50 0.15
51 0.15
52 0.15
53 0.15
54 0.15
55 0.15
56 0.15
57 0.15
58 0.15
59 0.15
6 -0.7
60 0.4
61 0.4
62 0.4
63 0.4
7 -0.85
8 -0.85
9 0.36

> <PUBCHEM_EFFECTIVE_ROTOR_COUNT>
12

> <PUBCHEM_PHARMACOPHORE_FEATURES>
12
1 1 acceptor
1 2 acceptor
1 3 donor
1 4 donor
1 5 cation
1 5 donor
1 7 donor
1 8 donor
4 6 7 8 31 cation
6 17 23 24 27 28 30 rings
6 18 19 20 21 22 25 rings
6 20 22 26 29 32 33 rings

> <PUBCHEM_HEAVY_ATOM_COUNT>
33

> <PUBCHEM_ATOM_DEF_STEREO_COUNT>
2

> <PUBCHEM_ATOM_UDEF_STEREO_COUNT>
0

> <PUBCHEM_BOND_DEF_STEREO_COUNT>
0

> <PUBCHEM_BOND_UDEF_STEREO_COUNT>
0

> <PUBCHEM_ISOTOPIC_ATOM_COUNT>
0

> <PUBCHEM_COMPONENT_COUNT>
1

> <PUBCHEM_CACTVS_TAUTO_COUNT>
8

> <PUBCHEM_CONFORMER_ID>
0006C3A500000001

> <PUBCHEM_MMFF94_ENERGY>
90.3494

> <PUBCHEM_FEATURE_SELFOVERLAP>
60.975

> <PUBCHEM_SHAPE_FINGERPRINT>
10290309 65 17908703182632776740
11014199 57 18338796684979521699
12988421 55 18047748492665402305
131258 43 18050272679884884430
13757389 114 18339066185761530165
14068700 675 18265617576471368663
14856354 85 17201611520023624424
15876981 60 18271799099709291740
17686467 74 18264219015624929096
20511986 3 16844444007105811580
21033648 29 18045201993602402825
21716022 299 17835797496131846727
24771293 8 17911508016297512521
25019877 29 18192138512009963085
255183 313 18264474235086731955
3383291 50 18337667641605589777
3504750 166 18200045065919133826
3882209 13 18124325895531890034
4046055 25 18193001417657400911
5080951 261 18117022016193501958
6700243 42 17899942063998746758

> <PUBCHEM_SHAPE_MULTIPOLES>
637.5
13.99
8.32
1.98
29.71
11.14
0.31
7.81
-2.75
-21.47
5.28
-0.67
-0.76
-2.79

> <PUBCHEM_SHAPE_SELFOVERLAP>
1352.021

> <PUBCHEM_SHAPE_VOLUME>
352.5

> <PUBCHEM_COORDINATE_TYPE>
2
5
10

$$$$

