5415
  -OEChem-06261200412D

 94 97  0     1  0  0  0  0  0999 V2000
    8.3316    0.3722    0.0000 S   0  0  0  0  0  0  0  0  0  0  0  0
    7.3996   -2.4794    0.0000 O   0  0  0  0  0  0  0  0  0  0  0  0
    4.4176   -0.4527    0.0000 O   0  0  0  0  0  0  0  0  0  0  0  0
    4.6817    3.1431    0.0000 O   0  0  0  0  0  0  0  0  0  0  0  0
    8.4247   -4.9185    0.0000 O   0  0  0  0  0  0  0  0  0  0  0  0
    8.0675   -3.2237    0.0000 O   0  0  0  0  0  0  0  0  0  0  0  0
    2.4141    1.7802    0.0000 O   0  0  0  0  0  0  0  0  0  0  0  0
    7.9279    4.7123    0.0000 O   0  0  0  0  0  0  0  0  0  0  0  0
    3.7032    2.9369    0.0000 O   0  0  0  0  0  0  0  0  0  0  0  0
    5.7533   -1.9413    0.0000 N   0  0  0  0  0  0  0  0  0  0  0  0
    5.7068    0.7040    0.0000 N   0  0  0  0  0  0  0  0  0  0  0  0
    6.7783   -4.3804    0.0000 N   0  0  0  0  0  0  0  0  0  0  0  0
    4.8213   -6.4024    0.0000 N   0  0  0  0  0  0  0  0  0  0  0  0
    6.3281    2.6051    0.0000 N   0  0  0  0  0  0  0  0  0  0  0  0
    8.2851    3.0175    0.0000 N   0  0  0  0  0  0  0  0  0  0  0  0
    6.1105   -3.6362    0.0000 C   0  0  3  0  0  0  0  0  0  0  0  0
    6.0639   -0.9908    0.0000 C   0  0  3  0  0  0  0  0  0  0  0  0
    5.1320   -3.8424    0.0000 C   0  0  0  0  0  0  0  0  0  0  0  0
    4.8213   -4.7929    0.0000 C   0  0  0  0  0  0  0  0  0  0  0  0
    7.0424   -0.7846    0.0000 C   0  0  0  0  0  0  0  0  0  0  0  0
    6.4211   -2.6856    0.0000 C   0  0  0  0  0  0  0  0  0  0  0  0
    3.8751   -5.0976    0.0000 C   0  0  0  0  0  0  0  0  0  0  0  0
    5.0389    1.4483    0.0000 C   0  0  3  0  0  0  0  0  0  0  0  0
    5.3961   -0.2465    0.0000 C   0  0  0  0  0  0  0  0  0  0  0  0
    3.8751   -6.0976    0.0000 C   0  0  0  0  0  0  0  0  0  0  0  0
    5.4049   -5.5976    0.0000 C   0  0  0  0  0  0  0  0  0  0  0  0
    7.3531    0.1659    0.0000 C   0  0  0  0  0  0  0  0  0  0  0  0
    4.0604    1.2421    0.0000 C   0  0  0  0  0  0  0  0  0  0  0  0
    6.6388    3.5556    0.0000 C   0  0  3  0  0  0  0  0  0  0  0  0
    5.3496    2.3988    0.0000 C   0  0  0  0  0  0  0  0  0  0  0  0
    3.0090   -4.5976    0.0000 C   0  0  0  0  0  0  0  0  0  0  0  0
    5.9709    4.2999    0.0000 C   0  0  0  0  0  0  0  0  0  0  0  0
    3.0090   -6.5976    0.0000 C   0  0  0  0  0  0  0  0  0  0  0  0
    2.1430   -5.0976    0.0000 C   0  0  0  0  0  0  0  0  0  0  0  0
    2.1430   -6.0976    0.0000 C   0  0  0  0  0  0  0  0  0  0  0  0
    7.7568   -4.1742    0.0000 C   0  0  0  0  0  0  0  0  0  0  0  0
    6.2816    5.2504    0.0000 C   0  0  0  0  0  0  0  0  0  0  0  0
    7.6172    3.7618    0.0000 C   0  0  0  0  0  0  0  0  0  0  0  0
    3.3926    1.9864    0.0000 C   0  0  0  0  0  0  0  0  0  0  0  0
    7.2601    5.4566    0.0000 C   0  0  0  0  0  0  0  0  0  0  0  0
    5.6137    5.9947    0.0000 C   0  0  0  0  0  0  0  0  0  0  0  0
    8.6423    1.3227    0.0000 C   0  0  0  0  0  0  0  0  0  0  0  0
    9.4032   -4.7123    0.0000 C   0  0  0  0  0  0  0  0  0  0  0  0
    7.5707    6.4071    0.0000 C   0  0  0  0  0  0  0  0  0  0  0  0
    5.9244    6.9452    0.0000 C   0  0  0  0  0  0  0  0  0  0  0  0
    6.9029    7.1514    0.0000 C   0  0  0  0  0  0  0  0  0  0  0  0
   10.0710   -5.4566    0.0000 C   0  0  0  0  0  0  0  0  0  0  0  0
    9.7603   -6.4071    0.0000 C   0  0  0  0  0  0  0  0  0  0  0  0
   11.0495   -5.2504    0.0000 C   0  0  0  0  0  0  0  0  0  0  0  0
   10.4282   -7.1514    0.0000 C   0  0  0  0  0  0  0  0  0  0  0  0
   11.7174   -5.9947    0.0000 C   0  0  0  0  0  0  0  0  0  0  0  0
   11.4067   -6.9452    0.0000 C   0  0  0  0  0  0  0  0  0  0  0  0
    5.9178   -4.2255    0.0000 H   0  0  0  0  0  0  0  0  0  0  0  0
    6.4780   -1.4523    0.0000 H   0  0  0  0  0  0  0  0  0  0  0  0
    5.1114   -3.2227    0.0000 H   0  0  0  0  0  0  0  0  0  0  0  0
    4.5181   -3.7550    0.0000 H   0  0  0  0  0  0  0  0  0  0  0  0
    7.0630   -1.4042    0.0000 H   0  0  0  0  0  0  0  0  0  0  0  0
    7.6563   -0.8719    0.0000 H   0  0  0  0  0  0  0  0  0  0  0  0
    5.1466   -2.0692    0.0000 H   0  0  0  0  0  0  0  0  0  0  0  0
    4.8463    0.8590    0.0000 H   0  0  0  0  0  0  0  0  0  0  0  0
    6.3134    0.8319    0.0000 H   0  0  0  0  0  0  0  0  0  0  0  0
    6.0249   -5.5976    0.0000 H   0  0  0  0  0  0  0  0  0  0  0  0
    6.5857   -4.9698    0.0000 H   0  0  0  0  0  0  0  0  0  0  0  0
    7.3326    0.7856    0.0000 H   0  0  0  0  0  0  0  0  0  0  0  0
    6.7393    0.2533    0.0000 H   0  0  0  0  0  0  0  0  0  0  0  0
    5.0139   -6.9917    0.0000 H   0  0  0  0  0  0  0  0  0  0  0  0
    3.5340    0.9145    0.0000 H   0  0  0  0  0  0  0  0  0  0  0  0
    4.2917    0.6668    0.0000 H   0  0  0  0  0  0  0  0  0  0  0  0
    7.0528    3.0941    0.0000 H   0  0  0  0  0  0  0  0  0  0  0  0
    3.0090   -3.9776    0.0000 H   0  0  0  0  0  0  0  0  0  0  0  0
    6.7422    2.1436    0.0000 H   0  0  0  0  0  0  0  0  0  0  0  0
    5.4240    4.5919    0.0000 H   0  0  0  0  0  0  0  0  0  0  0  0
    5.5884    3.8120    0.0000 H   0  0  0  0  0  0  0  0  0  0  0  0
    3.0090   -7.2176    0.0000 H   0  0  0  0  0  0  0  0  0  0  0  0
    1.6061   -4.7876    0.0000 H   0  0  0  0  0  0  0  0  0  0  0  0
    1.6061   -6.4076    0.0000 H   0  0  0  0  0  0  0  0  0  0  0  0
    7.6741    4.9952    0.0000 H   0  0  0  0  0  0  0  0  0  0  0  0
    5.0070    5.8668    0.0000 H   0  0  0  0  0  0  0  0  0  0  0  0
    9.2316    1.1301    0.0000 H   0  0  0  0  0  0  0  0  0  0  0  0
    8.8349    1.9120    0.0000 H   0  0  0  0  0  0  0  0  0  0  0  0
    8.0530    1.5153    0.0000 H   0  0  0  0  0  0  0  0  0  0  0  0
    8.8918    3.1454    0.0000 H   0  0  0  0  0  0  0  0  0  0  0  0
    8.0925    2.4282    0.0000 H   0  0  0  0  0  0  0  0  0  0  0  0
    9.9295   -4.3847    0.0000 H   0  0  0  0  0  0  0  0  0  0  0  0
    9.1719   -4.1371    0.0000 H   0  0  0  0  0  0  0  0  0  0  0  0
    8.1774    6.5350    0.0000 H   0  0  0  0  0  0  0  0  0  0  0  0
    5.5103    7.4067    0.0000 H   0  0  0  0  0  0  0  0  0  0  0  0
    7.0955    7.7408    0.0000 H   0  0  0  0  0  0  0  0  0  0  0  0
    2.0000    2.2416    0.0000 H   0  0  0  0  0  0  0  0  0  0  0  0
    9.1537   -6.5350    0.0000 H   0  0  0  0  0  0  0  0  0  0  0  0
   11.2421   -4.6611    0.0000 H   0  0  0  0  0  0  0  0  0  0  0  0
   10.2356   -7.7408    0.0000 H   0  0  0  0  0  0  0  0  0  0  0  0
   12.3240   -5.8668    0.0000 H   0  0  0  0  0  0  0  0  0  0  0  0
   11.8208   -7.4067    0.0000 H   0  0  0  0  0  0  0  0  0  0  0  0
  1 27  1  0  0  0  0
  1 42  1  0  0  0  0
  2 21  2  0  0  0  0
  3 24  2  0  0  0  0
  4 30  2  0  0  0  0
  5 36  1  0  0  0  0
  5 43  1  0  0  0  0
  6 36  2  0  0  0  0
  7 39  1  0  0  0  0
  7 89  1  0  0  0  0
  8 38  2  0  0  0  0
  9 39  2  0  0  0  0
 10 17  1  0  0  0  0
 10 21  1  0  0  0  0
 10 59  1  0  0  0  0
 11 23  1  0  0  0  0
 11 24  1  0  0  0  0
 11 61  1  0  0  0  0
 12 16  1  0  0  0  0
 12 36  1  0  0  0  0
 12 63  1  0  0  0  0
 13 25  1  0  0  0  0
 13 26  1  0  0  0  0
 13 66  1  0  0  0  0
 14 29  1  0  0  0  0
 14 30  1  0  0  0  0
 14 71  1  0  0  0  0
 15 38  1  0  0  0  0
 15 82  1  0  0  0  0
 15 83  1  0  0  0  0
 16 18  1  0  0  0  0
 16 21  1  0  0  0  0
 16 53  1  0  0  0  0
 17 20  1  0  0  0  0
 17 24  1  0  0  0  0
 17 54  1  0  0  0  0
 18 19  1  0  0  0  0
 18 55  1  0  0  0  0
 18 56  1  0  0  0  0
 19 22  1  0  0  0  0
 19 26  2  0  0  0  0
 20 27  1  0  0  0  0
 20 57  1  0  0  0  0
 20 58  1  0  0  0  0
 22 25  1  0  0  0  0
 22 31  2  0  0  0  0
 23 28  1  0  0  0  0
 23 30  1  0  0  0  0
 23 60  1  0  0  0  0
 25 33  2  0  0  0  0
 26 62  1  0  0  0  0
 27 64  1  0  0  0  0
 27 65  1  0  0  0  0
 28 39  1  0  0  0  0
 28 67  1  0  0  0  0
 28 68  1  0  0  0  0
 29 32  1  0  0  0  0
 29 38  1  0  0  0  0
 29 69  1  0  0  0  0
 31 34  1  0  0  0  0
 31 70  1  0  0  0  0
 32 37  1  0  0  0  0
 32 72  1  0  0  0  0
 32 73  1  0  0  0  0
 33 35  1  0  0  0  0
 33 74  1  0  0  0  0
 34 35  2  0  0  0  0
 34 75  1  0  0  0  0
 35 76  1  0  0  0  0
 37 40  2  0  0  0  0
 37 41  1  0  0  0  0
 40 44  1  0  0  0  0
 40 77  1  0  0  0  0
 41 45  2  0  0  0  0
 41 78  1  0  0  0  0
 42 79  1  0  0  0  0
 42 80  1  0  0  0  0
 42 81  1  0  0  0  0
 43 47  1  0  0  0  0
 43 84  1  0  0  0  0
 43 85  1  0  0  0  0
 44 46  2  0  0  0  0
 44 86  1  0  0  0  0
 45 46  1  0  0  0  0
 45 87  1  0  0  0  0
 46 88  1  0  0  0  0
 47 48  2  0  0  0  0
 47 49  1  0  0  0  0
 48 50  1  0  0  0  0
 48 90  1  0  0  0  0
 49 51  2  0  0  0  0
 49 91  1  0  0  0  0
 50 52  2  0  0  0  0
 50 92  1  0  0  0  0
 51 52  1  0  0  0  0
 51 93  1  0  0  0  0
 52 94  1  0  0  0  0
M  END
> <PUBCHEM_COMPOUND_CID>
5415

> <PUBCHEM_COMPOUND_CANONICALIZED>
1

> <PUBCHEM_CACTVS_COMPLEXITY>
1210

> <PUBCHEM_CACTVS_HBOND_ACCEPTOR>
9

> <PUBCHEM_CACTVS_HBOND_DONOR>
7

> <PUBCHEM_CACTVS_ROTATABLE_BOND>
20

> <PUBCHEM_CACTVS_SUBSKEYS>
AAADcfB/vABAAAAAAAAAAAAAAAAAAWAAAAAwYMAAAAAAAFgB9AAAHgQQCAAADCjl3ga+yPLJlgioAzX3XACCgCAxAjAI2aG4bJkIZvrgsbmccAhm1gHI6Ae/yeCOgAAAAAACAAAAAAAAAAQAAAAAAAAAAA==

> <PUBCHEM_IUPAC_OPENEYE_NAME>
4-[(2-amino-1-benzyl-2-oxo-ethyl)amino]-3-[[2-[[2-(benzyloxycarbonylamino)-3-(1H-indol-3-yl)propanoyl]amino]-4-methylsulfanyl-butanoyl]amino]-4-oxo-butanoic acid

> <PUBCHEM_IUPAC_CAS_NAME>
4-[(1-amino-1-oxo-3-phenylpropan-2-yl)amino]-3-[[2-[[3-(1H-indol-3-yl)-1-oxo-2-(phenylmethoxycarbonylamino)propyl]amino]-4-(methylthio)-1-oxobutyl]amino]-4-oxobutanoic acid

> <PUBCHEM_IUPAC_NAME>
4-[(1-amino-1-oxo-3-phenylpropan-2-yl)amino]-3-[[2-[[3-(1H-indol-3-yl)-2-(phenylmethoxycarbonylamino)propanoyl]amino]-4-methylsulfanylbutanoyl]amino]-4-oxobutanoic acid

> <PUBCHEM_IUPAC_SYSTEMATIC_NAME>
4-[(1-azanyl-1-oxidanylidene-3-phenyl-propan-2-yl)amino]-3-[[2-[[3-(1H-indol-3-yl)-2-(phenylmethoxycarbonylamino)propanoyl]amino]-4-methylsulfanyl-butanoyl]amino]-4-oxidanylidene-butanoic acid

> <PUBCHEM_IUPAC_TRADITIONAL_NAME>
4-[(2-amino-1-benzyl-2-keto-ethyl)amino]-3-[[2-[[2-(benzyloxycarbonylamino)-3-(1H-indol-3-yl)propanoyl]amino]-4-(methylthio)butanoyl]amino]-4-keto-butyric acid

> <PUBCHEM_IUPAC_INCHI>
InChI=1S/C37H42N6O8S/c1-52-17-16-28(34(47)42-31(20-32(44)45)36(49)41-29(33(38)46)18-23-10-4-2-5-11-23)40-35(48)30(19-25-21-39-27-15-9-8-14-26(25)27)43-37(50)51-22-24-12-6-3-7-13-24/h2-15,21,28-31,39H,16-20,22H2,1H3,(H2,38,46)(H,40,48)(H,41,49)(H,42,47)(H,43,50)(H,44,45)

> <PUBCHEM_IUPAC_INCHIKEY>
DLOHHVQNOMRHQK-UHFFFAOYSA-N

> <PUBCHEM_XLOGP3_AA>
3.1

> <PUBCHEM_EXACT_MASS>
730.278483

> <PUBCHEM_MOLECULAR_FORMULA>
C37H42N6O8S

> <PUBCHEM_MOLECULAR_WEIGHT>
730.82978

> <PUBCHEM_OPENEYE_CAN_SMILES>
CSCCC(C(=O)NC(CC(=O)O)C(=O)NC(CC1=CC=CC=C1)C(=O)N)NC(=O)C(CC2=CNC3=CC=CC=C32)NC(=O)OCC4=CC=CC=C4

> <PUBCHEM_OPENEYE_ISO_SMILES>
CSCCC(C(=O)NC(CC(=O)O)C(=O)NC(CC1=CC=CC=C1)C(=O)N)NC(=O)C(CC2=CNC3=CC=CC=C32)NC(=O)OCC4=CC=CC=C4

> <PUBCHEM_CACTVS_TPSA>
247

> <PUBCHEM_MONOISOTOPIC_WEIGHT>
730.278483

> <PUBCHEM_TOTAL_CHARGE>
0

> <PUBCHEM_HEAVY_ATOM_COUNT>
52

> <PUBCHEM_ATOM_DEF_STEREO_COUNT>
0

> <PUBCHEM_ATOM_UDEF_STEREO_COUNT>
4

> <PUBCHEM_BOND_DEF_STEREO_COUNT>
0

> <PUBCHEM_BOND_UDEF_STEREO_COUNT>
0

> <PUBCHEM_ISOTOPIC_ATOM_COUNT>
0

> <PUBCHEM_COMPONENT_COUNT>
1

> <PUBCHEM_CACTVS_TAUTO_COUNT>
48

> <PUBCHEM_COORDINATE_TYPE>
1
5
255

> <PUBCHEM_BONDANNOTATIONS>
13  25  8
13  26  8
16  18  3
17  20  3
19  22  8
19  26  8
22  25  8
22  31  8
23  28  3
25  33  8
29  32  3
31  34  8
33  35  8
34  35  8
37  40  8
37  41  8
40  44  8
41  45  8
44  46  8
45  46  8
47  48  8
47  49  8
48  50  8
49  51  8
50  52  8
51  52  8

$$$$

