7266
  -OEChem-06261201573D

 17 17  0     0  0  0  0  0  0999 V2000
   -2.4724    0.8803   -0.0007 O   0  0  0  0  0  0  0  0  0  0  0  0
   -1.7071   -1.8262    0.0008 N   0  0  0  0  0  0  0  0  0  0  0  0
    2.9376   -0.4162   -0.0003 N   0  0  0  0  0  0  0  0  0  0  0  0
   -0.7491   -0.7886   -0.0005 C   0  0  0  0  0  0  0  0  0  0  0  0
    1.5647   -0.0932    0.0001 C   0  0  0  0  0  0  0  0  0  0  0  0
    0.6085   -1.1088   -0.0004 C   0  0  0  0  0  0  0  0  0  0  0  0
   -1.1507    0.5472    0.0001 C   0  0  0  0  0  0  0  0  0  0  0  0
    1.1631    1.2426    0.0004 C   0  0  0  0  0  0  0  0  0  0  0  0
   -0.1946    1.5628    0.0004 C   0  0  0  0  0  0  0  0  0  0  0  0
    0.9224   -2.1505   -0.0006 H   0  0  0  0  0  0  0  0  0  0  0  0
    1.8985    2.0431    0.0006 H   0  0  0  0  0  0  0  0  0  0  0  0
   -0.4929    2.6078    0.0005 H   0  0  0  0  0  0  0  0  0  0  0  0
   -1.4088   -2.7925   -0.0025 H   0  0  0  0  0  0  0  0  0  0  0  0
   -2.6928   -1.6002   -0.0020 H   0  0  0  0  0  0  0  0  0  0  0  0
    3.6309    0.3201    0.0007 H   0  0  0  0  0  0  0  0  0  0  0  0
    3.2300   -1.3844    0.0002 H   0  0  0  0  0  0  0  0  0  0  0  0
   -2.5558    1.8494   -0.0004 H   0  0  0  0  0  0  0  0  0  0  0  0
  1  7  1  0  0  0  0
  1 17  1  0  0  0  0
  2  4  1  0  0  0  0
  2 13  1  0  0  0  0
  2 14  1  0  0  0  0
  3  5  1  0  0  0  0
  3 15  1  0  0  0  0
  3 16  1  0  0  0  0
  4  6  1  0  0  0  0
  4  7  2  0  0  0  0
  5  6  2  0  0  0  0
  5  8  1  0  0  0  0
  6 10  1  0  0  0  0
  7  9  1  0  0  0  0
  8  9  2  0  0  0  0
  8 11  1  0  0  0  0
  9 12  1  0  0  0  0
M  END
> <PUBCHEM_COMPOUND_CID>
7266

> <PUBCHEM_CONFORMER_RMSD>
0.4

> <PUBCHEM_CONFORMER_DIVERSEORDER>
1

> <PUBCHEM_MMFF94_PARTIAL_CHARGES>
17
1 -0.53
10 0.15
11 0.15
12 0.15
13 0.4
14 0.4
15 0.4
16 0.4
17 0.45
2 -0.9
3 -0.9
4 0.1
5 0.1
6 -0.15
7 0.08
8 -0.15
9 -0.15

> <PUBCHEM_EFFECTIVE_ROTOR_COUNT>
0

> <PUBCHEM_PHARMACOPHORE_FEATURES>
6
1 1 donor
1 2 cation
1 2 donor
1 3 cation
1 3 donor
6 4 5 6 7 8 9 rings

> <PUBCHEM_HEAVY_ATOM_COUNT>
9

> <PUBCHEM_ATOM_DEF_STEREO_COUNT>
0

> <PUBCHEM_ATOM_UDEF_STEREO_COUNT>
0

> <PUBCHEM_BOND_DEF_STEREO_COUNT>
0

> <PUBCHEM_BOND_UDEF_STEREO_COUNT>
0

> <PUBCHEM_ISOTOPIC_ATOM_COUNT>
0

> <PUBCHEM_COMPONENT_COUNT>
1

> <PUBCHEM_CACTVS_TAUTO_COUNT>
16

> <PUBCHEM_CONFORMER_ID>
00001C6200000001

> <PUBCHEM_MMFF94_ENERGY>
41.6699

> <PUBCHEM_FEATURE_SELFOVERLAP>
30.449

> <PUBCHEM_SHAPE_FINGERPRINT>
16714656 1 18339358681650728364
16945 1 18338797922025204388
18185500 45 18413390946963923706
21040471 1 18338797943399794592
23235685 24 18336833111847175040
23402655 69 17905909302977536109
23552423 10 18200875059109583382
2748010 2 18338238137457399116
29004967 10 18200584925241654680
5084963 1 18188485753234326242

> <PUBCHEM_SHAPE_MULTIPOLES>
169.38
2.92
1.72
0.59
0.7
0.07
0
0.28
0
-0.52
0
0.02
-0.01
0

> <PUBCHEM_SHAPE_SELFOVERLAP>
354.177

> <PUBCHEM_SHAPE_VOLUME>
96.4

> <PUBCHEM_COORDINATE_TYPE>
2
5
10

$$$$

