182658
  -OEChem-07051212562D

 38 40  0     1  0  0  0  0  0999 V2000
    7.0547   -0.8488    0.0000 N   0  0  3  0  0  0  0  0  0  0  0  0
    4.5274    0.2754    0.0000 N   0  0  0  0  0  0  0  0  0  0  0  0
    6.3518   -0.0801    0.0000 C   0  0  3  0  0  0  0  0  0  0  0  0
    5.3364   -0.3124    0.0000 C   0  0  0  0  0  0  0  0  0  0  0  0
    5.0274   -1.2635    0.0000 C   0  0  0  0  0  0  0  0  0  0  0  0
    5.7123   -2.0482    0.0000 C   0  0  0  0  0  0  0  0  0  0  0  0
    6.7328   -1.8395    0.0000 C   0  0  0  0  0  0  0  0  0  0  0  0
    4.0274   -1.2635    0.0000 C   0  0  0  0  0  0  0  0  0  0  0  0
    3.7183   -0.3124    0.0000 C   0  0  0  0  0  0  0  0  0  0  0  0
    6.6498    0.8744    0.0000 C   0  0  0  0  0  0  0  0  0  0  0  0
    8.0321   -0.6372    0.0000 C   0  0  0  0  0  0  0  0  0  0  0  0
    3.3424   -2.0482    0.0000 C   0  0  0  0  0  0  0  0  0  0  0  0
    2.7029   -0.0801    0.0000 C   0  0  0  0  0  0  0  0  0  0  0  0
    7.6255    1.0936    0.0000 C   0  0  0  0  0  0  0  0  0  0  0  0
    2.3219   -1.8395    0.0000 C   0  0  0  0  0  0  0  0  0  0  0  0
    2.0000   -0.8488    0.0000 C   0  0  0  0  0  0  0  0  0  0  0  0
    7.9235    2.0482    0.0000 C   0  0  0  0  0  0  0  0  0  0  0  0
    8.3031    0.3583    0.0000 C   0  0  0  0  0  0  0  0  0  0  0  0
    6.9570    0.0546    0.0000 H   0  0  0  0  0  0  0  0  0  0  0  0
    5.1824   -2.3700    0.0000 H   0  0  0  0  0  0  0  0  0  0  0  0
    5.9387   -2.6254    0.0000 H   0  0  0  0  0  0  0  0  0  0  0  0
    6.7513   -2.4592    0.0000 H   0  0  0  0  0  0  0  0  0  0  0  0
    7.3466   -1.9274    0.0000 H   0  0  0  0  0  0  0  0  0  0  0  0
    4.5274    0.8954    0.0000 H   0  0  0  0  0  0  0  0  0  0  0  0
    6.2296    1.3303    0.0000 H   0  0  0  0  0  0  0  0  0  0  0  0
    8.1633   -1.2431    0.0000 H   0  0  0  0  0  0  0  0  0  0  0  0
    8.6380   -0.5059    0.0000 H   0  0  0  0  0  0  0  0  0  0  0  0
    7.9008   -0.0312    0.0000 H   0  0  0  0  0  0  0  0  0  0  0  0
    3.5408   -2.6356    0.0000 H   0  0  0  0  0  0  0  0  0  0  0  0
    2.5182    0.5117    0.0000 H   0  0  0  0  0  0  0  0  0  0  0  0
    1.9088   -2.3018    0.0000 H   0  0  0  0  0  0  0  0  0  0  0  0
    1.3940   -0.7176    0.0000 H   0  0  0  0  0  0  0  0  0  0  0  0
    8.5153    1.8634    0.0000 H   0  0  0  0  0  0  0  0  0  0  0  0
    7.8472   -0.0619    0.0000 H   0  0  0  0  0  0  0  0  0  0  0  0
    8.7233   -0.0977    0.0000 H   0  0  0  0  0  0  0  0  0  0  0  0
    8.7591    0.7784    0.0000 H   0  0  0  0  0  0  0  0  0  0  0  0
    8.1082    2.6400    0.0000 H   0  0  0  0  0  0  0  0  0  0  0  0
    7.3316    2.2330    0.0000 H   0  0  0  0  0  0  0  0  0  0  0  0
  1  3  1  0  0  0  0
  1  7  1  0  0  0  0
  1 11  1  0  0  0  0
  2  4  1  0  0  0  0
  2  9  1  0  0  0  0
  2 24  1  0  0  0  0
  3  4  1  0  0  0  0
  3 10  1  0  0  0  0
  3 19  1  0  0  0  0
  4  5  2  0  0  0  0
  5  6  1  0  0  0  0
  5  8  1  0  0  0  0
  6  7  1  0  0  0  0
  6 20  1  0  0  0  0
  6 21  1  0  0  0  0
  7 22  1  0  0  0  0
  7 23  1  0  0  0  0
  8  9  1  0  0  0  0
  8 12  2  0  0  0  0
  9 13  2  0  0  0  0
 10 14  2  0  0  0  0
 10 25  1  0  0  0  0
 11 26  1  0  0  0  0
 11 27  1  0  0  0  0
 11 28  1  0  0  0  0
 12 15  1  0  0  0  0
 12 29  1  0  0  0  0
 13 16  1  0  0  0  0
 13 30  1  0  0  0  0
 14 17  1  0  0  0  0
 14 18  1  0  0  0  0
 15 16  2  0  0  0  0
 15 31  1  0  0  0  0
 16 32  1  0  0  0  0
 17 33  1  0  0  0  0
 17 37  1  0  0  0  0
 17 38  1  0  0  0  0
 18 34  1  0  0  0  0
 18 35  1  0  0  0  0
 18 36  1  0  0  0  0
M  END
> <PUBCHEM_COMPOUND_CID>
182658

> <PUBCHEM_COMPOUND_CANONICALIZED>
1

> <PUBCHEM_CACTVS_COMPLEXITY>
332

> <PUBCHEM_CACTVS_HBOND_ACCEPTOR>
1

> <PUBCHEM_CACTVS_HBOND_DONOR>
1

> <PUBCHEM_CACTVS_ROTATABLE_BOND>
1

> <PUBCHEM_CACTVS_SUBSKEYS>
AAADceB7AAAAAAAAAAAAAAAAAAAAAWAAAAA8QAAAAAAAAFgB8AAAHAAQAAAADCjBHgQywPPJkACgAyRiRACCgCAhAiAImSA4ZJgIYOLAkZGUIAhgkADIyAcQgMAOgAAAAAACAAAAAAAAAAQAAAAAAAAAAA==

> <PUBCHEM_IUPAC_OPENEYE_NAME>
2-methyl-1-(2-methylprop-1-enyl)-1,3,4,9-tetrahydropyrido[3,4-b]indole

> <PUBCHEM_IUPAC_CAS_NAME>
2-methyl-1-(2-methylprop-1-enyl)-1,3,4,9-tetrahydropyrido[3,4-b]indole

> <PUBCHEM_IUPAC_NAME>
2-methyl-1-(2-methylprop-1-enyl)-1,3,4,9-tetrahydropyrido[3,4-b]indole

> <PUBCHEM_IUPAC_SYSTEMATIC_NAME>
2-methyl-1-(2-methylprop-1-enyl)-1,3,4,9-tetrahydropyrido[3,4-b]indole

> <PUBCHEM_IUPAC_TRADITIONAL_NAME>
2-methyl-1-(2-methylprop-1-enyl)-1,3,4,9-tetrahydro-$b-carboline

> <PUBCHEM_IUPAC_INCHI>
InChI=1S/C16H20N2/c1-11(2)10-15-16-13(8-9-18(15)3)12-6-4-5-7-14(12)17-16/h4-7,10,15,17H,8-9H2,1-3H3

> <PUBCHEM_IUPAC_INCHIKEY>
RCNFEGDNDAQFRX-UHFFFAOYSA-N

> <PUBCHEM_XLOGP3_AA>
3.7

> <PUBCHEM_EXACT_MASS>
240.162649

> <PUBCHEM_MOLECULAR_FORMULA>
C16H20N2

> <PUBCHEM_MOLECULAR_WEIGHT>
240.3434

> <PUBCHEM_OPENEYE_CAN_SMILES>
CC(=CC1C2=C(CCN1C)C3=CC=CC=C3N2)C

> <PUBCHEM_OPENEYE_ISO_SMILES>
CC(=CC1C2=C(CCN1C)C3=CC=CC=C3N2)C

> <PUBCHEM_CACTVS_TPSA>
19

> <PUBCHEM_MONOISOTOPIC_WEIGHT>
240.162649

> <PUBCHEM_TOTAL_CHARGE>
0

> <PUBCHEM_HEAVY_ATOM_COUNT>
18

> <PUBCHEM_ATOM_DEF_STEREO_COUNT>
0

> <PUBCHEM_ATOM_UDEF_STEREO_COUNT>
1

> <PUBCHEM_BOND_DEF_STEREO_COUNT>
0

> <PUBCHEM_BOND_UDEF_STEREO_COUNT>
0

> <PUBCHEM_ISOTOPIC_ATOM_COUNT>
0

> <PUBCHEM_COMPONENT_COUNT>
1

> <PUBCHEM_CACTVS_TAUTO_COUNT>
1

> <PUBCHEM_COORDINATE_TYPE>
1
5
255

> <PUBCHEM_BONDANNOTATIONS>
12  15  8
13  16  8
15  16  8
2  4  8
2  9  8
3  10  3
4  5  8
5  8  8
8  12  8
8  9  8
9  13  8

$$$$

