35454
  -OEChem-07051213013D

 22 24  0     0  0  0  0  0  0999 V2000
   -1.5046    3.1361    0.0003 Cl  0  0  0  0  0  0  0  0  0  0  0  0
   -1.5048   -3.1360   -0.0005 Cl  0  0  0  0  0  0  0  0  0  0  0  0
   -4.2564    1.5740   -0.0005 Cl  0  0  0  0  0  0  0  0  0  0  0  0
   -4.2568   -1.5740    0.0008 Cl  0  0  0  0  0  0  0  0  0  0  0  0
    0.8230    1.4269   -0.0002 O   0  0  0  0  0  0  0  0  0  0  0  0
    0.8229   -1.4269   -0.0002 O   0  0  0  0  0  0  0  0  0  0  0  0
   -0.3386    0.6970   -0.0001 C   0  0  0  0  0  0  0  0  0  0  0  0
   -0.3386   -0.6970   -0.0001 C   0  0  0  0  0  0  0  0  0  0  0  0
    1.9847    0.6971   -0.0001 C   0  0  0  0  0  0  0  0  0  0  0  0
    1.9846   -0.6971    0.0000 C   0  0  0  0  0  0  0  0  0  0  0  0
   -1.5437    1.3985    0.0001 C   0  0  0  0  0  0  0  0  0  0  0  0
   -1.5438   -1.3984   -0.0001 C   0  0  0  0  0  0  0  0  0  0  0  0
   -2.7503    0.6981    0.0001 C   0  0  0  0  0  0  0  0  0  0  0  0
   -2.7504   -0.6979    0.0000 C   0  0  0  0  0  0  0  0  0  0  0  0
    3.1899    1.3984   -0.0001 C   0  0  0  0  0  0  0  0  0  0  0  0
    3.1898   -1.3985    0.0002 C   0  0  0  0  0  0  0  0  0  0  0  0
    4.3965    0.6979    0.0001 C   0  0  0  0  0  0  0  0  0  0  0  0
    4.3965   -0.6981    0.0003 C   0  0  0  0  0  0  0  0  0  0  0  0
    3.1975    2.4847   -0.0002 H   0  0  0  0  0  0  0  0  0  0  0  0
    3.1974   -2.4848    0.0003 H   0  0  0  0  0  0  0  0  0  0  0  0
    5.3379    1.2397    0.0001 H   0  0  0  0  0  0  0  0  0  0  0  0
    5.3379   -1.2399    0.0004 H   0  0  0  0  0  0  0  0  0  0  0  0
  1 11  1  0  0  0  0
  2 12  1  0  0  0  0
  3 13  1  0  0  0  0
  4 14  1  0  0  0  0
  5  7  1  0  0  0  0
  5  9  1  0  0  0  0
  6  8  1  0  0  0  0
  6 10  1  0  0  0  0
  7  8  2  0  0  0  0
  7 11  1  0  0  0  0
  8 12  1  0  0  0  0
  9 10  1  0  0  0  0
  9 15  2  0  0  0  0
 10 16  2  0  0  0  0
 11 13  2  0  0  0  0
 12 14  2  0  0  0  0
 13 14  1  0  0  0  0
 15 17  1  0  0  0  0
 15 19  1  0  0  0  0
 16 18  1  0  0  0  0
 16 20  1  0  0  0  0
 17 18  2  0  0  0  0
 17 21  1  0  0  0  0
 18 22  1  0  0  0  0
M  END
> <PUBCHEM_COMPOUND_CID>
35454

> <PUBCHEM_CONFORMER_RMSD>
0.6

> <PUBCHEM_CONFORMER_DIVERSEORDER>
1

> <PUBCHEM_MMFF94_PARTIAL_CHARGES>
22
1 -0.18
10 0.08
11 0.18
12 0.18
13 0.18
14 0.18
15 -0.15
16 -0.15
17 -0.15
18 -0.15
19 0.15
2 -0.18
20 0.15
21 0.15
22 0.15
3 -0.18
4 -0.18
5 -0.17
6 -0.17
7 0.08
8 0.08
9 0.08

> <PUBCHEM_EFFECTIVE_ROTOR_COUNT>
0.4

> <PUBCHEM_PHARMACOPHORE_FEATURES>
5
1 5 acceptor
1 6 acceptor
6 5 6 7 8 9 10 rings
6 7 8 11 12 13 14 rings
6 9 10 15 16 17 18 rings

> <PUBCHEM_HEAVY_ATOM_COUNT>
18

> <PUBCHEM_ATOM_DEF_STEREO_COUNT>
0

> <PUBCHEM_ATOM_UDEF_STEREO_COUNT>
0

> <PUBCHEM_BOND_DEF_STEREO_COUNT>
0

> <PUBCHEM_BOND_UDEF_STEREO_COUNT>
0

> <PUBCHEM_ISOTOPIC_ATOM_COUNT>
0

> <PUBCHEM_COMPONENT_COUNT>
1

> <PUBCHEM_CACTVS_TAUTO_COUNT>
1

> <PUBCHEM_CONFORMER_ID>
00008A7E00000001

> <PUBCHEM_MMFF94_ENERGY>
53.9513

> <PUBCHEM_FEATURE_SELFOVERLAP>
25.449

> <PUBCHEM_SHAPE_FINGERPRINT>
10319926 262 18263668250557017642
10411042 1 17834394523168551210
10608611 8 18408888438569729608
10616163 171 18337669720290574646
10967382 1 18266741289975405318
11132069 177 18409171021336649448
11578080 2 16952266300132530179
12173636 292 18338520857953702285
12403259 226 18408609162474044648
12403814 3 17632580452722463589
12553582 1 18265620887621725711
13140716 1 18194118517001511850
13221675 6 18410576197260153106
13380535 76 18335420213619868022
13583140 156 14273724171167274663
138480 1 16681474625358611395
13862211 1 18338240358277751103
14790565 3 18192424393365520377
15042514 8 18412259515355956003
15196674 1 18410856559776933132
15309172 13 18337944701260370457
15442244 35 18267869569869318386
15536298 74 18335420166923554946
16945 1 18410855464576096902
17492 89 18411701027715767362
17804303 29 18408318891425040428
18186145 218 18130793386177313206
19591789 44 18122904488837056779
200 152 17967821539494042213
20510252 161 18334574667856181361
21029758 11 18336271133178672965
21029758 27 18199742558112384845
21267235 1 18339351985633560326
21501502 16 18410855464713259940
221490 88 17765432050431407219
2334 1 17978228262173682350
23402539 116 18261680298652188983
23463225 33 18412825785408293588
23557571 272 18261100842864928158
23559900 14 18334579079436394970
238 59 16475752640837156333
2748010 2 17975984167420627792
2871803 45 18342182141411272023
335352 9 18338516468517906494
34934 24 18266184932892021234
350125 39 18267581497400938744
4214541 1 18410855468818394624
474 4 17202476694310326996
5104073 3 18410857667820493664
54173680 148 18267583507371923219
69090 78 18409452517724717551
7364860 26 18120655987869984934
8809292 202 18270398282987955018
9709674 26 18408036312679047958

> <PUBCHEM_SHAPE_MULTIPOLES>
366.17
8.05
2.95
0.62
3.29
0
0
0
0
-2.27
0
-0.03
0
0

> <PUBCHEM_SHAPE_SELFOVERLAP>
781.922

> <PUBCHEM_SHAPE_VOLUME>
205.9

> <PUBCHEM_COORDINATE_TYPE>
2
5
10

$$$$

