12143
  -OEChem-06261206353D

 16 16  0     0  0  0  0  0  0999 V2000
    3.6987    0.0834    0.0004 O   0  0  0  0  0  0  0  0  0  0  0  0
    2.4181   -0.4758    0.0002 N   0  0  0  0  0  0  0  0  0  0  0  0
    0.0992    0.2268   -0.0002 C   0  0  0  0  0  0  0  0  0  0  0  0
   -0.7967    1.2960    0.0000 C   0  0  0  0  0  0  0  0  0  0  0  0
   -0.3788   -1.0837   -0.0002 C   0  0  0  0  0  0  0  0  0  0  0  0
   -2.1706    1.0549    0.0002 C   0  0  0  0  0  0  0  0  0  0  0  0
   -1.7528   -1.3247    0.0000 C   0  0  0  0  0  0  0  0  0  0  0  0
   -2.6485   -0.2554    0.0002 C   0  0  0  0  0  0  0  0  0  0  0  0
    1.5315    0.4784   -0.0006 C   0  0  0  0  0  0  0  0  0  0  0  0
   -0.4395    2.3226   -0.0001 H   0  0  0  0  0  0  0  0  0  0  0  0
    0.2952   -1.9360   -0.0004 H   0  0  0  0  0  0  0  0  0  0  0  0
   -2.8682    1.8874    0.0004 H   0  0  0  0  0  0  0  0  0  0  0  0
   -2.1256   -2.3449    0.0000 H   0  0  0  0  0  0  0  0  0  0  0  0
   -3.7182   -0.4433    0.0004 H   0  0  0  0  0  0  0  0  0  0  0  0
    1.8561    1.5353   -0.0009 H   0  0  0  0  0  0  0  0  0  0  0  0
    4.2586   -0.7112    0.0010 H   0  0  0  0  0  0  0  0  0  0  0  0
  1  2  1  0  0  0  0
  1 16  1  0  0  0  0
  2  9  2  0  0  0  0
  3  4  2  0  0  0  0
  3  5  1  0  0  0  0
  3  9  1  0  0  0  0
  4  6  1  0  0  0  0
  4 10  1  0  0  0  0
  5  7  2  0  0  0  0
  5 11  1  0  0  0  0
  6  8  2  0  0  0  0
  6 12  1  0  0  0  0
  7  8  1  0  0  0  0
  7 13  1  0  0  0  0
  8 14  1  0  0  0  0
  9 15  1  0  0  0  0
M  END
> <PUBCHEM_COMPOUND_CID>
12143

> <PUBCHEM_CONFORMER_RMSD>
0.4

> <PUBCHEM_CONFORMER_DIVERSEORDER>
1

> <PUBCHEM_MMFF94_PARTIAL_CHARGES>
16
1 -0.34
10 0.15
11 0.15
12 0.15
13 0.15
14 0.15
15 0.06
16 0.4
2 -0.51
3 0.09
4 -0.15
5 -0.15
6 -0.15
7 -0.15
8 -0.15
9 0.3

> <PUBCHEM_EFFECTIVE_ROTOR_COUNT>
1

> <PUBCHEM_PHARMACOPHORE_FEATURES>
3
1 1 anion
1 2 acceptor
6 3 4 5 6 7 8 rings

> <PUBCHEM_HEAVY_ATOM_COUNT>
9

> <PUBCHEM_ATOM_DEF_STEREO_COUNT>
0

> <PUBCHEM_ATOM_UDEF_STEREO_COUNT>
0

> <PUBCHEM_BOND_DEF_STEREO_COUNT>
0

> <PUBCHEM_BOND_UDEF_STEREO_COUNT>
1

> <PUBCHEM_ISOTOPIC_ATOM_COUNT>
0

> <PUBCHEM_COMPONENT_COUNT>
1

> <PUBCHEM_CACTVS_TAUTO_COUNT>
2

> <PUBCHEM_CONFORMER_ID>
00002F6F00000001

> <PUBCHEM_MMFF94_ENERGY>
19.8643

> <PUBCHEM_FEATURE_SELFOVERLAP>
15.223

> <PUBCHEM_SHAPE_FINGERPRINT>
10857977 72 18335994072784777657
13024252 1 15913326896906088241
14325111 11 18410575127844925408
16714656 1 18411419514146673517
20645464 45 17967813851307409870
20871998 184 18187642445122558287
21040471 1 18338797948069275777
23235685 24 18337396040668612261
23402655 69 18121519088146199597
23552423 10 18200877249252799454
29004967 10 16370720430888097261
369184 2 15140961763845395431
5084963 1 18408323276438963177

> <PUBCHEM_SHAPE_MULTIPOLES>
174.37
4.35
1.33
0.6
3.85
0.02
0
0.12
0
-0.71
0
-0.06
0
0

> <PUBCHEM_SHAPE_SELFOVERLAP>
358.459

> <PUBCHEM_SHAPE_VOLUME>
100.7

> <PUBCHEM_COORDINATE_TYPE>
2
5
10

$$$$

