12794
  -OEChem-06261207233D

 20 20  0     0  0  0  0  0  0999 V2000
   -1.7424    0.7322   -1.2131 S   0  0  0  0  0  0  0  0  0  0  0  0
   -3.6214   -0.9266    0.3167 S   0  0  0  0  0  0  0  0  0  0  0  0
   -0.9114   -0.9650    0.6760 N   0  0  0  0  0  0  0  0  0  0  0  0
    0.3840   -0.5340    0.3744 C   0  0  0  0  0  0  0  0  0  0  0  0
    0.9327    0.5543    1.0527 C   0  0  0  0  0  0  0  0  0  0  0  0
    1.1277   -1.1924   -0.6049 C   0  0  0  0  0  0  0  0  0  0  0  0
    2.2252    0.9843    0.7517 C   0  0  0  0  0  0  0  0  0  0  0  0
    2.4201   -0.7626   -0.9058 C   0  0  0  0  0  0  0  0  0  0  0  0
    2.9687    0.3258   -0.2275 C   0  0  0  0  0  0  0  0  0  0  0  0
   -1.9412   -0.4826    0.0466 C   0  0  0  0  0  0  0  0  0  0  0  0
   -1.8420    2.2667   -0.2668 C   0  0  0  0  0  0  0  0  0  0  0  0
    0.3699    1.0634    1.8305 H   0  0  0  0  0  0  0  0  0  0  0  0
    0.7099   -2.0425   -1.1381 H   0  0  0  0  0  0  0  0  0  0  0  0
    2.6538    1.8291    1.2827 H   0  0  0  0  0  0  0  0  0  0  0  0
    2.9994   -1.2754   -1.6680 H   0  0  0  0  0  0  0  0  0  0  0  0
    3.9753    0.6599   -0.4612 H   0  0  0  0  0  0  0  0  0  0  0  0
   -1.7839    3.1142   -0.9553 H   0  0  0  0  0  0  0  0  0  0  0  0
   -1.0287    2.3564    0.4528 H   0  0  0  0  0  0  0  0  0  0  0  0
   -2.7950    2.3222    0.2660 H   0  0  0  0  0  0  0  0  0  0  0  0
   -4.1545   -0.1060   -0.6001 H   0  0  0  0  0  0  0  0  0  0  0  0
  1 10  1  0  0  0  0
  1 11  1  0  0  0  0
  2 10  1  0  0  0  0
  2 20  1  0  0  0  0
  3  4  1  0  0  0  0
  3 10  2  0  0  0  0
  4  5  2  0  0  0  0
  4  6  1  0  0  0  0
  5  7  1  0  0  0  0
  5 12  1  0  0  0  0
  6  8  2  0  0  0  0
  6 13  1  0  0  0  0
  7  9  2  0  0  0  0
  7 14  1  0  0  0  0
  8  9  1  0  0  0  0
  8 15  1  0  0  0  0
  9 16  1  0  0  0  0
 11 17  1  0  0  0  0
 11 18  1  0  0  0  0
 11 19  1  0  0  0  0
M  END
> <PUBCHEM_COMPOUND_CID>
12794

> <PUBCHEM_CONFORMER_RMSD>
0.4

> <PUBCHEM_CONFORMER_DIVERSEORDER>
1
2
3

> <PUBCHEM_MMFF94_PARTIAL_CHARGES>
17
1 -0.37
10 0.73
11 0.23
12 0.15
13 0.15
14 0.15
15 0.15
16 0.15
2 -0.32
20 0.18
3 -0.63
4 0.18
5 -0.15
6 -0.15
7 -0.15
8 -0.15
9 -0.15

> <PUBCHEM_EFFECTIVE_ROTOR_COUNT>
2

> <PUBCHEM_PHARMACOPHORE_FEATURES>
3
1 11 hydrophobe
1 3 acceptor
6 4 5 6 7 8 9 rings

> <PUBCHEM_HEAVY_ATOM_COUNT>
11

> <PUBCHEM_ATOM_DEF_STEREO_COUNT>
0

> <PUBCHEM_ATOM_UDEF_STEREO_COUNT>
0

> <PUBCHEM_BOND_DEF_STEREO_COUNT>
0

> <PUBCHEM_BOND_UDEF_STEREO_COUNT>
0

> <PUBCHEM_ISOTOPIC_ATOM_COUNT>
0

> <PUBCHEM_COMPONENT_COUNT>
1

> <PUBCHEM_CACTVS_TAUTO_COUNT>
2

> <PUBCHEM_CONFORMER_ID>
000031FA00000001

> <PUBCHEM_MMFF94_ENERGY>
31.8965

> <PUBCHEM_FEATURE_SELFOVERLAP>
15.223

> <PUBCHEM_SHAPE_FINGERPRINT>
10857977 72 18131071485557642427
12897270 3 18335708238526966271
12932764 1 18259991473981564343
13380536 127 17846224383740853273
13764800 53 18129379457506300241
13839132 238 18270969058234327820
15219456 202 18334297586514833172
15310529 11 18113338634691136223
15775835 57 17531247193137067564
16945 1 18337401456363825266
17844478 74 18409442575144439753
19973954 147 18411420639238499940
21501502 16 18270120261053920531
22802520 49 18262799716883689084
23402539 116 18272381823307255135
23557571 272 18342171133494241767
5084963 1 18343015592815799342

> <PUBCHEM_SHAPE_MULTIPOLES>
229.09
5.01
1.65
1.1
1.27
0.81
0.1
-0.45
0.14
0.82
0.12
-0.1
0.08
0.81

> <PUBCHEM_SHAPE_SELFOVERLAP>
442.937

> <PUBCHEM_SHAPE_VOLUME>
141.4

> <PUBCHEM_COORDINATE_TYPE>
2
5
10

$$$$

