185781
  -OEChem-07051212572D

 48 49  0     1  0  0  0  0  0999 V2000
    4.5981    1.8840    0.0000 O   0  0  0  0  0  0  0  0  0  0  0  0
    3.7320   -1.6160    0.0000 O   0  0  0  0  0  0  0  0  0  0  0  0
    7.2672    1.3668    0.0000 O   0  0  0  0  0  0  0  0  0  0  0  0
    3.7320    3.1160    0.0000 O   0  0  0  0  0  0  0  0  0  0  0  0
    2.0000   -1.6160    0.0000 O   0  0  0  0  0  0  0  0  0  0  0  0
    4.5981    0.8840    0.0000 C   0  0  2  0  0  0  0  0  0  0  0  0
    4.5981   -0.1160    0.0000 C   0  0  2  0  0  0  0  0  0  0  0  0
    5.5443   -0.4208    0.0000 C   0  0  0  0  0  0  0  0  0  0  0  0
    5.5443    1.1887    0.0000 C   0  0  1  0  0  0  0  0  0  0  0  0
    6.1279    0.3840    0.0000 C   0  0  0  0  0  0  0  0  0  0  0  0
    3.7320    1.3840    0.0000 C   0  0  2  0  0  0  0  0  0  0  0  0
    3.7320   -0.6160    0.0000 C   0  0  2  0  0  0  0  0  0  0  0  0
    2.8660    0.8840    0.0000 C   0  0  1  0  0  0  0  0  0  0  0  0
    2.8660   -0.1160    0.0000 C   0  0  0  0  0  0  0  0  0  0  0  0
    6.3543   -1.0071    0.0000 C   0  0  0  0  0  0  0  0  0  0  0  0
    5.2369   -1.3724    0.0000 C   0  0  0  0  0  0  0  0  0  0  0  0
    5.2369    2.1403    0.0000 C   0  0  0  0  0  0  0  0  0  0  0  0
    6.3543    1.7751    0.0000 C   0  0  0  0  0  0  0  0  0  0  0  0
    3.2320    2.2500    0.0000 C   0  0  0  0  0  0  0  0  0  0  0  0
    2.0000    1.3840    0.0000 C   0  0  0  0  0  0  0  0  0  0  0  0
    2.8660   -2.1160    0.0000 C   0  0  0  0  0  0  0  0  0  0  0  0
    2.8660   -3.1160    0.0000 C   0  0  0  0  0  0  0  0  0  0  0  0
    4.6880   -0.9613    0.0000 H   0  0  0  0  0  0  0  0  0  0  0  0
    6.5888   -0.0308    0.0000 H   0  0  0  0  0  0  0  0  0  0  0  0
    6.5888    0.7987    0.0000 H   0  0  0  0  0  0  0  0  0  0  0  0
    4.1705    1.8224    0.0000 H   0  0  0  0  0  0  0  0  0  0  0  0
    4.2690   -0.9260    0.0000 H   0  0  0  0  0  0  0  0  0  0  0  0
    2.8660    1.5040    0.0000 H   0  0  0  0  0  0  0  0  0  0  0  0
    2.2554   -0.0084    0.0000 H   0  0  0  0  0  0  0  0  0  0  0  0
    2.6540   -0.6986    0.0000 H   0  0  0  0  0  0  0  0  0  0  0  0
    5.9908   -1.5094    0.0000 H   0  0  0  0  0  0  0  0  0  0  0  0
    6.8566   -1.3707    0.0000 H   0  0  0  0  0  0  0  0  0  0  0  0
    6.7179   -0.5049    0.0000 H   0  0  0  0  0  0  0  0  0  0  0  0
    4.6469   -1.1818    0.0000 H   0  0  0  0  0  0  0  0  0  0  0  0
    5.0464   -1.9623    0.0000 H   0  0  0  0  0  0  0  0  0  0  0  0
    5.8269   -1.5629    0.0000 H   0  0  0  0  0  0  0  0  0  0  0  0
    5.8269    2.3309    0.0000 H   0  0  0  0  0  0  0  0  0  0  0  0
    5.0464    2.7303    0.0000 H   0  0  0  0  0  0  0  0  0  0  0  0
    4.6469    1.9497    0.0000 H   0  0  0  0  0  0  0  0  0  0  0  0
    6.2906    2.3918    0.0000 H   0  0  0  0  0  0  0  0  0  0  0  0
    4.2881    2.4209    0.0000 H   0  0  0  0  0  0  0  0  0  0  0  0
    2.6120    2.2500    0.0000 H   0  0  0  0  0  0  0  0  0  0  0  0
    2.3100    1.9209    0.0000 H   0  0  0  0  0  0  0  0  0  0  0  0
    1.4631    1.6940    0.0000 H   0  0  0  0  0  0  0  0  0  0  0  0
    1.6900    0.8470    0.0000 H   0  0  0  0  0  0  0  0  0  0  0  0
    2.2460   -3.1160    0.0000 H   0  0  0  0  0  0  0  0  0  0  0  0
    2.8660   -3.7360    0.0000 H   0  0  0  0  0  0  0  0  0  0  0  0
    3.4860   -3.1160    0.0000 H   0  0  0  0  0  0  0  0  0  0  0  0
  6  1  1  1  0  0  0
  1 41  1  0  0  0  0
 12  2  1  1  0  0  0
  2 21  1  0  0  0  0
  3 18  2  0  0  0  0
  4 19  2  0  0  0  0
  5 21  2  0  0  0  0
  6  7  1  0  0  0  0
  6  9  1  0  0  0  0
  6 11  1  0  0  0  0
  7  8  1  0  0  0  0
  7 12  1  0  0  0  0
  7 23  1  1  0  0  0
  8 10  1  0  0  0  0
  8 15  1  0  0  0  0
  8 16  1  0  0  0  0
  9 10  1  0  0  0  0
  9 17  1  6  0  0  0
  9 18  1  0  0  0  0
 10 24  1  0  0  0  0
 10 25  1  0  0  0  0
 11 13  1  0  0  0  0
 11 19  1  6  0  0  0
 11 26  1  0  0  0  0
 12 14  1  0  0  0  0
 12 27  1  0  0  0  0
 13 14  1  0  0  0  0
 13 20  1  1  0  0  0
 13 28  1  0  0  0  0
 14 29  1  0  0  0  0
 14 30  1  0  0  0  0
 15 31  1  0  0  0  0
 15 32  1  0  0  0  0
 15 33  1  0  0  0  0
 16 34  1  0  0  0  0
 16 35  1  0  0  0  0
 16 36  1  0  0  0  0
 17 37  1  0  0  0  0
 17 38  1  0  0  0  0
 17 39  1  0  0  0  0
 18 40  1  0  0  0  0
 19 42  1  0  0  0  0
 20 43  1  0  0  0  0
 20 44  1  0  0  0  0
 20 45  1  0  0  0  0
 21 22  1  0  0  0  0
 22 46  1  0  0  0  0
 22 47  1  0  0  0  0
 22 48  1  0  0  0  0
M  END
> <PUBCHEM_COMPOUND_CID>
185781

> <PUBCHEM_COMPOUND_CANONICALIZED>
1

> <PUBCHEM_CACTVS_COMPLEXITY>
499

> <PUBCHEM_CACTVS_HBOND_ACCEPTOR>
5

> <PUBCHEM_CACTVS_HBOND_DONOR>
1

> <PUBCHEM_CACTVS_ROTATABLE_BOND>
4

> <PUBCHEM_CACTVS_SUBSKEYS>
AAADceB4OAAAAAAAAAAAAAAAAAAAAYAAAAAwAAAAAAAAAGAAAAAAGgAACAAAD1SggAICCAAABgAIAAiQiAAAAAAAAAAAAAEAAAAAABYAAAACQAAFIAAAAAGI7vzPgAAAAAAAAADAAAYQADAAAYAADAAAAA==

> <PUBCHEM_IUPAC_OPENEYE_NAME>
[(1S,3aR,4S,6R,7S,7aS)-1,7-diformyl-7a-hydroxy-1,3,3,6-tetramethyl-2,3a,4,5,6,7-hexahydroinden-4-yl] acetate

> <PUBCHEM_IUPAC_CAS_NAME>
acetic acid [(1S,3aR,4S,6R,7S,7aS)-1,7-diformyl-7a-hydroxy-1,3,3,6-tetramethyl-2,3a,4,5,6,7-hexahydroinden-4-yl] ester

> <PUBCHEM_IUPAC_NAME>
[(1S,3aR,4S,6R,7S,7aS)-1,7-diformyl-7a-hydroxy-1,3,3,6-tetramethyl-2,3a,4,5,6,7-hexahydroinden-4-yl] acetate

> <PUBCHEM_IUPAC_SYSTEMATIC_NAME>
[(1S,3aR,4S,6R,7S,7aS)-1,7-dimethanoyl-1,3,3,6-tetramethyl-7a-oxidanyl-2,3a,4,5,6,7-hexahydroinden-4-yl] ethanoate

> <PUBCHEM_IUPAC_TRADITIONAL_NAME>
acetic acid [(1S,3aR,4S,6R,7S,7aS)-1,7-diformyl-7a-hydroxy-1,3,3,6-tetramethyl-2,3a,4,5,6,7-hexahydroinden-4-yl] ester

> <PUBCHEM_IUPAC_INCHI>
InChI=1S/C17H26O5/c1-10-6-13(22-11(2)20)14-15(3,4)8-16(5,9-19)17(14,21)12(10)7-18/h7,9-10,12-14,21H,6,8H2,1-5H3/t10-,12+,13+,14+,16-,17-/m1/s1

> <PUBCHEM_IUPAC_INCHIKEY>
SJFIYVCSGNWVPJ-GKKOWQTJSA-N

> <PUBCHEM_XLOGP3_AA>
1.7

> <PUBCHEM_EXACT_MASS>
310.178024

> <PUBCHEM_MOLECULAR_FORMULA>
C17H26O5

> <PUBCHEM_MOLECULAR_WEIGHT>
310.38534

> <PUBCHEM_OPENEYE_CAN_SMILES>
CC1CC(C2C(CC(C2(C1C=O)O)(C)C=O)(C)C)OC(=O)C

> <PUBCHEM_OPENEYE_ISO_SMILES>
C[C@@H]1C[C@@H]([C@@H]2[C@]([C@H]1C=O)([C@@](CC2(C)C)(C)C=O)O)OC(=O)C

> <PUBCHEM_CACTVS_TPSA>
80.7

> <PUBCHEM_MONOISOTOPIC_WEIGHT>
310.178024

> <PUBCHEM_TOTAL_CHARGE>
0

> <PUBCHEM_HEAVY_ATOM_COUNT>
22

> <PUBCHEM_ATOM_DEF_STEREO_COUNT>
6

> <PUBCHEM_ATOM_UDEF_STEREO_COUNT>
0

> <PUBCHEM_BOND_DEF_STEREO_COUNT>
0

> <PUBCHEM_BOND_UDEF_STEREO_COUNT>
0

> <PUBCHEM_ISOTOPIC_ATOM_COUNT>
0

> <PUBCHEM_COMPONENT_COUNT>
1

> <PUBCHEM_CACTVS_TAUTO_COUNT>
2

> <PUBCHEM_COORDINATE_TYPE>
1
5
255

> <PUBCHEM_BONDANNOTATIONS>
6  1  5
11  19  6
13  20  5
12  2  5
7  23  5
9  17  6

$$$$

