51090940
  -OEChem-06241223002D

 44 46  0     1  0  0  0  0  0999 V2000
    8.6035    4.7582    0.0000 F   0  0  0  0  0  0  0  0  0  0  0  0
    7.1911    4.6866    0.0000 F   0  0  0  0  0  0  0  0  0  0  0  0
    8.6751    3.3458    0.0000 F   0  0  0  0  0  0  0  0  0  0  0  0
    6.6353   -2.1470    0.0000 O   0  0  0  0  0  0  0  0  0  0  0  0
    7.5701    2.3226    0.0000 N   0  0  3  0  0  0  0  0  0  0  0  0
    6.2781   -0.4521    0.0000 N   0  0  0  0  0  0  0  0  0  0  0  0
    4.6783   -4.1689    0.0000 N   0  0  0  0  0  0  0  0  0  0  0  0
    7.5673    0.7046    0.0000 C   0  0  3  0  0  0  0  0  0  0  0  0
    8.5189    1.0120    0.0000 C   0  0  0  0  0  0  0  0  0  0  0  0
    6.9809    1.5146    0.0000 C   0  0  0  0  0  0  0  0  0  0  0  0
    8.5206    2.0120    0.0000 C   0  0  0  0  0  0  0  0  0  0  0  0
    7.2566   -0.2459    0.0000 C   0  0  0  0  0  0  0  0  0  0  0  0
    7.2627    3.2742    0.0000 C   0  0  0  0  0  0  0  0  0  0  0  0
    7.9331    4.0162    0.0000 C   0  0  0  0  0  0  0  0  0  0  0  0
    5.9674   -1.4027    0.0000 C   0  0  0  0  0  0  0  0  0  0  0  0
    4.9889   -1.6089    0.0000 C   0  0  0  0  0  0  0  0  0  0  0  0
    4.6783   -2.5594    0.0000 C   0  0  0  0  0  0  0  0  0  0  0  0
    3.7320   -2.8641    0.0000 C   0  0  0  0  0  0  0  0  0  0  0  0
    3.7320   -3.8641    0.0000 C   0  0  0  0  0  0  0  0  0  0  0  0
    5.2619   -3.3641    0.0000 C   0  0  0  0  0  0  0  0  0  0  0  0
    2.8660   -2.3641    0.0000 C   0  0  0  0  0  0  0  0  0  0  0  0
    2.8660   -4.3641    0.0000 C   0  0  0  0  0  0  0  0  0  0  0  0
    2.0000   -2.8641    0.0000 C   0  0  0  0  0  0  0  0  0  0  0  0
    2.0000   -3.8641    0.0000 C   0  0  0  0  0  0  0  0  0  0  0  0
    6.9547    0.6087    0.0000 H   0  0  0  0  0  0  0  0  0  0  0  0
    8.6467    0.4053    0.0000 H   0  0  0  0  0  0  0  0  0  0  0  0
    9.1356    1.0757    0.0000 H   0  0  0  0  0  0  0  0  0  0  0  0
    6.5208    1.9303    0.0000 H   0  0  0  0  0  0  0  0  0  0  0  0
    6.5194    1.1006    0.0000 H   0  0  0  0  0  0  0  0  0  0  0  0
    9.1371    1.9461    0.0000 H   0  0  0  0  0  0  0  0  0  0  0  0
    8.6505    2.6182    0.0000 H   0  0  0  0  0  0  0  0  0  0  0  0
    7.2772   -0.8656    0.0000 H   0  0  0  0  0  0  0  0  0  0  0  0
    7.8704   -0.3333    0.0000 H   0  0  0  0  0  0  0  0  0  0  0  0
    6.8818    3.7634    0.0000 H   0  0  0  0  0  0  0  0  0  0  0  0
    6.7148    2.9841    0.0000 H   0  0  0  0  0  0  0  0  0  0  0  0
    5.8640    0.0093    0.0000 H   0  0  0  0  0  0  0  0  0  0  0  0
    4.9684   -0.9892    0.0000 H   0  0  0  0  0  0  0  0  0  0  0  0
    4.3751   -1.5215    0.0000 H   0  0  0  0  0  0  0  0  0  0  0  0
    5.8819   -3.3641    0.0000 H   0  0  0  0  0  0  0  0  0  0  0  0
    4.8709   -4.7582    0.0000 H   0  0  0  0  0  0  0  0  0  0  0  0
    2.8660   -1.7441    0.0000 H   0  0  0  0  0  0  0  0  0  0  0  0
    2.8660   -4.9841    0.0000 H   0  0  0  0  0  0  0  0  0  0  0  0
    1.4631   -2.5541    0.0000 H   0  0  0  0  0  0  0  0  0  0  0  0
    1.4631   -4.1741    0.0000 H   0  0  0  0  0  0  0  0  0  0  0  0
  1 14  1  0  0  0  0
  2 14  1  0  0  0  0
  3 14  1  0  0  0  0
  4 15  2  0  0  0  0
  5 10  1  0  0  0  0
  5 11  1  0  0  0  0
  5 13  1  0  0  0  0
  6 12  1  0  0  0  0
  6 15  1  0  0  0  0
  6 36  1  0  0  0  0
  7 19  1  0  0  0  0
  7 20  1  0  0  0  0
  7 40  1  0  0  0  0
  8  9  1  0  0  0  0
  8 10  1  0  0  0  0
  8 12  1  0  0  0  0
  8 25  1  0  0  0  0
  9 11  1  0  0  0  0
  9 26  1  0  0  0  0
  9 27  1  0  0  0  0
 10 28  1  0  0  0  0
 10 29  1  0  0  0  0
 11 30  1  0  0  0  0
 11 31  1  0  0  0  0
 12 32  1  0  0  0  0
 12 33  1  0  0  0  0
 13 14  1  0  0  0  0
 13 34  1  0  0  0  0
 13 35  1  0  0  0  0
 15 16  1  0  0  0  0
 16 17  1  0  0  0  0
 16 37  1  0  0  0  0
 16 38  1  0  0  0  0
 17 18  1  0  0  0  0
 17 20  2  0  0  0  0
 18 19  1  0  0  0  0
 18 21  2  0  0  0  0
 19 22  2  0  0  0  0
 20 39  1  0  0  0  0
 21 23  1  0  0  0  0
 21 41  1  0  0  0  0
 22 24  1  0  0  0  0
 22 42  1  0  0  0  0
 23 24  2  0  0  0  0
 23 43  1  0  0  0  0
 24 44  1  0  0  0  0
M  END
> <PUBCHEM_COMPOUND_CID>
51090940

> <PUBCHEM_COMPOUND_CANONICALIZED>
1

> <PUBCHEM_CACTVS_COMPLEXITY>
443

> <PUBCHEM_CACTVS_HBOND_ACCEPTOR>
5

> <PUBCHEM_CACTVS_HBOND_DONOR>
2

> <PUBCHEM_CACTVS_ROTATABLE_BOND>
5

> <PUBCHEM_CACTVS_SUBSKEYS>
AAADceB7IYAAAAAAAAAAAAAAAAAAAWLAAAAwAAAAAAAAAFgB8AAAHwAQAAAADQjBnhQ8wPPJkACoAzV3VACCgCAxAiAI2aE4ZJgIIPLA1ZGEIAhglgDIyAccicCegAAAAAACAAAAAAAAAAQAAAAAAAAAAA==

> <PUBCHEM_IUPAC_OPENEYE_NAME>
2-(1H-indol-3-yl)-N-[[1-(2,2,2-trifluoroethyl)pyrrolidin-3-yl]methyl]acetamide

> <PUBCHEM_IUPAC_CAS_NAME>
2-(1H-indol-3-yl)-N-[[1-(2,2,2-trifluoroethyl)-3-pyrrolidinyl]methyl]acetamide

> <PUBCHEM_IUPAC_NAME>
2-(1H-indol-3-yl)-N-[[1-(2,2,2-trifluoroethyl)pyrrolidin-3-yl]methyl]acetamide

> <PUBCHEM_IUPAC_SYSTEMATIC_NAME>
2-(1H-indol-3-yl)-N-[[1-[2,2,2-tris(fluoranyl)ethyl]pyrrolidin-3-yl]methyl]ethanamide

> <PUBCHEM_IUPAC_TRADITIONAL_NAME>
2-(1H-indol-3-yl)-N-[[1-(2,2,2-trifluoroethyl)pyrrolidin-3-yl]methyl]acetamide

> <PUBCHEM_IUPAC_INCHI>
InChI=1S/C17H20F3N3O/c18-17(19,20)11-23-6-5-12(10-23)8-22-16(24)7-13-9-21-15-4-2-1-3-14(13)15/h1-4,9,12,21H,5-8,10-11H2,(H,22,24)

> <PUBCHEM_IUPAC_INCHIKEY>
YABXTLSGLGDQGU-UHFFFAOYSA-N

> <PUBCHEM_XLOGP3>
2.7

> <PUBCHEM_EXACT_MASS>
339.155847

> <PUBCHEM_MOLECULAR_FORMULA>
C17H20F3N3O

> <PUBCHEM_MOLECULAR_WEIGHT>
339.35541

> <PUBCHEM_OPENEYE_CAN_SMILES>
C1CN(CC1CNC(=O)CC2=CNC3=CC=CC=C32)CC(F)(F)F

> <PUBCHEM_OPENEYE_ISO_SMILES>
C1CN(CC1CNC(=O)CC2=CNC3=CC=CC=C32)CC(F)(F)F

> <PUBCHEM_CACTVS_TPSA>
48.1

> <PUBCHEM_MONOISOTOPIC_WEIGHT>
339.155847

> <PUBCHEM_TOTAL_CHARGE>
0

> <PUBCHEM_HEAVY_ATOM_COUNT>
24

> <PUBCHEM_ATOM_DEF_STEREO_COUNT>
0

> <PUBCHEM_ATOM_UDEF_STEREO_COUNT>
1

> <PUBCHEM_BOND_DEF_STEREO_COUNT>
0

> <PUBCHEM_BOND_UDEF_STEREO_COUNT>
0

> <PUBCHEM_ISOTOPIC_ATOM_COUNT>
0

> <PUBCHEM_COMPONENT_COUNT>
1

> <PUBCHEM_CACTVS_TAUTO_COUNT>
2

> <PUBCHEM_COORDINATE_TYPE>
1
5
255

> <PUBCHEM_BONDANNOTATIONS>
17  18  8
17  20  8
18  19  8
18  21  8
19  22  8
21  23  8
22  24  8
23  24  8
7  19  8
7  20  8
8  12  3

$$$$

