9973
  -OEChem-07051212473D

 15 15  0     0  0  0  0  0  0999 V2000
    3.4392   -0.0255    0.0012 F   0  0  0  0  0  0  0  0  0  0  0  0
   -2.6826   -1.1934   -0.0006 O   0  0  0  0  0  0  0  0  0  0  0  0
   -2.8447    1.0738    0.0010 O   0  0  0  0  0  0  0  0  0  0  0  0
   -0.6895    0.0352   -0.0003 C   0  0  0  0  0  0  0  0  0  0  0  0
    0.0257    1.2329   -0.0007 C   0  0  0  0  0  0  0  0  0  0  0  0
   -0.0098   -1.1829    0.0000 C   0  0  0  0  0  0  0  0  0  0  0  0
    1.4204    1.2124   -0.0007 C   0  0  0  0  0  0  0  0  0  0  0  0
    1.3849   -1.2034    0.0000 C   0  0  0  0  0  0  0  0  0  0  0  0
    2.1000   -0.0058   -0.0004 C   0  0  0  0  0  0  0  0  0  0  0  0
   -2.1437    0.0567    0.0005 C   0  0  0  0  0  0  0  0  0  0  0  0
   -0.4848    2.1923   -0.0008 H   0  0  0  0  0  0  0  0  0  0  0  0
   -0.5267   -2.1384    0.0006 H   0  0  0  0  0  0  0  0  0  0  0  0
    1.9778    2.1444   -0.0007 H   0  0  0  0  0  0  0  0  0  0  0  0
    1.9150   -2.1513    0.0007 H   0  0  0  0  0  0  0  0  0  0  0  0
   -3.6633   -1.1681   -0.0005 H   0  0  0  0  0  0  0  0  0  0  0  0
  1  9  1  0  0  0  0
  2 10  1  0  0  0  0
  2 15  1  0  0  0  0
  3 10  2  0  0  0  0
  4  5  2  0  0  0  0
  4  6  1  0  0  0  0
  4 10  1  0  0  0  0
  5  7  1  0  0  0  0
  5 11  1  0  0  0  0
  6  8  2  0  0  0  0
  6 12  1  0  0  0  0
  7  9  2  0  0  0  0
  7 13  1  0  0  0  0
  8  9  1  0  0  0  0
  8 14  1  0  0  0  0
M  END
> <PUBCHEM_COMPOUND_CID>
9973

> <PUBCHEM_CONFORMER_RMSD>
0.4

> <PUBCHEM_CONFORMER_DIVERSEORDER>
1
2

> <PUBCHEM_MMFF94_PARTIAL_CHARGES>
15
1 -0.19
10 0.63
11 0.15
12 0.15
13 0.15
14 0.15
15 0.5
2 -0.65
3 -0.57
4 0.09
5 -0.15
6 -0.15
7 -0.15
8 -0.15
9 0.19

> <PUBCHEM_EFFECTIVE_ROTOR_COUNT>
1

> <PUBCHEM_PHARMACOPHORE_FEATURES>
4
1 2 acceptor
1 3 acceptor
3 2 3 10 anion
6 4 5 6 7 8 9 rings

> <PUBCHEM_HEAVY_ATOM_COUNT>
10

> <PUBCHEM_ATOM_DEF_STEREO_COUNT>
0

> <PUBCHEM_ATOM_UDEF_STEREO_COUNT>
0

> <PUBCHEM_BOND_DEF_STEREO_COUNT>
0

> <PUBCHEM_BOND_UDEF_STEREO_COUNT>
0

> <PUBCHEM_ISOTOPIC_ATOM_COUNT>
0

> <PUBCHEM_COMPONENT_COUNT>
1

> <PUBCHEM_CACTVS_TAUTO_COUNT>
1

> <PUBCHEM_CONFORMER_ID>
000026F500000001

> <PUBCHEM_MMFF94_ENERGY>
24.4299

> <PUBCHEM_FEATURE_SELFOVERLAP>
20.355

> <PUBCHEM_SHAPE_FINGERPRINT>
10857977 72 18410303483832045290
12032990 46 18409440389032810566
12897270 3 18410013251443378669
14325111 11 18410573955208174752
16945 1 18410855511715346052
193761 8 17546165199588768708
21040471 1 18338517409210734884
23235685 24 18411142445806480008
23402655 69 18264505047393616565
23552423 10 18343862208121197575
2748010 2 18266459802166670300
29004967 10 18412822503657595186
5084963 1 18262235517200071761
528886 8 18410017662395890721

> <PUBCHEM_SHAPE_MULTIPOLES>
186.78
4.11
1.43
0.59
0.3
0.02
0
-0.01
0
0.12
0
-0.02
0
0

> <PUBCHEM_SHAPE_SELFOVERLAP>
394.703

> <PUBCHEM_SHAPE_VOLUME>
105.4

> <PUBCHEM_COORDINATE_TYPE>
2
5
10

$$$$

