10307
  -OEChem-06261204273D

 32 33  0     0  0  0  0  0  0999 V2000
    4.5577   -2.8897   -0.3658 Cl  0  0  0  0  0  0  0  0  0  0  0  0
    2.9108    4.0052    0.1805 Cl  0  0  0  0  0  0  0  0  0  0  0  0
    1.8761    0.1045    0.0254 N   0  0  0  0  0  0  0  0  0  0  0  0
    0.5073   -0.2281    0.0975 C   0  0  0  0  0  0  0  0  0  0  0  0
    2.8875   -0.8657    0.3946 C   0  0  0  0  0  0  0  0  0  0  0  0
    2.2893    1.4162   -0.4323 C   0  0  0  0  0  0  0  0  0  0  0  0
   -1.8260    0.3978   -0.1902 C   0  0  0  0  0  0  0  0  0  0  0  0
   -0.4591    0.7131   -0.2585 C   0  0  0  0  0  0  0  0  0  0  0  0
   -2.2184   -0.8904    0.2449 C   0  0  0  0  0  0  0  0  0  0  0  0
    0.1214   -1.4949    0.5254 C   0  0  0  0  0  0  0  0  0  0  0  0
   -1.2321   -1.8255    0.5990 C   0  0  0  0  0  0  0  0  0  0  0  0
    3.3067   -1.7002   -0.8054 C   0  0  0  0  0  0  0  0  0  0  0  0
    2.3932    2.3916    0.7297 C   0  0  0  0  0  0  0  0  0  0  0  0
   -2.8121    1.3329   -0.5447 C   0  0  0  0  0  0  0  0  0  0  0  0
   -3.5852   -1.2056    0.3131 C   0  0  0  0  0  0  0  0  0  0  0  0
   -4.1656    1.0027   -0.4707 C   0  0  0  0  0  0  0  0  0  0  0  0
   -4.5514   -0.2639   -0.0425 C   0  0  0  0  0  0  0  0  0  0  0  0
    3.7752   -0.3232    0.7501 H   0  0  0  0  0  0  0  0  0  0  0  0
    2.6085   -1.4795    1.2580 H   0  0  0  0  0  0  0  0  0  0  0  0
    3.2885    1.3283   -0.8824 H   0  0  0  0  0  0  0  0  0  0  0  0
    1.6796    1.8031   -1.2561 H   0  0  0  0  0  0  0  0  0  0  0  0
   -0.2047    1.7190   -0.5771 H   0  0  0  0  0  0  0  0  0  0  0  0
    0.8191   -2.2788    0.7969 H   0  0  0  0  0  0  0  0  0  0  0  0
   -1.5116   -2.8230    0.9320 H   0  0  0  0  0  0  0  0  0  0  0  0
    2.4623   -2.2572   -1.2225 H   0  0  0  0  0  0  0  0  0  0  0  0
    3.7172   -1.0716   -1.6019 H   0  0  0  0  0  0  0  0  0  0  0  0
    1.4328    2.5152    1.2388 H   0  0  0  0  0  0  0  0  0  0  0  0
    3.1215    2.0480    1.4712 H   0  0  0  0  0  0  0  0  0  0  0  0
   -2.5347    2.3294   -0.8824 H   0  0  0  0  0  0  0  0  0  0  0  0
   -3.9099   -2.1897    0.6449 H   0  0  0  0  0  0  0  0  0  0  0  0
   -4.9183    1.7351   -0.7477 H   0  0  0  0  0  0  0  0  0  0  0  0
   -5.6052   -0.5203    0.0149 H   0  0  0  0  0  0  0  0  0  0  0  0
  1 12  1  0  0  0  0
  2 13  1  0  0  0  0
  3  4  1  0  0  0  0
  3  5  1  0  0  0  0
  3  6  1  0  0  0  0
  4  8  2  0  0  0  0
  4 10  1  0  0  0  0
  5 12  1  0  0  0  0
  5 18  1  0  0  0  0
  5 19  1  0  0  0  0
  6 13  1  0  0  0  0
  6 20  1  0  0  0  0
  6 21  1  0  0  0  0
  7  8  1  0  0  0  0
  7  9  1  0  0  0  0
  7 14  2  0  0  0  0
  8 22  1  0  0  0  0
  9 11  1  0  0  0  0
  9 15  2  0  0  0  0
 10 11  2  0  0  0  0
 10 23  1  0  0  0  0
 11 24  1  0  0  0  0
 12 25  1  0  0  0  0
 12 26  1  0  0  0  0
 13 27  1  0  0  0  0
 13 28  1  0  0  0  0
 14 16  1  0  0  0  0
 14 29  1  0  0  0  0
 15 17  1  0  0  0  0
 15 30  1  0  0  0  0
 16 17  2  0  0  0  0
 16 31  1  0  0  0  0
 17 32  1  0  0  0  0
M  END
> <PUBCHEM_COMPOUND_CID>
10307

> <PUBCHEM_CONFORMER_RMSD>
0.6

> <PUBCHEM_CONFORMER_DIVERSEORDER>
6
28
63
45
50
62
69
85
83
37
68
60
23
79
82
7
40
72
65
61
66
64
70
73
25
32
34
53
81
38
20
74
11
55
43
49
39
58
77
59
57
80
46
35
87
8
86
31
27
10
29
44
12
36
16
75
14
13
48
84
67
24
71
26
41
51
76
52
19
18
4
33
3
17
42
54
5
56
2
1
47
9
78
21
30
15
22

> <PUBCHEM_MMFF94_PARTIAL_CHARGES>
22
1 -0.29
10 -0.15
11 -0.15
12 0.29
13 0.29
14 -0.15
15 -0.15
16 -0.15
17 -0.15
2 -0.29
22 0.15
23 0.15
24 0.15
29 0.15
3 -0.84
30 0.15
31 0.15
32 0.15
4 0.1
5 0.37
6 0.37
8 -0.15

> <PUBCHEM_EFFECTIVE_ROTOR_COUNT>
5

> <PUBCHEM_PHARMACOPHORE_FEATURES>
3
1 3 cation
6 4 7 8 9 10 11 rings
6 7 9 14 15 16 17 rings

> <PUBCHEM_HEAVY_ATOM_COUNT>
17

> <PUBCHEM_ATOM_DEF_STEREO_COUNT>
0

> <PUBCHEM_ATOM_UDEF_STEREO_COUNT>
0

> <PUBCHEM_BOND_DEF_STEREO_COUNT>
0

> <PUBCHEM_BOND_UDEF_STEREO_COUNT>
0

> <PUBCHEM_ISOTOPIC_ATOM_COUNT>
0

> <PUBCHEM_COMPONENT_COUNT>
1

> <PUBCHEM_CACTVS_TAUTO_COUNT>
1

> <PUBCHEM_CONFORMER_ID>
0000284300000006

> <PUBCHEM_MMFF94_ENERGY>
55.7975

> <PUBCHEM_FEATURE_SELFOVERLAP>
15.249

> <PUBCHEM_SHAPE_FINGERPRINT>
10608611 8 18341054029860022501
1100329 8 18047184443111338088
11680986 33 18342451491695052851
12032990 46 18341325665188048811
12403259 226 18341617057048976365
12403259 415 18131073753479983005
12788726 201 17909544309782679090
12916754 54 18408882928348234987
13134695 92 17531261585820558992
13140716 1 18343867705990514705
13955234 65 18335979758054308770
14178000 15 18334011735557577552
14250199 8 18407760335080614757
14790565 3 16391548823720446792
14866123 147 16967448773464478410
14911166 2 18270398433179857071
15196674 1 18341895169609353143
15219456 202 18410856521090617977
15536298 74 18411983537768052813
16945 1 18198634409184128771
17041 50 18339361976001420694
17492 89 18337674105341842807
17804303 29 18270960253630596063
18186145 218 18131075952228541975
200 152 17822297941268608255
20510252 161 18339359644208888129
20645477 56 18272371915149954029
20645477 70 18409732850298533207
20671657 1 18410570669674244500
20671657 53 18262230144523142346
20832881 197 18269270338676536618
21029758 11 18337953523329067386
21267235 1 18342449387947464011
221490 88 18340761568151415890
22943178 12 18271806774705137643
23175994 123 18263640830604993374
23366157 5 18130509630947423640
23402539 116 18045225096399935366
23559900 14 18409735062364536816
2748010 2 18272932683170136367
3004659 81 17915451908618483374
3286 77 18412261769949652830
335352 9 18268148841474844637
495365 180 18114751421386560680
5104073 3 18343300341190658161
633830 44 18411429418752728061
7364860 26 18336544928743308840
7808743 9 16969426215258188448
9709674 26 18340485569305545331
9971528 1 18261681471157135586
9981440 41 17905616501691452896

> <PUBCHEM_SHAPE_MULTIPOLES>
348.61
8.52
3.53
0.8
2.2
2.76
0.01
-1.94
1.05
-5.97
-0.2
-0.13
-0.03
1.22

> <PUBCHEM_SHAPE_SELFOVERLAP>
713.799

> <PUBCHEM_SHAPE_VOLUME>
202.5

> <PUBCHEM_COORDINATE_TYPE>
2
5
10

$$$$

