332
  -OEChem-07051213112D

 21 21  0     0  0  0  0  0  0999 V2000
    4.2690    1.7500    0.0000 O   0  0  0  0  0  0  0  0  0  0  0  0
    2.5369    0.7500    0.0000 O   0  0  0  0  0  0  0  0  0  0  0  0
    5.1350   -0.7500    0.0000 C   0  0  0  0  0  0  0  0  0  0  0  0
    4.2690    0.7500    0.0000 C   0  0  0  0  0  0  0  0  0  0  0  0
    5.1350    0.2500    0.0000 C   0  0  0  0  0  0  0  0  0  0  0  0
    3.4030    0.2500    0.0000 C   0  0  0  0  0  0  0  0  0  0  0  0
    4.2690   -1.2500    0.0000 C   0  0  0  0  0  0  0  0  0  0  0  0
    3.4030   -0.7500    0.0000 C   0  0  0  0  0  0  0  0  0  0  0  0
    6.0010   -1.2500    0.0000 C   0  0  0  0  0  0  0  0  0  0  0  0
    5.1350    2.2500    0.0000 C   0  0  0  0  0  0  0  0  0  0  0  0
    6.0010   -2.2500    0.0000 C   0  0  0  0  0  0  0  0  0  0  0  0
    5.6720    0.5600    0.0000 H   0  0  0  0  0  0  0  0  0  0  0  0
    4.2690   -1.8700    0.0000 H   0  0  0  0  0  0  0  0  0  0  0  0
    2.8660   -1.0600    0.0000 H   0  0  0  0  0  0  0  0  0  0  0  0
    6.5380   -0.9400    0.0000 H   0  0  0  0  0  0  0  0  0  0  0  0
    5.4450    1.7131    0.0000 H   0  0  0  0  0  0  0  0  0  0  0  0
    5.6720    2.5600    0.0000 H   0  0  0  0  0  0  0  0  0  0  0  0
    4.8250    2.7869    0.0000 H   0  0  0  0  0  0  0  0  0  0  0  0
    2.0000    0.4400    0.0000 H   0  0  0  0  0  0  0  0  0  0  0  0
    5.4641   -2.5600    0.0000 H   0  0  0  0  0  0  0  0  0  0  0  0
    6.5380   -2.5600    0.0000 H   0  0  0  0  0  0  0  0  0  0  0  0
  1  4  1  0  0  0  0
  1 10  1  0  0  0  0
  2  6  1  0  0  0  0
  2 19  1  0  0  0  0
  3  5  2  0  0  0  0
  3  7  1  0  0  0  0
  3  9  1  0  0  0  0
  4  5  1  0  0  0  0
  4  6  2  0  0  0  0
  5 12  1  0  0  0  0
  6  8  1  0  0  0  0
  7  8  2  0  0  0  0
  7 13  1  0  0  0  0
  8 14  1  0  0  0  0
  9 11  2  0  0  0  0
  9 15  1  0  0  0  0
 10 16  1  0  0  0  0
 10 17  1  0  0  0  0
 10 18  1  0  0  0  0
 11 20  1  0  0  0  0
 11 21  1  0  0  0  0
M  END
> <PUBCHEM_COMPOUND_CID>
332

> <PUBCHEM_COMPOUND_CANONICALIZED>
1

> <PUBCHEM_CACTVS_COMPLEXITY>
134

> <PUBCHEM_CACTVS_HBOND_ACCEPTOR>
2

> <PUBCHEM_CACTVS_HBOND_DONOR>
1

> <PUBCHEM_CACTVS_ROTATABLE_BOND>
2

> <PUBCHEM_CACTVS_SUBSKEYS>
AAADccBwMAAAAAAAAAAAAAAAAAAAAAAAAAAwAAAAAAAAAAABAAAAGgAACAAADASAmAIyBoAABgCAAiBCAAACCAAgIAAIiAAGiIgNJiKGMRqAcCMkwBELuAeAwBAOIAABAAAAQABAAAIAAACAAAAAAAAAAA==

> <PUBCHEM_IUPAC_OPENEYE_NAME>
2-methoxy-4-vinyl-phenol

> <PUBCHEM_IUPAC_CAS_NAME>
4-ethenyl-2-methoxyphenol

> <PUBCHEM_IUPAC_NAME>
4-ethenyl-2-methoxyphenol

> <PUBCHEM_IUPAC_SYSTEMATIC_NAME>
4-ethenyl-2-methoxy-phenol

> <PUBCHEM_IUPAC_TRADITIONAL_NAME>
2-methoxy-4-vinyl-phenol

> <PUBCHEM_IUPAC_INCHI>
InChI=1S/C9H10O2/c1-3-7-4-5-8(10)9(6-7)11-2/h3-6,10H,1H2,2H3

> <PUBCHEM_IUPAC_INCHIKEY>
YOMSJEATGXXYPX-UHFFFAOYSA-N

> <PUBCHEM_XLOGP3>
2.4

> <PUBCHEM_EXACT_MASS>
150.06808

> <PUBCHEM_MOLECULAR_FORMULA>
C9H10O2

> <PUBCHEM_MOLECULAR_WEIGHT>
150.1745

> <PUBCHEM_OPENEYE_CAN_SMILES>
COC1=C(C=CC(=C1)C=C)O

> <PUBCHEM_OPENEYE_ISO_SMILES>
COC1=C(C=CC(=C1)C=C)O

> <PUBCHEM_CACTVS_TPSA>
29.5

> <PUBCHEM_MONOISOTOPIC_WEIGHT>
150.06808

> <PUBCHEM_TOTAL_CHARGE>
0

> <PUBCHEM_HEAVY_ATOM_COUNT>
11

> <PUBCHEM_ATOM_DEF_STEREO_COUNT>
0

> <PUBCHEM_ATOM_UDEF_STEREO_COUNT>
0

> <PUBCHEM_BOND_DEF_STEREO_COUNT>
0

> <PUBCHEM_BOND_UDEF_STEREO_COUNT>
0

> <PUBCHEM_ISOTOPIC_ATOM_COUNT>
0

> <PUBCHEM_COMPONENT_COUNT>
1

> <PUBCHEM_CACTVS_TAUTO_COUNT>
4

> <PUBCHEM_COORDINATE_TYPE>
1
5
255

> <PUBCHEM_BONDANNOTATIONS>
3  5  8
3  7  8
4  5  8
4  6  8
6  8  8
7  8  8

$$$$

