656511
  -OEChem-07051212532D

 61 64  0     1  0  0  0  0  0999 V2000
    9.2365   -1.1771    0.0000 S   0  0  0  0  0  0  0  0  0  0  0  0
    6.3778    4.3006    0.0000 S   0  0  0  0  0  0  0  0  0  0  0  0
    6.5715   -3.1988    0.0000 O   0  0  0  0  0  0  0  0  0  0  0  0
    8.8764   -4.4893    0.0000 O   0  0  0  0  0  0  0  0  0  0  0  0
   10.5236   -3.9541    0.0000 O   0  0  0  0  0  0  0  0  0  0  0  0
    5.3442   -1.9956    0.0000 O   0  0  0  0  0  0  0  0  0  0  0  0
    3.4881    1.0954    0.0000 O   0  0  0  0  0  0  0  0  0  0  0  0
    6.4872    2.1277    0.0000 O   0  0  0  0  0  0  0  0  0  0  0  0
    5.7501    5.0790    0.0000 O   0  0  0  0  0  0  0  0  0  0  0  0
    7.0055    3.5221    0.0000 O   0  0  0  0  0  0  0  0  0  0  0  0
    8.2854   -2.4861    0.0000 N   0  0  0  0  0  0  0  0  0  0  0  0
    6.5715   -0.7734    0.0000 N   0  0  0  0  0  0  0  0  0  0  0  0
    5.1602    0.6437    0.0000 N   0  0  0  0  0  0  0  0  0  0  0  0
    4.7153    2.3176    0.0000 N   0  0  0  0  0  0  0  0  0  0  0  0
    5.5994    3.6728    0.0000 N   0  0  0  0  0  0  0  0  0  0  0  0
    8.2854   -1.4861    0.0000 C   0  0  1  0  0  0  0  0  0  0  0  0
    9.8242   -1.9861    0.0000 C   0  0  0  0  0  0  0  0  0  0  0  0
    9.2365   -2.7951    0.0000 C   0  0  2  0  0  0  0  0  0  0  0  0
    7.2771   -1.4820    0.0000 C   0  0  1  0  0  0  0  0  0  0  0  0
    7.2771   -2.4903    0.0000 C   0  0  0  0  0  0  0  0  0  0  0  0
   10.6333   -1.3983    0.0000 C   0  0  0  0  0  0  0  0  0  0  0  0
   10.6333   -2.5739    0.0000 C   0  0  0  0  0  0  0  0  0  0  0  0
    9.5455   -3.7462    0.0000 C   0  0  0  0  0  0  0  0  0  0  0  0
    5.6050   -1.0303    0.0000 C   0  0  0  0  0  0  0  0  0  0  0  0
    4.8994   -0.3217    0.0000 C   0  0  1  0  0  0  0  0  0  0  0  0
    3.9329   -0.5785    0.0000 C   0  0  0  0  0  0  0  0  0  0  0  0
    4.4545    1.3523    0.0000 C   0  0  0  0  0  0  0  0  0  0  0  0
    4.0876    3.0961    0.0000 C   0  0  0  0  0  0  0  0  0  0  0  0
    4.6340    3.9336    0.0000 C   0  0  0  0  0  0  0  0  0  0  0  0
    5.6496    2.6741    0.0000 C   0  0  0  0  0  0  0  0  0  0  0  0
    3.2273    0.1300    0.0000 C   0  0  0  0  0  0  0  0  0  0  0  0
    3.6721   -1.5439    0.0000 C   0  0  0  0  0  0  0  0  0  0  0  0
    2.2608   -0.1268    0.0000 C   0  0  0  0  0  0  0  0  0  0  0  0
    2.7056   -1.8008    0.0000 C   0  0  0  0  0  0  0  0  0  0  0  0
    7.1562    4.9283    0.0000 C   0  0  0  0  0  0  0  0  0  0  0  0
    2.0000   -1.0922    0.0000 C   0  0  0  0  0  0  0  0  0  0  0  0
    8.1542   -0.6463    0.0000 H   0  0  0  0  0  0  0  0  0  0  0  0
    8.7981   -3.2335    0.0000 H   0  0  0  0  0  0  0  0  0  0  0  0
    6.7041   -1.7186    0.0000 H   0  0  0  0  0  0  0  0  0  0  0  0
   10.2688   -3.0755    0.0000 H   0  0  0  0  0  0  0  0  0  0  0  0
   11.1349   -2.9383    0.0000 H   0  0  0  0  0  0  0  0  0  0  0  0
   10.9977   -2.0723    0.0000 H   0  0  0  0  0  0  0  0  0  0  0  0
   10.9977   -1.8999    0.0000 H   0  0  0  0  0  0  0  0  0  0  0  0
   11.1349   -1.0339    0.0000 H   0  0  0  0  0  0  0  0  0  0  0  0
   10.2688   -0.8967    0.0000 H   0  0  0  0  0  0  0  0  0  0  0  0
    6.7332   -0.1749    0.0000 H   0  0  0  0  0  0  0  0  0  0  0  0
    4.4619    0.1176    0.0000 H   0  0  0  0  0  0  0  0  0  0  0  0
    9.0679   -5.0790    0.0000 H   0  0  0  0  0  0  0  0  0  0  0  0
    5.7594    0.8029    0.0000 H   0  0  0  0  0  0  0  0  0  0  0  0
    3.6066    3.4873    0.0000 H   0  0  0  0  0  0  0  0  0  0  0  0
    3.6483    2.6586    0.0000 H   0  0  0  0  0  0  0  0  0  0  0  0
    4.8573    4.5120    0.0000 H   0  0  0  0  0  0  0  0  0  0  0  0
    4.0821    4.2162    0.0000 H   0  0  0  0  0  0  0  0  0  0  0  0
    3.3890    0.7286    0.0000 H   0  0  0  0  0  0  0  0  0  0  0  0
    4.1096   -1.9832    0.0000 H   0  0  0  0  0  0  0  0  0  0  0  0
    1.8233    0.3125    0.0000 H   0  0  0  0  0  0  0  0  0  0  0  0
    2.5440   -2.3993    0.0000 H   0  0  0  0  0  0  0  0  0  0  0  0
    7.5454    4.4456    0.0000 H   0  0  0  0  0  0  0  0  0  0  0  0
    7.6389    5.3175    0.0000 H   0  0  0  0  0  0  0  0  0  0  0  0
    6.7670    5.4109    0.0000 H   0  0  0  0  0  0  0  0  0  0  0  0
    1.4008   -1.2514    0.0000 H   0  0  0  0  0  0  0  0  0  0  0  0
  1 16  1  0  0  0  0
  1 17  1  0  0  0  0
  2  9  2  0  0  0  0
  2 10  2  0  0  0  0
  2 15  1  0  0  0  0
  2 35  1  0  0  0  0
  3 20  2  0  0  0  0
  4 23  1  0  0  0  0
  4 48  1  0  0  0  0
  5 23  2  0  0  0  0
  6 24  2  0  0  0  0
  7 27  2  0  0  0  0
  8 30  2  0  0  0  0
 11 16  1  0  0  0  0
 11 18  1  0  0  0  0
 11 20  1  0  0  0  0
 19 12  1  1  0  0  0
 12 24  1  0  0  0  0
 12 46  1  0  0  0  0
 25 13  1  1  0  0  0
 13 27  1  0  0  0  0
 13 49  1  0  0  0  0
 14 27  1  0  0  0  0
 14 28  1  0  0  0  0
 14 30  1  0  0  0  0
 15 29  1  0  0  0  0
 15 30  1  0  0  0  0
 16 19  1  0  0  0  0
 16 37  1  6  0  0  0
 17 18  1  0  0  0  0
 17 21  1  0  0  0  0
 17 22  1  0  0  0  0
 18 23  1  6  0  0  0
 18 38  1  0  0  0  0
 19 20  1  0  0  0  0
 19 39  1  0  0  0  0
 21 43  1  0  0  0  0
 21 44  1  0  0  0  0
 21 45  1  0  0  0  0
 22 40  1  0  0  0  0
 22 41  1  0  0  0  0
 22 42  1  0  0  0  0
 24 25  1  0  0  0  0
 25 26  1  0  0  0  0
 25 47  1  0  0  0  0
 26 31  2  0  0  0  0
 26 32  1  0  0  0  0
 28 29  1  0  0  0  0
 28 50  1  0  0  0  0
 28 51  1  0  0  0  0
 29 52  1  0  0  0  0
 29 53  1  0  0  0  0
 31 33  1  0  0  0  0
 31 54  1  0  0  0  0
 32 34  2  0  0  0  0
 32 55  1  0  0  0  0
 33 36  2  0  0  0  0
 33 56  1  0  0  0  0
 34 36  1  0  0  0  0
 34 57  1  0  0  0  0
 35 58  1  0  0  0  0
 35 59  1  0  0  0  0
 35 60  1  0  0  0  0
 36 61  1  0  0  0  0
M  END
> <PUBCHEM_COMPOUND_CID>
656511

> <PUBCHEM_COMPOUND_CANONICALIZED>
1

> <PUBCHEM_CACTVS_COMPLEXITY>
1080

> <PUBCHEM_CACTVS_HBOND_ACCEPTOR>
9

> <PUBCHEM_CACTVS_HBOND_DONOR>
3

> <PUBCHEM_CACTVS_ROTATABLE_BOND>
6

> <PUBCHEM_CACTVS_SUBSKEYS>
AAADceB7vABgAAAAAAAAAAAAAABYAWLAAAAwAAAABYAAAAABAAAAHgQQSAAADCjF2ASzCIPAAgqIAiHSGHCCAABgABAIiIGIBIiKYDqglTGUYAhslyK4iAcYiICOAAAAAAAAAAAAAAAAAAAAAAAAAAAAAA==

> <PUBCHEM_IUPAC_OPENEYE_NAME>
(2S,5R,6R)-3,3-dimethyl-6-[[(2R)-2-[(3-methylsulfonyl-2-oxo-imidazolidine-1-carbonyl)amino]-2-phenyl-acetyl]amino]-7-oxo-4-thia-1-azabicyclo[3.2.0]heptane-2-carboxylic acid

> <PUBCHEM_IUPAC_CAS_NAME>
(2S,5R,6R)-3,3-dimethyl-6-[[(2R)-2-[[(3-methylsulfonyl-2-oxo-1-imidazolidinyl)-oxomethyl]amino]-1-oxo-2-phenylethyl]amino]-7-oxo-4-thia-1-azabicyclo[3.2.0]heptane-2-carboxylic acid

> <PUBCHEM_IUPAC_NAME>
(2S,5R,6R)-3,3-dimethyl-6-[[(2R)-2-[(3-methylsulfonyl-2-oxoimidazolidine-1-carbonyl)amino]-2-phenylacetyl]amino]-7-oxo-4-thia-1-azabicyclo[3.2.0]heptane-2-carboxylic acid

> <PUBCHEM_IUPAC_SYSTEMATIC_NAME>
(2S,5R,6R)-3,3-dimethyl-6-[[(2R)-2-[(3-methylsulfonyl-2-oxidanylidene-imidazolidin-1-yl)carbonylamino]-2-phenyl-ethanoyl]amino]-7-oxidanylidene-4-thia-1-azabicyclo[3.2.0]heptane-2-carboxylic acid

> <PUBCHEM_IUPAC_TRADITIONAL_NAME>
(2S,5R,6R)-7-keto-6-[[(2R)-2-[(2-keto-3-mesyl-imidazolidine-1-carbonyl)amino]-2-phenyl-acetyl]amino]-3,3-dimethyl-4-thia-1-azabicyclo[3.2.0]heptane-2-carboxylic acid

> <PUBCHEM_IUPAC_INCHI>
InChI=1S/C21H25N5O8S2/c1-21(2)14(18(29)30)26-16(28)13(17(26)35-21)22-15(27)12(11-7-5-4-6-8-11)23-19(31)24-9-10-25(20(24)32)36(3,33)34/h4-8,12-14,17H,9-10H2,1-3H3,(H,22,27)(H,23,31)(H,29,30)/t12-,13-,14+,17-/m1/s1

> <PUBCHEM_IUPAC_INCHIKEY>
YPBATNHYBCGSSN-VWPFQQQWSA-N

> <PUBCHEM_XLOGP3>
-0.2

> <PUBCHEM_EXACT_MASS>
539.114455

> <PUBCHEM_MOLECULAR_FORMULA>
C21H25N5O8S2

> <PUBCHEM_MOLECULAR_WEIGHT>
539.5819

> <PUBCHEM_OPENEYE_CAN_SMILES>
CC1(C(N2C(S1)C(C2=O)NC(=O)C(C3=CC=CC=C3)NC(=O)N4CCN(C4=O)S(=O)(=O)C)C(=O)O)C

> <PUBCHEM_OPENEYE_ISO_SMILES>
CC1([C@@H](N2[C@H](S1)[C@@H](C2=O)NC(=O)[C@@H](C3=CC=CC=C3)NC(=O)N4CCN(C4=O)S(=O)(=O)C)C(=O)O)C

> <PUBCHEM_CACTVS_TPSA>
207

> <PUBCHEM_MONOISOTOPIC_WEIGHT>
539.114455

> <PUBCHEM_TOTAL_CHARGE>
0

> <PUBCHEM_HEAVY_ATOM_COUNT>
36

> <PUBCHEM_ATOM_DEF_STEREO_COUNT>
4

> <PUBCHEM_ATOM_UDEF_STEREO_COUNT>
0

> <PUBCHEM_BOND_DEF_STEREO_COUNT>
0

> <PUBCHEM_BOND_UDEF_STEREO_COUNT>
0

> <PUBCHEM_ISOTOPIC_ATOM_COUNT>
0

> <PUBCHEM_COMPONENT_COUNT>
1

> <PUBCHEM_CACTVS_TAUTO_COUNT>
8

> <PUBCHEM_COORDINATE_TYPE>
1
5
255

> <PUBCHEM_BONDANNOTATIONS>
19  12  5
25  13  5
16  37  6
18  23  6
26  31  8
26  32  8
31  33  8
32  34  8
33  36  8
34  36  8

$$$$

