3005573
  -OEChem-07051212543D

 57 59  0     0  0  0  0  0  0999 V2000
    6.0363   -2.1792   -0.2876 Cl  0  0  0  0  0  0  0  0  0  0  0  0
   -3.6511    1.6280   -0.8280 O   0  0  0  0  0  0  0  0  0  0  0  0
   -6.9179    0.5480    0.4936 N   0  0  0  0  0  0  0  0  0  0  0  0
    1.7292    0.3496    0.0862 C   0  0  0  0  0  0  0  0  0  0  0  0
    2.1513   -0.9525    0.2395 C   0  0  0  0  0  0  0  0  0  0  0  0
    0.3333    0.6816   -0.1517 C   0  0  0  0  0  0  0  0  0  0  0  0
    3.5689   -1.4117    0.5530 C   0  0  0  0  0  0  0  0  0  0  0  0
    2.7659    1.4282    0.1761 C   0  0  0  0  0  0  0  0  0  0  0  0
    1.1786   -2.0708    0.1566 C   0  0  0  0  0  0  0  0  0  0  0  0
   -0.5199    0.9183    0.9263 C   0  0  0  0  0  0  0  0  0  0  0  0
   -0.1525    0.7630   -1.4566 C   0  0  0  0  0  0  0  0  0  0  0  0
    4.3863   -1.6628   -0.7115 C   0  0  0  0  0  0  0  0  0  0  0  0
   -2.3355    1.3157   -0.6042 C   0  0  0  0  0  0  0  0  0  0  0  0
   -1.8589    1.2364    0.6992 C   0  0  0  0  0  0  0  0  0  0  0  0
   -1.4914    1.0813   -1.6837 C   0  0  0  0  0  0  0  0  0  0  0  0
    3.0333    1.9762    1.4066 C   0  0  0  0  0  0  0  0  0  0  0  0
    3.4023    1.8205   -0.9760 C   0  0  0  0  0  0  0  0  0  0  0  0
    0.9326   -2.6518   -1.0710 C   0  0  0  0  0  0  0  0  0  0  0  0
    0.5498   -2.4956    1.3094 C   0  0  0  0  0  0  0  0  0  0  0  0
   -5.9290    0.9796   -0.4936 C   0  0  0  0  0  0  0  0  0  0  0  0
   -4.5831    1.2283    0.1682 C   0  0  0  0  0  0  0  0  0  0  0  0
    3.9979    2.9803    1.4905 C   0  0  0  0  0  0  0  0  0  0  0  0
    4.3670    2.8245   -0.8921 C   0  0  0  0  0  0  0  0  0  0  0  0
    0.0184   -3.7024   -1.1492 C   0  0  0  0  0  0  0  0  0  0  0  0
   -0.3644   -3.5464    1.2312 C   0  0  0  0  0  0  0  0  0  0  0  0
    4.6647    3.4043    0.3412 C   0  0  0  0  0  0  0  0  0  0  0  0
   -0.6299   -4.1497    0.0019 C   0  0  0  0  0  0  0  0  0  0  0  0
   -8.2148    0.3267   -0.1449 C   0  0  0  0  0  0  0  0  0  0  0  0
   -6.4674   -0.6676    1.1705 C   0  0  0  0  0  0  0  0  0  0  0  0
    4.0791   -0.6741    1.1834 H   0  0  0  0  0  0  0  0  0  0  0  0
    3.5394   -2.3254    1.1623 H   0  0  0  0  0  0  0  0  0  0  0  0
   -0.1560    0.8648    1.9497 H   0  0  0  0  0  0  0  0  0  0  0  0
    0.4984    0.5810   -2.3085 H   0  0  0  0  0  0  0  0  0  0  0  0
    3.9476   -2.4588   -1.3201 H   0  0  0  0  0  0  0  0  0  0  0  0
    4.4759   -0.7686   -1.3318 H   0  0  0  0  0  0  0  0  0  0  0  0
   -2.4810    1.4421    1.5649 H   0  0  0  0  0  0  0  0  0  0  0  0
   -1.8661    1.1431   -2.7013 H   0  0  0  0  0  0  0  0  0  0  0  0
    2.5204    1.6514    2.3070 H   0  0  0  0  0  0  0  0  0  0  0  0
    3.1755    1.3771   -1.9409 H   0  0  0  0  0  0  0  0  0  0  0  0
    1.4293   -2.3106   -1.9749 H   0  0  0  0  0  0  0  0  0  0  0  0
    0.7500   -2.0337    2.2722 H   0  0  0  0  0  0  0  0  0  0  0  0
   -6.2565    1.9098   -0.9756 H   0  0  0  0  0  0  0  0  0  0  0  0
   -5.8130    0.2442   -1.3015 H   0  0  0  0  0  0  0  0  0  0  0  0
   -4.6667    2.0198    0.9226 H   0  0  0  0  0  0  0  0  0  0  0  0
   -4.2278    0.3055    0.6373 H   0  0  0  0  0  0  0  0  0  0  0  0
    4.2302    3.4314    2.4507 H   0  0  0  0  0  0  0  0  0  0  0  0
    4.8861    3.1549   -1.7870 H   0  0  0  0  0  0  0  0  0  0  0  0
   -0.1892   -4.1715   -2.1065 H   0  0  0  0  0  0  0  0  0  0  0  0
   -0.8694   -3.8946    2.1275 H   0  0  0  0  0  0  0  0  0  0  0  0
    5.4160    4.1859    0.4065 H   0  0  0  0  0  0  0  0  0  0  0  0
   -1.3420   -4.9674   -0.0590 H   0  0  0  0  0  0  0  0  0  0  0  0
   -8.9724    0.0617    0.6011 H   0  0  0  0  0  0  0  0  0  0  0  0
   -8.1759   -0.4707   -0.8960 H   0  0  0  0  0  0  0  0  0  0  0  0
   -8.5654    1.2432   -0.6327 H   0  0  0  0  0  0  0  0  0  0  0  0
   -5.6708   -0.4626    1.8924 H   0  0  0  0  0  0  0  0  0  0  0  0
   -6.1375   -1.4435    0.4700 H   0  0  0  0  0  0  0  0  0  0  0  0
   -7.2812   -1.0925    1.7714 H   0  0  0  0  0  0  0  0  0  0  0  0
  1 12  1  0  0  0  0
  2 13  1  0  0  0  0
  2 21  1  0  0  0  0
  3 20  1  0  0  0  0
  3 28  1  0  0  0  0
  3 29  1  0  0  0  0
  4  5  2  0  0  0  0
  4  6  1  0  0  0  0
  4  8  1  0  0  0  0
  5  7  1  0  0  0  0
  5  9  1  0  0  0  0
  6 10  2  0  0  0  0
  6 11  1  0  0  0  0
  7 12  1  0  0  0  0
  7 30  1  0  0  0  0
  7 31  1  0  0  0  0
  8 16  2  0  0  0  0
  8 17  1  0  0  0  0
  9 18  2  0  0  0  0
  9 19  1  0  0  0  0
 10 14  1  0  0  0  0
 10 32  1  0  0  0  0
 11 15  2  0  0  0  0
 11 33  1  0  0  0  0
 12 34  1  0  0  0  0
 12 35  1  0  0  0  0
 13 14  2  0  0  0  0
 13 15  1  0  0  0  0
 14 36  1  0  0  0  0
 15 37  1  0  0  0  0
 16 22  1  0  0  0  0
 16 38  1  0  0  0  0
 17 23  2  0  0  0  0
 17 39  1  0  0  0  0
 18 24  1  0  0  0  0
 18 40  1  0  0  0  0
 19 25  2  0  0  0  0
 19 41  1  0  0  0  0
 20 21  1  0  0  0  0
 20 42  1  0  0  0  0
 20 43  1  0  0  0  0
 21 44  1  0  0  0  0
 21 45  1  0  0  0  0
 22 26  2  0  0  0  0
 22 46  1  0  0  0  0
 23 26  1  0  0  0  0
 23 47  1  0  0  0  0
 24 27  2  0  0  0  0
 24 48  1  0  0  0  0
 25 27  1  0  0  0  0
 25 49  1  0  0  0  0
 26 50  1  0  0  0  0
 27 51  1  0  0  0  0
 28 52  1  0  0  0  0
 28 53  1  0  0  0  0
 28 54  1  0  0  0  0
 29 55  1  0  0  0  0
 29 56  1  0  0  0  0
 29 57  1  0  0  0  0
M  END
> <PUBCHEM_COMPOUND_CID>
3005573

> <PUBCHEM_CONFORMER_RMSD>
1

> <PUBCHEM_CONFORMER_DIVERSEORDER>
1
9
5
2
8
3
6
7
4

> <PUBCHEM_MMFF94_PARTIAL_CHARGES>
43
1 -0.29
10 -0.15
11 -0.15
12 0.29
13 0.08
14 -0.15
15 -0.15
16 -0.15
17 -0.15
18 -0.15
19 -0.15
2 -0.36
20 0.27
21 0.28
22 -0.15
23 -0.15
24 -0.15
25 -0.15
26 -0.15
27 -0.15
28 0.27
29 0.27
3 -0.81
32 0.15
33 0.15
36 0.15
37 0.15
38 0.15
39 0.15
4 -0.06
40 0.15
41 0.15
46 0.15
47 0.15
48 0.15
49 0.15
5 -0.17
50 0.15
51 0.15
6 0.03
7 0.14
8 0.03
9 0.03

> <PUBCHEM_EFFECTIVE_ROTOR_COUNT>
9

> <PUBCHEM_PHARMACOPHORE_FEATURES>
5
1 2 acceptor
1 3 cation
6 6 10 11 13 14 15 rings
6 8 16 17 22 23 26 rings
6 9 18 19 24 25 27 rings

> <PUBCHEM_HEAVY_ATOM_COUNT>
29

> <PUBCHEM_ATOM_DEF_STEREO_COUNT>
0

> <PUBCHEM_ATOM_UDEF_STEREO_COUNT>
0

> <PUBCHEM_BOND_DEF_STEREO_COUNT>
1

> <PUBCHEM_BOND_UDEF_STEREO_COUNT>
0

> <PUBCHEM_ISOTOPIC_ATOM_COUNT>
0

> <PUBCHEM_COMPONENT_COUNT>
1

> <PUBCHEM_CACTVS_TAUTO_COUNT>
1

> <PUBCHEM_CONFORMER_ID>
002DDC8500000001

> <PUBCHEM_MMFF94_ENERGY>
105.08

> <PUBCHEM_FEATURE_SELFOVERLAP>
25.371

> <PUBCHEM_SHAPE_FINGERPRINT>
10165383 225 18341327791598339468
104564 63 17836654020153604118
10930396 42 18124622988228618842
1100329 8 18409735084335622242
11421498 54 17386849593976868315
11578080 2 17605010108920980218
12035758 1 18267043781182020978
12596602 18 17967811640290692473
12730499 353 18410290289803846841
12788726 201 17405704775590442940
13140716 1 18411992368347556970
13149001 5 18409724089409183894
13583140 156 18120664784263772557
1361 2 18342738494769816789
13692114 37 18334864874454438390
14068700 686 18342176696274222237
146900 427 18187083940945643457
14955137 171 18118405274899056702
15238133 3 6843620410173416154
15439362 3 18409737270674962108
18681886 176 18335708307700247362
19319366 153 18261122867610196247
20028762 73 18261111919480933967
21049683 118 18120398491410618464
21197605 99 18340481172050578531
22149856 69 18200293495712745113
23558518 356 18056208973333779314
23559900 14 18196943390349965269
239999 70 18263080071296078151
283562 15 17689151636712251042
3178227 256 18339080500988059834
350125 39 18412261735953884974
4340502 62 18410295783130139921
437795 51 18335132073175608917
484989 97 18341598313859513762
5171179 24 16887517026566603416
7399639 24 18130238137274873045
9658208 31 18264205807941513120

> <PUBCHEM_SHAPE_MULTIPOLES>
587.83
14.27
4.85
1.38
29.43
3.67
-0.01
-6.95
1.03
-5.49
0.29
-0.2
-0.1
1.22

> <PUBCHEM_SHAPE_SELFOVERLAP>
1242.833

> <PUBCHEM_SHAPE_VOLUME>
331.7

> <PUBCHEM_COORDINATE_TYPE>
2
5
10

$$$$

