166290
  -OEChem-07051213103D

 41 42  0     1  0  0  0  0  0999 V2000
   -1.6028    1.0383    1.3850 S   0  0  0  0  0  0  0  0  0  0  0  0
    2.4156   -1.6719   -1.4049 O   0  0  0  0  0  0  0  0  0  0  0  0
    0.4840   -2.9305    1.0223 O   0  0  0  0  0  0  0  0  0  0  0  0
   -1.4119   -1.9280    0.2283 O   0  0  0  0  0  0  0  0  0  0  0  0
   -4.9363   -0.0288   -1.9427 O   0  0  0  0  0  0  0  0  0  0  0  0
    1.8477   -0.6333    0.6369 N   0  0  0  0  0  0  0  0  0  0  0  0
   -4.5096    1.0043    0.1004 N   0  0  0  0  0  0  0  0  0  0  0  0
    2.3889    0.7171    0.9060 C   0  0  1  0  0  0  0  0  0  0  0  0
    3.1614    0.5718   -0.4332 C   0  0  2  0  0  0  0  0  0  0  0  0
    1.1459    1.5947    1.0906 C   0  0  0  0  0  0  0  0  0  0  0  0
    2.4810   -0.8096   -0.5579 C   0  0  0  0  0  0  0  0  0  0  0  0
    4.6693    0.5269   -0.3713 C   0  0  0  0  0  0  0  0  0  0  0  0
    0.4943   -0.6386    0.8231 C   0  0  0  0  0  0  0  0  0  0  0  0
    0.0273    0.5837    1.1067 C   0  0  0  0  0  0  0  0  0  0  0  0
    5.2340   -0.1429   -1.6281 C   0  0  0  0  0  0  0  0  0  0  0  0
    5.2386    1.9416   -0.2236 C   0  0  0  0  0  0  0  0  0  0  0  0
   -0.2671   -1.8710    0.6489 C   0  0  0  0  0  0  0  0  0  0  0  0
   -2.1136    1.4480   -0.3003 C   0  0  0  0  0  0  0  0  0  0  0  0
   -3.5442    1.9661   -0.3584 C   0  0  0  0  0  0  0  0  0  0  0  0
   -5.1275    0.0833   -0.7346 C   0  0  0  0  0  0  0  0  0  0  0  0
   -6.0751   -0.8212    0.0069 C   0  0  0  0  0  0  0  0  0  0  0  0
    3.0264    0.7071    1.8004 H   0  0  0  0  0  0  0  0  0  0  0  0
    2.7985    1.2552   -1.2142 H   0  0  0  0  0  0  0  0  0  0  0  0
    1.0320    2.3076    0.2675 H   0  0  0  0  0  0  0  0  0  0  0  0
    1.1968    2.1420    2.0377 H   0  0  0  0  0  0  0  0  0  0  0  0
    4.9972   -0.0626    0.4946 H   0  0  0  0  0  0  0  0  0  0  0  0
    4.8626    0.3411   -2.5381 H   0  0  0  0  0  0  0  0  0  0  0  0
    6.3280   -0.0897   -1.6371 H   0  0  0  0  0  0  0  0  0  0  0  0
    4.9626   -1.2016   -1.6757 H   0  0  0  0  0  0  0  0  0  0  0  0
    4.9619    2.5715   -1.0761 H   0  0  0  0  0  0  0  0  0  0  0  0
    6.3311    1.9180   -0.1559 H   0  0  0  0  0  0  0  0  0  0  0  0
    4.8538    2.4224    0.6819 H   0  0  0  0  0  0  0  0  0  0  0  0
   -2.0147    0.5574   -0.9303 H   0  0  0  0  0  0  0  0  0  0  0  0
   -1.4414    2.2150   -0.7001 H   0  0  0  0  0  0  0  0  0  0  0  0
   -3.7862    2.2409   -1.3914 H   0  0  0  0  0  0  0  0  0  0  0  0
   -3.6593    2.8667    0.2551 H   0  0  0  0  0  0  0  0  0  0  0  0
    0.0021   -3.7786    0.9177 H   0  0  0  0  0  0  0  0  0  0  0  0
   -4.7305    0.9954    1.0920 H   0  0  0  0  0  0  0  0  0  0  0  0
   -6.7109   -1.3525   -0.7067 H   0  0  0  0  0  0  0  0  0  0  0  0
   -5.5021   -1.5471    0.5902 H   0  0  0  0  0  0  0  0  0  0  0  0
   -6.7133   -0.2378    0.6766 H   0  0  0  0  0  0  0  0  0  0  0  0
  1 14  1  0  0  0  0
  1 18  1  0  0  0  0
  2 11  2  0  0  0  0
  3 17  1  0  0  0  0
  3 37  1  0  0  0  0
  4 17  2  0  0  0  0
  5 20  2  0  0  0  0
  6  8  1  0  0  0  0
  6 11  1  0  0  0  0
  6 13  1  0  0  0  0
  7 19  1  0  0  0  0
  7 20  1  0  0  0  0
  7 38  1  0  0  0  0
  8  9  1  0  0  0  0
  8 10  1  0  0  0  0
  8 22  1  0  0  0  0
  9 11  1  0  0  0  0
  9 12  1  0  0  0  0
  9 23  1  0  0  0  0
 10 14  1  0  0  0  0
 10 24  1  0  0  0  0
 10 25  1  0  0  0  0
 12 15  1  0  0  0  0
 12 16  1  0  0  0  0
 12 26  1  0  0  0  0
 13 14  2  0  0  0  0
 13 17  1  0  0  0  0
 15 27  1  0  0  0  0
 15 28  1  0  0  0  0
 15 29  1  0  0  0  0
 16 30  1  0  0  0  0
 16 31  1  0  0  0  0
 16 32  1  0  0  0  0
 18 19  1  0  0  0  0
 18 33  1  0  0  0  0
 18 34  1  0  0  0  0
 19 35  1  0  0  0  0
 19 36  1  0  0  0  0
 20 21  1  0  0  0  0
 21 39  1  0  0  0  0
 21 40  1  0  0  0  0
 21 41  1  0  0  0  0
M  END
> <PUBCHEM_COMPOUND_CID>
166290

> <PUBCHEM_CONFORMER_RMSD>
0.8

> <PUBCHEM_CONFORMER_DIVERSEORDER>
1
55
33
67
15
16
72
24
80
54
61
79
49
51
73
28
60
70
3
52
62
30
59
13
40
56
21
23
76
10
36
57
29
50
18
26
9
38
4
66
8
58
65
63
53
69
22
74
42
77
27
14
68
35
7
45
37
17
5
34
78
25
31
64
41
47
32
48
43
11
46
6
39
12
71
2
19
20
44
75

> <PUBCHEM_MMFF94_PARTIAL_CHARGES>
20
1 -0.33
10 0.14
11 0.58
13 0.12
14 -0.04
17 0.71
18 0.23
19 0.3
2 -0.57
20 0.57
21 0.06
3 -0.65
37 0.5
38 0.37
4 -0.57
5 -0.57
6 -0.39
7 -0.73
8 0.22
9 0.05

> <PUBCHEM_EFFECTIVE_ROTOR_COUNT>
7.4

> <PUBCHEM_PHARMACOPHORE_FEATURES>
8
1 2 acceptor
1 3 acceptor
1 4 acceptor
1 5 acceptor
1 7 donor
3 12 15 16 hydrophobe
3 3 4 17 anion
7 6 8 9 10 11 13 14 rings

> <PUBCHEM_HEAVY_ATOM_COUNT>
21

> <PUBCHEM_ATOM_DEF_STEREO_COUNT>
2

> <PUBCHEM_ATOM_UDEF_STEREO_COUNT>
0

> <PUBCHEM_BOND_DEF_STEREO_COUNT>
0

> <PUBCHEM_BOND_UDEF_STEREO_COUNT>
0

> <PUBCHEM_ISOTOPIC_ATOM_COUNT>
0

> <PUBCHEM_COMPONENT_COUNT>
1

> <PUBCHEM_CACTVS_TAUTO_COUNT>
2

> <PUBCHEM_CONFORMER_ID>
0002899200000001

> <PUBCHEM_MMFF94_ENERGY>
59.1143

> <PUBCHEM_FEATURE_SELFOVERLAP>
40.649

> <PUBCHEM_SHAPE_FINGERPRINT>
10498660 4 18129669719870184373
10591671 39 17846206722988338787
10759866 29 17988654020713173883
11089746 13 12895072895007298337
11796584 16 14634868656603835917
11961588 58 18272653394548414512
12633257 1 12391510862831115868
12670546 177 18334856134137572685
12730499 353 18335697230457455202
12969540 114 18202844348548456628
13583140 156 17346304982691814696
14251764 30 14923951128555338269
14576447 43 17749110014880392092
15142383 8 14707197855915321745
15209294 21 13326850032860675025
15527383 91 9943802283722731404
15537594 2 17022906752842230645
15885798 251 7637400726548980593
16945 1 18044348721830340416
173720 79 18060150820928947472
19784866 140 17385723625297833377
200 152 16805598174736944848
20871999 31 18335415764049599585
21344244 181 17894899741943882086
221357 26 18113903758467760265
22393880 68 18265054819759515341
22950370 63 16950281806504393793
23227448 37 18198614446134296412
23402655 69 18261393420469768625
23559900 14 18260815022346625748
2748010 2 17970058947278806176
2838139 119 17060334141241702644
2871803 45 18337404807240097913
3323516 105 18187089468394038097
33382 64 15647046097086247492
351380 180 12247680474379542693
3759504 43 17917706868551561714
5207 217 18060136505671178041
56616090 284 17822285812328138336
6328613 192 10447631535673869570

> <PUBCHEM_SHAPE_MULTIPOLES>
402.58
12.07
2.23
1.4
7.57
0.83
-0.23
-2.62
-6.51
-0.07
0.42
0.02
0.1
0.37

> <PUBCHEM_SHAPE_SELFOVERLAP>
819.585

> <PUBCHEM_SHAPE_VOLUME>
237.2

> <PUBCHEM_COORDINATE_TYPE>
2
5
10

$$$$

