100472
  -OEChem-07051213103D

 38 40  0     0  0  0  0  0  0999 V2000
    2.1818    0.6651    1.6345 O   0  0  0  0  0  0  0  0  0  0  0  0
    3.2111    0.7753   -0.4731 N   0  0  0  0  0  0  0  0  0  0  0  0
    5.1776   -0.1893   -1.3648 N   0  0  0  0  0  0  0  0  0  0  0  0
   -0.2084    1.4041   -0.0927 C   0  0  0  0  0  0  0  0  0  0  0  0
   -2.7768    0.3153   -0.0688 C   0  0  0  0  0  0  0  0  0  0  0  0
    1.1646    1.9864   -0.1057 C   0  0  0  0  0  0  0  0  0  0  0  0
   -0.6609    0.6603   -1.1826 C   0  0  0  0  0  0  0  0  0  0  0  0
   -1.0401    1.6034    1.0091 C   0  0  0  0  0  0  0  0  0  0  0  0
   -4.1086   -0.2501   -0.0560 C   0  0  0  0  0  0  0  0  0  0  0  0
   -1.9452    0.1160   -1.1706 C   0  0  0  0  0  0  0  0  0  0  0  0
   -2.3243    1.0590    1.0212 C   0  0  0  0  0  0  0  0  0  0  0  0
    2.2339    1.0651    0.4759 C   0  0  0  0  0  0  0  0  0  0  0  0
   -5.1830    0.4842   -0.5584 C   0  0  0  0  0  0  0  0  0  0  0  0
   -4.3182   -1.5294    0.4586 C   0  0  0  0  0  0  0  0  0  0  0  0
   -6.4669   -0.0610   -0.5462 C   0  0  0  0  0  0  0  0  0  0  0  0
   -5.6020   -2.0747    0.4708 C   0  0  0  0  0  0  0  0  0  0  0  0
    4.3555   -0.0413   -0.3111 C   0  0  0  0  0  0  0  0  0  0  0  0
   -6.6763   -1.3404   -0.0316 C   0  0  0  0  0  0  0  0  0  0  0  0
    4.5352   -0.6247    0.9249 C   0  0  0  0  0  0  0  0  0  0  0  0
    5.6563   -1.4295    1.0941 C   0  0  0  0  0  0  0  0  0  0  0  0
    6.5383   -1.6150    0.0353 C   0  0  0  0  0  0  0  0  0  0  0  0
    6.2564   -0.9787   -1.1628 C   0  0  0  0  0  0  0  0  0  0  0  0
    1.4187    2.2986   -1.1262 H   0  0  0  0  0  0  0  0  0  0  0  0
    1.1878    2.9125    0.4841 H   0  0  0  0  0  0  0  0  0  0  0  0
   -0.0213    0.4965   -2.0459 H   0  0  0  0  0  0  0  0  0  0  0  0
   -0.6990    2.1794    1.8654 H   0  0  0  0  0  0  0  0  0  0  0  0
   -2.2819   -0.4618   -2.0283 H   0  0  0  0  0  0  0  0  0  0  0  0
   -2.9595    1.2233    1.8884 H   0  0  0  0  0  0  0  0  0  0  0  0
   -5.0372    1.4829   -0.9633 H   0  0  0  0  0  0  0  0  0  0  0  0
   -3.4919   -2.1154    0.8542 H   0  0  0  0  0  0  0  0  0  0  0  0
    3.1243    1.1781   -1.4026 H   0  0  0  0  0  0  0  0  0  0  0  0
   -7.3035    0.5106   -0.9373 H   0  0  0  0  0  0  0  0  0  0  0  0
   -5.7653   -3.0709    0.8714 H   0  0  0  0  0  0  0  0  0  0  0  0
   -7.6759   -1.7650   -0.0221 H   0  0  0  0  0  0  0  0  0  0  0  0
    3.9011   -0.5308    1.7898 H   0  0  0  0  0  0  0  0  0  0  0  0
    5.8439   -1.9122    2.0486 H   0  0  0  0  0  0  0  0  0  0  0  0
    7.4185   -2.2381    0.1444 H   0  0  0  0  0  0  0  0  0  0  0  0
    6.9129   -1.0912   -2.0193 H   0  0  0  0  0  0  0  0  0  0  0  0
  1 12  2  0  0  0  0
  2 12  1  0  0  0  0
  2 17  1  0  0  0  0
  2 31  1  0  0  0  0
  3 17  1  0  0  0  0
  3 22  2  0  0  0  0
  4  6  1  0  0  0  0
  4  7  2  0  0  0  0
  4  8  1  0  0  0  0
  5  9  1  0  0  0  0
  5 10  2  0  0  0  0
  5 11  1  0  0  0  0
  6 12  1  0  0  0  0
  6 23  1  0  0  0  0
  6 24  1  0  0  0  0
  7 10  1  0  0  0  0
  7 25  1  0  0  0  0
  8 11  2  0  0  0  0
  8 26  1  0  0  0  0
  9 13  2  0  0  0  0
  9 14  1  0  0  0  0
 10 27  1  0  0  0  0
 11 28  1  0  0  0  0
 13 15  1  0  0  0  0
 13 29  1  0  0  0  0
 14 16  2  0  0  0  0
 14 30  1  0  0  0  0
 15 18  2  0  0  0  0
 15 32  1  0  0  0  0
 16 18  1  0  0  0  0
 16 33  1  0  0  0  0
 17 19  2  0  0  0  0
 18 34  1  0  0  0  0
 19 20  1  0  0  0  0
 19 35  1  0  0  0  0
 20 21  2  0  0  0  0
 20 36  1  0  0  0  0
 21 22  1  0  0  0  0
 21 37  1  0  0  0  0
 22 38  1  0  0  0  0
M  END
> <PUBCHEM_COMPOUND_CID>
100472

> <PUBCHEM_CONFORMER_RMSD>
0.8

> <PUBCHEM_CONFORMER_DIVERSEORDER>
2
8
7
1
3
5
4
6

> <PUBCHEM_MMFF94_PARTIAL_CHARGES>
34
1 -0.57
10 -0.15
11 -0.15
12 0.57
13 -0.15
14 -0.15
15 -0.15
16 -0.15
17 0.43
18 -0.15
19 -0.15
2 -0.55
20 -0.15
21 -0.15
22 0.16
25 0.15
26 0.15
27 0.15
28 0.15
29 0.15
3 -0.62
30 0.15
31 0.37
32 0.15
33 0.15
34 0.15
35 0.15
36 0.15
37 0.15
38 0.15
4 -0.14
6 0.2
7 -0.15
8 -0.15

> <PUBCHEM_EFFECTIVE_ROTOR_COUNT>
5

> <PUBCHEM_PHARMACOPHORE_FEATURES>
6
1 1 acceptor
1 2 donor
1 3 acceptor
6 3 17 19 20 21 22 rings
6 4 5 7 8 10 11 rings
6 9 13 14 15 16 18 rings

> <PUBCHEM_HEAVY_ATOM_COUNT>
22

> <PUBCHEM_ATOM_DEF_STEREO_COUNT>
0

> <PUBCHEM_ATOM_UDEF_STEREO_COUNT>
0

> <PUBCHEM_BOND_DEF_STEREO_COUNT>
0

> <PUBCHEM_BOND_UDEF_STEREO_COUNT>
0

> <PUBCHEM_ISOTOPIC_ATOM_COUNT>
0

> <PUBCHEM_COMPONENT_COUNT>
1

> <PUBCHEM_CACTVS_TAUTO_COUNT>
3

> <PUBCHEM_CONFORMER_ID>
0001887800000002

> <PUBCHEM_MMFF94_ENERGY>
71.6476

> <PUBCHEM_FEATURE_SELFOVERLAP>
30.446

> <PUBCHEM_SHAPE_FINGERPRINT>
10 15 6916258559435762439
10299344 5 17989203763562648351
10670039 82 12463301349017127846
10692045 39 6050178700840698516
10753850 27 18411702088413576544
11524674 6 17967253083694014487
11545043 162 17967818270903059329
11646440 116 16805322202014481282
12596602 18 4678816146884798142
12633257 1 15719680870230479408
12760667 363 18260268551486490905
12895836 83 11527945643110232273
13167372 99 7709466009084984822
13288520 33 18342739611798592645
13533116 47 18262519191358852344
13668630 136 18341328976956006886
13673619 4 18413108355253920885
13685833 64 18334576841209762104
13782708 43 18339084779234331687
13862211 1 17821450132362774101
13911987 19 12895080600605726377
13914758 101 17313385660786109193
14123256 34 18408316687980398902
14216079 64 18334013900089219447
14251752 14 17846786242888567597
14251764 18 4751149731326003938
14251764 30 18343304751436235775
14341114 176 15864074286946938968
14347332 77 17560813176824952132
14420673 8 18412544302047948323
14681490 219 14908183048996079598
14739800 52 7420680349301381263
15183329 4 17418096537432391771
15188451 53 18040437706560399424
15238133 3 5761651520926179490
15348495 7 16515975765377965715
15419008 145 6699261066930818310
15475509 8 16559036017066966773
16994733 274 9943541725727954847
1813 80 18336258025007648940
18222031 100 18272651251386172496
193927 3 18260263049280132360
19784866 240 18413385436600264077
20028762 73 18186800270898104158
21267235 1 18260542329317389292
21637258 2 18409453582823969856
21641784 216 13758089522908863807
221357 26 16200433589670593964
22224240 67 13912323486873287413
23016692 55 18272090504397071848
23035841 295 18272370880141879139
23198884 109 16056598772574948973
23522609 53 17986081175994019332
23559900 14 18269559347516702633
249999 5 18117000970996923872
25122255 55 18408597042208106619
270888 7 9079108960761094442
2767999 5 10303813176866276566
2838139 119 10663819629208809714
2916195 48 7348895477307511927
3004659 81 18131634474081301904
312425 54 15429756181109865630
3383291 50 18113620067003926591
3472631 163 10807923878187358418
351380 3 18410013247480902574
3663271 9 5256401695272242383
4107672 100 17489594510770778757
439807 62 18060139868309116410
465052 167 18334853887932733660
5104073 3 16081940204945160311
53794403 172 11382959620387960222
543368 44 11527953357309332735
559249 180 18408323315737292481
7970288 3 18411420630949570626
8863177 126 18337953363924998547
960060 61 17060622183196690136

> <PUBCHEM_SHAPE_MULTIPOLES>
436.92
18.96
1.87
1.22
4.76
0.22
-0.02
13.37
1.91
-0.34
-0.37
0.96
-0.07
0.2

> <PUBCHEM_SHAPE_SELFOVERLAP>
952.513

> <PUBCHEM_SHAPE_VOLUME>
236.1

> <PUBCHEM_COORDINATE_TYPE>
2
5
10

$$$$

