441738
  -OEChem-07051212552D

 60 64  0     1  0  0  0  0  0999 V2000
    5.7824   -1.9764    0.0000 O   0  0  0  0  0  0  0  0  0  0  0  0
    5.0875    2.0324    0.0000 O   0  0  0  0  0  0  0  0  0  0  0  0
    3.4203   -4.2673    0.0000 O   0  0  0  0  0  0  0  0  0  0  0  0
    5.7638   -3.7339    0.0000 O   0  0  0  0  0  0  0  0  0  0  0  0
    2.9801    3.6312    0.0000 N   0  0  0  0  0  0  0  0  0  0  0  0
    3.4324   -1.1980    0.0000 C   0  0  1  0  0  0  0  0  0  0  0  0
    4.2984   -1.6980    0.0000 C   0  0  2  0  0  0  0  0  0  0  0  0
    3.4324   -0.1980    0.0000 C   0  0  3  0  0  0  0  0  0  0  0  0
    4.3145   -2.7395    0.0000 C   0  0  2  0  0  0  0  0  0  0  0  0
    5.1645   -1.1980    0.0000 C   0  0  1  0  0  0  0  0  0  0  0  0
    3.4164    1.8712    0.0000 C   0  0  3  0  0  0  0  0  0  0  0  0
    4.2984    0.3020    0.0000 C   0  0  0  0  0  0  0  0  0  0  0  0
    2.5224   -1.7049    0.0000 C   0  0  0  0  0  0  0  0  0  0  0  0
    4.3145    1.3435    0.0000 C   0  0  3  0  0  0  0  0  0  0  0  0
    2.5224    0.3088    0.0000 C   0  0  0  0  0  0  0  0  0  0  0  0
    3.4164   -3.2673    0.0000 C   0  0  2  0  0  0  0  0  0  0  0  0
    2.5144    1.3504    0.0000 C   0  0  0  0  0  0  0  0  0  0  0  0
    2.5144   -2.7465    0.0000 C   0  0  0  0  0  0  0  0  0  0  0  0
    5.1645   -0.1980    0.0000 C   0  0  0  0  0  0  0  0  0  0  0  0
    2.5664   -0.6980    0.0000 C   0  0  0  0  0  0  0  0  0  0  0  0
    3.6422    2.8818    0.0000 C   0  0  3  0  0  0  0  0  0  0  0  0
    5.3025   -2.8467    0.0000 C   0  0  0  0  0  0  0  0  0  0  0  0
    4.8245   -3.5997    0.0000 C   0  0  0  0  0  0  0  0  0  0  0  0
    4.6728    2.9812    0.0000 C   0  0  0  0  0  0  0  0  0  0  0  0
    2.5543    2.3779    0.0000 C   0  0  0  0  0  0  0  0  0  0  0  0
    3.2980    4.5793    0.0000 C   0  0  0  0  0  0  0  0  0  0  0  0
    2.0000    3.4326    0.0000 C   0  0  0  0  0  0  0  0  0  0  0  0
    3.5623   -2.1230    0.0000 H   0  0  0  0  0  0  0  0  0  0  0  0
    2.6996   -0.6287    0.0000 H   0  0  0  0  0  0  0  0  0  0  0  0
    5.9671   -0.9182    0.0000 H   0  0  0  0  0  0  0  0  0  0  0  0
    2.3178   -1.1196    0.0000 H   0  0  0  0  0  0  0  0  0  0  0  0
    1.9107   -1.8062    0.0000 H   0  0  0  0  0  0  0  0  0  0  0  0
    5.0874    0.9898    0.0000 H   0  0  0  0  0  0  0  0  0  0  0  0
    1.9107    0.4102    0.0000 H   0  0  0  0  0  0  0  0  0  0  0  0
    2.3178   -0.2765    0.0000 H   0  0  0  0  0  0  0  0  0  0  0  0
    2.8801   -3.5783    0.0000 H   0  0  0  0  0  0  0  0  0  0  0  0
    2.3008    1.9325    0.0000 H   0  0  0  0  0  0  0  0  0  0  0  0
    1.9043    1.2396    0.0000 H   0  0  0  0  0  0  0  0  0  0  0  0
    1.9043   -2.6357    0.0000 H   0  0  0  0  0  0  0  0  0  0  0  0
    2.3008   -3.3285    0.0000 H   0  0  0  0  0  0  0  0  0  0  0  0
    5.7014    0.1120    0.0000 H   0  0  0  0  0  0  0  0  0  0  0  0
    2.8764   -0.1611    0.0000 H   0  0  0  0  0  0  0  0  0  0  0  0
    2.0294   -0.3880    0.0000 H   0  0  0  0  0  0  0  0  0  0  0  0
    2.2564   -1.2350    0.0000 H   0  0  0  0  0  0  0  0  0  0  0  0
    2.8190    2.6699    0.0000 H   0  0  0  0  0  0  0  0  0  0  0  0
    4.2911   -3.9159    0.0000 H   0  0  0  0  0  0  0  0  0  0  0  0
    5.1406   -4.1330    0.0000 H   0  0  0  0  0  0  0  0  0  0  0  0
    5.3578   -3.2835    0.0000 H   0  0  0  0  0  0  0  0  0  0  0  0
    5.2639    3.1684    0.0000 H   0  0  0  0  0  0  0  0  0  0  0  0
    4.5488    3.5887    0.0000 H   0  0  0  0  0  0  0  0  0  0  0  0
    2.8684    2.9124    0.0000 H   0  0  0  0  0  0  0  0  0  0  0  0
    2.0198    2.6920    0.0000 H   0  0  0  0  0  0  0  0  0  0  0  0
    2.2402    1.8434    0.0000 H   0  0  0  0  0  0  0  0  0  0  0  0
    2.8846   -4.5793    0.0000 H   0  0  0  0  0  0  0  0  0  0  0  0
    3.8859    4.3822    0.0000 H   0  0  0  0  0  0  0  0  0  0  0  0
    3.4952    5.1672    0.0000 H   0  0  0  0  0  0  0  0  0  0  0  0
    2.7102    4.7765    0.0000 H   0  0  0  0  0  0  0  0  0  0  0  0
    1.8768    4.0402    0.0000 H   0  0  0  0  0  0  0  0  0  0  0  0
    1.3924    3.3094    0.0000 H   0  0  0  0  0  0  0  0  0  0  0  0
    2.1232    2.8249    0.0000 H   0  0  0  0  0  0  0  0  0  0  0  0
  1 10  1  0  0  0  0
  1 22  1  0  0  0  0
  2 14  1  0  0  0  0
  2 24  1  0  0  0  0
 16  3  1  1  0  0  0
  3 54  1  0  0  0  0
  4 22  2  0  0  0  0
  5 21  1  0  0  0  0
  5 26  1  0  0  0  0
  5 27  1  0  0  0  0
  6  7  1  0  0  0  0
  6  8  1  0  0  0  0
  6 13  1  0  0  0  0
  6 20  1  1  0  0  0
  7  9  1  0  0  0  0
  7 10  1  0  0  0  0
  7 28  1  6  0  0  0
  8 12  1  0  0  0  0
  8 15  1  0  0  0  0
  8 29  1  0  0  0  0
  9 16  1  0  0  0  0
  9 22  1  0  0  0  0
  9 23  1  6  0  0  0
 10 19  1  0  0  0  0
 10 30  1  6  0  0  0
 11 14  1  0  0  0  0
 11 17  1  0  0  0  0
 11 21  1  0  0  0  0
 11 25  1  0  0  0  0
 12 14  1  0  0  0  0
 12 19  2  0  0  0  0
 13 18  1  0  0  0  0
 13 31  1  0  0  0  0
 13 32  1  0  0  0  0
 14 33  1  0  0  0  0
 15 17  1  0  0  0  0
 15 34  1  0  0  0  0
 15 35  1  0  0  0  0
 16 18  1  0  0  0  0
 16 36  1  0  0  0  0
 17 37  1  0  0  0  0
 17 38  1  0  0  0  0
 18 39  1  0  0  0  0
 18 40  1  0  0  0  0
 19 41  1  0  0  0  0
 20 42  1  0  0  0  0
 20 43  1  0  0  0  0
 20 44  1  0  0  0  0
 21 24  1  0  0  0  0
 21 45  1  0  0  0  0
 23 46  1  0  0  0  0
 23 47  1  0  0  0  0
 23 48  1  0  0  0  0
 24 49  1  0  0  0  0
 24 50  1  0  0  0  0
 25 51  1  0  0  0  0
 25 52  1  0  0  0  0
 25 53  1  0  0  0  0
 26 55  1  0  0  0  0
 26 56  1  0  0  0  0
 26 57  1  0  0  0  0
 27 58  1  0  0  0  0
 27 59  1  0  0  0  0
 27 60  1  0  0  0  0
M  END
> <PUBCHEM_COMPOUND_CID>
441738

> <PUBCHEM_COMPOUND_CANONICALIZED>
1

> <PUBCHEM_CACTVS_COMPLEXITY>
719

> <PUBCHEM_CACTVS_HBOND_ACCEPTOR>
5

> <PUBCHEM_CACTVS_HBOND_DONOR>
1

> <PUBCHEM_CACTVS_ROTATABLE_BOND>
1

> <PUBCHEM_CACTVS_SUBSKEYS>
AAADcfB6OAAAAAAAAAAAAAAAAAAAASJAAAAwYIAAAAAAAEiAAAAAHgAACAAADzzhgAYCCAMABgCIAiDSCAAAAAAgAAAACAEIAAgCFBYAoQAHUAAHoAAYIAPayPCPgAAAAAAAAADAAAYAADAAAAAAAAAAAA==

> <PUBCHEM_IUPAC_INCHI>
InChI=1S/C22H33NO4/c1-20-9-7-16(24)22(3)17(20)14(27-19(22)25)10-12-13(20)6-8-21(2)15(23(4)5)11-26-18(12)21/h10,13-18,24H,6-9,11H2,1-5H3/t13?,14-,15?,16+,17-,18?,20-,21?,22+/m1/s1

> <PUBCHEM_IUPAC_INCHIKEY>
MRVMMDQTZLIFLF-IQTYJBGDSA-N

> <PUBCHEM_XLOGP3_AA>
2

> <PUBCHEM_EXACT_MASS>
375.240959

> <PUBCHEM_MOLECULAR_FORMULA>
C22H33NO4

> <PUBCHEM_MOLECULAR_WEIGHT>
375.50172

> <PUBCHEM_OPENEYE_CAN_SMILES>
CC12CCC(C3(C1C(C=C4C2CCC5(C4OCC5N(C)C)C)OC3=O)C)O

> <PUBCHEM_OPENEYE_ISO_SMILES>
C[C@]12CC[C@@H]([C@]3([C@@H]1[C@@H](C=C4C2CCC5(C4OCC5N(C)C)C)OC3=O)C)O

> <PUBCHEM_CACTVS_TPSA>
59

> <PUBCHEM_MONOISOTOPIC_WEIGHT>
375.240959

> <PUBCHEM_TOTAL_CHARGE>
0

> <PUBCHEM_HEAVY_ATOM_COUNT>
27

> <PUBCHEM_ATOM_DEF_STEREO_COUNT>
5

> <PUBCHEM_ATOM_UDEF_STEREO_COUNT>
4

> <PUBCHEM_BOND_DEF_STEREO_COUNT>
0

> <PUBCHEM_BOND_UDEF_STEREO_COUNT>
0

> <PUBCHEM_ISOTOPIC_ATOM_COUNT>
0

> <PUBCHEM_COMPONENT_COUNT>
1

> <PUBCHEM_CACTVS_TAUTO_COUNT>
1

> <PUBCHEM_COORDINATE_TYPE>
1
5
255

> <PUBCHEM_BONDANNOTATIONS>
10  30  6
11  25  3
14  33  3
21  45  3
16  3  5
6  20  5
7  28  6
8  29  3
9  23  6

$$$$

