440929
  -OEChem-07051212513D

 47 52  0     0  0  0  0  0  0999 V2000
    4.4390   -2.3593    0.1340 O   0  0  0  0  0  0  0  0  0  0  0  0
    5.9768   -0.5188   -0.0424 O   0  0  0  0  0  0  0  0  0  0  0  0
   -2.0388    3.1843   -0.3887 O   0  0  0  0  0  0  0  0  0  0  0  0
   -5.0158   -2.3320    0.1340 O   0  0  0  0  0  0  0  0  0  0  0  0
   -5.9370   -0.1170   -0.0757 O   0  0  0  0  0  0  0  0  0  0  0  0
    2.5288    2.7226   -0.3480 O   0  0  0  0  0  0  0  0  0  0  0  0
    0.2068   -1.8266    0.0861 N   0  3  0  0  0  0  0  0  0  0  0  0
   -0.3741   -0.6136   -0.0290 C   0  0  0  0  0  0  0  0  0  0  0  0
    0.4801    0.5221   -0.1374 C   0  0  0  0  0  0  0  0  0  0  0  0
    1.9047    0.3436   -0.1209 C   0  0  0  0  0  0  0  0  0  0  0  0
   -1.7998   -0.4929   -0.0403 C   0  0  0  0  0  0  0  0  0  0  0  0
    2.4134   -0.9681    0.0038 C   0  0  0  0  0  0  0  0  0  0  0  0
   -2.3707    0.8076   -0.1637 C   0  0  0  0  0  0  0  0  0  0  0  0
    1.5258   -2.0301    0.1052 C   0  0  0  0  0  0  0  0  0  0  0  0
   -0.1454    1.7788   -0.2567 C   0  0  0  0  0  0  0  0  0  0  0  0
    3.7939   -1.1615    0.0214 C   0  0  0  0  0  0  0  0  0  0  0  0
   -1.5340    1.9185   -0.2698 C   0  0  0  0  0  0  0  0  0  0  0  0
    2.8604    1.4028   -0.2226 C   0  0  0  0  0  0  0  0  0  0  0  0
   -2.6886   -1.5937    0.0641 C   0  0  0  0  0  0  0  0  0  0  0  0
    4.6784   -0.1159   -0.0792 C   0  0  0  0  0  0  0  0  0  0  0  0
   -3.7655    0.9903   -0.1809 C   0  0  0  0  0  0  0  0  0  0  0  0
   -4.0525   -1.3747    0.0435 C   0  0  0  0  0  0  0  0  0  0  0  0
    4.2424    1.1802   -0.2023 C   0  0  0  0  0  0  0  0  0  0  0  0
   -4.5771   -0.1165   -0.0758 C   0  0  0  0  0  0  0  0  0  0  0  0
   -0.4585   -3.1226    0.2115 C   0  0  0  0  0  0  0  0  0  0  0  0
    5.8178   -1.9436    0.0938 C   0  0  0  0  0  0  0  0  0  0  0  0
   -6.2098   -1.5269    0.0578 C   0  0  0  0  0  0  0  0  0  0  0  0
   -2.2742    3.8983    0.8203 C   0  0  0  0  0  0  0  0  0  0  0  0
    2.3736    3.4649    0.8577 C   0  0  0  0  0  0  0  0  0  0  0  0
    1.9105   -3.0415    0.2011 H   0  0  0  0  0  0  0  0  0  0  0  0
    0.3875    2.7028   -0.4098 H   0  0  0  0  0  0  0  0  0  0  0  0
   -2.5030   -2.6395    0.1621 H   0  0  0  0  0  0  0  0  0  0  0  0
   -4.2222    1.9703   -0.2814 H   0  0  0  0  0  0  0  0  0  0  0  0
    4.9491    1.9998   -0.2827 H   0  0  0  0  0  0  0  0  0  0  0  0
   -0.9970   -3.1503    1.1631 H   0  0  0  0  0  0  0  0  0  0  0  0
   -0.9952   -3.3331   -0.7180 H   0  0  0  0  0  0  0  0  0  0  0  0
    0.2441   -3.9612    0.2940 H   0  0  0  0  0  0  0  0  0  0  0  0
    6.3083   -2.4350   -0.7543 H   0  0  0  0  0  0  0  0  0  0  0  0
    6.3090   -2.2656    1.0191 H   0  0  0  0  0  0  0  0  0  0  0  0
   -6.7997   -1.6860    0.9679 H   0  0  0  0  0  0  0  0  0  0  0  0
   -6.7996   -1.8540   -0.8062 H   0  0  0  0  0  0  0  0  0  0  0  0
   -1.3258    4.1200    1.3200 H   0  0  0  0  0  0  0  0  0  0  0  0
   -2.9268    3.3351    1.4947 H   0  0  0  0  0  0  0  0  0  0  0  0
   -2.7643    4.8433    0.5704 H   0  0  0  0  0  0  0  0  0  0  0  0
    3.3583    3.7261    1.2581 H   0  0  0  0  0  0  0  0  0  0  0  0
    1.8109    2.9072    1.6139 H   0  0  0  0  0  0  0  0  0  0  0  0
    1.8386    4.3911    0.6296 H   0  0  0  0  0  0  0  0  0  0  0  0
  1 16  1  0  0  0  0
  1 26  1  0  0  0  0
  2 20  1  0  0  0  0
  2 26  1  0  0  0  0
  3 17  1  0  0  0  0
  3 28  1  0  0  0  0
  4 22  1  0  0  0  0
  4 27  1  0  0  0  0
  5 24  1  0  0  0  0
  5 27  1  0  0  0  0
  6 18  1  0  0  0  0
  6 29  1  0  0  0  0
  7  8  1  0  0  0  0
  7 14  2  0  0  0  0
  7 25  1  0  0  0  0
  8  9  2  0  0  0  0
  8 11  1  0  0  0  0
  9 10  1  0  0  0  0
  9 15  1  0  0  0  0
 10 12  1  0  0  0  0
 10 18  2  0  0  0  0
 11 13  1  0  0  0  0
 11 19  2  0  0  0  0
 12 14  1  0  0  0  0
 12 16  2  0  0  0  0
 13 17  1  0  0  0  0
 13 21  2  0  0  0  0
 14 30  1  0  0  0  0
 15 17  2  0  0  0  0
 15 31  1  0  0  0  0
 16 20  1  0  0  0  0
 18 23  1  0  0  0  0
 19 22  1  0  0  0  0
 19 32  1  0  0  0  0
 20 23  2  0  0  0  0
 21 24  1  0  0  0  0
 21 33  1  0  0  0  0
 22 24  2  0  0  0  0
 23 34  1  0  0  0  0
 25 35  1  0  0  0  0
 25 36  1  0  0  0  0
 25 37  1  0  0  0  0
 26 38  1  0  0  0  0
 26 39  1  0  0  0  0
 27 40  1  0  0  0  0
 27 41  1  0  0  0  0
 28 42  1  0  0  0  0
 28 43  1  0  0  0  0
 28 44  1  0  0  0  0
 29 45  1  0  0  0  0
 29 46  1  0  0  0  0
 29 47  1  0  0  0  0
M  CHG  1   7   1
M  END
> <PUBCHEM_COMPOUND_CID>
440929

> <PUBCHEM_CONFORMER_RMSD>
0.8

> <PUBCHEM_CONFORMER_DIVERSEORDER>
1

> <PUBCHEM_MMFF94_PARTIAL_CHARGES>
29
1 -0.36
14 0.21
15 -0.15
16 0.08
17 0.08
18 0.08
19 -0.15
2 -0.36
20 0.08
21 -0.15
22 0.08
23 -0.15
24 0.08
25 0.49
26 0.56
27 0.56
28 0.28
29 0.28
3 -0.36
30 0.15
31 0.15
32 0.15
33 0.15
34 0.15
4 -0.36
5 -0.36
6 -0.36
7 -0.21
8 0.36

> <PUBCHEM_EFFECTIVE_ROTOR_COUNT>
3.2

> <PUBCHEM_PHARMACOPHORE_FEATURES>
12
1 1 acceptor
1 2 acceptor
1 3 acceptor
1 4 acceptor
1 5 acceptor
1 6 acceptor
5 1 2 16 20 26 rings
5 4 5 22 24 27 rings
6 10 12 16 18 20 23 rings
6 11 13 19 21 22 24 rings
6 7 8 9 10 12 14 rings
6 8 9 11 13 15 17 rings

> <PUBCHEM_HEAVY_ATOM_COUNT>
29

> <PUBCHEM_ATOM_DEF_STEREO_COUNT>
0

> <PUBCHEM_ATOM_UDEF_STEREO_COUNT>
0

> <PUBCHEM_BOND_DEF_STEREO_COUNT>
0

> <PUBCHEM_BOND_UDEF_STEREO_COUNT>
0

> <PUBCHEM_ISOTOPIC_ATOM_COUNT>
0

> <PUBCHEM_COMPONENT_COUNT>
1

> <PUBCHEM_CACTVS_TAUTO_COUNT>
1

> <PUBCHEM_CONFORMER_ID>
0006BA6100000001

> <PUBCHEM_MMFF94_ENERGY>
154.1954

> <PUBCHEM_FEATURE_SELFOVERLAP>
61.271

> <PUBCHEM_SHAPE_FINGERPRINT>
10411042 1 18411136943700081814
10967382 1 18267584598303912573
1100329 8 18339644434236024515
11578080 2 16628010683495650759
11607047 403 16090692158699646731
12107183 9 17548984811285618578
12166972 35 17775281651374889348
12236239 1 18040433270339444735
12403259 226 18411705395781481140
12403260 363 18412824711566353204
12645989 146 18335419071570719366
12788726 201 18262783112677603988
13140716 1 18123758547916962570
13402501 40 18411982450972820687
13533116 47 18337108964843564032
138480 1 15024150065312945549
13862211 1 18411138013574726223
14341114 176 18413103961475548558
14347332 77 18411985788167437727
14790565 3 18410568458193510749
15131766 46 15287362750780455664
15196674 1 18412262835085698135
15219462 58 14620520055631715220
15927050 60 17542785309182160877
17492 89 18266459982788100350
1813 80 17346602949888942956
18608769 82 18338519638773463322
18681886 176 18335427854720369050
19591789 44 18411139091494985679
20028762 73 18333453127305020095
21133410 127 17771637745372246365
21236236 1 18337953510016917081
21267235 1 18412537709083036951
21279426 13 18341054111247837959
21792934 111 18408891729026401153
221357 26 18409729569238612726
22311459 1 18411136935696404718
22393880 68 18059869388764694525
23402539 116 18408046191103828855
23522609 53 18122873577937237989
23559900 14 18411428310229672441
283562 15 18340487867545240795
3004659 81 18131073714429261279
335352 9 18411700997491825143
3380486 145 17982433920247011515
350125 39 18411135852868449196
392239 28 18411128135286751475
4073 2 17916580934448751315
4093350 32 16878215369487707460
4214541 1 18339924925680730356
463206 1 18267021648772867831
5104073 3 18263652921438929792
5776283 40 18123460580762590644
9709674 26 18341890745160360426

> <PUBCHEM_SHAPE_MULTIPOLES>
556.61
12.37
3.92
0.67
1.34
2.69
-0.04
-6.24
-0.05
0.18
-0.69
-0.01
0.21
-0.01

> <PUBCHEM_SHAPE_SELFOVERLAP>
1288.675

> <PUBCHEM_SHAPE_VOLUME>
286.1

> <PUBCHEM_COORDINATE_TYPE>
2
5
10

$$$$

