193317
  -OEChem-07051212452D

 20 19  0     1  0  0  0  0  0999 V2000
    4.7690   -1.0695    0.0000 O   0  0  0  0  0  0  0  0  0  0  0  0
    5.1350    1.2965    0.0000 O   0  0  0  0  0  0  0  0  0  0  0  0
    2.5369   -0.2035    0.0000 O   0  0  0  0  0  0  0  0  0  0  0  0
    2.7690    0.6625    0.0000 O   0  0  0  0  0  0  0  0  0  0  0  0
    6.8671    0.2965    0.0000 O   0  0  0  0  0  0  0  0  0  0  0  0
    4.2690   -0.2035    0.0000 C   0  0  0  0  0  0  0  0  0  0  0  0
    5.1350    0.2965    0.0000 C   0  0  3  0  0  0  0  0  0  0  0  0
    3.4030   -0.7035    0.0000 C   0  0  0  0  0  0  0  0  0  0  0  0
    3.7690    0.6625    0.0000 C   0  0  0  0  0  0  0  0  0  0  0  0
    6.0010   -0.2035    0.0000 C   0  0  0  0  0  0  0  0  0  0  0  0
    5.8711    0.7215    0.0000 H   0  0  0  0  0  0  0  0  0  0  0  0
    4.3516    0.8746    0.0000 H   0  0  0  0  0  0  0  0  0  0  0  0
    3.6613    1.2731    0.0000 H   0  0  0  0  0  0  0  0  0  0  0  0
    3.0044   -1.1785    0.0000 H   0  0  0  0  0  0  0  0  0  0  0  0
    3.8015   -1.1785    0.0000 H   0  0  0  0  0  0  0  0  0  0  0  0
    4.4590   -1.6065    0.0000 H   0  0  0  0  0  0  0  0  0  0  0  0
    6.0010   -0.8235    0.0000 H   0  0  0  0  0  0  0  0  0  0  0  0
    5.6720    1.6065    0.0000 H   0  0  0  0  0  0  0  0  0  0  0  0
    2.4590    1.1994    0.0000 H   0  0  0  0  0  0  0  0  0  0  0  0
    2.0000   -0.5135    0.0000 H   0  0  0  0  0  0  0  0  0  0  0  0
  1  6  1  0  0  0  0
  1 16  1  0  0  0  0
  2  7  1  0  0  0  0
  2 18  1  0  0  0  0
  3  8  1  0  0  0  0
  3 20  1  0  0  0  0
  4  9  1  0  0  0  0
  4 19  1  0  0  0  0
  5 10  2  0  0  0  0
  6  7  1  0  0  0  0
  6  8  1  0  0  0  0
  6  9  1  0  0  0  0
  7 10  1  0  0  0  0
  7 11  1  0  0  0  0
  8 14  1  0  0  0  0
  8 15  1  0  0  0  0
  9 12  1  0  0  0  0
  9 13  1  0  0  0  0
 10 17  1  0  0  0  0
M  END
> <PUBCHEM_COMPOUND_CID>
193317

> <PUBCHEM_COMPOUND_CANONICALIZED>
1

> <PUBCHEM_CACTVS_COMPLEXITY>
109

> <PUBCHEM_CACTVS_HBOND_ACCEPTOR>
5

> <PUBCHEM_CACTVS_HBOND_DONOR>
4

> <PUBCHEM_CACTVS_ROTATABLE_BOND>
4

> <PUBCHEM_CACTVS_SUBSKEYS>
AAADccBgOAAAAAAAAAAAAAAAAAAAAAAAAAAAAAAAAAAAAAAAAAAAGgAACAAADFSggAIAAAAAAgAIAAgQgAIAAAAAAAAAAAFAAAABEBQAAAAAQAAFIAABAAACAAAIAAAAAAAAAAAAAAAAAAAAAAAAAAAAAA==

> <PUBCHEM_IUPAC_OPENEYE_NAME>
2,3,4-trihydroxy-3-(hydroxymethyl)butanal

> <PUBCHEM_IUPAC_CAS_NAME>
2,3,4-trihydroxy-3-(hydroxymethyl)butanal

> <PUBCHEM_IUPAC_NAME>
2,3,4-trihydroxy-3-(hydroxymethyl)butanal

> <PUBCHEM_IUPAC_SYSTEMATIC_NAME>
3-(hydroxymethyl)-2,3,4-tris(oxidanyl)butanal

> <PUBCHEM_IUPAC_TRADITIONAL_NAME>
2,3,4-trihydroxy-3-methylol-butyraldehyde

> <PUBCHEM_IUPAC_INCHI>
InChI=1S/C5H10O5/c6-1-4(9)5(10,2-7)3-8/h1,4,7-10H,2-3H2

> <PUBCHEM_IUPAC_INCHIKEY>
AVGPOAXYRRIZMM-UHFFFAOYSA-N

> <PUBCHEM_XLOGP3_AA>
-3.1

> <PUBCHEM_EXACT_MASS>
150.052823

> <PUBCHEM_MOLECULAR_FORMULA>
C5H10O5

> <PUBCHEM_MOLECULAR_WEIGHT>
150.1299

> <PUBCHEM_OPENEYE_CAN_SMILES>
C(C(CO)(C(C=O)O)O)O

> <PUBCHEM_OPENEYE_ISO_SMILES>
C(C(CO)(C(C=O)O)O)O

> <PUBCHEM_CACTVS_TPSA>
98

> <PUBCHEM_MONOISOTOPIC_WEIGHT>
150.052823

> <PUBCHEM_TOTAL_CHARGE>
0

> <PUBCHEM_HEAVY_ATOM_COUNT>
10

> <PUBCHEM_ATOM_DEF_STEREO_COUNT>
0

> <PUBCHEM_ATOM_UDEF_STEREO_COUNT>
1

> <PUBCHEM_BOND_DEF_STEREO_COUNT>
0

> <PUBCHEM_BOND_UDEF_STEREO_COUNT>
0

> <PUBCHEM_ISOTOPIC_ATOM_COUNT>
0

> <PUBCHEM_COMPONENT_COUNT>
1

> <PUBCHEM_CACTVS_TAUTO_COUNT>
3

> <PUBCHEM_COORDINATE_TYPE>
1
5
255

> <PUBCHEM_BONDANNOTATIONS>
7  11  3

$$$$

