4176
  -OEChem-06251223563D

 30 29  0     0  0  0  0  0  0999 V2000
   -2.6740   -0.1537    0.2219 P   0  0  0  0  0  0  0  0  0  0  0  0
   -1.2611    0.5988    0.1080 O   0  0  0  0  0  0  0  0  0  0  0  0
   -3.7124    0.9717   -0.3074 O   0  0  0  0  0  0  0  0  0  0  0  0
   -2.6347   -1.2226   -0.9952 O   0  0  0  0  0  0  0  0  0  0  0  0
    3.3555    0.5690   -0.2052 O   0  0  0  0  0  0  0  0  0  0  0  0
   -2.9931   -0.7316    1.5712 O   0  0  0  0  0  0  0  0  0  0  0  0
    2.5200   -1.5245    0.2937 O   0  0  0  0  0  0  0  0  0  0  0  0
   -0.0606   -0.0388    0.3482 C   0  0  0  0  0  0  0  0  0  0  0  0
    1.0767    0.3212   -0.2666 C   0  0  0  0  0  0  0  0  0  0  0  0
   -0.1161   -1.1594    1.3410 C   0  0  0  0  0  0  0  0  0  0  0  0
    4.6915    0.0944   -0.0070 C   0  0  0  0  0  0  0  0  0  0  0  0
    2.3727   -0.3543   -0.0195 C   0  0  0  0  0  0  0  0  0  0  0  0
    5.6601    1.2323   -0.2495 C   0  0  0  0  0  0  0  0  0  0  0  0
   -3.8846    2.1473    0.4645 C   0  0  0  0  0  0  0  0  0  0  0  0
   -2.3399   -0.7498   -2.2981 C   0  0  0  0  0  0  0  0  0  0  0  0
    1.0773    1.1598   -0.9568 H   0  0  0  0  0  0  0  0  0  0  0  0
   -0.6976   -0.8539    2.2165 H   0  0  0  0  0  0  0  0  0  0  0  0
    0.8451   -1.4417    1.7718 H   0  0  0  0  0  0  0  0  0  0  0  0
   -0.5698   -2.0519    0.9002 H   0  0  0  0  0  0  0  0  0  0  0  0
    4.8000   -0.2719    1.0200 H   0  0  0  0  0  0  0  0  0  0  0  0
    4.8965   -0.7224   -0.7081 H   0  0  0  0  0  0  0  0  0  0  0  0
    6.6932    0.9038   -0.1063 H   0  0  0  0  0  0  0  0  0  0  0  0
    5.5504    1.6213   -1.2672 H   0  0  0  0  0  0  0  0  0  0  0  0
    5.4557    2.0642    0.4325 H   0  0  0  0  0  0  0  0  0  0  0  0
   -4.1965    1.8862    1.4791 H   0  0  0  0  0  0  0  0  0  0  0  0
   -4.6592    2.7620   -0.0002 H   0  0  0  0  0  0  0  0  0  0  0  0
   -2.9505    2.7140    0.4962 H   0  0  0  0  0  0  0  0  0  0  0  0
   -1.3332   -0.3286   -2.3397 H   0  0  0  0  0  0  0  0  0  0  0  0
   -3.0724   -0.0006   -2.6084 H   0  0  0  0  0  0  0  0  0  0  0  0
   -2.3916   -1.5940   -2.9907 H   0  0  0  0  0  0  0  0  0  0  0  0
  1  2  1  0  0  0  0
  1  3  1  0  0  0  0
  1  4  1  0  0  0  0
  1  6  2  0  0  0  0
  2  8  1  0  0  0  0
  3 14  1  0  0  0  0
  4 15  1  0  0  0  0
  5 11  1  0  0  0  0
  5 12  1  0  0  0  0
  7 12  2  0  0  0  0
  8  9  2  0  0  0  0
  8 10  1  0  0  0  0
  9 12  1  0  0  0  0
  9 16  1  0  0  0  0
 10 17  1  0  0  0  0
 10 18  1  0  0  0  0
 10 19  1  0  0  0  0
 11 13  1  0  0  0  0
 11 20  1  0  0  0  0
 11 21  1  0  0  0  0
 13 22  1  0  0  0  0
 13 23  1  0  0  0  0
 13 24  1  0  0  0  0
 14 25  1  0  0  0  0
 14 26  1  0  0  0  0
 14 27  1  0  0  0  0
 15 28  1  0  0  0  0
 15 29  1  0  0  0  0
 15 30  1  0  0  0  0
M  END
> <PUBCHEM_COMPOUND_CID>
4176

> <PUBCHEM_CONFORMER_RMSD>
0.8

> <PUBCHEM_CONFORMER_DIVERSEORDER>
9
33
67
28
12
70
72
87
86
93
92
25
65
52
81
124
19
131
66
63
102
112
139
114
15
121
98
39
122
136
84
64
34
118
59
7
55
95
68
128
17
82
129
80
75
141
2
94
32
135
46
29
140
88
23
117
90
126
50
96
5
104
77
11
83
100
3
105
134
42
48
132
18
61
138
40
44
137
123
36
58
14
97
60
4
119
20
53
99
31
16
110
13
79
51
24
69
47
27
127
1
57
56
106
71
120
43
111
6
30
108
130
125
54
107
37
35
74
91
142
89
73
22
76
115
26
109
41
8
49
21
45
38
143
133
113
144
101
116
145
10
85
62
78
103

> <PUBCHEM_MMFF94_PARTIAL_CHARGES>
15
1 1.51
10 0.14
11 0.28
12 0.71
14 0.28
15 0.28
16 0.15
2 -0.35
3 -0.55
4 -0.55
5 -0.43
6 -0.7
7 -0.57
8 -0.06
9 -0.14

> <PUBCHEM_EFFECTIVE_ROTOR_COUNT>
7

> <PUBCHEM_PHARMACOPHORE_FEATURES>
2
1 6 acceptor
1 7 acceptor

> <PUBCHEM_HEAVY_ATOM_COUNT>
15

> <PUBCHEM_ATOM_DEF_STEREO_COUNT>
0

> <PUBCHEM_ATOM_UDEF_STEREO_COUNT>
0

> <PUBCHEM_BOND_DEF_STEREO_COUNT>
0

> <PUBCHEM_BOND_UDEF_STEREO_COUNT>
1

> <PUBCHEM_ISOTOPIC_ATOM_COUNT>
0

> <PUBCHEM_COMPONENT_COUNT>
1

> <PUBCHEM_CACTVS_TAUTO_COUNT>
1

> <PUBCHEM_CONFORMER_ID>
0000105000000009

> <PUBCHEM_MMFF94_ENERGY>
26.9988

> <PUBCHEM_FEATURE_SELFOVERLAP>
10.149

> <PUBCHEM_SHAPE_FINGERPRINT>
10014705 185 18186241727264116785
10680689 15 18113614560659719032
11132069 177 16702014301249984163
11543360 7 17603871053301975092
12091667 2 18335699417439710544
12500047 106 17530690930415960775
12932764 1 17967537865088017666
13214271 11 18343015588700186601
167882 2 17461435008397218911
17862501 102 10447923971127401916
18186145 218 17561083648301211154
200 152 18333453123235905162
20112054 13 17846494867848722097
20325693 3 17022618663267782485
20645476 183 17968101919191094615
20645477 56 18040714788218349249
20645477 70 18189897689610895158
20871999 31 17749118772566433957
2306618 200 16559037082065783981
23402539 116 18410296904585829748
23402655 69 18261392273802878820
23559900 14 18202280330171578170
4175511 318 17821449079779509173
42 15 11815896764841236924
5104073 3 18060699503064425936
633830 44 18343301504879030582

> <PUBCHEM_SHAPE_MULTIPOLES>
277.33
9.84
1.52
1.34
11.19
0.47
-0.38
4.4
-1.12
-1.1
0.02
-1.41
-0.63
-0.76

> <PUBCHEM_SHAPE_SELFOVERLAP>
515.111

> <PUBCHEM_SHAPE_VOLUME>
175

> <PUBCHEM_COORDINATE_TYPE>
2
5
10

$$$$

