17396504
  -OEChem-06241222573D

 43 46  0     0  0  0  0  0  0999 V2000
   -0.0589    1.8432    2.6324 O   0  0  0  0  0  0  0  0  0  0  0  0
   -0.8409    0.2200   -2.1456 O   0  0  0  0  0  0  0  0  0  0  0  0
    1.8307   -1.1964    0.3181 N   0  0  0  0  0  0  0  0  0  0  0  0
    0.6846   -0.6151    0.7117 N   0  0  0  0  0  0  0  0  0  0  0  0
   -0.5423    2.4373    0.4482 N   0  0  0  0  0  0  0  0  0  0  0  0
    4.3205   -0.7229   -0.0820 C   0  0  0  0  0  0  0  0  0  0  0  0
    4.5572   -1.3350   -1.4316 C   0  0  0  0  0  0  0  0  0  0  0  0
    5.0003    0.0723   -1.1576 C   0  0  0  0  0  0  0  0  0  0  0  0
    2.9027   -0.3528    0.3117 C   0  0  0  0  0  0  0  0  0  0  0  0
    2.4244    0.8650    0.7296 C   0  0  0  0  0  0  0  0  0  0  0  0
    1.0536    0.6440    0.9617 C   0  0  0  0  0  0  0  0  0  0  0  0
    0.1385    1.6541    1.4177 C   0  0  0  0  0  0  0  0  0  0  0  0
   -0.5330   -1.2644    0.8004 C   0  0  0  0  0  0  0  0  0  0  0  0
   -0.3526    2.3015   -0.9950 C   0  0  0  0  0  0  0  0  0  0  0  0
   -1.4747   -0.8544    1.7441 C   0  0  0  0  0  0  0  0  0  0  0  0
   -0.8210   -2.3273   -0.0560 C   0  0  0  0  0  0  0  0  0  0  0  0
   -1.4807    3.4725    0.8622 C   0  0  0  0  0  0  0  0  0  0  0  0
   -1.3495    1.3261   -1.5423 C   0  0  0  0  0  0  0  0  0  0  0  0
   -2.7043   -1.5070    1.8317 C   0  0  0  0  0  0  0  0  0  0  0  0
   -2.0507   -2.9799    0.0317 C   0  0  0  0  0  0  0  0  0  0  0  0
   -2.9923   -2.5698    0.9755 C   0  0  0  0  0  0  0  0  0  0  0  0
   -2.7246    1.3025   -1.5702 C   0  0  0  0  0  0  0  0  0  0  0  0
   -3.0840    0.1048   -2.2333 C   0  0  0  0  0  0  0  0  0  0  0  0
   -1.9028   -0.5181   -2.5633 C   0  0  0  0  0  0  0  0  0  0  0  0
    4.9428   -1.0785    0.7321 H   0  0  0  0  0  0  0  0  0  0  0  0
    5.3226   -2.0974   -1.5122 H   0  0  0  0  0  0  0  0  0  0  0  0
    3.7185   -1.4742   -2.1032 H   0  0  0  0  0  0  0  0  0  0  0  0
    6.0633    0.2544   -1.0542 H   0  0  0  0  0  0  0  0  0  0  0  0
    4.4590    0.8714   -1.6496 H   0  0  0  0  0  0  0  0  0  0  0  0
    2.9460    1.8021    0.8634 H   0  0  0  0  0  0  0  0  0  0  0  0
   -0.4808    3.2794   -1.4723 H   0  0  0  0  0  0  0  0  0  0  0  0
    0.6645    1.9674   -1.2175 H   0  0  0  0  0  0  0  0  0  0  0  0
   -1.2895   -0.0897    2.4836 H   0  0  0  0  0  0  0  0  0  0  0  0
   -0.1071   -2.6638   -0.8038 H   0  0  0  0  0  0  0  0  0  0  0  0
   -2.4840    3.2310    0.5091 H   0  0  0  0  0  0  0  0  0  0  0  0
   -1.5163    3.5701    1.9501 H   0  0  0  0  0  0  0  0  0  0  0  0
   -1.1622    4.4307    0.4408 H   0  0  0  0  0  0  0  0  0  0  0  0
   -3.4320   -1.1988    2.5769 H   0  0  0  0  0  0  0  0  0  0  0  0
   -2.2757   -3.8065   -0.6357 H   0  0  0  0  0  0  0  0  0  0  0  0
   -3.9486   -3.0798    1.0455 H   0  0  0  0  0  0  0  0  0  0  0  0
   -3.3969    2.0505   -1.1778 H   0  0  0  0  0  0  0  0  0  0  0  0
   -4.0790   -0.2578   -2.4467 H   0  0  0  0  0  0  0  0  0  0  0  0
   -1.6605   -1.4392   -3.0728 H   0  0  0  0  0  0  0  0  0  0  0  0
  1 12  2  0  0  0  0
  2 18  1  0  0  0  0
  2 24  1  0  0  0  0
  3  4  1  0  0  0  0
  3  9  2  0  0  0  0
  4 11  1  0  0  0  0
  4 13  1  0  0  0  0
  5 12  1  0  0  0  0
  5 14  1  0  0  0  0
  5 17  1  0  0  0  0
  6  7  1  0  0  0  0
  6  8  1  0  0  0  0
  6  9  1  0  0  0  0
  6 25  1  0  0  0  0
  7  8  1  0  0  0  0
  7 26  1  0  0  0  0
  7 27  1  0  0  0  0
  8 28  1  0  0  0  0
  8 29  1  0  0  0  0
  9 10  1  0  0  0  0
 10 11  2  0  0  0  0
 10 30  1  0  0  0  0
 11 12  1  0  0  0  0
 13 15  2  0  0  0  0
 13 16  1  0  0  0  0
 14 18  1  0  0  0  0
 14 31  1  0  0  0  0
 14 32  1  0  0  0  0
 15 19  1  0  0  0  0
 15 33  1  0  0  0  0
 16 20  2  0  0  0  0
 16 34  1  0  0  0  0
 17 35  1  0  0  0  0
 17 36  1  0  0  0  0
 17 37  1  0  0  0  0
 18 22  2  0  0  0  0
 19 21  2  0  0  0  0
 19 38  1  0  0  0  0
 20 21  1  0  0  0  0
 20 39  1  0  0  0  0
 21 40  1  0  0  0  0
 22 23  1  0  0  0  0
 22 41  1  0  0  0  0
 23 24  2  0  0  0  0
 23 42  1  0  0  0  0
 24 43  1  0  0  0  0
M  END
> <PUBCHEM_COMPOUND_CID>
17396504

> <PUBCHEM_CONFORMER_RMSD>
0.8

> <PUBCHEM_CONFORMER_DIVERSEORDER>
1
57
205
22
194
171
45
124
184
97
144
128
131
175
149
85
52
87
30
140
31
150
159
75
110
189
3
16
82
101
177
100
137
210
181
138
209
113
44
186
95
207
8
28
65
143
111
170
102
72
139
192
106
90
98
68
148
187
33
157
53
185
135
168
182
174
167
136
196
203
71
107
66
92
166
115
36
78
202
2
145
103
179
197
64
6
173
46
94
119
63
160
56
91
206
125
32
183
18
141
146
83
29
195
14
89
48
104
153
40
201
198
60
49
163
37
199
19
74
130
190
158
15
126
59
155
120
172
81
26
99
24
84
191
154
133
188
180
55
121
164
134
123
161
77
76
11
86
67
42
39
25
12
117
50
165
27
176
35
79
142
38
118
105
132
58
156
4
9
61
200
7
69
73
10
204
17
5
129
162
88
41
122
208
112
178
34
54
13
127
108
43
21
47
152
114
193
169
20
80
96
62
151
70
51
147
23
93
116
109

> <PUBCHEM_MMFF94_PARTIAL_CHARGES>
38
1 -0.57
10 -0.15
11 -0.24
12 0.71
13 -0.02
14 0.48
15 -0.15
16 -0.15
17 0.3
18 -0.04
19 -0.15
2 -0.28
20 -0.15
21 -0.15
22 -0.15
23 -0.15
24 -0.01
25 0.1
26 0.1
27 0.1
28 0.1
29 0.1
3 -0.71
30 0.15
33 0.15
34 0.15
38 0.15
39 0.15
4 0.59
40 0.15
41 0.15
42 0.15
43 0.15
5 -0.66
6 -0.01
7 -0.2
8 -0.2
9 0.2

> <PUBCHEM_EFFECTIVE_ROTOR_COUNT>
6.6

> <PUBCHEM_PHARMACOPHORE_FEATURES>
6
1 1 acceptor
1 2 acceptor
1 3 acceptor
5 2 18 22 23 24 rings
5 3 4 9 10 11 rings
6 13 15 16 19 20 21 rings

> <PUBCHEM_HEAVY_ATOM_COUNT>
24

> <PUBCHEM_ATOM_DEF_STEREO_COUNT>
0

> <PUBCHEM_ATOM_UDEF_STEREO_COUNT>
0

> <PUBCHEM_BOND_DEF_STEREO_COUNT>
0

> <PUBCHEM_BOND_UDEF_STEREO_COUNT>
0

> <PUBCHEM_ISOTOPIC_ATOM_COUNT>
0

> <PUBCHEM_COMPONENT_COUNT>
1

> <PUBCHEM_CACTVS_TAUTO_COUNT>
1

> <PUBCHEM_CONFORMER_ID>
0109731800000001

> <PUBCHEM_MMFF94_ENERGY>
73.1934

> <PUBCHEM_FEATURE_SELFOVERLAP>
30.446

> <PUBCHEM_SHAPE_FINGERPRINT>
10764073 3 16668474927157742275
107951 10 17758375745211951972
11578080 2 18268712705750560216
12011746 2 18272657840187530791
12156800 1 17763976546254637269
12173636 292 18196075858574629260
12597179 24 16521273414353640441
12714826 92 18201157663589288338
12788726 201 18043541709458451640
13149001 5 18056787384462772989
16945 1 18198930138729903560
17349148 13 18051994790019861546
17357779 13 17913787024068608519
17492 54 17203059568184011375
17980427 23 16806702041936475835
17980427 26 16812068568817872449
1813 80 18055329397837616618
18915476 22 17537177855683202136
20905425 154 16047906866890564887
21330990 113 18267280171117112739
22182313 1 18197509432658539520
22620623 9 18131635547559797831
22907989 373 18340193172674952428
23352939 185 17630304368883942756
23419403 2 18267590100072804712
23557571 272 18200037223033959816
2748010 2 18123491400523747112
394222 165 16769601431481066377
469060 322 16630228243323175217
484985 159 18338786931457686202
621550 5 17984969406692610379

> <PUBCHEM_SHAPE_MULTIPOLES>
467.23
6.4
3.3
2.44
9.92
0.72
-0.57
-2.97
-2.99
-2.91
0.99
-1.59
0.67
1.29

> <PUBCHEM_SHAPE_SELFOVERLAP>
1017.245

> <PUBCHEM_SHAPE_VOLUME>
257.1

> <PUBCHEM_COORDINATE_TYPE>
2
5
10

$$$$

