442728
  -OEChem-07051212593D

 56 61  0     0  0  0  0  0  0999 V2000
   -1.1059   -0.7657   -1.4447 O   0  0  0  0  0  0  0  0  0  0  0  0
    1.1059   -0.7658    1.4447 O   0  0  0  0  0  0  0  0  0  0  0  0
   -3.4863   -1.6021   -1.6913 O   0  0  0  0  0  0  0  0  0  0  0  0
    3.4864   -1.6021    1.6912 O   0  0  0  0  0  0  0  0  0  0  0  0
   -5.2372    1.6815    2.1442 O   0  0  0  0  0  0  0  0  0  0  0  0
    5.2371    1.6815   -2.1442 O   0  0  0  0  0  0  0  0  0  0  0  0
   -5.8308   -2.5552   -2.0678 O   0  0  0  0  0  0  0  0  0  0  0  0
    5.8308   -2.5552    2.0678 O   0  0  0  0  0  0  0  0  0  0  0  0
   -0.7033    0.9118    0.1822 C   0  0  0  0  0  0  0  0  0  0  0  0
    0.7033    0.9117   -0.1821 C   0  0  0  0  0  0  0  0  0  0  0  0
   -2.9490    0.0596   -0.1178 C   0  0  0  0  0  0  0  0  0  0  0  0
    2.9490    0.0596    0.1178 C   0  0  0  0  0  0  0  0  0  0  0  0
   -1.1605    1.7663    1.1834 C   0  0  0  0  0  0  0  0  0  0  0  0
    1.1605    1.7664   -1.1834 C   0  0  0  0  0  0  0  0  0  0  0  0
   -3.4070    0.9161    0.8856 C   0  0  0  0  0  0  0  0  0  0  0  0
    3.4070    0.9162   -0.8856 C   0  0  0  0  0  0  0  0  0  0  0  0
   -1.5939    0.0583   -0.4697 C   0  0  0  0  0  0  0  0  0  0  0  0
    1.5938    0.0582    0.4697 C   0  0  0  0  0  0  0  0  0  0  0  0
   -2.5102    1.7711    1.5370 C   0  0  0  0  0  0  0  0  0  0  0  0
    2.5101    1.7712   -1.5370 C   0  0  0  0  0  0  0  0  0  0  0  0
   -3.8844   -0.8485   -0.8124 C   0  0  0  0  0  0  0  0  0  0  0  0
    3.8843   -0.8486    0.8124 C   0  0  0  0  0  0  0  0  0  0  0  0
   -5.3113   -0.8372   -0.4306 C   0  0  0  0  0  0  0  0  0  0  0  0
    5.3112   -0.8372    0.4306 C   0  0  0  0  0  0  0  0  0  0  0  0
   -4.8341    0.9280    1.2668 C   0  0  0  0  0  0  0  0  0  0  0  0
    4.8341    0.9280   -1.2667 C   0  0  0  0  0  0  0  0  0  0  0  0
   -5.7694    0.0194    0.5725 C   0  0  0  0  0  0  0  0  0  0  0  0
    5.7694    0.0195   -0.5725 C   0  0  0  0  0  0  0  0  0  0  0  0
   -0.2358    2.6961    1.9031 C   0  0  0  0  0  0  0  0  0  0  0  0
    0.2358    2.6963   -1.9030 C   0  0  0  0  0  0  0  0  0  0  0  0
   -6.2080   -1.6935   -1.0808 C   0  0  0  0  0  0  0  0  0  0  0  0
    6.2080   -1.6935    1.0807 C   0  0  0  0  0  0  0  0  0  0  0  0
   -7.1241    0.0197    0.9256 C   0  0  0  0  0  0  0  0  0  0  0  0
    7.1242    0.0197   -0.9256 C   0  0  0  0  0  0  0  0  0  0  0  0
   -7.5572   -1.6902   -0.7257 C   0  0  0  0  0  0  0  0  0  0  0  0
    7.5572   -1.6901    0.7257 C   0  0  0  0  0  0  0  0  0  0  0  0
   -8.0143   -0.8355    0.2755 C   0  0  0  0  0  0  0  0  0  0  0  0
    8.0143   -0.8355   -0.2755 C   0  0  0  0  0  0  0  0  0  0  0  0
   -2.8603    2.4407    2.3189 H   0  0  0  0  0  0  0  0  0  0  0  0
    2.8602    2.4407   -2.3189 H   0  0  0  0  0  0  0  0  0  0  0  0
    0.2263    3.4073    1.2117 H   0  0  0  0  0  0  0  0  0  0  0  0
   -0.7647    3.2881    2.6587 H   0  0  0  0  0  0  0  0  0  0  0  0
    0.5449    2.1378    2.4298 H   0  0  0  0  0  0  0  0  0  0  0  0
    0.7645    3.2883   -2.6586 H   0  0  0  0  0  0  0  0  0  0  0  0
   -0.5449    2.1379   -2.4298 H   0  0  0  0  0  0  0  0  0  0  0  0
   -0.2263    3.4074   -1.2116 H   0  0  0  0  0  0  0  0  0  0  0  0
   -7.5054    0.6765    1.7028 H   0  0  0  0  0  0  0  0  0  0  0  0
    7.5056    0.6766   -1.7028 H   0  0  0  0  0  0  0  0  0  0  0  0
   -0.1541   -0.6557   -1.5870 H   0  0  0  0  0  0  0  0  0  0  0  0
    0.1540   -0.6559    1.5868 H   0  0  0  0  0  0  0  0  0  0  0  0
   -8.2595   -2.3521   -1.2257 H   0  0  0  0  0  0  0  0  0  0  0  0
    8.2595   -2.3521    1.2256 H   0  0  0  0  0  0  0  0  0  0  0  0
   -9.0652   -0.8348    0.5501 H   0  0  0  0  0  0  0  0  0  0  0  0
    9.0651   -0.8349   -0.5501 H   0  0  0  0  0  0  0  0  0  0  0  0
   -4.8815   -2.4814   -2.2453 H   0  0  0  0  0  0  0  0  0  0  0  0
    4.8814   -2.4816    2.2452 H   0  0  0  0  0  0  0  0  0  0  0  0
  1 17  1  0  0  0  0
  1 49  1  0  0  0  0
  2 18  1  0  0  0  0
  2 50  1  0  0  0  0
  3 21  2  0  0  0  0
  4 22  2  0  0  0  0
  5 25  2  0  0  0  0
  6 26  2  0  0  0  0
  7 31  1  0  0  0  0
  7 55  1  0  0  0  0
  8 32  1  0  0  0  0
  8 56  1  0  0  0  0
  9 10  1  0  0  0  0
  9 13  1  0  0  0  0
  9 17  2  0  0  0  0
 10 14  1  0  0  0  0
 10 18  2  0  0  0  0
 11 15  2  0  0  0  0
 11 17  1  0  0  0  0
 11 21  1  0  0  0  0
 12 16  2  0  0  0  0
 12 18  1  0  0  0  0
 12 22  1  0  0  0  0
 13 19  2  0  0  0  0
 13 29  1  0  0  0  0
 14 20  2  0  0  0  0
 14 30  1  0  0  0  0
 15 19  1  0  0  0  0
 15 25  1  0  0  0  0
 16 20  1  0  0  0  0
 16 26  1  0  0  0  0
 19 39  1  0  0  0  0
 20 40  1  0  0  0  0
 21 23  1  0  0  0  0
 22 24  1  0  0  0  0
 23 27  2  0  0  0  0
 23 31  1  0  0  0  0
 24 28  2  0  0  0  0
 24 32  1  0  0  0  0
 25 27  1  0  0  0  0
 26 28  1  0  0  0  0
 27 33  1  0  0  0  0
 28 34  1  0  0  0  0
 29 41  1  0  0  0  0
 29 42  1  0  0  0  0
 29 43  1  0  0  0  0
 30 44  1  0  0  0  0
 30 45  1  0  0  0  0
 30 46  1  0  0  0  0
 31 35  2  0  0  0  0
 32 36  2  0  0  0  0
 33 37  2  0  0  0  0
 33 47  1  0  0  0  0
 34 38  2  0  0  0  0
 34 48  1  0  0  0  0
 35 37  1  0  0  0  0
 35 51  1  0  0  0  0
 36 38  1  0  0  0  0
 36 52  1  0  0  0  0
 37 53  1  0  0  0  0
 38 54  1  0  0  0  0
M  END
> <PUBCHEM_COMPOUND_CID>
442728

> <PUBCHEM_CONFORMER_RMSD>
0.8

> <PUBCHEM_CONFORMER_DIVERSEORDER>
2
1

> <PUBCHEM_MMFF94_PARTIAL_CHARGES>
48
1 -0.53
11 0.09
12 0.09
13 -0.14
14 -0.14
15 0.09
16 0.09
17 0.08
18 0.08
19 -0.15
2 -0.53
20 -0.15
21 0.4
22 0.4
23 0.09
24 0.09
25 0.4
26 0.4
27 0.09
28 0.09
29 0.14
3 -0.57
30 0.14
31 0.08
32 0.08
33 -0.15
34 -0.15
35 -0.15
36 -0.15
37 -0.15
38 -0.15
39 0.15
4 -0.57
40 0.15
47 0.15
48 0.15
49 0.45
5 -0.57
50 0.45
51 0.15
52 0.15
53 0.15
54 0.15
55 0.45
56 0.45
6 -0.57
7 -0.53
8 -0.53

> <PUBCHEM_EFFECTIVE_ROTOR_COUNT>
1

> <PUBCHEM_PHARMACOPHORE_FEATURES>
14
1 1 donor
1 2 donor
1 3 acceptor
1 4 acceptor
1 5 acceptor
1 6 acceptor
1 7 donor
1 8 donor
6 10 12 14 16 18 20 rings
6 11 15 21 23 25 27 rings
6 12 16 22 24 26 28 rings
6 23 27 31 33 35 37 rings
6 24 28 32 34 36 38 rings
6 9 11 13 15 17 19 rings

> <PUBCHEM_HEAVY_ATOM_COUNT>
38

> <PUBCHEM_ATOM_DEF_STEREO_COUNT>
0

> <PUBCHEM_ATOM_UDEF_STEREO_COUNT>
0

> <PUBCHEM_BOND_DEF_STEREO_COUNT>
0

> <PUBCHEM_BOND_UDEF_STEREO_COUNT>
0

> <PUBCHEM_ISOTOPIC_ATOM_COUNT>
0

> <PUBCHEM_COMPONENT_COUNT>
1

> <PUBCHEM_CACTVS_TAUTO_COUNT>
992

> <PUBCHEM_CONFORMER_ID>
0006C16800000002

> <PUBCHEM_MMFF94_ENERGY>
140.6857

> <PUBCHEM_FEATURE_SELFOVERLAP>
71.126

> <PUBCHEM_SHAPE_FINGERPRINT>
10 15 15357700786258391474
10299344 5 18410572889935115463
10319926 262 17167866365552799539
11443803 9 18116421554903605772
11497681 19 18339361998088693706
11578080 2 18194712369135059488
12035758 1 15647054858561139424
12144603 126 18410846664035815180
12166972 35 18412546483321681021
12236239 1 18410848867359104901
12522641 24 18262242123894391376
14068700 675 18334011692080806401
14294032 229 17970050347931964200
14705955 166 15791719841580479995
14856354 85 18187082832844061783
150020 25 15698001842246715142
15021287 119 18272643555068632677
15119646 104 18273212010773981814
15183329 4 17703793608576059618
15320294 125 18260832583951468135
15328829 1 18410853261104951724
15419008 47 15864066589495172248
18393751 57 14345798249089088492
18608769 82 17240201027846836671
19611394 137 16370729218555001915
20028762 73 18340487859166939234
21033648 29 15285351843409416681
21223535 225 16845013540964231237
22002106 203 17916316112210669994
22224240 67 4678818346045099941
23522609 53 18194372615736449473
23559900 14 17314231060779474985
23569914 152 16123077569047020655
23569943 247 18059019500288607242
23576562 1 16343132499411983551
3004659 81 18187356585216347021
3383291 50 17458345213446686823
3418910 222 16805316661654805608
3504750 166 18194405726208078736
397830 11 16515980172204062594
4098825 35 17560807666861927045
4112364 45 15575008213408024744
45266715 3 16271931545428126322
5028188 123 18264197171684947366
5080951 261 17240777207048869597
5219985 9 18410858762958447648
6086070 43 18409739477655247077
6691757 9 17821722884862455977

> <PUBCHEM_SHAPE_MULTIPOLES>
735.07
22.72
2.43
1.92
0
0.31
0
-14.89
0
0
0
0
0.35
-4.89

> <PUBCHEM_SHAPE_SELFOVERLAP>
1705.972

> <PUBCHEM_SHAPE_VOLUME>
371.8

> <PUBCHEM_COORDINATE_TYPE>
2
5
10

$$$$

