644181
  -OEChem-07051213053D

 23 24  0     0  0  0  0  0  0999 V2000
   -0.6790    2.5293   -0.1658 Cl  0  0  0  0  0  0  0  0  0  0  0  0
   -0.3051   -2.9110   -0.0513 Cl  0  0  0  0  0  0  0  0  0  0  0  0
   -3.8177    2.2697    0.0745 Cl  0  0  0  0  0  0  0  0  0  0  0  0
   -5.1210   -0.6349    0.2545 Cl  0  0  0  0  0  0  0  0  0  0  0  0
    3.9266    0.2060    2.2755 Cl  0  0  0  0  0  0  0  0  0  0  0  0
    4.9382    0.2206   -0.5552 O   0  0  0  0  0  0  0  0  0  0  0  0
   -0.6277   -0.1871   -0.0996 C   0  0  0  0  0  0  0  0  0  0  0  0
    0.8111   -0.0811   -0.2091 C   0  0  0  0  0  0  0  0  0  0  0  0
   -1.4303    0.9594   -0.0684 C   0  0  0  0  0  0  0  0  0  0  0  0
   -1.2306   -1.4479   -0.0202 C   0  0  0  0  0  0  0  0  0  0  0  0
    1.5945    0.0028    0.9420 C   0  0  0  0  0  0  0  0  0  0  0  0
    1.4149   -0.0633   -1.4664 C   0  0  0  0  0  0  0  0  0  0  0  0
   -2.8163    0.8465    0.0403 C   0  0  0  0  0  0  0  0  0  0  0  0
   -2.6165   -1.5608    0.0887 C   0  0  0  0  0  0  0  0  0  0  0  0
    2.9815    0.1046    0.8358 C   0  0  0  0  0  0  0  0  0  0  0  0
    2.8019    0.0386   -1.5727 C   0  0  0  0  0  0  0  0  0  0  0  0
   -3.4094   -0.4136    0.1189 C   0  0  0  0  0  0  0  0  0  0  0  0
    3.5852    0.1223   -0.4215 C   0  0  0  0  0  0  0  0  0  0  0  0
    1.1244   -0.0111    1.9237 H   0  0  0  0  0  0  0  0  0  0  0  0
    0.8188   -0.1279   -2.3738 H   0  0  0  0  0  0  0  0  0  0  0  0
   -3.0786   -2.5442    0.1500 H   0  0  0  0  0  0  0  0  0  0  0  0
    3.2580    0.0512   -2.5590 H   0  0  0  0  0  0  0  0  0  0  0  0
    5.1667    0.2171   -1.5006 H   0  0  0  0  0  0  0  0  0  0  0  0
  1  9  1  0  0  0  0
  2 10  1  0  0  0  0
  3 13  1  0  0  0  0
  4 17  1  0  0  0  0
  5 15  1  0  0  0  0
  6 18  1  0  0  0  0
  6 23  1  0  0  0  0
  7  8  1  0  0  0  0
  7  9  2  0  0  0  0
  7 10  1  0  0  0  0
  8 11  2  0  0  0  0
  8 12  1  0  0  0  0
  9 13  1  0  0  0  0
 10 14  2  0  0  0  0
 11 15  1  0  0  0  0
 11 19  1  0  0  0  0
 12 16  2  0  0  0  0
 12 20  1  0  0  0  0
 13 17  2  0  0  0  0
 14 17  1  0  0  0  0
 14 21  1  0  0  0  0
 15 18  2  0  0  0  0
 16 18  1  0  0  0  0
 16 22  1  0  0  0  0
M  END
> <PUBCHEM_COMPOUND_CID>
644181

> <PUBCHEM_CONFORMER_RMSD>
0.6

> <PUBCHEM_CONFORMER_DIVERSEORDER>
1
2

> <PUBCHEM_MMFF94_PARTIAL_CHARGES>
21
1 -0.18
10 0.18
11 -0.15
12 -0.15
13 0.18
14 -0.15
15 0.18
16 -0.15
17 0.18
18 0.08
19 0.15
2 -0.18
20 0.15
21 0.15
22 0.15
23 0.45
3 -0.18
4 -0.18
5 -0.18
6 -0.53
9 0.18

> <PUBCHEM_EFFECTIVE_ROTOR_COUNT>
1

> <PUBCHEM_PHARMACOPHORE_FEATURES>
3
1 6 donor
6 7 9 10 13 14 17 rings
6 8 11 12 15 16 18 rings

> <PUBCHEM_HEAVY_ATOM_COUNT>
18

> <PUBCHEM_ATOM_DEF_STEREO_COUNT>
0

> <PUBCHEM_ATOM_UDEF_STEREO_COUNT>
0

> <PUBCHEM_BOND_DEF_STEREO_COUNT>
0

> <PUBCHEM_BOND_UDEF_STEREO_COUNT>
0

> <PUBCHEM_ISOTOPIC_ATOM_COUNT>
0

> <PUBCHEM_COMPONENT_COUNT>
1

> <PUBCHEM_CACTVS_TAUTO_COUNT>
3

> <PUBCHEM_CONFORMER_ID>
0009D45500000001

> <PUBCHEM_MMFF94_ENERGY>
52.2042

> <PUBCHEM_FEATURE_SELFOVERLAP>
15.223

> <PUBCHEM_SHAPE_FINGERPRINT>
10498660 4 18339076102920631557
10646746 165 18334576875342770656
11132069 177 18333455330801739553
11725454 13 17098377256499855906
12236239 1 17704070685674973350
12403259 415 17894912935987884608
12403814 3 17346598603925559517
12500047 106 18334576841410475718
12633257 1 18116169795728611578
12670546 56 17489873738767605380
13140716 1 18194956337058166499
13538477 17 17988641826910571394
13581323 91 18342179963989258574
13862211 1 18339364068194325955
14178342 30 18338797943969701937
15042514 8 18267858381532928867
15219456 202 17530967977402753792
15375358 24 17895202107540734336
15375462 189 17703509909033136560
16752209 62 18412825776660259343
16945 1 18411132516322204575
18175812 5 17603585184246679700
18186145 218 17749103417689202411
19049666 15 17822845523913044286
200 152 16271931493323950189
20028762 73 17971465201313987071
20279233 1 17821721724029120174
20510252 161 18334288794996645697
20600515 1 18265066738130140777
20645476 183 17560232523011341131
20645477 70 15123523514045628362
21267235 1 18342726404025181559
23175994 123 17022890251419720840
2334 1 17762332523337384375
23366157 5 17843115076627496347
23402539 116 18335141989985907949
23419403 2 16816639307711032637
23526113 38 17314782117350982806
23557571 272 18260822709072398597
23559900 14 18261668285797356830
2748010 2 18194671799701136879
350125 39 17618776298963326101
4072396 5 18272098210064539515
43471831 8 18341896346030154435
465052 167 17773580647548864579
474 4 16915366698895436684
5104073 3 18337389469321255475
69090 78 17458346312667910615
77492 1 17632295661846253790
81228 2 18263345014685229593
8272917 22 16558757853230485483
90316 7 18130517421396301588

> <PUBCHEM_SHAPE_MULTIPOLES>
373.91
8.57
2.21
1.31
0.37
0.18
-0.3
-1.09
-1.44
-2.26
0.04
2.04
-0.08
0.16

> <PUBCHEM_SHAPE_SELFOVERLAP>
768.529

> <PUBCHEM_SHAPE_VOLUME>
220.2

> <PUBCHEM_COORDINATE_TYPE>
2
5
10

$$$$

