439747
  -OEChem-07051212473D

 19 18  0     1  0  0  0  0  0999 V2000
    2.2359    0.1585    0.0220 P   0  0  0  0  0  0  0  0  0  0  0  0
    0.6766    0.1898   -0.4004 O   0  0  0  0  0  0  0  0  0  0  0  0
    2.7622   -1.2593   -0.5505 O   0  0  0  0  0  0  0  0  0  0  0  0
    2.1668   -0.0878    1.6187 O   0  0  0  0  0  0  0  0  0  0  0  0
   -1.8983    1.6493   -0.8019 O   0  0  0  0  0  0  0  0  0  0  0  0
    3.0339    1.3573   -0.4004 O   0  0  0  0  0  0  0  0  0  0  0  0
   -2.7062    0.7349    1.1150 O   0  0  0  0  0  0  0  0  0  0  0  0
   -2.4352   -1.7649   -0.0857 N   0  0  0  0  0  0  0  0  0  0  0  0
   -1.5672   -0.6755   -0.5296 C   0  0  2  0  0  0  0  0  0  0  0  0
   -0.1439   -0.9145   -0.0334 C   0  0  0  0  0  0  0  0  0  0  0  0
   -2.1246    0.6122    0.0463 C   0  0  0  0  0  0  0  0  0  0  0  0
   -1.5996   -0.6120   -1.6230 H   0  0  0  0  0  0  0  0  0  0  0  0
   -0.1271   -1.0147    1.0578 H   0  0  0  0  0  0  0  0  0  0  0  0
    0.2623   -1.8308   -0.4751 H   0  0  0  0  0  0  0  0  0  0  0  0
   -2.3828   -1.8605    0.9283 H   0  0  0  0  0  0  0  0  0  0  0  0
   -2.0932   -2.6474   -0.4650 H   0  0  0  0  0  0  0  0  0  0  0  0
    3.7142   -1.4808   -0.4672 H   0  0  0  0  0  0  0  0  0  0  0  0
    2.9970   -0.0563    2.1401 H   0  0  0  0  0  0  0  0  0  0  0  0
   -2.2536    2.4932   -0.4501 H   0  0  0  0  0  0  0  0  0  0  0  0
  1  2  1  0  0  0  0
  1  3  1  0  0  0  0
  1  4  1  0  0  0  0
  1  6  2  0  0  0  0
  2 10  1  0  0  0  0
  3 17  1  0  0  0  0
  4 18  1  0  0  0  0
  5 11  1  0  0  0  0
  5 19  1  0  0  0  0
  7 11  2  0  0  0  0
  8  9  1  0  0  0  0
  8 15  1  0  0  0  0
  8 16  1  0  0  0  0
  9 10  1  0  0  0  0
  9 11  1  0  0  0  0
  9 12  1  0  0  0  0
 10 13  1  0  0  0  0
 10 14  1  0  0  0  0
M  END
> <PUBCHEM_COMPOUND_CID>
439747

> <PUBCHEM_CONFORMER_RMSD>
0.6

> <PUBCHEM_CONFORMER_DIVERSEORDER>
1
9
18
11
8
15
14
12
5
13
16
10
3
6
17
2
4
7

> <PUBCHEM_MMFF94_PARTIAL_CHARGES>
16
1 1.51
10 0.28
11 0.66
15 0.36
16 0.36
17 0.5
18 0.5
19 0.5
2 -0.55
3 -0.77
4 -0.77
5 -0.65
6 -0.7
7 -0.57
8 -0.99
9 0.33

> <PUBCHEM_EFFECTIVE_ROTOR_COUNT>
4

> <PUBCHEM_PHARMACOPHORE_FEATURES>
9
1 3 acceptor
1 4 acceptor
1 5 acceptor
1 6 acceptor
1 7 acceptor
1 8 cation
1 8 donor
3 5 7 11 anion
4 1 3 4 6 anion

> <PUBCHEM_HEAVY_ATOM_COUNT>
11

> <PUBCHEM_ATOM_DEF_STEREO_COUNT>
1

> <PUBCHEM_ATOM_UDEF_STEREO_COUNT>
0

> <PUBCHEM_BOND_DEF_STEREO_COUNT>
0

> <PUBCHEM_BOND_UDEF_STEREO_COUNT>
0

> <PUBCHEM_ISOTOPIC_ATOM_COUNT>
0

> <PUBCHEM_COMPONENT_COUNT>
1

> <PUBCHEM_CACTVS_TAUTO_COUNT>
1

> <PUBCHEM_CONFORMER_ID>
0006B5C300000001

> <PUBCHEM_MMFF94_ENERGY>
-22.045

> <PUBCHEM_FEATURE_SELFOVERLAP>
45.763

> <PUBCHEM_SHAPE_FINGERPRINT>
12932741 1 16950567644872205274
12932764 1 17846780732260832382
14325111 11 18408318882629332142
14390081 3 17530690904561728385
15310529 11 18113897113594288358
15775835 57 18412538803851226665
19973954 147 18408322176906223412
20653085 51 18337664325563230801
21028194 46 17968097589832138317
21524375 3 17461151330213093617
23552423 10 18412828001379686558
3248919 1 18335432256892704326
369184 2 17632867420909428937
5084963 1 18334859424077110047
8030462 33 17748832903474208420

> <PUBCHEM_SHAPE_MULTIPOLES>
190.03
4.99
1.52
0.99
1.57
0.07
-0.35
-0.54
-0.27
-0.53
0.27
0.16
-0.13
-0.07

> <PUBCHEM_SHAPE_SELFOVERLAP>
348.781

> <PUBCHEM_SHAPE_VOLUME>
120.7

> <PUBCHEM_COORDINATE_TYPE>
2
5
10

$$$$

