17396517
  -OEChem-06241222573D

 53 56  0     0  0  0  0  0  0999 V2000
    0.1278   -3.0759   -0.6710 S   0  0  0  0  0  0  0  0  0  0  0  0
    0.1602    2.0232   -0.5059 O   0  0  0  0  0  0  0  0  0  0  0  0
   -2.4340    0.2773   -2.9934 O   0  0  0  0  0  0  0  0  0  0  0  0
    4.3472    0.8152    0.5828 N   0  0  0  0  0  0  0  0  0  0  0  0
    2.2476    0.1546    0.1847 N   0  0  0  0  0  0  0  0  0  0  0  0
   -0.5088   -0.1529   -1.7746 N   0  0  0  0  0  0  0  0  0  0  0  0
    2.2680    1.4790    0.5423 C   0  0  0  0  0  0  0  0  0  0  0  0
    3.5068   -0.2317    0.2134 C   0  0  0  0  0  0  0  0  0  0  0  0
    1.0184    2.2510    0.6180 C   0  0  0  0  0  0  0  0  0  0  0  0
    3.5493    1.9105    0.7926 C   0  0  0  0  0  0  0  0  0  0  0  0
   -2.1270    1.4986   -1.0154 C   0  0  0  0  0  0  0  0  0  0  0  0
   -1.1747    2.2262   -0.3016 C   0  0  0  0  0  0  0  0  0  0  0  0
    0.0372   -1.1477   -2.6695 C   0  0  0  0  0  0  0  0  0  0  0  0
    5.7291    0.6910    0.6951 C   0  0  0  0  0  0  0  0  0  0  0  0
    4.1207   -1.4893   -0.0603 C   0  0  0  0  0  0  0  0  0  0  0  0
   -0.4103   -2.5631   -2.3309 C   0  0  0  0  0  0  0  0  0  0  0  0
   -1.7242    0.5026   -1.9984 C   0  0  0  0  0  0  0  0  0  0  0  0
   -3.4858    1.7199   -0.7908 C   0  0  0  0  0  0  0  0  0  0  0  0
   -1.5813    3.1751    0.6366 C   0  0  0  0  0  0  0  0  0  0  0  0
    6.2998   -0.4969    0.4366 C   0  0  0  0  0  0  0  0  0  0  0  0
    5.4574   -1.6164    0.0466 C   0  0  0  0  0  0  0  0  0  0  0  0
   -1.2568   -2.5421    0.3279 C   0  0  0  0  0  0  0  0  0  0  0  0
   -3.8923    2.6688    0.1475 C   0  0  0  0  0  0  0  0  0  0  0  0
   -2.9400    3.3963    0.8612 C   0  0  0  0  0  0  0  0  0  0  0  0
   -3.4165   -1.7089    1.8847 C   0  0  0  0  0  0  0  0  0  0  0  0
   -2.5310   -3.0542    0.0841 C   0  0  0  0  0  0  0  0  0  0  0  0
   -1.0623   -1.6130    1.3502 C   0  0  0  0  0  0  0  0  0  0  0  0
   -3.6108   -2.6378    0.8624 C   0  0  0  0  0  0  0  0  0  0  0  0
   -2.1423   -1.1965    2.1287 C   0  0  0  0  0  0  0  0  0  0  0  0
   -4.5713   -1.2630    2.7165 C   0  0  0  0  0  0  0  0  0  0  0  0
    1.2537    3.3215    0.6619 H   0  0  0  0  0  0  0  0  0  0  0  0
    0.5250    1.9548    1.5539 H   0  0  0  0  0  0  0  0  0  0  0  0
    3.9516    2.8689    1.0921 H   0  0  0  0  0  0  0  0  0  0  0  0
    1.1288   -1.0617   -2.6238 H   0  0  0  0  0  0  0  0  0  0  0  0
   -0.2673   -0.9055   -3.6937 H   0  0  0  0  0  0  0  0  0  0  0  0
    6.2968    1.5651    0.9897 H   0  0  0  0  0  0  0  0  0  0  0  0
    3.5038   -2.3313   -0.3528 H   0  0  0  0  0  0  0  0  0  0  0  0
   -1.4940   -2.6634   -2.4434 H   0  0  0  0  0  0  0  0  0  0  0  0
    0.0470   -3.2553   -3.0459 H   0  0  0  0  0  0  0  0  0  0  0  0
    0.0207    0.0445   -0.9319 H   0  0  0  0  0  0  0  0  0  0  0  0
   -4.2440    1.1592   -1.3315 H   0  0  0  0  0  0  0  0  0  0  0  0
   -0.8798    3.7860    1.1961 H   0  0  0  0  0  0  0  0  0  0  0  0
    7.3702   -0.6455    0.5097 H   0  0  0  0  0  0  0  0  0  0  0  0
    5.9425   -2.5648   -0.1578 H   0  0  0  0  0  0  0  0  0  0  0  0
   -4.9502    2.8406    0.3230 H   0  0  0  0  0  0  0  0  0  0  0  0
   -3.2573    4.1389    1.5874 H   0  0  0  0  0  0  0  0  0  0  0  0
   -2.7050   -3.7874   -0.6995 H   0  0  0  0  0  0  0  0  0  0  0  0
   -0.0770   -1.2018    1.5544 H   0  0  0  0  0  0  0  0  0  0  0  0
   -4.5980   -3.0471    0.6649 H   0  0  0  0  0  0  0  0  0  0  0  0
   -1.9785   -0.4717    2.9217 H   0  0  0  0  0  0  0  0  0  0  0  0
   -5.5117   -1.3307    2.1590 H   0  0  0  0  0  0  0  0  0  0  0  0
   -4.4550   -0.2173    3.0214 H   0  0  0  0  0  0  0  0  0  0  0  0
   -4.6508   -1.8849    3.6136 H   0  0  0  0  0  0  0  0  0  0  0  0
  1 16  1  0  0  0  0
  1 22  1  0  0  0  0
  2  9  1  0  0  0  0
  2 12  1  0  0  0  0
  3 17  2  0  0  0  0
  4  8  1  0  0  0  0
  4 10  1  0  0  0  0
  4 14  1  0  0  0  0
  5  7  1  0  0  0  0
  5  8  2  0  0  0  0
  6 13  1  0  0  0  0
  6 17  1  0  0  0  0
  6 40  1  0  0  0  0
  7  9  1  0  0  0  0
  7 10  2  0  0  0  0
  8 15  1  0  0  0  0
  9 31  1  0  0  0  0
  9 32  1  0  0  0  0
 10 33  1  0  0  0  0
 11 12  1  0  0  0  0
 11 17  1  0  0  0  0
 11 18  2  0  0  0  0
 12 19  2  0  0  0  0
 13 16  1  0  0  0  0
 13 34  1  0  0  0  0
 13 35  1  0  0  0  0
 14 20  2  0  0  0  0
 14 36  1  0  0  0  0
 15 21  2  0  0  0  0
 15 37  1  0  0  0  0
 16 38  1  0  0  0  0
 16 39  1  0  0  0  0
 18 23  1  0  0  0  0
 18 41  1  0  0  0  0
 19 24  1  0  0  0  0
 19 42  1  0  0  0  0
 20 21  1  0  0  0  0
 20 43  1  0  0  0  0
 21 44  1  0  0  0  0
 22 26  2  0  0  0  0
 22 27  1  0  0  0  0
 23 24  2  0  0  0  0
 23 45  1  0  0  0  0
 24 46  1  0  0  0  0
 25 28  2  0  0  0  0
 25 29  1  0  0  0  0
 25 30  1  0  0  0  0
 26 28  1  0  0  0  0
 26 47  1  0  0  0  0
 27 29  2  0  0  0  0
 27 48  1  0  0  0  0
 28 49  1  0  0  0  0
 29 50  1  0  0  0  0
 30 51  1  0  0  0  0
 30 52  1  0  0  0  0
 30 53  1  0  0  0  0
M  END
> <PUBCHEM_COMPOUND_CID>
17396517

> <PUBCHEM_CONFORMER_RMSD>
1.4

> <PUBCHEM_CONFORMER_DIVERSEORDER>
2
74
6
60
113
44
55
101
116
40
94
89
64
38
106
72
35
21
76
97
53
52
90
57
30
115
88
39
50
45
11
68
12
46
112
85
41
108
109
65
59
51
83
14
48
69
86
16
58
114
73
61
107
95
29
34
31
70
17
79
56
87
7
105
8
98
77
103
81
47
110
22
99
24
19
91
93
37
66
27
25
49
71
18
82
33
80
111
84
5
32
54
75
42
4
43
63
26
36
9
92
67
13
62
28
78
23
15
100
10
20
102
96
1
104
3

> <PUBCHEM_MMFF94_PARTIAL_CHARGES>
44
1 -0.33
10 -0.3
11 0.09
12 0.08
13 0.3
14 -0.18
15 -0.11
16 0.23
17 0.54
18 -0.15
19 -0.15
2 -0.36
20 -0.15
21 -0.15
22 0.1
23 -0.15
24 -0.15
25 -0.14
26 -0.15
27 -0.15
28 -0.15
29 -0.15
3 -0.57
30 0.14
33 0.15
36 0.15
37 0.15
4 0.33
40 0.37
41 0.15
42 0.15
43 0.15
44 0.15
45 0.15
46 0.15
47 0.15
48 0.15
49 0.15
5 -0.57
50 0.15
6 -0.73
7 0.05
8 0.14
9 0.46

> <PUBCHEM_EFFECTIVE_ROTOR_COUNT>
9

> <PUBCHEM_PHARMACOPHORE_FEATURES>
8
1 2 acceptor
1 3 acceptor
1 6 donor
3 4 5 8 cation
5 4 5 7 8 10 rings
6 11 12 18 19 23 24 rings
6 22 25 26 27 28 29 rings
6 4 8 14 15 20 21 rings

> <PUBCHEM_HEAVY_ATOM_COUNT>
30

> <PUBCHEM_ATOM_DEF_STEREO_COUNT>
0

> <PUBCHEM_ATOM_UDEF_STEREO_COUNT>
0

> <PUBCHEM_BOND_DEF_STEREO_COUNT>
0

> <PUBCHEM_BOND_UDEF_STEREO_COUNT>
0

> <PUBCHEM_ISOTOPIC_ATOM_COUNT>
0

> <PUBCHEM_COMPONENT_COUNT>
1

> <PUBCHEM_CACTVS_TAUTO_COUNT>
2

> <PUBCHEM_CONFORMER_ID>
0109732500000002

> <PUBCHEM_MMFF94_ENERGY>
75.4372

> <PUBCHEM_FEATURE_SELFOVERLAP>
40.71

> <PUBCHEM_SHAPE_FINGERPRINT>
10010297 198 17837759046024061949
10764073 3 18339066169040564181
107951 10 18127420161897441757
12156800 1 17911762986222586383
12422481 6 18127100101408915017
12597179 24 18263636445612189073
12633257 1 18116975733235601851
13135754 10 18060410300882386419
15444296 121 18338232799736625456
23419403 2 17390470290146270197
238918 7 18187914118957376023
244849 19 17826488231753519911
3383291 50 18262257576189690014
3411729 13 17537999552032227017
35225 105 17915769576619205487
392239 28 18337662127146617417
4058900 60 17555467480382830701
4073 2 18410299134111810680
445580 42 18340507620194761114
469060 322 17250360300712929104
484985 159 18271536337515108259
5080951 261 17986700158828411312
56638632 10 17895194359672810386
9981440 41 18041850643542535365

> <PUBCHEM_SHAPE_MULTIPOLES>
594.55
10.29
4.4
2.31
16.96
0.49
-1.03
-0.35
4.94
-4.26
0.35
-2.79
-1.19
1.86

> <PUBCHEM_SHAPE_SELFOVERLAP>
1275.111

> <PUBCHEM_SHAPE_VOLUME>
329.6

> <PUBCHEM_COORDINATE_TYPE>
2
5
10

$$$$

