443613
  -OEChem-07051213023D

 52 54  0     1  0  0  0  0  0999 V2000
    3.3265   -1.3836    1.8214 O   0  0  0  0  0  0  0  0  0  0  0  0
    4.6767   -1.8608    0.0480 O   0  0  0  0  0  0  0  0  0  0  0  0
    0.6511    0.9511   -0.3438 C   0  0  2  0  0  0  0  0  0  0  0  0
    1.5978   -0.2775   -0.0831 C   0  0  2  0  0  0  0  0  0  0  0  0
    3.1306    0.0143   -0.0751 C   0  0  2  0  0  0  0  0  0  0  0  0
    1.0625    2.0758    0.6417 C   0  0  0  0  0  0  0  0  0  0  0  0
    1.1809   -1.4680   -0.9632 C   0  0  0  0  0  0  0  0  0  0  0  0
   -0.8127    0.5008   -0.1299 C   0  0  0  0  0  0  0  0  0  0  0  0
    3.4360    1.2262    0.8326 C   0  0  0  0  0  0  0  0  0  0  0  0
    2.5466    2.4338    0.5663 C   0  0  0  0  0  0  0  0  0  0  0  0
   -0.2443   -1.9114   -0.6226 C   0  0  0  0  0  0  0  0  0  0  0  0
   -1.1886   -0.7914   -0.2627 C   0  0  0  0  0  0  0  0  0  0  0  0
    0.6999    1.4973   -1.7907 C   0  0  0  0  0  0  0  0  0  0  0  0
   -1.8428    1.5571    0.2285 C   0  0  0  0  0  0  0  0  0  0  0  0
    3.7866    0.1864   -1.4517 C   0  0  0  0  0  0  0  0  0  0  0  0
    3.8113   -1.1760    0.5727 C   0  0  0  0  0  0  0  0  0  0  0  0
   -3.3067    1.1604   -0.0202 C   0  0  0  0  0  0  0  0  0  0  0  0
   -2.5630   -1.1997   -0.0274 C   0  0  0  0  0  0  0  0  0  0  0  0
   -3.5682   -0.3165    0.0793 C   0  0  0  0  0  0  0  0  0  0  0  0
   -4.9924   -0.7399    0.2746 C   0  0  0  0  0  0  0  0  0  0  0  0
   -5.5275   -0.2018    1.5979 C   0  0  0  0  0  0  0  0  0  0  0  0
   -5.8604   -0.2767   -0.8924 C   0  0  0  0  0  0  0  0  0  0  0  0
    1.3498   -0.5862    0.9460 H   0  0  0  0  0  0  0  0  0  0  0  0
    0.8282    1.7694    1.6703 H   0  0  0  0  0  0  0  0  0  0  0  0
    0.4855    2.9895    0.4533 H   0  0  0  0  0  0  0  0  0  0  0  0
    1.8493   -2.3242   -0.8162 H   0  0  0  0  0  0  0  0  0  0  0  0
    1.2459   -1.2147   -2.0265 H   0  0  0  0  0  0  0  0  0  0  0  0
    4.4880    1.5226    0.7261 H   0  0  0  0  0  0  0  0  0  0  0  0
    3.3157    0.9711    1.8934 H   0  0  0  0  0  0  0  0  0  0  0  0
    2.7890    2.8749   -0.4060 H   0  0  0  0  0  0  0  0  0  0  0  0
    2.7641    3.2083    1.3119 H   0  0  0  0  0  0  0  0  0  0  0  0
   -0.1935   -2.6029    0.2295 H   0  0  0  0  0  0  0  0  0  0  0  0
   -0.6417   -2.4840   -1.4701 H   0  0  0  0  0  0  0  0  0  0  0  0
    0.4371    0.7379   -2.5340 H   0  0  0  0  0  0  0  0  0  0  0  0
   -0.0120    2.3210   -1.9255 H   0  0  0  0  0  0  0  0  0  0  0  0
    1.6700    1.9065   -2.0653 H   0  0  0  0  0  0  0  0  0  0  0  0
   -1.7205    1.7982    1.2927 H   0  0  0  0  0  0  0  0  0  0  0  0
   -1.6559    2.4831   -0.3267 H   0  0  0  0  0  0  0  0  0  0  0  0
    3.5503   -0.6436   -2.1257 H   0  0  0  0  0  0  0  0  0  0  0  0
    3.5000    1.1141   -1.9456 H   0  0  0  0  0  0  0  0  0  0  0  0
    4.8806    0.2240   -1.3683 H   0  0  0  0  0  0  0  0  0  0  0  0
   -3.5899    1.4910   -1.0282 H   0  0  0  0  0  0  0  0  0  0  0  0
   -3.9220    1.7354    0.6782 H   0  0  0  0  0  0  0  0  0  0  0  0
   -2.7616   -2.2658    0.0389 H   0  0  0  0  0  0  0  0  0  0  0  0
   -5.0481   -1.8359    0.3157 H   0  0  0  0  0  0  0  0  0  0  0  0
    3.7533   -2.1518    2.2570 H   0  0  0  0  0  0  0  0  0  0  0  0
   -5.6928    0.8803    1.5820 H   0  0  0  0  0  0  0  0  0  0  0  0
   -4.8518   -0.4349    2.4286 H   0  0  0  0  0  0  0  0  0  0  0  0
   -6.4951   -0.6644    1.8247 H   0  0  0  0  0  0  0  0  0  0  0  0
   -5.4608   -0.6325   -1.8487 H   0  0  0  0  0  0  0  0  0  0  0  0
   -5.9417    0.8147   -0.9431 H   0  0  0  0  0  0  0  0  0  0  0  0
   -6.8765   -0.6740   -0.7908 H   0  0  0  0  0  0  0  0  0  0  0  0
  1 16  1  0  0  0  0
  1 46  1  0  0  0  0
  2 16  2  0  0  0  0
  3  4  1  0  0  0  0
  3  6  1  0  0  0  0
  3  8  1  0  0  0  0
  3 13  1  0  0  0  0
  4  5  1  0  0  0  0
  4  7  1  0  0  0  0
  4 23  1  0  0  0  0
  5  9  1  0  0  0  0
  5 15  1  0  0  0  0
  5 16  1  0  0  0  0
  6 10  1  0  0  0  0
  6 24  1  0  0  0  0
  6 25  1  0  0  0  0
  7 11  1  0  0  0  0
  7 26  1  0  0  0  0
  7 27  1  0  0  0  0
  8 12  2  0  0  0  0
  8 14  1  0  0  0  0
  9 10  1  0  0  0  0
  9 28  1  0  0  0  0
  9 29  1  0  0  0  0
 10 30  1  0  0  0  0
 10 31  1  0  0  0  0
 11 12  1  0  0  0  0
 11 32  1  0  0  0  0
 11 33  1  0  0  0  0
 12 18  1  0  0  0  0
 13 34  1  0  0  0  0
 13 35  1  0  0  0  0
 13 36  1  0  0  0  0
 14 17  1  0  0  0  0
 14 37  1  0  0  0  0
 14 38  1  0  0  0  0
 15 39  1  0  0  0  0
 15 40  1  0  0  0  0
 15 41  1  0  0  0  0
 17 19  1  0  0  0  0
 17 42  1  0  0  0  0
 17 43  1  0  0  0  0
 18 19  2  0  0  0  0
 18 44  1  0  0  0  0
 19 20  1  0  0  0  0
 20 21  1  0  0  0  0
 20 22  1  0  0  0  0
 20 45  1  0  0  0  0
 21 47  1  0  0  0  0
 21 48  1  0  0  0  0
 21 49  1  0  0  0  0
 22 50  1  0  0  0  0
 22 51  1  0  0  0  0
 22 52  1  0  0  0  0
M  END
> <PUBCHEM_COMPOUND_CID>
443613

> <PUBCHEM_CONFORMER_RMSD>
0.6

> <PUBCHEM_CONFORMER_DIVERSEORDER>
1
3
2
4

> <PUBCHEM_MMFF94_PARTIAL_CHARGES>
15
1 -0.65
11 0.14
12 -0.14
14 0.14
16 0.66
17 0.14
18 -0.15
19 -0.28
2 -0.57
20 0.14
3 0.14
44 0.15
46 0.5
5 0.06
8 -0.28

> <PUBCHEM_EFFECTIVE_ROTOR_COUNT>
3.6

> <PUBCHEM_PHARMACOPHORE_FEATURES>
7
1 1 acceptor
1 2 acceptor
3 1 2 16 anion
3 20 21 22 hydrophobe
6 3 4 5 6 9 10 rings
6 3 4 7 8 11 12 rings
6 8 12 14 17 18 19 rings

> <PUBCHEM_HEAVY_ATOM_COUNT>
22

> <PUBCHEM_ATOM_DEF_STEREO_COUNT>
3

> <PUBCHEM_ATOM_UDEF_STEREO_COUNT>
0

> <PUBCHEM_BOND_DEF_STEREO_COUNT>
0

> <PUBCHEM_BOND_UDEF_STEREO_COUNT>
0

> <PUBCHEM_ISOTOPIC_ATOM_COUNT>
0

> <PUBCHEM_COMPONENT_COUNT>
1

> <PUBCHEM_CACTVS_TAUTO_COUNT>
1

> <PUBCHEM_CONFORMER_ID>
0006C4DD00000001

> <PUBCHEM_MMFF94_ENERGY>
60.9807

> <PUBCHEM_FEATURE_SELFOVERLAP>
35.61

> <PUBCHEM_SHAPE_FINGERPRINT>
10366900 7 18411689985380287771
11578080 2 17987540215672016564
11796584 16 16558753408229289955
12011746 2 18408316679574756252
12236239 1 18131064974503259862
12251169 10 18335991891389667026
12403259 226 18337961185002539124
12403259 415 18410576184607860213
12403260 363 18260833704705608393
12507560 14 18113339704095911608
12507560 40 18410863156768078729
12592029 89 18334851736339221755
12633257 1 18260264148950009195
12644460 14 18410569544398165960
12788726 201 17822279197984018928
13140716 1 18262800640491763027
13533116 47 18272937141457421035
13583140 156 17916886654699872567
13675066 3 18202284654813053521
13862211 1 18335142003287924223
13911852 28 18121504810741516206
14178342 30 17897719005668414097
14341114 176 18273207587015760835
14341114 328 17312812767672057537
15196674 1 18408324401820757841
15536298 74 18187927235644949669
15788980 27 17847062173479321167
1601671 61 18334286600130928014
16945 1 18260271866932185862
17349148 13 18334575737724868527
17804303 29 18410572920068283068
17862501 102 18260551130195924083
1813 80 17346604079708187980
200 152 18040722459388363269
20028762 73 17967259676104934055
20645477 70 18410015416075234382
20691752 17 17987534610369779830
20739085 24 18338221713676961273
21033648 29 18270981076144087725
21267235 1 18410284848338570102
21637258 2 16630254696601894602
22182313 1 18044091487016130471
23184049 59 18409451358125810695
23402539 116 18187089468742145981
23557571 272 16081076087637202217
23558518 356 17471022375823327932
23559900 14 17822563920171763108
2838139 119 4967024567738667354
31174 14 18339935844031123540
3286 77 18411142458712656372
335352 9 18334857225143577735
3411729 13 18189622640395960760
34797466 226 14129617689184917113
34934 24 18116719508819951872
350125 39 18409442605199239389
351380 180 18335707135094949899
4072396 5 18336554897167503439
465052 167 18341607118389340123
5104073 3 18261951843775411475
5374978 207 18408326574831298425
633830 44 17749385936548759501
69090 78 18114184090766866631
8509985 295 18187367601670038361

> <PUBCHEM_SHAPE_MULTIPOLES>
441.01
10.5
2.14
1.28
11.03
0.4
0.02
-2.41
-2.06
-1.76
-0.15
-0.31
0.02
-0.19

> <PUBCHEM_SHAPE_SELFOVERLAP>
930.306

> <PUBCHEM_SHAPE_VOLUME>
245.9

> <PUBCHEM_COORDINATE_TYPE>
2
5
10

$$$$

