169419
  -OEChem-07051212592D

 72 76  0     1  0  0  0  0  0999 V2000
    6.0010    2.1550    0.0000 O   0  0  0  0  0  0  0  0  0  0  0  0
    5.1350   -2.3450    0.0000 O   0  0  0  0  0  0  0  0  0  0  0  0
    8.5991    1.6550    0.0000 O   0  0  0  0  0  0  0  0  0  0  0  0
    4.2690    0.1550    0.0000 O   0  0  0  0  0  0  0  0  0  0  0  0
    8.5991    3.6550    0.0000 O   0  0  0  0  0  0  0  0  0  0  0  0
    2.5369   -0.8450    0.0000 O   0  0  0  0  0  0  0  0  0  0  0  0
    6.8671    4.6550    0.0000 O   0  0  0  0  0  0  0  0  0  0  0  0
    2.5369   -2.8450    0.0000 O   0  0  0  0  0  0  0  0  0  0  0  0
    8.6270    0.6897    0.0000 O   0  0  0  0  0  0  0  0  0  0  0  0
    5.1350    0.6550    0.0000 O   0  0  0  0  0  0  0  0  0  0  0  0
    6.8671   -2.3450    0.0000 O   0  0  0  0  0  0  0  0  0  0  0  0
    5.1350    4.6550    0.0000 O   0  0  0  0  0  0  0  0  0  0  0  0
    3.4030   -4.3450    0.0000 O   0  0  0  0  0  0  0  0  0  0  0  0
    8.6155   -2.3796    0.0000 O   0  0  0  0  0  0  0  0  0  0  0  0
   12.9895   -2.8792    0.0000 O   0  0  0  0  0  0  0  0  0  0  0  0
    6.8671    1.6550    0.0000 C   0  0  2  0  0  0  0  0  0  0  0  0
    5.1350   -1.3450    0.0000 C   0  0  2  0  0  0  0  0  0  0  0  0
    7.7331    2.1550    0.0000 C   0  0  1  0  0  0  0  0  0  0  0  0
    4.2690   -0.8450    0.0000 C   0  0  1  0  0  0  0  0  0  0  0  0
    7.7331    3.1550    0.0000 C   0  0  2  0  0  0  0  0  0  0  0  0
    3.4030   -1.3450    0.0000 C   0  0  2  0  0  0  0  0  0  0  0  0
    6.8671    3.6550    0.0000 C   0  0  1  0  0  0  0  0  0  0  0  0
    3.4030   -2.3450    0.0000 C   0  0  1  0  0  0  0  0  0  0  0  0
    6.0010    3.1550    0.0000 C   0  0  1  0  0  0  0  0  0  0  0  0
    4.2690   -2.8450    0.0000 C   0  0  1  0  0  0  0  0  0  0  0  0
    6.8671    0.6550    0.0000 C   0  0  0  0  0  0  0  0  0  0  0  0
    6.0010   -0.8450    0.0000 C   0  0  0  0  0  0  0  0  0  0  0  0
    6.0010    0.1550    0.0000 C   0  0  0  0  0  0  0  0  0  0  0  0
    7.7331    0.1550    0.0000 C   0  0  0  0  0  0  0  0  0  0  0  0
    6.8671   -1.3450    0.0000 C   0  0  0  0  0  0  0  0  0  0  0  0
    7.7331   -0.8450    0.0000 C   0  0  0  0  0  0  0  0  0  0  0  0
    5.1350    3.6550    0.0000 C   0  0  0  0  0  0  0  0  0  0  0  0
    4.2690   -3.8450    0.0000 C   0  0  0  0  0  0  0  0  0  0  0  0
    8.6270   -1.3797    0.0000 C   0  0  0  0  0  0  0  0  0  0  0  0
    9.5331   -0.8658    0.0000 C   0  0  0  0  0  0  0  0  0  0  0  0
    9.5331    0.1758    0.0000 C   0  0  0  0  0  0  0  0  0  0  0  0
   10.3972   -1.3692    0.0000 C   0  0  0  0  0  0  0  0  0  0  0  0
   10.3933   -2.3691    0.0000 C   0  0  0  0  0  0  0  0  0  0  0  0
   11.2651   -0.8725    0.0000 C   0  0  0  0  0  0  0  0  0  0  0  0
   11.2574   -2.8725    0.0000 C   0  0  0  0  0  0  0  0  0  0  0  0
   12.1292   -1.3758    0.0000 C   0  0  0  0  0  0  0  0  0  0  0  0
   12.1254   -2.3758    0.0000 C   0  0  0  0  0  0  0  0  0  0  0  0
    6.1309    1.2300    0.0000 H   0  0  0  0  0  0  0  0  0  0  0  0
    5.1350   -0.4950    0.0000 H   0  0  0  0  0  0  0  0  0  0  0  0
    7.7331    1.5350    0.0000 H   0  0  0  0  0  0  0  0  0  0  0  0
    4.8059   -0.5350    0.0000 H   0  0  0  0  0  0  0  0  0  0  0  0
    7.7331    3.7750    0.0000 H   0  0  0  0  0  0  0  0  0  0  0  0
    3.4030   -0.7250    0.0000 H   0  0  0  0  0  0  0  0  0  0  0  0
    6.3301    3.9650    0.0000 H   0  0  0  0  0  0  0  0  0  0  0  0
    3.4030   -2.9650    0.0000 H   0  0  0  0  0  0  0  0  0  0  0  0
    5.4641    2.8450    0.0000 H   0  0  0  0  0  0  0  0  0  0  0  0
    4.8059   -3.1550    0.0000 H   0  0  0  0  0  0  0  0  0  0  0  0
    4.5244    3.7627    0.0000 H   0  0  0  0  0  0  0  0  0  0  0  0
    4.9230    3.0724    0.0000 H   0  0  0  0  0  0  0  0  0  0  0  0
    4.4810   -4.4276    0.0000 H   0  0  0  0  0  0  0  0  0  0  0  0
    4.8796   -3.7373    0.0000 H   0  0  0  0  0  0  0  0  0  0  0  0
    9.1360    1.9650    0.0000 H   0  0  0  0  0  0  0  0  0  0  0  0
    3.7320    0.4650    0.0000 H   0  0  0  0  0  0  0  0  0  0  0  0
    8.5991    4.2750    0.0000 H   0  0  0  0  0  0  0  0  0  0  0  0
    2.0000   -1.1550    0.0000 H   0  0  0  0  0  0  0  0  0  0  0  0
    7.4040    4.9650    0.0000 H   0  0  0  0  0  0  0  0  0  0  0  0
    2.0000   -2.5350    0.0000 H   0  0  0  0  0  0  0  0  0  0  0  0
    5.1350    1.2750    0.0000 H   0  0  0  0  0  0  0  0  0  0  0  0
    7.4040   -2.6550    0.0000 H   0  0  0  0  0  0  0  0  0  0  0  0
   10.0688    0.4879    0.0000 H   0  0  0  0  0  0  0  0  0  0  0  0
    4.5981    4.9650    0.0000 H   0  0  0  0  0  0  0  0  0  0  0  0
    3.4030   -4.9650    0.0000 H   0  0  0  0  0  0  0  0  0  0  0  0
    9.8552   -2.6771    0.0000 H   0  0  0  0  0  0  0  0  0  0  0  0
   11.2675   -0.2525    0.0000 H   0  0  0  0  0  0  0  0  0  0  0  0
   11.2550   -3.4925    0.0000 H   0  0  0  0  0  0  0  0  0  0  0  0
   12.6674   -1.0679    0.0000 H   0  0  0  0  0  0  0  0  0  0  0  0
   13.5276   -2.5712    0.0000 H   0  0  0  0  0  0  0  0  0  0  0  0
  1 16  1  0  0  0  0
  1 24  1  0  0  0  0
  2 17  1  0  0  0  0
  2 25  1  0  0  0  0
 18  3  1  1  0  0  0
  3 57  1  0  0  0  0
 19  4  1  1  0  0  0
  4 58  1  0  0  0  0
 20  5  1  6  0  0  0
  5 59  1  0  0  0  0
 21  6  1  6  0  0  0
  6 60  1  0  0  0  0
 22  7  1  1  0  0  0
  7 61  1  0  0  0  0
 23  8  1  1  0  0  0
  8 62  1  0  0  0  0
  9 29  1  0  0  0  0
  9 36  1  0  0  0  0
 10 28  1  0  0  0  0
 10 63  1  0  0  0  0
 11 30  1  0  0  0  0
 11 64  1  0  0  0  0
 12 32  1  0  0  0  0
 12 66  1  0  0  0  0
 13 33  1  0  0  0  0
 13 67  1  0  0  0  0
 14 34  2  0  0  0  0
 15 42  1  0  0  0  0
 15 72  1  0  0  0  0
 16 18  1  0  0  0  0
 16 26  1  0  0  0  0
 16 43  1  1  0  0  0
 17 19  1  0  0  0  0
 17 27  1  0  0  0  0
 17 44  1  1  0  0  0
 18 20  1  0  0  0  0
 18 45  1  0  0  0  0
 19 21  1  0  0  0  0
 19 46  1  0  0  0  0
 20 22  1  0  0  0  0
 20 47  1  0  0  0  0
 21 23  1  0  0  0  0
 21 48  1  0  0  0  0
 22 24  1  0  0  0  0
 22 49  1  0  0  0  0
 23 25  1  0  0  0  0
 23 50  1  0  0  0  0
 24 32  1  6  0  0  0
 24 51  1  0  0  0  0
 25 33  1  6  0  0  0
 25 52  1  0  0  0  0
 26 28  1  0  0  0  0
 26 29  2  0  0  0  0
 27 28  2  0  0  0  0
 27 30  1  0  0  0  0
 29 31  1  0  0  0  0
 30 31  2  0  0  0  0
 31 34  1  0  0  0  0
 32 53  1  0  0  0  0
 32 54  1  0  0  0  0
 33 55  1  0  0  0  0
 33 56  1  0  0  0  0
 34 35  1  0  0  0  0
 35 36  2  0  0  0  0
 35 37  1  0  0  0  0
 36 65  1  0  0  0  0
 37 38  2  0  0  0  0
 37 39  1  0  0  0  0
 38 40  1  0  0  0  0
 38 68  1  0  0  0  0
 39 41  2  0  0  0  0
 39 69  1  0  0  0  0
 40 42  2  0  0  0  0
 40 70  1  0  0  0  0
 41 42  1  0  0  0  0
 41 71  1  0  0  0  0
M  END
> <PUBCHEM_COMPOUND_CID>
169419

> <PUBCHEM_COMPOUND_CANONICALIZED>
1

> <PUBCHEM_CACTVS_COMPLEXITY>
987

> <PUBCHEM_CACTVS_HBOND_ACCEPTOR>
15

> <PUBCHEM_CACTVS_HBOND_DONOR>
11

> <PUBCHEM_CACTVS_ROTATABLE_BOND>
5

> <PUBCHEM_CACTVS_SUBSKEYS>
AAADceB4PAAAAAAAAAAAAAAAAAAAAAAAAAA0aIECAAAAAACBQAAAGgAACAAADBSgmAIwBoAABgCIAqBSAAACCAAkIAAIiAEGCMgNNzaGNRqCcWAl4BULuYfI7PzOIAACCAAIAABAAAQQABAAAAAAAAAAAA==

> <PUBCHEM_IUPAC_OPENEYE_NAME>
5,7-dihydroxy-3-(4-hydroxyphenyl)-6,8-bis[(2S,3R,4R,5S,6R)-3,4,5-trihydroxy-6-(hydroxymethyl)tetrahydropyran-2-yl]chromen-4-one

> <PUBCHEM_IUPAC_CAS_NAME>
5,7-dihydroxy-3-(4-hydroxyphenyl)-6,8-bis[(2S,3R,4R,5S,6R)-3,4,5-trihydroxy-6-(hydroxymethyl)-2-oxanyl]-1-benzopyran-4-one

> <PUBCHEM_IUPAC_NAME>
5,7-dihydroxy-3-(4-hydroxyphenyl)-6,8-bis[(2S,3R,4R,5S,6R)-3,4,5-trihydroxy-6-(hydroxymethyl)oxan-2-yl]chromen-4-one

> <PUBCHEM_IUPAC_SYSTEMATIC_NAME>
6,8-bis[(2S,3R,4R,5S,6R)-6-(hydroxymethyl)-3,4,5-tris(oxidanyl)oxan-2-yl]-3-(4-hydroxyphenyl)-5,7-bis(oxidanyl)chromen-4-one

> <PUBCHEM_IUPAC_TRADITIONAL_NAME>
5,7-dihydroxy-3-(4-hydroxyphenyl)-6,8-bis[(2S,3R,4R,5S,6R)-3,4,5-trihydroxy-6-methylol-tetrahydropyran-2-yl]chromone

> <PUBCHEM_IUPAC_INCHI>
InChI=1S/C27H30O15/c28-5-11-17(32)21(36)23(38)26(41-11)14-19(34)13-16(31)10(8-1-3-9(30)4-2-8)7-40-25(13)15(20(14)35)27-24(39)22(37)18(33)12(6-29)42-27/h1-4,7,11-12,17-18,21-24,26-30,32-39H,5-6H2/t11-,12-,17-,18-,21+,22+,23-,24-,26+,27+/m1/s1

> <PUBCHEM_IUPAC_INCHIKEY>
ISNRVVKKHPECQN-BOLWDHOCSA-N

> <PUBCHEM_XLOGP3_AA>
-2.3

> <PUBCHEM_EXACT_MASS>
594.15847

> <PUBCHEM_MOLECULAR_FORMULA>
C27H30O15

> <PUBCHEM_MOLECULAR_WEIGHT>
594.5181

> <PUBCHEM_OPENEYE_CAN_SMILES>
C1=CC(=CC=C1C2=COC3=C(C2=O)C(=C(C(=C3C4C(C(C(C(O4)CO)O)O)O)O)C5C(C(C(C(O5)CO)O)O)O)O)O

> <PUBCHEM_OPENEYE_ISO_SMILES>
C1=CC(=CC=C1C2=COC3=C(C2=O)C(=C(C(=C3[C@H]4[C@@H]([C@H]([C@@H]([C@H](O4)CO)O)O)O)O)[C@H]5[C@@H]([C@H]([C@@H]([C@H](O5)CO)O)O)O)O)O

> <PUBCHEM_CACTVS_TPSA>
267

> <PUBCHEM_MONOISOTOPIC_WEIGHT>
594.15847

> <PUBCHEM_TOTAL_CHARGE>
0

> <PUBCHEM_HEAVY_ATOM_COUNT>
42

> <PUBCHEM_ATOM_DEF_STEREO_COUNT>
10

> <PUBCHEM_ATOM_UDEF_STEREO_COUNT>
0

> <PUBCHEM_BOND_DEF_STEREO_COUNT>
0

> <PUBCHEM_BOND_UDEF_STEREO_COUNT>
0

> <PUBCHEM_ISOTOPIC_ATOM_COUNT>
0

> <PUBCHEM_COMPONENT_COUNT>
1

> <PUBCHEM_CACTVS_TAUTO_COUNT>
24

> <PUBCHEM_COORDINATE_TYPE>
1
5
255

> <PUBCHEM_BONDANNOTATIONS>
16  43  5
17  44  5
24  32  6
25  33  6
26  28  8
26  29  8
27  28  8
27  30  8
29  31  8
18  3  5
30  31  8
31  34  8
34  35  8
35  36  8
37  38  8
37  39  8
38  40  8
39  41  8
19  4  5
40  42  8
41  42  8
20  5  6
21  6  6
22  7  5
23  8  5
9  29  8
9  36  8

$$$$

