17395699
  -OEChem-06241222513D

 38 39  0     0  0  0  0  0  0999 V2000
    2.7500   -0.5453   -1.1253 S   0  0  0  0  0  0  0  0  0  0  0  0
    5.6904   -0.3477   -1.9176 S   0  0  0  0  0  0  0  0  0  0  0  0
   -5.9712   -0.6963   -0.1364 O   0  0  0  0  0  0  0  0  0  0  0  0
   -0.0058   -1.7349    0.4630 O   0  0  0  0  0  0  0  0  0  0  0  0
   -4.3402   -2.3008    0.1173 O   0  0  0  0  0  0  0  0  0  0  0  0
   -0.1221    0.6077    0.2694 N   0  0  0  0  0  0  0  0  0  0  0  0
    4.8567   -0.2426    0.5270 N   0  0  0  0  0  0  0  0  0  0  0  0
   -1.4907    0.8547    0.1345 C   0  0  0  0  0  0  0  0  0  0  0  0
   -1.9721    2.1569   -0.0007 C   0  0  0  0  0  0  0  0  0  0  0  0
   -2.3792   -0.2207    0.1353 C   0  0  0  0  0  0  0  0  0  0  0  0
   -3.7489    0.0060    0.0007 C   0  0  0  0  0  0  0  0  0  0  0  0
   -3.3418    2.3836   -0.1350 C   0  0  0  0  0  0  0  0  0  0  0  0
   -4.2303    1.3082   -0.1345 C   0  0  0  0  0  0  0  0  0  0  0  0
   -1.0435    3.3276   -0.0045 C   0  0  0  0  0  0  0  0  0  0  0  0
    0.5233   -0.6275    0.4130 C   0  0  0  0  0  0  0  0  0  0  0  0
    2.0260   -0.4883    0.5319 C   0  0  0  0  0  0  0  0  0  0  0  0
   -4.6758   -1.1144    0.0028 C   0  0  0  0  0  0  0  0  0  0  0  0
    4.4612   -0.3672   -0.7203 C   0  0  0  0  0  0  0  0  0  0  0  0
    6.2326   -0.1221    0.5491 C   0  0  0  0  0  0  0  0  0  0  0  0
    6.8604   -0.1567   -0.6783 C   0  0  0  0  0  0  0  0  0  0  0  0
    6.9021    0.0306    1.8560 C   0  0  0  0  0  0  0  0  0  0  0  0
   -6.9811   -1.7109   -0.1475 C   0  0  0  0  0  0  0  0  0  0  0  0
   -2.0677   -1.2497    0.2348 H   0  0  0  0  0  0  0  0  0  0  0  0
   -3.7336    3.3919   -0.2412 H   0  0  0  0  0  0  0  0  0  0  0  0
    0.4814    1.4251    0.2533 H   0  0  0  0  0  0  0  0  0  0  0  0
   -5.2878    1.5327   -0.2418 H   0  0  0  0  0  0  0  0  0  0  0  0
   -1.5842    4.2740   -0.1165 H   0  0  0  0  0  0  0  0  0  0  0  0
   -0.3394    3.2583   -0.8404 H   0  0  0  0  0  0  0  0  0  0  0  0
   -0.4895    3.3833    0.9385 H   0  0  0  0  0  0  0  0  0  0  0  0
    2.4016   -1.3153    1.1437 H   0  0  0  0  0  0  0  0  0  0  0  0
    2.2789    0.4521    1.0327 H   0  0  0  0  0  0  0  0  0  0  0  0
    7.9150   -0.0815   -0.9033 H   0  0  0  0  0  0  0  0  0  0  0  0
    7.9621   -0.2365    1.7979 H   0  0  0  0  0  0  0  0  0  0  0  0
    6.4346   -0.6146    2.6067 H   0  0  0  0  0  0  0  0  0  0  0  0
    6.8279    1.0668    2.2003 H   0  0  0  0  0  0  0  0  0  0  0  0
   -6.8234   -2.3903   -0.9903 H   0  0  0  0  0  0  0  0  0  0  0  0
   -6.9737   -2.2603    0.7984 H   0  0  0  0  0  0  0  0  0  0  0  0
   -7.9524   -1.2234   -0.2646 H   0  0  0  0  0  0  0  0  0  0  0  0
  1 16  1  0  0  0  0
  1 18  1  0  0  0  0
  2 18  1  0  0  0  0
  2 20  1  0  0  0  0
  3 17  1  0  0  0  0
  3 22  1  0  0  0  0
  4 15  2  0  0  0  0
  5 17  2  0  0  0  0
  6  8  1  0  0  0  0
  6 15  1  0  0  0  0
  6 25  1  0  0  0  0
  7 18  2  0  0  0  0
  7 19  1  0  0  0  0
  8  9  2  0  0  0  0
  8 10  1  0  0  0  0
  9 12  1  0  0  0  0
  9 14  1  0  0  0  0
 10 11  2  0  0  0  0
 10 23  1  0  0  0  0
 11 13  1  0  0  0  0
 11 17  1  0  0  0  0
 12 13  2  0  0  0  0
 12 24  1  0  0  0  0
 13 26  1  0  0  0  0
 14 27  1  0  0  0  0
 14 28  1  0  0  0  0
 14 29  1  0  0  0  0
 15 16  1  0  0  0  0
 16 30  1  0  0  0  0
 16 31  1  0  0  0  0
 19 20  2  0  0  0  0
 19 21  1  0  0  0  0
 20 32  1  0  0  0  0
 21 33  1  0  0  0  0
 21 34  1  0  0  0  0
 21 35  1  0  0  0  0
 22 36  1  0  0  0  0
 22 37  1  0  0  0  0
 22 38  1  0  0  0  0
M  END
> <PUBCHEM_COMPOUND_CID>
17395699

> <PUBCHEM_CONFORMER_RMSD>
1.2

> <PUBCHEM_CONFORMER_DIVERSEORDER>
2
48
38
30
53
5
55
35
50
59
46
4
13
29
37
22
24
3
15
10
12
54
43
34
52
44
1
42
39
19
6
33
56
49
61
41
17
8
26
36
23
40
16
45
27
47
58
11
51
32
28
31
7
25
9
21
18
14
62
57
20
60

> <PUBCHEM_MMFF94_PARTIAL_CHARGES>
27
1 -0.29
10 -0.15
11 0.09
12 -0.15
13 -0.15
14 0.14
15 0.57
16 0.29
17 0.63
18 0.43
19 0.05
2 -0.08
20 -0.11
21 0.18
22 0.28
23 0.15
24 0.15
25 0.37
26 0.15
3 -0.43
32 0.15
4 -0.57
5 -0.57
6 -0.55
7 -0.57
8 0.12
9 -0.14

> <PUBCHEM_EFFECTIVE_ROTOR_COUNT>
7

> <PUBCHEM_PHARMACOPHORE_FEATURES>
6
1 4 acceptor
1 5 acceptor
1 6 donor
1 7 acceptor
5 2 7 18 19 20 rings
6 8 9 10 11 12 13 rings

> <PUBCHEM_HEAVY_ATOM_COUNT>
22

> <PUBCHEM_ATOM_DEF_STEREO_COUNT>
0

> <PUBCHEM_ATOM_UDEF_STEREO_COUNT>
0

> <PUBCHEM_BOND_DEF_STEREO_COUNT>
0

> <PUBCHEM_BOND_UDEF_STEREO_COUNT>
0

> <PUBCHEM_ISOTOPIC_ATOM_COUNT>
0

> <PUBCHEM_COMPONENT_COUNT>
1

> <PUBCHEM_CACTVS_TAUTO_COUNT>
2

> <PUBCHEM_CONFORMER_ID>
01096FF300000002

> <PUBCHEM_MMFF94_ENERGY>
52.6531

> <PUBCHEM_FEATURE_SELFOVERLAP>
30.446

> <PUBCHEM_SHAPE_FINGERPRINT>
10 15 18187092720216966538
10595046 47 18343017835368905134
11315181 36 17418085503561175080
11524674 6 16370725920342112511
12166972 35 17632856395728822612
12236239 1 17704355489731373394
12596602 18 16988835082516286952
12730499 353 17312820494729809614
12916748 109 18408603678259282234
13288520 33 18408884028107444781
13533116 47 17275390937023901458
13631057 29 18410857663984474483
13914758 101 15841561807062353205
1420 363 17821725040070887718
14251764 18 17560798841226125958
15183329 4 17346595279626062486
15419008 47 18040156215005674712
1577012 14 17846774148651117108
16087824 20 18340206419330838141
18335252 98 18113050533244779550
19377110 9 18130221661436797760
19427546 20 18272933864993479589
19489759 90 18272649069394651320
21267235 1 18411413974403934707
21315759 40 17632302289608669314
21623969 137 16660355991891183046
2297311 6 18334008406672846061
2303208 19 17676759951224112958
23081809 10 17632291307255895812
23402539 116 18341895207852641484
23557571 272 18260820535861054028
23559900 14 18409455777969496345
2838139 119 15410897383624386151
335352 9 18411705392599110077
34797466 226 17967807224837751060
3633792 109 16486706860494040123
4280585 95 18339648837247097679
4325135 7 18413668010993637798
5104073 3 18042965561439931570
5283156 175 18059859480206837123
6328613 192 8646477540484920210
9981440 41 18059568152300895619

> <PUBCHEM_SHAPE_MULTIPOLES>
432.88
19.06
2.31
1.15
14.26
1.68
-0.08
-7.07
0.05
-4.63
-0.04
2.86
-0.11
0.46

> <PUBCHEM_SHAPE_SELFOVERLAP>
882.733

> <PUBCHEM_SHAPE_VOLUME>
252.5

> <PUBCHEM_COORDINATE_TYPE>
2
5
10

$$$$

