13068
  -OEChem-06261207433D

 27 29  0     0  0  0  0  0  0999 V2000
    0.0000    1.2005   -0.0003 C   0  0  0  0  0  0  0  0  0  0  0  0
   -1.2251    0.5128   -0.0002 C   0  0  0  0  0  0  0  0  0  0  0  0
    1.2251    0.5128   -0.0002 C   0  0  0  0  0  0  0  0  0  0  0  0
   -1.2251   -0.8993    0.0001 C   0  0  0  0  0  0  0  0  0  0  0  0
    1.2250   -0.8993   -0.0001 C   0  0  0  0  0  0  0  0  0  0  0  0
    0.0000   -1.5869    0.0001 C   0  0  0  0  0  0  0  0  0  0  0  0
   -2.4505    1.1997   -0.0003 C   0  0  0  0  0  0  0  0  0  0  0  0
    2.4505    1.1997   -0.0003 C   0  0  0  0  0  0  0  0  0  0  0  0
    0.0000    2.7056    0.0010 C   0  0  0  0  0  0  0  0  0  0  0  0
   -2.4504   -1.5862    0.0003 C   0  0  0  0  0  0  0  0  0  0  0  0
    2.4505   -1.5862    0.0002 C   0  0  0  0  0  0  0  0  0  0  0  0
   -3.6587    0.5023   -0.0002 C   0  0  0  0  0  0  0  0  0  0  0  0
    3.6587    0.5023   -0.0001 C   0  0  0  0  0  0  0  0  0  0  0  0
   -3.6587   -0.8889    0.0001 C   0  0  0  0  0  0  0  0  0  0  0  0
    3.6587   -0.8889    0.0001 C   0  0  0  0  0  0  0  0  0  0  0  0
    0.0000   -2.6771    0.0003 H   0  0  0  0  0  0  0  0  0  0  0  0
   -2.5305    2.2808   -0.0300 H   0  0  0  0  0  0  0  0  0  0  0  0
    2.5305    2.2810   -0.0300 H   0  0  0  0  0  0  0  0  0  0  0  0
   -0.8463    3.1362    0.5424 H   0  0  0  0  0  0  0  0  0  0  0  0
    0.8462    3.1362    0.5422 H   0  0  0  0  0  0  0  0  0  0  0  0
    0.0000    3.0852   -1.0256 H   0  0  0  0  0  0  0  0  0  0  0  0
   -2.4741   -2.6741    0.0001 H   0  0  0  0  0  0  0  0  0  0  0  0
    2.4743   -2.6740    0.0000 H   0  0  0  0  0  0  0  0  0  0  0  0
   -4.5996    1.0450   -0.0071 H   0  0  0  0  0  0  0  0  0  0  0  0
    4.5996    1.0450   -0.0068 H   0  0  0  0  0  0  0  0  0  0  0  0
   -4.5988   -1.4325   -0.0015 H   0  0  0  0  0  0  0  0  0  0  0  0
    4.5989   -1.4325   -0.0014 H   0  0  0  0  0  0  0  0  0  0  0  0
  1  2  2  0  0  0  0
  1  3  1  0  0  0  0
  1  9  1  0  0  0  0
  2  4  1  0  0  0  0
  2  7  1  0  0  0  0
  3  5  1  0  0  0  0
  3  8  2  0  0  0  0
  4  6  2  0  0  0  0
  4 10  1  0  0  0  0
  5  6  1  0  0  0  0
  5 11  2  0  0  0  0
  6 16  1  0  0  0  0
  7 12  2  0  0  0  0
  7 17  1  0  0  0  0
  8 13  1  0  0  0  0
  8 18  1  0  0  0  0
  9 19  1  0  0  0  0
  9 20  1  0  0  0  0
  9 21  1  0  0  0  0
 10 14  2  0  0  0  0
 10 22  1  0  0  0  0
 11 15  1  0  0  0  0
 11 23  1  0  0  0  0
 12 14  1  0  0  0  0
 12 24  1  0  0  0  0
 13 15  2  0  0  0  0
 13 25  1  0  0  0  0
 14 26  1  0  0  0  0
 15 27  1  0  0  0  0
M  END
> <PUBCHEM_COMPOUND_CID>
13068

> <PUBCHEM_CONFORMER_RMSD>
0.4

> <PUBCHEM_CONFORMER_DIVERSEORDER>
1

> <PUBCHEM_MMFF94_PARTIAL_CHARGES>
20
1 -0.14
10 -0.15
11 -0.15
12 -0.15
13 -0.15
14 -0.15
15 -0.15
16 0.15
17 0.15
18 0.15
22 0.15
23 0.15
24 0.15
25 0.15
26 0.15
27 0.15
6 -0.15
7 -0.15
8 -0.15
9 0.14

> <PUBCHEM_EFFECTIVE_ROTOR_COUNT>
0

> <PUBCHEM_PHARMACOPHORE_FEATURES>
3
6 1 2 3 4 5 6 rings
6 2 4 7 10 12 14 rings
6 3 5 8 11 13 15 rings

> <PUBCHEM_HEAVY_ATOM_COUNT>
15

> <PUBCHEM_ATOM_DEF_STEREO_COUNT>
0

> <PUBCHEM_ATOM_UDEF_STEREO_COUNT>
0

> <PUBCHEM_BOND_DEF_STEREO_COUNT>
0

> <PUBCHEM_BOND_UDEF_STEREO_COUNT>
0

> <PUBCHEM_ISOTOPIC_ATOM_COUNT>
0

> <PUBCHEM_COMPONENT_COUNT>
1

> <PUBCHEM_CACTVS_TAUTO_COUNT>
1

> <PUBCHEM_CONFORMER_ID>
0000330C00000001

> <PUBCHEM_MMFF94_ENERGY>
55.9355

> <PUBCHEM_FEATURE_SELFOVERLAP>
15.274

> <PUBCHEM_SHAPE_FINGERPRINT>
10608611 8 18410578383198261060
10967382 1 18410855430100417926
11132069 177 18409454690957076952
11471102 20 18410860953391379038
11806522 49 18338802191549893791
12032990 46 18410851062081865063
12382932 28 18408885156771357097
13132413 78 18409446960058583981
13140716 1 18410575127618092058
13221675 6 18410856559639977954
13296908 3 18410573985156953259
13380535 76 18410575088958513927
14144814 61 18410011039535286227
14325111 11 18410575084668399136
15196674 1 18410856563934802343
15375462 189 18202283644920914875
15442244 35 18194683906712966226
15536298 74 18334294262611033714
16945 1 18410855468718161348
18186145 218 17989490740092018782
193761 8 17689999359074479311
200 152 18041007215614580119
20201158 50 18411418418703413091
20510252 161 18261393407226027888
20645477 70 18336831982561212727
21029758 11 18335427854899560817
21267235 1 18410846668330561602
21501502 16 18410573998041660266
221490 88 18197491822923386747
2334 1 18410856529580338726
23402539 116 18261684734831101334
23402655 69 18335990847728620549
23463225 33 18412262843770448286
23559900 14 18335986475821151998
2748010 2 18410014338038456094
3071541 158 18272371927776607797
3312278 4 18411134744682120625
335352 9 18050568744079535487
34934 24 18410302405779455434
5104073 3 18410856559639810050
528886 8 18410016541367267466
537710 114 18411975845339493364
53812653 166 18334298621739277232
69090 78 18334018289434954727
7364860 26 18191868911800589752
8809292 202 18272365352192207563
9709674 26 18409725153733229278

> <PUBCHEM_SHAPE_MULTIPOLES>
308.69
6.19
2.18
0.62
0
0.71
0
-1.08
0
0
0
0
0
0

> <PUBCHEM_SHAPE_SELFOVERLAP>
697.723

> <PUBCHEM_SHAPE_VOLUME>
150.5

> <PUBCHEM_COORDINATE_TYPE>
2
5
10

$$$$

