216272
  -OEChem-07051212573D

 42 44  0     1  0  0  0  0  0999 V2000
    3.8548   -2.5508    0.9203 O   0  0  0  0  0  0  0  0  0  0  0  0
   -3.7361    0.7461    1.2963 O   0  0  0  0  0  0  0  0  0  0  0  0
   -4.3474   -0.7478   -0.9662 O   0  0  0  0  0  0  0  0  0  0  0  0
    3.2162    1.0921   -0.5869 N   0  0  2  0  0  0  0  0  0  0  0  0
    1.0635    0.5310    0.2341 C   0  0  1  0  0  0  0  0  0  0  0  0
    2.1251    0.1252   -0.8346 C   0  0  2  0  0  0  0  0  0  0  0  0
    1.2403    2.0765    0.2750 C   0  0  0  0  0  0  0  0  0  0  0  0
    2.5587    2.3867   -0.4254 C   0  0  0  0  0  0  0  0  0  0  0  0
    2.5830   -1.3321   -0.7055 C   0  0  0  0  0  0  0  0  0  0  0  0
   -0.4000    0.1872   -0.0878 C   0  0  0  0  0  0  0  0  0  0  0  0
    1.4323   -0.0521    1.5995 C   0  0  0  0  0  0  0  0  0  0  0  0
    3.0063   -1.6891    0.6988 C   0  0  0  0  0  0  0  0  0  0  0  0
    4.2214    1.1367   -1.6423 C   0  0  0  0  0  0  0  0  0  0  0  0
    2.3153   -1.0305    1.8263 C   0  0  0  0  0  0  0  0  0  0  0  0
   -1.4199    0.6259    0.7557 C   0  0  0  0  0  0  0  0  0  0  0  0
   -0.7060   -0.5631   -1.2226 C   0  0  0  0  0  0  0  0  0  0  0  0
   -2.7477    0.3139    0.4641 C   0  0  0  0  0  0  0  0  0  0  0  0
   -2.0339   -0.8752   -1.5141 C   0  0  0  0  0  0  0  0  0  0  0  0
   -3.0547   -0.4367   -0.6707 C   0  0  0  0  0  0  0  0  0  0  0  0
   -4.3103    2.0207    1.0132 C   0  0  0  0  0  0  0  0  0  0  0  0
   -4.8609   -1.9645   -0.4275 C   0  0  0  0  0  0  0  0  0  0  0  0
    1.7498    0.3003   -1.8517 H   0  0  0  0  0  0  0  0  0  0  0  0
    1.2507    2.4644    1.3013 H   0  0  0  0  0  0  0  0  0  0  0  0
    0.4329    2.5990   -0.2541 H   0  0  0  0  0  0  0  0  0  0  0  0
    2.3482    2.8613   -1.3926 H   0  0  0  0  0  0  0  0  0  0  0  0
    3.1721    3.0753    0.1650 H   0  0  0  0  0  0  0  0  0  0  0  0
    3.4197   -1.5368   -1.3816 H   0  0  0  0  0  0  0  0  0  0  0  0
    1.7793   -2.0235   -0.9799 H   0  0  0  0  0  0  0  0  0  0  0  0
    0.9479    0.3834    2.4722 H   0  0  0  0  0  0  0  0  0  0  0  0
    4.7807    0.1979   -1.6952 H   0  0  0  0  0  0  0  0  0  0  0  0
    4.9579    1.9206   -1.4320 H   0  0  0  0  0  0  0  0  0  0  0  0
    3.7842    1.3351   -2.6274 H   0  0  0  0  0  0  0  0  0  0  0  0
    2.5367   -1.3703    2.8312 H   0  0  0  0  0  0  0  0  0  0  0  0
   -1.1972    1.2167    1.6407 H   0  0  0  0  0  0  0  0  0  0  0  0
    0.0421   -0.9301   -1.9138 H   0  0  0  0  0  0  0  0  0  0  0  0
   -2.2667   -1.4595   -2.4002 H   0  0  0  0  0  0  0  0  0  0  0  0
   -3.5504    2.8060    1.0769 H   0  0  0  0  0  0  0  0  0  0  0  0
   -5.0841    2.2212    1.7592 H   0  0  0  0  0  0  0  0  0  0  0  0
   -4.7717    2.0236    0.0207 H   0  0  0  0  0  0  0  0  0  0  0  0
   -5.9021   -2.0673   -0.7451 H   0  0  0  0  0  0  0  0  0  0  0  0
   -4.8289   -1.9455    0.6665 H   0  0  0  0  0  0  0  0  0  0  0  0
   -4.2932   -2.8207   -0.8055 H   0  0  0  0  0  0  0  0  0  0  0  0
  1 12  2  0  0  0  0
  2 17  1  0  0  0  0
  2 20  1  0  0  0  0
  3 19  1  0  0  0  0
  3 21  1  0  0  0  0
  4  6  1  0  0  0  0
  4  8  1  0  0  0  0
  4 13  1  0  0  0  0
  5  6  1  0  0  0  0
  5  7  1  0  0  0  0
  5 10  1  0  0  0  0
  5 11  1  0  0  0  0
  6  9  1  0  0  0  0
  6 22  1  0  0  0  0
  7  8  1  0  0  0  0
  7 23  1  0  0  0  0
  7 24  1  0  0  0  0
  8 25  1  0  0  0  0
  8 26  1  0  0  0  0
  9 12  1  0  0  0  0
  9 27  1  0  0  0  0
  9 28  1  0  0  0  0
 10 15  2  0  0  0  0
 10 16  1  0  0  0  0
 11 14  2  0  0  0  0
 11 29  1  0  0  0  0
 12 14  1  0  0  0  0
 13 30  1  0  0  0  0
 13 31  1  0  0  0  0
 13 32  1  0  0  0  0
 14 33  1  0  0  0  0
 15 17  1  0  0  0  0
 15 34  1  0  0  0  0
 16 18  2  0  0  0  0
 16 35  1  0  0  0  0
 17 19  2  0  0  0  0
 18 19  1  0  0  0  0
 18 36  1  0  0  0  0
 20 37  1  0  0  0  0
 20 38  1  0  0  0  0
 20 39  1  0  0  0  0
 21 40  1  0  0  0  0
 21 41  1  0  0  0  0
 21 42  1  0  0  0  0
M  END
> <PUBCHEM_COMPOUND_CID>
216272

> <PUBCHEM_CONFORMER_RMSD>
0.6

> <PUBCHEM_CONFORMER_DIVERSEORDER>
1
24
36
29
21
32
20
12
14
34
27
15
25
35
31
19
3
6
23
9
22
30
13
18
33
2
10
16
26
4
8
17
28
11
5
7

> <PUBCHEM_MMFF94_PARTIAL_CHARGES>
25
1 -0.57
10 -0.14
11 -0.29
12 0.49
13 0.27
14 -0.14
15 -0.15
16 -0.15
17 0.08
18 -0.15
19 0.08
2 -0.36
20 0.28
21 0.28
29 0.15
3 -0.36
33 0.15
34 0.15
35 0.15
36 0.15
4 -0.81
5 0.28
6 0.27
8 0.27
9 0.06

> <PUBCHEM_EFFECTIVE_ROTOR_COUNT>
3.8

> <PUBCHEM_PHARMACOPHORE_FEATURES>
7
1 1 acceptor
1 2 acceptor
1 3 acceptor
1 4 cation
5 4 5 6 7 8 rings
6 10 15 16 17 18 19 rings
6 5 6 9 11 12 14 rings

> <PUBCHEM_HEAVY_ATOM_COUNT>
21

> <PUBCHEM_ATOM_DEF_STEREO_COUNT>
2

> <PUBCHEM_ATOM_UDEF_STEREO_COUNT>
0

> <PUBCHEM_BOND_DEF_STEREO_COUNT>
0

> <PUBCHEM_BOND_UDEF_STEREO_COUNT>
0

> <PUBCHEM_ISOTOPIC_ATOM_COUNT>
0

> <PUBCHEM_COMPONENT_COUNT>
1

> <PUBCHEM_CACTVS_TAUTO_COUNT>
2

> <PUBCHEM_CONFORMER_ID>
00034CD000000001

> <PUBCHEM_MMFF94_ENERGY>
81.1583

> <PUBCHEM_FEATURE_SELFOVERLAP>
35.741

> <PUBCHEM_SHAPE_FINGERPRINT>
10366900 7 17988358157274215757
11578080 2 18045814335722289912
12236239 1 18334009510816856454
12403259 415 16153423944123273465
12553582 1 17985555691340566042
12633257 1 18268428104475020555
12730499 353 17987512611225386899
12788726 201 18187642462914201283
12916754 54 18343029891289533047
13009979 54 18113893922628701442
13140716 1 18114467846302815249
13224815 77 17676491618641553803
13296908 3 15482670195539659753
13533116 47 18342741797900412963
13583140 156 18200294577564403697
14178342 30 17968382371934043639
14289901 80 17561089077192432693
15375358 24 15266792026696963015
16752209 62 17530967969155671967
16945 1 18271806779369486988
17349148 13 17749685072900528509
17492 89 18260825999529466255
1813 80 18195529422965971278
18186145 218 16845287276150904489
18222031 100 17024599880970248487
19026448 5 18411416228623273137
19078846 21 18260830440092620096
19422 9 18410013243143704819
20233049 118 17022895761852348328
20279233 1 16128662924895984561
20281475 54 18411140251094048531
20559304 39 18041287573161276344
20600515 1 17023473069586341009
20645477 70 17846229855355400831
22112679 90 18260555553811973848
2255824 54 18412544284624855958
22646028 28 18335710450641267611
23419403 2 13611199155195334106
23559900 14 18408895026907221319
23598291 2 18411701023472742041
25 1 18130212758534400244
312423 11 18412545414195934435
34934 24 18335412478732323720
474 4 18054508011091299348
495365 180 17202790149201605247
5104073 3 18187082862681700467
6049 1 16486977340254018549
633830 44 17632010948728115193
7615 1 18333740104392591173
7970288 3 18198351856002971970
81228 2 16977903965414114840

> <PUBCHEM_SHAPE_MULTIPOLES>
409.58
8.77
2.28
1.58
6.65
0.14
-0.16
-1.28
0.71
-0.86
-0.29
-0.58
-0.2
-2.33

> <PUBCHEM_SHAPE_SELFOVERLAP>
876.836

> <PUBCHEM_SHAPE_VOLUME>
227.9

> <PUBCHEM_COORDINATE_TYPE>
2
5
10

$$$$

