440300
  -OEChem-07051212493D

 36 36  0     1  0  0  0  0  0999 V2000
    3.7622   -1.2998    0.0328 P   0  0  0  0  0  0  0  0  0  0  0  0
    0.4425    1.0198   -1.3762 O   0  0  0  0  0  0  0  0  0  0  0  0
   -2.0049    1.1255    1.9785 O   0  0  0  0  0  0  0  0  0  0  0  0
    0.7787    1.8277    2.2050 O   0  0  0  0  0  0  0  0  0  0  0  0
   -1.4011    1.1062   -2.8339 O   0  0  0  0  0  0  0  0  0  0  0  0
    2.3889   -0.4443   -0.0397 O   0  0  0  0  0  0  0  0  0  0  0  0
   -4.1400   -0.3478    0.4451 O   0  0  0  0  0  0  0  0  0  0  0  0
   -4.2549   -3.0358    0.3551 O   0  0  0  0  0  0  0  0  0  0  0  0
    4.5754   -0.6169    1.2525 O   0  0  0  0  0  0  0  0  0  0  0  0
    4.5689   -0.8016   -1.2771 O   0  0  0  0  0  0  0  0  0  0  0  0
    3.5780   -2.7856    0.1369 O   0  0  0  0  0  0  0  0  0  0  0  0
   -1.9827   -0.3193   -0.4225 N   0  0  0  0  0  0  0  0  0  0  0  0
   -1.2146    1.6085    0.8955 C   0  0  2  0  0  0  0  0  0  0  0  0
   -1.8004    1.1193   -0.4314 C   0  0  1  0  0  0  0  0  0  0  0  0
    0.2449    1.1698    1.0582 C   0  0  1  0  0  0  0  0  0  0  0  0
    1.0607    1.5355   -0.1917 C   0  0  1  0  0  0  0  0  0  0  0  0
   -0.8756    1.5343   -1.5803 C   0  0  1  0  0  0  0  0  0  0  0  0
    2.4748    0.9653   -0.1391 C   0  0  0  0  0  0  0  0  0  0  0  0
   -3.1446   -0.9267    0.0182 C   0  0  0  0  0  0  0  0  0  0  0  0
   -3.0563   -2.4343   -0.0860 C   0  0  0  0  0  0  0  0  0  0  0  0
   -1.2664    2.7042    0.9364 H   0  0  0  0  0  0  0  0  0  0  0  0
   -2.7935    1.5610   -0.5810 H   0  0  0  0  0  0  0  0  0  0  0  0
    0.2750    0.0931    1.2596 H   0  0  0  0  0  0  0  0  0  0  0  0
    1.1469    2.6262   -0.2843 H   0  0  0  0  0  0  0  0  0  0  0  0
   -0.8112    2.6276   -1.6350 H   0  0  0  0  0  0  0  0  0  0  0  0
    3.0235    1.3682    0.7176 H   0  0  0  0  0  0  0  0  0  0  0  0
    3.0103    1.2219   -1.0589 H   0  0  0  0  0  0  0  0  0  0  0  0
   -1.1970   -0.9007   -0.7012 H   0  0  0  0  0  0  0  0  0  0  0  0
   -2.9140    1.4426    1.8418 H   0  0  0  0  0  0  0  0  0  0  0  0
    0.7775    2.7845    2.0311 H   0  0  0  0  0  0  0  0  0  0  0  0
   -1.8330    0.2461   -2.6981 H   0  0  0  0  0  0  0  0  0  0  0  0
   -2.8654   -2.7289   -1.1225 H   0  0  0  0  0  0  0  0  0  0  0  0
   -2.2363   -2.7917    0.5440 H   0  0  0  0  0  0  0  0  0  0  0  0
   -4.9574   -2.7780   -0.2661 H   0  0  0  0  0  0  0  0  0  0  0  0
    5.4255   -1.0147    1.5376 H   0  0  0  0  0  0  0  0  0  0  0  0
    5.4113   -1.2455   -1.5130 H   0  0  0  0  0  0  0  0  0  0  0  0
  1  6  1  0  0  0  0
  1  9  1  0  0  0  0
  1 10  1  0  0  0  0
  1 11  2  0  0  0  0
  2 16  1  0  0  0  0
  2 17  1  0  0  0  0
  3 13  1  0  0  0  0
  3 29  1  0  0  0  0
  4 15  1  0  0  0  0
  4 30  1  0  0  0  0
  5 17  1  0  0  0  0
  5 31  1  0  0  0  0
  6 18  1  0  0  0  0
  7 19  2  0  0  0  0
  8 20  1  0  0  0  0
  8 34  1  0  0  0  0
  9 35  1  0  0  0  0
 10 36  1  0  0  0  0
 12 14  1  0  0  0  0
 12 19  1  0  0  0  0
 12 28  1  0  0  0  0
 13 14  1  0  0  0  0
 13 15  1  0  0  0  0
 13 21  1  0  0  0  0
 14 17  1  0  0  0  0
 14 22  1  0  0  0  0
 15 16  1  0  0  0  0
 15 23  1  0  0  0  0
 16 18  1  0  0  0  0
 16 24  1  0  0  0  0
 17 25  1  0  0  0  0
 18 26  1  0  0  0  0
 18 27  1  0  0  0  0
 19 20  1  0  0  0  0
 20 32  1  0  0  0  0
 20 33  1  0  0  0  0
M  END
> <PUBCHEM_COMPOUND_CID>
440300

> <PUBCHEM_CONFORMER_RMSD>
0.8

> <PUBCHEM_CONFORMER_DIVERSEORDER>
1
8
22
5
19
13
9
11
16
18
12
23
6
7
14
20
3
15
4
21
10
2
17

> <PUBCHEM_MMFF94_PARTIAL_CHARGES>
27
1 1.51
10 -0.77
11 -0.7
12 -0.73
13 0.28
14 0.3
15 0.28
16 0.28
17 0.56
18 0.28
19 0.57
2 -0.56
20 0.34
28 0.37
29 0.4
3 -0.68
30 0.4
31 0.4
34 0.4
35 0.5
36 0.5
4 -0.68
5 -0.68
6 -0.55
7 -0.57
8 -0.68
9 -0.77

> <PUBCHEM_EFFECTIVE_ROTOR_COUNT>
7.2

> <PUBCHEM_PHARMACOPHORE_FEATURES>
16
1 10 acceptor
1 11 acceptor
1 12 donor
1 2 acceptor
1 3 acceptor
1 3 donor
1 4 acceptor
1 4 donor
1 5 acceptor
1 5 donor
1 7 acceptor
1 8 acceptor
1 8 donor
1 9 acceptor
4 1 9 10 11 anion
6 2 13 14 15 16 17 rings

> <PUBCHEM_HEAVY_ATOM_COUNT>
20

> <PUBCHEM_ATOM_DEF_STEREO_COUNT>
5

> <PUBCHEM_ATOM_UDEF_STEREO_COUNT>
0

> <PUBCHEM_BOND_DEF_STEREO_COUNT>
0

> <PUBCHEM_BOND_UDEF_STEREO_COUNT>
0

> <PUBCHEM_ISOTOPIC_ATOM_COUNT>
0

> <PUBCHEM_COMPONENT_COUNT>
1

> <PUBCHEM_CACTVS_TAUTO_COUNT>
2

> <PUBCHEM_CONFORMER_ID>
0006B7EC00000001

> <PUBCHEM_MMFF94_ENERGY>
0.0214

> <PUBCHEM_FEATURE_SELFOVERLAP>
81.287

> <PUBCHEM_SHAPE_FINGERPRINT>
10610426 29 18412544275840073725
11221954 11 9078841826163434751
11769659 78 18339923723295466293
12006461 19 18339643339272136319
12202030 40 18339378373981036413
12506688 2 18335139765224685026
12633257 1 17604128373403771147
12824470 246 18410569574225416987
13583140 156 17749965366075853153
15375462 189 17896320199149436605
1813 80 17774726342606117477
20291156 8 18410571768969867166
20775530 9 18196934366418376963
22620623 9 17703247169078214149
23402539 116 15984824895692414700
23419403 2 18118709667272573993
23559900 14 18337116674162511801

> <PUBCHEM_SHAPE_MULTIPOLES>
351.77
7.88
2.77
1.78
4.26
2.06
0.36
7.69
-0.54
-1.18
-0.27
-0.23
-1.25
0.33

> <PUBCHEM_SHAPE_SELFOVERLAP>
691.188

> <PUBCHEM_SHAPE_VOLUME>
210

> <PUBCHEM_COORDINATE_TYPE>
2
5
10

$$$$

