5311147
  -OEChem-07051213063D

 74 80  0     1  0  0  0  0  0999 V2000
   -0.2207    2.5174   -0.2031 O   0  0  0  0  0  0  0  0  0  0  0  0
   -1.0924   -0.8151   -1.6882 O   0  0  0  0  0  0  0  0  0  0  0  0
   -3.8150   -0.4177    1.0189 O   0  0  0  0  0  0  0  0  0  0  0  0
    1.0610    1.1285    1.1506 N   0  0  0  0  0  0  0  0  0  0  0  0
    0.2467   -1.6063    0.0603 N   0  0  0  0  0  0  0  0  0  0  0  0
   -2.3590    0.9463   -0.1500 N   0  0  0  0  0  0  0  0  0  0  0  0
   -4.6211    1.2272   -0.4492 N   0  0  0  0  0  0  0  0  0  0  0  0
    3.1915    2.0260    0.2905 C   0  0  0  0  0  0  0  0  0  0  0  0
    3.7371    1.9919   -2.1846 C   0  0  0  0  0  0  0  0  0  0  0  0
    5.0091    0.5006   -0.6007 C   0  0  0  0  0  0  0  0  0  0  0  0
    5.3768    2.9933   -0.5539 C   0  0  0  0  0  0  0  0  0  0  0  0
    2.6156    2.1375   -1.1412 C   0  0  0  0  0  0  0  0  0  0  0  0
    3.8842    0.6505    0.4385 C   0  0  0  0  0  0  0  0  0  0  0  0
    4.2509    3.1365    0.4850 C   0  0  0  0  0  0  0  0  0  0  0  0
    4.4130    0.6213   -2.0129 C   0  0  0  0  0  0  0  0  0  0  0  0
    4.7788    3.1016   -1.9665 C   0  0  0  0  0  0  0  0  0  0  0  0
    6.0446    1.6178   -0.3904 C   0  0  0  0  0  0  0  0  0  0  0  0
    2.0730    2.1715    1.3257 C   0  0  0  0  0  0  0  0  0  0  0  0
    1.2400   -0.1147    1.8541 C   0  0  0  0  0  0  0  0  0  0  0  0
   -0.0753    1.4520    0.4004 C   0  0  0  0  0  0  0  0  0  0  0  0
   -1.1417    0.3835    0.3739 C   0  0  2  0  0  0  0  0  0  0  0  0
    0.8346   -1.3833    1.3628 C   0  0  0  0  0  0  0  0  0  0  0  0
    1.8980   -0.0634    3.1064 C   0  0  0  0  0  0  0  0  0  0  0  0
   -0.6914   -0.7425   -0.5242 C   0  0  0  0  0  0  0  0  0  0  0  0
    1.0387   -2.5176    2.1897 C   0  0  0  0  0  0  0  0  0  0  0  0
    2.1080   -1.2015    3.8836 C   0  0  0  0  0  0  0  0  0  0  0  0
    1.6663   -2.4302    3.4300 C   0  0  0  0  0  0  0  0  0  0  0  0
    0.6771   -2.7796   -0.6663 C   0  0  0  0  0  0  0  0  0  0  0  0
   -3.6341    0.4962    0.2177 C   0  0  0  0  0  0  0  0  0  0  0  0
    1.9635   -3.2715   -0.4778 C   0  0  0  0  0  0  0  0  0  0  0  0
   -0.1999   -3.4043   -1.5454 C   0  0  0  0  0  0  0  0  0  0  0  0
    2.3788   -4.4038   -1.1784 C   0  0  0  0  0  0  0  0  0  0  0  0
    0.2156   -4.5368   -2.2459 C   0  0  0  0  0  0  0  0  0  0  0  0
    1.5049   -5.0365   -2.0623 C   0  0  0  0  0  0  0  0  0  0  0  0
   -6.0246    1.0806   -0.3521 C   0  0  0  0  0  0  0  0  0  0  0  0
   -6.8463    1.9073   -1.1009 C   0  0  0  0  0  0  0  0  0  0  0  0
   -6.5491    0.1130    0.4895 C   0  0  0  0  0  0  0  0  0  0  0  0
   -8.2304    1.7627   -1.0055 C   0  0  0  0  0  0  0  0  0  0  0  0
   -7.9331   -0.0318    0.5847 C   0  0  0  0  0  0  0  0  0  0  0  0
   -8.7737    0.7932   -0.1628 C   0  0  0  0  0  0  0  0  0  0  0  0
    3.3168    2.0729   -3.1933 H   0  0  0  0  0  0  0  0  0  0  0  0
    5.4914   -0.4766   -0.4855 H   0  0  0  0  0  0  0  0  0  0  0  0
    6.1195    3.7850   -0.4051 H   0  0  0  0  0  0  0  0  0  0  0  0
    1.8806    1.3510   -1.3433 H   0  0  0  0  0  0  0  0  0  0  0  0
    2.1153    3.1038   -1.2808 H   0  0  0  0  0  0  0  0  0  0  0  0
    3.1938   -0.1762    0.2594 H   0  0  0  0  0  0  0  0  0  0  0  0
    4.2994    0.5317    1.4467 H   0  0  0  0  0  0  0  0  0  0  0  0
    4.6749    3.0838    1.4960 H   0  0  0  0  0  0  0  0  0  0  0  0
    3.7855    4.1260    0.3896 H   0  0  0  0  0  0  0  0  0  0  0  0
    5.2025    0.4967   -2.7642 H   0  0  0  0  0  0  0  0  0  0  0  0
    3.6838   -0.1807   -2.1823 H   0  0  0  0  0  0  0  0  0  0  0  0
    4.3125    4.0852   -2.1016 H   0  0  0  0  0  0  0  0  0  0  0  0
    5.5746    3.0207   -2.7171 H   0  0  0  0  0  0  0  0  0  0  0  0
    6.8630    1.5106   -1.1130 H   0  0  0  0  0  0  0  0  0  0  0  0
    6.4892    1.5333    0.6089 H   0  0  0  0  0  0  0  0  0  0  0  0
    1.5911    3.1488    1.1855 H   0  0  0  0  0  0  0  0  0  0  0  0
    2.4838    2.2334    2.3324 H   0  0  0  0  0  0  0  0  0  0  0  0
   -1.3610    0.0238    1.3842 H   0  0  0  0  0  0  0  0  0  0  0  0
    2.2044    0.8646    3.5760 H   0  0  0  0  0  0  0  0  0  0  0  0
    0.6781   -3.5008    1.8910 H   0  0  0  0  0  0  0  0  0  0  0  0
   -2.2927    1.6790   -0.8506 H   0  0  0  0  0  0  0  0  0  0  0  0
    2.5923   -1.1183    4.8520 H   0  0  0  0  0  0  0  0  0  0  0  0
    1.8024   -3.3202    4.0365 H   0  0  0  0  0  0  0  0  0  0  0  0
    2.6986   -2.7807    0.1533 H   0  0  0  0  0  0  0  0  0  0  0  0
   -1.2327   -3.0977   -1.6726 H   0  0  0  0  0  0  0  0  0  0  0  0
   -4.2991    1.9547   -1.0827 H   0  0  0  0  0  0  0  0  0  0  0  0
    3.3869   -4.7858   -1.0456 H   0  0  0  0  0  0  0  0  0  0  0  0
   -0.4692   -5.0389   -2.9231 H   0  0  0  0  0  0  0  0  0  0  0  0
    1.8281   -5.9185   -2.6073 H   0  0  0  0  0  0  0  0  0  0  0  0
   -6.4335    2.6655   -1.7605 H   0  0  0  0  0  0  0  0  0  0  0  0
   -5.9668   -0.5621    1.0988 H   0  0  0  0  0  0  0  0  0  0  0  0
   -8.8850    2.4048   -1.5874 H   0  0  0  0  0  0  0  0  0  0  0  0
   -8.3579   -0.7864    1.2406 H   0  0  0  0  0  0  0  0  0  0  0  0
   -9.8514    0.6806   -0.0885 H   0  0  0  0  0  0  0  0  0  0  0  0
  1 20  2  0  0  0  0
  2 24  2  0  0  0  0
  3 29  2  0  0  0  0
  4 18  1  0  0  0  0
  4 19  1  0  0  0  0
  4 20  1  0  0  0  0
  5 22  1  0  0  0  0
  5 24  1  0  0  0  0
  5 28  1  0  0  0  0
  6 21  1  0  0  0  0
  6 29  1  0  0  0  0
  6 61  1  0  0  0  0
  7 29  1  0  0  0  0
  7 35  1  0  0  0  0
  7 66  1  0  0  0  0
  8 12  1  0  0  0  0
  8 13  1  0  0  0  0
  8 14  1  0  0  0  0
  8 18  1  0  0  0  0
  9 12  1  0  0  0  0
  9 15  1  0  0  0  0
  9 16  1  0  0  0  0
  9 41  1  0  0  0  0
 10 13  1  0  0  0  0
 10 15  1  0  0  0  0
 10 17  1  0  0  0  0
 10 42  1  0  0  0  0
 11 14  1  0  0  0  0
 11 16  1  0  0  0  0
 11 17  1  0  0  0  0
 11 43  1  0  0  0  0
 12 44  1  0  0  0  0
 12 45  1  0  0  0  0
 13 46  1  0  0  0  0
 13 47  1  0  0  0  0
 14 48  1  0  0  0  0
 14 49  1  0  0  0  0
 15 50  1  0  0  0  0
 15 51  1  0  0  0  0
 16 52  1  0  0  0  0
 16 53  1  0  0  0  0
 17 54  1  0  0  0  0
 17 55  1  0  0  0  0
 18 56  1  0  0  0  0
 18 57  1  0  0  0  0
 19 22  1  0  0  0  0
 19 23  2  0  0  0  0
 20 21  1  0  0  0  0
 21 24  1  0  0  0  0
 21 58  1  0  0  0  0
 22 25  2  0  0  0  0
 23 26  1  0  0  0  0
 23 59  1  0  0  0  0
 25 27  1  0  0  0  0
 25 60  1  0  0  0  0
 26 27  2  0  0  0  0
 26 62  1  0  0  0  0
 27 63  1  0  0  0  0
 28 30  2  0  0  0  0
 28 31  1  0  0  0  0
 30 32  1  0  0  0  0
 30 64  1  0  0  0  0
 31 33  2  0  0  0  0
 31 65  1  0  0  0  0
 32 34  2  0  0  0  0
 32 67  1  0  0  0  0
 33 34  1  0  0  0  0
 33 68  1  0  0  0  0
 34 69  1  0  0  0  0
 35 36  2  0  0  0  0
 35 37  1  0  0  0  0
 36 38  1  0  0  0  0
 36 70  1  0  0  0  0
 37 39  2  0  0  0  0
 37 71  1  0  0  0  0
 38 40  2  0  0  0  0
 38 72  1  0  0  0  0
 39 40  1  0  0  0  0
 39 73  1  0  0  0  0
 40 74  1  0  0  0  0
M  END
> <PUBCHEM_COMPOUND_CID>
5311147

> <PUBCHEM_CONFORMER_RMSD>
1

> <PUBCHEM_CONFORMER_DIVERSEORDER>
1
8
3
4
2
5
7
10
6
9

> <PUBCHEM_MMFF94_PARTIAL_CHARGES>
46
1 -0.57
18 0.3
19 0.12
2 -0.57
20 0.57
21 0.42
22 0.12
23 -0.15
24 0.57
25 -0.15
26 -0.15
27 -0.15
28 0.12
29 0.69
3 -0.57
30 -0.15
31 -0.15
32 -0.15
33 -0.15
34 -0.15
35 0.12
36 -0.15
37 -0.15
38 -0.15
39 -0.15
4 -0.48
40 -0.15
5 -0.29
59 0.15
6 -0.73
60 0.15
61 0.37
62 0.15
63 0.15
64 0.15
65 0.15
66 0.37
67 0.15
68 0.15
69 0.15
7 -0.55
70 0.15
71 0.15
72 0.15
73 0.15
74 0.15

> <PUBCHEM_EFFECTIVE_ROTOR_COUNT>
8.8

> <PUBCHEM_PHARMACOPHORE_FEATURES>
14
1 1 acceptor
1 2 acceptor
1 21 anion
1 3 acceptor
1 6 donor
1 7 donor
6 19 22 23 25 26 27 rings
6 28 30 31 32 33 34 rings
6 35 36 37 38 39 40 rings
6 8 10 11 13 14 17 rings
6 8 9 10 12 13 15 rings
6 8 9 11 12 14 16 rings
6 9 10 11 15 16 17 rings
7 4 5 19 20 21 22 24 rings

> <PUBCHEM_HEAVY_ATOM_COUNT>
40

> <PUBCHEM_ATOM_DEF_STEREO_COUNT>
1

> <PUBCHEM_ATOM_UDEF_STEREO_COUNT>
0

> <PUBCHEM_BOND_DEF_STEREO_COUNT>
0

> <PUBCHEM_BOND_UDEF_STEREO_COUNT>
0

> <PUBCHEM_ISOTOPIC_ATOM_COUNT>
0

> <PUBCHEM_COMPONENT_COUNT>
1

> <PUBCHEM_CACTVS_TAUTO_COUNT>
3

> <PUBCHEM_CONFORMER_ID>
00510AAB00000001

> <PUBCHEM_MMFF94_ENERGY>
175.0998

> <PUBCHEM_FEATURE_SELFOVERLAP>
83.621

> <PUBCHEM_SHAPE_FINGERPRINT>
10319688 140 18261951981051061607
10483366 6 18261102011428634478
10554248 39 18192449665596305093
10673678 19 18409161117184380151
10721379 63 18043514217383294246
10985338 15 18117014198841749544
11093857 51 18041003972234484791
11115154 58 15285624491838087641
11135926 11 18260815004728913673
11181472 205 18262517135151374369
11443803 9 18338526231216070672
11488393 25 18266442373279444106
12106331 60 17975145241131005239
12522641 126 18261111923897052191
12660671 118 18200316653358486874
13150687 139 18411127031622470980
13782708 43 7637395230014747621
14068700 675 17098325700219564726
14118638 360 18201722873719094809
14675020 138 18114194029373956808
14918310 93 18202006576664844732
15082195 135 18118125999151550661
15183329 4 15140952942711219485
15297060 5 18114463362188029331
15392192 104 18408037400397413675
15444296 7 18340501032137201762
15484559 13 18059849554643054100
15815584 197 17488441079722914441
16114785 44 17624692358720550496
19319366 153 17916878936680812408
1979834 28 18042707137932357387
20505436 4 18200883855498251920
20578428 11 17988638631982183555
20771845 140 18187377548803889442
20771845 171 18410574020054671287
21344244 246 18263354970989303054
21716022 299 17387960122290950958
23559900 14 18047476905278061895
27425 322 17845086260621129468
3411729 13 18202566185402864489
38695281 34 18408317761563818206
4073 2 17274820239034251345
4093350 32 18411418453738228853
46194498 28 18267588094871392167
5109719 28 17702928263631076813
513532 50 18060133297388649863
6679774 75 18337969951427033866

> <PUBCHEM_SHAPE_MULTIPOLES>
785.65
16.55
5.37
2.83
48.73
7.11
2.42
-17.58
-5.14
-6.57
-3.74
-3.3
2.25
-0.49

> <PUBCHEM_SHAPE_SELFOVERLAP>
1749.788

> <PUBCHEM_SHAPE_VOLUME>
405

> <PUBCHEM_COORDINATE_TYPE>
2
5
10

$$$$

