10664
  -OEChem-06261204492D

 28 26  0     0  0  0  0  0  0999 V2000
    0.0000    3.3285    0.0000 Cl  0  0  0  0  0  0  0  0  0  0  0  0
    5.2020    0.0000    0.0000 Cl  0  0  0  0  0  0  0  0  0  0  0  0
    3.5369    5.0369    0.0000 O   0  0  0  0  0  0  0  0  0  0  0  0
    7.8671    4.5369    0.0000 O   0  0  0  0  0  0  0  0  0  0  0  0
    5.2690    3.0369    0.0000 N   0  0  0  0  0  0  0  0  0  0  0  0
    6.1350    6.5369    0.0000 N   0  0  0  0  0  0  0  0  0  0  0  0
    5.2690    5.0369    0.0000 C   0  0  0  0  0  0  0  0  0  0  0  0
    6.1350    4.5369    0.0000 C   0  0  0  0  0  0  0  0  0  0  0  0
    4.4030    4.5369    0.0000 C   0  0  0  0  0  0  0  0  0  0  0  0
    5.2690    6.0369    0.0000 C   0  0  0  0  0  0  0  0  0  0  0  0
    4.4030    3.5369    0.0000 C   0  0  0  0  0  0  0  0  0  0  0  0
    7.0010    5.0369    0.0000 C   0  0  0  0  0  0  0  0  0  0  0  0
    6.1350    3.5369    0.0000 C   0  0  0  0  0  0  0  0  0  0  0  0
    3.5369    3.0369    0.0000 C   0  0  0  0  0  0  0  0  0  0  0  0
    5.0569    6.6195    0.0000 H   0  0  0  0  0  0  0  0  0  0  0  0
    4.6584    5.9293    0.0000 H   0  0  0  0  0  0  0  0  0  0  0  0
    7.3996    5.5119    0.0000 H   0  0  0  0  0  0  0  0  0  0  0  0
    6.6025    5.5119    0.0000 H   0  0  0  0  0  0  0  0  0  0  0  0
    6.6720    3.2269    0.0000 H   0  0  0  0  0  0  0  0  0  0  0  0
    3.2269    3.5739    0.0000 H   0  0  0  0  0  0  0  0  0  0  0  0
    3.0000    2.7269    0.0000 H   0  0  0  0  0  0  0  0  0  0  0  0
    3.8469    2.5000    0.0000 H   0  0  0  0  0  0  0  0  0  0  0  0
    6.1350    7.1569    0.0000 H   0  0  0  0  0  0  0  0  0  0  0  0
    6.6720    6.2269    0.0000 H   0  0  0  0  0  0  0  0  0  0  0  0
    3.0000    4.7269    0.0000 H   0  0  0  0  0  0  0  0  0  0  0  0
    8.4040    4.8469    0.0000 H   0  0  0  0  0  0  0  0  0  0  0  0
    1.0000    3.3285    0.0000 H   0  0  0  0  0  0  0  0  0  0  0  0
    6.2020    0.0000    0.0000 H   0  0  0  0  0  0  0  0  0  0  0  0
  1 27  1  0  0  0  0
  2 28  1  0  0  0  0
  3  9  1  0  0  0  0
  3 25  1  0  0  0  0
  4 12  1  0  0  0  0
  4 26  1  0  0  0  0
  5 11  2  0  0  0  0
  5 13  1  0  0  0  0
  6 10  1  0  0  0  0
  6 23  1  0  0  0  0
  6 24  1  0  0  0  0
  7  8  1  0  0  0  0
  7  9  2  0  0  0  0
  7 10  1  0  0  0  0
  8 12  1  0  0  0  0
  8 13  2  0  0  0  0
  9 11  1  0  0  0  0
 10 15  1  0  0  0  0
 10 16  1  0  0  0  0
 11 14  1  0  0  0  0
 12 17  1  0  0  0  0
 12 18  1  0  0  0  0
 13 19  1  0  0  0  0
 14 20  1  0  0  0  0
 14 21  1  0  0  0  0
 14 22  1  0  0  0  0
M  END
> <PUBCHEM_COMPOUND_CID>
10664

> <PUBCHEM_COMPOUND_CANONICALIZED>
1

> <PUBCHEM_CACTVS_COMPLEXITY>
143

> <PUBCHEM_CACTVS_HBOND_ACCEPTOR>
4

> <PUBCHEM_CACTVS_HBOND_DONOR>
5

> <PUBCHEM_CACTVS_ROTATABLE_BOND>
2

> <PUBCHEM_CACTVS_SUBSKEYS>
AAADccBzMAAGAAAAAAAAAAAAAAAAAAAAAAAsAAAAAAAAAAABgAAAHgAQCAAADAzhngYuhpJIEgCgAxRnRASCgCAxYCAA2KA9TJgKNmLSkZOEcAhmwBHY2AfwUAMOgAAAAAAAAAAAAAAAAAAAAAAAAAAAAA==

> <PUBCHEM_IUPAC_OPENEYE_NAME>
4-(aminomethyl)-5-(hydroxymethyl)-2-methyl-pyridin-3-ol dihydrochloride

> <PUBCHEM_IUPAC_CAS_NAME>
4-(aminomethyl)-5-(hydroxymethyl)-2-methyl-3-pyridinol dihydrochloride

> <PUBCHEM_IUPAC_NAME>
4-(aminomethyl)-5-(hydroxymethyl)-2-methylpyridin-3-ol dihydrochloride

> <PUBCHEM_IUPAC_SYSTEMATIC_NAME>
4-(aminomethyl)-5-(hydroxymethyl)-2-methyl-pyridin-3-ol dihydrochloride

> <PUBCHEM_IUPAC_TRADITIONAL_NAME>
4-(aminomethyl)-2-methyl-5-methylol-pyridin-3-ol dihydrochloride

> <PUBCHEM_IUPAC_INCHI>
InChI=1S/C8H12N2O2.2ClH/c1-5-8(12)7(2-9)6(4-11)3-10-5;;/h3,11-12H,2,4,9H2,1H3;2*1H

> <PUBCHEM_IUPAC_INCHIKEY>
HNWCOANXZNKMLR-UHFFFAOYSA-N

> <PUBCHEM_EXACT_MASS>
240.043233

> <PUBCHEM_MOLECULAR_FORMULA>
C8H14Cl2N2O2

> <PUBCHEM_MOLECULAR_WEIGHT>
241.11496

> <PUBCHEM_OPENEYE_CAN_SMILES>
CC1=NC=C(C(=C1O)CN)CO.Cl.Cl

> <PUBCHEM_OPENEYE_ISO_SMILES>
CC1=NC=C(C(=C1O)CN)CO.Cl.Cl

> <PUBCHEM_CACTVS_TPSA>
79.4

> <PUBCHEM_MONOISOTOPIC_WEIGHT>
240.043233

> <PUBCHEM_TOTAL_CHARGE>
0

> <PUBCHEM_HEAVY_ATOM_COUNT>
14

> <PUBCHEM_ATOM_DEF_STEREO_COUNT>
0

> <PUBCHEM_ATOM_UDEF_STEREO_COUNT>
0

> <PUBCHEM_BOND_DEF_STEREO_COUNT>
0

> <PUBCHEM_BOND_UDEF_STEREO_COUNT>
0

> <PUBCHEM_ISOTOPIC_ATOM_COUNT>
0

> <PUBCHEM_COMPONENT_COUNT>
3

> <PUBCHEM_CACTVS_TAUTO_COUNT>
3

> <PUBCHEM_COORDINATE_TYPE>
1
5
255

> <PUBCHEM_BONDANNOTATIONS>
5  11  8
5  13  8
7  8  8
7  9  8
8  13  8
9  11  8

$$$$

