5281509
  -OEChem-07051212573D

 50 53  0     1  0  0  0  0  0999 V2000
   -0.6786    3.1030   -1.1066 O   0  0  0  0  0  0  0  0  0  0  0  0
   -1.4883    1.0284    1.7852 O   0  0  0  0  0  0  0  0  0  0  0  0
    2.1884   -0.5582   -0.0553 O   0  0  0  0  0  0  0  0  0  0  0  0
    0.2625    2.5777    1.7852 O   0  0  0  0  0  0  0  0  0  0  0  0
   -1.8260   -2.9955    0.1156 O   0  0  0  0  0  0  0  0  0  0  0  0
   -0.7298   -5.0075    0.0800 O   0  0  0  0  0  0  0  0  0  0  0  0
    2.7823    1.1888    1.3284 O   0  0  0  0  0  0  0  0  0  0  0  0
   -0.6279    1.8808   -0.3245 C   0  0  1  0  0  0  0  0  0  0  0  0
   -1.6516    2.1248   -1.4446 C   0  0  1  0  0  0  0  0  0  0  0  0
    0.5894    1.0420   -0.6531 C   0  0  0  0  0  0  0  0  0  0  0  0
   -0.9440    2.1764    1.1315 C   0  0  1  0  0  0  0  0  0  0  0  0
   -3.0819    2.4631   -1.1416 C   0  0  0  0  0  0  0  0  0  0  0  0
    0.7879   -0.2954    0.0982 C   0  0  1  0  0  0  0  0  0  0  0  0
   -0.0505   -1.4939   -0.4443 C   0  0  2  0  0  0  0  0  0  0  0  0
   -3.8933    1.2028   -0.7932 C   0  0  0  0  0  0  0  0  0  0  0  0
   -1.4286   -1.6197    0.2374 C   0  0  1  0  0  0  0  0  0  0  0  0
   -3.1002    0.2868    0.1137 C   0  0  0  0  0  0  0  0  0  0  0  0
   -2.8699    0.7838    1.5189 C   0  0  0  0  0  0  0  0  0  0  0  0
   -2.4831   -0.7855   -0.4204 C   0  0  0  0  0  0  0  0  0  0  0  0
    0.4290   -2.9067   -0.2453 C   0  0  0  0  0  0  0  0  0  0  0  0
   -0.7296   -3.7913    0.0125 C   0  0  0  0  0  0  0  0  0  0  0  0
    3.0165    0.4221    0.4033 C   0  0  0  0  0  0  0  0  0  0  0  0
    1.6431   -3.4584   -0.3399 C   0  0  0  0  0  0  0  0  0  0  0  0
    4.2881    0.4279   -0.4270 C   0  0  0  0  0  0  0  0  0  0  0  0
    4.1118    1.3447   -1.6316 C   0  0  0  0  0  0  0  0  0  0  0  0
    5.4842    0.8591    0.4178 C   0  0  0  0  0  0  0  0  0  0  0  0
   -1.5374    1.6003   -2.3850 H   0  0  0  0  0  0  0  0  0  0  0  0
    1.4255    1.7386   -0.5542 H   0  0  0  0  0  0  0  0  0  0  0  0
    0.5919    0.8146   -1.7290 H   0  0  0  0  0  0  0  0  0  0  0  0
   -1.6380    3.0182    1.2324 H   0  0  0  0  0  0  0  0  0  0  0  0
   -3.5303    2.9467   -2.0175 H   0  0  0  0  0  0  0  0  0  0  0  0
   -3.1574    3.1915   -0.3270 H   0  0  0  0  0  0  0  0  0  0  0  0
    0.6033   -0.1884    1.1721 H   0  0  0  0  0  0  0  0  0  0  0  0
   -0.1725   -1.3750   -1.5307 H   0  0  0  0  0  0  0  0  0  0  0  0
   -4.1524    0.6844   -1.7258 H   0  0  0  0  0  0  0  0  0  0  0  0
   -4.8456    1.4777   -0.3255 H   0  0  0  0  0  0  0  0  0  0  0  0
   -1.3617   -1.4237    1.3131 H   0  0  0  0  0  0  0  0  0  0  0  0
   -3.4523    1.6860    1.7389 H   0  0  0  0  0  0  0  0  0  0  0  0
   -3.2118    0.0196    2.2262 H   0  0  0  0  0  0  0  0  0  0  0  0
   -2.6749   -1.0257   -1.4656 H   0  0  0  0  0  0  0  0  0  0  0  0
    0.0090    3.1521    2.5275 H   0  0  0  0  0  0  0  0  0  0  0  0
    2.5216   -2.8773   -0.5902 H   0  0  0  0  0  0  0  0  0  0  0  0
    1.8023   -4.5216   -0.1901 H   0  0  0  0  0  0  0  0  0  0  0  0
    4.4801   -0.5963   -0.7706 H   0  0  0  0  0  0  0  0  0  0  0  0
    5.0186    1.3629   -2.2450 H   0  0  0  0  0  0  0  0  0  0  0  0
    3.8876    2.3714   -1.3219 H   0  0  0  0  0  0  0  0  0  0  0  0
    3.2857    1.0033   -2.2643 H   0  0  0  0  0  0  0  0  0  0  0  0
    6.4115    0.8003   -0.1617 H   0  0  0  0  0  0  0  0  0  0  0  0
    5.5911    0.2140    1.2966 H   0  0  0  0  0  0  0  0  0  0  0  0
    5.3721    1.8885    0.7757 H   0  0  0  0  0  0  0  0  0  0  0  0
  1  8  1  0  0  0  0
  1  9  1  0  0  0  0
  2 11  1  0  0  0  0
  2 18  1  0  0  0  0
  3 13  1  0  0  0  0
  3 22  1  0  0  0  0
  4 11  1  0  0  0  0
  4 41  1  0  0  0  0
  5 16  1  0  0  0  0
  5 21  1  0  0  0  0
  6 21  2  0  0  0  0
  7 22  2  0  0  0  0
  8  9  1  0  0  0  0
  8 10  1  0  0  0  0
  8 11  1  0  0  0  0
  9 12  1  0  0  0  0
  9 27  1  0  0  0  0
 10 13  1  0  0  0  0
 10 28  1  0  0  0  0
 10 29  1  0  0  0  0
 11 30  1  0  0  0  0
 12 15  1  0  0  0  0
 12 31  1  0  0  0  0
 12 32  1  0  0  0  0
 13 14  1  0  0  0  0
 13 33  1  0  0  0  0
 14 16  1  0  0  0  0
 14 20  1  0  0  0  0
 14 34  1  0  0  0  0
 15 17  1  0  0  0  0
 15 35  1  0  0  0  0
 15 36  1  0  0  0  0
 16 19  1  0  0  0  0
 16 37  1  0  0  0  0
 17 18  1  0  0  0  0
 17 19  2  0  0  0  0
 18 38  1  0  0  0  0
 18 39  1  0  0  0  0
 19 40  1  0  0  0  0
 20 21  1  0  0  0  0
 20 23  2  0  0  0  0
 22 24  1  0  0  0  0
 23 42  1  0  0  0  0
 23 43  1  0  0  0  0
 24 25  1  0  0  0  0
 24 26  1  0  0  0  0
 24 44  1  0  0  0  0
 25 45  1  0  0  0  0
 25 46  1  0  0  0  0
 25 47  1  0  0  0  0
 26 48  1  0  0  0  0
 26 49  1  0  0  0  0
 26 50  1  0  0  0  0
M  END
> <PUBCHEM_COMPOUND_CID>
5281509

> <PUBCHEM_CONFORMER_RMSD>
0.8

> <PUBCHEM_CONFORMER_DIVERSEORDER>
1
2
3

> <PUBCHEM_MMFF94_PARTIAL_CHARGES>
29
1 -0.3
10 0.09
11 0.65
12 0.09
13 0.28
14 0.14
15 0.14
16 0.42
17 -0.28
18 0.42
19 -0.29
2 -0.56
20 -0.12
21 0.71
22 0.66
23 -0.3
24 0.06
27 0.1
3 -0.43
4 -0.68
40 0.15
41 0.4
42 0.15
43 0.15
5 -0.43
6 -0.57
7 -0.57
8 -0.04
9 -0.05

> <PUBCHEM_EFFECTIVE_ROTOR_COUNT>
4.8

> <PUBCHEM_PHARMACOPHORE_FEATURES>
8
1 1 acceptor
1 2 acceptor
1 4 acceptor
1 4 donor
1 6 acceptor
1 7 acceptor
3 24 25 26 hydrophobe
5 5 14 16 20 21 rings

> <PUBCHEM_HEAVY_ATOM_COUNT>
26

> <PUBCHEM_ATOM_DEF_STEREO_COUNT>
6

> <PUBCHEM_ATOM_UDEF_STEREO_COUNT>
0

> <PUBCHEM_BOND_DEF_STEREO_COUNT>
1

> <PUBCHEM_BOND_UDEF_STEREO_COUNT>
0

> <PUBCHEM_ISOTOPIC_ATOM_COUNT>
0

> <PUBCHEM_COMPONENT_COUNT>
1

> <PUBCHEM_CACTVS_TAUTO_COUNT>
1

> <PUBCHEM_CONFORMER_ID>
005096E500000001

> <PUBCHEM_MMFF94_ENERGY>
76.0499

> <PUBCHEM_FEATURE_SELFOVERLAP>
40.64

> <PUBCHEM_SHAPE_FINGERPRINT>
10165383 225 18335969943685116433
10411042 1 17619912760311320318
10863032 1 18047482394151801501
1100329 8 18191861224024894785
11370993 70 18269282416161405340
11578080 2 14875032017915526992
121448 382 18334018310798982444
13140716 1 17688019821902628331
138480 1 17330842825015394854
13911987 19 18341607122637114677
14223421 5 18124870424523396995
14251757 5 18266725901814472468
14787075 74 18114474374494979437
14790565 3 18339631304832548981
15042514 8 18268989795919030850
16752209 62 18339936913298275022
16945 1 18342177747817918997
17357779 13 17900558773614634631
17492 54 18199770106022072367
19591789 44 18266452282048589958
19958102 18 18336812200664177062
20101258 96 17623834735461646234
20600515 1 18264198111349595700
20775438 99 16096890053831851759
23419403 2 17243029951000615641
23557571 272 18117540852790722308
23558518 356 17827912154876772712
23559900 14 17764321925606548780
238 59 17907592671656897399
2748010 2 18339626932666325383
350125 39 18194675106382817038
4409770 3 18340781338186403974
458136 41 18193830672609705201
469060 322 18198607870576094811
484989 97 17908712722599965935
81228 2 18193001409151479058
9981440 41 18270125745758722001

> <PUBCHEM_SHAPE_MULTIPOLES>
493.98
6.73
4.89
1.37
7.58
6.73
-0.27
-4.63
0.71
-1.07
0.46
-0.25
-1.17
0.42

> <PUBCHEM_SHAPE_SELFOVERLAP>
1051.209

> <PUBCHEM_SHAPE_VOLUME>
272.7

> <PUBCHEM_COORDINATE_TYPE>
2
5
10

$$$$

