91771
  -OEChem-07051213123D

 58 63  0     1  0  0  0  0  0999 V2000
   -9.5669    1.8478    1.2408 Br  0  0  0  0  0  0  0  0  0  0  0  0
    3.7564    2.7896    1.4190 S   0  0  0  0  0  0  0  0  0  0  0  0
    1.2114    2.1851    1.5554 O   0  0  0  0  0  0  0  0  0  0  0  0
    3.7316   -0.9626   -0.8990 O   0  0  0  0  0  0  0  0  0  0  0  0
   -0.0927   -1.1687   -1.9314 C   0  0  1  0  0  0  0  0  0  0  0  0
    1.2561   -0.1935    0.0119 C   0  0  1  0  0  0  0  0  0  0  0  0
    1.0051   -0.1795   -1.5065 C   0  0  0  0  0  0  0  0  0  0  0  0
    0.3543   -2.5918   -1.5472 C   0  0  0  0  0  0  0  0  0  0  0  0
    1.3539   -1.5990    0.5832 C   0  0  0  0  0  0  0  0  0  0  0  0
    0.9102   -2.7185   -0.1481 C   0  0  0  0  0  0  0  0  0  0  0  0
   -1.4765   -0.7281   -1.4683 C   0  0  0  0  0  0  0  0  0  0  0  0
    2.4755    0.6513    0.2896 C   0  0  0  0  0  0  0  0  0  0  0  0
    1.8187   -1.7949    1.8972 C   0  0  0  0  0  0  0  0  0  0  0  0
    1.0055   -4.0016    0.4169 C   0  0  0  0  0  0  0  0  0  0  0  0
   -2.2232    0.1498   -2.2506 C   0  0  0  0  0  0  0  0  0  0  0  0
   -1.9888   -1.2049   -0.2639 C   0  0  0  0  0  0  0  0  0  0  0  0
    3.7329    0.1233   -0.3235 C   0  0  0  0  0  0  0  0  0  0  0  0
    2.4229    1.7732    1.0254 C   0  0  0  0  0  0  0  0  0  0  0  0
    1.8951   -3.0729    2.4519 C   0  0  0  0  0  0  0  0  0  0  0  0
    1.4957   -4.1773    1.7088 C   0  0  0  0  0  0  0  0  0  0  0  0
    4.9827    0.9095   -0.2583 C   0  0  0  0  0  0  0  0  0  0  0  0
   -3.4893    0.5531   -1.8263 C   0  0  0  0  0  0  0  0  0  0  0  0
   -3.2549   -0.8015    0.1604 C   0  0  0  0  0  0  0  0  0  0  0  0
   -4.0050    0.0775   -0.6208 C   0  0  0  0  0  0  0  0  0  0  0  0
    5.0801    2.0937    0.4726 C   0  0  0  0  0  0  0  0  0  0  0  0
    6.0996    0.4300   -0.9652 C   0  0  0  0  0  0  0  0  0  0  0  0
   -5.3186    0.4951   -0.1807 C   0  0  0  0  0  0  0  0  0  0  0  0
    6.3037    2.7857    0.4842 C   0  0  0  0  0  0  0  0  0  0  0  0
    7.3061    1.1277   -0.9457 C   0  0  0  0  0  0  0  0  0  0  0  0
    7.4086    2.3075   -0.2205 C   0  0  0  0  0  0  0  0  0  0  0  0
   -6.2993    0.8139   -1.1197 C   0  0  0  0  0  0  0  0  0  0  0  0
   -5.6039    0.5794    1.1821 C   0  0  0  0  0  0  0  0  0  0  0  0
   -7.5656    1.2173   -0.6961 C   0  0  0  0  0  0  0  0  0  0  0  0
   -6.8703    0.9826    1.6059 C   0  0  0  0  0  0  0  0  0  0  0  0
   -7.8512    1.3014    0.6667 C   0  0  0  0  0  0  0  0  0  0  0  0
   -0.1359   -1.1642   -3.0309 H   0  0  0  0  0  0  0  0  0  0  0  0
    0.3728    0.2484    0.4899 H   0  0  0  0  0  0  0  0  0  0  0  0
    0.7246    0.8388   -1.8114 H   0  0  0  0  0  0  0  0  0  0  0  0
    1.8916   -0.4206   -2.1016 H   0  0  0  0  0  0  0  0  0  0  0  0
    1.1522   -2.9050   -2.2343 H   0  0  0  0  0  0  0  0  0  0  0  0
   -0.4805   -3.2909   -1.6846 H   0  0  0  0  0  0  0  0  0  0  0  0
    2.1258   -0.9503    2.5091 H   0  0  0  0  0  0  0  0  0  0  0  0
    0.6859   -4.8733   -0.1495 H   0  0  0  0  0  0  0  0  0  0  0  0
   -1.8282    0.5343   -3.1870 H   0  0  0  0  0  0  0  0  0  0  0  0
   -1.4578   -1.8999    0.3724 H   0  0  0  0  0  0  0  0  0  0  0  0
    2.2650   -3.2033    3.4647 H   0  0  0  0  0  0  0  0  0  0  0  0
    1.5572   -5.1735    2.1367 H   0  0  0  0  0  0  0  0  0  0  0  0
   -4.0231    1.2628   -2.4522 H   0  0  0  0  0  0  0  0  0  0  0  0
   -3.6289   -1.2231    1.0894 H   0  0  0  0  0  0  0  0  0  0  0  0
    6.0494   -0.4893   -1.5436 H   0  0  0  0  0  0  0  0  0  0  0  0
    1.4044    3.0002    2.0506 H   0  0  0  0  0  0  0  0  0  0  0  0
    6.4142    3.7113    1.0464 H   0  0  0  0  0  0  0  0  0  0  0  0
    8.1624    0.7496   -1.4961 H   0  0  0  0  0  0  0  0  0  0  0  0
    8.3455    2.8560   -0.2001 H   0  0  0  0  0  0  0  0  0  0  0  0
   -6.1329    0.7336   -2.1905 H   0  0  0  0  0  0  0  0  0  0  0  0
   -4.8632    0.3709    1.9492 H   0  0  0  0  0  0  0  0  0  0  0  0
   -8.3211    1.4561   -1.4403 H   0  0  0  0  0  0  0  0  0  0  0  0
   -7.0750    1.0497    2.6713 H   0  0  0  0  0  0  0  0  0  0  0  0
  1 35  1  0  0  0  0
  2 18  1  0  0  0  0
  2 25  1  0  0  0  0
  3 18  1  0  0  0  0
  3 51  1  0  0  0  0
  4 17  2  0  0  0  0
  5  7  1  0  0  0  0
  5  8  1  0  0  0  0
  5 11  1  0  0  0  0
  5 36  1  0  0  0  0
  6  7  1  0  0  0  0
  6  9  1  0  0  0  0
  6 12  1  0  0  0  0
  6 37  1  0  0  0  0
  7 38  1  0  0  0  0
  7 39  1  0  0  0  0
  8 10  1  0  0  0  0
  8 40  1  0  0  0  0
  8 41  1  0  0  0  0
  9 10  1  0  0  0  0
  9 13  2  0  0  0  0
 10 14  2  0  0  0  0
 11 15  2  0  0  0  0
 11 16  1  0  0  0  0
 12 17  1  0  0  0  0
 12 18  2  0  0  0  0
 13 19  1  0  0  0  0
 13 42  1  0  0  0  0
 14 20  1  0  0  0  0
 14 43  1  0  0  0  0
 15 22  1  0  0  0  0
 15 44  1  0  0  0  0
 16 23  2  0  0  0  0
 16 45  1  0  0  0  0
 17 21  1  0  0  0  0
 19 20  2  0  0  0  0
 19 46  1  0  0  0  0
 20 47  1  0  0  0  0
 21 25  1  0  0  0  0
 21 26  2  0  0  0  0
 22 24  2  0  0  0  0
 22 48  1  0  0  0  0
 23 24  1  0  0  0  0
 23 49  1  0  0  0  0
 24 27  1  0  0  0  0
 25 28  2  0  0  0  0
 26 29  1  0  0  0  0
 26 50  1  0  0  0  0
 27 31  2  0  0  0  0
 27 32  1  0  0  0  0
 28 30  1  0  0  0  0
 28 52  1  0  0  0  0
 29 30  2  0  0  0  0
 29 53  1  0  0  0  0
 30 54  1  0  0  0  0
 31 33  1  0  0  0  0
 31 55  1  0  0  0  0
 32 34  2  0  0  0  0
 32 56  1  0  0  0  0
 33 35  2  0  0  0  0
 33 57  1  0  0  0  0
 34 35  1  0  0  0  0
 34 58  1  0  0  0  0
M  END
> <PUBCHEM_COMPOUND_CID>
91771

> <PUBCHEM_CONFORMER_RMSD>
0.8

> <PUBCHEM_CONFORMER_DIVERSEORDER>
4
6
34
12
43
25
11
32
37
7
18
1
44
38
15
3
39
35
10
31
41
14
13
28
24
42
9
22
30
40
21
36
8
20
2
29
26
19
27
5
33
17
23
16

> <PUBCHEM_MMFF94_PARTIAL_CHARGES>
49
1 -0.11
10 -0.14
11 -0.14
12 -0.12
13 -0.15
14 -0.15
15 -0.15
16 -0.15
17 0.47
18 0.18
19 -0.15
2 -0.2
20 -0.15
21 0.09
22 -0.15
23 -0.15
25 0.1
26 -0.15
28 -0.15
29 -0.15
3 -0.53
30 -0.15
31 -0.15
32 -0.15
33 -0.15
34 -0.15
35 0.11
4 -0.57
42 0.15
43 0.15
44 0.15
45 0.15
46 0.15
47 0.15
48 0.15
49 0.15
5 0.14
50 0.15
51 0.45
52 0.15
53 0.15
54 0.15
55 0.15
56 0.15
57 0.15
58 0.15
6 0.28
8 0.14
9 -0.14

> <PUBCHEM_EFFECTIVE_ROTOR_COUNT>
3.8

> <PUBCHEM_PHARMACOPHORE_FEATURES>
9
1 1 hydrophobe
1 3 donor
1 4 acceptor
6 11 15 16 22 23 24 rings
6 2 12 17 18 21 25 rings
6 21 25 26 28 29 30 rings
6 27 31 32 33 34 35 rings
6 5 6 7 8 9 10 rings
6 9 10 13 14 19 20 rings

> <PUBCHEM_HEAVY_ATOM_COUNT>
35

> <PUBCHEM_ATOM_DEF_STEREO_COUNT>
0

> <PUBCHEM_ATOM_UDEF_STEREO_COUNT>
2

> <PUBCHEM_BOND_DEF_STEREO_COUNT>
0

> <PUBCHEM_BOND_UDEF_STEREO_COUNT>
0

> <PUBCHEM_ISOTOPIC_ATOM_COUNT>
0

> <PUBCHEM_COMPONENT_COUNT>
1

> <PUBCHEM_CACTVS_TAUTO_COUNT>
3

> <PUBCHEM_CONFORMER_ID>
0001667B00000004

> <PUBCHEM_MMFF94_ENERGY>
114.6029

> <PUBCHEM_FEATURE_SELFOVERLAP>
45.704

> <PUBCHEM_SHAPE_FINGERPRINT>
10 15 17775568632674045181
10165383 225 18273493468613099518
10190108 129 18272087231717128980
10369192 42 17846219929901978796
10483366 6 17603297159898679164
10670039 82 15502367964000699801
10674148 151 17821729417143995016
10675989 125 18334299743348526184
11607047 403 15482672407569319242
11621639 336 18043242646560042472
11828532 37 4678235644270092733
1200032 147 18187080659210502507
12047536 79 18056480776218524485
12202916 173 8070033263549599948
12522641 24 18269834379705105946
12623949 98 12534805888743331608
13540713 4 17058383710988564447
14068700 675 10231763292094496878
14400156 147 15477907317184881659
14565420 104 18343022189796129282
15183329 4 16805318885851498220
15357212 105 17628063500480523156
15392192 104 18201999916035868339
1577012 14 17676491653244165037
15840311 113 18335131020956068668
16087824 20 18040429997485396416
19309040 13 17974002843769482612
1979834 28 17704351100011299823
20505436 4 18260270746167995671
21033648 29 18269845211928825888
21136928 129 18126837210899105288
22224240 67 18060138713004806591
23523788 1 14979690926233118522
23559900 14 6988021480242171783
249057 3 7276823576749800269
3178227 256 18131349704891490796
3411729 13 18341897419618926134
3633792 109 15864341429860694372
38570 142 18187085031297156583
437795 51 18343578573013716606
4516262 110 18409455790859335581
474113 269 5328198663060166004
50009960 94 15122364522069761945
5252454 2 18340786856871161342
5385378 56 18272654571237513466
54076057 255 17530686528306552305
5758199 1 18341894078255156567
613672 6 7853304201735092228
6698420 124 18338234869736301920
6703917 75 17985260781932934750
9689198 14 18260822683539867853
9896288 288 18197778791459486747

> <PUBCHEM_SHAPE_MULTIPOLES>
718.34
21.76
3.87
2.02
33.56
3.5
0.07
-24.65
3.31
-5.27
2.34
0.73
0.75
-1.1

> <PUBCHEM_SHAPE_SELFOVERLAP>
1586.125

> <PUBCHEM_SHAPE_VOLUME>
392.9

> <PUBCHEM_COORDINATE_TYPE>
2
5
10

$$$$

