4338370
  -OEChem-07051213142D

 18 18  0     0  0  0  0  0  0999 V2000
    5.1350    2.0600    0.0000 O   0  5  0  0  0  0  0  0  0  0  0  0
    3.4030    2.0600    0.0000 O   0  0  0  0  0  0  0  0  0  0  0  0
    4.2690    1.5600    0.0000 N   0  3  0  0  0  0  0  0  0  0  0  0
    2.5369    0.5600    0.0000 N   0  0  0  0  0  0  0  0  0  0  0  0
    6.0010   -1.4400    0.0000 N   0  0  0  0  0  0  0  0  0  0  0  0
    4.2690    0.5600    0.0000 C   0  0  0  0  0  0  0  0  0  0  0  0
    3.4030    0.0600    0.0000 C   0  0  0  0  0  0  0  0  0  0  0  0
    5.1350   -0.9400    0.0000 C   0  0  0  0  0  0  0  0  0  0  0  0
    5.1350    0.0600    0.0000 C   0  0  0  0  0  0  0  0  0  0  0  0
    3.4030   -0.9400    0.0000 C   0  0  0  0  0  0  0  0  0  0  0  0
    4.2690   -1.4400    0.0000 C   0  0  0  0  0  0  0  0  0  0  0  0
    5.6720    0.3700    0.0000 H   0  0  0  0  0  0  0  0  0  0  0  0
    2.8660   -1.2500    0.0000 H   0  0  0  0  0  0  0  0  0  0  0  0
    4.2690   -2.0600    0.0000 H   0  0  0  0  0  0  0  0  0  0  0  0
    2.0000    0.2500    0.0000 H   0  0  0  0  0  0  0  0  0  0  0  0
    2.5369    1.1800    0.0000 H   0  0  0  0  0  0  0  0  0  0  0  0
    6.0010   -2.0600    0.0000 H   0  0  0  0  0  0  0  0  0  0  0  0
    6.5380   -1.1300    0.0000 H   0  0  0  0  0  0  0  0  0  0  0  0
  1  3  1  0  0  0  0
  2  3  2  0  0  0  0
  3  6  1  0  0  0  0
  4  7  1  0  0  0  0
  4 15  1  0  0  0  0
  4 16  1  0  0  0  0
  5  8  1  0  0  0  0
  5 17  1  0  0  0  0
  5 18  1  0  0  0  0
  6  7  2  0  0  0  0
  6  9  1  0  0  0  0
  7 10  1  0  0  0  0
  8  9  2  0  0  0  0
  8 11  1  0  0  0  0
  9 12  1  0  0  0  0
 10 11  2  0  0  0  0
 10 13  1  0  0  0  0
 11 14  1  0  0  0  0
M  CHG  2   1  -1   3   1
M  END
> <PUBCHEM_COMPOUND_CID>
4338370

> <PUBCHEM_COMPOUND_CANONICALIZED>
1

> <PUBCHEM_CACTVS_COMPLEXITY>
156

> <PUBCHEM_CACTVS_HBOND_ACCEPTOR>
4

> <PUBCHEM_CACTVS_HBOND_DONOR>
2

> <PUBCHEM_CACTVS_ROTATABLE_BOND>
0

> <PUBCHEM_CACTVS_SUBSKEYS>
AAADcYBjMAAAAAAAAAAAAAAAAAAAAAAAAAAwAAAAAAAAAAABAAAAHAAUAAAACAiBEAAwwIBQQACBACRCQwCCAAAgAgAoiAAAdIoIYCKA0dGAIABgkIAIyAcQAAAAAACAAAQAACAAAQAACAAAQAAAAAAAAA==

> <PUBCHEM_IUPAC_OPENEYE_NAME>
2-nitrobenzene-1,4-diamine

> <PUBCHEM_IUPAC_CAS_NAME>
2-nitrobenzene-1,4-diamine

> <PUBCHEM_IUPAC_NAME>
2-nitrobenzene-1,4-diamine

> <PUBCHEM_IUPAC_SYSTEMATIC_NAME>
2-nitrobenzene-1,4-diamine

> <PUBCHEM_IUPAC_TRADITIONAL_NAME>
(4-amino-2-nitro-phenyl)amine

> <PUBCHEM_IUPAC_INCHI>
InChI=1S/C6H7N3O2/c7-4-1-2-5(8)6(3-4)9(10)11/h1-3H,7-8H2

> <PUBCHEM_IUPAC_INCHIKEY>
HVHNMNGARPCGGD-UHFFFAOYSA-N

> <PUBCHEM_XLOGP3>
0.5

> <PUBCHEM_EXACT_MASS>
153.053826

> <PUBCHEM_MOLECULAR_FORMULA>
C6H7N3O2

> <PUBCHEM_MOLECULAR_WEIGHT>
153.13868

> <PUBCHEM_OPENEYE_CAN_SMILES>
C1=CC(=C(C=C1N)[N+](=O)[O-])N

> <PUBCHEM_OPENEYE_ISO_SMILES>
C1=CC(=C(C=C1N)[N+](=O)[O-])N

> <PUBCHEM_CACTVS_TPSA>
97.9

> <PUBCHEM_MONOISOTOPIC_WEIGHT>
153.053826

> <PUBCHEM_TOTAL_CHARGE>
0

> <PUBCHEM_HEAVY_ATOM_COUNT>
11

> <PUBCHEM_ATOM_DEF_STEREO_COUNT>
0

> <PUBCHEM_ATOM_UDEF_STEREO_COUNT>
0

> <PUBCHEM_BOND_DEF_STEREO_COUNT>
0

> <PUBCHEM_BOND_UDEF_STEREO_COUNT>
0

> <PUBCHEM_ISOTOPIC_ATOM_COUNT>
0

> <PUBCHEM_COMPONENT_COUNT>
1

> <PUBCHEM_CACTVS_TAUTO_COUNT>
1

> <PUBCHEM_COORDINATE_TYPE>
1
5
255

> <PUBCHEM_BONDANNOTATIONS>
10  11  8
6  7  8
6  9  8
7  10  8
8  11  8
8  9  8

$$$$

