439650
  -OEChem-07051212463D

 23 23  0     1  0  0  0  0  0999 V2000
    0.6818    1.3763   -0.1096 O   0  0  0  0  0  0  0  0  0  0  0  0
   -0.9043   -2.4452   -0.0230 O   0  0  0  0  0  0  0  0  0  0  0  0
    1.2791   -1.1936   -1.2040 O   0  0  0  0  0  0  0  0  0  0  0  0
   -2.6231   -0.1436    0.3147 O   0  0  0  0  0  0  0  0  0  0  0  0
   -1.4247    2.2870   -0.5366 O   0  0  0  0  0  0  0  0  0  0  0  0
   -0.4573   -1.1886    0.4784 C   0  0  1  0  0  0  0  0  0  0  0  0
    1.0337   -1.0074    0.1914 C   0  0  2  0  0  0  0  0  0  0  0  0
   -1.2795   -0.0705   -0.1618 C   0  0  2  0  0  0  0  0  0  0  0  0
    1.4704    0.4062    0.5909 C   0  0  1  0  0  0  0  0  0  0  0  0
   -0.7079    1.3007    0.2054 C   0  0  1  0  0  0  0  0  0  0  0  0
    2.9318    0.6787    0.2543 C   0  0  0  0  0  0  0  0  0  0  0  0
   -0.6245   -1.1998    1.5627 H   0  0  0  0  0  0  0  0  0  0  0  0
    1.6158   -1.7694    0.7203 H   0  0  0  0  0  0  0  0  0  0  0  0
   -1.3242   -0.2017   -1.2498 H   0  0  0  0  0  0  0  0  0  0  0  0
    1.3292    0.5527    1.6694 H   0  0  0  0  0  0  0  0  0  0  0  0
   -0.8619    1.5154    1.2705 H   0  0  0  0  0  0  0  0  0  0  0  0
    3.5926   -0.0461    0.7392 H   0  0  0  0  0  0  0  0  0  0  0  0
    3.1082    0.6525   -0.8264 H   0  0  0  0  0  0  0  0  0  0  0  0
    3.2141    1.6834    0.5881 H   0  0  0  0  0  0  0  0  0  0  0  0
   -1.8566   -2.5111    0.1629 H   0  0  0  0  0  0  0  0  0  0  0  0
    0.8960   -0.4408   -1.6849 H   0  0  0  0  0  0  0  0  0  0  0  0
   -3.1159    0.5904   -0.0907 H   0  0  0  0  0  0  0  0  0  0  0  0
   -1.3573    3.1210   -0.0416 H   0  0  0  0  0  0  0  0  0  0  0  0
  1  9  1  0  0  0  0
  1 10  1  0  0  0  0
  2  6  1  0  0  0  0
  2 20  1  0  0  0  0
  3  7  1  0  0  0  0
  3 21  1  0  0  0  0
  4  8  1  0  0  0  0
  4 22  1  0  0  0  0
  5 10  1  0  0  0  0
  5 23  1  0  0  0  0
  6  7  1  0  0  0  0
  6  8  1  0  0  0  0
  6 12  1  0  0  0  0
  7  9  1  0  0  0  0
  7 13  1  0  0  0  0
  8 10  1  0  0  0  0
  8 14  1  0  0  0  0
  9 11  1  0  0  0  0
  9 15  1  0  0  0  0
 10 16  1  0  0  0  0
 11 17  1  0  0  0  0
 11 18  1  0  0  0  0
 11 19  1  0  0  0  0
M  END
> <PUBCHEM_COMPOUND_CID>
439650

> <PUBCHEM_CONFORMER_RMSD>
0.4

> <PUBCHEM_CONFORMER_DIVERSEORDER>
1
3
4
2

> <PUBCHEM_MMFF94_PARTIAL_CHARGES>
14
1 -0.56
10 0.56
2 -0.68
20 0.4
21 0.4
22 0.4
23 0.4
3 -0.68
4 -0.68
5 -0.68
6 0.28
7 0.28
8 0.28
9 0.28

> <PUBCHEM_EFFECTIVE_ROTOR_COUNT>
1.2

> <PUBCHEM_PHARMACOPHORE_FEATURES>
10
1 1 acceptor
1 2 acceptor
1 2 donor
1 3 acceptor
1 3 donor
1 4 acceptor
1 4 donor
1 5 acceptor
1 5 donor
6 1 6 7 8 9 10 rings

> <PUBCHEM_HEAVY_ATOM_COUNT>
11

> <PUBCHEM_ATOM_DEF_STEREO_COUNT>
5

> <PUBCHEM_ATOM_UDEF_STEREO_COUNT>
0

> <PUBCHEM_BOND_DEF_STEREO_COUNT>
0

> <PUBCHEM_BOND_UDEF_STEREO_COUNT>
0

> <PUBCHEM_ISOTOPIC_ATOM_COUNT>
0

> <PUBCHEM_COMPONENT_COUNT>
1

> <PUBCHEM_CACTVS_TAUTO_COUNT>
1

> <PUBCHEM_CONFORMER_ID>
0006B56200000001

> <PUBCHEM_MMFF94_ENERGY>
24.7118

> <PUBCHEM_FEATURE_SELFOVERLAP>
50.81

> <PUBCHEM_SHAPE_FINGERPRINT>
12423570 1 16750175890932103851
161256 15 18264475364267458635
16945 1 18340218396701370472
18185500 45 17981048517962210026
193761 8 17907020925652521521
20588541 1 18335133155217152122
20871998 184 18117558422937667622
21040471 1 18339647844661129448
21922407 69 15409742926026466761
23235685 24 18335988583879993656
23552423 10 18126281080445446794
241688 4 18122334946135229600
2748010 2 18267304424649506076
5084963 1 18187932832055784938
66348 1 17762058048376585993

> <PUBCHEM_SHAPE_MULTIPOLES>
197.03
2.93
2.15
0.78
0.94
0.04
0.09
-0.52
-0.22
-0.83
0.28
0.14
0.11
0.3

> <PUBCHEM_SHAPE_SELFOVERLAP>
391.999

> <PUBCHEM_SHAPE_VOLUME>
114.8

> <PUBCHEM_COORDINATE_TYPE>
2
5
10

$$$$

