439779
  -OEChem-07051212473D

 20 20  0     1  0  0  0  0  0999 V2000
   -3.1365   -0.0922   -0.5176 O   0  0  0  0  0  0  0  0  0  0  0  0
   -1.5535   -1.8180    0.8957 O   0  0  0  0  0  0  0  0  0  0  0  0
   -1.8690    1.8838    0.7925 O   0  0  0  0  0  0  0  0  0  0  0  0
    2.9910    1.1468   -0.4694 O   0  0  0  0  0  0  0  0  0  0  0  0
    3.1758   -0.9456    0.4349 O   0  0  0  0  0  0  0  0  0  0  0  0
   -1.7373   -0.0094   -0.7010 C   0  0  2  0  0  0  0  0  0  0  0  0
   -1.0532   -1.3334   -0.3505 C   0  0  1  0  0  0  0  0  0  0  0  0
    0.3457    1.2961    0.0783 C   0  0  0  0  0  0  0  0  0  0  0  0
   -1.1608    1.1109    0.1489 C   0  0  0  0  0  0  0  0  0  0  0  0
    1.0471   -0.0173   -0.0713 C   0  0  0  0  0  0  0  0  0  0  0  0
    0.4394   -1.2006   -0.2460 C   0  0  0  0  0  0  0  0  0  0  0  0
    2.5113   -0.0212    0.0054 C   0  0  0  0  0  0  0  0  0  0  0  0
   -1.5522    0.2545   -1.7488 H   0  0  0  0  0  0  0  0  0  0  0  0
   -1.3104   -2.0813   -1.1081 H   0  0  0  0  0  0  0  0  0  0  0  0
    0.6689    1.7910    1.0010 H   0  0  0  0  0  0  0  0  0  0  0  0
    0.5546    1.9504   -0.7748 H   0  0  0  0  0  0  0  0  0  0  0  0
    1.0117   -2.1217   -0.3199 H   0  0  0  0  0  0  0  0  0  0  0  0
   -3.3009   -0.4021    0.3894 H   0  0  0  0  0  0  0  0  0  0  0  0
   -1.3376   -1.1676    1.5858 H   0  0  0  0  0  0  0  0  0  0  0  0
    3.9707    1.1846   -0.4349 H   0  0  0  0  0  0  0  0  0  0  0  0
  1  6  1  0  0  0  0
  1 18  1  0  0  0  0
  2  7  1  0  0  0  0
  2 19  1  0  0  0  0
  3  9  2  0  0  0  0
  4 12  1  0  0  0  0
  4 20  1  0  0  0  0
  5 12  2  0  0  0  0
  6  7  1  0  0  0  0
  6  9  1  0  0  0  0
  6 13  1  0  0  0  0
  7 11  1  0  0  0  0
  7 14  1  0  0  0  0
  8  9  1  0  0  0  0
  8 10  1  0  0  0  0
  8 15  1  0  0  0  0
  8 16  1  0  0  0  0
 10 11  2  0  0  0  0
 10 12  1  0  0  0  0
 11 17  1  0  0  0  0
M  END
> <PUBCHEM_COMPOUND_CID>
439779

> <PUBCHEM_CONFORMER_RMSD>
0.4

> <PUBCHEM_CONFORMER_DIVERSEORDER>
1
4
3
5
2
6

> <PUBCHEM_MMFF94_PARTIAL_CHARGES>
16
1 -0.68
10 -0.12
11 -0.29
12 0.71
17 0.15
18 0.4
19 0.4
2 -0.68
20 0.5
3 -0.57
4 -0.65
5 -0.57
6 0.34
7 0.42
8 0.2
9 0.45

> <PUBCHEM_EFFECTIVE_ROTOR_COUNT>
1.6

> <PUBCHEM_PHARMACOPHORE_FEATURES>
9
1 1 acceptor
1 1 donor
1 2 acceptor
1 2 donor
1 3 acceptor
1 4 acceptor
1 5 acceptor
3 4 5 12 anion
6 6 7 8 9 10 11 rings

> <PUBCHEM_HEAVY_ATOM_COUNT>
12

> <PUBCHEM_ATOM_DEF_STEREO_COUNT>
2

> <PUBCHEM_ATOM_UDEF_STEREO_COUNT>
0

> <PUBCHEM_BOND_DEF_STEREO_COUNT>
0

> <PUBCHEM_BOND_UDEF_STEREO_COUNT>
0

> <PUBCHEM_ISOTOPIC_ATOM_COUNT>
0

> <PUBCHEM_COMPONENT_COUNT>
1

> <PUBCHEM_CACTVS_TAUTO_COUNT>
20

> <PUBCHEM_CONFORMER_ID>
0006B5E300000001

> <PUBCHEM_MMFF94_ENERGY>
16.0026

> <PUBCHEM_FEATURE_SELFOVERLAP>
45.742

> <PUBCHEM_SHAPE_FINGERPRINT>
12423570 1 8568734217263509275
12932764 1 17167583769832347382
13024252 1 13470690355982781239
13380535 76 18263646336758283103
14325111 11 18336548308529279396
16945 1 18259706691932536423
19973954 147 18410289190581791116
207724 885 18131351942363255948
20871998 184 18114740443260345647
21040471 1 18263076789666523276
22802520 49 18042941320639004302
23235685 24 18410581694886857365
23402539 116 18115606918647358527
23552423 10 18339642364351639454
2748010 2 17975422308489094085
3248919 1 18411141342221418118
3312278 4 18270115687151023146
369184 2 17632582642907727854
5084963 1 18341624762140995612
8030462 33 18409448064228753652

> <PUBCHEM_SHAPE_MULTIPOLES>
217.61
4.17
1.77
0.78
1.95
0.08
0.03
0.12
-0.15
-0.56
0.34
-0.21
-0.05
-0.27

> <PUBCHEM_SHAPE_SELFOVERLAP>
451.084

> <PUBCHEM_SHAPE_VOLUME>
123

> <PUBCHEM_COORDINATE_TYPE>
2
5
10

$$$$

