101689
  -OEChem-07051212593D

 37 41  0     1  0  0  0  0  0999 V2000
   -0.2897    0.2724   -1.9214 O   0  0  0  0  0  0  0  0  0  0  0  0
    1.0376    1.0442    1.6956 O   0  0  0  0  0  0  0  0  0  0  0  0
   -0.9993    3.0876   -0.6016 O   0  0  0  0  0  0  0  0  0  0  0  0
   -4.4722   -0.6493    1.4332 O   0  0  0  0  0  0  0  0  0  0  0  0
   -4.2379   -2.1394   -0.4478 O   0  0  0  0  0  0  0  0  0  0  0  0
    4.9971   -1.4525    0.9646 O   0  0  0  0  0  0  0  0  0  0  0  0
   -0.4180    1.8858   -0.1052 C   0  0  2  0  0  0  0  0  0  0  0  0
    0.4898    1.2509   -1.1778 C   0  0  1  0  0  0  0  0  0  0  0  0
   -1.4912    0.8580   -0.0301 C   0  0  0  0  0  0  0  0  0  0  0  0
    0.3274    2.1763    1.1908 C   0  0  0  0  0  0  0  0  0  0  0  0
    1.7077    0.5719   -0.5973 C   0  0  0  0  0  0  0  0  0  0  0  0
   -1.3637   -0.0129   -1.1156 C   0  0  0  0  0  0  0  0  0  0  0  0
    1.9050    0.4968    0.7868 C   0  0  0  0  0  0  0  0  0  0  0  0
   -2.5230    0.7137    0.8855 C   0  0  0  0  0  0  0  0  0  0  0  0
   -2.2466   -1.0534   -1.3462 C   0  0  0  0  0  0  0  0  0  0  0  0
    2.6499   -0.0229   -1.4490 C   0  0  0  0  0  0  0  0  0  0  0  0
   -3.3974   -0.3330    0.6583 C   0  0  0  0  0  0  0  0  0  0  0  0
   -3.2640   -1.1877   -0.4224 C   0  0  0  0  0  0  0  0  0  0  0  0
    2.9989   -0.1959    1.3112 C   0  0  0  0  0  0  0  0  0  0  0  0
    3.7538   -0.6968   -0.9253 C   0  0  0  0  0  0  0  0  0  0  0  0
    3.9251   -0.7877    0.4542 C   0  0  0  0  0  0  0  0  0  0  0  0
   -4.9959   -1.7933    0.7290 C   0  0  0  0  0  0  0  0  0  0  0  0
    5.9066   -2.0327    0.0306 C   0  0  0  0  0  0  0  0  0  0  0  0
    0.8247    2.0144   -1.8923 H   0  0  0  0  0  0  0  0  0  0  0  0
    1.0303    3.0106    1.0582 H   0  0  0  0  0  0  0  0  0  0  0  0
   -0.3694    2.5033    1.9718 H   0  0  0  0  0  0  0  0  0  0  0  0
   -2.6439    1.3854    1.7260 H   0  0  0  0  0  0  0  0  0  0  0  0
   -1.5686    2.8740   -1.3607 H   0  0  0  0  0  0  0  0  0  0  0  0
   -2.1425   -1.7214   -2.1915 H   0  0  0  0  0  0  0  0  0  0  0  0
    2.5213    0.0281   -2.5275 H   0  0  0  0  0  0  0  0  0  0  0  0
    3.1349   -0.2665    2.3876 H   0  0  0  0  0  0  0  0  0  0  0  0
    4.4348   -1.1319   -1.6489 H   0  0  0  0  0  0  0  0  0  0  0  0
   -4.9987   -2.6527    1.4093 H   0  0  0  0  0  0  0  0  0  0  0  0
   -6.0283   -1.5784    0.4302 H   0  0  0  0  0  0  0  0  0  0  0  0
    6.3891   -1.2690   -0.5888 H   0  0  0  0  0  0  0  0  0  0  0  0
    5.4242   -2.8110   -0.5704 H   0  0  0  0  0  0  0  0  0  0  0  0
    6.6973   -2.5206    0.6100 H   0  0  0  0  0  0  0  0  0  0  0  0
  1  8  1  0  0  0  0
  1 12  1  0  0  0  0
  2 10  1  0  0  0  0
  2 13  1  0  0  0  0
  3  7  1  0  0  0  0
  3 28  1  0  0  0  0
  4 17  1  0  0  0  0
  4 22  1  0  0  0  0
  5 18  1  0  0  0  0
  5 22  1  0  0  0  0
  6 21  1  0  0  0  0
  6 23  1  0  0  0  0
  7  8  1  0  0  0  0
  7  9  1  0  0  0  0
  7 10  1  0  0  0  0
  8 11  1  0  0  0  0
  8 24  1  0  0  0  0
  9 12  1  0  0  0  0
  9 14  2  0  0  0  0
 10 25  1  0  0  0  0
 10 26  1  0  0  0  0
 11 13  2  0  0  0  0
 11 16  1  0  0  0  0
 12 15  2  0  0  0  0
 13 19  1  0  0  0  0
 14 17  1  0  0  0  0
 14 27  1  0  0  0  0
 15 18  1  0  0  0  0
 15 29  1  0  0  0  0
 16 20  2  0  0  0  0
 16 30  1  0  0  0  0
 17 18  2  0  0  0  0
 19 21  2  0  0  0  0
 19 31  1  0  0  0  0
 20 21  1  0  0  0  0
 20 32  1  0  0  0  0
 22 33  1  0  0  0  0
 22 34  1  0  0  0  0
 23 35  1  0  0  0  0
 23 36  1  0  0  0  0
 23 37  1  0  0  0  0
M  END
> <PUBCHEM_COMPOUND_CID>
101689

> <PUBCHEM_CONFORMER_RMSD>
0.6

> <PUBCHEM_CONFORMER_DIVERSEORDER>
1
2

> <PUBCHEM_MMFF94_PARTIAL_CHARGES>
29
1 -0.36
10 0.28
11 -0.14
12 0.08
13 0.08
14 -0.15
15 -0.15
16 -0.15
17 0.08
18 0.08
19 -0.15
2 -0.36
20 -0.15
21 0.08
22 0.56
23 0.28
27 0.15
28 0.4
29 0.15
3 -0.68
30 0.15
31 0.15
32 0.15
4 -0.36
5 -0.36
6 -0.36
7 0.42
8 0.42
9 -0.14

> <PUBCHEM_EFFECTIVE_ROTOR_COUNT>
2.2

> <PUBCHEM_PHARMACOPHORE_FEATURES>
12
1 1 acceptor
1 2 acceptor
1 3 acceptor
1 3 donor
1 4 acceptor
1 5 acceptor
1 6 acceptor
5 1 7 8 9 12 rings
5 4 5 17 18 22 rings
6 11 13 16 19 20 21 rings
6 2 7 8 10 11 13 rings
6 9 12 14 15 17 18 rings

> <PUBCHEM_HEAVY_ATOM_COUNT>
23

> <PUBCHEM_ATOM_DEF_STEREO_COUNT>
2

> <PUBCHEM_ATOM_UDEF_STEREO_COUNT>
0

> <PUBCHEM_BOND_DEF_STEREO_COUNT>
0

> <PUBCHEM_BOND_UDEF_STEREO_COUNT>
0

> <PUBCHEM_ISOTOPIC_ATOM_COUNT>
0

> <PUBCHEM_COMPONENT_COUNT>
1

> <PUBCHEM_CACTVS_TAUTO_COUNT>
1

> <PUBCHEM_CONFORMER_ID>
00018D3900000001

> <PUBCHEM_MMFF94_ENERGY>
85.5962

> <PUBCHEM_FEATURE_SELFOVERLAP>
61.455

> <PUBCHEM_SHAPE_FINGERPRINT>
10948715 1 8862948272726674337
11578080 2 18130241371132442405
11640471 11 7493284421860937372
11796584 16 18272374216883412934
11961588 58 10591749953549125990
12251169 10 17023182687021011005
12363563 72 18341331115269140059
12553582 1 18335417941634844926
12633257 1 17022907817625139982
12670546 177 14476964484165823866
12714826 92 18334858371952800836
12824470 246 18130797810114875970
12892183 10 15936399074356781923
13103583 49 18114172030303878091
13533116 47 18051974724027768827
13544653 18 18343867697173888844
13583140 156 17970929958024591560
13911987 19 16340289136540889204
14251764 30 18131059407941399323
14251764 38 8500641608354074186
15061688 2 8430319043109914416
15188451 53 17604437289143437287
15209289 33 18334577949332897826
15209294 21 5400504780699937258
15238133 3 14345792726119738346
16945 1 18187922944999332884
17349148 13 16271930458796254728
17492 54 14261352444450157363
1813 80 18410847742114447580
18186145 218 13686294677510394012
193927 3 18131346414619377546
19765921 60 10159711170287970149
19784866 135 18411420639317419929
19784866 240 18060134345023163887
19862831 5 14764353738232734127
200 152 17275100661084272212
20388580 30 17917707955172824245
20775530 9 17984994940300065706
21033648 29 15719657845074186731
21637258 2 18273498965870765682
21713013 43 16199868367479272427
21731516 1 18341900675035032469
21756936 100 14275167697096079072
22393880 68 14692573186897376698
22950370 63 18412820265979789762
23559900 14 18271817808175863045
238 59 14476961190310633456
2838139 119 9295288326938839514
3323516 105 15195284175456165325
3472631 163 8430314632300262723
3737641 26 18262797514114858774
4028521 119 11743838066585296218
463206 1 18130227060348741827
465052 167 18270387284109596203
5104073 3 17606102997920299235
633830 44 10375334256727502653
6786 2 17049378852243326677
7097593 13 17314801693616777993
76465 3 18412825772154230463
7808743 9 8790880778752290307
7970288 3 18343018865571284707

> <PUBCHEM_SHAPE_MULTIPOLES>
438.11
9.83
2.26
1.57
4.13
0.71
-0.11
-9.73
2.8
-0.59
0.08
0.11
0.13
-0.06

> <PUBCHEM_SHAPE_SELFOVERLAP>
1004.894

> <PUBCHEM_SHAPE_VOLUME>
225.5

> <PUBCHEM_COORDINATE_TYPE>
2
5
10

$$$$

