9576780
  -OEChem-07051212553D

 50 51  0     1  0  0  0  0  0999 V2000
    1.5489    0.0258    0.0858 O   0  0  0  0  0  0  0  0  0  0  0  0
   -1.1832   -0.2394    0.2306 O   0  0  0  0  0  0  0  0  0  0  0  0
   -3.1164   -1.3705    1.0054 O   0  0  0  0  0  0  0  0  0  0  0  0
    1.3651   -3.6024    0.5510 O   0  0  0  0  0  0  0  0  0  0  0  0
    4.1995   -3.0526    0.6896 O   0  0  0  0  0  0  0  0  0  0  0  0
    3.2477    1.4398   -0.6615 O   0  0  0  0  0  0  0  0  0  0  0  0
    4.9044   -0.8138   -1.0912 O   0  0  0  0  0  0  0  0  0  0  0  0
   -4.3680    1.2716    1.1036 O   0  0  0  0  0  0  0  0  0  0  0  0
   -2.8398    0.4009   -2.0962 O   0  0  0  0  0  0  0  0  0  0  0  0
   -5.6907   -0.9204   -0.2628 O   0  0  0  0  0  0  0  0  0  0  0  0
    0.2178    3.7942    1.3631 O   0  5  0  0  0  0  0  0  0  0  0  0
    1.0441    2.5869   -0.3936 N   0  0  0  0  0  0  0  0  0  0  0  0
    1.1352    3.4327    0.5536 N   0  3  0  0  0  0  0  0  0  0  0  0
    0.9620   -1.2764    0.0577 C   0  0  1  0  0  0  0  0  0  0  0  0
    1.9284   -2.2979    0.6619 C   0  0  2  0  0  0  0  0  0  0  0  0
    3.2745   -2.2654   -0.0621 C   0  0  1  0  0  0  0  0  0  0  0  0
    3.8033   -0.8362   -0.1833 C   0  0  2  0  0  0  0  0  0  0  0  0
    2.7271    0.1119   -0.7124 C   0  0  1  0  0  0  0  0  0  0  0  0
   -0.3473   -1.2077    0.8375 C   0  0  0  0  0  0  0  0  0  0  0  0
   -2.4299   -0.1198    0.9084 C   0  0  2  0  0  0  0  0  0  0  0  0
   -3.3004    0.9364    0.2193 C   0  0  1  0  0  0  0  0  0  0  0  0
   -3.8731    0.4386   -1.1143 C   0  0  2  0  0  0  0  0  0  0  0  0
   -4.4647   -0.9670   -0.9886 C   0  0  1  0  0  0  0  0  0  0  0  0
   -3.5145   -1.9090   -0.2558 C   0  0  0  0  0  0  0  0  0  0  0  0
    2.3033    2.4026   -1.1409 C   0  0  0  0  0  0  0  0  0  0  0  0
    2.4667    4.0373    0.6953 C   0  0  0  0  0  0  0  0  0  0  0  0
    0.7232   -1.5308   -0.9840 H   0  0  0  0  0  0  0  0  0  0  0  0
    2.0946   -2.0940    1.7278 H   0  0  0  0  0  0  0  0  0  0  0  0
    3.2001   -2.7332   -1.0515 H   0  0  0  0  0  0  0  0  0  0  0  0
    4.1807   -0.4932    0.7881 H   0  0  0  0  0  0  0  0  0  0  0  0
    2.4923   -0.1263   -1.7587 H   0  0  0  0  0  0  0  0  0  0  0  0
   -0.1498   -0.9038    1.8727 H   0  0  0  0  0  0  0  0  0  0  0  0
   -0.8338   -2.1874    0.8389 H   0  0  0  0  0  0  0  0  0  0  0  0
   -2.2334    0.2074    1.9370 H   0  0  0  0  0  0  0  0  0  0  0  0
   -2.7018    1.8404    0.0541 H   0  0  0  0  0  0  0  0  0  0  0  0
   -4.6518    1.1263   -1.4653 H   0  0  0  0  0  0  0  0  0  0  0  0
   -4.6819   -1.3742   -1.9829 H   0  0  0  0  0  0  0  0  0  0  0  0
   -2.6275   -2.1243   -0.8617 H   0  0  0  0  0  0  0  0  0  0  0  0
   -4.0100   -2.8633   -0.0479 H   0  0  0  0  0  0  0  0  0  0  0  0
    0.6704   -3.6850    1.2255 H   0  0  0  0  0  0  0  0  0  0  0  0
    3.8286   -3.9490    0.7606 H   0  0  0  0  0  0  0  0  0  0  0  0
    5.2089    0.1075   -1.1568 H   0  0  0  0  0  0  0  0  0  0  0  0
   -4.8957    1.9669    0.6753 H   0  0  0  0  0  0  0  0  0  0  0  0
   -2.4880    1.3029   -2.1861 H   0  0  0  0  0  0  0  0  0  0  0  0
   -6.0553   -1.8216   -0.2413 H   0  0  0  0  0  0  0  0  0  0  0  0
    2.8330    3.3146   -1.4358 H   0  0  0  0  0  0  0  0  0  0  0  0
    1.9817    2.0396   -2.1283 H   0  0  0  0  0  0  0  0  0  0  0  0
    2.6613    4.7506   -0.1094 H   0  0  0  0  0  0  0  0  0  0  0  0
    2.4376    4.6399    1.6130 H   0  0  0  0  0  0  0  0  0  0  0  0
    3.2530    3.3013    0.8685 H   0  0  0  0  0  0  0  0  0  0  0  0
  1 14  1  0  0  0  0
  1 18  1  0  0  0  0
  2 19  1  0  0  0  0
  2 20  1  0  0  0  0
  3 20  1  0  0  0  0
  3 24  1  0  0  0  0
  4 15  1  0  0  0  0
  4 40  1  0  0  0  0
  5 16  1  0  0  0  0
  5 41  1  0  0  0  0
  6 18  1  0  0  0  0
  6 25  1  0  0  0  0
  7 17  1  0  0  0  0
  7 42  1  0  0  0  0
  8 21  1  0  0  0  0
  8 43  1  0  0  0  0
  9 22  1  0  0  0  0
  9 44  1  0  0  0  0
 10 23  1  0  0  0  0
 10 45  1  0  0  0  0
 11 13  1  0  0  0  0
 12 13  2  0  0  0  0
 12 25  1  0  0  0  0
 13 26  1  0  0  0  0
 14 15  1  0  0  0  0
 14 19  1  0  0  0  0
 14 27  1  0  0  0  0
 15 16  1  0  0  0  0
 15 28  1  0  0  0  0
 16 17  1  0  0  0  0
 16 29  1  0  0  0  0
 17 18  1  0  0  0  0
 17 30  1  0  0  0  0
 18 31  1  0  0  0  0
 19 32  1  0  0  0  0
 19 33  1  0  0  0  0
 20 21  1  0  0  0  0
 20 34  1  0  0  0  0
 21 22  1  0  0  0  0
 21 35  1  0  0  0  0
 22 23  1  0  0  0  0
 22 36  1  0  0  0  0
 23 24  1  0  0  0  0
 23 37  1  0  0  0  0
 24 38  1  0  0  0  0
 24 39  1  0  0  0  0
 25 46  1  0  0  0  0
 25 47  1  0  0  0  0
 26 48  1  0  0  0  0
 26 49  1  0  0  0  0
 26 50  1  0  0  0  0
M  CHG  2  11  -1  13   1
M  END
> <PUBCHEM_COMPOUND_CID>
9576780

> <PUBCHEM_CONFORMER_RMSD>
1

> <PUBCHEM_CONFORMER_DIVERSEORDER>
1
178
123
26
56
39
103
87
132
146
136
128
6
120
179
115
79
171
152
134
60
172
33
138
52
49
10
168
84
51
71
113
157
158
98
127
163
83
151
119
165
183
154
150
155
173
89
129
159
99
44
86
114
122
175
29
184
61
109
75
166
147
24
12
106
62
74
144
164
124
139
20
78
58
8
63
125
94
156
82
88
116
181
28
167
48
13
145
66
53
126
15
81
23
112
108
110
149
41
170
143
90
148
130
95
177
5
14
76
9
47
32
160
162
101
18
69
133
21
38
16
182
34
169
140
121
7
104
137
141
153
65
85
176
57
100
105
54
36
102
40
31
180
2
91
17
142
22
107
96
161
80
42
43
64
25
97
19
37
111
70
118
92
11
77
3
72
59
135
35
4
27
174
50
30
117
67
73
55
68
131
45
46
93

> <PUBCHEM_MMFF94_PARTIAL_CHARGES>
32
1 -0.56
10 -0.68
11 -0.63
12 -0.45
13 0.74
14 0.28
15 0.28
16 0.28
17 0.28
18 0.56
19 0.28
2 -0.56
20 0.56
21 0.28
22 0.28
23 0.28
24 0.28
25 0.53
26 0.1
3 -0.56
4 -0.68
40 0.4
41 0.4
42 0.4
43 0.4
44 0.4
45 0.4
5 -0.68
6 -0.56
7 -0.68
8 -0.68
9 -0.68

> <PUBCHEM_EFFECTIVE_ROTOR_COUNT>
8.4

> <PUBCHEM_PHARMACOPHORE_FEATURES>
19
1 1 acceptor
1 10 acceptor
1 10 donor
1 11 anion
1 2 acceptor
1 3 acceptor
1 4 acceptor
1 4 donor
1 5 acceptor
1 5 donor
1 6 acceptor
1 7 acceptor
1 7 donor
1 8 acceptor
1 8 donor
1 9 acceptor
1 9 donor
6 1 14 15 16 17 18 rings
6 3 20 21 22 23 24 rings

> <PUBCHEM_HEAVY_ATOM_COUNT>
26

> <PUBCHEM_ATOM_DEF_STEREO_COUNT>
9

> <PUBCHEM_ATOM_UDEF_STEREO_COUNT>
0

> <PUBCHEM_BOND_DEF_STEREO_COUNT>
1

> <PUBCHEM_BOND_UDEF_STEREO_COUNT>
0

> <PUBCHEM_ISOTOPIC_ATOM_COUNT>
0

> <PUBCHEM_COMPONENT_COUNT>
1

> <PUBCHEM_CACTVS_TAUTO_COUNT>
1

> <PUBCHEM_CONFORMER_ID>
0092214C00000001

> <PUBCHEM_MMFF94_ENERGY>
86.5893

> <PUBCHEM_FEATURE_SELFOVERLAP>
96.522

> <PUBCHEM_SHAPE_FINGERPRINT>
10165383 225 17622130513597054980
10366900 7 17988922262679185367
1100329 8 18122062280269091281
11370993 70 17978232651504191129
12403259 226 18272374169897027775
12553582 1 18338233898271852562
12769317 202 18267869389280283836
12788726 201 17838057366015007954
13134695 92 18409736187804341052
13533116 47 18338797819689560741
138480 1 18410575093554187744
14251757 17 17703515513881166084
14866123 147 16827281944465831010
18681886 176 18333736801668807402
19930381 70 18194121803068666241
20567600 299 18409449189172841200
221357 26 18343587369222484991
23402539 116 18188206610794213270
23559900 14 18410586067469883795
238 59 18120085096226075690
3524813 1 17989209252172098580
6438718 38 17608651956923606328
7164475 11 18049719921825981242
7471813 234 18334303092805435428
84936 182 18264767653908868056
9981440 41 17762628286979245184

> <PUBCHEM_SHAPE_MULTIPOLES>
460.54
9.75
4.47
1.23
7.22
3.29
0.24
-3.34
2.09
-5.4
-1.59
0.55
0.4
-0.41

> <PUBCHEM_SHAPE_SELFOVERLAP>
937.847

> <PUBCHEM_SHAPE_VOLUME>
261.6

> <PUBCHEM_COORDINATE_TYPE>
2
5
10

$$$$

