368
  -OEChem-07051212513D

 32 31  0     0  0  0  0  0  0999 V2000
   -0.0008    0.4298    0.0116 N   0  0  0  0  0  0  0  0  0  0  0  0
    6.2059   -0.3832   -0.0168 N   0  0  0  0  0  0  0  0  0  0  0  0
   -6.2056   -0.3836   -0.0025 N   0  0  0  0  0  0  0  0  0  0  0  0
    2.4506    0.4822    0.0159 C   0  0  0  0  0  0  0  0  0  0  0  0
   -2.4505    0.4827   -0.0118 C   0  0  0  0  0  0  0  0  0  0  0  0
    1.2002   -0.3971    0.0168 C   0  0  0  0  0  0  0  0  0  0  0  0
   -1.1999   -0.3963    0.0023 C   0  0  0  0  0  0  0  0  0  0  0  0
    3.7233   -0.3709    0.0122 C   0  0  0  0  0  0  0  0  0  0  0  0
   -3.7230   -0.3708   -0.0126 C   0  0  0  0  0  0  0  0  0  0  0  0
    5.0119    0.4536   -0.0165 C   0  0  0  0  0  0  0  0  0  0  0  0
   -5.0120    0.4535    0.0013 C   0  0  0  0  0  0  0  0  0  0  0  0
    2.4473    1.1339   -0.8668 H   0  0  0  0  0  0  0  0  0  0  0  0
    2.4531    1.1333    0.8991 H   0  0  0  0  0  0  0  0  0  0  0  0
   -2.4561    1.1392    0.8674 H   0  0  0  0  0  0  0  0  0  0  0  0
   -2.4447    1.1289   -0.8985 H   0  0  0  0  0  0  0  0  0  0  0  0
    1.2114   -1.0439    0.9027 H   0  0  0  0  0  0  0  0  0  0  0  0
    1.2143   -1.0414   -0.8705 H   0  0  0  0  0  0  0  0  0  0  0  0
   -1.2209   -1.0437    0.8875 H   0  0  0  0  0  0  0  0  0  0  0  0
   -1.2053   -1.0404   -0.8854 H   0  0  0  0  0  0  0  0  0  0  0  0
    3.7249   -1.0140    0.9018 H   0  0  0  0  0  0  0  0  0  0  0  0
    3.7042   -1.0383   -0.8591 H   0  0  0  0  0  0  0  0  0  0  0  0
   -3.7176   -1.0194   -0.8983 H   0  0  0  0  0  0  0  0  0  0  0  0
   -3.7104   -1.0329    0.8630 H   0  0  0  0  0  0  0  0  0  0  0  0
   -0.0053    1.0374    0.8303 H   0  0  0  0  0  0  0  0  0  0  0  0
    5.0270    1.0898   -0.9082 H   0  0  0  0  0  0  0  0  0  0  0  0
    5.0476    1.1184    0.8535 H   0  0  0  0  0  0  0  0  0  0  0  0
   -5.0341    1.0950    0.8889 H   0  0  0  0  0  0  0  0  0  0  0  0
   -5.0412    1.1130   -0.8729 H   0  0  0  0  0  0  0  0  0  0  0  0
    6.2000   -0.9845    0.8065 H   0  0  0  0  0  0  0  0  0  0  0  0
    6.1809   -1.0111   -0.8195 H   0  0  0  0  0  0  0  0  0  0  0  0
   -6.1933   -0.9899   -0.8220 H   0  0  0  0  0  0  0  0  0  0  0  0
   -6.1867   -1.0067    0.8042 H   0  0  0  0  0  0  0  0  0  0  0  0
  1  6  1  0  0  0  0
  1  7  1  0  0  0  0
  1 24  1  0  0  0  0
  2 10  1  0  0  0  0
  2 29  1  0  0  0  0
  2 30  1  0  0  0  0
  3 11  1  0  0  0  0
  3 31  1  0  0  0  0
  3 32  1  0  0  0  0
  4  6  1  0  0  0  0
  4  8  1  0  0  0  0
  4 12  1  0  0  0  0
  4 13  1  0  0  0  0
  5  7  1  0  0  0  0
  5  9  1  0  0  0  0
  5 14  1  0  0  0  0
  5 15  1  0  0  0  0
  6 16  1  0  0  0  0
  6 17  1  0  0  0  0
  7 18  1  0  0  0  0
  7 19  1  0  0  0  0
  8 10  1  0  0  0  0
  8 20  1  0  0  0  0
  8 21  1  0  0  0  0
  9 11  1  0  0  0  0
  9 22  1  0  0  0  0
  9 23  1  0  0  0  0
 10 25  1  0  0  0  0
 10 26  1  0  0  0  0
 11 27  1  0  0  0  0
 11 28  1  0  0  0  0
M  END
> <PUBCHEM_COMPOUND_CID>
368

> <PUBCHEM_CONFORMER_RMSD>
0.8

> <PUBCHEM_CONFORMER_DIVERSEORDER>
1
64
49
9
60
2
89
78
86
3
87
35
23
53
68
45
93
5
40
63
4
75
20
83
25
95
94
57
17
46
59
85
24
79
66
26
84
42
62
96
90
10
51
12
33
22
80
73
69
82
58
15
28
56
32
19
71
27
7
37
81
67
92
70
39
6
74
50
43
16
30
91
97
76
36
98
34
48
65
72
61
11
88
8
44
14
55
52
47
31
41
38
18
29
54
77
13
21

> <PUBCHEM_MMFF94_PARTIAL_CHARGES>
12
1 -0.9
10 0.27
11 0.27
2 -0.99
24 0.36
29 0.36
3 -0.99
30 0.36
31 0.36
32 0.36
6 0.27
7 0.27

> <PUBCHEM_EFFECTIVE_ROTOR_COUNT>
8

> <PUBCHEM_PHARMACOPHORE_FEATURES>
6
1 1 cation
1 1 donor
1 2 cation
1 2 donor
1 3 cation
1 3 donor

> <PUBCHEM_HEAVY_ATOM_COUNT>
11

> <PUBCHEM_ATOM_DEF_STEREO_COUNT>
0

> <PUBCHEM_ATOM_UDEF_STEREO_COUNT>
0

> <PUBCHEM_BOND_DEF_STEREO_COUNT>
0

> <PUBCHEM_BOND_UDEF_STEREO_COUNT>
0

> <PUBCHEM_ISOTOPIC_ATOM_COUNT>
0

> <PUBCHEM_COMPONENT_COUNT>
1

> <PUBCHEM_CACTVS_TAUTO_COUNT>
1

> <PUBCHEM_CONFORMER_ID>
0000017000000001

> <PUBCHEM_MMFF94_ENERGY>
-10.5265

> <PUBCHEM_FEATURE_SELFOVERLAP>
30.446

> <PUBCHEM_SHAPE_FINGERPRINT>
12091667 2 18272369776709661393
14123238 8 18410855464423148589
1420 363 18410849962696811899
14251764 46 18410857659151443339
17834072 33 18334295327372682572
17834076 25 18411138038911487011
20645477 70 17677043672458553446
20719005 15 18410575088963340448
20767249 213 18131631166713864940
23402539 116 18113624477828941573
23521765 1 18335420170664673285
366044 4 18413952780395075523
42788 4 18410856563934854309
8209 1 18410856563934763380

> <PUBCHEM_SHAPE_MULTIPOLES>
211.43
15.31
0.77
0.59
0
0.02
0
-0.62
-0.09
0
0
0
0
0

> <PUBCHEM_SHAPE_SELFOVERLAP>
371.067

> <PUBCHEM_SHAPE_VOLUME>
134.3

> <PUBCHEM_COORDINATE_TYPE>
2
5
10

$$$$

