11331
  -OEChem-06261205323D

 19 19  0     0  0  0  0  0  0999 V2000
   -0.1082    2.7241    0.3109 Cl  0  0  0  0  0  0  0  0  0  0  0  0
   -0.0877   -2.7135    0.3283 Cl  0  0  0  0  0  0  0  0  0  0  0  0
   -4.6755   -0.0141   -0.4814 Cl  0  0  0  0  0  0  0  0  0  0  0  0
    1.1122    0.0110    0.5326 O   0  0  0  0  0  0  0  0  0  0  0  0
    4.2269   -0.0303   -1.2434 O   0  0  0  0  0  0  0  0  0  0  0  0
    3.7968    0.0179    0.9926 O   0  0  0  0  0  0  0  0  0  0  0  0
   -0.2323    0.0048    0.2961 C   0  0  0  0  0  0  0  0  0  0  0  0
   -0.9237    1.2098    0.1713 C   0  0  0  0  0  0  0  0  0  0  0  0
   -0.9147   -1.2061    0.1802 C   0  0  0  0  0  0  0  0  0  0  0  0
   -2.2977    1.2038   -0.0696 C   0  0  0  0  0  0  0  0  0  0  0  0
   -2.2886   -1.2121   -0.0607 C   0  0  0  0  0  0  0  0  0  0  0  0
   -2.9801   -0.0071   -0.1857 C   0  0  0  0  0  0  0  0  0  0  0  0
    1.9678    0.0106   -0.6068 C   0  0  0  0  0  0  0  0  0  0  0  0
    3.4048    0.0011   -0.1644 C   0  0  0  0  0  0  0  0  0  0  0  0
   -2.8383    2.1429   -0.1669 H   0  0  0  0  0  0  0  0  0  0  0  0
   -2.8223   -2.1558   -0.1514 H   0  0  0  0  0  0  0  0  0  0  0  0
    1.7859   -0.8844   -1.2113 H   0  0  0  0  0  0  0  0  0  0  0  0
    1.7964    0.9118   -1.2050 H   0  0  0  0  0  0  0  0  0  0  0  0
    5.1726   -0.0377   -0.9829 H   0  0  0  0  0  0  0  0  0  0  0  0
  1  8  1  0  0  0  0
  2  9  1  0  0  0  0
  3 12  1  0  0  0  0
  4  7  1  0  0  0  0
  4 13  1  0  0  0  0
  5 14  1  0  0  0  0
  5 19  1  0  0  0  0
  6 14  2  0  0  0  0
  7  8  2  0  0  0  0
  7  9  1  0  0  0  0
  8 10  1  0  0  0  0
  9 11  2  0  0  0  0
 10 12  2  0  0  0  0
 10 15  1  0  0  0  0
 11 12  1  0  0  0  0
 11 16  1  0  0  0  0
 13 14  1  0  0  0  0
 13 17  1  0  0  0  0
 13 18  1  0  0  0  0
M  END
> <PUBCHEM_COMPOUND_CID>
11331

> <PUBCHEM_CONFORMER_RMSD>
0.6

> <PUBCHEM_CONFORMER_DIVERSEORDER>
1
5
4
3
6
2

> <PUBCHEM_MMFF94_PARTIAL_CHARGES>
17
1 -0.18
10 -0.15
11 -0.15
12 0.18
13 0.34
14 0.66
15 0.15
16 0.15
19 0.5
2 -0.18
3 -0.18
4 -0.36
5 -0.65
6 -0.57
7 0.08
8 0.18
9 0.18

> <PUBCHEM_EFFECTIVE_ROTOR_COUNT>
3

> <PUBCHEM_PHARMACOPHORE_FEATURES>
5
1 4 acceptor
1 5 acceptor
1 6 acceptor
3 5 6 14 anion
6 7 8 9 10 11 12 rings

> <PUBCHEM_HEAVY_ATOM_COUNT>
14

> <PUBCHEM_ATOM_DEF_STEREO_COUNT>
0

> <PUBCHEM_ATOM_UDEF_STEREO_COUNT>
0

> <PUBCHEM_BOND_DEF_STEREO_COUNT>
0

> <PUBCHEM_BOND_UDEF_STEREO_COUNT>
0

> <PUBCHEM_ISOTOPIC_ATOM_COUNT>
0

> <PUBCHEM_COMPONENT_COUNT>
1

> <PUBCHEM_CACTVS_TAUTO_COUNT>
1

> <PUBCHEM_CONFORMER_ID>
00002C4300000001

> <PUBCHEM_MMFF94_ENERGY>
33.7069

> <PUBCHEM_FEATURE_SELFOVERLAP>
25.434

> <PUBCHEM_SHAPE_FINGERPRINT>
11132069 177 18334861601630706449
11680986 33 18049725122688349193
12119455 92 13901914396906816529
13140716 1 18266457599555128195
13380535 76 18343022215851035995
13862211 1 18410582764692799867
14115302 16 18200869586999540684
14614273 12 18128823125859988653
14911166 2 18410862044982959333
14993402 34 18343863307680343757
15669948 3 18341892931720746174
15775835 57 17632573851278491222
16945 1 18410868654974511977
17846911 113 18410016541356704899
187816 3 18410571790454811543
193761 8 17762059139572455921
20201158 50 18113333111421287254
20279233 1 17967249785068848918
20510252 161 18334013934153662928
20645476 183 17775278318449079622
20871999 31 18267862783272592142
21029758 11 18261116249029208945
21501502 16 18048879885977619723
22713019 99 18187365415552783567
23402539 116 18334586740887794654
23557571 272 18113890606750697860
23559900 14 18335419046290570636
2748010 2 18052547569353062235
3250762 1 17762336912176542283
366044 4 18413672404887723075
43471831 8 18269558397738145115
537710 114 18343302578283075549
69090 78 17821736013432838791
7364860 26 18047475809397380242
77492 1 17704076200666130680
81228 2 18189880062996482112

> <PUBCHEM_SHAPE_MULTIPOLES>
276.11
6.85
2.24
0.83
2.33
0.02
-0.07
-0.04
-1.67
-0.52
0.42
0.51
0
0.01

> <PUBCHEM_SHAPE_SELFOVERLAP>
547.125

> <PUBCHEM_SHAPE_VOLUME>
166.8

> <PUBCHEM_COORDINATE_TYPE>
2
5
10

$$$$

