656541
  -OEChem-07051212552D

 50 50  0     1  0  0  0  0  0999 V2000
    6.0010   -1.0280    0.0000 S   0  0  0  0  0  0  0  0  0  0  0  0
    3.4030    3.4720    0.0000 S   0  0  0  0  0  0  0  0  0  0  0  0
    7.7331    1.9720    0.0000 S   0  0  0  0  0  0  0  0  0  0  0  0
    4.2690   -1.0280    0.0000 O   0  0  0  0  0  0  0  0  0  0  0  0
    4.2690   -4.0280    0.0000 O   0  0  0  0  0  0  0  0  0  0  0  0
    2.5369   -3.0280    0.0000 O   0  0  0  0  0  0  0  0  0  0  0  0
    6.0010   -3.0280    0.0000 O   0  0  0  0  0  0  0  0  0  0  0  0
    2.5369   -0.0280    0.0000 O   0  0  0  0  0  0  0  0  0  0  0  0
    3.9030    4.3380    0.0000 O   0  0  0  0  0  0  0  0  0  0  0  0
    2.9030    2.6060    0.0000 O   0  0  0  0  0  0  0  0  0  0  0  0
    6.8671    1.4720    0.0000 O   0  0  0  0  0  0  0  0  0  0  0  0
    8.5991    2.4720    0.0000 O   0  0  0  0  0  0  0  0  0  0  0  0
    7.2331    2.8380    0.0000 O   0  0  0  0  0  0  0  0  0  0  0  0
    8.2331    1.1060    0.0000 O   0  0  0  0  0  0  0  0  0  0  0  0
    6.8671    0.4720    0.0000 N   0  0  0  0  0  0  0  0  0  0  0  0
    4.2690   -3.0280    0.0000 C   0  0  1  0  0  0  0  0  0  0  0  0
    3.4030   -2.5280    0.0000 C   0  0  1  0  0  0  0  0  0  0  0  0
    5.1350   -2.5280    0.0000 C   0  0  2  0  0  0  0  0  0  0  0  0
    3.4030   -1.5280    0.0000 C   0  0  1  0  0  0  0  0  0  0  0  0
    5.1350   -1.5280    0.0000 C   0  0  2  0  0  0  0  0  0  0  0  0
    2.5369   -1.0280    0.0000 C   0  0  0  0  0  0  0  0  0  0  0  0
    5.1350    0.4720    0.0000 C   0  0  0  0  0  0  0  0  0  0  0  0
    6.0010   -0.0280    0.0000 C   0  0  0  0  0  0  0  0  0  0  0  0
    5.1350    1.4720    0.0000 C   0  0  0  0  0  0  0  0  0  0  0  0
    4.2690    1.9720    0.0000 C   0  0  0  0  0  0  0  0  0  0  0  0
    4.2690    2.9720    0.0000 C   0  0  0  0  0  0  0  0  0  0  0  0
    2.5369    3.9720    0.0000 C   0  0  0  0  0  0  0  0  0  0  0  0
    4.8059   -3.3380    0.0000 H   0  0  0  0  0  0  0  0  0  0  0  0
    3.4030   -3.1480    0.0000 H   0  0  0  0  0  0  0  0  0  0  0  0
    5.1350   -3.1480    0.0000 H   0  0  0  0  0  0  0  0  0  0  0  0
    3.4030   -0.9080    0.0000 H   0  0  0  0  0  0  0  0  0  0  0  0
    5.1350   -0.9080    0.0000 H   0  0  0  0  0  0  0  0  0  0  0  0
    1.9264   -0.9204    0.0000 H   0  0  0  0  0  0  0  0  0  0  0  0
    2.3249   -1.6106    0.0000 H   0  0  0  0  0  0  0  0  0  0  0  0
    3.7320   -4.3380    0.0000 H   0  0  0  0  0  0  0  0  0  0  0  0
    2.0000   -2.7180    0.0000 H   0  0  0  0  0  0  0  0  0  0  0  0
    6.5380   -2.7180    0.0000 H   0  0  0  0  0  0  0  0  0  0  0  0
    4.5244    0.5796    0.0000 H   0  0  0  0  0  0  0  0  0  0  0  0
    4.9230   -0.1106    0.0000 H   0  0  0  0  0  0  0  0  0  0  0  0
    5.7456    1.3643    0.0000 H   0  0  0  0  0  0  0  0  0  0  0  0
    5.3471    2.0546    0.0000 H   0  0  0  0  0  0  0  0  0  0  0  0
    3.6584    2.0796    0.0000 H   0  0  0  0  0  0  0  0  0  0  0  0
    4.0569    1.3894    0.0000 H   0  0  0  0  0  0  0  0  0  0  0  0
    4.8796    2.8643    0.0000 H   0  0  0  0  0  0  0  0  0  0  0  0
    4.4810    3.5546    0.0000 H   0  0  0  0  0  0  0  0  0  0  0  0
    2.0000    0.2820    0.0000 H   0  0  0  0  0  0  0  0  0  0  0  0
    2.8469    4.5089    0.0000 H   0  0  0  0  0  0  0  0  0  0  0  0
    2.0000    4.2820    0.0000 H   0  0  0  0  0  0  0  0  0  0  0  0
    2.2269    3.4350    0.0000 H   0  0  0  0  0  0  0  0  0  0  0  0
    8.5991    3.0920    0.0000 H   0  0  0  0  0  0  0  0  0  0  0  0
 20  1  1  1  0  0  0
  1 23  1  0  0  0  0
  2  9  2  0  0  0  0
  2 10  2  0  0  0  0
  2 26  1  0  0  0  0
  2 27  1  0  0  0  0
  3 11  1  0  0  0  0
  3 12  1  0  0  0  0
  3 13  2  0  0  0  0
  3 14  2  0  0  0  0
  4 19  1  0  0  0  0
  4 20  1  0  0  0  0
 16  5  1  1  0  0  0
  5 35  1  0  0  0  0
 17  6  1  6  0  0  0
  6 36  1  0  0  0  0
 18  7  1  6  0  0  0
  7 37  1  0  0  0  0
  8 21  1  0  0  0  0
  8 46  1  0  0  0  0
 11 15  1  0  0  0  0
 12 50  1  0  0  0  0
 15 23  2  3  0  0  0
 16 17  1  0  0  0  0
 16 18  1  0  0  0  0
 16 28  1  0  0  0  0
 17 19  1  0  0  0  0
 17 29  1  0  0  0  0
 18 20  1  0  0  0  0
 18 30  1  0  0  0  0
 19 21  1  1  0  0  0
 19 31  1  0  0  0  0
 20 32  1  0  0  0  0
 21 33  1  0  0  0  0
 21 34  1  0  0  0  0
 22 23  1  0  0  0  0
 22 24  1  0  0  0  0
 22 38  1  0  0  0  0
 22 39  1  0  0  0  0
 24 25  1  0  0  0  0
 24 40  1  0  0  0  0
 24 41  1  0  0  0  0
 25 26  1  0  0  0  0
 25 42  1  0  0  0  0
 25 43  1  0  0  0  0
 26 44  1  0  0  0  0
 26 45  1  0  0  0  0
 27 47  1  0  0  0  0
 27 48  1  0  0  0  0
 27 49  1  0  0  0  0
M  END
> <PUBCHEM_COMPOUND_CID>
656541

> <PUBCHEM_COMPOUND_CANONICALIZED>
1

> <PUBCHEM_CACTVS_COMPLEXITY>
697

> <PUBCHEM_CACTVS_HBOND_ACCEPTOR>
13

> <PUBCHEM_CACTVS_HBOND_DONOR>
5

> <PUBCHEM_CACTVS_ROTATABLE_BOND>
10

> <PUBCHEM_CACTVS_SUBSKEYS>
AAADceByPABgAAAAAAAAAAAAAAAAAAAAAAAkAAAAAAAAAAAAAAAAHgQECAAACBSlwAKCAAAQBoogAAAgAHBAAAAAABAAAAAwAAABEAIgAAACQAAFAAAjAAHAYAQAAAAAAAAAAAAAAAAAAAAAAAAAAAAAAA==

> <PUBCHEM_IUPAC_OPENEYE_NAME>
[(2S,3R,4S,5S,6R)-3,4,5-trihydroxy-6-(hydroxymethyl)tetrahydropyran-2-yl] 5-methylsulfonyl-N-sulfooxy-pentanimidothioate

> <PUBCHEM_IUPAC_CAS_NAME>
5-methylsulfonyl-N-sulfooxypentanimidothioic acid [(2S,3R,4S,5S,6R)-3,4,5-trihydroxy-6-(hydroxymethyl)-2-oxanyl] ester

> <PUBCHEM_IUPAC_NAME>
[(2S,3R,4S,5S,6R)-3,4,5-trihydroxy-6-(hydroxymethyl)oxan-2-yl] 5-methylsulfonyl-N-sulfooxypentanimidothioate

> <PUBCHEM_IUPAC_SYSTEMATIC_NAME>
[(2S,3R,4S,5S,6R)-6-(hydroxymethyl)-3,4,5-tris(oxidanyl)oxan-2-yl] 5-methylsulfonyl-N-sulfooxy-pentanimidothioate

> <PUBCHEM_IUPAC_TRADITIONAL_NAME>
5-mesyl-N-sulfoxy-thiovalerimidic acid [(2S,3R,4S,5S,6R)-3,4,5-trihydroxy-6-methylol-tetrahydropyran-2-yl] ester

> <PUBCHEM_IUPAC_INCHI>
InChI=1S/C12H23NO11S3/c1-26(18,19)5-3-2-4-8(13-24-27(20,21)22)25-12-11(17)10(16)9(15)7(6-14)23-12/h7,9-12,14-17H,2-6H2,1H3,(H,20,21,22)/t7-,9-,10+,11-,12+/m1/s1

> <PUBCHEM_IUPAC_INCHIKEY>
WJMGSLJQEIYHOF-URYVQPGZSA-N

> <PUBCHEM_XLOGP3_AA>
-1.8

> <PUBCHEM_EXACT_MASS>
453.043324

> <PUBCHEM_MOLECULAR_FORMULA>
C12H23NO11S3

> <PUBCHEM_MOLECULAR_WEIGHT>
453.50612

> <PUBCHEM_OPENEYE_CAN_SMILES>
CS(=O)(=O)CCCCC(=NOS(=O)(=O)O)SC1C(C(C(C(O1)CO)O)O)O

> <PUBCHEM_OPENEYE_ISO_SMILES>
CS(=O)(=O)CCCCC(=NOS(=O)(=O)O)S[C@H]1[C@@H]([C@H]([C@@H]([C@H](O1)CO)O)O)O

> <PUBCHEM_CACTVS_TPSA>
242

> <PUBCHEM_MONOISOTOPIC_WEIGHT>
453.043324

> <PUBCHEM_TOTAL_CHARGE>
0

> <PUBCHEM_HEAVY_ATOM_COUNT>
27

> <PUBCHEM_ATOM_DEF_STEREO_COUNT>
5

> <PUBCHEM_ATOM_UDEF_STEREO_COUNT>
0

> <PUBCHEM_BOND_DEF_STEREO_COUNT>
0

> <PUBCHEM_BOND_UDEF_STEREO_COUNT>
1

> <PUBCHEM_ISOTOPIC_ATOM_COUNT>
0

> <PUBCHEM_COMPONENT_COUNT>
1

> <PUBCHEM_CACTVS_TAUTO_COUNT>
2

> <PUBCHEM_COORDINATE_TYPE>
1
5
255

> <PUBCHEM_BONDANNOTATIONS>
20  1  5
15  23  1
19  21  5
16  5  5
17  6  6
18  7  6

$$$$

