9484
  -OEChem-06261203452D

 38 36  0     0  0  0  0  0  0999 V2000
    2.8665    1.5000    0.0000 O   0  0  0  0  0  0  0  0  0  0  0  0
    1.1345    1.5000    0.0000 O   0  5  0  0  0  0  0  0  0  0  0  0
    2.0005    0.0000    0.0000 O   0  0  0  0  0  0  0  0  0  0  0  0
    2.2690    6.6200    0.0000 N   0  0  0  0  0  0  0  0  0  0  0  0
    4.0010    6.6200    0.0000 N   0  0  0  0  0  0  0  0  0  0  0  0
    3.1350    8.1200    0.0000 N   0  0  0  0  0  0  0  0  0  0  0  0
    2.0005    1.0000    0.0000 N   0  3  0  0  0  0  0  0  0  0  0  0
    1.4030    7.1200    0.0000 C   0  0  0  0  0  0  0  0  0  0  0  0
    2.2690    5.6200    0.0000 C   0  0  0  0  0  0  0  0  0  0  0  0
    1.4030    8.1200    0.0000 C   0  0  0  0  0  0  0  0  0  0  0  0
    1.4030    5.1200    0.0000 C   0  0  0  0  0  0  0  0  0  0  0  0
    0.5369    8.6200    0.0000 C   0  0  0  0  0  0  0  0  0  0  0  0
    2.2690    8.6200    0.0000 C   0  0  0  0  0  0  0  0  0  0  0  0
    1.4030    4.1200    0.0000 C   0  0  0  0  0  0  0  0  0  0  0  0
    0.5369    5.6200    0.0000 C   0  0  0  0  0  0  0  0  0  0  0  0
    3.1350    7.1200    0.0000 C   0  0  0  0  0  0  0  0  0  0  0  0
    2.4810    5.0374    0.0000 H   0  0  0  0  0  0  0  0  0  0  0  0
    2.8796    5.7277    0.0000 H   0  0  0  0  0  0  0  0  0  0  0  0
    0.7924    7.2277    0.0000 H   0  0  0  0  0  0  0  0  0  0  0  0
    1.1909    6.5374    0.0000 H   0  0  0  0  0  0  0  0  0  0  0  0
    1.4030    5.7400    0.0000 H   0  0  0  0  0  0  0  0  0  0  0  0
    1.4030    8.7400    0.0000 H   0  0  0  0  0  0  0  0  0  0  0  0
    0.8469    6.1569    0.0000 H   0  0  0  0  0  0  0  0  0  0  0  0
    0.0000    5.9300    0.0000 H   0  0  0  0  0  0  0  0  0  0  0  0
    0.2269    5.0831    0.0000 H   0  0  0  0  0  0  0  0  0  0  0  0
    0.7830    4.1200    0.0000 H   0  0  0  0  0  0  0  0  0  0  0  0
    1.4030    3.5000    0.0000 H   0  0  0  0  0  0  0  0  0  0  0  0
    2.0230    4.1200    0.0000 H   0  0  0  0  0  0  0  0  0  0  0  0
    2.5790    8.0831    0.0000 H   0  0  0  0  0  0  0  0  0  0  0  0
    2.8059    8.9300    0.0000 H   0  0  0  0  0  0  0  0  0  0  0  0
    1.9590    9.1569    0.0000 H   0  0  0  0  0  0  0  0  0  0  0  0
    0.8469    9.1569    0.0000 H   0  0  0  0  0  0  0  0  0  0  0  0
    0.0000    8.9300    0.0000 H   0  0  0  0  0  0  0  0  0  0  0  0
    0.2269    8.0831    0.0000 H   0  0  0  0  0  0  0  0  0  0  0  0
    4.5380    6.9300    0.0000 H   0  0  0  0  0  0  0  0  0  0  0  0
    4.0010    6.0000    0.0000 H   0  0  0  0  0  0  0  0  0  0  0  0
    3.6720    8.4300    0.0000 H   0  0  0  0  0  0  0  0  0  0  0  0
    3.4035    1.1900    0.0000 H   0  0  0  0  0  0  0  0  0  0  0  0
  1  7  1  0  0  0  0
  1 38  1  0  0  0  0
  2  7  1  0  0  0  0
  3  7  2  0  0  0  0
  4  8  1  0  0  0  0
  4  9  1  0  0  0  0
  4 16  1  0  0  0  0
  5 16  1  0  0  0  0
  5 35  1  0  0  0  0
  5 36  1  0  0  0  0
  6 16  2  0  0  0  0
  6 37  1  0  0  0  0
  8 10  1  0  0  0  0
  8 19  1  0  0  0  0
  8 20  1  0  0  0  0
  9 11  1  0  0  0  0
  9 17  1  0  0  0  0
  9 18  1  0  0  0  0
 10 12  1  0  0  0  0
 10 13  1  0  0  0  0
 10 22  1  0  0  0  0
 11 14  1  0  0  0  0
 11 15  1  0  0  0  0
 11 21  1  0  0  0  0
 12 32  1  0  0  0  0
 12 33  1  0  0  0  0
 12 34  1  0  0  0  0
 13 29  1  0  0  0  0
 13 30  1  0  0  0  0
 13 31  1  0  0  0  0
 14 26  1  0  0  0  0
 14 27  1  0  0  0  0
 14 28  1  0  0  0  0
 15 23  1  0  0  0  0
 15 24  1  0  0  0  0
 15 25  1  0  0  0  0
M  CHG  2   2  -1   7   1
M  END
> <PUBCHEM_COMPOUND_CID>
9484

> <PUBCHEM_COMPOUND_CANONICALIZED>
1

> <PUBCHEM_CACTVS_COMPLEXITY>
156

> <PUBCHEM_CACTVS_HBOND_ACCEPTOR>
4

> <PUBCHEM_CACTVS_HBOND_DONOR>
3

> <PUBCHEM_CACTVS_ROTATABLE_BOND>
5

> <PUBCHEM_CACTVS_SUBSKEYS>
AAADceBzsAAAAAAAAAAAAAAAAAAAAAAAAAAAAAAAAAAAAAAAAAAAHAAUCAAADQDBAAQDAANAQAAhAAAAIQAAAACAAAABAAAIAACAAAAACAAEAAAAAAKAAAAAAAAAAAAAAAAAAAAAAAAAAAAAAAAAAAAAAA==

> <PUBCHEM_IUPAC_OPENEYE_NAME>
1,1-diisobutylguanidine; nitric acid

> <PUBCHEM_IUPAC_CAS_NAME>
1,1-bis(2-methylpropyl)guanidine; nitric acid

> <PUBCHEM_IUPAC_NAME>
1,1-bis(2-methylpropyl)guanidine; nitric acid

> <PUBCHEM_IUPAC_SYSTEMATIC_NAME>
1,1-bis(2-methylpropyl)guanidine; nitric acid

> <PUBCHEM_IUPAC_TRADITIONAL_NAME>
1,1-diisobutylguanidine; nitric acid

> <PUBCHEM_IUPAC_INCHI>
InChI=1S/C9H21N3.HNO3/c1-7(2)5-12(9(10)11)6-8(3)4;2-1(3)4/h7-8H,5-6H2,1-4H3,(H3,10,11);(H,2,3,4)

> <PUBCHEM_IUPAC_INCHIKEY>
LHXGVRFVYFCQAU-UHFFFAOYSA-N

> <PUBCHEM_EXACT_MASS>
234.169191

> <PUBCHEM_MOLECULAR_FORMULA>
C9H22N4O3

> <PUBCHEM_MOLECULAR_WEIGHT>
234.29598

> <PUBCHEM_OPENEYE_CAN_SMILES>
CC(C)CN(CC(C)C)C(=N)N.[N+](=O)(O)[O-]

> <PUBCHEM_OPENEYE_ISO_SMILES>
CC(C)CN(CC(C)C)C(=N)N.[N+](=O)(O)[O-]

> <PUBCHEM_CACTVS_TPSA>
119

> <PUBCHEM_MONOISOTOPIC_WEIGHT>
234.169191

> <PUBCHEM_TOTAL_CHARGE>
0

> <PUBCHEM_HEAVY_ATOM_COUNT>
16

> <PUBCHEM_ATOM_DEF_STEREO_COUNT>
0

> <PUBCHEM_ATOM_UDEF_STEREO_COUNT>
0

> <PUBCHEM_BOND_DEF_STEREO_COUNT>
0

> <PUBCHEM_BOND_UDEF_STEREO_COUNT>
0

> <PUBCHEM_ISOTOPIC_ATOM_COUNT>
0

> <PUBCHEM_COMPONENT_COUNT>
2

> <PUBCHEM_CACTVS_TAUTO_COUNT>
1

> <PUBCHEM_COORDINATE_TYPE>
1
5
255

$$$$

