21607811
  -OEChem-07051213152D

124130  0     1  0  0  0  0  0999 V2000
    6.3282   -2.0014    0.0000 O   0  0  0  0  0  0  0  0  0  0  0  0
   15.3291    1.1037    0.0000 O   0  0  0  0  0  0  0  0  0  0  0  0
    8.1424   -3.7792    0.0000 O   0  0  0  0  0  0  0  0  0  0  0  0
    4.5961   -1.9947    0.0000 O   0  0  0  0  0  0  0  0  0  0  0  0
    6.3359   -0.0014    0.0000 O   0  0  0  0  0  0  0  0  0  0  0  0
    4.6077    1.0053    0.0000 O   0  0  0  0  0  0  0  0  0  0  0  0
    2.8718    0.0120    0.0000 O   0  0  0  0  0  0  0  0  0  0  0  0
    5.4756    1.5020    0.0000 O   0  0  0  0  0  0  0  0  0  0  0  0
    2.8602   -2.9880    0.0000 O   0  0  0  0  0  0  0  0  0  0  0  0
    2.0000   -1.4847    0.0000 O   0  0  0  0  0  0  0  0  0  0  0  0
    8.0718    0.9920    0.0000 O   0  0  0  0  0  0  0  0  0  0  0  0
    8.0795    2.9919    0.0000 O   0  0  0  0  0  0  0  0  0  0  0  0
    6.3513    3.9986    0.0000 O   0  0  0  0  0  0  0  0  0  0  0  0
    4.6193    4.0053    0.0000 O   0  0  0  0  0  0  0  0  0  0  0  0
   10.8552   -0.4490    0.0000 C   0  0  2  0  0  0  0  0  0  0  0  0
    9.9892    0.0510    0.0000 C   0  0  1  0  0  0  0  0  0  0  0  0
    9.0792   -0.4559    0.0000 C   0  0  2  0  0  0  0  0  0  0  0  0
   11.7213    0.0510    0.0000 C   0  0  1  0  0  0  0  0  0  0  0  0
    9.0712   -1.4975    0.0000 C   0  0  2  0  0  0  0  0  0  0  0  0
   10.8713   -1.4905    0.0000 C   0  0  0  0  0  0  0  0  0  0  0  0
   11.7213    1.0510    0.0000 C   0  0  0  0  0  0  0  0  0  0  0  0
    8.1358   -2.0472    0.0000 C   0  0  2  0  0  0  0  0  0  0  0  0
    9.9732   -2.0183    0.0000 C   0  0  0  0  0  0  0  0  0  0  0  0
   12.6152    1.5856    0.0000 C   0  0  1  0  0  0  0  0  0  0  0  0
   13.5213    1.0718    0.0000 C   0  0  1  0  0  0  0  0  0  0  0  0
    9.9892    1.0510    0.0000 C   0  0  0  0  0  0  0  0  0  0  0  0
   12.6152   -0.4837    0.0000 C   0  0  0  0  0  0  0  0  0  0  0  0
    8.1524    0.1082    0.0000 C   0  0  0  0  0  0  0  0  0  0  0  0
   13.5213    0.0302    0.0000 C   0  0  0  0  0  0  0  0  0  0  0  0
   11.4980   -1.2151    0.0000 C   0  0  0  0  0  0  0  0  0  0  0  0
    7.1961   -1.5047    0.0000 C   0  0  2  0  0  0  0  0  0  0  0  0
   10.8552    1.5510    0.0000 C   0  0  0  0  0  0  0  0  0  0  0  0
    9.0869    0.5441    0.0000 C   0  0  0  0  0  0  0  0  0  0  0  0
    7.2045   -0.4197    0.0000 C   0  0  0  0  0  0  0  0  0  0  0  0
   12.0634   -0.8887    0.0000 C   0  0  0  0  0  0  0  0  0  0  0  0
   12.5901    2.6704    0.0000 C   0  0  0  0  0  0  0  0  0  0  0  0
   14.4650    1.6070    0.0000 C   0  0  1  0  0  0  0  0  0  0  0  0
   13.5213    3.2273    0.0000 C   0  0  0  0  0  0  0  0  0  0  0  0
   14.4650    2.6920    0.0000 C   0  0  0  0  0  0  0  0  0  0  0  0
    7.6391   -2.9151    0.0000 C   0  0  0  0  0  0  0  0  0  0  0  0
    8.6391   -2.9113    0.0000 C   0  0  0  0  0  0  0  0  0  0  0  0
   14.3911    0.5785    0.0000 C   0  0  0  0  0  0  0  0  0  0  0  0
   14.0112    4.0990    0.0000 C   0  0  0  0  0  0  0  0  0  0  0  0
   13.0113    4.0875    0.0000 C   0  0  0  0  0  0  0  0  0  0  0  0
    5.4641   -1.4980    0.0000 C   0  0  2  0  0  0  0  0  0  0  0  0
    5.4679   -0.4980    0.0000 C   0  0  1  0  0  0  0  0  0  0  0  0
    4.6038    0.0053    0.0000 C   0  0  2  0  0  0  0  0  0  0  0  0
    3.7320   -1.4913    0.0000 C   0  0  1  0  0  0  0  0  0  0  0  0
    3.7359   -0.4913    0.0000 C   0  0  1  0  0  0  0  0  0  0  0  0
    6.3397    0.9986    0.0000 C   0  0  2  0  0  0  0  0  0  0  0  0
    2.8641   -1.9880    0.0000 C   0  0  0  0  0  0  0  0  0  0  0  0
    7.2077    1.4953    0.0000 C   0  0  1  0  0  0  0  0  0  0  0  0
    7.2115    2.4953    0.0000 C   0  0  2  0  0  0  0  0  0  0  0  0
    5.4795    2.5020    0.0000 C   0  0  1  0  0  0  0  0  0  0  0  0
    6.3474    2.9986    0.0000 C   0  0  2  0  0  0  0  0  0  0  0  0
    4.6154    3.0053    0.0000 C   0  0  0  0  0  0  0  0  0  0  0  0
   10.7253    0.4760    0.0000 H   0  0  0  0  0  0  0  0  0  0  0  0
    9.0744   -2.3475    0.0000 H   0  0  0  0  0  0  0  0  0  0  0  0
   11.0893   -2.0709    0.0000 H   0  0  0  0  0  0  0  0  0  0  0  0
   11.4804   -1.3750    0.0000 H   0  0  0  0  0  0  0  0  0  0  0  0
    9.5759   -2.4942    0.0000 H   0  0  0  0  0  0  0  0  0  0  0  0
   10.3742   -2.4912    0.0000 H   0  0  0  0  0  0  0  0  0  0  0  0
   13.3447    2.0219    0.0000 H   0  0  0  0  0  0  0  0  0  0  0  0
    9.7772    1.6336    0.0000 H   0  0  0  0  0  0  0  0  0  0  0  0
    9.3786    0.9433    0.0000 H   0  0  0  0  0  0  0  0  0  0  0  0
   12.2106   -0.9535    0.0000 H   0  0  0  0  0  0  0  0  0  0  0  0
   13.0088   -0.9627    0.0000 H   0  0  0  0  0  0  0  0  0  0  0  0
    8.5606    0.5749    0.0000 H   0  0  0  0  0  0  0  0  0  0  0  0
    7.7624    0.5903    0.0000 H   0  0  0  0  0  0  0  0  0  0  0  0
   13.7303   -0.5535    0.0000 H   0  0  0  0  0  0  0  0  0  0  0  0
   14.1321    0.1363    0.0000 H   0  0  0  0  0  0  0  0  0  0  0  0
   11.0231   -1.6136    0.0000 H   0  0  0  0  0  0  0  0  0  0  0  0
   11.8965   -1.6900    0.0000 H   0  0  0  0  0  0  0  0  0  0  0  0
   11.9730   -0.8165    0.0000 H   0  0  0  0  0  0  0  0  0  0  0  0
    6.6610   -1.1916    0.0000 H   0  0  0  0  0  0  0  0  0  0  0  0
   10.8552    2.1710    0.0000 H   0  0  0  0  0  0  0  0  0  0  0  0
    9.7069    0.5393    0.0000 H   0  0  0  0  0  0  0  0  0  0  0  0
    9.0917    1.1641    0.0000 H   0  0  0  0  0  0  0  0  0  0  0  0
    8.4669    0.5489    0.0000 H   0  0  0  0  0  0  0  0  0  0  0  0
    6.9999    0.1656    0.0000 H   0  0  0  0  0  0  0  0  0  0  0  0
    6.5928   -0.5211    0.0000 H   0  0  0  0  0  0  0  0  0  0  0  0
   11.4808   -1.1008    0.0000 H   0  0  0  0  0  0  0  0  0  0  0  0
   12.2755   -1.4713    0.0000 H   0  0  0  0  0  0  0  0  0  0  0  0
   12.6460   -0.6766    0.0000 H   0  0  0  0  0  0  0  0  0  0  0  0
   12.3676    3.2490    0.0000 H   0  0  0  0  0  0  0  0  0  0  0  0
   11.9819    2.5502    0.0000 H   0  0  0  0  0  0  0  0  0  0  0  0
   14.4615    0.9870    0.0000 H   0  0  0  0  0  0  0  0  0  0  0  0
   15.0759    2.5859    0.0000 H   0  0  0  0  0  0  0  0  0  0  0  0
   14.6741    3.2757    0.0000 H   0  0  0  0  0  0  0  0  0  0  0  0
    7.1626   -2.5184    0.0000 H   0  0  0  0  0  0  0  0  0  0  0  0
    7.1657   -3.3155    0.0000 H   0  0  0  0  0  0  0  0  0  0  0  0
    8.1033   -3.2234    0.0000 H   0  0  0  0  0  0  0  0  0  0  0  0
    8.9512   -3.4470    0.0000 H   0  0  0  0  0  0  0  0  0  0  0  0
    9.1748   -2.5992    0.0000 H   0  0  0  0  0  0  0  0  0  0  0  0
   14.0853    0.0392    0.0000 H   0  0  0  0  0  0  0  0  0  0  0  0
   14.9304    0.2726    0.0000 H   0  0  0  0  0  0  0  0  0  0  0  0
   14.6970    1.1178    0.0000 H   0  0  0  0  0  0  0  0  0  0  0  0
   14.5517    3.7952    0.0000 H   0  0  0  0  0  0  0  0  0  0  0  0
   13.5446    4.4036    0.0000 H   0  0  0  0  0  0  0  0  0  0  0  0
   14.3150    4.6395    0.0000 H   0  0  0  0  0  0  0  0  0  0  0  0
   13.4707    4.4028    0.0000 H   0  0  0  0  0  0  0  0  0  0  0  0
   12.6951    4.6208    0.0000 H   0  0  0  0  0  0  0  0  0  0  0  0
   12.4780    3.7713    0.0000 H   0  0  0  0  0  0  0  0  0  0  0  0
   15.8673    1.4116    0.0000 H   0  0  0  0  0  0  0  0  0  0  0  0
    6.0022   -1.1901    0.0000 H   0  0  0  0  0  0  0  0  0  0  0  0
    7.8345   -4.3174    0.0000 H   0  0  0  0  0  0  0  0  0  0  0  0
    5.4703    0.1220    0.0000 H   0  0  0  0  0  0  0  0  0  0  0  0
    4.0681    0.3174    0.0000 H   0  0  0  0  0  0  0  0  0  0  0  0
    3.7296   -2.1113    0.0000 H   0  0  0  0  0  0  0  0  0  0  0  0
    3.1978   -0.7993    0.0000 H   0  0  0  0  0  0  0  0  0  0  0  0
    6.8755    0.6866    0.0000 H   0  0  0  0  0  0  0  0  0  0  0  0
    4.0720    1.3174    0.0000 H   0  0  0  0  0  0  0  0  0  0  0  0
    2.8742    0.6320    0.0000 H   0  0  0  0  0  0  0  0  0  0  0  0
    7.7458    1.8032    0.0000 H   0  0  0  0  0  0  0  0  0  0  0  0
    7.2139    3.1153    0.0000 H   0  0  0  0  0  0  0  0  0  0  0  0
    4.9414    2.1940    0.0000 H   0  0  0  0  0  0  0  0  0  0  0  0
    2.3221   -3.2959    0.0000 H   0  0  0  0  0  0  0  0  0  0  0  0
    6.8856    3.3065    0.0000 H   0  0  0  0  0  0  0  0  0  0  0  0
    8.6099    1.2999    0.0000 H   0  0  0  0  0  0  0  0  0  0  0  0
    4.0052    3.1153    0.0000 H   0  0  0  0  0  0  0  0  0  0  0  0
    4.4011    2.4235    0.0000 H   0  0  0  0  0  0  0  0  0  0  0  0
    8.0819    3.6119    0.0000 H   0  0  0  0  0  0  0  0  0  0  0  0
    6.8894    4.3065    0.0000 H   0  0  0  0  0  0  0  0  0  0  0  0
    4.0835    4.3174    0.0000 H   0  0  0  0  0  0  0  0  0  0  0  0
 31  1  1  1  0  0  0
 45  1  1  6  0  0  0
 37  2  1  1  0  0  0
  2104  1  0  0  0  0
  3 40  1  0  0  0  0
  3106  1  0  0  0  0
  4 45  1  0  0  0  0
  4 48  1  0  0  0  0
 46  5  1  1  0  0  0
 50  5  1  6  0  0  0
 47  6  1  6  0  0  0
  6112  1  0  0  0  0
 49  7  1  1  0  0  0
  7113  1  0  0  0  0
  8 50  1  0  0  0  0
  8 54  1  0  0  0  0
  9 51  1  0  0  0  0
  9117  1  0  0  0  0
 10 51  2  0  0  0  0
 52 11  1  1  0  0  0
 11119  1  0  0  0  0
 53 12  1  6  0  0  0
 12122  1  0  0  0  0
 55 13  1  6  0  0  0
 13123  1  0  0  0  0
 14 56  1  0  0  0  0
 14124  1  0  0  0  0
 15 16  1  0  0  0  0
 15 18  1  0  0  0  0
 15 20  1  0  0  0  0
 15 30  1  1  0  0  0
 16 17  1  0  0  0  0
 16 26  1  0  0  0  0
 16 57  1  6  0  0  0
 17 19  1  0  0  0  0
 17 28  1  0  0  0  0
 17 33  1  1  0  0  0
 18 21  1  0  0  0  0
 18 27  1  0  0  0  0
 18 35  1  6  0  0  0
 19 22  1  0  0  0  0
 19 23  1  0  0  0  0
 19 58  1  6  0  0  0
 20 23  1  0  0  0  0
 20 59  1  0  0  0  0
 20 60  1  0  0  0  0
 21 24  1  0  0  0  0
 21 32  2  0  0  0  0
 22 31  1  0  0  0  0
 22 40  1  0  0  0  0
 22 41  1  6  0  0  0
 23 61  1  0  0  0  0
 23 62  1  0  0  0  0
 24 25  1  0  0  0  0
 24 36  1  0  0  0  0
 24 63  1  1  0  0  0
 25 29  1  0  0  0  0
 25 37  1  0  0  0  0
 25 42  1  1  0  0  0
 26 32  1  0  0  0  0
 26 64  1  0  0  0  0
 26 65  1  0  0  0  0
 27 29  1  0  0  0  0
 27 66  1  0  0  0  0
 27 67  1  0  0  0  0
 28 34  1  0  0  0  0
 28 68  1  0  0  0  0
 28 69  1  0  0  0  0
 29 70  1  0  0  0  0
 29 71  1  0  0  0  0
 30 72  1  0  0  0  0
 30 73  1  0  0  0  0
 30 74  1  0  0  0  0
 31 34  1  0  0  0  0
 31 75  1  0  0  0  0
 32 76  1  0  0  0  0
 33 77  1  0  0  0  0
 33 78  1  0  0  0  0
 33 79  1  0  0  0  0
 34 80  1  0  0  0  0
 34 81  1  0  0  0  0
 35 82  1  0  0  0  0
 35 83  1  0  0  0  0
 35 84  1  0  0  0  0
 36 38  1  0  0  0  0
 36 85  1  0  0  0  0
 36 86  1  0  0  0  0
 37 39  1  0  0  0  0
 37 87  1  0  0  0  0
 38 39  1  0  0  0  0
 38 43  1  0  0  0  0
 38 44  1  0  0  0  0
 39 88  1  0  0  0  0
 39 89  1  0  0  0  0
 40 90  1  0  0  0  0
 40 91  1  0  0  0  0
 41 92  1  0  0  0  0
 41 93  1  0  0  0  0
 41 94  1  0  0  0  0
 42 95  1  0  0  0  0
 42 96  1  0  0  0  0
 42 97  1  0  0  0  0
 43 98  1  0  0  0  0
 43100  1  0  0  0  0
 43101  1  0  0  0  0
 44 99  1  0  0  0  0
 44102  1  0  0  0  0
 44103  1  0  0  0  0
 45 46  1  0  0  0  0
 45105  1  0  0  0  0
 46 47  1  0  0  0  0
 46107  1  0  0  0  0
 47 49  1  0  0  0  0
 47108  1  0  0  0  0
 48 49  1  0  0  0  0
 48 51  1  6  0  0  0
 48109  1  0  0  0  0
 49110  1  0  0  0  0
 50 52  1  0  0  0  0
 50111  1  0  0  0  0
 52 53  1  0  0  0  0
 52114  1  0  0  0  0
 53 55  1  0  0  0  0
 53115  1  0  0  0  0
 54 55  1  0  0  0  0
 54 56  1  6  0  0  0
 54116  1  0  0  0  0
 55118  1  0  0  0  0
 56120  1  0  0  0  0
 56121  1  0  0  0  0
M  END
> <PUBCHEM_COMPOUND_CID>
21607811

> <PUBCHEM_COMPOUND_CANONICALIZED>
1

> <PUBCHEM_CACTVS_COMPLEXITY>
1520

> <PUBCHEM_CACTVS_HBOND_ACCEPTOR>
14

> <PUBCHEM_CACTVS_HBOND_DONOR>
9

> <PUBCHEM_CACTVS_ROTATABLE_BOND>
7

> <PUBCHEM_CACTVS_SUBSKEYS>
AAADcfB8PAAAAAAAAAAAAAAAAAAAAAAAAAA0aMGCAAAAAADAAAAAGgAACAAADxSwgAMCCAAABgCIAiDSCAIAAAAgAAAACAFAAAgREBYAAQQiQAAFoAAPAAPK7PxPgAAAAAAAAADAAAYAADAAAAAAAAAAAA==

> <PUBCHEM_IUPAC_OPENEYE_NAME>
(2S,3S,4S,5R,6R)-6-[[(3S,4S,4aR,6aR,6bS,8aR,9R,12aS,14aR,14bR)-9-hydroxy-4-(hydroxymethyl)-4,6a,6b,8a,11,11,14b-heptamethyl-1,2,3,4a,5,6,7,8,9,10,12,12a,14,14a-tetradecahydropicen-3-yl]oxy]-3,4-dihydroxy-5-[(2S,3R,4S,5R,6R)-3,4,5-trihydroxy-6-(hydroxymethyl)tetrahydropyran-2-yl]oxy-tetrahydropyran-2-carboxylic acid

> <PUBCHEM_IUPAC_CAS_NAME>
(2S,3S,4S,5R,6R)-6-[[(3S,4S,4aR,6aR,6bS,8aR,9R,12aS,14aR,14bR)-9-hydroxy-4-(hydroxymethyl)-4,6a,6b,8a,11,11,14b-heptamethyl-1,2,3,4a,5,6,7,8,9,10,12,12a,14,14a-tetradecahydropicen-3-yl]oxy]-3,4-dihydroxy-5-[[(2S,3R,4S,5R,6R)-3,4,5-trihydroxy-6-(hydroxymethyl)-2-oxanyl]oxy]-2-oxanecarboxylic acid

> <PUBCHEM_IUPAC_NAME>
(2S,3S,4S,5R,6R)-6-[[(3S,4S,4aR,6aR,6bS,8aR,9R,12aS,14aR,14bR)-9-hydroxy-4-(hydroxymethyl)-4,6a,6b,8a,11,11,14b-heptamethyl-1,2,3,4a,5,6,7,8,9,10,12,12a,14,14a-tetradecahydropicen-3-yl]oxy]-3,4-dihydroxy-5-[(2S,3R,4S,5R,6R)-3,4,5-trihydroxy-6-(hydroxymethyl)oxan-2-yl]oxyoxane-2-carboxylic acid

> <PUBCHEM_IUPAC_SYSTEMATIC_NAME>
(2S,3S,4S,5R,6R)-6-[[(3S,4S,4aR,6aR,6bS,8aR,9R,12aS,14aR,14bR)-4-(hydroxymethyl)-4,6a,6b,8a,11,11,14b-heptamethyl-9-oxidanyl-1,2,3,4a,5,6,7,8,9,10,12,12a,14,14a-tetradecahydropicen-3-yl]oxy]-5-[(2S,3R,4S,5R,6R)-6-(hydroxymethyl)-3,4,5-tris(oxidanyl)oxan-2-yl]oxy-3,4-bis(oxidanyl)oxane-2-carboxylic acid

> <PUBCHEM_IUPAC_TRADITIONAL_NAME>
(2S,3S,4S,5R,6R)-6-[[(3S,4S,4aR,6aR,6bS,8aR,9R,12aS,14aR,14bR)-9-hydroxy-4,6a,6b,8a,11,11,14b-heptamethyl-4-methylol-1,2,3,4a,5,6,7,8,9,10,12,12a,14,14a-tetradecahydropicen-3-yl]oxy]-3,4-dihydroxy-5-[(2S,3R,4S,5R,6R)-3,4,5-trihydroxy-6-methylol-tetrahydropyran-2-yl]oxy-tetrahydropyran-2-carboxylic acid

> <PUBCHEM_IUPAC_INCHI>
InChI=1S/C42H68O14/c1-37(2)16-21-20-8-9-24-39(4)12-11-26(40(5,19-44)23(39)10-13-42(24,7)41(20,6)15-14-38(21,3)25(45)17-37)54-36-33(30(49)29(48)32(55-36)34(51)52)56-35-31(50)28(47)27(46)22(18-43)53-35/h8,21-33,35-36,43-50H,9-19H2,1-7H3,(H,51,52)/t21-,22+,23+,24+,25+,26-,27-,28-,29-,30-,31+,32-,33+,35-,36+,38+,39-,40+,41+,42+/m0/s1

> <PUBCHEM_IUPAC_INCHIKEY>
OKIHRVKXRCAJFQ-AHBDIROXSA-N

> <PUBCHEM_XLOGP3_AA>
3.5

> <PUBCHEM_EXACT_MASS>
796.460907

> <PUBCHEM_MOLECULAR_FORMULA>
C42H68O14

> <PUBCHEM_MOLECULAR_WEIGHT>
796.98092

> <PUBCHEM_OPENEYE_CAN_SMILES>
CC1(CC2C3=CCC4C5(CCC(C(C5CCC4(C3(CCC2(C(C1)O)C)C)C)(C)CO)OC6C(C(C(C(O6)C(=O)O)O)O)OC7C(C(C(C(O7)CO)O)O)O)C)C

> <PUBCHEM_OPENEYE_ISO_SMILES>
C[C@]12CC[C@@H]([C@]([C@@H]1CC[C@@]3([C@@H]2CC=C4[C@]3(CC[C@@]5([C@H]4CC(C[C@H]5O)(C)C)C)C)C)(C)CO)O[C@H]6[C@@H]([C@H]([C@@H]([C@H](O6)C(=O)O)O)O)O[C@H]7[C@@H]([C@H]([C@H]([C@H](O7)CO)O)O)O

> <PUBCHEM_CACTVS_TPSA>
236

> <PUBCHEM_MONOISOTOPIC_WEIGHT>
796.460907

> <PUBCHEM_TOTAL_CHARGE>
0

> <PUBCHEM_HEAVY_ATOM_COUNT>
56

> <PUBCHEM_ATOM_DEF_STEREO_COUNT>
20

> <PUBCHEM_ATOM_UDEF_STEREO_COUNT>
0

> <PUBCHEM_BOND_DEF_STEREO_COUNT>
0

> <PUBCHEM_BOND_UDEF_STEREO_COUNT>
0

> <PUBCHEM_ISOTOPIC_ATOM_COUNT>
0

> <PUBCHEM_COMPONENT_COUNT>
1

> <PUBCHEM_CACTVS_TAUTO_COUNT>
1

> <PUBCHEM_COORDINATE_TYPE>
1
5
255

> <PUBCHEM_BONDANNOTATIONS>
31  1  5
45  1  6
52  11  5
53  12  6
55  13  6
15  30  5
16  57  6
17  33  5
18  35  6
19  58  6
37  2  5
22  41  6
24  63  5
25  42  5
48  51  6
46  5  5
50  5  6
54  56  6
47  6  6
49  7  5

$$$$

