441795
  -OEChem-07051212562D

 38 40  0     0  0  0  0  0  0999 V2000
    5.0981    1.6018    0.0000 O   0  0  0  0  0  0  0  0  0  0  0  0
    5.9631   -1.6692    0.0000 O   0  0  0  0  0  0  0  0  0  0  0  0
    7.2205    2.2008    0.0000 O   0  0  0  0  0  0  0  0  0  0  0  0
    8.6028    0.6893    0.0000 O   0  0  0  0  0  0  0  0  0  0  0  0
    2.9757    2.2008    0.0000 O   0  0  0  0  0  0  0  0  0  0  0  0
    7.9698   -1.2588    0.0000 O   0  0  0  0  0  0  0  0  0  0  0  0
    5.5981    0.0630    0.0000 C   0  0  0  0  0  0  0  0  0  0  0  0
    4.5981    0.0630    0.0000 C   0  0  0  0  0  0  0  0  0  0  0  0
    5.9071    1.0140    0.0000 C   0  0  0  0  0  0  0  0  0  0  0  0
    4.2891    1.0140    0.0000 C   0  0  0  0  0  0  0  0  0  0  0  0
    6.2831   -0.7218    0.0000 C   0  0  0  0  0  0  0  0  0  0  0  0
    6.9225    1.2463    0.0000 C   0  0  0  0  0  0  0  0  0  0  0  0
    7.6255    0.4776    0.0000 C   0  0  0  0  0  0  0  0  0  0  0  0
    7.3036   -0.5131    0.0000 C   0  0  0  0  0  0  0  0  0  0  0  0
    3.9131   -0.7218    0.0000 C   0  0  0  0  0  0  0  0  0  0  0  0
    3.2737    1.2463    0.0000 C   0  0  0  0  0  0  0  0  0  0  0  0
    2.8926   -0.5131    0.0000 C   0  0  0  0  0  0  0  0  0  0  0  0
    2.5707    0.4776    0.0000 C   0  0  0  0  0  0  0  0  0  0  0  0
    6.6236   -2.4200    0.0000 C   0  0  0  0  0  0  0  0  0  0  0  0
    8.1962    2.4200    0.0000 C   0  0  0  0  0  0  0  0  0  0  0  0
    9.2748   -0.0513    0.0000 C   0  0  0  0  0  0  0  0  0  0  0  0
    2.0000    2.4200    0.0000 C   0  0  0  0  0  0  0  0  0  0  0  0
    4.1115   -1.3092    0.0000 H   0  0  0  0  0  0  0  0  0  0  0  0
    2.4795   -0.9754    0.0000 H   0  0  0  0  0  0  0  0  0  0  0  0
    1.9648    0.6088    0.0000 H   0  0  0  0  0  0  0  0  0  0  0  0
    8.5768   -1.1322    0.0000 H   0  0  0  0  0  0  0  0  0  0  0  0
    6.1581   -2.8295    0.0000 H   0  0  0  0  0  0  0  0  0  0  0  0
    7.0331   -2.8856    0.0000 H   0  0  0  0  0  0  0  0  0  0  0  0
    7.0891   -2.0105    0.0000 H   0  0  0  0  0  0  0  0  0  0  0  0
    8.3321    1.8151    0.0000 H   0  0  0  0  0  0  0  0  0  0  0  0
    8.8011    2.5559    0.0000 H   0  0  0  0  0  0  0  0  0  0  0  0
    8.0603    3.0250    0.0000 H   0  0  0  0  0  0  0  0  0  0  0  0
    8.8156   -0.4679    0.0000 H   0  0  0  0  0  0  0  0  0  0  0  0
    9.6914   -0.5105    0.0000 H   0  0  0  0  0  0  0  0  0  0  0  0
    9.7339    0.3653    0.0000 H   0  0  0  0  0  0  0  0  0  0  0  0
    2.1359    3.0250    0.0000 H   0  0  0  0  0  0  0  0  0  0  0  0
    1.3951    2.5559    0.0000 H   0  0  0  0  0  0  0  0  0  0  0  0
    1.8641    1.8151    0.0000 H   0  0  0  0  0  0  0  0  0  0  0  0
  1  9  1  0  0  0  0
  1 10  1  0  0  0  0
  2 11  1  0  0  0  0
  2 19  1  0  0  0  0
  3 12  1  0  0  0  0
  3 20  1  0  0  0  0
  4 13  1  0  0  0  0
  4 21  1  0  0  0  0
  5 16  1  0  0  0  0
  5 22  1  0  0  0  0
  6 14  1  0  0  0  0
  6 26  1  0  0  0  0
  7  8  1  0  0  0  0
  7  9  2  0  0  0  0
  7 11  1  0  0  0  0
  8 10  2  0  0  0  0
  8 15  1  0  0  0  0
  9 12  1  0  0  0  0
 10 16  1  0  0  0  0
 11 14  2  0  0  0  0
 12 13  2  0  0  0  0
 13 14  1  0  0  0  0
 15 17  2  0  0  0  0
 15 23  1  0  0  0  0
 16 18  2  0  0  0  0
 17 18  1  0  0  0  0
 17 24  1  0  0  0  0
 18 25  1  0  0  0  0
 19 27  1  0  0  0  0
 19 28  1  0  0  0  0
 19 29  1  0  0  0  0
 20 30  1  0  0  0  0
 20 31  1  0  0  0  0
 20 32  1  0  0  0  0
 21 33  1  0  0  0  0
 21 34  1  0  0  0  0
 21 35  1  0  0  0  0
 22 36  1  0  0  0  0
 22 37  1  0  0  0  0
 22 38  1  0  0  0  0
M  END
> <PUBCHEM_COMPOUND_CID>
441795

> <PUBCHEM_COMPOUND_CANONICALIZED>
1

> <PUBCHEM_CACTVS_COMPLEXITY>
378

> <PUBCHEM_CACTVS_HBOND_ACCEPTOR>
6

> <PUBCHEM_CACTVS_HBOND_DONOR>
1

> <PUBCHEM_CACTVS_ROTATABLE_BOND>
4

> <PUBCHEM_CACTVS_SUBSKEYS>
AAADceB4OAAAAAAAAAAAAAAAAAAAASAAAAAwYAAAAAAAAEgB/AAAGgAACAAADASAmAIyBsAABkCIAqBSAAICCAAkIAAIiAFGiMgNJzaGNR6CeWOl4BULuYfK7PzOoQABCAAIQABCAAIQABCAAAAAAAAAAA==

> <PUBCHEM_IUPAC_OPENEYE_NAME>
1,3,4,6-tetramethoxydibenzofuran-2-ol

> <PUBCHEM_IUPAC_CAS_NAME>
1,3,4,6-tetramethoxy-2-dibenzofuranol

> <PUBCHEM_IUPAC_NAME>
1,3,4,6-tetramethoxydibenzofuran-2-ol

> <PUBCHEM_IUPAC_SYSTEMATIC_NAME>
1,3,4,6-tetramethoxydibenzofuran-2-ol

> <PUBCHEM_IUPAC_TRADITIONAL_NAME>
1,3,4,6-tetramethoxydibenzofuran-2-ol

> <PUBCHEM_IUPAC_INCHI>
InChI=1S/C16H16O6/c1-18-9-7-5-6-8-10-13(19-2)11(17)15(20-3)16(21-4)14(10)22-12(8)9/h5-7,17H,1-4H3

> <PUBCHEM_IUPAC_INCHIKEY>
ZUMWPOBUQWYISM-UHFFFAOYSA-N

> <PUBCHEM_XLOGP3_AA>
3.2

> <PUBCHEM_EXACT_MASS>
304.094688

> <PUBCHEM_MOLECULAR_FORMULA>
C16H16O6

> <PUBCHEM_MOLECULAR_WEIGHT>
304.29464

> <PUBCHEM_OPENEYE_CAN_SMILES>
COC1=CC=CC2=C1OC3=C2C(=C(C(=C3OC)OC)O)OC

> <PUBCHEM_OPENEYE_ISO_SMILES>
COC1=CC=CC2=C1OC3=C2C(=C(C(=C3OC)OC)O)OC

> <PUBCHEM_CACTVS_TPSA>
70.3

> <PUBCHEM_MONOISOTOPIC_WEIGHT>
304.094688

> <PUBCHEM_TOTAL_CHARGE>
0

> <PUBCHEM_HEAVY_ATOM_COUNT>
22

> <PUBCHEM_ATOM_DEF_STEREO_COUNT>
0

> <PUBCHEM_ATOM_UDEF_STEREO_COUNT>
0

> <PUBCHEM_BOND_DEF_STEREO_COUNT>
0

> <PUBCHEM_BOND_UDEF_STEREO_COUNT>
0

> <PUBCHEM_ISOTOPIC_ATOM_COUNT>
0

> <PUBCHEM_COMPONENT_COUNT>
1

> <PUBCHEM_CACTVS_TAUTO_COUNT>
3

> <PUBCHEM_COORDINATE_TYPE>
1
5
255

> <PUBCHEM_BONDANNOTATIONS>
1  10  8
1  9  8
10  16  8
11  14  8
12  13  8
13  14  8
15  17  8
16  18  8
17  18  8
7  11  8
7  8  8
7  9  8
8  10  8
8  15  8
9  12  8

$$$$

