7259
  -OEChem-07051213133D

 20 20  0     0  0  0  0  0  0999 V2000
   -1.6601    1.8668    0.0004 N   0  0  0  0  0  0  0  0  0  0  0  0
   -1.1570   -0.5212    0.0002 C   0  0  0  0  0  0  0  0  0  0  0  0
   -0.7276    0.8058   -0.0002 C   0  0  0  0  0  0  0  0  0  0  0  0
    1.5710    0.0621   -0.0001 C   0  0  0  0  0  0  0  0  0  0  0  0
    0.6364    1.0975   -0.0002 C   0  0  0  0  0  0  0  0  0  0  0  0
   -0.2223   -1.5567    0.0003 C   0  0  0  0  0  0  0  0  0  0  0  0
    1.1417   -1.2651    0.0001 C   0  0  0  0  0  0  0  0  0  0  0  0
   -2.6117   -0.8627   -0.0004 C   0  0  0  0  0  0  0  0  0  0  0  0
    3.0296    0.3735    0.0000 C   0  0  0  0  0  0  0  0  0  0  0  0
    0.9728    2.1320    0.0017 H   0  0  0  0  0  0  0  0  0  0  0  0
   -0.5393   -2.5962    0.0008 H   0  0  0  0  0  0  0  0  0  0  0  0
    1.8601   -2.0806    0.0019 H   0  0  0  0  0  0  0  0  0  0  0  0
   -3.1011   -0.4612    0.8932 H   0  0  0  0  0  0  0  0  0  0  0  0
   -3.0999   -0.4626   -0.8951 H   0  0  0  0  0  0  0  0  0  0  0  0
   -2.7751   -1.9461    0.0004 H   0  0  0  0  0  0  0  0  0  0  0  0
    3.2350    1.2985   -0.5494 H   0  0  0  0  0  0  0  0  0  0  0  0
    3.3892    0.4874    1.0274 H   0  0  0  0  0  0  0  0  0  0  0  0
    3.6049   -0.4217   -0.4862 H   0  0  0  0  0  0  0  0  0  0  0  0
   -1.3296    2.8230   -0.0013 H   0  0  0  0  0  0  0  0  0  0  0  0
   -2.6542    1.6864   -0.0013 H   0  0  0  0  0  0  0  0  0  0  0  0
  1  3  1  0  0  0  0
  1 19  1  0  0  0  0
  1 20  1  0  0  0  0
  2  3  2  0  0  0  0
  2  6  1  0  0  0  0
  2  8  1  0  0  0  0
  3  5  1  0  0  0  0
  4  5  2  0  0  0  0
  4  7  1  0  0  0  0
  4  9  1  0  0  0  0
  5 10  1  0  0  0  0
  6  7  2  0  0  0  0
  6 11  1  0  0  0  0
  7 12  1  0  0  0  0
  8 13  1  0  0  0  0
  8 14  1  0  0  0  0
  8 15  1  0  0  0  0
  9 16  1  0  0  0  0
  9 17  1  0  0  0  0
  9 18  1  0  0  0  0
M  END
> <PUBCHEM_COMPOUND_CID>
7259

> <PUBCHEM_CONFORMER_RMSD>
0.4

> <PUBCHEM_CONFORMER_DIVERSEORDER>
1

> <PUBCHEM_MMFF94_PARTIAL_CHARGES>
14
1 -0.9
10 0.15
11 0.15
12 0.15
19 0.4
2 -0.14
20 0.4
3 0.1
4 -0.14
5 -0.15
6 -0.15
7 -0.15
8 0.14
9 0.14

> <PUBCHEM_EFFECTIVE_ROTOR_COUNT>
0

> <PUBCHEM_PHARMACOPHORE_FEATURES>
3
1 1 cation
1 1 donor
6 2 3 4 5 6 7 rings

> <PUBCHEM_HEAVY_ATOM_COUNT>
9

> <PUBCHEM_ATOM_DEF_STEREO_COUNT>
0

> <PUBCHEM_ATOM_UDEF_STEREO_COUNT>
0

> <PUBCHEM_BOND_DEF_STEREO_COUNT>
0

> <PUBCHEM_BOND_UDEF_STEREO_COUNT>
0

> <PUBCHEM_ISOTOPIC_ATOM_COUNT>
0

> <PUBCHEM_COMPONENT_COUNT>
1

> <PUBCHEM_CACTVS_TAUTO_COUNT>
1

> <PUBCHEM_CONFORMER_ID>
00001C5B00000001

> <PUBCHEM_MMFF94_ENERGY>
32.7366

> <PUBCHEM_FEATURE_SELFOVERLAP>
15.223

> <PUBCHEM_SHAPE_FINGERPRINT>
11206711 2 18411702079855368677
12423570 1 12388470661624948529
12897270 3 18410295791529839239
14325111 11 18410575110976318560
16945 1 18410575037524083110
18185500 45 18121782733536848503
193761 8 18122344850308857799
21040471 1 18194402422919318084
23235685 24 18340210699919489862
23402655 69 18265071265985695461
23552423 10 18199744907153871902
2748010 2 18266175213349239150
29004967 10 18342171112088132947
5084963 1 18187079529538982882

> <PUBCHEM_SHAPE_MULTIPOLES>
180.23
3.37
1.71
0.61
0.84
0.24
0
0.02
0
-0.55
0
0.01
-0.02
0

> <PUBCHEM_SHAPE_SELFOVERLAP>
370.962

> <PUBCHEM_SHAPE_VOLUME>
105.6

> <PUBCHEM_COORDINATE_TYPE>
2
5
10

$$$$

