6441870
  -OEChem-07051213102D

 39 40  0     1  0  0  0  0  0999 V2000
    7.2192   -0.1962    0.0000 S   0  0  3  0  0  0  0  0  0  0  0  0
    2.9665   -1.4089    0.0000 O   0  0  0  0  0  0  0  0  0  0  0  0
    5.2713   -2.6994    0.0000 O   0  0  0  0  0  0  0  0  0  0  0  0
    7.7192   -1.0622    0.0000 O   0  0  0  0  0  0  0  0  0  0  0  0
    2.5216    2.6905    0.0000 O   0  0  0  0  0  0  0  0  0  0  0  0
    6.9186   -2.1641    0.0000 O   0  0  0  0  0  0  0  0  0  0  0  0
   10.7192    0.6699    0.0000 O   0  0  0  0  0  0  0  0  0  0  0  0
    4.6804   -0.6962    0.0000 N   0  0  0  0  0  0  0  0  0  0  0  0
    9.2192    1.5359    0.0000 N   0  0  0  0  0  0  0  0  0  0  0  0
    4.6804    0.3038    0.0000 C   0  0  2  0  0  0  0  0  0  0  0  0
    5.6314    0.6129    0.0000 C   0  0  0  0  0  0  0  0  0  0  0  0
    3.6721    0.3080    0.0000 C   0  0  0  0  0  0  0  0  0  0  0  0
    3.6721   -0.7003    0.0000 C   0  0  0  0  0  0  0  0  0  0  0  0
    5.6314   -1.0052    0.0000 C   0  0  0  0  0  0  0  0  0  0  0  0
    6.2192   -0.1962    0.0000 C   0  0  0  0  0  0  0  0  0  0  0  0
    2.9665    1.0165    0.0000 C   0  0  0  0  0  0  0  0  0  0  0  0
    5.9405   -1.9562    0.0000 C   0  0  0  0  0  0  0  0  0  0  0  0
    3.2273    1.9819    0.0000 C   0  0  0  0  0  0  0  0  0  0  0  0
    2.0000    0.7597    0.0000 C   0  0  0  0  0  0  0  0  0  0  0  0
    7.7192    0.6699    0.0000 C   0  0  0  0  0  0  0  0  0  0  0  0
    8.7192    0.6699    0.0000 C   0  0  0  0  0  0  0  0  0  0  0  0
   10.2192    1.5359    0.0000 C   0  0  0  0  0  0  0  0  0  0  0  0
   10.7192    2.4019    0.0000 C   0  0  0  0  0  0  0  0  0  0  0  0
    4.5491    1.1436    0.0000 H   0  0  0  0  0  0  0  0  0  0  0  0
    6.1684    0.9229    0.0000 H   0  0  0  0  0  0  0  0  0  0  0  0
    5.3793    1.1792    0.0000 H   0  0  0  0  0  0  0  0  0  0  0  0
    3.7886    1.7188    0.0000 H   0  0  0  0  0  0  0  0  0  0  0  0
    3.5839    2.4891    0.0000 H   0  0  0  0  0  0  0  0  0  0  0  0
    1.8408    1.3589    0.0000 H   0  0  0  0  0  0  0  0  0  0  0  0
    1.4008    0.6005    0.0000 H   0  0  0  0  0  0  0  0  0  0  0  0
    2.1592    0.1605    0.0000 H   0  0  0  0  0  0  0  0  0  0  0  0
    7.4092    1.2068    0.0000 H   0  0  0  0  0  0  0  0  0  0  0  0
    5.4629   -3.2890    0.0000 H   0  0  0  0  0  0  0  0  0  0  0  0
    2.6833    3.2890    0.0000 H   0  0  0  0  0  0  0  0  0  0  0  0
    9.0292    0.1329    0.0000 H   0  0  0  0  0  0  0  0  0  0  0  0
    8.9092    2.0728    0.0000 H   0  0  0  0  0  0  0  0  0  0  0  0
   11.2562    2.0919    0.0000 H   0  0  0  0  0  0  0  0  0  0  0  0
   11.0292    2.9388    0.0000 H   0  0  0  0  0  0  0  0  0  0  0  0
   10.1823    2.7119    0.0000 H   0  0  0  0  0  0  0  0  0  0  0  0
  1  4  2  0  0  0  0
  1 15  1  0  0  0  0
  1 20  1  0  0  0  0
  2 13  2  0  0  0  0
  3 17  1  0  0  0  0
  3 33  1  0  0  0  0
  5 18  1  0  0  0  0
  5 34  1  0  0  0  0
  6 17  2  0  0  0  0
  7 22  2  0  0  0  0
  8 10  1  0  0  0  0
  8 13  1  0  0  0  0
  8 14  1  0  0  0  0
  9 21  1  0  0  0  0
  9 22  1  0  0  0  0
  9 36  1  0  0  0  0
 10 11  1  0  0  0  0
 10 12  1  0  0  0  0
 10 24  1  6  0  0  0
 11 15  1  0  0  0  0
 11 25  1  0  0  0  0
 11 26  1  0  0  0  0
 12 13  1  0  0  0  0
 12 16  2  0  0  0  0
 14 15  2  0  0  0  0
 14 17  1  0  0  0  0
 16 18  1  0  0  0  0
 16 19  1  0  0  0  0
 18 27  1  0  0  0  0
 18 28  1  0  0  0  0
 19 29  1  0  0  0  0
 19 30  1  0  0  0  0
 19 31  1  0  0  0  0
 20 21  2  0  0  0  0
 20 32  1  0  0  0  0
 21 35  1  0  0  0  0
 22 23  1  0  0  0  0
 23 37  1  0  0  0  0
 23 38  1  0  0  0  0
 23 39  1  0  0  0  0
M  END
> <PUBCHEM_COMPOUND_CID>
6441870

> <PUBCHEM_COMPOUND_CANONICALIZED>
1

> <PUBCHEM_CACTVS_COMPLEXITY>
706

> <PUBCHEM_CACTVS_HBOND_ACCEPTOR>
7

> <PUBCHEM_CACTVS_HBOND_DONOR>
3

> <PUBCHEM_CACTVS_ROTATABLE_BOND>
5

> <PUBCHEM_CACTVS_SUBSKEYS>
AAADceBzOABAAAAAAAAAAAAAAABYAQAAAAAAAAAABAAAAAAAAAAAHgQQCAAADCjlwAaCCAPAAgqIAgXWWEDAAAAgAhAICIGIAEgCFBoggCAEUAAAlgCYEQIYAAAAAAAAAAAAAAAAAAAAAAAAAAAAAAAAAA==

> <PUBCHEM_IUPAC_OPENEYE_NAME>
(5R,6E)-3-[(E)-2-acetamidovinyl]sulfinyl-6-(2-hydroxy-1-methyl-ethylidene)-7-oxo-1-azabicyclo[3.2.0]hept-2-ene-2-carboxylic acid

> <PUBCHEM_IUPAC_CAS_NAME>
(5R,6E)-3-[(E)-2-acetamidoethenyl]sulfinyl-6-(1-hydroxypropan-2-ylidene)-7-oxo-1-azabicyclo[3.2.0]hept-2-ene-2-carboxylic acid

> <PUBCHEM_IUPAC_NAME>
(5R,6E)-3-[(E)-2-acetamidoethenyl]sulfinyl-6-(1-hydroxypropan-2-ylidene)-7-oxo-1-azabicyclo[3.2.0]hept-2-ene-2-carboxylic acid

> <PUBCHEM_IUPAC_SYSTEMATIC_NAME>
(5R,6E)-3-[(E)-2-acetamidoethenyl]sulfinyl-7-oxidanylidene-6-(1-oxidanylpropan-2-ylidene)-1-azabicyclo[3.2.0]hept-2-ene-2-carboxylic acid

> <PUBCHEM_IUPAC_TRADITIONAL_NAME>
(5R,6E)-3-[(E)-2-acetamidovinyl]sulfinyl-6-(2-hydroxy-1-methyl-ethylidene)-7-keto-1-azabicyclo[3.2.0]hept-2-ene-2-carboxylic acid

> <PUBCHEM_IUPAC_INCHI>
InChI=1S/C14H16N2O6S/c1-7(6-17)11-9-5-10(23(22)4-3-15-8(2)18)12(14(20)21)16(9)13(11)19/h3-4,9,17H,5-6H2,1-2H3,(H,15,18)(H,20,21)/b4-3+,11-7+/t9-,23?/m1/s1

> <PUBCHEM_IUPAC_INCHIKEY>
KJQZKTFSANMFQJ-RPGQRGOQSA-N

> <PUBCHEM_XLOGP3_AA>
-1.5

> <PUBCHEM_EXACT_MASS>
340.072907

> <PUBCHEM_MOLECULAR_FORMULA>
C14H16N2O6S

> <PUBCHEM_MOLECULAR_WEIGHT>
340.35164

> <PUBCHEM_OPENEYE_CAN_SMILES>
CC(=C1C2CC(=C(N2C1=O)C(=O)O)S(=O)C=CNC(=O)C)CO

> <PUBCHEM_OPENEYE_ISO_SMILES>
C/C(=C\1/[C@H]2CC(=C(N2C1=O)C(=O)O)S(=O)/C=C/NC(=O)C)/CO

> <PUBCHEM_CACTVS_TPSA>
143

> <PUBCHEM_MONOISOTOPIC_WEIGHT>
340.072907

> <PUBCHEM_TOTAL_CHARGE>
0

> <PUBCHEM_HEAVY_ATOM_COUNT>
23

> <PUBCHEM_ATOM_DEF_STEREO_COUNT>
1

> <PUBCHEM_ATOM_UDEF_STEREO_COUNT>
1

> <PUBCHEM_BOND_DEF_STEREO_COUNT>
2

> <PUBCHEM_BOND_UDEF_STEREO_COUNT>
0

> <PUBCHEM_ISOTOPIC_ATOM_COUNT>
0

> <PUBCHEM_COMPONENT_COUNT>
1

> <PUBCHEM_CACTVS_TAUTO_COUNT>
2

> <PUBCHEM_COORDINATE_TYPE>
1
5
255

> <PUBCHEM_BONDANNOTATIONS>
1  20  3
10  24  6

$$$$

