99456
  -OEChem-07051212453D

 13 13  0     0  0  0  0  0  0999 V2000
   -2.7493   -0.0005   -0.0001 O   0  0  0  0  0  0  0  0  0  0  0  0
    2.6741    0.0211    0.0000 O   0  0  0  0  0  0  0  0  0  0  0  0
    0.6797    1.1891   -0.0001 N   0  0  0  0  0  0  0  0  0  0  0  0
   -1.3745    0.0364    0.0002 C   0  0  0  0  0  0  0  0  0  0  0  0
   -0.6934    1.1881    0.0000 C   0  0  0  0  0  0  0  0  0  0  0  0
   -0.6612   -1.2198    0.0000 C   0  0  0  0  0  0  0  0  0  0  0  0
    0.6788   -1.2480    0.0000 C   0  0  0  0  0  0  0  0  0  0  0  0
    1.4458    0.0336    0.0000 C   0  0  0  0  0  0  0  0  0  0  0  0
   -1.1700    2.1603   -0.0001 H   0  0  0  0  0  0  0  0  0  0  0  0
   -1.2241   -2.1470   -0.0001 H   0  0  0  0  0  0  0  0  0  0  0  0
    1.1494    2.0898   -0.0001 H   0  0  0  0  0  0  0  0  0  0  0  0
    1.2328   -2.1789    0.0000 H   0  0  0  0  0  0  0  0  0  0  0  0
   -3.0352   -0.9299   -0.0004 H   0  0  0  0  0  0  0  0  0  0  0  0
  1  4  1  0  0  0  0
  1 13  1  0  0  0  0
  2  8  2  0  0  0  0
  3  5  1  0  0  0  0
  3  8  1  0  0  0  0
  3 11  1  0  0  0  0
  4  5  2  0  0  0  0
  4  6  1  0  0  0  0
  5  9  1  0  0  0  0
  6  7  2  0  0  0  0
  6 10  1  0  0  0  0
  7  8  1  0  0  0  0
  7 12  1  0  0  0  0
M  END
> <PUBCHEM_COMPOUND_CID>
99456

> <PUBCHEM_CONFORMER_RMSD>
0.4

> <PUBCHEM_CONFORMER_DIVERSEORDER>
1

> <PUBCHEM_MMFF94_PARTIAL_CHARGES>
13
1 -0.53
10 0.15
11 0.37
12 0.15
13 0.45
2 -0.57
3 -0.54
4 0.08
5 -0.04
6 -0.15
7 -0.14
8 0.62
9 0.15

> <PUBCHEM_EFFECTIVE_ROTOR_COUNT>
0

> <PUBCHEM_PHARMACOPHORE_FEATURES>
4
1 1 donor
1 2 acceptor
1 3 donor
6 3 4 5 6 7 8 rings

> <PUBCHEM_HEAVY_ATOM_COUNT>
8

> <PUBCHEM_ATOM_DEF_STEREO_COUNT>
0

> <PUBCHEM_ATOM_UDEF_STEREO_COUNT>
0

> <PUBCHEM_BOND_DEF_STEREO_COUNT>
0

> <PUBCHEM_BOND_UDEF_STEREO_COUNT>
0

> <PUBCHEM_ISOTOPIC_ATOM_COUNT>
0

> <PUBCHEM_COMPONENT_COUNT>
1

> <PUBCHEM_CACTVS_TAUTO_COUNT>
4

> <PUBCHEM_CONFORMER_ID>
0001848000000001

> <PUBCHEM_MMFF94_ENERGY>
16.6201

> <PUBCHEM_FEATURE_SELFOVERLAP>
20.297

> <PUBCHEM_SHAPE_FINGERPRINT>
16714656 1 18410571786307556710
18185500 45 18410578366028772527
20096714 4 18410575046019039699
21040471 1 18410573989478131910
23235685 24 18410577283702236672
23402655 69 18193576673425329413
23552423 10 18055626467740300230
29004967 10 18271799142395116017

> <PUBCHEM_SHAPE_MULTIPOLES>
147.92
2.84
1.35
0.58
0.01
0.06
0
-0.09
0
0.01
0
0.01
0.01
0

> <PUBCHEM_SHAPE_SELFOVERLAP>
306.024

> <PUBCHEM_SHAPE_VOLUME>
84.5

> <PUBCHEM_COORDINATE_TYPE>
2
5
10

$$$$

