586134
  -OEChem-06241222453D

 41 43  0     1  0  0  0  0  0999 V2000
   -7.5577    0.7081    0.3280 Cl  0  0  0  0  0  0  0  0  0  0  0  0
   -7.2642   -2.3214   -0.7717 Cl  0  0  0  0  0  0  0  0  0  0  0  0
    1.9968    2.1282   -1.9030 O   0  0  0  0  0  0  0  0  0  0  0  0
   -0.7119   -0.5883    0.0186 O   0  0  0  0  0  0  0  0  0  0  0  0
    6.8278   -1.7537    0.2382 O   0  0  0  0  0  0  0  0  0  0  0  0
    1.9865    1.0285    0.2115 N   0  0  0  0  0  0  0  0  0  0  0  0
   -2.4715    0.8914    0.5193 N   0  0  0  0  0  0  0  0  0  0  0  0
   -0.2117    1.5886    0.8301 C   0  0  1  0  0  0  0  0  0  0  0  0
    1.1006    1.0428    1.3611 C   0  0  0  0  0  0  0  0  0  0  0  0
    0.1917    2.4490   -0.3551 C   0  0  0  0  0  0  0  0  0  0  0  0
    1.4999    1.8491   -0.8210 C   0  0  0  0  0  0  0  0  0  0  0  0
   -1.1460    0.4917    0.4060 C   0  0  0  0  0  0  0  0  0  0  0  0
    3.2248    0.3178    0.2182 C   0  0  0  0  0  0  0  0  0  0  0  0
    4.0886    0.3997   -0.8772 C   0  0  0  0  0  0  0  0  0  0  0  0
    3.5791   -0.4654    1.3202 C   0  0  0  0  0  0  0  0  0  0  0  0
   -3.6281    0.1354    0.2143 C   0  0  0  0  0  0  0  0  0  0  0  0
    5.2975   -0.2961   -0.8710 C   0  0  0  0  0  0  0  0  0  0  0  0
    4.7880   -1.1613    1.3267 C   0  0  0  0  0  0  0  0  0  0  0  0
    5.6473   -1.0765    0.2311 C   0  0  0  0  0  0  0  0  0  0  0  0
   -4.8776    0.7061    0.3912 C   0  0  0  0  0  0  0  0  0  0  0  0
   -3.4857   -1.1602   -0.2547 C   0  0  0  0  0  0  0  0  0  0  0  0
   -6.0173   -0.0400    0.0907 C   0  0  0  0  0  0  0  0  0  0  0  0
   -4.6252   -1.9061   -0.5552 C   0  0  0  0  0  0  0  0  0  0  0  0
   -5.8910   -1.3462   -0.3827 C   0  0  0  0  0  0  0  0  0  0  0  0
    7.6595   -1.6212   -0.9136 C   0  0  0  0  0  0  0  0  0  0  0  0
   -0.7010    2.1885    1.6070 H   0  0  0  0  0  0  0  0  0  0  0  0
    1.5320    1.7201    2.1075 H   0  0  0  0  0  0  0  0  0  0  0  0
    0.9759    0.0470    1.7963 H   0  0  0  0  0  0  0  0  0  0  0  0
    0.3837    3.4819   -0.0461 H   0  0  0  0  0  0  0  0  0  0  0  0
   -0.5384    2.4373   -1.1695 H   0  0  0  0  0  0  0  0  0  0  0  0
   -2.6540    1.8360    0.8514 H   0  0  0  0  0  0  0  0  0  0  0  0
    3.8814    0.9849   -1.7627 H   0  0  0  0  0  0  0  0  0  0  0  0
    2.9527   -0.5549    2.2014 H   0  0  0  0  0  0  0  0  0  0  0  0
    5.9182   -0.1867   -1.7537 H   0  0  0  0  0  0  0  0  0  0  0  0
    5.0571   -1.7655    2.1889 H   0  0  0  0  0  0  0  0  0  0  0  0
   -4.9689    1.7247    0.7610 H   0  0  0  0  0  0  0  0  0  0  0  0
   -2.5428   -1.6621   -0.4137 H   0  0  0  0  0  0  0  0  0  0  0  0
   -4.5097   -2.9229   -0.9229 H   0  0  0  0  0  0  0  0  0  0  0  0
    8.5554   -2.2253   -0.7365 H   0  0  0  0  0  0  0  0  0  0  0  0
    7.9934   -0.5873   -1.0520 H   0  0  0  0  0  0  0  0  0  0  0  0
    7.1742   -2.0243   -1.8090 H   0  0  0  0  0  0  0  0  0  0  0  0
  1 22  1  0  0  0  0
  2 24  1  0  0  0  0
  3 11  2  0  0  0  0
  4 12  2  0  0  0  0
  5 19  1  0  0  0  0
  5 25  1  0  0  0  0
  6  9  1  0  0  0  0
  6 11  1  0  0  0  0
  6 13  1  0  0  0  0
  7 12  1  0  0  0  0
  7 16  1  0  0  0  0
  7 31  1  0  0  0  0
  8  9  1  0  0  0  0
  8 10  1  0  0  0  0
  8 12  1  0  0  0  0
  8 26  1  0  0  0  0
  9 27  1  0  0  0  0
  9 28  1  0  0  0  0
 10 11  1  0  0  0  0
 10 29  1  0  0  0  0
 10 30  1  0  0  0  0
 13 14  2  0  0  0  0
 13 15  1  0  0  0  0
 14 17  1  0  0  0  0
 14 32  1  0  0  0  0
 15 18  2  0  0  0  0
 15 33  1  0  0  0  0
 16 20  2  0  0  0  0
 16 21  1  0  0  0  0
 17 19  2  0  0  0  0
 17 34  1  0  0  0  0
 18 19  1  0  0  0  0
 18 35  1  0  0  0  0
 20 22  1  0  0  0  0
 20 36  1  0  0  0  0
 21 23  2  0  0  0  0
 21 37  1  0  0  0  0
 22 24  2  0  0  0  0
 23 24  1  0  0  0  0
 23 38  1  0  0  0  0
 25 39  1  0  0  0  0
 25 40  1  0  0  0  0
 25 41  1  0  0  0  0
M  END
> <PUBCHEM_COMPOUND_CID>
586134

> <PUBCHEM_CONFORMER_RMSD>
0.8

> <PUBCHEM_CONFORMER_DIVERSEORDER>
24
35
50
13
14
37
66
55
10
73
26
52
65
49
21
70
19
34
53
61
5
64
23
72
11
58
41
32
39
57
22
7
38
8
54
42
44
56
36
18
33
67
31
9
17
60
63
40
74
12
30
20
51
68
59
4
62
1
71
45
43
6
25
2
28
3
47
15
29
27
16
48
46
69

> <PUBCHEM_MMFF94_PARTIAL_CHARGES>
33
1 -0.18
10 0.06
11 0.57
12 0.57
13 0.12
14 -0.15
15 -0.15
16 0.12
17 -0.15
18 -0.15
19 0.08
2 -0.18
20 -0.15
21 -0.15
22 0.18
23 -0.15
24 0.18
25 0.28
3 -0.57
31 0.37
32 0.15
33 0.15
34 0.15
35 0.15
36 0.15
37 0.15
38 0.15
4 -0.57
5 -0.36
6 -0.48
7 -0.55
8 0.06
9 0.3

> <PUBCHEM_EFFECTIVE_ROTOR_COUNT>
5.8

> <PUBCHEM_PHARMACOPHORE_FEATURES>
7
1 3 acceptor
1 4 acceptor
1 5 acceptor
1 7 donor
5 6 8 9 10 11 rings
6 13 14 15 17 18 19 rings
6 16 20 21 22 23 24 rings

> <PUBCHEM_HEAVY_ATOM_COUNT>
25

> <PUBCHEM_ATOM_DEF_STEREO_COUNT>
0

> <PUBCHEM_ATOM_UDEF_STEREO_COUNT>
1

> <PUBCHEM_BOND_DEF_STEREO_COUNT>
0

> <PUBCHEM_BOND_UDEF_STEREO_COUNT>
0

> <PUBCHEM_ISOTOPIC_ATOM_COUNT>
0

> <PUBCHEM_COMPONENT_COUNT>
1

> <PUBCHEM_CACTVS_TAUTO_COUNT>
4

> <PUBCHEM_CONFORMER_ID>
0008F19600000018

> <PUBCHEM_MMFF94_ENERGY>
84.9539

> <PUBCHEM_FEATURE_SELFOVERLAP>
35.52

> <PUBCHEM_SHAPE_FINGERPRINT>
10 15 14996290223481971202
10299344 5 18342736329958392219
10622 236 17415019107893198482
10693767 8 18059864999514457514
10753850 27 18273219720445961242
11524674 6 16732987518388351423
11796584 16 18260824865393784095
11963148 33 18335990834596955222
12166972 35 18410573955472360849
12236239 1 18410292484990700633
12516196 113 18113902641417794976
12592606 108 18410577271640605471
12730499 353 14189577450728614960
12895836 83 12679171696497291184
12895837 130 11022949852873713498
13533116 47 18339079294223880632
13540713 4 16556754397127020784
13668630 136 18410856559661284959
13685833 64 18260550008729568091
13782708 43 17605559852055752447
13862211 1 18408040706229826187
14068700 675 18410008858256869976
14251752 14 18272092729675759261
14347332 77 18201446899809279589
14420673 8 18335138679268242387
14556957 393 16915924331784347356
15183329 4 17917716803169521939
15188451 53 17894352172362597467
15348495 7 16298678178784977091
15510800 12 18041545997349969830
17134984 74 17560805390176118538
18222031 100 18343586248368032264
18643901 69 18336258059435536814
19377110 9 7637405125302464341
19784866 240 18409164407187259961
20028762 73 18334012809299830478
20554085 129 13110959783251278340
20567600 234 4750871572195888787
21267235 1 18410854348491417587
21304304 249 18186801366009074918
21403212 168 6194557763174995688
21424621 283 10087632694271614092
21637258 2 18410298025403443424
221357 26 17060625494479507765
22224240 67 5328737457336389324
22956985 138 17682385198894678446
23016692 55 18410854373881289538
23522609 53 18196622229559526269
23559900 14 18189061906524182625
2838139 119 11167929243903250026
3004659 81 18342459227078917448
335352 9 18409732872606605101
3383291 50 18261960644248660283
3411729 13 17532664421203820912
3472631 163 10375858693878297978
351380 3 18411984667360490434
397830 11 16733846184802276067
4073 2 18056196864971633081
4340502 62 4823218324765004565
46194498 28 17131557132728220901
465052 167 17967531259939993204
5104073 3 17823130126248303041
53794403 172 10663230321089332662
543368 44 10519990366223232307
559249 180 18333733512213838839
5718773 13 17895764981008047815
5937810 71 14117525380662403271
6138700 20 18408884057465977135
636775 72 10663521696223954510
6438161 24 18337398149698183591
960060 61 17846495911668251844

> <PUBCHEM_SHAPE_MULTIPOLES>
490.66
21.21
2.27
1.18
6
0
-0.06
15.26
-2.24
0.49
-0.56
-1.33
-0.22
-1.35

> <PUBCHEM_SHAPE_SELFOVERLAP>
1041.865

> <PUBCHEM_SHAPE_VOLUME>
277.1

> <PUBCHEM_COORDINATE_TYPE>
2
5
10

$$$$

