10832
  -OEChem-06261205013D

 23 24  0     0  0  0  0  0  0999 V2000
   -0.2547   -1.1914    0.1639 N   0  0  0  0  0  0  0  0  0  0  0  0
    1.2535    0.5851   -0.0943 N   0  0  0  0  0  0  0  0  0  0  0  0
    2.0427   -1.6621    0.1975 N   0  0  0  0  0  0  0  0  0  0  0  0
    3.6103    0.1355   -0.0650 N   0  0  0  0  0  0  0  0  0  0  0  0
    2.8086    2.3213   -0.3489 N   0  0  0  0  0  0  0  0  0  0  0  0
   -1.4977   -0.5289    0.0902 C   0  0  0  0  0  0  0  0  0  0  0  0
   -2.6137   -1.1948   -0.4167 C   0  0  0  0  0  0  0  0  0  0  0  0
   -1.6113    0.7915    0.5248 C   0  0  0  0  0  0  0  0  0  0  0  0
    1.0754   -0.7351    0.0857 C   0  0  0  0  0  0  0  0  0  0  0  0
   -3.8433   -0.5401   -0.4888 C   0  0  0  0  0  0  0  0  0  0  0  0
   -2.8408    1.4461    0.4527 C   0  0  0  0  0  0  0  0  0  0  0  0
   -3.9569    0.7803   -0.0541 C   0  0  0  0  0  0  0  0  0  0  0  0
    2.5449    0.9472   -0.1598 C   0  0  0  0  0  0  0  0  0  0  0  0
    3.2829   -1.1546    0.1129 C   0  0  0  0  0  0  0  0  0  0  0  0
   -0.3201   -2.2049    0.1628 H   0  0  0  0  0  0  0  0  0  0  0  0
   -2.5383   -2.2237   -0.7592 H   0  0  0  0  0  0  0  0  0  0  0  0
   -0.7810    1.3333    0.9654 H   0  0  0  0  0  0  0  0  0  0  0  0
   -4.7124   -1.0586   -0.8831 H   0  0  0  0  0  0  0  0  0  0  0  0
   -2.9323    2.4711    0.8003 H   0  0  0  0  0  0  0  0  0  0  0  0
   -4.9147    1.2893   -0.1080 H   0  0  0  0  0  0  0  0  0  0  0  0
    4.1026   -1.8572    0.1964 H   0  0  0  0  0  0  0  0  0  0  0  0
    2.0368    2.9693   -0.4253 H   0  0  0  0  0  0  0  0  0  0  0  0
    3.7658    2.6409   -0.4043 H   0  0  0  0  0  0  0  0  0  0  0  0
  1  6  1  0  0  0  0
  1  9  1  0  0  0  0
  1 15  1  0  0  0  0
  2  9  1  0  0  0  0
  2 13  2  0  0  0  0
  3  9  2  0  0  0  0
  3 14  1  0  0  0  0
  4 13  1  0  0  0  0
  4 14  2  0  0  0  0
  5 13  1  0  0  0  0
  5 22  1  0  0  0  0
  5 23  1  0  0  0  0
  6  7  2  0  0  0  0
  6  8  1  0  0  0  0
  7 10  1  0  0  0  0
  7 16  1  0  0  0  0
  8 11  2  0  0  0  0
  8 17  1  0  0  0  0
 10 12  2  0  0  0  0
 10 18  1  0  0  0  0
 11 12  1  0  0  0  0
 11 19  1  0  0  0  0
 12 20  1  0  0  0  0
 14 21  1  0  0  0  0
M  END
> <PUBCHEM_COMPOUND_CID>
10832

> <PUBCHEM_CONFORMER_RMSD>
0.6

> <PUBCHEM_CONFORMER_DIVERSEORDER>
1
4
6
5
2
3

> <PUBCHEM_MMFF94_PARTIAL_CHARGES>
23
1 -0.6
10 -0.15
11 -0.15
12 -0.15
13 0.72
14 0.47
15 0.4
16 0.15
17 0.15
18 0.15
19 0.15
2 -0.62
20 0.15
21 0.15
22 0.4
23 0.4
3 -0.62
4 -0.62
5 -0.9
6 0.1
7 -0.15
8 -0.15
9 0.72

> <PUBCHEM_EFFECTIVE_ROTOR_COUNT>
2

> <PUBCHEM_PHARMACOPHORE_FEATURES>
6
1 1 donor
1 5 donor
4 1 2 3 9 cation
4 2 4 5 13 cation
6 2 3 4 9 13 14 rings
6 6 7 8 10 11 12 rings

> <PUBCHEM_HEAVY_ATOM_COUNT>
14

> <PUBCHEM_ATOM_DEF_STEREO_COUNT>
0

> <PUBCHEM_ATOM_UDEF_STEREO_COUNT>
0

> <PUBCHEM_BOND_DEF_STEREO_COUNT>
0

> <PUBCHEM_BOND_UDEF_STEREO_COUNT>
0

> <PUBCHEM_ISOTOPIC_ATOM_COUNT>
0

> <PUBCHEM_COMPONENT_COUNT>
1

> <PUBCHEM_CACTVS_TAUTO_COUNT>
9

> <PUBCHEM_CONFORMER_ID>
00002A5000000001

> <PUBCHEM_MMFF94_ENERGY>
49.4864

> <PUBCHEM_FEATURE_SELFOVERLAP>
30.489

> <PUBCHEM_SHAPE_FINGERPRINT>
10608611 8 18413390929794785901
11471102 20 18341615940568293998
12162725 195 18409166618873669715
12932764 1 17346607399575346235
14144814 61 18410855494572458755
14250199 8 18411697681792922501
14325111 11 18410292514659624867
14415576 193 18409727352819158334
14897335 6 18410295778797898530
15442244 35 18193556898614702050
15536298 74 18334858316255057504
15669948 3 17968384455098606191
15775835 57 18410288125171568749
17802600 8 18412552028050217284
18186145 218 18272936046050596183
200 152 18260556623380052519
20645477 70 18410577326747440063
21267235 1 18409158922524741151
22096605 113 18339643347608869984
22485316 2 9151173142993829319
2255824 54 18272088314301744394
22854114 111 18412824685537995688
23402539 116 18113628901376133615
23402655 69 18409167744186964349
23463225 33 18409730694108516103
23559900 14 18187933914772899194
25610 137 18338794490826434883
3082319 5 18335140877721305063
474 4 17988078872846831740
5104073 3 18410293614150304003
7364860 26 18334576854379533090
74978 22 18412822490815235514
93112 12 18409448089608329591
9709674 26 18408599266753603527
9981440 41 17836091070174160648

> <PUBCHEM_SHAPE_MULTIPOLES>
263.21
7.5
1.81
0.67
0.71
0.5
0
0.88
0.61
-0.81
0.06
0.17
0.03
-0.64

> <PUBCHEM_SHAPE_SELFOVERLAP>
563.26

> <PUBCHEM_SHAPE_VOLUME>
136

> <PUBCHEM_COORDINATE_TYPE>
2
5
10

$$$$

