443871
  -OEChem-07051213033D

 50 51  0     1  0  0  0  0  0999 V2000
   -0.7548   -1.7434    1.2243 O   0  0  0  0  0  0  0  0  0  0  0  0
    1.6633   -3.7408   -0.4200 O   0  0  0  0  0  0  0  0  0  0  0  0
    3.4233   -3.1094    0.8505 O   0  0  0  0  0  0  0  0  0  0  0  0
    0.6378   -1.3436   -0.5978 N   0  0  0  0  0  0  0  0  0  0  0  0
   -2.9419    0.5847    0.1294 C   0  0  2  0  0  0  0  0  0  0  0  0
   -2.1510    0.0563   -1.0774 C   0  0  0  0  0  0  0  0  0  0  0  0
   -1.7350   -1.4095   -0.9288 C   0  0  2  0  0  0  0  0  0  0  0  0
   -4.1358   -0.3249    0.4396 C   0  0  0  0  0  0  0  0  0  0  0  0
   -2.8944   -2.3140   -0.5090 C   0  0  0  0  0  0  0  0  0  0  0  0
   -3.6947   -1.7661    0.6712 C   0  0  0  0  0  0  0  0  0  0  0  0
   -3.4088    2.0183   -0.1210 C   0  0  0  0  0  0  0  0  0  0  0  0
   -0.5836   -1.5275    0.0274 C   0  0  0  0  0  0  0  0  0  0  0  0
   -2.2224    2.9156   -0.4643 C   0  0  0  0  0  0  0  0  0  0  0  0
   -4.1573    2.5578    1.0951 C   0  0  0  0  0  0  0  0  0  0  0  0
    1.8997   -1.3849    0.1050 C   0  0  2  0  0  0  0  0  0  0  0  0
    2.9516   -0.5044   -0.5819 C   0  0  0  0  0  0  0  0  0  0  0  0
    2.4131   -2.8126    0.2212 C   0  0  0  0  0  0  0  0  0  0  0  0
    2.7757    0.9651   -0.2833 C   0  0  0  0  0  0  0  0  0  0  0  0
    1.9761    1.7358   -1.1124 C   0  0  0  0  0  0  0  0  0  0  0  0
    3.4172    1.5167    0.8143 C   0  0  0  0  0  0  0  0  0  0  0  0
    1.8139    3.0936   -0.8367 C   0  0  0  0  0  0  0  0  0  0  0  0
    3.2549    2.8744    1.0901 C   0  0  0  0  0  0  0  0  0  0  0  0
    2.4533    3.6628    0.2644 C   0  0  0  0  0  0  0  0  0  0  0  0
   -2.2758    0.5810    1.0034 H   0  0  0  0  0  0  0  0  0  0  0  0
   -1.2483    0.6535   -1.2439 H   0  0  0  0  0  0  0  0  0  0  0  0
   -2.7663    0.1525   -1.9818 H   0  0  0  0  0  0  0  0  0  0  0  0
   -1.3911   -1.7673   -1.9092 H   0  0  0  0  0  0  0  0  0  0  0  0
   -4.6613   -0.0007    1.3434 H   0  0  0  0  0  0  0  0  0  0  0  0
   -4.8598   -0.2930   -0.3845 H   0  0  0  0  0  0  0  0  0  0  0  0
   -3.5745   -2.4274   -1.3635 H   0  0  0  0  0  0  0  0  0  0  0  0
   -2.5310   -3.3198   -0.2647 H   0  0  0  0  0  0  0  0  0  0  0  0
   -3.1218   -1.8314    1.6015 H   0  0  0  0  0  0  0  0  0  0  0  0
   -4.5820   -2.3933    0.8202 H   0  0  0  0  0  0  0  0  0  0  0  0
   -4.0998    2.0419   -0.9741 H   0  0  0  0  0  0  0  0  0  0  0  0
   -1.4151    2.8155    0.2693 H   0  0  0  0  0  0  0  0  0  0  0  0
   -2.5262    3.9686   -0.4780 H   0  0  0  0  0  0  0  0  0  0  0  0
   -1.8209    2.7035   -1.4597 H   0  0  0  0  0  0  0  0  0  0  0  0
   -5.1335    2.0806    1.2214 H   0  0  0  0  0  0  0  0  0  0  0  0
   -4.3545    3.6300    0.9821 H   0  0  0  0  0  0  0  0  0  0  0  0
   -3.5802    2.4239    2.0164 H   0  0  0  0  0  0  0  0  0  0  0  0
    0.6635   -1.2265   -1.6067 H   0  0  0  0  0  0  0  0  0  0  0  0
    1.7185   -1.0488    1.1341 H   0  0  0  0  0  0  0  0  0  0  0  0
    3.9625   -0.7966   -0.2663 H   0  0  0  0  0  0  0  0  0  0  0  0
    2.9412   -0.6647   -1.6689 H   0  0  0  0  0  0  0  0  0  0  0  0
    1.4734    1.3027   -1.9723 H   0  0  0  0  0  0  0  0  0  0  0  0
    4.0413    0.9104    1.4645 H   0  0  0  0  0  0  0  0  0  0  0  0
    2.0296   -4.6447   -0.3148 H   0  0  0  0  0  0  0  0  0  0  0  0
    1.1884    3.7070   -1.4787 H   0  0  0  0  0  0  0  0  0  0  0  0
    3.7519    3.3176    1.9480 H   0  0  0  0  0  0  0  0  0  0  0  0
    2.3262    4.7198    0.4796 H   0  0  0  0  0  0  0  0  0  0  0  0
  1 12  2  0  0  0  0
  2 17  1  0  0  0  0
  2 47  1  0  0  0  0
  3 17  2  0  0  0  0
  4 12  1  0  0  0  0
  4 15  1  0  0  0  0
  4 41  1  0  0  0  0
  5  6  1  0  0  0  0
  5  8  1  0  0  0  0
  5 11  1  0  0  0  0
  5 24  1  0  0  0  0
  6  7  1  0  0  0  0
  6 25  1  0  0  0  0
  6 26  1  0  0  0  0
  7  9  1  0  0  0  0
  7 12  1  0  0  0  0
  7 27  1  0  0  0  0
  8 10  1  0  0  0  0
  8 28  1  0  0  0  0
  8 29  1  0  0  0  0
  9 10  1  0  0  0  0
  9 30  1  0  0  0  0
  9 31  1  0  0  0  0
 10 32  1  0  0  0  0
 10 33  1  0  0  0  0
 11 13  1  0  0  0  0
 11 14  1  0  0  0  0
 11 34  1  0  0  0  0
 13 35  1  0  0  0  0
 13 36  1  0  0  0  0
 13 37  1  0  0  0  0
 14 38  1  0  0  0  0
 14 39  1  0  0  0  0
 14 40  1  0  0  0  0
 15 16  1  0  0  0  0
 15 17  1  0  0  0  0
 15 42  1  0  0  0  0
 16 18  1  0  0  0  0
 16 43  1  0  0  0  0
 16 44  1  0  0  0  0
 18 19  2  0  0  0  0
 18 20  1  0  0  0  0
 19 21  1  0  0  0  0
 19 45  1  0  0  0  0
 20 22  2  0  0  0  0
 20 46  1  0  0  0  0
 21 23  2  0  0  0  0
 21 48  1  0  0  0  0
 22 23  1  0  0  0  0
 22 49  1  0  0  0  0
 23 50  1  0  0  0  0
M  END
> <PUBCHEM_COMPOUND_CID>
443871

> <PUBCHEM_CONFORMER_RMSD>
0.8

> <PUBCHEM_CONFORMER_DIVERSEORDER>
1
164
162
222
201
190
27
176
31
18
88
153
103
192
209
184
28
20
77
43
123
61
95
106
214
120
180
127
170
45
134
138
220
213
113
44
183
41
137
115
91
188
119
66
117
68
196
52
16
38
194
140
111
84
125
182
78
171
105
150
197
62
172
166
97
130
178
104
221
160
86
10
87
99
158
85
96
55
165
17
36
118
37
65
181
217
124
35
142
215
126
23
19
64
148
110
168
29
11
177
79
40
60
203
42
3
146
191
9
139
211
152
32
76
144
129
81
73
157
136
210
98
116
89
216
51
200
59
25
26
185
145
30
179
121
74
205
54
128
12
175
132
39
100
193
101
199
4
69
34
50
218
163
90
202
21
24
67
149
2
204
48
47
8
109
53
33
141
82
15
70
107
173
102
112
63
114
155
189
208
187
212
195
22
207
147
154
71
6
94
174
169
7
58
206
46
159
14
131
5
93
56
143
161
57
122
198
83
108
167
186
72
133
92
49
13
80
151
156
219
135
75

> <PUBCHEM_MMFF94_PARTIAL_CHARGES>
22
1 -0.57
12 0.57
15 0.36
16 0.14
17 0.66
18 -0.14
19 -0.15
2 -0.65
20 -0.15
21 -0.15
22 -0.15
23 -0.15
3 -0.57
4 -0.73
41 0.37
45 0.15
46 0.15
47 0.5
48 0.15
49 0.15
50 0.15
7 0.06

> <PUBCHEM_EFFECTIVE_ROTOR_COUNT>
8.2

> <PUBCHEM_PHARMACOPHORE_FEATURES>
8
1 1 acceptor
1 2 acceptor
1 3 acceptor
1 4 donor
3 11 13 14 hydrophobe
3 2 3 17 anion
6 18 19 20 21 22 23 rings
6 5 6 7 8 9 10 rings

> <PUBCHEM_HEAVY_ATOM_COUNT>
23

> <PUBCHEM_ATOM_DEF_STEREO_COUNT>
3

> <PUBCHEM_ATOM_UDEF_STEREO_COUNT>
0

> <PUBCHEM_BOND_DEF_STEREO_COUNT>
0

> <PUBCHEM_BOND_UDEF_STEREO_COUNT>
0

> <PUBCHEM_ISOTOPIC_ATOM_COUNT>
0

> <PUBCHEM_COMPONENT_COUNT>
1

> <PUBCHEM_CACTVS_TAUTO_COUNT>
2

> <PUBCHEM_CONFORMER_ID>
0006C5DF00000001

> <PUBCHEM_MMFF94_ENERGY>
48.1552

> <PUBCHEM_FEATURE_SELFOVERLAP>
40.655

> <PUBCHEM_SHAPE_FINGERPRINT>
10670039 82 18125149434379583572
1100329 8 18050851323021518585
11725454 13 16664028176398016104
12403260 363 18194415402648122702
12422481 6 18051727552901409600
12633257 1 18122618624831219381
12788726 201 16684850590060460694
13122387 1 18410576235825863601
13140716 1 18339926046756774427
14178342 30 18339369577967486252
14223421 5 18413107247405208949
14251757 5 17617924168977981750
14790565 3 18341048515892615684
14866123 147 15673513906005191379
15420108 30 18116175358154870858
19930381 70 18123751954904617265
20567600 299 18335424616282943904
2132832 1 18118437052998297487
21524375 3 17973160622061821502
21864079 5 18260550017540938237
22749437 52 18338805511306750309
23558518 356 18413671305687318739
23559900 14 18411423942448327491
350125 39 18410848832993643693
469060 322 18051680058847445849
474 4 18196937673368335478
5081480 168 17026525339692372668
6287921 2 18340197484305126943
7097593 13 18340485668115647407
7808743 9 17402046700336636700
7832392 63 18337391646721766462
84936 182 18262238816009248824
9981440 41 18123761854603788162

> <PUBCHEM_SHAPE_MULTIPOLES>
450.74
8.01
5.15
1.09
2.9
0.08
0.03
-2.95
1.75
-2.72
0.5
-0.04
-0.22
-0.35

> <PUBCHEM_SHAPE_SELFOVERLAP>
928.201

> <PUBCHEM_SHAPE_VOLUME>
256.3

> <PUBCHEM_COORDINATE_TYPE>
2
5
10

$$$$

