3036654
  -OEChem-07051212483D

 34 34  0     1  0  0  0  0  0999 V2000
    1.9605    2.6219   -0.3942 P   0  0  0  0  0  0  0  0  0  0  0  0
   -3.9167    0.4660    0.1427 P   0  0  0  0  0  0  0  0  0  0  0  0
    0.2697   -0.0111    0.7291 O   0  0  0  0  0  0  0  0  0  0  0  0
   -0.0038   -2.9013   -1.5201 O   0  0  0  0  0  0  0  0  0  0  0  0
    2.6283   -3.2603   -0.3178 O   0  0  0  0  0  0  0  0  0  0  0  0
    2.0223    1.0107   -0.5022 O   0  0  0  0  0  0  0  0  0  0  0  0
    2.2813   -1.6784    1.9262 O   0  0  0  0  0  0  0  0  0  0  0  0
   -2.3178    0.3342   -0.0796 O   0  0  0  0  0  0  0  0  0  0  0  0
    2.8635    2.9561    0.9051 O   0  0  0  0  0  0  0  0  0  0  0  0
    0.4516    2.8861    0.1236 O   0  0  0  0  0  0  0  0  0  0  0  0
    2.3394    3.3586   -1.6456 O   0  0  0  0  0  0  0  0  0  0  0  0
   -4.1901   -0.3978    1.4821 O   0  0  0  0  0  0  0  0  0  0  0  0
   -4.5237   -0.4659   -1.0312 O   0  0  0  0  0  0  0  0  0  0  0  0
   -4.4385    1.8729    0.1688 O   0  0  0  0  0  0  0  0  0  0  0  0
    0.4523   -2.1865   -0.3746 C   0  0  1  0  0  0  0  0  0  0  0  0
    1.9691   -2.0044   -0.4548 C   0  0  1  0  0  0  0  0  0  0  0  0
   -0.2410   -0.8187   -0.3348 C   0  0  1  0  0  0  0  0  0  0  0  0
    2.4624   -1.0661    0.6481 C   0  0  1  0  0  0  0  0  0  0  0  0
    1.6762    0.2438    0.6461 C   0  0  2  0  0  0  0  0  0  0  0  0
   -1.7448   -0.9599   -0.1168 C   0  0  0  0  0  0  0  0  0  0  0  0
    0.2016   -2.7812    0.5127 H   0  0  0  0  0  0  0  0  0  0  0  0
    2.2448   -1.6095   -1.4396 H   0  0  0  0  0  0  0  0  0  0  0  0
   -0.0904   -0.2809   -1.2805 H   0  0  0  0  0  0  0  0  0  0  0  0
    3.5344   -0.8743    0.5230 H   0  0  0  0  0  0  0  0  0  0  0  0
    1.9315    0.7990    1.5546 H   0  0  0  0  0  0  0  0  0  0  0  0
   -1.9411   -1.4568    0.8391 H   0  0  0  0  0  0  0  0  0  0  0  0
   -2.2076   -1.5356   -0.9229 H   0  0  0  0  0  0  0  0  0  0  0  0
   -0.9035   -3.2184   -1.3345 H   0  0  0  0  0  0  0  0  0  0  0  0
    2.2806   -3.7015    0.4754 H   0  0  0  0  0  0  0  0  0  0  0  0
    2.8851   -2.4388    1.9736 H   0  0  0  0  0  0  0  0  0  0  0  0
    3.0279    3.8941    1.1403 H   0  0  0  0  0  0  0  0  0  0  0  0
    0.1253    3.8092    0.1845 H   0  0  0  0  0  0  0  0  0  0  0  0
   -5.0942   -0.4103    1.8624 H   0  0  0  0  0  0  0  0  0  0  0  0
   -5.4947   -0.4824   -1.1697 H   0  0  0  0  0  0  0  0  0  0  0  0
  1  6  1  0  0  0  0
  1  9  1  0  0  0  0
  1 10  1  0  0  0  0
  1 11  2  0  0  0  0
  2  8  1  0  0  0  0
  2 12  1  0  0  0  0
  2 13  1  0  0  0  0
  2 14  2  0  0  0  0
  3 17  1  0  0  0  0
  3 19  1  0  0  0  0
  4 15  1  0  0  0  0
  4 28  1  0  0  0  0
  5 16  1  0  0  0  0
  5 29  1  0  0  0  0
  6 19  1  0  0  0  0
  7 18  1  0  0  0  0
  7 30  1  0  0  0  0
  8 20  1  0  0  0  0
  9 31  1  0  0  0  0
 10 32  1  0  0  0  0
 12 33  1  0  0  0  0
 13 34  1  0  0  0  0
 15 16  1  0  0  0  0
 15 17  1  0  0  0  0
 15 21  1  0  0  0  0
 16 18  1  0  0  0  0
 16 22  1  0  0  0  0
 17 20  1  0  0  0  0
 17 23  1  0  0  0  0
 18 19  1  0  0  0  0
 18 24  1  0  0  0  0
 19 25  1  0  0  0  0
 20 26  1  0  0  0  0
 20 27  1  0  0  0  0
M  END
> <PUBCHEM_COMPOUND_CID>
3036654

> <PUBCHEM_CONFORMER_RMSD>
0.8

> <PUBCHEM_CONFORMER_DIVERSEORDER>
1
22
23
25
9
19
27
20
11
29
8
17
3
12
4
26
16
10
28
14
6
2
24
13
15
7
18
5
21

> <PUBCHEM_MMFF94_PARTIAL_CHARGES>
27
1 1.51
10 -0.77
11 -0.7
12 -0.77
13 -0.77
14 -0.7
15 0.28
16 0.28
17 0.28
18 0.28
19 0.56
2 1.51
20 0.28
28 0.4
29 0.4
3 -0.56
30 0.4
31 0.5
32 0.5
33 0.5
34 0.5
4 -0.68
5 -0.68
6 -0.55
7 -0.68
8 -0.55
9 -0.77

> <PUBCHEM_EFFECTIVE_ROTOR_COUNT>
6.2

> <PUBCHEM_PHARMACOPHORE_FEATURES>
16
1 10 acceptor
1 11 acceptor
1 12 acceptor
1 13 acceptor
1 14 acceptor
1 3 acceptor
1 4 acceptor
1 4 donor
1 5 acceptor
1 5 donor
1 7 acceptor
1 7 donor
1 9 acceptor
4 1 9 10 11 anion
4 2 12 13 14 anion
6 3 15 16 17 18 19 rings

> <PUBCHEM_HEAVY_ATOM_COUNT>
20

> <PUBCHEM_ATOM_DEF_STEREO_COUNT>
5

> <PUBCHEM_ATOM_UDEF_STEREO_COUNT>
0

> <PUBCHEM_BOND_DEF_STEREO_COUNT>
0

> <PUBCHEM_BOND_UDEF_STEREO_COUNT>
0

> <PUBCHEM_ISOTOPIC_ATOM_COUNT>
0

> <PUBCHEM_COMPONENT_COUNT>
1

> <PUBCHEM_CACTVS_TAUTO_COUNT>
1

> <PUBCHEM_CONFORMER_ID>
002E55EE00000001

> <PUBCHEM_MMFF94_ENERGY>
-21.9158

> <PUBCHEM_FEATURE_SELFOVERLAP>
81.28

> <PUBCHEM_SHAPE_FINGERPRINT>
10382601 240 18130516244960157128
10980938 120 18339079289786215585
116883 192 17904198487825578197
12173636 292 17832144918272058404
13134695 92 18269558414859881654
13583140 156 17775014500715964763
14123255 52 18192151494936813537
1601671 61 18337672022508524522
17134986 127 18267861671123858932
17357779 13 17758129467507933013
20339313 130 18339357590613029771
20645477 70 18412834581743896031
20671657 1 18334857190720392607
20739085 24 18117543248776318386
21524375 3 18053669074917770656
2255824 54 18408602586789495759
23558518 356 17765722321843700106
2748010 2 17975996563134081006
3060560 45 18334572451821881326
474 4 18058174920807931181
5939293 188 18339646753523223352
7364860 26 18409167701453497608
81228 2 17545027664478481953
81539 233 18200309896973918901
9971528 1 18190189072908066499

> <PUBCHEM_SHAPE_MULTIPOLES>
348.86
6.79
4.07
1.23
10.85
1.61
-0.12
2.02
-0.79
-4.59
1.2
-0.3
-0.14
-0.63

> <PUBCHEM_SHAPE_SELFOVERLAP>
672.868

> <PUBCHEM_SHAPE_VOLUME>
212.3

> <PUBCHEM_COORDINATE_TYPE>
2
5
10

$$$$

