56928064
  -OEChem-07051212492D

 27 26  0     1  0  0  0  0  0999 V2000
    4.0981   -2.2806    0.0000 O   0  0  0  0  0  0  0  0  0  0  0  0
    5.5982   -1.4145    0.0000 O   0  0  0  0  0  0  0  0  0  0  0  0
    2.0000    1.8175    0.0000 O   0  0  0  0  0  0  0  0  0  0  0  0
    6.3301    0.3175    0.0000 O   0  0  0  0  0  0  0  0  0  0  0  0
    8.0622    1.3175    0.0000 O   0  0  0  0  0  0  0  0  0  0  0  0
    7.1962    2.8175    0.0000 O   0  0  0  0  0  0  0  0  0  0  0  0
    3.0980   -0.5484    0.0000 N   0  0  0  0  0  0  0  0  0  0  0  0
    4.5981    0.3175    0.0000 C   0  0  0  0  0  0  0  0  0  0  0  0
    4.0980   -0.5485    0.0000 C   0  0  1  0  0  0  0  0  0  0  0  0
    4.5981    1.3175    0.0000 C   0  0  0  0  0  0  0  0  0  0  0  0
    4.5981   -1.4145    0.0000 C   0  0  0  0  0  0  0  0  0  0  0  0
    5.4641    1.8175    0.0000 C   0  0  0  0  0  0  0  0  0  0  0  0
    3.7320    1.8175    0.0000 C   0  0  0  0  0  0  0  0  0  0  0  0
    6.3301    1.3175    0.0000 C   0  0  0  0  0  0  0  0  0  0  0  0
    2.8660    1.3175    0.0000 C   0  0  0  0  0  0  0  0  0  0  0  0
    7.1962    1.8175    0.0000 C   0  0  0  0  0  0  0  0  0  0  0  0
    4.9966   -0.1574    0.0000 H   0  0  0  0  0  0  0  0  0  0  0  0
    3.9992    0.4780    0.0000 H   0  0  0  0  0  0  0  0  0  0  0  0
    3.7880   -1.0854    0.0000 H   0  0  0  0  0  0  0  0  0  0  0  0
    2.7880   -1.0854    0.0000 H   0  0  0  0  0  0  0  0  0  0  0  0
    2.7881   -0.0116    0.0000 H   0  0  0  0  0  0  0  0  0  0  0  0
    5.4641    2.4375    0.0000 H   0  0  0  0  0  0  0  0  0  0  0  0
    3.7320    2.4375    0.0000 H   0  0  0  0  0  0  0  0  0  0  0  0
    2.5561    0.7805    0.0000 H   0  0  0  0  0  0  0  0  0  0  0  0
    4.4081   -2.8175    0.0000 H   0  0  0  0  0  0  0  0  0  0  0  0
    2.0000    2.4375    0.0000 H   0  0  0  0  0  0  0  0  0  0  0  0
    8.5991    1.6275    0.0000 H   0  0  0  0  0  0  0  0  0  0  0  0
  1 11  1  0  0  0  0
  1 25  1  0  0  0  0
  2 11  2  0  0  0  0
  3 15  1  0  0  0  0
  3 26  1  0  0  0  0
  4 14  2  0  0  0  0
  5 16  1  0  0  0  0
  5 27  1  0  0  0  0
  6 16  2  0  0  0  0
  9  7  1  1  0  0  0
  7 20  1  0  0  0  0
  7 21  1  0  0  0  0
  8  9  1  0  0  0  0
  8 10  1  0  0  0  0
  8 17  1  0  0  0  0
  8 18  1  0  0  0  0
  9 11  1  0  0  0  0
  9 19  1  0  0  0  0
 10 12  2  0  0  0  0
 10 13  1  0  0  0  0
 12 14  1  0  0  0  0
 12 22  1  0  0  0  0
 13 15  2  0  0  0  0
 13 23  1  0  0  0  0
 14 16  1  0  0  0  0
 15 24  1  0  0  0  0
M  END
> <PUBCHEM_COMPOUND_CID>
56928064

> <PUBCHEM_COMPOUND_CANONICALIZED>
1

> <PUBCHEM_CACTVS_COMPLEXITY>
357

> <PUBCHEM_CACTVS_HBOND_ACCEPTOR>
7

> <PUBCHEM_CACTVS_HBOND_DONOR>
4

> <PUBCHEM_CACTVS_ROTATABLE_BOND>
6

> <PUBCHEM_CACTVS_SUBSKEYS>
AAADccByOAAAAAAAAAAAAAAAAAAAAAAAAAAAAAAAAAAAAAAAAAAAHgAQCAAADCzhgAYACABAAgCIAqDSCAIAAAAgIAAICIHAAEgKEBIAgQAAQAAE0AAIgQKIAAAAAAAAAAAAAAAAAAAAAAAAAAAAAAAAAA==

> <PUBCHEM_IUPAC_OPENEYE_NAME>
(E,6S)-6-amino-4-[(E)-2-hydroxyvinyl]-2-oxo-hept-3-enedioic acid

> <PUBCHEM_IUPAC_CAS_NAME>
(E,6S)-6-amino-4-[(E)-2-hydroxyethenyl]-2-oxo-3-heptenedioic acid

> <PUBCHEM_IUPAC_NAME>
(E,6S)-6-amino-4-[(E)-2-hydroxyethenyl]-2-oxohept-3-enedioic acid

> <PUBCHEM_IUPAC_SYSTEMATIC_NAME>
(E,6S)-6-azanyl-4-[(E)-2-oxidanylethenyl]-2-oxidanylidene-hept-3-enedioic acid

> <PUBCHEM_IUPAC_TRADITIONAL_NAME>
(E,6S)-6-amino-4-[(E)-2-hydroxyvinyl]-2-keto-hept-3-enedioic acid

> <PUBCHEM_IUPAC_INCHI>
InChI=1S/C9H11NO6/c10-6(8(13)14)3-5(1-2-11)4-7(12)9(15)16/h1-2,4,6,11H,3,10H2,(H,13,14)(H,15,16)/b2-1+,5-4-/t6-/m0/s1

> <PUBCHEM_IUPAC_INCHIKEY>
PIYTUGMLAKPQKI-NQIZLHQKSA-N

> <PUBCHEM_XLOGP3_AA>
-2.9

> <PUBCHEM_EXACT_MASS>
229.058637

> <PUBCHEM_MOLECULAR_FORMULA>
C9H11NO6

> <PUBCHEM_MOLECULAR_WEIGHT>
229.18674

> <PUBCHEM_OPENEYE_CAN_SMILES>
C(C(C(=O)O)N)C(=CC(=O)C(=O)O)C=CO

> <PUBCHEM_OPENEYE_ISO_SMILES>
C([C@@H](C(=O)O)N)/C(=C\C(=O)C(=O)O)/C=C/O

> <PUBCHEM_CACTVS_TPSA>
138

> <PUBCHEM_MONOISOTOPIC_WEIGHT>
229.058637

> <PUBCHEM_TOTAL_CHARGE>
0

> <PUBCHEM_HEAVY_ATOM_COUNT>
16

> <PUBCHEM_ATOM_DEF_STEREO_COUNT>
1

> <PUBCHEM_ATOM_UDEF_STEREO_COUNT>
0

> <PUBCHEM_BOND_DEF_STEREO_COUNT>
2

> <PUBCHEM_BOND_UDEF_STEREO_COUNT>
0

> <PUBCHEM_ISOTOPIC_ATOM_COUNT>
0

> <PUBCHEM_COMPONENT_COUNT>
1

> <PUBCHEM_CACTVS_TAUTO_COUNT>
8

> <PUBCHEM_COORDINATE_TYPE>
1
5
255

> <PUBCHEM_BONDANNOTATIONS>
9  7  5

$$$$

