443146
  -OEChem-07051213013D

 83 88  0     1  0  0  0  0  0999 V2000
    3.4112   -1.3999   -0.7923 O   0  0  0  0  0  0  0  0  0  0  0  0
    3.4914   -1.4439    1.5211 O   0  0  0  0  0  0  0  0  0  0  0  0
   -8.8411   -0.3857    0.2607 O   0  0  0  0  0  0  0  0  0  0  0  0
   -5.6899    3.5090   -0.0330 O   0  0  0  0  0  0  0  0  0  0  0  0
   -8.4151    2.2378    1.4179 O   0  0  0  0  0  0  0  0  0  0  0  0
   -6.4986   -2.8549    1.1200 O   0  5  0  0  0  0  0  0  0  0  0  0
   -7.7856   -1.4530    2.3769 O   0  0  0  0  0  0  0  0  0  0  0  0
    9.1449    0.5421    0.1159 N   0  0  0  0  0  0  0  0  0  0  0  0
    5.4624   -1.5221    0.2913 N   0  0  0  0  0  0  0  0  0  0  0  0
   -4.3033    1.6716   -0.1736 N   0  0  0  0  0  0  0  0  0  0  0  0
   -2.1413   -1.1947   -0.3867 N   0  0  0  0  0  0  0  0  0  0  0  0
    8.1835   -0.5600    0.1385 C   0  0  0  0  0  0  0  0  0  0  0  0
    7.4008   -0.5480    1.4582 C   0  0  0  0  0  0  0  0  0  0  0  0
    7.2252   -0.4466   -1.0547 C   0  0  0  0  0  0  0  0  0  0  0  0
   10.0677    0.4426    1.2553 C   0  0  0  0  0  0  0  0  0  0  0  0
    9.8754    0.5611   -1.1592 C   0  0  0  0  0  0  0  0  0  0  0  0
    6.3269   -1.6343    1.4659 C   0  0  0  0  0  0  0  0  0  0  0  0
    6.1537   -1.5348   -1.0022 C   0  0  0  0  0  0  0  0  0  0  0  0
   11.0494    1.6152    1.2743 C   0  0  0  0  0  0  0  0  0  0  0  0
   10.8506    1.7378   -1.2192 C   0  0  0  0  0  0  0  0  0  0  0  0
   11.8158    1.7185   -0.0395 C   0  0  0  0  0  0  0  0  0  0  0  0
    4.0736   -1.4547    0.4372 C   0  0  0  0  0  0  0  0  0  0  0  0
   -2.0395    1.2323   -0.3445 C   0  0  0  0  0  0  0  0  0  0  0  0
   -3.0027    2.3694   -0.2514 C   0  0  0  0  0  0  0  0  0  0  0  0
   -4.1334    0.3003   -0.2127 C   0  0  0  0  0  0  0  0  0  0  0  0
   -2.7093    0.0175   -0.3211 C   0  0  0  0  0  0  0  0  0  0  0  0
   -0.6684    1.2228   -0.4435 C   0  0  0  0  0  0  0  0  0  0  0  0
   -6.5211    0.0129   -0.0449 C   0  0  0  0  0  0  0  0  0  0  0  0
   -0.0167   -0.0195   -0.5158 C   0  0  0  0  0  0  0  0  0  0  0  0
   -5.1736   -0.5325   -0.1534 C   0  0  0  0  0  0  0  0  0  0  0  0
   -7.5933   -1.0388    0.0354 C   0  0  2  0  0  0  0  0  0  0  0  0
   -6.7267    1.3509   -0.0134 C   0  0  0  0  0  0  0  0  0  0  0  0
   -5.5344    2.2897   -0.0740 C   0  0  0  0  0  0  0  0  0  0  0  0
   -0.7962   -1.2106   -0.4840 C   0  0  0  0  0  0  0  0  0  0  0  0
    2.0180   -1.3316   -0.6888 C   0  0  0  0  0  0  0  0  0  0  0  0
    0.0657    2.5230   -0.4695 C   0  0  0  0  0  0  0  0  0  0  0  0
    1.3813   -0.0955   -0.6181 C   0  0  0  0  0  0  0  0  0  0  0  0
   -7.6779   -1.8763   -1.2475 C   0  0  0  0  0  0  0  0  0  0  0  0
   -0.1287   -2.4289   -0.5567 C   0  0  0  0  0  0  0  0  0  0  0  0
    1.2629   -2.4976   -0.6583 C   0  0  0  0  0  0  0  0  0  0  0  0
   -8.0590    2.0408    0.0631 C   0  0  0  0  0  0  0  0  0  0  0  0
    0.4513    2.9979    0.9282 C   0  0  0  0  0  0  0  0  0  0  0  0
   -7.2621   -1.8613    1.3011 C   0  0  0  0  0  0  0  0  0  0  0  0
   -7.9938   -1.0679   -2.5029 C   0  0  0  0  0  0  0  0  0  0  0  0
    8.7135   -1.5209    0.0618 H   0  0  0  0  0  0  0  0  0  0  0  0
    8.0350   -0.7526    2.3255 H   0  0  0  0  0  0  0  0  0  0  0  0
    6.9267    0.4307    1.6099 H   0  0  0  0  0  0  0  0  0  0  0  0
    7.7320   -0.5804   -2.0148 H   0  0  0  0  0  0  0  0  0  0  0  0
    6.7403    0.5385   -1.0614 H   0  0  0  0  0  0  0  0  0  0  0  0
    9.5476    0.5072    2.2144 H   0  0  0  0  0  0  0  0  0  0  0  0
   10.6216   -0.5051    1.2353 H   0  0  0  0  0  0  0  0  0  0  0  0
   10.4173   -0.3799   -1.3205 H   0  0  0  0  0  0  0  0  0  0  0  0
    9.2115    0.7182   -2.0131 H   0  0  0  0  0  0  0  0  0  0  0  0
    5.7386   -1.5694    2.3868 H   0  0  0  0  0  0  0  0  0  0  0  0
    6.7861   -2.6297    1.4390 H   0  0  0  0  0  0  0  0  0  0  0  0
    5.4542   -1.3996   -1.8315 H   0  0  0  0  0  0  0  0  0  0  0  0
    6.6077   -2.5264   -1.1164 H   0  0  0  0  0  0  0  0  0  0  0  0
   11.7554    1.4949    2.1040 H   0  0  0  0  0  0  0  0  0  0  0  0
   10.5031    2.5504    1.4522 H   0  0  0  0  0  0  0  0  0  0  0  0
   10.2902    2.6816   -1.2163 H   0  0  0  0  0  0  0  0  0  0  0  0
   11.4154    1.7046   -2.1579 H   0  0  0  0  0  0  0  0  0  0  0  0
   12.4943    0.8620   -0.1357 H   0  0  0  0  0  0  0  0  0  0  0  0
   12.4346    2.6224   -0.0443 H   0  0  0  0  0  0  0  0  0  0  0  0
   -3.0017    3.0049   -1.1420 H   0  0  0  0  0  0  0  0  0  0  0  0
   -2.8718    2.9684    0.6546 H   0  0  0  0  0  0  0  0  0  0  0  0
   -4.9948   -1.5970   -0.2297 H   0  0  0  0  0  0  0  0  0  0  0  0
    0.9454    2.4889   -1.1201 H   0  0  0  0  0  0  0  0  0  0  0  0
   -0.5627    3.2942   -0.9336 H   0  0  0  0  0  0  0  0  0  0  0  0
    2.0137    0.7869   -0.6319 H   0  0  0  0  0  0  0  0  0  0  0  0
   -6.7643   -2.4551   -1.4267 H   0  0  0  0  0  0  0  0  0  0  0  0
   -8.4807   -2.6163   -1.1267 H   0  0  0  0  0  0  0  0  0  0  0  0
   -0.6949   -3.3584   -0.5349 H   0  0  0  0  0  0  0  0  0  0  0  0
    1.7487   -3.4679   -0.7138 H   0  0  0  0  0  0  0  0  0  0  0  0
   -8.8656    1.5762   -0.5071 H   0  0  0  0  0  0  0  0  0  0  0  0
   -7.9894    3.0348   -0.3955 H   0  0  0  0  0  0  0  0  0  0  0  0
    1.1213    2.2855    1.4208 H   0  0  0  0  0  0  0  0  0  0  0  0
    0.9667    3.9619    0.8694 H   0  0  0  0  0  0  0  0  0  0  0  0
   -0.4304    3.1245    1.5653 H   0  0  0  0  0  0  0  0  0  0  0  0
   -8.1097   -1.7408   -3.3589 H   0  0  0  0  0  0  0  0  0  0  0  0
   -8.9266   -0.5064   -2.3925 H   0  0  0  0  0  0  0  0  0  0  0  0
   -7.1909   -0.3645   -2.7431 H   0  0  0  0  0  0  0  0  0  0  0  0
   -9.5260   -1.0716    0.3405 H   0  0  0  0  0  0  0  0  0  0  0  0
   -9.2571    2.7241    1.4267 H   0  0  0  0  0  0  0  0  0  0  0  0
  1 22  1  0  0  0  0
  1 35  1  0  0  0  0
  2 22  2  0  0  0  0
  3 31  1  0  0  0  0
  3 82  1  0  0  0  0
  4 33  2  0  0  0  0
  5 41  1  0  0  0  0
  5 83  1  0  0  0  0
  6 43  1  0  0  0  0
  7 43  2  0  0  0  0
  8 12  1  0  0  0  0
  8 15  1  0  0  0  0
  8 16  1  0  0  0  0
  9 17  1  0  0  0  0
  9 18  1  0  0  0  0
  9 22  1  0  0  0  0
 10 24  1  0  0  0  0
 10 25  1  0  0  0  0
 10 33  1  0  0  0  0
 11 26  2  0  0  0  0
 11 34  1  0  0  0  0
 12 13  1  0  0  0  0
 12 14  1  0  0  0  0
 12 45  1  0  0  0  0
 13 17  1  0  0  0  0
 13 46  1  0  0  0  0
 13 47  1  0  0  0  0
 14 18  1  0  0  0  0
 14 48  1  0  0  0  0
 14 49  1  0  0  0  0
 15 19  1  0  0  0  0
 15 50  1  0  0  0  0
 15 51  1  0  0  0  0
 16 20  1  0  0  0  0
 16 52  1  0  0  0  0
 16 53  1  0  0  0  0
 17 54  1  0  0  0  0
 17 55  1  0  0  0  0
 18 56  1  0  0  0  0
 18 57  1  0  0  0  0
 19 21  1  0  0  0  0
 19 58  1  0  0  0  0
 19 59  1  0  0  0  0
 20 21  1  0  0  0  0
 20 60  1  0  0  0  0
 20 61  1  0  0  0  0
 21 62  1  0  0  0  0
 21 63  1  0  0  0  0
 23 24  1  0  0  0  0
 23 26  1  0  0  0  0
 23 27  2  0  0  0  0
 24 64  1  0  0  0  0
 24 65  1  0  0  0  0
 25 26  1  0  0  0  0
 25 30  2  0  0  0  0
 27 29  1  0  0  0  0
 27 36  1  0  0  0  0
 28 30  1  0  0  0  0
 28 31  1  0  0  0  0
 28 32  2  0  0  0  0
 29 34  2  0  0  0  0
 29 37  1  0  0  0  0
 30 66  1  0  0  0  0
 31 38  1  0  0  0  0
 31 43  1  0  0  0  0
 32 33  1  0  0  0  0
 32 41  1  0  0  0  0
 34 39  1  0  0  0  0
 35 37  2  0  0  0  0
 35 40  1  0  0  0  0
 36 42  1  0  0  0  0
 36 67  1  0  0  0  0
 36 68  1  0  0  0  0
 37 69  1  0  0  0  0
 38 44  1  0  0  0  0
 38 70  1  0  0  0  0
 38 71  1  0  0  0  0
 39 40  2  0  0  0  0
 39 72  1  0  0  0  0
 40 73  1  0  0  0  0
 41 74  1  0  0  0  0
 41 75  1  0  0  0  0
 42 76  1  0  0  0  0
 42 77  1  0  0  0  0
 42 78  1  0  0  0  0
 44 79  1  0  0  0  0
 44 80  1  0  0  0  0
 44 81  1  0  0  0  0
M  CHG  1   6  -1
M  END
> <PUBCHEM_COMPOUND_CID>
443146

> <PUBCHEM_CONFORMER_RMSD>
1.2

> <PUBCHEM_CONFORMER_DIVERSEORDER>
1
28
10
22
33
13
21
9
29
24
14
20
7
30
16
6
19
4
26
17
18
23
15
35
31
2
32
25
8
34
11
5
3
27
12

> <PUBCHEM_MMFF94_PARTIAL_CHARGES>
41
1 -0.23
10 -0.47
11 -0.62
12 0.27
15 0.27
16 0.27
17 0.3
18 0.3
2 -0.57
22 0.78
23 -0.14
24 0.44
25 0.08
26 0.34
27 -0.14
28 -0.14
3 -0.68
30 -0.15
31 0.31
32 -0.12
33 0.62
34 0.31
35 0.08
36 0.14
37 -0.15
39 -0.15
4 -0.57
40 -0.15
41 0.42
43 0.91
5 -0.68
6 -0.9
66 0.15
69 0.15
7 -0.9
72 0.15
73 0.15
8 -0.81
82 0.4
83 0.4
9 -0.66

> <PUBCHEM_EFFECTIVE_ROTOR_COUNT>
11.6

> <PUBCHEM_PHARMACOPHORE_FEATURES>
19
1 11 acceptor
1 2 acceptor
1 3 acceptor
1 3 donor
1 4 acceptor
1 42 hydrophobe
1 44 hydrophobe
1 5 acceptor
1 5 donor
1 6 acceptor
1 7 acceptor
1 8 cation
3 6 7 43 anion
5 10 23 24 25 26 rings
6 10 25 28 30 32 33 rings
6 11 23 26 27 29 34 rings
6 29 34 35 37 39 40 rings
6 8 15 16 19 20 21 rings
6 9 12 13 14 17 18 rings

> <PUBCHEM_HEAVY_ATOM_COUNT>
44

> <PUBCHEM_ATOM_DEF_STEREO_COUNT>
1

> <PUBCHEM_ATOM_UDEF_STEREO_COUNT>
0

> <PUBCHEM_BOND_DEF_STEREO_COUNT>
0

> <PUBCHEM_BOND_UDEF_STEREO_COUNT>
0

> <PUBCHEM_ISOTOPIC_ATOM_COUNT>
0

> <PUBCHEM_COMPONENT_COUNT>
1

> <PUBCHEM_CACTVS_TAUTO_COUNT>
1

> <PUBCHEM_CONFORMER_ID>
0006C30A00000001

> <PUBCHEM_MMFF94_ENERGY>
122.2401

> <PUBCHEM_FEATURE_SELFOVERLAP>
96.702

> <PUBCHEM_SHAPE_FINGERPRINT>
10 15 18408889555024096634
10055352 69 18186807950599432648
10076449 9 18113617872348588456
10162869 55 17275102809116683262
10930396 42 17060622205009370892
11115154 58 5039947460817816034
11409948 8 18337105674861900474
11973864 47 18409456899446675376
12013929 94 18342173319997475923
12089408 11 18410859888962500790
12202916 173 12175619603503289912
13740195 50 18342177744203485802
13811026 1 18410854352042436681
14040222 383 18272371945573551914
14856354 85 7348588714128059817
14937079 2 18409450250494357356
15065858 18 15985111816724845978
15530121 191 17822019705151388272
15840311 113 18272929454483813038
15890870 6 18335419055355174548
17686467 74 18272370866856446837
20105231 36 17095525102474693030
24771293 8 18409730689834914637
335507 130 18334296444623154252
3418910 222 18260261984566918344
4173938 188 17274821320848882810
4403749 210 18339366365917154399
44280117 145 17967819324019307999
45270241 37 18260543473129793822
5028188 123 17458349623781344631
54583773 228 18272364248965679404
6081469 158 9151177554716890634
6126387 218 15626230134391126927
6673363 416 18186238424693105808
6703917 75 17894908555601589294

> <PUBCHEM_SHAPE_MULTIPOLES>
844.49
41.03
3.16
1.43
76.7
1.23
0.18
10.22
4.24
-3.53
0.28
-0.3
-0.51
-0.39

> <PUBCHEM_SHAPE_SELFOVERLAP>
1842.491

> <PUBCHEM_SHAPE_VOLUME>
457

> <PUBCHEM_COORDINATE_TYPE>
2
5
10

$$$$

