5281652
  -OEChem-07051212583D

 26 28  0     0  0  0  0  0  0999 V2000
    0.1180   -1.4422    0.0001 O   0  0  0  0  0  0  0  0  0  0  0  0
   -0.8861    2.5244    0.0003 O   0  0  0  0  0  0  0  0  0  0  0  0
    2.6974   -2.2320    0.0010 O   0  0  0  0  0  0  0  0  0  0  0  0
   -3.4389    1.8708    0.0000 O   0  0  0  0  0  0  0  0  0  0  0  0
    4.7475   -0.3784   -0.0002 O   0  0  0  0  0  0  0  0  0  0  0  0
    0.8032    0.9018    0.0000 C   0  0  0  0  0  0  0  0  0  0  0  0
   -1.6197    0.2735    0.0002 C   0  0  0  0  0  0  0  0  0  0  0  0
    1.0823   -0.4645   -0.0001 C   0  0  0  0  0  0  0  0  0  0  0  0
   -1.1998   -1.0563    0.0000 C   0  0  0  0  0  0  0  0  0  0  0  0
   -0.6023    1.3357    0.0005 C   0  0  0  0  0  0  0  0  0  0  0  0
    2.4096   -0.8986   -0.0002 C   0  0  0  0  0  0  0  0  0  0  0  0
    1.8402    1.8383   -0.0001 C   0  0  0  0  0  0  0  0  0  0  0  0
   -2.9813    0.5880    0.0001 C   0  0  0  0  0  0  0  0  0  0  0  0
   -2.1487   -2.0807   -0.0002 C   0  0  0  0  0  0  0  0  0  0  0  0
    3.4485    0.0328   -0.0004 C   0  0  0  0  0  0  0  0  0  0  0  0
    3.1641    1.3985   -0.0003 C   0  0  0  0  0  0  0  0  0  0  0  0
   -3.9246   -0.4397   -0.0002 C   0  0  0  0  0  0  0  0  0  0  0  0
   -3.5094   -1.7715   -0.0004 C   0  0  0  0  0  0  0  0  0  0  0  0
    1.6391    2.9058    0.0000 H   0  0  0  0  0  0  0  0  0  0  0  0
   -1.8362   -3.1215   -0.0003 H   0  0  0  0  0  0  0  0  0  0  0  0
    3.9659    2.1324   -0.0004 H   0  0  0  0  0  0  0  0  0  0  0  0
   -4.9871   -0.2106   -0.0004 H   0  0  0  0  0  0  0  0  0  0  0  0
   -4.2466   -2.5693   -0.0006 H   0  0  0  0  0  0  0  0  0  0  0  0
    1.8593   -2.7264    0.0013 H   0  0  0  0  0  0  0  0  0  0  0  0
   -2.6974    2.4955    0.0004 H   0  0  0  0  0  0  0  0  0  0  0  0
    5.3274    0.4024   -0.0003 H   0  0  0  0  0  0  0  0  0  0  0  0
  1  8  1  0  0  0  0
  1  9  1  0  0  0  0
  2 10  2  0  0  0  0
  3 11  1  0  0  0  0
  3 24  1  0  0  0  0
  4 13  1  0  0  0  0
  4 25  1  0  0  0  0
  5 15  1  0  0  0  0
  5 26  1  0  0  0  0
  6  8  2  0  0  0  0
  6 10  1  0  0  0  0
  6 12  1  0  0  0  0
  7  9  1  0  0  0  0
  7 10  1  0  0  0  0
  7 13  2  0  0  0  0
  8 11  1  0  0  0  0
  9 14  2  0  0  0  0
 11 15  2  0  0  0  0
 12 16  2  0  0  0  0
 12 19  1  0  0  0  0
 13 17  1  0  0  0  0
 14 18  1  0  0  0  0
 14 20  1  0  0  0  0
 15 16  1  0  0  0  0
 16 21  1  0  0  0  0
 17 18  2  0  0  0  0
 17 22  1  0  0  0  0
 18 23  1  0  0  0  0
M  END
> <PUBCHEM_COMPOUND_CID>
5281652

> <PUBCHEM_CONFORMER_RMSD>
0.4

> <PUBCHEM_CONFORMER_DIVERSEORDER>
1

> <PUBCHEM_MMFF94_PARTIAL_CHARGES>
26
1 -0.17
10 0.4
11 0.08
12 -0.15
13 0.08
14 -0.15
15 0.08
16 -0.15
17 -0.15
18 -0.15
19 0.15
2 -0.57
20 0.15
21 0.15
22 0.15
23 0.15
24 0.45
25 0.45
26 0.45
3 -0.53
4 -0.53
5 -0.53
6 0.09
7 0.09
8 0.08
9 0.08

> <PUBCHEM_EFFECTIVE_ROTOR_COUNT>
0

> <PUBCHEM_PHARMACOPHORE_FEATURES>
8
1 1 acceptor
1 2 acceptor
1 3 donor
1 4 donor
1 5 donor
6 1 6 7 8 9 10 rings
6 6 8 11 12 15 16 rings
6 7 9 13 14 17 18 rings

> <PUBCHEM_HEAVY_ATOM_COUNT>
18

> <PUBCHEM_ATOM_DEF_STEREO_COUNT>
0

> <PUBCHEM_ATOM_UDEF_STEREO_COUNT>
0

> <PUBCHEM_BOND_DEF_STEREO_COUNT>
0

> <PUBCHEM_BOND_UDEF_STEREO_COUNT>
0

> <PUBCHEM_ISOTOPIC_ATOM_COUNT>
0

> <PUBCHEM_COMPONENT_COUNT>
1

> <PUBCHEM_CACTVS_TAUTO_COUNT>
58

> <PUBCHEM_CONFORMER_ID>
0050977400000001

> <PUBCHEM_MMFF94_ENERGY>
54.7774

> <PUBCHEM_FEATURE_SELFOVERLAP>
40.656

> <PUBCHEM_SHAPE_FINGERPRINT>
10062212 137 18411427197621912403
10608611 8 18410014308058340777
10616163 171 18409164398376006566
10967382 1 18410855447269711623
1100329 8 16969421297055221907
11132069 177 18409173190289813760
11471102 20 18339084783001518278
12032990 46 18339075986813647851
12251169 10 18409164411424035891
13140716 1 18410572916010595435
13221675 6 18410856564109025086
13288520 33 18408881837257528926
13583140 156 14201391707812142559
14144814 61 18410575071894312659
15196674 1 18410855417194358564
15442244 35 18338799043101436994
15536298 74 18334857165256621728
16945 1 18338517559355216196
17804303 29 18408600348952953996
18186145 218 17775013353299930247
200 152 18041002795766282215
20510252 161 18333448768202624329
21029758 11 18334864870739265017
21267235 1 18411128113300503979
21501502 16 18411418397201968965
221490 88 18269267959348914138
2334 1 18338516335537521635
23402539 116 18335428962489154254
23463225 33 18411699855004104757
23557571 272 18260820497380402134
23559900 14 18263365944604116750
238 59 16117156832059486669
2748010 2 18410294675080896399
2871803 45 18341619161519634799
3312278 4 18409728465020541552
335352 9 18194683897911730007
34934 24 18411708698357617434
4214541 1 18410855473044803137
5104073 3 18410293592854848056
69090 78 18334861597789569263
7364860 26 18191868920696427472
8809292 202 18271804575428843530
9709674 26 18409725153748988558

> <PUBCHEM_SHAPE_MULTIPOLES>
341.08
7.17
2.4
0.59
1.4
0.23
0
-1.2
0
-0.48
0
-0.02
0
0

> <PUBCHEM_SHAPE_SELFOVERLAP>
775.642

> <PUBCHEM_SHAPE_VOLUME>
176.7

> <PUBCHEM_COORDINATE_TYPE>
2
5
10

$$$$

