5462429
  -OEChem-07051212573D

 46 51  0     1  0  0  0  0  0999 V2000
    0.2349    0.7040   -2.3886 O   0  0  0  0  0  0  0  0  0  0  0  0
   -0.0861   -2.9358    0.1098 O   0  0  0  0  0  0  0  0  0  0  0  0
   -2.0326    2.0049    1.2426 N   0  0  1  0  0  0  0  0  0  0  0  0
    1.9855   -2.0725    0.6950 N   0  0  0  0  0  0  0  0  0  0  0  0
   -0.5925    0.1849    0.6725 C   0  0  2  0  0  0  0  0  0  0  0  0
   -2.0666   -0.2666    0.5362 C   0  0  2  0  0  0  0  0  0  0  0  0
   -2.3111    0.0688   -0.9645 C   0  0  1  0  0  0  0  0  0  0  0  0
   -0.9654    1.6382    0.2820 C   0  0  1  0  0  0  0  0  0  0  0  0
   -1.7118    1.4992   -1.0737 C   0  0  1  0  0  0  0  0  0  0  0  0
    0.4330   -0.5138   -0.2735 C   0  0  1  0  0  0  0  0  0  0  0  0
   -0.0313   -0.5517   -1.7547 C   0  0  1  0  0  0  0  0  0  0  0  0
   -1.5263   -0.8835   -1.8808 C   0  0  0  0  0  0  0  0  0  0  0  0
   -2.7913    0.7587    1.4423 C   0  0  0  0  0  0  0  0  0  0  0  0
   -0.8022    1.6717   -2.2856 C   0  0  0  0  0  0  0  0  0  0  0  0
   -2.4472   -1.6429    0.9598 C   0  0  0  0  0  0  0  0  0  0  0  0
    1.8338    0.0690   -0.0665 C   0  0  0  0  0  0  0  0  0  0  0  0
    0.6894   -1.9950    0.1931 C   0  0  0  0  0  0  0  0  0  0  0  0
   -1.5095    2.5479    2.4907 C   0  0  0  0  0  0  0  0  0  0  0  0
    2.6644   -0.8795    0.5287 C   0  0  0  0  0  0  0  0  0  0  0  0
    2.3546    1.3228   -0.3511 C   0  0  0  0  0  0  0  0  0  0  0  0
   -3.4931   -2.3152    0.4672 C   0  0  0  0  0  0  0  0  0  0  0  0
    3.9848   -0.6376    0.8632 C   0  0  0  0  0  0  0  0  0  0  0  0
    3.6888    1.5983   -0.0247 C   0  0  0  0  0  0  0  0  0  0  0  0
    4.4976    0.6256    0.5807 C   0  0  0  0  0  0  0  0  0  0  0  0
   -0.2469    0.1068    1.7124 H   0  0  0  0  0  0  0  0  0  0  0  0
   -3.3745    0.0710   -1.2282 H   0  0  0  0  0  0  0  0  0  0  0  0
   -0.1590    2.3727    0.2622 H   0  0  0  0  0  0  0  0  0  0  0  0
   -2.5140    2.2456   -1.1526 H   0  0  0  0  0  0  0  0  0  0  0  0
    0.5499   -1.2973   -2.3107 H   0  0  0  0  0  0  0  0  0  0  0  0
   -1.7189   -1.9337   -1.6482 H   0  0  0  0  0  0  0  0  0  0  0  0
   -1.8512   -0.7333   -2.9183 H   0  0  0  0  0  0  0  0  0  0  0  0
   -3.8358    0.8998    1.1414 H   0  0  0  0  0  0  0  0  0  0  0  0
   -2.7837    0.4392    2.4930 H   0  0  0  0  0  0  0  0  0  0  0  0
   -1.3958    1.6209   -3.2061 H   0  0  0  0  0  0  0  0  0  0  0  0
   -0.3325    2.6611   -2.2735 H   0  0  0  0  0  0  0  0  0  0  0  0
   -1.8932   -2.0901    1.7814 H   0  0  0  0  0  0  0  0  0  0  0  0
   -0.9524    3.4713    2.2982 H   0  0  0  0  0  0  0  0  0  0  0  0
   -0.8478    1.8548    3.0205 H   0  0  0  0  0  0  0  0  0  0  0  0
   -2.3343    2.8118    3.1618 H   0  0  0  0  0  0  0  0  0  0  0  0
    2.4092   -2.9108    1.0750 H   0  0  0  0  0  0  0  0  0  0  0  0
    1.7620    2.0986   -0.8200 H   0  0  0  0  0  0  0  0  0  0  0  0
   -3.7363   -3.2987    0.8557 H   0  0  0  0  0  0  0  0  0  0  0  0
   -4.1317   -1.9167   -0.3118 H   0  0  0  0  0  0  0  0  0  0  0  0
    4.6054   -1.3991    1.3218 H   0  0  0  0  0  0  0  0  0  0  0  0
    4.1032    2.5789   -0.2435 H   0  0  0  0  0  0  0  0  0  0  0  0
    5.5300    0.8592    0.8250 H   0  0  0  0  0  0  0  0  0  0  0  0
  1 11  1  0  0  0  0
  1 14  1  0  0  0  0
  2 17  2  0  0  0  0
  3  8  1  0  0  0  0
  3 13  1  0  0  0  0
  3 18  1  0  0  0  0
  4 17  1  0  0  0  0
  4 19  1  0  0  0  0
  4 40  1  0  0  0  0
  5  6  1  0  0  0  0
  5  8  1  0  0  0  0
  5 10  1  0  0  0  0
  5 25  1  0  0  0  0
  6  7  1  0  0  0  0
  6 13  1  0  0  0  0
  6 15  1  0  0  0  0
  7  9  1  0  0  0  0
  7 12  1  0  0  0  0
  7 26  1  0  0  0  0
  8  9  1  0  0  0  0
  8 27  1  0  0  0  0
  9 14  1  0  0  0  0
  9 28  1  0  0  0  0
 10 11  1  0  0  0  0
 10 16  1  0  0  0  0
 10 17  1  0  0  0  0
 11 12  1  0  0  0  0
 11 29  1  0  0  0  0
 12 30  1  0  0  0  0
 12 31  1  0  0  0  0
 13 32  1  0  0  0  0
 13 33  1  0  0  0  0
 14 34  1  0  0  0  0
 14 35  1  0  0  0  0
 15 21  2  0  0  0  0
 15 36  1  0  0  0  0
 16 19  1  0  0  0  0
 16 20  2  0  0  0  0
 18 37  1  0  0  0  0
 18 38  1  0  0  0  0
 18 39  1  0  0  0  0
 19 22  2  0  0  0  0
 20 23  1  0  0  0  0
 20 41  1  0  0  0  0
 21 42  1  0  0  0  0
 21 43  1  0  0  0  0
 22 24  1  0  0  0  0
 22 44  1  0  0  0  0
 23 24  2  0  0  0  0
 23 45  1  0  0  0  0
 24 46  1  0  0  0  0
M  END
> <PUBCHEM_COMPOUND_CID>
5462429

> <PUBCHEM_CONFORMER_RMSD>
0.6

> <PUBCHEM_CONFORMER_DIVERSEORDER>
1

> <PUBCHEM_MMFF94_PARTIAL_CHARGES>
28
1 -0.56
10 0.2
11 0.28
13 0.27
14 0.28
15 -0.29
16 -0.14
17 0.57
18 0.27
19 0.12
2 -0.57
20 -0.15
21 -0.3
22 -0.15
23 -0.15
24 -0.15
3 -0.81
36 0.15
4 -0.55
40 0.37
41 0.15
42 0.15
43 0.15
44 0.15
45 0.15
46 0.15
6 0.14
8 0.27

> <PUBCHEM_EFFECTIVE_ROTOR_COUNT>
2.2

> <PUBCHEM_PHARMACOPHORE_FEATURES>
9
1 1 acceptor
1 2 acceptor
1 21 hydrophobe
1 3 cation
1 4 donor
10 1 5 6 7 8 9 10 11 12 14 rings
5 4 10 16 17 19 rings
6 16 19 20 22 23 24 rings
7 3 5 6 7 8 9 13 rings

> <PUBCHEM_HEAVY_ATOM_COUNT>
24

> <PUBCHEM_ATOM_DEF_STEREO_COUNT>
6

> <PUBCHEM_ATOM_UDEF_STEREO_COUNT>
1

> <PUBCHEM_BOND_DEF_STEREO_COUNT>
0

> <PUBCHEM_BOND_UDEF_STEREO_COUNT>
0

> <PUBCHEM_ISOTOPIC_ATOM_COUNT>
0

> <PUBCHEM_COMPONENT_COUNT>
1

> <PUBCHEM_CACTVS_TAUTO_COUNT>
2

> <PUBCHEM_CONFORMER_ID>
0053599D00000001

> <PUBCHEM_MMFF94_ENERGY>
112.3696

> <PUBCHEM_FEATURE_SELFOVERLAP>
46.641

> <PUBCHEM_SHAPE_FINGERPRINT>
10863032 1 18201732746904052373
10948715 1 17605549070901466241
1100329 8 17761766265547229411
11221954 11 16737466013388798089
11640471 11 17388836450016520088
12403814 3 17916596323263370098
12633257 1 18199749326711786098
13004483 165 17917448492252067851
13027679 85 18048038471835379987
13132413 78 17764862494580673991
13140716 1 18266181819499635546
13224815 77 17846498119560893510
133893 2 15071414518373596143
13544653 18 18058444297167867379
14142880 1 18335990842980576489
14223421 5 18342176695693492522
14289901 80 17132117961637664840
14787075 74 17831856850367547621
14817 1 15828406026224917933
15309172 13 18342461465094488706
16945 1 18124587832623015847
18219364 16 18128544958113421712
18981168 100 17241318217549427556
19010151 120 17489305218336481619
200 152 18337968795773959735
20510252 161 18336828593742001154
21197605 99 16966045791953622425
21421861 104 16910260571216944547
21756936 100 18040715836570190808
2306618 200 18271821136896518312
23419403 2 16894019529769488926
23559900 14 18200328713653027714
2748010 2 17197411548698206327
3380486 145 17918270961457036829
350125 39 18271527482035887536
3797600 57 18188762851881825712
392239 28 18046624499776448890
4340502 62 18338228397199734681
5845 1 17274808199423015343

> <PUBCHEM_SHAPE_MULTIPOLES>
472.21
5.73
2.65
1.97
5.65
0.41
0.65
0.2
-2.06
-1.12
-0.9
-1.2
-1.06
-0.52

> <PUBCHEM_SHAPE_SELFOVERLAP>
1084.639

> <PUBCHEM_SHAPE_VOLUME>
244.7

> <PUBCHEM_COORDINATE_TYPE>
2
5
10

$$$$

