50599
  -OEChem-07051212523D

 29 31  0     1  0  0  0  0  0999 V2000
   -2.3096   -0.1204   -0.7723 O   0  0  0  0  0  0  0  0  0  0  0  0
   -4.7666    1.1933   -1.2254 O   0  0  0  0  0  0  0  0  0  0  0  0
    4.1108    1.6471    0.3427 O   0  0  0  0  0  0  0  0  0  0  0  0
   -0.0540   -0.0767   -0.0497 N   0  0  0  0  0  0  0  0  0  0  0  0
    1.7987   -1.5846   -0.5171 N   0  0  0  0  0  0  0  0  0  0  0  0
    1.1627    1.7446    0.4372 N   0  0  0  0  0  0  0  0  0  0  0  0
    3.9768   -0.5830   -0.2838 N   0  0  0  0  0  0  0  0  0  0  0  0
   -1.2303   -0.9221   -0.2595 C   0  0  1  0  0  0  0  0  0  0  0  0
   -1.7266   -1.6105    1.0077 C   0  0  0  0  0  0  0  0  0  0  0  0
   -2.9428   -0.7993    1.3911 C   0  0  0  0  0  0  0  0  0  0  0  0
   -3.4714   -0.3685    0.0354 C   0  0  1  0  0  0  0  0  0  0  0  0
   -4.3374    0.8746    0.0890 C   0  0  0  0  0  0  0  0  0  0  0  0
    1.2487   -0.4157   -0.1744 C   0  0  0  0  0  0  0  0  0  0  0  0
   -0.0578    1.2476    0.3246 C   0  0  0  0  0  0  0  0  0  0  0  0
    1.9832    0.6980    0.1234 C   0  0  0  0  0  0  0  0  0  0  0  0
    3.4357    0.6594    0.0793 C   0  0  0  0  0  0  0  0  0  0  0  0
    3.1799   -1.5837   -0.5482 C   0  0  0  0  0  0  0  0  0  0  0  0
   -0.9600   -1.6543   -1.0284 H   0  0  0  0  0  0  0  0  0  0  0  0
   -0.9824   -1.6737    1.8074 H   0  0  0  0  0  0  0  0  0  0  0  0
   -2.0394   -2.6334    0.7643 H   0  0  0  0  0  0  0  0  0  0  0  0
   -3.6744   -1.3657    1.9738 H   0  0  0  0  0  0  0  0  0  0  0  0
   -2.6299    0.0692    1.9830 H   0  0  0  0  0  0  0  0  0  0  0  0
   -4.0186   -1.1883   -0.4471 H   0  0  0  0  0  0  0  0  0  0  0  0
   -3.7824    1.7361    0.4743 H   0  0  0  0  0  0  0  0  0  0  0  0
   -5.2213    0.7156    0.7135 H   0  0  0  0  0  0  0  0  0  0  0  0
   -0.9713    1.7976    0.5056 H   0  0  0  0  0  0  0  0  0  0  0  0
    1.2670   -2.4201   -0.7375 H   0  0  0  0  0  0  0  0  0  0  0  0
   -3.9712    1.3254   -1.7692 H   0  0  0  0  0  0  0  0  0  0  0  0
    3.5967   -2.5625   -0.8337 H   0  0  0  0  0  0  0  0  0  0  0  0
  1  8  1  0  0  0  0
  1 11  1  0  0  0  0
  2 12  1  0  0  0  0
  2 28  1  0  0  0  0
  3 16  2  0  0  0  0
  4  8  1  0  0  0  0
  4 13  1  0  0  0  0
  4 14  1  0  0  0  0
  5 13  1  0  0  0  0
  5 17  1  0  0  0  0
  5 27  1  0  0  0  0
  6 14  2  0  0  0  0
  6 15  1  0  0  0  0
  7 16  1  0  0  0  0
  7 17  2  0  0  0  0
  8  9  1  0  0  0  0
  8 18  1  0  0  0  0
  9 10  1  0  0  0  0
  9 19  1  0  0  0  0
  9 20  1  0  0  0  0
 10 11  1  0  0  0  0
 10 21  1  0  0  0  0
 10 22  1  0  0  0  0
 11 12  1  0  0  0  0
 11 23  1  0  0  0  0
 12 24  1  0  0  0  0
 12 25  1  0  0  0  0
 13 15  2  0  0  0  0
 14 26  1  0  0  0  0
 15 16  1  0  0  0  0
 17 29  1  0  0  0  0
M  END
> <PUBCHEM_COMPOUND_CID>
50599

> <PUBCHEM_CONFORMER_RMSD>
0.6

> <PUBCHEM_CONFORMER_DIVERSEORDER>
1
7
5
2
12
11
3
6
10
4
13
9
8

> <PUBCHEM_MMFF94_PARTIAL_CHARGES>
19
1 -0.56
11 0.28
12 0.28
13 -0.07
14 0.04
15 0.14
16 0.87
17 0.44
2 -0.68
26 0.15
27 0.4
28 0.4
29 0.06
3 -0.57
4 0.05
5 -0.53
6 -0.57
7 -0.66
8 0.54

> <PUBCHEM_EFFECTIVE_ROTOR_COUNT>
3

> <PUBCHEM_PHARMACOPHORE_FEATURES>
10
1 1 acceptor
1 2 acceptor
1 2 donor
1 3 acceptor
1 5 donor
1 7 donor
3 4 6 14 cation
5 1 8 9 10 11 rings
5 4 6 13 14 15 rings
6 5 7 13 15 16 17 rings

> <PUBCHEM_HEAVY_ATOM_COUNT>
17

> <PUBCHEM_ATOM_DEF_STEREO_COUNT>
2

> <PUBCHEM_ATOM_UDEF_STEREO_COUNT>
0

> <PUBCHEM_BOND_DEF_STEREO_COUNT>
0

> <PUBCHEM_BOND_UDEF_STEREO_COUNT>
0

> <PUBCHEM_ISOTOPIC_ATOM_COUNT>
0

> <PUBCHEM_COMPONENT_COUNT>
1

> <PUBCHEM_CACTVS_TAUTO_COUNT>
3

> <PUBCHEM_CONFORMER_ID>
0000C5A700000001

> <PUBCHEM_MMFF94_ENERGY>
36.7193

> <PUBCHEM_FEATURE_SELFOVERLAP>
50.901

> <PUBCHEM_SHAPE_FINGERPRINT>
10608611 8 18341049618875751593
11471102 20 18334296470060719652
11543360 7 13984940680331086064
116883 192 18263921210491839012
12236239 1 16805322205887331911
124424 183 18410854373775801003
12500047 106 18272089366299667627
12654215 9 18409729560622219828
13296908 3 18341887472442740738
13571099 22 18259703414962192707
13675066 3 18271800198994000579
14144814 61 18041270011029577043
14993402 34 16950281788817856316
15196674 1 18408602547944457059
15219456 202 18412822460697522026
15375358 24 18411983550515869706
15653759 3 17989201508620441643
16945 1 18261106314816832264
18186145 218 18059857289514877823
19049666 15 18271804678660915891
200 152 17530686532654253521
20201158 50 18410570691017400522
20279233 1 18341890770840428451
20645477 56 18201718423383428641
20645477 70 18187363263642475102
23402539 116 18202293484622255597
23402655 69 18187368744252690733
23559900 14 18341891918287740866
25 1 18270121335323200179
2748010 2 18334858376738092708
296302 2 18410009905790455568
34934 24 18334583412673248794
4028521 119 18270688670601995189
4072396 5 18336563680612695618
495365 180 18115040661453068066
5104073 3 18410854347789811291
77492 1 16877936139892454907
9709674 26 18411413977834043907

> <PUBCHEM_SHAPE_MULTIPOLES>
312.32
8.42
1.73
0.93
2.45
0.02
-0.08
1.79
0.98
-0.63
-0.1
0.76
-0.1
1.2

> <PUBCHEM_SHAPE_SELFOVERLAP>
680.031

> <PUBCHEM_SHAPE_VOLUME>
169.1

> <PUBCHEM_COORDINATE_TYPE>
2
5
10

$$$$

