257435
  -OEChem-07051213062D

 60 63  0     0  0  0  0  0  0999 V2000
    7.1962    1.9604    0.0000 O   0  0  0  0  0  0  0  0  0  0  0  0
   10.7263    1.9845    0.0000 O   0  0  0  0  0  0  0  0  0  0  0  0
    2.8660   -1.5396    0.0000 O   0  0  0  0  0  0  0  0  0  0  0  0
   10.7224   -1.0638    0.0000 N   0  0  0  0  0  0  0  0  0  0  0  0
    9.9111   -1.6484    0.0000 C   0  0  0  0  0  0  0  0  0  0  0  0
   11.5292   -1.6547    0.0000 C   0  0  0  0  0  0  0  0  0  0  0  0
   11.2165   -2.6045    0.0000 C   0  0  0  0  0  0  0  0  0  0  0  0
   10.2165   -2.6007    0.0000 C   0  0  0  0  0  0  0  0  0  0  0  0
    6.3301    1.4604    0.0000 C   0  0  0  0  0  0  0  0  0  0  0  0
   10.7263   -0.0638    0.0000 C   0  0  0  0  0  0  0  0  0  0  0  0
    6.3301    0.4604    0.0000 C   0  0  0  0  0  0  0  0  0  0  0  0
    7.1962   -0.0396    0.0000 C   0  0  0  0  0  0  0  0  0  0  0  0
    8.0622    0.4604    0.0000 C   0  0  0  0  0  0  0  0  0  0  0  0
    9.8622    0.4396    0.0000 C   0  0  0  0  0  0  0  0  0  0  0  0
    8.0622    1.4604    0.0000 C   0  0  0  0  0  0  0  0  0  0  0  0
    8.9561   -0.0743    0.0000 C   0  0  0  0  0  0  0  0  0  0  0  0
    5.8301    2.3264    0.0000 C   0  0  0  0  0  0  0  0  0  0  0  0
    5.3301    1.4604    0.0000 C   0  0  0  0  0  0  0  0  0  0  0  0
    7.1962   -1.0396    0.0000 C   0  0  0  0  0  0  0  0  0  0  0  0
    9.8622    1.4812    0.0000 C   0  0  0  0  0  0  0  0  0  0  0  0
    5.4641   -0.0396    0.0000 C   0  0  0  0  0  0  0  0  0  0  0  0
    8.9561    1.9950    0.0000 C   0  0  0  0  0  0  0  0  0  0  0  0
    8.0622   -1.5396    0.0000 C   0  0  0  0  0  0  0  0  0  0  0  0
    4.5981    0.4604    0.0000 C   0  0  0  0  0  0  0  0  0  0  0  0
    5.4641   -1.0396    0.0000 C   0  0  0  0  0  0  0  0  0  0  0  0
    3.7320   -0.0396    0.0000 C   0  0  0  0  0  0  0  0  0  0  0  0
    4.5981   -1.5396    0.0000 C   0  0  0  0  0  0  0  0  0  0  0  0
    3.7320   -1.0396    0.0000 C   0  0  0  0  0  0  0  0  0  0  0  0
    2.0000   -1.0396    0.0000 C   0  0  0  0  0  0  0  0  0  0  0  0
   12.0946   -1.9090    0.0000 H   0  0  0  0  0  0  0  0  0  0  0  0
   11.8412   -1.1189    0.0000 H   0  0  0  0  0  0  0  0  0  0  0  0
    9.6032   -1.1103    0.0000 H   0  0  0  0  0  0  0  0  0  0  0  0
    9.3438   -1.8984    0.0000 H   0  0  0  0  0  0  0  0  0  0  0  0
   11.1493   -3.2209    0.0000 H   0  0  0  0  0  0  0  0  0  0  0  0
   11.8224   -2.7358    0.0000 H   0  0  0  0  0  0  0  0  0  0  0  0
    9.6096   -2.7272    0.0000 H   0  0  0  0  0  0  0  0  0  0  0  0
   10.2789   -3.2175    0.0000 H   0  0  0  0  0  0  0  0  0  0  0  0
   11.3364   -0.1738    0.0000 H   0  0  0  0  0  0  0  0  0  0  0  0
   10.9406    0.5180    0.0000 H   0  0  0  0  0  0  0  0  0  0  0  0
    8.9490   -0.6942    0.0000 H   0  0  0  0  0  0  0  0  0  0  0  0
    5.3301    2.0804    0.0000 H   0  0  0  0  0  0  0  0  0  0  0  0
    4.7101    1.4604    0.0000 H   0  0  0  0  0  0  0  0  0  0  0  0
    5.3301    0.8404    0.0000 H   0  0  0  0  0  0  0  0  0  0  0  0
    6.3671    2.6364    0.0000 H   0  0  0  0  0  0  0  0  0  0  0  0
    5.5201    2.8633    0.0000 H   0  0  0  0  0  0  0  0  0  0  0  0
    5.2932    2.0164    0.0000 H   0  0  0  0  0  0  0  0  0  0  0  0
    6.5856   -0.9320    0.0000 H   0  0  0  0  0  0  0  0  0  0  0  0
    6.9841   -1.6222    0.0000 H   0  0  0  0  0  0  0  0  0  0  0  0
    8.9490    2.6150    0.0000 H   0  0  0  0  0  0  0  0  0  0  0  0
    7.7522   -2.0766    0.0000 H   0  0  0  0  0  0  0  0  0  0  0  0
    8.5991   -1.8496    0.0000 H   0  0  0  0  0  0  0  0  0  0  0  0
    8.3722   -1.0027    0.0000 H   0  0  0  0  0  0  0  0  0  0  0  0
    4.5981    1.0804    0.0000 H   0  0  0  0  0  0  0  0  0  0  0  0
    6.0010   -1.3496    0.0000 H   0  0  0  0  0  0  0  0  0  0  0  0
   10.7239    2.6045    0.0000 H   0  0  0  0  0  0  0  0  0  0  0  0
    3.1951    0.2704    0.0000 H   0  0  0  0  0  0  0  0  0  0  0  0
    4.5981   -2.1596    0.0000 H   0  0  0  0  0  0  0  0  0  0  0  0
    2.3100   -0.5027    0.0000 H   0  0  0  0  0  0  0  0  0  0  0  0
    1.4631   -0.7296    0.0000 H   0  0  0  0  0  0  0  0  0  0  0  0
    1.6900   -1.5766    0.0000 H   0  0  0  0  0  0  0  0  0  0  0  0
  1  9  1  0  0  0  0
  1 15  1  0  0  0  0
  2 20  1  0  0  0  0
  2 55  1  0  0  0  0
  3 28  1  0  0  0  0
  3 29  1  0  0  0  0
  4  5  1  0  0  0  0
  4  6  1  0  0  0  0
  4 10  1  0  0  0  0
  5  8  1  0  0  0  0
  5 32  1  0  0  0  0
  5 33  1  0  0  0  0
  6  7  1  0  0  0  0
  6 30  1  0  0  0  0
  6 31  1  0  0  0  0
  7  8  1  0  0  0  0
  7 34  1  0  0  0  0
  7 35  1  0  0  0  0
  8 36  1  0  0  0  0
  8 37  1  0  0  0  0
  9 11  1  0  0  0  0
  9 17  1  0  0  0  0
  9 18  1  0  0  0  0
 10 14  1  0  0  0  0
 10 38  1  0  0  0  0
 10 39  1  0  0  0  0
 11 12  2  0  0  0  0
 11 21  1  0  0  0  0
 12 13  1  0  0  0  0
 12 19  1  0  0  0  0
 13 15  2  0  0  0  0
 13 16  1  0  0  0  0
 14 16  2  0  0  0  0
 14 20  1  0  0  0  0
 15 22  1  0  0  0  0
 16 40  1  0  0  0  0
 17 44  1  0  0  0  0
 17 45  1  0  0  0  0
 17 46  1  0  0  0  0
 18 41  1  0  0  0  0
 18 42  1  0  0  0  0
 18 43  1  0  0  0  0
 19 23  1  0  0  0  0
 19 47  1  0  0  0  0
 19 48  1  0  0  0  0
 20 22  2  0  0  0  0
 21 24  2  0  0  0  0
 21 25  1  0  0  0  0
 22 49  1  0  0  0  0
 23 50  1  0  0  0  0
 23 51  1  0  0  0  0
 23 52  1  0  0  0  0
 24 26  1  0  0  0  0
 24 53  1  0  0  0  0
 25 27  2  0  0  0  0
 25 54  1  0  0  0  0
 26 28  2  0  0  0  0
 26 56  1  0  0  0  0
 27 28  1  0  0  0  0
 27 57  1  0  0  0  0
 29 58  1  0  0  0  0
 29 59  1  0  0  0  0
 29 60  1  0  0  0  0
M  END
> <PUBCHEM_COMPOUND_CID>
257435

> <PUBCHEM_COMPOUND_CANONICALIZED>
1

> <PUBCHEM_CACTVS_COMPLEXITY>
587

> <PUBCHEM_CACTVS_HBOND_ACCEPTOR>
4

> <PUBCHEM_CACTVS_HBOND_DONOR>
1

> <PUBCHEM_CACTVS_ROTATABLE_BOND>
5

> <PUBCHEM_CACTVS_SUBSKEYS>
AAADceB6MAAAAAAAAAAAAAAAAAAAAWAAAAAwYIAAAAAAAACBQAAAHgAACAAADETBmAYyBoMABgCAAiBCAACCCAAgIAAIiAAODIgMJyKGsRuGeCjnwBWIuAeQ8O4OIAACCAAIAABAAAQQABAAAAAAAAAAAA==

> <PUBCHEM_IUPAC_OPENEYE_NAME>
4-ethyl-3-(4-methoxyphenyl)-2,2-dimethyl-6-(pyrrolidin-1-ylmethyl)chromen-7-ol

> <PUBCHEM_IUPAC_CAS_NAME>
4-ethyl-3-(4-methoxyphenyl)-2,2-dimethyl-6-(1-pyrrolidinylmethyl)-1-benzopyran-7-ol

> <PUBCHEM_IUPAC_NAME>
4-ethyl-3-(4-methoxyphenyl)-2,2-dimethyl-6-(pyrrolidin-1-ylmethyl)chromen-7-ol

> <PUBCHEM_IUPAC_SYSTEMATIC_NAME>
4-ethyl-3-(4-methoxyphenyl)-2,2-dimethyl-6-(pyrrolidin-1-ylmethyl)chromen-7-ol

> <PUBCHEM_IUPAC_TRADITIONAL_NAME>
4-ethyl-3-(4-methoxyphenyl)-2,2-dimethyl-6-(pyrrolidinomethyl)chromen-7-ol

> <PUBCHEM_IUPAC_INCHI>
InChI=1S/C25H31NO3/c1-5-20-21-14-18(16-26-12-6-7-13-26)22(27)15-23(21)29-25(2,3)24(20)17-8-10-19(28-4)11-9-17/h8-11,14-15,27H,5-7,12-13,16H2,1-4H3

> <PUBCHEM_IUPAC_INCHIKEY>
KVMDJZAOBOVORV-UHFFFAOYSA-N

> <PUBCHEM_XLOGP3_AA>
4.3

> <PUBCHEM_EXACT_MASS>
393.230394

> <PUBCHEM_MOLECULAR_FORMULA>
C25H31NO3

> <PUBCHEM_MOLECULAR_WEIGHT>
393.51854

> <PUBCHEM_OPENEYE_CAN_SMILES>
CCC1=C(C(OC2=CC(=C(C=C21)CN3CCCC3)O)(C)C)C4=CC=C(C=C4)OC

> <PUBCHEM_OPENEYE_ISO_SMILES>
CCC1=C(C(OC2=CC(=C(C=C21)CN3CCCC3)O)(C)C)C4=CC=C(C=C4)OC

> <PUBCHEM_CACTVS_TPSA>
41.9

> <PUBCHEM_MONOISOTOPIC_WEIGHT>
393.230394

> <PUBCHEM_TOTAL_CHARGE>
0

> <PUBCHEM_HEAVY_ATOM_COUNT>
29

> <PUBCHEM_ATOM_DEF_STEREO_COUNT>
0

> <PUBCHEM_ATOM_UDEF_STEREO_COUNT>
0

> <PUBCHEM_BOND_DEF_STEREO_COUNT>
0

> <PUBCHEM_BOND_UDEF_STEREO_COUNT>
0

> <PUBCHEM_ISOTOPIC_ATOM_COUNT>
0

> <PUBCHEM_COMPONENT_COUNT>
1

> <PUBCHEM_CACTVS_TAUTO_COUNT>
6

> <PUBCHEM_COORDINATE_TYPE>
1
5
255

> <PUBCHEM_BONDANNOTATIONS>
13  15  8
13  16  8
14  16  8
14  20  8
15  22  8
20  22  8
21  24  8
21  25  8
24  26  8
25  27  8
26  28  8
27  28  8

$$$$

