94654
  -OEChem-07051213013D

 41 42  0     1  0  0  0  0  0999 V2000
   -3.2259    2.3076    1.0824 O   0  0  0  0  0  0  0  0  0  0  0  0
    0.8714   -2.4463   -0.5596 O   0  0  0  0  0  0  0  0  0  0  0  0
    1.0383   -2.1304    1.7144 O   0  0  0  0  0  0  0  0  0  0  0  0
   -1.1480   -0.3513   -0.0273 N   0  0  0  0  0  0  0  0  0  0  0  0
   -1.0035    1.7875    0.6451 N   0  0  0  0  0  0  0  0  0  0  0  0
   -2.5270    0.1054    0.2861 C   0  0  2  0  0  0  0  0  0  0  0  0
   -3.3786    0.0269   -0.9742 C   0  0  0  0  0  0  0  0  0  0  0  0
   -2.3430    1.5433    0.7278 C   0  0  0  0  0  0  0  0  0  0  0  0
   -3.0911   -0.7448    1.4169 C   0  0  0  0  0  0  0  0  0  0  0  0
   -2.7376    0.8233   -2.1104 C   0  0  0  0  0  0  0  0  0  0  0  0
   -3.5897   -1.4274   -1.3947 C   0  0  0  0  0  0  0  0  0  0  0  0
   -0.3765    0.6668    0.2073 C   0  0  0  0  0  0  0  0  0  0  0  0
    1.0592    0.6888    0.0419 C   0  0  0  0  0  0  0  0  0  0  0  0
    1.8376   -0.4643    0.2078 C   0  0  0  0  0  0  0  0  0  0  0  0
    1.6881    1.8945   -0.2928 C   0  0  0  0  0  0  0  0  0  0  0  0
    3.2215   -0.4120    0.0414 C   0  0  0  0  0  0  0  0  0  0  0  0
    3.8389    0.7937   -0.2920 C   0  0  0  0  0  0  0  0  0  0  0  0
    3.0720    1.9469   -0.4592 C   0  0  0  0  0  0  0  0  0  0  0  0
    1.2220   -1.7383    0.5561 C   0  0  0  0  0  0  0  0  0  0  0  0
    5.3185    0.8503   -0.4699 C   0  0  0  0  0  0  0  0  0  0  0  0
    0.2536   -3.7201   -0.3470 C   0  0  0  0  0  0  0  0  0  0  0  0
   -4.3648    0.4684   -0.7776 H   0  0  0  0  0  0  0  0  0  0  0  0
   -4.1515   -0.5296    1.5883 H   0  0  0  0  0  0  0  0  0  0  0  0
   -2.9741   -1.8174    1.2298 H   0  0  0  0  0  0  0  0  0  0  0  0
   -2.5666   -0.5367    2.3576 H   0  0  0  0  0  0  0  0  0  0  0  0
   -2.6053    1.8792   -1.8559 H   0  0  0  0  0  0  0  0  0  0  0  0
   -1.7691    0.4139   -2.4159 H   0  0  0  0  0  0  0  0  0  0  0  0
   -3.3849    0.7952   -2.9949 H   0  0  0  0  0  0  0  0  0  0  0  0
   -2.6433   -1.9612   -1.5304 H   0  0  0  0  0  0  0  0  0  0  0  0
   -4.1282   -1.4717   -2.3485 H   0  0  0  0  0  0  0  0  0  0  0  0
   -4.1979   -1.9776   -0.6702 H   0  0  0  0  0  0  0  0  0  0  0  0
   -0.5724    2.6703    0.8933 H   0  0  0  0  0  0  0  0  0  0  0  0
    1.1233    2.8093   -0.4524 H   0  0  0  0  0  0  0  0  0  0  0  0
    3.8198   -1.3109    0.1735 H   0  0  0  0  0  0  0  0  0  0  0  0
    3.5410    2.8914   -0.7219 H   0  0  0  0  0  0  0  0  0  0  0  0
    5.6027    1.6347   -1.1796 H   0  0  0  0  0  0  0  0  0  0  0  0
    5.8046    1.0534    0.4894 H   0  0  0  0  0  0  0  0  0  0  0  0
    5.7042   -0.0950   -0.8665 H   0  0  0  0  0  0  0  0  0  0  0  0
    0.9357   -4.3849    0.1910 H   0  0  0  0  0  0  0  0  0  0  0  0
    0.0311   -4.1576   -1.3237 H   0  0  0  0  0  0  0  0  0  0  0  0
   -0.6829   -3.5972    0.2052 H   0  0  0  0  0  0  0  0  0  0  0  0
  1  8  2  0  0  0  0
  2 19  1  0  0  0  0
  2 21  1  0  0  0  0
  3 19  2  0  0  0  0
  4  6  1  0  0  0  0
  4 12  2  0  0  0  0
  5  8  1  0  0  0  0
  5 12  1  0  0  0  0
  5 32  1  0  0  0  0
  6  7  1  0  0  0  0
  6  8  1  0  0  0  0
  6  9  1  0  0  0  0
  7 10  1  0  0  0  0
  7 11  1  0  0  0  0
  7 22  1  0  0  0  0
  9 23  1  0  0  0  0
  9 24  1  0  0  0  0
  9 25  1  0  0  0  0
 10 26  1  0  0  0  0
 10 27  1  0  0  0  0
 10 28  1  0  0  0  0
 11 29  1  0  0  0  0
 11 30  1  0  0  0  0
 11 31  1  0  0  0  0
 12 13  1  0  0  0  0
 13 14  2  0  0  0  0
 13 15  1  0  0  0  0
 14 16  1  0  0  0  0
 14 19  1  0  0  0  0
 15 18  2  0  0  0  0
 15 33  1  0  0  0  0
 16 17  2  0  0  0  0
 16 34  1  0  0  0  0
 17 18  1  0  0  0  0
 17 20  1  0  0  0  0
 18 35  1  0  0  0  0
 20 36  1  0  0  0  0
 20 37  1  0  0  0  0
 20 38  1  0  0  0  0
 21 39  1  0  0  0  0
 21 40  1  0  0  0  0
 21 41  1  0  0  0  0
M  END
> <PUBCHEM_COMPOUND_CID>
94654

> <PUBCHEM_CONFORMER_RMSD>
0.6

> <PUBCHEM_CONFORMER_DIVERSEORDER>
1
5
30
6
26
17
21
25
32
4
29
13
2
9
22
3
12
14
7
31
24
23
16
10
19
27
8
20
28
15
18
11

> <PUBCHEM_MMFF94_PARTIAL_CHARGES>
21
1 -0.57
12 0.42
13 0.09
14 0.09
15 -0.15
16 -0.15
17 -0.14
18 -0.15
19 0.63
2 -0.43
20 0.14
21 0.28
3 -0.57
32 0.37
33 0.15
34 0.15
35 0.15
4 -0.7
5 -0.49
6 0.31
8 0.57

> <PUBCHEM_EFFECTIVE_ROTOR_COUNT>
4.4

> <PUBCHEM_PHARMACOPHORE_FEATURES>
6
1 1 acceptor
1 3 acceptor
1 5 donor
3 7 10 11 hydrophobe
5 4 5 6 8 12 rings
6 13 14 15 16 17 18 rings

> <PUBCHEM_HEAVY_ATOM_COUNT>
21

> <PUBCHEM_ATOM_DEF_STEREO_COUNT>
0

> <PUBCHEM_ATOM_UDEF_STEREO_COUNT>
1

> <PUBCHEM_BOND_DEF_STEREO_COUNT>
0

> <PUBCHEM_BOND_UDEF_STEREO_COUNT>
0

> <PUBCHEM_ISOTOPIC_ATOM_COUNT>
0

> <PUBCHEM_COMPONENT_COUNT>
1

> <PUBCHEM_CACTVS_TAUTO_COUNT>
3

> <PUBCHEM_CONFORMER_ID>
000171BE00000001

> <PUBCHEM_MMFF94_ENERGY>
65.8662

> <PUBCHEM_FEATURE_SELFOVERLAP>
30.446

> <PUBCHEM_SHAPE_FINGERPRINT>
11578080 2 16843881099389153847
12035759 4 18262250953360350927
121448 382 18188220783859112442
12553582 1 17548135988045601162
12788726 201 17603873355763460329
13004483 165 16187812535728822891
13140716 1 18267862972677992442
13224815 77 18413106160504182888
13583140 156 17202772492696845656
14178342 30 18190757516156178403
14251751 93 18040149621702860604
15209289 33 18261947466765821320
15279307 12 18115584984386384493
15309172 13 18412822460839888312
16752209 62 17241346753839617645
16945 1 18261672567405048848
18186145 218 18272644658590111740
200 152 18336552629398254645
20645477 70 18269844262308179487
20775438 99 15587988801881350503
21160774 45 18124031235132343339
21524375 3 18272367534399272234
21634736 98 18044103349626105012
23114952 82 17984720049486094493
23402539 116 18186518809185700388
23566358 27 18118395378962285839
238 59 17983334544591986351
2748010 2 18270672057156531312
3060560 45 18272380749950267436
34934 24 18262795306147890169
352729 6 18193829358708408750
474 4 18272081704041205144
603831 33 18261966192865293517
633830 44 18337378422834265628
7364860 26 18120927567230944018
7832392 63 18046901855631972376
81228 2 17405992847272520538
8272917 22 18337952423769811151
90525 40 18187081780075485389

> <PUBCHEM_SHAPE_MULTIPOLES>
404.6
7.5
2.95
1.33
4.23
2.38
0.19
-2.64
1.7
0.02
-0.17
-1.44
0.05
-0.84

> <PUBCHEM_SHAPE_SELFOVERLAP>
863.845

> <PUBCHEM_SHAPE_VOLUME>
228.6

> <PUBCHEM_COORDINATE_TYPE>
2
5
10

$$$$

