5359027
  -OEChem-07051213103D

 28 28  0     1  0  0  0  0  0999 V2000
    1.8255    3.1541   -0.4780 Br  0  0  0  0  0  0  0  0  0  0  0  0
    2.4094    1.0409    1.8906 Br  0  0  0  0  0  0  0  0  0  0  0  0
    0.7609   -3.5095    0.7193 Cl  0  0  0  0  0  0  0  0  0  0  0  0
   -4.0562   -0.6259   -1.3491 Cl  0  0  0  0  0  0  0  0  0  0  0  0
   -0.0568    0.8567    0.0542 O   0  0  0  0  0  0  0  0  0  0  0  0
    1.1067    0.6240   -1.9858 O   0  0  0  0  0  0  0  0  0  0  0  0
    1.1557    0.3972   -0.5734 C   0  0  2  0  0  0  0  0  0  0  0  0
   -1.1520   -0.0419   -0.1105 C   0  0  1  0  0  0  0  0  0  0  0  0
   -0.8469   -1.3209    0.6665 C   0  0  0  0  0  0  0  0  0  0  0  0
    1.4507   -1.0799   -0.2853 C   0  0  0  0  0  0  0  0  0  0  0  0
    0.5150   -1.8457    0.3111 C   0  0  0  0  0  0  0  0  0  0  0  0
   -2.3854    0.6211    0.4067 C   0  0  0  0  0  0  0  0  0  0  0  0
    2.2488    1.3172   -0.0222 C   0  0  0  0  0  0  0  0  0  0  0  0
    2.8029   -1.5850   -0.7252 C   0  0  0  0  0  0  0  0  0  0  0  0
   -2.1538    1.5760    1.5460 C   0  0  0  0  0  0  0  0  0  0  0  0
   -3.6246    0.4217   -0.0647 C   0  0  0  0  0  0  0  0  0  0  0  0
   -1.2617   -0.2581   -1.1808 H   0  0  0  0  0  0  0  0  0  0  0  0
   -1.6186   -2.0696    0.4482 H   0  0  0  0  0  0  0  0  0  0  0  0
   -0.8619   -1.1395    1.7491 H   0  0  0  0  0  0  0  0  0  0  0  0
    3.2303    1.1320   -0.4681 H   0  0  0  0  0  0  0  0  0  0  0  0
    3.5905   -1.2277   -0.0554 H   0  0  0  0  0  0  0  0  0  0  0  0
    3.0283   -1.2380   -1.7392 H   0  0  0  0  0  0  0  0  0  0  0  0
    2.8671   -2.6759   -0.7549 H   0  0  0  0  0  0  0  0  0  0  0  0
    0.7448   -0.1704   -2.4133 H   0  0  0  0  0  0  0  0  0  0  0  0
   -1.6003    2.4599    1.2120 H   0  0  0  0  0  0  0  0  0  0  0  0
   -1.5969    1.0948    2.3564 H   0  0  0  0  0  0  0  0  0  0  0  0
   -3.0975    1.9316    1.9751 H   0  0  0  0  0  0  0  0  0  0  0  0
   -4.4971    0.9222    0.3362 H   0  0  0  0  0  0  0  0  0  0  0  0
  1 13  1  0  0  0  0
  2 13  1  0  0  0  0
  3 11  1  0  0  0  0
  4 16  1  0  0  0  0
  5  7  1  0  0  0  0
  5  8  1  0  0  0  0
  6  7  1  0  0  0  0
  6 24  1  0  0  0  0
  7 10  1  0  0  0  0
  7 13  1  0  0  0  0
  8  9  1  0  0  0  0
  8 12  1  0  0  0  0
  8 17  1  0  0  0  0
  9 11  1  0  0  0  0
  9 18  1  0  0  0  0
  9 19  1  0  0  0  0
 10 11  2  0  0  0  0
 10 14  1  0  0  0  0
 12 15  1  0  0  0  0
 12 16  2  0  0  0  0
 13 20  1  0  0  0  0
 14 21  1  0  0  0  0
 14 22  1  0  0  0  0
 14 23  1  0  0  0  0
 15 25  1  0  0  0  0
 15 26  1  0  0  0  0
 15 27  1  0  0  0  0
 16 28  1  0  0  0  0
M  END
> <PUBCHEM_COMPOUND_CID>
5359027

> <PUBCHEM_CONFORMER_RMSD>
0.6

> <PUBCHEM_CONFORMER_DIVERSEORDER>
1
4
3
5
2

> <PUBCHEM_MMFF94_PARTIAL_CHARGES>
17
1 -0.23
10 -0.28
12 -0.28
13 0.46
14 0.14
15 0.14
16 -0.01
2 -0.23
24 0.4
28 0.15
3 -0.14
4 -0.14
5 -0.56
6 -0.68
7 0.7
8 0.42
9 0.14

> <PUBCHEM_EFFECTIVE_ROTOR_COUNT>
2.8

> <PUBCHEM_PHARMACOPHORE_FEATURES>
8
1 1 hydrophobe
1 15 hydrophobe
1 2 hydrophobe
1 5 acceptor
1 6 acceptor
1 6 donor
3 1 2 13 hydrophobe
6 5 7 8 9 10 11 rings

> <PUBCHEM_HEAVY_ATOM_COUNT>
16

> <PUBCHEM_ATOM_DEF_STEREO_COUNT>
2

> <PUBCHEM_ATOM_UDEF_STEREO_COUNT>
0

> <PUBCHEM_BOND_DEF_STEREO_COUNT>
1

> <PUBCHEM_BOND_UDEF_STEREO_COUNT>
0

> <PUBCHEM_ISOTOPIC_ATOM_COUNT>
0

> <PUBCHEM_COMPONENT_COUNT>
1

> <PUBCHEM_CACTVS_TAUTO_COUNT>
1

> <PUBCHEM_CONFORMER_ID>
0051C5B300000001

> <PUBCHEM_MMFF94_ENERGY>
26.6143

> <PUBCHEM_FEATURE_SELFOVERLAP>
41.954

> <PUBCHEM_SHAPE_FINGERPRINT>
11140007 195 13901092026681352065
11680611 10 17201917029379061730
12423570 1 14641926138068778036
12507560 14 18127719113074863904
13132413 78 17903058268740597712
13380535 76 18265617585039535036
13583140 156 16915674574867095961
14250199 8 18408597076514759797
14817 1 5755386546504609984
15490181 8 18193839245538202526
15852999 172 18131078095359479923
16945 1 18126831918733745610
18186145 218 18410576206219314053
20510252 161 17328287062087447368
20511035 2 18337096866211030190
20645477 70 18261397775903918407
21041028 32 17406532084600685451
21524375 3 18189903023875594560
21639500 275 18343022198770815477
21947302 44 18261948553302752884
22112679 90 17831860526954933987
2255824 54 18410851092188821279
230 275 18334288743151069968
2334 1 18197201573254624243
23419403 2 16029648389473583006
23493267 7 16127794404914459391
23557571 272 16154275060517533393
23559900 14 18263082124474886252
23598291 2 18115298011904490621
257057 1 17692263240721202915
2748010 2 18127953248689987611
3071541 236 17980492165068226867
352729 6 18049437046193676746
474 4 18411136918305233881
5845 1 16681143096395229035
6333272 397 18268150859888141721
6992083 37 17541658761204482115
7364860 26 18041283261088126546
7832392 63 18048874392762122289
81228 2 17334466347178533851

> <PUBCHEM_SHAPE_MULTIPOLES>
333.16
5.17
3.25
1.5
5.28
1.39
0.14
-1.55
-0.8
-2.25
0.41
-0.28
-0.41
-0.35

> <PUBCHEM_SHAPE_SELFOVERLAP>
629.358

> <PUBCHEM_SHAPE_VOLUME>
213.8

> <PUBCHEM_COORDINATE_TYPE>
2
5
10

$$$$

