5280617
  -OEChem-07051212482D

 19 18  0     0  0  0  0  0  0999 V2000
    2.5369   -0.2500    0.0000 O   0  0  0  0  0  0  0  0  0  0  0  0
    3.4030   -1.7500    0.0000 O   0  0  0  0  0  0  0  0  0  0  0  0
    3.4030    1.2500    0.0000 O   0  0  0  0  0  0  0  0  0  0  0  0
    5.1350   -1.7500    0.0000 O   0  0  0  0  0  0  0  0  0  0  0  0
    7.7331    1.7500    0.0000 O   0  0  0  0  0  0  0  0  0  0  0  0
    6.0010    1.7500    0.0000 O   0  0  0  0  0  0  0  0  0  0  0  0
    4.2690   -0.2500    0.0000 C   0  0  0  0  0  0  0  0  0  0  0  0
    5.1350    0.2500    0.0000 C   0  0  0  0  0  0  0  0  0  0  0  0
    6.0010   -0.2500    0.0000 C   0  0  0  0  0  0  0  0  0  0  0  0
    3.4030    0.2500    0.0000 C   0  0  0  0  0  0  0  0  0  0  0  0
    4.2690   -1.2500    0.0000 C   0  0  0  0  0  0  0  0  0  0  0  0
    6.8671    0.2500    0.0000 C   0  0  0  0  0  0  0  0  0  0  0  0
    6.8671    1.2500    0.0000 C   0  0  0  0  0  0  0  0  0  0  0  0
    5.1350    0.8700    0.0000 H   0  0  0  0  0  0  0  0  0  0  0  0
    6.0010   -0.8700    0.0000 H   0  0  0  0  0  0  0  0  0  0  0  0
    7.4040   -0.0600    0.0000 H   0  0  0  0  0  0  0  0  0  0  0  0
    2.0000    0.0600    0.0000 H   0  0  0  0  0  0  0  0  0  0  0  0
    3.4030   -2.3700    0.0000 H   0  0  0  0  0  0  0  0  0  0  0  0
    7.7331    2.3700    0.0000 H   0  0  0  0  0  0  0  0  0  0  0  0
  1 10  1  0  0  0  0
  1 17  1  0  0  0  0
  2 11  1  0  0  0  0
  2 18  1  0  0  0  0
  3 10  2  0  0  0  0
  4 11  2  0  0  0  0
  5 13  1  0  0  0  0
  5 19  1  0  0  0  0
  6 13  2  0  0  0  0
  7  8  2  0  0  0  0
  7 10  1  0  0  0  0
  7 11  1  0  0  0  0
  8  9  1  0  0  0  0
  8 14  1  0  0  0  0
  9 12  2  0  0  0  0
  9 15  1  0  0  0  0
 12 13  1  0  0  0  0
 12 16  1  0  0  0  0
M  END
> <PUBCHEM_COMPOUND_CID>
5280617

> <PUBCHEM_COMPOUND_CANONICALIZED>
1

> <PUBCHEM_CACTVS_COMPLEXITY>
282

> <PUBCHEM_CACTVS_HBOND_ACCEPTOR>
6

> <PUBCHEM_CACTVS_HBOND_DONOR>
3

> <PUBCHEM_CACTVS_ROTATABLE_BOND>
4

> <PUBCHEM_CACTVS_SUBSKEYS>
AAADcYBgOAAAAAAAAAAAAAAAAAAAAAAAAAAAAAAAAAAAAAAAAAAAGgAACAAADACAgAAACAAAAgCIAiDSCAAAAAAAAAAICAEAAEAIBAQIAQAAUAABIAAAkYAAAAAAAAAAAAAAAAAAAAAAAAAAAAAAAAAAAA==

> <PUBCHEM_IUPAC_OPENEYE_NAME>
(3Z)-buta-1,3-diene-1,1,4-tricarboxylic acid

> <PUBCHEM_IUPAC_CAS_NAME>
(3Z)-buta-1,3-diene-1,1,4-tricarboxylic acid

> <PUBCHEM_IUPAC_NAME>
(3Z)-buta-1,3-diene-1,1,4-tricarboxylic acid

> <PUBCHEM_IUPAC_SYSTEMATIC_NAME>
(3Z)-buta-1,3-diene-1,1,4-tricarboxylic acid

> <PUBCHEM_IUPAC_TRADITIONAL_NAME>
(3Z)-buta-1,3-diene-1,1,4-tricarboxylic acid

> <PUBCHEM_IUPAC_INCHI>
InChI=1S/C7H6O6/c8-5(9)3-1-2-4(6(10)11)7(12)13/h1-3H,(H,8,9)(H,10,11)(H,12,13)/b3-1-

> <PUBCHEM_IUPAC_INCHIKEY>
SLUDRBHRUDRZJZ-IWQZZHSRSA-N

> <PUBCHEM_XLOGP3_AA>
1

> <PUBCHEM_EXACT_MASS>
186.016438

> <PUBCHEM_MOLECULAR_FORMULA>
C7H6O6

> <PUBCHEM_MOLECULAR_WEIGHT>
186.11894

> <PUBCHEM_OPENEYE_CAN_SMILES>
C(=CC(=O)O)C=C(C(=O)O)C(=O)O

> <PUBCHEM_OPENEYE_ISO_SMILES>
C(=C\C(=O)O)\C=C(C(=O)O)C(=O)O

> <PUBCHEM_CACTVS_TPSA>
112

> <PUBCHEM_MONOISOTOPIC_WEIGHT>
186.016438

> <PUBCHEM_TOTAL_CHARGE>
0

> <PUBCHEM_HEAVY_ATOM_COUNT>
13

> <PUBCHEM_ATOM_DEF_STEREO_COUNT>
0

> <PUBCHEM_ATOM_UDEF_STEREO_COUNT>
0

> <PUBCHEM_BOND_DEF_STEREO_COUNT>
1

> <PUBCHEM_BOND_UDEF_STEREO_COUNT>
0

> <PUBCHEM_ISOTOPIC_ATOM_COUNT>
0

> <PUBCHEM_COMPONENT_COUNT>
1

> <PUBCHEM_CACTVS_TAUTO_COUNT>
1

> <PUBCHEM_COORDINATE_TYPE>
1
5
255

$$$$

