442996
  -OEChem-07051213003D

 30 32  0     1  0  0  0  0  0999 V2000
   -1.3018    1.9101    0.0978 O   0  0  0  0  0  0  0  0  0  0  0  0
   -1.6092   -2.1377   -0.0042 O   0  0  0  0  0  0  0  0  0  0  0  0
    2.0922   -0.2570    0.8846 N   0  0  1  0  0  0  0  0  0  0  0  0
    2.3663    0.8967    0.0032 C   0  0  1  0  0  0  0  0  0  0  0  0
    1.0914   -1.0205    0.0969 C   0  0  2  0  0  0  0  0  0  0  0  0
    2.4608    0.2849   -1.4058 C   0  0  0  0  0  0  0  0  0  0  0  0
    1.6778   -1.0304   -1.3194 C   0  0  0  0  0  0  0  0  0  0  0  0
    1.1460    1.8495    0.1373 C   0  0  0  0  0  0  0  0  0  0  0  0
   -0.2032   -0.2313    0.0807 C   0  0  0  0  0  0  0  0  0  0  0  0
   -0.1747    1.1143    0.1068 C   0  0  0  0  0  0  0  0  0  0  0  0
    3.2888   -1.0295    1.2047 C   0  0  0  0  0  0  0  0  0  0  0  0
   -1.5181   -0.9159    0.0336 C   0  0  0  0  0  0  0  0  0  0  0  0
   -2.7219   -0.0389    0.0306 C   0  0  0  0  0  0  0  0  0  0  0  0
   -2.5245    1.2854    0.0626 C   0  0  0  0  0  0  0  0  0  0  0  0
   -4.0699   -0.6797   -0.0093 C   0  0  0  0  0  0  0  0  0  0  0  0
    3.2775    1.4432    0.2711 H   0  0  0  0  0  0  0  0  0  0  0  0
    0.9325   -2.0251    0.5021 H   0  0  0  0  0  0  0  0  0  0  0  0
    3.5040    0.0710   -1.6665 H   0  0  0  0  0  0  0  0  0  0  0  0
    2.0539    0.9456   -2.1784 H   0  0  0  0  0  0  0  0  0  0  0  0
    0.9168   -1.0965   -2.1051 H   0  0  0  0  0  0  0  0  0  0  0  0
    2.3605   -1.8780   -1.4531 H   0  0  0  0  0  0  0  0  0  0  0  0
    1.1712    2.5980   -0.6634 H   0  0  0  0  0  0  0  0  0  0  0  0
    1.2144    2.3872    1.0917 H   0  0  0  0  0  0  0  0  0  0  0  0
    3.9812   -0.4166    1.7921 H   0  0  0  0  0  0  0  0  0  0  0  0
    3.8299   -1.3993    0.3281 H   0  0  0  0  0  0  0  0  0  0  0  0
    3.0245   -1.8903    1.8287 H   0  0  0  0  0  0  0  0  0  0  0  0
   -3.3214    2.0165    0.0627 H   0  0  0  0  0  0  0  0  0  0  0  0
   -4.8739    0.0639   -0.0077 H   0  0  0  0  0  0  0  0  0  0  0  0
   -4.2123   -1.3263    0.8626 H   0  0  0  0  0  0  0  0  0  0  0  0
   -4.1788   -1.2864   -0.9141 H   0  0  0  0  0  0  0  0  0  0  0  0
  1 10  1  0  0  0  0
  1 14  1  0  0  0  0
  2 12  2  0  0  0  0
  3  4  1  0  0  0  0
  3  5  1  0  0  0  0
  3 11  1  0  0  0  0
  4  6  1  0  0  0  0
  4  8  1  0  0  0  0
  4 16  1  0  0  0  0
  5  7  1  0  0  0  0
  5  9  1  0  0  0  0
  5 17  1  0  0  0  0
  6  7  1  0  0  0  0
  6 18  1  0  0  0  0
  6 19  1  0  0  0  0
  7 20  1  0  0  0  0
  7 21  1  0  0  0  0
  8 10  1  0  0  0  0
  8 22  1  0  0  0  0
  8 23  1  0  0  0  0
  9 10  2  0  0  0  0
  9 12  1  0  0  0  0
 11 24  1  0  0  0  0
 11 25  1  0  0  0  0
 11 26  1  0  0  0  0
 12 13  1  0  0  0  0
 13 14  2  0  0  0  0
 13 15  1  0  0  0  0
 14 27  1  0  0  0  0
 15 28  1  0  0  0  0
 15 29  1  0  0  0  0
 15 30  1  0  0  0  0
M  END
> <PUBCHEM_COMPOUND_CID>
442996

> <PUBCHEM_CONFORMER_RMSD>
0.4

> <PUBCHEM_CONFORMER_DIVERSEORDER>
2
1

> <PUBCHEM_MMFF94_PARTIAL_CHARGES>
14
1 -0.15
10 -0.06
11 0.27
12 0.54
13 -0.12
14 -0.07
15 0.14
2 -0.57
27 0.15
3 -0.81
4 0.27
5 0.41
8 0.14
9 -0.12

> <PUBCHEM_EFFECTIVE_ROTOR_COUNT>
0.8

> <PUBCHEM_PHARMACOPHORE_FEATURES>
5
1 1 acceptor
1 2 acceptor
1 3 cation
6 1 9 10 12 13 14 rings
8 3 4 5 6 7 8 9 10 rings

> <PUBCHEM_HEAVY_ATOM_COUNT>
15

> <PUBCHEM_ATOM_DEF_STEREO_COUNT>
0

> <PUBCHEM_ATOM_UDEF_STEREO_COUNT>
2

> <PUBCHEM_BOND_DEF_STEREO_COUNT>
0

> <PUBCHEM_BOND_UDEF_STEREO_COUNT>
0

> <PUBCHEM_ISOTOPIC_ATOM_COUNT>
0

> <PUBCHEM_COMPONENT_COUNT>
1

> <PUBCHEM_CACTVS_TAUTO_COUNT>
3

> <PUBCHEM_CONFORMER_ID>
0006C27400000002

> <PUBCHEM_MMFF94_ENERGY>
33.0479

> <PUBCHEM_FEATURE_SELFOVERLAP>
25.377

> <PUBCHEM_SHAPE_FINGERPRINT>
10967382 1 18338235951429756689
11132069 177 18187928417325185761
11578080 2 17344378672611111204
12251169 10 18410586067195187450
12382932 28 18261112958756719057
12423570 1 6017844765175095716
12524768 44 18335132047352895117
13140716 1 18264772052139904819
13221675 6 18337944602349521885
13538477 17 18201999893569507707
13581323 91 18412552032482211290
14115302 16 17704069581810713363
14144814 61 18410571786444739361
15219456 202 17677336142234711758
15775835 57 18131625703362600637
16945 1 18408318895503664925
17990270 104 18261104171248441036
1813 80 17058371621046230098
18186145 218 18042115613308236073
18522853 295 18411976970831843483
20201158 50 18261107465562184055
20510252 161 18186798110603017529
20559304 39 18342459257196494546
20645476 183 17702932661144428759
21501502 16 18411418397334130105
21501925 9 18410866463839655625
22721475 48 18335693932149269113
22802520 49 17679851884657330351
232386 152 18341336664599111994
2334 1 17832705677866011291
23402539 116 18262537956133862791
23419403 2 15801089742080062327
23463225 33 18342462572789823802
23552423 10 18055913195382743261
23559900 14 17684082870728277742
2748010 2 17976819779325716789
528886 8 18262234408982464686
53812654 25 18409457985144316770
7364860 26 18261672567579427448
77492 1 17774714367899633958
8030462 33 18060128838758740396

> <PUBCHEM_SHAPE_MULTIPOLES>
291.97
5.31
1.84
1.01
2.67
0.27
0.17
-1.03
-0.38
0.29
-0.07
-0.98
-0.2
-0.24

> <PUBCHEM_SHAPE_SELFOVERLAP>
634.704

> <PUBCHEM_SHAPE_VOLUME>
161.4

> <PUBCHEM_COORDINATE_TYPE>
2
5
10

$$$$

