14200
  -OEChem-06241222423D

 41 44  0     0  0  0  0  0  0999 V2000
   -1.4998   -1.6527    1.3152 S   0  0  0  0  0  0  0  0  0  0  0  0
    0.0585   -1.3228    1.6631 O   0  0  0  0  0  0  0  0  0  0  0  0
   -2.2362   -1.6417    2.5644 O   0  0  0  0  0  0  0  0  0  0  0  0
   -1.5421   -2.7951    0.4238 O   0  0  0  0  0  0  0  0  0  0  0  0
    2.1570    3.0602    1.0889 O   0  0  0  0  0  0  0  0  0  0  0  0
    0.2456    0.5638    0.3858 N   0  0  0  0  0  0  0  0  0  0  0  0
    0.9795    1.1067   -0.4721 N   0  0  0  0  0  0  0  0  0  0  0  0
   -3.3910   -0.1249   -0.0144 C   0  0  0  0  0  0  0  0  0  0  0  0
   -2.0477   -0.2679    0.3700 C   0  0  0  0  0  0  0  0  0  0  0  0
   -3.7769    1.0054   -0.7736 C   0  0  0  0  0  0  0  0  0  0  0  0
   -1.0988    0.6897    0.0111 C   0  0  0  0  0  0  0  0  0  0  0  0
   -2.8083    1.9594   -1.1260 C   0  0  0  0  0  0  0  0  0  0  0  0
    3.0902   -0.1267   -0.5023 C   0  0  0  0  0  0  0  0  0  0  0  0
   -1.4783    1.8013   -0.7355 C   0  0  0  0  0  0  0  0  0  0  0  0
   -4.3595   -1.0787    0.3381 C   0  0  0  0  0  0  0  0  0  0  0  0
    4.4451   -0.2178   -0.1034 C   0  0  0  0  0  0  0  0  0  0  0  0
   -5.1200    1.1486   -1.1580 C   0  0  0  0  0  0  0  0  0  0  0  0
    2.3276    0.9804   -0.0959 C   0  0  0  0  0  0  0  0  0  0  0  0
   -5.6895   -0.9206   -0.0524 C   0  0  0  0  0  0  0  0  0  0  0  0
   -6.0691    0.1909   -0.7991 C   0  0  0  0  0  0  0  0  0  0  0  0
    2.8924    1.9831    0.6925 C   0  0  0  0  0  0  0  0  0  0  0  0
    4.9972    0.8009    0.6902 C   0  0  0  0  0  0  0  0  0  0  0  0
    2.5381   -1.1452   -1.2961 C   0  0  0  0  0  0  0  0  0  0  0  0
    5.2078   -1.3247   -0.5099 C   0  0  0  0  0  0  0  0  0  0  0  0
    4.2247    1.8936    1.0849 C   0  0  0  0  0  0  0  0  0  0  0  0
    3.3106   -2.2378   -1.6909 C   0  0  0  0  0  0  0  0  0  0  0  0
    4.6428   -2.3274   -1.2985 C   0  0  0  0  0  0  0  0  0  0  0  0
   -3.0843    2.8388   -1.7045 H   0  0  0  0  0  0  0  0  0  0  0  0
   -0.7819    2.5871   -1.0177 H   0  0  0  0  0  0  0  0  0  0  0  0
   -4.1292   -1.9733    0.9069 H   0  0  0  0  0  0  0  0  0  0  0  0
   -5.4392    2.0093   -1.7420 H   0  0  0  0  0  0  0  0  0  0  0  0
   -6.4289   -1.6669    0.2238 H   0  0  0  0  0  0  0  0  0  0  0  0
   -7.1045    0.3130   -1.1034 H   0  0  0  0  0  0  0  0  0  0  0  0
    6.0364    0.7516    1.0085 H   0  0  0  0  0  0  0  0  0  0  0  0
    1.5026   -1.1127   -1.6270 H   0  0  0  0  0  0  0  0  0  0  0  0
    6.2511   -1.4155   -0.2150 H   0  0  0  0  0  0  0  0  0  0  0  0
    4.6705    2.6715    1.6988 H   0  0  0  0  0  0  0  0  0  0  0  0
    2.8718   -3.0186   -2.3053 H   0  0  0  0  0  0  0  0  0  0  0  0
    5.2436   -3.1782   -1.6062 H   0  0  0  0  0  0  0  0  0  0  0  0
    0.2047   -0.5906    2.3074 H   0  0  0  0  0  0  0  0  0  0  0  0
    1.2571    2.9635    0.7322 H   0  0  0  0  0  0  0  0  0  0  0  0
  1  2  1  0  0  0  0
  1  3  2  0  0  0  0
  1  4  2  0  0  0  0
  1  9  1  0  0  0  0
  2 40  1  0  0  0  0
  5 21  1  0  0  0  0
  5 41  1  0  0  0  0
  6  7  2  0  0  0  0
  6 11  1  0  0  0  0
  7 18  1  0  0  0  0
  8  9  1  0  0  0  0
  8 10  1  0  0  0  0
  8 15  2  0  0  0  0
  9 11  2  0  0  0  0
 10 12  1  0  0  0  0
 10 17  2  0  0  0  0
 11 14  1  0  0  0  0
 12 14  2  0  0  0  0
 12 28  1  0  0  0  0
 13 16  1  0  0  0  0
 13 18  1  0  0  0  0
 13 23  2  0  0  0  0
 14 29  1  0  0  0  0
 15 19  1  0  0  0  0
 15 30  1  0  0  0  0
 16 22  1  0  0  0  0
 16 24  2  0  0  0  0
 17 20  1  0  0  0  0
 17 31  1  0  0  0  0
 18 21  2  0  0  0  0
 19 20  2  0  0  0  0
 19 32  1  0  0  0  0
 20 33  1  0  0  0  0
 21 25  1  0  0  0  0
 22 25  2  0  0  0  0
 22 34  1  0  0  0  0
 23 26  1  0  0  0  0
 23 35  1  0  0  0  0
 24 27  1  0  0  0  0
 24 36  1  0  0  0  0
 25 37  1  0  0  0  0
 26 27  2  0  0  0  0
 26 38  1  0  0  0  0
 27 39  1  0  0  0  0
M  END
> <PUBCHEM_COMPOUND_CID>
14200

> <PUBCHEM_CONFORMER_RMSD>
0.6

> <PUBCHEM_CONFORMER_DIVERSEORDER>
1
6
3
5
10
7
8
2
11
9
4

> <PUBCHEM_MMFF94_PARTIAL_CHARGES>
37
1 1.49
11 0.18
12 -0.15
14 -0.15
15 -0.15
17 -0.15
18 0.18
19 -0.15
2 -0.68
20 -0.15
21 0.08
22 -0.15
23 -0.15
24 -0.15
25 -0.15
26 -0.15
27 -0.15
28 0.15
29 0.15
3 -0.65
30 0.15
31 0.15
32 0.15
33 0.15
34 0.15
35 0.15
36 0.15
37 0.15
38 0.15
39 0.15
4 -0.65
40 0.5
41 0.45
5 -0.53
6 -0.18
7 -0.18
9 -0.01

> <PUBCHEM_EFFECTIVE_ROTOR_COUNT>
3

> <PUBCHEM_PHARMACOPHORE_FEATURES>
9
1 2 acceptor
1 3 acceptor
1 4 acceptor
1 5 donor
4 1 2 3 4 anion
6 13 16 18 21 22 25 rings
6 13 16 23 24 26 27 rings
6 8 10 15 17 19 20 rings
6 8 9 10 11 12 14 rings

> <PUBCHEM_HEAVY_ATOM_COUNT>
27

> <PUBCHEM_ATOM_DEF_STEREO_COUNT>
0

> <PUBCHEM_ATOM_UDEF_STEREO_COUNT>
0

> <PUBCHEM_BOND_DEF_STEREO_COUNT>
0

> <PUBCHEM_BOND_UDEF_STEREO_COUNT>
0

> <PUBCHEM_ISOTOPIC_ATOM_COUNT>
0

> <PUBCHEM_COMPONENT_COUNT>
1

> <PUBCHEM_CACTVS_TAUTO_COUNT>
3

> <PUBCHEM_CONFORMER_ID>
0000377800000001

> <PUBCHEM_MMFF94_ENERGY>
86.6181

> <PUBCHEM_FEATURE_SELFOVERLAP>
45.779

> <PUBCHEM_SHAPE_FINGERPRINT>
10366900 7 18335126593018917788
108634 29 18343579638191635650
11578080 2 16880495669918093723
11828532 37 17987796294380141411
12166972 35 17022903484435622522
12236239 1 15864068767091270916
12422481 6 18052225472819182435
12596602 18 15791739555290158412
13402501 40 18411702088640338852
13533116 47 17821728329736092720
13544592 145 18413106169173206237
1361 2 18113905961137488031
13617811 41 17346882278009779277
140371 6 18338231561942538776
14251757 17 18410575123370616858
14294032 229 16772118171133255357
14790565 3 17187004736004549301
14866123 147 17540806630981747304
14910302 57 18130510824415563126
15361156 5 18341323409981883949
15635459 17 18335696157285336742
15961568 22 17774439378841597452
17349148 13 16370719340172139236
17844677 252 18040712597558447693
200 152 17603868922497244229
20645477 70 18259984886108030014
21033650 10 17344903233988715036
21279426 13 18339366378517336445
21285901 2 18341895229301474852
21781051 124 16988546993374012131
221357 26 18336830882780345101
22182313 1 18271231725903021659
22393880 68 18199476626511665933
23559900 14 18343580711865199844
23569914 152 17255430608891304895
239999 70 18412548708689207484
3004659 81 18201998863547288830
3298306 158 18270966855032649447
3380486 145 18120080698522586211
4015057 19 18187652366702603865
404807 14 17175160727524098775
4403749 210 17683257863397746320
46194498 28 18342459231833444876
495365 180 17896330125346625632
508706 21 18131629010830095447
5104073 3 18041845133105146328
513532 50 18335435581640685586
5283173 99 18340208591244009213
9709674 26 18411417276342131326

> <PUBCHEM_SHAPE_MULTIPOLES>
526.06
13.11
2.73
1.52
4.14
0.02
-0.43
-1.51
3
-2
-0.19
0.05
-0.59
3.27

> <PUBCHEM_SHAPE_SELFOVERLAP>
1174.158

> <PUBCHEM_SHAPE_VOLUME>
279.2

> <PUBCHEM_COORDINATE_TYPE>
2
5
10

$$$$

