135313
  -OEChem-07051212483D

 24 23  0     1  0  0  0  0  0999 V2000
   -0.3989    2.9004    0.7710 O   0  0  0  0  0  0  0  0  0  0  0  0
   -1.2876    2.2297   -1.2055 O   0  0  0  0  0  0  0  0  0  0  0  0
    3.6199   -0.7442   -1.1871 O   0  0  0  0  0  0  0  0  0  0  0  0
    3.2449   -0.7908    1.0539 O   0  0  0  0  0  0  0  0  0  0  0  0
   -1.4079   -0.3247   -0.4887 N   0  0  0  0  0  0  0  0  0  0  0  0
   -2.6354   -2.2379   -0.9287 N   0  0  0  0  0  0  0  0  0  0  0  0
   -2.2894   -1.7131    1.2622 N   0  0  0  0  0  0  0  0  0  0  0  0
    0.5921    0.0891    0.8275 C   0  0  0  0  0  0  0  0  0  0  0  0
   -0.8301    0.5699    0.5198 C   0  0  1  0  0  0  0  0  0  0  0  0
    1.4801   -0.0309   -0.4106 C   0  0  0  0  0  0  0  0  0  0  0  0
   -0.8803    1.9589   -0.0842 C   0  0  0  0  0  0  0  0  0  0  0  0
    2.8559   -0.5552   -0.0825 C   0  0  0  0  0  0  0  0  0  0  0  0
   -2.0633   -1.3511   -0.0472 C   0  0  0  0  0  0  0  0  0  0  0  0
    1.0629    0.7759    1.5425 H   0  0  0  0  0  0  0  0  0  0  0  0
    0.5446   -0.8862    1.3286 H   0  0  0  0  0  0  0  0  0  0  0  0
   -1.4347    0.6319    1.4314 H   0  0  0  0  0  0  0  0  0  0  0  0
    1.6024    0.9484   -0.8855 H   0  0  0  0  0  0  0  0  0  0  0  0
    1.0366   -0.7235   -1.1339 H   0  0  0  0  0  0  0  0  0  0  0  0
   -0.4252    3.7985    0.3773 H   0  0  0  0  0  0  0  0  0  0  0  0
   -2.5542   -2.1055   -1.9309 H   0  0  0  0  0  0  0  0  0  0  0  0
   -3.1523   -3.0484   -0.6056 H   0  0  0  0  0  0  0  0  0  0  0  0
   -2.8285   -2.5441    1.4819 H   0  0  0  0  0  0  0  0  0  0  0  0
   -1.9126   -1.2037    2.0522 H   0  0  0  0  0  0  0  0  0  0  0  0
    4.5108   -1.0872   -0.9617 H   0  0  0  0  0  0  0  0  0  0  0  0
  1 11  1  0  0  0  0
  1 19  1  0  0  0  0
  2 11  2  0  0  0  0
  3 12  1  0  0  0  0
  3 24  1  0  0  0  0
  4 12  2  0  0  0  0
  5  9  1  0  0  0  0
  5 13  2  0  0  0  0
  6 13  1  0  0  0  0
  6 20  1  0  0  0  0
  6 21  1  0  0  0  0
  7 13  1  0  0  0  0
  7 22  1  0  0  0  0
  7 23  1  0  0  0  0
  8  9  1  0  0  0  0
  8 10  1  0  0  0  0
  8 14  1  0  0  0  0
  8 15  1  0  0  0  0
  9 11  1  0  0  0  0
  9 16  1  0  0  0  0
 10 12  1  0  0  0  0
 10 17  1  0  0  0  0
 10 18  1  0  0  0  0
M  END
> <PUBCHEM_COMPOUND_CID>
135313

> <PUBCHEM_CONFORMER_RMSD>
0.6

> <PUBCHEM_CONFORMER_DIVERSEORDER>
1
45
37
50
26
36
35
52
8
27
19
33
6
29
24
23
13
10
12
39
15
44
25
30
47
41
16
18
34
53
43
21
22
49
4
38
28
46
54
5
2
31
42
51
11
20
32
40
17
48
9
7
3
14

> <PUBCHEM_MMFF94_PARTIAL_CHARGES>
18
1 -0.65
10 0.06
11 0.66
12 0.66
13 0.55
19 0.5
2 -0.57
20 0.4
21 0.4
22 0.4
23 0.4
24 0.5
3 -0.65
4 -0.57
5 -0.7
6 -0.85
7 -0.85
9 0.31

> <PUBCHEM_EFFECTIVE_ROTOR_COUNT>
5

> <PUBCHEM_PHARMACOPHORE_FEATURES>
9
1 1 acceptor
1 2 acceptor
1 3 acceptor
1 4 acceptor
1 6 donor
1 7 donor
3 1 2 11 anion
3 3 4 12 anion
4 5 6 7 13 cation

> <PUBCHEM_HEAVY_ATOM_COUNT>
13

> <PUBCHEM_ATOM_DEF_STEREO_COUNT>
1

> <PUBCHEM_ATOM_UDEF_STEREO_COUNT>
0

> <PUBCHEM_BOND_DEF_STEREO_COUNT>
0

> <PUBCHEM_BOND_UDEF_STEREO_COUNT>
0

> <PUBCHEM_ISOTOPIC_ATOM_COUNT>
0

> <PUBCHEM_COMPONENT_COUNT>
1

> <PUBCHEM_CACTVS_TAUTO_COUNT>
2

> <PUBCHEM_CONFORMER_ID>
0002109100000001

> <PUBCHEM_MMFF94_ENERGY>
24.7593

> <PUBCHEM_FEATURE_SELFOVERLAP>
45.842

> <PUBCHEM_SHAPE_FINGERPRINT>
1 1 17116356715281780653
12138202 97 18194966472415892700
12716758 59 18046349905442808242
12932764 1 18270110340259527272
18534176 82 18189900988119040820
20281407 28 18186516583886206230
20361792 2 18265613191214521543
20645477 70 17616549363064029615
20711985 344 18340779216377282873
20871998 184 18335971077688136687
21061003 4 17240763978090213522
21524375 3 17623012704053242977
23557571 272 18335426772678578744
23598294 1 18339918320179122642
2748010 2 18264502714397945825
7364860 26 17685777913297593187
81228 2 18411698828633697193

> <PUBCHEM_SHAPE_MULTIPOLES>
229.11
4.64
2.61
1.14
4.23
1.61
0.01
-3.43
-0.59
-2.26
-0.11
0.03
-0.1
0.15

> <PUBCHEM_SHAPE_SELFOVERLAP>
446.07

> <PUBCHEM_SHAPE_VOLUME>
135.5

> <PUBCHEM_COORDINATE_TYPE>
2
5
10

$$$$

