5462508
  -OEChem-07051213023D

 37 41  0     1  0  0  0  0  0999 V2000
    1.6752    0.8046    1.1609 O   0  0  0  0  0  0  0  0  0  0  0  0
    1.9973    2.9599   -0.2809 O   0  0  0  0  0  0  0  0  0  0  0  0
    3.7247   -1.1425    0.5011 O   0  0  0  0  0  0  0  0  0  0  0  0
   -3.2946   -0.7570    0.5126 N   0  0  0  0  0  0  0  0  0  0  0  0
   -0.6996    0.5545    0.6797 C   0  0  2  0  0  0  0  0  0  0  0  0
   -1.7410    0.9306   -0.3843 C   0  0  2  0  0  0  0  0  0  0  0  0
    0.4331    1.5674    0.9672 C   0  0  2  0  0  0  0  0  0  0  0  0
   -2.5451   -0.3648   -0.6988 C   0  0  1  0  0  0  0  0  0  0  0  0
    0.1493   -0.5486    0.1367 C   0  0  0  0  0  0  0  0  0  0  0  0
   -1.4282    0.0917    1.9568 C   0  0  0  0  0  0  0  0  0  0  0  0
   -1.6700   -1.5361   -1.2480 C   0  0  0  0  0  0  0  0  0  0  0  0
   -0.2657   -1.5655   -0.7060 C   0  0  0  0  0  0  0  0  0  0  0  0
   -2.4519   -1.0185    1.6802 C   0  0  0  0  0  0  0  0  0  0  0  0
    0.6140    2.6534   -0.1252 C   0  0  2  0  0  0  0  0  0  0  0  0
   -1.0993    1.5758   -1.5857 C   0  0  0  0  0  0  0  0  0  0  0  0
    1.4663   -0.3736    0.4968 C   0  0  0  0  0  0  0  0  0  0  0  0
   -0.0090    2.3473   -1.4612 C   0  0  0  0  0  0  0  0  0  0  0  0
    0.6918   -2.5065   -1.0882 C   0  0  0  0  0  0  0  0  0  0  0  0
    2.4273   -1.2930    0.1376 C   0  0  0  0  0  0  0  0  0  0  0  0
    2.0255   -2.3790   -0.6511 C   0  0  0  0  0  0  0  0  0  0  0  0
   -2.4383    1.6775    0.0241 H   0  0  0  0  0  0  0  0  0  0  0  0
    0.2559    2.0841    1.9193 H   0  0  0  0  0  0  0  0  0  0  0  0
   -3.3026   -0.1359   -1.4595 H   0  0  0  0  0  0  0  0  0  0  0  0
   -1.9512    0.9518    2.3960 H   0  0  0  0  0  0  0  0  0  0  0  0
   -0.7176   -0.2624    2.7147 H   0  0  0  0  0  0  0  0  0  0  0  0
   -1.5967   -1.4145   -2.3370 H   0  0  0  0  0  0  0  0  0  0  0  0
   -2.1597   -2.5013   -1.0699 H   0  0  0  0  0  0  0  0  0  0  0  0
   -1.9407   -1.9812    1.5637 H   0  0  0  0  0  0  0  0  0  0  0  0
   -3.0981   -1.1281    2.5587 H   0  0  0  0  0  0  0  0  0  0  0  0
    0.1347    3.5750    0.2280 H   0  0  0  0  0  0  0  0  0  0  0  0
   -3.8598   -1.5821    0.3139 H   0  0  0  0  0  0  0  0  0  0  0  0
   -1.5552    1.4448   -2.5621 H   0  0  0  0  0  0  0  0  0  0  0  0
    0.3980    2.8325   -2.3437 H   0  0  0  0  0  0  0  0  0  0  0  0
    0.4228   -3.3282   -1.7463 H   0  0  0  0  0  0  0  0  0  0  0  0
    2.7570   -3.1199   -0.9655 H   0  0  0  0  0  0  0  0  0  0  0  0
    2.4490    2.1500   -0.5737 H   0  0  0  0  0  0  0  0  0  0  0  0
    3.8019   -0.3297    1.0304 H   0  0  0  0  0  0  0  0  0  0  0  0
  1  7  1  0  0  0  0
  1 16  1  0  0  0  0
  2 14  1  0  0  0  0
  2 36  1  0  0  0  0
  3 19  1  0  0  0  0
  3 37  1  0  0  0  0
  4  8  1  0  0  0  0
  4 13  1  0  0  0  0
  4 31  1  0  0  0  0
  5  6  1  0  0  0  0
  5  7  1  0  0  0  0
  5  9  1  0  0  0  0
  5 10  1  0  0  0  0
  6  8  1  0  0  0  0
  6 15  1  0  0  0  0
  6 21  1  0  0  0  0
  7 14  1  0  0  0  0
  7 22  1  0  0  0  0
  8 11  1  0  0  0  0
  8 23  1  0  0  0  0
  9 12  2  0  0  0  0
  9 16  1  0  0  0  0
 10 13  1  0  0  0  0
 10 24  1  0  0  0  0
 10 25  1  0  0  0  0
 11 12  1  0  0  0  0
 11 26  1  0  0  0  0
 11 27  1  0  0  0  0
 12 18  1  0  0  0  0
 13 28  1  0  0  0  0
 13 29  1  0  0  0  0
 14 17  1  0  0  0  0
 14 30  1  0  0  0  0
 15 17  2  0  0  0  0
 15 32  1  0  0  0  0
 16 19  2  0  0  0  0
 17 33  1  0  0  0  0
 18 20  2  0  0  0  0
 18 34  1  0  0  0  0
 19 20  1  0  0  0  0
 20 35  1  0  0  0  0
M  END
> <PUBCHEM_COMPOUND_CID>
5462508

> <PUBCHEM_CONFORMER_RMSD>
0.6

> <PUBCHEM_CONFORMER_DIVERSEORDER>
1

> <PUBCHEM_MMFF94_PARTIAL_CHARGES>
26
1 -0.36
11 0.14
12 -0.14
13 0.27
14 0.42
15 -0.29
16 0.08
17 -0.29
18 -0.15
19 0.08
2 -0.68
20 -0.15
3 -0.53
31 0.36
32 0.15
33 0.15
34 0.15
35 0.15
36 0.4
37 0.45
4 -0.9
5 0.14
6 0.14
7 0.28
8 0.27
9 -0.14

> <PUBCHEM_EFFECTIVE_ROTOR_COUNT>
1.2

> <PUBCHEM_PHARMACOPHORE_FEATURES>
11
1 1 acceptor
1 2 acceptor
1 2 donor
1 3 donor
1 4 cation
1 4 donor
5 1 5 7 9 16 rings
6 4 5 6 8 10 13 rings
6 5 6 7 14 15 17 rings
6 5 6 8 9 11 12 rings
6 9 12 16 18 19 20 rings

> <PUBCHEM_HEAVY_ATOM_COUNT>
20

> <PUBCHEM_ATOM_DEF_STEREO_COUNT>
5

> <PUBCHEM_ATOM_UDEF_STEREO_COUNT>
0

> <PUBCHEM_BOND_DEF_STEREO_COUNT>
0

> <PUBCHEM_BOND_UDEF_STEREO_COUNT>
0

> <PUBCHEM_ISOTOPIC_ATOM_COUNT>
0

> <PUBCHEM_COMPONENT_COUNT>
1

> <PUBCHEM_CACTVS_TAUTO_COUNT>
3

> <PUBCHEM_CONFORMER_ID>
005359EC00000001

> <PUBCHEM_MMFF94_ENERGY>
66.7998

> <PUBCHEM_FEATURE_SELFOVERLAP>
57.988

> <PUBCHEM_SHAPE_FINGERPRINT>
10863032 1 17172947380683930597
10948715 1 17183907411099737773
11578080 2 15437131855480308713
12035758 1 18196938979423756129
12403814 3 18411144662146852370
12423570 1 14358088680205680801
12592029 89 17910665467359356633
13024252 1 16843589711780884715
13140716 1 18116442444300238682
13172582 1 18333452044956826178
13299463 15 17538869265412318950
141345 1 16115123873639872157
14142880 1 17971757928370744432
14181834 199 18337666395864100703
144361 1 17765465074244619721
14817 1 12713645680615582477
15881359 60 18045818725004058515
16945 1 17324103441633641915
19868273 325 18269269239022197998
2334 1 17901400986694897494
23419403 2 17917418775309490873
23493267 7 17840310244055453250
23559900 14 16240121866446935294
2748010 2 18191324842818307006
427121 178 16171928544198658947
576247 118 18127946767705417115
5845 1 17907547535798090993
81228 2 17838035362628440464
90525 40 17333930850618885389

> <PUBCHEM_SHAPE_MULTIPOLES>
389
3.69
3.06
1.59
1.23
1.64
0.21
-1.94
0.67
1.04
-1.09
-0.77
0.03
0.57

> <PUBCHEM_SHAPE_SELFOVERLAP>
890.079

> <PUBCHEM_SHAPE_VOLUME>
198.3

> <PUBCHEM_COORDINATE_TYPE>
2
5
10

$$$$

