9952
  -OEChem-06261204123D

 50 50  0     0  0  0  0  0  0999 V2000
   -6.1497   -1.0415   -0.2565 F   0  0  0  0  0  0  0  0  0  0  0  0
   -0.4588    1.4781   -0.5055 O   0  0  0  0  0  0  0  0  0  0  0  0
   -1.0492    2.3071    1.5593 O   0  0  0  0  0  0  0  0  0  0  0  0
    2.5597   -0.2231   -0.6951 N   0  0  0  0  0  0  0  0  0  0  0  0
    2.3230   -1.6622   -0.5686 C   0  0  0  0  0  0  0  0  0  0  0  0
    3.9861    0.0542   -0.8147 C   0  0  0  0  0  0  0  0  0  0  0  0
    1.8323    0.3115   -1.8477 C   0  0  0  0  0  0  0  0  0  0  0  0
    0.9457   -1.9223    0.0389 C   0  0  0  0  0  0  0  0  0  0  0  0
    4.6507    0.0191    0.5604 C   0  0  0  0  0  0  0  0  0  0  0  0
    1.6022    1.8101   -1.6799 C   0  0  0  0  0  0  0  0  0  0  0  0
    0.6692   -3.4213    0.1603 C   0  0  0  0  0  0  0  0  0  0  0  0
    6.1526    0.2865    0.4554 C   0  0  0  0  0  0  0  0  0  0  0  0
    0.8081    2.1154   -0.4171 C   0  0  0  0  0  0  0  0  0  0  0  0
   -0.6854   -3.6885    0.7968 C   0  0  0  0  0  0  0  0  0  0  0  0
    6.8155    0.2884    1.8236 C   0  0  0  0  0  0  0  0  0  0  0  0
   -1.2942    1.6564    0.5553 C   0  0  0  0  0  0  0  0  0  0  0  0
   -2.5781    0.9421    0.3410 C   0  0  0  0  0  0  0  0  0  0  0  0
   -3.5765    0.9953    1.3136 C   0  0  0  0  0  0  0  0  0  0  0  0
   -2.7862    0.2188   -0.8334 C   0  0  0  0  0  0  0  0  0  0  0  0
   -4.7831    0.3252    1.1118 C   0  0  0  0  0  0  0  0  0  0  0  0
   -3.9927   -0.4513   -1.0352 C   0  0  0  0  0  0  0  0  0  0  0  0
   -4.9912   -0.3982   -0.0626 C   0  0  0  0  0  0  0  0  0  0  0  0
    3.0580   -2.1352    0.0919 H   0  0  0  0  0  0  0  0  0  0  0  0
    2.4196   -2.1651   -1.5402 H   0  0  0  0  0  0  0  0  0  0  0  0
    4.4735   -0.6516   -1.5007 H   0  0  0  0  0  0  0  0  0  0  0  0
    4.1692    1.0520   -1.2292 H   0  0  0  0  0  0  0  0  0  0  0  0
    2.3786    0.1214   -2.7815 H   0  0  0  0  0  0  0  0  0  0  0  0
    0.8548   -0.1616   -1.9864 H   0  0  0  0  0  0  0  0  0  0  0  0
    0.8913   -1.4600    1.0331 H   0  0  0  0  0  0  0  0  0  0  0  0
    0.1444   -1.4775   -0.5595 H   0  0  0  0  0  0  0  0  0  0  0  0
    4.1909    0.7770    1.2080 H   0  0  0  0  0  0  0  0  0  0  0  0
    4.5069   -0.9478    1.0540 H   0  0  0  0  0  0  0  0  0  0  0  0
    1.0359    2.1617   -2.5516 H   0  0  0  0  0  0  0  0  0  0  0  0
    2.5420    2.3712   -1.6690 H   0  0  0  0  0  0  0  0  0  0  0  0
    0.6991   -3.8867   -0.8318 H   0  0  0  0  0  0  0  0  0  0  0  0
    1.4490   -3.8971    0.7663 H   0  0  0  0  0  0  0  0  0  0  0  0
    6.6238   -0.4788   -0.1723 H   0  0  0  0  0  0  0  0  0  0  0  0
    6.3266    1.2552   -0.0275 H   0  0  0  0  0  0  0  0  0  0  0  0
    1.3376    1.7843    0.4834 H   0  0  0  0  0  0  0  0  0  0  0  0
    0.6574    3.1994   -0.3477 H   0  0  0  0  0  0  0  0  0  0  0  0
   -0.7365   -3.2630    1.8041 H   0  0  0  0  0  0  0  0  0  0  0  0
   -0.8624   -4.7658    0.8735 H   0  0  0  0  0  0  0  0  0  0  0  0
   -1.4927   -3.2532    0.1989 H   0  0  0  0  0  0  0  0  0  0  0  0
    6.3881    1.0653    2.4657 H   0  0  0  0  0  0  0  0  0  0  0  0
    7.8882    0.4818    1.7246 H   0  0  0  0  0  0  0  0  0  0  0  0
    6.6894   -0.6779    2.3223 H   0  0  0  0  0  0  0  0  0  0  0  0
   -3.4342    1.5534    2.2352 H   0  0  0  0  0  0  0  0  0  0  0  0
   -2.0362    0.1497   -1.6161 H   0  0  0  0  0  0  0  0  0  0  0  0
   -5.5608    0.3663    1.8686 H   0  0  0  0  0  0  0  0  0  0  0  0
   -4.1553   -1.0152   -1.9490 H   0  0  0  0  0  0  0  0  0  0  0  0
  1 22  1  0  0  0  0
  2 13  1  0  0  0  0
  2 16  1  0  0  0  0
  3 16  2  0  0  0  0
  4  5  1  0  0  0  0
  4  6  1  0  0  0  0
  4  7  1  0  0  0  0
  5  8  1  0  0  0  0
  5 23  1  0  0  0  0
  5 24  1  0  0  0  0
  6  9  1  0  0  0  0
  6 25  1  0  0  0  0
  6 26  1  0  0  0  0
  7 10  1  0  0  0  0
  7 27  1  0  0  0  0
  7 28  1  0  0  0  0
  8 11  1  0  0  0  0
  8 29  1  0  0  0  0
  8 30  1  0  0  0  0
  9 12  1  0  0  0  0
  9 31  1  0  0  0  0
  9 32  1  0  0  0  0
 10 13  1  0  0  0  0
 10 33  1  0  0  0  0
 10 34  1  0  0  0  0
 11 14  1  0  0  0  0
 11 35  1  0  0  0  0
 11 36  1  0  0  0  0
 12 15  1  0  0  0  0
 12 37  1  0  0  0  0
 12 38  1  0  0  0  0
 13 39  1  0  0  0  0
 13 40  1  0  0  0  0
 14 41  1  0  0  0  0
 14 42  1  0  0  0  0
 14 43  1  0  0  0  0
 15 44  1  0  0  0  0
 15 45  1  0  0  0  0
 15 46  1  0  0  0  0
 16 17  1  0  0  0  0
 17 18  2  0  0  0  0
 17 19  1  0  0  0  0
 18 20  1  0  0  0  0
 18 47  1  0  0  0  0
 19 21  2  0  0  0  0
 19 48  1  0  0  0  0
 20 22  2  0  0  0  0
 20 49  1  0  0  0  0
 21 22  1  0  0  0  0
 21 50  1  0  0  0  0
M  END
> <PUBCHEM_COMPOUND_CID>
9952

> <PUBCHEM_CONFORMER_RMSD>
1

> <PUBCHEM_CONFORMER_DIVERSEORDER>
1
86
62
72
39
43
66
95
10
109
35
51
123
114
105
13
6
53
106
25
18
60
104
78
120
24
82
49
50
85
40
112
11
67
17
90
91
32
102
29
30
107
42
70
63
58
97
94
57
100
110
37
96
99
84
7
47
108
44
4
101
118
88
48
33
52
28
55
75
73
2
111
92
80
89
103
98
71
87
20
115
21
14
121
54
41
116
61
27
117
93
5
79
26
77
59
3
23
38
76
68
65
81
64
69
83
19
46
113
122
45
8
15
119
22
34
36
56
12
74
9
31
16

> <PUBCHEM_MMFF94_PARTIAL_CHARGES>
19
1 -0.19
13 0.28
16 0.63
17 0.09
18 -0.15
19 -0.15
2 -0.43
20 -0.15
21 -0.15
22 0.19
3 -0.57
4 -0.81
47 0.15
48 0.15
49 0.15
5 0.27
50 0.15
6 0.27
7 0.27

> <PUBCHEM_EFFECTIVE_ROTOR_COUNT>
12

> <PUBCHEM_PHARMACOPHORE_FEATURES>
5
1 14 hydrophobe
1 15 hydrophobe
1 3 acceptor
1 4 cation
6 17 18 19 20 21 22 rings

> <PUBCHEM_HEAVY_ATOM_COUNT>
22

> <PUBCHEM_ATOM_DEF_STEREO_COUNT>
0

> <PUBCHEM_ATOM_UDEF_STEREO_COUNT>
0

> <PUBCHEM_BOND_DEF_STEREO_COUNT>
0

> <PUBCHEM_BOND_UDEF_STEREO_COUNT>
0

> <PUBCHEM_ISOTOPIC_ATOM_COUNT>
0

> <PUBCHEM_COMPONENT_COUNT>
1

> <PUBCHEM_CACTVS_TAUTO_COUNT>
1

> <PUBCHEM_CONFORMER_ID>
000026E000000001

> <PUBCHEM_MMFF94_ENERGY>
29.6157

> <PUBCHEM_FEATURE_SELFOVERLAP>
25.371

> <PUBCHEM_SHAPE_FINGERPRINT>
1100329 8 18339924788552792358
11578080 2 18046919443597448425
11646440 116 18261946367243618347
12596602 18 17385999607074533243
12838862 33 18337690662809079095
12838863 1 18341905060308028875
14178342 30 18123742312766997508
14251751 18 16128362749357627544
14341114 328 17748828548825951752
14787075 74 18113340786807647368
14863182 85 18268975622637588102
15183329 4 12319463207817308008
15475509 84 17554873387632362314
17349148 13 18130494310535575084
17834072 8 11743840278941950532
20028762 73 18334574629360270694
20511986 3 18115593789412642069
21304304 249 18342178860757669950
21315763 178 18334009523812573501
22079108 93 18113345206750851704
22224240 67 18334300859818009104
23559900 14 14620504584837261484
392239 28 18187085053109753024

> <PUBCHEM_SHAPE_MULTIPOLES>
428.76
13
3.05
1.53
6.86
3.2
-0.03
-0.67
-4.85
-0.24
-0.43
0.81
-0.59
-0.57

> <PUBCHEM_SHAPE_SELFOVERLAP>
846.889

> <PUBCHEM_SHAPE_VOLUME>
257.5

> <PUBCHEM_COORDINATE_TYPE>
2
5
10

$$$$

