46173796
  -OEChem-07051213022D

 93 95  0     1  0  0  0  0  0999 V2000
    3.2108   -4.3249    0.0000 O   0  0  0  0  0  0  0  0  0  0  0  0
    3.1406   -1.2766    0.0000 O   0  0  0  0  0  0  0  0  0  0  0  0
    4.4304   -2.6710    0.0000 O   0  0  0  0  0  0  0  0  0  0  0  0
    4.5864   -0.1945    0.0000 O   0  0  0  0  0  0  0  0  0  0  0  0
    6.0217    0.3081    0.0000 O   0  0  0  0  0  0  0  0  0  0  0  0
   10.7919    1.7162    0.0000 O   0  0  0  0  0  0  0  0  0  0  0  0
    9.0338   -1.3562    0.0000 O   0  0  0  0  0  0  0  0  0  0  0  0
    9.8878    3.2131    0.0000 O   0  0  0  0  0  0  0  0  0  0  0  0
    6.3049    1.5394    0.0000 O   0  0  0  0  0  0  0  0  0  0  0  0
    5.5603    3.7268    0.0000 O   0  0  0  0  0  0  0  0  0  0  0  0
    7.2923    3.7177    0.0000 N   0  0  0  0  0  0  0  0  0  0  0  0
    3.4262   -2.7529    0.0000 C   0  0  1  0  0  0  0  0  0  0  0  0
    3.9216   -3.6215    0.0000 C   0  0  1  0  0  0  0  0  0  0  0  0
    3.9307   -1.8895    0.0000 C   0  0  1  0  0  0  0  0  0  0  0  0
    4.9216   -3.6268    0.0000 C   0  0  1  0  0  0  0  0  0  0  0  0
    4.8980   -1.6358    0.0000 C   0  0  1  0  0  0  0  0  0  0  0  0
    5.4261   -2.7635    0.0000 C   0  0  2  0  0  0  0  0  0  0  0  0
    5.4026   -0.7724    0.0000 C   0  0  2  0  0  0  0  0  0  0  0  0
    2.4616   -2.4890    0.0000 C   0  0  0  0  0  0  0  0  0  0  0  0
    6.4261   -2.7687    0.0000 C   0  0  1  0  0  0  0  0  0  0  0  0
    5.6249   -4.3376    0.0000 C   0  0  0  0  0  0  0  0  0  0  0  0
    6.4026   -0.7777    0.0000 C   0  0  1  0  0  0  0  0  0  0  0  0
    5.7826   -2.1022    0.0000 C   0  0  0  0  0  0  0  0  0  0  0  0
    7.2895   -3.2733    0.0000 C   0  0  0  0  0  0  0  0  0  0  0  0
    6.4314   -1.7687    0.0000 C   0  0  0  0  0  0  0  0  0  0  0  0
    6.9723   -1.7767    0.0000 C   0  0  0  0  0  0  0  0  0  0  0  0
    6.4078    0.2223    0.0000 C   0  0  0  0  0  0  0  0  0  0  0  0
    7.3000   -1.2733    0.0000 C   0  0  0  0  0  0  0  0  0  0  0  0
    9.9398    0.1646    0.0000 C   0  0  3  0  0  0  0  0  0  0  0  0
    7.2710   -0.3238    0.0000 C   0  0  0  0  0  0  0  0  0  0  0  0
    8.1396    0.1716    0.0000 C   0  0  0  0  0  0  0  0  0  0  0  0
    9.9317    1.2062    0.0000 C   0  0  3  0  0  0  0  0  0  0  0  0
    5.5445    0.7268    0.0000 C   0  0  0  0  0  0  0  0  0  0  0  0
    9.0217    1.7131    0.0000 C   0  0  0  0  0  0  0  0  0  0  0  0
    8.1557    1.2131    0.0000 C   0  0  0  0  0  0  0  0  0  0  0  0
    9.0377   -0.3562    0.0000 C   0  0  0  0  0  0  0  0  0  0  0  0
    8.1924   -1.7247    0.0000 C   0  0  0  0  0  0  0  0  0  0  0  0
   10.8077   -0.3320    0.0000 C   0  0  0  0  0  0  0  0  0  0  0  0
    9.0217    2.7131    0.0000 C   0  0  0  0  0  0  0  0  0  0  0  0
    7.2897    1.7131    0.0000 C   0  0  0  0  0  0  0  0  0  0  0  0
    5.5497    1.7268    0.0000 C   0  0  0  0  0  0  0  0  0  0  0  0
    8.1557    3.2131    0.0000 C   0  0  0  0  0  0  0  0  0  0  0  0
    7.2897    2.7131    0.0000 C   0  0  0  0  0  0  0  0  0  0  0  0
    6.4184    2.2222    0.0000 C   0  0  0  0  0  0  0  0  0  0  0  0
    6.4237    3.2222    0.0000 C   0  0  0  0  0  0  0  0  0  0  0  0
    7.1684    2.2185    0.0000 C   0  0  0  0  0  0  0  0  0  0  0  0
    2.9164   -3.1058    0.0000 H   0  0  0  0  0  0  0  0  0  0  0  0
    3.9724   -4.2395    0.0000 H   0  0  0  0  0  0  0  0  0  0  0  0
    3.7997   -1.2835    0.0000 H   0  0  0  0  0  0  0  0  0  0  0  0
    4.8642   -4.2442    0.0000 H   0  0  0  0  0  0  0  0  0  0  0  0
    4.4386   -2.0522    0.0000 H   0  0  0  0  0  0  0  0  0  0  0  0
    5.0732   -2.2537    0.0000 H   0  0  0  0  0  0  0  0  0  0  0  0
    5.2453   -0.1727    0.0000 H   0  0  0  0  0  0  0  0  0  0  0  0
    2.2980   -3.0870    0.0000 H   0  0  0  0  0  0  0  0  0  0  0  0
    1.8636   -2.3253    0.0000 H   0  0  0  0  0  0  0  0  0  0  0  0
    2.6252   -1.8910    0.0000 H   0  0  0  0  0  0  0  0  0  0  0  0
    6.5305   -3.3799    0.0000 H   0  0  0  0  0  0  0  0  0  0  0  0
    6.0656   -3.9016    0.0000 H   0  0  0  0  0  0  0  0  0  0  0  0
    6.0610   -4.7784    0.0000 H   0  0  0  0  0  0  0  0  0  0  0  0
    5.1842   -4.7737    0.0000 H   0  0  0  0  0  0  0  0  0  0  0  0
    7.0225   -0.7809    0.0000 H   0  0  0  0  0  0  0  0  0  0  0  0
    6.0717   -1.5538    0.0000 H   0  0  0  0  0  0  0  0  0  0  0  0
    6.3310   -2.3914    0.0000 H   0  0  0  0  0  0  0  0  0  0  0  0
    5.4934   -2.6506    0.0000 H   0  0  0  0  0  0  0  0  0  0  0  0
    2.6127   -4.1613    0.0000 H   0  0  0  0  0  0  0  0  0  0  0  0
    2.5665   -1.5108    0.0000 H   0  0  0  0  0  0  0  0  0  0  0  0
    7.6023   -2.7380    0.0000 H   0  0  0  0  0  0  0  0  0  0  0  0
    7.8248   -3.5861    0.0000 H   0  0  0  0  0  0  0  0  0  0  0  0
    6.9767   -3.8086    0.0000 H   0  0  0  0  0  0  0  0  0  0  0  0
    5.8961   -1.4559    0.0000 H   0  0  0  0  0  0  0  0  0  0  0  0
    7.5108   -1.4695    0.0000 H   0  0  0  0  0  0  0  0  0  0  0  0
    7.2794   -2.3152    0.0000 H   0  0  0  0  0  0  0  0  0  0  0  0
    6.4337   -2.0838    0.0000 H   0  0  0  0  0  0  0  0  0  0  0  0
    4.3731   -3.2884    0.0000 H   0  0  0  0  0  0  0  0  0  0  0  0
    4.0232   -0.4536    0.0000 H   0  0  0  0  0  0  0  0  0  0  0  0
    6.9464    0.5294    0.0000 H   0  0  0  0  0  0  0  0  0  0  0  0
   10.4749    0.4777    0.0000 H   0  0  0  0  0  0  0  0  0  0  0  0
   10.4716    0.9014    0.0000 H   0  0  0  0  0  0  0  0  0  0  0  0
    5.0059    0.4197    0.0000 H   0  0  0  0  0  0  0  0  0  0  0  0
    8.4722   -1.1714    0.0000 H   0  0  0  0  0  0  0  0  0  0  0  0
    8.7456   -2.0045    0.0000 H   0  0  0  0  0  0  0  0  0  0  0  0
    7.9126   -2.2779    0.0000 H   0  0  0  0  0  0  0  0  0  0  0  0
   11.1156    0.2061    0.0000 H   0  0  0  0  0  0  0  0  0  0  0  0
   11.3458   -0.6399    0.0000 H   0  0  0  0  0  0  0  0  0  0  0  0
   10.4998   -0.8701    0.0000 H   0  0  0  0  0  0  0  0  0  0  0  0
    5.0144    2.0397    0.0000 H   0  0  0  0  0  0  0  0  0  0  0  0
    6.7527    3.0231    0.0000 H   0  0  0  0  0  0  0  0  0  0  0  0
    6.2012    0.9015    0.0000 H   0  0  0  0  0  0  0  0  0  0  0  0
   11.3324    1.4125    0.0000 H   0  0  0  0  0  0  0  0  0  0  0  0
    7.2956    4.3376    0.0000 H   0  0  0  0  0  0  0  0  0  0  0  0
    7.1715    2.8385    0.0000 H   0  0  0  0  0  0  0  0  0  0  0  0
    7.7884    2.2154    0.0000 H   0  0  0  0  0  0  0  0  0  0  0  0
    7.1653    1.5985    0.0000 H   0  0  0  0  0  0  0  0  0  0  0  0
 13  1  1  1  0  0  0
  1 65  1  0  0  0  0
 14  2  1  6  0  0  0
  2 66  1  0  0  0  0
 17  3  1  1  0  0  0
  3 74  1  0  0  0  0
 18  4  1  1  0  0  0
  4 75  1  0  0  0  0
  5 30  1  0  0  0  0
  5 88  1  0  0  0  0
  6 32  1  0  0  0  0
  6 89  1  0  0  0  0
  7 36  2  0  0  0  0
  8 39  2  0  0  0  0
  9 40  2  0  0  0  0
 10 45  2  0  0  0  0
 11 42  1  0  0  0  0
 11 45  1  0  0  0  0
 11 90  1  0  0  0  0
 12 13  1  0  0  0  0
 12 14  1  0  0  0  0
 12 19  1  6  0  0  0
 12 47  1  0  0  0  0
 13 15  1  0  0  0  0
 13 48  1  0  0  0  0
 14 16  1  0  0  0  0
 14 49  1  0  0  0  0
 15 17  1  0  0  0  0
 15 21  1  1  0  0  0
 15 50  1  0  0  0  0
 16 18  1  0  0  0  0
 16 23  1  1  0  0  0
 16 51  1  0  0  0  0
 17 20  1  0  0  0  0
 17 52  1  0  0  0  0
 18 22  1  0  0  0  0
 18 53  1  0  0  0  0
 19 54  1  0  0  0  0
 19 55  1  0  0  0  0
 19 56  1  0  0  0  0
 20 24  1  6  0  0  0
 20 25  1  0  0  0  0
 20 57  1  0  0  0  0
 21 58  1  0  0  0  0
 21 59  1  0  0  0  0
 21 60  1  0  0  0  0
 22 26  1  6  0  0  0
 22 27  1  0  0  0  0
 22 61  1  0  0  0  0
 23 62  1  0  0  0  0
 23 63  1  0  0  0  0
 23 64  1  0  0  0  0
 24 67  1  0  0  0  0
 24 68  1  0  0  0  0
 24 69  1  0  0  0  0
 25 28  2  0  0  0  0
 25 70  1  0  0  0  0
 26 71  1  0  0  0  0
 26 72  1  0  0  0  0
 26 73  1  0  0  0  0
 27 33  2  0  0  0  0
 27 76  1  0  0  0  0
 28 30  1  0  0  0  0
 28 37  1  0  0  0  0
 29 32  1  0  0  0  0
 29 36  1  0  0  0  0
 29 38  1  0  0  0  0
 29 77  1  0  0  0  0
 30 31  2  0  0  0  0
 31 35  1  0  0  0  0
 31 36  1  0  0  0  0
 32 34  1  0  0  0  0
 32 78  1  0  0  0  0
 33 41  1  0  0  0  0
 33 79  1  0  0  0  0
 34 35  2  0  0  0  0
 34 39  1  0  0  0  0
 35 40  1  0  0  0  0
 37 80  1  0  0  0  0
 37 81  1  0  0  0  0
 37 82  1  0  0  0  0
 38 83  1  0  0  0  0
 38 84  1  0  0  0  0
 38 85  1  0  0  0  0
 39 42  1  0  0  0  0
 40 43  1  0  0  0  0
 41 44  2  0  0  0  0
 41 86  1  0  0  0  0
 42 43  2  0  0  0  0
 43 87  1  0  0  0  0
 44 45  1  0  0  0  0
 44 46  1  0  0  0  0
 46 91  1  0  0  0  0
 46 92  1  0  0  0  0
 46 93  1  0  0  0  0
M  END
> <PUBCHEM_COMPOUND_CID>
46173796

> <PUBCHEM_COMPOUND_CANONICALIZED>
1

> <PUBCHEM_CACTVS_COMPLEXITY>
1460

> <PUBCHEM_CACTVS_HBOND_ACCEPTOR>
10

> <PUBCHEM_CACTVS_HBOND_DONOR>
7

> <PUBCHEM_CACTVS_ROTATABLE_BOND>
0

> <PUBCHEM_CACTVS_SUBSKEYS>
AAADcfB+PAAAAAAAAAAAAAAAAAAAAAAAAAAgQAAAAAAAAAAAAAAAHgAQCAAADRyhgAICAALAAgCIAqVSUACAAAAgIgAICAGAAEgIFBYAgSAEUAAF5ACIkcO56uSuAAAAAAAAAAAAAAAAAAAAAAAAAAAAAA==

> <PUBCHEM_IUPAC_INCHI>
InChI=1S/C35H47NO10/c1-14-10-9-11-15(2)35(46)36-22-13-23(37)24-25(32(43)21(8)33(44)26(24)34(22)45)29(40)17(4)12-16(3)28(39)19(6)31(42)20(7)30(41)18(5)27(14)38/h9-14,16,18-21,27-28,30-31,33,38-42,44H,1-8H3,(H,36,46)/b10-9+,15-11-,17-12+,29-25+/t14-,16-,18+,19+,20+,21?,27-,28-,30+,31+,33?/m0/s1

> <PUBCHEM_IUPAC_INCHIKEY>
FCJSKLXVEWURBD-UUBJLVLJSA-N

> <PUBCHEM_XLOGP3_AA>
1.8

> <PUBCHEM_EXACT_MASS>
641.319997

> <PUBCHEM_MOLECULAR_FORMULA>
C35H47NO10

> <PUBCHEM_MOLECULAR_WEIGHT>
641.74838

> <PUBCHEM_OPENEYE_CAN_SMILES>
CC1C=CC=C(C(=O)NC2=CC(=O)C3=C(C2=O)C(C(C(=O)C3=C(C(=CC(C(C(C(C(C(C(C1O)C)O)C)O)C)O)C)C)O)C)O)C

> <PUBCHEM_OPENEYE_ISO_SMILES>
C[C@H]1/C=C/C=C(\C(=O)NC2=CC(=O)C\3=C(C2=O)C(C(C(=O)/C3=C(\C(=C\[C@@H]([C@@H]([C@H]([C@H]([C@@H]([C@@H]([C@@H]([C@H]1O)C)O)C)O)C)O)C)\C)/O)C)O)/C

> <PUBCHEM_CACTVS_TPSA>
202

> <PUBCHEM_MONOISOTOPIC_WEIGHT>
641.319997

> <PUBCHEM_TOTAL_CHARGE>
0

> <PUBCHEM_HEAVY_ATOM_COUNT>
46

> <PUBCHEM_ATOM_DEF_STEREO_COUNT>
9

> <PUBCHEM_ATOM_UDEF_STEREO_COUNT>
2

> <PUBCHEM_BOND_DEF_STEREO_COUNT>
4

> <PUBCHEM_BOND_UDEF_STEREO_COUNT>
0

> <PUBCHEM_ISOTOPIC_ATOM_COUNT>
0

> <PUBCHEM_COMPONENT_COUNT>
1

> <PUBCHEM_CACTVS_TAUTO_COUNT>
1001

> <PUBCHEM_COORDINATE_TYPE>
1
5
255

> <PUBCHEM_BONDANNOTATIONS>
13  1  5
12  19  6
15  21  5
16  23  5
14  2  6
20  24  6
22  26  6
29  38  3
17  3  5
18  4  5
32  6  3

$$$$

