46173945
  -OEChem-07051213102D

 32 32  0     1  0  0  0  0  0999 V2000
    2.5369    0.9050    0.0000 O   0  0  0  0  0  0  0  0  0  0  0  0
    6.0010    0.9050    0.0000 O   0  0  0  0  0  0  0  0  0  0  0  0
    4.2690   -2.0950    0.0000 O   0  0  0  0  0  0  0  0  0  0  0  0
    6.0010   -1.0950    0.0000 O   0  0  0  0  0  0  0  0  0  0  0  0
    4.2690    1.9050    0.0000 N   0  0  0  0  0  0  0  0  0  0  0  0
    2.5369   -1.0950    0.0000 N   0  0  0  0  0  0  0  0  0  0  0  0
    4.2690    0.9050    0.0000 C   0  0  2  0  0  0  0  0  0  0  0  0
    3.4030   -0.5950    0.0000 C   0  0  1  0  0  0  0  0  0  0  0  0
    3.4030    0.4050    0.0000 C   0  0  0  0  0  0  0  0  0  0  0  0
    4.2690   -1.0950    0.0000 C   0  0  2  0  0  0  0  0  0  0  0  0
    5.1350    0.4050    0.0000 C   0  0  1  0  0  0  0  0  0  0  0  0
    5.1350   -0.5950    0.0000 C   0  0  0  0  0  0  0  0  0  0  0  0
    5.1350    2.4050    0.0000 C   0  0  0  0  0  0  0  0  0  0  0  0
    2.5369   -2.0950    0.0000 C   0  0  0  0  0  0  0  0  0  0  0  0
    4.8059    1.2150    0.0000 H   0  0  0  0  0  0  0  0  0  0  0  0
    3.4030   -1.2150    0.0000 H   0  0  0  0  0  0  0  0  0  0  0  0
    3.4030    1.0250    0.0000 H   0  0  0  0  0  0  0  0  0  0  0  0
    4.8059   -1.4050    0.0000 H   0  0  0  0  0  0  0  0  0  0  0  0
    5.1350    1.0250    0.0000 H   0  0  0  0  0  0  0  0  0  0  0  0
    5.1350   -1.2150    0.0000 H   0  0  0  0  0  0  0  0  0  0  0  0
    3.7320    2.2150    0.0000 H   0  0  0  0  0  0  0  0  0  0  0  0
    2.0000   -0.7850    0.0000 H   0  0  0  0  0  0  0  0  0  0  0  0
    2.5369    1.5250    0.0000 H   0  0  0  0  0  0  0  0  0  0  0  0
    4.8059   -2.4050    0.0000 H   0  0  0  0  0  0  0  0  0  0  0  0
    6.5380    0.5950    0.0000 H   0  0  0  0  0  0  0  0  0  0  0  0
    6.0010   -1.7150    0.0000 H   0  0  0  0  0  0  0  0  0  0  0  0
    5.4450    1.8681    0.0000 H   0  0  0  0  0  0  0  0  0  0  0  0
    5.6720    2.7150    0.0000 H   0  0  0  0  0  0  0  0  0  0  0  0
    4.8250    2.9419    0.0000 H   0  0  0  0  0  0  0  0  0  0  0  0
    1.9169   -2.0950    0.0000 H   0  0  0  0  0  0  0  0  0  0  0  0
    2.5369   -2.7150    0.0000 H   0  0  0  0  0  0  0  0  0  0  0  0
    3.1569   -2.0950    0.0000 H   0  0  0  0  0  0  0  0  0  0  0  0
  1  9  1  0  0  0  0
  1 23  1  0  0  0  0
 11  2  1  6  0  0  0
  2 25  1  0  0  0  0
 10  3  1  6  0  0  0
  3 24  1  0  0  0  0
  4 12  1  0  0  0  0
  4 26  1  0  0  0  0
  7  5  1  1  0  0  0
  5 13  1  0  0  0  0
  5 21  1  0  0  0  0
  8  6  1  1  0  0  0
  6 14  1  0  0  0  0
  6 22  1  0  0  0  0
  7  9  1  0  0  0  0
  7 11  1  0  0  0  0
  7 15  1  0  0  0  0
  8  9  1  0  0  0  0
  8 10  1  0  0  0  0
  8 16  1  0  0  0  0
  9 17  1  0  0  0  0
 10 12  1  0  0  0  0
 10 18  1  0  0  0  0
 11 12  1  0  0  0  0
 11 19  1  0  0  0  0
 12 20  1  0  0  0  0
 13 27  1  0  0  0  0
 13 28  1  0  0  0  0
 13 29  1  0  0  0  0
 14 30  1  0  0  0  0
 14 31  1  0  0  0  0
 14 32  1  0  0  0  0
M  END
> <PUBCHEM_COMPOUND_CID>
46173945

> <PUBCHEM_COMPOUND_CANONICALIZED>
1

> <PUBCHEM_CACTVS_COMPLEXITY>
174

> <PUBCHEM_CACTVS_HBOND_ACCEPTOR>
6

> <PUBCHEM_CACTVS_HBOND_DONOR>
6

> <PUBCHEM_CACTVS_ROTATABLE_BOND>
2

> <PUBCHEM_CACTVS_SUBSKEYS>
AAADceBzOAAAAAAAAAAAAAAAAAAAAAAAAAAwAAAAAAAAAAAAAAAAHgAQCAAACDzhgAYCAALAAgAAAAAAAAAAAAAAAAAAAIAIAAADEAIAwAAEQAAHEAARAAHwcAcAAAAAAAAAAAACgAAUCACgAAAAAAAAAA==

> <PUBCHEM_IUPAC_OPENEYE_NAME>
(1S,3R,4S,6R)-4,6-bis(methylamino)cyclohexane-1,2,3,5-tetrol

> <PUBCHEM_IUPAC_CAS_NAME>
(1S,3R,4S,6R)-4,6-bis(methylamino)cyclohexane-1,2,3,5-tetrol

> <PUBCHEM_IUPAC_NAME>
(1S,3R,4S,6R)-4,6-bis(methylamino)cyclohexane-1,2,3,5-tetrol

> <PUBCHEM_IUPAC_SYSTEMATIC_NAME>
(1S,3R,4S,6R)-4,6-bis(methylamino)cyclohexane-1,2,3,5-tetrol

> <PUBCHEM_IUPAC_TRADITIONAL_NAME>
(1S,3R,4S,6R)-4,6-bis(methylamino)cyclohexane-1,2,3,5-tetrol

> <PUBCHEM_IUPAC_INCHI>
InChI=1S/C8H18N2O4/c1-9-3-5(11)4(10-2)7(13)8(14)6(3)12/h3-14H,1-2H3/t3-,4+,5?,6+,7-,8?

> <PUBCHEM_IUPAC_INCHIKEY>
QRJMLIPXTTYRMQ-YWVWVNHFSA-N

> <PUBCHEM_XLOGP3_AA>
-3.2

> <PUBCHEM_EXACT_MASS>
206.126657

> <PUBCHEM_MOLECULAR_FORMULA>
C8H18N2O4

> <PUBCHEM_MOLECULAR_WEIGHT>
206.23952

> <PUBCHEM_OPENEYE_CAN_SMILES>
CNC1C(C(C(C(C1O)O)O)NC)O

> <PUBCHEM_OPENEYE_ISO_SMILES>
CN[C@@H]1[C@H](C([C@H]([C@@H](C1O)NC)O)O)O

> <PUBCHEM_CACTVS_TPSA>
105

> <PUBCHEM_MONOISOTOPIC_WEIGHT>
206.126657

> <PUBCHEM_TOTAL_CHARGE>
0

> <PUBCHEM_HEAVY_ATOM_COUNT>
14

> <PUBCHEM_ATOM_DEF_STEREO_COUNT>
4

> <PUBCHEM_ATOM_UDEF_STEREO_COUNT>
0

> <PUBCHEM_BOND_DEF_STEREO_COUNT>
0

> <PUBCHEM_BOND_UDEF_STEREO_COUNT>
0

> <PUBCHEM_ISOTOPIC_ATOM_COUNT>
0

> <PUBCHEM_COMPONENT_COUNT>
1

> <PUBCHEM_CACTVS_TAUTO_COUNT>
1

> <PUBCHEM_COORDINATE_TYPE>
1
5
255

> <PUBCHEM_BONDANNOTATIONS>
11  2  6
10  3  6
7  5  5
8  6  5

$$$$

