442854
  -OEChem-07051213002D

 38 41  0     1  0  0  0  0  0999 V2000
    4.6660   -1.5646    0.0000 O   0  0  0  0  0  0  0  0  0  0  0  0
    4.6660    1.4354    0.0000 O   0  0  0  0  0  0  0  0  0  0  0  0
    7.3321   -0.0438    0.0000 N   0  0  3  0  0  0  0  0  0  0  0  0
    6.4260    0.4701    0.0000 C   0  0  1  0  0  0  0  0  0  0  0  0
    5.5321   -0.0646    0.0000 C   0  0  2  0  0  0  0  0  0  0  0  0
    5.5321   -1.0646    0.0000 C   0  0  1  0  0  0  0  0  0  0  0  0
    6.6361    1.4840    0.0000 C   0  0  0  0  0  0  0  0  0  0  0  0
    7.3321   -1.0854    0.0000 C   0  0  0  0  0  0  0  0  0  0  0  0
    8.0944    0.6570    0.0000 C   0  0  0  0  0  0  0  0  0  0  0  0
    6.4260   -1.5993    0.0000 C   0  0  0  0  0  0  0  0  0  0  0  0
    7.6651    1.5993    0.0000 C   0  0  0  0  0  0  0  0  0  0  0  0
    4.6660    0.4354    0.0000 C   0  0  0  0  0  0  0  0  0  0  0  0
    3.8000   -0.0646    0.0000 C   0  0  0  0  0  0  0  0  0  0  0  0
    3.8000   -1.0646    0.0000 C   0  0  0  0  0  0  0  0  0  0  0  0
    2.9061    0.4701    0.0000 C   0  0  0  0  0  0  0  0  0  0  0  0
    2.9061   -1.5993    0.0000 C   0  0  0  0  0  0  0  0  0  0  0  0
    2.0000   -0.0438    0.0000 C   0  0  0  0  0  0  0  0  0  0  0  0
    2.0000   -1.0854    0.0000 C   0  0  0  0  0  0  0  0  0  0  0  0
    2.9176    1.4700    0.0000 C   0  0  0  0  0  0  0  0  0  0  0  0
    5.7332    0.9626    0.0000 H   0  0  0  0  0  0  0  0  0  0  0  0
    5.5255    0.7854    0.0000 H   0  0  0  0  0  0  0  0  0  0  0  0
    5.5255   -1.9146    0.0000 H   0  0  0  0  0  0  0  0  0  0  0  0
    6.6322    2.1040    0.0000 H   0  0  0  0  0  0  0  0  0  0  0  0
    6.0191    1.5453    0.0000 H   0  0  0  0  0  0  0  0  0  0  0  0
    7.5411   -1.6691    0.0000 H   0  0  0  0  0  0  0  0  0  0  0  0
    7.9429   -0.9793    0.0000 H   0  0  0  0  0  0  0  0  0  0  0  0
    8.4637    0.1589    0.0000 H   0  0  0  0  0  0  0  0  0  0  0  0
    8.6285    0.9719    0.0000 H   0  0  0  0  0  0  0  0  0  0  0  0
    6.0214   -2.0690    0.0000 H   0  0  0  0  0  0  0  0  0  0  0  0
    6.8196   -2.0783    0.0000 H   0  0  0  0  0  0  0  0  0  0  0  0
    8.2532    1.7956    0.0000 H   0  0  0  0  0  0  0  0  0  0  0  0
    7.5317    2.2047    0.0000 H   0  0  0  0  0  0  0  0  0  0  0  0
    2.9132   -2.2192    0.0000 H   0  0  0  0  0  0  0  0  0  0  0  0
    1.4643    0.2683    0.0000 H   0  0  0  0  0  0  0  0  0  0  0  0
    1.4643   -1.3975    0.0000 H   0  0  0  0  0  0  0  0  0  0  0  0
    3.5376    1.4628    0.0000 H   0  0  0  0  0  0  0  0  0  0  0  0
    2.9248    2.0900    0.0000 H   0  0  0  0  0  0  0  0  0  0  0  0
    2.2977    1.4772    0.0000 H   0  0  0  0  0  0  0  0  0  0  0  0
  1  6  1  0  0  0  0
  1 14  1  0  0  0  0
  2 12  2  0  0  0  0
  3  4  1  0  0  0  0
  3  8  1  0  0  0  0
  3  9  1  0  0  0  0
  4  5  1  0  0  0  0
  4  7  1  0  0  0  0
  4 20  1  6  0  0  0
  5  6  1  0  0  0  0
  5 12  1  0  0  0  0
  5 21  1  1  0  0  0
  6 10  1  0  0  0  0
  6 22  1  6  0  0  0
  7 11  1  0  0  0  0
  7 23  1  0  0  0  0
  7 24  1  0  0  0  0
  8 10  1  0  0  0  0
  8 25  1  0  0  0  0
  8 26  1  0  0  0  0
  9 11  1  0  0  0  0
  9 27  1  0  0  0  0
  9 28  1  0  0  0  0
 10 29  1  0  0  0  0
 10 30  1  0  0  0  0
 11 31  1  0  0  0  0
 11 32  1  0  0  0  0
 12 13  1  0  0  0  0
 13 14  1  0  0  0  0
 13 15  2  0  0  0  0
 14 16  2  0  0  0  0
 15 17  1  0  0  0  0
 15 19  1  0  0  0  0
 16 18  1  0  0  0  0
 16 33  1  0  0  0  0
 17 18  2  0  0  0  0
 17 34  1  0  0  0  0
 18 35  1  0  0  0  0
 19 36  1  0  0  0  0
 19 37  1  0  0  0  0
 19 38  1  0  0  0  0
M  END
> <PUBCHEM_COMPOUND_CID>
442854

> <PUBCHEM_COMPOUND_CANONICALIZED>
1

> <PUBCHEM_CACTVS_COMPLEXITY>
383

> <PUBCHEM_CACTVS_HBOND_ACCEPTOR>
3

> <PUBCHEM_CACTVS_HBOND_DONOR>
0

> <PUBCHEM_CACTVS_ROTATABLE_BOND>
0

> <PUBCHEM_CACTVS_SUBSKEYS>
AAADceB6MAAAAAAAAAAAAAAAAAAAAWAAAAA8SIAAAAAAAFixAAAAHgAAAAAADTzhmAYyBoMABACIAqBSAAACCAAkIAAIiAEOCMgMJj6EtRqGOWCm4BGIqQeY2fOOgAABAAAYAAAAAAIAADAAAAAAAAAAAA==

> <PUBCHEM_IUPAC_OPENEYE_NAME>
(6aR,12aR,12bR)-11-methyl-1,2,3,5,6,6a,12a,12b-octahydrochromeno[2,3-g]indolizin-12-one

> <PUBCHEM_IUPAC_CAS_NAME>
(6aR,12aR,12bR)-11-methyl-1,2,3,5,6,6a,12a,12b-octahydro[1]benzopyrano[2,3-g]indolizin-12-one

> <PUBCHEM_IUPAC_NAME>
(6aR,12aR,12bR)-11-methyl-1,2,3,5,6,6a,12a,12b-octahydrochromeno[2,3-g]indolizin-12-one

> <PUBCHEM_IUPAC_SYSTEMATIC_NAME>
(6aR,12aR,12bR)-11-methyl-1,2,3,5,6,6a,12a,12b-octahydrochromeno[2,3-g]indolizin-12-one

> <PUBCHEM_IUPAC_TRADITIONAL_NAME>
(6aR,12aR,12bR)-11-methyl-1,2,3,5,6,6a,12a,12b-octahydrochromen[2,3-g]indolizin-12-one

> <PUBCHEM_IUPAC_INCHI>
InChI=1S/C16H19NO2/c1-10-4-2-6-12-14(10)16(18)15-11-5-3-8-17(11)9-7-13(15)19-12/h2,4,6,11,13,15H,3,5,7-9H2,1H3/t11-,13-,15-/m1/s1

> <PUBCHEM_IUPAC_INCHIKEY>
DXTYYNIKCKARPP-UXIGCNINSA-N

> <PUBCHEM_XLOGP3_AA>
2.6

> <PUBCHEM_EXACT_MASS>
257.141579

> <PUBCHEM_MOLECULAR_FORMULA>
C16H19NO2

> <PUBCHEM_MOLECULAR_WEIGHT>
257.32756

> <PUBCHEM_OPENEYE_CAN_SMILES>
CC1=C2C(=CC=C1)OC3CCN4CCCC4C3C2=O

> <PUBCHEM_OPENEYE_ISO_SMILES>
CC1=C2C(=CC=C1)O[C@@H]3CCN4CCC[C@@H]4[C@H]3C2=O

> <PUBCHEM_CACTVS_TPSA>
29.5

> <PUBCHEM_MONOISOTOPIC_WEIGHT>
257.141579

> <PUBCHEM_TOTAL_CHARGE>
0

> <PUBCHEM_HEAVY_ATOM_COUNT>
19

> <PUBCHEM_ATOM_DEF_STEREO_COUNT>
3

> <PUBCHEM_ATOM_UDEF_STEREO_COUNT>
0

> <PUBCHEM_BOND_DEF_STEREO_COUNT>
0

> <PUBCHEM_BOND_UDEF_STEREO_COUNT>
0

> <PUBCHEM_ISOTOPIC_ATOM_COUNT>
0

> <PUBCHEM_COMPONENT_COUNT>
1

> <PUBCHEM_CACTVS_TAUTO_COUNT>
2

> <PUBCHEM_COORDINATE_TYPE>
1
5
255

> <PUBCHEM_BONDANNOTATIONS>
13  14  8
13  15  8
14  16  8
15  17  8
16  18  8
17  18  8
4  20  6
5  21  5
6  22  6

$$$$

