5312889
  -OEChem-07051213082D

 35 34  0     0  0  0  0  0  0999 V2000
   13.2583    0.4400    0.0000 O   0  0  0  0  0  0  0  0  0  0  0  0
   12.3923   -1.0600    0.0000 O   0  0  0  0  0  0  0  0  0  0  0  0
    2.0000   -0.0600    0.0000 O   0  0  0  0  0  0  0  0  0  0  0  0
    8.0622    0.4400    0.0000 C   0  0  0  0  0  0  0  0  0  0  0  0
    8.9282   -0.0600    0.0000 C   0  0  0  0  0  0  0  0  0  0  0  0
    7.1962   -0.0600    0.0000 C   0  0  0  0  0  0  0  0  0  0  0  0
    9.7942    0.4400    0.0000 C   0  0  0  0  0  0  0  0  0  0  0  0
    6.3301    0.4400    0.0000 C   0  0  0  0  0  0  0  0  0  0  0  0
   10.6603   -0.0600    0.0000 C   0  0  0  0  0  0  0  0  0  0  0  0
    5.4641   -0.0600    0.0000 C   0  0  0  0  0  0  0  0  0  0  0  0
   11.5263    0.4400    0.0000 C   0  0  0  0  0  0  0  0  0  0  0  0
    4.5981    0.4400    0.0000 C   0  0  0  0  0  0  0  0  0  0  0  0
   12.3923   -0.0600    0.0000 C   0  0  0  0  0  0  0  0  0  0  0  0
    3.7320   -0.0600    0.0000 C   0  0  0  0  0  0  0  0  0  0  0  0
    2.8660    0.4400    0.0000 C   0  0  0  0  0  0  0  0  0  0  0  0
    8.4607    0.9149    0.0000 H   0  0  0  0  0  0  0  0  0  0  0  0
    7.6636    0.9149    0.0000 H   0  0  0  0  0  0  0  0  0  0  0  0
    8.5297   -0.5349    0.0000 H   0  0  0  0  0  0  0  0  0  0  0  0
    9.3267   -0.5349    0.0000 H   0  0  0  0  0  0  0  0  0  0  0  0
    6.7976   -0.5349    0.0000 H   0  0  0  0  0  0  0  0  0  0  0  0
    7.5947   -0.5349    0.0000 H   0  0  0  0  0  0  0  0  0  0  0  0
   10.1928    0.9149    0.0000 H   0  0  0  0  0  0  0  0  0  0  0  0
    9.3957    0.9149    0.0000 H   0  0  0  0  0  0  0  0  0  0  0  0
    6.7287    0.9149    0.0000 H   0  0  0  0  0  0  0  0  0  0  0  0
    5.9316    0.9149    0.0000 H   0  0  0  0  0  0  0  0  0  0  0  0
   10.2617   -0.5349    0.0000 H   0  0  0  0  0  0  0  0  0  0  0  0
   11.0588   -0.5349    0.0000 H   0  0  0  0  0  0  0  0  0  0  0  0
    5.0656   -0.5349    0.0000 H   0  0  0  0  0  0  0  0  0  0  0  0
    5.8626   -0.5349    0.0000 H   0  0  0  0  0  0  0  0  0  0  0  0
   11.9248    0.9149    0.0000 H   0  0  0  0  0  0  0  0  0  0  0  0
   11.1278    0.9149    0.0000 H   0  0  0  0  0  0  0  0  0  0  0  0
    4.5981    1.0600    0.0000 H   0  0  0  0  0  0  0  0  0  0  0  0
    3.7320   -0.6800    0.0000 H   0  0  0  0  0  0  0  0  0  0  0  0
   13.7953    0.1300    0.0000 H   0  0  0  0  0  0  0  0  0  0  0  0
    2.8660    1.0600    0.0000 H   0  0  0  0  0  0  0  0  0  0  0  0
  1 13  1  0  0  0  0
  1 34  1  0  0  0  0
  2 13  2  0  0  0  0
  3 15  2  0  0  0  0
  4  5  1  0  0  0  0
  4  6  1  0  0  0  0
  4 16  1  0  0  0  0
  4 17  1  0  0  0  0
  5  7  1  0  0  0  0
  5 18  1  0  0  0  0
  5 19  1  0  0  0  0
  6  8  1  0  0  0  0
  6 20  1  0  0  0  0
  6 21  1  0  0  0  0
  7  9  1  0  0  0  0
  7 22  1  0  0  0  0
  7 23  1  0  0  0  0
  8 10  1  0  0  0  0
  8 24  1  0  0  0  0
  8 25  1  0  0  0  0
  9 11  1  0  0  0  0
  9 26  1  0  0  0  0
  9 27  1  0  0  0  0
 10 12  1  0  0  0  0
 10 28  1  0  0  0  0
 10 29  1  0  0  0  0
 11 13  1  0  0  0  0
 11 30  1  0  0  0  0
 11 31  1  0  0  0  0
 12 14  2  0  0  0  0
 12 32  1  0  0  0  0
 14 15  1  0  0  0  0
 14 33  1  0  0  0  0
 15 35  1  0  0  0  0
M  END
> <PUBCHEM_COMPOUND_CID>
5312889

> <PUBCHEM_COMPOUND_CANONICALIZED>
1

> <PUBCHEM_CACTVS_COMPLEXITY>
197

> <PUBCHEM_CACTVS_HBOND_ACCEPTOR>
3

> <PUBCHEM_CACTVS_HBOND_DONOR>
1

> <PUBCHEM_CACTVS_ROTATABLE_BOND>
10

> <PUBCHEM_CACTVS_SUBSKEYS>
AAADceBwMAAAAAAAAAAAAAAAAAAAAAAAAAAAAAAAAAAAAAAAAAAAGgAACAAACACggAIACAAAAgCIACjSiAAAAAAgAAAICAEAAEgAABIAAQAAQAAEgAAIAYOIyKCAAAAAAAAAAAAAAAAAAAAAAAAAAAAAAA==

> <PUBCHEM_IUPAC_OPENEYE_NAME>
(E)-12-oxododec-10-enoic acid

> <PUBCHEM_IUPAC_CAS_NAME>
(E)-12-oxo-10-dodecenoic acid

> <PUBCHEM_IUPAC_NAME>
(E)-12-oxododec-10-enoic acid

> <PUBCHEM_IUPAC_SYSTEMATIC_NAME>
(E)-12-oxidanylidenedodec-10-enoic acid

> <PUBCHEM_IUPAC_TRADITIONAL_NAME>
(E)-12-ketododec-10-enoic acid

> <PUBCHEM_IUPAC_INCHI>
InChI=1S/C12H20O3/c13-11-9-7-5-3-1-2-4-6-8-10-12(14)15/h7,9,11H,1-6,8,10H2,(H,14,15)/b9-7+

> <PUBCHEM_IUPAC_INCHIKEY>
INMKWUNQKOWGEZ-VQHVLOKHSA-N

> <PUBCHEM_XLOGP3>
3

> <PUBCHEM_EXACT_MASS>
212.141245

> <PUBCHEM_MOLECULAR_FORMULA>
C12H20O3

> <PUBCHEM_MOLECULAR_WEIGHT>
212.2854

> <PUBCHEM_OPENEYE_CAN_SMILES>
C(CCCCC(=O)O)CCCC=CC=O

> <PUBCHEM_OPENEYE_ISO_SMILES>
C(CCCCC(=O)O)CCC/C=C/C=O

> <PUBCHEM_CACTVS_TPSA>
54.4

> <PUBCHEM_MONOISOTOPIC_WEIGHT>
212.141245

> <PUBCHEM_TOTAL_CHARGE>
0

> <PUBCHEM_HEAVY_ATOM_COUNT>
15

> <PUBCHEM_ATOM_DEF_STEREO_COUNT>
0

> <PUBCHEM_ATOM_UDEF_STEREO_COUNT>
0

> <PUBCHEM_BOND_DEF_STEREO_COUNT>
1

> <PUBCHEM_BOND_UDEF_STEREO_COUNT>
0

> <PUBCHEM_ISOTOPIC_ATOM_COUNT>
0

> <PUBCHEM_COMPONENT_COUNT>
1

> <PUBCHEM_CACTVS_TAUTO_COUNT>
1

> <PUBCHEM_COORDINATE_TYPE>
1
5
255

$$$$

