656561
  -OEChem-07051212553D

 50 52  0     1  0  0  0  0  0999 V2000
    1.2389   -0.7897    2.2471 S   0  0  0  0  0  0  0  0  0  0  0  0
   -0.0380   -3.5228   -0.8584 S   0  0  0  0  0  0  0  0  0  0  0  0
    1.9673   -0.0894   -0.2270 O   0  0  0  0  0  0  0  0  0  0  0  0
    5.6836    1.3401    0.7899 O   0  0  0  0  0  0  0  0  0  0  0  0
    4.5341    1.9687   -1.8298 O   0  0  0  0  0  0  0  0  0  0  0  0
    3.6252    1.1543    2.8024 O   0  0  0  0  0  0  0  0  0  0  0  0
    0.8363    0.1275   -2.7200 O   0  0  0  0  0  0  0  0  0  0  0  0
    0.3632   -2.4619    0.3152 O   0  0  0  0  0  0  0  0  0  0  0  0
   -1.0660    2.3004   -0.2534 O   0  0  0  0  0  0  0  0  0  0  0  0
    1.3834   -4.2516   -1.1837 O   0  0  0  0  0  0  0  0  0  0  0  0
   -0.4287   -2.7748   -2.0386 O   0  0  0  0  0  0  0  0  0  0  0  0
   -0.9235   -4.5210   -0.2883 O   0  0  0  0  0  0  0  0  0  0  0  0
   -4.7536   -0.2082    1.0813 N   0  0  0  0  0  0  0  0  0  0  0  0
   -0.7086   -1.6281    0.6398 N   0  0  0  0  0  0  0  0  0  0  0  0
    4.2854    1.4338    0.5107 C   0  0  1  0  0  0  0  0  0  0  0  0
    4.0229    0.9903   -0.9289 C   0  0  1  0  0  0  0  0  0  0  0  0
    3.5433    0.5453    1.5142 C   0  0  2  0  0  0  0  0  0  0  0  0
    2.5214    0.8226   -1.1761 C   0  0  1  0  0  0  0  0  0  0  0  0
    2.0730    0.3818    1.1162 C   0  0  2  0  0  0  0  0  0  0  0  0
    2.2372    0.2654   -2.5674 C   0  0  0  0  0  0  0  0  0  0  0  0
   -0.3892   -0.7858    1.5718 C   0  0  0  0  0  0  0  0  0  0  0  0
   -1.3032    0.2685    2.1723 C   0  0  0  0  0  0  0  0  0  0  0  0
   -2.6528    0.2666    1.5160 C   0  0  0  0  0  0  0  0  0  0  0  0
   -3.0266    1.0217    0.3868 C   0  0  0  0  0  0  0  0  0  0  0  0
   -4.3621    0.7053    0.1285 C   0  0  0  0  0  0  0  0  0  0  0  0
   -3.7144   -0.4797    1.9302 C   0  0  0  0  0  0  0  0  0  0  0  0
   -2.3743    1.9467   -0.4525 C   0  0  0  0  0  0  0  0  0  0  0  0
   -5.0807    1.2699   -0.9313 C   0  0  0  0  0  0  0  0  0  0  0  0
   -3.0805    2.5193   -1.5166 C   0  0  0  0  0  0  0  0  0  0  0  0
   -4.4128    2.1847   -1.7505 C   0  0  0  0  0  0  0  0  0  0  0  0
    4.0126    2.4883    0.6425 H   0  0  0  0  0  0  0  0  0  0  0  0
    4.5508    0.0485   -1.1245 H   0  0  0  0  0  0  0  0  0  0  0  0
    4.0514   -0.4266    1.5673 H   0  0  0  0  0  0  0  0  0  0  0  0
    2.0016    1.7858   -1.0806 H   0  0  0  0  0  0  0  0  0  0  0  0
    1.5446    1.3385    1.2099 H   0  0  0  0  0  0  0  0  0  0  0  0
    2.6161    0.9170   -3.3603 H   0  0  0  0  0  0  0  0  0  0  0  0
    2.6762   -0.7302   -2.6883 H   0  0  0  0  0  0  0  0  0  0  0  0
    5.8154    1.6179    1.7126 H   0  0  0  0  0  0  0  0  0  0  0  0
    5.4804    2.0780   -1.6339 H   0  0  0  0  0  0  0  0  0  0  0  0
    3.1366    0.5866    3.4226 H   0  0  0  0  0  0  0  0  0  0  0  0
   -1.4156    0.0545    3.2429 H   0  0  0  0  0  0  0  0  0  0  0  0
   -0.8346    1.2549    2.0944 H   0  0  0  0  0  0  0  0  0  0  0  0
    0.4402    1.0114   -2.6334 H   0  0  0  0  0  0  0  0  0  0  0  0
   -3.8377   -1.1800    2.7445 H   0  0  0  0  0  0  0  0  0  0  0  0
   -5.6750   -0.6189    1.1439 H   0  0  0  0  0  0  0  0  0  0  0  0
   -6.1179    1.0100   -1.1142 H   0  0  0  0  0  0  0  0  0  0  0  0
   -2.5947    3.2348   -2.1757 H   0  0  0  0  0  0  0  0  0  0  0  0
   -4.9424    2.6414   -2.5827 H   0  0  0  0  0  0  0  0  0  0  0  0
   -0.8044    2.9386   -0.9390 H   0  0  0  0  0  0  0  0  0  0  0  0
    1.8945   -4.5505   -0.3953 H   0  0  0  0  0  0  0  0  0  0  0  0
  1 19  1  0  0  0  0
  1 21  1  0  0  0  0
  2  8  1  0  0  0  0
  2 10  1  0  0  0  0
  2 11  2  0  0  0  0
  2 12  2  0  0  0  0
  3 18  1  0  0  0  0
  3 19  1  0  0  0  0
  4 15  1  0  0  0  0
  4 38  1  0  0  0  0
  5 16  1  0  0  0  0
  5 39  1  0  0  0  0
  6 17  1  0  0  0  0
  6 40  1  0  0  0  0
  7 20  1  0  0  0  0
  7 43  1  0  0  0  0
  8 14  1  0  0  0  0
  9 27  1  0  0  0  0
  9 49  1  0  0  0  0
 10 50  1  0  0  0  0
 13 25  1  0  0  0  0
 13 26  1  0  0  0  0
 13 45  1  0  0  0  0
 14 21  2  0  0  0  0
 15 16  1  0  0  0  0
 15 17  1  0  0  0  0
 15 31  1  0  0  0  0
 16 18  1  0  0  0  0
 16 32  1  0  0  0  0
 17 19  1  0  0  0  0
 17 33  1  0  0  0  0
 18 20  1  0  0  0  0
 18 34  1  0  0  0  0
 19 35  1  0  0  0  0
 20 36  1  0  0  0  0
 20 37  1  0  0  0  0
 21 22  1  0  0  0  0
 22 23  1  0  0  0  0
 22 41  1  0  0  0  0
 22 42  1  0  0  0  0
 23 24  1  0  0  0  0
 23 26  2  0  0  0  0
 24 25  2  0  0  0  0
 24 27  1  0  0  0  0
 25 28  1  0  0  0  0
 26 44  1  0  0  0  0
 27 29  2  0  0  0  0
 28 30  2  0  0  0  0
 28 46  1  0  0  0  0
 29 30  1  0  0  0  0
 29 47  1  0  0  0  0
 30 48  1  0  0  0  0
M  END
> <PUBCHEM_COMPOUND_CID>
656561

> <PUBCHEM_CONFORMER_RMSD>
1

> <PUBCHEM_CONFORMER_DIVERSEORDER>
1
20
196
26
22
71
162
89
30
163
39
23
52
152
189
76
138
158
34
180
58
218
118
223
195
220
13
110
67
106
94
101
137
125
221
32
126
86
36
156
129
100
161
57
201
35
115
215
21
194
144
133
198
193
211
49
17
82
18
44
155
64
179
212
217
8
166
175
134
105
206
178
154
222
50
95
19
143
183
117
38
16
214
97
43
150
45
167
46
102
40
83
146
51
172
99
69
62
124
185
80
182
54
41
141
56
142
216
140
42
203
27
184
123
70
4
186
207
224
11
149
170
66
219
6
128
53
37
204
147
108
160
47
120
181
127
112
29
164
77
151
191
7
202
55
148
28
72
197
107
119
200
15
9
25
168
60
61
74
169
199
173
116
187
131
121
210
2
111
85
176
165
153
114
136
81
132
213
24
192
31
104
84
3
157
12
92
130
93
103
63
14
159
135
96
139
190
59
122
87
98
177
91
10
48
174
188
5
208
88
90
113
209
73
78
33
79
171
65
68
205
109
75
145

> <PUBCHEM_MMFF94_PARTIAL_CHARGES>
40
1 -0.37
10 -0.68
11 -0.65
12 -0.65
13 0.03
14 -0.51
15 0.28
16 0.28
17 0.28
18 0.28
19 0.51
2 1.67
20 0.28
21 0.53
22 0.24
23 -0.18
25 -0.15
26 -0.3
27 0.08
28 -0.15
29 -0.15
3 -0.56
30 -0.15
38 0.4
39 0.4
4 -0.68
40 0.4
43 0.4
44 0.15
45 0.27
46 0.15
47 0.15
48 0.15
49 0.45
5 -0.68
50 0.5
6 -0.68
7 -0.68
8 -0.12
9 -0.53

> <PUBCHEM_EFFECTIVE_ROTOR_COUNT>
8.2

> <PUBCHEM_PHARMACOPHORE_FEATURES>
20
1 10 acceptor
1 11 acceptor
1 12 acceptor
1 13 cation
1 13 donor
1 14 acceptor
1 3 acceptor
1 4 acceptor
1 4 donor
1 5 acceptor
1 5 donor
1 6 acceptor
1 6 donor
1 7 acceptor
1 7 donor
1 9 donor
4 2 10 11 12 anion
5 13 23 24 25 26 rings
6 24 25 27 28 29 30 rings
6 3 15 16 17 18 19 rings

> <PUBCHEM_HEAVY_ATOM_COUNT>
30

> <PUBCHEM_ATOM_DEF_STEREO_COUNT>
5

> <PUBCHEM_ATOM_UDEF_STEREO_COUNT>
0

> <PUBCHEM_BOND_DEF_STEREO_COUNT>
0

> <PUBCHEM_BOND_UDEF_STEREO_COUNT>
1

> <PUBCHEM_ISOTOPIC_ATOM_COUNT>
0

> <PUBCHEM_COMPONENT_COUNT>
1

> <PUBCHEM_CACTVS_TAUTO_COUNT>
9

> <PUBCHEM_CONFORMER_ID>
000A04B100000001

> <PUBCHEM_MMFF94_ENERGY>
62.1153

> <PUBCHEM_FEATURE_SELFOVERLAP>
101.657

> <PUBCHEM_SHAPE_FINGERPRINT>
10764073 3 16485027987774291018
12107183 9 16556806292900380168
12422481 6 18058749012529030538
12467345 10 16630526215280430096
12788726 201 17840868473581678062
13149001 5 17677907720566493513
133893 2 17975679894810596027
13911987 19 18334017168153474969
14251764 3 18334296469887036056
17859628 37 16916788555806830866
17980427 23 17632584859353855341
20511986 3 17203339857544805428
20600515 1 17181677081849002182
20715895 44 16915397713007469533
21033648 29 18335715943978708600
21756936 100 17631445658397468336
23559900 14 17912924178276717607
23598288 3 17916302740774001866
238 59 18192703664564325415
26353 1 17110167023052692358
44802255 64 18197754649964469006
469060 322 18338517409907444487
513202 73 12030971177963002728
5951187 136 16978746191300282805
633830 44 17313097562336644105
6669772 16 17967822652144253514

> <PUBCHEM_SHAPE_MULTIPOLES>
556.43
9.71
3.8
2.73
0.1
5.22
-0.07
-8.44
0.56
0.16
-2.78
-1.25
0.21
1.34

> <PUBCHEM_SHAPE_SELFOVERLAP>
1157.062

> <PUBCHEM_SHAPE_VOLUME>
318.5

> <PUBCHEM_COORDINATE_TYPE>
2
5
10

$$$$

