443113
  -OEChem-07051213013D

 77 80  0     1  0  0  0  0  0999 V2000
   -7.4935   -2.6631    0.3734 S   0  0  0  0  0  0  0  0  0  0  0  0
   -6.2265   -1.7576    0.8875 O   0  0  0  0  0  0  0  0  0  0  0  0
   -8.5290   -1.6872    0.0368 O   0  5  0  0  0  0  0  0  0  0  0  0
   -7.8098   -3.4926    1.5352 O   0  0  0  0  0  0  0  0  0  0  0  0
   -6.9702   -3.4107   -0.7691 O   0  0  0  0  0  0  0  0  0  0  0  0
    6.8570   -0.0818    1.4481 O   0  0  0  0  0  0  0  0  0  0  0  0
    8.9602   -2.4808   -0.2173 O   0  0  0  0  0  0  0  0  0  0  0  0
   10.9490   -1.8195    0.6516 O   0  0  0  0  0  0  0  0  0  0  0  0
    8.0310   -0.0630   -0.5571 N   0  0  0  0  0  0  0  0  0  0  0  0
    0.5535    0.8670   -0.4706 C   0  0  1  0  0  0  0  0  0  0  0  0
   -0.3222    1.0838    0.7823 C   0  0  2  0  0  0  0  0  0  0  0  0
   -1.6703    1.7394    0.4623 C   0  0  1  0  0  0  0  0  0  0  0  0
   -2.4532    0.8167   -0.5273 C   0  0  1  0  0  0  0  0  0  0  0  0
   -3.8750    1.3985   -0.8757 C   0  0  2  0  0  0  0  0  0  0  0  0
    1.8089    0.2651    0.2070 C   0  0  2  0  0  0  0  0  0  0  0  0
   -4.6654    1.6695    0.4493 C   0  0  2  0  0  0  0  0  0  0  0  0
   -0.1958   -0.0920   -1.4053 C   0  0  0  0  0  0  0  0  0  0  0  0
   -1.5951    0.4404   -1.7657 C   0  0  0  0  0  0  0  0  0  0  0  0
    0.6220    1.7690    1.7658 C   0  0  0  0  0  0  0  0  0  0  0  0
   -2.4805    2.0034    1.7379 C   0  0  0  0  0  0  0  0  0  0  0  0
    1.9948    1.1360    1.4715 C   0  0  0  0  0  0  0  0  0  0  0  0
   -3.8731    2.5471    1.4327 C   0  0  0  0  0  0  0  0  0  0  0  0
   -4.7120    0.4306   -1.7628 C   0  0  0  0  0  0  0  0  0  0  0  0
    0.9024    2.1699   -1.2331 C   0  0  0  0  0  0  0  0  0  0  0  0
    3.0682    0.1795   -0.6434 C   0  0  1  0  0  0  0  0  0  0  0  0
   -5.1242    0.3711    1.1466 C   0  0  0  0  0  0  0  0  0  0  0  0
   -3.7540    2.7194   -1.6797 C   0  0  0  0  0  0  0  0  0  0  0  0
   -5.1296   -0.8531   -1.0567 C   0  0  0  0  0  0  0  0  0  0  0  0
   -5.9115   -0.5435    0.2135 C   0  0  1  0  0  0  0  0  0  0  0  0
    4.3508    0.0424    0.2020 C   0  0  0  0  0  0  0  0  0  0  0  0
    2.9684   -1.0059   -1.6104 C   0  0  0  0  0  0  0  0  0  0  0  0
    5.6295    0.0209   -0.6361 C   0  0  0  0  0  0  0  0  0  0  0  0
    6.8826   -0.0443    0.2211 C   0  0  0  0  0  0  0  0  0  0  0  0
    9.3620   -0.1304    0.0013 C   0  0  0  0  0  0  0  0  0  0  0  0
    9.8506   -1.5442    0.1846 C   0  0  0  0  0  0  0  0  0  0  0  0
   -0.5507    0.0975    1.2206 H   0  0  0  0  0  0  0  0  0  0  0  0
   -1.4879    2.7114   -0.0063 H   0  0  0  0  0  0  0  0  0  0  0  0
   -2.6113   -0.1317    0.0047 H   0  0  0  0  0  0  0  0  0  0  0  0
    1.5648   -0.7477    0.5633 H   0  0  0  0  0  0  0  0  0  0  0  0
   -5.5807    2.2229    0.1933 H   0  0  0  0  0  0  0  0  0  0  0  0
    0.3297   -0.2276   -2.3521 H   0  0  0  0  0  0  0  0  0  0  0  0
   -0.2974   -1.0814   -0.9426 H   0  0  0  0  0  0  0  0  0  0  0  0
   -2.1003   -0.3380   -2.3475 H   0  0  0  0  0  0  0  0  0  0  0  0
   -1.4881    1.3033   -2.4304 H   0  0  0  0  0  0  0  0  0  0  0  0
    0.6552    2.8520    1.6014 H   0  0  0  0  0  0  0  0  0  0  0  0
    0.3226    1.6004    2.8052 H   0  0  0  0  0  0  0  0  0  0  0  0
   -2.5612    1.0842    2.3300 H   0  0  0  0  0  0  0  0  0  0  0  0
   -1.9547    2.7294    2.3697 H   0  0  0  0  0  0  0  0  0  0  0  0
    2.7088    1.9532    1.3237 H   0  0  0  0  0  0  0  0  0  0  0  0
    2.3390    0.5320    2.3182 H   0  0  0  0  0  0  0  0  0  0  0  0
   -3.7783    3.5604    1.0244 H   0  0  0  0  0  0  0  0  0  0  0  0
   -4.4313    2.6550    2.3709 H   0  0  0  0  0  0  0  0  0  0  0  0
   -4.1788    0.1817   -2.6866 H   0  0  0  0  0  0  0  0  0  0  0  0
   -5.6274    0.9460   -2.0873 H   0  0  0  0  0  0  0  0  0  0  0  0
    1.5331    2.8451   -0.6464 H   0  0  0  0  0  0  0  0  0  0  0  0
    1.4335    1.9489   -2.1658 H   0  0  0  0  0  0  0  0  0  0  0  0
    0.0150    2.7396   -1.5210 H   0  0  0  0  0  0  0  0  0  0  0  0
    3.1965    1.0894   -1.2379 H   0  0  0  0  0  0  0  0  0  0  0  0
   -4.2752   -0.1866    1.5587 H   0  0  0  0  0  0  0  0  0  0  0  0
   -5.7504    0.6161    2.0146 H   0  0  0  0  0  0  0  0  0  0  0  0
   -4.7415    3.1685   -1.8402 H   0  0  0  0  0  0  0  0  0  0  0  0
   -3.3198    2.5485   -2.6702 H   0  0  0  0  0  0  0  0  0  0  0  0
   -3.1414    3.4716   -1.1774 H   0  0  0  0  0  0  0  0  0  0  0  0
   -5.7427   -1.4407   -1.7479 H   0  0  0  0  0  0  0  0  0  0  0  0
   -4.2599   -1.4801   -0.8288 H   0  0  0  0  0  0  0  0  0  0  0  0
   -6.8346   -0.0138   -0.0507 H   0  0  0  0  0  0  0  0  0  0  0  0
    4.2970   -0.8692    0.8115 H   0  0  0  0  0  0  0  0  0  0  0  0
    4.4474    0.8766    0.9037 H   0  0  0  0  0  0  0  0  0  0  0  0
    3.8512   -1.0895   -2.2498 H   0  0  0  0  0  0  0  0  0  0  0  0
    2.1433   -0.9107   -2.3101 H   0  0  0  0  0  0  0  0  0  0  0  0
    2.8550   -1.9530   -1.0720 H   0  0  0  0  0  0  0  0  0  0  0  0
    5.6606   -0.8579   -1.2875 H   0  0  0  0  0  0  0  0  0  0  0  0
    5.6863    0.9184   -1.2630 H   0  0  0  0  0  0  0  0  0  0  0  0
    7.9441   -0.0483   -1.5692 H   0  0  0  0  0  0  0  0  0  0  0  0
   10.0316    0.3837   -0.6938 H   0  0  0  0  0  0  0  0  0  0  0  0
    9.3694    0.3696    0.9743 H   0  0  0  0  0  0  0  0  0  0  0  0
    9.3014   -3.3914   -0.0882 H   0  0  0  0  0  0  0  0  0  0  0  0
  1  2  1  0  0  0  0
  1  3  1  0  0  0  0
  1  4  2  0  0  0  0
  1  5  2  0  0  0  0
  2 29  1  0  0  0  0
  6 33  2  0  0  0  0
  7 35  1  0  0  0  0
  7 77  1  0  0  0  0
  8 35  2  0  0  0  0
  9 33  1  0  0  0  0
  9 34  1  0  0  0  0
  9 74  1  0  0  0  0
 10 11  1  0  0  0  0
 10 15  1  0  0  0  0
 10 17  1  0  0  0  0
 10 24  1  0  0  0  0
 11 12  1  0  0  0  0
 11 19  1  0  0  0  0
 11 36  1  0  0  0  0
 12 13  1  0  0  0  0
 12 20  1  0  0  0  0
 12 37  1  0  0  0  0
 13 14  1  0  0  0  0
 13 18  1  0  0  0  0
 13 38  1  0  0  0  0
 14 16  1  0  0  0  0
 14 23  1  0  0  0  0
 14 27  1  0  0  0  0
 15 21  1  0  0  0  0
 15 25  1  0  0  0  0
 15 39  1  0  0  0  0
 16 22  1  0  0  0  0
 16 26  1  0  0  0  0
 16 40  1  0  0  0  0
 17 18  1  0  0  0  0
 17 41  1  0  0  0  0
 17 42  1  0  0  0  0
 18 43  1  0  0  0  0
 18 44  1  0  0  0  0
 19 21  1  0  0  0  0
 19 45  1  0  0  0  0
 19 46  1  0  0  0  0
 20 22  1  0  0  0  0
 20 47  1  0  0  0  0
 20 48  1  0  0  0  0
 21 49  1  0  0  0  0
 21 50  1  0  0  0  0
 22 51  1  0  0  0  0
 22 52  1  0  0  0  0
 23 28  1  0  0  0  0
 23 53  1  0  0  0  0
 23 54  1  0  0  0  0
 24 55  1  0  0  0  0
 24 56  1  0  0  0  0
 24 57  1  0  0  0  0
 25 30  1  0  0  0  0
 25 31  1  0  0  0  0
 25 58  1  0  0  0  0
 26 29  1  0  0  0  0
 26 59  1  0  0  0  0
 26 60  1  0  0  0  0
 27 61  1  0  0  0  0
 27 62  1  0  0  0  0
 27 63  1  0  0  0  0
 28 29  1  0  0  0  0
 28 64  1  0  0  0  0
 28 65  1  0  0  0  0
 29 66  1  0  0  0  0
 30 32  1  0  0  0  0
 30 67  1  0  0  0  0
 30 68  1  0  0  0  0
 31 69  1  0  0  0  0
 31 70  1  0  0  0  0
 31 71  1  0  0  0  0
 32 33  1  0  0  0  0
 32 72  1  0  0  0  0
 32 73  1  0  0  0  0
 34 35  1  0  0  0  0
 34 75  1  0  0  0  0
 34 76  1  0  0  0  0
M  CHG  1   3  -1
M  END
> <PUBCHEM_COMPOUND_CID>
443113

> <PUBCHEM_CONFORMER_RMSD>
1.2

> <PUBCHEM_CONFORMER_DIVERSEORDER>
1
6
9
12
3
4
7
10
11
8
2
5

> <PUBCHEM_MMFF94_PARTIAL_CHARGES>
16
1 1.63
2 -0.46
29 0.28
3 -0.82
32 0.06
33 0.57
34 0.36
35 0.66
4 -0.82
5 -0.82
6 -0.57
7 -0.65
74 0.37
77 0.5
8 -0.57
9 -0.73

> <PUBCHEM_EFFECTIVE_ROTOR_COUNT>
11.2

> <PUBCHEM_PHARMACOPHORE_FEATURES>
14
1 3 acceptor
1 31 hydrophobe
1 4 acceptor
1 5 acceptor
1 6 acceptor
1 7 acceptor
1 8 acceptor
1 9 donor
3 7 8 35 anion
4 1 3 4 5 anion
5 10 11 15 19 21 rings
6 10 11 12 13 17 18 rings
6 12 13 14 16 20 22 rings
6 14 16 23 26 28 29 rings

> <PUBCHEM_HEAVY_ATOM_COUNT>
35

> <PUBCHEM_ATOM_DEF_STEREO_COUNT>
9

> <PUBCHEM_ATOM_UDEF_STEREO_COUNT>
0

> <PUBCHEM_BOND_DEF_STEREO_COUNT>
0

> <PUBCHEM_BOND_UDEF_STEREO_COUNT>
0

> <PUBCHEM_ISOTOPIC_ATOM_COUNT>
0

> <PUBCHEM_COMPONENT_COUNT>
1

> <PUBCHEM_CACTVS_TAUTO_COUNT>
2

> <PUBCHEM_CONFORMER_ID>
0006C2E900000001

> <PUBCHEM_MMFF94_ENERGY>
106.442

> <PUBCHEM_FEATURE_SELFOVERLAP>
71.302

> <PUBCHEM_SHAPE_FINGERPRINT>
10190206 1 13110695955894137375
10533779 47 16370716064072727854
11135609 99 18339920394896597023
11135926 11 17241054305295306124
11456790 92 16660082213991791210
12082328 90 18341898523820881092
12539745 222 18408884049276832905
13383668 90 16988852662049947487
1361 4 18342459287251372354
13782708 43 18411704291700020710
14068700 675 18272367526205262517
14202775 3 18336825408095735486
15183329 4 13254791353040137420
15238133 3 6194568831363642817
15461852 350 17703790331980113390
15604295 49 9439109941431993182
16728433 281 11383574303069630463
17686467 74 18187652397374465512
18335252 98 18113615699385455854
18608769 82 18113335284622166983
19611394 137 18114180787757674666
2026 5 18343301483220175754
21362267 313 7997976744634877006
21792961 116 18261118503902805381
21927370 108 18187361026086164521
23569917 315 18411693314745872438
23569943 247 17909830178796069386
23576562 1 13901328301327690446
2747138 104 17967251979253844800
3178227 256 16950281793946247238
335352 9 13542458774072925116
3383291 50 18186520977590641462
4339292 15 18410580565611418583
4461854 278 17313099713836328030
5104073 3 17386841879904263826
54039377 194 18411981330313475815
636775 72 8646497318983521523
636775 8 18408600358049271422
6691757 9 15213027054966216333
9953998 17 14273459179915888740
999808 66 17967532367772380919

> <PUBCHEM_SHAPE_MULTIPOLES>
678.07
29.52
2.98
1.69
65.49
1.74
0.09
30.37
-5.45
-6.7
-0.66
-1.49
-0.56
0.94

> <PUBCHEM_SHAPE_SELFOVERLAP>
1400.606

> <PUBCHEM_SHAPE_VOLUME>
391.5

> <PUBCHEM_COORDINATE_TYPE>
2
5
10

$$$$

