442164
  -OEChem-07051212572D

 43 47  0     1  0  0  0  0  0999 V2000
    2.3266    0.2427    0.0000 O   0  0  0  0  0  0  0  0  0  0  0  0
    2.7606   -1.3767    0.0000 O   0  0  0  0  0  0  0  0  0  0  0  0
   11.2068   -2.6272    0.0000 O   0  0  0  0  0  0  0  0  0  0  0  0
    9.3356   -3.4603    0.0000 O   0  0  0  0  0  0  0  0  0  0  0  0
    7.3074    2.7444    0.0000 N   0  0  3  0  0  0  0  0  0  0  0  0
    6.9368    1.3957    0.0000 C   0  0  2  0  0  0  0  0  0  0  0  0
    7.1957    0.4298    0.0000 C   0  0  1  0  0  0  0  0  0  0  0  0
    8.1735    2.2444    0.0000 C   0  0  0  0  0  0  0  0  0  0  0  0
    5.1049    0.6369    0.0000 C   0  0  0  0  0  0  0  0  0  0  0  0
    5.3637   -0.3290    0.0000 C   0  0  0  0  0  0  0  0  0  0  0  0
    9.5398    0.5879    0.0000 C   0  0  0  0  0  0  0  0  0  0  0  0
    8.7308   -0.8133    0.0000 C   0  0  0  0  0  0  0  0  0  0  0  0
    9.6444   -0.4066    0.0000 C   0  0  0  0  0  0  0  0  0  0  0  0
    4.1030    0.9220    0.0000 C   0  0  0  0  0  0  0  0  0  0  0  0
    4.6386   -1.0768    0.0000 C   0  0  0  0  0  0  0  0  0  0  0  0
    7.0486    3.7103    0.0000 C   0  0  0  0  0  0  0  0  0  0  0  0
    8.6060   -1.8475    0.0000 C   0  0  0  0  0  0  0  0  0  0  0  0
   10.4964   -1.0058    0.0000 C   0  0  0  0  0  0  0  0  0  0  0  0
    3.3608    0.1911    0.0000 C   0  0  0  0  0  0  0  0  0  0  0  0
    3.6304   -0.8150    0.0000 C   0  0  0  0  0  0  0  0  0  0  0  0
    9.4439   -2.4662    0.0000 C   0  0  0  0  0  0  0  0  0  0  0  0
   10.3955   -2.0425    0.0000 C   0  0  0  0  0  0  0  0  0  0  0  0
    1.9564   -0.7244    0.0000 C   0  0  0  0  0  0  0  0  0  0  0  0
   12.1188   -2.2169    0.0000 C   0  0  0  0  0  0  0  0  0  0  0  0
    6.7168    2.2168    0.0000 H   0  0  0  0  0  0  0  0  0  0  0  0
    7.4157   -0.3912    0.0000 H   0  0  0  0  0  0  0  0  0  0  0  0
    8.4782    2.7843    0.0000 H   0  0  0  0  0  0  0  0  0  0  0  0
    8.7164    1.9449    0.0000 H   0  0  0  0  0  0  0  0  0  0  0  0
    9.6421    1.1994    0.0000 H   0  0  0  0  0  0  0  0  0  0  0  0
   10.1595    0.5690    0.0000 H   0  0  0  0  0  0  0  0  0  0  0  0
    3.9495    1.5227    0.0000 H   0  0  0  0  0  0  0  0  0  0  0  0
    4.8060   -1.6738    0.0000 H   0  0  0  0  0  0  0  0  0  0  0  0
    6.4497    3.5498    0.0000 H   0  0  0  0  0  0  0  0  0  0  0  0
    6.8882    4.3092    0.0000 H   0  0  0  0  0  0  0  0  0  0  0  0
    7.6475    3.8708    0.0000 H   0  0  0  0  0  0  0  0  0  0  0  0
    8.0367   -2.0931    0.0000 H   0  0  0  0  0  0  0  0  0  0  0  0
   11.0598   -0.7471    0.0000 H   0  0  0  0  0  0  0  0  0  0  0  0
    1.6186   -1.2442    0.0000 H   0  0  0  0  0  0  0  0  0  0  0  0
    1.4039   -0.4430    0.0000 H   0  0  0  0  0  0  0  0  0  0  0  0
    8.7682   -3.7103    0.0000 H   0  0  0  0  0  0  0  0  0  0  0  0
   11.8644   -1.6515    0.0000 H   0  0  0  0  0  0  0  0  0  0  0  0
   12.6842   -1.9626    0.0000 H   0  0  0  0  0  0  0  0  0  0  0  0
   12.3731   -2.7824    0.0000 H   0  0  0  0  0  0  0  0  0  0  0  0
  1 19  1  0  0  0  0
  1 23  1  0  0  0  0
  2 20  1  0  0  0  0
  2 23  1  0  0  0  0
  3 22  1  0  0  0  0
  3 24  1  0  0  0  0
  4 21  1  0  0  0  0
  4 40  1  0  0  0  0
  5  6  1  0  0  0  0
  5  8  1  0  0  0  0
  5 16  1  0  0  0  0
  6  9  1  0  0  0  0
  6 11  1  0  0  0  0
  6 25  1  6  0  0  0
  7  8  1  0  0  0  0
  7 10  1  0  0  0  0
  7 12  1  0  0  0  0
  7 26  1  1  0  0  0
  8 27  1  0  0  0  0
  8 28  1  0  0  0  0
  9 10  1  0  0  0  0
  9 14  2  0  0  0  0
 10 15  2  0  0  0  0
 11 13  1  0  0  0  0
 11 29  1  0  0  0  0
 11 30  1  0  0  0  0
 12 13  1  0  0  0  0
 12 17  2  0  0  0  0
 13 18  2  0  0  0  0
 14 19  1  0  0  0  0
 14 31  1  0  0  0  0
 15 20  1  0  0  0  0
 15 32  1  0  0  0  0
 16 33  1  0  0  0  0
 16 34  1  0  0  0  0
 16 35  1  0  0  0  0
 17 21  1  0  0  0  0
 17 36  1  0  0  0  0
 18 22  1  0  0  0  0
 18 37  1  0  0  0  0
 19 20  2  0  0  0  0
 21 22  2  0  0  0  0
 23 38  1  0  0  0  0
 23 39  1  0  0  0  0
 24 41  1  0  0  0  0
 24 42  1  0  0  0  0
 24 43  1  0  0  0  0
M  END
> <PUBCHEM_COMPOUND_CID>
442164

> <PUBCHEM_COMPOUND_CANONICALIZED>
1

> <PUBCHEM_CACTVS_COMPLEXITY>
488

> <PUBCHEM_CACTVS_HBOND_ACCEPTOR>
5

> <PUBCHEM_CACTVS_HBOND_DONOR>
1

> <PUBCHEM_CACTVS_ROTATABLE_BOND>
1

> <PUBCHEM_CACTVS_SUBSKEYS>
AAADceB6OAAAAAAAAAAAAAAAAAAAASAAAAA8YIAAB4gAAEixQAAAHgAACAAADSzBmAcyDoMABgCAAiBCAACCCAAgIAAAiAAOjIgdJiKGsRukcCtkwBGPuAew0PMOoAABAAAQQABAAAIAACCAAAAAAAAAAA==

> <PUBCHEM_IUPAC_INCHI>
InChI=1S/C19H19NO4/c1-20-8-14-11-5-16(21)17(22-2)4-10(11)3-15(20)13-7-19-18(6-12(13)14)23-9-24-19/h4-7,14-15,21H,3,8-9H2,1-2H3/t14-,15+/m1/s1

> <PUBCHEM_IUPAC_INCHIKEY>
BXWVSGUITWLTOD-CABCVRRESA-N

> <PUBCHEM_XLOGP3_AA>
2.7

> <PUBCHEM_EXACT_MASS>
325.131408

> <PUBCHEM_MOLECULAR_FORMULA>
C19H19NO4

> <PUBCHEM_MOLECULAR_WEIGHT>
325.35846

> <PUBCHEM_OPENEYE_CAN_SMILES>
CN1CC2C3=CC(=C(C=C3CC1C4=CC5=C(C=C24)OCO5)OC)O

> <PUBCHEM_OPENEYE_ISO_SMILES>
CN1C[C@@H]2C3=CC(=C(C=C3C[C@H]1C4=CC5=C(C=C24)OCO5)OC)O

> <PUBCHEM_CACTVS_TPSA>
51.2

> <PUBCHEM_MONOISOTOPIC_WEIGHT>
325.131408

> <PUBCHEM_TOTAL_CHARGE>
0

> <PUBCHEM_HEAVY_ATOM_COUNT>
24

> <PUBCHEM_ATOM_DEF_STEREO_COUNT>
2

> <PUBCHEM_ATOM_UDEF_STEREO_COUNT>
0

> <PUBCHEM_BOND_DEF_STEREO_COUNT>
0

> <PUBCHEM_BOND_UDEF_STEREO_COUNT>
0

> <PUBCHEM_ISOTOPIC_ATOM_COUNT>
0

> <PUBCHEM_COMPONENT_COUNT>
1

> <PUBCHEM_CACTVS_TAUTO_COUNT>
9

> <PUBCHEM_COORDINATE_TYPE>
1
5
255

> <PUBCHEM_BONDANNOTATIONS>
10  15  8
12  13  8
12  17  8
13  18  8
14  19  8
15  20  8
17  21  8
18  22  8
19  20  8
21  22  8
6  25  6
7  26  5
9  10  8
9  14  8

$$$$

