3735
  -OEChem-07051212543D

 29 29  0     1  0  0  0  0  0999 V2000
    0.6282    3.1703    0.3943 I   0  0  0  0  0  0  0  0  0  0  0  0
   -0.5293   -2.7957    1.0462 I   0  0  0  0  0  0  0  0  0  0  0  0
    4.8710   -1.0803   -0.7890 I   0  0  0  0  0  0  0  0  0  0  0  0
   -1.7041   -1.4188   -1.4641 O   0  0  0  0  0  0  0  0  0  0  0  0
   -3.4337   -1.4722    0.0027 O   0  0  0  0  0  0  0  0  0  0  0  0
    3.4542    1.8487   -0.4637 N   0  0  0  0  0  0  0  0  0  0  0  0
   -2.0478    0.5273   -0.1035 C   0  0  2  0  0  0  0  0  0  0  0  0
   -1.0457    0.4556    1.0636 C   0  0  0  0  0  0  0  0  0  0  0  0
   -3.2753    1.3654    0.2992 C   0  0  0  0  0  0  0  0  0  0  0  0
    0.3596    0.1225    0.6221 C   0  0  0  0  0  0  0  0  0  0  0  0
   -2.4801   -0.8813   -0.4886 C   0  0  0  0  0  0  0  0  0  0  0  0
   -4.3212    1.4435   -0.8060 C   0  0  0  0  0  0  0  0  0  0  0  0
    1.2441    1.1408    0.2876 C   0  0  0  0  0  0  0  0  0  0  0  0
    0.7514   -1.2093    0.5564 C   0  0  0  0  0  0  0  0  0  0  0  0
    2.5400    0.8225   -0.1190 C   0  0  0  0  0  0  0  0  0  0  0  0
    2.0472   -1.5274    0.1498 C   0  0  0  0  0  0  0  0  0  0  0  0
    2.9415   -0.5116   -0.1880 C   0  0  0  0  0  0  0  0  0  0  0  0
   -1.5990    0.9972   -0.9879 H   0  0  0  0  0  0  0  0  0  0  0  0
   -1.4012   -0.2449    1.8276 H   0  0  0  0  0  0  0  0  0  0  0  0
   -1.0608    1.3851    1.6405 H   0  0  0  0  0  0  0  0  0  0  0  0
   -2.9547    2.3840    0.5482 H   0  0  0  0  0  0  0  0  0  0  0  0
   -3.7436    0.9499    1.2002 H   0  0  0  0  0  0  0  0  0  0  0  0
   -3.8817    1.8236   -1.7339 H   0  0  0  0  0  0  0  0  0  0  0  0
   -5.1228    2.1283   -0.5100 H   0  0  0  0  0  0  0  0  0  0  0  0
   -4.7816    0.4740   -1.0140 H   0  0  0  0  0  0  0  0  0  0  0  0
    2.3602   -2.5681    0.0959 H   0  0  0  0  0  0  0  0  0  0  0  0
   -1.9969   -2.3227   -1.7077 H   0  0  0  0  0  0  0  0  0  0  0  0
    4.3919    1.6104   -0.7582 H   0  0  0  0  0  0  0  0  0  0  0  0
    3.1662    2.8169   -0.4155 H   0  0  0  0  0  0  0  0  0  0  0  0
  1 13  1  0  0  0  0
  2 14  1  0  0  0  0
  3 17  1  0  0  0  0
  4 11  1  0  0  0  0
  4 27  1  0  0  0  0
  5 11  2  0  0  0  0
  6 15  1  0  0  0  0
  6 28  1  0  0  0  0
  6 29  1  0  0  0  0
  7  8  1  0  0  0  0
  7  9  1  0  0  0  0
  7 11  1  0  0  0  0
  7 18  1  0  0  0  0
  8 10  1  0  0  0  0
  8 19  1  0  0  0  0
  8 20  1  0  0  0  0
  9 12  1  0  0  0  0
  9 21  1  0  0  0  0
  9 22  1  0  0  0  0
 10 13  2  0  0  0  0
 10 14  1  0  0  0  0
 12 23  1  0  0  0  0
 12 24  1  0  0  0  0
 12 25  1  0  0  0  0
 13 15  1  0  0  0  0
 14 16  2  0  0  0  0
 15 17  2  0  0  0  0
 16 17  1  0  0  0  0
 16 26  1  0  0  0  0
M  END
> <PUBCHEM_COMPOUND_CID>
3735

> <PUBCHEM_CONFORMER_RMSD>
0.6

> <PUBCHEM_CONFORMER_DIVERSEORDER>
1
2
28
25
23
16
5
10
6
20
3
19
26
24
18
8
14
7
9
21
17
12
13
27
4
11
22
15

> <PUBCHEM_MMFF94_PARTIAL_CHARGES>
19
1 -0.08
10 -0.14
11 0.66
13 0.08
14 0.08
15 0.1
16 -0.15
17 0.08
2 -0.08
26 0.15
27 0.5
28 0.4
29 0.4
3 -0.08
4 -0.65
5 -0.57
6 -0.9
7 0.06
8 0.14

> <PUBCHEM_EFFECTIVE_ROTOR_COUNT>
4

> <PUBCHEM_PHARMACOPHORE_FEATURES>
10
1 1 hydrophobe
1 12 hydrophobe
1 2 hydrophobe
1 3 hydrophobe
1 4 acceptor
1 5 acceptor
1 6 cation
1 6 donor
3 4 5 11 anion
6 10 13 14 15 16 17 rings

> <PUBCHEM_HEAVY_ATOM_COUNT>
17

> <PUBCHEM_ATOM_DEF_STEREO_COUNT>
0

> <PUBCHEM_ATOM_UDEF_STEREO_COUNT>
1

> <PUBCHEM_BOND_DEF_STEREO_COUNT>
0

> <PUBCHEM_BOND_UDEF_STEREO_COUNT>
0

> <PUBCHEM_ISOTOPIC_ATOM_COUNT>
0

> <PUBCHEM_COMPONENT_COUNT>
1

> <PUBCHEM_CACTVS_TAUTO_COUNT>
1

> <PUBCHEM_CONFORMER_ID>
00000E9700000001

> <PUBCHEM_MMFF94_ENERGY>
67.9869

> <PUBCHEM_FEATURE_SELFOVERLAP>
50.802

> <PUBCHEM_SHAPE_FINGERPRINT>
10062212 137 18408611382993190202
10756046 5 18334583391008625517
10967382 1 18339362001491662785
11401426 45 18410013273572355858
11680986 33 18192708939279738224
116883 192 18117269466560457276
12788726 201 18193833971682581200
13140716 1 18339085989702732080
14911166 2 18341040922031142430
14993402 34 18188776174823067157
15196674 1 18410291393752366348
15775835 57 18342174505149090063
16945 1 18122068606586327298
18186145 218 18272093807274408390
19862831 5 18260270771583695317
20645476 183 18337396036447810103
20871999 31 18411416215400988758
21029758 11 18335698390879398872
21267235 1 18335974341910897267
21634736 98 18407757045468105404
221490 88 18266733593594679018
22802520 49 17978227162504026659
2334 1 18411140212186057593
23402539 116 18410576227873641438
23402655 69 18339640139452974588
23419403 2 15175340911418915999
23557571 272 17605276383923799920
23558518 356 17840592491672687537
23559900 14 18335137601531566416
25 1 18200877391150439043
2748010 2 18193540200298780970
2871803 45 18340216176609850039
3060560 45 18341619277436142679
3084891 72 18339640161186507890
34934 24 18337399360409144552
7832392 63 18408609183864322601
81228 2 18190443047773573176
90525 40 18113901606351652071
9709674 26 18265613174013501310
9981440 41 17469058669705433424

> <PUBCHEM_SHAPE_MULTIPOLES>
368.94
7.36
3.26
1.08
1.82
0.8
-0.05
0.08
-3.1
-0.19
0.77
-0.22
-0.29
0.19

> <PUBCHEM_SHAPE_SELFOVERLAP>
698.413

> <PUBCHEM_SHAPE_VOLUME>
235.9

> <PUBCHEM_COORDINATE_TYPE>
2
5
10

$$$$

