11954085
  -OEChem-07051213062D

 47 50  0     1  0  0  0  0  0999 V2000
    2.9686   -2.8552    0.0000 O   0  0  0  0  0  0  0  0  0  0  0  0
    5.6209   -1.3106    0.0000 O   0  0  0  0  0  0  0  0  0  0  0  0
    3.8628   -4.3830    0.0000 O   0  0  0  0  0  0  0  0  0  0  0  0
    2.9316    4.3830    0.0000 O   0  0  0  0  0  0  0  0  0  0  0  0
    3.8507   -0.3137    0.0000 C   0  0  2  0  0  0  0  0  0  0  0  0
    2.9847    0.1863    0.0000 C   0  0  1  0  0  0  0  0  0  0  0  0
    3.8507   -1.3137    0.0000 C   0  0  1  0  0  0  0  0  0  0  0  0
    2.9847   -1.8137    0.0000 C   0  0  2  0  0  0  0  0  0  0  0  0
    2.9686    1.2278    0.0000 C   0  0  1  0  0  0  0  0  0  0  0  0
    2.1187   -0.3137    0.0000 C   0  0  0  0  0  0  0  0  0  0  0  0
    2.1187   -1.3137    0.0000 C   0  0  0  0  0  0  0  0  0  0  0  0
    4.7607    0.1931    0.0000 C   0  0  0  0  0  0  0  0  0  0  0  0
    4.7607   -1.8206    0.0000 C   0  0  2  0  0  0  0  0  0  0  0  0
    3.8667    1.7555    0.0000 C   0  0  0  0  0  0  0  0  0  0  0  0
    4.7688    1.2347    0.0000 C   0  0  0  0  0  0  0  0  0  0  0  0
    2.1187   -2.3137    0.0000 C   0  0  0  0  0  0  0  0  0  0  0  0
    2.1065    0.7211    0.0000 C   0  0  0  0  0  0  0  0  0  0  0  0
    4.7688   -2.8622    0.0000 C   0  0  0  0  0  0  0  0  0  0  0  0
    2.0167    1.7484    0.0000 C   0  0  0  0  0  0  0  0  0  0  0  0
    3.8667   -3.3830    0.0000 C   0  0  0  0  0  0  0  0  0  0  0  0
    3.8751    2.8405    0.0000 C   0  0  0  0  0  0  0  0  0  0  0  0
    2.0000    2.8333    0.0000 C   0  0  0  0  0  0  0  0  0  0  0  0
    2.9354    3.3830    0.0000 C   0  0  0  0  0  0  0  0  0  0  0  0
    4.5836   -0.7444    0.0000 H   0  0  0  0  0  0  0  0  0  0  0  0
    2.2453    0.6056    0.0000 H   0  0  0  0  0  0  0  0  0  0  0  0
    4.5836   -0.8831    0.0000 H   0  0  0  0  0  0  0  0  0  0  0  0
    1.9066    0.2689    0.0000 H   0  0  0  0  0  0  0  0  0  0  0  0
    1.5081   -0.4214    0.0000 H   0  0  0  0  0  0  0  0  0  0  0  0
    1.5081   -1.2061    0.0000 H   0  0  0  0  0  0  0  0  0  0  0  0
    1.9066   -1.8963    0.0000 H   0  0  0  0  0  0  0  0  0  0  0  0
    4.9653   -0.3922    0.0000 H   0  0  0  0  0  0  0  0  0  0  0  0
    5.3724    0.2945    0.0000 H   0  0  0  0  0  0  0  0  0  0  0  0
    4.7524   -1.2006    0.0000 H   0  0  0  0  0  0  0  0  0  0  0  0
    5.3788    1.1239    0.0000 H   0  0  0  0  0  0  0  0  0  0  0  0
    4.9823    1.8168    0.0000 H   0  0  0  0  0  0  0  0  0  0  0  0
    1.8087   -1.7768    0.0000 H   0  0  0  0  0  0  0  0  0  0  0  0
    1.5818   -2.6237    0.0000 H   0  0  0  0  0  0  0  0  0  0  0  0
    2.4287   -2.8507    0.0000 H   0  0  0  0  0  0  0  0  0  0  0  0
    1.7924    1.2556    0.0000 H   0  0  0  0  0  0  0  0  0  0  0  0
    1.5720    0.4070    0.0000 H   0  0  0  0  0  0  0  0  0  0  0  0
    2.4206    0.1866    0.0000 H   0  0  0  0  0  0  0  0  0  0  0  0
    4.9823   -3.4442    0.0000 H   0  0  0  0  0  0  0  0  0  0  0  0
    5.3788   -2.7514    0.0000 H   0  0  0  0  0  0  0  0  0  0  0  0
    1.4859    1.4281    0.0000 H   0  0  0  0  0  0  0  0  0  0  0  0
    4.4132    3.1484    0.0000 H   0  0  0  0  0  0  0  0  0  0  0  0
    6.1614   -1.6144    0.0000 H   0  0  0  0  0  0  0  0  0  0  0  0
    1.4595    3.1370    0.0000 H   0  0  0  0  0  0  0  0  0  0  0  0
  1  8  1  0  0  0  0
  1 20  1  0  0  0  0
 13  2  1  1  0  0  0
  2 46  1  0  0  0  0
  3 20  2  0  0  0  0
  4 23  2  0  0  0  0
  5  6  1  0  0  0  0
  5  7  1  0  0  0  0
  5 12  1  0  0  0  0
  5 24  1  6  0  0  0
  6  9  1  0  0  0  0
  6 10  1  0  0  0  0
  6 25  1  1  0  0  0
  7  8  1  0  0  0  0
  7 13  1  0  0  0  0
  7 26  1  1  0  0  0
  8 11  1  0  0  0  0
  8 16  1  6  0  0  0
  9 14  1  0  0  0  0
  9 17  1  6  0  0  0
  9 19  1  0  0  0  0
 10 11  1  0  0  0  0
 10 27  1  0  0  0  0
 10 28  1  0  0  0  0
 11 29  1  0  0  0  0
 11 30  1  0  0  0  0
 12 15  1  0  0  0  0
 12 31  1  0  0  0  0
 12 32  1  0  0  0  0
 13 18  1  0  0  0  0
 13 33  1  0  0  0  0
 14 15  1  0  0  0  0
 14 21  2  0  0  0  0
 15 34  1  0  0  0  0
 15 35  1  0  0  0  0
 16 36  1  0  0  0  0
 16 37  1  0  0  0  0
 16 38  1  0  0  0  0
 17 39  1  0  0  0  0
 17 40  1  0  0  0  0
 17 41  1  0  0  0  0
 18 20  1  0  0  0  0
 18 42  1  0  0  0  0
 18 43  1  0  0  0  0
 19 22  2  0  0  0  0
 19 44  1  0  0  0  0
 21 23  1  0  0  0  0
 21 45  1  0  0  0  0
 22 23  1  0  0  0  0
 22 47  1  0  0  0  0
M  END
> <PUBCHEM_COMPOUND_CID>
11954085

> <PUBCHEM_COMPOUND_CANONICALIZED>
1

> <PUBCHEM_CACTVS_COMPLEXITY>
633

> <PUBCHEM_CACTVS_HBOND_ACCEPTOR>
4

> <PUBCHEM_CACTVS_HBOND_DONOR>
1

> <PUBCHEM_CACTVS_ROTATABLE_BOND>
0

> <PUBCHEM_CACTVS_SUBSKEYS>
AAADceB4OAAAAAAAAAAAAAAAAAAAAAAAAAA0YIEAAAAAAADQAAAAGgAACAAAD1SggAICCAAABgCIAqDSCAAAAAAgAAAICAEAAEgAEBYAAQACQAAFoAAIAYOIzPDPgAAAAAAAAADAAAYAADAAAAAAAAAAAA==

> <PUBCHEM_IUPAC_OPENEYE_NAME>
(4S,4aR,4bR,10aR,10bS,12aS)-4-hydroxy-10a,12a-dimethyl-4,4a,4b,5,6,10b,11,12-octahydro-3H-naphtho[2,1-f]chromene-2,8-dione

> <PUBCHEM_IUPAC_CAS_NAME>
(4S,4aR,4bR,10aR,10bS,12aS)-4-hydroxy-10a,12a-dimethyl-4,4a,4b,5,6,10b,11,12-octahydro-3H-naphtho[2,1-f][1]benzopyran-2,8-dione

> <PUBCHEM_IUPAC_NAME>
(4S,4aR,4bR,10aR,10bS,12aS)-4-hydroxy-10a,12a-dimethyl-4,4a,4b,5,6,10b,11,12-octahydro-3H-naphtho[2,1-f]chromene-2,8-dione

> <PUBCHEM_IUPAC_SYSTEMATIC_NAME>
(4S,4aR,4bR,10aR,10bS,12aS)-10a,12a-dimethyl-4-oxidanyl-4,4a,4b,5,6,10b,11,12-octahydro-3H-naphtho[2,1-f]chromene-2,8-dione

> <PUBCHEM_IUPAC_TRADITIONAL_NAME>
(4S,4aR,4bR,10aR,10bS,12aS)-4-hydroxy-10a,12a-dimethyl-4,4a,4b,5,6,10b,11,12-octahydro-3H-naphtho[2,1-f]chromene-2,8-quinone

> <PUBCHEM_IUPAC_INCHI>
InChI=1S/C19H24O4/c1-18-7-5-12(20)9-11(18)3-4-13-14(18)6-8-19(2)17(13)15(21)10-16(22)23-19/h5,7,9,13-15,17,21H,3-4,6,8,10H2,1-2H3/t13-,14+,15+,17-,18+,19+/m1/s1

> <PUBCHEM_IUPAC_INCHIKEY>
YHUCLCNBFMFJFZ-VHBIRMJSSA-N

> <PUBCHEM_XLOGP3_AA>
2.1

> <PUBCHEM_EXACT_MASS>
316.167459

> <PUBCHEM_MOLECULAR_FORMULA>
C19H24O4

> <PUBCHEM_MOLECULAR_WEIGHT>
316.39146

> <PUBCHEM_OPENEYE_CAN_SMILES>
CC12CCC3C(C1C(CC(=O)O2)O)CCC4=CC(=O)C=CC34C

> <PUBCHEM_OPENEYE_ISO_SMILES>
C[C@]12CC[C@H]3[C@H]([C@@H]1[C@H](CC(=O)O2)O)CCC4=CC(=O)C=C[C@]34C

> <PUBCHEM_CACTVS_TPSA>
63.6

> <PUBCHEM_MONOISOTOPIC_WEIGHT>
316.167459

> <PUBCHEM_TOTAL_CHARGE>
0

> <PUBCHEM_HEAVY_ATOM_COUNT>
23

> <PUBCHEM_ATOM_DEF_STEREO_COUNT>
6

> <PUBCHEM_ATOM_UDEF_STEREO_COUNT>
0

> <PUBCHEM_BOND_DEF_STEREO_COUNT>
0

> <PUBCHEM_BOND_UDEF_STEREO_COUNT>
0

> <PUBCHEM_ISOTOPIC_ATOM_COUNT>
0

> <PUBCHEM_COMPONENT_COUNT>
1

> <PUBCHEM_CACTVS_TAUTO_COUNT>
6

> <PUBCHEM_COORDINATE_TYPE>
1
5
255

> <PUBCHEM_BONDANNOTATIONS>
13  2  5
5  24  6
6  25  5
7  26  5
8  16  6
9  17  6

$$$$

