11954174
  -OEChem-07051213072D

 54 57  0     1  0  0  0  0  0999 V2000
    7.1640    1.8849    0.0000 O   0  0  0  0  0  0  0  0  0  0  0  0
    4.7931   -0.3714    0.0000 C   0  0  1  0  0  0  0  0  0  0  0  0
    5.6591   -0.8714    0.0000 C   0  0  2  0  0  0  0  0  0  0  0  0
    6.5251   -0.3714    0.0000 C   0  0  1  0  0  0  0  0  0  0  0  0
    6.5251    0.6286    0.0000 C   0  0  2  0  0  0  0  0  0  0  0  0
    3.8831   -0.8783    0.0000 C   0  0  2  0  0  0  0  0  0  0  0  0
    3.8751   -1.9199    0.0000 C   0  0  1  0  0  0  0  0  0  0  0  0
    4.7931    0.6286    0.0000 C   0  0  0  0  0  0  0  0  0  0  0  0
    5.6591    1.1286    0.0000 C   0  0  0  0  0  0  0  0  0  0  0  0
    5.6752   -1.9130    0.0000 C   0  0  0  0  0  0  0  0  0  0  0  0
    7.4714    0.9333    0.0000 C   0  0  2  0  0  0  0  0  0  0  0  0
    7.4714   -0.6762    0.0000 C   0  0  0  0  0  0  0  0  0  0  0  0
    4.7771   -2.4407    0.0000 C   0  0  0  0  0  0  0  0  0  0  0  0
    2.9562   -0.3142    0.0000 C   0  0  0  0  0  0  0  0  0  0  0  0
    8.0550    0.1286    0.0000 C   0  0  0  0  0  0  0  0  0  0  0  0
    2.9396   -2.4696    0.0000 C   0  0  0  0  0  0  0  0  0  0  0  0
    6.5251    1.6286    0.0000 C   0  0  0  0  0  0  0  0  0  0  0  0
    3.8908    0.1217    0.0000 C   0  0  0  0  0  0  0  0  0  0  0  0
    2.0084   -0.8422    0.0000 C   0  0  0  0  0  0  0  0  0  0  0  0
    2.0000   -1.9271    0.0000 C   0  0  0  0  0  0  0  0  0  0  0  0
    8.2814    1.5197    0.0000 C   0  0  0  0  0  0  0  0  0  0  0  0
    9.0914    2.1061    0.0000 C   0  0  0  0  0  0  0  0  0  0  0  0
    5.5292    0.0536    0.0000 H   0  0  0  0  0  0  0  0  0  0  0  0
    6.3985   -1.2908    0.0000 H   0  0  0  0  0  0  0  0  0  0  0  0
    6.6151   -1.2167    0.0000 H   0  0  0  0  0  0  0  0  0  0  0  0
    3.8783   -2.7699    0.0000 H   0  0  0  0  0  0  0  0  0  0  0  0
    4.5810    1.2112    0.0000 H   0  0  0  0  0  0  0  0  0  0  0  0
    4.1825    0.5209    0.0000 H   0  0  0  0  0  0  0  0  0  0  0  0
    6.0576    1.6035    0.0000 H   0  0  0  0  0  0  0  0  0  0  0  0
    5.2606    1.6035    0.0000 H   0  0  0  0  0  0  0  0  0  0  0  0
    5.8932   -2.4934    0.0000 H   0  0  0  0  0  0  0  0  0  0  0  0
    6.2843   -1.7974    0.0000 H   0  0  0  0  0  0  0  0  0  0  0  0
    7.2203   -1.2431    0.0000 H   0  0  0  0  0  0  0  0  0  0  0  0
    8.0087   -0.9854    0.0000 H   0  0  0  0  0  0  0  0  0  0  0  0
    4.3798   -2.9167    0.0000 H   0  0  0  0  0  0  0  0  0  0  0  0
    5.1781   -2.9136    0.0000 H   0  0  0  0  0  0  0  0  0  0  0  0
    3.3645    0.1524    0.0000 H   0  0  0  0  0  0  0  0  0  0  0  0
    2.5663    0.1678    0.0000 H   0  0  0  0  0  0  0  0  0  0  0  0
    8.5158   -0.2862    0.0000 H   0  0  0  0  0  0  0  0  0  0  0  0
    8.5158    0.5433    0.0000 H   0  0  0  0  0  0  0  0  0  0  0  0
    2.5423   -2.9456    0.0000 H   0  0  0  0  0  0  0  0  0  0  0  0
    3.3406   -2.9425    0.0000 H   0  0  0  0  0  0  0  0  0  0  0  0
    7.1451    1.6286    0.0000 H   0  0  0  0  0  0  0  0  0  0  0  0
    6.5251    2.2486    0.0000 H   0  0  0  0  0  0  0  0  0  0  0  0
    5.9051    1.6286    0.0000 H   0  0  0  0  0  0  0  0  0  0  0  0
    4.5108    0.1169    0.0000 H   0  0  0  0  0  0  0  0  0  0  0  0
    3.8956    0.7417    0.0000 H   0  0  0  0  0  0  0  0  0  0  0  0
    3.2708    0.1265    0.0000 H   0  0  0  0  0  0  0  0  0  0  0  0
    1.8038   -0.2569    0.0000 H   0  0  0  0  0  0  0  0  0  0  0  0
    1.3967   -0.9435    0.0000 H   0  0  0  0  0  0  0  0  0  0  0  0
    1.3900   -1.8163    0.0000 H   0  0  0  0  0  0  0  0  0  0  0  0
    1.7864   -2.5092    0.0000 H   0  0  0  0  0  0  0  0  0  0  0  0
    7.5796    2.3449    0.0000 H   0  0  0  0  0  0  0  0  0  0  0  0
    9.5936    2.4696    0.0000 H   0  0  0  0  0  0  0  0  0  0  0  0
 11  1  1  1  0  0  0
  1 53  1  0  0  0  0
  2  3  1  0  0  0  0
  2  6  1  0  0  0  0
  2  8  1  0  0  0  0
  2 23  1  6  0  0  0
  3  4  1  0  0  0  0
  3 10  1  0  0  0  0
  3 24  1  1  0  0  0
  4  5  1  0  0  0  0
  4 12  1  0  0  0  0
  4 25  1  6  0  0  0
  5  9  1  0  0  0  0
  5 11  1  0  0  0  0
  5 17  1  1  0  0  0
  6  7  1  0  0  0  0
  6 14  1  0  0  0  0
  6 18  1  1  0  0  0
  7 13  1  0  0  0  0
  7 16  1  0  0  0  0
  7 26  1  6  0  0  0
  8  9  1  0  0  0  0
  8 27  1  0  0  0  0
  8 28  1  0  0  0  0
  9 29  1  0  0  0  0
  9 30  1  0  0  0  0
 10 13  1  0  0  0  0
 10 31  1  0  0  0  0
 10 32  1  0  0  0  0
 11 15  1  0  0  0  0
 11 21  1  0  0  0  0
 12 15  1  0  0  0  0
 12 33  1  0  0  0  0
 12 34  1  0  0  0  0
 13 35  1  0  0  0  0
 13 36  1  0  0  0  0
 14 19  1  0  0  0  0
 14 37  1  0  0  0  0
 14 38  1  0  0  0  0
 15 39  1  0  0  0  0
 15 40  1  0  0  0  0
 16 20  1  0  0  0  0
 16 41  1  0  0  0  0
 16 42  1  0  0  0  0
 17 43  1  0  0  0  0
 17 44  1  0  0  0  0
 17 45  1  0  0  0  0
 18 46  1  0  0  0  0
 18 47  1  0  0  0  0
 18 48  1  0  0  0  0
 19 20  1  0  0  0  0
 19 49  1  0  0  0  0
 19 50  1  0  0  0  0
 20 51  1  0  0  0  0
 20 52  1  0  0  0  0
 21 22  3  0  0  0  0
 22 54  1  0  0  0  0
M  END
> <PUBCHEM_COMPOUND_CID>
11954174

> <PUBCHEM_COMPOUND_CANONICALIZED>
1

> <PUBCHEM_CACTVS_COMPLEXITY>
515

> <PUBCHEM_CACTVS_HBOND_ACCEPTOR>
1

> <PUBCHEM_CACTVS_HBOND_DONOR>
1

> <PUBCHEM_CACTVS_ROTATABLE_BOND>
1

> <PUBCHEM_CACTVS_SUBSKEYS>
AAADcfB4IAAAAAAAAAAAAAAAAAAAAYAAAAAwYMAAAAAAAGDAAAAAGgAACAAAD0SAgAACAAAAAgBAGAAAAAgAAAAAAAAAAAAAAAAAAAIAAAAAQAAEAAAAAAGAwPAPgAAAAAAAAACAAAQAACAAAYAADAAAAA==

> <PUBCHEM_IUPAC_OPENEYE_NAME>
(5R,8R,9S,10S,13S,14S,17R)-17-ethynyl-10,13-dimethyl-1,2,3,4,5,6,7,8,9,11,12,14,15,16-tetradecahydrocyclopenta[a]phenanthren-17-ol

> <PUBCHEM_IUPAC_CAS_NAME>
(5R,8R,9S,10S,13S,14S,17R)-17-ethynyl-10,13-dimethyl-1,2,3,4,5,6,7,8,9,11,12,14,15,16-tetradecahydrocyclopenta[a]phenanthren-17-ol

> <PUBCHEM_IUPAC_NAME>
(5R,8R,9S,10S,13S,14S,17R)-17-ethynyl-10,13-dimethyl-1,2,3,4,5,6,7,8,9,11,12,14,15,16-tetradecahydrocyclopenta[a]phenanthren-17-ol

> <PUBCHEM_IUPAC_SYSTEMATIC_NAME>
(5R,8R,9S,10S,13S,14S,17R)-17-ethynyl-10,13-dimethyl-1,2,3,4,5,6,7,8,9,11,12,14,15,16-tetradecahydrocyclopenta[a]phenanthren-17-ol

> <PUBCHEM_IUPAC_TRADITIONAL_NAME>
(5R,8R,9S,10S,13S,14S,17R)-17-ethynyl-10,13-dimethyl-1,2,3,4,5,6,7,8,9,11,12,14,15,16-tetradecahydrocyclopenta[a]phenanthren-17-ol

> <PUBCHEM_IUPAC_INCHI>
InChI=1S/C21H32O/c1-4-21(22)14-11-18-16-9-8-15-7-5-6-12-19(15,2)17(16)10-13-20(18,21)3/h1,15-18,22H,5-14H2,2-3H3/t15-,16-,17+,18+,19+,20+,21+/m1/s1

> <PUBCHEM_IUPAC_INCHIKEY>
DNZAUZMYWADSJC-OGNRNXDYSA-N

> <PUBCHEM_XLOGP3_AA>
5.8

> <PUBCHEM_EXACT_MASS>
300.245316

> <PUBCHEM_MOLECULAR_FORMULA>
C21H32O

> <PUBCHEM_MOLECULAR_WEIGHT>
300.47818

> <PUBCHEM_OPENEYE_CAN_SMILES>
CC12CCCCC1CCC3C2CCC4(C3CCC4(C#C)O)C

> <PUBCHEM_OPENEYE_ISO_SMILES>
C[C@]12CCCC[C@@H]1CC[C@@H]3[C@@H]2CC[C@]4([C@H]3CC[C@]4(C#C)O)C

> <PUBCHEM_CACTVS_TPSA>
20.2

> <PUBCHEM_MONOISOTOPIC_WEIGHT>
300.245316

> <PUBCHEM_TOTAL_CHARGE>
0

> <PUBCHEM_HEAVY_ATOM_COUNT>
22

> <PUBCHEM_ATOM_DEF_STEREO_COUNT>
7

> <PUBCHEM_ATOM_UDEF_STEREO_COUNT>
0

> <PUBCHEM_BOND_DEF_STEREO_COUNT>
0

> <PUBCHEM_BOND_UDEF_STEREO_COUNT>
0

> <PUBCHEM_ISOTOPIC_ATOM_COUNT>
0

> <PUBCHEM_COMPONENT_COUNT>
1

> <PUBCHEM_CACTVS_TAUTO_COUNT>
1

> <PUBCHEM_COORDINATE_TYPE>
1
5
255

> <PUBCHEM_BONDANNOTATIONS>
11  1  5
2  23  6
3  24  5
4  25  6
5  17  5
6  18  5
7  26  6

$$$$

