440187
  -OEChem-07051212492D

 37 38  0     1  0  0  0  0  0999 V2000
    4.2690   -3.3450    0.0000 O   0  0  0  0  0  0  0  0  0  0  0  0
    2.5369   -0.3450    0.0000 O   0  0  0  0  0  0  0  0  0  0  0  0
    6.0010   -3.3450    0.0000 O   0  0  0  0  0  0  0  0  0  0  0  0
    2.5369   -2.3450    0.0000 O   0  0  0  0  0  0  0  0  0  0  0  0
    7.7331    3.6550    0.0000 O   0  5  0  0  0  0  0  0  0  0  0  0
    8.5991    2.1550    0.0000 O   0  0  0  0  0  0  0  0  0  0  0  0
    4.2690    0.6550    0.0000 N   0  0  0  0  0  0  0  0  0  0  0  0
    7.7331    2.6550    0.0000 N   0  3  0  0  0  0  0  0  0  0  0  0
    5.1350   -1.8450    0.0000 C   0  0  1  0  0  0  0  0  0  0  0  0
    4.2690   -0.3450    0.0000 C   0  0  1  0  0  0  0  0  0  0  0  0
    5.1350   -0.8450    0.0000 C   0  0  0  0  0  0  0  0  0  0  0  0
    4.2690   -2.3450    0.0000 C   0  0  2  0  0  0  0  0  0  0  0  0
    3.4030   -0.8450    0.0000 C   0  0  1  0  0  0  0  0  0  0  0  0
    3.4030   -1.8450    0.0000 C   0  0  0  0  0  0  0  0  0  0  0  0
    6.0010   -2.3450    0.0000 C   0  0  0  0  0  0  0  0  0  0  0  0
    5.1350    1.1550    0.0000 C   0  0  0  0  0  0  0  0  0  0  0  0
    6.0010    0.6550    0.0000 C   0  0  0  0  0  0  0  0  0  0  0  0
    5.1350    2.1550    0.0000 C   0  0  0  0  0  0  0  0  0  0  0  0
    6.8671    1.1550    0.0000 C   0  0  0  0  0  0  0  0  0  0  0  0
    6.0010    2.6550    0.0000 C   0  0  0  0  0  0  0  0  0  0  0  0
    6.8671    2.1550    0.0000 C   0  0  0  0  0  0  0  0  0  0  0  0
    5.1350   -2.4650    0.0000 H   0  0  0  0  0  0  0  0  0  0  0  0
    4.8059   -0.0350    0.0000 H   0  0  0  0  0  0  0  0  0  0  0  0
    5.7456   -0.9527    0.0000 H   0  0  0  0  0  0  0  0  0  0  0  0
    5.3471   -0.2624    0.0000 H   0  0  0  0  0  0  0  0  0  0  0  0
    4.8059   -2.6550    0.0000 H   0  0  0  0  0  0  0  0  0  0  0  0
    3.4030   -0.2250    0.0000 H   0  0  0  0  0  0  0  0  0  0  0  0
    6.6116   -2.4527    0.0000 H   0  0  0  0  0  0  0  0  0  0  0  0
    6.2131   -1.7624    0.0000 H   0  0  0  0  0  0  0  0  0  0  0  0
    3.7320    0.9650    0.0000 H   0  0  0  0  0  0  0  0  0  0  0  0
    3.7320   -3.6550    0.0000 H   0  0  0  0  0  0  0  0  0  0  0  0
    2.0000   -0.6550    0.0000 H   0  0  0  0  0  0  0  0  0  0  0  0
    6.5380   -3.6550    0.0000 H   0  0  0  0  0  0  0  0  0  0  0  0
    6.0010    0.0350    0.0000 H   0  0  0  0  0  0  0  0  0  0  0  0
    4.5981    2.4650    0.0000 H   0  0  0  0  0  0  0  0  0  0  0  0
    7.4040    0.8450    0.0000 H   0  0  0  0  0  0  0  0  0  0  0  0
    6.0010    3.2750    0.0000 H   0  0  0  0  0  0  0  0  0  0  0  0
 12  1  1  1  0  0  0
  1 31  1  0  0  0  0
 13  2  1  1  0  0  0
  2 32  1  0  0  0  0
  3 15  1  0  0  0  0
  3 33  1  0  0  0  0
  4 14  2  0  0  0  0
  5  8  1  0  0  0  0
  6  8  2  0  0  0  0
 10  7  1  1  0  0  0
  7 16  1  0  0  0  0
  7 30  1  0  0  0  0
  8 21  1  0  0  0  0
  9 11  1  0  0  0  0
  9 12  1  0  0  0  0
  9 15  1  6  0  0  0
  9 22  1  0  0  0  0
 10 11  1  0  0  0  0
 10 13  1  0  0  0  0
 10 23  1  0  0  0  0
 11 24  1  0  0  0  0
 11 25  1  0  0  0  0
 12 14  1  0  0  0  0
 12 26  1  0  0  0  0
 13 14  1  0  0  0  0
 13 27  1  0  0  0  0
 15 28  1  0  0  0  0
 15 29  1  0  0  0  0
 16 17  2  0  0  0  0
 16 18  1  0  0  0  0
 17 19  1  0  0  0  0
 17 34  1  0  0  0  0
 18 20  2  0  0  0  0
 18 35  1  0  0  0  0
 19 21  2  0  0  0  0
 19 36  1  0  0  0  0
 20 21  1  0  0  0  0
 20 37  1  0  0  0  0
M  CHG  2   5  -1   8   1
M  END
> <PUBCHEM_COMPOUND_CID>
440187

> <PUBCHEM_COMPOUND_CANONICALIZED>
1

> <PUBCHEM_CACTVS_COMPLEXITY>
391

> <PUBCHEM_CACTVS_HBOND_ACCEPTOR>
7

> <PUBCHEM_CACTVS_HBOND_DONOR>
4

> <PUBCHEM_CACTVS_ROTATABLE_BOND>
3

> <PUBCHEM_CACTVS_SUBSKEYS>
AAADceBzOAAAAAAAAAAAAAAAAAAAAAAAAAAwYAAAAAAAAAABAAAAHgAUCAAADTzhkAYwwILQQgCJAKRSQwKCAAAhAgAoiIFIZIoKMDrAkZGEYAhlkADYyAe66SQeAACAAAAAAABAgQCQABAgAAAAAAAAAA==

> <PUBCHEM_IUPAC_OPENEYE_NAME>
(2R,3R,5S,6S)-2,6-dihydroxy-3-(hydroxymethyl)-5-(4-nitroanilino)cyclohexanone

> <PUBCHEM_IUPAC_CAS_NAME>
(2R,3R,5S,6S)-2,6-dihydroxy-3-(hydroxymethyl)-5-(4-nitroanilino)-1-cyclohexanone

> <PUBCHEM_IUPAC_NAME>
(2R,3R,5S,6S)-2,6-dihydroxy-3-(hydroxymethyl)-5-(4-nitroanilino)cyclohexan-1-one

> <PUBCHEM_IUPAC_SYSTEMATIC_NAME>
(2R,3R,5S,6S)-3-(hydroxymethyl)-5-[(4-nitrophenyl)amino]-2,6-bis(oxidanyl)cyclohexan-1-one

> <PUBCHEM_IUPAC_TRADITIONAL_NAME>
(2R,3R,5S,6S)-2,6-dihydroxy-3-methylol-5-(4-nitroanilino)cyclohexanone

> <PUBCHEM_IUPAC_INCHI>
InChI=1S/C13H16N2O6/c16-6-7-5-10(12(18)13(19)11(7)17)14-8-1-3-9(4-2-8)15(20)21/h1-4,7,10-12,14,16-18H,5-6H2/t7-,10+,11-,12+/m1/s1

> <PUBCHEM_IUPAC_INCHIKEY>
JYWZXKMMEIJNKK-IGCXTIMSSA-N

> <PUBCHEM_XLOGP3_AA>
0.6

> <PUBCHEM_EXACT_MASS>
296.100836

> <PUBCHEM_MOLECULAR_FORMULA>
C13H16N2O6

> <PUBCHEM_MOLECULAR_WEIGHT>
296.27594

> <PUBCHEM_OPENEYE_CAN_SMILES>
C1C(C(C(=O)C(C1NC2=CC=C(C=C2)[N+](=O)[O-])O)O)CO

> <PUBCHEM_OPENEYE_ISO_SMILES>
C1[C@@H]([C@H](C(=O)[C@H]([C@H]1NC2=CC=C(C=C2)[N+](=O)[O-])O)O)CO

> <PUBCHEM_CACTVS_TPSA>
136

> <PUBCHEM_MONOISOTOPIC_WEIGHT>
296.100836

> <PUBCHEM_TOTAL_CHARGE>
0

> <PUBCHEM_HEAVY_ATOM_COUNT>
21

> <PUBCHEM_ATOM_DEF_STEREO_COUNT>
4

> <PUBCHEM_ATOM_UDEF_STEREO_COUNT>
0

> <PUBCHEM_BOND_DEF_STEREO_COUNT>
0

> <PUBCHEM_BOND_UDEF_STEREO_COUNT>
0

> <PUBCHEM_ISOTOPIC_ATOM_COUNT>
0

> <PUBCHEM_COMPONENT_COUNT>
1

> <PUBCHEM_CACTVS_TAUTO_COUNT>
9

> <PUBCHEM_COORDINATE_TYPE>
1
5
255

> <PUBCHEM_BONDANNOTATIONS>
12  1  5
16  17  8
16  18  8
17  19  8
18  20  8
19  21  8
13  2  5
20  21  8
10  7  5
9  15  6

$$$$

