17396377
  -OEChem-06241222563D

 42 45  0     1  0  0  0  0  0999 V2000
   -0.9929    3.4434    0.3466 S   0  0  0  0  0  0  0  0  0  0  0  0
   -2.6205    1.2907    1.8227 O   0  0  0  0  0  0  0  0  0  0  0  0
    5.2072   -0.8174    0.0537 O   0  0  0  0  0  0  0  0  0  0  0  0
   -2.6970   -1.6078   -1.6949 N   0  0  0  0  0  0  0  0  0  0  0  0
    1.4181    2.2167    0.6988 N   0  0  0  0  0  0  0  0  0  0  0  0
    0.2693    1.3901   -1.0152 N   0  0  0  0  0  0  0  0  0  0  0  0
   -2.4583   -0.0797   -0.1028 C   0  0  0  0  0  0  0  0  0  0  0  0
   -1.9349   -1.3115    0.3808 C   0  0  0  0  0  0  0  0  0  0  0  0
   -2.4529    2.5120   -0.2207 C   0  0  1  0  0  0  0  0  0  0  0  0
   -2.0969   -2.2535   -0.6374 C   0  0  0  0  0  0  0  0  0  0  0  0
   -2.5190    1.1840    0.5755 C   0  0  0  0  0  0  0  0  0  0  0  0
   -2.9192   -0.2938   -1.3813 C   0  0  0  0  0  0  0  0  0  0  0  0
    2.2074    1.2264    0.1726 C   0  0  0  0  0  0  0  0  0  0  0  0
    0.2722    2.2762   -0.0446 C   0  0  0  0  0  0  0  0  0  0  0  0
   -1.3371   -1.7166    1.5907 C   0  0  0  0  0  0  0  0  0  0  0  0
   -3.7051    3.3657   -0.0356 C   0  0  0  0  0  0  0  0  0  0  0  0
    1.4683    0.7258   -0.8958 C   0  0  0  0  0  0  0  0  0  0  0  0
   -1.6893   -3.5857   -0.5055 C   0  0  0  0  0  0  0  0  0  0  0  0
   -0.9245   -3.0461    1.7368 C   0  0  0  0  0  0  0  0  0  0  0  0
    3.4659    0.7403    0.5286 C   0  0  0  0  0  0  0  0  0  0  0  0
   -1.0989   -3.9646    0.7034 C   0  0  0  0  0  0  0  0  0  0  0  0
    2.0010   -0.3221   -1.6656 C   0  0  0  0  0  0  0  0  0  0  0  0
    3.9809   -0.3025   -0.2485 C   0  0  0  0  0  0  0  0  0  0  0  0
    3.2630   -0.8257   -1.3264 C   0  0  0  0  0  0  0  0  0  0  0  0
    5.8933   -0.2442    1.1640 C   0  0  0  0  0  0  0  0  0  0  0  0
   -2.3246    2.3129   -1.2887 H   0  0  0  0  0  0  0  0  0  0  0  0
   -3.3928    0.3600   -2.1005 H   0  0  0  0  0  0  0  0  0  0  0  0
   -2.9396   -2.0422   -2.5746 H   0  0  0  0  0  0  0  0  0  0  0  0
   -1.1896   -1.0147    2.4063 H   0  0  0  0  0  0  0  0  0  0  0  0
   -3.8715    3.6267    1.0157 H   0  0  0  0  0  0  0  0  0  0  0  0
   -3.6504    4.2905   -0.6200 H   0  0  0  0  0  0  0  0  0  0  0  0
   -4.5892    2.8117   -0.3706 H   0  0  0  0  0  0  0  0  0  0  0  0
   -1.8244   -4.3014   -1.3095 H   0  0  0  0  0  0  0  0  0  0  0  0
    1.6420    2.7989    1.4947 H   0  0  0  0  0  0  0  0  0  0  0  0
   -0.4616   -3.3640    2.6674 H   0  0  0  0  0  0  0  0  0  0  0  0
    3.9697    1.1890    1.3747 H   0  0  0  0  0  0  0  0  0  0  0  0
   -0.7706   -4.9921    0.8382 H   0  0  0  0  0  0  0  0  0  0  0  0
    1.4501   -0.7362   -2.5040 H   0  0  0  0  0  0  0  0  0  0  0  0
    3.6839   -1.6372   -1.9156 H   0  0  0  0  0  0  0  0  0  0  0  0
    6.8480   -0.7716    1.2608 H   0  0  0  0  0  0  0  0  0  0  0  0
    5.3473   -0.4009    2.1005 H   0  0  0  0  0  0  0  0  0  0  0  0
    6.1292    0.8114    0.9914 H   0  0  0  0  0  0  0  0  0  0  0  0
  1  9  1  0  0  0  0
  1 14  1  0  0  0  0
  2 11  2  0  0  0  0
  3 23  1  0  0  0  0
  3 25  1  0  0  0  0
  4 10  1  0  0  0  0
  4 12  1  0  0  0  0
  4 28  1  0  0  0  0
  5 13  1  0  0  0  0
  5 14  1  0  0  0  0
  5 34  1  0  0  0  0
  6 14  2  0  0  0  0
  6 17  1  0  0  0  0
  7  8  1  0  0  0  0
  7 11  1  0  0  0  0
  7 12  2  0  0  0  0
  8 10  1  0  0  0  0
  8 15  2  0  0  0  0
  9 11  1  0  0  0  0
  9 16  1  0  0  0  0
  9 26  1  0  0  0  0
 10 18  2  0  0  0  0
 12 27  1  0  0  0  0
 13 17  2  0  0  0  0
 13 20  1  0  0  0  0
 15 19  1  0  0  0  0
 15 29  1  0  0  0  0
 16 30  1  0  0  0  0
 16 31  1  0  0  0  0
 16 32  1  0  0  0  0
 17 22  1  0  0  0  0
 18 21  1  0  0  0  0
 18 33  1  0  0  0  0
 19 21  2  0  0  0  0
 19 35  1  0  0  0  0
 20 23  2  0  0  0  0
 20 36  1  0  0  0  0
 21 37  1  0  0  0  0
 22 24  2  0  0  0  0
 22 38  1  0  0  0  0
 23 24  1  0  0  0  0
 24 39  1  0  0  0  0
 25 40  1  0  0  0  0
 25 41  1  0  0  0  0
 25 42  1  0  0  0  0
M  END
> <PUBCHEM_COMPOUND_CID>
17396377

> <PUBCHEM_CONFORMER_RMSD>
0.8

> <PUBCHEM_CONFORMER_DIVERSEORDER>
1
108
378
45
54
269
113
242
344
434
132
125
336
311
444
238
428
350
160
469
128
345
112
138
147
72
7
234
304
254
295
56
117
58
431
95
327
368
289
16
276
202
67
425
178
407
470
436
26
275
143
42
253
186
359
137
47
433
388
432
445
326
228
256
371
349
73
231
464
347
189
415
156
271
268
149
443
195
204
342
123
4
194
185
316
32
461
180
462
90
264
301
145
322
33
460
422
131
315
394
34
21
134
28
8
50
153
318
455
402
18
87
96
459
339
39
341
212
89
5
410
442
441
3
348
183
296
164
320
22
122
375
208
6
176
292
70
373
466
226
353
280
303
136
225
413
374
41
177
107
323
85
277
104
14
10
369
182
329
220
286
439
237
409
109
210
270
17
135
423
169
370
312
379
2
294
380
240
400
68
405
377
192
248
263
64
43
357
390
99
241
258
352
330
227
453
40
214
94
163
384
251
209
11
159
27
69
219
257
236
171
435
429
454
59
15
121
144
106
141
274
363
24
102
438
451
36
207
290
53
162
30
154
427
298
110
48
317
358
262
158
245
216
265
338
197
230
261
310
273
300
193
456
105
324
31
385
372
84
35
181
430
82
398
403
51
170
12
203
267
97
418
151
308
218
361
129
98
414
325
37
426
343
199
76
46
150
366
382
319
417
297
309
356
19
279
452
334
243
74
331
239
142
116
314
246
468
200
424
283
179
29
205
92
190
118
79
437
213
223
115
440
184
392
152
389
408
55
293
167
127
229
313
81
446
13
38
9
77
302
130
287
111
23
272
447
140
44
93
175
119
172
260
362
305
332
65
471
250
62
255
299
328
60
457
161
412
278
420
188
411
399
386
381
83
449
244
404
465
86
91
416
103
224
391
351
126
321
148
57
206
252
174
285
133
393
467
233
281
419
284
235
114
291
463
259
450
49
340
360
25
66
397
395
166
337
63
266
458
80
354
173
211
365
20
139
100
396
157
146
52
217
165
196
201
306
221
168
232
75
120
448
288
88
376
307
401
155
333
187
421
364
335
346
247
78
61
101
222
406
124
367
249
198
71
355
215
383
387
282
191

> <PUBCHEM_MMFF94_PARTIAL_CHARGES>
33
1 -0.29
10 -0.15
11 0.6
12 -0.3
13 -0.15
14 0.24
15 -0.15
17 0.23
18 -0.15
19 -0.15
2 -0.57
20 -0.15
21 -0.15
22 -0.15
23 0.08
24 -0.15
25 0.28
27 0.15
28 0.27
29 0.15
3 -0.36
33 0.15
34 0.27
35 0.15
36 0.15
37 0.15
38 0.15
39 0.15
4 0.03
5 0.03
6 -0.57
7 -0.09
9 0.29

> <PUBCHEM_EFFECTIVE_ROTOR_COUNT>
5

> <PUBCHEM_PHARMACOPHORE_FEATURES>
11
1 16 hydrophobe
1 2 acceptor
1 3 acceptor
1 4 cation
1 4 donor
1 5 donor
3 5 6 14 cation
5 4 7 8 10 12 rings
5 5 6 13 14 17 rings
6 13 17 20 22 23 24 rings
6 8 10 15 18 19 21 rings

> <PUBCHEM_HEAVY_ATOM_COUNT>
25

> <PUBCHEM_ATOM_DEF_STEREO_COUNT>
0

> <PUBCHEM_ATOM_UDEF_STEREO_COUNT>
1

> <PUBCHEM_BOND_DEF_STEREO_COUNT>
0

> <PUBCHEM_BOND_UDEF_STEREO_COUNT>
0

> <PUBCHEM_ISOTOPIC_ATOM_COUNT>
0

> <PUBCHEM_COMPONENT_COUNT>
1

> <PUBCHEM_CACTVS_TAUTO_COUNT>
10

> <PUBCHEM_CONFORMER_ID>
0109729900000001

> <PUBCHEM_MMFF94_ENERGY>
57.4799

> <PUBCHEM_FEATURE_SELFOVERLAP>
56.017

> <PUBCHEM_SHAPE_FINGERPRINT>
11578080 2 15576436461547409129
12035759 4 18119550936266796877
12156800 1 16377540770477587311
12363563 72 18264767653935196566
12422481 6 17899378049257451995
12553582 1 18121201100522961207
12633257 1 18260542333987267080
12788726 201 18340191995579625965
128993 33 9438034639779717783
13140716 1 18267015051201525474
14081887 123 18261961842416844088
14251757 5 18194936682923628500
14659021 117 18266477446240475680
14844126 61 18412268315743738106
16120349 306 18198354055114839762
167882 2 17477494569674783589
20775530 9 17837485250538553582
20905425 154 17402313271781598613
23184049 29 18195520390037252902
23559900 14 18192446168648978280
23728640 28 18412539933590915755
3178227 256 18338502150031579793
3298306 158 17837769289663292805
3411729 13 17691958685202647593
445580 42 18201998802937880970
5265222 85 18125702716592950524
5309563 4 17329702128904136202
5364581 5 18190759548546823528
5385378 56 17834386101375831689
602551 16 18411420644324407232
81228 2 18263638477364056201
9709674 26 18193001426009562308

> <PUBCHEM_SHAPE_MULTIPOLES>
491.66
7.82
4.72
1.53
12.85
1.35
-0.01
-0.63
-0.63
-5.34
-1.06
-0.17
0.7
-0.11

> <PUBCHEM_SHAPE_SELFOVERLAP>
1076.652

> <PUBCHEM_SHAPE_VOLUME>
270.2

> <PUBCHEM_COORDINATE_TYPE>
2
5
10

$$$$

