67764
  -OEChem-07051213083D

 14 14  0     0  0  0  0  0  0999 V2000
    2.3721   -0.7555   -0.0002 F   0  0  0  0  0  0  0  0  0  0  0  0
    0.0097   -2.1474    0.0005 O   0  0  0  0  0  0  0  0  0  0  0  0
   -2.3941   -0.7543    0.0001 O   0  0  0  0  0  0  0  0  0  0  0  0
    0.0002   -0.7855   -0.0003 C   0  0  0  0  0  0  0  0  0  0  0  0
   -1.2069   -0.0863   -0.0004 C   0  0  0  0  0  0  0  0  0  0  0  0
    1.2092   -0.0895    0.0000 C   0  0  0  0  0  0  0  0  0  0  0  0
   -1.2050    1.3086   -0.0001 C   0  0  0  0  0  0  0  0  0  0  0  0
    1.2108    1.3055    0.0002 C   0  0  0  0  0  0  0  0  0  0  0  0
    0.0038    2.0045    0.0002 C   0  0  0  0  0  0  0  0  0  0  0  0
   -2.1418    1.8591    0.0000 H   0  0  0  0  0  0  0  0  0  0  0  0
    2.1522    1.8470    0.0004 H   0  0  0  0  0  0  0  0  0  0  0  0
    0.0052    3.0906    0.0005 H   0  0  0  0  0  0  0  0  0  0  0  0
    0.9348   -2.4493    0.0005 H   0  0  0  0  0  0  0  0  0  0  0  0
   -2.2077   -1.7093    0.0000 H   0  0  0  0  0  0  0  0  0  0  0  0
  1  6  1  0  0  0  0
  2  4  1  0  0  0  0
  2 13  1  0  0  0  0
  3  5  1  0  0  0  0
  3 14  1  0  0  0  0
  4  5  2  0  0  0  0
  4  6  1  0  0  0  0
  5  7  1  0  0  0  0
  6  8  2  0  0  0  0
  7  9  2  0  0  0  0
  7 10  1  0  0  0  0
  8  9  1  0  0  0  0
  8 11  1  0  0  0  0
  9 12  1  0  0  0  0
M  END
> <PUBCHEM_COMPOUND_CID>
67764

> <PUBCHEM_CONFORMER_RMSD>
0.4

> <PUBCHEM_CONFORMER_DIVERSEORDER>
1

> <PUBCHEM_MMFF94_PARTIAL_CHARGES>
14
1 -0.19
10 0.15
11 0.15
12 0.15
13 0.45
14 0.45
2 -0.53
3 -0.53
4 0.08
5 0.08
6 0.19
7 -0.15
8 -0.15
9 -0.15

> <PUBCHEM_EFFECTIVE_ROTOR_COUNT>
0

> <PUBCHEM_PHARMACOPHORE_FEATURES>
3
1 2 donor
1 3 donor
6 4 5 6 7 8 9 rings

> <PUBCHEM_HEAVY_ATOM_COUNT>
9

> <PUBCHEM_ATOM_DEF_STEREO_COUNT>
0

> <PUBCHEM_ATOM_UDEF_STEREO_COUNT>
0

> <PUBCHEM_BOND_DEF_STEREO_COUNT>
0

> <PUBCHEM_BOND_UDEF_STEREO_COUNT>
0

> <PUBCHEM_ISOTOPIC_ATOM_COUNT>
0

> <PUBCHEM_COMPONENT_COUNT>
1

> <PUBCHEM_CACTVS_TAUTO_COUNT>
10

> <PUBCHEM_CONFORMER_ID>
000108B400000001

> <PUBCHEM_MMFF94_ENERGY>
17.3148

> <PUBCHEM_FEATURE_SELFOVERLAP>
15.227

> <PUBCHEM_SHAPE_FINGERPRINT>
12423570 1 14382624595675139732
16945 1 18050568443495413669
18185500 45 18266741466148205229
21040471 1 17978510832388347361
23552423 10 18055341702939940726
241688 4 18410855494493467585
2748010 2 18411141333162296981
29004967 10 18198340658874446665
5084963 1 18186801378677074779

> <PUBCHEM_SHAPE_MULTIPOLES>
166.2
2.26
2.07
0.58
0.18
0.06
0
-0.44
0
-0.1
0
0
0.05
0

> <PUBCHEM_SHAPE_SELFOVERLAP>
351.023

> <PUBCHEM_SHAPE_VOLUME>
93.4

> <PUBCHEM_COORDINATE_TYPE>
2
5
10

$$$$

