92514
  -OEChem-07051213132D

 55 55  0     1  0  0  0  0  0999 V2000
    8.0000    1.1651    0.0000 N   0  3  0  0  0  0  0  0  0  0  0  0
    7.1340    1.6651    0.0000 C   0  0  0  0  0  0  0  0  0  0  0  0
    8.8660    1.6651    0.0000 C   0  0  0  0  0  0  0  0  0  0  0  0
    7.5000    0.2990    0.0000 C   0  0  0  0  0  0  0  0  0  0  0  0
    7.1340    2.6651    0.0000 C   0  0  0  0  0  0  0  0  0  0  0  0
    8.8660    2.6651    0.0000 C   0  0  0  0  0  0  0  0  0  0  0  0
    8.5000    0.2990    0.0000 C   0  0  0  0  0  0  0  0  0  0  0  0
    8.0000    3.1651    0.0000 C   0  0  0  0  0  0  0  0  0  0  0  0
    6.5000    0.2990    0.0000 C   0  0  0  0  0  0  0  0  0  0  0  0
    6.0000   -0.5670    0.0000 C   0  0  3  0  0  0  0  0  0  0  0  0
    5.0000   -0.5670    0.0000 C   0  0  0  0  0  0  0  0  0  0  0  0
    9.5000    0.2990    0.0000 C   0  0  0  0  0  0  0  0  0  0  0  0
    6.5000   -1.4330    0.0000 C   0  0  0  0  0  0  0  0  0  0  0  0
    4.5000   -1.4330    0.0000 C   0  0  0  0  0  0  0  0  0  0  0  0
    3.5000   -1.4330    0.0000 C   0  0  0  0  0  0  0  0  0  0  0  0
    3.0000   -2.2990    0.0000 C   0  0  0  0  0  0  0  0  0  0  0  0
   10.0000   -0.5670    0.0000 C   0  0  0  0  0  0  0  0  0  0  0  0
    2.0000   -2.2990    0.0000 C   0  0  0  0  0  0  0  0  0  0  0  0
    3.5000   -3.1651    0.0000 C   0  0  0  0  0  0  0  0  0  0  0  0
    6.5234    1.7727    0.0000 H   0  0  0  0  0  0  0  0  0  0  0  0
    6.9219    1.0824    0.0000 H   0  0  0  0  0  0  0  0  0  0  0  0
    9.0781    1.0824    0.0000 H   0  0  0  0  0  0  0  0  0  0  0  0
    9.4766    1.7727    0.0000 H   0  0  0  0  0  0  0  0  0  0  0  0
    7.3923   -0.3115    0.0000 H   0  0  0  0  0  0  0  0  0  0  0  0
    8.0826    0.0870    0.0000 H   0  0  0  0  0  0  0  0  0  0  0  0
    6.9219    3.2477    0.0000 H   0  0  0  0  0  0  0  0  0  0  0  0
    6.5234    2.5574    0.0000 H   0  0  0  0  0  0  0  0  0  0  0  0
    9.4766    2.5574    0.0000 H   0  0  0  0  0  0  0  0  0  0  0  0
    9.0781    3.2477    0.0000 H   0  0  0  0  0  0  0  0  0  0  0  0
    7.9174    0.0870    0.0000 H   0  0  0  0  0  0  0  0  0  0  0  0
    8.6077   -0.3115    0.0000 H   0  0  0  0  0  0  0  0  0  0  0  0
    8.3985    3.6400    0.0000 H   0  0  0  0  0  0  0  0  0  0  0  0
    7.6015    3.6400    0.0000 H   0  0  0  0  0  0  0  0  0  0  0  0
    6.6077    0.9096    0.0000 H   0  0  0  0  0  0  0  0  0  0  0  0
    5.9174    0.5111    0.0000 H   0  0  0  0  0  0  0  0  0  0  0  0
    6.8500   -0.5670    0.0000 H   0  0  0  0  0  0  0  0  0  0  0  0
    5.1077    0.0436    0.0000 H   0  0  0  0  0  0  0  0  0  0  0  0
    4.4174   -0.3549    0.0000 H   0  0  0  0  0  0  0  0  0  0  0  0
    9.8100    0.8360    0.0000 H   0  0  0  0  0  0  0  0  0  0  0  0
    5.9631   -1.7430    0.0000 H   0  0  0  0  0  0  0  0  0  0  0  0
    6.8100   -1.9700    0.0000 H   0  0  0  0  0  0  0  0  0  0  0  0
    7.0369   -1.1230    0.0000 H   0  0  0  0  0  0  0  0  0  0  0  0
    4.3923   -2.0436    0.0000 H   0  0  0  0  0  0  0  0  0  0  0  0
    5.0826   -1.6451    0.0000 H   0  0  0  0  0  0  0  0  0  0  0  0
    3.6077   -0.8224    0.0000 H   0  0  0  0  0  0  0  0  0  0  0  0
    2.9174   -1.2210    0.0000 H   0  0  0  0  0  0  0  0  0  0  0  0
    3.6200   -2.2990    0.0000 H   0  0  0  0  0  0  0  0  0  0  0  0
    9.6900   -1.1039    0.0000 H   0  0  0  0  0  0  0  0  0  0  0  0
   10.6200   -0.5670    0.0000 H   0  0  0  0  0  0  0  0  0  0  0  0
    2.0000   -1.6790    0.0000 H   0  0  0  0  0  0  0  0  0  0  0  0
    1.3800   -2.2990    0.0000 H   0  0  0  0  0  0  0  0  0  0  0  0
    2.0000   -2.9190    0.0000 H   0  0  0  0  0  0  0  0  0  0  0  0
    2.9631   -3.4751    0.0000 H   0  0  0  0  0  0  0  0  0  0  0  0
    3.8100   -3.7020    0.0000 H   0  0  0  0  0  0  0  0  0  0  0  0
    4.0369   -2.8551    0.0000 H   0  0  0  0  0  0  0  0  0  0  0  0
  1  2  1  0  0  0  0
  1  3  1  0  0  0  0
  1  4  1  0  0  0  0
  1  7  1  0  0  0  0
  2  5  1  0  0  0  0
  2 20  1  0  0  0  0
  2 21  1  0  0  0  0
  3  6  1  0  0  0  0
  3 22  1  0  0  0  0
  3 23  1  0  0  0  0
  4  9  1  0  0  0  0
  4 24  1  0  0  0  0
  4 25  1  0  0  0  0
  5  8  1  0  0  0  0
  5 26  1  0  0  0  0
  5 27  1  0  0  0  0
  6  8  1  0  0  0  0
  6 28  1  0  0  0  0
  6 29  1  0  0  0  0
  7 12  1  0  0  0  0
  7 30  1  0  0  0  0
  7 31  1  0  0  0  0
  8 32  1  0  0  0  0
  8 33  1  0  0  0  0
  9 10  1  0  0  0  0
  9 34  1  0  0  0  0
  9 35  1  0  0  0  0
 10 11  1  0  0  0  0
 10 13  1  0  0  0  0
 10 36  1  0  0  0  0
 11 14  1  0  0  0  0
 11 37  1  0  0  0  0
 11 38  1  0  0  0  0
 12 17  2  0  0  0  0
 12 39  1  0  0  0  0
 13 40  1  0  0  0  0
 13 41  1  0  0  0  0
 13 42  1  0  0  0  0
 14 15  1  0  0  0  0
 14 43  1  0  0  0  0
 14 44  1  0  0  0  0
 15 16  1  0  0  0  0
 15 45  1  0  0  0  0
 15 46  1  0  0  0  0
 16 18  1  0  0  0  0
 16 19  1  0  0  0  0
 16 47  1  0  0  0  0
 17 48  1  0  0  0  0
 17 49  1  0  0  0  0
 18 50  1  0  0  0  0
 18 51  1  0  0  0  0
 18 52  1  0  0  0  0
 19 53  1  0  0  0  0
 19 54  1  0  0  0  0
 19 55  1  0  0  0  0
M  CHG  1   1   1
M  END
> <PUBCHEM_COMPOUND_CID>
92514

> <PUBCHEM_COMPOUND_CANONICALIZED>
1

> <PUBCHEM_CACTVS_COMPLEXITY>
238

> <PUBCHEM_CACTVS_HBOND_ACCEPTOR>
0

> <PUBCHEM_CACTVS_HBOND_DONOR>
0

> <PUBCHEM_CACTVS_ROTATABLE_BOND>
9

> <PUBCHEM_CACTVS_SUBSKEYS>
AAADcfB6AAAAAAAAAAAAAAAAAAAAAAAAAAAsAAAAAAAAAAAAAAAAHAAAAAAADQDBAAQCAAMAAACAACBCAACAAAAAAAAIAAAIAAAAAAIAgQAEAAAAAACAAAEQgMAOAAAAAAAAAAAAAAAAAAAAAAAAAAAAAA==

> <PUBCHEM_IUPAC_OPENEYE_NAME>
1-allyl-1-(3,7-dimethyloctyl)piperidin-1-ium

> <PUBCHEM_IUPAC_CAS_NAME>
1-(3,7-dimethyloctyl)-1-prop-2-enylpiperidin-1-ium

> <PUBCHEM_IUPAC_NAME>
1-(3,7-dimethyloctyl)-1-prop-2-enylpiperidin-1-ium

> <PUBCHEM_IUPAC_SYSTEMATIC_NAME>
1-(3,7-dimethyloctyl)-1-prop-2-enyl-piperidin-1-ium

> <PUBCHEM_IUPAC_TRADITIONAL_NAME>
1-allyl-1-(3,7-dimethyloctyl)piperidin-1-ium

> <PUBCHEM_IUPAC_INCHI>
InChI=1S/C18H36N/c1-5-13-19(14-7-6-8-15-19)16-12-18(4)11-9-10-17(2)3/h5,17-18H,1,6-16H2,2-4H3/q+1

> <PUBCHEM_IUPAC_INCHIKEY>
NTHCPJMKRGXODE-UHFFFAOYSA-N

> <PUBCHEM_XLOGP3_AA>
5.9

> <PUBCHEM_EXACT_MASS>
266.284775

> <PUBCHEM_MOLECULAR_FORMULA>
C18H36N+

> <PUBCHEM_MOLECULAR_WEIGHT>
266.48514

> <PUBCHEM_OPENEYE_CAN_SMILES>
CC(C)CCCC(C)CC[N+]1(CCCCC1)CC=C

> <PUBCHEM_OPENEYE_ISO_SMILES>
CC(C)CCCC(C)CC[N+]1(CCCCC1)CC=C

> <PUBCHEM_CACTVS_TPSA>
0

> <PUBCHEM_MONOISOTOPIC_WEIGHT>
266.284775

> <PUBCHEM_TOTAL_CHARGE>
1

> <PUBCHEM_HEAVY_ATOM_COUNT>
19

> <PUBCHEM_ATOM_DEF_STEREO_COUNT>
0

> <PUBCHEM_ATOM_UDEF_STEREO_COUNT>
1

> <PUBCHEM_BOND_DEF_STEREO_COUNT>
0

> <PUBCHEM_BOND_UDEF_STEREO_COUNT>
0

> <PUBCHEM_ISOTOPIC_ATOM_COUNT>
0

> <PUBCHEM_COMPONENT_COUNT>
1

> <PUBCHEM_CACTVS_TAUTO_COUNT>
1

> <PUBCHEM_COORDINATE_TYPE>
1
5
255

> <PUBCHEM_BONDANNOTATIONS>
10  36  3

$$$$

