17396148
  -OEChem-06241222543D

 43 45  0     0  0  0  0  0  0999 V2000
    1.3117   -0.2131   -0.6391 O   0  0  0  0  0  0  0  0  0  0  0  0
   -0.0637    2.4466    0.9427 O   0  0  0  0  0  0  0  0  0  0  0  0
    5.4385   -1.0709    1.0320 O   0  0  0  0  0  0  0  0  0  0  0  0
   -0.9422    3.3311   -0.9823 O   0  0  0  0  0  0  0  0  0  0  0  0
    2.9278    0.1670   -2.2212 O   0  0  0  0  0  0  0  0  0  0  0  0
   -1.6440   -1.1391   -1.0480 N   0  0  0  0  0  0  0  0  0  0  0  0
    4.4141   -1.2833    1.9467 N   0  0  0  0  0  0  0  0  0  0  0  0
    5.7613   -0.3951   -1.1582 N   0  0  0  0  0  0  0  0  0  0  0  0
   -2.8263    0.9788    0.3152 C   0  0  0  0  0  0  0  0  0  0  0  0
   -3.4941   -0.2490    0.2137 C   0  0  0  0  0  0  0  0  0  0  0  0
   -1.5755    1.1428   -0.2625 C   0  0  0  0  0  0  0  0  0  0  0  0
   -1.0330    0.0618   -0.9273 C   0  0  0  0  0  0  0  0  0  0  0  0
   -2.8577   -1.2953   -0.4863 C   0  0  0  0  0  0  0  0  0  0  0  0
    0.3099    0.1640   -1.5743 C   0  0  0  0  0  0  0  0  0  0  0  0
   -3.4410    2.1365    1.0438 C   0  0  0  0  0  0  0  0  0  0  0  0
   -4.7615   -0.4470    0.7875 C   0  0  0  0  0  0  0  0  0  0  0  0
   -3.5216   -2.5148   -0.5869 C   0  0  0  0  0  0  0  0  0  0  0  0
   -0.8577    2.4085   -0.1731 C   0  0  0  0  0  0  0  0  0  0  0  0
   -5.4027   -1.6770    0.6716 C   0  0  0  0  0  0  0  0  0  0  0  0
   -4.7816   -2.7119   -0.0164 C   0  0  0  0  0  0  0  0  0  0  0  0
    3.5445   -0.5803   -0.0373 C   0  0  0  0  0  0  0  0  0  0  0  0
    2.6089   -0.1712   -1.0860 C   0  0  0  0  0  0  0  0  0  0  0  0
    3.2925   -0.9837    1.2853 C   0  0  0  0  0  0  0  0  0  0  0  0
    4.9082   -0.6526   -0.1456 C   0  0  0  0  0  0  0  0  0  0  0  0
    1.9922   -1.0996    1.9675 C   0  0  0  0  0  0  0  0  0  0  0  0
    0.6930    3.6467    1.1387 C   0  0  0  0  0  0  0  0  0  0  0  0
    0.5043    1.1692   -1.9648 H   0  0  0  0  0  0  0  0  0  0  0  0
    0.3454   -0.5252   -2.4281 H   0  0  0  0  0  0  0  0  0  0  0  0
   -3.6109    1.8734    2.0938 H   0  0  0  0  0  0  0  0  0  0  0  0
   -2.8348    3.0458    1.0508 H   0  0  0  0  0  0  0  0  0  0  0  0
   -4.3951    2.4106    0.5800 H   0  0  0  0  0  0  0  0  0  0  0  0
   -5.2779    0.3380    1.3331 H   0  0  0  0  0  0  0  0  0  0  0  0
   -3.0564   -3.3414   -1.1208 H   0  0  0  0  0  0  0  0  0  0  0  0
   -6.3818   -1.8268    1.1163 H   0  0  0  0  0  0  0  0  0  0  0  0
   -5.2746   -3.6750   -0.1117 H   0  0  0  0  0  0  0  0  0  0  0  0
    1.3461   -1.8222    1.4587 H   0  0  0  0  0  0  0  0  0  0  0  0
    2.1099   -1.4417    3.0017 H   0  0  0  0  0  0  0  0  0  0  0  0
    1.4814   -0.1320    2.0023 H   0  0  0  0  0  0  0  0  0  0  0  0
    1.3837    3.7977    0.3038 H   0  0  0  0  0  0  0  0  0  0  0  0
    0.0213    4.5035    1.2470 H   0  0  0  0  0  0  0  0  0  0  0  0
    1.2728    3.5356    2.0587 H   0  0  0  0  0  0  0  0  0  0  0  0
    6.7644   -0.5077   -1.0528 H   0  0  0  0  0  0  0  0  0  0  0  0
    5.4425   -0.0791   -2.0685 H   0  0  0  0  0  0  0  0  0  0  0  0
  1 14  1  0  0  0  0
  1 22  1  0  0  0  0
  2 18  1  0  0  0  0
  2 26  1  0  0  0  0
  3  7  1  0  0  0  0
  3 24  1  0  0  0  0
  4 18  2  0  0  0  0
  5 22  2  0  0  0  0
  6 12  2  0  0  0  0
  6 13  1  0  0  0  0
  7 23  2  0  0  0  0
  8 24  1  0  0  0  0
  8 42  1  0  0  0  0
  8 43  1  0  0  0  0
  9 10  1  0  0  0  0
  9 11  2  0  0  0  0
  9 15  1  0  0  0  0
 10 13  1  0  0  0  0
 10 16  2  0  0  0  0
 11 12  1  0  0  0  0
 11 18  1  0  0  0  0
 12 14  1  0  0  0  0
 13 17  2  0  0  0  0
 14 27  1  0  0  0  0
 14 28  1  0  0  0  0
 15 29  1  0  0  0  0
 15 30  1  0  0  0  0
 15 31  1  0  0  0  0
 16 19  1  0  0  0  0
 16 32  1  0  0  0  0
 17 20  1  0  0  0  0
 17 33  1  0  0  0  0
 19 20  2  0  0  0  0
 19 34  1  0  0  0  0
 20 35  1  0  0  0  0
 21 22  1  0  0  0  0
 21 23  1  0  0  0  0
 21 24  2  0  0  0  0
 23 25  1  0  0  0  0
 25 36  1  0  0  0  0
 25 37  1  0  0  0  0
 25 38  1  0  0  0  0
 26 39  1  0  0  0  0
 26 40  1  0  0  0  0
 26 41  1  0  0  0  0
M  END
> <PUBCHEM_COMPOUND_CID>
17396148

> <PUBCHEM_CONFORMER_RMSD>
0.8

> <PUBCHEM_CONFORMER_DIVERSEORDER>
4
256
140
113
239
134
72
206
104
223
251
112
132
183
74
116
245
229
127
142
178
219
35
204
208
217
261
202
126
243
96
79
176
185
258
203
231
128
152
241
195
147
120
84
52
227
174
123
26
105
161
216
196
211
122
117
159
71
70
88
141
129
246
235
109
165
42
250
45
221
163
91
157
194
138
143
224
232
247
238
167
101
115
51
212
99
263
175
93
155
162
81
182
259
33
249
187
198
168
62
41
164
43
124
76
97
234
16
46
156
36
2
29
14
197
86
103
68
260
253
69
19
192
172
28
119
191
102
210
92
226
130
61
57
121
6
184
94
189
177
65
118
233
136
24
3
64
236
83
242
225
199
95
215
27
171
254
237
63
222
179
137
207
186
90
89
107
166
30
154
98
67
193
255
100
150
257
48
77
188
53
32
75
262
47
5
149
11
220
1
21
54
180
145
110
190
39
114
148
20
200
12
265
49
158
13
248
151
169
22
25
108
78
131
8
125
205
58
15
80
181
214
153
73
9
85
244
111
66
209
230
160
18
213
228
146
23
264
17
31
135
7
144
60
82
34
106
133
10
139
201
44
50
56
218
87
37
252
240
55
170
40
173
59
38

> <PUBCHEM_MMFF94_PARTIAL_CHARGES>
31
1 -0.43
11 0.09
12 0.17
13 0.31
14 0.42
15 0.14
16 -0.15
17 -0.15
18 0.63
19 -0.15
2 -0.43
20 -0.15
21 -0.09
22 0.81
23 0.11
24 0.22
25 0.18
26 0.28
3 -0.02
32 0.15
33 0.15
34 0.15
35 0.15
4 -0.57
42 0.4
43 0.4
5 -0.57
6 -0.62
7 -0.41
8 -0.88
9 -0.14

> <PUBCHEM_EFFECTIVE_ROTOR_COUNT>
6

> <PUBCHEM_PHARMACOPHORE_FEATURES>
9
1 4 acceptor
1 5 acceptor
1 6 acceptor
1 7 acceptor
1 8 cation
1 8 donor
5 3 7 21 23 24 rings
6 10 13 16 17 19 20 rings
6 6 9 10 11 12 13 rings

> <PUBCHEM_HEAVY_ATOM_COUNT>
26

> <PUBCHEM_ATOM_DEF_STEREO_COUNT>
0

> <PUBCHEM_ATOM_UDEF_STEREO_COUNT>
0

> <PUBCHEM_BOND_DEF_STEREO_COUNT>
0

> <PUBCHEM_BOND_UDEF_STEREO_COUNT>
0

> <PUBCHEM_ISOTOPIC_ATOM_COUNT>
0

> <PUBCHEM_COMPONENT_COUNT>
1

> <PUBCHEM_CACTVS_TAUTO_COUNT>
4

> <PUBCHEM_CONFORMER_ID>
010971B400000004

> <PUBCHEM_MMFF94_ENERGY>
69.0684

> <PUBCHEM_FEATURE_SELFOVERLAP>
45.7

> <PUBCHEM_SHAPE_FINGERPRINT>
10319926 262 18043252538602297718
11370993 144 16443614805025750295
11963148 33 17110445191606913567
12035758 1 18262790891696950697
12236239 1 18059852874309707126
12553582 1 18410581656200912623
12596602 18 18272650160685544724
12633257 1 18187634791891243747
12788726 201 18342451586247649960
13009979 54 18057058015179909010
13140716 1 18334011688001973673
13540713 5 17827625973628723047
13583140 156 17970936533493044602
13726171 33 18115568423188729328
13782708 43 17240759618640886718
13911987 19 15623651672402707286
14341114 328 18342171215431001192
14787075 74 18272086055222611288
15475509 35 17843672276094287363
15927050 60 17471288453183929758
17349148 13 17489587887572661082
17780758 139 18053685817286074394
1813 80 18409730617078738149
19377110 9 18201444666826803120
200 152 17418093221612313207
20511986 3 17846225496227196541
21033648 29 16733267936423233667
21421861 104 18190735328771988497
2297311 6 18260816129725560646
23366157 5 17981602663792409133
23557571 272 18040706013346637756
23559900 14 17968928700622187269
23598288 3 18125736809257368534
3411729 13 17899695661203183080
351380 3 18130787841132427998
4409770 3 18127980917481602477
469060 322 18335969952380286664
602551 16 18260830388785471894

> <PUBCHEM_SHAPE_MULTIPOLES>
490.78
11.52
3.22
1.63
6
3.02
0.1
-8.91
2.28
-2.74
0.66
1.73
-0.13
-0.87

> <PUBCHEM_SHAPE_SELFOVERLAP>
1073.815

> <PUBCHEM_SHAPE_VOLUME>
267.6

> <PUBCHEM_COORDINATE_TYPE>
2
5
10

$$$$

