11785
  -OEChem-06261206072D

 86 90  0     1  0  0  0  0  0999 V2000
    5.4679   -2.9377    0.0000 O   0  0  0  0  0  0  0  0  0  0  0  0
    4.6077   -1.4344    0.0000 O   0  0  0  0  0  0  0  0  0  0  0  0
   10.8610    0.1146    0.0000 C   0  0  3  0  0  0  0  0  0  0  0  0
   10.8610   -0.8854    0.0000 C   0  0  3  0  0  0  0  0  0  0  0  0
    9.9950   -1.3854    0.0000 C   0  0  3  0  0  0  0  0  0  0  0  0
    9.1290   -0.8854    0.0000 C   0  0  3  0  0  0  0  0  0  0  0  0
   11.8072    0.4194    0.0000 C   0  0  3  0  0  0  0  0  0  0  0  0
    9.9950    0.6146    0.0000 C   0  0  0  0  0  0  0  0  0  0  0  0
    8.2190   -1.3922    0.0000 C   0  0  3  0  0  0  0  0  0  0  0  0
   11.8072   -1.1901    0.0000 C   0  0  0  0  0  0  0  0  0  0  0  0
    9.1290    0.1146    0.0000 C   0  0  0  0  0  0  0  0  0  0  0  0
   12.3908   -0.3854    0.0000 C   0  0  0  0  0  0  0  0  0  0  0  0
   10.0110   -2.4269    0.0000 C   0  0  0  0  0  0  0  0  0  0  0  0
   12.1179    1.3699    0.0000 C   0  0  3  0  0  0  0  0  0  0  0  0
   10.8610    1.1146    0.0000 C   0  0  0  0  0  0  0  0  0  0  0  0
    8.2109   -2.4338    0.0000 C   0  0  0  0  0  0  0  0  0  0  0  0
    7.2921   -0.8281    0.0000 C   0  0  0  0  0  0  0  0  0  0  0  0
    9.1130   -2.9546    0.0000 C   0  0  0  0  0  0  0  0  0  0  0  0
    8.2267   -0.3922    0.0000 C   0  0  0  0  0  0  0  0  0  0  0  0
    7.2755   -2.9835    0.0000 C   0  0  0  0  0  0  0  0  0  0  0  0
    6.3442   -1.3561    0.0000 C   0  0  0  0  0  0  0  0  0  0  0  0
   13.0964    1.5761    0.0000 C   0  0  0  0  0  0  0  0  0  0  0  0
    6.3359   -2.4410    0.0000 C   0  0  3  0  0  0  0  0  0  0  0  0
   11.4501    2.1142    0.0000 C   0  0  0  0  0  0  0  0  0  0  0  0
   13.4071    2.5266    0.0000 C   0  0  0  0  0  0  0  0  0  0  0  0
   14.3856    2.7328    0.0000 C   0  0  0  0  0  0  0  0  0  0  0  0
   14.6962    3.6834    0.0000 C   0  0  0  0  0  0  0  0  0  0  0  0
    4.6038   -2.4344    0.0000 C   0  0  0  0  0  0  0  0  0  0  0  0
   15.6747    3.8896    0.0000 C   0  0  0  0  0  0  0  0  0  0  0  0
   14.0284    4.4277    0.0000 C   0  0  0  0  0  0  0  0  0  0  0  0
    3.7359   -2.9310    0.0000 C   0  0  0  0  0  0  0  0  0  0  0  0
    2.8718   -2.4277    0.0000 C   0  0  0  0  0  0  0  0  0  0  0  0
    3.7320   -3.9310    0.0000 C   0  0  0  0  0  0  0  0  0  0  0  0
    2.0038   -2.9243    0.0000 C   0  0  0  0  0  0  0  0  0  0  0  0
    2.8641   -4.4277    0.0000 C   0  0  0  0  0  0  0  0  0  0  0  0
    2.0000   -3.9243    0.0000 C   0  0  0  0  0  0  0  0  0  0  0  0
   10.9266   -1.5019    0.0000 H   0  0  0  0  0  0  0  0  0  0  0  0
   10.5343   -1.6912    0.0000 H   0  0  0  0  0  0  0  0  0  0  0  0
    9.6659   -0.5754    0.0000 H   0  0  0  0  0  0  0  0  0  0  0  0
   12.4197    0.5156    0.0000 H   0  0  0  0  0  0  0  0  0  0  0  0
   10.3935    1.0896    0.0000 H   0  0  0  0  0  0  0  0  0  0  0  0
    9.5965    1.0896    0.0000 H   0  0  0  0  0  0  0  0  0  0  0  0
   11.5562   -1.7570    0.0000 H   0  0  0  0  0  0  0  0  0  0  0  0
   12.3446   -1.4993    0.0000 H   0  0  0  0  0  0  0  0  0  0  0  0
    8.9169    0.6972    0.0000 H   0  0  0  0  0  0  0  0  0  0  0  0
    8.5184    0.0070    0.0000 H   0  0  0  0  0  0  0  0  0  0  0  0
   12.8517   -0.8001    0.0000 H   0  0  0  0  0  0  0  0  0  0  0  0
   12.8517    0.0294    0.0000 H   0  0  0  0  0  0  0  0  0  0  0  0
   10.2291   -3.0073    0.0000 H   0  0  0  0  0  0  0  0  0  0  0  0
   10.6202   -2.3114    0.0000 H   0  0  0  0  0  0  0  0  0  0  0  0
   12.3105    1.9592    0.0000 H   0  0  0  0  0  0  0  0  0  0  0  0
   11.4810    1.1146    0.0000 H   0  0  0  0  0  0  0  0  0  0  0  0
   10.8610    1.7346    0.0000 H   0  0  0  0  0  0  0  0  0  0  0  0
   10.2410    1.1146    0.0000 H   0  0  0  0  0  0  0  0  0  0  0  0
    7.7003   -0.3615    0.0000 H   0  0  0  0  0  0  0  0  0  0  0  0
    6.9022   -0.3461    0.0000 H   0  0  0  0  0  0  0  0  0  0  0  0
    9.1154   -3.5746    0.0000 H   0  0  0  0  0  0  0  0  0  0  0  0
    8.8466   -0.3970    0.0000 H   0  0  0  0  0  0  0  0  0  0  0  0
    8.2314    0.2277    0.0000 H   0  0  0  0  0  0  0  0  0  0  0  0
    7.6067   -0.3875    0.0000 H   0  0  0  0  0  0  0  0  0  0  0  0
    6.8782   -3.4595    0.0000 H   0  0  0  0  0  0  0  0  0  0  0  0
    7.6765   -3.4564    0.0000 H   0  0  0  0  0  0  0  0  0  0  0  0
    6.1397   -0.7708    0.0000 H   0  0  0  0  0  0  0  0  0  0  0  0
    5.7326   -1.4574    0.0000 H   0  0  0  0  0  0  0  0  0  0  0  0
   13.1170    0.9564    0.0000 H   0  0  0  0  0  0  0  0  0  0  0  0
   13.7102    1.4888    0.0000 H   0  0  0  0  0  0  0  0  0  0  0  0
    6.3347   -3.0610    0.0000 H   0  0  0  0  0  0  0  0  0  0  0  0
   11.9115    2.5282    0.0000 H   0  0  0  0  0  0  0  0  0  0  0  0
   11.0360    2.5757    0.0000 H   0  0  0  0  0  0  0  0  0  0  0  0
   10.9886    1.7001    0.0000 H   0  0  0  0  0  0  0  0  0  0  0  0
   13.3865    3.1463    0.0000 H   0  0  0  0  0  0  0  0  0  0  0  0
   12.7932    2.6140    0.0000 H   0  0  0  0  0  0  0  0  0  0  0  0
   14.4061    2.1132    0.0000 H   0  0  0  0  0  0  0  0  0  0  0  0
   14.9994    2.6455    0.0000 H   0  0  0  0  0  0  0  0  0  0  0  0
   14.0896    3.5555    0.0000 H   0  0  0  0  0  0  0  0  0  0  0  0
   15.8026    3.2829    0.0000 H   0  0  0  0  0  0  0  0  0  0  0  0
   16.2814    4.0174    0.0000 H   0  0  0  0  0  0  0  0  0  0  0  0
   15.5469    4.4963    0.0000 H   0  0  0  0  0  0  0  0  0  0  0  0
   14.4899    4.8417    0.0000 H   0  0  0  0  0  0  0  0  0  0  0  0
   13.6143    4.8891    0.0000 H   0  0  0  0  0  0  0  0  0  0  0  0
   13.5669    4.0136    0.0000 H   0  0  0  0  0  0  0  0  0  0  0  0
    2.8742   -1.8077    0.0000 H   0  0  0  0  0  0  0  0  0  0  0  0
    4.2678   -4.2431    0.0000 H   0  0  0  0  0  0  0  0  0  0  0  0
    1.4681   -2.6123    0.0000 H   0  0  0  0  0  0  0  0  0  0  0  0
    2.8617   -5.0477    0.0000 H   0  0  0  0  0  0  0  0  0  0  0  0
    1.4619   -4.2323    0.0000 H   0  0  0  0  0  0  0  0  0  0  0  0
  1 23  1  0  0  0  0
  1 28  1  0  0  0  0
  2 28  2  0  0  0  0
  3  4  1  0  0  0  0
  3  7  1  0  0  0  0
  3  8  1  0  0  0  0
  3 15  1  0  0  0  0
  4  5  1  0  0  0  0
  4 10  1  0  0  0  0
  4 37  1  0  0  0  0
  5  6  1  0  0  0  0
  5 13  1  0  0  0  0
  5 38  1  0  0  0  0
  6  9  1  0  0  0  0
  6 11  1  0  0  0  0
  6 39  1  0  0  0  0
  7 12  1  0  0  0  0
  7 14  1  0  0  0  0
  7 40  1  0  0  0  0
  8 11  1  0  0  0  0
  8 41  1  0  0  0  0
  8 42  1  0  0  0  0
  9 16  1  0  0  0  0
  9 17  1  0  0  0  0
  9 19  1  0  0  0  0
 10 12  1  0  0  0  0
 10 43  1  0  0  0  0
 10 44  1  0  0  0  0
 11 45  1  0  0  0  0
 11 46  1  0  0  0  0
 12 47  1  0  0  0  0
 12 48  1  0  0  0  0
 13 18  1  0  0  0  0
 13 49  1  0  0  0  0
 13 50  1  0  0  0  0
 14 22  1  0  0  0  0
 14 24  1  0  0  0  0
 14 51  1  0  0  0  0
 15 52  1  0  0  0  0
 15 53  1  0  0  0  0
 15 54  1  0  0  0  0
 16 18  2  0  0  0  0
 16 20  1  0  0  0  0
 17 21  1  0  0  0  0
 17 55  1  0  0  0  0
 17 56  1  0  0  0  0
 18 57  1  0  0  0  0
 19 58  1  0  0  0  0
 19 59  1  0  0  0  0
 19 60  1  0  0  0  0
 20 23  1  0  0  0  0
 20 61  1  0  0  0  0
 20 62  1  0  0  0  0
 21 23  1  0  0  0  0
 21 63  1  0  0  0  0
 21 64  1  0  0  0  0
 22 25  1  0  0  0  0
 22 65  1  0  0  0  0
 22 66  1  0  0  0  0
 23 67  1  0  0  0  0
 24 68  1  0  0  0  0
 24 69  1  0  0  0  0
 24 70  1  0  0  0  0
 25 26  1  0  0  0  0
 25 71  1  0  0  0  0
 25 72  1  0  0  0  0
 26 27  1  0  0  0  0
 26 73  1  0  0  0  0
 26 74  1  0  0  0  0
 27 29  1  0  0  0  0
 27 30  1  0  0  0  0
 27 75  1  0  0  0  0
 28 31  1  0  0  0  0
 29 76  1  0  0  0  0
 29 77  1  0  0  0  0
 29 78  1  0  0  0  0
 30 79  1  0  0  0  0
 30 80  1  0  0  0  0
 30 81  1  0  0  0  0
 31 32  2  0  0  0  0
 31 33  1  0  0  0  0
 32 34  1  0  0  0  0
 32 82  1  0  0  0  0
 33 35  2  0  0  0  0
 33 83  1  0  0  0  0
 34 36  2  0  0  0  0
 34 84  1  0  0  0  0
 35 36  1  0  0  0  0
 35 85  1  0  0  0  0
 36 86  1  0  0  0  0
M  END
> <PUBCHEM_COMPOUND_CID>
11785

> <PUBCHEM_COMPOUND_CANONICALIZED>
1

> <PUBCHEM_CACTVS_COMPLEXITY>
806

> <PUBCHEM_CACTVS_HBOND_ACCEPTOR>
2

> <PUBCHEM_CACTVS_HBOND_DONOR>
0

> <PUBCHEM_CACTVS_ROTATABLE_BOND>
8

> <PUBCHEM_CACTVS_SUBSKEYS>
AAADcfB8MAAAAAAAAAAAAAAAAAAAAYAAAAAwYMEAAAAAAGCBAAAAGgAAAAAADxSgmAIyCIAABACIAiDSCAACAAAkAAAIiAEACMgIJjKANRiCMQAkwAEIqYeIyPCPgAAAAAAAAADAAAQAACAAAQAACAAAAA==

> <PUBCHEM_IUPAC_OPENEYE_NAME>
[17-(1,5-dimethylhexyl)-10,13-dimethyl-2,3,4,7,8,9,11,12,14,15,16,17-dodecahydro-1H-cyclopenta[a]phenanthren-3-yl] benzoate

> <PUBCHEM_IUPAC_CAS_NAME>
benzoic acid [10,13-dimethyl-17-(6-methylheptan-2-yl)-2,3,4,7,8,9,11,12,14,15,16,17-dodecahydro-1H-cyclopenta[a]phenanthren-3-yl] ester

> <PUBCHEM_IUPAC_NAME>
[10,13-dimethyl-17-(6-methylheptan-2-yl)-2,3,4,7,8,9,11,12,14,15,16,17-dodecahydro-1H-cyclopenta[a]phenanthren-3-yl] benzoate

> <PUBCHEM_IUPAC_SYSTEMATIC_NAME>
[10,13-dimethyl-17-(6-methylheptan-2-yl)-2,3,4,7,8,9,11,12,14,15,16,17-dodecahydro-1H-cyclopenta[a]phenanthren-3-yl] benzoate

> <PUBCHEM_IUPAC_TRADITIONAL_NAME>
benzoic acid [17-(1,5-dimethylhexyl)-10,13-dimethyl-2,3,4,7,8,9,11,12,14,15,16,17-dodecahydro-1H-cyclopenta[a]phenanthren-3-yl] ester

> <PUBCHEM_IUPAC_INCHI>
InChI=1S/C34H50O2/c1-23(2)10-9-11-24(3)29-16-17-30-28-15-14-26-22-27(36-32(35)25-12-7-6-8-13-25)18-20-33(26,4)31(28)19-21-34(29,30)5/h6-8,12-14,23-24,27-31H,9-11,15-22H2,1-5H3

> <PUBCHEM_IUPAC_INCHIKEY>
UVZUFUGNHDDLRQ-UHFFFAOYSA-N

> <PUBCHEM_XLOGP3_AA>
10.8

> <PUBCHEM_EXACT_MASS>
490.381081

> <PUBCHEM_MOLECULAR_FORMULA>
C34H50O2

> <PUBCHEM_MOLECULAR_WEIGHT>
490.7596

> <PUBCHEM_OPENEYE_CAN_SMILES>
CC(C)CCCC(C)C1CCC2C1(CCC3C2CC=C4C3(CCC(C4)OC(=O)C5=CC=CC=C5)C)C

> <PUBCHEM_OPENEYE_ISO_SMILES>
CC(C)CCCC(C)C1CCC2C1(CCC3C2CC=C4C3(CCC(C4)OC(=O)C5=CC=CC=C5)C)C

> <PUBCHEM_CACTVS_TPSA>
26.3

> <PUBCHEM_MONOISOTOPIC_WEIGHT>
490.381081

> <PUBCHEM_TOTAL_CHARGE>
0

> <PUBCHEM_HEAVY_ATOM_COUNT>
36

> <PUBCHEM_ATOM_DEF_STEREO_COUNT>
0

> <PUBCHEM_ATOM_UDEF_STEREO_COUNT>
8

> <PUBCHEM_BOND_DEF_STEREO_COUNT>
0

> <PUBCHEM_BOND_UDEF_STEREO_COUNT>
0

> <PUBCHEM_ISOTOPIC_ATOM_COUNT>
0

> <PUBCHEM_COMPONENT_COUNT>
1

> <PUBCHEM_CACTVS_TAUTO_COUNT>
1

> <PUBCHEM_COORDINATE_TYPE>
1
5
255

> <PUBCHEM_BONDANNOTATIONS>
23  1  3
14  24  3
3  15  3
31  32  8
31  33  8
32  34  8
33  35  8
34  36  8
35  36  8
4  10  3
5  13  3
6  11  3
7  12  3
9  19  3

$$$$

