16487
  -OEChem-07051213113D

 38 39  0     0  0  0  0  0  0999 V2000
   -3.3179    1.6368    2.0748 O   0  0  0  0  0  0  0  0  0  0  0  0
    3.3180    1.6368   -2.0748 O   0  0  0  0  0  0  0  0  0  0  0  0
   -0.5763    1.6788    1.7792 O   0  0  0  0  0  0  0  0  0  0  0  0
    0.5763    1.6787   -1.7793 O   0  0  0  0  0  0  0  0  0  0  0  0
   -5.0258   -1.6801   -1.0543 O   0  0  0  0  0  0  0  0  0  0  0  0
    5.0257   -1.6801    1.0543 O   0  0  0  0  0  0  0  0  0  0  0  0
   -3.2680   -2.5790   -2.1808 O   0  0  0  0  0  0  0  0  0  0  0  0
    3.2682   -2.5790    2.1808 O   0  0  0  0  0  0  0  0  0  0  0  0
   -0.7192   -0.0170    0.0893 C   0  0  0  0  0  0  0  0  0  0  0  0
    0.7191   -0.0170   -0.0893 C   0  0  0  0  0  0  0  0  0  0  0  0
   -1.3258    0.8301    1.0168 C   0  0  0  0  0  0  0  0  0  0  0  0
    1.3258    0.8301   -1.0168 C   0  0  0  0  0  0  0  0  0  0  0  0
   -1.4985   -0.8789   -0.6824 C   0  0  0  0  0  0  0  0  0  0  0  0
    1.4986   -0.8788    0.6824 C   0  0  0  0  0  0  0  0  0  0  0  0
   -2.8845   -0.8938   -0.5265 C   0  0  0  0  0  0  0  0  0  0  0  0
    2.8845   -0.8938    0.5265 C   0  0  0  0  0  0  0  0  0  0  0  0
   -2.7119    0.8152    1.1727 C   0  0  0  0  0  0  0  0  0  0  0  0
    2.7119    0.8152   -1.1727 C   0  0  0  0  0  0  0  0  0  0  0  0
   -3.4912   -0.0468    0.4010 C   0  0  0  0  0  0  0  0  0  0  0  0
    3.4912   -0.0468   -0.4011 C   0  0  0  0  0  0  0  0  0  0  0  0
   -3.6978   -1.7909   -1.3320 C   0  0  0  0  0  0  0  0  0  0  0  0
    3.6977   -1.7909    1.3321 C   0  0  0  0  0  0  0  0  0  0  0  0
   -3.7163    2.9256    1.6119 C   0  0  0  0  0  0  0  0  0  0  0  0
    3.7162    2.9257   -1.6119 C   0  0  0  0  0  0  0  0  0  0  0  0
   -1.0228   -1.5383   -1.4059 H   0  0  0  0  0  0  0  0  0  0  0  0
    1.0230   -1.5381    1.4062 H   0  0  0  0  0  0  0  0  0  0  0  0
   -4.5679   -0.0320    0.5499 H   0  0  0  0  0  0  0  0  0  0  0  0
    4.5678   -0.0319   -0.5499 H   0  0  0  0  0  0  0  0  0  0  0  0
    0.3681    1.5965    1.5744 H   0  0  0  0  0  0  0  0  0  0  0  0
    1.1654    2.1492   -2.3936 H   0  0  0  0  0  0  0  0  0  0  0  0
   -4.4555    2.8330    0.8100 H   0  0  0  0  0  0  0  0  0  0  0  0
   -2.8496    3.4943    1.2602 H   0  0  0  0  0  0  0  0  0  0  0  0
   -4.1721    3.4640    2.4474 H   0  0  0  0  0  0  0  0  0  0  0  0
    4.4815    2.8317   -0.8349 H   0  0  0  0  0  0  0  0  0  0  0  0
    2.8572    3.4838   -1.2262 H   0  0  0  0  0  0  0  0  0  0  0  0
    4.1406    3.4765   -2.4557 H   0  0  0  0  0  0  0  0  0  0  0  0
   -5.5653   -2.2894   -1.6022 H   0  0  0  0  0  0  0  0  0  0  0  0
    5.5652   -2.2893    1.6021 H   0  0  0  0  0  0  0  0  0  0  0  0
  1 17  1  0  0  0  0
  1 23  1  0  0  0  0
  2 18  1  0  0  0  0
  2 24  1  0  0  0  0
  3 11  1  0  0  0  0
  3 29  1  0  0  0  0
  4 12  1  0  0  0  0
  4 30  1  0  0  0  0
  5 21  1  0  0  0  0
  5 37  1  0  0  0  0
  6 22  1  0  0  0  0
  6 38  1  0  0  0  0
  7 21  2  0  0  0  0
  8 22  2  0  0  0  0
  9 10  1  0  0  0  0
  9 11  2  0  0  0  0
  9 13  1  0  0  0  0
 10 12  2  0  0  0  0
 10 14  1  0  0  0  0
 11 17  1  0  0  0  0
 12 18  1  0  0  0  0
 13 15  2  0  0  0  0
 13 25  1  0  0  0  0
 14 16  2  0  0  0  0
 14 26  1  0  0  0  0
 15 19  1  0  0  0  0
 15 21  1  0  0  0  0
 16 20  1  0  0  0  0
 16 22  1  0  0  0  0
 17 19  2  0  0  0  0
 18 20  2  0  0  0  0
 19 27  1  0  0  0  0
 20 28  1  0  0  0  0
 23 31  1  0  0  0  0
 23 32  1  0  0  0  0
 23 33  1  0  0  0  0
 24 34  1  0  0  0  0
 24 35  1  0  0  0  0
 24 36  1  0  0  0  0
M  END
> <PUBCHEM_COMPOUND_CID>
16487

> <PUBCHEM_CONFORMER_RMSD>
0.8

> <PUBCHEM_CONFORMER_DIVERSEORDER>
2
1
3
4

> <PUBCHEM_MMFF94_PARTIAL_CHARGES>
30
1 -0.36
11 0.08
12 0.08
13 -0.15
14 -0.15
15 0.09
16 0.09
17 0.08
18 0.08
19 -0.15
2 -0.36
20 -0.15
21 0.63
22 0.63
23 0.28
24 0.28
25 0.15
26 0.15
27 0.15
28 0.15
29 0.45
3 -0.53
30 0.45
37 0.5
38 0.5
4 -0.53
5 -0.65
6 -0.65
7 -0.57
8 -0.57

> <PUBCHEM_EFFECTIVE_ROTOR_COUNT>
5

> <PUBCHEM_PHARMACOPHORE_FEATURES>
12
1 1 acceptor
1 2 acceptor
1 3 donor
1 4 donor
1 5 acceptor
1 6 acceptor
1 7 acceptor
1 8 acceptor
3 5 7 21 anion
3 6 8 22 anion
6 10 12 14 16 18 20 rings
6 9 11 13 15 17 19 rings

> <PUBCHEM_HEAVY_ATOM_COUNT>
24

> <PUBCHEM_ATOM_DEF_STEREO_COUNT>
0

> <PUBCHEM_ATOM_UDEF_STEREO_COUNT>
0

> <PUBCHEM_BOND_DEF_STEREO_COUNT>
0

> <PUBCHEM_BOND_UDEF_STEREO_COUNT>
0

> <PUBCHEM_ISOTOPIC_ATOM_COUNT>
0

> <PUBCHEM_COMPONENT_COUNT>
1

> <PUBCHEM_CACTVS_TAUTO_COUNT>
9

> <PUBCHEM_CONFORMER_ID>
0000406700000002

> <PUBCHEM_MMFF94_ENERGY>
100.0492

> <PUBCHEM_FEATURE_SELFOVERLAP>
61.008

> <PUBCHEM_SHAPE_FINGERPRINT>
10062212 137 18410291449634420803
10319926 262 17241907552141621898
10369192 42 15694295298893000190
11049842 53 17679277909581071238
11578080 2 18122659173132748869
11640471 11 18194654095007679200
12236239 1 18410571786128280038
12553582 1 17677891232746563735
12788726 201 18187638056056241691
13009979 54 18408603682032328626
13134695 92 17561086942794211542
13140716 1 17702366374723734800
13583140 156 18058145324536701329
13911987 19 17128719207623988836
14178342 30 17968097581015759815
14294032 229 17897145018678210137
14739800 52 18114749222833388712
15806764 133 15051437336704946271
15842332 3 18410849966864996704
16752209 62 17967527969979356767
17357779 13 16988287585538451566
173720 79 18190178069956189401
17818456 19 18118119409954073248
17980427 23 18336552694123255952
1813 80 17984974045726755670
18186145 218 15554454019434647895
18915476 22 17275098393267674054
20511986 3 18410866455244790336
20600515 1 17024040263595060627
20642791 268 18411702132181004960
20645477 70 17346606240060763862
20693207 138 15068888725047211844
21033648 29 17466238834686369000
21065201 7 17458334264894073190
21304303 282 17462873174270880765
22112679 90 18408599288117111440
22182313 1 15769771338431009996
2255824 54 18130497588022844378
23419403 2 17683852844425963205
23557571 272 16732978734599702393
23559900 14 17096632387676672692
23598288 3 18263346093212170185
23598291 2 18411973667785539846
25147074 1 18410852161593460352
266924 1 18410289173111947068
312423 11 18411412903965366038
474 4 17986094224547431588
495365 180 15984560922232564656
602551 16 17530966877875749998
603831 33 18264201426821254685
633830 44 17984107462880879236
6823239 73 16733536135772115840
7471813 234 18343032094486469116
7615 1 18410575088958260577
77492 1 18410847767841734670
88987 49 17822002151023163409
9658208 31 16517071021346961417
9981440 41 17033588250983602256

> <PUBCHEM_SHAPE_MULTIPOLES>
446.95
9.21
2.92
2.17
0
0.76
0
-2.17
0
0
0
0
0.19
-5.66

> <PUBCHEM_SHAPE_SELFOVERLAP>
973.763

> <PUBCHEM_SHAPE_VOLUME>
244.2

> <PUBCHEM_COORDINATE_TYPE>
2
5
10

$$$$

