7846945
  -OEChem-06241222483D

 60 64  0     1  0  0  0  0  0999 V2000
    4.5924    1.2701   -1.0189 S   0  0  0  0  0  0  0  0  0  0  0  0
    0.6326   -1.0113   -1.8098 O   0  0  0  0  0  0  0  0  0  0  0  0
    2.5553   -2.0085   -0.2113 O   0  0  0  0  0  0  0  0  0  0  0  0
    3.3213   -3.2386    1.5838 O   0  0  0  0  0  0  0  0  0  0  0  0
   -1.0624   -1.9960   -0.5565 N   0  0  0  0  0  0  0  0  0  0  0  0
    3.2934    0.6571    1.1233 N   0  0  0  0  0  0  0  0  0  0  0  0
   -3.0756   -0.6214   -0.4689 C   0  0  0  0  0  0  0  0  0  0  0  0
   -5.1334    0.8586   -0.4588 C   0  0  0  0  0  0  0  0  0  0  0  0
   -4.5837   -0.5367    1.5665 C   0  0  0  0  0  0  0  0  0  0  0  0
   -3.1542    1.4550    0.9827 C   0  0  0  0  0  0  0  0  0  0  0  0
   -4.2304   -0.0417   -1.3199 C   0  0  0  0  0  0  0  0  0  0  0  0
   -3.6824   -1.4334    0.6999 C   0  0  0  0  0  0  0  0  0  0  0  0
   -2.2567    0.5528    0.1178 C   0  0  0  0  0  0  0  0  0  0  0  0
   -5.7183    0.0310    0.6977 C   0  0  0  0  0  0  0  0  0  0  0  0
   -4.2960    2.0128    0.1169 C   0  0  0  0  0  0  0  0  0  0  0  0
   -3.7491    0.6244    2.1320 C   0  0  0  0  0  0  0  0  0  0  0  0
   -2.1795   -1.5166   -1.3289 C   0  0  2  0  0  0  0  0  0  0  0  0
   -2.9671   -2.6821   -1.9061 C   0  0  0  0  0  0  0  0  0  0  0  0
    0.2590   -1.7005   -0.8646 C   0  0  0  0  0  0  0  0  0  0  0  0
    1.2215   -2.3352    0.1164 C   0  0  0  0  0  0  0  0  0  0  0  0
    3.5276   -2.5281    0.6097 C   0  0  0  0  0  0  0  0  0  0  0  0
    4.8901   -2.0892    0.1231 C   0  0  0  0  0  0  0  0  0  0  0  0
    5.3146   -0.7548    0.7382 C   0  0  0  0  0  0  0  0  0  0  0  0
    4.3424    0.3457    0.3984 C   0  0  0  0  0  0  0  0  0  0  0  0
    3.1767    2.1862   -0.6592 C   0  0  0  0  0  0  0  0  0  0  0  0
    2.6145    1.7111    0.5295 C   0  0  0  0  0  0  0  0  0  0  0  0
    2.6047    3.2487   -1.3772 C   0  0  0  0  0  0  0  0  0  0  0  0
    1.4383    2.3230    1.0146 C   0  0  0  0  0  0  0  0  0  0  0  0
    1.4408    3.8365   -0.8754 C   0  0  0  0  0  0  0  0  0  0  0  0
    0.8635    3.3812    0.3050 C   0  0  0  0  0  0  0  0  0  0  0  0
   -5.9463    1.2629   -1.0724 H   0  0  0  0  0  0  0  0  0  0  0  0
   -5.0070   -1.1225    2.3902 H   0  0  0  0  0  0  0  0  0  0  0  0
   -2.5624    2.2818    1.3913 H   0  0  0  0  0  0  0  0  0  0  0  0
   -3.8309    0.5343   -2.1645 H   0  0  0  0  0  0  0  0  0  0  0  0
   -4.8646   -0.8282   -1.7411 H   0  0  0  0  0  0  0  0  0  0  0  0
   -4.2966   -2.2664    0.3419 H   0  0  0  0  0  0  0  0  0  0  0  0
   -2.9025   -1.8619    1.3402 H   0  0  0  0  0  0  0  0  0  0  0  0
   -1.8083    1.1453   -0.6903 H   0  0  0  0  0  0  0  0  0  0  0  0
   -1.4294    0.1911    0.7406 H   0  0  0  0  0  0  0  0  0  0  0  0
   -6.3323   -0.7869    0.3009 H   0  0  0  0  0  0  0  0  0  0  0  0
   -6.3798    0.6574    1.3087 H   0  0  0  0  0  0  0  0  0  0  0  0
   -4.9325    2.6741    0.7174 H   0  0  0  0  0  0  0  0  0  0  0  0
   -3.8850    2.6207   -0.6986 H   0  0  0  0  0  0  0  0  0  0  0  0
   -2.9448    0.2334    2.7673 H   0  0  0  0  0  0  0  0  0  0  0  0
   -4.3760    1.2611    2.7683 H   0  0  0  0  0  0  0  0  0  0  0  0
   -1.7930   -0.9285   -2.1709 H   0  0  0  0  0  0  0  0  0  0  0  0
   -3.3408   -3.3746   -1.1466 H   0  0  0  0  0  0  0  0  0  0  0  0
   -3.7923   -2.3765   -2.5525 H   0  0  0  0  0  0  0  0  0  0  0  0
   -2.3008   -3.2827   -2.5395 H   0  0  0  0  0  0  0  0  0  0  0  0
   -1.2487   -2.6109    0.2303 H   0  0  0  0  0  0  0  0  0  0  0  0
    1.0846   -3.4223    0.0807 H   0  0  0  0  0  0  0  0  0  0  0  0
    0.9845   -1.9642    1.1205 H   0  0  0  0  0  0  0  0  0  0  0  0
    4.8808   -2.0442   -0.9726 H   0  0  0  0  0  0  0  0  0  0  0  0
    5.6085   -2.8726    0.3911 H   0  0  0  0  0  0  0  0  0  0  0  0
    6.3266   -0.4978    0.4042 H   0  0  0  0  0  0  0  0  0  0  0  0
    5.3564   -0.8509    1.8304 H   0  0  0  0  0  0  0  0  0  0  0  0
    3.0497    3.6092   -2.2996 H   0  0  0  0  0  0  0  0  0  0  0  0
    0.9773    1.9735    1.9342 H   0  0  0  0  0  0  0  0  0  0  0  0
    0.9813    4.6596   -1.4163 H   0  0  0  0  0  0  0  0  0  0  0  0
   -0.0432    3.8488    0.6791 H   0  0  0  0  0  0  0  0  0  0  0  0
  1 24  1  0  0  0  0
  1 25  1  0  0  0  0
  2 19  2  0  0  0  0
  3 20  1  0  0  0  0
  3 21  1  0  0  0  0
  4 21  2  0  0  0  0
  5 17  1  0  0  0  0
  5 19  1  0  0  0  0
  5 50  1  0  0  0  0
  6 24  2  0  0  0  0
  6 26  1  0  0  0  0
  7 11  1  0  0  0  0
  7 12  1  0  0  0  0
  7 13  1  0  0  0  0
  7 17  1  0  0  0  0
  8 11  1  0  0  0  0
  8 14  1  0  0  0  0
  8 15  1  0  0  0  0
  8 31  1  0  0  0  0
  9 12  1  0  0  0  0
  9 14  1  0  0  0  0
  9 16  1  0  0  0  0
  9 32  1  0  0  0  0
 10 13  1  0  0  0  0
 10 15  1  0  0  0  0
 10 16  1  0  0  0  0
 10 33  1  0  0  0  0
 11 34  1  0  0  0  0
 11 35  1  0  0  0  0
 12 36  1  0  0  0  0
 12 37  1  0  0  0  0
 13 38  1  0  0  0  0
 13 39  1  0  0  0  0
 14 40  1  0  0  0  0
 14 41  1  0  0  0  0
 15 42  1  0  0  0  0
 15 43  1  0  0  0  0
 16 44  1  0  0  0  0
 16 45  1  0  0  0  0
 17 18  1  0  0  0  0
 17 46  1  0  0  0  0
 18 47  1  0  0  0  0
 18 48  1  0  0  0  0
 18 49  1  0  0  0  0
 19 20  1  0  0  0  0
 20 51  1  0  0  0  0
 20 52  1  0  0  0  0
 21 22  1  0  0  0  0
 22 23  1  0  0  0  0
 22 53  1  0  0  0  0
 22 54  1  0  0  0  0
 23 24  1  0  0  0  0
 23 55  1  0  0  0  0
 23 56  1  0  0  0  0
 25 26  1  0  0  0  0
 25 27  2  0  0  0  0
 26 28  2  0  0  0  0
 27 29  1  0  0  0  0
 27 57  1  0  0  0  0
 28 30  1  0  0  0  0
 28 58  1  0  0  0  0
 29 30  2  0  0  0  0
 29 59  1  0  0  0  0
 30 60  1  0  0  0  0
M  END
> <PUBCHEM_COMPOUND_CID>
7846945

> <PUBCHEM_CONFORMER_RMSD>
1.2

> <PUBCHEM_CONFORMER_DIVERSEORDER>
1
32
14
13
74
22
77
33
55
79
68
80
2
63
28
94
95
59
9
45
42
6
54
104
37
100
61
12
40
39
23
3
99
19
86
66
72
53
71
47
15
20
88
48
7
67
97
70
31
85
82
4
102
109
96
44
78
60
57
17
75
36
107
92
34
46
81
93
76
5
73
27
83
18
26
64
58
8
91
16
24
108
89
101
98
11
43
87
90
10
50
105
62
52
30
21
49
84
106
35
69
41
29
51
65
25
38
103
56

> <PUBCHEM_MMFF94_PARTIAL_CHARGES>
24
1 -0.08
17 0.3
19 0.57
2 -0.57
20 0.34
21 0.66
22 0.06
23 0.18
24 0.2
25 0.04
26 0.23
27 -0.15
28 -0.15
29 -0.15
3 -0.43
30 -0.15
4 -0.57
5 -0.73
50 0.37
57 0.15
58 0.15
59 0.15
6 -0.57
60 0.15

> <PUBCHEM_EFFECTIVE_ROTOR_COUNT>
10.2

> <PUBCHEM_PHARMACOPHORE_FEATURES>
10
1 2 acceptor
1 4 acceptor
1 5 donor
1 6 acceptor
5 1 6 24 25 26 rings
6 25 26 27 28 29 30 rings
6 7 8 10 11 13 15 rings
6 7 8 9 11 12 14 rings
6 7 9 10 12 13 16 rings
6 8 9 10 14 15 16 rings

> <PUBCHEM_HEAVY_ATOM_COUNT>
30

> <PUBCHEM_ATOM_DEF_STEREO_COUNT>
1

> <PUBCHEM_ATOM_UDEF_STEREO_COUNT>
0

> <PUBCHEM_BOND_DEF_STEREO_COUNT>
0

> <PUBCHEM_BOND_UDEF_STEREO_COUNT>
0

> <PUBCHEM_ISOTOPIC_ATOM_COUNT>
0

> <PUBCHEM_COMPONENT_COUNT>
1

> <PUBCHEM_CACTVS_TAUTO_COUNT>
4

> <PUBCHEM_CONFORMER_ID>
0077BC2100000001

> <PUBCHEM_MMFF94_ENERGY>
61.0885

> <PUBCHEM_FEATURE_SELFOVERLAP>
63.332

> <PUBCHEM_SHAPE_FINGERPRINT>
10688039 33 18129664243934243484
10928967 22 18262788550222173757
11059048 146 17837481960872647468
11513181 2 17025148794068219821
11828532 37 16154000032613950231
12422481 6 18042698380462398434
12633257 1 18335138665718377916
12978246 48 18334288752062822873
13583140 156 18202001045143112491
14117953 113 17901385920113153821
14790565 3 17980761537692975204
15001296 14 18188213104362661512
151778 21 18128251182176588252
15274700 232 16173127553198108718
15297060 5 17240475927466318770
15403338 16 18129947913417891379
15475509 84 17624427771682263610
15537594 2 18336819810692175100
16993438 75 17767137762027405148
17349148 13 17748831817158972213
17818456 19 17967250897027372786
18336668 15 18188496877442164448
20739085 24 18410009983501059894
23559900 14 18411990174078224489
338550 245 18410011018239986060
3459 110 18129086845516017235
3680242 22 18336254730239718273
392239 28 18196074574538164227
463206 1 18334577914730137888
474 4 18411420587720036767
5081480 168 17389066187616470438
508706 21 17987248887844825157
513202 73 17689714590349398682
8509985 295 18409729564854150196

> <PUBCHEM_SHAPE_MULTIPOLES>
593.67
12.48
4.26
1.63
3
1.21
0.03
-0.98
-2.26
-4.28
0.63
0.91
-0.28
-2.22

> <PUBCHEM_SHAPE_SELFOVERLAP>
1274.056

> <PUBCHEM_SHAPE_VOLUME>
330.3

> <PUBCHEM_COORDINATE_TYPE>
2
5
10

$$$$

