17396111
  -OEChem-06241222543D

 59 62  0     1  0  0  0  0  0999 V2000
   -2.7670   -0.2115   -1.9743 S   0  0  0  0  0  0  0  0  0  0  0  0
   -1.5429    0.5769   -1.9747 O   0  0  0  0  0  0  0  0  0  0  0  0
   -3.3293   -0.6614   -3.2393 O   0  0  0  0  0  0  0  0  0  0  0  0
    0.3212   -3.7735    2.1425 O   0  0  0  0  0  0  0  0  0  0  0  0
    1.3411   -2.5345    0.4687 N   0  0  0  0  0  0  0  0  0  0  0  0
   -3.9697    0.6423   -1.1125 N   0  0  0  0  0  0  0  0  0  0  0  0
    5.7620    1.9728   -0.2563 N   0  0  0  0  0  0  0  0  0  0  0  0
    6.2453    2.7755    0.7039 N   0  0  0  0  0  0  0  0  0  0  0  0
    6.8204    3.5183   -1.3818 N   0  0  0  0  0  0  0  0  0  0  0  0
    2.6908   -2.6525    0.9716 C   0  0  2  0  0  0  0  0  0  0  0  0
   -2.5214   -1.6245   -0.9714 C   0  0  0  0  0  0  0  0  0  0  0  0
    3.5085   -1.4215    0.6448 C   0  0  0  0  0  0  0  0  0  0  0  0
   -1.0614   -2.9218    0.4509 C   0  0  0  0  0  0  0  0  0  0  0  0
   -3.5363   -2.5633   -0.7860 C   0  0  0  0  0  0  0  0  0  0  0  0
   -1.2840   -1.8038   -0.3529 C   0  0  0  0  0  0  0  0  0  0  0  0
    0.2292   -3.1099    1.0945 C   0  0  0  0  0  0  0  0  0  0  0  0
    3.3424   -3.9379    0.4657 C   0  0  0  0  0  0  0  0  0  0  0  0
   -2.0763   -3.8607    0.6363 C   0  0  0  0  0  0  0  0  0  0  0  0
   -3.3138   -3.6812    0.0179 C   0  0  0  0  0  0  0  0  0  0  0  0
   -3.7092    1.0876    0.2638 C   0  0  0  0  0  0  0  0  0  0  0  0
    3.7784   -1.0962   -0.6845 C   0  0  0  0  0  0  0  0  0  0  0  0
    3.9919   -0.6122    1.6729 C   0  0  0  0  0  0  0  0  0  0  0  0
   -4.8726   -2.4017   -1.4340 C   0  0  0  0  0  0  0  0  0  0  0  0
    5.0152    0.8478    0.0423 C   0  0  0  0  0  0  0  0  0  0  0  0
    4.5316    0.0386   -0.9858 C   0  0  0  0  0  0  0  0  0  0  0  0
    4.7454    0.5224    1.3715 C   0  0  0  0  0  0  0  0  0  0  0  0
   -4.4932    2.3190    0.6220 C   0  0  0  0  0  0  0  0  0  0  0  0
   -3.9497    3.5829    0.3929 C   0  0  0  0  0  0  0  0  0  0  0  0
   -5.7641    2.1976    1.1840 C   0  0  0  0  0  0  0  0  0  0  0  0
   -4.6774    4.7256    0.7255 C   0  0  0  0  0  0  0  0  0  0  0  0
   -6.4918    3.3403    1.5164 C   0  0  0  0  0  0  0  0  0  0  0  0
   -5.9484    4.6043    1.2872 C   0  0  0  0  0  0  0  0  0  0  0  0
    6.1079    2.4213   -1.4930 C   0  0  0  0  0  0  0  0  0  0  0  0
    6.8772    3.6948   -0.0289 C   0  0  0  0  0  0  0  0  0  0  0  0
    2.6203   -2.7436    2.0633 H   0  0  0  0  0  0  0  0  0  0  0  0
    1.2269   -2.0907   -0.4367 H   0  0  0  0  0  0  0  0  0  0  0  0
   -0.5132   -1.0496   -0.4744 H   0  0  0  0  0  0  0  0  0  0  0  0
    3.3774   -3.9771   -0.6288 H   0  0  0  0  0  0  0  0  0  0  0  0
    4.3679   -4.0336    0.8393 H   0  0  0  0  0  0  0  0  0  0  0  0
    2.7790   -4.8164    0.7999 H   0  0  0  0  0  0  0  0  0  0  0  0
   -4.9529    0.5541   -1.3954 H   0  0  0  0  0  0  0  0  0  0  0  0
   -1.9217   -4.7410    1.2548 H   0  0  0  0  0  0  0  0  0  0  0  0
   -4.0921   -4.4237    0.1731 H   0  0  0  0  0  0  0  0  0  0  0  0
   -2.6408    1.2847    0.4096 H   0  0  0  0  0  0  0  0  0  0  0  0
   -3.9730    0.2754    0.9517 H   0  0  0  0  0  0  0  0  0  0  0  0
    3.4072   -1.7120   -1.4992 H   0  0  0  0  0  0  0  0  0  0  0  0
    3.7898   -0.8521    2.7133 H   0  0  0  0  0  0  0  0  0  0  0  0
   -5.3870   -1.5011   -1.0960 H   0  0  0  0  0  0  0  0  0  0  0  0
   -4.8021   -2.4272   -2.5238 H   0  0  0  0  0  0  0  0  0  0  0  0
   -5.5352   -3.2339   -1.1647 H   0  0  0  0  0  0  0  0  0  0  0  0
    4.7093    0.2434   -2.0364 H   0  0  0  0  0  0  0  0  0  0  0  0
    5.1034    1.1264    2.2012 H   0  0  0  0  0  0  0  0  0  0  0  0
   -2.9614    3.6903   -0.0462 H   0  0  0  0  0  0  0  0  0  0  0  0
   -6.1992    1.2183    1.3655 H   0  0  0  0  0  0  0  0  0  0  0  0
   -4.2546    5.7099    0.5465 H   0  0  0  0  0  0  0  0  0  0  0  0
   -7.4816    3.2459    1.9532 H   0  0  0  0  0  0  0  0  0  0  0  0
   -6.5150    5.4940    1.5458 H   0  0  0  0  0  0  0  0  0  0  0  0
    5.8455    1.9578   -2.4333 H   0  0  0  0  0  0  0  0  0  0  0  0
    7.3959    4.5189    0.4377 H   0  0  0  0  0  0  0  0  0  0  0  0
  1  2  2  0  0  0  0
  1  3  2  0  0  0  0
  1  6  1  0  0  0  0
  1 11  1  0  0  0  0
  4 16  2  0  0  0  0
  5 10  1  0  0  0  0
  5 16  1  0  0  0  0
  5 36  1  0  0  0  0
  6 20  1  0  0  0  0
  6 41  1  0  0  0  0
  7  8  1  0  0  0  0
  7 24  1  0  0  0  0
  7 33  1  0  0  0  0
  8 34  2  0  0  0  0
  9 33  2  0  0  0  0
  9 34  1  0  0  0  0
 10 12  1  0  0  0  0
 10 17  1  0  0  0  0
 10 35  1  0  0  0  0
 11 14  2  0  0  0  0
 11 15  1  0  0  0  0
 12 21  2  0  0  0  0
 12 22  1  0  0  0  0
 13 15  2  0  0  0  0
 13 16  1  0  0  0  0
 13 18  1  0  0  0  0
 14 19  1  0  0  0  0
 14 23  1  0  0  0  0
 15 37  1  0  0  0  0
 17 38  1  0  0  0  0
 17 39  1  0  0  0  0
 17 40  1  0  0  0  0
 18 19  2  0  0  0  0
 18 42  1  0  0  0  0
 19 43  1  0  0  0  0
 20 27  1  0  0  0  0
 20 44  1  0  0  0  0
 20 45  1  0  0  0  0
 21 25  1  0  0  0  0
 21 46  1  0  0  0  0
 22 26  2  0  0  0  0
 22 47  1  0  0  0  0
 23 48  1  0  0  0  0
 23 49  1  0  0  0  0
 23 50  1  0  0  0  0
 24 25  2  0  0  0  0
 24 26  1  0  0  0  0
 25 51  1  0  0  0  0
 26 52  1  0  0  0  0
 27 28  2  0  0  0  0
 27 29  1  0  0  0  0
 28 30  1  0  0  0  0
 28 53  1  0  0  0  0
 29 31  2  0  0  0  0
 29 54  1  0  0  0  0
 30 32  2  0  0  0  0
 30 55  1  0  0  0  0
 31 32  1  0  0  0  0
 31 56  1  0  0  0  0
 32 57  1  0  0  0  0
 33 58  1  0  0  0  0
 34 59  1  0  0  0  0
M  END
> <PUBCHEM_COMPOUND_CID>
17396111

> <PUBCHEM_CONFORMER_RMSD>
1

> <PUBCHEM_CONFORMER_DIVERSEORDER>
2
60
249
280
125
187
101
300
107
144
236
284
218
165
285
132
256
71
278
168
196
306
108
103
43
267
308
291
131
255
215
123
36
282
171
270
87
118
58
150
307
220
52
126
246
202
34
225
237
207
160
230
70
85
39
9
111
212
136
235
243
191
277
169
245
208
72
279
21
97
68
84
94
37
163
286
263
73
269
99
251
234
296
55
268
135
50
47
232
152
217
172
197
129
159
250
133
122
158
290
109
164
247
259
3
155
66
242
281
199
193
82
147
74
222
1
142
120
185
4
139
188
302
93
248
56
95
195
145
289
201
183
91
148
166
214
76
141
10
293
272
238
167
112
110
61
260
92
29
273
181
119
102
180
62
75
261
27
223
65
49
192
53
264
205
157
194
209
216
179
63
83
198
106
48
134
239
44
22
69
42
104
170
233
190
229
275
100
28
211
276
153
252
67
59
203
143
57
80
33
18
206
298
274
105
219
173
262
64
295
213
90
20
98
266
6
149
154
271
176
304
258
128
184
24
177
79
241
226
253
113
116
161
224
227
138
127
182
31
46
88
287
114
121
283
115
51
96
175
156
174
81
16
299
228
45
200
23
26
146
130
288
14
32
292
13
257
124
35
244
221
303
77
189
19
8
54
7
140
294
231
151
40
78
210
5
186
204
17
162
305
309
89
297
30
38
301
137
12
15
25
86
41
240
254
265
117
11
178

> <PUBCHEM_MMFF94_PARTIAL_CHARGES>
49
1 1.45
10 0.44
11 -0.01
12 -0.14
13 0.09
14 -0.14
15 -0.15
16 0.54
18 -0.15
19 -0.15
2 -0.65
20 0.5
21 -0.15
22 -0.15
23 0.14
24 -0.02
25 -0.15
26 -0.15
27 -0.14
28 -0.15
29 -0.15
3 -0.65
30 -0.15
31 -0.15
32 -0.15
33 0.04
34 0.37
36 0.37
37 0.15
4 -0.57
41 0.42
42 0.15
43 0.15
46 0.15
47 0.15
5 -0.73
51 0.15
52 0.15
53 0.15
54 0.15
55 0.15
56 0.15
57 0.15
58 0.15
59 0.15
6 -0.91
7 0.59
8 -0.71
9 -0.57

> <PUBCHEM_EFFECTIVE_ROTOR_COUNT>
9

> <PUBCHEM_PHARMACOPHORE_FEATURES>
11
1 2 acceptor
1 3 acceptor
1 4 acceptor
1 5 donor
1 6 donor
3 7 9 33 cation
3 8 9 34 cation
5 7 8 9 33 34 rings
6 11 13 14 15 18 19 rings
6 12 21 22 24 25 26 rings
6 27 28 29 30 31 32 rings

> <PUBCHEM_HEAVY_ATOM_COUNT>
34

> <PUBCHEM_ATOM_DEF_STEREO_COUNT>
0

> <PUBCHEM_ATOM_UDEF_STEREO_COUNT>
1

> <PUBCHEM_BOND_DEF_STEREO_COUNT>
0

> <PUBCHEM_BOND_UDEF_STEREO_COUNT>
0

> <PUBCHEM_ISOTOPIC_ATOM_COUNT>
0

> <PUBCHEM_COMPONENT_COUNT>
1

> <PUBCHEM_CACTVS_TAUTO_COUNT>
2

> <PUBCHEM_CONFORMER_ID>
0109718F00000002

> <PUBCHEM_MMFF94_ENERGY>
77.802

> <PUBCHEM_FEATURE_SELFOVERLAP>
58.585

> <PUBCHEM_SHAPE_FINGERPRINT>
100830 2 18341894091293656072
11479125 193 18339353162586527849
11505856 67 18334866017701274887
11761917 142 18264777554473767352
11828042 163 18264478672357725444
11828042 53 18339350852976530892
12655364 74 17552607306936236152
14251764 75 18411133683846570456
14765038 42 18343295955691776180
14790565 3 18193276532061398113
15119646 57 18334575715944077159
15289351 153 18265907870171018096
15338160 23 18409725124095225829
15357212 105 18336252531047547123
15513586 35 16483011174443387852
16096371 109 17837485616221924387
16112460 7 18343023276839703452
16728433 281 18128240196605651340
16991981 162 17749108915669230769
16992779 147 18198899404197089610
19309040 13 18260547844324683230
20691028 202 18336828701053269713
21458453 9 17843659275222526857
23516275 100 17396158845329206961
4408954 64 8163594199849550055
44280116 191 17832409166457698344
50677037 204 18342179946868029237
5223283 242 17683227424490324638
5951187 136 18189607427331316886
6058803 2 18267043767522827915
6201320 215 18051136883493167088

> <PUBCHEM_SHAPE_MULTIPOLES>
661.04
18.62
7.58
1.94
13.72
2.84
-0.89
28.52
0.62
-4.5
2.48
-0.94
-0.26
-5.94

> <PUBCHEM_SHAPE_SELFOVERLAP>
1419.138

> <PUBCHEM_SHAPE_VOLUME>
365.9

> <PUBCHEM_COORDINATE_TYPE>
2
5
10

$$$$

