130118
  -OEChem-07051212583D

 37 39  0     1  0  0  0  0  0999 V2000
    3.4859   -0.6509   -0.4462 O   0  0  0  0  0  0  0  0  0  0  0  0
   -4.2244    0.0087   -0.2653 O   0  0  0  0  0  0  0  0  0  0  0  0
    4.6675    1.1523    0.3407 O   0  0  0  0  0  0  0  0  0  0  0  0
    0.1008   -2.3292   -0.1656 C   0  0  2  0  0  0  0  0  0  0  0  0
    2.1103   -0.9113   -0.7142 C   0  0  1  0  0  0  0  0  0  0  0  0
    1.6134   -2.1210    0.0592 C   0  0  0  0  0  0  0  0  0  0  0  0
    1.4055    0.2942   -0.2199 C   0  0  0  0  0  0  0  0  0  0  0  0
   -0.7000   -1.0236   -0.1568 C   0  0  0  0  0  0  0  0  0  0  0  0
   -0.0613    0.2414   -0.1948 C   0  0  0  0  0  0  0  0  0  0  0  0
    2.2715    1.2032    0.2365 C   0  0  0  0  0  0  0  0  0  0  0  0
   -0.4028   -3.3585    0.8546 C   0  0  0  0  0  0  0  0  0  0  0  0
   -2.1058   -1.0704   -0.1933 C   0  0  0  0  0  0  0  0  0  0  0  0
   -0.8406    1.4065   -0.2630 C   0  0  0  0  0  0  0  0  0  0  0  0
    3.6118    0.6110    0.0581 C   0  0  0  0  0  0  0  0  0  0  0  0
   -2.2331    1.3350   -0.2737 C   0  0  0  0  0  0  0  0  0  0  0  0
   -2.8651    0.0984   -0.2385 C   0  0  0  0  0  0  0  0  0  0  0  0
    2.0937    2.5007    0.9333 C   0  0  0  0  0  0  0  0  0  0  0  0
   -3.0283    2.5969   -0.3422 C   0  0  0  0  0  0  0  0  0  0  0  0
   -4.8990    0.0166    0.9912 C   0  0  0  0  0  0  0  0  0  0  0  0
   -0.0229   -2.7559   -1.1710 H   0  0  0  0  0  0  0  0  0  0  0  0
    1.9855   -1.0456   -1.7952 H   0  0  0  0  0  0  0  0  0  0  0  0
    1.8306   -1.9916    1.1297 H   0  0  0  0  0  0  0  0  0  0  0  0
    2.1718   -3.0159   -0.2434 H   0  0  0  0  0  0  0  0  0  0  0  0
   -1.4193   -3.6948    0.6285 H   0  0  0  0  0  0  0  0  0  0  0  0
    0.2348   -4.2496    0.8541 H   0  0  0  0  0  0  0  0  0  0  0  0
   -0.4055   -2.9432    1.8688 H   0  0  0  0  0  0  0  0  0  0  0  0
   -2.6236   -2.0264   -0.2031 H   0  0  0  0  0  0  0  0  0  0  0  0
   -0.3651    2.3816   -0.3324 H   0  0  0  0  0  0  0  0  0  0  0  0
    2.1910    3.3295    0.2257 H   0  0  0  0  0  0  0  0  0  0  0  0
    2.8501    2.6294    1.7147 H   0  0  0  0  0  0  0  0  0  0  0  0
    1.1217    2.5729    1.4286 H   0  0  0  0  0  0  0  0  0  0  0  0
   -2.4197    3.4368   -0.6952 H   0  0  0  0  0  0  0  0  0  0  0  0
   -3.8646    2.4993   -1.0426 H   0  0  0  0  0  0  0  0  0  0  0  0
   -3.4171    2.8542    0.6478 H   0  0  0  0  0  0  0  0  0  0  0  0
   -4.6691    0.9254    1.5554 H   0  0  0  0  0  0  0  0  0  0  0  0
   -4.6228   -0.8664    1.5762 H   0  0  0  0  0  0  0  0  0  0  0  0
   -5.9755   -0.0135    0.8015 H   0  0  0  0  0  0  0  0  0  0  0  0
  1  5  1  0  0  0  0
  1 14  1  0  0  0  0
  2 16  1  0  0  0  0
  2 19  1  0  0  0  0
  3 14  2  0  0  0  0
  4  6  1  0  0  0  0
  4  8  1  0  0  0  0
  4 11  1  0  0  0  0
  4 20  1  0  0  0  0
  5  6  1  0  0  0  0
  5  7  1  0  0  0  0
  5 21  1  0  0  0  0
  6 22  1  0  0  0  0
  6 23  1  0  0  0  0
  7  9  1  0  0  0  0
  7 10  2  0  0  0  0
  8  9  2  0  0  0  0
  8 12  1  0  0  0  0
  9 13  1  0  0  0  0
 10 14  1  0  0  0  0
 10 17  1  0  0  0  0
 11 24  1  0  0  0  0
 11 25  1  0  0  0  0
 11 26  1  0  0  0  0
 12 16  2  0  0  0  0
 12 27  1  0  0  0  0
 13 15  2  0  0  0  0
 13 28  1  0  0  0  0
 15 16  1  0  0  0  0
 15 18  1  0  0  0  0
 17 29  1  0  0  0  0
 17 30  1  0  0  0  0
 17 31  1  0  0  0  0
 18 32  1  0  0  0  0
 18 33  1  0  0  0  0
 18 34  1  0  0  0  0
 19 35  1  0  0  0  0
 19 36  1  0  0  0  0
 19 37  1  0  0  0  0
M  END
> <PUBCHEM_COMPOUND_CID>
130118

> <PUBCHEM_CONFORMER_RMSD>
0.6

> <PUBCHEM_CONFORMER_DIVERSEORDER>
1

> <PUBCHEM_MMFF94_PARTIAL_CHARGES>
19
1 -0.43
10 -0.12
12 -0.15
13 -0.15
14 0.71
15 -0.14
16 0.08
17 0.14
18 0.14
19 0.28
2 -0.36
27 0.15
28 0.15
3 -0.57
4 0.14
5 0.42
7 -0.17
8 -0.14
9 0.03

> <PUBCHEM_EFFECTIVE_ROTOR_COUNT>
1.6

> <PUBCHEM_PHARMACOPHORE_FEATURES>
5
1 2 acceptor
1 3 acceptor
5 1 5 7 10 14 rings
6 4 5 6 7 8 9 rings
6 8 9 12 13 15 16 rings

> <PUBCHEM_HEAVY_ATOM_COUNT>
19

> <PUBCHEM_ATOM_DEF_STEREO_COUNT>
2

> <PUBCHEM_ATOM_UDEF_STEREO_COUNT>
0

> <PUBCHEM_BOND_DEF_STEREO_COUNT>
0

> <PUBCHEM_BOND_UDEF_STEREO_COUNT>
0

> <PUBCHEM_ISOTOPIC_ATOM_COUNT>
0

> <PUBCHEM_COMPONENT_COUNT>
1

> <PUBCHEM_CACTVS_TAUTO_COUNT>
1

> <PUBCHEM_CONFORMER_ID>
0001FC4600000001

> <PUBCHEM_MMFF94_ENERGY>
57.6125

> <PUBCHEM_FEATURE_SELFOVERLAP>
25.501

> <PUBCHEM_SHAPE_FINGERPRINT>
10411042 1 16609137759899988415
10608611 8 18409452517709302677
10967382 1 18410294722225381310
11471102 20 18334860527862502317
12390115 104 18262783164212105608
12403259 226 18339928224194345876
12403259 415 18411138064882205804
12592029 89 18341331175293473546
12633257 1 18337684009683380264
13140716 1 18123749746943287161
13380535 76 18409169883402541518
13583140 156 16486152607828060013
138480 1 17762622089289104430
14223421 5 18270115863545297671
14787075 74 18188213091825983821
14790565 3 18339347596256657365
15042514 8 18198339555073568043
15196674 1 18338236075804499284
15219456 202 18338799030332501773
15295992 7 17969505901034516952
15309172 13 18412823577700079961
15536298 74 18262237827866304686
16945 1 18336275595032632143
18186145 218 18114177561957660116
19591789 44 18339641251702044991
20510252 161 18335419092923788057
20645477 70 18189907598421681047
21267235 1 18337381746949054990
21279426 13 18191865846079735414
21501502 16 18124318456927874191
21524375 3 18408604746946821622
221490 88 18195520613470952559
22854114 111 18411418457521454231
2334 1 18338517550971062046
23402539 116 18338245855529467567
23419403 2 16176570038103640600
23558518 356 17766284172011018218
23559900 14 17975984472616896774
238 59 18049197563102001693
25 1 18335985354328142854
2748010 2 18340767151587347175
2871803 45 18410862083558582807
335352 9 18409448090098959854
34934 24 18409454704675604159
350125 39 18340762757814756132
3524813 1 18335989700550761840
43471831 8 18272091655485659355
474 4 18261109630178319529
5104073 3 18268429207965111785
53812653 166 18408325467025095954
6333272 397 18412825767922547220
633830 44 18261958573313937341
69090 78 18187650171752639647
7364860 26 18192998346502375335
81228 2 17836099870150387483
8809292 202 18338798897267500346
9709674 26 18262797355105532494

> <PUBCHEM_SHAPE_MULTIPOLES>
373.4
7.26
3.04
0.82
2.08
1.16
0.1
-3.06
0.89
-0.16
0.61
0.11
0.01
0.74

> <PUBCHEM_SHAPE_SELFOVERLAP>
814.163

> <PUBCHEM_SHAPE_VOLUME>
206.2

> <PUBCHEM_COORDINATE_TYPE>
2
5
10

$$$$

