7095
  -OEChem-07051212513D

 22 23  0     0  0  0  0  0  0999 V2000
   -0.7234    0.0003   -0.0001 C   0  0  0  0  0  0  0  0  0  0  0  0
    0.7234   -0.0002   -0.0001 C   0  0  0  0  0  0  0  0  0  0  0  0
   -1.4206   -0.9586    0.7349 C   0  0  0  0  0  0  0  0  0  0  0  0
    1.4206    0.7348    0.9586 C   0  0  0  0  0  0  0  0  0  0  0  0
   -1.4210    0.9588   -0.7350 C   0  0  0  0  0  0  0  0  0  0  0  0
    1.4211   -0.7350   -0.9588 C   0  0  0  0  0  0  0  0  0  0  0  0
   -2.8154   -0.9588    0.7350 C   0  0  0  0  0  0  0  0  0  0  0  0
    2.8155    0.7351    0.9588 C   0  0  0  0  0  0  0  0  0  0  0  0
   -2.8159    0.9586   -0.7349 C   0  0  0  0  0  0  0  0  0  0  0  0
    2.8159   -0.7348   -0.9586 C   0  0  0  0  0  0  0  0  0  0  0  0
   -3.5132   -0.0002    0.0001 C   0  0  0  0  0  0  0  0  0  0  0  0
    3.5131    0.0001    0.0001 C   0  0  0  0  0  0  0  0  0  0  0  0
   -0.8923   -1.7130    1.3131 H   0  0  0  0  0  0  0  0  0  0  0  0
    0.8924    1.3132    1.7130 H   0  0  0  0  0  0  0  0  0  0  0  0
   -0.8931    1.7134   -1.3134 H   0  0  0  0  0  0  0  0  0  0  0  0
    0.8931   -1.3134   -1.7133 H   0  0  0  0  0  0  0  0  0  0  0  0
   -3.3584   -1.7054    1.3072 H   0  0  0  0  0  0  0  0  0  0  0  0
    3.3585    1.3074    1.7051 H   0  0  0  0  0  0  0  0  0  0  0  0
   -3.3593    1.7049   -1.3070 H   0  0  0  0  0  0  0  0  0  0  0  0
    3.3593   -1.3069   -1.7051 H   0  0  0  0  0  0  0  0  0  0  0  0
   -4.5992   -0.0004    0.0002 H   0  0  0  0  0  0  0  0  0  0  0  0
    4.5992    0.0003    0.0002 H   0  0  0  0  0  0  0  0  0  0  0  0
  1  2  1  0  0  0  0
  1  3  2  0  0  0  0
  1  5  1  0  0  0  0
  2  4  2  0  0  0  0
  2  6  1  0  0  0  0
  3  7  1  0  0  0  0
  3 13  1  0  0  0  0
  4  8  1  0  0  0  0
  4 14  1  0  0  0  0
  5  9  2  0  0  0  0
  5 15  1  0  0  0  0
  6 10  2  0  0  0  0
  6 16  1  0  0  0  0
  7 11  2  0  0  0  0
  7 17  1  0  0  0  0
  8 12  2  0  0  0  0
  8 18  1  0  0  0  0
  9 11  1  0  0  0  0
  9 19  1  0  0  0  0
 10 12  1  0  0  0  0
 10 20  1  0  0  0  0
 11 21  1  0  0  0  0
 12 22  1  0  0  0  0
M  END
> <PUBCHEM_COMPOUND_CID>
7095

> <PUBCHEM_CONFORMER_RMSD>
0.4

> <PUBCHEM_CONFORMER_DIVERSEORDER>
1
2

> <PUBCHEM_MMFF94_PARTIAL_CHARGES>
20
10 -0.15
11 -0.15
12 -0.15
13 0.15
14 0.15
15 0.15
16 0.15
17 0.15
18 0.15
19 0.15
20 0.15
21 0.15
22 0.15
3 -0.15
4 -0.15
5 -0.15
6 -0.15
7 -0.15
8 -0.15
9 -0.15

> <PUBCHEM_EFFECTIVE_ROTOR_COUNT>
1

> <PUBCHEM_PHARMACOPHORE_FEATURES>
2
6 1 3 5 7 9 11 rings
6 2 4 6 8 10 12 rings

> <PUBCHEM_HEAVY_ATOM_COUNT>
12

> <PUBCHEM_ATOM_DEF_STEREO_COUNT>
0

> <PUBCHEM_ATOM_UDEF_STEREO_COUNT>
0

> <PUBCHEM_BOND_DEF_STEREO_COUNT>
0

> <PUBCHEM_BOND_UDEF_STEREO_COUNT>
0

> <PUBCHEM_ISOTOPIC_ATOM_COUNT>
0

> <PUBCHEM_COMPONENT_COUNT>
1

> <PUBCHEM_CACTVS_TAUTO_COUNT>
1

> <PUBCHEM_CONFORMER_ID>
00001BB700000001

> <PUBCHEM_MMFF94_ENERGY>
38.256

> <PUBCHEM_FEATURE_SELFOVERLAP>
10.149

> <PUBCHEM_SHAPE_FINGERPRINT>
10219947 1 13183020722324313818
10608611 8 18408610261690260280
10857977 72 18272089366346841453
11031198 65 12247671682428597762
11471102 20 12895356586055219318
124424 183 18338244846496872442
12932764 1 16200434662774094565
13296908 3 18407757036361244967
13538477 17 16630522899760310691
13581323 91 17704076187412041515
14144814 61 16128657457065013064
14993402 34 16200432468040719647
15219456 202 18334295357490116608
15279307 12 16200434662789997315
15669948 3 17632573808186672683
15775835 57 16200429186706642437
16945 1 17917712405159667713
17844478 74 18334007294070666105
18175812 5 18408323259079609621
18186145 218 14261349159000486170
190213 19 16128657448469810306
19049666 15 18192148411091824476
19422 9 16128373783070354458
200 152 14261354622335952379
20201158 50 18261109694534237438
20279233 1 18408324388661438910
20645464 45 18410296904258619803
20645477 70 12750975315849015729
20715346 28 18335702715104071435
21639500 275 13686004346532814566
23402539 116 18272665548962600845
23559900 14 18272090547943045214
3248919 1 16200433567552159315
369184 2 13542464267652360837
474 4 15337690671128656932
6333449 129 18342178869104849071
69090 78 18187652379745839239
77492 1 16128656353253130242
8030462 33 16343982494249540137

> <PUBCHEM_SHAPE_MULTIPOLES>
246.95
6.08
1.1
1.1
0
0
0
0
0
0.62
0
-0.62
0
-0.82

> <PUBCHEM_SHAPE_SELFOVERLAP>
536.67

> <PUBCHEM_SHAPE_VOLUME>
125.9

> <PUBCHEM_COORDINATE_TYPE>
2
5
10

$$$$

