320372
  -OEChem-07051212592D

 47 51  0     1  0  0  0  0  0999 V2000
    5.7497    3.0374    0.0000 O   0  0  0  0  0  0  0  0  0  0  0  0
    7.1333    1.9234    0.0000 O   0  0  0  0  0  0  0  0  0  0  0  0
    3.4519   -2.6190    0.0000 O   0  0  0  0  0  0  0  0  0  0  0  0
    2.0000   -1.7807    0.0000 O   0  0  0  0  0  0  0  0  0  0  0  0
    7.1498   -2.5374    0.0000 O   0  0  0  0  0  0  0  0  0  0  0  0
    8.8819   -1.5374    0.0000 O   0  0  0  0  0  0  0  0  0  0  0  0
    5.4178    1.4626    0.0000 C   0  0  1  0  0  0  0  0  0  0  0  0
    4.5518    1.9626    0.0000 C   0  0  1  0  0  0  0  0  0  0  0  0
    5.4178    0.4626    0.0000 C   0  0  1  0  0  0  0  0  0  0  0  0
    3.6857    1.4626    0.0000 C   0  0  0  0  0  0  0  0  0  0  0  0
    4.5518   -0.0374    0.0000 C   0  0  0  0  0  0  0  0  0  0  0  0
    4.7610    2.9344    0.0000 C   0  0  0  0  0  0  0  0  0  0  0  0
    3.6857    0.4626    0.0000 C   0  0  0  0  0  0  0  0  0  0  0  0
    6.1548    2.1296    0.0000 C   0  0  0  0  0  0  0  0  0  0  0  0
    6.2838   -0.0374    0.0000 C   0  0  0  0  0  0  0  0  0  0  0  0
    4.5678   -1.0789    0.0000 C   0  0  0  0  0  0  0  0  0  0  0  0
    2.7757   -0.0443    0.0000 C   0  0  0  0  0  0  0  0  0  0  0  0
    3.6698   -1.6067    0.0000 C   0  0  0  0  0  0  0  0  0  0  0  0
    2.7677   -1.0859    0.0000 C   0  0  0  0  0  0  0  0  0  0  0  0
    6.2838   -1.0374    0.0000 C   0  0  0  0  0  0  0  0  0  0  0  0
    7.1498    0.4626    0.0000 C   0  0  0  0  0  0  0  0  0  0  0  0
    7.1498   -1.5374    0.0000 C   0  0  0  0  0  0  0  0  0  0  0  0
    8.0159   -0.0374    0.0000 C   0  0  0  0  0  0  0  0  0  0  0  0
    2.4220   -2.7263    0.0000 C   0  0  0  0  0  0  0  0  0  0  0  0
    8.0159   -1.0374    0.0000 C   0  0  0  0  0  0  0  0  0  0  0  0
    8.0159   -3.0374    0.0000 C   0  0  0  0  0  0  0  0  0  0  0  0
    9.7479   -1.0374    0.0000 C   0  0  0  0  0  0  0  0  0  0  0  0
    6.1947    1.1178    0.0000 H   0  0  0  0  0  0  0  0  0  0  0  0
    3.8647    2.4631    0.0000 H   0  0  0  0  0  0  0  0  0  0  0  0
    5.4178   -0.1574    0.0000 H   0  0  0  0  0  0  0  0  0  0  0  0
    3.4737    2.0452    0.0000 H   0  0  0  0  0  0  0  0  0  0  0  0
    3.0752    1.3549    0.0000 H   0  0  0  0  0  0  0  0  0  0  0  0
    4.7618    3.5544    0.0000 H   0  0  0  0  0  0  0  0  0  0  0  0
    4.1445    3.0004    0.0000 H   0  0  0  0  0  0  0  0  0  0  0  0
    5.1083   -1.3827    0.0000 H   0  0  0  0  0  0  0  0  0  0  0  0
    2.2424    0.2719    0.0000 H   0  0  0  0  0  0  0  0  0  0  0  0
    5.7469   -1.3474    0.0000 H   0  0  0  0  0  0  0  0  0  0  0  0
    7.1498    1.0826    0.0000 H   0  0  0  0  0  0  0  0  0  0  0  0
    8.5528    0.2726    0.0000 H   0  0  0  0  0  0  0  0  0  0  0  0
    1.8324   -2.9181    0.0000 H   0  0  0  0  0  0  0  0  0  0  0  0
    2.5507   -3.3328    0.0000 H   0  0  0  0  0  0  0  0  0  0  0  0
    7.7059   -3.5744    0.0000 H   0  0  0  0  0  0  0  0  0  0  0  0
    8.5528   -3.3474    0.0000 H   0  0  0  0  0  0  0  0  0  0  0  0
    8.3259   -2.5005    0.0000 H   0  0  0  0  0  0  0  0  0  0  0  0
   10.0579   -1.5744    0.0000 H   0  0  0  0  0  0  0  0  0  0  0  0
   10.2848   -0.7274    0.0000 H   0  0  0  0  0  0  0  0  0  0  0  0
    9.4379   -0.5005    0.0000 H   0  0  0  0  0  0  0  0  0  0  0  0
  1 12  1  0  0  0  0
  1 14  1  0  0  0  0
  2 14  2  0  0  0  0
  3 18  1  0  0  0  0
  3 24  1  0  0  0  0
  4 19  1  0  0  0  0
  4 24  1  0  0  0  0
  5 22  1  0  0  0  0
  5 26  1  0  0  0  0
  6 25  1  0  0  0  0
  6 27  1  0  0  0  0
  7  8  1  0  0  0  0
  7  9  1  0  0  0  0
  7 14  1  0  0  0  0
  7 28  1  1  0  0  0
  8 10  1  0  0  0  0
  8 12  1  0  0  0  0
  8 29  1  6  0  0  0
  9 11  1  0  0  0  0
  9 15  1  6  0  0  0
  9 30  1  0  0  0  0
 10 13  1  0  0  0  0
 10 31  1  0  0  0  0
 10 32  1  0  0  0  0
 11 13  1  0  0  0  0
 11 16  2  0  0  0  0
 12 33  1  0  0  0  0
 12 34  1  0  0  0  0
 13 17  2  0  0  0  0
 15 20  2  0  0  0  0
 15 21  1  0  0  0  0
 16 18  1  0  0  0  0
 16 35  1  0  0  0  0
 17 19  1  0  0  0  0
 17 36  1  0  0  0  0
 18 19  2  0  0  0  0
 20 22  1  0  0  0  0
 20 37  1  0  0  0  0
 21 23  2  0  0  0  0
 21 38  1  0  0  0  0
 22 25  2  0  0  0  0
 23 25  1  0  0  0  0
 23 39  1  0  0  0  0
 24 40  1  0  0  0  0
 24 41  1  0  0  0  0
 26 42  1  0  0  0  0
 26 43  1  0  0  0  0
 26 44  1  0  0  0  0
 27 45  1  0  0  0  0
 27 46  1  0  0  0  0
 27 47  1  0  0  0  0
M  END
> <PUBCHEM_COMPOUND_CID>
320372

> <PUBCHEM_COMPOUND_CANONICALIZED>
1

> <PUBCHEM_CACTVS_COMPLEXITY>
567

> <PUBCHEM_CACTVS_HBOND_ACCEPTOR>
6

> <PUBCHEM_CACTVS_HBOND_DONOR>
0

> <PUBCHEM_CACTVS_ROTATABLE_BOND>
3

> <PUBCHEM_CACTVS_SUBSKEYS>
AAADceB4OAAAAAAAAAAAAAAAAAAAASJAAAAwYMAAAAAAAEjBQAAAGgAAAAAADQSgmAMyDoAABACIAiDSCAACCAAgIAAIiAEGiIgdJjKEMRqiMCIkwBEOqAeKyPCOoAABAAAQQADAAAYAACCAAAAAAAAAAA==

> <PUBCHEM_IUPAC_OPENEYE_NAME>
(5R,5aR,8aR)-5-(3,4-dimethoxyphenyl)-5a,8,8a,9-tetrahydro-5H-isobenzofuro[5,6-f][1,3]benzodioxol-6-one

> <PUBCHEM_IUPAC_CAS_NAME>
(5R,5aR,8aR)-5-(3,4-dimethoxyphenyl)-5a,8,8a,9-tetrahydro-5H-isobenzofuro[5,6-f][1,3]benzodioxol-6-one

> <PUBCHEM_IUPAC_NAME>
(5R,5aR,8aR)-5-(3,4-dimethoxyphenyl)-5a,8,8a,9-tetrahydro-5H-[2]benzofuro[5,6-f][1,3]benzodioxol-6-one

> <PUBCHEM_IUPAC_SYSTEMATIC_NAME>
(5R,5aR,8aR)-5-(3,4-dimethoxyphenyl)-5a,8,8a,9-tetrahydro-5H-[2]benzofuro[5,6-f][1,3]benzodioxol-6-one

> <PUBCHEM_IUPAC_TRADITIONAL_NAME>
(5R,5aR,8aR)-5-(3,4-dimethoxyphenyl)-5a,8,8a,9-tetrahydro-5H-isobenzofuro[5,6-f][1,3]benzodioxol-6-one

> <PUBCHEM_IUPAC_INCHI>
InChI=1S/C21H20O6/c1-23-15-4-3-11(6-16(15)24-2)19-14-8-18-17(26-10-27-18)7-12(14)5-13-9-25-21(22)20(13)19/h3-4,6-8,13,19-20H,5,9-10H2,1-2H3/t13-,19+,20-/m0/s1

> <PUBCHEM_IUPAC_INCHIKEY>
MKWAWTRNIPHOLB-SVIJTADQSA-N

> <PUBCHEM_XLOGP3>
3.2

> <PUBCHEM_EXACT_MASS>
368.125988

> <PUBCHEM_MOLECULAR_FORMULA>
C21H20O6

> <PUBCHEM_MOLECULAR_WEIGHT>
368.3799

> <PUBCHEM_OPENEYE_CAN_SMILES>
COC1=C(C=C(C=C1)C2C3C(CC4=CC5=C(C=C24)OCO5)COC3=O)OC

> <PUBCHEM_OPENEYE_ISO_SMILES>
COC1=C(C=C(C=C1)[C@H]2[C@@H]3[C@@H](CC4=CC5=C(C=C24)OCO5)COC3=O)OC

> <PUBCHEM_CACTVS_TPSA>
63.2

> <PUBCHEM_MONOISOTOPIC_WEIGHT>
368.125988

> <PUBCHEM_TOTAL_CHARGE>
0

> <PUBCHEM_HEAVY_ATOM_COUNT>
27

> <PUBCHEM_ATOM_DEF_STEREO_COUNT>
3

> <PUBCHEM_ATOM_UDEF_STEREO_COUNT>
0

> <PUBCHEM_BOND_DEF_STEREO_COUNT>
0

> <PUBCHEM_BOND_UDEF_STEREO_COUNT>
0

> <PUBCHEM_ISOTOPIC_ATOM_COUNT>
0

> <PUBCHEM_COMPONENT_COUNT>
1

> <PUBCHEM_CACTVS_TAUTO_COUNT>
2

> <PUBCHEM_COORDINATE_TYPE>
1
5
255

> <PUBCHEM_BONDANNOTATIONS>
11  13  8
11  16  8
13  17  8
15  20  8
15  21  8
16  18  8
17  19  8
18  19  8
20  22  8
21  23  8
22  25  8
23  25  8
7  28  5
8  29  6
9  15  6

$$$$

