443044
  -OEChem-07051213033D

 19 19  0     1  0  0  0  0  0999 V2000
    0.1614   -1.5439   -0.0192 O   0  0  0  0  0  0  0  0  0  0  0  0
   -2.0082    1.3206    0.3573 O   0  0  0  0  0  0  0  0  0  0  0  0
   -1.9955   -1.1412   -0.4981 O   0  0  0  0  0  0  0  0  0  0  0  0
    1.6920    1.2637   -0.0954 C   0  0  0  0  0  0  0  0  0  0  0  0
    0.2233    1.4835   -0.4406 C   0  0  0  0  0  0  0  0  0  0  0  0
    2.1713   -0.1735   -0.2717 C   0  0  0  0  0  0  0  0  0  0  0  0
   -0.7323    0.6851    0.4391 C   0  0  2  0  0  0  0  0  0  0  0  0
    1.4089   -1.1639    0.5944 C   0  0  0  0  0  0  0  0  0  0  0  0
   -0.9210   -0.7304   -0.0659 C   0  0  0  0  0  0  0  0  0  0  0  0
    1.8734    1.5838    0.9384 H   0  0  0  0  0  0  0  0  0  0  0  0
    2.3029    1.9155   -0.7320 H   0  0  0  0  0  0  0  0  0  0  0  0
    0.0048    2.5545   -0.3384 H   0  0  0  0  0  0  0  0  0  0  0  0
    0.0552    1.2454   -1.4991 H   0  0  0  0  0  0  0  0  0  0  0  0
    2.0901   -0.4567   -1.3279 H   0  0  0  0  0  0  0  0  0  0  0  0
    3.2330   -0.2094   -0.0003 H   0  0  0  0  0  0  0  0  0  0  0  0
   -0.4527    0.6841    1.4956 H   0  0  0  0  0  0  0  0  0  0  0  0
    1.9923   -2.0877    0.6740 H   0  0  0  0  0  0  0  0  0  0  0  0
    1.2437   -0.8065    1.6163 H   0  0  0  0  0  0  0  0  0  0  0  0
   -2.2488    1.3968   -0.5821 H   0  0  0  0  0  0  0  0  0  0  0  0
  1  8  1  0  0  0  0
  1  9  1  0  0  0  0
  2  7  1  0  0  0  0
  2 19  1  0  0  0  0
  3  9  2  0  0  0  0
  4  5  1  0  0  0  0
  4  6  1  0  0  0  0
  4 10  1  0  0  0  0
  4 11  1  0  0  0  0
  5  7  1  0  0  0  0
  5 12  1  0  0  0  0
  5 13  1  0  0  0  0
  6  8  1  0  0  0  0
  6 14  1  0  0  0  0
  6 15  1  0  0  0  0
  7  9  1  0  0  0  0
  7 16  1  0  0  0  0
  8 17  1  0  0  0  0
  8 18  1  0  0  0  0
M  END
> <PUBCHEM_COMPOUND_CID>
443044

> <PUBCHEM_CONFORMER_RMSD>
0.4

> <PUBCHEM_CONFORMER_DIVERSEORDER>
1
4
5
2
3

> <PUBCHEM_MMFF94_PARTIAL_CHARGES>
7
1 -0.43
19 0.4
2 -0.68
3 -0.57
7 0.34
8 0.28
9 0.66

> <PUBCHEM_EFFECTIVE_ROTOR_COUNT>
1.2

> <PUBCHEM_PHARMACOPHORE_FEATURES>
4
1 2 acceptor
1 2 donor
1 3 acceptor
7 1 4 5 6 7 8 9 rings

> <PUBCHEM_HEAVY_ATOM_COUNT>
9

> <PUBCHEM_ATOM_DEF_STEREO_COUNT>
0

> <PUBCHEM_ATOM_UDEF_STEREO_COUNT>
1

> <PUBCHEM_BOND_DEF_STEREO_COUNT>
0

> <PUBCHEM_BOND_UDEF_STEREO_COUNT>
0

> <PUBCHEM_ISOTOPIC_ATOM_COUNT>
0

> <PUBCHEM_COMPONENT_COUNT>
1

> <PUBCHEM_CACTVS_TAUTO_COUNT>
1

> <PUBCHEM_CONFORMER_ID>
0006C2A400000001

> <PUBCHEM_MMFF94_ENERGY>
11.0946

> <PUBCHEM_FEATURE_SELFOVERLAP>
20.308

> <PUBCHEM_SHAPE_FINGERPRINT>
12423570 1 6591729408747016010
18185500 45 18412265059973618466
21040471 1 18192149523572893144
23552423 10 18342174419165270108
241688 4 18412827997121408776
2748010 2 18411136930989331324
29004967 10 17916587514153499360
5084963 1 18187920643075703362
66348 1 18340205176739201262

> <PUBCHEM_SHAPE_MULTIPOLES>
167.61
2.62
1.82
0.72
0.04
0.07
-0.02
0.02
0.09
0.07
0.01
-0.01
-0.01
-0.36

> <PUBCHEM_SHAPE_SELFOVERLAP>
329.391

> <PUBCHEM_SHAPE_VOLUME>
98.5

> <PUBCHEM_COORDINATE_TYPE>
2
5
10

$$$$

