34488
  -OEChem-07051213133D

 29 28  0     1  0  0  0  0  0999 V2000
    2.0622   -1.8581    0.6810 S   0  0  0  0  0  0  0  0  0  0  0  0
    2.2068   -0.0003   -2.2785 S   0  0  0  0  0  0  0  0  0  0  0  0
    2.4780   -0.0492   -0.3408 P   0  0  1  0  0  0  0  0  0  0  0  0
    1.6767    1.1683    0.3903 O   0  0  0  0  0  0  0  0  0  0  0  0
   -0.3589   -0.4848    1.7170 O   0  0  0  0  0  0  0  0  0  0  0  0
   -1.7454    1.3097    0.4622 O   0  0  0  0  0  0  0  0  0  0  0  0
   -3.3834    0.5127   -0.9140 O   0  0  0  0  0  0  0  0  0  0  0  0
   -1.7458   -0.9536   -0.0997 N   0  0  0  0  0  0  0  0  0  0  0  0
    0.3455   -2.2575    0.2547 C   0  0  0  0  0  0  0  0  0  0  0  0
   -0.5902   -1.1500    0.7034 C   0  0  0  0  0  0  0  0  0  0  0  0
    4.1958    0.3368    0.0946 C   0  0  0  0  0  0  0  0  0  0  0  0
   -2.3678   -2.0363   -0.8558 C   0  0  0  0  0  0  0  0  0  0  0  0
   -2.3824    0.3141   -0.2261 C   0  0  0  0  0  0  0  0  0  0  0  0
    1.9164    2.5263    0.0676 C   0  0  0  0  0  0  0  0  0  0  0  0
   -2.3074    2.6219    0.3440 C   0  0  0  0  0  0  0  0  0  0  0  0
    0.2862   -2.4069   -0.8260 H   0  0  0  0  0  0  0  0  0  0  0  0
    0.0569   -3.1846    0.7581 H   0  0  0  0  0  0  0  0  0  0  0  0
    4.5255    1.2685   -0.3734 H   0  0  0  0  0  0  0  0  0  0  0  0
    4.2963    0.4366    1.1792 H   0  0  0  0  0  0  0  0  0  0  0  0
    4.8581   -0.4663   -0.2423 H   0  0  0  0  0  0  0  0  0  0  0  0
   -2.0445   -1.9561   -1.8981 H   0  0  0  0  0  0  0  0  0  0  0  0
   -3.4582   -1.9532   -0.8177 H   0  0  0  0  0  0  0  0  0  0  0  0
   -2.0737   -3.0097   -0.4557 H   0  0  0  0  0  0  0  0  0  0  0  0
    1.7577    2.7120   -0.9965 H   0  0  0  0  0  0  0  0  0  0  0  0
    2.9305    2.8129    0.3537 H   0  0  0  0  0  0  0  0  0  0  0  0
    1.2119    3.1419    0.6332 H   0  0  0  0  0  0  0  0  0  0  0  0
   -2.2797    2.9521   -0.6986 H   0  0  0  0  0  0  0  0  0  0  0  0
   -1.7011    3.3052    0.9446 H   0  0  0  0  0  0  0  0  0  0  0  0
   -3.3319    2.6311    0.7278 H   0  0  0  0  0  0  0  0  0  0  0  0
  1  3  1  0  0  0  0
  1  9  1  0  0  0  0
  2  3  2  0  0  0  0
  3  4  1  0  0  0  0
  3 11  1  0  0  0  0
  4 14  1  0  0  0  0
  5 10  2  0  0  0  0
  6 13  1  0  0  0  0
  6 15  1  0  0  0  0
  7 13  2  0  0  0  0
  8 10  1  0  0  0  0
  8 12  1  0  0  0  0
  8 13  1  0  0  0  0
  9 10  1  0  0  0  0
  9 16  1  0  0  0  0
  9 17  1  0  0  0  0
 11 18  1  0  0  0  0
 11 19  1  0  0  0  0
 11 20  1  0  0  0  0
 12 21  1  0  0  0  0
 12 22  1  0  0  0  0
 12 23  1  0  0  0  0
 14 24  1  0  0  0  0
 14 25  1  0  0  0  0
 14 26  1  0  0  0  0
 15 27  1  0  0  0  0
 15 28  1  0  0  0  0
 15 29  1  0  0  0  0
M  END
> <PUBCHEM_COMPOUND_CID>
34488

> <PUBCHEM_CONFORMER_RMSD>
0.8

> <PUBCHEM_CONFORMER_DIVERSEORDER>
1
29
351
175
281
61
285
286
97
329
341
254
325
32
238
154
144
340
181
313
242
58
337
117
344
173
74
147
352
323
85
139
251
16
284
334
234
302
217
182
66
138
54
316
101
42
245
62
204
125
239
292
244
133
60
307
77
308
179
270
106
180
221
280
4
165
300
301
64
150
59
190
287
277
99
262
26
2
163
295
232
343
19
274
266
90
174
223
296
115
10
205
321
47
128
293
236
69
185
141
199
30
183
124
326
213
333
294
276
34
327
260
191
348
100
104
159
230
3
269
272
83
231
267
224
271
324
225
315
67
212
12
28
123
78
220
37
87
353
68
168
268
132
186
273
92
261
17
257
8
249
162
350
121
155
79
120
328
148
176
331
21
145
7
258
129
160
143
263
248
209
193
55
229
222
48
14
226
158
347
318
18
290
39
210
346
338
11
283
203
56
86
75
171
153
35
135
40
233
303
197
6
93
342
196
130
306
45
314
227
299
33
65
335
72
332
108
282
149
146
235
118
20
289
41
126
219
80
5
228
156
298
214
297
312
113
137
187
246
192
82
95
114
51
107
194
161
215
134
166
189
177
259
70
317
264
349
216
140
256
172
13
127
237
53
52
247
119
36
112
250
9
116
291
111
73
345
218
15
44
110
81
330
202
152
278
208
84
38
188
96
102
265
309
320
169
23
98
164
240
252
304
46
288
310
207
131
170
136
25
243
142
103
241
31
76
22
253
275
279
89
57
206
71
122
49
105
50
94
43
319
157
109
195
88
167
322
336
24
178
63
198
151
200
255
91
339
211
27
184
311
305
201

> <PUBCHEM_MMFF94_PARTIAL_CHARGES>
14
1 -0.48
10 0.57
12 0.3
13 0.78
14 0.28
15 0.28
2 -0.68
3 1.2
4 -0.55
5 -0.57
6 -0.43
7 -0.57
8 -0.42
9 0.29

> <PUBCHEM_EFFECTIVE_ROTOR_COUNT>
7

> <PUBCHEM_PHARMACOPHORE_FEATURES>
2
1 5 acceptor
1 7 acceptor

> <PUBCHEM_HEAVY_ATOM_COUNT>
15

> <PUBCHEM_ATOM_DEF_STEREO_COUNT>
0

> <PUBCHEM_ATOM_UDEF_STEREO_COUNT>
1

> <PUBCHEM_BOND_DEF_STEREO_COUNT>
0

> <PUBCHEM_BOND_UDEF_STEREO_COUNT>
0

> <PUBCHEM_ISOTOPIC_ATOM_COUNT>
0

> <PUBCHEM_COMPONENT_COUNT>
1

> <PUBCHEM_CACTVS_TAUTO_COUNT>
1

> <PUBCHEM_CONFORMER_ID>
000086B800000001

> <PUBCHEM_MMFF94_ENERGY>
26.4412

> <PUBCHEM_FEATURE_SELFOVERLAP>
10.149

> <PUBCHEM_SHAPE_FINGERPRINT>
13618510 140 18341897428160790152
14251745 187 18408327670517788552
15775835 57 18272090521487276950
16945 1 18335983146672994899
18522851 268 17530955852731189678
20233049 118 18202002131896094596
21524375 3 18131069359163942947
22802520 49 18041282045781057081
23402539 116 18263374602762170654
23419403 2 15387593986340773414
23557571 272 17968099659848457199
2748010 2 18050562941626204194
5262128 65 17895738630745058388
549884 4 18337943575841827716
7832392 63 18265900344005719450

> <PUBCHEM_SHAPE_MULTIPOLES>
291.78
5.59
2.81
1.4
0.91
0.79
-0.66
1.5
-1.09
-0.77
0.46
0.56
-0.21
-0.52

> <PUBCHEM_SHAPE_SELFOVERLAP>
513.799

> <PUBCHEM_SHAPE_VOLUME>
194.7

> <PUBCHEM_COORDINATE_TYPE>
2
5
10

$$$$

