51090918
  -OEChem-06241223002D

 52 54  0     0  0  0  0  0  0999 V2000
    6.3301   -0.0194    0.0000 O   0  0  0  0  0  0  0  0  0  0  0  0
    2.8660   -1.0194    0.0000 O   0  0  0  0  0  0  0  0  0  0  0  0
    2.8660   -3.0194    0.0000 O   0  0  0  0  0  0  0  0  0  0  0  0
    5.4641    4.4806    0.0000 N   0  0  0  0  0  0  0  0  0  0  0  0
    5.4641    1.4806    0.0000 N   0  0  0  0  0  0  0  0  0  0  0  0
    4.5981   -1.0194    0.0000 N   0  0  0  0  0  0  0  0  0  0  0  0
    5.4641    3.4806    0.0000 C   0  0  0  0  0  0  0  0  0  0  0  0
    4.5981    2.9806    0.0000 C   0  0  0  0  0  0  0  0  0  0  0  0
    6.3301    2.9806    0.0000 C   0  0  0  0  0  0  0  0  0  0  0  0
    6.2731    5.0684    0.0000 C   0  0  0  0  0  0  0  0  0  0  0  0
    4.6551    5.0684    0.0000 C   0  0  0  0  0  0  0  0  0  0  0  0
    5.9641    6.0194    0.0000 C   0  0  0  0  0  0  0  0  0  0  0  0
    4.9641    6.0194    0.0000 C   0  0  0  0  0  0  0  0  0  0  0  0
    4.5981    1.9806    0.0000 C   0  0  0  0  0  0  0  0  0  0  0  0
    6.3301    1.9806    0.0000 C   0  0  0  0  0  0  0  0  0  0  0  0
    5.4641    0.4806    0.0000 C   0  0  0  0  0  0  0  0  0  0  0  0
    4.5981   -0.0194    0.0000 C   0  0  0  0  0  0  0  0  0  0  0  0
    3.7320   -1.5194    0.0000 C   0  0  0  0  0  0  0  0  0  0  0  0
    3.7320   -2.5194    0.0000 C   0  0  0  0  0  0  0  0  0  0  0  0
    2.8660   -4.0194    0.0000 C   0  0  0  0  0  0  0  0  0  0  0  0
    2.0000   -4.5194    0.0000 C   0  0  0  0  0  0  0  0  0  0  0  0
    3.7320   -4.5194    0.0000 C   0  0  0  0  0  0  0  0  0  0  0  0
    2.0000   -5.5194    0.0000 C   0  0  0  0  0  0  0  0  0  0  0  0
    3.7320   -5.5194    0.0000 C   0  0  0  0  0  0  0  0  0  0  0  0
    2.8660   -6.0194    0.0000 C   0  0  0  0  0  0  0  0  0  0  0  0
    6.0010    3.7906    0.0000 H   0  0  0  0  0  0  0  0  0  0  0  0
    4.3860    3.5632    0.0000 H   0  0  0  0  0  0  0  0  0  0  0  0
    3.9875    2.8729    0.0000 H   0  0  0  0  0  0  0  0  0  0  0  0
    6.9407    2.8729    0.0000 H   0  0  0  0  0  0  0  0  0  0  0  0
    6.5422    3.5632    0.0000 H   0  0  0  0  0  0  0  0  0  0  0  0
    6.5831    4.5314    0.0000 H   0  0  0  0  0  0  0  0  0  0  0  0
    6.8395    5.3205    0.0000 H   0  0  0  0  0  0  0  0  0  0  0  0
    4.0887    5.3205    0.0000 H   0  0  0  0  0  0  0  0  0  0  0  0
    4.3451    4.5314    0.0000 H   0  0  0  0  0  0  0  0  0  0  0  0
    6.5706    6.1483    0.0000 H   0  0  0  0  0  0  0  0  0  0  0  0
    5.8993    6.6360    0.0000 H   0  0  0  0  0  0  0  0  0  0  0  0
    5.0289    6.6360    0.0000 H   0  0  0  0  0  0  0  0  0  0  0  0
    4.3576    6.1483    0.0000 H   0  0  0  0  0  0  0  0  0  0  0  0
    3.9875    2.0882    0.0000 H   0  0  0  0  0  0  0  0  0  0  0  0
    4.3860    1.3980    0.0000 H   0  0  0  0  0  0  0  0  0  0  0  0
    6.5422    1.3980    0.0000 H   0  0  0  0  0  0  0  0  0  0  0  0
    6.9407    2.0882    0.0000 H   0  0  0  0  0  0  0  0  0  0  0  0
    4.3860    0.5632    0.0000 H   0  0  0  0  0  0  0  0  0  0  0  0
    3.9875   -0.1271    0.0000 H   0  0  0  0  0  0  0  0  0  0  0  0
    5.1350   -1.3294    0.0000 H   0  0  0  0  0  0  0  0  0  0  0  0
    3.9441   -3.1020    0.0000 H   0  0  0  0  0  0  0  0  0  0  0  0
    4.3426   -2.4118    0.0000 H   0  0  0  0  0  0  0  0  0  0  0  0
    1.4631   -4.2094    0.0000 H   0  0  0  0  0  0  0  0  0  0  0  0
    4.2690   -4.2094    0.0000 H   0  0  0  0  0  0  0  0  0  0  0  0
    1.4631   -5.8294    0.0000 H   0  0  0  0  0  0  0  0  0  0  0  0
    4.2690   -5.8294    0.0000 H   0  0  0  0  0  0  0  0  0  0  0  0
    2.8660   -6.6394    0.0000 H   0  0  0  0  0  0  0  0  0  0  0  0
  1 16  2  0  0  0  0
  2 18  2  0  0  0  0
  3 19  1  0  0  0  0
  3 20  1  0  0  0  0
  4  7  1  0  0  0  0
  4 10  1  0  0  0  0
  4 11  1  0  0  0  0
  5 14  1  0  0  0  0
  5 15  1  0  0  0  0
  5 16  1  0  0  0  0
  6 17  1  0  0  0  0
  6 18  1  0  0  0  0
  6 45  1  0  0  0  0
  7  8  1  0  0  0  0
  7  9  1  0  0  0  0
  7 26  1  0  0  0  0
  8 14  1  0  0  0  0
  8 27  1  0  0  0  0
  8 28  1  0  0  0  0
  9 15  1  0  0  0  0
  9 29  1  0  0  0  0
  9 30  1  0  0  0  0
 10 12  1  0  0  0  0
 10 31  1  0  0  0  0
 10 32  1  0  0  0  0
 11 13  1  0  0  0  0
 11 33  1  0  0  0  0
 11 34  1  0  0  0  0
 12 13  1  0  0  0  0
 12 35  1  0  0  0  0
 12 36  1  0  0  0  0
 13 37  1  0  0  0  0
 13 38  1  0  0  0  0
 14 39  1  0  0  0  0
 14 40  1  0  0  0  0
 15 41  1  0  0  0  0
 15 42  1  0  0  0  0
 16 17  1  0  0  0  0
 17 43  1  0  0  0  0
 17 44  1  0  0  0  0
 18 19  1  0  0  0  0
 19 46  1  0  0  0  0
 19 47  1  0  0  0  0
 20 21  2  0  0  0  0
 20 22  1  0  0  0  0
 21 23  1  0  0  0  0
 21 48  1  0  0  0  0
 22 24  2  0  0  0  0
 22 49  1  0  0  0  0
 23 25  2  0  0  0  0
 23 50  1  0  0  0  0
 24 25  1  0  0  0  0
 24 51  1  0  0  0  0
 25 52  1  0  0  0  0
M  END
> <PUBCHEM_COMPOUND_CID>
51090918

> <PUBCHEM_COMPOUND_CANONICALIZED>
1

> <PUBCHEM_CACTVS_COMPLEXITY>
437

> <PUBCHEM_CACTVS_HBOND_ACCEPTOR>
4

> <PUBCHEM_CACTVS_HBOND_DONOR>
1

> <PUBCHEM_CACTVS_ROTATABLE_BOND>
6

> <PUBCHEM_CACTVS_SUBSKEYS>
AAADceB7MAAAAAAAAAAAAAAAAAAAAWAAAAA8QAAAAAAAAAABAAAAHgAQAAAACCzhkAYwBoPABACIACFSEAICCAAgIAAIiIDOCIgOZiKE8T6XOCCk1hGYqAeQQAAAAAAAAAAAAAAAAAAAAAAAAAAAAAAAAA==

> <PUBCHEM_IUPAC_OPENEYE_NAME>
N-[2-oxo-2-(4-pyrrolidin-1-yl-1-piperidyl)ethyl]-2-phenoxy-acetamide

> <PUBCHEM_IUPAC_CAS_NAME>
N-[2-oxo-2-[4-(1-pyrrolidinyl)-1-piperidinyl]ethyl]-2-phenoxyacetamide

> <PUBCHEM_IUPAC_NAME>
N-[2-oxo-2-(4-pyrrolidin-1-ylpiperidin-1-yl)ethyl]-2-phenoxyacetamide

> <PUBCHEM_IUPAC_SYSTEMATIC_NAME>
N-[2-oxidanylidene-2-(4-pyrrolidin-1-ylpiperidin-1-yl)ethyl]-2-phenoxy-ethanamide

> <PUBCHEM_IUPAC_TRADITIONAL_NAME>
N-[2-keto-2-(4-pyrrolidinopiperidino)ethyl]-2-phenoxy-acetamide

> <PUBCHEM_IUPAC_INCHI>
InChI=1S/C19H27N3O3/c23-18(15-25-17-6-2-1-3-7-17)20-14-19(24)22-12-8-16(9-13-22)21-10-4-5-11-21/h1-3,6-7,16H,4-5,8-15H2,(H,20,23)

> <PUBCHEM_IUPAC_INCHIKEY>
XJBDEDRTLQVITM-UHFFFAOYSA-N

> <PUBCHEM_XLOGP3_AA>
1.8

> <PUBCHEM_EXACT_MASS>
345.205242

> <PUBCHEM_MOLECULAR_FORMULA>
C19H27N3O3

> <PUBCHEM_MOLECULAR_WEIGHT>
345.43598

> <PUBCHEM_OPENEYE_CAN_SMILES>
C1CCN(C1)C2CCN(CC2)C(=O)CNC(=O)COC3=CC=CC=C3

> <PUBCHEM_OPENEYE_ISO_SMILES>
C1CCN(C1)C2CCN(CC2)C(=O)CNC(=O)COC3=CC=CC=C3

> <PUBCHEM_CACTVS_TPSA>
61.9

> <PUBCHEM_MONOISOTOPIC_WEIGHT>
345.205242

> <PUBCHEM_TOTAL_CHARGE>
0

> <PUBCHEM_HEAVY_ATOM_COUNT>
25

> <PUBCHEM_ATOM_DEF_STEREO_COUNT>
0

> <PUBCHEM_ATOM_UDEF_STEREO_COUNT>
0

> <PUBCHEM_BOND_DEF_STEREO_COUNT>
0

> <PUBCHEM_BOND_UDEF_STEREO_COUNT>
0

> <PUBCHEM_ISOTOPIC_ATOM_COUNT>
0

> <PUBCHEM_COMPONENT_COUNT>
1

> <PUBCHEM_CACTVS_TAUTO_COUNT>
2

> <PUBCHEM_COORDINATE_TYPE>
1
5
255

> <PUBCHEM_BONDANNOTATIONS>
20  21  8
20  22  8
21  23  8
22  24  8
23  25  8
24  25  8

$$$$

