16061255
  -OEChem-07051213083D

 99100  0     1  0  0  0  0  0999 V2000
   14.5612    0.7273    0.6446 O   0  0  0  0  0  0  0  0  0  0  0  0
   13.4717   -2.1853   -1.2508 O   0  0  0  0  0  0  0  0  0  0  0  0
  -15.5861    2.3588   -0.1356 O   0  0  0  0  0  0  0  0  0  0  0  0
   12.5640    0.7212   -0.8170 C   0  0  0  0  0  0  0  0  0  0  0  0
   13.9530    0.0795   -0.4785 C   0  0  2  0  0  0  0  0  0  0  0  0
  -13.1913   -0.5088   -0.8102 C   0  0  0  0  0  0  0  0  0  0  0  0
   13.8702   -1.4042   -0.1317 C   0  0  1  0  0  0  0  0  0  0  0  0
   11.4552    0.2294    0.1472 C   0  0  0  0  0  0  0  0  0  0  0  0
  -14.2719    0.5727   -1.0747 C   0  0  0  0  0  0  0  0  0  0  0  0
   12.9027   -1.6477    1.0225 C   0  0  0  0  0  0  0  0  0  0  0  0
   11.6300   -0.8227    0.9857 C   0  0  0  0  0  0  0  0  0  0  0  0
  -14.5974    1.3805    0.1715 C   0  0  1  0  0  0  0  0  0  0  0  0
  -12.0180    0.0528    0.0269 C   0  0  0  0  0  0  0  0  0  0  0  0
   12.1672    0.3484   -2.2680 C   0  0  0  0  0  0  0  0  0  0  0  0
   12.7239    2.2649   -0.7602 C   0  0  0  0  0  0  0  0  0  0  0  0
  -13.3468    2.0944    0.6665 C   0  0  0  0  0  0  0  0  0  0  0  0
  -12.0923    1.2457    0.6693 C   0  0  0  0  0  0  0  0  0  0  0  0
  -13.8416   -1.6939   -0.0604 C   0  0  0  0  0  0  0  0  0  0  0  0
  -12.7298   -1.0011   -2.2035 C   0  0  0  0  0  0  0  0  0  0  0  0
   10.1940    0.9512    0.0738 C   0  0  0  0  0  0  0  0  0  0  0  0
   10.6145   -1.3275    1.9868 C   0  0  0  0  0  0  0  0  0  0  0  0
  -10.8386   -0.7938    0.1017 C   0  0  0  0  0  0  0  0  0  0  0  0
  -10.9804    1.8925    1.4625 C   0  0  0  0  0  0  0  0  0  0  0  0
    8.9966    0.3451    0.1188 C   0  0  0  0  0  0  0  0  0  0  0  0
   -9.5865   -0.3108    0.0671 C   0  0  0  0  0  0  0  0  0  0  0  0
    7.6910    1.0025    0.0544 C   0  0  0  0  0  0  0  0  0  0  0  0
   -8.3526   -1.0945    0.1309 C   0  0  0  0  0  0  0  0  0  0  0  0
    7.6761    2.5092   -0.0665 C   0  0  0  0  0  0  0  0  0  0  0  0
    6.5098    0.3492    0.1036 C   0  0  0  0  0  0  0  0  0  0  0  0
   -8.4796   -2.5969    0.2114 C   0  0  0  0  0  0  0  0  0  0  0  0
   -7.1182   -0.5484    0.0915 C   0  0  0  0  0  0  0  0  0  0  0  0
    5.1683    0.9016    0.0480 C   0  0  0  0  0  0  0  0  0  0  0  0
   -5.8308   -1.2121    0.1462 C   0  0  0  0  0  0  0  0  0  0  0  0
    4.0679    0.1316    0.1078 C   0  0  0  0  0  0  0  0  0  0  0  0
   -4.6498   -0.5733    0.0994 C   0  0  0  0  0  0  0  0  0  0  0  0
    2.6807    0.5942    0.0564 C   0  0  0  0  0  0  0  0  0  0  0  0
   -3.3174   -1.1816    0.1679 C   0  0  0  0  0  0  0  0  0  0  0  0
    2.4373    2.0806   -0.0433 C   0  0  0  0  0  0  0  0  0  0  0  0
    1.6185   -0.2369    0.1217 C   0  0  0  0  0  0  0  0  0  0  0  0
   -2.2427   -0.3661    0.1039 C   0  0  0  0  0  0  0  0  0  0  0  0
   -3.2492   -2.6835    0.2833 C   0  0  0  0  0  0  0  0  0  0  0  0
    0.2089    0.0958    0.0816 C   0  0  0  0  0  0  0  0  0  0  0  0
   -0.8417   -0.7399    0.1476 C   0  0  0  0  0  0  0  0  0  0  0  0
   14.6276    0.2212   -1.3325 H   0  0  0  0  0  0  0  0  0  0  0  0
   14.8612   -1.7679    0.1671 H   0  0  0  0  0  0  0  0  0  0  0  0
  -15.1911    0.1209   -1.4713 H   0  0  0  0  0  0  0  0  0  0  0  0
  -13.9360    1.2638   -1.8618 H   0  0  0  0  0  0  0  0  0  0  0  0
   13.4133   -1.4215    1.9678 H   0  0  0  0  0  0  0  0  0  0  0  0
   12.6331   -2.7115    1.0461 H   0  0  0  0  0  0  0  0  0  0  0  0
  -15.0076    0.7311    0.9528 H   0  0  0  0  0  0  0  0  0  0  0  0
   12.9849    0.5553   -2.9677 H   0  0  0  0  0  0  0  0  0  0  0  0
   11.8932   -0.7059   -2.3682 H   0  0  0  0  0  0  0  0  0  0  0  0
   11.3007    0.9293   -2.6066 H   0  0  0  0  0  0  0  0  0  0  0  0
   13.6237    2.5799   -1.3026 H   0  0  0  0  0  0  0  0  0  0  0  0
   11.8838    2.7900   -1.2280 H   0  0  0  0  0  0  0  0  0  0  0  0
   12.8130    2.6249    0.2712 H   0  0  0  0  0  0  0  0  0  0  0  0
  -13.1604    2.9906    0.0593 H   0  0  0  0  0  0  0  0  0  0  0  0
  -13.5572    2.4615    1.6796 H   0  0  0  0  0  0  0  0  0  0  0  0
  -14.7500   -2.0324   -0.5721 H   0  0  0  0  0  0  0  0  0  0  0  0
  -13.1715   -2.5585   -0.0010 H   0  0  0  0  0  0  0  0  0  0  0  0
  -14.1190   -1.4241    0.9645 H   0  0  0  0  0  0  0  0  0  0  0  0
  -13.5851   -1.3179   -2.8120 H   0  0  0  0  0  0  0  0  0  0  0  0
  -12.2056   -0.2086   -2.7505 H   0  0  0  0  0  0  0  0  0  0  0  0
  -12.0526   -1.8597   -2.1319 H   0  0  0  0  0  0  0  0  0  0  0  0
   10.2551    2.0320    0.0259 H   0  0  0  0  0  0  0  0  0  0  0  0
   11.1261   -1.6774    2.8920 H   0  0  0  0  0  0  0  0  0  0  0  0
    9.9235   -0.5570    2.3375 H   0  0  0  0  0  0  0  0  0  0  0  0
   10.0564   -2.1754    1.5779 H   0  0  0  0  0  0  0  0  0  0  0  0
   15.4520    0.3531    0.7543 H   0  0  0  0  0  0  0  0  0  0  0  0
   13.4944   -3.1201   -0.9844 H   0  0  0  0  0  0  0  0  0  0  0  0
  -11.0195   -1.8571    0.2185 H   0  0  0  0  0  0  0  0  0  0  0  0
  -11.3950    2.5144    2.2651 H   0  0  0  0  0  0  0  0  0  0  0  0
  -10.3400    1.1750    1.9815 H   0  0  0  0  0  0  0  0  0  0  0  0
  -10.3832    2.5524    0.8258 H   0  0  0  0  0  0  0  0  0  0  0  0
  -15.7650    2.8600    0.6783 H   0  0  0  0  0  0  0  0  0  0  0  0
    8.9349   -0.7406    0.1330 H   0  0  0  0  0  0  0  0  0  0  0  0
   -9.4102    0.7472   -0.1072 H   0  0  0  0  0  0  0  0  0  0  0  0
    8.2127    2.8165   -0.9723 H   0  0  0  0  0  0  0  0  0  0  0  0
    8.1783    2.9583    0.7988 H   0  0  0  0  0  0  0  0  0  0  0  0
    6.6998    2.9876   -0.1256 H   0  0  0  0  0  0  0  0  0  0  0  0
    6.5459   -0.7371    0.1957 H   0  0  0  0  0  0  0  0  0  0  0  0
   -9.0940   -2.9666   -0.6187 H   0  0  0  0  0  0  0  0  0  0  0  0
   -7.5540   -3.1685    0.1589 H   0  0  0  0  0  0  0  0  0  0  0  0
   -8.9677   -2.8805    1.1513 H   0  0  0  0  0  0  0  0  0  0  0  0
   -7.0552    0.5381    0.0172 H   0  0  0  0  0  0  0  0  0  0  0  0
    5.0486    1.9713   -0.0490 H   0  0  0  0  0  0  0  0  0  0  0  0
   -5.8212   -2.2887    0.2484 H   0  0  0  0  0  0  0  0  0  0  0  0
    4.1882   -0.9472    0.2018 H   0  0  0  0  0  0  0  0  0  0  0  0
   -4.6655    0.5127    0.0049 H   0  0  0  0  0  0  0  0  0  0  0  0
    1.4012    2.4133   -0.0104 H   0  0  0  0  0  0  0  0  0  0  0  0
    2.9340    2.5979    0.7866 H   0  0  0  0  0  0  0  0  0  0  0  0
    2.8523    2.4641   -0.9830 H   0  0  0  0  0  0  0  0  0  0  0  0
    1.8159   -1.3057    0.2089 H   0  0  0  0  0  0  0  0  0  0  0  0
   -2.4066    0.7081    0.0116 H   0  0  0  0  0  0  0  0  0  0  0  0
   -3.7415   -3.0199    1.2027 H   0  0  0  0  0  0  0  0  0  0  0  0
   -2.2325   -3.0800    0.3134 H   0  0  0  0  0  0  0  0  0  0  0  0
   -3.7412   -3.1576   -0.5736 H   0  0  0  0  0  0  0  0  0  0  0  0
   -0.0503    1.1439   -0.0220 H   0  0  0  0  0  0  0  0  0  0  0  0
   -0.6174   -1.7978    0.2473 H   0  0  0  0  0  0  0  0  0  0  0  0
  1  5  1  0  0  0  0
  1 69  1  0  0  0  0
  2  7  1  0  0  0  0
  2 70  1  0  0  0  0
  3 12  1  0  0  0  0
  3 75  1  0  0  0  0
  4  5  1  0  0  0  0
  4  8  1  0  0  0  0
  4 14  1  0  0  0  0
  4 15  1  0  0  0  0
  5  7  1  0  0  0  0
  5 44  1  0  0  0  0
  6  9  1  0  0  0  0
  6 13  1  0  0  0  0
  6 18  1  0  0  0  0
  6 19  1  0  0  0  0
  7 10  1  0  0  0  0
  7 45  1  0  0  0  0
  8 11  2  0  0  0  0
  8 20  1  0  0  0  0
  9 12  1  0  0  0  0
  9 46  1  0  0  0  0
  9 47  1  0  0  0  0
 10 11  1  0  0  0  0
 10 48  1  0  0  0  0
 10 49  1  0  0  0  0
 11 21  1  0  0  0  0
 12 16  1  0  0  0  0
 12 50  1  0  0  0  0
 13 17  2  0  0  0  0
 13 22  1  0  0  0  0
 14 51  1  0  0  0  0
 14 52  1  0  0  0  0
 14 53  1  0  0  0  0
 15 54  1  0  0  0  0
 15 55  1  0  0  0  0
 15 56  1  0  0  0  0
 16 17  1  0  0  0  0
 16 57  1  0  0  0  0
 16 58  1  0  0  0  0
 17 23  1  0  0  0  0
 18 59  1  0  0  0  0
 18 60  1  0  0  0  0
 18 61  1  0  0  0  0
 19 62  1  0  0  0  0
 19 63  1  0  0  0  0
 19 64  1  0  0  0  0
 20 24  2  0  0  0  0
 20 65  1  0  0  0  0
 21 66  1  0  0  0  0
 21 67  1  0  0  0  0
 21 68  1  0  0  0  0
 22 25  2  0  0  0  0
 22 71  1  0  0  0  0
 23 72  1  0  0  0  0
 23 73  1  0  0  0  0
 23 74  1  0  0  0  0
 24 26  1  0  0  0  0
 24 76  1  0  0  0  0
 25 27  1  0  0  0  0
 25 77  1  0  0  0  0
 26 28  1  0  0  0  0
 26 29  2  0  0  0  0
 27 30  1  0  0  0  0
 27 31  2  0  0  0  0
 28 78  1  0  0  0  0
 28 79  1  0  0  0  0
 28 80  1  0  0  0  0
 29 32  1  0  0  0  0
 29 81  1  0  0  0  0
 30 82  1  0  0  0  0
 30 83  1  0  0  0  0
 30 84  1  0  0  0  0
 31 33  1  0  0  0  0
 31 85  1  0  0  0  0
 32 34  2  0  0  0  0
 32 86  1  0  0  0  0
 33 35  2  0  0  0  0
 33 87  1  0  0  0  0
 34 36  1  0  0  0  0
 34 88  1  0  0  0  0
 35 37  1  0  0  0  0
 35 89  1  0  0  0  0
 36 38  1  0  0  0  0
 36 39  2  0  0  0  0
 37 40  2  0  0  0  0
 37 41  1  0  0  0  0
 38 90  1  0  0  0  0
 38 91  1  0  0  0  0
 38 92  1  0  0  0  0
 39 42  1  0  0  0  0
 39 93  1  0  0  0  0
 40 43  1  0  0  0  0
 40 94  1  0  0  0  0
 41 95  1  0  0  0  0
 41 96  1  0  0  0  0
 41 97  1  0  0  0  0
 42 43  2  0  0  0  0
 42 98  1  0  0  0  0
 43 99  1  0  0  0  0
M  END
> <PUBCHEM_COMPOUND_CID>
16061255

> <PUBCHEM_CONFORMER_RMSD>
1.2

> <PUBCHEM_CONFORMER_DIVERSEORDER>
1
85
6
62
15
44
50
12
41
78
37
73
74
91
4
83
26
22
38
82
77
86
76
75
20
3
7
48
94
69
39
101
31
14
67
64
9
5
2
71
47
99
59
40
90
103
33
10
80
96
42
97
21
70
45
55
65
87
11
51
102
29
72
58
98
92
52
36
68
24
32
100
19
95
30
88
34
17
56
84
60
28
89
8
53
66
93
54
27
13
43
46
35
16
63
57
49
81
25
18
79
23
61

> <PUBCHEM_MMFF94_PARTIAL_CHARGES>
55
1 -0.68
10 0.14
11 -0.28
12 0.28
13 -0.14
16 0.14
17 -0.28
2 -0.68
20 -0.15
21 0.14
22 -0.15
23 0.14
24 -0.15
25 -0.15
26 -0.14
27 -0.14
28 0.14
29 -0.15
3 -0.68
30 0.14
31 -0.15
32 -0.15
33 -0.15
34 -0.15
35 -0.15
36 -0.14
37 -0.14
38 0.14
39 -0.15
4 0.14
40 -0.15
41 0.14
42 -0.15
43 -0.15
5 0.28
6 0.14
65 0.15
69 0.4
7 0.28
70 0.4
71 0.15
75 0.4
76 0.15
77 0.15
8 -0.14
81 0.15
85 0.15
86 0.15
87 0.15
88 0.15
89 0.15
93 0.15
94 0.15
98 0.15
99 0.15

> <PUBCHEM_EFFECTIVE_ROTOR_COUNT>
11.6

> <PUBCHEM_PHARMACOPHORE_FEATURES>
14
1 1 acceptor
1 1 donor
1 2 acceptor
1 2 donor
1 28 hydrophobe
1 3 acceptor
1 3 donor
1 30 hydrophobe
1 38 hydrophobe
1 41 hydrophobe
3 4 14 15 hydrophobe
3 6 18 19 hydrophobe
6 4 5 7 8 10 11 rings
6 6 9 12 13 16 17 rings

> <PUBCHEM_HEAVY_ATOM_COUNT>
43

> <PUBCHEM_ATOM_DEF_STEREO_COUNT>
3

> <PUBCHEM_ATOM_UDEF_STEREO_COUNT>
0

> <PUBCHEM_BOND_DEF_STEREO_COUNT>
9

> <PUBCHEM_BOND_UDEF_STEREO_COUNT>
0

> <PUBCHEM_ISOTOPIC_ATOM_COUNT>
0

> <PUBCHEM_COMPONENT_COUNT>
1

> <PUBCHEM_CACTVS_TAUTO_COUNT>
1

> <PUBCHEM_CONFORMER_ID>
00F5134700000001

> <PUBCHEM_MMFF94_ENERGY>
125.1437

> <PUBCHEM_FEATURE_SELFOVERLAP>
71.041

> <PUBCHEM_SHAPE_FINGERPRINT>
12013929 2 18341613693936434226
12559415 86 18060701719056417212
12559415 90 18260268538137865921
14251920 1 18410575084663085414
15061470 23 18409167684600864569
15343295 29 18411704301709065205
21057603 130 7709456118634918417
232437 2 18413389814100249602
23399689 5 18413387649684996669
23581129 1 18411982446677684506
3092352 35 18410012101685068199
3991529 128 12247681573991189394
9663363 56 16008748004626674098

> <PUBCHEM_SHAPE_MULTIPOLES>
867.31
102.12
2.29
1.18
26.74
0.12
0.32
13.21
11.17
1.89
-0.22
-0.97
-0.12
-3.27

> <PUBCHEM_SHAPE_SELFOVERLAP>
1763.498

> <PUBCHEM_SHAPE_VOLUME>
502.1

> <PUBCHEM_COORDINATE_TYPE>
2
5
10

$$$$

