5281903
  -OEChem-07051213013D

 42 44  0     0  0  0  0  0  0999 V2000
    0.2536    0.0831   -0.3245 O   0  0  0  0  0  0  0  0  0  0  0  0
   -4.0685   -1.8277   -0.8880 O   0  0  0  0  0  0  0  0  0  0  0  0
   -3.7464    2.6701    0.5728 O   0  0  0  0  0  0  0  0  0  0  0  0
   -1.3275    3.6460    0.8610 O   0  0  0  0  0  0  0  0  0  0  0  0
   -1.8922   -0.8620   -0.6029 C   0  0  0  0  0  0  0  0  0  0  0  0
   -1.1078    0.2383   -0.2560 C   0  0  0  0  0  0  0  0  0  0  0  0
   -1.7143    1.4291    0.1398 C   0  0  0  0  0  0  0  0  0  0  0  0
   -1.2522   -2.1454   -1.0272 C   0  0  0  0  0  0  0  0  0  0  0  0
   -3.2831   -0.7655   -0.5526 C   0  0  0  0  0  0  0  0  0  0  0  0
   -3.1064    1.5298    0.1917 C   0  0  0  0  0  0  0  0  0  0  0  0
    1.0589    1.1619    0.0079 C   0  0  0  0  0  0  0  0  0  0  0  0
   -0.8632    2.5728    0.5019 C   0  0  0  0  0  0  0  0  0  0  0  0
   -3.8887    0.4278   -0.1562 C   0  0  0  0  0  0  0  0  0  0  0  0
   -0.9853   -3.0756    0.1288 C   0  0  0  0  0  0  0  0  0  0  0  0
    0.5948    2.3560    0.4095 C   0  0  0  0  0  0  0  0  0  0  0  0
    2.5056    0.8847   -0.0945 C   0  0  0  0  0  0  0  0  0  0  0  0
    0.2012   -3.5443    0.5601 C   0  0  0  0  0  0  0  0  0  0  0  0
    3.2012    0.3705    1.0026 C   0  0  0  0  0  0  0  0  0  0  0  0
    3.1856    1.1354   -1.2890 C   0  0  0  0  0  0  0  0  0  0  0  0
    0.3959   -4.4732    1.7249 C   0  0  0  0  0  0  0  0  0  0  0  0
    1.4749   -3.1540   -0.1418 C   0  0  0  0  0  0  0  0  0  0  0  0
    4.5680    0.1087    0.9058 C   0  0  0  0  0  0  0  0  0  0  0  0
    4.5523    0.8735   -1.3859 C   0  0  0  0  0  0  0  0  0  0  0  0
    5.2435    0.3600   -0.2884 C   0  0  0  0  0  0  0  0  0  0  0  0
   -1.9149   -2.6775   -1.7233 H   0  0  0  0  0  0  0  0  0  0  0  0
   -0.3771   -1.9374   -1.6470 H   0  0  0  0  0  0  0  0  0  0  0  0
   -4.9728    0.5055   -0.1160 H   0  0  0  0  0  0  0  0  0  0  0  0
   -1.8745   -3.4043    0.6664 H   0  0  0  0  0  0  0  0  0  0  0  0
    1.2483    3.1807    0.6712 H   0  0  0  0  0  0  0  0  0  0  0  0
    2.6884    0.1671    1.9397 H   0  0  0  0  0  0  0  0  0  0  0  0
    2.6607    1.5344   -2.1537 H   0  0  0  0  0  0  0  0  0  0  0  0
   -0.5583   -4.7390    2.1914 H   0  0  0  0  0  0  0  0  0  0  0  0
    0.8783   -5.3998    1.3979 H   0  0  0  0  0  0  0  0  0  0  0  0
    1.0220   -4.0019    2.4891 H   0  0  0  0  0  0  0  0  0  0  0  0
    1.3872   -2.3686   -0.8905 H   0  0  0  0  0  0  0  0  0  0  0  0
    2.2016   -2.7915    0.5944 H   0  0  0  0  0  0  0  0  0  0  0  0
    1.9077   -4.0316   -0.6343 H   0  0  0  0  0  0  0  0  0  0  0  0
   -5.0029   -1.5754   -0.7924 H   0  0  0  0  0  0  0  0  0  0  0  0
   -3.1050    3.3645    0.7878 H   0  0  0  0  0  0  0  0  0  0  0  0
    5.1060   -0.2919    1.7600 H   0  0  0  0  0  0  0  0  0  0  0  0
    5.0783    1.0688   -2.3158 H   0  0  0  0  0  0  0  0  0  0  0  0
    6.3075    0.1557   -0.3638 H   0  0  0  0  0  0  0  0  0  0  0  0
  1  6  1  0  0  0  0
  1 11  1  0  0  0  0
  2  9  1  0  0  0  0
  2 38  1  0  0  0  0
  3 10  1  0  0  0  0
  3 39  1  0  0  0  0
  4 12  2  0  0  0  0
  5  6  2  0  0  0  0
  5  8  1  0  0  0  0
  5  9  1  0  0  0  0
  6  7  1  0  0  0  0
  7 10  2  0  0  0  0
  7 12  1  0  0  0  0
  8 14  1  0  0  0  0
  8 25  1  0  0  0  0
  8 26  1  0  0  0  0
  9 13  2  0  0  0  0
 10 13  1  0  0  0  0
 11 15  2  0  0  0  0
 11 16  1  0  0  0  0
 12 15  1  0  0  0  0
 13 27  1  0  0  0  0
 14 17  2  0  0  0  0
 14 28  1  0  0  0  0
 15 29  1  0  0  0  0
 16 18  2  0  0  0  0
 16 19  1  0  0  0  0
 17 20  1  0  0  0  0
 17 21  1  0  0  0  0
 18 22  1  0  0  0  0
 18 30  1  0  0  0  0
 19 23  2  0  0  0  0
 19 31  1  0  0  0  0
 20 32  1  0  0  0  0
 20 33  1  0  0  0  0
 20 34  1  0  0  0  0
 21 35  1  0  0  0  0
 21 36  1  0  0  0  0
 21 37  1  0  0  0  0
 22 24  2  0  0  0  0
 22 40  1  0  0  0  0
 23 24  1  0  0  0  0
 23 41  1  0  0  0  0
 24 42  1  0  0  0  0
M  END
> <PUBCHEM_COMPOUND_CID>
5281903

> <PUBCHEM_CONFORMER_RMSD>
0.6

> <PUBCHEM_CONFORMER_DIVERSEORDER>
1
9
14
13
19
4
3
18
2
17
11
10
7
6
16
5
12
15
8

> <PUBCHEM_MMFF94_PARTIAL_CHARGES>
34
1 -0.16
10 0.08
11 0.05
12 0.47
13 -0.15
14 -0.29
15 -0.14
16 0.03
17 -0.28
18 -0.15
19 -0.15
2 -0.53
20 0.14
21 0.14
22 -0.15
23 -0.15
24 -0.15
27 0.15
28 0.15
29 0.15
3 -0.53
30 0.15
31 0.15
38 0.45
39 0.45
4 -0.57
40 0.15
41 0.15
42 0.15
5 -0.14
6 0.08
7 0.09
8 0.28
9 0.08

> <PUBCHEM_EFFECTIVE_ROTOR_COUNT>
3

> <PUBCHEM_PHARMACOPHORE_FEATURES>
8
1 1 acceptor
1 2 donor
1 3 donor
1 4 acceptor
3 17 20 21 hydrophobe
6 1 6 7 11 12 15 rings
6 16 18 19 22 23 24 rings
6 5 6 7 9 10 13 rings

> <PUBCHEM_HEAVY_ATOM_COUNT>
24

> <PUBCHEM_ATOM_DEF_STEREO_COUNT>
0

> <PUBCHEM_ATOM_UDEF_STEREO_COUNT>
0

> <PUBCHEM_BOND_DEF_STEREO_COUNT>
0

> <PUBCHEM_BOND_UDEF_STEREO_COUNT>
0

> <PUBCHEM_ISOTOPIC_ATOM_COUNT>
0

> <PUBCHEM_COMPONENT_COUNT>
1

> <PUBCHEM_CACTVS_TAUTO_COUNT>
12

> <PUBCHEM_CONFORMER_ID>
0050986F00000001

> <PUBCHEM_MMFF94_ENERGY>
67.6967

> <PUBCHEM_FEATURE_SELFOVERLAP>
40.623

> <PUBCHEM_SHAPE_FINGERPRINT>
10006869 2 17609770156787985945
10319926 262 18042145262042526720
10693767 8 17391938967441970991
107951 10 18267282348797440070
1100329 8 18193279585825434371
12236239 1 18202281416624516412
12553582 1 18192989327329139662
12592029 89 18411693327118019371
12788726 201 18264762173625290484
13140716 1 17976260136687251411
13941206 138 18201144525653802638
14178342 30 18264218078910906952
14251757 5 18125146140165404150
14790565 3 18410844460839164993
15209289 33 18337111163977518031
15420108 30 17896301680279059331
16120349 306 18340502161233351730
16752209 62 18410300181012750400
17859628 97 18413392042170236211
18785283 64 17112957021224472201
19591789 44 18410013195835780507
20028762 73 17898568675366245927
20600515 1 18262252014449751848
20775438 99 16456610706049276647
20905425 154 18115588286878872311
21421861 104 18053661661703829194
23366157 5 17767955802983304578
23557571 272 18115025191667176680
23558518 356 18265889348995053662
23559900 14 17968368057288159572
25147074 1 18043823198274898205
3084891 72 18408887312971715574
3178227 256 18339630137339039561
338550 245 18268144439297058622
43471831 8 18339644563079229555
445580 42 18127977408266020138
5309563 4 16609974934640669870
6287921 2 18049454930506777618
81228 2 18115289116874544984
9709674 26 17615414662119662183

> <PUBCHEM_SHAPE_MULTIPOLES>
470.43
8
4.8
1.15
6.29
4.54
-0.02
-2.95
1.49
-2.3
-2.12
0.58
0.38
-1.25

> <PUBCHEM_SHAPE_SELFOVERLAP>
1027.799

> <PUBCHEM_SHAPE_VOLUME>
254.4

> <PUBCHEM_COORDINATE_TYPE>
2
5
10

$$$$

