247038
  -OEChem-07051213063D

 26 27  0     0  0  0  0  0  0999 V2000
    1.6162    1.8156    1.8188 Cl  0  0  0  0  0  0  0  0  0  0  0  0
   -5.1525   -1.0142    0.7387 Cl  0  0  0  0  0  0  0  0  0  0  0  0
    0.3261    0.7782   -0.7965 C   0  0  0  0  0  0  0  0  0  0  0  0
   -1.0096    0.3408   -0.4217 C   0  0  0  0  0  0  0  0  0  0  0  0
    1.5986    0.1274   -0.3348 C   0  0  0  0  0  0  0  0  0  0  0  0
   -1.2511   -1.0045   -0.1440 C   0  0  0  0  0  0  0  0  0  0  0  0
   -2.0493    1.2674   -0.3402 C   0  0  0  0  0  0  0  0  0  0  0  0
    2.2194    0.5422    0.8166 C   0  0  0  0  0  0  0  0  0  0  0  0
    2.0839   -0.8862   -1.1273 C   0  0  0  0  0  0  0  0  0  0  0  0
   -2.5321   -1.4235    0.2150 C   0  0  0  0  0  0  0  0  0  0  0  0
   -3.3303    0.8484    0.0190 C   0  0  0  0  0  0  0  0  0  0  0  0
    3.3991   -0.0947    1.2021 C   0  0  0  0  0  0  0  0  0  0  0  0
    3.2636   -1.5229   -0.7417 C   0  0  0  0  0  0  0  0  0  0  0  0
   -3.5719   -0.4971    0.2967 C   0  0  0  0  0  0  0  0  0  0  0  0
    3.9211   -1.1271    0.4229 C   0  0  0  0  0  0  0  0  0  0  0  0
    0.4688    1.8501   -1.6234 C   0  0  0  0  0  0  0  0  0  0  0  0
   -0.4681   -1.7551   -0.2016 H   0  0  0  0  0  0  0  0  0  0  0  0
   -1.9032    2.3297   -0.5154 H   0  0  0  0  0  0  0  0  0  0  0  0
    1.5818   -1.2027   -2.0371 H   0  0  0  0  0  0  0  0  0  0  0  0
   -2.7063   -2.4753    0.4274 H   0  0  0  0  0  0  0  0  0  0  0  0
   -4.1297    1.5821    0.0854 H   0  0  0  0  0  0  0  0  0  0  0  0
    3.9244    0.2011    2.1068 H   0  0  0  0  0  0  0  0  0  0  0  0
    3.6702   -2.3268   -1.3484 H   0  0  0  0  0  0  0  0  0  0  0  0
    4.8397   -1.6231    0.7229 H   0  0  0  0  0  0  0  0  0  0  0  0
    1.4557    2.2007   -1.9164 H   0  0  0  0  0  0  0  0  0  0  0  0
   -0.3627    2.3921   -2.0601 H   0  0  0  0  0  0  0  0  0  0  0  0
  1  8  1  0  0  0  0
  2 14  1  0  0  0  0
  3  4  1  0  0  0  0
  3  5  1  0  0  0  0
  3 16  2  0  0  0  0
  4  6  2  0  0  0  0
  4  7  1  0  0  0  0
  5  8  1  0  0  0  0
  5  9  2  0  0  0  0
  6 10  1  0  0  0  0
  6 17  1  0  0  0  0
  7 11  2  0  0  0  0
  7 18  1  0  0  0  0
  8 12  2  0  0  0  0
  9 13  1  0  0  0  0
  9 19  1  0  0  0  0
 10 14  2  0  0  0  0
 10 20  1  0  0  0  0
 11 14  1  0  0  0  0
 11 21  1  0  0  0  0
 12 15  1  0  0  0  0
 12 22  1  0  0  0  0
 13 15  2  0  0  0  0
 13 23  1  0  0  0  0
 15 24  1  0  0  0  0
 16 25  1  0  0  0  0
 16 26  1  0  0  0  0
M  END
> <PUBCHEM_COMPOUND_CID>
247038

> <PUBCHEM_CONFORMER_RMSD>
0.6

> <PUBCHEM_CONFORMER_DIVERSEORDER>
1
4
3
2

> <PUBCHEM_MMFF94_PARTIAL_CHARGES>
26
1 -0.18
10 -0.15
11 -0.15
12 -0.15
13 -0.15
14 0.18
15 -0.15
16 -0.3
17 0.15
18 0.15
19 0.15
2 -0.18
20 0.15
21 0.15
22 0.15
23 0.15
24 0.15
25 0.15
26 0.15
3 -0.06
4 0.03
5 0.03
6 -0.15
7 -0.15
8 0.18
9 -0.15

> <PUBCHEM_EFFECTIVE_ROTOR_COUNT>
2

> <PUBCHEM_PHARMACOPHORE_FEATURES>
3
1 16 hydrophobe
6 4 6 7 10 11 14 rings
6 5 8 9 12 13 15 rings

> <PUBCHEM_HEAVY_ATOM_COUNT>
16

> <PUBCHEM_ATOM_DEF_STEREO_COUNT>
0

> <PUBCHEM_ATOM_UDEF_STEREO_COUNT>
0

> <PUBCHEM_BOND_DEF_STEREO_COUNT>
0

> <PUBCHEM_BOND_UDEF_STEREO_COUNT>
0

> <PUBCHEM_ISOTOPIC_ATOM_COUNT>
0

> <PUBCHEM_COMPONENT_COUNT>
1

> <PUBCHEM_CACTVS_TAUTO_COUNT>
1

> <PUBCHEM_CONFORMER_ID>
0003C4FE00000001

> <PUBCHEM_MMFF94_ENERGY>
53.7099

> <PUBCHEM_FEATURE_SELFOVERLAP>
15.223

> <PUBCHEM_SHAPE_FINGERPRINT>
10366900 7 18114748114087526497
11471102 22 17603594057897000414
11543360 7 13398622819370032099
11578080 2 16127556816235704172
11640471 11 14707792605569316616
12236239 1 16558749053000621358
12251169 10 17821732710486735438
12346177 29 18342750636784365551
12507560 40 18261115174965358713
12633257 1 18041573454964668490
12670546 177 10807933718126199891
12892183 10 17967814984951929522
13296908 3 18060144240543242485
13581323 91 18408604760000210231
13675066 3 18409728435694307203
14252887 29 18272650130119685320
14289901 80 17603593997514361187
14866123 147 16600388906627112950
15501101 241 18334582326009690740
15653759 3 18334298681715682584
15775835 57 4750870446745775370
15885798 251 18201716241677088437
16752209 62 17274557498192818269
16945 1 18198623426646875996
17804303 29 18409444816964406911
1813 80 17847058891412053516
19049666 15 17971756828706070460
19422 9 17131826603260743557
19784866 135 17843977059351610522
20361792 2 17275390897356378261
20559304 39 18270672052946246061
20645477 70 17559953217435869319
21065199 12 18187367644434887081
21501925 9 18342739585532838813
21524375 3 6988323819900799020
2255824 54 17059484132711186556
22646028 28 17846779598484593723
23175994 123 17750233767572501652
23402539 116 17131836525331659422
23559900 14 18411417293506358333
3060560 45 12679459777191712394
31174 14 18041282071450855017
3286 77 18260268555253918099
42 15 18408037416569733611
465052 167 17631435822885567603
474 4 15214741137806797530
4990 188 11023830565444010747
5104073 3 18269260293496721873
69090 78 18040160608614598295
7364860 26 18198332962245936980
74978 22 17632007542724006167
77492 1 16271643515782701308
8988823 20 17822578184180113435

> <PUBCHEM_SHAPE_MULTIPOLES>
333.01
7.95
1.81
1.37
5.64
0.31
-0.09
-3.68
-2.52
-0.36
0.04
-0.88
0.59
0.92

> <PUBCHEM_SHAPE_SELFOVERLAP>
703.07

> <PUBCHEM_SHAPE_VOLUME>
180.3

> <PUBCHEM_COORDINATE_TYPE>
2
5
10

$$$$

