54675777
  -OEChem-07051212513D

 56 59  0     1  0  0  0  0  0999 V2000
   -4.4756   -1.9659   -2.3378 Cl  0  0  0  0  0  0  0  0  0  0  0  0
    2.8197   -0.5329    2.1850 O   0  0  0  0  0  0  0  0  0  0  0  0
   -2.2071   -2.7355   -1.1120 O   0  0  0  0  0  0  0  0  0  0  0  0
    0.4796    0.0266    3.3510 O   0  0  0  0  0  0  0  0  0  0  0  0
    1.7892    2.1249    1.5362 O   0  0  0  0  0  0  0  0  0  0  0  0
   -1.5233    1.7864    2.1111 O   0  0  0  0  0  0  0  0  0  0  0  0
    3.0783    0.1957   -2.6383 O   0  0  0  0  0  0  0  0  0  0  0  0
   -3.3180    2.9646    0.6014 O   0  0  0  0  0  0  0  0  0  0  0  0
    3.6346    2.9973   -1.6261 O   0  0  0  0  0  0  0  0  0  0  0  0
    4.0862   -1.5375   -0.2898 N   0  0  0  0  0  0  0  0  0  0  0  0
    1.3861    3.3123   -1.2056 N   0  0  0  0  0  0  0  0  0  0  0  0
    1.6433   -1.4325    0.2429 C   0  0  2  0  0  0  0  0  0  0  0  0
   -0.8750   -1.6167    0.5880 C   0  0  2  0  0  0  0  0  0  0  0  0
    0.2522   -1.5272   -0.4555 C   0  0  0  0  0  0  0  0  0  0  0  0
    1.7441   -0.2816    1.2805 C   0  0  1  0  0  0  0  0  0  0  0  0
    2.7441   -1.3240   -0.8252 C   0  0  1  0  0  0  0  0  0  0  0  0
   -2.3048   -1.8879    0.0361 C   0  0  1  0  0  0  0  0  0  0  0  0
   -0.8001   -0.3592    1.3968 C   0  0  0  0  0  0  0  0  0  0  0  0
    0.4738   -0.1976    2.1443 C   0  0  0  0  0  0  0  0  0  0  0  0
    2.0031    1.0771    0.6537 C   0  0  0  0  0  0  0  0  0  0  0  0
   -3.0558   -0.6097   -0.3270 C   0  0  0  0  0  0  0  0  0  0  0  0
    2.7486    0.0524   -1.4599 C   0  0  0  0  0  0  0  0  0  0  0  0
   -1.6813    0.6496    1.3440 C   0  0  0  0  0  0  0  0  0  0  0  0
    2.4119    1.2487   -0.6209 C   0  0  0  0  0  0  0  0  0  0  0  0
   -2.7765    0.6015    0.3490 C   0  0  0  0  0  0  0  0  0  0  0  0
   -3.1461   -2.6398    1.0879 C   0  0  0  0  0  0  0  0  0  0  0  0
   -4.0839   -0.6428   -1.2891 C   0  0  0  0  0  0  0  0  0  0  0  0
    4.1607   -2.8251    0.3983 C   0  0  0  0  0  0  0  0  0  0  0  0
    5.0783   -1.4703   -1.3611 C   0  0  0  0  0  0  0  0  0  0  0  0
   -3.5133    1.7493    0.0061 C   0  0  0  0  0  0  0  0  0  0  0  0
    2.5571    2.5960   -1.2013 C   0  0  0  0  0  0  0  0  0  0  0  0
   -4.8088    0.5040   -1.6035 C   0  0  0  0  0  0  0  0  0  0  0  0
   -4.5211    1.6996   -0.9590 C   0  0  0  0  0  0  0  0  0  0  0  0
    1.7325   -2.3828    0.7828 H   0  0  0  0  0  0  0  0  0  0  0  0
   -0.6220   -2.4658    1.2405 H   0  0  0  0  0  0  0  0  0  0  0  0
    0.2501   -2.4239   -1.0868 H   0  0  0  0  0  0  0  0  0  0  0  0
    0.0858   -0.6716   -1.1223 H   0  0  0  0  0  0  0  0  0  0  0  0
    2.5270   -2.0538   -1.6187 H   0  0  0  0  0  0  0  0  0  0  0  0
   -2.6746   -3.5928    1.3550 H   0  0  0  0  0  0  0  0  0  0  0  0
   -4.1395   -2.8939    0.6995 H   0  0  0  0  0  0  0  0  0  0  0  0
   -3.2815   -2.0552    2.0044 H   0  0  0  0  0  0  0  0  0  0  0  0
    2.9325    0.2343    2.7708 H   0  0  0  0  0  0  0  0  0  0  0  0
   -1.8030   -3.5745   -0.8317 H   0  0  0  0  0  0  0  0  0  0  0  0
    3.6353   -2.8287    1.3567 H   0  0  0  0  0  0  0  0  0  0  0  0
    3.7896   -3.6510   -0.2200 H   0  0  0  0  0  0  0  0  0  0  0  0
    5.2006   -3.0563    0.6611 H   0  0  0  0  0  0  0  0  0  0  0  0
    4.8325   -2.1227   -2.2072 H   0  0  0  0  0  0  0  0  0  0  0  0
    5.2333   -0.4485   -1.7209 H   0  0  0  0  0  0  0  0  0  0  0  0
    6.0634   -1.7773   -0.9880 H   0  0  0  0  0  0  0  0  0  0  0  0
    1.7077    1.7820    2.4405 H   0  0  0  0  0  0  0  0  0  0  0  0
   -0.7854    1.6681    2.7305 H   0  0  0  0  0  0  0  0  0  0  0  0
   -5.5876    0.4983   -2.3626 H   0  0  0  0  0  0  0  0  0  0  0  0
   -5.0919    2.5874   -1.2192 H   0  0  0  0  0  0  0  0  0  0  0  0
    0.5109    2.9395   -0.8505 H   0  0  0  0  0  0  0  0  0  0  0  0
    1.3559    4.2556   -1.5784 H   0  0  0  0  0  0  0  0  0  0  0  0
   -3.9295    3.6198    0.2243 H   0  0  0  0  0  0  0  0  0  0  0  0
  1 27  1  0  0  0  0
  2 15  1  0  0  0  0
  2 42  1  0  0  0  0
  3 17  1  0  0  0  0
  3 43  1  0  0  0  0
  4 19  2  0  0  0  0
  5 20  1  0  0  0  0
  5 50  1  0  0  0  0
  6 23  1  0  0  0  0
  6 51  1  0  0  0  0
  7 22  2  0  0  0  0
  8 30  1  0  0  0  0
  8 56  1  0  0  0  0
  9 31  2  0  0  0  0
 10 16  1  0  0  0  0
 10 28  1  0  0  0  0
 10 29  1  0  0  0  0
 11 31  1  0  0  0  0
 11 54  1  0  0  0  0
 11 55  1  0  0  0  0
 12 14  1  0  0  0  0
 12 15  1  0  0  0  0
 12 16  1  0  0  0  0
 12 34  1  0  0  0  0
 13 14  1  0  0  0  0
 13 17  1  0  0  0  0
 13 18  1  0  0  0  0
 13 35  1  0  0  0  0
 14 36  1  0  0  0  0
 14 37  1  0  0  0  0
 15 19  1  0  0  0  0
 15 20  1  0  0  0  0
 16 22  1  0  0  0  0
 16 38  1  0  0  0  0
 17 21  1  0  0  0  0
 17 26  1  0  0  0  0
 18 19  1  0  0  0  0
 18 23  2  0  0  0  0
 20 24  2  0  0  0  0
 21 25  1  0  0  0  0
 21 27  2  0  0  0  0
 22 24  1  0  0  0  0
 23 25  1  0  0  0  0
 24 31  1  0  0  0  0
 25 30  2  0  0  0  0
 26 39  1  0  0  0  0
 26 40  1  0  0  0  0
 26 41  1  0  0  0  0
 27 32  1  0  0  0  0
 28 44  1  0  0  0  0
 28 45  1  0  0  0  0
 28 46  1  0  0  0  0
 29 47  1  0  0  0  0
 29 48  1  0  0  0  0
 29 49  1  0  0  0  0
 30 33  1  0  0  0  0
 32 33  2  0  0  0  0
 32 52  1  0  0  0  0
 33 53  1  0  0  0  0
M  END
> <PUBCHEM_COMPOUND_CID>
54675777

> <PUBCHEM_CONFORMER_RMSD>
0.8

> <PUBCHEM_CONFORMER_DIVERSEORDER>
1
2
3

> <PUBCHEM_MMFF94_PARTIAL_CHARGES>
39
1 -0.18
10 -0.81
11 -0.8
13 0.14
15 0.48
16 0.33
17 0.42
18 -0.12
19 0.49
2 -0.68
20 -0.06
21 -0.14
22 0.49
23 0.05
24 0.03
25 0.03
27 0.18
28 0.27
29 0.27
3 -0.68
30 0.08
31 0.62
32 -0.15
33 -0.15
4 -0.57
42 0.4
43 0.4
5 -0.53
50 0.45
51 0.45
52 0.15
53 0.15
54 0.37
55 0.37
56 0.45
6 -0.53
7 -0.57
8 -0.53
9 -0.57

> <PUBCHEM_EFFECTIVE_ROTOR_COUNT>
2.6

> <PUBCHEM_PHARMACOPHORE_FEATURES>
17
1 10 cation
1 11 donor
1 2 acceptor
1 2 donor
1 24 anion
1 3 acceptor
1 3 donor
1 4 acceptor
1 5 donor
1 6 donor
1 7 acceptor
1 8 donor
1 9 acceptor
6 12 13 14 15 18 19 rings
6 12 15 16 20 22 24 rings
6 13 17 18 21 23 25 rings
6 21 25 27 30 32 33 rings

> <PUBCHEM_HEAVY_ATOM_COUNT>
33

> <PUBCHEM_ATOM_DEF_STEREO_COUNT>
5

> <PUBCHEM_ATOM_UDEF_STEREO_COUNT>
0

> <PUBCHEM_BOND_DEF_STEREO_COUNT>
0

> <PUBCHEM_BOND_UDEF_STEREO_COUNT>
0

> <PUBCHEM_ISOTOPIC_ATOM_COUNT>
0

> <PUBCHEM_COMPONENT_COUNT>
1

> <PUBCHEM_CACTVS_TAUTO_COUNT>
132

> <PUBCHEM_CONFORMER_ID>
0342494100000001

> <PUBCHEM_MMFF94_ENERGY>
117.4108

> <PUBCHEM_FEATURE_SELFOVERLAP>
86.422

> <PUBCHEM_SHAPE_FINGERPRINT>
10764073 3 17977989874952854208
11578080 2 18186240628380347560
11595378 159 10159690309594448221
11640471 11 17559975246053884483
12156800 1 14181489529062839917
12160290 23 15867126607817730082
12166972 35 18335707177633335278
12363563 72 16153427272242944851
13224815 77 17967816007565875151
15238133 3 17058945543812514696
15664445 248 17612601021018431761
17349148 13 18260831561005413258
17809404 112 15357981225968850717
17980427 23 17909306561271806464
1813 80 16768194073493137866
18981168 100 16271636798195381072
20775438 99 16957365818404850695
21033648 29 15410896284044166821
21756936 100 14476950182262559126
21781051 124 18411141342902413227
21864079 5 18272092690920716533
22907989 373 18337384942852726183
23419403 2 17317926716522399808
23559900 14 18114477711589544755
238 59 18191860124503198140
25222932 49 16300947497501107983
3388396 114 18338797784740129253
469060 322 8038624356902710466
474 4 16056610815573563215
495365 180 15338297734696566307
5252454 2 15913322524597693657
5895379 119 18410865377266177248
7399639 24 17481678898475549530
9709674 26 18115605763580873403
9981440 41 17768242415274197112

> <PUBCHEM_SHAPE_MULTIPOLES>
624.08
9.25
3.39
2.42
1.87
1.24
-0.65
-1.33
5.59
-0.49
0.8
-0.38
0.21
-1.19

> <PUBCHEM_SHAPE_SELFOVERLAP>
1373.74

> <PUBCHEM_SHAPE_VOLUME>
333.8

> <PUBCHEM_COORDINATE_TYPE>
2
5
10

$$$$

