10493
  -OEChem-06261204362D

 83 88  0     1  0  0  0  0  0999 V2000
   11.3876   -2.0254    0.0000 O   0  0  0  0  0  0  0  0  0  0  0  0
    9.1555    0.8406    0.0000 O   0  0  0  0  0  0  0  0  0  0  0  0
    5.9945   -3.0778    0.0000 O   0  0  0  0  0  0  0  0  0  0  0  0
    7.4273   -0.4087    0.0000 O   0  0  0  0  0  0  0  0  0  0  0  0
   12.6473    2.8479    0.0000 O   0  0  0  0  0  0  0  0  0  0  0  0
    4.2625   -3.0711    0.0000 O   0  0  0  0  0  0  0  0  0  0  0  0
   14.4078    3.1236    0.0000 O   0  0  0  0  0  0  0  0  0  0  0  0
    4.2740   -0.0711    0.0000 O   0  0  0  0  0  0  0  0  0  0  0  0
    2.5381   -1.0644    0.0000 O   0  0  0  0  0  0  0  0  0  0  0  0
   11.3876   -1.0254    0.0000 C   0  0  1  0  0  0  0  0  0  0  0  0
   10.5216   -1.5254    0.0000 C   0  0  3  0  0  0  0  0  0  0  0  0
   11.3876   -0.0254    0.0000 C   0  0  2  0  0  0  0  0  0  0  0  0
    9.6555   -1.0254    0.0000 C   0  0  3  0  0  0  0  0  0  0  0  0
    8.7455   -1.5323    0.0000 C   0  0  2  0  0  0  0  0  0  0  0  0
    9.6555   -0.0254    0.0000 C   0  0  1  0  0  0  0  0  0  0  0  0
   10.5216    0.4746    0.0000 C   0  0  0  0  0  0  0  0  0  0  0  0
   12.3338    0.2793    0.0000 C   0  0  2  0  0  0  0  0  0  0  0  0
    8.7375   -2.5739    0.0000 C   0  0  2  0  0  0  0  0  0  0  0  0
   12.3338   -1.3302    0.0000 C   0  0  0  0  0  0  0  0  0  0  0  0
   10.5376   -2.5669    0.0000 C   0  0  0  0  0  0  0  0  0  0  0  0
   12.9174   -0.5254    0.0000 C   0  0  0  0  0  0  0  0  0  0  0  0
    9.6396   -3.0947    0.0000 C   0  0  0  0  0  0  0  0  0  0  0  0
    7.8187   -0.9682    0.0000 C   0  0  0  0  0  0  0  0  0  0  0  0
   11.3876    0.9746    0.0000 C   0  0  0  0  0  0  0  0  0  0  0  0
    7.8021   -3.1236    0.0000 C   0  0  0  0  0  0  0  0  0  0  0  0
    6.8708   -1.4961    0.0000 C   0  0  0  0  0  0  0  0  0  0  0  0
    6.8624   -2.5811    0.0000 C   0  0  2  0  0  0  0  0  0  0  0  0
   12.6445    1.2298    0.0000 C   0  0  0  0  0  0  0  0  0  0  0  0
    8.4108   -0.5900    0.0000 C   0  0  0  0  0  0  0  0  0  0  0  0
   12.0581    2.0399    0.0000 C   0  0  0  0  0  0  0  0  0  0  0  0
   13.5960    1.5372    0.0000 C   0  0  0  0  0  0  0  0  0  0  0  0
   13.5978    2.5372    0.0000 C   0  0  0  0  0  0  0  0  0  0  0  0
    5.1304   -2.5744    0.0000 C   0  0  1  0  0  0  0  0  0  0  0  0
    5.1343   -1.5744    0.0000 C   0  0  0  0  0  0  0  0  0  0  0  0
    4.2702   -1.0711    0.0000 C   0  0  3  0  0  0  0  0  0  0  0  0
    3.3984   -2.5677    0.0000 C   0  0  3  0  0  0  0  0  0  0  0  0
    3.4022   -1.5678    0.0000 C   0  0  1  0  0  0  0  0  0  0  0  0
    2.5304   -3.0644    0.0000 C   0  0  0  0  0  0  0  0  0  0  0  0
    3.4099    0.4322    0.0000 C   0  0  0  0  0  0  0  0  0  0  0  0
   11.2609   -1.9447    0.0000 H   0  0  0  0  0  0  0  0  0  0  0  0
   10.3916   -0.6004    0.0000 H   0  0  0  0  0  0  0  0  0  0  0  0
    9.0566   -0.1859    0.0000 H   0  0  0  0  0  0  0  0  0  0  0  0
   10.9201    0.9495    0.0000 H   0  0  0  0  0  0  0  0  0  0  0  0
   10.1230    0.9495    0.0000 H   0  0  0  0  0  0  0  0  0  0  0  0
   12.9463    0.3755    0.0000 H   0  0  0  0  0  0  0  0  0  0  0  0
    8.7408   -3.4239    0.0000 H   0  0  0  0  0  0  0  0  0  0  0  0
   12.0828   -1.8971    0.0000 H   0  0  0  0  0  0  0  0  0  0  0  0
   12.8712   -1.6394    0.0000 H   0  0  0  0  0  0  0  0  0  0  0  0
   10.7556   -3.1473    0.0000 H   0  0  0  0  0  0  0  0  0  0  0  0
   11.1468   -2.4514    0.0000 H   0  0  0  0  0  0  0  0  0  0  0  0
   13.3783   -0.9401    0.0000 H   0  0  0  0  0  0  0  0  0  0  0  0
   13.3783   -0.1107    0.0000 H   0  0  0  0  0  0  0  0  0  0  0  0
    9.2423   -3.5706    0.0000 H   0  0  0  0  0  0  0  0  0  0  0  0
   10.0405   -3.5676    0.0000 H   0  0  0  0  0  0  0  0  0  0  0  0
    8.2269   -0.5015    0.0000 H   0  0  0  0  0  0  0  0  0  0  0  0
    7.4288   -0.4861    0.0000 H   0  0  0  0  0  0  0  0  0  0  0  0
   12.0076    0.9746    0.0000 H   0  0  0  0  0  0  0  0  0  0  0  0
   11.3876    1.5946    0.0000 H   0  0  0  0  0  0  0  0  0  0  0  0
   10.7676    0.9746    0.0000 H   0  0  0  0  0  0  0  0  0  0  0  0
    7.4048   -3.5996    0.0000 H   0  0  0  0  0  0  0  0  0  0  0  0
    8.2030   -3.5965    0.0000 H   0  0  0  0  0  0  0  0  0  0  0  0
    6.6662   -0.9108    0.0000 H   0  0  0  0  0  0  0  0  0  0  0  0
    6.2592   -1.5975    0.0000 H   0  0  0  0  0  0  0  0  0  0  0  0
    6.3273   -2.2680    0.0000 H   0  0  0  0  0  0  0  0  0  0  0  0
   11.9245   -2.3354    0.0000 H   0  0  0  0  0  0  0  0  0  0  0  0
    8.5231    0.0198    0.0000 H   0  0  0  0  0  0  0  0  0  0  0  0
    9.4655    1.3775    0.0000 H   0  0  0  0  0  0  0  0  0  0  0  0
   11.5980    2.4555    0.0000 H   0  0  0  0  0  0  0  0  0  0  0  0
   11.5966    1.6258    0.0000 H   0  0  0  0  0  0  0  0  0  0  0  0
   14.0970    1.1719    0.0000 H   0  0  0  0  0  0  0  0  0  0  0  0
    5.1280   -3.1944    0.0000 H   0  0  0  0  0  0  0  0  0  0  0  0
    5.7444   -1.6844    0.0000 H   0  0  0  0  0  0  0  0  0  0  0  0
    5.3486   -0.9926    0.0000 H   0  0  0  0  0  0  0  0  0  0  0  0
    3.5357   -0.6433    0.0000 H   0  0  0  0  0  0  0  0  0  0  0  0
    3.3951   -3.4177    0.0000 H   0  0  0  0  0  0  0  0  0  0  0  0
    2.8641   -1.8757    0.0000 H   0  0  0  0  0  0  0  0  0  0  0  0
    2.2225   -2.5263    0.0000 H   0  0  0  0  0  0  0  0  0  0  0  0
    1.9923   -3.3723    0.0000 H   0  0  0  0  0  0  0  0  0  0  0  0
    2.8384   -3.6025    0.0000 H   0  0  0  0  0  0  0  0  0  0  0  0
    2.0000   -1.3723    0.0000 H   0  0  0  0  0  0  0  0  0  0  0  0
    3.7220    0.9680    0.0000 H   0  0  0  0  0  0  0  0  0  0  0  0
    2.8742    0.7443    0.0000 H   0  0  0  0  0  0  0  0  0  0  0  0
    3.0979   -0.1035    0.0000 H   0  0  0  0  0  0  0  0  0  0  0  0
 10  1  1  1  0  0  0
  1 65  1  0  0  0  0
 15  2  1  6  0  0  0
  2 67  1  0  0  0  0
 27  3  1  1  0  0  0
 33  3  1  1  0  0  0
  4 29  2  0  0  0  0
  5 30  1  0  0  0  0
  5 32  1  0  0  0  0
  6 33  1  0  0  0  0
  6 36  1  0  0  0  0
  7 32  2  0  0  0  0
  8 35  1  0  0  0  0
  8 39  1  0  0  0  0
 37  9  1  1  0  0  0
  9 80  1  0  0  0  0
 10 11  1  0  0  0  0
 10 12  1  0  0  0  0
 10 19  1  0  0  0  0
 11 13  1  0  0  0  0
 11 20  1  0  0  0  0
 11 40  1  0  0  0  0
 12 16  1  0  0  0  0
 12 17  1  0  0  0  0
 12 24  1  1  0  0  0
 13 14  1  0  0  0  0
 13 15  1  0  0  0  0
 13 41  1  0  0  0  0
 14 18  1  0  0  0  0
 14 23  1  0  0  0  0
 14 29  1  1  0  0  0
 15 16  1  0  0  0  0
 15 42  1  0  0  0  0
 16 43  1  0  0  0  0
 16 44  1  0  0  0  0
 17 21  1  0  0  0  0
 17 28  1  1  0  0  0
 17 45  1  0  0  0  0
 18 22  1  0  0  0  0
 18 25  1  0  0  0  0
 18 46  1  1  0  0  0
 19 21  1  0  0  0  0
 19 47  1  0  0  0  0
 19 48  1  0  0  0  0
 20 22  1  0  0  0  0
 20 49  1  0  0  0  0
 20 50  1  0  0  0  0
 21 51  1  0  0  0  0
 21 52  1  0  0  0  0
 22 53  1  0  0  0  0
 22 54  1  0  0  0  0
 23 26  1  0  0  0  0
 23 55  1  0  0  0  0
 23 56  1  0  0  0  0
 24 57  1  0  0  0  0
 24 58  1  0  0  0  0
 24 59  1  0  0  0  0
 25 27  1  0  0  0  0
 25 60  1  0  0  0  0
 25 61  1  0  0  0  0
 26 27  1  0  0  0  0
 26 62  1  0  0  0  0
 26 63  1  0  0  0  0
 27 64  1  0  0  0  0
 28 30  1  0  0  0  0
 28 31  2  0  0  0  0
 29 66  1  0  0  0  0
 30 68  1  0  0  0  0
 30 69  1  0  0  0  0
 31 32  1  0  0  0  0
 31 70  1  0  0  0  0
 33 34  1  0  0  0  0
 33 71  1  0  0  0  0
 34 35  1  0  0  0  0
 34 72  1  0  0  0  0
 34 73  1  0  0  0  0
 35 37  1  0  0  0  0
 35 74  1  0  0  0  0
 36 37  1  0  0  0  0
 36 38  1  0  0  0  0
 36 75  1  0  0  0  0
 37 76  1  0  0  0  0
 38 77  1  0  0  0  0
 38 78  1  0  0  0  0
 38 79  1  0  0  0  0
 39 81  1  0  0  0  0
 39 82  1  0  0  0  0
 39 83  1  0  0  0  0
M  END
> <PUBCHEM_COMPOUND_CID>
10493

> <PUBCHEM_COMPOUND_CANONICALIZED>
1

> <PUBCHEM_CACTVS_COMPLEXITY>
1010

> <PUBCHEM_CACTVS_HBOND_ACCEPTOR>
9

> <PUBCHEM_CACTVS_HBOND_DONOR>
3

> <PUBCHEM_CACTVS_ROTATABLE_BOND>
5

> <PUBCHEM_CACTVS_SUBSKEYS>
AAADcfB4PAAAAAAAAAAAAAAAAAAAAYIAAAA0YMEAAAAAAGDAAAAAGgAACAAAD1SwgAMCCAAABgCIAijSiAAAAAAgAAAACAEAAEgRFBIAIQAiUAAFgAAPIQPK7PzPgAAAAAAAAADCAAYAADAAAYAADAAAAA==

> <PUBCHEM_IUPAC_OPENEYE_NAME>
(3S,5R,10R,11R,13R,14S,17R)-11,14-dihydroxy-3-[(2S,5R)-5-hydroxy-4-methoxy-6-methyl-tetrahydropyran-2-yl]oxy-13-methyl-17-(5-oxo-2H-furan-3-yl)-1,2,3,4,5,6,7,8,9,11,12,15,16,17-tetradecahydrocyclopenta[a]phenanthrene-10-carbaldehyde

> <PUBCHEM_IUPAC_CAS_NAME>
(3S,5R,10R,11R,13R,14S,17R)-11,14-dihydroxy-3-[[(2S,5R)-5-hydroxy-4-methoxy-6-methyl-2-oxanyl]oxy]-13-methyl-17-(5-oxo-2H-furan-3-yl)-1,2,3,4,5,6,7,8,9,11,12,15,16,17-tetradecahydrocyclopenta[a]phenanthrene-10-carboxaldehyde

> <PUBCHEM_IUPAC_NAME>
(3S,5R,10R,11R,13R,14S,17R)-11,14-dihydroxy-3-[(2S,5R)-5-hydroxy-4-methoxy-6-methyloxan-2-yl]oxy-13-methyl-17-(5-oxo-2H-furan-3-yl)-1,2,3,4,5,6,7,8,9,11,12,15,16,17-tetradecahydrocyclopenta[a]phenanthrene-10-carbaldehyde

> <PUBCHEM_IUPAC_SYSTEMATIC_NAME>
(3S,5R,10R,11R,13R,14S,17R)-3-[(2S,5R)-4-methoxy-6-methyl-5-oxidanyl-oxan-2-yl]oxy-13-methyl-11,14-bis(oxidanyl)-17-(5-oxidanylidene-2H-furan-3-yl)-1,2,3,4,5,6,7,8,9,11,12,15,16,17-tetradecahydrocyclopenta[a]phenanthrene-10-carbaldehyde

> <PUBCHEM_IUPAC_TRADITIONAL_NAME>
(3S,5R,10R,11R,13R,14S,17R)-11,14-dihydroxy-3-[(2S,5R)-5-hydroxy-4-methoxy-6-methyl-tetrahydropyran-2-yl]oxy-17-(5-keto-2H-furan-3-yl)-13-methyl-1,2,3,4,5,6,7,8,9,11,12,15,16,17-tetradecahydrocyclopenta[a]phenanthrene-10-carbaldehyde

> <PUBCHEM_IUPAC_INCHI>
InChI=1S/C30H44O9/c1-16-27(34)23(36-3)12-25(38-16)39-19-6-8-29(15-31)18(11-19)4-5-21-26(29)22(32)13-28(2)20(7-9-30(21,28)35)17-10-24(33)37-14-17/h10,15-16,18-23,25-27,32,34-35H,4-9,11-14H2,1-3H3/t16?,18-,19+,20-,21?,22-,23?,25-,26?,27-,28-,29-,30+/m1/s1

> <PUBCHEM_IUPAC_INCHIKEY>
VCBRFHLMVHXWFV-RJNXOFJDSA-N

> <PUBCHEM_XLOGP3>
0.4

> <PUBCHEM_EXACT_MASS>
548.298533

> <PUBCHEM_MOLECULAR_FORMULA>
C30H44O9

> <PUBCHEM_MOLECULAR_WEIGHT>
548.66496

> <PUBCHEM_OPENEYE_CAN_SMILES>
CC1C(C(CC(O1)OC2CCC3(C(C2)CCC4C3C(CC5(C4(CCC5C6=CC(=O)OC6)O)C)O)C=O)OC)O

> <PUBCHEM_OPENEYE_ISO_SMILES>
CC1[C@H](C(C[C@H](O1)O[C@H]2CC[C@]3([C@@H](C2)CCC4C3[C@@H](C[C@]5([C@@]4(CC[C@@H]5C6=CC(=O)OC6)O)C)O)C=O)OC)O

> <PUBCHEM_CACTVS_TPSA>
132

> <PUBCHEM_MONOISOTOPIC_WEIGHT>
548.298533

> <PUBCHEM_TOTAL_CHARGE>
0

> <PUBCHEM_HEAVY_ATOM_COUNT>
39

> <PUBCHEM_ATOM_DEF_STEREO_COUNT>
9

> <PUBCHEM_ATOM_UDEF_STEREO_COUNT>
4

> <PUBCHEM_BOND_DEF_STEREO_COUNT>
0

> <PUBCHEM_BOND_UDEF_STEREO_COUNT>
0

> <PUBCHEM_ISOTOPIC_ATOM_COUNT>
0

> <PUBCHEM_COMPONENT_COUNT>
1

> <PUBCHEM_CACTVS_TAUTO_COUNT>
1

> <PUBCHEM_COORDINATE_TYPE>
1
5
255

> <PUBCHEM_BONDANNOTATIONS>
10  1  5
11  40  3
12  24  5
13  41  3
14  29  5
17  28  5
18  46  5
15  2  6
27  3  5
33  3  5
35  74  3
36  75  3
37  9  5

$$$$

