73361
  -OEChem-07051213103D

 96 99  0     1  0  0  0  0  0999 V2000
    3.0062    4.3214    1.3720 S   0  0  0  0  0  0  0  0  0  0  0  0
    4.5858   -4.1586    1.2165 S   0  0  0  0  0  0  0  0  0  0  0  0
    6.3283    0.6710   -2.4362 S   0  0  0  0  0  0  0  0  0  0  0  0
    3.1241    3.0193    0.3954 O   0  0  0  0  0  0  0  0  0  0  0  0
    4.7134   -2.5462    0.9868 O   0  0  0  0  0  0  0  0  0  0  0  0
    5.1811   -0.3312   -1.8518 O   0  0  0  0  0  0  0  0  0  0  0  0
    4.2310    5.2810    0.8821 O   0  0  0  0  0  0  0  0  0  0  0  0
    3.2770    3.9148    2.7384 O   0  0  0  0  0  0  0  0  0  0  0  0
    1.7642    4.9969    1.0452 O   0  0  0  0  0  0  0  0  0  0  0  0
    5.3260   -4.4011    2.6500 O   0  0  0  0  0  0  0  0  0  0  0  0
    6.2067    0.4926   -4.0532 O   0  0  0  0  0  0  0  0  0  0  0  0
    5.3562   -4.8432    0.1951 O   0  0  0  0  0  0  0  0  0  0  0  0
    3.1782   -4.4632    1.3946 O   0  0  0  0  0  0  0  0  0  0  0  0
    7.6339    0.1849   -2.0305 O   0  0  0  0  0  0  0  0  0  0  0  0
    5.9229    2.0268   -2.1144 O   0  0  0  0  0  0  0  0  0  0  0  0
   -1.3061    0.9337   -0.1257 C   0  0  1  0  0  0  0  0  0  0  0  0
    0.0976    0.7652    0.4661 C   0  0  1  0  0  0  0  0  0  0  0  0
   -2.2157   -0.2880    0.1293 C   0  0  1  0  0  0  0  0  0  0  0  0
    0.7653   -0.4872   -0.1900 C   0  0  1  0  0  0  0  0  0  0  0  0
    2.2431   -0.7065    0.3158 C   0  0  2  0  0  0  0  0  0  0  0  0
   -3.5175    0.2330   -0.5275 C   0  0  2  0  0  0  0  0  0  0  0  0
    3.0354    0.6098    0.0264 C   0  0  1  0  0  0  0  0  0  0  0  0
   -1.5821   -1.4997   -0.5685 C   0  0  0  0  0  0  0  0  0  0  0  0
   -0.1392   -1.7442   -0.0889 C   0  0  0  0  0  0  0  0  0  0  0  0
    0.9509    2.0216    0.2597 C   0  0  0  0  0  0  0  0  0  0  0  0
   -2.1614    2.1170    0.3168 C   0  0  0  0  0  0  0  0  0  0  0  0
    2.3997    1.8314    0.7138 C   0  0  2  0  0  0  0  0  0  0  0  0
   -3.5957    1.7072   -0.0657 C   0  0  0  0  0  0  0  0  0  0  0  0
    2.9193   -1.8608   -0.4876 C   0  0  0  0  0  0  0  0  0  0  0  0
    4.5403    0.4759    0.3340 C   0  0  0  0  0  0  0  0  0  0  0  0
   -2.4387   -0.6101    1.6284 C   0  0  0  0  0  0  0  0  0  0  0  0
   -4.7903   -0.5478   -0.2332 C   0  0  1  0  0  0  0  0  0  0  0  0
    2.2454   -1.0664    1.8238 C   0  0  0  0  0  0  0  0  0  0  0  0
    4.4388   -1.9925   -0.2952 C   0  0  1  0  0  0  0  0  0  0  0  0
    5.1784   -0.6659   -0.4639 C   0  0  1  0  0  0  0  0  0  0  0  0
   -6.0690    0.2778   -0.4952 C   0  0  0  0  0  0  0  0  0  0  0  0
   -4.8263   -1.8297   -1.0735 C   0  0  0  0  0  0  0  0  0  0  0  0
   -7.3619   -0.5190   -0.2580 C   0  0  0  0  0  0  0  0  0  0  0  0
   -8.6576    0.3079   -0.4812 C   0  0  1  0  0  0  0  0  0  0  0  0
   -9.9721   -0.5639   -0.4119 C   0  0  0  0  0  0  0  0  0  0  0  0
   -8.6869    1.5148    0.4735 C   0  0  0  0  0  0  0  0  0  0  0  0
  -10.1457   -1.1672    1.0006 C   0  0  0  0  0  0  0  0  0  0  0  0
   -9.9641   -1.7200   -1.4297 C   0  0  0  0  0  0  0  0  0  0  0  0
  -11.2187    0.3084   -0.6823 C   0  0  0  0  0  0  0  0  0  0  0  0
   -1.1748    1.0470   -1.2152 H   0  0  0  0  0  0  0  0  0  0  0  0
    0.0077    0.6156    1.5461 H   0  0  0  0  0  0  0  0  0  0  0  0
    0.8379   -0.2685   -1.2676 H   0  0  0  0  0  0  0  0  0  0  0  0
   -3.3752    0.2576   -1.6191 H   0  0  0  0  0  0  0  0  0  0  0  0
    2.9745    0.8066   -1.0556 H   0  0  0  0  0  0  0  0  0  0  0  0
   -2.1265   -2.4206   -0.3516 H   0  0  0  0  0  0  0  0  0  0  0  0
   -1.5810   -1.3638   -1.6569 H   0  0  0  0  0  0  0  0  0  0  0  0
    0.2764   -2.5547   -0.6976 H   0  0  0  0  0  0  0  0  0  0  0  0
   -0.1625   -2.1129    0.9415 H   0  0  0  0  0  0  0  0  0  0  0  0
    0.4956    2.8515    0.8095 H   0  0  0  0  0  0  0  0  0  0  0  0
    0.9371    2.3234   -0.7963 H   0  0  0  0  0  0  0  0  0  0  0  0
   -2.0850    2.2852    1.3971 H   0  0  0  0  0  0  0  0  0  0  0  0
   -1.8671    3.0447   -0.1847 H   0  0  0  0  0  0  0  0  0  0  0  0
    2.4307    1.6850    1.7993 H   0  0  0  0  0  0  0  0  0  0  0  0
   -3.9891    2.3483   -0.8621 H   0  0  0  0  0  0  0  0  0  0  0  0
   -4.2239    1.8432    0.8209 H   0  0  0  0  0  0  0  0  0  0  0  0
    2.4285   -2.8098   -0.2585 H   0  0  0  0  0  0  0  0  0  0  0  0
    2.7395   -1.6812   -1.5568 H   0  0  0  0  0  0  0  0  0  0  0  0
    5.0475    1.4186    0.1122 H   0  0  0  0  0  0  0  0  0  0  0  0
    4.6927    0.3052    1.4055 H   0  0  0  0  0  0  0  0  0  0  0  0
   -2.9875    0.1792    2.1516 H   0  0  0  0  0  0  0  0  0  0  0  0
   -3.0031   -1.5415    1.7505 H   0  0  0  0  0  0  0  0  0  0  0  0
   -1.5012   -0.7543    2.1719 H   0  0  0  0  0  0  0  0  0  0  0  0
   -4.8310   -0.8384    0.8213 H   0  0  0  0  0  0  0  0  0  0  0  0
    1.6694   -0.3619    2.4283 H   0  0  0  0  0  0  0  0  0  0  0  0
    1.8150   -2.0582    1.9948 H   0  0  0  0  0  0  0  0  0  0  0  0
    3.2484   -1.0788    2.2552 H   0  0  0  0  0  0  0  0  0  0  0  0
    4.8116   -2.6827   -1.0632 H   0  0  0  0  0  0  0  0  0  0  0  0
    6.2112   -0.7972   -0.1186 H   0  0  0  0  0  0  0  0  0  0  0  0
   -6.0767    1.1408    0.1722 H   0  0  0  0  0  0  0  0  0  0  0  0
   -6.0633    0.6597   -1.5238 H   0  0  0  0  0  0  0  0  0  0  0  0
   -3.9484   -2.4545   -0.9545 H   0  0  0  0  0  0  0  0  0  0  0  0
   -4.9331   -1.6019   -2.1398 H   0  0  0  0  0  0  0  0  0  0  0  0
   -5.6570   -2.4786   -0.7805 H   0  0  0  0  0  0  0  0  0  0  0  0
   -7.3441   -0.9280    0.7582 H   0  0  0  0  0  0  0  0  0  0  0  0
   -7.3858   -1.3592   -0.9541 H   0  0  0  0  0  0  0  0  0  0  0  0
   -8.6067    0.7160   -1.5010 H   0  0  0  0  0  0  0  0  0  0  0  0
   -8.5718    1.2080    1.5176 H   0  0  0  0  0  0  0  0  0  0  0  0
   -7.8824    2.2199    0.2430 H   0  0  0  0  0  0  0  0  0  0  0  0
   -9.6082    2.0947    0.3845 H   0  0  0  0  0  0  0  0  0  0  0  0
    4.3207    6.1327    1.3706 H   0  0  0  0  0  0  0  0  0  0  0  0
  -10.2006   -0.3956    1.7749 H   0  0  0  0  0  0  0  0  0  0  0  0
  -11.0740   -1.7481    1.0617 H   0  0  0  0  0  0  0  0  0  0  0  0
   -9.3284   -1.8487    1.2561 H   0  0  0  0  0  0  0  0  0  0  0  0
   -9.7611   -1.3486   -2.4401 H   0  0  0  0  0  0  0  0  0  0  0  0
  -10.9319   -2.2345   -1.4543 H   0  0  0  0  0  0  0  0  0  0  0  0
   -9.2130   -2.4781   -1.1870 H   0  0  0  0  0  0  0  0  0  0  0  0
  -11.1074    0.8699   -1.6164 H   0  0  0  0  0  0  0  0  0  0  0  0
  -12.1193   -0.3101   -0.7770 H   0  0  0  0  0  0  0  0  0  0  0  0
  -11.4174    1.0196    0.1253 H   0  0  0  0  0  0  0  0  0  0  0  0
    5.3472   -5.3366    2.9605 H   0  0  0  0  0  0  0  0  0  0  0  0
    6.8367    1.0329   -4.5855 H   0  0  0  0  0  0  0  0  0  0  0  0
  1  4  1  0  0  0  0
  1  7  1  0  0  0  0
  1  8  2  0  0  0  0
  1  9  2  0  0  0  0
  2  5  1  0  0  0  0
  2 10  1  0  0  0  0
  2 12  2  0  0  0  0
  2 13  2  0  0  0  0
  3  6  1  0  0  0  0
  3 11  1  0  0  0  0
  3 14  2  0  0  0  0
  3 15  2  0  0  0  0
  4 27  1  0  0  0  0
  5 34  1  0  0  0  0
  6 35  1  0  0  0  0
  7 85  1  0  0  0  0
 10 95  1  0  0  0  0
 11 96  1  0  0  0  0
 16 17  1  0  0  0  0
 16 18  1  0  0  0  0
 16 26  1  0  0  0  0
 16 45  1  0  0  0  0
 17 19  1  0  0  0  0
 17 25  1  0  0  0  0
 17 46  1  0  0  0  0
 18 21  1  0  0  0  0
 18 23  1  0  0  0  0
 18 31  1  0  0  0  0
 19 20  1  0  0  0  0
 19 24  1  0  0  0  0
 19 47  1  0  0  0  0
 20 22  1  0  0  0  0
 20 29  1  0  0  0  0
 20 33  1  0  0  0  0
 21 28  1  0  0  0  0
 21 32  1  0  0  0  0
 21 48  1  0  0  0  0
 22 27  1  0  0  0  0
 22 30  1  0  0  0  0
 22 49  1  0  0  0  0
 23 24  1  0  0  0  0
 23 50  1  0  0  0  0
 23 51  1  0  0  0  0
 24 52  1  0  0  0  0
 24 53  1  0  0  0  0
 25 27  1  0  0  0  0
 25 54  1  0  0  0  0
 25 55  1  0  0  0  0
 26 28  1  0  0  0  0
 26 56  1  0  0  0  0
 26 57  1  0  0  0  0
 27 58  1  0  0  0  0
 28 59  1  0  0  0  0
 28 60  1  0  0  0  0
 29 34  1  0  0  0  0
 29 61  1  0  0  0  0
 29 62  1  0  0  0  0
 30 35  1  0  0  0  0
 30 63  1  0  0  0  0
 30 64  1  0  0  0  0
 31 65  1  0  0  0  0
 31 66  1  0  0  0  0
 31 67  1  0  0  0  0
 32 36  1  0  0  0  0
 32 37  1  0  0  0  0
 32 68  1  0  0  0  0
 33 69  1  0  0  0  0
 33 70  1  0  0  0  0
 33 71  1  0  0  0  0
 34 35  1  0  0  0  0
 34 72  1  0  0  0  0
 35 73  1  0  0  0  0
 36 38  1  0  0  0  0
 36 74  1  0  0  0  0
 36 75  1  0  0  0  0
 37 76  1  0  0  0  0
 37 77  1  0  0  0  0
 37 78  1  0  0  0  0
 38 39  1  0  0  0  0
 38 79  1  0  0  0  0
 38 80  1  0  0  0  0
 39 40  1  0  0  0  0
 39 41  1  0  0  0  0
 39 81  1  0  0  0  0
 40 42  1  0  0  0  0
 40 43  1  0  0  0  0
 40 44  1  0  0  0  0
 41 82  1  0  0  0  0
 41 83  1  0  0  0  0
 41 84  1  0  0  0  0
 42 86  1  0  0  0  0
 42 87  1  0  0  0  0
 42 88  1  0  0  0  0
 43 89  1  0  0  0  0
 43 90  1  0  0  0  0
 43 91  1  0  0  0  0
 44 92  1  0  0  0  0
 44 93  1  0  0  0  0
 44 94  1  0  0  0  0
M  END
> <PUBCHEM_COMPOUND_CID>
73361

> <PUBCHEM_CONFORMER_RMSD>
1.2

> <PUBCHEM_CONFORMER_DIVERSEORDER>
1
5
6
3
8
10
2
9
7
4

> <PUBCHEM_MMFF94_PARTIAL_CHARGES>
21
1 1.67
10 -0.68
11 -0.68
12 -0.65
13 -0.65
14 -0.65
15 -0.65
2 1.67
27 0.28
3 1.67
34 0.28
35 0.28
4 -0.46
5 -0.46
6 -0.46
7 -0.68
8 -0.65
85 0.5
9 -0.65
95 0.5
96 0.5

> <PUBCHEM_EFFECTIVE_ROTOR_COUNT>
13.2

> <PUBCHEM_PHARMACOPHORE_FEATURES>
20
1 10 acceptor
1 11 acceptor
1 12 acceptor
1 13 acceptor
1 14 acceptor
1 15 acceptor
1 37 hydrophobe
1 41 hydrophobe
1 7 acceptor
1 8 acceptor
1 9 acceptor
4 1 7 8 9 anion
4 2 10 12 13 anion
4 3 11 14 15 anion
4 40 42 43 44 hydrophobe
5 16 18 21 26 28 rings
5 32 36 38 39 40 hydrophobe
6 16 17 18 19 23 24 rings
6 17 19 20 22 25 27 rings
6 20 22 29 30 34 35 rings

> <PUBCHEM_HEAVY_ATOM_COUNT>
44

> <PUBCHEM_ATOM_DEF_STEREO_COUNT>
12

> <PUBCHEM_ATOM_UDEF_STEREO_COUNT>
0

> <PUBCHEM_BOND_DEF_STEREO_COUNT>
0

> <PUBCHEM_BOND_UDEF_STEREO_COUNT>
0

> <PUBCHEM_ISOTOPIC_ATOM_COUNT>
0

> <PUBCHEM_COMPONENT_COUNT>
1

> <PUBCHEM_CACTVS_TAUTO_COUNT>
1

> <PUBCHEM_CONFORMER_ID>
00011E9100000001

> <PUBCHEM_MMFF94_ENERGY>
137.3281

> <PUBCHEM_FEATURE_SELFOVERLAP>
101.802

> <PUBCHEM_SHAPE_FINGERPRINT>
10411042 1 18192716863442054458
11607047 191 17534642417337988504
11607047 74 16661214620405302840
11966995 178 18187643579378961529
12522641 24 18260549987666720857
12788726 201 18047177825515163746
13560911 43 18334580174141515609
13617811 41 18131630062992478668
13811026 1 18340489964127610633
14937079 2 18335141969334465105
15439362 3 17974567997399717896
15840311 113 18335986368763896933
19301679 30 17975421531333207026
20771845 171 17847055602079398166
22311459 1 18334577979825008359
23522609 53 18193811937994541457
23559900 14 18261397702114137320
335352 9 18335420158850715511
3534868 343 18196363935243414158
4073 2 18268715996723871267
5470011 282 17917992793963937839
9962374 69 18336561460109874203

> <PUBCHEM_SHAPE_MULTIPOLES>
846.62
28.51
5.33
2.04
87.61
1.59
1.01
-8.19
10.52
-14.06
-4.24
-5.31
0.07
-2.16

> <PUBCHEM_SHAPE_SELFOVERLAP>
1711.415

> <PUBCHEM_SHAPE_VOLUME>
500.6

> <PUBCHEM_COORDINATE_TYPE>
2
5
10

$$$$

