94144
  -OEChem-07051212463D

 51 54  0     1  0  0  0  0  0999 V2000
    0.2233    0.4810    0.3286 C   0  0  1  0  0  0  0  0  0  0  0  0
   -0.6495   -0.6983   -0.2133 C   0  0  2  0  0  0  0  0  0  0  0  0
   -2.0602   -0.5674    0.3704 C   0  0  1  0  0  0  0  0  0  0  0  0
    1.7106    0.3927   -0.1798 C   0  0  2  0  0  0  0  0  0  0  0  0
   -2.7392    0.7578   -0.0216 C   0  0  2  0  0  0  0  0  0  0  0  0
    2.2651   -1.0063    0.2419 C   0  0  1  0  0  0  0  0  0  0  0  0
   -0.4531    1.8588    0.0988 C   0  0  0  0  0  0  0  0  0  0  0  0
   -1.9178    1.9079    0.5713 C   0  0  0  0  0  0  0  0  0  0  0  0
   -0.0242   -2.0583    0.1272 C   0  0  0  0  0  0  0  0  0  0  0  0
   -3.1075   -1.6206    0.0280 C   0  0  0  0  0  0  0  0  0  0  0  0
    1.4311   -2.1610   -0.3241 C   0  0  0  0  0  0  0  0  0  0  0  0
   -4.1209    0.5516    0.6169 C   0  0  0  0  0  0  0  0  0  0  0  0
    2.5901    1.4748    0.5089 C   0  0  0  0  0  0  0  0  0  0  0  0
   -4.4417   -0.9337    0.3655 C   0  0  0  0  0  0  0  0  0  0  0  0
    3.7557   -1.1820   -0.0800 C   0  0  0  0  0  0  0  0  0  0  0  0
    1.7812    0.6086   -1.7134 C   0  0  0  0  0  0  0  0  0  0  0  0
   -2.9225    0.9707   -1.5434 C   0  0  0  0  0  0  0  0  0  0  0  0
    4.0887    1.3110    0.2395 C   0  0  0  0  0  0  0  0  0  0  0  0
    4.5908   -0.0873    0.5786 C   0  0  0  0  0  0  0  0  0  0  0  0
    0.2633    0.3581    1.4229 H   0  0  0  0  0  0  0  0  0  0  0  0
   -0.7145   -0.6365   -1.3046 H   0  0  0  0  0  0  0  0  0  0  0  0
   -1.9541   -0.5918    1.4682 H   0  0  0  0  0  0  0  0  0  0  0  0
    2.1824   -1.0735    1.3382 H   0  0  0  0  0  0  0  0  0  0  0  0
   -0.4114    2.1333   -0.9595 H   0  0  0  0  0  0  0  0  0  0  0  0
    0.0952    2.6377    0.6403 H   0  0  0  0  0  0  0  0  0  0  0  0
   -1.9318    1.8543    1.6678 H   0  0  0  0  0  0  0  0  0  0  0  0
   -2.3589    2.8758    0.3044 H   0  0  0  0  0  0  0  0  0  0  0  0
   -0.5975   -2.8651   -0.3443 H   0  0  0  0  0  0  0  0  0  0  0  0
   -0.0749   -2.2283    1.2104 H   0  0  0  0  0  0  0  0  0  0  0  0
   -2.9747   -2.5380    0.6104 H   0  0  0  0  0  0  0  0  0  0  0  0
   -3.0729   -1.8940   -1.0324 H   0  0  0  0  0  0  0  0  0  0  0  0
    1.8384   -3.1187    0.0225 H   0  0  0  0  0  0  0  0  0  0  0  0
    1.4840   -2.1808   -1.4185 H   0  0  0  0  0  0  0  0  0  0  0  0
   -4.8922    1.2093    0.2028 H   0  0  0  0  0  0  0  0  0  0  0  0
   -4.0820    0.7339    1.6982 H   0  0  0  0  0  0  0  0  0  0  0  0
    2.4276    1.4394    1.5943 H   0  0  0  0  0  0  0  0  0  0  0  0
    2.2937    2.4785    0.1825 H   0  0  0  0  0  0  0  0  0  0  0  0
   -5.1460   -1.0486   -0.4657 H   0  0  0  0  0  0  0  0  0  0  0  0
   -4.9054   -1.3794    1.2521 H   0  0  0  0  0  0  0  0  0  0  0  0
    3.9255   -1.1843   -1.1623 H   0  0  0  0  0  0  0  0  0  0  0  0
    4.1019   -2.1562    0.2870 H   0  0  0  0  0  0  0  0  0  0  0  0
    2.7905    0.4647   -2.1089 H   0  0  0  0  0  0  0  0  0  0  0  0
    1.1318   -0.0742   -2.2666 H   0  0  0  0  0  0  0  0  0  0  0  0
    1.4874    1.6281   -1.9842 H   0  0  0  0  0  0  0  0  0  0  0  0
   -1.9732    1.0101   -2.0840 H   0  0  0  0  0  0  0  0  0  0  0  0
   -3.5216    0.1817   -2.0089 H   0  0  0  0  0  0  0  0  0  0  0  0
   -3.4414    1.9179   -1.7330 H   0  0  0  0  0  0  0  0  0  0  0  0
    4.6442    2.0484    0.8312 H   0  0  0  0  0  0  0  0  0  0  0  0
    4.3077    1.5346   -0.8108 H   0  0  0  0  0  0  0  0  0  0  0  0
    5.6384   -0.1880    0.2732 H   0  0  0  0  0  0  0  0  0  0  0  0
    4.5659   -0.2225    1.6672 H   0  0  0  0  0  0  0  0  0  0  0  0
  1  2  1  0  0  0  0
  1  4  1  0  0  0  0
  1  7  1  0  0  0  0
  1 20  1  0  0  0  0
  2  3  1  0  0  0  0
  2  9  1  0  0  0  0
  2 21  1  0  0  0  0
  3  5  1  0  0  0  0
  3 10  1  0  0  0  0
  3 22  1  0  0  0  0
  4  6  1  0  0  0  0
  4 13  1  0  0  0  0
  4 16  1  0  0  0  0
  5  8  1  0  0  0  0
  5 12  1  0  0  0  0
  5 17  1  0  0  0  0
  6 11  1  0  0  0  0
  6 15  1  0  0  0  0
  6 23  1  0  0  0  0
  7  8  1  0  0  0  0
  7 24  1  0  0  0  0
  7 25  1  0  0  0  0
  8 26  1  0  0  0  0
  8 27  1  0  0  0  0
  9 11  1  0  0  0  0
  9 28  1  0  0  0  0
  9 29  1  0  0  0  0
 10 14  1  0  0  0  0
 10 30  1  0  0  0  0
 10 31  1  0  0  0  0
 11 32  1  0  0  0  0
 11 33  1  0  0  0  0
 12 14  1  0  0  0  0
 12 34  1  0  0  0  0
 12 35  1  0  0  0  0
 13 18  1  0  0  0  0
 13 36  1  0  0  0  0
 13 37  1  0  0  0  0
 14 38  1  0  0  0  0
 14 39  1  0  0  0  0
 15 19  1  0  0  0  0
 15 40  1  0  0  0  0
 15 41  1  0  0  0  0
 16 42  1  0  0  0  0
 16 43  1  0  0  0  0
 16 44  1  0  0  0  0
 17 45  1  0  0  0  0
 17 46  1  0  0  0  0
 17 47  1  0  0  0  0
 18 19  1  0  0  0  0
 18 48  1  0  0  0  0
 18 49  1  0  0  0  0
 19 50  1  0  0  0  0
 19 51  1  0  0  0  0
M  END
> <PUBCHEM_COMPOUND_CID>
94144

> <PUBCHEM_CONFORMER_RMSD>
0.6

> <PUBCHEM_CONFORMER_DIVERSEORDER>
1

> <PUBCHEM_MMFF94_PARTIAL_CHARGES>
0

> <PUBCHEM_EFFECTIVE_ROTOR_COUNT>
2.2

> <PUBCHEM_PHARMACOPHORE_FEATURES>
4
5 3 5 10 12 14 rings
6 1 2 3 5 7 8 rings
6 1 2 4 6 9 11 rings
6 4 6 13 15 18 19 rings

> <PUBCHEM_HEAVY_ATOM_COUNT>
19

> <PUBCHEM_ATOM_DEF_STEREO_COUNT>
6

> <PUBCHEM_ATOM_UDEF_STEREO_COUNT>
0

> <PUBCHEM_BOND_DEF_STEREO_COUNT>
0

> <PUBCHEM_BOND_UDEF_STEREO_COUNT>
0

> <PUBCHEM_ISOTOPIC_ATOM_COUNT>
0

> <PUBCHEM_COMPONENT_COUNT>
1

> <PUBCHEM_CACTVS_TAUTO_COUNT>
1

> <PUBCHEM_CONFORMER_ID>
00016FC000000001

> <PUBCHEM_MMFF94_ENERGY>
61.7816

> <PUBCHEM_FEATURE_SELFOVERLAP>
20.389

> <PUBCHEM_SHAPE_FINGERPRINT>
10062212 137 18412269428040118419
10411042 1 15527705479423864841
10608611 8 18339082691220758057
10616163 171 18408319986578605267
10646746 165 18408602591310848420
10967382 1 18409448085445146642
11132069 177 18341891879316290323
12236239 1 17917991668413019184
12403259 226 18411142463102770528
12403259 415 18412267229080237772
12403814 3 17989486312629368813
13140716 1 18192993712195324178
13224815 77 18410291419263596811
13581323 91 18411419501309289892
13675066 3 18273213084146553747
14178342 30 18339354274951395097
14223421 5 18336826519124908956
14787075 74 18338802191169975242
15196674 1 18409729564526894595
15219456 202 18412829113817991959
15230672 131 13514050066010819875
15442244 35 18121499317562078258
15536298 74 18334010618575793674
15775835 57 18260545610672429315
16945 1 18194686096808443082
17349148 13 18273498965949659554
17492 89 18339361967196182883
17802600 8 18412266133609947443
17804303 29 18338512053671515862
1813 80 17203328962061529854
18186145 218 18408882958027643892
18522853 276 18409728465268409449
19591789 44 18336548205176076027
200 152 18260277334800093519
20510252 161 18261108595064873129
21267235 1 18410283714129600418
221490 88 18337382850877125114
22854114 111 18411696586555097930
2334 1 18410855421489338859
23402539 116 18260556592898459140
23463225 33 18413387639712466250
23557571 272 18187075127102792791
23559900 14 18335424625300308722
2748010 2 18411133632290963127
2871803 45 18412549816458473463
296302 2 16008751303267032618
335352 9 18193274319614995246
34934 24 18335706061543023443
350125 39 18411974797409632028
4409770 3 16402540611424939462
474 4 17130136508651781132
474229 33 18409450241597993386
5104073 3 18410292531654885226
633830 44 18040711485172130004
69090 78 18335423439219512898
7364860 26 18189048862412981686
8809292 202 18271801307169799411
9709674 26 18409442609219900050

> <PUBCHEM_SHAPE_MULTIPOLES>
391.01
8.14
2.15
1
0.6
0.33
0.41
-0.04
-1.12
0.03
-0.09
-0.11
-0.26
0.25

> <PUBCHEM_SHAPE_SELFOVERLAP>
825.771

> <PUBCHEM_SHAPE_VOLUME>
215.1

> <PUBCHEM_COORDINATE_TYPE>
2
5
10

$$$$

