8229
  -OEChem-06261202402D

133135  0     1  0  0  0  0  0999 V2000
   11.6146    1.3491    0.0000 S   0  0  0  0  0  0  0  0  0  0  0  0
   12.4806    1.8491    0.0000 S   0  0  0  0  0  0  0  0  0  0  0  0
    7.0485    2.1497    0.0000 O   0  0  0  0  0  0  0  0  0  0  0  0
    8.1505    1.3491    0.0000 O   0  0  0  0  0  0  0  0  0  0  0  0
    6.1860    6.4224    0.0000 O   0  0  0  0  0  0  0  0  0  0  0  0
    8.1505    0.3491    0.0000 O   0  0  0  0  0  0  0  0  0  0  0  0
   12.4806   -4.1509    0.0000 O   0  0  0  0  0  0  0  0  0  0  0  0
    9.0165   -3.1509    0.0000 O   0  0  0  0  0  0  0  0  0  0  0  0
   15.9447   -3.1509    0.0000 O   0  0  0  0  0  0  0  0  0  0  0  0
    7.2845   -0.1509    0.0000 O   0  0  0  0  0  0  0  0  0  0  0  0
   15.0787    0.3491    0.0000 O   0  0  0  0  0  0  0  0  0  0  0  0
    3.1249    4.5172    0.0000 O   0  0  0  0  0  0  0  0  0  0  0  0
   10.7486   -6.1509    0.0000 O   0  0  0  0  0  0  0  0  0  0  0  0
   19.4088   -3.1509    0.0000 O   0  0  0  0  0  0  0  0  0  0  0  0
    9.0165    2.8491    0.0000 N   0  0  0  0  0  0  0  0  0  0  0  0
    6.5133    3.7970    0.0000 N   0  0  0  0  0  0  0  0  0  0  0  0
    9.8825    0.3491    0.0000 N   0  0  0  0  0  0  0  0  0  0  0  0
    5.0270    5.1352    0.0000 N   0  0  0  0  0  0  0  0  0  0  0  0
    9.8825   -1.6509    0.0000 N   0  0  0  0  0  0  0  0  0  0  0  0
   11.6146   -2.6509    0.0000 N   0  0  0  0  0  0  0  0  0  0  0  0
   14.2127   -3.1509    0.0000 N   0  0  0  0  0  0  0  0  0  0  0  0
   14.2127   -1.1509    0.0000 N   0  0  0  0  0  0  0  0  0  0  0  0
    6.4184   -1.6509    0.0000 N   0  0  0  0  0  0  0  0  0  0  0  0
    2.5896    6.1645    0.0000 N   0  0  0  0  0  0  0  0  0  0  0  0
    9.0165   -6.1509    0.0000 N   0  0  0  0  0  0  0  0  0  0  0  0
    8.2075    3.4369    0.0000 C   0  0  3  0  0  0  0  0  0  0  0  0
    8.5165    4.3879    0.0000 C   0  0  0  0  0  0  0  0  0  0  0  0
    9.5165    4.3879    0.0000 C   0  0  0  0  0  0  0  0  0  0  0  0
    9.8255    3.4369    0.0000 C   0  0  0  0  0  0  0  0  0  0  0  0
    7.2564    3.1278    0.0000 C   0  0  0  0  0  0  0  0  0  0  0  0
    9.0165    1.8491    0.0000 C   0  0  0  0  0  0  0  0  0  0  0  0
    9.8825    1.3491    0.0000 C   0  0  3  0  0  0  0  0  0  0  0  0
    6.7212    4.7751    0.0000 C   0  0  3  0  0  0  0  0  0  0  0  0
    7.6723    5.0841    0.0000 C   0  0  0  0  0  0  0  0  0  0  0  0
   10.7486    1.8491    0.0000 C   0  0  0  0  0  0  0  0  0  0  0  0
    7.8802    6.0623    0.0000 C   0  0  0  0  0  0  0  0  0  0  0  0
    5.9781    5.4442    0.0000 C   0  0  0  0  0  0  0  0  0  0  0  0
    9.0165   -0.1509    0.0000 C   0  0  0  0  0  0  0  0  0  0  0  0
    9.0165   -1.1509    0.0000 C   0  0  3  0  0  0  0  0  0  0  0  0
   13.0046   -1.7112    0.0000 C   0  0  3  0  0  0  0  0  0  0  0  0
   13.3466   -2.6509    0.0000 C   0  0  3  0  0  0  0  0  0  0  0  0
    8.8312    6.3713    0.0000 C   0  0  0  0  0  0  0  0  0  0  0  0
    7.1370    6.7314    0.0000 C   0  0  0  0  0  0  0  0  0  0  0  0
   10.7486   -3.1509    0.0000 C   0  0  3  0  0  0  0  0  0  0  0  0
   12.0198   -1.5376    0.0000 C   0  0  0  0  0  0  0  0  0  0  0  0
    8.1505   -1.6509    0.0000 C   0  0  0  0  0  0  0  0  0  0  0  0
   12.4806   -3.1509    0.0000 C   0  0  0  0  0  0  0  0  0  0  0  0
    9.8825   -2.6509    0.0000 C   0  0  0  0  0  0  0  0  0  0  0  0
   13.1783   -0.7264    0.0000 C   0  0  0  0  0  0  0  0  0  0  0  0
   10.7486   -4.1509    0.0000 C   0  0  0  0  0  0  0  0  0  0  0  0
   15.0787   -1.6509    0.0000 C   0  0  3  0  0  0  0  0  0  0  0  0
   15.0787   -2.6509    0.0000 C   0  0  0  0  0  0  0  0  0  0  0  0
    4.2839    5.8044    0.0000 C   0  0  0  0  0  0  0  0  0  0  0  0
   11.6778   -0.5979    0.0000 C   0  0  0  0  0  0  0  0  0  0  0  0
    9.8825   -4.6509    0.0000 C   0  0  0  0  0  0  0  0  0  0  0  0
   15.9447   -1.1509    0.0000 C   0  0  0  0  0  0  0  0  0  0  0  0
    7.2845   -1.1509    0.0000 C   0  0  0  0  0  0  0  0  0  0  0  0
   13.3466    1.3491    0.0000 C   0  0  0  0  0  0  0  0  0  0  0  0
   13.3466    0.3491    0.0000 C   0  0  0  0  0  0  0  0  0  0  0  0
   14.2127   -0.1509    0.0000 C   0  0  0  0  0  0  0  0  0  0  0  0
   16.8107   -1.6509    0.0000 C   0  0  0  0  0  0  0  0  0  0  0  0
    3.3328    5.4954    0.0000 C   0  0  0  0  0  0  0  0  0  0  0  0
    9.8825   -5.6509    0.0000 C   0  0  0  0  0  0  0  0  0  0  0  0
   16.8107   -2.6509    0.0000 C   0  0  0  0  0  0  0  0  0  0  0  0
   17.6768   -1.1509    0.0000 C   0  0  0  0  0  0  0  0  0  0  0  0
   17.6768   -3.1509    0.0000 C   0  0  0  0  0  0  0  0  0  0  0  0
   18.5428   -1.6509    0.0000 C   0  0  0  0  0  0  0  0  0  0  0  0
   18.5428   -2.6509    0.0000 C   0  0  0  0  0  0  0  0  0  0  0  0
    8.0745    2.5973    0.0000 H   0  0  0  0  0  0  0  0  0  0  0  0
    8.5813    5.0045    0.0000 H   0  0  0  0  0  0  0  0  0  0  0  0
    7.9101    4.5168    0.0000 H   0  0  0  0  0  0  0  0  0  0  0  0
   10.1230    4.5168    0.0000 H   0  0  0  0  0  0  0  0  0  0  0  0
    9.4517    5.0045    0.0000 H   0  0  0  0  0  0  0  0  0  0  0  0
   10.1355    2.8999    0.0000 H   0  0  0  0  0  0  0  0  0  0  0  0
   10.3919    3.6890    0.0000 H   0  0  0  0  0  0  0  0  0  0  0  0
    9.1464    0.9241    0.0000 H   0  0  0  0  0  0  0  0  0  0  0  0
    5.9236    3.6054    0.0000 H   0  0  0  0  0  0  0  0  0  0  0  0
    5.9128    4.5124    0.0000 H   0  0  0  0  0  0  0  0  0  0  0  0
    7.7586    4.4702    0.0000 H   0  0  0  0  0  0  0  0  0  0  0  0
    8.2919    5.0625    0.0000 H   0  0  0  0  0  0  0  0  0  0  0  0
   11.1471    2.3240    0.0000 H   0  0  0  0  0  0  0  0  0  0  0  0
   10.3500    2.3240    0.0000 H   0  0  0  0  0  0  0  0  0  0  0  0
    8.3409    5.6474    0.0000 H   0  0  0  0  0  0  0  0  0  0  0  0
   10.4195    0.0391    0.0000 H   0  0  0  0  0  0  0  0  0  0  0  0
    9.0165   -2.0009    0.0000 H   0  0  0  0  0  0  0  0  0  0  0  0
   13.8514   -1.6372    0.0000 H   0  0  0  0  0  0  0  0  0  0  0  0
   13.9978   -2.1046    0.0000 H   0  0  0  0  0  0  0  0  0  0  0  0
    7.5519    7.1922    0.0000 H   0  0  0  0  0  0  0  0  0  0  0  0
    6.6763    7.1463    0.0000 H   0  0  0  0  0  0  0  0  0  0  0  0
    6.7222    6.2707    0.0000 H   0  0  0  0  0  0  0  0  0  0  0  0
    9.0228    5.7816    0.0000 H   0  0  0  0  0  0  0  0  0  0  0  0
    9.4209    6.5629    0.0000 H   0  0  0  0  0  0  0  0  0  0  0  0
    8.6396    6.9610    0.0000 H   0  0  0  0  0  0  0  0  0  0  0  0
   11.4847   -3.5759    0.0000 H   0  0  0  0  0  0  0  0  0  0  0  0
   11.4092   -1.6452    0.0000 H   0  0  0  0  0  0  0  0  0  0  0  0
   12.0198   -2.1576    0.0000 H   0  0  0  0  0  0  0  0  0  0  0  0
    4.8981    4.5288    0.0000 H   0  0  0  0  0  0  0  0  0  0  0  0
   10.4195   -1.3409    0.0000 H   0  0  0  0  0  0  0  0  0  0  0  0
    7.7520   -2.1259    0.0000 H   0  0  0  0  0  0  0  0  0  0  0  0
    8.5490   -2.1259    0.0000 H   0  0  0  0  0  0  0  0  0  0  0  0
   14.2127   -3.7709    0.0000 H   0  0  0  0  0  0  0  0  0  0  0  0
   11.6146   -2.0309    0.0000 H   0  0  0  0  0  0  0  0  0  0  0  0
   13.7888   -0.8341    0.0000 H   0  0  0  0  0  0  0  0  0  0  0  0
   13.2859   -0.1158    0.0000 H   0  0  0  0  0  0  0  0  0  0  0  0
   12.5677   -0.6188    0.0000 H   0  0  0  0  0  0  0  0  0  0  0  0
   10.9606   -4.7335    0.0000 H   0  0  0  0  0  0  0  0  0  0  0  0
   11.3591   -4.0433    0.0000 H   0  0  0  0  0  0  0  0  0  0  0  0
   15.0787   -0.8009    0.0000 H   0  0  0  0  0  0  0  0  0  0  0  0
    4.7724    6.1861    0.0000 H   0  0  0  0  0  0  0  0  0  0  0  0
    3.9928    6.3518    0.0000 H   0  0  0  0  0  0  0  0  0  0  0  0
   12.2604   -0.3858    0.0000 H   0  0  0  0  0  0  0  0  0  0  0  0
   11.4657   -0.0153    0.0000 H   0  0  0  0  0  0  0  0  0  0  0  0
   11.0952   -0.8099    0.0000 H   0  0  0  0  0  0  0  0  0  0  0  0
    9.6705   -4.0683    0.0000 H   0  0  0  0  0  0  0  0  0  0  0  0
    9.2720   -4.7586    0.0000 H   0  0  0  0  0  0  0  0  0  0  0  0
   16.3432   -0.6760    0.0000 H   0  0  0  0  0  0  0  0  0  0  0  0
   15.5462   -0.6760    0.0000 H   0  0  0  0  0  0  0  0  0  0  0  0
   13.9572    1.2414    0.0000 H   0  0  0  0  0  0  0  0  0  0  0  0
   13.5587    1.9317    0.0000 H   0  0  0  0  0  0  0  0  0  0  0  0
   13.6757   -1.4609    0.0000 H   0  0  0  0  0  0  0  0  0  0  0  0
   12.7361    0.4567    0.0000 H   0  0  0  0  0  0  0  0  0  0  0  0
   13.1346   -0.2335    0.0000 H   0  0  0  0  0  0  0  0  0  0  0  0
    5.8815   -1.3409    0.0000 H   0  0  0  0  0  0  0  0  0  0  0  0
    6.4184   -2.2709    0.0000 H   0  0  0  0  0  0  0  0  0  0  0  0
   16.2738   -2.9609    0.0000 H   0  0  0  0  0  0  0  0  0  0  0  0
   17.6768   -0.5309    0.0000 H   0  0  0  0  0  0  0  0  0  0  0  0
    2.0000    5.9729    0.0000 H   0  0  0  0  0  0  0  0  0  0  0  0
    2.7186    6.7709    0.0000 H   0  0  0  0  0  0  0  0  0  0  0  0
    9.0165   -6.7709    0.0000 H   0  0  0  0  0  0  0  0  0  0  0  0
    8.4796   -5.8409    0.0000 H   0  0  0  0  0  0  0  0  0  0  0  0
   17.6768   -3.7709    0.0000 H   0  0  0  0  0  0  0  0  0  0  0  0
   19.0797   -1.3409    0.0000 H   0  0  0  0  0  0  0  0  0  0  0  0
   19.9457   -2.8409    0.0000 H   0  0  0  0  0  0  0  0  0  0  0  0
  1  2  1  0  0  0  0
  1 35  1  0  0  0  0
  2 58  1  0  0  0  0
  3 30  2  0  0  0  0
  4 31  2  0  0  0  0
  5 37  2  0  0  0  0
  6 38  2  0  0  0  0
  7 47  2  0  0  0  0
  8 48  2  0  0  0  0
  9 52  2  0  0  0  0
 10 57  2  0  0  0  0
 11 60  2  0  0  0  0
 12 62  2  0  0  0  0
 13 63  2  0  0  0  0
 14 68  1  0  0  0  0
 14133  1  0  0  0  0
 15 26  1  0  0  0  0
 15 29  1  0  0  0  0
 15 31  1  0  0  0  0
 16 30  1  0  0  0  0
 16 33  1  0  0  0  0
 16 77  1  0  0  0  0
 17 32  1  0  0  0  0
 17 38  1  0  0  0  0
 17 84  1  0  0  0  0
 18 37  1  0  0  0  0
 18 53  1  0  0  0  0
 18 97  1  0  0  0  0
 19 39  1  0  0  0  0
 19 48  1  0  0  0  0
 19 98  1  0  0  0  0
 20 44  1  0  0  0  0
 20 47  1  0  0  0  0
 20102  1  0  0  0  0
 21 41  1  0  0  0  0
 21 52  1  0  0  0  0
 21101  1  0  0  0  0
 22 51  1  0  0  0  0
 22 60  1  0  0  0  0
 22120  1  0  0  0  0
 23 57  1  0  0  0  0
 23123  1  0  0  0  0
 23124  1  0  0  0  0
 24 62  1  0  0  0  0
 24127  1  0  0  0  0
 24128  1  0  0  0  0
 25 63  1  0  0  0  0
 25129  1  0  0  0  0
 25130  1  0  0  0  0
 26 27  1  0  0  0  0
 26 30  1  0  0  0  0
 26 69  1  0  0  0  0
 27 28  1  0  0  0  0
 27 70  1  0  0  0  0
 27 71  1  0  0  0  0
 28 29  1  0  0  0  0
 28 72  1  0  0  0  0
 28 73  1  0  0  0  0
 29 74  1  0  0  0  0
 29 75  1  0  0  0  0
 31 32  1  0  0  0  0
 32 35  1  0  0  0  0
 32 76  1  0  0  0  0
 33 34  1  0  0  0  0
 33 37  1  0  0  0  0
 33 78  1  0  0  0  0
 34 36  1  0  0  0  0
 34 79  1  0  0  0  0
 34 80  1  0  0  0  0
 35 81  1  0  0  0  0
 35 82  1  0  0  0  0
 36 42  1  0  0  0  0
 36 43  1  0  0  0  0
 36 83  1  0  0  0  0
 38 39  1  0  0  0  0
 39 46  1  0  0  0  0
 39 85  1  0  0  0  0
 40 41  1  0  0  0  0
 40 45  1  0  0  0  0
 40 49  1  0  0  0  0
 40 86  1  0  0  0  0
 41 47  1  0  0  0  0
 41 87  1  0  0  0  0
 42 91  1  0  0  0  0
 42 92  1  0  0  0  0
 42 93  1  0  0  0  0
 43 88  1  0  0  0  0
 43 89  1  0  0  0  0
 43 90  1  0  0  0  0
 44 48  1  0  0  0  0
 44 50  1  0  0  0  0
 44 94  1  0  0  0  0
 45 54  1  0  0  0  0
 45 95  1  0  0  0  0
 45 96  1  0  0  0  0
 46 57  1  0  0  0  0
 46 99  1  0  0  0  0
 46100  1  0  0  0  0
 49103  1  0  0  0  0
 49104  1  0  0  0  0
 49105  1  0  0  0  0
 50 55  1  0  0  0  0
 50106  1  0  0  0  0
 50107  1  0  0  0  0
 51 52  1  0  0  0  0
 51 56  1  0  0  0  0
 51108  1  0  0  0  0
 53 62  1  0  0  0  0
 53109  1  0  0  0  0
 53110  1  0  0  0  0
 54111  1  0  0  0  0
 54112  1  0  0  0  0
 54113  1  0  0  0  0
 55 63  1  0  0  0  0
 55114  1  0  0  0  0
 55115  1  0  0  0  0
 56 61  1  0  0  0  0
 56116  1  0  0  0  0
 56117  1  0  0  0  0
 58 59  1  0  0  0  0
 58118  1  0  0  0  0
 58119  1  0  0  0  0
 59 60  1  0  0  0  0
 59121  1  0  0  0  0
 59122  1  0  0  0  0
 61 64  2  0  0  0  0
 61 65  1  0  0  0  0
 64 66  1  0  0  0  0
 64125  1  0  0  0  0
 65 67  2  0  0  0  0
 65126  1  0  0  0  0
 66 68  2  0  0  0  0
 66131  1  0  0  0  0
 67 68  1  0  0  0  0
 67132  1  0  0  0  0
M  END
> <PUBCHEM_COMPOUND_CID>
8229

> <PUBCHEM_COMPOUND_CANONICALIZED>
1

> <PUBCHEM_CACTVS_COMPLEXITY>
1840

> <PUBCHEM_CACTVS_HBOND_ACCEPTOR>
14

> <PUBCHEM_CACTVS_HBOND_DONOR>
11

> <PUBCHEM_CACTVS_ROTATABLE_BOND>
17

> <PUBCHEM_CACTVS_SUBSKEYS>
AAADcfB//ABgAAAAAAAAAAAAAAAAAWAAAAAwAAAAAAAAAAABAAAAHgQQCAAADSzF2ASyBoPAAgCIAiFSEAACAAAgIAAIiIGOCIgIZjqC0TOUcAAk1hGImAedy6COIAAAAAAAAABAAAAAAAAAAAAAAAAAAA==

> <PUBCHEM_IUPAC_OPENEYE_NAME>
1-[7-(2-amino-2-oxo-ethyl)-10-(3-amino-3-oxo-propyl)-16-[(4-hydroxyphenyl)methyl]-6,9,12,15,18-pentaoxo-13-sec-butyl-1,2-dithia-5,8,11,14,17-pentazacycloicosane-4-carbonyl]-N-[1-[(2-amino-2-oxo-ethyl)carbamoyl]-3-methyl-butyl]pyrrolidine-2-carboxamide

> <PUBCHEM_IUPAC_CAS_NAME>
N-[1-[(2-amino-2-oxoethyl)amino]-4-methyl-1-oxopentan-2-yl]-1-[[7-(2-amino-2-oxoethyl)-10-(3-amino-3-oxopropyl)-13-butan-2-yl-16-[(4-hydroxyphenyl)methyl]-6,9,12,15,18-pentaoxo-1,2-dithia-5,8,11,14,17-pentazacycloeicos-4-yl]-oxomethyl]-2-pyrrolidinecarboxamide

> <PUBCHEM_IUPAC_NAME>
N-[1-[(2-amino-2-oxoethyl)amino]-4-methyl-1-oxopentan-2-yl]-1-[7-(2-amino-2-oxoethyl)-10-(3-amino-3-oxopropyl)-13-butan-2-yl-16-[(4-hydroxyphenyl)methyl]-6,9,12,15,18-pentaoxo-1,2-dithia-5,8,11,14,17-pentazacycloicosane-4-carbonyl]pyrrolidine-2-carboxamide

> <PUBCHEM_IUPAC_SYSTEMATIC_NAME>
N-[1-[(2-azanyl-2-oxidanylidene-ethyl)amino]-4-methyl-1-oxidanylidene-pentan-2-yl]-1-[[7-(2-azanyl-2-oxidanylidene-ethyl)-10-(3-azanyl-3-oxidanylidene-propyl)-13-butan-2-yl-16-[(4-hydroxyphenyl)methyl]-6,9,12,15,18-pentakis(oxidanylidene)-1,2-dithia-5,8,11,14,17-pentazacycloicos-4-yl]carbonyl]pyrrolidine-2-carboxamide

> <PUBCHEM_IUPAC_TRADITIONAL_NAME>
1-[7-(2-amino-2-keto-ethyl)-10-(3-amino-3-keto-propyl)-16-(4-hydroxybenzyl)-6,9,12,15,18-pentaketo-13-sec-butyl-1,2-dithia-5,8,11,14,17-pentazacycloeicosane-4-carbonyl]-N-[1-[(2-amino-2-keto-ethyl)carbamoyl]-3-methyl-butyl]pyrrolidine-2-carboxamide

> <PUBCHEM_IUPAC_INCHI>
InChI=1S/C43H65N11O12S2/c1-5-23(4)36-42(65)49-26(12-13-32(44)56)38(61)50-29(19-33(45)57)39(62)52-30(21-68-67-16-14-35(59)48-28(40(63)53-36)18-24-8-10-25(55)11-9-24)43(66)54-15-6-7-31(54)41(64)51-27(17-22(2)3)37(60)47-20-34(46)58/h8-11,22-23,26-31,36,55H,5-7,12-21H2,1-4H3,(H2,44,56)(H2,45,57)(H2,46,58)(H,47,60)(H,48,59)(H,49,65)(H,50,61)(H,51,64)(H,52,62)(H,53,63)

> <PUBCHEM_IUPAC_INCHIKEY>
GTYWGUNQAMYZPF-UHFFFAOYSA-N

> <PUBCHEM_XLOGP3_AA>
-1.8

> <PUBCHEM_EXACT_MASS>
991.425559

> <PUBCHEM_MOLECULAR_FORMULA>
C43H65N11O12S2

> <PUBCHEM_MOLECULAR_WEIGHT>
992.1727

> <PUBCHEM_OPENEYE_CAN_SMILES>
CCC(C)C1C(=O)NC(C(=O)NC(C(=O)NC(CSSCCC(=O)NC(C(=O)N1)CC2=CC=C(C=C2)O)C(=O)N3CCCC3C(=O)NC(CC(C)C)C(=O)NCC(=O)N)CC(=O)N)CCC(=O)N

> <PUBCHEM_OPENEYE_ISO_SMILES>
CCC(C)C1C(=O)NC(C(=O)NC(C(=O)NC(CSSCCC(=O)NC(C(=O)N1)CC2=CC=C(C=C2)O)C(=O)N3CCCC3C(=O)NC(CC(C)C)C(=O)NCC(=O)N)CC(=O)N)CCC(=O)N

> <PUBCHEM_CACTVS_TPSA>
424

> <PUBCHEM_MONOISOTOPIC_WEIGHT>
991.425559

> <PUBCHEM_TOTAL_CHARGE>
0

> <PUBCHEM_HEAVY_ATOM_COUNT>
68

> <PUBCHEM_ATOM_DEF_STEREO_COUNT>
0

> <PUBCHEM_ATOM_UDEF_STEREO_COUNT>
8

> <PUBCHEM_BOND_DEF_STEREO_COUNT>
0

> <PUBCHEM_BOND_UDEF_STEREO_COUNT>
0

> <PUBCHEM_ISOTOPIC_ATOM_COUNT>
0

> <PUBCHEM_COMPONENT_COUNT>
1

> <PUBCHEM_CACTVS_TAUTO_COUNT>
1001

> <PUBCHEM_COORDINATE_TYPE>
1
5
255

> <PUBCHEM_BONDANNOTATIONS>
26  69  3
32  76  3
33  78  3
39  85  3
40  86  3
41  87  3
44  94  3
51  108  3
61  64  8
61  65  8
64  66  8
65  67  8
66  68  8
67  68  8

$$$$

