442687
  -OEChem-07051212593D

 63 69  0     1  0  0  0  0  0999 V2000
   -2.6280    1.1583   -0.6970 O   0  0  0  0  0  0  0  0  0  0  0  0
   -2.9365   -1.1822   -0.8072 O   0  0  0  0  0  0  0  0  0  0  0  0
    2.0853    0.6543    0.1367 O   0  0  0  0  0  0  0  0  0  0  0  0
    3.5821    3.0070    0.7837 O   0  0  0  0  0  0  0  0  0  0  0  0
    0.3691    4.2790   -2.5666 O   0  0  0  0  0  0  0  0  0  0  0  0
    1.7349   -2.1323    0.0837 O   0  0  0  0  0  0  0  0  0  0  0  0
   -0.7816   -4.8542   -2.8841 O   0  0  0  0  0  0  0  0  0  0  0  0
   -8.0644    0.5400    2.3604 O   0  0  0  0  0  0  0  0  0  0  0  0
    7.2654   -1.8216    2.7052 O   0  0  0  0  0  0  0  0  0  0  0  0
   -0.5179   -0.3702    0.5719 C   0  0  2  0  0  0  0  0  0  0  0  0
   -1.8889   -0.2141    1.2232 C   0  0  0  0  0  0  0  0  0  0  0  0
   -2.8953   -0.0350    0.0738 C   0  0  1  0  0  0  0  0  0  0  0  0
   -0.2427    0.8785   -0.2375 C   0  0  0  0  0  0  0  0  0  0  0  0
   -0.5788   -1.5818   -0.3245 C   0  0  0  0  0  0  0  0  0  0  0  0
   -1.3213    1.5491   -0.8332 C   0  0  0  0  0  0  0  0  0  0  0  0
    1.0634    1.3533   -0.4556 C   0  0  0  0  0  0  0  0  0  0  0  0
    1.2843    2.5104   -1.2177 C   0  0  0  0  0  0  0  0  0  0  0  0
   -1.7796   -1.8973   -0.9740 C   0  0  0  0  0  0  0  0  0  0  0  0
   -4.2898    0.1202    0.6903 C   0  0  0  0  0  0  0  0  0  0  0  0
    2.6720    3.0494   -1.4470 C   0  0  0  0  0  0  0  0  0  0  0  0
    3.6841    2.4011   -0.5055 C   0  0  2  0  0  0  0  0  0  0  0  0
    3.3907    0.9006   -0.4051 C   0  0  1  0  0  0  0  0  0  0  0  0
   -1.1035    2.6873   -1.6092 C   0  0  0  0  0  0  0  0  0  0  0  0
    0.1916    3.1647   -1.7997 C   0  0  0  0  0  0  0  0  0  0  0  0
    0.5538   -2.3740   -0.5501 C   0  0  0  0  0  0  0  0  0  0  0  0
   -1.8467   -2.9965   -1.8320 C   0  0  0  0  0  0  0  0  0  0  0  0
    4.4283    0.1721    0.4277 C   0  0  0  0  0  0  0  0  0  0  0  0
   -4.7675    1.3872    1.0205 C   0  0  0  0  0  0  0  0  0  0  0  0
   -5.0776   -1.0066    0.9202 C   0  0  0  0  0  0  0  0  0  0  0  0
    0.4837   -3.4712   -1.4084 C   0  0  0  0  0  0  0  0  0  0  0  0
   -0.7150   -3.7818   -2.0485 C   0  0  0  0  0  0  0  0  0  0  0  0
   -6.0364    1.5281    1.5823 C   0  0  0  0  0  0  0  0  0  0  0  0
   -6.3466   -0.8657    1.4820 C   0  0  0  0  0  0  0  0  0  0  0  0
    5.5666   -0.3520   -0.1822 C   0  0  0  0  0  0  0  0  0  0  0  0
    4.2406    0.0277    1.8012 C   0  0  0  0  0  0  0  0  0  0  0  0
   -6.8260    0.4015    1.8131 C   0  0  0  0  0  0  0  0  0  0  0  0
    6.5202   -1.0226    0.5838 C   0  0  0  0  0  0  0  0  0  0  0  0
    5.1943   -0.6428    2.5672 C   0  0  0  0  0  0  0  0  0  0  0  0
    6.3340   -1.1680    1.9585 C   0  0  0  0  0  0  0  0  0  0  0  0
    0.2174   -0.4981    1.3748 H   0  0  0  0  0  0  0  0  0  0  0  0
   -2.1261   -1.1020    1.8254 H   0  0  0  0  0  0  0  0  0  0  0  0
   -1.8927    0.6556    1.8945 H   0  0  0  0  0  0  0  0  0  0  0  0
    2.9513    2.8360   -2.4860 H   0  0  0  0  0  0  0  0  0  0  0  0
    2.6784    4.1354   -1.2956 H   0  0  0  0  0  0  0  0  0  0  0  0
    4.6972    2.5939   -0.8778 H   0  0  0  0  0  0  0  0  0  0  0  0
    3.4055    0.4524   -1.4097 H   0  0  0  0  0  0  0  0  0  0  0  0
   -1.9497    3.1983   -2.0629 H   0  0  0  0  0  0  0  0  0  0  0  0
   -2.7806   -3.2425   -2.3316 H   0  0  0  0  0  0  0  0  0  0  0  0
   -4.1686    2.2801    0.8653 H   0  0  0  0  0  0  0  0  0  0  0  0
   -4.7236   -2.0065    0.6854 H   0  0  0  0  0  0  0  0  0  0  0  0
    1.3619   -4.0906   -1.5758 H   0  0  0  0  0  0  0  0  0  0  0  0
    4.3630    2.7417    1.2981 H   0  0  0  0  0  0  0  0  0  0  0  0
   -6.3972    2.5206    1.8386 H   0  0  0  0  0  0  0  0  0  0  0  0
   -6.9559   -1.7471    1.6622 H   0  0  0  0  0  0  0  0  0  0  0  0
   -0.4960    4.5912   -2.8829 H   0  0  0  0  0  0  0  0  0  0  0  0
    2.3966   -2.7845   -0.2031 H   0  0  0  0  0  0  0  0  0  0  0  0
    5.7238   -0.2433   -1.2520 H   0  0  0  0  0  0  0  0  0  0  0  0
    3.3648    0.4346    2.2992 H   0  0  0  0  0  0  0  0  0  0  0  0
    7.4041   -1.4266    0.0975 H   0  0  0  0  0  0  0  0  0  0  0  0
    5.0446   -0.7514    3.6380 H   0  0  0  0  0  0  0  0  0  0  0  0
    0.0906   -5.2835   -2.9173 H   0  0  0  0  0  0  0  0  0  0  0  0
   -8.2326    1.4839    2.5251 H   0  0  0  0  0  0  0  0  0  0  0  0
    7.9857   -2.1176    2.1223 H   0  0  0  0  0  0  0  0  0  0  0  0
  1 12  1  0  0  0  0
  1 15  1  0  0  0  0
  2 12  1  0  0  0  0
  2 18  1  0  0  0  0
  3 16  1  0  0  0  0
  3 22  1  0  0  0  0
  4 21  1  0  0  0  0
  4 52  1  0  0  0  0
  5 24  1  0  0  0  0
  5 55  1  0  0  0  0
  6 25  1  0  0  0  0
  6 56  1  0  0  0  0
  7 31  1  0  0  0  0
  7 61  1  0  0  0  0
  8 36  1  0  0  0  0
  8 62  1  0  0  0  0
  9 39  1  0  0  0  0
  9 63  1  0  0  0  0
 10 11  1  0  0  0  0
 10 13  1  0  0  0  0
 10 14  1  0  0  0  0
 10 40  1  0  0  0  0
 11 12  1  0  0  0  0
 11 41  1  0  0  0  0
 11 42  1  0  0  0  0
 12 19  1  0  0  0  0
 13 15  2  0  0  0  0
 13 16  1  0  0  0  0
 14 18  1  0  0  0  0
 14 25  2  0  0  0  0
 15 23  1  0  0  0  0
 16 17  2  0  0  0  0
 17 20  1  0  0  0  0
 17 24  1  0  0  0  0
 18 26  2  0  0  0  0
 19 28  2  0  0  0  0
 19 29  1  0  0  0  0
 20 21  1  0  0  0  0
 20 43  1  0  0  0  0
 20 44  1  0  0  0  0
 21 22  1  0  0  0  0
 21 45  1  0  0  0  0
 22 27  1  0  0  0  0
 22 46  1  0  0  0  0
 23 24  2  0  0  0  0
 23 47  1  0  0  0  0
 25 30  1  0  0  0  0
 26 31  1  0  0  0  0
 26 48  1  0  0  0  0
 27 34  2  0  0  0  0
 27 35  1  0  0  0  0
 28 32  1  0  0  0  0
 28 49  1  0  0  0  0
 29 33  2  0  0  0  0
 29 50  1  0  0  0  0
 30 31  2  0  0  0  0
 30 51  1  0  0  0  0
 32 36  2  0  0  0  0
 32 53  1  0  0  0  0
 33 36  1  0  0  0  0
 33 54  1  0  0  0  0
 34 37  1  0  0  0  0
 34 57  1  0  0  0  0
 35 38  2  0  0  0  0
 35 58  1  0  0  0  0
 37 39  2  0  0  0  0
 37 59  1  0  0  0  0
 38 39  1  0  0  0  0
 38 60  1  0  0  0  0
M  END
> <PUBCHEM_COMPOUND_CID>
442687

> <PUBCHEM_CONFORMER_RMSD>
0.8

> <PUBCHEM_CONFORMER_DIVERSEORDER>
1
2
3

> <PUBCHEM_MMFF94_PARTIAL_CHARGES>
55
1 -0.36
10 0.29
12 0.7
13 -0.14
14 -0.14
15 0.08
16 0.08
17 -0.14
18 0.08
19 -0.14
2 -0.36
20 0.14
21 0.28
22 0.42
23 -0.15
24 0.08
25 0.08
26 -0.15
27 -0.14
28 -0.15
29 -0.15
3 -0.36
30 -0.15
31 0.08
32 -0.15
33 -0.15
34 -0.15
35 -0.15
36 0.08
37 -0.15
38 -0.15
39 0.08
4 -0.68
47 0.15
48 0.15
49 0.15
5 -0.53
50 0.15
51 0.15
52 0.4
53 0.15
54 0.15
55 0.45
56 0.45
57 0.15
58 0.15
59 0.15
6 -0.53
60 0.15
61 0.45
62 0.45
63 0.45
7 -0.53
8 -0.53
9 -0.53

> <PUBCHEM_EFFECTIVE_ROTOR_COUNT>
3.4

> <PUBCHEM_PHARMACOPHORE_FEATURES>
17
1 1 acceptor
1 2 acceptor
1 3 acceptor
1 4 acceptor
1 4 donor
1 5 donor
1 6 donor
1 7 donor
1 8 donor
1 9 donor
6 1 10 11 12 13 15 rings
6 13 15 16 17 23 24 rings
6 14 18 25 26 30 31 rings
6 19 28 29 32 33 36 rings
6 2 10 11 12 14 18 rings
6 27 34 35 37 38 39 rings
6 3 16 17 20 21 22 rings

> <PUBCHEM_HEAVY_ATOM_COUNT>
39

> <PUBCHEM_ATOM_DEF_STEREO_COUNT>
4

> <PUBCHEM_ATOM_UDEF_STEREO_COUNT>
0

> <PUBCHEM_BOND_DEF_STEREO_COUNT>
0

> <PUBCHEM_BOND_UDEF_STEREO_COUNT>
0

> <PUBCHEM_ISOTOPIC_ATOM_COUNT>
0

> <PUBCHEM_COMPONENT_COUNT>
1

> <PUBCHEM_CACTVS_TAUTO_COUNT>
108

> <PUBCHEM_CONFORMER_ID>
0006C13F00000001

> <PUBCHEM_MMFF94_ENERGY>
131.866

> <PUBCHEM_FEATURE_SELFOVERLAP>
87.872

> <PUBCHEM_SHAPE_FINGERPRINT>
10305334 12 18273495672169518371
10622 236 17905066767173585958
11297750 10 17617080852212968791
11607047 141 15938631169736128759
117089 54 17700982308470312890
12107698 1 18060419131308974720
12422481 6 18411981394663774771
12608794 3 18335714818348396462
12633046 712 17345465977620039083
12633257 1 18187649077000260976
12788726 201 17326313443363887671
13540713 5 18120939408545424182
13673619 4 15769777970171777762
13782708 43 15554179094283070849
14279260 333 17416420964392824522
14395042 24 18191036612392004823
14790565 3 18115015317452349823
14840074 17 18412829083837798822
14955137 171 18272079462179117857
15064986 96 18266435685893804203
15297060 5 17675928711512069378
15324884 4 17543376176676460282
15420108 30 18187088394705572623
15444296 8 17131836533589538829
15840311 113 17459179845903695683
16728300 4 17701835490606346802
19301679 30 17916025853239173018
19315958 150 17894907439421522434
19319366 153 17343481342321384548
1979834 28 18263349421716989123
20505436 4 17910086046212182836
20554085 129 17240477027040775963
20771845 140 18041542669372293907
208703 8 17632026359582411786
21033648 29 17967251992349976930
21779490 27 17171263728288698639
21781055 127 17678150841796688144
22223350 30 18043540408120057361
23522609 53 17629730565633684844
23559900 14 17386831830298502484
255183 313 18261122880099732038
3493558 16 17320687688867200593
4017518 198 17969477386926214974
4340502 62 17748820843422455435
44880168 125 18188219805577779822
5104073 3 18337674087944708936
513202 73 17918000515481458396
54039377 194 17774441702871928714
563151 97 17405709177615891220
6058803 2 17977105652106261548
6679774 75 18340473526460581142
6691757 9 17968675851054202766

> <PUBCHEM_SHAPE_MULTIPOLES>
749.78
15.33
4.58
2.49
3.65
1.2
0.17
1.04
17.56
-1.16
-5.11
-0.39
0.83
-3.08

> <PUBCHEM_SHAPE_SELFOVERLAP>
1712.862

> <PUBCHEM_SHAPE_VOLUME>
382.9

> <PUBCHEM_COORDINATE_TYPE>
2
5
10

$$$$

