114909
  -OEChem-07051212593D

 52 56  0     1  0  0  0  0  0999 V2000
   -0.7590   -0.9259    1.2997 O   0  0  0  0  0  0  0  0  0  0  0  0
    1.7576   -0.6296    2.5840 O   0  0  0  0  0  0  0  0  0  0  0  0
    1.8631   -3.1342   -0.0351 O   0  0  0  0  0  0  0  0  0  0  0  0
   -4.6484    0.8719   -0.8987 O   0  0  0  0  0  0  0  0  0  0  0  0
    0.5805   -2.4012   -2.2753 O   0  0  0  0  0  0  0  0  0  0  0  0
    4.2757    1.3110   -1.9276 O   0  0  0  0  0  0  0  0  0  0  0  0
    4.7381    2.4285    0.5731 O   0  0  0  0  0  0  0  0  0  0  0  0
    1.1117   -1.9214    0.0318 C   0  0  1  0  0  0  0  0  0  0  0  0
    0.1972   -1.9931    1.2531 C   0  0  1  0  0  0  0  0  0  0  0  0
    2.0756   -0.7616    0.1572 C   0  0  0  0  0  0  0  0  0  0  0  0
    1.0481   -1.8720    2.5159 C   0  0  0  0  0  0  0  0  0  0  0  0
    0.2456   -1.8886   -1.2120 C   0  0  0  0  0  0  0  0  0  0  0  0
   -1.0496   -1.1892   -1.0954 C   0  0  0  0  0  0  0  0  0  0  0  0
   -1.4834   -0.7358    0.1537 C   0  0  0  0  0  0  0  0  0  0  0  0
    2.3423   -0.2053    1.4187 C   0  0  0  0  0  0  0  0  0  0  0  0
   -2.6915   -0.0212    0.2593 C   0  0  0  0  0  0  0  0  0  0  0  0
    2.7510   -0.2408   -0.9586 C   0  0  0  0  0  0  0  0  0  0  0  0
   -3.4582    0.1997   -0.8902 C   0  0  0  0  0  0  0  0  0  0  0  0
   -5.1637    1.4175    0.3324 C   0  0  0  0  0  0  0  0  0  0  0  0
   -1.8229   -0.9686   -2.2368 C   0  0  0  0  0  0  0  0  0  0  0  0
    3.2266    0.8706    1.5489 C   0  0  0  0  0  0  0  0  0  0  0  0
   -3.0269   -0.2769   -2.1306 C   0  0  0  0  0  0  0  0  0  0  0  0
   -3.1767    0.4913    1.5354 C   0  0  0  0  0  0  0  0  0  0  0  0
    3.6409    0.8264   -0.8236 C   0  0  0  0  0  0  0  0  0  0  0  0
   -4.3298    1.1622    1.5625 C   0  0  0  0  0  0  0  0  0  0  0  0
    3.8750    1.3851    0.4290 C   0  0  0  0  0  0  0  0  0  0  0  0
   -5.2953    2.9295    0.1144 C   0  0  0  0  0  0  0  0  0  0  0  0
   -6.5540    0.8011    0.5276 C   0  0  0  0  0  0  0  0  0  0  0  0
    3.6253    2.3612   -2.6402 C   0  0  0  0  0  0  0  0  0  0  0  0
    6.1049    2.1093    0.8273 C   0  0  0  0  0  0  0  0  0  0  0  0
   -0.3451   -2.9482    1.2887 H   0  0  0  0  0  0  0  0  0  0  0  0
    0.4017   -1.9045    3.4002 H   0  0  0  0  0  0  0  0  0  0  0  0
    1.7681   -2.6942    2.6042 H   0  0  0  0  0  0  0  0  0  0  0  0
    2.5913   -0.6668   -1.9459 H   0  0  0  0  0  0  0  0  0  0  0  0
    2.5571   -3.0319   -0.7088 H   0  0  0  0  0  0  0  0  0  0  0  0
   -1.5022   -1.3164   -3.2148 H   0  0  0  0  0  0  0  0  0  0  0  0
    3.4133    1.3048    2.5285 H   0  0  0  0  0  0  0  0  0  0  0  0
   -3.6236   -0.1051   -3.0229 H   0  0  0  0  0  0  0  0  0  0  0  0
   -2.6089    0.3309    2.4439 H   0  0  0  0  0  0  0  0  0  0  0  0
   -4.6895    1.5463    2.5140 H   0  0  0  0  0  0  0  0  0  0  0  0
   -5.7486    3.4312    0.9765 H   0  0  0  0  0  0  0  0  0  0  0  0
   -5.9067    3.1447   -0.7698 H   0  0  0  0  0  0  0  0  0  0  0  0
   -4.3147    3.3840   -0.0717 H   0  0  0  0  0  0  0  0  0  0  0  0
   -7.0641    1.2076    1.4079 H   0  0  0  0  0  0  0  0  0  0  0  0
   -6.4860   -0.2876    0.6413 H   0  0  0  0  0  0  0  0  0  0  0  0
   -7.1870    0.9795   -0.3498 H   0  0  0  0  0  0  0  0  0  0  0  0
    3.4928    3.2380   -1.9986 H   0  0  0  0  0  0  0  0  0  0  0  0
    2.6559    2.0234   -3.0202 H   0  0  0  0  0  0  0  0  0  0  0  0
    4.2556    2.6410   -3.4887 H   0  0  0  0  0  0  0  0  0  0  0  0
    6.6655    3.0446    0.9091 H   0  0  0  0  0  0  0  0  0  0  0  0
    6.5230    1.5216    0.0041 H   0  0  0  0  0  0  0  0  0  0  0  0
    6.2015    1.5596    1.7689 H   0  0  0  0  0  0  0  0  0  0  0  0
  1  9  1  0  0  0  0
  1 14  1  0  0  0  0
  2 11  1  0  0  0  0
  2 15  1  0  0  0  0
  3  8  1  0  0  0  0
  3 35  1  0  0  0  0
  4 18  1  0  0  0  0
  4 19  1  0  0  0  0
  5 12  2  0  0  0  0
  6 24  1  0  0  0  0
  6 29  1  0  0  0  0
  7 26  1  0  0  0  0
  7 30  1  0  0  0  0
  8  9  1  0  0  0  0
  8 10  1  0  0  0  0
  8 12  1  0  0  0  0
  9 11  1  0  0  0  0
  9 31  1  0  0  0  0
 10 15  1  0  0  0  0
 10 17  2  0  0  0  0
 11 32  1  0  0  0  0
 11 33  1  0  0  0  0
 12 13  1  0  0  0  0
 13 14  2  0  0  0  0
 13 20  1  0  0  0  0
 14 16  1  0  0  0  0
 15 21  2  0  0  0  0
 16 18  2  0  0  0  0
 16 23  1  0  0  0  0
 17 24  1  0  0  0  0
 17 34  1  0  0  0  0
 18 22  1  0  0  0  0
 19 25  1  0  0  0  0
 19 27  1  0  0  0  0
 19 28  1  0  0  0  0
 20 22  2  0  0  0  0
 20 36  1  0  0  0  0
 21 26  1  0  0  0  0
 21 37  1  0  0  0  0
 22 38  1  0  0  0  0
 23 25  2  0  0  0  0
 23 39  1  0  0  0  0
 24 26  2  0  0  0  0
 25 40  1  0  0  0  0
 27 41  1  0  0  0  0
 27 42  1  0  0  0  0
 27 43  1  0  0  0  0
 28 44  1  0  0  0  0
 28 45  1  0  0  0  0
 28 46  1  0  0  0  0
 29 47  1  0  0  0  0
 29 48  1  0  0  0  0
 29 49  1  0  0  0  0
 30 50  1  0  0  0  0
 30 51  1  0  0  0  0
 30 52  1  0  0  0  0
M  END
> <PUBCHEM_COMPOUND_CID>
114909

> <PUBCHEM_CONFORMER_RMSD>
0.8

> <PUBCHEM_CONFORMER_DIVERSEORDER>
1
2

> <PUBCHEM_MMFF94_PARTIAL_CHARGES>
35
1 -0.36
10 -0.14
11 0.28
12 0.42
13 0.09
14 0.08
15 0.08
16 0.03
17 -0.15
18 0.08
19 0.42
2 -0.36
20 -0.15
21 -0.15
22 -0.15
23 -0.18
24 0.08
25 -0.29
26 0.08
29 0.28
3 -0.68
30 0.28
34 0.15
35 0.4
36 0.15
37 0.15
38 0.15
39 0.15
4 -0.36
40 0.15
5 -0.57
6 -0.36
7 -0.36
8 0.48
9 0.28

> <PUBCHEM_EFFECTIVE_ROTOR_COUNT>
3

> <PUBCHEM_PHARMACOPHORE_FEATURES>
14
1 1 acceptor
1 2 acceptor
1 3 acceptor
1 3 donor
1 4 acceptor
1 5 acceptor
1 6 acceptor
1 7 acceptor
3 19 27 28 hydrophobe
6 1 8 9 12 13 14 rings
6 10 15 17 21 24 26 rings
6 13 14 16 18 20 22 rings
6 2 8 9 10 11 15 rings
6 4 16 18 19 23 25 rings

> <PUBCHEM_HEAVY_ATOM_COUNT>
30

> <PUBCHEM_ATOM_DEF_STEREO_COUNT>
2

> <PUBCHEM_ATOM_UDEF_STEREO_COUNT>
0

> <PUBCHEM_BOND_DEF_STEREO_COUNT>
0

> <PUBCHEM_BOND_UDEF_STEREO_COUNT>
0

> <PUBCHEM_ISOTOPIC_ATOM_COUNT>
0

> <PUBCHEM_COMPONENT_COUNT>
1

> <PUBCHEM_CACTVS_TAUTO_COUNT>
1

> <PUBCHEM_CONFORMER_ID>
0001C0DD00000001

> <PUBCHEM_MMFF94_ENERGY>
122.8243

> <PUBCHEM_FEATURE_SELFOVERLAP>
71.249

> <PUBCHEM_SHAPE_FINGERPRINT>
10165383 225 16988547018885514854
10305334 12 16122141557975125484
10319926 262 15122963913945242520
10498660 4 17603596235408646057
10622 236 4821002701830502708
10674148 151 4823224904950171339
10721379 63 17750784631488452918
11069576 57 5328481275865878964
11135609 201 18338806610928829913
11578080 2 17837163273830311898
11640471 11 18123219872897411790
11720765 8 16371281264224618676
11796584 16 9727340334747035305
11961588 58 17748548125767899769
12633257 1 16845574171307971972
12788726 201 17765712421359118150
12892183 10 14620802574115939284
12895836 83 17822297842441967609
12895837 130 18045504114898582264
13544653 18 8862951584600023402
13583140 156 15338297682845546916
13828863 39 17130127733395246740
14251757 17 15791721993005484876
14341114 328 17489581229967209109
14840074 17 18040430023756015889
14848178 5 10087637092081183301
15163728 17 18341598292373763950
15342168 16 18344142596835114471
15475509 8 4750888009684661843
15575132 122 17968375754007061185
16708801 149 17470462085062442073
1813 80 17611462326151703750
18608769 82 17604715439656932351
1979834 28 15840977988443128601
20567600 234 17632854214396937097
20626108 58 9151170965308377243
20775438 99 5832260984988936549
21033648 29 16845021220286056487
21756936 100 18340212873536835082
21792934 111 15123230001177998013
22182313 1 15431185477575348079
22393880 68 16081664261685672076
23559900 14 17701808011463485355
25222932 49 11957146617115137673
2838139 119 18335145267357678024
38570 142 18333724719766710116
392239 28 16773800264165520205
4098825 35 17095520643744589260
463206 1 6411296806251062957
474 4 18410015437766342171
484985 159 7532728838777079964
49207404 50 16486982824827067579
5081480 168 18194962079012853318
6823239 73 15337978953106850386
7808743 9 18114753646084609317
960060 61 5328736383620848121

> <PUBCHEM_SHAPE_MULTIPOLES>
576.3
12.03
2.83
2.49
6.55
0.07
0.48
12.97
-1.35
-1.72
0.28
-1.02
-0.36
-1.25

> <PUBCHEM_SHAPE_SELFOVERLAP>
1291.559

> <PUBCHEM_SHAPE_VOLUME>
302.9

> <PUBCHEM_COORDINATE_TYPE>
2
5
10

$$$$

