17396596
  -OEChem-06241222573D

 43 45  0     1  0  0  0  0  0999 V2000
    1.6352   -0.6003    2.1724 O   0  0  0  0  0  0  0  0  0  0  0  0
    0.2575   -1.1918    0.3917 N   0  0  0  0  0  0  0  0  0  0  0  0
   -1.3800    1.8964    0.4186 N   0  0  0  0  0  0  0  0  0  0  0  0
   -1.6869    2.2512   -0.8409 N   0  0  0  0  0  0  0  0  0  0  0  0
    2.5117   -0.5158   -0.0450 C   0  0  1  0  0  0  0  0  0  0  0  0
    3.4453    0.5902    0.4490 C   0  0  0  0  0  0  0  0  0  0  0  0
    3.2829   -1.8152   -0.3098 C   0  0  0  0  0  0  0  0  0  0  0  0
    4.5599    0.8676   -0.5631 C   0  0  0  0  0  0  0  0  0  0  0  0
    1.4384   -0.7596    0.9706 C   0  0  0  0  0  0  0  0  0  0  0  0
    4.5882   -1.5898   -1.0139 C   0  0  0  0  0  0  0  0  0  0  0  0
    5.1542   -0.3817   -1.1414 C   0  0  0  0  0  0  0  0  0  0  0  0
   -0.9245   -1.5182    1.1562 C   0  0  0  0  0  0  0  0  0  0  0  0
   -2.1824   -1.3027    0.3653 C   0  0  0  0  0  0  0  0  0  0  0  0
   -2.8393   -0.0723    0.3829 C   0  0  0  0  0  0  0  0  0  0  0  0
   -2.3124    1.0689    1.1897 C   0  0  0  0  0  0  0  0  0  0  0  0
   -2.6932   -2.3551   -0.3946 C   0  0  0  0  0  0  0  0  0  0  0  0
   -4.0067    0.1057   -0.3596 C   0  0  0  0  0  0  0  0  0  0  0  0
   -3.8605   -2.1770   -1.1371 C   0  0  0  0  0  0  0  0  0  0  0  0
   -4.5173   -0.9467   -1.1194 C   0  0  0  0  0  0  0  0  0  0  0  0
   -0.1767    2.3743    0.8480 C   0  0  0  0  0  0  0  0  0  0  0  0
    0.3395    3.0910   -0.2040 C   0  0  0  0  0  0  0  0  0  0  0  0
   -0.6329    2.9808   -1.2159 C   0  0  0  0  0  0  0  0  0  0  0  0
    2.0500   -0.1730   -0.9817 H   0  0  0  0  0  0  0  0  0  0  0  0
    2.8901    1.5144    0.6453 H   0  0  0  0  0  0  0  0  0  0  0  0
    3.9036    0.2995    1.4045 H   0  0  0  0  0  0  0  0  0  0  0  0
    2.6612   -2.4826   -0.9193 H   0  0  0  0  0  0  0  0  0  0  0  0
    3.4822   -2.3490    0.6281 H   0  0  0  0  0  0  0  0  0  0  0  0
    4.1689    1.4782   -1.3858 H   0  0  0  0  0  0  0  0  0  0  0  0
    5.3472    1.4530   -0.0749 H   0  0  0  0  0  0  0  0  0  0  0  0
    5.0853   -2.4561   -1.4406 H   0  0  0  0  0  0  0  0  0  0  0  0
    6.0905   -0.2889   -1.6839 H   0  0  0  0  0  0  0  0  0  0  0  0
    0.2330   -1.3552   -0.6110 H   0  0  0  0  0  0  0  0  0  0  0  0
   -0.8346   -2.5823    1.4112 H   0  0  0  0  0  0  0  0  0  0  0  0
   -0.9162   -1.0076    2.1221 H   0  0  0  0  0  0  0  0  0  0  0  0
   -1.8328    0.7808    2.1274 H   0  0  0  0  0  0  0  0  0  0  0  0
   -3.1299    1.7439    1.4763 H   0  0  0  0  0  0  0  0  0  0  0  0
   -2.1913   -3.3188   -0.4201 H   0  0  0  0  0  0  0  0  0  0  0  0
   -4.5313    1.0576   -0.3557 H   0  0  0  0  0  0  0  0  0  0  0  0
   -4.2578   -2.9961   -1.7293 H   0  0  0  0  0  0  0  0  0  0  0  0
   -5.4263   -0.8082   -1.6975 H   0  0  0  0  0  0  0  0  0  0  0  0
    0.2039    2.1721    1.8396 H   0  0  0  0  0  0  0  0  0  0  0  0
    1.2828    3.6160   -0.2328 H   0  0  0  0  0  0  0  0  0  0  0  0
   -0.6169    3.4010   -2.2112 H   0  0  0  0  0  0  0  0  0  0  0  0
  1  9  2  0  0  0  0
  2  9  1  0  0  0  0
  2 12  1  0  0  0  0
  2 32  1  0  0  0  0
  3  4  1  0  0  0  0
  3 15  1  0  0  0  0
  3 20  1  0  0  0  0
  4 22  2  0  0  0  0
  5  6  1  0  0  0  0
  5  7  1  0  0  0  0
  5  9  1  0  0  0  0
  5 23  1  0  0  0  0
  6  8  1  0  0  0  0
  6 24  1  0  0  0  0
  6 25  1  0  0  0  0
  7 10  1  0  0  0  0
  7 26  1  0  0  0  0
  7 27  1  0  0  0  0
  8 11  1  0  0  0  0
  8 28  1  0  0  0  0
  8 29  1  0  0  0  0
 10 11  2  0  0  0  0
 10 30  1  0  0  0  0
 11 31  1  0  0  0  0
 12 13  1  0  0  0  0
 12 33  1  0  0  0  0
 12 34  1  0  0  0  0
 13 14  1  0  0  0  0
 13 16  2  0  0  0  0
 14 15  1  0  0  0  0
 14 17  2  0  0  0  0
 15 35  1  0  0  0  0
 15 36  1  0  0  0  0
 16 18  1  0  0  0  0
 16 37  1  0  0  0  0
 17 19  1  0  0  0  0
 17 38  1  0  0  0  0
 18 19  2  0  0  0  0
 18 39  1  0  0  0  0
 19 40  1  0  0  0  0
 20 21  2  0  0  0  0
 20 41  1  0  0  0  0
 21 22  1  0  0  0  0
 21 42  1  0  0  0  0
 22 43  1  0  0  0  0
M  END
> <PUBCHEM_COMPOUND_CID>
17396596

> <PUBCHEM_CONFORMER_RMSD>
1

> <PUBCHEM_CONFORMER_DIVERSEORDER>
7
124
86
46
121
60
59
135
126
65
44
155
112
122
127
131
34
29
47
145
39
100
114
88
72
5
40
62
92
170
61
14
45
69
84
161
115
136
76
157
81
53
103
79
116
73
150
50
165
95
41
93
25
49
140
37
56
123
120
32
171
71
75
108
24
87
167
10
11
27
164
160
85
28
30
9
146
35
68
139
36
97
20
26
67
118
64
158
31
117
151
111
21
130
38
51
77
99
42
43
163
57
54
133
19
17
104
141
12
22
63
129
8
58
33
107
149
152
6
134
144
55
13
113
16
1
18
82
172
169
70
15
91
83
4
78
153
159
2
154
166
96
128
109
74
89
23
137
48
94
90
147
3
156
98
52
101
132
66
168
142
106
105
148
138
119
102
162
80
125
143
110

> <PUBCHEM_MMFF94_PARTIAL_CHARGES>
31
1 -0.57
10 -0.29
11 -0.29
12 0.44
13 -0.14
14 -0.14
15 0.4
16 -0.15
17 -0.15
18 -0.15
19 -0.15
2 -0.73
20 -0.3
21 -0.15
22 0.14
3 0.31
30 0.15
31 0.15
32 0.37
37 0.15
38 0.15
39 0.15
4 -0.71
40 0.15
41 0.15
42 0.15
43 0.15
5 0.06
7 0.14
8 0.14
9 0.57

> <PUBCHEM_EFFECTIVE_ROTOR_COUNT>
6.8

> <PUBCHEM_PHARMACOPHORE_FEATURES>
6
1 1 acceptor
1 2 donor
1 4 acceptor
5 3 4 20 21 22 rings
6 13 14 16 17 18 19 rings
6 5 6 7 8 10 11 rings

> <PUBCHEM_HEAVY_ATOM_COUNT>
22

> <PUBCHEM_ATOM_DEF_STEREO_COUNT>
0

> <PUBCHEM_ATOM_UDEF_STEREO_COUNT>
1

> <PUBCHEM_BOND_DEF_STEREO_COUNT>
0

> <PUBCHEM_BOND_UDEF_STEREO_COUNT>
0

> <PUBCHEM_ISOTOPIC_ATOM_COUNT>
0

> <PUBCHEM_COMPONENT_COUNT>
1

> <PUBCHEM_CACTVS_TAUTO_COUNT>
2

> <PUBCHEM_CONFORMER_ID>
0109737400000007

> <PUBCHEM_MMFF94_ENERGY>
34.0181

> <PUBCHEM_FEATURE_SELFOVERLAP>
30.446

> <PUBCHEM_SHAPE_FINGERPRINT>
10498660 4 18342746233899632766
10730089 88 18261659476455734542
10871710 139 18200869690416690533
12054548 360 18334857233986511650
12166972 35 17489300837517514222
12553582 1 18342462538720138571
12670546 177 18259979401313915462
12788726 201 18200038472384516577
14251751 93 18124874814127861510
14347332 77 18267024045311949302
14790565 3 17977384164121072633
14910302 57 17896031225656076574
14955137 171 18265594564505361609
15210252 30 17775008955496376732
15475509 8 18334015025813340597
15849732 13 18335687383068117137
17357779 13 18336276655926393077
17492 54 18130509638978338485
20775438 99 17397010971214600791
21623110 236 18338504241026277936
23402539 116 18410012130768501526
23557571 272 18259978305975532966
23559900 14 18041570160529183771
26353 1 17775008955375356493
3286 77 16950569873854925626
4028521 119 18201156636891351950
4280585 95 18341061722357277456
465052 167 4822642258614288527

> <PUBCHEM_SHAPE_MULTIPOLES>
431.94
9.33
3.28
1.37
6.32
2.26
0.25
-4.97
-4.07
-1.25
-0.76
0.03
-0.06
-0.25

> <PUBCHEM_SHAPE_SELFOVERLAP>
918.197

> <PUBCHEM_SHAPE_VOLUME>
239.5

> <PUBCHEM_COORDINATE_TYPE>
2
5
10

$$$$

