7873
  -OEChem-07051213133D

 37 36  0     0  0  0  0  0  0999 V2000
    1.3468   -0.5918   -0.5292 P   0  0  0  0  0  0  0  0  0  0  0  0
   -1.3470    0.5917   -0.5296 P   0  0  0  0  0  0  0  0  0  0  0  0
   -0.0001    0.0001    0.1422 O   0  0  0  0  0  0  0  0  0  0  0  0
    2.0033    0.6816   -1.2852 O   0  0  0  0  0  0  0  0  0  0  0  0
    2.3096   -0.8526    0.7463 O   0  0  0  0  0  0  0  0  0  0  0  0
   -2.0031   -0.6821   -1.2850 O   0  0  0  0  0  0  0  0  0  0  0  0
   -2.3097    0.8530    0.7461 O   0  0  0  0  0  0  0  0  0  0  0  0
    1.1245   -1.7892   -1.4082 O   0  0  0  0  0  0  0  0  0  0  0  0
   -1.1243    1.7885   -1.4091 O   0  0  0  0  0  0  0  0  0  0  0  0
    2.2648    1.8761   -0.5685 C   0  0  0  0  0  0  0  0  0  0  0  0
    1.9214   -1.8306    1.6956 C   0  0  0  0  0  0  0  0  0  0  0  0
   -2.2651   -1.8763   -0.5679 C   0  0  0  0  0  0  0  0  0  0  0  0
   -1.9213    1.8312    1.6951 C   0  0  0  0  0  0  0  0  0  0  0  0
    2.8731    2.8931   -1.5105 C   0  0  0  0  0  0  0  0  0  0  0  0
    2.9661   -1.8984    2.7891 C   0  0  0  0  0  0  0  0  0  0  0  0
   -2.8730   -2.8938   -1.5098 C   0  0  0  0  0  0  0  0  0  0  0  0
   -2.9661    1.8994    2.7886 C   0  0  0  0  0  0  0  0  0  0  0  0
    1.3352    2.2655   -0.1442 H   0  0  0  0  0  0  0  0  0  0  0  0
    2.9606    1.6630    0.2487 H   0  0  0  0  0  0  0  0  0  0  0  0
    0.9496   -1.5602    2.1200 H   0  0  0  0  0  0  0  0  0  0  0  0
    1.8311   -2.8006    1.1971 H   0  0  0  0  0  0  0  0  0  0  0  0
   -1.3357   -2.2656   -0.1429 H   0  0  0  0  0  0  0  0  0  0  0  0
   -2.9612   -1.6630    0.2489 H   0  0  0  0  0  0  0  0  0  0  0  0
   -0.9494    1.5609    2.1196 H   0  0  0  0  0  0  0  0  0  0  0  0
   -1.8310    2.8012    1.1964 H   0  0  0  0  0  0  0  0  0  0  0  0
    3.7996    2.5075   -1.9488 H   0  0  0  0  0  0  0  0  0  0  0  0
    2.1916    3.1041   -2.3412 H   0  0  0  0  0  0  0  0  0  0  0  0
    3.0923    3.8281   -0.9875 H   0  0  0  0  0  0  0  0  0  0  0  0
    3.9456   -2.1533    2.3712 H   0  0  0  0  0  0  0  0  0  0  0  0
    3.0732   -0.9258    3.2806 H   0  0  0  0  0  0  0  0  0  0  0  0
    2.6973   -2.6461    3.5404 H   0  0  0  0  0  0  0  0  0  0  0  0
   -3.7991   -2.5083   -1.9486 H   0  0  0  0  0  0  0  0  0  0  0  0
   -2.1911   -3.1052   -2.3401 H   0  0  0  0  0  0  0  0  0  0  0  0
   -3.0924   -3.8286   -0.9865 H   0  0  0  0  0  0  0  0  0  0  0  0
   -3.9455    2.1542    2.3707 H   0  0  0  0  0  0  0  0  0  0  0  0
   -3.0732    0.9269    3.2803 H   0  0  0  0  0  0  0  0  0  0  0  0
   -2.6972    2.6472    3.5398 H   0  0  0  0  0  0  0  0  0  0  0  0
  1  3  1  0  0  0  0
  1  4  1  0  0  0  0
  1  5  1  0  0  0  0
  1  8  2  0  0  0  0
  2  3  1  0  0  0  0
  2  6  1  0  0  0  0
  2  7  1  0  0  0  0
  2  9  2  0  0  0  0
  4 10  1  0  0  0  0
  5 11  1  0  0  0  0
  6 12  1  0  0  0  0
  7 13  1  0  0  0  0
 10 14  1  0  0  0  0
 10 18  1  0  0  0  0
 10 19  1  0  0  0  0
 11 15  1  0  0  0  0
 11 20  1  0  0  0  0
 11 21  1  0  0  0  0
 12 16  1  0  0  0  0
 12 22  1  0  0  0  0
 12 23  1  0  0  0  0
 13 17  1  0  0  0  0
 13 24  1  0  0  0  0
 13 25  1  0  0  0  0
 14 26  1  0  0  0  0
 14 27  1  0  0  0  0
 14 28  1  0  0  0  0
 15 29  1  0  0  0  0
 15 30  1  0  0  0  0
 15 31  1  0  0  0  0
 16 32  1  0  0  0  0
 16 33  1  0  0  0  0
 16 34  1  0  0  0  0
 17 35  1  0  0  0  0
 17 36  1  0  0  0  0
 17 37  1  0  0  0  0
M  END
> <PUBCHEM_COMPOUND_CID>
7873

> <PUBCHEM_CONFORMER_RMSD>
0.8

> <PUBCHEM_CONFORMER_DIVERSEORDER>
1
161
75
37
29
119
101
167
220
210
4
157
98
71
198
121
6
124
109
3
34
12
153
190
118
57
45
15
32
175
236
237
158
129
65
105
39
189
223
192
178
141
199
35
149
92
205
47
63
60
145
238
164
76
147
174
186
104
103
85
17
152
96
172
117
247
91
150
20
2
30
123
134
188
108
171
70
204
77
50
228
214
213
74
58
212
235
67
114
240
219
182
196
46
40
227
179
165
31
239
202
195
246
187
215
56
194
97
82
170
112
83
106
89
207
116
44
200
25
233
241
132
211
140
151
22
130
146
7
69
163
113
243
27
38
53
201
133
245
72
48
23
26
102
139
232
131
10
111
156
94
229
81
90
176
155
84
21
125
59
166
160
66
49
183
126
115
197
193
128
54
226
42
218
33
169
62
16
209
224
73
24
180
136
127
5
110
51
159
142
120
19
43
154
231
68
41
87
137
79
9
55
191
13
11
135
36
206
144
148
14
99
203
181
216
18
80
184
61
222
138
221
244
28
122
95
242
168
208
86
162
107
217
234
88
185
230
177
100
173
8
93
225
78
143
52
64

> <PUBCHEM_MMFF94_PARTIAL_CHARGES>
13
1 1.51
10 0.28
11 0.28
12 0.28
13 0.28
2 1.51
3 -0.54
4 -0.55
5 -0.55
6 -0.55
7 -0.55
8 -0.7
9 -0.7

> <PUBCHEM_EFFECTIVE_ROTOR_COUNT>
10

> <PUBCHEM_PHARMACOPHORE_FEATURES>
2
1 8 acceptor
1 9 acceptor

> <PUBCHEM_HEAVY_ATOM_COUNT>
17

> <PUBCHEM_ATOM_DEF_STEREO_COUNT>
0

> <PUBCHEM_ATOM_UDEF_STEREO_COUNT>
0

> <PUBCHEM_BOND_DEF_STEREO_COUNT>
0

> <PUBCHEM_BOND_UDEF_STEREO_COUNT>
0

> <PUBCHEM_ISOTOPIC_ATOM_COUNT>
0

> <PUBCHEM_COMPONENT_COUNT>
1

> <PUBCHEM_CACTVS_TAUTO_COUNT>
1

> <PUBCHEM_CONFORMER_ID>
00001EC100000001

> <PUBCHEM_MMFF94_ENERGY>
5.0201

> <PUBCHEM_FEATURE_SELFOVERLAP>
10.149

> <PUBCHEM_SHAPE_FINGERPRINT>
14787075 74 17186435742329697631
15852999 172 17610657419003853735
20082192 1 18337111283972702693
20645476 183 17606091095827202669
21524375 3 18126000460811098988
23419403 2 17037326770436214183
23557571 272 17603883181873063191
23598294 1 17823682102101469755
2748010 2 17402050496511869479
31174 14 17702359914154321249
621550 5 15360478027617172799
6992083 37 18052840313780931178
81228 2 17675930915156468987

> <PUBCHEM_SHAPE_MULTIPOLES>
316.47
5.22
3.5
2.74
0
0
-2.23
0
-0.91
0
0.03
0
0
-4.8

> <PUBCHEM_SHAPE_SELFOVERLAP>
556.779

> <PUBCHEM_SHAPE_VOLUME>
207.9

> <PUBCHEM_COORDINATE_TYPE>
2
5
10

$$$$

