86160
  -OEChem-07051213013D

 56 57  0     1  0  0  0  0  0999 V2000
    0.0142    0.1029   -0.1002 O   0  0  0  0  0  0  0  0  0  0  0  0
   -0.0756    1.8433    1.4732 O   0  0  0  0  0  0  0  0  0  0  0  0
   -3.6911    0.1712   -0.2656 N   0  0  2  0  0  0  0  0  0  0  0  0
    3.5916    0.1028    0.1973 C   0  0  0  0  0  0  0  0  0  0  0  0
    0.7992    0.9619    0.7476 C   0  0  0  0  0  0  0  0  0  0  0  0
    2.8061    0.9577   -0.8065 C   0  0  0  0  0  0  0  0  0  0  0  0
    2.6454   -0.7552    1.0481 C   0  0  0  0  0  0  0  0  0  0  0  0
    4.6121   -0.7749   -0.5248 C   0  0  0  0  0  0  0  0  0  0  0  0
    1.7439    1.8074   -0.1107 C   0  0  0  0  0  0  0  0  0  0  0  0
    1.5817    0.0968    1.7395 C   0  0  0  0  0  0  0  0  0  0  0  0
   -1.2942    0.6787   -0.0902 C   0  0  2  0  0  0  0  0  0  0  0  0
   -1.3811    1.2974    1.2828 C   0  0  0  0  0  0  0  0  0  0  0  0
    5.4161   -1.5895    0.5025 C   0  0  0  0  0  0  0  0  0  0  0  0
    3.8861   -1.7391   -1.4782 C   0  0  0  0  0  0  0  0  0  0  0  0
    5.5755    0.1080   -1.3356 C   0  0  0  0  0  0  0  0  0  0  0  0
   -2.3427   -0.3804   -0.3550 C   0  0  0  0  0  0  0  0  0  0  0  0
   -4.6903   -0.8792   -0.4658 C   0  0  0  0  0  0  0  0  0  0  0  0
   -3.8745    1.2417   -1.2463 C   0  0  0  0  0  0  0  0  0  0  0  0
   -4.5170   -1.9809    0.5765 C   0  0  0  0  0  0  0  0  0  0  0  0
   -5.2744    1.8264   -1.1656 C   0  0  0  0  0  0  0  0  0  0  0  0
   -5.5312   -3.0967    0.3769 C   0  0  0  0  0  0  0  0  0  0  0  0
    4.1219    0.7871    0.8754 H   0  0  0  0  0  0  0  0  0  0  0  0
    3.4651    1.6461   -1.3450 H   0  0  0  0  0  0  0  0  0  0  0  0
    2.2916    0.3493   -1.5554 H   0  0  0  0  0  0  0  0  0  0  0  0
    2.1189   -1.5061    0.4526 H   0  0  0  0  0  0  0  0  0  0  0  0
    3.1895   -1.2884    1.8341 H   0  0  0  0  0  0  0  0  0  0  0  0
    1.1714    2.3556   -0.8693 H   0  0  0  0  0  0  0  0  0  0  0  0
    2.2289    2.5690    0.5137 H   0  0  0  0  0  0  0  0  0  0  0  0
    2.0531    0.7367    2.4965 H   0  0  0  0  0  0  0  0  0  0  0  0
    0.8940   -0.5633    2.2830 H   0  0  0  0  0  0  0  0  0  0  0  0
   -1.2689    1.4486   -0.8689 H   0  0  0  0  0  0  0  0  0  0  0  0
   -1.5536    0.5548    2.0700 H   0  0  0  0  0  0  0  0  0  0  0  0
   -2.1331    2.0866    1.3623 H   0  0  0  0  0  0  0  0  0  0  0  0
    4.8217   -2.3771    0.9763 H   0  0  0  0  0  0  0  0  0  0  0  0
    6.2611   -2.0955    0.0199 H   0  0  0  0  0  0  0  0  0  0  0  0
    5.8284   -0.9463    1.2879 H   0  0  0  0  0  0  0  0  0  0  0  0
    3.3318   -1.2377   -2.2753 H   0  0  0  0  0  0  0  0  0  0  0  0
    3.2196   -2.4418   -0.9723 H   0  0  0  0  0  0  0  0  0  0  0  0
    4.6292   -2.3643   -1.9918 H   0  0  0  0  0  0  0  0  0  0  0  0
    6.0021    0.9059   -0.7176 H   0  0  0  0  0  0  0  0  0  0  0  0
    6.4124   -0.4859   -1.7227 H   0  0  0  0  0  0  0  0  0  0  0  0
    5.0979    0.5637   -2.2087 H   0  0  0  0  0  0  0  0  0  0  0  0
   -2.1524   -1.1568    0.3912 H   0  0  0  0  0  0  0  0  0  0  0  0
   -2.1564   -0.8484   -1.3313 H   0  0  0  0  0  0  0  0  0  0  0  0
   -5.7062   -0.4928   -0.3335 H   0  0  0  0  0  0  0  0  0  0  0  0
   -4.6242   -1.3034   -1.4763 H   0  0  0  0  0  0  0  0  0  0  0  0
   -3.2030    2.0805   -1.0411 H   0  0  0  0  0  0  0  0  0  0  0  0
   -3.6764    0.8996   -2.2699 H   0  0  0  0  0  0  0  0  0  0  0  0
   -4.6194   -1.5714    1.5886 H   0  0  0  0  0  0  0  0  0  0  0  0
   -3.5451   -2.4761    0.5134 H   0  0  0  0  0  0  0  0  0  0  0  0
   -6.0286    1.1732   -1.6152 H   0  0  0  0  0  0  0  0  0  0  0  0
   -5.5636    2.0515   -0.1332 H   0  0  0  0  0  0  0  0  0  0  0  0
   -5.3097    2.7686   -1.7247 H   0  0  0  0  0  0  0  0  0  0  0  0
   -5.3919   -3.8768    1.1321 H   0  0  0  0  0  0  0  0  0  0  0  0
   -5.4215   -3.5567   -0.6106 H   0  0  0  0  0  0  0  0  0  0  0  0
   -6.5542   -2.7176    0.4678 H   0  0  0  0  0  0  0  0  0  0  0  0
  1  5  1  0  0  0  0
  1 11  1  0  0  0  0
  2  5  1  0  0  0  0
  2 12  1  0  0  0  0
  3 16  1  0  0  0  0
  3 17  1  0  0  0  0
  3 18  1  0  0  0  0
  4  6  1  0  0  0  0
  4  7  1  0  0  0  0
  4  8  1  0  0  0  0
  4 22  1  0  0  0  0
  5  9  1  0  0  0  0
  5 10  1  0  0  0  0
  6  9  1  0  0  0  0
  6 23  1  0  0  0  0
  6 24  1  0  0  0  0
  7 10  1  0  0  0  0
  7 25  1  0  0  0  0
  7 26  1  0  0  0  0
  8 13  1  0  0  0  0
  8 14  1  0  0  0  0
  8 15  1  0  0  0  0
  9 27  1  0  0  0  0
  9 28  1  0  0  0  0
 10 29  1  0  0  0  0
 10 30  1  0  0  0  0
 11 12  1  0  0  0  0
 11 16  1  0  0  0  0
 11 31  1  0  0  0  0
 12 32  1  0  0  0  0
 12 33  1  0  0  0  0
 13 34  1  0  0  0  0
 13 35  1  0  0  0  0
 13 36  1  0  0  0  0
 14 37  1  0  0  0  0
 14 38  1  0  0  0  0
 14 39  1  0  0  0  0
 15 40  1  0  0  0  0
 15 41  1  0  0  0  0
 15 42  1  0  0  0  0
 16 43  1  0  0  0  0
 16 44  1  0  0  0  0
 17 19  1  0  0  0  0
 17 45  1  0  0  0  0
 17 46  1  0  0  0  0
 18 20  1  0  0  0  0
 18 47  1  0  0  0  0
 18 48  1  0  0  0  0
 19 21  1  0  0  0  0
 19 49  1  0  0  0  0
 19 50  1  0  0  0  0
 20 51  1  0  0  0  0
 20 52  1  0  0  0  0
 20 53  1  0  0  0  0
 21 54  1  0  0  0  0
 21 55  1  0  0  0  0
 21 56  1  0  0  0  0
M  END
> <PUBCHEM_COMPOUND_CID>
86160

> <PUBCHEM_CONFORMER_RMSD>
0.8

> <PUBCHEM_CONFORMER_DIVERSEORDER>
1
31
47
28
51
44
15
64
85
25
48
8
53
58
27
80
65
49
39
75
68
16
40
45
70
14
22
36
42
81
72
59
7
9
30
24
38
43
4
37
41
32
46
17
21
82
26
79
67
52
84
20
13
19
78
33
34
23
86
74
18
3
29
35
5
50
55
71
60
62
11
76
57
69
12
63
83
54
61
77
56
73
6
10
2
66

> <PUBCHEM_MMFF94_PARTIAL_CHARGES>
9
1 -0.56
11 0.28
12 0.28
16 0.27
17 0.27
18 0.27
2 -0.56
3 -0.81
5 0.56

> <PUBCHEM_EFFECTIVE_ROTOR_COUNT>
7.8

> <PUBCHEM_PHARMACOPHORE_FEATURES>
7
1 1 acceptor
1 2 acceptor
1 21 hydrophobe
1 3 cation
4 8 13 14 15 hydrophobe
5 1 2 5 11 12 rings
6 4 5 6 7 9 10 rings

> <PUBCHEM_HEAVY_ATOM_COUNT>
21

> <PUBCHEM_ATOM_DEF_STEREO_COUNT>
0

> <PUBCHEM_ATOM_UDEF_STEREO_COUNT>
1

> <PUBCHEM_BOND_DEF_STEREO_COUNT>
0

> <PUBCHEM_BOND_UDEF_STEREO_COUNT>
0

> <PUBCHEM_ISOTOPIC_ATOM_COUNT>
0

> <PUBCHEM_COMPONENT_COUNT>
1

> <PUBCHEM_CACTVS_TAUTO_COUNT>
1

> <PUBCHEM_CONFORMER_ID>
0001509000000001

> <PUBCHEM_MMFF94_ENERGY>
53.4864

> <PUBCHEM_FEATURE_SELFOVERLAP>
35.571

> <PUBCHEM_SHAPE_FINGERPRINT>
10670039 82 12966854597721595470
11543360 7 17847064359148202473
11545043 162 18333455331002082811
11796584 16 18410578426221780631
11961588 58 15625938669462559546
12553582 1 17022894631959471076
12623949 98 17901934254704596247
12633257 1 14490193795228306363
12730499 353 15625933309095935400
12892183 10 7565343141349296741
12969540 114 13686297980619643953
13103583 49 15285353999040069415
13544653 18 17313105293298920488
13673619 4 18339635626112318187
13675066 3 18187377493048227641
13690498 29 18272370837472054007
13760787 19 17989213680837261865
13955234 65 17678462957070179816
14123255 352 10663822966224292867
1420 369 17894907429903153534
14251732 14 18335688417611753886
14251751 18 18411981338660882175
14251764 30 18268423530646587043
14576447 43 18343018883251410674
15183329 4 18200597019822204533
15188451 53 5616955743461339077
15510800 12 17823409569368853478
15788980 27 18040442087722492533
17844677 252 18343861100399735789
1813 80 16805595958639763416
18222031 100 16370732543223814912
193927 3 18040991851994316126
200 152 18410292527671302784
20645477 70 18335980883378132748
20871999 31 17775564217384173035
21033648 144 13829832575016868566
21054139 6 18060422400333091850
21065198 48 6411293533400982556
21315764 119 18057324100592303287
21623969 137 17894627041653733654
21713013 43 18273221872134886117
2215653 11 18041852804285735605
22393880 68 18202290199209611819
22950370 63 18334285436363582931
231179 274 11672063047383717020
23227448 37 12319154201498648490
23379529 103 18055344739709088427
23402655 69 17417818399640430701
23503953 91 5400809388296768323
23559900 14 18335431153017985897
2838139 119 15339120147898097214
2871803 45 17968942015036661590
3004659 81 18411136952917751172
314173 85 17022906769679383400
314194 84 17385447617809001462
33382 64 18335129856714248739
3737641 26 16733808926330450046
4047638 21 13758067537408851520
439807 62 18272368655444427987
44062 13 18412269441341537463
46194498 28 18199183997088253804
465052 167 18041834013308248623
4990 188 18343865519667557340
5104073 3 18040151812067642705
633830 44 14548189834365204745
7970288 3 18334293171442336782
8217 86 18199743653139583179
8863177 126 18190740821829925179

> <PUBCHEM_SHAPE_MULTIPOLES>
415.45
13.78
2.38
1.44
3.71
1.15
0.14
7.26
-4.68
3.26
0.05
-0.66
-0.24
1.2

> <PUBCHEM_SHAPE_SELFOVERLAP>
829.736

> <PUBCHEM_SHAPE_VOLUME>
246.9

> <PUBCHEM_COORDINATE_TYPE>
2
5
10

$$$$

