442966
  -OEChem-07051213003D

 58 62  0     1  0  0  0  0  0999 V2000
    1.9204   -0.9627    0.5812 N   0  0  1  0  0  0  0  0  0  0  0  0
   -2.0307    1.8918   -0.1679 N   0  0  0  0  0  0  0  0  0  0  0  0
   -1.5789   -2.1843   -0.9812 N   0  0  0  0  0  0  0  0  0  0  0  0
   -0.5401   -0.1316   -0.1132 C   0  0  1  0  0  0  0  0  0  0  0  0
   -0.8436    1.3339    0.5239 C   0  0  1  0  0  0  0  0  0  0  0  0
    1.4673    0.7646   -1.1000 C   0  0  2  0  0  0  0  0  0  0  0  0
    0.1287    0.1100   -1.4662 C   0  0  0  0  0  0  0  0  0  0  0  0
    0.3363    2.3991    0.4521 C   0  0  1  0  0  0  0  0  0  0  0  0
    2.4237   -0.3884   -0.7169 C   0  0  1  0  0  0  0  0  0  0  0  0
    0.4442   -1.1299    0.6784 C   0  0  0  0  0  0  0  0  0  0  0  0
    1.2164    2.2692   -0.8689 C   0  0  0  0  0  0  0  0  0  0  0  0
   -1.8646   -0.9139   -0.3028 C   0  0  2  0  0  0  0  0  0  0  0  0
   -0.0809    3.8480    0.7330 C   0  0  0  0  0  0  0  0  0  0  0  0
    3.8775    0.0629   -0.5529 C   0  0  0  0  0  0  0  0  0  0  0  0
   -2.5424   -1.1605    1.0521 C   0  0  0  0  0  0  0  0  0  0  0  0
    2.6871   -2.1305    1.0018 C   0  0  0  0  0  0  0  0  0  0  0  0
   -1.3737    4.2344    0.0401 C   0  0  0  0  0  0  0  0  0  0  0  0
   -2.4440    3.1961    0.3310 C   0  0  0  0  0  0  0  0  0  0  0  0
    4.7446   -1.1078   -0.0895 C   0  0  0  0  0  0  0  0  0  0  0  0
    4.1651   -1.7616    1.1650 C   0  0  0  0  0  0  0  0  0  0  0  0
   -3.8069   -2.0004    0.8930 C   0  0  0  0  0  0  0  0  0  0  0  0
   -2.7970   -2.9636   -1.2033 C   0  0  0  0  0  0  0  0  0  0  0  0
   -3.5085   -3.2750    0.1111 C   0  0  0  0  0  0  0  0  0  0  0  0
   -1.0914    1.1975    1.5843 H   0  0  0  0  0  0  0  0  0  0  0  0
    1.8969    0.9095   -2.1123 H   0  0  0  0  0  0  0  0  0  0  0  0
   -0.4793    0.7545   -2.1136 H   0  0  0  0  0  0  0  0  0  0  0  0
    0.2849   -0.8138   -2.0367 H   0  0  0  0  0  0  0  0  0  0  0  0
    1.0268    2.1164    1.2615 H   0  0  0  0  0  0  0  0  0  0  0  0
    2.3861   -1.1772   -1.4825 H   0  0  0  0  0  0  0  0  0  0  0  0
    0.2082   -1.0207    1.7447 H   0  0  0  0  0  0  0  0  0  0  0  0
    0.2920   -2.1793    0.4587 H   0  0  0  0  0  0  0  0  0  0  0  0
    0.6850    2.7259   -1.7126 H   0  0  0  0  0  0  0  0  0  0  0  0
    2.1645    2.8016   -0.7346 H   0  0  0  0  0  0  0  0  0  0  0  0
   -2.5414   -0.3767   -0.9759 H   0  0  0  0  0  0  0  0  0  0  0  0
    0.7199    4.5431    0.4559 H   0  0  0  0  0  0  0  0  0  0  0  0
   -0.2246    3.9595    1.8160 H   0  0  0  0  0  0  0  0  0  0  0  0
    3.9410    0.8782    0.1791 H   0  0  0  0  0  0  0  0  0  0  0  0
    4.2634    0.4517   -1.5022 H   0  0  0  0  0  0  0  0  0  0  0  0
   -2.8288    1.2755   -0.0352 H   0  0  0  0  0  0  0  0  0  0  0  0
   -2.8221   -0.2262    1.5474 H   0  0  0  0  0  0  0  0  0  0  0  0
   -1.8794   -1.6936    1.7427 H   0  0  0  0  0  0  0  0  0  0  0  0
    2.5820   -2.9468    0.2763 H   0  0  0  0  0  0  0  0  0  0  0  0
    2.3184   -2.4991    1.9664 H   0  0  0  0  0  0  0  0  0  0  0  0
   -1.7031    5.2190    0.3906 H   0  0  0  0  0  0  0  0  0  0  0  0
   -1.2105    4.3177   -1.0414 H   0  0  0  0  0  0  0  0  0  0  0  0
   -2.6691    3.1494    1.4033 H   0  0  0  0  0  0  0  0  0  0  0  0
   -3.3688    3.4907   -0.1774 H   0  0  0  0  0  0  0  0  0  0  0  0
   -0.9920   -2.7963   -0.4278 H   0  0  0  0  0  0  0  0  0  0  0  0
    5.7647   -0.7608    0.1083 H   0  0  0  0  0  0  0  0  0  0  0  0
    4.8085   -1.8539   -0.8912 H   0  0  0  0  0  0  0  0  0  0  0  0
    4.7430   -2.6597    1.4110 H   0  0  0  0  0  0  0  0  0  0  0  0
    4.2751   -1.0715    2.0117 H   0  0  0  0  0  0  0  0  0  0  0  0
   -4.5694   -1.4158    0.3636 H   0  0  0  0  0  0  0  0  0  0  0  0
   -4.2192   -2.2512    1.8766 H   0  0  0  0  0  0  0  0  0  0  0  0
   -2.5339   -3.9002   -1.7074 H   0  0  0  0  0  0  0  0  0  0  0  0
   -3.4678   -2.4224   -1.8815 H   0  0  0  0  0  0  0  0  0  0  0  0
   -2.8833   -3.9397    0.7208 H   0  0  0  0  0  0  0  0  0  0  0  0
   -4.4422   -3.8118   -0.0909 H   0  0  0  0  0  0  0  0  0  0  0  0
  1  9  1  0  0  0  0
  1 10  1  0  0  0  0
  1 16  1  0  0  0  0
  2  5  1  0  0  0  0
  2 18  1  0  0  0  0
  2 39  1  0  0  0  0
  3 12  1  0  0  0  0
  3 22  1  0  0  0  0
  3 48  1  0  0  0  0
  4  5  1  0  0  0  0
  4  7  1  0  0  0  0
  4 10  1  0  0  0  0
  4 12  1  0  0  0  0
  5  8  1  0  0  0  0
  5 24  1  0  0  0  0
  6  7  1  0  0  0  0
  6  9  1  0  0  0  0
  6 11  1  0  0  0  0
  6 25  1  0  0  0  0
  7 26  1  0  0  0  0
  7 27  1  0  0  0  0
  8 11  1  0  0  0  0
  8 13  1  0  0  0  0
  8 28  1  0  0  0  0
  9 14  1  0  0  0  0
  9 29  1  0  0  0  0
 10 30  1  0  0  0  0
 10 31  1  0  0  0  0
 11 32  1  0  0  0  0
 11 33  1  0  0  0  0
 12 15  1  0  0  0  0
 12 34  1  0  0  0  0
 13 17  1  0  0  0  0
 13 35  1  0  0  0  0
 13 36  1  0  0  0  0
 14 19  1  0  0  0  0
 14 37  1  0  0  0  0
 14 38  1  0  0  0  0
 15 21  1  0  0  0  0
 15 40  1  0  0  0  0
 15 41  1  0  0  0  0
 16 20  1  0  0  0  0
 16 42  1  0  0  0  0
 16 43  1  0  0  0  0
 17 18  1  0  0  0  0
 17 44  1  0  0  0  0
 17 45  1  0  0  0  0
 18 46  1  0  0  0  0
 18 47  1  0  0  0  0
 19 20  1  0  0  0  0
 19 49  1  0  0  0  0
 19 50  1  0  0  0  0
 20 51  1  0  0  0  0
 20 52  1  0  0  0  0
 21 23  1  0  0  0  0
 21 53  1  0  0  0  0
 21 54  1  0  0  0  0
 22 23  1  0  0  0  0
 22 55  1  0  0  0  0
 22 56  1  0  0  0  0
 23 57  1  0  0  0  0
 23 58  1  0  0  0  0
M  END
> <PUBCHEM_COMPOUND_CID>
442966

> <PUBCHEM_CONFORMER_RMSD>
0.8

> <PUBCHEM_CONFORMER_DIVERSEORDER>
1
2

> <PUBCHEM_MMFF94_PARTIAL_CHARGES>
12
1 -0.81
10 0.27
12 0.27
16 0.27
18 0.27
2 -0.9
22 0.27
3 -0.9
39 0.36
48 0.36
5 0.27
9 0.27

> <PUBCHEM_EFFECTIVE_ROTOR_COUNT>
4.4

> <PUBCHEM_PHARMACOPHORE_FEATURES>
10
1 1 cation
1 2 cation
1 2 donor
1 3 cation
1 3 donor
6 1 4 6 7 9 10 rings
6 1 9 14 16 19 20 rings
6 2 5 8 13 17 18 rings
6 3 12 15 21 22 23 rings
6 4 5 6 7 8 11 rings

> <PUBCHEM_HEAVY_ATOM_COUNT>
23

> <PUBCHEM_ATOM_DEF_STEREO_COUNT>
6

> <PUBCHEM_ATOM_UDEF_STEREO_COUNT>
0

> <PUBCHEM_BOND_DEF_STEREO_COUNT>
0

> <PUBCHEM_BOND_UDEF_STEREO_COUNT>
0

> <PUBCHEM_ISOTOPIC_ATOM_COUNT>
0

> <PUBCHEM_COMPONENT_COUNT>
1

> <PUBCHEM_CACTVS_TAUTO_COUNT>
1

> <PUBCHEM_CONFORMER_ID>
0006C25600000001

> <PUBCHEM_MMFF94_ENERGY>
84.692

> <PUBCHEM_FEATURE_SELFOVERLAP>
51.674

> <PUBCHEM_SHAPE_FINGERPRINT>
10090160 65 17546176654335944101
10411042 1 18337952277282610614
1100329 8 18411698820307870289
11370993 70 17617664696897071496
11578080 2 18058187041353542309
12173636 292 17903652009335390156
12553582 1 18337673009966699326
12788726 201 18341315765014066530
12839892 36 17547580730541877641
13004483 165 18411429422457273835
13052359 8 18195809785097551541
13134695 92 18194967335857501399
13140716 1 18409443691551606921
13538477 17 18269554021672417716
13583140 156 17605013553479547890
138480 1 15672666178159935649
13955234 65 17617938033211553787
14081887 123 18336842973614125304
14178342 30 18196951065715051562
14787075 74 18125717882059227244
14790565 3 17402319383346818677
14844126 61 18339089288491297210
15042514 8 18338229491614249195
15230672 131 17473813405310193958
15375462 189 18269267972023196054
15906896 17 18118978119966257983
16728300 4 17341814783171958241
16945 1 18120084233228078772
17980427 26 17470453928433074789
1813 80 18189044318079275694
20028762 73 17471587988956887173
20600515 1 17750212782193501657
20905425 154 18262511477697880428
21041028 32 18341044134239463979
21421861 104 18269553836445687384
21452121 199 18267595610684228280
21731228 192 17617659199286094224
22112679 90 18263061267517539563
2255824 54 17615116694668754615
23184049 29 18410009901332159484
23366157 5 17762898762813508069
23419403 2 16977931126396865368
23557571 272 18188771772808733838
23598288 3 18339079396996958790
23728640 28 18194686096829522915
25147074 1 17916577774175526398
266924 1 18129076992966223636
3091708 16 9422353409392214121
3178227 256 18340196506229437865
352729 6 18193265527975579029
392239 28 18339648833073346352
4058900 60 17332517974436652949
4409770 3 18340205310263242637
474 4 17038942846586866073
633830 44 17109302811819605485
7364860 26 17904201425472464846
7471813 234 18337680689283400030
81228 2 18124341516143179770
90316 7 18335412465778375907
9981440 41 17618223248756788857

> <PUBCHEM_SHAPE_MULTIPOLES>
458.39
6.59
5.06
1.21
4.34
4.58
-0.12
-6.72
0.91
-4.44
0.62
0.12
-0.38
-1.08

> <PUBCHEM_SHAPE_SELFOVERLAP>
959.624

> <PUBCHEM_SHAPE_VOLUME>
250.3

> <PUBCHEM_COORDINATE_TYPE>
2
5
10

$$$$

