5281510
  -OEChem-07051212572D

 56 58  0     1  0  0  0  0  0999 V2000
    6.2132   -2.1112    0.0000 O   0  0  0  0  0  0  0  0  0  0  0  0
    6.5493    1.4282    0.0000 O   0  0  0  0  0  0  0  0  0  0  0  0
    3.5436    2.0637    0.0000 O   0  0  0  0  0  0  0  0  0  0  0  0
    2.6581   -2.0755    0.0000 O   0  0  0  0  0  0  0  0  0  0  0  0
    4.1784    3.7227    0.0000 O   0  0  0  0  0  0  0  0  0  0  0  0
    7.7082    0.1410    0.0000 O   0  0  0  0  0  0  0  0  0  0  0  0
    3.8171   -3.3626    0.0000 O   0  0  0  0  0  0  0  0  0  0  0  0
    6.0050   -1.1327    0.0000 C   0  0  1  0  0  0  0  0  0  0  0  0
    5.2618   -1.8018    0.0000 C   0  0  1  0  0  0  0  0  0  0  0  0
    6.2129   -0.1545    0.0000 C   0  0  0  0  0  0  0  0  0  0  0  0
    4.2673   -1.9063    0.0000 C   0  0  0  0  0  0  0  0  0  0  0  0
    5.8061    0.7590    0.0000 C   0  0  2  0  0  0  0  0  0  0  0  0
    6.7481   -0.4635    0.0000 C   0  0  0  0  0  0  0  0  0  0  0  0
    4.9401    1.2590    0.0000 C   0  0  2  0  0  0  0  0  0  0  0  0
    3.4013   -1.4063    0.0000 C   0  0  1  0  0  0  0  0  0  0  0  0
    3.9456    1.1545    0.0000 C   0  0  1  0  0  0  0  0  0  0  0  0
    2.9945   -0.4928    0.0000 C   0  0  0  0  0  0  0  0  0  0  0  0
    5.1443    2.2319    0.0000 C   0  0  0  0  0  0  0  0  0  0  0  0
    3.2024    0.4854    0.0000 C   0  0  0  0  0  0  0  0  0  0  0  0
    4.2829    2.7282    0.0000 C   0  0  0  0  0  0  0  0  0  0  0  0
    2.0000   -0.5973    0.0000 C   0  0  0  0  0  0  0  0  0  0  0  0
    7.5003    1.1191    0.0000 C   0  0  0  0  0  0  0  0  0  0  0  0
    6.0571    2.6402    0.0000 C   0  0  0  0  0  0  0  0  0  0  0  0
    8.2435    1.7883    0.0000 C   0  0  0  0  0  0  0  0  0  0  0  0
    2.8660   -3.0536    0.0000 C   0  0  0  0  0  0  0  0  0  0  0  0
    9.1945    1.4792    0.0000 C   0  0  0  0  0  0  0  0  0  0  0  0
    8.0356    2.7664    0.0000 C   0  0  0  0  0  0  0  0  0  0  0  0
    2.1229   -3.7227    0.0000 C   0  0  0  0  0  0  0  0  0  0  0  0
    5.1729   -2.6471    0.0000 H   0  0  0  0  0  0  0  0  0  0  0  0
    6.7498   -0.4645    0.0000 H   0  0  0  0  0  0  0  0  0  0  0  0
    6.6736    0.2603    0.0000 H   0  0  0  0  0  0  0  0  0  0  0  0
    3.8065   -2.3212    0.0000 H   0  0  0  0  0  0  0  0  0  0  0  0
    4.3962   -1.2999    0.0000 H   0  0  0  0  0  0  0  0  0  0  0  0
    5.7413    1.3756    0.0000 H   0  0  0  0  0  0  0  0  0  0  0  0
    7.1630   -0.9243    0.0000 H   0  0  0  0  0  0  0  0  0  0  0  0
    7.2088   -0.0487    0.0000 H   0  0  0  0  0  0  0  0  0  0  0  0
    6.3332   -0.0028    0.0000 H   0  0  0  0  0  0  0  0  0  0  0  0
    5.7162    1.6058    0.0000 H   0  0  0  0  0  0  0  0  0  0  0  0
    2.7948   -1.2774    0.0000 H   0  0  0  0  0  0  0  0  0  0  0  0
    3.1144    1.3323    0.0000 H   0  0  0  0  0  0  0  0  0  0  0  0
    2.6655    0.7954    0.0000 H   0  0  0  0  0  0  0  0  0  0  0  0
    1.9352    0.0193    0.0000 H   0  0  0  0  0  0  0  0  0  0  0  0
    1.3834   -0.6621    0.0000 H   0  0  0  0  0  0  0  0  0  0  0  0
    2.0648   -1.2139    0.0000 H   0  0  0  0  0  0  0  0  0  0  0  0
    6.5593    2.2767    0.0000 H   0  0  0  0  0  0  0  0  0  0  0  0
    6.1208    3.2569    0.0000 H   0  0  0  0  0  0  0  0  0  0  0  0
    8.3724    1.1818    0.0000 H   0  0  0  0  0  0  0  0  0  0  0  0
    9.0029    0.8896    0.0000 H   0  0  0  0  0  0  0  0  0  0  0  0
    9.7842    1.2877    0.0000 H   0  0  0  0  0  0  0  0  0  0  0  0
    9.3861    2.0689    0.0000 H   0  0  0  0  0  0  0  0  0  0  0  0
    8.6420    2.8953    0.0000 H   0  0  0  0  0  0  0  0  0  0  0  0
    7.9067    3.3729    0.0000 H   0  0  0  0  0  0  0  0  0  0  0  0
    7.4291    2.6375    0.0000 H   0  0  0  0  0  0  0  0  0  0  0  0
    1.7080   -3.2620    0.0000 H   0  0  0  0  0  0  0  0  0  0  0  0
    1.6621   -4.1376    0.0000 H   0  0  0  0  0  0  0  0  0  0  0  0
    2.5377   -4.1835    0.0000 H   0  0  0  0  0  0  0  0  0  0  0  0
  1  8  1  0  0  0  0
  1  9  1  0  0  0  0
 12  2  1  6  0  0  0
  2 22  1  0  0  0  0
  3 16  1  0  0  0  0
  3 20  1  0  0  0  0
 15  4  1  6  0  0  0
  4 25  1  0  0  0  0
  5 20  2  0  0  0  0
  6 22  2  0  0  0  0
  7 25  2  0  0  0  0
  8  9  1  0  0  0  0
  8 10  1  0  0  0  0
  8 13  1  6  0  0  0
  9 11  1  0  0  0  0
  9 29  1  1  0  0  0
 10 12  1  0  0  0  0
 10 30  1  0  0  0  0
 10 31  1  0  0  0  0
 11 15  1  0  0  0  0
 11 32  1  0  0  0  0
 11 33  1  0  0  0  0
 12 14  1  0  0  0  0
 12 34  1  0  0  0  0
 13 35  1  0  0  0  0
 13 36  1  0  0  0  0
 13 37  1  0  0  0  0
 14 16  1  0  0  0  0
 14 18  1  0  0  0  0
 14 38  1  1  0  0  0
 15 17  1  0  0  0  0
 15 39  1  0  0  0  0
 16 19  1  0  0  0  0
 16 40  1  6  0  0  0
 17 19  2  0  0  0  0
 17 21  1  0  0  0  0
 18 20  1  0  0  0  0
 18 23  2  0  0  0  0
 19 41  1  0  0  0  0
 21 42  1  0  0  0  0
 21 43  1  0  0  0  0
 21 44  1  0  0  0  0
 22 24  1  0  0  0  0
 23 45  1  0  0  0  0
 23 46  1  0  0  0  0
 24 26  1  0  0  0  0
 24 27  1  0  0  0  0
 24 47  1  0  0  0  0
 25 28  1  0  0  0  0
 26 48  1  0  0  0  0
 26 49  1  0  0  0  0
 26 50  1  0  0  0  0
 27 51  1  0  0  0  0
 27 52  1  0  0  0  0
 27 53  1  0  0  0  0
 28 54  1  0  0  0  0
 28 55  1  0  0  0  0
 28 56  1  0  0  0  0
M  END
> <PUBCHEM_COMPOUND_CID>
5281510

> <PUBCHEM_COMPOUND_CANONICALIZED>
1

> <PUBCHEM_CACTVS_COMPLEXITY>
737

> <PUBCHEM_CACTVS_HBOND_ACCEPTOR>
7

> <PUBCHEM_CACTVS_HBOND_DONOR>
0

> <PUBCHEM_CACTVS_ROTATABLE_BOND>
5

> <PUBCHEM_CACTVS_SUBSKEYS>
AAADceB4OAAAAAAAAAAAAAAAEgAAASAAAAAAAAAAAAAAAACAAAAAGgAAAAAADVSggAICCAAABACIAiDSCAAAAAAgAAAACAEAAEgABBIAIQACEAAFwAAIIIPK6PyOAAAAAAAAAAAAAAAAAAAAAAAAAAAAAA==

> <PUBCHEM_IUPAC_INCHI>
InChI=1S/C21H28O7/c1-10(2)19(23)27-16-9-21(6)17(28-21)8-14(25-13(5)22)11(3)7-15-18(16)12(4)20(24)26-15/h7,10,14-18H,4,8-9H2,1-3,5-6H3/b11-7-/t14-,15+,16+,17+,18-,21+/m0/s1

> <PUBCHEM_IUPAC_INCHIKEY>
VDPIGPWXCXCBKE-PTZLTHSXSA-N

> <PUBCHEM_XLOGP3_AA>
2.3

> <PUBCHEM_EXACT_MASS>
392.183503

> <PUBCHEM_MOLECULAR_FORMULA>
C21H28O7

> <PUBCHEM_MOLECULAR_WEIGHT>
392.44282

> <PUBCHEM_OPENEYE_CAN_SMILES>
CC1=CC2C(C(CC3(C(O3)CC1OC(=O)C)C)OC(=O)C(C)C)C(=C)C(=O)O2

> <PUBCHEM_OPENEYE_ISO_SMILES>
C/C/1=C/[C@@H]2[C@@H]([C@@H](C[C@@]3([C@H](O3)C[C@@H]1OC(=O)C)C)OC(=O)C(C)C)C(=C)C(=O)O2

> <PUBCHEM_CACTVS_TPSA>
91.4

> <PUBCHEM_MONOISOTOPIC_WEIGHT>
392.183503

> <PUBCHEM_TOTAL_CHARGE>
0

> <PUBCHEM_HEAVY_ATOM_COUNT>
28

> <PUBCHEM_ATOM_DEF_STEREO_COUNT>
6

> <PUBCHEM_ATOM_UDEF_STEREO_COUNT>
0

> <PUBCHEM_BOND_DEF_STEREO_COUNT>
1

> <PUBCHEM_BOND_UDEF_STEREO_COUNT>
0

> <PUBCHEM_ISOTOPIC_ATOM_COUNT>
0

> <PUBCHEM_COMPONENT_COUNT>
1

> <PUBCHEM_CACTVS_TAUTO_COUNT>
1

> <PUBCHEM_COORDINATE_TYPE>
1
5
255

> <PUBCHEM_BONDANNOTATIONS>
14  38  5
16  40  6
12  2  6
15  4  6
8  13  6
9  29  5

$$$$

