231352
  -OEChem-07051213073D

 61 64  0     1  0  0  0  0  0999 V2000
    4.2054   -2.9083    0.2812 F   0  0  0  0  0  0  0  0  0  0  0  0
   -2.6503   -0.2287    1.5826 O   0  0  0  0  0  0  0  0  0  0  0  0
    0.7373    1.8546   -1.7942 O   0  0  0  0  0  0  0  0  0  0  0  0
   -3.8738    1.1200   -0.8593 O   0  0  0  0  0  0  0  0  0  0  0  0
   -6.2535   -0.1246   -0.2592 O   0  0  0  0  0  0  0  0  0  0  0  0
    6.8317    0.9747    1.6434 O   0  0  0  0  0  0  0  0  0  0  0  0
   -5.5396    0.8041    1.7321 O   0  0  0  0  0  0  0  0  0  0  0  0
   -1.2847   -0.0808   -0.4574 C   0  0  1  0  0  0  0  0  0  0  0  0
   -0.3028   -1.1437    0.0830 C   0  0  2  0  0  0  0  0  0  0  0  0
    1.1320   -0.9783   -0.4396 C   0  0  1  0  0  0  0  0  0  0  0  0
    1.6658    0.4275   -0.0134 C   0  0  1  0  0  0  0  0  0  0  0  0
   -2.5959   -0.5863    0.2046 C   0  0  1  0  0  0  0  0  0  0  0  0
   -0.7765    1.2979    0.0115 C   0  0  0  0  0  0  0  0  0  0  0  0
    3.1819    0.6583   -0.4105 C   0  0  2  0  0  0  0  0  0  0  0  0
    0.6855    1.5781   -0.4018 C   0  0  2  0  0  0  0  0  0  0  0  0
   -1.0319   -2.4607   -0.1695 C   0  0  0  0  0  0  0  0  0  0  0  0
   -2.5175   -2.1247    0.0767 C   0  0  0  0  0  0  0  0  0  0  0  0
    2.0363   -2.0825    0.1240 C   0  0  0  0  0  0  0  0  0  0  0  0
   -1.4350   -0.1166   -2.0036 C   0  0  0  0  0  0  0  0  0  0  0  0
    4.0181   -0.5401    0.0656 C   0  0  0  0  0  0  0  0  0  0  0  0
    3.4843   -1.9048   -0.3003 C   0  0  1  0  0  0  0  0  0  0  0  0
    3.6683    1.9608    0.2896 C   0  0  0  0  0  0  0  0  0  0  0  0
    3.4079    0.7940   -1.9335 C   0  0  0  0  0  0  0  0  0  0  0  0
   -3.8520   -0.0121   -0.3785 C   0  0  0  0  0  0  0  0  0  0  0  0
    5.1811    2.1030    0.3264 C   0  0  0  0  0  0  0  0  0  0  0  0
    5.1773   -0.4252    0.7356 C   0  0  0  0  0  0  0  0  0  0  0  0
    5.7987    0.8967    0.9816 C   0  0  0  0  0  0  0  0  0  0  0  0
   -5.0769   -0.9008   -0.3389 C   0  0  0  0  0  0  0  0  0  0  0  0
   -6.3649    0.6948    0.8355 C   0  0  0  0  0  0  0  0  0  0  0  0
   -7.6563    1.4538    0.7863 C   0  0  0  0  0  0  0  0  0  0  0  0
   -0.2438   -1.0371    1.1791 H   0  0  0  0  0  0  0  0  0  0  0  0
    1.1441   -1.0652   -1.5305 H   0  0  0  0  0  0  0  0  0  0  0  0
    1.6491    0.4135    1.0897 H   0  0  0  0  0  0  0  0  0  0  0  0
   -0.8123    1.3650    1.1052 H   0  0  0  0  0  0  0  0  0  0  0  0
   -1.4302    2.0877   -0.3768 H   0  0  0  0  0  0  0  0  0  0  0  0
    0.9978    2.4963    0.1082 H   0  0  0  0  0  0  0  0  0  0  0  0
   -0.6912   -3.2552    0.5022 H   0  0  0  0  0  0  0  0  0  0  0  0
   -0.8827   -2.8090   -1.1979 H   0  0  0  0  0  0  0  0  0  0  0  0
   -3.0951   -2.5262   -0.7624 H   0  0  0  0  0  0  0  0  0  0  0  0
   -2.8610   -2.6199    0.9924 H   0  0  0  0  0  0  0  0  0  0  0  0
    1.6935   -3.0682   -0.2127 H   0  0  0  0  0  0  0  0  0  0  0  0
    1.9787   -2.1054    1.2205 H   0  0  0  0  0  0  0  0  0  0  0  0
   -1.9989   -0.9887   -2.3513 H   0  0  0  0  0  0  0  0  0  0  0  0
   -1.9561    0.7720   -2.3750 H   0  0  0  0  0  0  0  0  0  0  0  0
   -0.4756   -0.1500   -2.5239 H   0  0  0  0  0  0  0  0  0  0  0  0
    3.5740   -2.0481   -1.3829 H   0  0  0  0  0  0  0  0  0  0  0  0
    3.3022    1.9783    1.3258 H   0  0  0  0  0  0  0  0  0  0  0  0
    3.2458    2.8452   -0.2025 H   0  0  0  0  0  0  0  0  0  0  0  0
    2.8692    0.0299   -2.5025 H   0  0  0  0  0  0  0  0  0  0  0  0
    3.0941    1.7731   -2.3082 H   0  0  0  0  0  0  0  0  0  0  0  0
    4.4691    0.6940   -2.1931 H   0  0  0  0  0  0  0  0  0  0  0  0
   -2.7535    0.7355    1.6501 H   0  0  0  0  0  0  0  0  0  0  0  0
    5.4449    2.9907    0.9119 H   0  0  0  0  0  0  0  0  0  0  0  0
    5.6052    2.2168   -0.6761 H   0  0  0  0  0  0  0  0  0  0  0  0
    0.1484    2.6081   -1.9696 H   0  0  0  0  0  0  0  0  0  0  0  0
    5.7396   -1.2912    1.0674 H   0  0  0  0  0  0  0  0  0  0  0  0
   -5.0533   -1.5791    0.5197 H   0  0  0  0  0  0  0  0  0  0  0  0
   -5.1142   -1.4902   -1.2593 H   0  0  0  0  0  0  0  0  0  0  0  0
   -8.4966    0.7551    0.7948 H   0  0  0  0  0  0  0  0  0  0  0  0
   -7.6837    2.0788   -0.1097 H   0  0  0  0  0  0  0  0  0  0  0  0
   -7.7311    2.1003    1.6654 H   0  0  0  0  0  0  0  0  0  0  0  0
  1 21  1  0  0  0  0
  2 12  1  0  0  0  0
  2 52  1  0  0  0  0
  3 15  1  0  0  0  0
  3 55  1  0  0  0  0
  4 24  2  0  0  0  0
  5 28  1  0  0  0  0
  5 29  1  0  0  0  0
  6 27  2  0  0  0  0
  7 29  2  0  0  0  0
  8  9  1  0  0  0  0
  8 12  1  0  0  0  0
  8 13  1  0  0  0  0
  8 19  1  0  0  0  0
  9 10  1  0  0  0  0
  9 16  1  0  0  0  0
  9 31  1  0  0  0  0
 10 11  1  0  0  0  0
 10 18  1  0  0  0  0
 10 32  1  0  0  0  0
 11 14  1  0  0  0  0
 11 15  1  0  0  0  0
 11 33  1  0  0  0  0
 12 17  1  0  0  0  0
 12 24  1  0  0  0  0
 13 15  1  0  0  0  0
 13 34  1  0  0  0  0
 13 35  1  0  0  0  0
 14 20  1  0  0  0  0
 14 22  1  0  0  0  0
 14 23  1  0  0  0  0
 15 36  1  0  0  0  0
 16 17  1  0  0  0  0
 16 37  1  0  0  0  0
 16 38  1  0  0  0  0
 17 39  1  0  0  0  0
 17 40  1  0  0  0  0
 18 21  1  0  0  0  0
 18 41  1  0  0  0  0
 18 42  1  0  0  0  0
 19 43  1  0  0  0  0
 19 44  1  0  0  0  0
 19 45  1  0  0  0  0
 20 21  1  0  0  0  0
 20 26  2  0  0  0  0
 21 46  1  0  0  0  0
 22 25  1  0  0  0  0
 22 47  1  0  0  0  0
 22 48  1  0  0  0  0
 23 49  1  0  0  0  0
 23 50  1  0  0  0  0
 23 51  1  0  0  0  0
 24 28  1  0  0  0  0
 25 27  1  0  0  0  0
 25 53  1  0  0  0  0
 25 54  1  0  0  0  0
 26 27  1  0  0  0  0
 26 56  1  0  0  0  0
 28 57  1  0  0  0  0
 28 58  1  0  0  0  0
 29 30  1  0  0  0  0
 30 59  1  0  0  0  0
 30 60  1  0  0  0  0
 30 61  1  0  0  0  0
M  END
> <PUBCHEM_COMPOUND_CID>
231352

> <PUBCHEM_CONFORMER_RMSD>
0.8

> <PUBCHEM_CONFORMER_DIVERSEORDER>
10
3
4
13
1
14
7
15
5
16
8
2
12
9
11
6

> <PUBCHEM_MMFF94_PARTIAL_CHARGES>
22
1 -0.34
12 0.34
14 0.14
15 0.28
2 -0.68
20 -0.28
21 0.48
24 0.45
25 0.06
26 -0.14
27 0.49
28 0.34
29 0.66
3 -0.68
30 0.06
4 -0.57
5 -0.43
52 0.4
55 0.4
56 0.15
6 -0.57
7 -0.57

> <PUBCHEM_EFFECTIVE_ROTOR_COUNT>
5.8

> <PUBCHEM_PHARMACOPHORE_FEATURES>
11
1 2 acceptor
1 2 donor
1 3 acceptor
1 3 donor
1 4 acceptor
1 6 acceptor
1 7 acceptor
5 8 9 12 16 17 rings
6 10 11 14 18 20 21 rings
6 14 20 22 25 26 27 rings
6 8 9 10 11 13 15 rings

> <PUBCHEM_HEAVY_ATOM_COUNT>
30

> <PUBCHEM_ATOM_DEF_STEREO_COUNT>
8

> <PUBCHEM_ATOM_UDEF_STEREO_COUNT>
0

> <PUBCHEM_BOND_DEF_STEREO_COUNT>
0

> <PUBCHEM_BOND_UDEF_STEREO_COUNT>
0

> <PUBCHEM_ISOTOPIC_ATOM_COUNT>
0

> <PUBCHEM_COMPONENT_COUNT>
1

> <PUBCHEM_CACTVS_TAUTO_COUNT>
4

> <PUBCHEM_CONFORMER_ID>
000387B80000000A

> <PUBCHEM_MMFF94_ENERGY>
95.3086

> <PUBCHEM_FEATURE_SELFOVERLAP>
55.912

> <PUBCHEM_SHAPE_FINGERPRINT>
10 15 17988924444327548833
10366900 7 6194569921858152550
10411042 1 17832703852933412814
10906281 52 18129654193731843774
11089746 13 17822015267763692648
11456790 92 18411139168614812329
12035758 1 17917705808322042371
12236239 1 17821731641351245119
12403259 415 18201724002603806541
12422481 6 17988652873830058340
12596602 18 17748827397247364499
12616971 3 17275106076653118847
12788726 201 17095515223205744385
13140716 1 18124033429802511964
13224815 77 18411421674932117382
13533116 47 18337106864710207242
13782708 43 15482380964052739489
14251764 18 18408887309098572461
14394314 77 18260826012609703209
14790565 3 18335696200319256441
14849402 71 18187926136967259649
15131766 46 15793448145606508680
15142383 8 17346325911671490477
15183329 4 18411696587156523877
15238133 3 18409722933213804540
15475509 35 16773245114479455402
15788980 27 16988850449402466780
15840311 113 18261947574825773357
1813 80 16845853498853523102
18222031 100 10015587181370015404
19141452 34 18341897342124651631
1979834 28 18342452656121982470
20511986 3 18114473309384969507
20775438 99 10662382511529350800
21033648 29 17632302311078088215
21130935 74 18408603677996369907
21267235 1 18341047544955518182
21298829 104 18334856117131893801
21403212 168 18272656762092554753
21421861 104 18130521807401644354
21792934 111 18271530913398473257
21859007 373 17559695003616977845
22122407 14 17749382620723465169
22182313 1 17916600845969298686
23559900 14 18409168775801905132
24771293 8 18336551516886070172
335352 9 18410855456418958798
34797466 226 16370719305812452509
34934 24 18335141951516143102
350125 39 18340767143419444628
3633792 109 18336274530466194757
3680242 22 18272939344823038738
4073 2 18271521996751292907
4093350 32 17458341962098070326
4340502 62 18410576184533461390
465052 167 16415480445949540012
5104073 3 18128823121364561449
513532 50 17894900850577609782
5385378 56 18339921614625137139
7495541 125 14548732881091841613

> <PUBCHEM_SHAPE_MULTIPOLES>
574.9
15.93
2.37
1.33
12.88
0.93
-0.29
-6.65
6.8
-1.6
0.08
-0.13
-0.44
-0.4

> <PUBCHEM_SHAPE_SELFOVERLAP>
1236.468

> <PUBCHEM_SHAPE_VOLUME>
316.8

> <PUBCHEM_COORDINATE_TYPE>
2
5
10

$$$$

