5460436
  -OEChem-07051212572D

 71 75  0     1  0  0  0  0  0999 V2000
    4.6497   -4.9268    0.0000 O   0  0  0  0  0  0  0  0  0  0  0  0
    2.8680   -1.8680    0.0000 O   0  0  0  0  0  0  0  0  0  0  0  0
    2.8680   -3.9164    0.0000 O   0  0  0  0  0  0  0  0  0  0  0  0
    8.1825    4.2257    0.0000 O   0  0  0  0  0  0  0  0  0  0  0  0
    6.4047    5.2430    0.0000 O   0  0  0  0  0  0  0  0  0  0  0  0
    7.2641   -2.3922    0.0000 N   0  0  3  0  0  0  0  0  0  0  0  0
    5.5442    0.6704    0.0000 N   0  0  0  0  0  0  0  0  0  0  0  0
    7.2800   -0.3229    0.0000 C   0  0  2  0  0  0  0  0  0  0  0  0
    8.1821   -0.8438    0.0000 C   0  0  2  0  0  0  0  0  0  0  0  0
    6.3981   -1.8922    0.0000 C   0  0  1  0  0  0  0  0  0  0  0  0
    6.3820   -0.8507    0.0000 C   0  0  0  0  0  0  0  0  0  0  0  0
    8.1741   -1.8854    0.0000 C   0  0  0  0  0  0  0  0  0  0  0  0
    7.2762    0.6771    0.0000 C   0  0  0  0  0  0  0  0  0  0  0  0
    7.2641   -3.3922    0.0000 C   0  0  0  0  0  0  0  0  0  0  0  0
    5.5320   -2.3922    0.0000 C   0  0  0  0  0  0  0  0  0  0  0  0
    9.0501   -0.3471    0.0000 C   0  0  0  0  0  0  0  0  0  0  0  0
    6.3981   -3.8922    0.0000 C   0  0  0  0  0  0  0  0  0  0  0  0
    5.5320   -3.3922    0.0000 C   0  0  0  0  0  0  0  0  0  0  0  0
    6.4082    1.1737    0.0000 C   0  0  0  0  0  0  0  0  0  0  0  0
    4.6381   -1.8575    0.0000 C   0  0  0  0  0  0  0  0  0  0  0  0
    9.9142   -0.8504    0.0000 C   0  0  0  0  0  0  0  0  0  0  0  0
    4.6381   -3.9269    0.0000 C   0  0  0  0  0  0  0  0  0  0  0  0
    6.4044    2.1737    0.0000 C   0  0  0  0  0  0  0  0  0  0  0  0
    3.7320   -2.3714    0.0000 C   0  0  0  0  0  0  0  0  0  0  0  0
    3.7320   -3.4130    0.0000 C   0  0  0  0  0  0  0  0  0  0  0  0
    4.6762    1.1670    0.0000 C   0  0  0  0  0  0  0  0  0  0  0  0
    5.5364    2.6704    0.0000 C   0  0  0  0  0  0  0  0  0  0  0  0
    4.6724    2.1670    0.0000 C   0  0  0  0  0  0  0  0  0  0  0  0
    7.3124    2.6840    0.0000 C   0  0  0  0  0  0  0  0  0  0  0  0
    5.5164    3.7118    0.0000 C   0  0  0  0  0  0  0  0  0  0  0  0
    7.3164    3.7257    0.0000 C   0  0  0  0  0  0  0  0  0  0  0  0
    6.4124    4.2430    0.0000 C   0  0  0  0  0  0  0  0  0  0  0  0
    2.8718   -0.8681    0.0000 C   0  0  0  0  0  0  0  0  0  0  0  0
    2.0000   -3.4197    0.0000 C   0  0  0  0  0  0  0  0  0  0  0  0
    8.1825    5.2257    0.0000 C   0  0  0  0  0  0  0  0  0  0  0  0
    6.7413   -0.0160    0.0000 H   0  0  0  0  0  0  0  0  0  0  0  0
    8.7173   -1.1568    0.0000 H   0  0  0  0  0  0  0  0  0  0  0  0
    7.1309   -1.4615    0.0000 H   0  0  0  0  0  0  0  0  0  0  0  0
    6.1640   -0.2703    0.0000 H   0  0  0  0  0  0  0  0  0  0  0  0
    5.7729   -0.9662    0.0000 H   0  0  0  0  0  0  0  0  0  0  0  0
    8.3786   -2.4706    0.0000 H   0  0  0  0  0  0  0  0  0  0  0  0
    8.7858   -1.7840    0.0000 H   0  0  0  0  0  0  0  0  0  0  0  0
    7.8872    0.5717    0.0000 H   0  0  0  0  0  0  0  0  0  0  0  0
    7.4860    1.2605    0.0000 H   0  0  0  0  0  0  0  0  0  0  0  0
    7.4762   -3.9748    0.0000 H   0  0  0  0  0  0  0  0  0  0  0  0
    7.8747   -3.2845    0.0000 H   0  0  0  0  0  0  0  0  0  0  0  0
    9.4504    0.1263    0.0000 H   0  0  0  0  0  0  0  0  0  0  0  0
    8.6534    0.1294    0.0000 H   0  0  0  0  0  0  0  0  0  0  0  0
    5.9995   -4.3672    0.0000 H   0  0  0  0  0  0  0  0  0  0  0  0
    6.7966   -4.3672    0.0000 H   0  0  0  0  0  0  0  0  0  0  0  0
    4.6453   -1.2376    0.0000 H   0  0  0  0  0  0  0  0  0  0  0  0
    9.6021   -1.3862    0.0000 H   0  0  0  0  0  0  0  0  0  0  0  0
   10.4499   -1.1625    0.0000 H   0  0  0  0  0  0  0  0  0  0  0  0
   10.2262   -0.3147    0.0000 H   0  0  0  0  0  0  0  0  0  0  0  0
    5.5466    0.0504    0.0000 H   0  0  0  0  0  0  0  0  0  0  0  0
    4.0652    1.2723    0.0000 H   0  0  0  0  0  0  0  0  0  0  0  0
    4.4664    0.5836    0.0000 H   0  0  0  0  0  0  0  0  0  0  0  0
    4.4581    2.7488    0.0000 H   0  0  0  0  0  0  0  0  0  0  0  0
    4.0622    2.0570    0.0000 H   0  0  0  0  0  0  0  0  0  0  0  0
    7.8470    2.3699    0.0000 H   0  0  0  0  0  0  0  0  0  0  0  0
    4.1164   -5.2430    0.0000 H   0  0  0  0  0  0  0  0  0  0  0  0
    4.9747    4.0135    0.0000 H   0  0  0  0  0  0  0  0  0  0  0  0
    3.4918   -0.8704    0.0000 H   0  0  0  0  0  0  0  0  0  0  0  0
    2.8742   -0.2481    0.0000 H   0  0  0  0  0  0  0  0  0  0  0  0
    2.2518   -0.8657    0.0000 H   0  0  0  0  0  0  0  0  0  0  0  0
    2.3079   -2.8816    0.0000 H   0  0  0  0  0  0  0  0  0  0  0  0
    1.4619   -3.1118    0.0000 H   0  0  0  0  0  0  0  0  0  0  0  0
    1.6921   -3.9578    0.0000 H   0  0  0  0  0  0  0  0  0  0  0  0
    8.8025    5.2257    0.0000 H   0  0  0  0  0  0  0  0  0  0  0  0
    8.1825    5.8457    0.0000 H   0  0  0  0  0  0  0  0  0  0  0  0
    7.5625    5.2257    0.0000 H   0  0  0  0  0  0  0  0  0  0  0  0
  1 22  1  0  0  0  0
  1 61  1  0  0  0  0
  2 24  1  0  0  0  0
  2 33  1  0  0  0  0
  3 25  1  0  0  0  0
  3 34  1  0  0  0  0
  4 31  1  0  0  0  0
  4 35  1  0  0  0  0
  5 32  2  0  0  0  0
  6 10  1  0  0  0  0
  6 12  1  0  0  0  0
  6 14  1  0  0  0  0
  7 19  1  0  0  0  0
  7 26  1  0  0  0  0
  7 55  1  0  0  0  0
  8  9  1  0  0  0  0
  8 11  1  0  0  0  0
  8 13  1  6  0  0  0
  8 36  1  0  0  0  0
  9 12  1  0  0  0  0
  9 16  1  1  0  0  0
  9 37  1  0  0  0  0
 10 11  1  0  0  0  0
 10 15  1  0  0  0  0
 10 38  1  1  0  0  0
 11 39  1  0  0  0  0
 11 40  1  0  0  0  0
 12 41  1  0  0  0  0
 12 42  1  0  0  0  0
 13 19  1  0  0  0  0
 13 43  1  0  0  0  0
 13 44  1  0  0  0  0
 14 17  1  0  0  0  0
 14 45  1  0  0  0  0
 14 46  1  0  0  0  0
 15 18  1  0  0  0  0
 15 20  2  0  0  0  0
 16 21  1  0  0  0  0
 16 47  1  0  0  0  0
 16 48  1  0  0  0  0
 17 18  1  0  0  0  0
 17 49  1  0  0  0  0
 17 50  1  0  0  0  0
 18 22  2  0  0  0  0
 19 23  2  0  0  0  0
 20 24  1  0  0  0  0
 20 51  1  0  0  0  0
 21 52  1  0  0  0  0
 21 53  1  0  0  0  0
 21 54  1  0  0  0  0
 22 25  1  0  0  0  0
 23 27  1  0  0  0  0
 23 29  1  0  0  0  0
 24 25  2  0  0  0  0
 26 28  1  0  0  0  0
 26 56  1  0  0  0  0
 26 57  1  0  0  0  0
 27 28  1  0  0  0  0
 27 30  2  0  0  0  0
 28 58  1  0  0  0  0
 28 59  1  0  0  0  0
 29 31  2  0  0  0  0
 29 60  1  0  0  0  0
 30 32  1  0  0  0  0
 30 62  1  0  0  0  0
 31 32  1  0  0  0  0
 33 63  1  0  0  0  0
 33 64  1  0  0  0  0
 33 65  1  0  0  0  0
 34 66  1  0  0  0  0
 34 67  1  0  0  0  0
 34 68  1  0  0  0  0
 35 69  1  0  0  0  0
 35 70  1  0  0  0  0
 35 71  1  0  0  0  0
M  END
> <PUBCHEM_COMPOUND_CID>
5460436

> <PUBCHEM_COMPOUND_CANONICALIZED>
1

> <PUBCHEM_CACTVS_COMPLEXITY>
911

> <PUBCHEM_CACTVS_HBOND_ACCEPTOR>
7

> <PUBCHEM_CACTVS_HBOND_DONOR>
2

> <PUBCHEM_CACTVS_ROTATABLE_BOND>
6

> <PUBCHEM_CACTVS_SUBSKEYS>
AAADcfB7OAAAAAAAAAAAAAAAAAAAAAAAAAA8WIECAAAAAACxAAAAHgAQCAAADSzBmAYyBoPABgCIAqRSQAKCCAAgIAAAiIBOjMgNJyKGsR+EcCtl0BWLuYew8P8OoAABCAAYQABAAAIQADCAAAAAAAAAAA==

> <PUBCHEM_IUPAC_OPENEYE_NAME>
1-[[(2R,3R,11bS)-3-ethyl-8-hydroxy-9,10-dimethoxy-2,3,4,6,7,11b-hexahydro-1H-benzo[a]quinolizin-2-yl]methyl]-7-methoxy-3,4-dihydro-2H-isoquinolin-6-one

> <PUBCHEM_IUPAC_CAS_NAME>
1-[[(2R,3R,11bS)-3-ethyl-8-hydroxy-9,10-dimethoxy-2,3,4,6,7,11b-hexahydro-1H-benzo[a]quinolizin-2-yl]methyl]-7-methoxy-3,4-dihydro-2H-isoquinolin-6-one

> <PUBCHEM_IUPAC_NAME>
1-[[(2R,3R,11bS)-3-ethyl-8-hydroxy-9,10-dimethoxy-2,3,4,6,7,11b-hexahydro-1H-benzo[a]quinolizin-2-yl]methyl]-7-methoxy-3,4-dihydro-2H-isoquinolin-6-one

> <PUBCHEM_IUPAC_SYSTEMATIC_NAME>
1-[[(2R,3R,11bS)-3-ethyl-9,10-dimethoxy-8-oxidanyl-2,3,4,6,7,11b-hexahydro-1H-benzo[a]quinolizin-2-yl]methyl]-7-methoxy-3,4-dihydro-2H-isoquinolin-6-one

> <PUBCHEM_IUPAC_TRADITIONAL_NAME>
1-[[(2R,3R,11bS)-3-ethyl-8-hydroxy-9,10-dimethoxy-2,3,4,6,7,11b-hexahydro-1H-benzo[a]quinolizin-2-yl]methyl]-7-methoxy-3,4-dihydro-2H-isoquinolin-6-one

> <PUBCHEM_IUPAC_INCHI>
InChI=1S/C28H36N2O5/c1-5-16-15-30-9-7-19-21(14-26(34-3)28(35-4)27(19)32)23(30)11-18(16)10-22-20-13-25(33-2)24(31)12-17(20)6-8-29-22/h12-14,16,18,23,29,32H,5-11,15H2,1-4H3/t16-,18-,23-/m0/s1

> <PUBCHEM_IUPAC_INCHIKEY>
FYOKGHATLLPUPW-CEXJFXJFSA-N

> <PUBCHEM_XLOGP3_AA>
3.6

> <PUBCHEM_EXACT_MASS>
480.262422

> <PUBCHEM_MOLECULAR_FORMULA>
C28H36N2O5

> <PUBCHEM_MOLECULAR_WEIGHT>
480.59584

> <PUBCHEM_OPENEYE_CAN_SMILES>
CCC1CN2CCC3=C(C(=C(C=C3C2CC1CC4=C5C=C(C(=O)C=C5CCN4)OC)OC)OC)O

> <PUBCHEM_OPENEYE_ISO_SMILES>
CC[C@H]1CN2CCC3=C(C(=C(C=C3[C@@H]2C[C@@H]1CC4=C5C=C(C(=O)C=C5CCN4)OC)OC)OC)O

> <PUBCHEM_CACTVS_TPSA>
80.3

> <PUBCHEM_MONOISOTOPIC_WEIGHT>
480.262422

> <PUBCHEM_TOTAL_CHARGE>
0

> <PUBCHEM_HEAVY_ATOM_COUNT>
35

> <PUBCHEM_ATOM_DEF_STEREO_COUNT>
3

> <PUBCHEM_ATOM_UDEF_STEREO_COUNT>
0

> <PUBCHEM_BOND_DEF_STEREO_COUNT>
0

> <PUBCHEM_BOND_UDEF_STEREO_COUNT>
0

> <PUBCHEM_ISOTOPIC_ATOM_COUNT>
0

> <PUBCHEM_COMPONENT_COUNT>
1

> <PUBCHEM_CACTVS_TAUTO_COUNT>
42

> <PUBCHEM_COORDINATE_TYPE>
1
5
255

> <PUBCHEM_BONDANNOTATIONS>
10  38  5
15  18  8
15  20  8
18  22  8
20  24  8
22  25  8
24  25  8
8  13  6
9  16  5

$$$$

