644178
  -OEChem-07051213053D

 23 24  0     0  0  0  0  0  0999 V2000
    0.7500   -2.7396    0.0983 Cl  0  0  0  0  0  0  0  0  0  0  0  0
    0.7523    2.7404    0.1007 Cl  0  0  0  0  0  0  0  0  0  0  0  0
   -3.7274    0.0018   -2.2698 Cl  0  0  0  0  0  0  0  0  0  0  0  0
    5.3555   -0.0007   -0.2690 Cl  0  0  0  0  0  0  0  0  0  0  0  0
   -4.7285   -0.0011    0.5647 O   0  0  0  0  0  0  0  0  0  0  0  0
    0.8509    0.0003    0.0916 C   0  0  0  0  0  0  0  0  0  0  0  0
   -0.5914    0.0004    0.2056 C   0  0  0  0  0  0  0  0  0  0  0  0
    1.5540   -1.2079    0.0344 C   0  0  0  0  0  0  0  0  0  0  0  0
    1.5549    1.2080    0.0362 C   0  0  0  0  0  0  0  0  0  0  0  0
   -1.3825    0.0016   -0.9433 C   0  0  0  0  0  0  0  0  0  0  0  0
   -1.1909   -0.0012    1.4651 C   0  0  0  0  0  0  0  0  0  0  0  0
   -2.7729    0.0012   -0.8328 C   0  0  0  0  0  0  0  0  0  0  0  0
   -2.5814   -0.0015    1.5757 C   0  0  0  0  0  0  0  0  0  0  0  0
    2.9444   -1.2083   -0.0770 C   0  0  0  0  0  0  0  0  0  0  0  0
    2.9452    1.2076   -0.0751 C   0  0  0  0  0  0  0  0  0  0  0  0
   -3.3723   -0.0004    0.4267 C   0  0  0  0  0  0  0  0  0  0  0  0
    3.6401   -0.0006   -0.1317 C   0  0  0  0  0  0  0  0  0  0  0  0
   -0.9157    0.0027   -1.9267 H   0  0  0  0  0  0  0  0  0  0  0  0
   -0.5889   -0.0022    2.3708 H   0  0  0  0  0  0  0  0  0  0  0  0
   -3.0341   -0.0028    2.5637 H   0  0  0  0  0  0  0  0  0  0  0  0
    3.4893   -2.1491   -0.1213 H   0  0  0  0  0  0  0  0  0  0  0  0
    3.4908    2.1481   -0.1182 H   0  0  0  0  0  0  0  0  0  0  0  0
   -4.9531   -0.0023    1.5109 H   0  0  0  0  0  0  0  0  0  0  0  0
  1  8  1  0  0  0  0
  2  9  1  0  0  0  0
  3 12  1  0  0  0  0
  4 17  1  0  0  0  0
  5 16  1  0  0  0  0
  5 23  1  0  0  0  0
  6  7  1  0  0  0  0
  6  8  2  0  0  0  0
  6  9  1  0  0  0  0
  7 10  2  0  0  0  0
  7 11  1  0  0  0  0
  8 14  1  0  0  0  0
  9 15  2  0  0  0  0
 10 12  1  0  0  0  0
 10 18  1  0  0  0  0
 11 13  2  0  0  0  0
 11 19  1  0  0  0  0
 12 16  2  0  0  0  0
 13 16  1  0  0  0  0
 13 20  1  0  0  0  0
 14 17  2  0  0  0  0
 14 21  1  0  0  0  0
 15 17  1  0  0  0  0
 15 22  1  0  0  0  0
M  END
> <PUBCHEM_COMPOUND_CID>
644178

> <PUBCHEM_CONFORMER_RMSD>
0.6

> <PUBCHEM_CONFORMER_DIVERSEORDER>
1

> <PUBCHEM_MMFF94_PARTIAL_CHARGES>
21
1 -0.18
10 -0.15
11 -0.15
12 0.18
13 -0.15
14 -0.15
15 -0.15
16 0.08
17 0.18
18 0.15
19 0.15
2 -0.18
20 0.15
21 0.15
22 0.15
23 0.45
3 -0.18
4 -0.18
5 -0.53
8 0.18
9 0.18

> <PUBCHEM_EFFECTIVE_ROTOR_COUNT>
1

> <PUBCHEM_PHARMACOPHORE_FEATURES>
3
1 5 donor
6 6 8 9 14 15 17 rings
6 7 10 11 12 13 16 rings

> <PUBCHEM_HEAVY_ATOM_COUNT>
17

> <PUBCHEM_ATOM_DEF_STEREO_COUNT>
0

> <PUBCHEM_ATOM_UDEF_STEREO_COUNT>
0

> <PUBCHEM_BOND_DEF_STEREO_COUNT>
0

> <PUBCHEM_BOND_UDEF_STEREO_COUNT>
0

> <PUBCHEM_ISOTOPIC_ATOM_COUNT>
0

> <PUBCHEM_COMPONENT_COUNT>
1

> <PUBCHEM_CACTVS_TAUTO_COUNT>
3

> <PUBCHEM_CONFORMER_ID>
0009D45200000001

> <PUBCHEM_MMFF94_ENERGY>
47.0968

> <PUBCHEM_FEATURE_SELFOVERLAP>
15.223

> <PUBCHEM_SHAPE_FINGERPRINT>
11471102 20 18412261740111630680
11578080 2 12533398311394987095
11796584 16 14851595614116016380
12119455 92 18202286896527740058
12236239 1 17676202481010625001
12500047 106 16415485947412275850
13140716 1 18266741273729167672
13464514 151 17700710702705357565
13538477 17 17168147832187514519
13581323 91 15195568987464222449
13862211 1 18410295839639947934
13911987 19 18343013372860916548
13965767 371 16738849160329933153
14251717 144 18409726270419035698
14993402 34 18333734606881756334
15219456 202 17846501464902748899
15309172 13 18411975849829600490
15848702 151 17604699105816950574
16945 1 18410582785539440682
17357779 13 18342181093719093404
18175812 5 17703782579121168522
18186145 218 18336272253558443388
18219364 16 18343582914993219439
19049666 15 17702671110599696625
200 152 18260551134105847553
20279233 1 17703783730161945522
20344682 1 17775001288758012046
204376 136 18341045229809649650
20645476 183 17894914023284504167
20645477 70 18271809085350524810
21639500 275 18337958878678694221
22112679 90 17095797737828634969
23175994 123 18201710765198517484
232386 152 16370732487278165045
23402539 116 18186802487263920756
23402655 69 18335424620435765765
23493267 7 17060064760850529992
23526113 38 17844265105533240869
23557571 272 16773793718608656367
23559900 14 16773524381890291914
23598291 2 18040156231863231333
23728640 28 15243701633805905107
25 1 18343587360236937035
2748010 2 18049151178045651416
3060560 45 18410586067132059438
350125 39 17907849613975552690
474 4 17823993225317046816
633830 44 18260813900336989708
77492 1 17676486150773626681
81228 2 16683465827667992154
8272917 22 18263351650789373483

> <PUBCHEM_SHAPE_MULTIPOLES>
351.46
8.18
1.92
1.35
1.53
0
-0.31
0
-1.52
1.4
0.09
-2.01
0
0

> <PUBCHEM_SHAPE_SELFOVERLAP>
728.688

> <PUBCHEM_SHAPE_VOLUME>
205

> <PUBCHEM_COORDINATE_TYPE>
2
5
10

$$$$

