5462418
  -OEChem-07051212562D

 66 72  0     1  0  0  0  0  0999 V2000
    5.3207   -3.5456    0.0000 O   0  0  0  0  0  0  0  0  0  0  0  0
    3.5206   -3.5526    0.0000 O   0  0  0  0  0  0  0  0  0  0  0  0
    6.1828    0.0307    0.0000 O   0  0  0  0  0  0  0  0  0  0  0  0
    3.3137   -2.1697    0.0000 O   0  0  0  0  0  0  0  0  0  0  0  0
    2.5286   -0.5088    0.0000 O   0  0  0  0  0  0  0  0  0  0  0  0
    2.7065   -2.0041    0.0000 O   0  0  0  0  0  0  0  0  0  0  0  0
    2.3441    3.3759    0.0000 O   0  0  0  0  0  0  0  0  0  0  0  0
    2.0000    5.0734    0.0000 O   0  0  0  0  0  0  0  0  0  0  0  0
    4.4386   -2.0041    0.0000 C   0  0  2  0  0  0  0  0  0  0  0  0
    4.4386   -1.0041    0.0000 C   0  0  2  0  0  0  0  0  0  0  0  0
    5.3046   -0.5041    0.0000 C   0  0  2  0  0  0  0  0  0  0  0  0
    5.3207    0.5374    0.0000 C   0  0  1  0  0  0  0  0  0  0  0  0
    5.3046   -2.5041    0.0000 C   0  0  1  0  0  0  0  0  0  0  0  0
    4.4226    1.0651    0.0000 C   0  0  2  0  0  0  0  0  0  0  0  0
    3.5286   -0.4973    0.0000 C   0  0  1  0  0  0  0  0  0  0  0  0
    3.5286   -2.5110    0.0000 C   0  0  1  0  0  0  0  0  0  0  0  0
    6.1706   -1.0041    0.0000 C   0  0  0  0  0  0  0  0  0  0  0  0
    6.1706   -2.0041    0.0000 C   0  0  0  0  0  0  0  0  0  0  0  0
    3.5206    0.5443    0.0000 C   0  0  0  0  0  0  0  0  0  0  0  0
    4.6483    2.0757    0.0000 C   0  0  2  0  0  0  0  0  0  0  0  0
    5.6206   -1.0758    0.0000 C   0  0  0  0  0  0  0  0  0  0  0  0
    6.0937    1.2263    0.0000 C   0  0  0  0  0  0  0  0  0  0  0  0
    4.4079   -0.2575    0.0000 C   0  0  2  0  0  0  0  0  0  0  0  0
    3.2016   -1.0851    0.0000 C   0  0  0  0  0  0  0  0  0  0  0  0
    5.6790    2.1751    0.0000 C   0  0  0  0  0  0  0  0  0  0  0  0
    4.4226   -4.0734    0.0000 C   0  0  3  0  0  0  0  0  0  0  0  0
    3.5605    1.5718    0.0000 C   0  0  0  0  0  0  0  0  0  0  0  0
    3.5726   -1.5041    0.0000 C   0  0  0  0  0  0  0  0  0  0  0  0
    3.9863    2.8251    0.0000 C   0  0  0  0  0  0  0  0  0  0  0  0
    4.4265   -5.0734    0.0000 C   0  0  0  0  0  0  0  0  0  0  0  0
    4.3042    3.7732    0.0000 C   0  0  0  0  0  0  0  0  0  0  0  0
    3.0062    2.6264    0.0000 C   0  0  0  0  0  0  0  0  0  0  0  0
    3.6422    4.5226    0.0000 C   0  0  0  0  0  0  0  0  0  0  0  0
    2.6621    4.3240    0.0000 C   0  0  0  0  0  0  0  0  0  0  0  0
    3.7058   -1.4348    0.0000 H   0  0  0  0  0  0  0  0  0  0  0  0
    6.0440   -0.0848    0.0000 H   0  0  0  0  0  0  0  0  0  0  0  0
    3.3762   -1.0983    0.0000 H   0  0  0  0  0  0  0  0  0  0  0  0
    2.7876   -2.9274    0.0000 H   0  0  0  0  0  0  0  0  0  0  0  0
    6.7812   -1.1118    0.0000 H   0  0  0  0  0  0  0  0  0  0  0  0
    6.3827   -0.4215    0.0000 H   0  0  0  0  0  0  0  0  0  0  0  0
    6.3827   -2.5868    0.0000 H   0  0  0  0  0  0  0  0  0  0  0  0
    6.7812   -1.8965    0.0000 H   0  0  0  0  0  0  0  0  0  0  0  0
    3.3070    1.1264    0.0000 H   0  0  0  0  0  0  0  0  0  0  0  0
    2.9105    0.4335    0.0000 H   0  0  0  0  0  0  0  0  0  0  0  0
    4.8757    2.6525    0.0000 H   0  0  0  0  0  0  0  0  0  0  0  0
    6.2045   -1.2843    0.0000 H   0  0  0  0  0  0  0  0  0  0  0  0
    5.9004   -0.5225    0.0000 H   0  0  0  0  0  0  0  0  0  0  0  0
    6.4553    0.7226    0.0000 H   0  0  0  0  0  0  0  0  0  0  0  0
    6.6326    1.5329    0.0000 H   0  0  0  0  0  0  0  0  0  0  0  0
    4.8301    0.4803    0.0000 H   0  0  0  0  0  0  0  0  0  0  0  0
    2.9175   -0.5340    0.0000 H   0  0  0  0  0  0  0  0  0  0  0  0
    2.6193   -1.2981    0.0000 H   0  0  0  0  0  0  0  0  0  0  0  0
    6.2701    2.3623    0.0000 H   0  0  0  0  0  0  0  0  0  0  0  0
    5.5550    2.7826    0.0000 H   0  0  0  0  0  0  0  0  0  0  0  0
    3.8746    2.1063    0.0000 H   0  0  0  0  0  0  0  0  0  0  0  0
    3.0260    1.8859    0.0000 H   0  0  0  0  0  0  0  0  0  0  0  0
    3.2464    1.0372    0.0000 H   0  0  0  0  0  0  0  0  0  0  0  0
    3.8826   -0.9672    0.0000 H   0  0  0  0  0  0  0  0  0  0  0  0
    6.7221    0.3366    0.0000 H   0  0  0  0  0  0  0  0  0  0  0  0
    2.2125    0.0245    0.0000 H   0  0  0  0  0  0  0  0  0  0  0  0
    3.8065   -5.0758    0.0000 H   0  0  0  0  0  0  0  0  0  0  0  0
    4.4289   -5.6934    0.0000 H   0  0  0  0  0  0  0  0  0  0  0  0
    5.0465   -5.0710    0.0000 H   0  0  0  0  0  0  0  0  0  0  0  0
    4.9119    3.8964    0.0000 H   0  0  0  0  0  0  0  0  0  0  0  0
    2.8090    2.0386    0.0000 H   0  0  0  0  0  0  0  0  0  0  0  0
    3.8393    5.1105    0.0000 H   0  0  0  0  0  0  0  0  0  0  0  0
  1 13  1  0  0  0  0
  1 26  1  0  0  0  0
  2 16  1  0  0  0  0
  2 26  1  0  0  0  0
 12  3  1  1  0  0  0
  3 59  1  0  0  0  0
  4 23  1  0  0  0  0
  4 26  1  0  0  0  0
 15  5  1  6  0  0  0
  5 60  1  0  0  0  0
  6 28  2  0  0  0  0
  7 32  1  0  0  0  0
  7 34  1  0  0  0  0
  8 34  2  0  0  0  0
  9 10  1  0  0  0  0
  9 13  1  0  0  0  0
  9 16  1  0  0  0  0
  9 28  1  1  0  0  0
 10 11  1  0  0  0  0
 10 15  1  0  0  0  0
 10 35  1  6  0  0  0
 11 12  1  0  0  0  0
 11 17  1  0  0  0  0
 11 36  1  1  0  0  0
 12 14  1  0  0  0  0
 12 22  1  0  0  0  0
 13 18  1  1  0  0  0
 13 21  1  0  0  0  0
 14 19  1  0  0  0  0
 14 20  1  0  0  0  0
 14 27  1  1  0  0  0
 15 19  1  0  0  0  0
 15 37  1  0  0  0  0
 16 24  1  0  0  0  0
 16 38  1  1  0  0  0
 17 18  1  0  0  0  0
 17 39  1  0  0  0  0
 17 40  1  0  0  0  0
 18 41  1  0  0  0  0
 18 42  1  0  0  0  0
 19 43  1  0  0  0  0
 19 44  1  0  0  0  0
 20 25  1  0  0  0  0
 20 29  1  1  0  0  0
 20 45  1  0  0  0  0
 21 23  1  0  0  0  0
 21 46  1  0  0  0  0
 21 47  1  0  0  0  0
 22 25  1  0  0  0  0
 22 48  1  0  0  0  0
 22 49  1  0  0  0  0
 23 24  1  0  0  0  0
 23 50  1  6  0  0  0
 24 51  1  0  0  0  0
 24 52  1  0  0  0  0
 25 53  1  0  0  0  0
 25 54  1  0  0  0  0
 26 30  1  0  0  0  0
 27 55  1  0  0  0  0
 27 56  1  0  0  0  0
 27 57  1  0  0  0  0
 28 58  1  0  0  0  0
 29 31  1  0  0  0  0
 29 32  2  0  0  0  0
 30 61  1  0  0  0  0
 30 62  1  0  0  0  0
 30 63  1  0  0  0  0
 31 33  2  0  0  0  0
 31 64  1  0  0  0  0
 32 65  1  0  0  0  0
 33 34  1  0  0  0  0
 33 66  1  0  0  0  0
M  END
> <PUBCHEM_COMPOUND_CID>
5462418

> <PUBCHEM_COMPOUND_CANONICALIZED>
1

> <PUBCHEM_CACTVS_COMPLEXITY>
1040

> <PUBCHEM_CACTVS_HBOND_ACCEPTOR>
8

> <PUBCHEM_CACTVS_HBOND_DONOR>
2

> <PUBCHEM_CACTVS_ROTATABLE_BOND>
2

> <PUBCHEM_CACTVS_SUBSKEYS>
AAADcfB4PAAAAAAAAAAAAAAAAAAAAYAAAAA0aNECAAAAAGDQAAAAGgAACAAAD1SggAICCAAABgCIAijSiAAACAAgIAAICAEAAEgYFBYAIQAiUAAFoAAMoYPK7PzPgAAAAAAAAADCAAYQADAAAYAADAAAAA==

> <PUBCHEM_IUPAC_INCHI>
InChI=1S/C26H32O8/c1-22-11-18(28)21-17(26(22,30)8-6-16(22)14-3-4-20(29)31-12-14)5-7-24-10-15-9-19(25(21,24)13-27)33-23(2,32-15)34-24/h3-4,12-13,15-19,21,28,30H,5-11H2,1-2H3/t15-,16+,17+,18+,19+,21+,22+,23?,24-,25+,26-/m0/s1

> <PUBCHEM_IUPAC_INCHIKEY>
BMRNQSAXDJQXEL-FGNGNWDISA-N

> <PUBCHEM_XLOGP3_AA>
0.6

> <PUBCHEM_EXACT_MASS>
472.209718

> <PUBCHEM_MOLECULAR_FORMULA>
C26H32O8

> <PUBCHEM_MOLECULAR_WEIGHT>
472.52748

> <PUBCHEM_OPENEYE_CAN_SMILES>
CC12CC(C3C(C1(CCC2C4=COC(=O)C=C4)O)CCC56C3(C7CC(C5)OC(O7)(O6)C)C=O)O

> <PUBCHEM_OPENEYE_ISO_SMILES>
C[C@]12C[C@H]([C@H]3[C@H]([C@]1(CC[C@@H]2C4=COC(=O)C=C4)O)CC[C@@]56[C@@]3([C@H]7C[C@@H](C5)OC(O7)(O6)C)C=O)O

> <PUBCHEM_CACTVS_TPSA>
112

> <PUBCHEM_MONOISOTOPIC_WEIGHT>
472.209718

> <PUBCHEM_TOTAL_CHARGE>
0

> <PUBCHEM_HEAVY_ATOM_COUNT>
34

> <PUBCHEM_ATOM_DEF_STEREO_COUNT>
10

> <PUBCHEM_ATOM_UDEF_STEREO_COUNT>
1

> <PUBCHEM_BOND_DEF_STEREO_COUNT>
0

> <PUBCHEM_BOND_UDEF_STEREO_COUNT>
0

> <PUBCHEM_ISOTOPIC_ATOM_COUNT>
0

> <PUBCHEM_COMPONENT_COUNT>
1

> <PUBCHEM_CACTVS_TAUTO_COUNT>
1

> <PUBCHEM_COORDINATE_TYPE>
1
5
255

> <PUBCHEM_BONDANNOTATIONS>
10  35  6
11  36  5
13  18  5
14  27  5
16  38  5
20  29  5
23  50  6
26  30  3
29  31  8
29  32  8
12  3  5
31  33  8
33  34  8
15  5  6
7  32  8
7  34  8
9  28  5

$$$$

