119582
  -OEChem-07051213042D

 87 87  0     1  0  0  0  0  0999 V2000
   12.0632   -3.5000    0.0000 O   0  0  0  0  0  0  0  0  0  0  0  0
    8.5991    2.5000    0.0000 O   0  0  0  0  0  0  0  0  0  0  0  0
   11.1972   -7.0000    0.0000 O   0  0  0  0  0  0  0  0  0  0  0  0
   12.9292   -4.0000    0.0000 O   0  0  0  0  0  0  0  0  0  0  0  0
    7.7331   -8.0000    0.0000 O   0  0  0  0  0  0  0  0  0  0  0  0
    9.4651  -11.0000    0.0000 O   0  0  0  0  0  0  0  0  0  0  0  0
    6.0010    4.0000    0.0000 N   0  0  0  0  0  0  0  0  0  0  0  0
   10.3312   -3.5000    0.0000 N   0  0  0  0  0  0  0  0  0  0  0  0
    7.7331    1.0000    0.0000 N   0  0  0  0  0  0  0  0  0  0  0  0
    4.2690    8.0000    0.0000 N   0  0  0  0  0  0  0  0  0  0  0  0
   10.3312   -5.5000    0.0000 N   0  0  0  0  0  0  0  0  0  0  0  0
    2.5369   11.0000    0.0000 N   0  0  0  0  0  0  0  0  0  0  0  0
   13.7953   -5.5000    0.0000 N   0  0  0  0  0  0  0  0  0  0  0  0
    9.4651   -1.0000    0.0000 C   0  0  0  0  0  0  0  0  0  0  0  0
    9.4651   -2.0000    0.0000 C   0  0  0  0  0  0  0  0  0  0  0  0
    8.5991   -0.5000    0.0000 C   0  0  0  0  0  0  0  0  0  0  0  0
    5.1350    5.5000    0.0000 C   0  0  0  0  0  0  0  0  0  0  0  0
    5.1350    6.5000    0.0000 C   0  0  0  0  0  0  0  0  0  0  0  0
   10.3312   -2.5000    0.0000 C   0  0  0  0  0  0  0  0  0  0  0  0
    8.5991    0.5000    0.0000 C   0  0  0  0  0  0  0  0  0  0  0  0
    6.0010    5.0000    0.0000 C   0  0  0  0  0  0  0  0  0  0  0  0
    4.2690    7.0000    0.0000 C   0  0  0  0  0  0  0  0  0  0  0  0
    6.8671    3.5000    0.0000 C   0  0  0  0  0  0  0  0  0  0  0  0
   11.1972   -5.0000    0.0000 C   0  0  2  0  0  0  0  0  0  0  0  0
    6.8671    2.5000    0.0000 C   0  0  0  0  0  0  0  0  0  0  0  0
    3.4030    8.5000    0.0000 C   0  0  0  0  0  0  0  0  0  0  0  0
   11.1972   -4.0000    0.0000 C   0  0  0  0  0  0  0  0  0  0  0  0
    7.7331    2.0000    0.0000 C   0  0  0  0  0  0  0  0  0  0  0  0
   12.0632   -5.5000    0.0000 C   0  0  0  0  0  0  0  0  0  0  0  0
    3.4030    9.5000    0.0000 C   0  0  0  0  0  0  0  0  0  0  0  0
    2.5369   10.0000    0.0000 C   0  0  0  0  0  0  0  0  0  0  0  0
   10.3312   -6.5000    0.0000 C   0  0  0  0  0  0  0  0  0  0  0  0
    9.4651   -7.0000    0.0000 C   0  0  0  0  0  0  0  0  0  0  0  0
   12.9292   -5.0000    0.0000 C   0  0  0  0  0  0  0  0  0  0  0  0
    9.4651   -8.0000    0.0000 C   0  0  0  0  0  0  0  0  0  0  0  0
    8.5991   -8.5000    0.0000 C   0  0  0  0  0  0  0  0  0  0  0  0
   10.3312   -8.5000    0.0000 C   0  0  0  0  0  0  0  0  0  0  0  0
    8.5991   -9.5000    0.0000 C   0  0  0  0  0  0  0  0  0  0  0  0
   10.3312   -9.5000    0.0000 C   0  0  0  0  0  0  0  0  0  0  0  0
    9.4651  -10.0000    0.0000 C   0  0  0  0  0  0  0  0  0  0  0  0
   10.0757   -1.1077    0.0000 H   0  0  0  0  0  0  0  0  0  0  0  0
    9.6772   -0.4174    0.0000 H   0  0  0  0  0  0  0  0  0  0  0  0
    8.8546   -1.8923    0.0000 H   0  0  0  0  0  0  0  0  0  0  0  0
    9.2531   -2.5826    0.0000 H   0  0  0  0  0  0  0  0  0  0  0  0
    7.9885   -0.3923    0.0000 H   0  0  0  0  0  0  0  0  0  0  0  0
    8.3871   -1.0826    0.0000 H   0  0  0  0  0  0  0  0  0  0  0  0
    4.5244    5.6077    0.0000 H   0  0  0  0  0  0  0  0  0  0  0  0
    4.9230    4.9174    0.0000 H   0  0  0  0  0  0  0  0  0  0  0  0
    5.7456    6.3923    0.0000 H   0  0  0  0  0  0  0  0  0  0  0  0
    5.3471    7.0826    0.0000 H   0  0  0  0  0  0  0  0  0  0  0  0
   10.9417   -2.6077    0.0000 H   0  0  0  0  0  0  0  0  0  0  0  0
   10.5432   -1.9174    0.0000 H   0  0  0  0  0  0  0  0  0  0  0  0
    9.2097    0.3923    0.0000 H   0  0  0  0  0  0  0  0  0  0  0  0
    8.8112    1.0826    0.0000 H   0  0  0  0  0  0  0  0  0  0  0  0
    6.6116    4.8923    0.0000 H   0  0  0  0  0  0  0  0  0  0  0  0
    6.2131    5.5826    0.0000 H   0  0  0  0  0  0  0  0  0  0  0  0
    3.6584    7.1077    0.0000 H   0  0  0  0  0  0  0  0  0  0  0  0
    4.0569    6.4174    0.0000 H   0  0  0  0  0  0  0  0  0  0  0  0
    7.4776    3.3923    0.0000 H   0  0  0  0  0  0  0  0  0  0  0  0
    7.0791    4.0826    0.0000 H   0  0  0  0  0  0  0  0  0  0  0  0
   10.6603   -4.6900    0.0000 H   0  0  0  0  0  0  0  0  0  0  0  0
    5.4641    3.6900    0.0000 H   0  0  0  0  0  0  0  0  0  0  0  0
    6.2565    2.6077    0.0000 H   0  0  0  0  0  0  0  0  0  0  0  0
    6.6550    1.9174    0.0000 H   0  0  0  0  0  0  0  0  0  0  0  0
    9.7942   -3.8100    0.0000 H   0  0  0  0  0  0  0  0  0  0  0  0
    7.1962    0.6900    0.0000 H   0  0  0  0  0  0  0  0  0  0  0  0
    4.8059    8.3100    0.0000 H   0  0  0  0  0  0  0  0  0  0  0  0
    2.7924    8.6077    0.0000 H   0  0  0  0  0  0  0  0  0  0  0  0
    3.1909    7.9174    0.0000 H   0  0  0  0  0  0  0  0  0  0  0  0
   11.6647   -5.9750    0.0000 H   0  0  0  0  0  0  0  0  0  0  0  0
   12.4617   -5.9750    0.0000 H   0  0  0  0  0  0  0  0  0  0  0  0
    4.0135    9.3923    0.0000 H   0  0  0  0  0  0  0  0  0  0  0  0
    3.6150   10.0826    0.0000 H   0  0  0  0  0  0  0  0  0  0  0  0
    9.7942   -5.1900    0.0000 H   0  0  0  0  0  0  0  0  0  0  0  0
    1.9264   10.1077    0.0000 H   0  0  0  0  0  0  0  0  0  0  0  0
    2.3249    9.4174    0.0000 H   0  0  0  0  0  0  0  0  0  0  0  0
    9.2531   -6.4174    0.0000 H   0  0  0  0  0  0  0  0  0  0  0  0
    8.8546   -7.1077    0.0000 H   0  0  0  0  0  0  0  0  0  0  0  0
    2.0000   11.3100    0.0000 H   0  0  0  0  0  0  0  0  0  0  0  0
    3.0739   11.3100    0.0000 H   0  0  0  0  0  0  0  0  0  0  0  0
   10.8681   -8.1900    0.0000 H   0  0  0  0  0  0  0  0  0  0  0  0
   14.3322   -5.1900    0.0000 H   0  0  0  0  0  0  0  0  0  0  0  0
   13.7953   -6.1200    0.0000 H   0  0  0  0  0  0  0  0  0  0  0  0
    8.0622   -9.8100    0.0000 H   0  0  0  0  0  0  0  0  0  0  0  0
   10.8681   -9.8100    0.0000 H   0  0  0  0  0  0  0  0  0  0  0  0
    7.1962   -8.3100    0.0000 H   0  0  0  0  0  0  0  0  0  0  0  0
   10.0021  -11.3100    0.0000 H   0  0  0  0  0  0  0  0  0  0  0  0
  1 27  2  0  0  0  0
  2 28  2  0  0  0  0
  3 32  2  0  0  0  0
  4 34  2  0  0  0  0
  5 36  1  0  0  0  0
  5 86  1  0  0  0  0
  6 40  1  0  0  0  0
  6 87  1  0  0  0  0
  7 21  1  0  0  0  0
  7 23  1  0  0  0  0
  7 62  1  0  0  0  0
  8 19  1  0  0  0  0
  8 27  1  0  0  0  0
  8 65  1  0  0  0  0
  9 20  1  0  0  0  0
  9 28  1  0  0  0  0
  9 66  1  0  0  0  0
 10 22  1  0  0  0  0
 10 26  1  0  0  0  0
 10 67  1  0  0  0  0
 24 11  1  6  0  0  0
 11 32  1  0  0  0  0
 11 74  1  0  0  0  0
 12 31  1  0  0  0  0
 12 79  1  0  0  0  0
 12 80  1  0  0  0  0
 13 34  1  0  0  0  0
 13 82  1  0  0  0  0
 13 83  1  0  0  0  0
 14 15  1  0  0  0  0
 14 16  1  0  0  0  0
 14 41  1  0  0  0  0
 14 42  1  0  0  0  0
 15 19  1  0  0  0  0
 15 43  1  0  0  0  0
 15 44  1  0  0  0  0
 16 20  1  0  0  0  0
 16 45  1  0  0  0  0
 16 46  1  0  0  0  0
 17 18  1  0  0  0  0
 17 21  1  0  0  0  0
 17 47  1  0  0  0  0
 17 48  1  0  0  0  0
 18 22  1  0  0  0  0
 18 49  1  0  0  0  0
 18 50  1  0  0  0  0
 19 51  1  0  0  0  0
 19 52  1  0  0  0  0
 20 53  1  0  0  0  0
 20 54  1  0  0  0  0
 21 55  1  0  0  0  0
 21 56  1  0  0  0  0
 22 57  1  0  0  0  0
 22 58  1  0  0  0  0
 23 25  1  0  0  0  0
 23 59  1  0  0  0  0
 23 60  1  0  0  0  0
 24 27  1  0  0  0  0
 24 29  1  0  0  0  0
 24 61  1  0  0  0  0
 25 28  1  0  0  0  0
 25 63  1  0  0  0  0
 25 64  1  0  0  0  0
 26 30  1  0  0  0  0
 26 68  1  0  0  0  0
 26 69  1  0  0  0  0
 29 34  1  0  0  0  0
 29 70  1  0  0  0  0
 29 71  1  0  0  0  0
 30 31  1  0  0  0  0
 30 72  1  0  0  0  0
 30 73  1  0  0  0  0
 31 75  1  0  0  0  0
 31 76  1  0  0  0  0
 32 33  1  0  0  0  0
 33 35  1  0  0  0  0
 33 77  1  0  0  0  0
 33 78  1  0  0  0  0
 35 36  2  0  0  0  0
 35 37  1  0  0  0  0
 36 38  1  0  0  0  0
 37 39  2  0  0  0  0
 37 81  1  0  0  0  0
 38 40  2  0  0  0  0
 38 84  1  0  0  0  0
 39 40  1  0  0  0  0
 39 85  1  0  0  0  0
M  END
> <PUBCHEM_COMPOUND_CID>
119582

> <PUBCHEM_COMPOUND_CANONICALIZED>
1

> <PUBCHEM_CACTVS_COMPLEXITY>
742

> <PUBCHEM_CACTVS_HBOND_ACCEPTOR>
9

> <PUBCHEM_CACTVS_HBOND_DONOR>
9

> <PUBCHEM_CACTVS_ROTATABLE_BOND>
23

> <PUBCHEM_CACTVS_SUBSKEYS>
AAADcfB7uAAAAAAAAAAAAAAAAAAAAAAAAAAwAAAAAAAAAAABAAAAHgAQCAAADCzBmAQwBoLAAgCIAiFSEAACAAAgIAAIiIGOCIgIZzqC1TOUcAAl1hWImAe/6KSOIAAACAAIAABAAAAQABAAAAAAAAAAAA==

> <PUBCHEM_IUPAC_OPENEYE_NAME>
(2S)-N-[5-[3-[4-(3-aminopropylamino)butylamino]propanoylamino]pentyl]-2-[[2-(2,4-dihydroxyphenyl)acetyl]amino]butanediamide

> <PUBCHEM_IUPAC_CAS_NAME>
(2S)-N-[5-[[3-[4-(3-aminopropylamino)butylamino]-1-oxopropyl]amino]pentyl]-2-[[2-(2,4-dihydroxyphenyl)-1-oxoethyl]amino]butanediamide

> <PUBCHEM_IUPAC_NAME>
(2S)-N-[5-[3-[4-(3-aminopropylamino)butylamino]propanoylamino]pentyl]-2-[[2-(2,4-dihydroxyphenyl)acetyl]amino]butanediamide

> <PUBCHEM_IUPAC_SYSTEMATIC_NAME>
(2S)-N-[5-[3-[4-(3-azanylpropylamino)butylamino]propanoylamino]pentyl]-2-[2-[2,4-bis(oxidanyl)phenyl]ethanoylamino]butanediamide

> <PUBCHEM_IUPAC_TRADITIONAL_NAME>
(2S)-N-[5-[3-[4-(3-aminopropylamino)butylamino]propanoylamino]pentyl]-2-[[2-(2,4-dihydroxyphenyl)acetyl]amino]succinamide

> <PUBCHEM_IUPAC_INCHI>
InChI=1S/C27H47N7O6/c28-10-6-13-30-11-4-5-12-31-16-9-25(38)32-14-2-1-3-15-33-27(40)22(19-24(29)37)34-26(39)17-20-7-8-21(35)18-23(20)36/h7-8,18,22,30-31,35-36H,1-6,9-17,19,28H2,(H2,29,37)(H,32,38)(H,33,40)(H,34,39)/t22-/m0/s1

> <PUBCHEM_IUPAC_INCHIKEY>
SJLRBGDPTALRDM-QFIPXVFZSA-N

> <PUBCHEM_XLOGP3_AA>
-1.8

> <PUBCHEM_EXACT_MASS>
565.358782

> <PUBCHEM_MOLECULAR_FORMULA>
C27H47N7O6

> <PUBCHEM_MOLECULAR_WEIGHT>
565.70538

> <PUBCHEM_OPENEYE_CAN_SMILES>
C1=CC(=C(C=C1O)O)CC(=O)NC(CC(=O)N)C(=O)NCCCCCNC(=O)CCNCCCCNCCCN

> <PUBCHEM_OPENEYE_ISO_SMILES>
C1=CC(=C(C=C1O)O)CC(=O)N[C@@H](CC(=O)N)C(=O)NCCCCCNC(=O)CCNCCCCNCCCN

> <PUBCHEM_CACTVS_TPSA>
221

> <PUBCHEM_MONOISOTOPIC_WEIGHT>
565.358782

> <PUBCHEM_TOTAL_CHARGE>
0

> <PUBCHEM_HEAVY_ATOM_COUNT>
40

> <PUBCHEM_ATOM_DEF_STEREO_COUNT>
1

> <PUBCHEM_ATOM_UDEF_STEREO_COUNT>
0

> <PUBCHEM_BOND_DEF_STEREO_COUNT>
0

> <PUBCHEM_BOND_UDEF_STEREO_COUNT>
0

> <PUBCHEM_ISOTOPIC_ATOM_COUNT>
0

> <PUBCHEM_COMPONENT_COUNT>
1

> <PUBCHEM_CACTVS_TAUTO_COUNT>
216

> <PUBCHEM_COORDINATE_TYPE>
1
5
255

> <PUBCHEM_BONDANNOTATIONS>
24  11  6
35  36  8
35  37  8
36  38  8
37  39  8
38  40  8
39  40  8

$$$$

