1978
  -OEChem-07051212523D

 52 52  0     1  0  0  0  0  0999 V2000
    1.9616    1.3889    0.7215 O   0  0  0  0  0  0  0  0  0  0  0  0
    4.6059    1.8639    1.4409 O   0  0  0  0  0  0  0  0  0  0  0  0
    2.1121    2.1441   -1.8480 O   0  0  0  0  0  0  0  0  0  0  0  0
   -4.2584   -0.2762    1.6363 O   0  0  0  0  0  0  0  0  0  0  0  0
    3.7381   -1.6582    0.6982 N   0  0  0  0  0  0  0  0  0  0  0  0
   -3.3247    0.1202   -0.4812 N   0  0  0  0  0  0  0  0  0  0  0  0
    4.0054    0.5919    1.7010 C   0  0  2  0  0  0  0  0  0  0  0  0
    4.3435   -0.3432    0.5375 C   0  0  0  0  0  0  0  0  0  0  0  0
    4.0283   -2.5088   -0.4481 C   0  0  0  0  0  0  0  0  0  0  0  0
    2.5046    0.7940    1.8981 C   0  0  0  0  0  0  0  0  0  0  0  0
    3.1006   -2.1652   -1.6100 C   0  0  0  0  0  0  0  0  0  0  0  0
    3.8820   -3.9725   -0.0443 C   0  0  0  0  0  0  0  0  0  0  0  0
    0.6705    1.0808    0.4117 C   0  0  0  0  0  0  0  0  0  0  0  0
    0.2389    1.0561   -0.9145 C   0  0  0  0  0  0  0  0  0  0  0  0
   -1.9801    0.4439   -0.1810 C   0  0  0  0  0  0  0  0  0  0  0  0
   -1.0863    0.7376   -1.2108 C   0  0  0  0  0  0  0  0  0  0  0  0
   -0.2233    0.7869    1.4416 C   0  0  0  0  0  0  0  0  0  0  0  0
   -1.5485    0.4685    1.1453 C   0  0  0  0  0  0  0  0  0  0  0  0
   -5.6412   -0.4807   -0.3285 C   0  0  0  0  0  0  0  0  0  0  0  0
   -6.8116   -0.8383    0.5848 C   0  0  0  0  0  0  0  0  0  0  0  0
    1.1561    1.3602   -2.0041 C   0  0  0  0  0  0  0  0  0  0  0  0
   -4.3416   -0.1971    0.4151 C   0  0  0  0  0  0  0  0  0  0  0  0
   -8.0929   -1.1146   -0.1892 C   0  0  0  0  0  0  0  0  0  0  0  0
    0.9609    0.7180   -3.3722 C   0  0  0  0  0  0  0  0  0  0  0  0
    4.4448    0.2072    2.6284 H   0  0  0  0  0  0  0  0  0  0  0  0
    5.4363   -0.4305    0.4725 H   0  0  0  0  0  0  0  0  0  0  0  0
    4.0280    0.1336   -0.3976 H   0  0  0  0  0  0  0  0  0  0  0  0
    5.0688   -2.3762   -0.7727 H   0  0  0  0  0  0  0  0  0  0  0  0
    4.1015   -2.0820    1.5518 H   0  0  0  0  0  0  0  0  0  0  0  0
    2.3395    1.4883    2.7305 H   0  0  0  0  0  0  0  0  0  0  0  0
    2.0457   -0.1731    2.1367 H   0  0  0  0  0  0  0  0  0  0  0  0
    2.0470   -2.2358   -1.3163 H   0  0  0  0  0  0  0  0  0  0  0  0
    3.2777   -1.1569   -1.9957 H   0  0  0  0  0  0  0  0  0  0  0  0
    3.2577   -2.8585   -2.4439 H   0  0  0  0  0  0  0  0  0  0  0  0
    2.8641   -4.1960    0.2951 H   0  0  0  0  0  0  0  0  0  0  0  0
    4.5736   -4.2311    0.7653 H   0  0  0  0  0  0  0  0  0  0  0  0
    4.1045   -4.6316   -0.8907 H   0  0  0  0  0  0  0  0  0  0  0  0
    4.1840    2.2341    0.6466 H   0  0  0  0  0  0  0  0  0  0  0  0
   -1.4427    0.7276   -2.2380 H   0  0  0  0  0  0  0  0  0  0  0  0
    0.0601    0.8278    2.4893 H   0  0  0  0  0  0  0  0  0  0  0  0
   -2.1824    0.2626    1.9960 H   0  0  0  0  0  0  0  0  0  0  0  0
   -5.4575   -1.3044   -1.0293 H   0  0  0  0  0  0  0  0  0  0  0  0
   -5.8945    0.4086   -0.9185 H   0  0  0  0  0  0  0  0  0  0  0  0
   -3.5590    0.1279   -1.4716 H   0  0  0  0  0  0  0  0  0  0  0  0
   -6.9895   -0.0206    1.2935 H   0  0  0  0  0  0  0  0  0  0  0  0
   -6.5565   -1.7213    1.1829 H   0  0  0  0  0  0  0  0  0  0  0  0
   -8.3964   -0.2367   -0.7683 H   0  0  0  0  0  0  0  0  0  0  0  0
   -8.9054   -1.3664    0.4994 H   0  0  0  0  0  0  0  0  0  0  0  0
   -7.9590   -1.9532   -0.8798 H   0  0  0  0  0  0  0  0  0  0  0  0
    0.2999    1.3409   -3.9794 H   0  0  0  0  0  0  0  0  0  0  0  0
    0.5515   -0.2910   -3.2730 H   0  0  0  0  0  0  0  0  0  0  0  0
    1.9337    0.6290   -3.8655 H   0  0  0  0  0  0  0  0  0  0  0  0
  1 10  1  0  0  0  0
  1 13  1  0  0  0  0
  2  7  1  0  0  0  0
  2 38  1  0  0  0  0
  3 21  2  0  0  0  0
  4 22  2  0  0  0  0
  5  8  1  0  0  0  0
  5  9  1  0  0  0  0
  5 29  1  0  0  0  0
  6 15  1  0  0  0  0
  6 22  1  0  0  0  0
  6 44  1  0  0  0  0
  7  8  1  0  0  0  0
  7 10  1  0  0  0  0
  7 25  1  0  0  0  0
  8 26  1  0  0  0  0
  8 27  1  0  0  0  0
  9 11  1  0  0  0  0
  9 12  1  0  0  0  0
  9 28  1  0  0  0  0
 10 30  1  0  0  0  0
 10 31  1  0  0  0  0
 11 32  1  0  0  0  0
 11 33  1  0  0  0  0
 11 34  1  0  0  0  0
 12 35  1  0  0  0  0
 12 36  1  0  0  0  0
 12 37  1  0  0  0  0
 13 14  2  0  0  0  0
 13 17  1  0  0  0  0
 14 16  1  0  0  0  0
 14 21  1  0  0  0  0
 15 16  2  0  0  0  0
 15 18  1  0  0  0  0
 16 39  1  0  0  0  0
 17 18  2  0  0  0  0
 17 40  1  0  0  0  0
 18 41  1  0  0  0  0
 19 20  1  0  0  0  0
 19 22  1  0  0  0  0
 19 42  1  0  0  0  0
 19 43  1  0  0  0  0
 20 23  1  0  0  0  0
 20 45  1  0  0  0  0
 20 46  1  0  0  0  0
 21 24  1  0  0  0  0
 23 47  1  0  0  0  0
 23 48  1  0  0  0  0
 23 49  1  0  0  0  0
 24 50  1  0  0  0  0
 24 51  1  0  0  0  0
 24 52  1  0  0  0  0
M  END
> <PUBCHEM_COMPOUND_CID>
1978

> <PUBCHEM_CONFORMER_RMSD>
1

> <PUBCHEM_CONFORMER_DIVERSEORDER>
1
53
61
92
55
85
46
28
31
58
66
77
73
94
76
88
90
84
42
60
34
47
79
25
67
27
50
89
7
57
72
48
56
30
93
62
68
24
81
29
69
18
65
64
15
35
52
10
49
83
11
44
9
45
51
4
82
33
12
86
91
74
16
59
8
40
23
21
5
71
63
43
13
19
36
54
80
38
37
32
78
26
2
87
3
14
70
6
17
39
75
41
22
20

> <PUBCHEM_MMFF94_PARTIAL_CHARGES>
26
1 -0.36
10 0.28
13 0.08
14 0.09
15 0.12
16 -0.15
17 -0.15
18 -0.15
19 0.06
2 -0.68
21 0.42
22 0.57
24 0.06
29 0.36
3 -0.57
38 0.4
39 0.15
4 -0.57
40 0.15
41 0.15
44 0.37
5 -0.9
6 -0.55
7 0.28
8 0.27
9 0.27

> <PUBCHEM_EFFECTIVE_ROTOR_COUNT>
11

> <PUBCHEM_PHARMACOPHORE_FEATURES>
11
1 1 acceptor
1 2 acceptor
1 2 donor
1 23 hydrophobe
1 3 acceptor
1 4 acceptor
1 5 cation
1 5 donor
1 6 donor
3 9 11 12 hydrophobe
6 13 14 15 16 17 18 rings

> <PUBCHEM_HEAVY_ATOM_COUNT>
24

> <PUBCHEM_ATOM_DEF_STEREO_COUNT>
0

> <PUBCHEM_ATOM_UDEF_STEREO_COUNT>
1

> <PUBCHEM_BOND_DEF_STEREO_COUNT>
0

> <PUBCHEM_BOND_UDEF_STEREO_COUNT>
0

> <PUBCHEM_ISOTOPIC_ATOM_COUNT>
0

> <PUBCHEM_COMPONENT_COUNT>
1

> <PUBCHEM_CACTVS_TAUTO_COUNT>
4

> <PUBCHEM_CONFORMER_ID>
000007BA00000001

> <PUBCHEM_MMFF94_ENERGY>
53.4098

> <PUBCHEM_FEATURE_SELFOVERLAP>
55.829

> <PUBCHEM_SHAPE_FINGERPRINT>
11954058 11 18261667172868317494
12617007 42 17346596365851731836
12623949 98 18260826059447979462
12633257 1 17386015017470361190
13533116 47 18040719164610650251
13583140 156 17896057549310348568
14211702 104 18267581317888661995
14251757 52 10015592701442733807
15183329 4 16774079592349302703
15342816 4 17274548727843349704
15475509 35 18333449867535286887
15475509 8 17416118610930805221
15664445 248 17489583502664018932
1813 80 17703792552045870485
18222031 100 17704072906220648769
19377110 9 14562535085669393701
20388580 30 17846208981819182108
20397935 70 18334294262458384235
20567600 75 18337963371821043461
212916 134 4750862741563792828
21421861 104 17240195555952739958
22956985 138 16010693148418520228
23016692 55 16988846090337721979
23557571 272 17632021965609392436
25222932 49 17532663321354192783
29717793 49 17989491788907784957
3004659 81 14333139597593666224
345986 75 17241052131609571538
4072396 5 15791451530620339657
4093350 32 18201718410113755693
427121 178 5473134120657682380
4340502 62 18113909212975908808
465052 167 17313103064063070994
5104073 3 15358515525023920363
513532 50 17131542843498608006
56616090 13 9438817483737837002
8988823 20 18113338604605168585

> <PUBCHEM_SHAPE_MULTIPOLES>
460.47
14.36
2.63
2.3
31.32
2.91
-1.68
9.42
4.3
-5.33
-0.24
-1.92
-1.09
0.78

> <PUBCHEM_SHAPE_SELFOVERLAP>
922.946

> <PUBCHEM_SHAPE_VOLUME>
271.9

> <PUBCHEM_COORDINATE_TYPE>
2
5
10

$$$$

