17396314
  -OEChem-06241222552D

 52 54  0     0  0  0  0  0  0999 V2000
    6.3092   -2.6307    0.0000 S   0  0  0  0  0  0  0  0  0  0  0  0
    8.9073   -1.1307    0.0000 O   0  0  0  0  0  0  0  0  0  0  0  0
   10.6394   -0.1307    0.0000 O   0  0  0  0  0  0  0  0  0  0  0  0
   11.8557    3.6126    0.0000 O   0  0  0  0  0  0  0  0  0  0  0  0
    4.4727   -1.6362    0.0000 O   0  0  0  0  0  0  0  0  0  0  0  0
    7.1753   -1.1307    0.0000 O   0  0  0  0  0  0  0  0  0  0  0  0
    8.9643    1.9571    0.0000 N   0  0  0  0  0  0  0  0  0  0  0  0
    3.4945   -1.4283    0.0000 N   0  0  0  0  0  0  0  0  0  0  0  0
   10.5824    1.9571    0.0000 C   0  0  0  0  0  0  0  0  0  0  0  0
   10.2734    2.9081    0.0000 C   0  0  0  0  0  0  0  0  0  0  0  0
    9.7734    1.3693    0.0000 C   0  0  0  0  0  0  0  0  0  0  0  0
    9.2734    2.9081    0.0000 C   0  0  0  0  0  0  0  0  0  0  0  0
   11.5334    1.6481    0.0000 C   0  0  0  0  0  0  0  0  0  0  0  0
    9.7734    0.3693    0.0000 C   0  0  0  0  0  0  0  0  0  0  0  0
    8.6856    3.7172    0.0000 C   0  0  0  0  0  0  0  0  0  0  0  0
   10.8611    3.7172    0.0000 C   0  0  0  0  0  0  0  0  0  0  0  0
    8.9073   -0.1307    0.0000 C   0  0  0  0  0  0  0  0  0  0  0  0
   10.4544    4.6307    0.0000 C   0  0  0  0  0  0  0  0  0  0  0  0
    8.0413   -2.6307    0.0000 C   0  0  0  0  0  0  0  0  0  0  0  0
    7.1753   -3.1307    0.0000 C   0  0  0  0  0  0  0  0  0  0  0  0
    8.0413   -1.6307    0.0000 C   0  0  0  0  0  0  0  0  0  0  0  0
    5.4432   -3.1307    0.0000 C   0  0  0  0  0  0  0  0  0  0  0  0
    8.9073   -3.1307    0.0000 C   0  0  0  0  0  0  0  0  0  0  0  0
    7.1753   -4.1307    0.0000 C   0  0  0  0  0  0  0  0  0  0  0  0
    4.5772   -2.6307    0.0000 C   0  0  0  0  0  0  0  0  0  0  0  0
    8.9073   -4.1307    0.0000 C   0  0  0  0  0  0  0  0  0  0  0  0
    8.0413   -4.6307    0.0000 C   0  0  0  0  0  0  0  0  0  0  0  0
    3.6636   -3.0374    0.0000 C   0  0  0  0  0  0  0  0  0  0  0  0
    2.9945   -2.2943    0.0000 C   0  0  0  0  0  0  0  0  0  0  0  0
    2.0000   -2.3988    0.0000 C   0  0  0  0  0  0  0  0  0  0  0  0
    8.3747    1.7655    0.0000 H   0  0  0  0  0  0  0  0  0  0  0  0
   11.3418    1.0584    0.0000 H   0  0  0  0  0  0  0  0  0  0  0  0
   12.1231    1.4565    0.0000 H   0  0  0  0  0  0  0  0  0  0  0  0
   11.7250    2.2377    0.0000 H   0  0  0  0  0  0  0  0  0  0  0  0
    9.1872    4.0816    0.0000 H   0  0  0  0  0  0  0  0  0  0  0  0
    8.3211    4.2188    0.0000 H   0  0  0  0  0  0  0  0  0  0  0  0
    8.1840    3.3527    0.0000 H   0  0  0  0  0  0  0  0  0  0  0  0
    8.6953    0.4519    0.0000 H   0  0  0  0  0  0  0  0  0  0  0  0
    8.2967   -0.2384    0.0000 H   0  0  0  0  0  0  0  0  0  0  0  0
   11.0208    4.8829    0.0000 H   0  0  0  0  0  0  0  0  0  0  0  0
   10.2022    5.1971    0.0000 H   0  0  0  0  0  0  0  0  0  0  0  0
    9.8880    4.3785    0.0000 H   0  0  0  0  0  0  0  0  0  0  0  0
    5.0447   -3.6056    0.0000 H   0  0  0  0  0  0  0  0  0  0  0  0
    5.8418   -3.6056    0.0000 H   0  0  0  0  0  0  0  0  0  0  0  0
    9.4443   -2.8207    0.0000 H   0  0  0  0  0  0  0  0  0  0  0  0
    6.6383   -4.4407    0.0000 H   0  0  0  0  0  0  0  0  0  0  0  0
    9.4443   -4.4407    0.0000 H   0  0  0  0  0  0  0  0  0  0  0  0
    8.0413   -5.2507    0.0000 H   0  0  0  0  0  0  0  0  0  0  0  0
    3.5348   -3.6439    0.0000 H   0  0  0  0  0  0  0  0  0  0  0  0
    1.9352   -1.7822    0.0000 H   0  0  0  0  0  0  0  0  0  0  0  0
    1.3834   -2.4636    0.0000 H   0  0  0  0  0  0  0  0  0  0  0  0
    2.0648   -3.0154    0.0000 H   0  0  0  0  0  0  0  0  0  0  0  0
  1 20  1  0  0  0  0
  1 22  1  0  0  0  0
  2 17  1  0  0  0  0
  2 21  1  0  0  0  0
  3 14  2  0  0  0  0
  4 16  2  0  0  0  0
  5  8  1  0  0  0  0
  5 25  1  0  0  0  0
  6 21  2  0  0  0  0
  7 11  1  0  0  0  0
  7 12  1  0  0  0  0
  7 31  1  0  0  0  0
  8 29  2  0  0  0  0
  9 10  1  0  0  0  0
  9 11  2  0  0  0  0
  9 13  1  0  0  0  0
 10 12  2  0  0  0  0
 10 16  1  0  0  0  0
 11 14  1  0  0  0  0
 12 15  1  0  0  0  0
 13 32  1  0  0  0  0
 13 33  1  0  0  0  0
 13 34  1  0  0  0  0
 14 17  1  0  0  0  0
 15 35  1  0  0  0  0
 15 36  1  0  0  0  0
 15 37  1  0  0  0  0
 16 18  1  0  0  0  0
 17 38  1  0  0  0  0
 17 39  1  0  0  0  0
 18 40  1  0  0  0  0
 18 41  1  0  0  0  0
 18 42  1  0  0  0  0
 19 20  1  0  0  0  0
 19 21  1  0  0  0  0
 19 23  2  0  0  0  0
 20 24  2  0  0  0  0
 22 25  1  0  0  0  0
 22 43  1  0  0  0  0
 22 44  1  0  0  0  0
 23 26  1  0  0  0  0
 23 45  1  0  0  0  0
 24 27  1  0  0  0  0
 24 46  1  0  0  0  0
 25 28  2  0  0  0  0
 26 27  2  0  0  0  0
 26 47  1  0  0  0  0
 27 48  1  0  0  0  0
 28 29  1  0  0  0  0
 28 49  1  0  0  0  0
 29 30  1  0  0  0  0
 30 50  1  0  0  0  0
 30 51  1  0  0  0  0
 30 52  1  0  0  0  0
M  END
> <PUBCHEM_COMPOUND_CID>
17396314

> <PUBCHEM_COMPOUND_CANONICALIZED>
1

> <PUBCHEM_CACTVS_COMPLEXITY>
645

> <PUBCHEM_CACTVS_HBOND_ACCEPTOR>
7

> <PUBCHEM_CACTVS_HBOND_DONOR>
1

> <PUBCHEM_CACTVS_ROTATABLE_BOND>
9

> <PUBCHEM_CACTVS_SUBSKEYS>
AAADceB7OABAAAAAAAAAAAAAAAAAAWLAAAAwAAAAAAAAAAAB8AAAHgQUAAAADAyl3gKyjZLZlAipA6TyTgKCgCAnKjAomTn2bNoIJnrgtb+GMYhm0Bno6cecyzC+gAAAAAAEAAAAAAAAAAgAAAAAAAAAAA==

> <PUBCHEM_IUPAC_OPENEYE_NAME>
[2-(4-acetyl-3,5-dimethyl-1H-pyrrol-2-yl)-2-oxo-ethyl] 2-[(3-methylisoxazol-5-yl)methylsulfanyl]benzoate

> <PUBCHEM_IUPAC_CAS_NAME>
2-[(3-methyl-5-isoxazolyl)methylthio]benzoic acid [2-(4-acetyl-3,5-dimethyl-1H-pyrrol-2-yl)-2-oxoethyl] ester

> <PUBCHEM_IUPAC_NAME>
[2-(4-acetyl-3,5-dimethyl-1H-pyrrol-2-yl)-2-oxoethyl] 2-[(3-methyl-1,2-oxazol-5-yl)methylsulfanyl]benzoate

> <PUBCHEM_IUPAC_SYSTEMATIC_NAME>
[2-(4-ethanoyl-3,5-dimethyl-1H-pyrrol-2-yl)-2-oxidanylidene-ethyl] 2-[(3-methyl-1,2-oxazol-5-yl)methylsulfanyl]benzoate

> <PUBCHEM_IUPAC_TRADITIONAL_NAME>
2-[(3-methylisoxazol-5-yl)methylthio]benzoic acid [2-(4-acetyl-3,5-dimethyl-1H-pyrrol-2-yl)-2-keto-ethyl] ester

> <PUBCHEM_IUPAC_INCHI>
InChI=1S/C22H22N2O5S/c1-12-9-16(29-24-12)11-30-19-8-6-5-7-17(19)22(27)28-10-18(26)21-13(2)20(15(4)25)14(3)23-21/h5-9,23H,10-11H2,1-4H3

> <PUBCHEM_IUPAC_INCHIKEY>
FLPFRNGMWNDKDW-UHFFFAOYSA-N

> <PUBCHEM_XLOGP3_AA>
3.6

> <PUBCHEM_EXACT_MASS>
426.124943

> <PUBCHEM_MOLECULAR_FORMULA>
C22H22N2O5S

> <PUBCHEM_MOLECULAR_WEIGHT>
426.48548

> <PUBCHEM_OPENEYE_CAN_SMILES>
CC1=NOC(=C1)CSC2=CC=CC=C2C(=O)OCC(=O)C3=C(C(=C(N3)C)C(=O)C)C

> <PUBCHEM_OPENEYE_ISO_SMILES>
CC1=NOC(=C1)CSC2=CC=CC=C2C(=O)OCC(=O)C3=C(C(=C(N3)C)C(=O)C)C

> <PUBCHEM_CACTVS_TPSA>
128

> <PUBCHEM_MONOISOTOPIC_WEIGHT>
426.124943

> <PUBCHEM_TOTAL_CHARGE>
0

> <PUBCHEM_HEAVY_ATOM_COUNT>
30

> <PUBCHEM_ATOM_DEF_STEREO_COUNT>
0

> <PUBCHEM_ATOM_UDEF_STEREO_COUNT>
0

> <PUBCHEM_BOND_DEF_STEREO_COUNT>
0

> <PUBCHEM_BOND_UDEF_STEREO_COUNT>
0

> <PUBCHEM_ISOTOPIC_ATOM_COUNT>
0

> <PUBCHEM_COMPONENT_COUNT>
1

> <PUBCHEM_CACTVS_TAUTO_COUNT>
62

> <PUBCHEM_COORDINATE_TYPE>
1
5
255

> <PUBCHEM_BONDANNOTATIONS>
10  12  8
19  20  8
19  23  8
20  24  8
23  26  8
24  27  8
25  28  8
26  27  8
28  29  8
5  25  8
5  8  8
7  11  8
7  12  8
8  29  8
9  10  8
9  11  8

$$$$

