11953812
  -OEChem-07051212473D

 56 60  0     0  0  0  0  0  0999 V2000
   -0.7522    4.2958    0.5161 S   0  0  0  0  0  0  0  0  0  0  0  0
   -1.0445    2.8667   -0.2389 O   0  0  0  0  0  0  0  0  0  0  0  0
   -0.7236    5.3615   -0.7177 O   0  0  0  0  0  0  0  0  0  0  0  0
    0.5841    4.2506    1.0801 O   0  0  0  0  0  0  0  0  0  0  0  0
   -1.9005    4.6203    1.3418 O   0  0  0  0  0  0  0  0  0  0  0  0
    7.6212    0.7494   -1.4658 O   0  0  0  0  0  0  0  0  0  0  0  0
    0.0863    0.9020    0.4215 N   0  0  0  0  0  0  0  0  0  0  0  0
   -1.5345   -0.2798    1.3986 N   0  0  0  0  0  0  0  0  0  0  0  0
    1.9712   -1.0828    0.8932 N   0  0  0  0  0  0  0  0  0  0  0  0
   -0.2660   -0.2554    1.0660 C   0  0  0  0  0  0  0  0  0  0  0  0
   -2.0230    0.9234    0.9440 C   0  0  0  0  0  0  0  0  0  0  0  0
    0.7394   -1.2618    1.2906 C   0  0  0  0  0  0  0  0  0  0  0  0
   -1.0384    1.6726    0.3340 C   0  0  0  0  0  0  0  0  0  0  0  0
   -3.4404    1.2693    1.1369 C   0  0  0  0  0  0  0  0  0  0  0  0
    0.3537   -2.5326    1.9911 C   0  0  0  0  0  0  0  0  0  0  0  0
    1.3900    1.0908    0.0007 C   0  0  0  0  0  0  0  0  0  0  0  0
    2.2938    0.1128    0.2463 C   0  0  0  0  0  0  0  0  0  0  0  0
   -4.2020    0.7653   -0.0739 C   0  0  0  0  0  0  0  0  0  0  0  0
   -0.0939   -3.5697    1.0056 C   0  0  0  0  0  0  0  0  0  0  0  0
    3.6939    0.2802   -0.2035 C   0  0  0  0  0  0  0  0  0  0  0  0
   -4.7220   -0.5155   -0.0557 C   0  0  0  0  0  0  0  0  0  0  0  0
   -4.3570    1.5989   -1.1658 C   0  0  0  0  0  0  0  0  0  0  0  0
    0.8366   -4.4453    0.4551 C   0  0  0  0  0  0  0  0  0  0  0  0
   -1.4361   -3.6489    0.6486 C   0  0  0  0  0  0  0  0  0  0  0  0
    4.6313    0.8795    0.6385 C   0  0  0  0  0  0  0  0  0  0  0  0
    4.0777   -0.1609   -1.4704 C   0  0  0  0  0  0  0  0  0  0  0  0
   -5.4224   -0.9793   -1.1692 C   0  0  0  0  0  0  0  0  0  0  0  0
   -5.0574    1.1350   -2.2794 C   0  0  0  0  0  0  0  0  0  0  0  0
    0.4203   -5.4104   -0.4619 C   0  0  0  0  0  0  0  0  0  0  0  0
   -1.8523   -4.6139   -0.2685 C   0  0  0  0  0  0  0  0  0  0  0  0
    5.9507    1.0376    0.2142 C   0  0  0  0  0  0  0  0  0  0  0  0
    5.3970   -0.0030   -1.8948 C   0  0  0  0  0  0  0  0  0  0  0  0
   -5.5901   -0.1540   -2.2812 C   0  0  0  0  0  0  0  0  0  0  0  0
   -0.9242   -5.4947   -0.8238 C   0  0  0  0  0  0  0  0  0  0  0  0
    6.3335    0.5964   -1.0525 C   0  0  0  0  0  0  0  0  0  0  0  0
   -3.5817    2.3498    1.2529 H   0  0  0  0  0  0  0  0  0  0  0  0
   -3.8339    0.8102    2.0519 H   0  0  0  0  0  0  0  0  0  0  0  0
   -0.4324   -2.3380    2.7303 H   0  0  0  0  0  0  0  0  0  0  0  0
    1.2165   -2.9016    2.5601 H   0  0  0  0  0  0  0  0  0  0  0  0
    1.6285    2.0160   -0.5108 H   0  0  0  0  0  0  0  0  0  0  0  0
   -4.5950   -1.1659    0.8048 H   0  0  0  0  0  0  0  0  0  0  0  0
   -3.9474    2.6047   -1.1736 H   0  0  0  0  0  0  0  0  0  0  0  0
    1.8868   -4.3883    0.7280 H   0  0  0  0  0  0  0  0  0  0  0  0
   -2.1719   -2.9747    1.0771 H   0  0  0  0  0  0  0  0  0  0  0  0
    4.3480    1.2280    1.6288 H   0  0  0  0  0  0  0  0  0  0  0  0
    3.3592   -0.6307   -2.1379 H   0  0  0  0  0  0  0  0  0  0  0  0
   -5.8362   -1.9835   -1.1709 H   0  0  0  0  0  0  0  0  0  0  0  0
   -5.1881    1.7778   -3.1452 H   0  0  0  0  0  0  0  0  0  0  0  0
    1.1430   -6.0958   -0.8947 H   0  0  0  0  0  0  0  0  0  0  0  0
   -2.8994   -4.6800   -0.5493 H   0  0  0  0  0  0  0  0  0  0  0  0
    6.6707    1.5056    0.8800 H   0  0  0  0  0  0  0  0  0  0  0  0
    5.6893   -0.3491   -2.8824 H   0  0  0  0  0  0  0  0  0  0  0  0
   -6.1351   -0.5152   -3.1484 H   0  0  0  0  0  0  0  0  0  0  0  0
   -1.2483   -6.2462   -1.5377 H   0  0  0  0  0  0  0  0  0  0  0  0
   -0.5564    6.2989   -0.4616 H   0  0  0  0  0  0  0  0  0  0  0  0
    8.1300    1.1813   -0.7582 H   0  0  0  0  0  0  0  0  0  0  0  0
  1  2  1  0  0  0  0
  1  3  1  0  0  0  0
  1  4  2  0  0  0  0
  1  5  2  0  0  0  0
  2 13  1  0  0  0  0
  3 55  1  0  0  0  0
  6 35  1  0  0  0  0
  6 56  1  0  0  0  0
  7 10  1  0  0  0  0
  7 13  1  0  0  0  0
  7 16  1  0  0  0  0
  8 10  2  0  0  0  0
  8 11  1  0  0  0  0
  9 12  2  0  0  0  0
  9 17  1  0  0  0  0
 10 12  1  0  0  0  0
 11 13  2  0  0  0  0
 11 14  1  0  0  0  0
 12 15  1  0  0  0  0
 14 18  1  0  0  0  0
 14 36  1  0  0  0  0
 14 37  1  0  0  0  0
 15 19  1  0  0  0  0
 15 38  1  0  0  0  0
 15 39  1  0  0  0  0
 16 17  2  0  0  0  0
 16 40  1  0  0  0  0
 17 20  1  0  0  0  0
 18 21  2  0  0  0  0
 18 22  1  0  0  0  0
 19 23  2  0  0  0  0
 19 24  1  0  0  0  0
 20 25  2  0  0  0  0
 20 26  1  0  0  0  0
 21 27  1  0  0  0  0
 21 41  1  0  0  0  0
 22 28  2  0  0  0  0
 22 42  1  0  0  0  0
 23 29  1  0  0  0  0
 23 43  1  0  0  0  0
 24 30  2  0  0  0  0
 24 44  1  0  0  0  0
 25 31  1  0  0  0  0
 25 45  1  0  0  0  0
 26 32  2  0  0  0  0
 26 46  1  0  0  0  0
 27 33  2  0  0  0  0
 27 47  1  0  0  0  0
 28 33  1  0  0  0  0
 28 48  1  0  0  0  0
 29 34  2  0  0  0  0
 29 49  1  0  0  0  0
 30 34  1  0  0  0  0
 30 50  1  0  0  0  0
 31 35  2  0  0  0  0
 31 51  1  0  0  0  0
 32 35  1  0  0  0  0
 32 52  1  0  0  0  0
 33 53  1  0  0  0  0
 34 54  1  0  0  0  0
M  END
> <PUBCHEM_COMPOUND_CID>
11953812

> <PUBCHEM_CONFORMER_RMSD>
1

> <PUBCHEM_CONFORMER_DIVERSEORDER>
1
34
41
32
25
26
50
52
44
19
45
7
17
40
46
28
55
23
18
43
12
53
11
35
42
4
20
37
36
15
51
21
13
29
48
24
39
54
33
47
49
27
31
38
14
16
9
3
5
8
6
22
30
10
2

> <PUBCHEM_MMFF94_PARTIAL_CHARGES>
52
1 1.67
10 0.1
11 0.05
12 0.47
13 -0.09
14 0.32
15 0.2
16 -0.18
17 0.14
18 -0.14
19 -0.14
2 -0.25
20 0.03
21 -0.15
22 -0.15
23 -0.15
24 -0.15
25 -0.15
26 -0.15
27 -0.15
28 -0.15
29 -0.15
3 -0.68
30 -0.15
31 -0.15
32 -0.15
33 -0.15
34 -0.15
35 0.08
4 -0.65
40 0.15
41 0.15
42 0.15
43 0.15
44 0.15
45 0.15
46 0.15
47 0.15
48 0.15
49 0.15
5 -0.65
50 0.15
51 0.15
52 0.15
53 0.15
54 0.15
55 0.5
56 0.45
6 -0.53
7 0.33
8 -0.57
9 -0.62

> <PUBCHEM_EFFECTIVE_ROTOR_COUNT>
7

> <PUBCHEM_PHARMACOPHORE_FEATURES>
12
1 3 acceptor
1 4 acceptor
1 5 acceptor
1 6 donor
1 9 acceptor
3 7 8 10 cation
4 1 3 4 5 anion
5 7 8 10 11 13 rings
6 18 21 22 27 28 33 rings
6 19 23 24 29 30 34 rings
6 20 25 26 31 32 35 rings
6 7 9 10 12 16 17 rings

> <PUBCHEM_HEAVY_ATOM_COUNT>
35

> <PUBCHEM_ATOM_DEF_STEREO_COUNT>
0

> <PUBCHEM_ATOM_UDEF_STEREO_COUNT>
0

> <PUBCHEM_BOND_DEF_STEREO_COUNT>
0

> <PUBCHEM_BOND_UDEF_STEREO_COUNT>
0

> <PUBCHEM_ISOTOPIC_ATOM_COUNT>
0

> <PUBCHEM_COMPONENT_COUNT>
1

> <PUBCHEM_CACTVS_TAUTO_COUNT>
2

> <PUBCHEM_CONFORMER_ID>
00B6669400000001

> <PUBCHEM_MMFF94_ENERGY>
95.8035

> <PUBCHEM_FEATURE_SELFOVERLAP>
61.069

> <PUBCHEM_SHAPE_FINGERPRINT>
102385 1 17619062837579800473
10675989 125 17766012966691671349
10930396 42 18123222068143094696
11135926 11 18339650056986011735
11445158 3 17627473144398482841
11513181 2 18194391428277814030
11991303 11 18201717302155001678
12788726 201 18410578413595289808
13150687 139 18343018926069812646
13782708 43 17385721443913337948
13911987 19 18342460352545127901
14930077 153 17700118916515669246
15064981 113 18269263720991575958
15775530 1 17689435979893763281
19311894 1 18335983065116511367
19958102 18 18409722993839297150
20505436 4 17388796842381582905
20511986 3 17560525006679964200
20775438 99 17755326490230347804
21344244 181 18187639193743092751
22122407 14 14979373116107831932
23516275 137 16445001276383135471
24771750 20 17692785487886517966
266924 87 18268992170745541881
283562 15 18336259154067219520
3493558 16 11526505265402669070
4015057 19 17531523170861523584
5171179 24 17760365492080852192
5912855 24 18118966038941244065
6371009 1 18197507422888262242

> <PUBCHEM_SHAPE_MULTIPOLES>
679.84
12.24
7.47
1.77
13.08
5.28
0.55
-5.68
9.74
-3.85
-0.97
-0.62
-0.1
-0.33

> <PUBCHEM_SHAPE_SELFOVERLAP>
1496.392

> <PUBCHEM_SHAPE_VOLUME>
368.4

> <PUBCHEM_COORDINATE_TYPE>
2
5
10

$$$$

