25164042
  -OEChem-07051213112D

 22 21  0     0  0  0  0  0  0999 V2000
    8.9282   -0.0600    0.0000 O   0  0  0  0  0  0  0  0  0  0  0  0
    2.0000   -0.0600    0.0000 O   0  0  0  0  0  0  0  0  0  0  0  0
    7.1962   -0.0600    0.0000 C   0  0  0  0  0  0  0  0  0  0  0  0
    8.0622    0.4400    0.0000 C   0  0  0  0  0  0  0  0  0  0  0  0
    6.3301    0.4400    0.0000 C   0  0  0  0  0  0  0  0  0  0  0  0
    7.1962   -1.0600    0.0000 C   0  0  0  0  0  0  0  0  0  0  0  0
    5.4641   -0.0600    0.0000 C   0  0  0  0  0  0  0  0  0  0  0  0
    4.5981    0.4400    0.0000 C   0  0  0  0  0  0  0  0  0  0  0  0
    3.7320   -0.0600    0.0000 C   0  0  0  0  0  0  0  0  0  0  0  0
    2.8660    0.4400    0.0000 C   0  0  0  0  0  0  0  0  0  0  0  0
    8.4607    0.9149    0.0000 H   0  0  0  0  0  0  0  0  0  0  0  0
    7.6636    0.9149    0.0000 H   0  0  0  0  0  0  0  0  0  0  0  0
    6.3301    1.0600    0.0000 H   0  0  0  0  0  0  0  0  0  0  0  0
    6.5762   -1.0600    0.0000 H   0  0  0  0  0  0  0  0  0  0  0  0
    7.1962   -1.6800    0.0000 H   0  0  0  0  0  0  0  0  0  0  0  0
    7.8162   -1.0600    0.0000 H   0  0  0  0  0  0  0  0  0  0  0  0
    5.4641   -0.6800    0.0000 H   0  0  0  0  0  0  0  0  0  0  0  0
    4.5981    1.0600    0.0000 H   0  0  0  0  0  0  0  0  0  0  0  0
    3.3335   -0.5349    0.0000 H   0  0  0  0  0  0  0  0  0  0  0  0
    4.1306   -0.5349    0.0000 H   0  0  0  0  0  0  0  0  0  0  0  0
    2.8660    1.0600    0.0000 H   0  0  0  0  0  0  0  0  0  0  0  0
    9.4651    0.2500    0.0000 H   0  0  0  0  0  0  0  0  0  0  0  0
  1  4  1  0  0  0  0
  1 22  1  0  0  0  0
  2 10  2  0  0  0  0
  3  4  1  0  0  0  0
  3  5  2  0  0  0  0
  3  6  1  0  0  0  0
  4 11  1  0  0  0  0
  4 12  1  0  0  0  0
  5  7  1  0  0  0  0
  5 13  1  0  0  0  0
  6 14  1  0  0  0  0
  6 15  1  0  0  0  0
  6 16  1  0  0  0  0
  7  8  2  0  0  0  0
  7 17  1  0  0  0  0
  8  9  1  0  0  0  0
  8 18  1  0  0  0  0
  9 10  1  0  0  0  0
  9 19  1  0  0  0  0
  9 20  1  0  0  0  0
 10 21  1  0  0  0  0
M  END
> <PUBCHEM_COMPOUND_CID>
25164042

> <PUBCHEM_COMPOUND_CANONICALIZED>
1

> <PUBCHEM_CACTVS_COMPLEXITY>
145

> <PUBCHEM_CACTVS_HBOND_ACCEPTOR>
2

> <PUBCHEM_CACTVS_HBOND_DONOR>
1

> <PUBCHEM_CACTVS_ROTATABLE_BOND>
4

> <PUBCHEM_CACTVS_SUBSKEYS>
AAADccBwMAAAAAAAAAAAAAAAAAAAAAAAAAAAAAAAAAAAAAAAAAAAGgAACAAADACggAICAAAAAgCIAihSgAAAAAAgAAAICAEAAAgIFAAAAQAAUAAAAAAIkAIAAAAAAAAAAAAAAAAAAAAAAAAAAAAAAAAAAA==

> <PUBCHEM_IUPAC_OPENEYE_NAME>
(3E,5E)-7-hydroxy-6-methyl-hepta-3,5-dienal

> <PUBCHEM_IUPAC_CAS_NAME>
(3E,5E)-7-hydroxy-6-methylhepta-3,5-dienal

> <PUBCHEM_IUPAC_NAME>
(3E,5E)-7-hydroxy-6-methylhepta-3,5-dienal

> <PUBCHEM_IUPAC_SYSTEMATIC_NAME>
(3E,5E)-6-methyl-7-oxidanyl-hepta-3,5-dienal

> <PUBCHEM_IUPAC_TRADITIONAL_NAME>
(3E,5E)-7-hydroxy-6-methyl-hepta-3,5-dienal

> <PUBCHEM_IUPAC_INCHI>
InChI=1S/C8H12O2/c1-8(7-10)5-3-2-4-6-9/h2-3,5-6,10H,4,7H2,1H3/b3-2+,8-5+

> <PUBCHEM_IUPAC_INCHIKEY>
ARBHCEGTLUXZRX-YNRRLODASA-N

> <PUBCHEM_XLOGP3_AA>
0.7

> <PUBCHEM_EXACT_MASS>
140.08373

> <PUBCHEM_MOLECULAR_FORMULA>
C8H12O2

> <PUBCHEM_MOLECULAR_WEIGHT>
140.17968

> <PUBCHEM_OPENEYE_CAN_SMILES>
CC(=CC=CCC=O)CO

> <PUBCHEM_OPENEYE_ISO_SMILES>
C/C(=C\C=C\CC=O)/CO

> <PUBCHEM_CACTVS_TPSA>
37.3

> <PUBCHEM_MONOISOTOPIC_WEIGHT>
140.08373

> <PUBCHEM_TOTAL_CHARGE>
0

> <PUBCHEM_HEAVY_ATOM_COUNT>
10

> <PUBCHEM_ATOM_DEF_STEREO_COUNT>
0

> <PUBCHEM_ATOM_UDEF_STEREO_COUNT>
0

> <PUBCHEM_BOND_DEF_STEREO_COUNT>
2

> <PUBCHEM_BOND_UDEF_STEREO_COUNT>
0

> <PUBCHEM_ISOTOPIC_ATOM_COUNT>
0

> <PUBCHEM_COMPONENT_COUNT>
1

> <PUBCHEM_CACTVS_TAUTO_COUNT>
4

> <PUBCHEM_COORDINATE_TYPE>
1
5
255

$$$$

