11071
  -OEChem-06261205183D

 27 27  0     0  0  0  0  0  0999 V2000
    0.0488   -2.1372    0.6735 O   0  0  0  0  0  0  0  0  0  0  0  0
    3.3865    0.8145   -0.6715 O   0  0  0  0  0  0  0  0  0  0  0  0
   -0.4170    0.1357    0.5197 N   0  0  0  0  0  0  0  0  0  0  0  0
    1.7531   -0.7125    0.0135 N   0  0  0  0  0  0  0  0  0  0  0  0
   -0.8381    2.5289    0.3362 N   0  0  0  0  0  0  0  0  0  0  0  0
   -1.8046   -0.0728    0.9412 C   0  0  0  0  0  0  0  0  0  0  0  0
    0.0009    1.4404    0.2338 C   0  0  0  0  0  0  0  0  0  0  0  0
    0.4283   -0.9881    0.4229 C   0  0  0  0  0  0  0  0  0  0  0  0
   -2.6702   -0.3177   -0.2618 C   0  0  0  0  0  0  0  0  0  0  0  0
    1.2691    1.6486   -0.1580 C   0  0  0  0  0  0  0  0  0  0  0  0
    2.2446    0.5527   -0.2991 C   0  0  0  0  0  0  0  0  0  0  0  0
    2.6575   -1.8524   -0.0970 C   0  0  0  0  0  0  0  0  0  0  0  0
   -2.3665   -1.5365   -1.0862 C   0  0  0  0  0  0  0  0  0  0  0  0
   -3.6924    0.4964   -0.5669 C   0  0  0  0  0  0  0  0  0  0  0  0
   -2.1547    0.7471    1.5773 H   0  0  0  0  0  0  0  0  0  0  0  0
   -1.8525   -0.9613    1.5840 H   0  0  0  0  0  0  0  0  0  0  0  0
    1.6319    2.6460   -0.3906 H   0  0  0  0  0  0  0  0  0  0  0  0
    3.6660   -1.5545   -0.3937 H   0  0  0  0  0  0  0  0  0  0  0  0
    2.2530   -2.5499   -0.8376 H   0  0  0  0  0  0  0  0  0  0  0  0
    2.7006   -2.3643    0.8697 H   0  0  0  0  0  0  0  0  0  0  0  0
   -1.4106   -1.4343   -1.6079 H   0  0  0  0  0  0  0  0  0  0  0  0
   -2.3437   -2.4321   -0.4575 H   0  0  0  0  0  0  0  0  0  0  0  0
   -3.1318   -1.7049   -1.8524 H   0  0  0  0  0  0  0  0  0  0  0  0
   -1.8175    2.4170    0.5521 H   0  0  0  0  0  0  0  0  0  0  0  0
   -0.4881    3.4529    0.1125 H   0  0  0  0  0  0  0  0  0  0  0  0
   -3.9229    1.3665    0.0386 H   0  0  0  0  0  0  0  0  0  0  0  0
   -4.3243    0.3110   -1.4291 H   0  0  0  0  0  0  0  0  0  0  0  0
  1  8  2  0  0  0  0
  2 11  2  0  0  0  0
  3  6  1  0  0  0  0
  3  7  1  0  0  0  0
  3  8  1  0  0  0  0
  4  8  1  0  0  0  0
  4 11  1  0  0  0  0
  4 12  1  0  0  0  0
  5  7  1  0  0  0  0
  5 24  1  0  0  0  0
  5 25  1  0  0  0  0
  6  9  1  0  0  0  0
  6 15  1  0  0  0  0
  6 16  1  0  0  0  0
  7 10  2  0  0  0  0
  9 13  1  0  0  0  0
  9 14  2  0  0  0  0
 10 11  1  0  0  0  0
 10 17  1  0  0  0  0
 12 18  1  0  0  0  0
 12 19  1  0  0  0  0
 12 20  1  0  0  0  0
 13 21  1  0  0  0  0
 13 22  1  0  0  0  0
 13 23  1  0  0  0  0
 14 26  1  0  0  0  0
 14 27  1  0  0  0  0
M  END
> <PUBCHEM_COMPOUND_CID>
11071

> <PUBCHEM_CONFORMER_RMSD>
0.6

> <PUBCHEM_CONFORMER_DIVERSEORDER>
1
5
4
3
2

> <PUBCHEM_MMFF94_PARTIAL_CHARGES>
19
1 -0.57
10 -0.14
11 0.62
12 0.3
13 0.14
14 -0.3
17 0.15
2 -0.57
24 0.4
25 0.4
26 0.15
27 0.15
3 -0.47
4 -0.42
5 -0.9
6 0.44
7 0.21
8 0.69
9 -0.28

> <PUBCHEM_EFFECTIVE_ROTOR_COUNT>
2

> <PUBCHEM_PHARMACOPHORE_FEATURES>
5
1 1 acceptor
1 2 acceptor
1 5 cation
1 5 donor
6 3 4 7 8 10 11 rings

> <PUBCHEM_HEAVY_ATOM_COUNT>
14

> <PUBCHEM_ATOM_DEF_STEREO_COUNT>
0

> <PUBCHEM_ATOM_UDEF_STEREO_COUNT>
0

> <PUBCHEM_BOND_DEF_STEREO_COUNT>
0

> <PUBCHEM_BOND_UDEF_STEREO_COUNT>
0

> <PUBCHEM_ISOTOPIC_ATOM_COUNT>
0

> <PUBCHEM_COMPONENT_COUNT>
1

> <PUBCHEM_CACTVS_TAUTO_COUNT>
3

> <PUBCHEM_CONFORMER_ID>
00002B3F00000001

> <PUBCHEM_MMFF94_ENERGY>
31.2977

> <PUBCHEM_FEATURE_SELFOVERLAP>
25.371

> <PUBCHEM_SHAPE_FINGERPRINT>
11031198 65 18202280299573771127
11206711 2 18269825557588598444
11401426 45 18409736127674896040
11471102 20 18342178894943328557
12423570 1 17754719843300969954
14128692 85 17896040936360386727
14576447 43 18188783721191629839
14617773 55 18115296920692764224
14993402 34 18113620084193370837
15775835 57 18412262809569037287
16945 1 18339631253313338760
17775402 16 18413673504267287061
18186145 218 17775007924735607263
18619055 16 18409173233355492271
193761 8 17980197818280186792
20201158 50 18342175544362351012
21501502 16 18265890448649346576
23388829 49 18198079155717442546
23402539 116 18410018710942956484
23402655 69 18339934783400782357
23419403 2 17048582621209125408
23552423 10 18198058277506486778
23559900 14 18192417599344144484
25 1 18273218603612065107
2748010 2 17762322631616284112
353137 74 18341333387333414785
528886 8 18412547582975097081
53812654 25 18188220852779114234

> <PUBCHEM_SHAPE_MULTIPOLES>
261.43
4.88
2.25
0.88
1.01
0.2
0.02
-0.46
1.5
-0.52
-0.07
0.3
-0.14
-0.43

> <PUBCHEM_SHAPE_SELFOVERLAP>
534.026

> <PUBCHEM_SHAPE_VOLUME>
150.5

> <PUBCHEM_COORDINATE_TYPE>
2
5
10

$$$$

