192877
  -OEChem-07051213153D

 28 27  0     1  0  0  0  0  0999 V2000
   -1.4362    1.8164    0.8932 O   0  0  0  0  0  0  0  0  0  0  0  0
    0.8613    2.1608   -0.6019 O   0  0  0  0  0  0  0  0  0  0  0  0
   -1.8868   -0.9656   -1.4230 O   0  0  0  0  0  0  0  0  0  0  0  0
    2.4211   -1.7883    1.0737 O   0  0  0  0  0  0  0  0  0  0  0  0
   -4.0585   -1.4774    0.2649 O   0  0  0  0  0  0  0  0  0  0  0  0
    1.0214    0.3878    1.6634 O   0  0  0  0  0  0  0  0  0  0  0  0
    3.8040    0.2082   -0.4187 O   0  0  0  0  0  0  0  0  0  0  0  0
   -1.2442    1.0248   -0.2798 C   0  0  1  0  0  0  0  0  0  0  0  0
    0.2549    0.8718   -0.5649 C   0  0  2  0  0  0  0  0  0  0  0  0
   -2.0117   -0.3015   -0.1561 C   0  0  1  0  0  0  0  0  0  0  0  0
    1.0365    0.0778    0.4712 C   0  0  0  0  0  0  0  0  0  0  0  0
    1.8305   -1.1233   -0.0321 C   0  0  1  0  0  0  0  0  0  0  0  0
   -3.5054   -0.1698    0.1356 C   0  0  0  0  0  0  0  0  0  0  0  0
    2.9131   -0.7217   -1.0254 C   0  0  0  0  0  0  0  0  0  0  0  0
   -1.6640    1.6110   -1.1085 H   0  0  0  0  0  0  0  0  0  0  0  0
    0.3781    0.4138   -1.5513 H   0  0  0  0  0  0  0  0  0  0  0  0
   -1.5527   -0.9479    0.6000 H   0  0  0  0  0  0  0  0  0  0  0  0
    1.1321   -1.8221   -0.5052 H   0  0  0  0  0  0  0  0  0  0  0  0
   -3.6984    0.3714    1.0659 H   0  0  0  0  0  0  0  0  0  0  0  0
   -4.0309    0.3302   -0.6838 H   0  0  0  0  0  0  0  0  0  0  0  0
    2.5017   -0.2574   -1.9251 H   0  0  0  0  0  0  0  0  0  0  0  0
    3.5035   -1.5933   -1.3265 H   0  0  0  0  0  0  0  0  0  0  0  0
   -2.3601    2.1178    0.9007 H   0  0  0  0  0  0  0  0  0  0  0  0
    1.7637    2.0517   -0.9480 H   0  0  0  0  0  0  0  0  0  0  0  0
   -2.3046   -0.4046   -2.0987 H   0  0  0  0  0  0  0  0  0  0  0  0
    1.6994   -2.1316    1.6279 H   0  0  0  0  0  0  0  0  0  0  0  0
   -3.6216   -1.9070    1.0200 H   0  0  0  0  0  0  0  0  0  0  0  0
    4.1634   -0.2121    0.3813 H   0  0  0  0  0  0  0  0  0  0  0  0
  1  8  1  0  0  0  0
  1 23  1  0  0  0  0
  2  9  1  0  0  0  0
  2 24  1  0  0  0  0
  3 10  1  0  0  0  0
  3 25  1  0  0  0  0
  4 12  1  0  0  0  0
  4 26  1  0  0  0  0
  5 13  1  0  0  0  0
  5 27  1  0  0  0  0
  6 11  2  0  0  0  0
  7 14  1  0  0  0  0
  7 28  1  0  0  0  0
  8  9  1  0  0  0  0
  8 10  1  0  0  0  0
  8 15  1  0  0  0  0
  9 11  1  0  0  0  0
  9 16  1  0  0  0  0
 10 13  1  0  0  0  0
 10 17  1  0  0  0  0
 11 12  1  0  0  0  0
 12 14  1  0  0  0  0
 12 18  1  0  0  0  0
 13 19  1  0  0  0  0
 13 20  1  0  0  0  0
 14 21  1  0  0  0  0
 14 22  1  0  0  0  0
M  END
> <PUBCHEM_COMPOUND_CID>
192877

> <PUBCHEM_CONFORMER_RMSD>
0.6

> <PUBCHEM_CONFORMER_DIVERSEORDER>
1
138
249
33
119
215
340
113
87
306
115
271
320
5
376
327
121
238
128
419
103
263
447
196
104
321
323
417
140
330
243
78
236
45
338
409
57
208
70
316
336
369
237
3
62
265
309
81
213
442
59
341
24
102
17
354
235
313
359
137
239
157
268
279
163
176
307
32
218
346
106
227
162
451
25
150
160
16
210
98
435
318
231
15
362
212
188
221
211
449
124
252
207
178
414
12
146
68
143
445
61
148
135
416
280
48
423
384
203
35
389
248
289
88
351
443
195
27
256
438
274
132
192
66
4
322
107
191
285
130
440
439
368
79
93
294
375
324
388
284
298
144
434
174
199
177
18
372
75
431
58
242
325
118
365
317
47
92
310
197
2
393
21
158
51
105
258
404
448
224
413
181
276
226
291
311
217
37
342
333
84
370
401
430
386
329
202
123
182
234
154
283
334
293
90
216
433
9
421
141
112
326
261
244
63
387
151
343
353
356
296
373
109
381
46
286
149
85
390
357
394
50
26
64
134
255
314
292
53
67
444
41
411
214
287
282
52
415
223
122
169
426
186
331
259
86
281
187
262
11
74
312
179
266
111
71
339
110
95
267
200
253
406
193
190
56
170
428
308
382
13
82
361
94
250
277
55
396
305
358
175
209
69
355
19
29
165
230
120
290
379
183
264
40
273
412
205
425
300
418
42
89
7
43
432
220
304
36
125
198
189
251
222
380
156
348
117
201
374
269
8
345
395
337
344
152
297
278
172
446
437
76
180
245
168
10
360
427
126
153
257
352
147
332
272
54
402
422
228
366
225
142
34
397
295
6
194
349
302
420
77
246
319
367
232
20
407
173
80
436
30
219
275
65
155
441
99
22
159
378
91
450
408
301
72
116
204
131
399
23
335
347
405
114
371
96
328
97
44
452
315
299
303
410
38
247
185
31
229
166
14
400
391
108
429
39
127
73
398
83
403
241
363
260
270
364
49
350
60
385
101
129
240
383
233
139
145
28
288
392
184
133
206
171
100
167
377
424
254
136
161
164

> <PUBCHEM_MMFF94_PARTIAL_CHARGES>
20
1 -0.68
10 0.28
11 0.45
12 0.34
13 0.28
14 0.28
2 -0.68
23 0.4
24 0.4
25 0.4
26 0.4
27 0.4
28 0.4
3 -0.68
4 -0.68
5 -0.68
6 -0.57
7 -0.68
8 0.28
9 0.34

> <PUBCHEM_EFFECTIVE_ROTOR_COUNT>
6

> <PUBCHEM_PHARMACOPHORE_FEATURES>
13
1 1 acceptor
1 1 donor
1 2 acceptor
1 2 donor
1 3 acceptor
1 3 donor
1 4 acceptor
1 4 donor
1 5 acceptor
1 5 donor
1 6 acceptor
1 7 acceptor
1 7 donor

> <PUBCHEM_HEAVY_ATOM_COUNT>
14

> <PUBCHEM_ATOM_DEF_STEREO_COUNT>
4

> <PUBCHEM_ATOM_UDEF_STEREO_COUNT>
0

> <PUBCHEM_BOND_DEF_STEREO_COUNT>
0

> <PUBCHEM_BOND_UDEF_STEREO_COUNT>
0

> <PUBCHEM_ISOTOPIC_ATOM_COUNT>
0

> <PUBCHEM_COMPONENT_COUNT>
1

> <PUBCHEM_CACTVS_TAUTO_COUNT>
7

> <PUBCHEM_CONFORMER_ID>
0002F16D00000001

> <PUBCHEM_MMFF94_ENERGY>
20.8246

> <PUBCHEM_FEATURE_SELFOVERLAP>
66.004

> <PUBCHEM_SHAPE_FINGERPRINT>
11806522 49 18340763741531162940
12251169 10 16587745304839110999
12932764 1 17968109628314271607
14128692 85 18333446526034464820
14252887 29 18187352221181310518
15375462 189 18411421682936697303
16945 1 18200048243255344612
19422 9 18339071717684844290
20281407 28 18187646929094522379
20361792 2 18341906202863437159
20645477 70 18267869385396942327
20871998 184 18040995206421913893
21028194 46 9367337150262502869
21293036 1 17417808430904882734
22485316 2 18272653463109453743
23402539 116 18059575845309612246
449060 23 18334293175604720895
7364860 26 18116995490022099881
83771 10 18411698781526109231

> <PUBCHEM_SHAPE_MULTIPOLES>
247.03
5.77
1.73
1.14
1.64
0.38
-0.14
-2.7
0.34
0.11
-0.08
-0.33
-0.08
-0.36

> <PUBCHEM_SHAPE_SELFOVERLAP>
474.282

> <PUBCHEM_SHAPE_VOLUME>
149.7

> <PUBCHEM_COORDINATE_TYPE>
2
5
10

$$$$

