440243
  -OEChem-07051212493D

 52 53  0     1  0  0  0  0  0999 V2000
   -0.6227   -0.2885   -0.3635 O   0  0  0  0  0  0  0  0  0  0  0  0
    1.3789    0.8655   -0.0374 O   0  0  0  0  0  0  0  0  0  0  0  0
    0.8028   -2.7324   -0.3085 O   0  0  0  0  0  0  0  0  0  0  0  0
    3.5964   -2.3962   -1.1824 O   0  0  0  0  0  0  0  0  0  0  0  0
    4.8579   -0.2374    0.2681 O   0  0  0  0  0  0  0  0  0  0  0  0
    2.4447    3.1452    1.0684 O   0  0  0  0  0  0  0  0  0  0  0  0
   -2.9228   -0.4418    0.3992 C   0  0  1  0  0  0  0  0  0  0  0  0
   -1.5285    0.1614    0.6427 C   0  0  2  0  0  0  0  0  0  0  0  0
   -3.5472    0.1062   -0.8930 C   0  0  0  0  0  0  0  0  0  0  0  0
   -1.5765    1.6922    0.6343 C   0  0  0  0  0  0  0  0  0  0  0  0
   -2.2038    2.2445   -0.6557 C   0  0  1  0  0  0  0  0  0  0  0  0
   -3.5906    1.6334   -0.8924 C   0  0  0  0  0  0  0  0  0  0  0  0
   -2.8782   -1.9704    0.3562 C   0  0  0  0  0  0  0  0  0  0  0  0
    0.7094   -0.3807    0.1406 C   0  0  2  0  0  0  0  0  0  0  0  0
    1.4279   -1.4895   -0.6281 C   0  0  1  0  0  0  0  0  0  0  0  0
   -2.2898    3.7691   -0.6020 C   0  0  0  0  0  0  0  0  0  0  0  0
    2.9089   -1.5555   -0.2545 C   0  0  2  0  0  0  0  0  0  0  0  0
    3.5541   -0.1704   -0.3035 C   0  0  1  0  0  0  0  0  0  0  0  0
    2.7138    0.8478    0.4710 C   0  0  1  0  0  0  0  0  0  0  0  0
   -2.2271   -2.5214    1.6216 C   0  0  0  0  0  0  0  0  0  0  0  0
   -4.2827   -2.5410    0.1800 C   0  0  0  0  0  0  0  0  0  0  0  0
    3.2751    2.2601    0.3389 C   0  0  0  0  0  0  0  0  0  0  0  0
   -3.5671   -0.1310    1.2348 H   0  0  0  0  0  0  0  0  0  0  0  0
   -1.1949   -0.1363    1.6436 H   0  0  0  0  0  0  0  0  0  0  0  0
   -4.5782   -0.2406   -1.0149 H   0  0  0  0  0  0  0  0  0  0  0  0
   -2.9844   -0.2425   -1.7679 H   0  0  0  0  0  0  0  0  0  0  0  0
   -0.5764    2.1184    0.7592 H   0  0  0  0  0  0  0  0  0  0  0  0
   -2.1677    2.0305    1.4958 H   0  0  0  0  0  0  0  0  0  0  0  0
   -1.5575    1.9763   -1.5019 H   0  0  0  0  0  0  0  0  0  0  0  0
   -3.9931    1.9831   -1.8507 H   0  0  0  0  0  0  0  0  0  0  0  0
   -4.2860    1.9738   -0.1143 H   0  0  0  0  0  0  0  0  0  0  0  0
   -2.2785   -2.3075   -0.4992 H   0  0  0  0  0  0  0  0  0  0  0  0
    0.7026   -0.6424    1.2073 H   0  0  0  0  0  0  0  0  0  0  0  0
    1.3143   -1.3463   -1.7092 H   0  0  0  0  0  0  0  0  0  0  0  0
   -1.2961    4.2090   -0.4669 H   0  0  0  0  0  0  0  0  0  0  0  0
   -2.7087    4.1672   -1.5322 H   0  0  0  0  0  0  0  0  0  0  0  0
   -2.9241    4.1040    0.2258 H   0  0  0  0  0  0  0  0  0  0  0  0
    3.0407   -2.0120    0.7342 H   0  0  0  0  0  0  0  0  0  0  0  0
    3.6637    0.1329   -1.3529 H   0  0  0  0  0  0  0  0  0  0  0  0
    2.6790    0.5958    1.5398 H   0  0  0  0  0  0  0  0  0  0  0  0
   -1.1591   -2.2988    1.6754 H   0  0  0  0  0  0  0  0  0  0  0  0
   -2.3126   -3.6137    1.6522 H   0  0  0  0  0  0  0  0  0  0  0  0
   -2.7091   -2.1289    2.5236 H   0  0  0  0  0  0  0  0  0  0  0  0
   -4.6756   -2.3628   -0.8252 H   0  0  0  0  0  0  0  0  0  0  0  0
   -4.2763   -3.6286    0.3158 H   0  0  0  0  0  0  0  0  0  0  0  0
   -4.9838   -2.1222    0.9098 H   0  0  0  0  0  0  0  0  0  0  0  0
    3.2721    2.5851   -0.7068 H   0  0  0  0  0  0  0  0  0  0  0  0
    4.2902    2.3341    0.7389 H   0  0  0  0  0  0  0  0  0  0  0  0
    0.9235   -2.8951    0.6425 H   0  0  0  0  0  0  0  0  0  0  0  0
    4.5349   -2.4047   -0.9277 H   0  0  0  0  0  0  0  0  0  0  0  0
    5.3383    0.5666    0.0088 H   0  0  0  0  0  0  0  0  0  0  0  0
    2.8148    4.0383    0.9638 H   0  0  0  0  0  0  0  0  0  0  0  0
  1  8  1  0  0  0  0
  1 14  1  0  0  0  0
  2 14  1  0  0  0  0
  2 19  1  0  0  0  0
  3 15  1  0  0  0  0
  3 49  1  0  0  0  0
  4 17  1  0  0  0  0
  4 50  1  0  0  0  0
  5 18  1  0  0  0  0
  5 51  1  0  0  0  0
  6 22  1  0  0  0  0
  6 52  1  0  0  0  0
  7  8  1  0  0  0  0
  7  9  1  0  0  0  0
  7 13  1  0  0  0  0
  7 23  1  0  0  0  0
  8 10  1  0  0  0  0
  8 24  1  0  0  0  0
  9 12  1  0  0  0  0
  9 25  1  0  0  0  0
  9 26  1  0  0  0  0
 10 11  1  0  0  0  0
 10 27  1  0  0  0  0
 10 28  1  0  0  0  0
 11 12  1  0  0  0  0
 11 16  1  0  0  0  0
 11 29  1  0  0  0  0
 12 30  1  0  0  0  0
 12 31  1  0  0  0  0
 13 20  1  0  0  0  0
 13 21  1  0  0  0  0
 13 32  1  0  0  0  0
 14 15  1  0  0  0  0
 14 33  1  0  0  0  0
 15 17  1  0  0  0  0
 15 34  1  0  0  0  0
 16 35  1  0  0  0  0
 16 36  1  0  0  0  0
 16 37  1  0  0  0  0
 17 18  1  0  0  0  0
 17 38  1  0  0  0  0
 18 19  1  0  0  0  0
 18 39  1  0  0  0  0
 19 22  1  0  0  0  0
 19 40  1  0  0  0  0
 20 41  1  0  0  0  0
 20 42  1  0  0  0  0
 20 43  1  0  0  0  0
 21 44  1  0  0  0  0
 21 45  1  0  0  0  0
 21 46  1  0  0  0  0
 22 47  1  0  0  0  0
 22 48  1  0  0  0  0
M  END
> <PUBCHEM_COMPOUND_CID>
440243

> <PUBCHEM_CONFORMER_RMSD>
0.8

> <PUBCHEM_CONFORMER_DIVERSEORDER>
1
34
5
15
33
9
22
21
36
17
11
29
27
35
31
28
3
8
32
25
37
30
4
23
10
26
19
18
20
16
6
24
38
12
7
14
2
13

> <PUBCHEM_MMFF94_PARTIAL_CHARGES>
17
1 -0.56
14 0.56
15 0.28
17 0.28
18 0.28
19 0.28
2 -0.56
22 0.28
3 -0.68
4 -0.68
49 0.4
5 -0.68
50 0.4
51 0.4
52 0.4
6 -0.68
8 0.28

> <PUBCHEM_EFFECTIVE_ROTOR_COUNT>
6.4

> <PUBCHEM_PHARMACOPHORE_FEATURES>
13
1 1 acceptor
1 2 acceptor
1 3 acceptor
1 3 donor
1 4 acceptor
1 4 donor
1 5 acceptor
1 5 donor
1 6 acceptor
1 6 donor
3 13 20 21 hydrophobe
6 2 14 15 17 18 19 rings
6 7 8 9 10 11 12 rings

> <PUBCHEM_HEAVY_ATOM_COUNT>
22

> <PUBCHEM_ATOM_DEF_STEREO_COUNT>
8

> <PUBCHEM_ATOM_UDEF_STEREO_COUNT>
0

> <PUBCHEM_BOND_DEF_STEREO_COUNT>
0

> <PUBCHEM_BOND_UDEF_STEREO_COUNT>
0

> <PUBCHEM_ISOTOPIC_ATOM_COUNT>
0

> <PUBCHEM_COMPONENT_COUNT>
1

> <PUBCHEM_CACTVS_TAUTO_COUNT>
1

> <PUBCHEM_CONFORMER_ID>
0006B7B300000001

> <PUBCHEM_MMFF94_ENERGY>
55.6448

> <PUBCHEM_FEATURE_SELFOVERLAP>
66.027

> <PUBCHEM_SHAPE_FINGERPRINT>
10366900 7 18270108016408309746
10608611 8 18410858775890607964
10871710 139 16466707465719135348
1100329 8 17404587065843348731
12173636 292 18127411383268852733
12403259 226 18409167688573851000
12500047 106 18126846229506448517
12553582 1 17830722519793863554
12633257 1 18339926020881463088
13140716 1 18338791230634923713
13224815 77 18261106327264007667
14026960 21 18265333893996927736
14223421 5 18410009909927154284
15375462 6 18338233752353779596
17492 89 18411420609211249730
19591789 44 16324265725623582701
19930381 70 18122348982252526065
200 152 17676498280035694213
20645477 56 18272369815164212461
20681677 76 18409450284431478870
221490 88 18408317792008403718
23402539 116 18272095976628798103
23419403 2 16980150933310451757
23557571 272 18201438039180555789
23558518 356 18272085037014694849
23559900 14 18337116760240822434
2748010 2 18338511924389746375
3084891 72 17473546231576182010
3380486 145 18124866864412357443
350125 39 18337103471859986840
469060 322 17540564338674965573
5104073 3 18410012104660737738
5283173 99 18201736037334343549
6049 1 18410564098142016996
621550 34 18191305970468407313
6913067 236 17974025967402872203
7399639 24 18191314771025500856
81228 2 18130213892400238465
8809292 202 18341044211554240899
9709674 26 18336549403613993335

> <PUBCHEM_SHAPE_MULTIPOLES>
417.53
8.19
4.02
1.03
3.58
1.67
0.11
-1.31
-0.57
-1.78
0.08
-0.21
-0.14
2.18

> <PUBCHEM_SHAPE_SELFOVERLAP>
841.115

> <PUBCHEM_SHAPE_VOLUME>
242.1

> <PUBCHEM_COORDINATE_TYPE>
2
5
10

$$$$

