47205560
  -OEChem-06241222593D

 39 40  0     0  0  0  0  0  0999 V2000
    2.4227   -1.2272   -0.3406 O   0  0  0  0  0  0  0  0  0  0  0  0
    1.6836    2.9392   -0.7860 O   0  0  0  0  0  0  0  0  0  0  0  0
   -3.7828   -0.5571   -1.0120 O   0  0  0  0  0  0  0  0  0  0  0  0
   -0.4672    2.4363    1.2963 O   0  0  0  0  0  0  0  0  0  0  0  0
    2.2791    1.2019    0.6785 N   0  0  0  0  0  0  0  0  0  0  0  0
   -0.6103    0.9132   -0.5124 N   0  0  0  0  0  0  0  0  0  0  0  0
   -2.4491   -0.4027   -1.3706 N   0  0  0  0  0  0  0  0  0  0  0  0
    0.4993   -2.6237   -0.0902 C   0  0  0  0  0  0  0  0  0  0  0  0
   -0.2119   -2.4583    1.2208 C   0  0  0  0  0  0  0  0  0  0  0  0
   -0.1792   -3.7997    0.5489 C   0  0  0  0  0  0  0  0  0  0  0  0
    2.0119   -2.5700   -0.1226 C   0  0  0  0  0  0  0  0  0  0  0  0
    3.8392   -1.1150   -0.3807 C   0  0  0  0  0  0  0  0  0  0  0  0
    4.2094    0.3484   -0.5896 C   0  0  0  0  0  0  0  0  0  0  0  0
    3.7080    1.2500    0.5309 C   0  0  0  0  0  0  0  0  0  0  0  0
    1.4214    2.0489    0.0066 C   0  0  0  0  0  0  0  0  0  0  0  0
   -0.0190    1.8134    0.3484 C   0  0  0  0  0  0  0  0  0  0  0  0
   -1.9553    0.4771   -0.4947 C   0  0  0  0  0  0  0  0  0  0  0  0
   -2.9213    0.9083    0.4308 C   0  0  0  0  0  0  0  0  0  0  0  0
   -4.0520    0.2287    0.0618 C   0  0  0  0  0  0  0  0  0  0  0  0
   -5.4263    0.1880    0.5764 C   0  0  0  0  0  0  0  0  0  0  0  0
    0.0465   -2.2125   -0.9831 H   0  0  0  0  0  0  0  0  0  0  0  0
    0.3784   -2.3293    2.1196 H   0  0  0  0  0  0  0  0  0  0  0  0
   -1.1550   -1.9273    1.2280 H   0  0  0  0  0  0  0  0  0  0  0  0
   -1.0958   -4.1592    0.0973 H   0  0  0  0  0  0  0  0  0  0  0  0
    0.4331   -4.5727    0.9964 H   0  0  0  0  0  0  0  0  0  0  0  0
    2.4372   -2.9412    0.8175 H   0  0  0  0  0  0  0  0  0  0  0  0
    2.3690   -3.2005   -0.9448 H   0  0  0  0  0  0  0  0  0  0  0  0
    4.2704   -1.4820    0.5580 H   0  0  0  0  0  0  0  0  0  0  0  0
    4.2324   -1.7149   -1.2092 H   0  0  0  0  0  0  0  0  0  0  0  0
    5.2984    0.4397   -0.6690 H   0  0  0  0  0  0  0  0  0  0  0  0
    3.7788    0.6913   -1.5388 H   0  0  0  0  0  0  0  0  0  0  0  0
    4.0108    2.2843    0.3335 H   0  0  0  0  0  0  0  0  0  0  0  0
    4.1449    0.9478    1.4886 H   0  0  0  0  0  0  0  0  0  0  0  0
    1.8905    0.5053    1.3080 H   0  0  0  0  0  0  0  0  0  0  0  0
   -0.0497    0.4989   -1.2529 H   0  0  0  0  0  0  0  0  0  0  0  0
   -2.8372    1.6050    1.2510 H   0  0  0  0  0  0  0  0  0  0  0  0
   -6.1358    0.5022   -0.1953 H   0  0  0  0  0  0  0  0  0  0  0  0
   -5.6888   -0.8262    0.8928 H   0  0  0  0  0  0  0  0  0  0  0  0
   -5.5458    0.8530    1.4374 H   0  0  0  0  0  0  0  0  0  0  0  0
  1 11  1  0  0  0  0
  1 12  1  0  0  0  0
  2 15  2  0  0  0  0
  3  7  1  0  0  0  0
  3 19  1  0  0  0  0
  4 16  2  0  0  0  0
  5 14  1  0  0  0  0
  5 15  1  0  0  0  0
  5 34  1  0  0  0  0
  6 16  1  0  0  0  0
  6 17  1  0  0  0  0
  6 35  1  0  0  0  0
  7 17  2  0  0  0  0
  8  9  1  0  0  0  0
  8 10  1  0  0  0  0
  8 11  1  0  0  0  0
  8 21  1  0  0  0  0
  9 10  1  0  0  0  0
  9 22  1  0  0  0  0
  9 23  1  0  0  0  0
 10 24  1  0  0  0  0
 10 25  1  0  0  0  0
 11 26  1  0  0  0  0
 11 27  1  0  0  0  0
 12 13  1  0  0  0  0
 12 28  1  0  0  0  0
 12 29  1  0  0  0  0
 13 14  1  0  0  0  0
 13 30  1  0  0  0  0
 13 31  1  0  0  0  0
 14 32  1  0  0  0  0
 14 33  1  0  0  0  0
 15 16  1  0  0  0  0
 17 18  1  0  0  0  0
 18 19  2  0  0  0  0
 18 36  1  0  0  0  0
 19 20  1  0  0  0  0
 20 37  1  0  0  0  0
 20 38  1  0  0  0  0
 20 39  1  0  0  0  0
M  END
> <PUBCHEM_COMPOUND_CID>
47205560

> <PUBCHEM_CONFORMER_RMSD>
1

> <PUBCHEM_CONFORMER_DIVERSEORDER>
2
40
30
17
3
32
13
34
64
36
15
5
12
31
56
46
57
61
9
11
60
1
63
4
29
16
42
22
19
38
59
25
37
24
28
52
23
27
55
49
35
54
62
53
20
45
7
10
41
51
58
26
18
14
43
47
44
50
6
21
48
39
8
33

> <PUBCHEM_MMFF94_PARTIAL_CHARGES>
27
1 -0.56
10 -0.2
11 0.38
12 0.28
14 0.3
15 0.63
16 0.63
17 0.35
18 -0.15
19 -0.04
2 -0.57
20 0.18
21 0.1
22 0.1
23 0.1
24 0.1
25 0.1
3 -0.02
34 0.37
35 0.37
36 0.15
4 -0.57
5 -0.73
6 -0.49
7 -0.41
8 -0.19
9 -0.2

> <PUBCHEM_EFFECTIVE_ROTOR_COUNT>
10.6

> <PUBCHEM_PHARMACOPHORE_FEATURES>
6
1 1 acceptor
1 2 acceptor
1 4 acceptor
1 5 donor
1 6 donor
5 3 7 17 18 19 rings

> <PUBCHEM_HEAVY_ATOM_COUNT>
20

> <PUBCHEM_ATOM_DEF_STEREO_COUNT>
0

> <PUBCHEM_ATOM_UDEF_STEREO_COUNT>
0

> <PUBCHEM_BOND_DEF_STEREO_COUNT>
0

> <PUBCHEM_BOND_UDEF_STEREO_COUNT>
0

> <PUBCHEM_ISOTOPIC_ATOM_COUNT>
0

> <PUBCHEM_COMPONENT_COUNT>
1

> <PUBCHEM_CACTVS_TAUTO_COUNT>
16

> <PUBCHEM_CONFORMER_ID>
02D04CB800000002

> <PUBCHEM_MMFF94_ENERGY>
23.6063

> <PUBCHEM_FEATURE_SELFOVERLAP>
30.447

> <PUBCHEM_SHAPE_MULTIPOLES>
373.17
8.1
3.84
1.02
5.46
2.51
0.02
-1.34
-0.59
-2.18
0.77
0.3
-0.01
0

> <PUBCHEM_SHAPE_SELFOVERLAP>
753.927

> <PUBCHEM_SHAPE_VOLUME>
217.1

> <PUBCHEM_COORDINATE_TYPE>
2
5
10

$$$$

