11954183
  -OEChem-07051213073D

 53 57  0     1  0  0  0  0  0999 V2000
    2.5221   -2.5337   -0.5821 O   0  0  0  0  0  0  0  0  0  0  0  0
   -4.6293    0.1978   -0.9374 O   0  0  0  0  0  0  0  0  0  0  0  0
    3.0485   -0.3556    0.2727 C   0  0  2  0  0  0  0  0  0  0  0  0
    2.2656    0.6283   -0.6249 C   0  0  1  0  0  0  0  0  0  0  0  0
    3.7065    0.4446    1.3583 C   0  0  1  0  0  0  0  0  0  0  0  0
    4.5659   -0.2837    0.3663 C   0  0  0  0  0  0  0  0  0  0  0  0
    0.7489    0.6563   -0.2147 C   0  0  2  0  0  0  0  0  0  0  0  0
    2.4272   -1.6944    0.5683 C   0  0  1  0  0  0  0  0  0  0  0  0
    0.1507   -0.7757   -0.0632 C   0  0  1  0  0  0  0  0  0  0  0  0
    2.9338    2.0044   -0.2968 C   0  0  0  0  0  0  0  0  0  0  0  0
    3.3837    1.8955    1.1678 C   0  0  0  0  0  0  0  0  0  0  0  0
    0.9629   -1.5723    0.9703 C   0  0  0  0  0  0  0  0  0  0  0  0
   -1.3189   -0.6581    0.3652 C   0  0  1  0  0  0  0  0  0  0  0  0
   -2.1839    0.1329   -0.6402 C   0  0  2  0  0  0  0  0  0  0  0  0
   -0.1269    1.5543   -1.1305 C   0  0  0  0  0  0  0  0  0  0  0  0
    2.4752    0.2912   -2.1087 C   0  0  0  0  0  0  0  0  0  0  0  0
   -1.6150    1.5606   -0.7358 C   0  0  0  0  0  0  0  0  0  0  0  0
   -2.1189   -1.9389    0.5929 C   0  0  0  0  0  0  0  0  0  0  0  0
   -3.5921   -0.0264    0.0085 C   0  0  2  0  0  0  0  0  0  0  0  0
   -3.5949   -1.5062    0.4747 C   0  0  0  0  0  0  0  0  0  0  0  0
   -2.2011   -0.4887   -2.0683 C   0  0  0  0  0  0  0  0  0  0  0  0
   -3.8147    0.8695    1.1605 C   0  0  0  0  0  0  0  0  0  0  0  0
   -3.9954    1.5983    2.0971 C   0  0  0  0  0  0  0  0  0  0  0  0
    3.6780    0.1063    2.3828 H   0  0  0  0  0  0  0  0  0  0  0  0
    5.1166    0.2839   -0.3731 H   0  0  0  0  0  0  0  0  0  0  0  0
    5.1051   -1.1553    0.7209 H   0  0  0  0  0  0  0  0  0  0  0  0
    0.6948    1.1108    0.7865 H   0  0  0  0  0  0  0  0  0  0  0  0
    2.9641   -2.2046    1.3773 H   0  0  0  0  0  0  0  0  0  0  0  0
    0.2077   -1.3047   -1.0206 H   0  0  0  0  0  0  0  0  0  0  0  0
    2.2846    2.8690   -0.4540 H   0  0  0  0  0  0  0  0  0  0  0  0
    3.8185    2.1582   -0.9287 H   0  0  0  0  0  0  0  0  0  0  0  0
    4.2477    2.5354    1.3701 H   0  0  0  0  0  0  0  0  0  0  0  0
    2.5715    2.1877    1.8420 H   0  0  0  0  0  0  0  0  0  0  0  0
    0.8927   -1.0841    1.9507 H   0  0  0  0  0  0  0  0  0  0  0  0
    0.5372   -2.5777    1.0717 H   0  0  0  0  0  0  0  0  0  0  0  0
   -1.3166   -0.1223    1.3280 H   0  0  0  0  0  0  0  0  0  0  0  0
   -0.0387    1.2387   -2.1744 H   0  0  0  0  0  0  0  0  0  0  0  0
    0.2317    2.5885   -1.0974 H   0  0  0  0  0  0  0  0  0  0  0  0
    2.1267    1.1006   -2.7582 H   0  0  0  0  0  0  0  0  0  0  0  0
    3.5357    0.1332   -2.3354 H   0  0  0  0  0  0  0  0  0  0  0  0
    1.9496   -0.6241   -2.3966 H   0  0  0  0  0  0  0  0  0  0  0  0
   -1.6952    2.0820    0.2248 H   0  0  0  0  0  0  0  0  0  0  0  0
   -2.1862    2.1539   -1.4598 H   0  0  0  0  0  0  0  0  0  0  0  0
   -1.9139   -2.3767    1.5753 H   0  0  0  0  0  0  0  0  0  0  0  0
   -1.8843   -2.6976   -0.1622 H   0  0  0  0  0  0  0  0  0  0  0  0
   -4.1127   -2.1627   -0.2347 H   0  0  0  0  0  0  0  0  0  0  0  0
   -4.1046   -1.6335    1.4377 H   0  0  0  0  0  0  0  0  0  0  0  0
    3.4659   -2.6413   -0.7897 H   0  0  0  0  0  0  0  0  0  0  0  0
   -2.7903    0.1324   -2.7531 H   0  0  0  0  0  0  0  0  0  0  0  0
   -1.2038   -0.5763   -2.5067 H   0  0  0  0  0  0  0  0  0  0  0  0
   -2.6341   -1.4938   -2.0853 H   0  0  0  0  0  0  0  0  0  0  0  0
   -4.6868   -0.5637   -1.5377 H   0  0  0  0  0  0  0  0  0  0  0  0
   -4.1547    2.2450    2.9279 H   0  0  0  0  0  0  0  0  0  0  0  0
  1  8  1  0  0  0  0
  1 48  1  0  0  0  0
  2 19  1  0  0  0  0
  2 52  1  0  0  0  0
  3  4  1  0  0  0  0
  3  5  1  0  0  0  0
  3  6  1  0  0  0  0
  3  8  1  0  0  0  0
  4  7  1  0  0  0  0
  4 10  1  0  0  0  0
  4 16  1  0  0  0  0
  5  6  1  0  0  0  0
  5 11  1  0  0  0  0
  5 24  1  0  0  0  0
  6 25  1  0  0  0  0
  6 26  1  0  0  0  0
  7  9  1  0  0  0  0
  7 15  1  0  0  0  0
  7 27  1  0  0  0  0
  8 12  1  0  0  0  0
  8 28  1  0  0  0  0
  9 12  1  0  0  0  0
  9 13  1  0  0  0  0
  9 29  1  0  0  0  0
 10 11  1  0  0  0  0
 10 30  1  0  0  0  0
 10 31  1  0  0  0  0
 11 32  1  0  0  0  0
 11 33  1  0  0  0  0
 12 34  1  0  0  0  0
 12 35  1  0  0  0  0
 13 14  1  0  0  0  0
 13 18  1  0  0  0  0
 13 36  1  0  0  0  0
 14 17  1  0  0  0  0
 14 19  1  0  0  0  0
 14 21  1  0  0  0  0
 15 17  1  0  0  0  0
 15 37  1  0  0  0  0
 15 38  1  0  0  0  0
 16 39  1  0  0  0  0
 16 40  1  0  0  0  0
 16 41  1  0  0  0  0
 17 42  1  0  0  0  0
 17 43  1  0  0  0  0
 18 20  1  0  0  0  0
 18 44  1  0  0  0  0
 18 45  1  0  0  0  0
 19 20  1  0  0  0  0
 19 22  1  0  0  0  0
 20 46  1  0  0  0  0
 20 47  1  0  0  0  0
 21 49  1  0  0  0  0
 21 50  1  0  0  0  0
 21 51  1  0  0  0  0
 22 23  3  0  0  0  0
 23 53  1  0  0  0  0
M  END
> <PUBCHEM_COMPOUND_CID>
11954183

> <PUBCHEM_CONFORMER_RMSD>
0.6

> <PUBCHEM_CONFORMER_DIVERSEORDER>
1
2

> <PUBCHEM_MMFF94_PARTIAL_CHARGES>
17
1 -0.68
11 0.09
19 0.48
2 -0.68
22 -0.2
23 -0.18
24 0.1
25 0.1
26 0.1
3 -0.19
4 0.09
48 0.4
5 -0.19
52 0.4
53 0.18
6 -0.2
8 0.38

> <PUBCHEM_EFFECTIVE_ROTOR_COUNT>
2

> <PUBCHEM_PHARMACOPHORE_FEATURES>
9
1 1 acceptor
1 1 donor
1 2 acceptor
1 2 donor
1 23 hydrophobe
5 13 14 18 19 20 rings
6 3 4 5 6 10 11 rings
6 3 4 7 8 9 12 rings
6 7 9 13 14 15 17 rings

> <PUBCHEM_HEAVY_ATOM_COUNT>
23

> <PUBCHEM_ATOM_DEF_STEREO_COUNT>
7

> <PUBCHEM_ATOM_UDEF_STEREO_COUNT>
2

> <PUBCHEM_BOND_DEF_STEREO_COUNT>
0

> <PUBCHEM_BOND_UDEF_STEREO_COUNT>
0

> <PUBCHEM_ISOTOPIC_ATOM_COUNT>
0

> <PUBCHEM_COMPONENT_COUNT>
1

> <PUBCHEM_CACTVS_TAUTO_COUNT>
1

> <PUBCHEM_CONFORMER_ID>
00B6680700000001

> <PUBCHEM_MMFF94_ENERGY>
88.8324

> <PUBCHEM_FEATURE_SELFOVERLAP>
45.85

> <PUBCHEM_SHAPE_FINGERPRINT>
10366900 7 18409733945631049736
10646746 165 17749103409051996672
11132069 177 18059861640459037011
11552529 35 18190745232602998211
11796584 16 14405192793226380368
12173636 292 18187081746106422635
12236239 1 18186809084491884575
12403814 3 16773801377036537519
12553582 1 18130776850484885965
12633257 1 18341622529063911832
12670546 56 17967255316712432729
12714826 92 16486976219478479557
12892183 10 18261664909741948553
13140716 1 18129940070506584120
13224815 77 18130785629234163995
13533116 47 18334294305803689627
13583140 156 18333457534241359561
13675066 3 17489872622155190505
14004511 7 18408884044517252217
14178342 30 18340483353059936955
14223421 5 18413112779175347540
14289901 80 17240483589529101997
14787075 74 17685212772969048601
14790565 3 17769363934267503596
15163728 17 16009855299473870481
15196674 1 18130229254875711798
15209294 21 18261388979410125313
15238133 3 17968084365718089968
15309172 13 18272928328284457363
15375358 24 17988658392894454559
15536298 74 18411702097003621326
15788980 27 17131838659313103665
16945 1 18272654549551427132
17349148 13 18129676213559678391
1813 80 16773787091838160983
18186145 218 18410287025517340756
200 152 18337403634439940719
20715895 44 17487642894632263901
21033648 29 17845393144212977844
21267235 1 18202276987917070371
21503847 285 18040146327879974560
21756936 100 17683534936017537112
22182313 1 17844538892328633431
23493267 7 15574716889073972567
23557571 272 18338795602685277642
23559900 14 18343867710496497886
2748010 2 17843694497526562965
296302 2 18341897346709483272
474 4 18263651675529609528
5104073 3 18271527507035539416
5895379 119 17023452174897369928
633830 44 18260545581103732028
7364860 26 18336550507832259198
9709674 26 18341618134906581935

> <PUBCHEM_SHAPE_MULTIPOLES>
461.59
8.51
2.14
1.65
1.83
0.36
-0.22
-1.17
2.36
-0.53
0.34
0.54
-0.48
-0.33

> <PUBCHEM_SHAPE_SELFOVERLAP>
1005.768

> <PUBCHEM_SHAPE_VOLUME>
252.8

> <PUBCHEM_COORDINATE_TYPE>
2
5
10

$$$$

