104748
  -OEChem-07051213012D

  5  4  0     1  0  0  0  0  0999 V2000
    2.8660    0.2500    0.0000 S   0  0  3  0  0  0  0  0  0  0  0  0
    3.7320    0.7500    0.0000 O   0  0  0  0  0  0  0  0  0  0  0  0
    2.0000    0.7500    0.0000 O   0  5  0  0  0  0  0  0  0  0  0  0
    2.8660   -0.7500    0.0000 O   0  0  0  0  0  0  0  0  0  0  0  0
    4.2690    0.4400    0.0000 H   0  0  0  0  0  0  0  0  0  0  0  0
  1  2  1  0  0  0  0
  1  3  1  0  0  0  0
  1  4  2  0  0  0  0
  2  5  1  0  0  0  0
M  CHG  1   3  -1
M  END
> <PUBCHEM_COMPOUND_CID>
104748

> <PUBCHEM_COMPOUND_CANONICALIZED>
1

> <PUBCHEM_CACTVS_COMPLEXITY>
24.8

> <PUBCHEM_CACTVS_HBOND_ACCEPTOR>
4

> <PUBCHEM_CACTVS_HBOND_DONOR>
1

> <PUBCHEM_CACTVS_ROTATABLE_BOND>
0

> <PUBCHEM_CACTVS_SUBSKEYS>
AAADcQAAMABAAAAAAAAAAAAAAAAAAAAAAAAAAAAAAAAAAAAAAAAAAAAACAAAAAAAAAAAAAAAAIAAAAAAACAAAAAAAAAAAAAAAAAAAAAAAAAAAAAAAAAAAAAAAAAAAAAAAAAAAAAAAAAAAAAAAAAAAAAAAA==

> <PUBCHEM_IUPAC_OPENEYE_NAME>
hydrogen sulfite

> <PUBCHEM_IUPAC_CAS_NAME>
hydrogen sulfite

> <PUBCHEM_IUPAC_NAME>
hydrogen sulfite

> <PUBCHEM_IUPAC_SYSTEMATIC_NAME>
hydrogen sulfite

> <PUBCHEM_IUPAC_TRADITIONAL_NAME>
bisulfite

> <PUBCHEM_IUPAC_INCHI>
InChI=1S/H2O3S/c1-4(2)3/h(H2,1,2,3)/p-1

> <PUBCHEM_IUPAC_INCHIKEY>
LSNNMFCWUKXFEE-UHFFFAOYSA-M

> <PUBCHEM_XLOGP3_AA>
-1

> <PUBCHEM_EXACT_MASS>
80.96464

> <PUBCHEM_MOLECULAR_FORMULA>
HO3S-

> <PUBCHEM_MOLECULAR_WEIGHT>
81.07114

> <PUBCHEM_OPENEYE_CAN_SMILES>
OS(=O)[O-]

> <PUBCHEM_OPENEYE_ISO_SMILES>
OS(=O)[O-]

> <PUBCHEM_CACTVS_TPSA>
79.6

> <PUBCHEM_MONOISOTOPIC_WEIGHT>
80.96464

> <PUBCHEM_TOTAL_CHARGE>
-1

> <PUBCHEM_HEAVY_ATOM_COUNT>
4

> <PUBCHEM_ATOM_DEF_STEREO_COUNT>
0

> <PUBCHEM_ATOM_UDEF_STEREO_COUNT>
0

> <PUBCHEM_BOND_DEF_STEREO_COUNT>
0

> <PUBCHEM_BOND_UDEF_STEREO_COUNT>
0

> <PUBCHEM_ISOTOPIC_ATOM_COUNT>
0

> <PUBCHEM_COMPONENT_COUNT>
1

> <PUBCHEM_CACTVS_TAUTO_COUNT>
1

> <PUBCHEM_COORDINATE_TYPE>
1
5
255

$$$$

