23675321
  -OEChem-07051212542D

 42 43  0     1  0  0  0  0  0999 V2000
    6.3301   -1.7307    0.0000 S   0  0  0  0  0  0  0  0  0  0  0  0
   12.3245   -2.7693    0.0000 S   0  0  0  0  0  0  0  0  0  0  0  0
    5.4641    2.7693    0.0000 Na  0  3  0  0  0  0  0  0  0  0  0  0
    8.9101    0.4820    0.0000 O   0  0  0  0  0  0  0  0  0  0  0  0
    3.7320   -0.2307    0.0000 O   0  0  0  0  0  0  0  0  0  0  0  0
    5.4641    1.7693    0.0000 O   0  5  0  0  0  0  0  0  0  0  0  0
   10.1373   -0.7212    0.0000 O   0  0  0  0  0  0  0  0  0  0  0  0
    7.1962    1.7693    0.0000 O   0  0  0  0  0  0  0  0  0  0  0  0
    2.8660    1.2693    0.0000 O   0  0  0  0  0  0  0  0  0  0  0  0
    7.1962   -0.2307    0.0000 N   0  0  0  0  0  0  0  0  0  0  0  0
    8.9101   -1.9434    0.0000 N   0  0  0  0  0  0  0  0  0  0  0  0
    7.1962   -1.2307    0.0000 C   0  0  1  0  0  0  0  0  0  0  0  0
    8.2044   -1.2349    0.0000 C   0  0  1  0  0  0  0  0  0  0  0  0
    8.2044   -0.2266    0.0000 C   0  0  0  0  0  0  0  0  0  0  0  0
    6.3301    0.2693    0.0000 C   0  0  0  0  0  0  0  0  0  0  0  0
    5.4641   -0.2307    0.0000 C   0  0  0  0  0  0  0  0  0  0  0  0
    5.4641   -1.2307    0.0000 C   0  0  0  0  0  0  0  0  0  0  0  0
    4.5981    0.2693    0.0000 C   0  0  0  0  0  0  0  0  0  0  0  0
    9.8765   -1.6866    0.0000 C   0  0  0  0  0  0  0  0  0  0  0  0
    6.3301    1.2693    0.0000 C   0  0  0  0  0  0  0  0  0  0  0  0
   10.5822   -2.3952    0.0000 C   0  0  0  0  0  0  0  0  0  0  0  0
   11.5486   -2.1383    0.0000 C   0  0  0  0  0  0  0  0  0  0  0  0
    2.8660    0.2693    0.0000 C   0  0  0  0  0  0  0  0  0  0  0  0
   11.9089   -1.2055    0.0000 C   0  0  0  0  0  0  0  0  0  0  0  0
   12.9075   -1.2599    0.0000 C   0  0  0  0  0  0  0  0  0  0  0  0
   13.1643   -2.2263    0.0000 C   0  0  0  0  0  0  0  0  0  0  0  0
    2.0000   -0.2307    0.0000 C   0  0  0  0  0  0  0  0  0  0  0  0
    7.4145   -2.0522    0.0000 H   0  0  0  0  0  0  0  0  0  0  0  0
    7.9654   -1.8070    0.0000 H   0  0  0  0  0  0  0  0  0  0  0  0
    4.8535   -1.1231    0.0000 H   0  0  0  0  0  0  0  0  0  0  0  0
    5.2520   -1.8134    0.0000 H   0  0  0  0  0  0  0  0  0  0  0  0
    8.7484   -2.5420    0.0000 H   0  0  0  0  0  0  0  0  0  0  0  0
    4.9966    0.7442    0.0000 H   0  0  0  0  0  0  0  0  0  0  0  0
    4.1996    0.7442    0.0000 H   0  0  0  0  0  0  0  0  0  0  0  0
   10.0736   -2.7498    0.0000 H   0  0  0  0  0  0  0  0  0  0  0  0
   10.8431   -2.9576    0.0000 H   0  0  0  0  0  0  0  0  0  0  0  0
   11.5723   -0.6848    0.0000 H   0  0  0  0  0  0  0  0  0  0  0  0
   13.2986   -0.7789    0.0000 H   0  0  0  0  0  0  0  0  0  0  0  0
   13.7427   -2.4497    0.0000 H   0  0  0  0  0  0  0  0  0  0  0  0
    1.6900    0.3062    0.0000 H   0  0  0  0  0  0  0  0  0  0  0  0
    1.4631   -0.5407    0.0000 H   0  0  0  0  0  0  0  0  0  0  0  0
    2.3100   -0.7677    0.0000 H   0  0  0  0  0  0  0  0  0  0  0  0
  1 12  1  0  0  0  0
  1 17  1  0  0  0  0
  2 22  1  0  0  0  0
  2 26  1  0  0  0  0
  4 14  2  0  0  0  0
  5 18  1  0  0  0  0
  5 23  1  0  0  0  0
  6 20  1  0  0  0  0
  7 19  2  0  0  0  0
  8 20  2  0  0  0  0
  9 23  2  0  0  0  0
 10 12  1  0  0  0  0
 10 14  1  0  0  0  0
 10 15  1  0  0  0  0
 13 11  1  1  0  0  0
 11 19  1  0  0  0  0
 11 32  1  0  0  0  0
 12 13  1  0  0  0  0
 12 28  1  6  0  0  0
 13 14  1  0  0  0  0
 13 29  1  0  0  0  0
 15 16  2  0  0  0  0
 15 20  1  0  0  0  0
 16 17  1  0  0  0  0
 16 18  1  0  0  0  0
 17 30  1  0  0  0  0
 17 31  1  0  0  0  0
 18 33  1  0  0  0  0
 18 34  1  0  0  0  0
 19 21  1  0  0  0  0
 21 22  1  0  0  0  0
 21 35  1  0  0  0  0
 21 36  1  0  0  0  0
 22 24  2  0  0  0  0
 23 27  1  0  0  0  0
 24 25  1  0  0  0  0
 24 37  1  0  0  0  0
 25 26  2  0  0  0  0
 25 38  1  0  0  0  0
 26 39  1  0  0  0  0
 27 40  1  0  0  0  0
 27 41  1  0  0  0  0
 27 42  1  0  0  0  0
M  CHG  2   3   1   6  -1
M  END
> <PUBCHEM_COMPOUND_CID>
23675321

> <PUBCHEM_COMPOUND_CANONICALIZED>
1

> <PUBCHEM_CACTVS_COMPLEXITY>
686

> <PUBCHEM_CACTVS_HBOND_ACCEPTOR>
8

> <PUBCHEM_CACTVS_HBOND_DONOR>
1

> <PUBCHEM_CACTVS_ROTATABLE_BOND>
7

> <PUBCHEM_CACTVS_SUBSKEYS>
AAADccB7OCBgAAAAAAAAAAAAAABYASAAAAAgAAAAAAAQAAABgAAAHgQQAAAADCjl0AayCYPABAiMAiXSWAADAIBgCBBIiJmIAMgKZDqgtTGWEAAglgC4qQcYCAAAAAAAAAAAAAAAAAAAAAAAAAAAAAAAAA==

> <PUBCHEM_IUPAC_OPENEYE_NAME>
sodium (6R,7R)-3-(acetoxymethyl)-8-oxo-7-[[2-(2-thienyl)acetyl]amino]-5-thia-1-azabicyclo[4.2.0]oct-2-ene-2-carboxylate

> <PUBCHEM_IUPAC_CAS_NAME>
sodium (6R,7R)-3-(acetyloxymethyl)-8-oxo-7-[(1-oxo-2-thiophen-2-ylethyl)amino]-5-thia-1-azabicyclo[4.2.0]oct-2-ene-2-carboxylate

> <PUBCHEM_IUPAC_NAME>
sodium (6R,7R)-3-(acetyloxymethyl)-8-oxo-7-[(2-thiophen-2-ylacetyl)amino]-5-thia-1-azabicyclo[4.2.0]oct-2-ene-2-carboxylate

> <PUBCHEM_IUPAC_SYSTEMATIC_NAME>
sodium (6R,7R)-3-(acetyloxymethyl)-8-oxidanylidene-7-(2-thiophen-2-ylethanoylamino)-5-thia-1-azabicyclo[4.2.0]oct-2-ene-2-carboxylate

> <PUBCHEM_IUPAC_TRADITIONAL_NAME>
sodium (6R,7R)-3-(acetoxymethyl)-8-keto-7-[[2-(2-thienyl)acetyl]amino]-5-thia-1-azabicyclo[4.2.0]oct-2-ene-2-carboxylate

> <PUBCHEM_IUPAC_INCHI>
InChI=1S/C16H16N2O6S2.Na/c1-8(19)24-6-9-7-26-15-12(14(21)18(15)13(9)16(22)23)17-11(20)5-10-3-2-4-25-10;/h2-4,12,15H,5-7H2,1H3,(H,17,20)(H,22,23);/q;+1/p-1/t12-,15-;/m1./s1

> <PUBCHEM_IUPAC_INCHIKEY>
VUFGUVLLDPOSBC-XRZFDKQNSA-M

> <PUBCHEM_EXACT_MASS>
418.026922

> <PUBCHEM_MOLECULAR_FORMULA>
C16H15N2NaO6S2

> <PUBCHEM_MOLECULAR_WEIGHT>
418.419869

> <PUBCHEM_OPENEYE_CAN_SMILES>
CC(=O)OCC1=C(N2C(C(C2=O)NC(=O)CC3=CC=CS3)SC1)C(=O)[O-].[Na+]

> <PUBCHEM_OPENEYE_ISO_SMILES>
CC(=O)OCC1=C(N2[C@@H]([C@@H](C2=O)NC(=O)CC3=CC=CS3)SC1)C(=O)[O-].[Na+]

> <PUBCHEM_CACTVS_TPSA>
169

> <PUBCHEM_MONOISOTOPIC_WEIGHT>
418.026922

> <PUBCHEM_TOTAL_CHARGE>
0

> <PUBCHEM_HEAVY_ATOM_COUNT>
27

> <PUBCHEM_ATOM_DEF_STEREO_COUNT>
2

> <PUBCHEM_ATOM_UDEF_STEREO_COUNT>
0

> <PUBCHEM_BOND_DEF_STEREO_COUNT>
0

> <PUBCHEM_BOND_UDEF_STEREO_COUNT>
0

> <PUBCHEM_ISOTOPIC_ATOM_COUNT>
0

> <PUBCHEM_COMPONENT_COUNT>
2

> <PUBCHEM_CACTVS_TAUTO_COUNT>
4

> <PUBCHEM_NONSTANDARDBOND>
3  6  7

> <PUBCHEM_COORDINATE_TYPE>
1
5
255

> <PUBCHEM_BONDANNOTATIONS>
13  11  5
12  28  6
2  22  8
2  26  8
22  24  8
24  25  8
25  26  8

$$$$

