49859674
  -OEChem-07051213152D

 67 69  0     1  0  0  0  0  0999 V2000
    6.8671   -0.5000    0.0000 P   0  0  3  0  0  0  0  0  0  0  0  0
   12.0632   -0.5000    0.0000 O   0  0  0  0  0  0  0  0  0  0  0  0
   10.3312   -0.5000    0.0000 O   0  0  0  0  0  0  0  0  0  0  0  0
   12.0632    2.5000    0.0000 O   0  0  0  0  0  0  0  0  0  0  0  0
   12.0632   -2.5000    0.0000 O   0  0  0  0  0  0  0  0  0  0  0  0
   10.3312   -3.5000    0.0000 O   0  0  0  0  0  0  0  0  0  0  0  0
   13.7953    0.5000    0.0000 O   0  0  0  0  0  0  0  0  0  0  0  0
    8.5991   -2.5000    0.0000 O   0  0  0  0  0  0  0  0  0  0  0  0
   10.3312    0.5000    0.0000 O   0  0  0  0  0  0  0  0  0  0  0  0
    7.7331   -1.0000    0.0000 O   0  0  0  0  0  0  0  0  0  0  0  0
   10.3312    2.5000    0.0000 O   0  0  0  0  0  0  0  0  0  0  0  0
    4.2690    0.0000    0.0000 O   0  0  0  0  0  0  0  0  0  0  0  0
    6.0010    0.0000    0.0000 O   0  0  0  0  0  0  0  0  0  0  0  0
   13.7953    3.5000    0.0000 O   0  0  0  0  0  0  0  0  0  0  0  0
    6.0010   -2.0000    0.0000 O   0  0  0  0  0  0  0  0  0  0  0  0
    4.2690   -3.0000    0.0000 O   0  0  0  0  0  0  0  0  0  0  0  0
    2.5369   -2.0000    0.0000 O   0  0  0  0  0  0  0  0  0  0  0  0
    6.3671   -1.3660    0.0000 O   0  0  0  0  0  0  0  0  0  0  0  0
    7.3671    0.3660    0.0000 O   0  0  0  0  0  0  0  0  0  0  0  0
   12.0632    0.5000    0.0000 C   0  0  1  0  0  0  0  0  0  0  0  0
   11.1972   -1.0000    0.0000 C   0  0  1  0  0  0  0  0  0  0  0  0
   11.1972   -2.0000    0.0000 C   0  0  2  0  0  0  0  0  0  0  0  0
   10.3312   -2.5000    0.0000 C   0  0  2  0  0  0  0  0  0  0  0  0
   12.9292    1.0000    0.0000 C   0  0  1  0  0  0  0  0  0  0  0  0
    9.4651   -2.0000    0.0000 C   0  0  1  0  0  0  0  0  0  0  0  0
    9.4651   -1.0000    0.0000 C   0  0  1  0  0  0  0  0  0  0  0  0
   11.1972    1.0000    0.0000 C   0  0  1  0  0  0  0  0  0  0  0  0
   12.9292    2.0000    0.0000 C   0  0  1  0  0  0  0  0  0  0  0  0
   11.1972    2.0000    0.0000 C   0  0  2  0  0  0  0  0  0  0  0  0
    8.5991   -0.5000    0.0000 C   0  0  0  0  0  0  0  0  0  0  0  0
   13.7953    2.5000    0.0000 C   0  0  0  0  0  0  0  0  0  0  0  0
    5.1350   -1.5000    0.0000 C   0  0  2  0  0  0  0  0  0  0  0  0
    4.2690   -2.0000    0.0000 C   0  0  2  0  0  0  0  0  0  0  0  0
    5.1350   -0.5000    0.0000 C   0  0  2  0  0  0  0  0  0  0  0  0
    3.4030   -1.5000    0.0000 C   0  0  1  0  0  0  0  0  0  0  0  0
    3.4030   -0.5000    0.0000 C   0  0  0  0  0  0  0  0  0  0  0  0
   12.6002    0.1900    0.0000 H   0  0  0  0  0  0  0  0  0  0  0  0
   11.1972   -0.3800    0.0000 H   0  0  0  0  0  0  0  0  0  0  0  0
   11.1972   -2.6200    0.0000 H   0  0  0  0  0  0  0  0  0  0  0  0
   10.8681   -2.8100    0.0000 H   0  0  0  0  0  0  0  0  0  0  0  0
   12.9292    0.3800    0.0000 H   0  0  0  0  0  0  0  0  0  0  0  0
    9.4651   -2.6200    0.0000 H   0  0  0  0  0  0  0  0  0  0  0  0
    9.4651   -0.3800    0.0000 H   0  0  0  0  0  0  0  0  0  0  0  0
   10.6603    1.3100    0.0000 H   0  0  0  0  0  0  0  0  0  0  0  0
   12.9292    2.6200    0.0000 H   0  0  0  0  0  0  0  0  0  0  0  0
   10.6603    1.6900    0.0000 H   0  0  0  0  0  0  0  0  0  0  0  0
    8.9976   -0.0251    0.0000 H   0  0  0  0  0  0  0  0  0  0  0  0
    8.2006   -0.0251    0.0000 H   0  0  0  0  0  0  0  0  0  0  0  0
   14.0073    1.9174    0.0000 H   0  0  0  0  0  0  0  0  0  0  0  0
   14.4058    2.6077    0.0000 H   0  0  0  0  0  0  0  0  0  0  0  0
   12.0632   -3.1200    0.0000 H   0  0  0  0  0  0  0  0  0  0  0  0
    9.7942   -3.8100    0.0000 H   0  0  0  0  0  0  0  0  0  0  0  0
   14.3322    0.8100    0.0000 H   0  0  0  0  0  0  0  0  0  0  0  0
    8.5991   -3.1200    0.0000 H   0  0  0  0  0  0  0  0  0  0  0  0
    9.7942    0.8100    0.0000 H   0  0  0  0  0  0  0  0  0  0  0  0
    5.1350   -2.1200    0.0000 H   0  0  0  0  0  0  0  0  0  0  0  0
    4.8059   -2.3100    0.0000 H   0  0  0  0  0  0  0  0  0  0  0  0
    5.1350    0.1200    0.0000 H   0  0  0  0  0  0  0  0  0  0  0  0
    3.4030   -2.1200    0.0000 H   0  0  0  0  0  0  0  0  0  0  0  0
   10.3312    3.1200    0.0000 H   0  0  0  0  0  0  0  0  0  0  0  0
    3.1909    0.0826    0.0000 H   0  0  0  0  0  0  0  0  0  0  0  0
    2.7924   -0.6077    0.0000 H   0  0  0  0  0  0  0  0  0  0  0  0
   14.3322    3.8100    0.0000 H   0  0  0  0  0  0  0  0  0  0  0  0
    6.0010   -2.6200    0.0000 H   0  0  0  0  0  0  0  0  0  0  0  0
    3.7320   -3.3100    0.0000 H   0  0  0  0  0  0  0  0  0  0  0  0
    2.0000   -1.6900    0.0000 H   0  0  0  0  0  0  0  0  0  0  0  0
    6.6771   -1.9030    0.0000 H   0  0  0  0  0  0  0  0  0  0  0  0
  1 10  1  0  0  0  0
  1 13  1  0  0  0  0
  1 18  1  0  0  0  0
  1 19  2  0  0  0  0
 20  2  1  6  0  0  0
 21  2  1  6  0  0  0
  3 21  1  0  0  0  0
  3 26  1  0  0  0  0
  4 28  1  0  0  0  0
  4 29  1  0  0  0  0
 22  5  1  1  0  0  0
  5 51  1  0  0  0  0
 23  6  1  1  0  0  0
  6 52  1  0  0  0  0
 24  7  1  1  0  0  0
  7 53  1  0  0  0  0
 25  8  1  6  0  0  0
  8 54  1  0  0  0  0
 27  9  1  6  0  0  0
  9 55  1  0  0  0  0
 10 30  1  0  0  0  0
 29 11  1  1  0  0  0
 11 60  1  0  0  0  0
 12 34  1  0  0  0  0
 12 36  1  0  0  0  0
 34 13  1  6  0  0  0
 14 31  1  0  0  0  0
 14 63  1  0  0  0  0
 32 15  1  6  0  0  0
 15 64  1  0  0  0  0
 33 16  1  1  0  0  0
 16 65  1  0  0  0  0
 35 17  1  6  0  0  0
 17 66  1  0  0  0  0
 18 67  1  0  0  0  0
 20 24  1  0  0  0  0
 20 27  1  0  0  0  0
 20 37  1  0  0  0  0
 21 22  1  0  0  0  0
 21 38  1  0  0  0  0
 22 23  1  0  0  0  0
 22 39  1  0  0  0  0
 23 25  1  0  0  0  0
 23 40  1  0  0  0  0
 24 28  1  0  0  0  0
 24 41  1  0  0  0  0
 25 26  1  0  0  0  0
 25 42  1  0  0  0  0
 26 30  1  1  0  0  0
 26 43  1  0  0  0  0
 27 29  1  0  0  0  0
 27 44  1  0  0  0  0
 28 31  1  6  0  0  0
 28 45  1  0  0  0  0
 29 46  1  0  0  0  0
 30 47  1  0  0  0  0
 30 48  1  0  0  0  0
 31 49  1  0  0  0  0
 31 50  1  0  0  0  0
 32 33  1  0  0  0  0
 32 34  1  0  0  0  0
 32 56  1  0  0  0  0
 33 35  1  0  0  0  0
 33 57  1  0  0  0  0
 34 58  1  0  0  0  0
 35 36  1  0  0  0  0
 35 59  1  0  0  0  0
 36 61  1  0  0  0  0
 36 62  1  0  0  0  0
M  END
> <PUBCHEM_COMPOUND_CID>
49859674

> <PUBCHEM_COMPOUND_CANONICALIZED>
1

> <PUBCHEM_CACTVS_COMPLEXITY>
759

> <PUBCHEM_CACTVS_HBOND_ACCEPTOR>
18

> <PUBCHEM_CACTVS_HBOND_DONOR>
11

> <PUBCHEM_CACTVS_ROTATABLE_BOND>
8

> <PUBCHEM_CACTVS_SUBSKEYS>
AAADceB4PgIAAAAAAAAAAAAAAAAAAAAAAAAkSJAAAAAAAAAAAAAAGgAACCAACBSwgAMACAAABxAAQAAAAIAAAAAAAAAAAAAAAAAREAIAAAAiQAAFAAAHAAHAYAwAAAAAAAAAAAAAAAAAAAAAAAAAAAAAAA==

> <PUBCHEM_IUPAC_OPENEYE_NAME>
[(2R,3R,4S,5R)-3,4,5-trihydroxytetrahydropyran-2-yl] [(2R,3S,4S,5S,6R)-3,4,5-trihydroxy-6-[(2S,3S,4S,5R,6R)-2,3,5-trihydroxy-6-(hydroxymethyl)tetrahydropyran-4-yl]oxy-tetrahydropyran-2-yl]methyl hydrogen phosphate

> <PUBCHEM_IUPAC_CAS_NAME>
[(2R,3R,4S,5R)-3,4,5-trihydroxy-2-oxanyl] [(2R,3S,4S,5S,6R)-3,4,5-trihydroxy-6-[[(2S,3S,4S,5R,6R)-2,3,5-trihydroxy-6-(hydroxymethyl)-4-oxanyl]oxy]-2-oxanyl]methyl hydrogen phosphate

> <PUBCHEM_IUPAC_NAME>
[(2R,3R,4S,5R)-3,4,5-trihydroxyoxan-2-yl] [(2R,3S,4S,5S,6R)-3,4,5-trihydroxy-6-[(2S,3S,4S,5R,6R)-2,3,5-trihydroxy-6-(hydroxymethyl)oxan-4-yl]oxyoxan-2-yl]methyl hydrogen phosphate

> <PUBCHEM_IUPAC_SYSTEMATIC_NAME>
[(2R,3S,4S,5S,6R)-6-[(2R,3R,4S,5S,6S)-2-(hydroxymethyl)-3,5,6-tris(oxidanyl)oxan-4-yl]oxy-3,4,5-tris(oxidanyl)oxan-2-yl]methyl [(2R,3R,4S,5R)-3,4,5-tris(oxidanyl)oxan-2-yl] hydrogen phosphate

> <PUBCHEM_IUPAC_TRADITIONAL_NAME>
[(2R,3R,4S,5R)-3,4,5-trihydroxytetrahydropyran-2-yl] [(2R,3S,4S,5S,6R)-3,4,5-trihydroxy-6-[(2S,3S,4S,5R,6R)-2,3,5-trihydroxy-6-methylol-tetrahydropyran-4-yl]oxy-tetrahydropyran-2-yl]methyl hydrogen phosphate

> <PUBCHEM_IUPAC_INCHI>
InChI=1S/C17H31O18P/c18-1-5-9(22)14(13(26)15(27)32-5)34-17-12(25)10(23)8(21)6(33-17)3-31-36(28,29)35-16-11(24)7(20)4(19)2-30-16/h4-27H,1-3H2,(H,28,29)/t4-,5-,6-,7+,8-,9-,10+,11-,12+,13+,14+,15+,16-,17-/m1/s1

> <PUBCHEM_IUPAC_INCHIKEY>
VKSIIEJIUCAGDU-INGYFCGZSA-N

> <PUBCHEM_XLOGP3_AA>
-7.4

> <PUBCHEM_EXACT_MASS>
554.124801

> <PUBCHEM_MOLECULAR_FORMULA>
C17H31O18P

> <PUBCHEM_MOLECULAR_WEIGHT>
554.391002

> <PUBCHEM_OPENEYE_CAN_SMILES>
C1C(C(C(C(O1)OP(=O)(O)OCC2C(C(C(C(O2)OC3C(C(OC(C3O)O)CO)O)O)O)O)O)O)O

> <PUBCHEM_OPENEYE_ISO_SMILES>
C1[C@H]([C@@H]([C@H]([C@H](O1)OP(=O)(O)OC[C@@H]2[C@H]([C@@H]([C@@H]([C@H](O2)O[C@H]3[C@@H]([C@H](O[C@@H]([C@H]3O)O)CO)O)O)O)O)O)O)O

> <PUBCHEM_CACTVS_TPSA>
295

> <PUBCHEM_MONOISOTOPIC_WEIGHT>
554.124801

> <PUBCHEM_TOTAL_CHARGE>
0

> <PUBCHEM_HEAVY_ATOM_COUNT>
36

> <PUBCHEM_ATOM_DEF_STEREO_COUNT>
14

> <PUBCHEM_ATOM_UDEF_STEREO_COUNT>
0

> <PUBCHEM_BOND_DEF_STEREO_COUNT>
0

> <PUBCHEM_BOND_UDEF_STEREO_COUNT>
0

> <PUBCHEM_ISOTOPIC_ATOM_COUNT>
0

> <PUBCHEM_COMPONENT_COUNT>
1

> <PUBCHEM_CACTVS_TAUTO_COUNT>
1

> <PUBCHEM_COORDINATE_TYPE>
1
5
255

> <PUBCHEM_BONDANNOTATIONS>
29  11  5
34  13  6
32  15  6
33  16  5
35  17  6
20  2  6
21  2  6
26  30  5
28  31  6
22  5  5
23  6  5
24  7  5
25  8  6
27  9  6

$$$$

