17396506
  -OEChem-06241222573D

 53 56  0     0  0  0  0  0  0999 V2000
    1.8519   -1.8715   -1.6576 O   0  0  0  0  0  0  0  0  0  0  0  0
    6.1466   -1.6417    0.2481 O   0  0  0  0  0  0  0  0  0  0  0  0
    0.3155    5.3891   -0.2578 O   0  0  0  0  0  0  0  0  0  0  0  0
   -3.7492    0.4597    0.3585 N   0  0  0  0  0  0  0  0  0  0  0  0
    2.6030   -2.2457    0.5044 N   0  0  0  0  0  0  0  0  0  0  0  0
   -2.0626   -0.7346   -0.4514 C   0  0  0  0  0  0  0  0  0  0  0  0
   -0.7226   -1.1245   -0.9995 C   0  0  0  0  0  0  0  0  0  0  0  0
   -3.1553   -1.6140   -0.2111 C   0  0  0  0  0  0  0  0  0  0  0  0
   -2.4583    0.5329   -0.0915 C   0  0  0  0  0  0  0  0  0  0  0  0
   -4.2006   -0.8395    0.2968 C   0  0  0  0  0  0  0  0  0  0  0  0
    0.2691   -1.5029    0.1051 C   0  0  0  0  0  0  0  0  0  0  0  0
   -1.7416    1.7862   -0.1343 C   0  0  0  0  0  0  0  0  0  0  0  0
   -3.3560   -2.9987   -0.3775 C   0  0  0  0  0  0  0  0  0  0  0  0
    1.6380   -1.8861   -0.4426 C   0  0  0  0  0  0  0  0  0  0  0  0
   -5.4414   -1.3827    0.6480 C   0  0  0  0  0  0  0  0  0  0  0  0
   -4.5922   -3.5558   -0.0305 C   0  0  0  0  0  0  0  0  0  0  0  0
   -5.6173   -2.7585    0.4741 C   0  0  0  0  0  0  0  0  0  0  0  0
   -1.5308    2.5095    1.0396 C   0  0  0  0  0  0  0  0  0  0  0  0
   -1.2612    2.2739   -1.3498 C   0  0  0  0  0  0  0  0  0  0  0  0
    3.9370   -2.6303    0.0596 C   0  0  0  0  0  0  0  0  0  0  0  0
    2.3974   -2.2781    1.9507 C   0  0  0  0  0  0  0  0  0  0  0  0
   -0.8397    3.7203    0.9981 C   0  0  0  0  0  0  0  0  0  0  0  0
   -0.5700    3.4847   -1.3913 C   0  0  0  0  0  0  0  0  0  0  0  0
    4.8234   -1.4227    0.0300 C   0  0  0  0  0  0  0  0  0  0  0  0
   -0.3592    4.2079   -0.2172 C   0  0  0  0  0  0  0  0  0  0  0  0
    4.5832   -0.0844   -0.1779 C   0  0  0  0  0  0  0  0  0  0  0  0
    5.8393    0.5604   -0.0811 C   0  0  0  0  0  0  0  0  0  0  0  0
    6.7578   -0.4299    0.1788 C   0  0  0  0  0  0  0  0  0  0  0  0
    0.4956    6.0770    0.9792 C   0  0  0  0  0  0  0  0  0  0  0  0
   -0.8458   -1.9731   -1.6851 H   0  0  0  0  0  0  0  0  0  0  0  0
   -0.3047   -0.3191   -1.6127 H   0  0  0  0  0  0  0  0  0  0  0  0
   -0.1275   -2.3502    0.6768 H   0  0  0  0  0  0  0  0  0  0  0  0
    0.3953   -0.6506    0.7833 H   0  0  0  0  0  0  0  0  0  0  0  0
   -4.2979    1.2422    0.6880 H   0  0  0  0  0  0  0  0  0  0  0  0
   -2.5673   -3.6353   -0.7680 H   0  0  0  0  0  0  0  0  0  0  0  0
   -6.2402   -0.7628    1.0410 H   0  0  0  0  0  0  0  0  0  0  0  0
   -4.7526   -4.6233   -0.1564 H   0  0  0  0  0  0  0  0  0  0  0  0
   -6.5695   -3.2121    0.7373 H   0  0  0  0  0  0  0  0  0  0  0  0
   -1.8950    2.1429    1.9965 H   0  0  0  0  0  0  0  0  0  0  0  0
   -1.4257    1.7325   -2.2784 H   0  0  0  0  0  0  0  0  0  0  0  0
    4.3367   -3.4004    0.7284 H   0  0  0  0  0  0  0  0  0  0  0  0
    3.8861   -3.0543   -0.9493 H   0  0  0  0  0  0  0  0  0  0  0  0
    3.1410   -1.6351    2.4309 H   0  0  0  0  0  0  0  0  0  0  0  0
    1.4061   -1.9407    2.2517 H   0  0  0  0  0  0  0  0  0  0  0  0
    2.5318   -3.3075    2.2966 H   0  0  0  0  0  0  0  0  0  0  0  0
   -0.7104    4.2301    1.9467 H   0  0  0  0  0  0  0  0  0  0  0  0
   -0.2003    3.8609   -2.3413 H   0  0  0  0  0  0  0  0  0  0  0  0
    3.6276    0.3797   -0.3762 H   0  0  0  0  0  0  0  0  0  0  0  0
    6.0490    1.6148   -0.1878 H   0  0  0  0  0  0  0  0  0  0  0  0
    7.8269   -0.4363    0.3329 H   0  0  0  0  0  0  0  0  0  0  0  0
   -0.4628    6.3793    1.4148 H   0  0  0  0  0  0  0  0  0  0  0  0
    1.1042    5.4940    1.6788 H   0  0  0  0  0  0  0  0  0  0  0  0
    1.0511    6.9949    0.7607 H   0  0  0  0  0  0  0  0  0  0  0  0
  1 14  2  0  0  0  0
  2 24  1  0  0  0  0
  2 28  1  0  0  0  0
  3 25  1  0  0  0  0
  3 29  1  0  0  0  0
  4  9  1  0  0  0  0
  4 10  1  0  0  0  0
  4 34  1  0  0  0  0
  5 14  1  0  0  0  0
  5 20  1  0  0  0  0
  5 21  1  0  0  0  0
  6  7  1  0  0  0  0
  6  8  1  0  0  0  0
  6  9  2  0  0  0  0
  7 11  1  0  0  0  0
  7 30  1  0  0  0  0
  7 31  1  0  0  0  0
  8 10  1  0  0  0  0
  8 13  2  0  0  0  0
  9 12  1  0  0  0  0
 10 15  2  0  0  0  0
 11 14  1  0  0  0  0
 11 32  1  0  0  0  0
 11 33  1  0  0  0  0
 12 18  2  0  0  0  0
 12 19  1  0  0  0  0
 13 16  1  0  0  0  0
 13 35  1  0  0  0  0
 15 17  1  0  0  0  0
 15 36  1  0  0  0  0
 16 17  2  0  0  0  0
 16 37  1  0  0  0  0
 17 38  1  0  0  0  0
 18 22  1  0  0  0  0
 18 39  1  0  0  0  0
 19 23  2  0  0  0  0
 19 40  1  0  0  0  0
 20 24  1  0  0  0  0
 20 41  1  0  0  0  0
 20 42  1  0  0  0  0
 21 43  1  0  0  0  0
 21 44  1  0  0  0  0
 21 45  1  0  0  0  0
 22 25  2  0  0  0  0
 22 46  1  0  0  0  0
 23 25  1  0  0  0  0
 23 47  1  0  0  0  0
 24 26  2  0  0  0  0
 26 27  1  0  0  0  0
 26 48  1  0  0  0  0
 27 28  2  0  0  0  0
 27 49  1  0  0  0  0
 28 50  1  0  0  0  0
 29 51  1  0  0  0  0
 29 52  1  0  0  0  0
 29 53  1  0  0  0  0
M  END
> <PUBCHEM_COMPOUND_CID>
17396506

> <PUBCHEM_CONFORMER_RMSD>
1.2

> <PUBCHEM_CONFORMER_DIVERSEORDER>
1
19
78
34
35
3
90
58
37
92
4
25
62
20
17
65
43
53
86
23
74
12
52
82
69
45
71
83
36
29
22
32
59
84
5
2
87
28
73
48
50
41
11
54
38
75
33
77
60
15
9
13
80
44
88
26
61
10
91
21
81
14
24
42
46
40
16
68
6
51
55
8
64
70
27
49
56
66
30
7
18
31
72
85
79
47
89
76
67
57
39
63

> <PUBCHEM_MMFF94_PARTIAL_CHARGES>
40
1 -0.57
10 -0.15
11 0.06
12 0.05
13 -0.15
14 0.57
15 -0.15
16 -0.15
17 -0.15
18 -0.15
19 -0.15
2 -0.28
20 0.48
21 0.3
22 -0.15
23 -0.15
24 -0.04
25 0.08
26 -0.15
27 -0.15
28 -0.01
29 0.28
3 -0.36
34 0.27
35 0.15
36 0.15
37 0.15
38 0.15
39 0.15
4 0.03
40 0.15
46 0.15
47 0.15
48 0.15
49 0.15
5 -0.66
50 0.15
6 -0.18
7 0.18
9 -0.2

> <PUBCHEM_EFFECTIVE_ROTOR_COUNT>
8

> <PUBCHEM_PHARMACOPHORE_FEATURES>
9
1 1 acceptor
1 2 acceptor
1 3 acceptor
1 4 cation
1 4 donor
5 2 24 26 27 28 rings
5 4 6 8 9 10 rings
6 12 18 19 22 23 25 rings
6 8 10 13 15 16 17 rings

> <PUBCHEM_HEAVY_ATOM_COUNT>
29

> <PUBCHEM_ATOM_DEF_STEREO_COUNT>
0

> <PUBCHEM_ATOM_UDEF_STEREO_COUNT>
0

> <PUBCHEM_BOND_DEF_STEREO_COUNT>
0

> <PUBCHEM_BOND_UDEF_STEREO_COUNT>
0

> <PUBCHEM_ISOTOPIC_ATOM_COUNT>
0

> <PUBCHEM_COMPONENT_COUNT>
1

> <PUBCHEM_CACTVS_TAUTO_COUNT>
1

> <PUBCHEM_CONFORMER_ID>
0109731A00000001

> <PUBCHEM_MMFF94_ENERGY>
67.8991

> <PUBCHEM_FEATURE_SELFOVERLAP>
45.761

> <PUBCHEM_SHAPE_FINGERPRINT>
100830 39 18266743657610291222
10369192 42 17095241398373006302
10670039 82 18339909516392783102
11059845 2 17404607931464470994
11552529 35 18126572447043297502
11578080 2 17774460278378397071
11595378 159 18271538592816141402
12107183 9 17261884763495410242
12156800 1 15650381963783082417
12166972 35 17703788068406047062
12788726 201 18200037372893916891
13540713 4 17913498944381996167
13560911 43 18343026571723152752
1361 2 18050848819472635144
14363568 33 18266180517671091304
14394314 77 18411694387817049505
14955137 171 18264205803656666833
15230672 131 16971094749543685414
15400415 2 17329428862760597264
15419008 145 18339656628982268642
15439362 3 17907584632121631969
15538507 32 18195240011158664636
15927050 60 17255396025192280726
15961568 22 18408316671238152710
17844677 252 18265891544314926118
17852330 134 18121806971245563695
17980427 23 18040708174517086375
19611394 137 17985254188852642298
20238998 120 18409730660355828965
20600515 1 18188474896332254045
21033650 10 18053638534197087630
21304253 13 18409444783274633521
21796203 349 17981005723452223835
22956985 138 17766838330014040259
23366157 5 18055349138097912439
23559900 14 18267311928759517867
249999 5 17906167353027825931
25019877 29 16950840306481626014
38695281 34 8862673394856445982
392239 28 18342167873804228146
469060 322 18337659884741198640
5309563 4 18410576141225053216
7399639 24 18113892818764695190
9962374 69 18191867813492410855
9981440 41 17187572083887787809

> <PUBCHEM_SHAPE_MULTIPOLES>
569.24
12.66
7.15
1.16
12.94
13.9
0.04
-14.9
1.73
-1.39
1.04
0.12
0.27
-0.07

> <PUBCHEM_SHAPE_SELFOVERLAP>
1241.645

> <PUBCHEM_SHAPE_VOLUME>
312.7

> <PUBCHEM_COORDINATE_TYPE>
2
5
10

$$$$

