15284427
  -OEChem-07051213153D

 34 33  0     1  0  0  0  0  0999 V2000
    1.9353   -1.0638    2.3928 O   0  0  0  0  0  0  0  0  0  0  0  0
   -1.4264    3.2180    0.2580 O   0  0  0  0  0  0  0  0  0  0  0  0
    2.6490    0.8904    1.4979 O   0  0  0  0  0  0  0  0  0  0  0  0
   -0.3206    2.7124   -1.6554 O   0  0  0  0  0  0  0  0  0  0  0  0
   -3.7747   -1.9535   -0.8427 O   0  0  0  0  0  0  0  0  0  0  0  0
   -3.3701   -1.4716    1.3407 O   0  0  0  0  0  0  0  0  0  0  0  0
    0.8522    0.5193   -0.5719 N   0  0  0  0  0  0  0  0  0  0  0  0
    1.3638   -0.6608    0.1081 C   0  0  1  0  0  0  0  0  0  0  0  0
    2.2427   -1.5079   -0.8441 C   0  0  0  0  0  0  0  0  0  0  0  0
   -0.1032    1.2318    0.2739 C   0  0  2  0  0  0  0  0  0  0  0  0
   -1.2524    0.3232    0.7418 C   0  0  0  0  0  0  0  0  0  0  0  0
    3.5175   -0.8131   -1.3359 C   0  0  0  0  0  0  0  0  0  0  0  0
    1.4354   -2.0383   -2.0337 C   0  0  0  0  0  0  0  0  0  0  0  0
    2.0491   -0.1682    1.3740 C   0  0  0  0  0  0  0  0  0  0  0  0
   -2.0716   -0.3528   -0.3611 C   0  0  0  0  0  0  0  0  0  0  0  0
   -0.6048    2.4406   -0.4960 C   0  0  0  0  0  0  0  0  0  0  0  0
   -3.1214   -1.3055    0.1534 C   0  0  0  0  0  0  0  0  0  0  0  0
    0.5523   -1.3318    0.4052 H   0  0  0  0  0  0  0  0  0  0  0  0
    2.5766   -2.3824   -0.2677 H   0  0  0  0  0  0  0  0  0  0  0  0
    0.3863    1.6622    1.1551 H   0  0  0  0  0  0  0  0  0  0  0  0
    1.6190    1.1416   -0.8257 H   0  0  0  0  0  0  0  0  0  0  0  0
   -0.9052   -0.4197    1.4693 H   0  0  0  0  0  0  0  0  0  0  0  0
   -1.9527    0.9371    1.3267 H   0  0  0  0  0  0  0  0  0  0  0  0
    4.1343   -0.4775   -0.4966 H   0  0  0  0  0  0  0  0  0  0  0  0
    3.2898    0.0546   -1.9631 H   0  0  0  0  0  0  0  0  0  0  0  0
    4.1240   -1.5030   -1.9331 H   0  0  0  0  0  0  0  0  0  0  0  0
    1.1090   -1.2297   -2.6959 H   0  0  0  0  0  0  0  0  0  0  0  0
    2.0387   -2.7324   -2.6289 H   0  0  0  0  0  0  0  0  0  0  0  0
    0.5479   -2.5815   -1.6925 H   0  0  0  0  0  0  0  0  0  0  0  0
   -2.5813    0.4092   -0.9611 H   0  0  0  0  0  0  0  0  0  0  0  0
   -1.4142   -0.9290   -1.0199 H   0  0  0  0  0  0  0  0  0  0  0  0
    2.3818   -0.7480    3.2071 H   0  0  0  0  0  0  0  0  0  0  0  0
   -1.7495    3.9985   -0.2406 H   0  0  0  0  0  0  0  0  0  0  0  0
   -4.4583   -2.5651   -0.4949 H   0  0  0  0  0  0  0  0  0  0  0  0
  1 14  1  0  0  0  0
  1 32  1  0  0  0  0
  2 16  1  0  0  0  0
  2 33  1  0  0  0  0
  3 14  2  0  0  0  0
  4 16  2  0  0  0  0
  5 17  1  0  0  0  0
  5 34  1  0  0  0  0
  6 17  2  0  0  0  0
  7  8  1  0  0  0  0
  7 10  1  0  0  0  0
  7 21  1  0  0  0  0
  8  9  1  0  0  0  0
  8 14  1  0  0  0  0
  8 18  1  0  0  0  0
  9 12  1  0  0  0  0
  9 13  1  0  0  0  0
  9 19  1  0  0  0  0
 10 11  1  0  0  0  0
 10 16  1  0  0  0  0
 10 20  1  0  0  0  0
 11 15  1  0  0  0  0
 11 22  1  0  0  0  0
 11 23  1  0  0  0  0
 12 24  1  0  0  0  0
 12 25  1  0  0  0  0
 12 26  1  0  0  0  0
 13 27  1  0  0  0  0
 13 28  1  0  0  0  0
 13 29  1  0  0  0  0
 15 17  1  0  0  0  0
 15 30  1  0  0  0  0
 15 31  1  0  0  0  0
M  END
> <PUBCHEM_COMPOUND_CID>
15284427

> <PUBCHEM_CONFORMER_RMSD>
0.8

> <PUBCHEM_CONFORMER_DIVERSEORDER>
1
19
23
9
2
20
13
21
5
10
18
11
4
3
17
15
8
14
16
7
22
12
6

> <PUBCHEM_MMFF94_PARTIAL_CHARGES>
17
1 -0.65
10 0.33
14 0.66
15 0.06
16 0.66
17 0.66
2 -0.65
21 0.36
3 -0.57
32 0.5
33 0.5
34 0.5
4 -0.57
5 -0.65
6 -0.57
7 -0.9
8 0.33

> <PUBCHEM_EFFECTIVE_ROTOR_COUNT>
8

> <PUBCHEM_PHARMACOPHORE_FEATURES>
12
1 1 acceptor
1 2 acceptor
1 3 acceptor
1 4 acceptor
1 5 acceptor
1 6 acceptor
1 7 cation
1 7 donor
3 1 3 14 anion
3 2 4 16 anion
3 5 6 17 anion
3 9 12 13 hydrophobe

> <PUBCHEM_HEAVY_ATOM_COUNT>
17

> <PUBCHEM_ATOM_DEF_STEREO_COUNT>
2

> <PUBCHEM_ATOM_UDEF_STEREO_COUNT>
0

> <PUBCHEM_BOND_DEF_STEREO_COUNT>
0

> <PUBCHEM_BOND_UDEF_STEREO_COUNT>
0

> <PUBCHEM_ISOTOPIC_ATOM_COUNT>
0

> <PUBCHEM_COMPONENT_COUNT>
1

> <PUBCHEM_CACTVS_TAUTO_COUNT>
1

> <PUBCHEM_CONFORMER_ID>
00E938CB00000001

> <PUBCHEM_MMFF94_ENERGY>
24.8657

> <PUBCHEM_FEATURE_SELFOVERLAP>
61.069

> <PUBCHEM_SHAPE_FINGERPRINT>
11322862 65 17832410274479275557
116883 192 18408887373623601357
12202030 40 17969223519719602786
12707595 3 18130220433482761243
12716301 132 18118698852872106906
13538477 17 17558542753864201224
13681431 1 18198621030324344901
13898156 1 17344905445759111320
14004458 79 17987814040936965237
14252887 29 18336261224320135763
14863182 85 17388817474909269407
15501101 241 17822003190384305930
15852999 172 17472734744897923348
16945 1 17677627366444247608
18380122 1 18187662292250458776
20361792 2 18341887472701118995
20600515 1 18201445718297459345
20645477 70 17979919307443320823
20711985 344 18269551809505648041
22112679 90 17559107898925673428
23402539 116 18130488813172556846
23557571 272 18341344356500547232
2748010 2 18335703862182171023
68419 9 17272845661340525472
7364860 26 18048868598882758501
81228 2 18269276927446531849
88987 49 18054798548443170912
9981440 41 16595118749952775408

> <PUBCHEM_SHAPE_MULTIPOLES>
309.66
5.21
2.93
1.84
1.57
1.78
-0.51
-3.82
-0.14
1.91
1.29
-1.25
-0.26
1

> <PUBCHEM_SHAPE_SELFOVERLAP>
602.448

> <PUBCHEM_SHAPE_VOLUME>
186.2

> <PUBCHEM_COORDINATE_TYPE>
2
5
10

$$$$

