17396412
  -OEChem-06241222563D

 39 40  0     0  0  0  0  0  0999 V2000
   -4.3691   -1.4047    1.7304 S   0  0  0  0  0  0  0  0  0  0  0  0
   -0.0326   -0.9001   -0.0506 O   0  0  0  0  0  0  0  0  0  0  0  0
    1.4037   -1.8502   -1.5782 O   0  0  0  0  0  0  0  0  0  0  0  0
   -4.7217    1.8560   -1.5887 O   0  0  0  0  0  0  0  0  0  0  0  0
    5.8293    0.4693   -0.3328 N   0  0  0  0  0  0  0  0  0  0  0  0
   -3.2068   -0.3749   -0.3362 N   0  0  0  0  0  0  0  0  0  0  0  0
   -5.3244    0.5778    0.3057 N   0  0  0  0  0  0  0  0  0  0  0  0
    4.4981    0.5108    0.1319 C   0  0  0  0  0  0  0  0  0  0  0  0
    2.2080   -0.2453   -0.0090 C   0  0  0  0  0  0  0  0  0  0  0  0
    3.5244   -0.2873   -0.4682 C   0  0  0  0  0  0  0  0  0  0  0  0
    4.1556    1.3508    1.1916 C   0  0  0  0  0  0  0  0  0  0  0  0
    1.8654    0.5946    1.0507 C   0  0  0  0  0  0  0  0  0  0  0  0
    2.8392    1.3927    1.6510 C   0  0  0  0  0  0  0  0  0  0  0  0
   -1.1188   -1.6678   -0.5803 C   0  0  0  0  0  0  0  0  0  0  0  0
    6.1984   -0.4104   -1.4240 C   0  0  0  0  0  0  0  0  0  0  0  0
    6.8479    1.2954    0.2839 C   0  0  0  0  0  0  0  0  0  0  0  0
    1.1919   -1.0767   -0.6349 C   0  0  0  0  0  0  0  0  0  0  0  0
   -2.3973   -1.3896    0.1362 C   0  0  0  0  0  0  0  0  0  0  0  0
   -2.8601   -2.0615    1.2481 C   0  0  0  0  0  0  0  0  0  0  0  0
   -4.2740   -0.2927    0.4269 C   0  0  0  0  0  0  0  0  0  0  0  0
   -5.4839    1.5762   -0.6696 C   0  0  0  0  0  0  0  0  0  0  0  0
   -6.7732    2.3375   -0.4840 C   0  0  0  0  0  0  0  0  0  0  0  0
    3.7621   -0.9500   -1.2949 H   0  0  0  0  0  0  0  0  0  0  0  0
    4.8759    1.9904    1.6919 H   0  0  0  0  0  0  0  0  0  0  0  0
    0.8539    0.6603    1.4415 H   0  0  0  0  0  0  0  0  0  0  0  0
    2.5724    2.0467    2.4762 H   0  0  0  0  0  0  0  0  0  0  0  0
   -1.2407   -1.4250   -1.6430 H   0  0  0  0  0  0  0  0  0  0  0  0
   -0.8757   -2.7344   -0.4989 H   0  0  0  0  0  0  0  0  0  0  0  0
    6.0149   -1.4595   -1.1668 H   0  0  0  0  0  0  0  0  0  0  0  0
    5.6545   -0.1550   -2.3403 H   0  0  0  0  0  0  0  0  0  0  0  0
    7.2646   -0.3315   -1.6641 H   0  0  0  0  0  0  0  0  0  0  0  0
    6.6067    2.3599    0.1874 H   0  0  0  0  0  0  0  0  0  0  0  0
    6.9759    1.0420    1.3423 H   0  0  0  0  0  0  0  0  0  0  0  0
    7.8256    1.1545   -0.1906 H   0  0  0  0  0  0  0  0  0  0  0  0
   -2.4015   -2.8796    1.7852 H   0  0  0  0  0  0  0  0  0  0  0  0
   -6.0541    0.4716    1.0059 H   0  0  0  0  0  0  0  0  0  0  0  0
   -6.7922    2.7981    0.5077 H   0  0  0  0  0  0  0  0  0  0  0  0
   -7.6221    1.6558   -0.5868 H   0  0  0  0  0  0  0  0  0  0  0  0
   -6.8533    3.1225   -1.2411 H   0  0  0  0  0  0  0  0  0  0  0  0
  1 19  1  0  0  0  0
  1 20  1  0  0  0  0
  2 14  1  0  0  0  0
  2 17  1  0  0  0  0
  3 17  2  0  0  0  0
  4 21  2  0  0  0  0
  5  8  1  0  0  0  0
  5 15  1  0  0  0  0
  5 16  1  0  0  0  0
  6 18  1  0  0  0  0
  6 20  2  0  0  0  0
  7 20  1  0  0  0  0
  7 21  1  0  0  0  0
  7 36  1  0  0  0  0
  8 10  1  0  0  0  0
  8 11  2  0  0  0  0
  9 10  2  0  0  0  0
  9 12  1  0  0  0  0
  9 17  1  0  0  0  0
 10 23  1  0  0  0  0
 11 13  1  0  0  0  0
 11 24  1  0  0  0  0
 12 13  2  0  0  0  0
 12 25  1  0  0  0  0
 13 26  1  0  0  0  0
 14 18  1  0  0  0  0
 14 27  1  0  0  0  0
 14 28  1  0  0  0  0
 15 29  1  0  0  0  0
 15 30  1  0  0  0  0
 15 31  1  0  0  0  0
 16 32  1  0  0  0  0
 16 33  1  0  0  0  0
 16 34  1  0  0  0  0
 18 19  2  0  0  0  0
 19 35  1  0  0  0  0
 21 22  1  0  0  0  0
 22 37  1  0  0  0  0
 22 38  1  0  0  0  0
 22 39  1  0  0  0  0
M  END
> <PUBCHEM_COMPOUND_CID>
17396412

> <PUBCHEM_CONFORMER_RMSD>
1.2

> <PUBCHEM_CONFORMER_DIVERSEORDER>
2
17
60
10
21
64
23
13
49
71
33
4
62
45
55
67
70
58
63
26
12
3
50
36
11
34
38
16
48
54
51
32
41
42
8
31
28
59
47
14
44
39
65
15
20
27
43
53
19
6
56
40
66
57
61
5
37
22
68
24
7
30
46
1
69
52
9
25
18
29
35

> <PUBCHEM_MMFF94_PARTIAL_CHARGES>
28
1 -0.08
10 -0.15
11 -0.15
12 -0.15
13 -0.15
14 0.46
15 0.37
16 0.37
17 0.63
18 0.05
19 -0.11
2 -0.43
20 0.44
21 0.57
22 0.06
23 0.15
24 0.15
25 0.15
26 0.15
3 -0.57
35 0.15
36 0.37
4 -0.57
5 -0.84
6 -0.57
7 -0.49
8 0.1
9 0.09

> <PUBCHEM_EFFECTIVE_ROTOR_COUNT>
7

> <PUBCHEM_PHARMACOPHORE_FEATURES>
6
1 3 acceptor
1 4 acceptor
1 5 cation
1 7 donor
5 1 6 18 19 20 rings
6 8 9 10 11 12 13 rings

> <PUBCHEM_HEAVY_ATOM_COUNT>
22

> <PUBCHEM_ATOM_DEF_STEREO_COUNT>
0

> <PUBCHEM_ATOM_UDEF_STEREO_COUNT>
0

> <PUBCHEM_BOND_DEF_STEREO_COUNT>
0

> <PUBCHEM_BOND_UDEF_STEREO_COUNT>
0

> <PUBCHEM_ISOTOPIC_ATOM_COUNT>
0

> <PUBCHEM_COMPONENT_COUNT>
1

> <PUBCHEM_CACTVS_TAUTO_COUNT>
3

> <PUBCHEM_CONFORMER_ID>
010972BC00000002

> <PUBCHEM_MMFF94_ENERGY>
61.2018

> <PUBCHEM_FEATURE_SELFOVERLAP>
30.446

> <PUBCHEM_SHAPE_FINGERPRINT>
10763959 59 18335139774115631268
11089746 13 15647050452510152690
11135609 149 16445300438398563716
11211813 89 18260260877007791254
12236239 1 16200433537856880418
12403259 415 18261674779160212659
12596602 18 16056596569214937281
12633257 1 17275386499974486031
12778500 126 17988650752495872938
12838862 33 17385729089624829454
13103583 49 16415479324736358971
13402501 40 18408327704946377881
14341114 328 16702306745325242601
14347329 18 18337960085665089065
14765038 42 14908173153523031224
15003188 100 17967824803669518289
15142383 8 18411142442292221688
15183329 4 17385718106586429454
15238133 3 17775276166722816084
15510800 12 8862358935386184957
15537594 2 13973687213006555218
16994733 274 17773590530506398652
17780758 139 12247679392464301365
17844677 252 18129937858783146816
190975 80 11599711866197573236
19377110 9 14549017689021267926
20281389 69 18410855438938201080
20645477 56 18335978701841097819
21033648 29 18336555927627111560
21054139 6 5617538488707803564
21150785 3 5112005067339010600
21279426 13 18187072967383310470
21315759 148 17774430595353304242
21709351 56 17822013055881824719
23522609 53 16199849727336915750
23559900 14 18128806616074651431
2838139 119 18186810214058110505
4169191 19 17096651986003283288
465052 167 10663827365077704580
5969126 39 18267306431592074407
633830 44 18268157461590498698
90127 26 18268430144373262696

> <PUBCHEM_SHAPE_MULTIPOLES>
424.05
17.95
2.19
1.47
1.1
0.32
0.18
10.95
-1.88
-3.48
-0.12
0.09
-0.07
3.22

> <PUBCHEM_SHAPE_SELFOVERLAP>
876.217

> <PUBCHEM_SHAPE_VOLUME>
245.6

> <PUBCHEM_COORDINATE_TYPE>
2
5
10

$$$$

