68229
  -OEChem-07051212573D

 29 31  0     0  0  0  0  0  0999 V2000
   -2.5391   -0.8760   -0.0026 O   0  0  0  0  0  0  0  0  0  0  0  0
    1.8580    1.1976   -0.0009 O   0  0  0  0  0  0  0  0  0  0  0  0
    3.9569    2.1150    0.0003 O   0  0  0  0  0  0  0  0  0  0  0  0
   -3.2119    0.4002    0.0009 C   0  0  0  0  0  0  0  0  0  0  0  0
   -0.3634    0.2253   -0.0015 C   0  0  0  0  0  0  0  0  0  0  0  0
   -1.1728   -0.9131   -0.0014 C   0  0  0  0  0  0  0  0  0  0  0  0
   -2.3175    1.6157   -0.0013 C   0  0  0  0  0  0  0  0  0  0  0  0
   -4.0905    0.4212    1.2572 C   0  0  0  0  0  0  0  0  0  0  0  0
   -4.0989    0.4230   -1.2495 C   0  0  0  0  0  0  0  0  0  0  0  0
   -0.9852    1.5407   -0.0024 C   0  0  0  0  0  0  0  0  0  0  0  0
    1.0284    0.0507   -0.0006 C   0  0  0  0  0  0  0  0  0  0  0  0
    1.6125   -1.2166    0.0001 C   0  0  0  0  0  0  0  0  0  0  0  0
   -0.5993   -2.1897   -0.0011 C   0  0  0  0  0  0  0  0  0  0  0  0
    0.7882   -2.3420   -0.0003 C   0  0  0  0  0  0  0  0  0  0  0  0
    3.0618   -1.3309    0.0012 C   0  0  0  0  0  0  0  0  0  0  0  0
    3.8268   -0.2372    0.0014 C   0  0  0  0  0  0  0  0  0  0  0  0
    3.2461    1.1162    0.0005 C   0  0  0  0  0  0  0  0  0  0  0  0
   -2.7866    2.5967   -0.0014 H   0  0  0  0  0  0  0  0  0  0  0  0
   -4.7019    1.3285    1.3161 H   0  0  0  0  0  0  0  0  0  0  0  0
   -3.4766    0.3606    2.1640 H   0  0  0  0  0  0  0  0  0  0  0  0
   -4.7597   -0.4469    1.2803 H   0  0  0  0  0  0  0  0  0  0  0  0
   -4.7108    1.3302   -1.3029 H   0  0  0  0  0  0  0  0  0  0  0  0
   -4.7682   -0.4451   -1.2695 H   0  0  0  0  0  0  0  0  0  0  0  0
   -3.4910    0.3639   -2.1604 H   0  0  0  0  0  0  0  0  0  0  0  0
   -0.3766    2.4366   -0.0037 H   0  0  0  0  0  0  0  0  0  0  0  0
   -1.2314   -3.0744   -0.0015 H   0  0  0  0  0  0  0  0  0  0  0  0
    1.2108   -3.3437    0.0001 H   0  0  0  0  0  0  0  0  0  0  0  0
    3.5107   -2.3182    0.0018 H   0  0  0  0  0  0  0  0  0  0  0  0
    4.9083   -0.3182    0.0023 H   0  0  0  0  0  0  0  0  0  0  0  0
  1  4  1  0  0  0  0
  1  6  1  0  0  0  0
  2 11  1  0  0  0  0
  2 17  1  0  0  0  0
  3 17  2  0  0  0  0
  4  7  1  0  0  0  0
  4  8  1  0  0  0  0
  4  9  1  0  0  0  0
  5  6  2  0  0  0  0
  5 10  1  0  0  0  0
  5 11  1  0  0  0  0
  6 13  1  0  0  0  0
  7 10  2  0  0  0  0
  7 18  1  0  0  0  0
  8 19  1  0  0  0  0
  8 20  1  0  0  0  0
  8 21  1  0  0  0  0
  9 22  1  0  0  0  0
  9 23  1  0  0  0  0
  9 24  1  0  0  0  0
 10 25  1  0  0  0  0
 11 12  2  0  0  0  0
 12 14  1  0  0  0  0
 12 15  1  0  0  0  0
 13 14  2  0  0  0  0
 13 26  1  0  0  0  0
 14 27  1  0  0  0  0
 15 16  2  0  0  0  0
 15 28  1  0  0  0  0
 16 17  1  0  0  0  0
 16 29  1  0  0  0  0
M  END
> <PUBCHEM_COMPOUND_CID>
68229

> <PUBCHEM_CONFORMER_RMSD>
0.4

> <PUBCHEM_CONFORMER_DIVERSEORDER>
1

> <PUBCHEM_MMFF94_PARTIAL_CHARGES>
21
1 -0.36
10 -0.18
11 0.08
12 0.03
13 -0.15
14 -0.15
15 -0.18
16 -0.14
17 0.71
18 0.15
2 -0.23
25 0.15
26 0.15
27 0.15
28 0.15
29 0.15
3 -0.57
4 0.42
5 0.03
6 0.08
7 -0.29

> <PUBCHEM_EFFECTIVE_ROTOR_COUNT>
0.4

> <PUBCHEM_PHARMACOPHORE_FEATURES>
6
1 1 acceptor
1 3 acceptor
3 4 8 9 hydrophobe
6 1 4 5 6 7 10 rings
6 2 11 12 15 16 17 rings
6 5 6 11 12 13 14 rings

> <PUBCHEM_HEAVY_ATOM_COUNT>
17

> <PUBCHEM_ATOM_DEF_STEREO_COUNT>
0

> <PUBCHEM_ATOM_UDEF_STEREO_COUNT>
0

> <PUBCHEM_BOND_DEF_STEREO_COUNT>
0

> <PUBCHEM_BOND_UDEF_STEREO_COUNT>
0

> <PUBCHEM_ISOTOPIC_ATOM_COUNT>
0

> <PUBCHEM_COMPONENT_COUNT>
1

> <PUBCHEM_CACTVS_TAUTO_COUNT>
1

> <PUBCHEM_CONFORMER_ID>
00010A8500000001

> <PUBCHEM_MMFF94_ENERGY>
58.3721

> <PUBCHEM_FEATURE_SELFOVERLAP>
30.501

> <PUBCHEM_SHAPE_FINGERPRINT>
10608611 8 18341051925083421972
10967382 1 18410855477503242278
11132069 177 18410020926565780432
11471102 20 18410860996462468710
11543360 7 15791737347444976500
12236239 1 17822010939407082593
12390115 104 17975958887897816616
12403260 363 18338811120575613152
13140716 1 18411696565154576122
13221675 6 18410293648351928751
13380535 76 18410295813205414974
13583140 156 16916800564662140577
13897977 150 18410294692033970599
14144814 61 18411136982375912616
14250199 8 18263646336816364007
14251717 144 18337116751513659911
14897335 6 18410016507308176838
15196674 1 18410855442958874599
15219456 202 18271805756850512441
15309172 13 18410851079557081555
15442244 35 18049161360933263842
15536298 74 18334294284064764750
15775835 57 18333726905588598120
16945 1 18338517572414529191
18186145 218 18335134319311453972
200 152 18187377566284243853
204376 136 18412260601634008913
20510252 161 18191863431553942306
20645477 70 18338525260669629591
21267235 1 18410003373040021590
21501502 16 18336552616471264982
21524375 3 18335425664149767742
22854114 111 18341048605184173042
231179 274 17846509161394342887
2334 1 18266741268506174886
23402539 116 18261684739131343380
23402655 69 18262528103610845629
23463225 33 18341614862457636594
23493267 7 17632581590999651153
23559900 14 18188486875249672276
25 1 18409728486664364846
2748010 2 18339071580103654470
335352 9 18050286169654526558
5104073 3 18411418401518120699
6333272 397 18412262839554634826
633830 44 18187074096384378069
69090 78 18407764728674097910
7364860 26 18263643042629520150
81228 2 17834691399918434995
9709674 26 18336542810691949110

> <PUBCHEM_SHAPE_MULTIPOLES>
332.24
7.37
2.2
0.79
0.72
0.38
0
-2.62
0
-1.26
0
0.81
-0.04
0

> <PUBCHEM_SHAPE_SELFOVERLAP>
734.393

> <PUBCHEM_SHAPE_VOLUME>
178.6

> <PUBCHEM_COORDINATE_TYPE>
2
5
10

$$$$

