54691345
  -OEChem-07051213033D

 47 49  0     0  0  0  0  0  0999 V2000
    6.1745   -1.2309    1.5847 Cl  0  0  0  0  0  0  0  0  0  0  0  0
    3.3074   -1.0576    1.0590 O   0  0  0  0  0  0  0  0  0  0  0  0
    1.3569    1.6427   -1.4742 O   0  0  0  0  0  0  0  0  0  0  0  0
   -6.3831   -1.3091   -0.4265 O   0  0  0  0  0  0  0  0  0  0  0  0
   -0.1906   -2.5301   -0.7843 O   0  0  0  0  0  0  0  0  0  0  0  0
    7.5581    0.8356   -0.0670 O   0  0  0  0  0  0  0  0  0  0  0  0
    1.3141   -2.0417    1.5660 O   0  0  0  0  0  0  0  0  0  0  0  0
   -0.1079   -0.3343   -0.0232 N   0  0  0  0  0  0  0  0  0  0  0  0
   -4.2915   -0.5372    0.4543 C   0  0  0  0  0  0  0  0  0  0  0  0
   -4.9864    0.3835    1.4025 C   0  0  0  0  0  0  0  0  0  0  0  0
    3.3968    0.7962   -0.5291 C   0  0  0  0  0  0  0  0  0  0  0  0
   -2.2330   -1.4396   -0.4317 C   0  0  0  0  0  0  0  0  0  0  0  0
   -2.8976   -0.5853    0.4482 C   0  0  0  0  0  0  0  0  0  0  0  0
    1.2531   -0.2143    0.0511 C   0  0  0  0  0  0  0  0  0  0  0  0
    1.9344    0.7166   -0.6327 C   0  0  0  0  0  0  0  0  0  0  0  0
    4.0383   -0.0980    0.3294 C   0  0  0  0  0  0  0  0  0  0  0  0
   -5.0210   -1.3436   -0.4193 C   0  0  0  0  0  0  0  0  0  0  0  0
   -0.7477   -1.4912   -0.4386 C   0  0  0  0  0  0  0  0  0  0  0  0
   -2.9625   -2.2461   -1.3052 C   0  0  0  0  0  0  0  0  0  0  0  0
   -5.5417    1.6125    0.7264 C   0  0  0  0  0  0  0  0  0  0  0  0
   -4.3565   -2.1981   -1.2991 C   0  0  0  0  0  0  0  0  0  0  0  0
    4.2028    1.6947   -1.2416 C   0  0  0  0  0  0  0  0  0  0  0  0
    1.9292   -1.1803    0.9461 C   0  0  0  0  0  0  0  0  0  0  0  0
    5.4235   -0.1067    0.5060 C   0  0  0  0  0  0  0  0  0  0  0  0
   -4.9234    2.7877    0.5023 C   0  0  0  0  0  0  0  0  0  0  0  0
    6.2028    0.8009   -0.2018 C   0  0  0  0  0  0  0  0  0  0  0  0
    5.5936    1.6981   -1.0765 C   0  0  0  0  0  0  0  0  0  0  0  0
   -5.5392    3.9758   -0.1806 C   0  0  0  0  0  0  0  0  0  0  0  0
   -3.5032    2.9998    0.9555 C   0  0  0  0  0  0  0  0  0  0  0  0
   -5.8173   -0.1502    1.8841 H   0  0  0  0  0  0  0  0  0  0  0  0
   -4.3369    0.6504    2.2439 H   0  0  0  0  0  0  0  0  0  0  0  0
   -2.3449    0.0264    1.1556 H   0  0  0  0  0  0  0  0  0  0  0  0
   -0.6318    0.5334   -0.1073 H   0  0  0  0  0  0  0  0  0  0  0  0
   -2.4627   -2.9147   -2.0011 H   0  0  0  0  0  0  0  0  0  0  0  0
   -6.5711    1.5160    0.3828 H   0  0  0  0  0  0  0  0  0  0  0  0
   -4.9123   -2.8311   -1.9858 H   0  0  0  0  0  0  0  0  0  0  0  0
    3.7629    2.4099   -1.9327 H   0  0  0  0  0  0  0  0  0  0  0  0
    6.1872    2.4123   -1.6418 H   0  0  0  0  0  0  0  0  0  0  0  0
   -3.1036    2.2206    1.6043 H   0  0  0  0  0  0  0  0  0  0  0  0
   -3.4312    3.9357    1.5213 H   0  0  0  0  0  0  0  0  0  0  0  0
   -6.5663    3.7692   -0.4989 H   0  0  0  0  0  0  0  0  0  0  0  0
   -4.9613    4.2460   -1.0702 H   0  0  0  0  0  0  0  0  0  0  0  0
   -5.5651    4.8358    0.4961 H   0  0  0  0  0  0  0  0  0  0  0  0
   -2.8438    3.0801    0.0846 H   0  0  0  0  0  0  0  0  0  0  0  0
    0.4006    1.4719   -1.5045 H   0  0  0  0  0  0  0  0  0  0  0  0
   -6.7129   -1.9326   -1.0961 H   0  0  0  0  0  0  0  0  0  0  0  0
    7.9190    1.5329   -0.6410 H   0  0  0  0  0  0  0  0  0  0  0  0
  1 24  1  0  0  0  0
  2 16  1  0  0  0  0
  2 23  1  0  0  0  0
  3 15  1  0  0  0  0
  3 45  1  0  0  0  0
  4 17  1  0  0  0  0
  4 46  1  0  0  0  0
  5 18  2  0  0  0  0
  6 26  1  0  0  0  0
  6 47  1  0  0  0  0
  7 23  2  0  0  0  0
  8 14  1  0  0  0  0
  8 18  1  0  0  0  0
  8 33  1  0  0  0  0
  9 10  1  0  0  0  0
  9 13  1  0  0  0  0
  9 17  2  0  0  0  0
 10 20  1  0  0  0  0
 10 30  1  0  0  0  0
 10 31  1  0  0  0  0
 11 15  1  0  0  0  0
 11 16  2  0  0  0  0
 11 22  1  0  0  0  0
 12 13  2  0  0  0  0
 12 18  1  0  0  0  0
 12 19  1  0  0  0  0
 13 32  1  0  0  0  0
 14 15  2  0  0  0  0
 14 23  1  0  0  0  0
 16 24  1  0  0  0  0
 17 21  1  0  0  0  0
 19 21  2  0  0  0  0
 19 34  1  0  0  0  0
 20 25  2  0  0  0  0
 20 35  1  0  0  0  0
 21 36  1  0  0  0  0
 22 27  2  0  0  0  0
 22 37  1  0  0  0  0
 24 26  2  0  0  0  0
 25 28  1  0  0  0  0
 25 29  1  0  0  0  0
 26 27  1  0  0  0  0
 27 38  1  0  0  0  0
 28 41  1  0  0  0  0
 28 42  1  0  0  0  0
 28 43  1  0  0  0  0
 29 39  1  0  0  0  0
 29 40  1  0  0  0  0
 29 44  1  0  0  0  0
M  END
> <PUBCHEM_COMPOUND_CID>
54691345

> <PUBCHEM_CONFORMER_RMSD>
0.8

> <PUBCHEM_CONFORMER_DIVERSEORDER>
3
31
11
68
60
12
62
69
33
54
17
56
36
6
27
39
40
15
65
19
67
41
51
16
55
48
61
42
38
66
18
22
4
52
14
23
57
43
63
45
10
8
35
28
49
2
5
26
37
58
32
34
53
21
29
7
20
24
47
50
59
46
30
25
9
64
44
1
13

> <PUBCHEM_MMFF94_PARTIAL_CHARGES>
39
1 -0.18
10 0.28
11 0.03
12 0.09
13 -0.15
14 0.12
15 0.05
16 0.08
17 0.08
18 0.54
19 -0.15
2 -0.23
20 -0.29
21 -0.15
22 -0.15
23 0.71
24 0.18
25 -0.28
26 0.08
27 -0.15
28 0.14
29 0.14
3 -0.53
32 0.15
33 0.37
34 0.15
35 0.15
36 0.15
37 0.15
38 0.15
4 -0.53
45 0.45
46 0.45
47 0.45
5 -0.57
6 -0.53
7 -0.57
8 -0.54
9 -0.14

> <PUBCHEM_EFFECTIVE_ROTOR_COUNT>
5

> <PUBCHEM_PHARMACOPHORE_FEATURES>
10
1 3 donor
1 4 donor
1 5 acceptor
1 6 donor
1 7 acceptor
1 8 donor
3 25 28 29 hydrophobe
6 11 16 22 24 26 27 rings
6 2 11 14 15 16 23 rings
6 9 12 13 17 19 21 rings

> <PUBCHEM_HEAVY_ATOM_COUNT>
29

> <PUBCHEM_ATOM_DEF_STEREO_COUNT>
0

> <PUBCHEM_ATOM_UDEF_STEREO_COUNT>
0

> <PUBCHEM_BOND_DEF_STEREO_COUNT>
0

> <PUBCHEM_BOND_UDEF_STEREO_COUNT>
0

> <PUBCHEM_ISOTOPIC_ATOM_COUNT>
0

> <PUBCHEM_COMPONENT_COUNT>
1

> <PUBCHEM_CACTVS_TAUTO_COUNT>
231

> <PUBCHEM_CONFORMER_ID>
0342861100000003

> <PUBCHEM_MMFF94_ENERGY>
95.957

> <PUBCHEM_FEATURE_SELFOVERLAP>
50.775

> <PUBCHEM_SHAPE_FINGERPRINT>
10411042 1 17829052014440969975
10670039 82 18260550004930316845
10674148 151 18341323454255363422
10906281 52 18059844027647573278
12107183 9 18052263091704160491
12236239 1 18411419497083147922
12422481 6 18200312250768900164
12596602 18 17775000168356772801
13167372 99 18341612637865108936
14294032 229 18040713693803223569
14466204 15 18335137609246197553
14790565 3 18412539882140985156
14856354 85 18261954029845608831
15064981 113 18040720276875214319
15183329 4 18336543833305219654
15475509 8 18341878724406424246
15513586 35 18049419475889463505
15575132 122 18408318891826019013
1577012 14 18411980265261455794
16992828 155 18271813479635254805
16993438 75 17487914508359412109
20511986 3 18271531991193035633
21033650 10 18117248467985325132
21236236 1 18409449185226111709
21302155 148 18338229474994088393
21756936 100 18340763763159266323
22122407 14 18201427052369869921
23081809 10 18341898472239029618
23522609 53 18059273419319597140
23559900 14 16298665001820103162
23569914 2 17027736915745090880
23569943 247 17130733706368739274
24771293 8 18269839727799252180
25147074 1 18342745139004719386
2838139 119 18411133598142357800
335352 9 17917713445438727798
34797466 226 16951119557081494264
3633792 109 17917726703655085271
397830 11 13110668399246413196
6299153 45 18341050843083732746
6327066 14 18265616670998205789
7808743 9 18334010623166082321

> <PUBCHEM_SHAPE_MULTIPOLES>
558.48
18.42
3.34
1.34
9.9
2.26
0.1
7.53
1.65
-6.26
-0.46
0.49
-0.23
-3.35

> <PUBCHEM_SHAPE_SELFOVERLAP>
1206.58

> <PUBCHEM_SHAPE_VOLUME>
306.2

> <PUBCHEM_COORDINATE_TYPE>
2
5
10

$$$$

