24227
  -OEChem-07051213013D

  4  3  0     0  0  0  0  0  0999 V2000
    2.3535   -0.0001    0.0000 Cl  0  0  0  0  0  0  0  0  0  0  0  0
   -2.3535   -0.0001    0.0000 Cl  0  0  0  0  0  0  0  0  0  0  0  0
    0.6000    0.0001   -0.0001 C   0  0  0  0  0  0  0  0  0  0  0  0
   -0.6000    0.0001    0.0001 C   0  0  0  0  0  0  0  0  0  0  0  0
  1  3  1  0  0  0  0
  2  4  1  0  0  0  0
  3  4  3  0  0  0  0
M  END
> <PUBCHEM_COMPOUND_CID>
24227

> <PUBCHEM_CONFORMER_RMSD>
0.4

> <PUBCHEM_CONFORMER_DIVERSEORDER>
1

> <PUBCHEM_MMFF94_PARTIAL_CHARGES>
4
1 -0.1
2 -0.1
3 0.1
4 0.1

> <PUBCHEM_EFFECTIVE_ROTOR_COUNT>
0

> <PUBCHEM_PHARMACOPHORE_FEATURES>
0

> <PUBCHEM_HEAVY_ATOM_COUNT>
4

> <PUBCHEM_ATOM_DEF_STEREO_COUNT>
0

> <PUBCHEM_ATOM_UDEF_STEREO_COUNT>
0

> <PUBCHEM_BOND_DEF_STEREO_COUNT>
0

> <PUBCHEM_BOND_UDEF_STEREO_COUNT>
0

> <PUBCHEM_ISOTOPIC_ATOM_COUNT>
0

> <PUBCHEM_COMPONENT_COUNT>
1

> <PUBCHEM_CACTVS_TAUTO_COUNT>
1

> <PUBCHEM_CONFORMER_ID>
00005EA300000001

> <PUBCHEM_MMFF94_ENERGY>
-0.1751

> <PUBCHEM_FEATURE_SELFOVERLAP>
0

> <PUBCHEM_SHAPE_FINGERPRINT>
139733 1 9655576309543252393
20096714 4 18337110068692337664
5460574 1 9655578512861429762

> <PUBCHEM_SHAPE_MULTIPOLES>
86.06
3.7
0.64
0.64
0
0
0
0
0
0
0
0
0
0

> <PUBCHEM_SHAPE_SELFOVERLAP>
131.16

> <PUBCHEM_SHAPE_VOLUME>
62.4

> <PUBCHEM_COORDINATE_TYPE>
2
5
10

$$$$

