656720
  -OEChem-07051213043D

 18 19  0     0  0  0  0  0  0999 V2000
   -1.1175    2.0063   -0.0690 S   0  0  0  0  0  0  0  0  0  0  0  0
   -2.2260   -1.6113    0.0687 O   0  0  0  0  0  0  0  0  0  0  0  0
    2.5473    0.2095    0.3432 N   0  0  0  0  0  0  0  0  0  0  0  0
   -2.2215    0.7206   -0.0184 N   0  0  0  0  0  0  0  0  0  0  0  0
    0.7953   -1.5293    0.0354 C   0  0  0  0  0  0  0  0  0  0  0  0
   -0.1717   -0.3988    0.0211 C   0  0  0  0  0  0  0  0  0  0  0  0
    2.2084   -1.0474   -0.3356 C   0  0  0  0  0  0  0  0  0  0  0  0
    0.1966    0.8873   -0.0310 C   0  0  0  0  0  0  0  0  0  0  0  0
    1.6340    1.3003   -0.0428 C   0  0  0  0  0  0  0  0  0  0  0  0
   -1.6450   -0.5372    0.0284 C   0  0  0  0  0  0  0  0  0  0  0  0
    0.8065   -1.9736    1.0380 H   0  0  0  0  0  0  0  0  0  0  0  0
    0.4851   -2.3088   -0.6693 H   0  0  0  0  0  0  0  0  0  0  0  0
    2.9344   -1.8174   -0.0518 H   0  0  0  0  0  0  0  0  0  0  0  0
    2.2922   -0.9167   -1.4222 H   0  0  0  0  0  0  0  0  0  0  0  0
    1.9000    1.6619   -1.0436 H   0  0  0  0  0  0  0  0  0  0  0  0
    1.7925    2.1281    0.6574 H   0  0  0  0  0  0  0  0  0  0  0  0
    3.5034    0.4762    0.1104 H   0  0  0  0  0  0  0  0  0  0  0  0
   -3.2237    0.8755   -0.0234 H   0  0  0  0  0  0  0  0  0  0  0  0
  1  4  1  0  0  0  0
  1  8  1  0  0  0  0
  2 10  2  0  0  0  0
  3  7  1  0  0  0  0
  3  9  1  0  0  0  0
  3 17  1  0  0  0  0
  4 10  1  0  0  0  0
  4 18  1  0  0  0  0
  5  6  1  0  0  0  0
  5  7  1  0  0  0  0
  5 11  1  0  0  0  0
  5 12  1  0  0  0  0
  6  8  2  0  0  0  0
  6 10  1  0  0  0  0
  7 13  1  0  0  0  0
  7 14  1  0  0  0  0
  8  9  1  0  0  0  0
  9 15  1  0  0  0  0
  9 16  1  0  0  0  0
M  END
> <PUBCHEM_COMPOUND_CID>
656720

> <PUBCHEM_CONFORMER_RMSD>
0.4

> <PUBCHEM_CONFORMER_DIVERSEORDER>
1

> <PUBCHEM_MMFF94_PARTIAL_CHARGES>
12
1 -0.09
10 0.62
17 0.36
18 0.37
2 -0.57
3 -0.9
4 -0.44
5 0.14
6 -0.12
7 0.27
8 -0.04
9 0.41

> <PUBCHEM_EFFECTIVE_ROTOR_COUNT>
0.8

> <PUBCHEM_PHARMACOPHORE_FEATURES>
6
1 2 acceptor
1 3 cation
1 3 donor
1 4 donor
5 1 4 6 8 10 rings
6 3 5 6 7 8 9 rings

> <PUBCHEM_HEAVY_ATOM_COUNT>
10

> <PUBCHEM_ATOM_DEF_STEREO_COUNT>
0

> <PUBCHEM_ATOM_UDEF_STEREO_COUNT>
0

> <PUBCHEM_BOND_DEF_STEREO_COUNT>
0

> <PUBCHEM_BOND_UDEF_STEREO_COUNT>
0

> <PUBCHEM_ISOTOPIC_ATOM_COUNT>
0

> <PUBCHEM_COMPONENT_COUNT>
1

> <PUBCHEM_CACTVS_TAUTO_COUNT>
2

> <PUBCHEM_CONFORMER_ID>
000A055000000001

> <PUBCHEM_MMFF94_ENERGY>
7.3454

> <PUBCHEM_FEATURE_SELFOVERLAP>
30.501

> <PUBCHEM_SHAPE_FINGERPRINT>
10857977 72 18337682905533731210
12524768 44 18191865832393109831
12897270 3 18410856551113197638
16945 1 18339360889068726668
18185500 45 18410855447264391431
19973954 147 18410290332795269404
21040471 1 18051693540301251324
23552423 10 18272084993932964638
23559900 14 17901943377647799222
241688 4 18412261722699776641
2748010 2 18338235964129970925
29004967 10 18338514144919571538
5084963 1 18260263023525964474
66348 1 18050567636009627726

> <PUBCHEM_SHAPE_MULTIPOLES>
193.81
3.23
2.01
0.62
0.48
0.17
-0.01
-0.31
0.01
-0.51
-0.02
0.05
0.02
0.13

> <PUBCHEM_SHAPE_SELFOVERLAP>
397.07

> <PUBCHEM_SHAPE_VOLUME>
113.7

> <PUBCHEM_COORDINATE_TYPE>
2
5
10

$$$$

