444040
  -OEChem-07051213032D

 59 60  0     0  0  0  0  0  0999 V2000
    6.0991    0.0000    0.0000 Cl  0  0  0  0  0  0  0  0  0  0  0  0
    7.4651    5.1200    0.0000 O   0  0  0  0  0  0  0  0  0  0  0  0
    6.5991    3.6200    0.0000 O   0  0  0  0  0  0  0  0  0  0  0  0
   10.0632    6.6200    0.0000 O   0  0  0  0  0  0  0  0  0  0  0  0
    8.3312    6.6200    0.0000 O   0  0  0  0  0  0  0  0  0  0  0  0
    2.2690    6.1200    0.0000 N   0  0  0  0  0  0  0  0  0  0  0  0
    0.5369    6.1200    0.0000 N   0  0  0  0  0  0  0  0  0  0  0  0
    1.4030    7.6200    0.0000 N   0  0  0  0  0  0  0  0  0  0  0  0
    4.0010    6.1200    0.0000 C   0  0  0  0  0  0  0  0  0  0  0  0
    5.7331    5.1200    0.0000 C   0  0  0  0  0  0  0  0  0  0  0  0
    4.0010    5.1200    0.0000 C   0  0  0  0  0  0  0  0  0  0  0  0
    4.8671    6.6200    0.0000 C   0  0  0  0  0  0  0  0  0  0  0  0
    4.8671    4.6200    0.0000 C   0  0  0  0  0  0  0  0  0  0  0  0
    5.7331    6.1200    0.0000 C   0  0  0  0  0  0  0  0  0  0  0  0
    3.1350    6.6200    0.0000 C   0  0  0  0  0  0  0  0  0  0  0  0
    6.5991    4.6200    0.0000 C   0  0  0  0  0  0  0  0  0  0  0  0
    1.4030    6.6200    0.0000 C   0  0  0  0  0  0  0  0  0  0  0  0
    8.3312    4.6200    0.0000 C   0  0  0  0  0  0  0  0  0  0  0  0
    9.1972    5.1200    0.0000 C   0  0  0  0  0  0  0  0  0  0  0  0
    8.3312    3.6200    0.0000 C   0  0  0  0  0  0  0  0  0  0  0  0
   10.0632    4.6200    0.0000 C   0  0  0  0  0  0  0  0  0  0  0  0
    9.1972    3.1200    0.0000 C   0  0  0  0  0  0  0  0  0  0  0  0
    9.1972    6.1200    0.0000 C   0  0  0  0  0  0  0  0  0  0  0  0
   10.0632    3.6200    0.0000 C   0  0  0  0  0  0  0  0  0  0  0  0
   10.0632    7.6200    0.0000 C   0  0  0  0  0  0  0  0  0  0  0  0
   10.9292    8.1200    0.0000 C   0  0  0  0  0  0  0  0  0  0  0  0
   11.7953    7.6200    0.0000 C   0  0  0  0  0  0  0  0  0  0  0  0
   10.9292    9.1200    0.0000 C   0  0  0  0  0  0  0  0  0  0  0  0
   12.6613    8.1200    0.0000 C   0  0  0  0  0  0  0  0  0  0  0  0
   11.7953    9.6200    0.0000 C   0  0  0  0  0  0  0  0  0  0  0  0
   12.6613    9.1200    0.0000 C   0  0  0  0  0  0  0  0  0  0  0  0
    4.0010    6.7400    0.0000 H   0  0  0  0  0  0  0  0  0  0  0  0
    6.2700    5.4300    0.0000 H   0  0  0  0  0  0  0  0  0  0  0  0
    5.2656    7.0950    0.0000 H   0  0  0  0  0  0  0  0  0  0  0  0
    4.4685    7.0950    0.0000 H   0  0  0  0  0  0  0  0  0  0  0  0
    3.3905    5.2277    0.0000 H   0  0  0  0  0  0  0  0  0  0  0  0
    3.7890    4.5374    0.0000 H   0  0  0  0  0  0  0  0  0  0  0  0
    4.4685    4.1450    0.0000 H   0  0  0  0  0  0  0  0  0  0  0  0
    5.2656    4.1450    0.0000 H   0  0  0  0  0  0  0  0  0  0  0  0
    6.3437    6.0123    0.0000 H   0  0  0  0  0  0  0  0  0  0  0  0
    5.9451    6.7026    0.0000 H   0  0  0  0  0  0  0  0  0  0  0  0
    3.5335    7.0950    0.0000 H   0  0  0  0  0  0  0  0  0  0  0  0
    2.7365    7.0950    0.0000 H   0  0  0  0  0  0  0  0  0  0  0  0
    7.7942    3.3100    0.0000 H   0  0  0  0  0  0  0  0  0  0  0  0
    0.8660    7.9300    0.0000 H   0  0  0  0  0  0  0  0  0  0  0  0
    1.9399    7.9300    0.0000 H   0  0  0  0  0  0  0  0  0  0  0  0
    0.0000    6.4300    0.0000 H   0  0  0  0  0  0  0  0  0  0  0  0
    0.5369    5.5000    0.0000 H   0  0  0  0  0  0  0  0  0  0  0  0
   10.6002    4.9300    0.0000 H   0  0  0  0  0  0  0  0  0  0  0  0
    9.1972    2.5000    0.0000 H   0  0  0  0  0  0  0  0  0  0  0  0
   10.6002    3.3100    0.0000 H   0  0  0  0  0  0  0  0  0  0  0  0
    9.8512    8.2026    0.0000 H   0  0  0  0  0  0  0  0  0  0  0  0
    9.4526    7.5123    0.0000 H   0  0  0  0  0  0  0  0  0  0  0  0
   11.7953    7.0000    0.0000 H   0  0  0  0  0  0  0  0  0  0  0  0
   10.3923    9.4300    0.0000 H   0  0  0  0  0  0  0  0  0  0  0  0
   13.1982    7.8100    0.0000 H   0  0  0  0  0  0  0  0  0  0  0  0
   11.7953   10.2400    0.0000 H   0  0  0  0  0  0  0  0  0  0  0  0
   13.1982    9.4300    0.0000 H   0  0  0  0  0  0  0  0  0  0  0  0
    7.0991    0.0000    0.0000 H   0  0  0  0  0  0  0  0  0  0  0  0
  1 59  1  0  0  0  0
  2 16  1  0  0  0  0
  2 18  1  0  0  0  0
  3 16  2  0  0  0  0
  4 23  1  0  0  0  0
  4 25  1  0  0  0  0
  5 23  2  0  0  0  0
  6 15  1  0  0  0  0
  6 17  2  0  0  0  0
  7 17  1  0  0  0  0
  7 47  1  0  0  0  0
  7 48  1  0  0  0  0
  8 17  1  0  0  0  0
  8 45  1  0  0  0  0
  8 46  1  0  0  0  0
  9 11  1  0  0  0  0
  9 12  1  0  0  0  0
  9 15  1  0  0  0  0
  9 32  1  0  0  0  0
 10 13  1  0  0  0  0
 10 14  1  0  0  0  0
 10 16  1  0  0  0  0
 10 33  1  0  0  0  0
 11 13  1  0  0  0  0
 11 36  1  0  0  0  0
 11 37  1  0  0  0  0
 12 14  1  0  0  0  0
 12 34  1  0  0  0  0
 12 35  1  0  0  0  0
 13 38  1  0  0  0  0
 13 39  1  0  0  0  0
 14 40  1  0  0  0  0
 14 41  1  0  0  0  0
 15 42  1  0  0  0  0
 15 43  1  0  0  0  0
 18 19  1  0  0  0  0
 18 20  2  0  0  0  0
 19 21  2  0  0  0  0
 19 23  1  0  0  0  0
 20 22  1  0  0  0  0
 20 44  1  0  0  0  0
 21 24  1  0  0  0  0
 21 49  1  0  0  0  0
 22 24  2  0  0  0  0
 22 50  1  0  0  0  0
 24 51  1  0  0  0  0
 25 26  1  0  0  0  0
 25 52  1  0  0  0  0
 25 53  1  0  0  0  0
 26 27  2  0  0  0  0
 26 28  1  0  0  0  0
 27 29  1  0  0  0  0
 27 54  1  0  0  0  0
 28 30  2  0  0  0  0
 28 55  1  0  0  0  0
 29 31  2  0  0  0  0
 29 56  1  0  0  0  0
 30 31  1  0  0  0  0
 30 57  1  0  0  0  0
 31 58  1  0  0  0  0
M  END
> <PUBCHEM_COMPOUND_CID>
444040

> <PUBCHEM_COMPOUND_CANONICALIZED>
1

> <PUBCHEM_CACTVS_COMPLEXITY>
591

> <PUBCHEM_CACTVS_HBOND_ACCEPTOR>
5

> <PUBCHEM_CACTVS_HBOND_DONOR>
3

> <PUBCHEM_CACTVS_ROTATABLE_BOND>
9

> <PUBCHEM_CACTVS_SUBSKEYS>
AAADceB7OAAEAAAAAAAAAAAAAAAAAAAAAAAwYMAAAAAAAAABQAAAHgAQAAAADQThmAYxDoJABACoAiDSLAACCAEkIAAIiAEGCMgMJzaEtRqCO2Cl4BEIqYeYyDCOAAAAAAAIAACAAAAAABAAAAAAAAAAAA==

> <PUBCHEM_IUPAC_OPENEYE_NAME>
benzyl 2-[4-(guanidinomethyl)cyclohexanecarbonyl]oxybenzoate hydrochloride

> <PUBCHEM_IUPAC_CAS_NAME>
2-[[4-[(diaminomethylideneamino)methyl]cyclohexyl]-oxomethoxy]benzoic acid (phenylmethyl) ester hydrochloride

> <PUBCHEM_IUPAC_NAME>
benzyl 2-[4-[(diaminomethylideneamino)methyl]cyclohexanecarbonyl]oxybenzoate hydrochloride

> <PUBCHEM_IUPAC_SYSTEMATIC_NAME>
(phenylmethyl) 2-[4-[[bis(azanyl)methylideneamino]methyl]cyclohexyl]carbonyloxybenzoate hydrochloride

> <PUBCHEM_IUPAC_TRADITIONAL_NAME>
2-[4-(guanidinomethyl)cyclohexanecarbonyl]oxybenzoic acid benzyl ester hydrochloride

> <PUBCHEM_IUPAC_INCHI>
InChI=1S/C23H27N3O4.ClH/c24-23(25)26-14-16-10-12-18(13-11-16)21(27)30-20-9-5-4-8-19(20)22(28)29-15-17-6-2-1-3-7-17;/h1-9,16,18H,10-15H2,(H4,24,25,26);1H

> <PUBCHEM_IUPAC_INCHIKEY>
ZNYYFCHDQJQKOK-UHFFFAOYSA-N

> <PUBCHEM_EXACT_MASS>
445.176834

> <PUBCHEM_MOLECULAR_FORMULA>
C23H28ClN3O4

> <PUBCHEM_MOLECULAR_WEIGHT>
445.93912

> <PUBCHEM_OPENEYE_CAN_SMILES>
C1CC(CCC1CN=C(N)N)C(=O)OC2=CC=CC=C2C(=O)OCC3=CC=CC=C3.Cl

> <PUBCHEM_OPENEYE_ISO_SMILES>
C1CC(CCC1CN=C(N)N)C(=O)OC2=CC=CC=C2C(=O)OCC3=CC=CC=C3.Cl

> <PUBCHEM_CACTVS_TPSA>
117

> <PUBCHEM_MONOISOTOPIC_WEIGHT>
445.176834

> <PUBCHEM_TOTAL_CHARGE>
0

> <PUBCHEM_HEAVY_ATOM_COUNT>
31

> <PUBCHEM_ATOM_DEF_STEREO_COUNT>
0

> <PUBCHEM_ATOM_UDEF_STEREO_COUNT>
0

> <PUBCHEM_BOND_DEF_STEREO_COUNT>
0

> <PUBCHEM_BOND_UDEF_STEREO_COUNT>
0

> <PUBCHEM_ISOTOPIC_ATOM_COUNT>
0

> <PUBCHEM_COMPONENT_COUNT>
2

> <PUBCHEM_CACTVS_TAUTO_COUNT>
2

> <PUBCHEM_COORDINATE_TYPE>
1
5
255

> <PUBCHEM_BONDANNOTATIONS>
18  19  8
18  20  8
19  21  8
20  22  8
21  24  8
22  24  8
26  27  8
26  28  8
27  29  8
28  30  8
29  31  8
30  31  8

$$$$

