441754
  -OEChem-07051212562D

105111  0     1  0  0  0  0  0999 V2000
    3.6817    1.7093    0.0000 O   0  0  0  0  0  0  0  0  0  0  0  0
    3.2405    2.5474    0.0000 O   0  0  0  0  0  0  0  0  0  0  0  0
    4.7580    1.3785    0.0000 O   0  0  0  0  0  0  0  0  0  0  0  0
    6.5807    5.1404    0.0000 O   0  0  0  0  0  0  0  0  0  0  0  0
    2.8638    4.7145    0.0000 O   0  0  0  0  0  0  0  0  0  0  0  0
    2.4630    5.5983    0.0000 O   0  0  0  0  0  0  0  0  0  0  0  0
    7.4467    0.9052    0.0000 O   0  0  0  0  0  0  0  0  0  0  0  0
    6.5807   -0.5948    0.0000 O   0  0  0  0  0  0  0  0  0  0  0  0
    8.3128   -3.5948    0.0000 O   0  0  0  0  0  0  0  0  0  0  0  0
    5.7147   -6.0948    0.0000 O   0  0  0  0  0  0  0  0  0  0  0  0
    4.8486   -4.5948    0.0000 O   0  0  0  0  0  0  0  0  0  0  0  0
    7.7760    3.3113    0.0000 N   0  0  3  0  0  0  0  0  0  0  0  0
    7.4467   -2.0948    0.0000 N   0  0  0  0  0  0  0  0  0  0  0  0
    5.8294    3.7066    0.0000 C   0  0  2  0  0  0  0  0  0  0  0  0
    5.8294    2.8390    0.0000 C   0  0  2  0  0  0  0  0  0  0  0  0
    6.8313    3.6005    0.0000 C   0  0  3  0  0  0  0  0  0  0  0  0
    4.3052    2.4911    0.0000 C   0  0  2  0  0  0  0  0  0  0  0  0
    5.1511    4.2475    0.0000 C   0  0  1  0  0  0  0  0  0  0  0  0
    4.3052    4.0544    0.0000 C   0  0  1  0  0  0  0  0  0  0  0  0
    3.9288    3.2728    0.0000 C   0  0  1  0  0  0  0  0  0  0  0  0
    5.1511    2.2981    0.0000 C   0  0  1  0  0  0  0  0  0  0  0  0
    6.5807    2.4052    0.0000 C   0  0  2  0  0  0  0  0  0  0  0  0
    6.5807    4.1404    0.0000 C   0  0  2  0  0  0  0  0  0  0  0  0
    5.2288    5.1116    0.0000 C   0  0  0  0  0  0  0  0  0  0  0  0
    4.4311    5.4526    0.0000 C   0  0  1  0  0  0  0  0  0  0  0  0
    3.8602    4.7992    0.0000 C   0  0  2  0  0  0  0  0  0  0  0  0
    3.2839    3.5427    0.0000 C   0  0  0  0  0  0  0  0  0  0  0  0
    7.7760    2.5594    0.0000 C   0  0  0  0  0  0  0  0  0  0  0  0
    7.3320    2.8390    0.0000 C   0  0  0  0  0  0  0  0  0  0  0  0
    3.2839    5.0272    0.0000 C   0  0  2  0  0  0  0  0  0  0  0  0
    7.3320    3.7066    0.0000 C   0  0  0  0  0  0  0  0  0  0  0  0
    6.5807    1.4052    0.0000 C   0  0  0  0  0  0  0  0  0  0  0  0
    8.5800    3.9060    0.0000 C   0  0  0  0  0  0  0  0  0  0  0  0
    2.2681    2.7808    0.0000 C   0  0  0  0  0  0  0  0  0  0  0  0
    5.3579    0.5784    0.0000 C   0  0  0  0  0  0  0  0  0  0  0  0
    9.4970    3.5071    0.0000 C   0  0  0  0  0  0  0  0  0  0  0  0
    7.4467    5.6404    0.0000 C   0  0  0  0  0  0  0  0  0  0  0  0
    2.4390    3.8093    0.0000 C   0  0  0  0  0  0  0  0  0  0  0  0
    2.5472    6.5948    0.0000 C   0  0  0  0  0  0  0  0  0  0  0  0
    7.4467   -0.0948    0.0000 C   0  0  0  0  0  0  0  0  0  0  0  0
    8.3128   -0.5948    0.0000 C   0  0  0  0  0  0  0  0  0  0  0  0
    8.3128   -1.5948    0.0000 C   0  0  0  0  0  0  0  0  0  0  0  0
    9.1788   -0.0948    0.0000 C   0  0  0  0  0  0  0  0  0  0  0  0
    9.1788   -2.0948    0.0000 C   0  0  0  0  0  0  0  0  0  0  0  0
   10.0448   -0.5948    0.0000 C   0  0  0  0  0  0  0  0  0  0  0  0
   10.0448   -1.5948    0.0000 C   0  0  0  0  0  0  0  0  0  0  0  0
    7.4467   -3.0948    0.0000 C   0  0  0  0  0  0  0  0  0  0  0  0
    6.5807   -3.5948    0.0000 C   0  0  0  0  0  0  0  0  0  0  0  0
    6.5807   -4.5948    0.0000 C   0  0  0  0  0  0  0  0  0  0  0  0
    5.7147   -5.0948    0.0000 C   0  0  0  0  0  0  0  0  0  0  0  0
    4.8486   -6.5948    0.0000 C   0  0  0  0  0  0  0  0  0  0  0  0
    5.8929    1.9914    0.0000 H   0  0  0  0  0  0  0  0  0  0  0  0
    6.9553    4.2080    0.0000 H   0  0  0  0  0  0  0  0  0  0  0  0
    5.9327    4.5816    0.0000 H   0  0  0  0  0  0  0  0  0  0  0  0
    3.4561    4.0163    0.0000 H   0  0  0  0  0  0  0  0  0  0  0  0
    5.3515    1.7114    0.0000 H   0  0  0  0  0  0  0  0  0  0  0  0
    6.0438    4.4504    0.0000 H   0  0  0  0  0  0  0  0  0  0  0  0
    5.4116    5.7040    0.0000 H   0  0  0  0  0  0  0  0  0  0  0  0
    5.8372    4.9918    0.0000 H   0  0  0  0  0  0  0  0  0  0  0  0
    4.4518    6.3023    0.0000 H   0  0  0  0  0  0  0  0  0  0  0  0
    3.5802    5.3523    0.0000 H   0  0  0  0  0  0  0  0  0  0  0  0
    3.1220    2.9442    0.0000 H   0  0  0  0  0  0  0  0  0  0  0  0
    2.6693    3.6244    0.0000 H   0  0  0  0  0  0  0  0  0  0  0  0
    8.3955    2.5860    0.0000 H   0  0  0  0  0  0  0  0  0  0  0  0
    7.8290    1.9417    0.0000 H   0  0  0  0  0  0  0  0  0  0  0  0
    7.9426    2.9466    0.0000 H   0  0  0  0  0  0  0  0  0  0  0  0
    7.5441    2.2564    0.0000 H   0  0  0  0  0  0  0  0  0  0  0  0
    3.3621    5.6423    0.0000 H   0  0  0  0  0  0  0  0  0  0  0  0
    7.5441    4.2892    0.0000 H   0  0  0  0  0  0  0  0  0  0  0  0
    7.9426    3.5989    0.0000 H   0  0  0  0  0  0  0  0  0  0  0  0
    6.3686    0.8226    0.0000 H   0  0  0  0  0  0  0  0  0  0  0  0
    5.9701    1.5129    0.0000 H   0  0  0  0  0  0  0  0  0  0  0  0
    3.9082    1.1322    0.0000 H   0  0  0  0  0  0  0  0  0  0  0  0
    8.1303    4.3329    0.0000 H   0  0  0  0  0  0  0  0  0  0  0  0
    8.9223    4.4230    0.0000 H   0  0  0  0  0  0  0  0  0  0  0  0
    2.1234    2.1779    0.0000 H   0  0  0  0  0  0  0  0  0  0  0  0
    1.6652    2.9255    0.0000 H   0  0  0  0  0  0  0  0  0  0  0  0
    2.4128    3.3837    0.0000 H   0  0  0  0  0  0  0  0  0  0  0  0
    5.8539    0.9503    0.0000 H   0  0  0  0  0  0  0  0  0  0  0  0
    5.7298    0.0823    0.0000 H   0  0  0  0  0  0  0  0  0  0  0  0
    4.8618    0.2065    0.0000 H   0  0  0  0  0  0  0  0  0  0  0  0
    9.7443    4.0756    0.0000 H   0  0  0  0  0  0  0  0  0  0  0  0
   10.0655    3.2598    0.0000 H   0  0  0  0  0  0  0  0  0  0  0  0
    9.2497    2.9386    0.0000 H   0  0  0  0  0  0  0  0  0  0  0  0
    7.1367    6.1773    0.0000 H   0  0  0  0  0  0  0  0  0  0  0  0
    7.9837    5.9504    0.0000 H   0  0  0  0  0  0  0  0  0  0  0  0
    7.7567    5.1034    0.0000 H   0  0  0  0  0  0  0  0  0  0  0  0
    3.0002    3.5459    0.0000 H   0  0  0  0  0  0  0  0  0  0  0  0
    2.1755    3.2480    0.0000 H   0  0  0  0  0  0  0  0  0  0  0  0
    1.8777    4.0727    0.0000 H   0  0  0  0  0  0  0  0  0  0  0  0
    1.9294    6.6470    0.0000 H   0  0  0  0  0  0  0  0  0  0  0  0
    2.5994    7.2126    0.0000 H   0  0  0  0  0  0  0  0  0  0  0  0
    3.1650    6.5426    0.0000 H   0  0  0  0  0  0  0  0  0  0  0  0
    9.1788    0.5252    0.0000 H   0  0  0  0  0  0  0  0  0  0  0  0
    9.1788   -2.7148    0.0000 H   0  0  0  0  0  0  0  0  0  0  0  0
   10.5817   -0.2848    0.0000 H   0  0  0  0  0  0  0  0  0  0  0  0
    6.9098   -1.7848    0.0000 H   0  0  0  0  0  0  0  0  0  0  0  0
   10.5817   -1.9048    0.0000 H   0  0  0  0  0  0  0  0  0  0  0  0
    5.9701   -3.7024    0.0000 H   0  0  0  0  0  0  0  0  0  0  0  0
    6.3686   -3.0122    0.0000 H   0  0  0  0  0  0  0  0  0  0  0  0
    7.1913   -4.4871    0.0000 H   0  0  0  0  0  0  0  0  0  0  0  0
    6.7928   -5.1774    0.0000 H   0  0  0  0  0  0  0  0  0  0  0  0
    5.1586   -7.1317    0.0000 H   0  0  0  0  0  0  0  0  0  0  0  0
    4.3117   -6.9048    0.0000 H   0  0  0  0  0  0  0  0  0  0  0  0
    4.5386   -6.0578    0.0000 H   0  0  0  0  0  0  0  0  0  0  0  0
 17  1  1  1  0  0  0
  1 73  1  0  0  0  0
 20  2  1  6  0  0  0
  2 34  1  0  0  0  0
 21  3  1  6  0  0  0
  3 35  1  0  0  0  0
 23  4  1  1  0  0  0
  4 37  1  0  0  0  0
 26  5  1  1  0  0  0
  5 38  1  0  0  0  0
 30  6  1  6  0  0  0
  6 39  1  0  0  0  0
  7 32  1  0  0  0  0
  7 40  1  0  0  0  0
  8 40  2  0  0  0  0
  9 47  2  0  0  0  0
 10 50  1  0  0  0  0
 10 51  1  0  0  0  0
 11 50  2  0  0  0  0
 12 16  1  0  0  0  0
 12 28  1  0  0  0  0
 12 33  1  0  0  0  0
 13 42  1  0  0  0  0
 13 47  1  0  0  0  0
 13 97  1  0  0  0  0
 14 15  1  0  0  0  0
 14 16  1  0  0  0  0
 14 18  1  0  0  0  0
 14 23  1  6  0  0  0
 15 21  1  0  0  0  0
 15 22  1  0  0  0  0
 15 52  1  6  0  0  0
 16 17  1  0  0  0  0
 16 53  1  0  0  0  0
 17 20  1  0  0  0  0
 17 21  1  0  0  0  0
 18 19  1  0  0  0  0
 18 24  1  0  0  0  0
 18 54  1  6  0  0  0
 19 20  1  0  0  0  0
 19 26  1  0  0  0  0
 19 55  1  6  0  0  0
 20 27  1  0  0  0  0
 21 56  1  0  0  0  0
 22 28  1  0  0  0  0
 22 29  1  0  0  0  0
 22 32  1  6  0  0  0
 23 31  1  0  0  0  0
 23 57  1  0  0  0  0
 24 25  1  0  0  0  0
 24 58  1  0  0  0  0
 24 59  1  0  0  0  0
 25 26  1  0  0  0  0
 25 30  1  0  0  0  0
 25 60  1  6  0  0  0
 26 61  1  0  0  0  0
 27 30  1  0  0  0  0
 27 62  1  0  0  0  0
 27 63  1  0  0  0  0
 28 64  1  0  0  0  0
 28 65  1  0  0  0  0
 29 31  1  0  0  0  0
 29 66  1  0  0  0  0
 29 67  1  0  0  0  0
 30 68  1  0  0  0  0
 31 69  1  0  0  0  0
 31 70  1  0  0  0  0
 32 71  1  0  0  0  0
 32 72  1  0  0  0  0
 33 36  1  0  0  0  0
 33 74  1  0  0  0  0
 33 75  1  0  0  0  0
 34 76  1  0  0  0  0
 34 77  1  0  0  0  0
 34 78  1  0  0  0  0
 35 79  1  0  0  0  0
 35 80  1  0  0  0  0
 35 81  1  0  0  0  0
 36 82  1  0  0  0  0
 36 83  1  0  0  0  0
 36 84  1  0  0  0  0
 37 85  1  0  0  0  0
 37 86  1  0  0  0  0
 37 87  1  0  0  0  0
 38 88  1  0  0  0  0
 38 89  1  0  0  0  0
 38 90  1  0  0  0  0
 39 91  1  0  0  0  0
 39 92  1  0  0  0  0
 39 93  1  0  0  0  0
 40 41  1  0  0  0  0
 41 42  1  0  0  0  0
 41 43  2  0  0  0  0
 42 44  2  0  0  0  0
 43 45  1  0  0  0  0
 43 94  1  0  0  0  0
 44 46  1  0  0  0  0
 44 95  1  0  0  0  0
 45 46  2  0  0  0  0
 45 96  1  0  0  0  0
 46 98  1  0  0  0  0
 47 48  1  0  0  0  0
 48 49  1  0  0  0  0
 48 99  1  0  0  0  0
 48100  1  0  0  0  0
 49 50  1  0  0  0  0
 49101  1  0  0  0  0
 49102  1  0  0  0  0
 51103  1  0  0  0  0
 51104  1  0  0  0  0
 51105  1  0  0  0  0
M  END
> <PUBCHEM_COMPOUND_CID>
441754

> <PUBCHEM_COMPOUND_CANONICALIZED>
1

> <PUBCHEM_CACTVS_COMPLEXITY>
1350

> <PUBCHEM_CACTVS_HBOND_ACCEPTOR>
12

> <PUBCHEM_CACTVS_HBOND_DONOR>
2

> <PUBCHEM_CACTVS_ROTATABLE_BOND>
15

> <PUBCHEM_CACTVS_SUBSKEYS>
AAADcfB/PAAAAAAAAAAAAAAAAAAAAYMAAAA8YMGCB4gWAGABAAAAHgAQCAAAD3zhmAYyyIPABgCIAiXSWACCAAAlAgAIiAEIbMgLJjrAtZmGcYhn1AHb6cf/+P+PgAAAAAACAADQAAaUADSgAaEADSgAAA==

> <PUBCHEM_IUPAC_INCHI>
InChI=1S/C38H54N2O11/c1-8-40-19-35(20-51-33(43)21-11-9-10-12-24(21)39-27(41)13-14-28(42)47-4)16-15-26(46-3)37-23-17-22-25(45-2)18-36(50-7,29(23)30(22)48-5)38(44,34(37)40)32(49-6)31(35)37/h9-12,22-23,25-26,29-32,34,44H,8,13-20H2,1-7H3,(H,39,41)/t22-,23-,25+,26+,29-,30+,31-,32+,34?,35+,36-,37+,38-/m1/s1

> <PUBCHEM_IUPAC_INCHIKEY>
PXDSODACKDGKHO-MOEGOFPBSA-N

> <PUBCHEM_XLOGP3_AA>
1.7

> <PUBCHEM_EXACT_MASS>
714.372761

> <PUBCHEM_MOLECULAR_FORMULA>
C38H54N2O11

> <PUBCHEM_MOLECULAR_WEIGHT>
714.84216

> <PUBCHEM_OPENEYE_CAN_SMILES>
CCN1CC2(CCC(C34C2C(C(C31)(C5(CC(C6CC4C5C6OC)OC)OC)O)OC)OC)COC(=O)C7=CC=CC=C7NC(=O)CCC(=O)OC

> <PUBCHEM_OPENEYE_ISO_SMILES>
CCN1C[C@@]2(CC[C@@H]([C@@]34[C@@H]2[C@@H]([C@@](C31)([C@]5(C[C@@H]([C@H]6C[C@@H]4[C@@H]5[C@H]6OC)OC)OC)O)OC)OC)COC(=O)C7=CC=CC=C7NC(=O)CCC(=O)OC

> <PUBCHEM_CACTVS_TPSA>
151

> <PUBCHEM_MONOISOTOPIC_WEIGHT>
714.372761

> <PUBCHEM_TOTAL_CHARGE>
0

> <PUBCHEM_HEAVY_ATOM_COUNT>
51

> <PUBCHEM_ATOM_DEF_STEREO_COUNT>
12

> <PUBCHEM_ATOM_UDEF_STEREO_COUNT>
1

> <PUBCHEM_BOND_DEF_STEREO_COUNT>
0

> <PUBCHEM_BOND_UDEF_STEREO_COUNT>
0

> <PUBCHEM_ISOTOPIC_ATOM_COUNT>
0

> <PUBCHEM_COMPONENT_COUNT>
1

> <PUBCHEM_CACTVS_TAUTO_COUNT>
9

> <PUBCHEM_COORDINATE_TYPE>
1
5
255

> <PUBCHEM_BONDANNOTATIONS>
17  1  5
16  12  3
14  23  6
15  52  6
18  54  6
19  55  6
20  2  6
22  32  6
25  60  6
21  3  6
23  4  5
41  42  8
41  43  8
42  44  8
43  45  8
44  46  8
45  46  8
26  5  5
30  6  6

$$$$

