11213
  -OEChem-06261205242D

 41 46  0     1  0  0  0  0  0999 V2000
    4.8454   -2.4482    0.0000 O   0  0  0  0  0  0  0  0  0  0  0  0
    8.2293    1.0717    0.0000 O   0  0  0  0  0  0  0  0  0  0  0  0
    8.4705   -0.7603    0.0000 O   0  0  0  0  0  0  0  0  0  0  0  0
    2.8378   -0.5710    0.0000 N   0  0  3  0  0  0  0  0  0  0  0  0
    4.6034   -0.3786    0.0000 C   0  0  2  0  0  0  0  0  0  0  0  0
    3.6898    0.0282    0.0000 C   0  0  1  0  0  0  0  0  0  0  0  0
    4.2290   -1.8159    0.0000 C   0  0  3  0  0  0  0  0  0  0  0  0
    4.7282   -1.4127    0.0000 C   0  0  1  0  0  0  0  0  0  0  0  0
    2.8721   -1.2118    0.0000 C   0  0  0  0  0  0  0  0  0  0  0  0
    3.7943    1.0227    0.0000 C   0  0  1  0  0  0  0  0  0  0  0  0
    6.1385    0.8646    0.0000 C   0  0  2  0  0  0  0  0  0  0  0  0
    3.8902   -2.0314    0.0000 C   0  0  1  0  0  0  0  0  0  0  0  0
    6.3973    1.8305    0.0000 C   0  0  1  0  0  0  0  0  0  0  0  0
    5.6607    2.8131    0.0000 C   0  0  0  0  0  0  0  0  0  0  0  0
    2.9387   -1.6077    0.0000 C   0  0  0  0  0  0  0  0  0  0  0  0
    2.9064    1.4988    0.0000 C   0  0  0  0  0  0  0  0  0  0  0  0
    2.0000   -0.0113    0.0000 C   0  0  0  0  0  0  0  0  0  0  0  0
    4.1541   -2.8131    0.0000 C   0  0  0  0  0  0  0  0  0  0  0  0
    7.9705    0.1058    0.0000 C   0  0  0  0  0  0  0  0  0  0  0  0
    2.0334    0.9957    0.0000 C   0  0  0  0  0  0  0  0  0  0  0  0
    5.0675   -1.9555    0.0000 H   0  0  0  0  0  0  0  0  0  0  0  0
    5.3440   -1.3407    0.0000 H   0  0  0  0  0  0  0  0  0  0  0  0
    2.3366   -0.8993    0.0000 H   0  0  0  0  0  0  0  0  0  0  0  0
    2.5893   -1.7636    0.0000 H   0  0  0  0  0  0  0  0  0  0  0  0
    3.8832    1.8680    0.0000 H   0  0  0  0  0  0  0  0  0  0  0  0
    5.9185    0.0436    0.0000 H   0  0  0  0  0  0  0  0  0  0  0  0
    3.6402   -2.5988    0.0000 H   0  0  0  0  0  0  0  0  0  0  0  0
    6.6173    2.6516    0.0000 H   0  0  0  0  0  0  0  0  0  0  0  0
    5.9785    3.3455    0.0000 H   0  0  0  0  0  0  0  0  0  0  0  0
    5.0476    2.9051    0.0000 H   0  0  0  0  0  0  0  0  0  0  0  0
    2.3204   -1.5613    0.0000 H   0  0  0  0  0  0  0  0  0  0  0  0
    2.7871   -2.2089    0.0000 H   0  0  0  0  0  0  0  0  0  0  0  0
    3.2950    1.9819    0.0000 H   0  0  0  0  0  0  0  0  0  0  0  0
    2.5031    1.9698    0.0000 H   0  0  0  0  0  0  0  0  0  0  0  0
    1.3947    0.1231    0.0000 H   0  0  0  0  0  0  0  0  0  0  0  0
    1.7564   -0.5814    0.0000 H   0  0  0  0  0  0  0  0  0  0  0  0
    3.5358   -2.7667    0.0000 H   0  0  0  0  0  0  0  0  0  0  0  0
    4.1076   -3.4314    0.0000 H   0  0  0  0  0  0  0  0  0  0  0  0
    4.7723   -2.8596    0.0000 H   0  0  0  0  0  0  0  0  0  0  0  0
    1.8281    1.5808    0.0000 H   0  0  0  0  0  0  0  0  0  0  0  0
    1.4205    0.9017    0.0000 H   0  0  0  0  0  0  0  0  0  0  0  0
  8  1  1  6  0  0  0
 12  1  1  6  0  0  0
  2 13  1  0  0  0  0
  2 19  1  0  0  0  0
  3 19  2  0  0  0  0
  4  6  1  0  0  0  0
  4 15  1  0  0  0  0
  4 17  1  0  0  0  0
  5  6  1  0  0  0  0
  5  7  1  6  0  0  0
  5  8  1  0  0  0  0
  5 11  1  0  0  0  0
  6  9  1  6  0  0  0
  6 10  1  0  0  0  0
  7  9  1  0  0  0  0
  7 18  1  0  0  0  0
  7 21  1  0  0  0  0
  8 12  1  0  0  0  0
  8 22  1  0  0  0  0
  9 23  1  0  0  0  0
  9 24  1  0  0  0  0
 10 13  1  0  0  0  0
 10 16  1  0  0  0  0
 10 25  1  1  0  0  0
 11 14  1  0  0  0  0
 11 19  1  0  0  0  0
 11 26  1  1  0  0  0
 12 15  1  0  0  0  0
 12 27  1  0  0  0  0
 13 14  1  0  0  0  0
 13 28  1  6  0  0  0
 14 29  1  0  0  0  0
 14 30  1  0  0  0  0
 15 31  1  0  0  0  0
 15 32  1  0  0  0  0
 16 20  1  0  0  0  0
 16 33  1  0  0  0  0
 16 34  1  0  0  0  0
 17 20  1  0  0  0  0
 17 35  1  0  0  0  0
 17 36  1  0  0  0  0
 18 37  1  0  0  0  0
 18 38  1  0  0  0  0
 18 39  1  0  0  0  0
 20 40  1  0  0  0  0
 20 41  1  0  0  0  0
M  END
> <PUBCHEM_COMPOUND_CID>
11213

> <PUBCHEM_COMPOUND_CANONICALIZED>
1

> <PUBCHEM_CACTVS_COMPLEXITY>
536

> <PUBCHEM_CACTVS_HBOND_ACCEPTOR>
4

> <PUBCHEM_CACTVS_HBOND_DONOR>
0

> <PUBCHEM_CACTVS_ROTATABLE_BOND>
0

> <PUBCHEM_CACTVS_SUBSKEYS>
AAADceB6MAAAAAAAAAAAAAAAEgBgASAAAAA8WIAABYkeIACwAAAAHgAAAAAAD5zhgAYCCAMABAAIAACQCAAAAAAAAAAAAAEIAAACABIAgAAHAAAGAACQAAH+/P/PgAAAAAAAAADAAAaEADQAAAAAAAAAAA==

> <PUBCHEM_IUPAC_INCHI>
InChI=1S/C16H21NO3/c1-8-6-15-9-3-2-4-17(15)7-12-13(19-12)16(8,15)10-5-11(9)20-14(10)18/h8-13H,2-7H2,1H3/t8?,9-,10-,11-,12-,13-,15+,16+/m1/s1

> <PUBCHEM_IUPAC_INCHIKEY>
MVITYUVPZPGMRM-RLFDSYHXSA-N

> <PUBCHEM_XLOGP3_AA>
1.3

> <PUBCHEM_EXACT_MASS>
275.152144

> <PUBCHEM_MOLECULAR_FORMULA>
C16H21NO3

> <PUBCHEM_MOLECULAR_WEIGHT>
275.34284

> <PUBCHEM_OPENEYE_CAN_SMILES>
CC1CC23C14C5CC(C2CCCN3CC6C4O6)OC5=O

> <PUBCHEM_OPENEYE_ISO_SMILES>
CC1C[C@@]23[C@]14[C@@H]5C[C@H]([C@H]2CCCN3C[C@@H]6[C@H]4O6)OC5=O

> <PUBCHEM_CACTVS_TPSA>
42.1

> <PUBCHEM_MONOISOTOPIC_WEIGHT>
275.152144

> <PUBCHEM_TOTAL_CHARGE>
0

> <PUBCHEM_HEAVY_ATOM_COUNT>
20

> <PUBCHEM_ATOM_DEF_STEREO_COUNT>
7

> <PUBCHEM_ATOM_UDEF_STEREO_COUNT>
1

> <PUBCHEM_BOND_DEF_STEREO_COUNT>
0

> <PUBCHEM_BOND_UDEF_STEREO_COUNT>
0

> <PUBCHEM_ISOTOPIC_ATOM_COUNT>
0

> <PUBCHEM_COMPONENT_COUNT>
1

> <PUBCHEM_CACTVS_TAUTO_COUNT>
1

> <PUBCHEM_COORDINATE_TYPE>
1
5
255

> <PUBCHEM_BONDANNOTATIONS>
12  1  6
8  1  6
10  25  5
11  26  5
13  28  6
5  7  6
6  9  6
7  21  3

$$$$

