5462248
  -OEChem-07051212473D

 49 49  0     1  0  0  0  0  0999 V2000
    3.7732   -0.5256    0.5859 O   0  0  0  0  0  0  0  0  0  0  0  0
    0.2882   -0.0387   -1.5726 O   0  0  0  0  0  0  0  0  0  0  0  0
    1.0512   -2.6660   -0.6715 O   0  0  0  0  0  0  0  0  0  0  0  0
    2.3578    0.4722    2.1999 O   0  0  0  0  0  0  0  0  0  0  0  0
    4.8996   -2.9404    1.1814 O   0  0  0  0  0  0  0  0  0  0  0  0
    2.6023    3.6886   -0.7983 O   0  0  0  0  0  0  0  0  0  0  0  0
   -1.9386    1.4203   -0.9174 O   0  0  0  0  0  0  0  0  0  0  0  0
   -5.1218   -1.9219    0.1128 O   0  0  0  0  0  0  0  0  0  0  0  0
   -6.2692   -0.3229    1.2269 O   0  0  0  0  0  0  0  0  0  0  0  0
    1.1984    2.0999    0.1635 N   0  0  0  0  0  0  0  0  0  0  0  0
   -2.9109   -0.5153   -0.0841 N   0  0  0  0  0  0  0  0  0  0  0  0
    1.0786   -0.2872   -0.4083 C   0  0  2  0  0  0  0  0  0  0  0  0
    1.9777    0.9262   -0.1575 C   0  0  2  0  0  0  0  0  0  0  0  0
    1.9260   -1.5408   -0.6475 C   0  0  1  0  0  0  0  0  0  0  0  0
    2.9861   -1.7135    0.4466 C   0  0  1  0  0  0  0  0  0  0  0  0
    3.0053    0.6276    0.9385 C   0  0  2  0  0  0  0  0  0  0  0  0
    3.9510   -2.8541    0.1342 C   0  0  0  0  0  0  0  0  0  0  0  0
   -0.9591   -0.7102   -1.5004 C   0  0  2  0  0  0  0  0  0  0  0  0
    1.5815    3.3840   -0.1870 C   0  0  0  0  0  0  0  0  0  0  0  0
   -1.3940   -1.0598   -2.9148 C   0  0  0  0  0  0  0  0  0  0  0  0
   -1.9764    0.1955   -0.8211 C   0  0  0  0  0  0  0  0  0  0  0  0
    0.5771    4.4178    0.2466 C   0  0  0  0  0  0  0  0  0  0  0  0
   -3.9624    0.1314    0.6651 C   0  0  2  0  0  0  0  0  0  0  0  0
   -3.4916    0.4389    2.0787 C   0  0  0  0  0  0  0  0  0  0  0  0
   -5.2299   -0.7061    0.7004 C   0  0  0  0  0  0  0  0  0  0  0  0
    0.4234   -0.4305    0.4635 H   0  0  0  0  0  0  0  0  0  0  0  0
    2.5208    1.1376   -1.0892 H   0  0  0  0  0  0  0  0  0  0  0  0
    2.3996   -1.4740   -1.6346 H   0  0  0  0  0  0  0  0  0  0  0  0
    2.5146   -1.9339    1.4136 H   0  0  0  0  0  0  0  0  0  0  0  0
    3.6999    1.4709    1.0266 H   0  0  0  0  0  0  0  0  0  0  0  0
    4.4964   -2.6593   -0.7952 H   0  0  0  0  0  0  0  0  0  0  0  0
    3.4256   -3.8104    0.0519 H   0  0  0  0  0  0  0  0  0  0  0  0
    0.3546    1.9741    0.7156 H   0  0  0  0  0  0  0  0  0  0  0  0
   -0.9057   -1.6442   -0.9377 H   0  0  0  0  0  0  0  0  0  0  0  0
    0.7063   -2.7970    0.2284 H   0  0  0  0  0  0  0  0  0  0  0  0
    3.0076    0.7031    2.8851 H   0  0  0  0  0  0  0  0  0  0  0  0
   -0.6535   -1.7077   -3.3956 H   0  0  0  0  0  0  0  0  0  0  0  0
   -2.3642   -1.5667   -2.9205 H   0  0  0  0  0  0  0  0  0  0  0  0
   -1.4786   -0.1580   -3.5318 H   0  0  0  0  0  0  0  0  0  0  0  0
    5.5045   -3.6692    0.9614 H   0  0  0  0  0  0  0  0  0  0  0  0
    0.3726    4.3168    1.3163 H   0  0  0  0  0  0  0  0  0  0  0  0
    0.9725    5.4194    0.0569 H   0  0  0  0  0  0  0  0  0  0  0  0
   -0.3511    4.2858   -0.3163 H   0  0  0  0  0  0  0  0  0  0  0  0
   -2.8585   -1.5294   -0.0537 H   0  0  0  0  0  0  0  0  0  0  0  0
   -4.2173    1.0654    0.1502 H   0  0  0  0  0  0  0  0  0  0  0  0
   -3.2399   -0.4807    2.6195 H   0  0  0  0  0  0  0  0  0  0  0  0
   -2.5988    1.0736    2.0683 H   0  0  0  0  0  0  0  0  0  0  0  0
   -4.2692    0.9566    2.6504 H   0  0  0  0  0  0  0  0  0  0  0  0
   -5.9596   -2.4296    0.1636 H   0  0  0  0  0  0  0  0  0  0  0  0
  1 15  1  0  0  0  0
  1 16  1  0  0  0  0
  2 12  1  0  0  0  0
  2 18  1  0  0  0  0
  3 14  1  0  0  0  0
  3 35  1  0  0  0  0
  4 16  1  0  0  0  0
  4 36  1  0  0  0  0
  5 17  1  0  0  0  0
  5 40  1  0  0  0  0
  6 19  2  0  0  0  0
  7 21  2  0  0  0  0
  8 25  1  0  0  0  0
  8 49  1  0  0  0  0
  9 25  2  0  0  0  0
 10 13  1  0  0  0  0
 10 19  1  0  0  0  0
 10 33  1  0  0  0  0
 11 21  1  0  0  0  0
 11 23  1  0  0  0  0
 11 44  1  0  0  0  0
 12 13  1  0  0  0  0
 12 14  1  0  0  0  0
 12 26  1  0  0  0  0
 13 16  1  0  0  0  0
 13 27  1  0  0  0  0
 14 15  1  0  0  0  0
 14 28  1  0  0  0  0
 15 17  1  0  0  0  0
 15 29  1  0  0  0  0
 16 30  1  0  0  0  0
 17 31  1  0  0  0  0
 17 32  1  0  0  0  0
 18 20  1  0  0  0  0
 18 21  1  0  0  0  0
 18 34  1  0  0  0  0
 19 22  1  0  0  0  0
 20 37  1  0  0  0  0
 20 38  1  0  0  0  0
 20 39  1  0  0  0  0
 22 41  1  0  0  0  0
 22 42  1  0  0  0  0
 22 43  1  0  0  0  0
 23 24  1  0  0  0  0
 23 25  1  0  0  0  0
 23 45  1  0  0  0  0
 24 46  1  0  0  0  0
 24 47  1  0  0  0  0
 24 48  1  0  0  0  0
M  END
> <PUBCHEM_COMPOUND_CID>
5462248

> <PUBCHEM_CONFORMER_RMSD>
1

> <PUBCHEM_CONFORMER_DIVERSEORDER>
1
16
23
51
24
57
63
22
34
54
53
2
39
42
61
62
15
35
65
25
40
37
68
41
56
30
10
49
18
47
21
4
64
27
33
8
36
14
32
13
59
28
60
5
58
20
19
7
48
9
66
26
44
67
55
50
6
38
3
45
43
29
17
12
69
52
46
11
31

> <PUBCHEM_MMFF94_PARTIAL_CHARGES>
29
1 -0.56
10 -0.73
11 -0.73
12 0.28
13 0.3
14 0.28
15 0.28
16 0.56
17 0.28
18 0.34
19 0.57
2 -0.56
21 0.57
22 0.06
23 0.36
25 0.66
3 -0.68
33 0.37
35 0.4
36 0.4
4 -0.68
40 0.4
44 0.37
49 0.5
5 -0.68
6 -0.57
7 -0.57
8 -0.65
9 -0.57

> <PUBCHEM_EFFECTIVE_ROTOR_COUNT>
10.2

> <PUBCHEM_PHARMACOPHORE_FEATURES>
16
1 1 acceptor
1 10 donor
1 11 donor
1 2 acceptor
1 3 acceptor
1 3 donor
1 4 acceptor
1 4 donor
1 5 acceptor
1 5 donor
1 6 acceptor
1 7 acceptor
1 8 acceptor
1 9 acceptor
3 8 9 25 anion
6 1 12 13 14 15 16 rings

> <PUBCHEM_HEAVY_ATOM_COUNT>
25

> <PUBCHEM_ATOM_DEF_STEREO_COUNT>
7

> <PUBCHEM_ATOM_UDEF_STEREO_COUNT>
0

> <PUBCHEM_BOND_DEF_STEREO_COUNT>
0

> <PUBCHEM_BOND_UDEF_STEREO_COUNT>
0

> <PUBCHEM_ISOTOPIC_ATOM_COUNT>
0

> <PUBCHEM_COMPONENT_COUNT>
1

> <PUBCHEM_CACTVS_TAUTO_COUNT>
4

> <PUBCHEM_CONFORMER_ID>
005358E800000001

> <PUBCHEM_MMFF94_ENERGY>
51.9033

> <PUBCHEM_FEATURE_SELFOVERLAP>
81.306

> <PUBCHEM_SHAPE_FINGERPRINT>
10366900 7 18129930192382535341
10382601 240 18261407619989949240
1100329 8 15673796798146406246
12107183 9 18193545882635875481
12293681 160 12103264037007746430
12293681 4 17980769551552933565
12633257 1 18200601289146050707
12644460 14 18339916005070781149
13103583 49 18190455159022406307
13140716 1 17905899080480084544
13533116 47 18272080553627974811
13965767 371 17603310361995196232
14251764 30 18192141818903568886
14341114 176 18261385659432073395
14341114 328 17676198079344873843
14955137 171 18337387150424127600
15842332 3 17824839848811095823
1813 80 18262229045201464534
18785283 64 18200595770456271532
20465049 17 18120352282068723692
20739085 24 18334295387998109742
21041028 32 18338802341857821108
21756936 100 17612588926069266812
22182313 1 17028824526640305526
23558518 356 17684379351850663406
23559900 14 17632855326619121127
23845131 108 17765437547635611627
31174 14 18272092656165358789
3286 77 18202279229884522671
3380486 145 18046664249841717412
3472631 163 13984959440938340675
38570 142 17975112272101951292
474 4 18263079907955276425
5312544 6 18047755893247201263
621550 5 17775005742828762148
6786 2 17410187540363031100
6992083 37 17823437009539529470
7097593 13 18334304127755468910
8988823 20 18341332189749449031

> <PUBCHEM_SHAPE_MULTIPOLES>
451.7
9.74
4.09
1.82
12.29
4.52
0.48
-6.63
-5.77
-5.31
0.25
0.88
-0.46
-0.97

> <PUBCHEM_SHAPE_SELFOVERLAP>
905.598

> <PUBCHEM_SHAPE_VOLUME>
261.8

> <PUBCHEM_COORDINATE_TYPE>
2
5
10

$$$$

