47205003
  -OEChem-06241222572D

 24 25  0     0  0  0  0  0  0999 V2000
    8.7634   -1.3429    0.0000 Cl  0  0  0  0  0  0  0  0  0  0  0  0
    5.7076    1.7043    0.0000 O   0  0  0  0  0  0  0  0  0  0  0  0
    5.1724    0.0570    0.0000 N   0  0  0  0  0  0  0  0  0  0  0  0
    7.6756    1.0050    0.0000 N   0  0  0  0  0  0  0  0  0  0  0  0
    3.5827   -1.2976    0.0000 N   0  0  0  0  0  0  0  0  0  0  0  0
    2.6691   -1.7043    0.0000 N   0  0  0  0  0  0  0  0  0  0  0  0
    4.2213    0.3661    0.0000 C   0  0  0  0  0  0  0  0  0  0  0  0
    3.4782   -0.3031    0.0000 C   0  0  0  0  0  0  0  0  0  0  0  0
    6.8666    0.4172    0.0000 C   0  0  0  0  0  0  0  0  0  0  0  0
    5.9155    0.7262    0.0000 C   0  0  0  0  0  0  0  0  0  0  0  0
    7.1756   -0.5339    0.0000 C   0  0  0  0  0  0  0  0  0  0  0  0
    2.5000   -0.0952    0.0000 C   0  0  0  0  0  0  0  0  0  0  0  0
    8.4846    0.4172    0.0000 C   0  0  0  0  0  0  0  0  0  0  0  0
    8.1756   -0.5339    0.0000 C   0  0  0  0  0  0  0  0  0  0  0  0
    2.0000   -0.9612    0.0000 C   0  0  0  0  0  0  0  0  0  0  0  0
    4.5124    0.9135    0.0000 H   0  0  0  0  0  0  0  0  0  0  0  0
    3.7327    0.7478    0.0000 H   0  0  0  0  0  0  0  0  0  0  0  0
    5.3012   -0.5494    0.0000 H   0  0  0  0  0  0  0  0  0  0  0  0
    7.6756    1.6249    0.0000 H   0  0  0  0  0  0  0  0  0  0  0  0
    6.8111   -1.0355    0.0000 H   0  0  0  0  0  0  0  0  0  0  0  0
    2.2478    0.4712    0.0000 H   0  0  0  0  0  0  0  0  0  0  0  0
    4.1196   -1.6076    0.0000 H   0  0  0  0  0  0  0  0  0  0  0  0
    9.0742    0.6088    0.0000 H   0  0  0  0  0  0  0  0  0  0  0  0
    1.3834   -1.0260    0.0000 H   0  0  0  0  0  0  0  0  0  0  0  0
  1 14  1  0  0  0  0
  2 10  2  0  0  0  0
  3  7  1  0  0  0  0
  3 10  1  0  0  0  0
  3 18  1  0  0  0  0
  4  9  1  0  0  0  0
  4 13  1  0  0  0  0
  4 19  1  0  0  0  0
  5  6  1  0  0  0  0
  5  8  1  0  0  0  0
  5 22  1  0  0  0  0
  6 15  2  0  0  0  0
  7  8  1  0  0  0  0
  7 16  1  0  0  0  0
  7 17  1  0  0  0  0
  8 12  2  0  0  0  0
  9 10  1  0  0  0  0
  9 11  2  0  0  0  0
 11 14  1  0  0  0  0
 11 20  1  0  0  0  0
 12 15  1  0  0  0  0
 12 21  1  0  0  0  0
 13 14  2  0  0  0  0
 13 23  1  0  0  0  0
 15 24  1  0  0  0  0
M  END
> <PUBCHEM_COMPOUND_CID>
47205003

> <PUBCHEM_COMPOUND_CANONICALIZED>
1

> <PUBCHEM_CACTVS_COMPLEXITY>
238

> <PUBCHEM_CACTVS_HBOND_ACCEPTOR>
2

> <PUBCHEM_CACTVS_HBOND_DONOR>
3

> <PUBCHEM_CACTVS_ROTATABLE_BOND>
3

> <PUBCHEM_CACTVS_SUBSKEYS>
AAADccBzoAAEAAAAAAAAAAAAAAAAAWLAAAAAAAAAAAAAAAAB4AAAHgIYAAAACArBliQ8gJLrkACqATV3VACShCA3hyAY+aG4ZtgIYPLB1/HUhQhgngDIyYYYAQAAAAAAAAAAAAAAAAAAAAAAAAAAAAAAAA==

> <PUBCHEM_IUPAC_OPENEYE_NAME>
4-chloro-N-(1H-pyrazol-5-ylmethyl)-1H-pyrrole-2-carboxamide

> <PUBCHEM_IUPAC_CAS_NAME>
4-chloro-N-(1H-pyrazol-5-ylmethyl)-1H-pyrrole-2-carboxamide

> <PUBCHEM_IUPAC_NAME>
4-chloro-N-(1H-pyrazol-5-ylmethyl)-1H-pyrrole-2-carboxamide

> <PUBCHEM_IUPAC_SYSTEMATIC_NAME>
4-chloranyl-N-(1H-pyrazol-5-ylmethyl)-1H-pyrrole-2-carboxamide

> <PUBCHEM_IUPAC_TRADITIONAL_NAME>
4-chloro-N-(1H-pyrazol-5-ylmethyl)-1H-pyrrole-2-carboxamide

> <PUBCHEM_IUPAC_INCHI>
InChI=1S/C9H9ClN4O/c10-6-3-8(11-4-6)9(15)12-5-7-1-2-13-14-7/h1-4,11H,5H2,(H,12,15)(H,13,14)

> <PUBCHEM_IUPAC_INCHIKEY>
YDQKUDLHFNWGMG-UHFFFAOYSA-N

> <PUBCHEM_XLOGP3_AA>
0.8

> <PUBCHEM_EXACT_MASS>
224.046489

> <PUBCHEM_MOLECULAR_FORMULA>
C9H9ClN4O

> <PUBCHEM_MOLECULAR_WEIGHT>
224.64696

> <PUBCHEM_OPENEYE_CAN_SMILES>
C1=C(NN=C1)CNC(=O)C2=CC(=CN2)Cl

> <PUBCHEM_OPENEYE_ISO_SMILES>
C1=C(NN=C1)CNC(=O)C2=CC(=CN2)Cl

> <PUBCHEM_CACTVS_TPSA>
73.6

> <PUBCHEM_MONOISOTOPIC_WEIGHT>
224.046489

> <PUBCHEM_TOTAL_CHARGE>
0

> <PUBCHEM_HEAVY_ATOM_COUNT>
15

> <PUBCHEM_ATOM_DEF_STEREO_COUNT>
0

> <PUBCHEM_ATOM_UDEF_STEREO_COUNT>
0

> <PUBCHEM_BOND_DEF_STEREO_COUNT>
0

> <PUBCHEM_BOND_UDEF_STEREO_COUNT>
0

> <PUBCHEM_ISOTOPIC_ATOM_COUNT>
0

> <PUBCHEM_COMPONENT_COUNT>
1

> <PUBCHEM_CACTVS_TAUTO_COUNT>
14

> <PUBCHEM_COORDINATE_TYPE>
1
5
255

> <PUBCHEM_BONDANNOTATIONS>
11  14  8
12  15  8
13  14  8
4  13  8
4  9  8
5  6  8
5  8  8
6  15  8
8  12  8
9  11  8

$$$$

