13888890
  -OEChem-07051212563D

 47 51  0     1  0  0  0  0  0999 V2000
   -1.1238   -1.2363    1.3386 O   0  0  0  0  0  0  0  0  0  0  0  0
    1.5390   -0.1560   -2.1165 O   0  0  0  0  0  0  0  0  0  0  0  0
   -3.2658   -0.2858   -2.2280 O   0  0  0  0  0  0  0  0  0  0  0  0
   -3.1075   -0.5849    2.3122 O   0  0  0  0  0  0  0  0  0  0  0  0
   -0.4797    3.7041    0.5687 O   0  0  0  0  0  0  0  0  0  0  0  0
    0.4046    2.8100   -1.3325 O   0  0  0  0  0  0  0  0  0  0  0  0
   -0.4741   -1.0018    0.0575 C   0  0  2  0  0  0  0  0  0  0  0  0
    1.0397   -0.7943    0.2352 C   0  0  1  0  0  0  0  0  0  0  0  0
   -1.0305    0.3652   -0.3347 C   0  0  1  0  0  0  0  0  0  0  0  0
   -2.4970    0.1582    0.0539 C   0  0  1  0  0  0  0  0  0  0  0  0
   -0.2125    1.3723    0.5083 C   0  0  1  0  0  0  0  0  0  0  0  0
    1.1125    0.6864    0.6275 C   0  0  0  0  0  0  0  0  0  0  0  0
   -0.9305   -2.1032   -0.9087 C   0  0  0  0  0  0  0  0  0  0  0  0
    1.6696   -1.6128    1.4016 C   0  0  0  0  0  0  0  0  0  0  0  0
    1.9739   -0.9494   -1.0167 C   0  0  2  0  0  0  0  0  0  0  0  0
   -3.1809   -0.8435   -0.9168 C   0  0  2  0  0  0  0  0  0  0  0  0
   -2.4647   -2.2090   -0.9854 C   0  0  0  0  0  0  0  0  0  0  0  0
    3.4349    0.0971    0.7859 C   0  0  2  0  0  0  0  0  0  0  0  0
    3.0868   -1.0750    1.7281 C   0  0  0  0  0  0  0  0  0  0  0  0
   -2.3233   -0.5612    1.3785 C   0  0  0  0  0  0  0  0  0  0  0  0
    2.3414    1.1435    0.9209 C   0  0  0  0  0  0  0  0  0  0  0  0
    3.3751   -0.4813   -0.6248 C   0  0  0  0  0  0  0  0  0  0  0  0
   -3.2778    1.4600    0.1830 C   0  0  0  0  0  0  0  0  0  0  0  0
   -0.0514    2.6780   -0.2065 C   0  0  0  0  0  0  0  0  0  0  0  0
    4.4419   -0.5803   -1.4293 C   0  0  0  0  0  0  0  0  0  0  0  0
   -0.9240    0.5708   -1.4070 H   0  0  0  0  0  0  0  0  0  0  0  0
   -0.6354    1.5211    1.5077 H   0  0  0  0  0  0  0  0  0  0  0  0
   -0.5323   -3.0733   -0.5881 H   0  0  0  0  0  0  0  0  0  0  0  0
   -0.5529   -1.9195   -1.9179 H   0  0  0  0  0  0  0  0  0  0  0  0
    1.7234   -2.6748    1.1329 H   0  0  0  0  0  0  0  0  0  0  0  0
    1.0667   -1.5517    2.3156 H   0  0  0  0  0  0  0  0  0  0  0  0
    2.0143   -1.9990   -1.3334 H   0  0  0  0  0  0  0  0  0  0  0  0
   -4.2124   -1.0329   -0.5924 H   0  0  0  0  0  0  0  0  0  0  0  0
   -2.7445   -2.7467   -1.8990 H   0  0  0  0  0  0  0  0  0  0  0  0
   -2.8042   -2.8246   -0.1423 H   0  0  0  0  0  0  0  0  0  0  0  0
    4.4147    0.5211    1.0270 H   0  0  0  0  0  0  0  0  0  0  0  0
    3.1199   -0.7432    2.7738 H   0  0  0  0  0  0  0  0  0  0  0  0
    3.8209   -1.8850    1.6329 H   0  0  0  0  0  0  0  0  0  0  0  0
    2.5564    2.1710    1.1817 H   0  0  0  0  0  0  0  0  0  0  0  0
   -4.3407    1.2619    0.3614 H   0  0  0  0  0  0  0  0  0  0  0  0
   -2.9284    2.0618    1.0286 H   0  0  0  0  0  0  0  0  0  0  0  0
   -3.1945    2.0700   -0.7223 H   0  0  0  0  0  0  0  0  0  0  0  0
    0.8655   -0.6563   -2.6037 H   0  0  0  0  0  0  0  0  0  0  0  0
   -3.8718    0.4730   -2.1896 H   0  0  0  0  0  0  0  0  0  0  0  0
    4.3550   -1.0051   -2.4235 H   0  0  0  0  0  0  0  0  0  0  0  0
    5.4207   -0.2405   -1.1088 H   0  0  0  0  0  0  0  0  0  0  0  0
   -0.3816    4.5696    0.1175 H   0  0  0  0  0  0  0  0  0  0  0  0
  1  7  1  0  0  0  0
  1 20  1  0  0  0  0
  2 15  1  0  0  0  0
  2 43  1  0  0  0  0
  3 16  1  0  0  0  0
  3 44  1  0  0  0  0
  4 20  2  0  0  0  0
  5 24  1  0  0  0  0
  5 47  1  0  0  0  0
  6 24  2  0  0  0  0
  7  8  1  0  0  0  0
  7  9  1  0  0  0  0
  7 13  1  0  0  0  0
  8 12  1  0  0  0  0
  8 14  1  0  0  0  0
  8 15  1  0  0  0  0
  9 10  1  0  0  0  0
  9 11  1  0  0  0  0
  9 26  1  0  0  0  0
 10 16  1  0  0  0  0
 10 20  1  0  0  0  0
 10 23  1  0  0  0  0
 11 12  1  0  0  0  0
 11 24  1  0  0  0  0
 11 27  1  0  0  0  0
 12 21  2  0  0  0  0
 13 17  1  0  0  0  0
 13 28  1  0  0  0  0
 13 29  1  0  0  0  0
 14 19  1  0  0  0  0
 14 30  1  0  0  0  0
 14 31  1  0  0  0  0
 15 22  1  0  0  0  0
 15 32  1  0  0  0  0
 16 17  1  0  0  0  0
 16 33  1  0  0  0  0
 17 34  1  0  0  0  0
 17 35  1  0  0  0  0
 18 19  1  0  0  0  0
 18 21  1  0  0  0  0
 18 22  1  0  0  0  0
 18 36  1  0  0  0  0
 19 37  1  0  0  0  0
 19 38  1  0  0  0  0
 21 39  1  0  0  0  0
 22 25  2  0  0  0  0
 23 40  1  0  0  0  0
 23 41  1  0  0  0  0
 23 42  1  0  0  0  0
 25 45  1  0  0  0  0
 25 46  1  0  0  0  0
M  END
> <PUBCHEM_COMPOUND_CID>
13888890

> <PUBCHEM_CONFORMER_RMSD>
0.6

> <PUBCHEM_CONFORMER_DIVERSEORDER>
1

> <PUBCHEM_MMFF94_PARTIAL_CHARGES>
25
1 -0.43
10 0.06
11 0.2
12 -0.28
15 0.42
16 0.28
18 0.28
2 -0.68
20 0.66
21 -0.29
22 -0.28
24 0.66
25 -0.3
3 -0.68
39 0.15
4 -0.57
43 0.4
44 0.4
45 0.15
46 0.15
47 0.5
5 -0.65
6 -0.57
7 0.28
8 0.14

> <PUBCHEM_EFFECTIVE_ROTOR_COUNT>
2.6

> <PUBCHEM_PHARMACOPHORE_FEATURES>
11
1 2 acceptor
1 2 donor
1 3 acceptor
1 3 donor
1 4 acceptor
1 5 acceptor
1 6 acceptor
3 5 6 24 anion
5 7 8 9 11 12 rings
8 1 7 9 10 13 16 17 20 rings
8 8 12 14 15 18 19 21 22 rings

> <PUBCHEM_HEAVY_ATOM_COUNT>
25

> <PUBCHEM_ATOM_DEF_STEREO_COUNT>
8

> <PUBCHEM_ATOM_UDEF_STEREO_COUNT>
0

> <PUBCHEM_BOND_DEF_STEREO_COUNT>
0

> <PUBCHEM_BOND_UDEF_STEREO_COUNT>
0

> <PUBCHEM_ISOTOPIC_ATOM_COUNT>
0

> <PUBCHEM_COMPONENT_COUNT>
1

> <PUBCHEM_CACTVS_TAUTO_COUNT>
1

> <PUBCHEM_CONFORMER_ID>
00D3ED7A00000001

> <PUBCHEM_MMFF94_ENERGY>
92.1305

> <PUBCHEM_FEATURE_SELFOVERLAP>
56.046

> <PUBCHEM_SHAPE_FINGERPRINT>
104564 63 18267016348387364776
10863032 1 18264228931770855522
11578080 2 17485690080218887716
12160290 23 18124036998862709120
12553582 1 18410856568430385826
12633257 1 17385997446785390322
12788726 201 18195243545099390168
13132413 78 18271526403461422348
13140716 1 18411427193474430776
13172582 1 18334286561449920035
13224815 77 18272934903642043066
133893 2 18051696542552229317
13681431 1 18268146453141277108
14181834 199 18123482574271397948
14787075 74 17627487373239349906
14955137 171 18118655825799629793
1601671 61 18192413385332120681
16752209 62 18266749167224988162
16945 1 18259988205764464898
17357779 13 18261126170081675836
17980427 23 17532669944103897465
1813 80 18263064583438000972
18981168 100 16199034877340366101
19868273 325 18410296899647154278
20600515 1 18188793659455548994
20691752 17 18260826012124042174
20905425 154 17830739755149190173
21033648 29 17532082959808627729
21524375 3 17476365375063593209
2334 1 18267029345042558200
23402539 116 18410289238048075198
23419403 2 15243604301108394628
23493267 7 18129644422195948834
23559900 14 16588031212269791026
238 59 17622744019657445071
2748010 2 18337681806069647536
34934 24 18341617035484332712
6992083 37 18186795855565448963
7364860 26 17829899732523781985
81228 2 18269557315480194056

> <PUBCHEM_SHAPE_MULTIPOLES>
479.27
5.96
2.62
1.82
1.75
2.27
0.04
-1.66
-0.61
-0.91
-0.36
-0.04
-0.49
-0.25

> <PUBCHEM_SHAPE_SELFOVERLAP>
1085.201

> <PUBCHEM_SHAPE_VOLUME>
251.4

> <PUBCHEM_COORDINATE_TYPE>
2
5
10

$$$$

