9454
  -OEChem-06261203432D

 38 39  0     0  0  0  0  0  0999 V2000
    2.0000   -1.9958    0.0000 Cl  0  0  0  0  0  0  0  0  0  0  0  0
   11.5942   -0.4549    0.0000 Cl  0  0  0  0  0  0  0  0  0  0  0  0
    8.1168    2.9958    0.0000 Cl  0  0  0  0  0  0  0  0  0  0  0  0
    8.1301   -0.4683    0.0000 P   0  0  0  0  0  0  0  0  0  0  0  0
    7.2622    0.0284    0.0000 O   0  0  0  0  0  0  0  0  0  0  0  0
    3.7320    0.0042    0.0000 O   0  0  0  0  0  0  0  0  0  0  0  0
    8.9981   -0.9650    0.0000 O   0  0  0  0  0  0  0  0  0  0  0  0
    8.6268    0.3997    0.0000 O   0  0  0  0  0  0  0  0  0  0  0  0
    7.6335   -1.3362    0.0000 O   0  0  0  0  0  0  0  0  0  0  0  0
    2.0000    0.0042    0.0000 O   0  0  0  0  0  0  0  0  0  0  0  0
    4.5981   -1.4958    0.0000 C   0  0  0  0  0  0  0  0  0  0  0  0
    4.5981   -0.4958    0.0000 C   0  0  0  0  0  0  0  0  0  0  0  0
    3.7320   -1.9958    0.0000 C   0  0  0  0  0  0  0  0  0  0  0  0
    6.3981   -0.4750    0.0000 C   0  0  0  0  0  0  0  0  0  0  0  0
    5.4920    0.0389    0.0000 C   0  0  0  0  0  0  0  0  0  0  0  0
    5.4920   -2.0304    0.0000 C   0  0  0  0  0  0  0  0  0  0  0  0
    6.3981   -1.5166    0.0000 C   0  0  0  0  0  0  0  0  0  0  0  0
    2.8660   -1.4958    0.0000 C   0  0  0  0  0  0  0  0  0  0  0  0
    3.7320   -2.9958    0.0000 C   0  0  0  0  0  0  0  0  0  0  0  0
    2.8660   -0.4958    0.0000 C   0  0  0  0  0  0  0  0  0  0  0  0
    8.1234    1.2638    0.0000 C   0  0  0  0  0  0  0  0  0  0  0  0
    9.8622   -0.4616    0.0000 C   0  0  0  0  0  0  0  0  0  0  0  0
    8.6201    2.1317    0.0000 C   0  0  0  0  0  0  0  0  0  0  0  0
   10.7301   -0.9583    0.0000 C   0  0  0  0  0  0  0  0  0  0  0  0
    5.4848    0.6588    0.0000 H   0  0  0  0  0  0  0  0  0  0  0  0
    5.4848   -2.6504    0.0000 H   0  0  0  0  0  0  0  0  0  0  0  0
    6.9338   -1.8287    0.0000 H   0  0  0  0  0  0  0  0  0  0  0  0
    3.1120   -2.9958    0.0000 H   0  0  0  0  0  0  0  0  0  0  0  0
    3.7320   -3.6158    0.0000 H   0  0  0  0  0  0  0  0  0  0  0  0
    4.3520   -2.9958    0.0000 H   0  0  0  0  0  0  0  0  0  0  0  0
    7.6470    1.6604    0.0000 H   0  0  0  0  0  0  0  0  0  0  0  0
    7.6500    0.8634    0.0000 H   0  0  0  0  0  0  0  0  0  0  0  0
   10.2589    0.0149    0.0000 H   0  0  0  0  0  0  0  0  0  0  0  0
    9.4618    0.0118    0.0000 H   0  0  0  0  0  0  0  0  0  0  0  0
   10.3334   -1.4348    0.0000 H   0  0  0  0  0  0  0  0  0  0  0  0
   11.1305   -1.4317    0.0000 H   0  0  0  0  0  0  0  0  0  0  0  0
    9.0966    1.7350    0.0000 H   0  0  0  0  0  0  0  0  0  0  0  0
    9.0935    2.5320    0.0000 H   0  0  0  0  0  0  0  0  0  0  0  0
  1 18  1  0  0  0  0
  2 24  1  0  0  0  0
  3 23  1  0  0  0  0
  4  5  1  0  0  0  0
  4  7  1  0  0  0  0
  4  8  1  0  0  0  0
  4  9  2  0  0  0  0
  5 14  1  0  0  0  0
  6 12  1  0  0  0  0
  6 20  1  0  0  0  0
  7 22  1  0  0  0  0
  8 21  1  0  0  0  0
 10 20  2  0  0  0  0
 11 12  2  0  0  0  0
 11 13  1  0  0  0  0
 11 16  1  0  0  0  0
 12 15  1  0  0  0  0
 13 18  2  0  0  0  0
 13 19  1  0  0  0  0
 14 15  2  0  0  0  0
 14 17  1  0  0  0  0
 15 25  1  0  0  0  0
 16 17  2  0  0  0  0
 16 26  1  0  0  0  0
 17 27  1  0  0  0  0
 18 20  1  0  0  0  0
 19 28  1  0  0  0  0
 19 29  1  0  0  0  0
 19 30  1  0  0  0  0
 21 23  1  0  0  0  0
 21 31  1  0  0  0  0
 21 32  1  0  0  0  0
 22 24  1  0  0  0  0
 22 33  1  0  0  0  0
 22 34  1  0  0  0  0
 23 37  1  0  0  0  0
 23 38  1  0  0  0  0
 24 35  1  0  0  0  0
 24 36  1  0  0  0  0
M  END
> <PUBCHEM_COMPOUND_CID>
9454

> <PUBCHEM_COMPOUND_CANONICALIZED>
1

> <PUBCHEM_CACTVS_COMPLEXITY>
529

> <PUBCHEM_CACTVS_HBOND_ACCEPTOR>
6

> <PUBCHEM_CACTVS_HBOND_DONOR>
0

> <PUBCHEM_CACTVS_ROTATABLE_BOND>
8

> <PUBCHEM_CACTVS_SUBSKEYS>
AAADccBwOAIGAAAAAAAAAAAAAAAAAAAAAAAwQAAAAAAAAACBAAAAGgIAACAADAegmEIyDoAABRCIQiDSCIACCAAgIAAIiAAGCchMJyKEMRqCOiClwBUIqQeA4KwOIAAACAAIAABAAAAQABAAAAAAAAAAAA==

> <PUBCHEM_IUPAC_OPENEYE_NAME>
bis(2-chloroethyl) (3-chloro-4-methyl-2-oxo-chromen-7-yl) phosphate

> <PUBCHEM_IUPAC_CAS_NAME>
phosphoric acid bis(2-chloroethyl) (3-chloro-4-methyl-2-oxo-1-benzopyran-7-yl) ester

> <PUBCHEM_IUPAC_NAME>
bis(2-chloroethyl) (3-chloro-4-methyl-2-oxochromen-7-yl) phosphate

> <PUBCHEM_IUPAC_SYSTEMATIC_NAME>
(3-chloranyl-4-methyl-2-oxidanylidene-chromen-7-yl) bis(2-chloroethyl) phosphate

> <PUBCHEM_IUPAC_TRADITIONAL_NAME>
phosphoric acid bis(2-chloroethyl) (3-chloro-2-keto-4-methyl-chromen-7-yl) ester

> <PUBCHEM_IUPAC_INCHI>
InChI=1S/C14H14Cl3O6P/c1-9-11-3-2-10(8-12(11)22-14(18)13(9)17)23-24(19,20-6-4-15)21-7-5-16/h2-3,8H,4-7H2,1H3

> <PUBCHEM_IUPAC_INCHIKEY>
KULDXINYXFTXMO-UHFFFAOYSA-N

> <PUBCHEM_XLOGP3_AA>
3.3

> <PUBCHEM_EXACT_MASS>
413.959358

> <PUBCHEM_MOLECULAR_FORMULA>
C14H14Cl3O6P

> <PUBCHEM_MOLECULAR_WEIGHT>
415.590122

> <PUBCHEM_OPENEYE_CAN_SMILES>
CC1=C(C(=O)OC2=C1C=CC(=C2)OP(=O)(OCCCl)OCCCl)Cl

> <PUBCHEM_OPENEYE_ISO_SMILES>
CC1=C(C(=O)OC2=C1C=CC(=C2)OP(=O)(OCCCl)OCCCl)Cl

> <PUBCHEM_CACTVS_TPSA>
71.1

> <PUBCHEM_MONOISOTOPIC_WEIGHT>
413.959358

> <PUBCHEM_TOTAL_CHARGE>
0

> <PUBCHEM_HEAVY_ATOM_COUNT>
24

> <PUBCHEM_ATOM_DEF_STEREO_COUNT>
0

> <PUBCHEM_ATOM_UDEF_STEREO_COUNT>
0

> <PUBCHEM_BOND_DEF_STEREO_COUNT>
0

> <PUBCHEM_BOND_UDEF_STEREO_COUNT>
0

> <PUBCHEM_ISOTOPIC_ATOM_COUNT>
0

> <PUBCHEM_COMPONENT_COUNT>
1

> <PUBCHEM_CACTVS_TAUTO_COUNT>
1

> <PUBCHEM_COORDINATE_TYPE>
1
5
255

> <PUBCHEM_BONDANNOTATIONS>
11  12  8
11  13  8
11  16  8
12  15  8
13  18  8
14  15  8
14  17  8
16  17  8
18  20  8
6  12  8
6  20  8

$$$$

