114935
  -OEChem-07051212502D

 86 90  0     0  0  0  0  0  0999 V2000
    8.0511    6.3978    0.0000 O   0  0  0  0  0  0  0  0  0  0  0  0
    2.4934    0.9218    0.0000 O   0  0  0  0  0  0  0  0  0  0  0  0
    6.6561    5.3711    0.0000 O   0  0  0  0  0  0  0  0  0  0  0  0
    3.5422    2.3003    0.0000 O   0  0  0  0  0  0  0  0  0  0  0  0
   15.4433    0.9561    0.0000 O   0  0  0  0  0  0  0  0  0  0  0  0
    9.8523   -6.3978    0.0000 O   0  0  0  0  0  0  0  0  0  0  0  0
   14.3943    2.3343    0.0000 O   0  0  0  0  0  0  0  0  0  0  0  0
   11.2473   -5.3711    0.0000 O   0  0  0  0  0  0  0  0  0  0  0  0
    8.9349    1.3528    0.0000 N   0  0  0  0  0  0  0  0  0  0  0  0
    7.4650   -0.0167    0.0000 N   0  0  0  0  0  0  0  0  0  0  0  0
   10.4702   -0.0167    0.0000 N   0  0  0  0  0  0  0  0  0  0  0  0
    8.9684   -1.3862    0.0000 N   0  0  0  0  0  0  0  0  0  0  0  0
    8.4344    2.9550    0.0000 C   0  0  0  0  0  0  0  0  0  0  0  0
    5.9297    0.4838    0.0000 C   0  0  0  0  0  0  0  0  0  0  0  0
    8.1330    1.9873    0.0000 C   0  0  0  0  0  0  0  0  0  0  0  0
    6.8974    0.7517    0.0000 C   0  0  0  0  0  0  0  0  0  0  0  0
    9.4355    2.9550    0.0000 C   0  0  0  0  0  0  0  0  0  0  0  0
    5.9297   -0.5173    0.0000 C   0  0  0  0  0  0  0  0  0  0  0  0
    9.7704    2.0208    0.0000 C   0  0  0  0  0  0  0  0  0  0  0  0
    6.8974   -0.7852    0.0000 C   0  0  0  0  0  0  0  0  0  0  0  0
    7.1653    1.7194    0.0000 C   0  0  0  0  0  0  0  0  0  0  0  0
    7.8416    3.7604    0.0000 C   0  0  0  0  0  0  0  0  0  0  0  0
    5.1339    1.0893    0.0000 C   0  0  0  0  0  0  0  0  0  0  0  0
   12.0071    0.5173    0.0000 C   0  0  0  0  0  0  0  0  0  0  0  0
   11.0377    0.7852    0.0000 C   0  0  0  0  0  0  0  0  0  0  0  0
    9.4690   -2.9550    0.0000 C   0  0  0  0  0  0  0  0  0  0  0  0
   10.7381    1.7194    0.0000 C   0  0  0  0  0  0  0  0  0  0  0  0
    8.1665   -2.0208    0.0000 C   0  0  0  0  0  0  0  0  0  0  0  0
    8.4678   -2.9550    0.0000 C   0  0  0  0  0  0  0  0  0  0  0  0
    7.1988   -1.7194    0.0000 C   0  0  0  0  0  0  0  0  0  0  0  0
   12.0071   -0.4838    0.0000 C   0  0  0  0  0  0  0  0  0  0  0  0
    9.7704   -1.9873    0.0000 C   0  0  0  0  0  0  0  0  0  0  0  0
   11.0712   -0.7517    0.0000 C   0  0  0  0  0  0  0  0  0  0  0  0
   12.8028    1.1230    0.0000 C   0  0  0  0  0  0  0  0  0  0  0  0
   10.0111    3.7727    0.0000 C   0  0  0  0  0  0  0  0  0  0  0  0
    5.0637   -1.0173    0.0000 C   0  0  0  0  0  0  0  0  0  0  0  0
   10.0618   -3.7604    0.0000 C   0  0  0  0  0  0  0  0  0  0  0  0
   10.7715   -1.7194    0.0000 C   0  0  0  0  0  0  0  0  0  0  0  0
    8.2427    4.6764    0.0000 C   0  0  0  0  0  0  0  0  0  0  0  0
    4.2116    0.7028    0.0000 C   0  0  0  0  0  0  0  0  0  0  0  0
    7.7971   -3.6967    0.0000 C   0  0  0  0  0  0  0  0  0  0  0  0
   12.8056   -1.0858    0.0000 C   0  0  0  0  0  0  0  0  0  0  0  0
   13.7252    0.7367    0.0000 C   0  0  0  0  0  0  0  0  0  0  0  0
    9.6606   -4.6764    0.0000 C   0  0  0  0  0  0  0  0  0  0  0  0
    7.6500    5.4818    0.0000 C   0  0  0  0  0  0  0  0  0  0  0  0
    3.4157    1.3083    0.0000 C   0  0  0  0  0  0  0  0  0  0  0  0
   14.5209    1.3424    0.0000 C   0  0  0  0  0  0  0  0  0  0  0  0
   10.2534   -5.4818    0.0000 C   0  0  0  0  0  0  0  0  0  0  0  0
    6.7269    2.1578    0.0000 H   0  0  0  0  0  0  0  0  0  0  0  0
    8.9365    0.7328    0.0000 H   0  0  0  0  0  0  0  0  0  0  0  0
    8.0850   -0.0167    0.0000 H   0  0  0  0  0  0  0  0  0  0  0  0
    7.3255    4.1039    0.0000 H   0  0  0  0  0  0  0  0  0  0  0  0
    7.4137    3.3117    0.0000 H   0  0  0  0  0  0  0  0  0  0  0  0
    5.5892    1.5101    0.0000 H   0  0  0  0  0  0  0  0  0  0  0  0
    4.7986    1.6108    0.0000 H   0  0  0  0  0  0  0  0  0  0  0  0
   11.1746    2.1597    0.0000 H   0  0  0  0  0  0  0  0  0  0  0  0
    6.7626   -2.1600    0.0000 H   0  0  0  0  0  0  0  0  0  0  0  0
   13.1380    1.6446    0.0000 H   0  0  0  0  0  0  0  0  0  0  0  0
   12.3473    1.5436    0.0000 H   0  0  0  0  0  0  0  0  0  0  0  0
   10.5181    3.4158    0.0000 H   0  0  0  0  0  0  0  0  0  0  0  0
   10.3680    4.2797    0.0000 H   0  0  0  0  0  0  0  0  0  0  0  0
    9.5041    4.1296    0.0000 H   0  0  0  0  0  0  0  0  0  0  0  0
    4.7537   -0.4804    0.0000 H   0  0  0  0  0  0  0  0  0  0  0  0
    4.5268   -1.3274    0.0000 H   0  0  0  0  0  0  0  0  0  0  0  0
    5.3737   -1.5543    0.0000 H   0  0  0  0  0  0  0  0  0  0  0  0
   10.5779   -4.1039    0.0000 H   0  0  0  0  0  0  0  0  0  0  0  0
   10.4897   -3.3117    0.0000 H   0  0  0  0  0  0  0  0  0  0  0  0
   11.2013   -2.1662    0.0000 H   0  0  0  0  0  0  0  0  0  0  0  0
    8.7588    4.3328    0.0000 H   0  0  0  0  0  0  0  0  0  0  0  0
    8.6706    5.1250    0.0000 H   0  0  0  0  0  0  0  0  0  0  0  0
    3.7562    0.2821    0.0000 H   0  0  0  0  0  0  0  0  0  0  0  0
    4.5469    0.1813    0.0000 H   0  0  0  0  0  0  0  0  0  0  0  0
    7.3372   -3.2808    0.0000 H   0  0  0  0  0  0  0  0  0  0  0  0
    7.3813   -4.1565    0.0000 H   0  0  0  0  0  0  0  0  0  0  0  0
    8.2570   -4.1125    0.0000 H   0  0  0  0  0  0  0  0  0  0  0  0
   12.4323   -1.5809    0.0000 H   0  0  0  0  0  0  0  0  0  0  0  0
   13.3007   -1.4591    0.0000 H   0  0  0  0  0  0  0  0  0  0  0  0
   13.1788   -0.5908    0.0000 H   0  0  0  0  0  0  0  0  0  0  0  0
   13.3900    0.2151    0.0000 H   0  0  0  0  0  0  0  0  0  0  0  0
   14.1807    0.3161    0.0000 H   0  0  0  0  0  0  0  0  0  0  0  0
    9.1445   -4.3328    0.0000 H   0  0  0  0  0  0  0  0  0  0  0  0
    9.2327   -5.1250    0.0000 H   0  0  0  0  0  0  0  0  0  0  0  0
    7.6836    6.8971    0.0000 H   0  0  0  0  0  0  0  0  0  0  0  0
    2.0000    1.2972    0.0000 H   0  0  0  0  0  0  0  0  0  0  0  0
   15.9366    1.3316    0.0000 H   0  0  0  0  0  0  0  0  0  0  0  0
   10.2198   -6.8971    0.0000 H   0  0  0  0  0  0  0  0  0  0  0  0
  1 45  1  0  0  0  0
  1 83  1  0  0  0  0
  2 46  1  0  0  0  0
  2 84  1  0  0  0  0
  3 45  2  0  0  0  0
  4 46  2  0  0  0  0
  5 47  1  0  0  0  0
  5 85  1  0  0  0  0
  6 48  1  0  0  0  0
  6 86  1  0  0  0  0
  7 47  2  0  0  0  0
  8 48  2  0  0  0  0
  9 15  1  0  0  0  0
  9 19  1  0  0  0  0
  9 50  1  0  0  0  0
 10 16  1  0  0  0  0
 10 20  1  0  0  0  0
 10 51  1  0  0  0  0
 11 25  1  0  0  0  0
 11 33  2  0  0  0  0
 12 28  2  0  0  0  0
 12 32  1  0  0  0  0
 13 15  2  0  0  0  0
 13 17  1  0  0  0  0
 13 22  1  0  0  0  0
 14 16  1  0  0  0  0
 14 18  2  0  0  0  0
 14 23  1  0  0  0  0
 15 21  1  0  0  0  0
 16 21  2  0  0  0  0
 17 19  2  0  0  0  0
 17 35  1  0  0  0  0
 18 20  1  0  0  0  0
 18 36  1  0  0  0  0
 19 27  1  0  0  0  0
 20 30  2  0  0  0  0
 21 49  1  0  0  0  0
 22 39  1  0  0  0  0
 22 52  1  0  0  0  0
 22 53  1  0  0  0  0
 23 40  1  0  0  0  0
 23 54  1  0  0  0  0
 23 55  1  0  0  0  0
 24 25  1  0  0  0  0
 24 31  2  0  0  0  0
 24 34  1  0  0  0  0
 25 27  2  0  0  0  0
 26 29  2  0  0  0  0
 26 32  1  0  0  0  0
 26 37  1  0  0  0  0
 27 56  1  0  0  0  0
 28 29  1  0  0  0  0
 28 30  1  0  0  0  0
 29 41  1  0  0  0  0
 30 57  1  0  0  0  0
 31 33  1  0  0  0  0
 31 42  1  0  0  0  0
 32 38  2  0  0  0  0
 33 38  1  0  0  0  0
 34 43  1  0  0  0  0
 34 58  1  0  0  0  0
 34 59  1  0  0  0  0
 35 60  1  0  0  0  0
 35 61  1  0  0  0  0
 35 62  1  0  0  0  0
 36 63  1  0  0  0  0
 36 64  1  0  0  0  0
 36 65  1  0  0  0  0
 37 44  1  0  0  0  0
 37 66  1  0  0  0  0
 37 67  1  0  0  0  0
 38 68  1  0  0  0  0
 39 45  1  0  0  0  0
 39 69  1  0  0  0  0
 39 70  1  0  0  0  0
 40 46  1  0  0  0  0
 40 71  1  0  0  0  0
 40 72  1  0  0  0  0
 41 73  1  0  0  0  0
 41 74  1  0  0  0  0
 41 75  1  0  0  0  0
 42 76  1  0  0  0  0
 42 77  1  0  0  0  0
 42 78  1  0  0  0  0
 43 47  1  0  0  0  0
 43 79  1  0  0  0  0
 43 80  1  0  0  0  0
 44 48  1  0  0  0  0
 44 81  1  0  0  0  0
 44 82  1  0  0  0  0
M  END
> <PUBCHEM_COMPOUND_CID>
114935

> <PUBCHEM_COMPOUND_CANONICALIZED>
1

> <PUBCHEM_CACTVS_COMPLEXITY>
1170

> <PUBCHEM_CACTVS_HBOND_ACCEPTOR>
10

> <PUBCHEM_CACTVS_HBOND_DONOR>
6

> <PUBCHEM_CACTVS_ROTATABLE_BOND>
12

> <PUBCHEM_CACTVS_SUBSKEYS>
AAADcfB/vAAAAAAAAAAAAAAAAAAAAWLFiwAAAAAAAAAAAAAB/gAAHgAQCAAADAiBngAyyLLJkgCoAyTyTACCgCAhAiAAmSEwZJgIIHLA0NGEZAhkkADIyAeY2fOegAAAAAAAAAAAAAAAAAAAAAAAAAAAAA==

> <PUBCHEM_IUPAC_OPENEYE_NAME>
3-[8,13,18-tris(2-carboxyethyl)-3,7,12,17-tetramethyl-21,24-dihydroporphyrin-2-yl]propanoic acid

> <PUBCHEM_IUPAC_CAS_NAME>
3-[8,13,18-tris(2-carboxyethyl)-3,7,12,17-tetramethyl-21,24-dihydroporphyrin-2-yl]propanoic acid

> <PUBCHEM_IUPAC_NAME>
3-[8,13,18-tris(2-carboxyethyl)-3,7,12,17-tetramethyl-21,24-dihydroporphyrin-2-yl]propanoic acid

> <PUBCHEM_IUPAC_SYSTEMATIC_NAME>
3-[8,13,18-tris(3-hydroxy-3-oxopropyl)-3,7,12,17-tetramethyl-21,24-dihydroporphyrin-2-yl]propanoic acid

> <PUBCHEM_IUPAC_TRADITIONAL_NAME>
3-[8,13,18-tris(2-carboxyethyl)-3,7,12,17-tetramethyl-21,24-dihydroporphin-2-yl]propionic acid

> <PUBCHEM_IUPAC_INCHI>
InChI=1S/C36H38N4O8/c1-17-21(5-9-33(41)42)29-14-27-19(3)22(6-10-34(43)44)30(39-27)15-28-20(4)24(8-12-36(47)48)32(40-28)16-31-23(7-11-35(45)46)18(2)26(38-31)13-25(17)37-29/h13-16,38,40H,5-12H2,1-4H3,(H,41,42)(H,43,44)(H,45,46)(H,47,48)

> <PUBCHEM_IUPAC_INCHIKEY>
XNBNKCLBGTWWSD-UHFFFAOYSA-N

> <PUBCHEM_XLOGP3_AA>
2.6

> <PUBCHEM_EXACT_MASS>
654.268964

> <PUBCHEM_MOLECULAR_FORMULA>
C36H38N4O8

> <PUBCHEM_MOLECULAR_WEIGHT>
654.70892

> <PUBCHEM_OPENEYE_CAN_SMILES>
CC1=C(C2=CC3=C(C(=C(N3)C=C4C(=C(C(=N4)C=C5C(=C(C(=N5)C=C1N2)C)CCC(=O)O)C)CCC(=O)O)C)CCC(=O)O)CCC(=O)O

> <PUBCHEM_OPENEYE_ISO_SMILES>
CC1=C(C2=CC3=C(C(=C(N3)C=C4C(=C(C(=N4)C=C5C(=C(C(=N5)C=C1N2)C)CCC(=O)O)C)CCC(=O)O)C)CCC(=O)O)CCC(=O)O

> <PUBCHEM_CACTVS_TPSA>
207

> <PUBCHEM_MONOISOTOPIC_WEIGHT>
654.268964

> <PUBCHEM_TOTAL_CHARGE>
0

> <PUBCHEM_HEAVY_ATOM_COUNT>
48

> <PUBCHEM_ATOM_DEF_STEREO_COUNT>
0

> <PUBCHEM_ATOM_UDEF_STEREO_COUNT>
0

> <PUBCHEM_BOND_DEF_STEREO_COUNT>
0

> <PUBCHEM_BOND_UDEF_STEREO_COUNT>
0

> <PUBCHEM_ISOTOPIC_ATOM_COUNT>
0

> <PUBCHEM_COMPONENT_COUNT>
1

> <PUBCHEM_CACTVS_TAUTO_COUNT>
6

> <PUBCHEM_COORDINATE_TYPE>
1
5
255

> <PUBCHEM_BONDANNOTATIONS>
10  16  8
10  20  8
11  25  8
11  33  8
12  28  8
12  32  8
13  15  8
13  17  8
14  16  8
14  18  8
15  21  8
16  21  8
17  19  8
18  20  8
19  27  8
20  30  8
25  27  8
28  30  8
32  38  8
33  38  8
9  15  8
9  19  8

$$$$

