442906
  -OEChem-07051213002D

 49 52  0     1  0  0  0  0  0999 V2000
    4.2755   -1.0085    0.0000 O   0  0  0  0  0  0  0  0  0  0  0  0
    6.0075   -1.0019    0.0000 O   0  0  0  0  0  0  0  0  0  0  0  0
    4.2639    1.9914    0.0000 O   0  0  0  0  0  0  0  0  0  0  0  0
    2.5357    0.9848    0.0000 O   0  0  0  0  0  0  0  0  0  0  0  0
    5.9998    0.9981    0.0000 O   0  0  0  0  0  0  0  0  0  0  0  0
    7.7892   -2.0123    0.0000 O   0  0  0  0  0  0  0  0  0  0  0  0
    9.5376    2.0223    0.0000 O   0  0  0  0  0  0  0  0  0  0  0  0
   11.3499   -0.7824    0.0000 O   0  0  0  0  0  0  0  0  0  0  0  0
    9.5376   -0.9777    0.0000 N   0  0  0  0  0  0  0  0  0  0  0  0
    4.2678    0.9914    0.0000 C   0  0  2  0  0  0  0  0  0  0  0  0
    3.4037    0.4881    0.0000 C   0  0  2  0  0  0  0  0  0  0  0  0
    5.1357    0.4948    0.0000 C   0  0  2  0  0  0  0  0  0  0  0  0
    3.4075   -0.5119    0.0000 C   0  0  2  0  0  0  0  0  0  0  0  0
    5.1396   -0.5052    0.0000 C   0  0  1  0  0  0  0  0  0  0  0  0
    2.5434   -1.0152    0.0000 C   0  0  0  0  0  0  0  0  0  0  0  0
    6.8716   -0.4985    0.0000 C   0  0  0  0  0  0  0  0  0  0  0  0
    7.7777   -1.0124    0.0000 C   0  0  0  0  0  0  0  0  0  0  0  0
    8.6716   -0.4777    0.0000 C   0  0  0  0  0  0  0  0  0  0  0  0
    6.8716    0.5431    0.0000 C   0  0  0  0  0  0  0  0  0  0  0  0
    8.6716    0.5223    0.0000 C   0  0  0  0  0  0  0  0  0  0  0  0
    7.7777    1.0570    0.0000 C   0  0  0  0  0  0  0  0  0  0  0  0
    9.5376    1.0223    0.0000 C   0  0  0  0  0  0  0  0  0  0  0  0
   10.4037    0.5223    0.0000 C   0  0  0  0  0  0  0  0  0  0  0  0
   10.4037   -0.4777    0.0000 C   0  0  0  0  0  0  0  0  0  0  0  0
   11.3499    0.8270    0.0000 C   0  0  0  0  0  0  0  0  0  0  0  0
   11.9335    0.0223    0.0000 C   0  0  0  0  0  0  0  0  0  0  0  0
    6.9291   -2.5223    0.0000 C   0  0  0  0  0  0  0  0  0  0  0  0
   10.4037    2.5223    0.0000 C   0  0  0  0  0  0  0  0  0  0  0  0
    3.7296    1.2994    0.0000 H   0  0  0  0  0  0  0  0  0  0  0  0
    2.8680    0.1760    0.0000 H   0  0  0  0  0  0  0  0  0  0  0  0
    5.6738    0.1869    0.0000 H   0  0  0  0  0  0  0  0  0  0  0  0
    3.4099   -1.1319    0.0000 H   0  0  0  0  0  0  0  0  0  0  0  0
    5.1420   -1.1252    0.0000 H   0  0  0  0  0  0  0  0  0  0  0  0
    2.2314   -0.4795    0.0000 H   0  0  0  0  0  0  0  0  0  0  0  0
    2.0077   -1.3273    0.0000 H   0  0  0  0  0  0  0  0  0  0  0  0
    2.8555   -1.5510    0.0000 H   0  0  0  0  0  0  0  0  0  0  0  0
    3.7258    2.2994    0.0000 H   0  0  0  0  0  0  0  0  0  0  0  0
    2.0000    0.6727    0.0000 H   0  0  0  0  0  0  0  0  0  0  0  0
    5.9974    1.6181    0.0000 H   0  0  0  0  0  0  0  0  0  0  0  0
    6.3359    0.8552    0.0000 H   0  0  0  0  0  0  0  0  0  0  0  0
    7.7848    1.6769    0.0000 H   0  0  0  0  0  0  0  0  0  0  0  0
   11.5425    1.4163    0.0000 H   0  0  0  0  0  0  0  0  0  0  0  0
   12.5535    0.0223    0.0000 H   0  0  0  0  0  0  0  0  0  0  0  0
    6.6129   -1.9890    0.0000 H   0  0  0  0  0  0  0  0  0  0  0  0
    6.3957   -2.8385    0.0000 H   0  0  0  0  0  0  0  0  0  0  0  0
    7.2452   -3.0556    0.0000 H   0  0  0  0  0  0  0  0  0  0  0  0
   10.7137    1.9854    0.0000 H   0  0  0  0  0  0  0  0  0  0  0  0
   10.9406    2.8323    0.0000 H   0  0  0  0  0  0  0  0  0  0  0  0
   10.0937    3.0592    0.0000 H   0  0  0  0  0  0  0  0  0  0  0  0
  1 13  1  0  0  0  0
  1 14  1  0  0  0  0
 14  2  1  6  0  0  0
  2 16  1  0  0  0  0
 10  3  1  1  0  0  0
  3 37  1  0  0  0  0
 11  4  1  6  0  0  0
  4 38  1  0  0  0  0
 12  5  1  1  0  0  0
  5 39  1  0  0  0  0
  6 17  1  0  0  0  0
  6 27  1  0  0  0  0
  7 22  1  0  0  0  0
  7 28  1  0  0  0  0
  8 24  1  0  0  0  0
  8 26  1  0  0  0  0
  9 18  1  0  0  0  0
  9 24  2  0  0  0  0
 10 11  1  0  0  0  0
 10 12  1  0  0  0  0
 10 29  1  0  0  0  0
 11 13  1  0  0  0  0
 11 30  1  0  0  0  0
 12 14  1  0  0  0  0
 12 31  1  0  0  0  0
 13 15  1  1  0  0  0
 13 32  1  0  0  0  0
 14 33  1  0  0  0  0
 15 34  1  0  0  0  0
 15 35  1  0  0  0  0
 15 36  1  0  0  0  0
 16 17  2  0  0  0  0
 16 19  1  0  0  0  0
 17 18  1  0  0  0  0
 18 20  2  0  0  0  0
 19 21  2  0  0  0  0
 19 40  1  0  0  0  0
 20 21  1  0  0  0  0
 20 22  1  0  0  0  0
 21 41  1  0  0  0  0
 22 23  2  0  0  0  0
 23 24  1  0  0  0  0
 23 25  1  0  0  0  0
 25 26  2  0  0  0  0
 25 42  1  0  0  0  0
 26 43  1  0  0  0  0
 27 44  1  0  0  0  0
 27 45  1  0  0  0  0
 27 46  1  0  0  0  0
 28 47  1  0  0  0  0
 28 48  1  0  0  0  0
 28 49  1  0  0  0  0
M  END
> <PUBCHEM_COMPOUND_CID>
442906

> <PUBCHEM_COMPOUND_CANONICALIZED>
1

> <PUBCHEM_CACTVS_COMPLEXITY>
538

> <PUBCHEM_CACTVS_HBOND_ACCEPTOR>
9

> <PUBCHEM_CACTVS_HBOND_DONOR>
3

> <PUBCHEM_CACTVS_ROTATABLE_BOND>
4

> <PUBCHEM_CACTVS_SUBSKEYS>
AAADceB6PAAAAAAAAAAAAAAAAAAAASAAAAA8SIAAAAAAAFix/gAAHgAACAAADByxngMyzvIIFkCoAy1y1ASCiCAtYCAImCEnzNgfN/bEtJuveWrn5B3f6Yf++f+eIAABAgACUABAAAIEAASgAAAAAAAAAA==

> <PUBCHEM_IUPAC_OPENEYE_NAME>
(2S,3R,4R,5R,6S)-2-(4,8-dimethoxyfuro[2,3-b]quinolin-7-yl)oxy-6-methyl-tetrahydropyran-3,4,5-triol

> <PUBCHEM_IUPAC_CAS_NAME>
(2S,3R,4R,5R,6S)-2-[(4,8-dimethoxy-7-furo[2,3-b]quinolinyl)oxy]-6-methyloxane-3,4,5-triol

> <PUBCHEM_IUPAC_NAME>
(2S,3R,4R,5R,6S)-2-(4,8-dimethoxyfuro[2,3-b]quinolin-7-yl)oxy-6-methyloxane-3,4,5-triol

> <PUBCHEM_IUPAC_SYSTEMATIC_NAME>
(2S,3R,4R,5R,6S)-2-(4,8-dimethoxyfuro[2,3-b]quinolin-7-yl)oxy-6-methyl-oxane-3,4,5-triol

> <PUBCHEM_IUPAC_TRADITIONAL_NAME>
(2S,3R,4R,5R,6S)-2-(4,8-dimethoxyfuro[2,3-b]quinolin-7-yl)oxy-6-methyl-tetrahydropyran-3,4,5-triol

> <PUBCHEM_IUPAC_INCHI>
InChI=1S/C19H21NO8/c1-8-13(21)14(22)15(23)19(27-8)28-11-5-4-9-12(17(11)25-3)20-18-10(6-7-26-18)16(9)24-2/h4-8,13-15,19,21-23H,1-3H3/t8-,13-,14+,15+,19-/m0/s1

> <PUBCHEM_IUPAC_INCHIKEY>
KJOKSAQCWDHTOL-QTOAMZBASA-N

> <PUBCHEM_XLOGP3_AA>
1.2

> <PUBCHEM_EXACT_MASS>
391.126717

> <PUBCHEM_MOLECULAR_FORMULA>
C19H21NO8

> <PUBCHEM_MOLECULAR_WEIGHT>
391.37194

> <PUBCHEM_OPENEYE_CAN_SMILES>
CC1C(C(C(C(O1)OC2=C(C3=C(C=C2)C(=C4C=COC4=N3)OC)OC)O)O)O

> <PUBCHEM_OPENEYE_ISO_SMILES>
C[C@H]1[C@@H]([C@H]([C@H]([C@@H](O1)OC2=C(C3=C(C=C2)C(=C4C=COC4=N3)OC)OC)O)O)O

> <PUBCHEM_CACTVS_TPSA>
124

> <PUBCHEM_MONOISOTOPIC_WEIGHT>
391.126717

> <PUBCHEM_TOTAL_CHARGE>
0

> <PUBCHEM_HEAVY_ATOM_COUNT>
28

> <PUBCHEM_ATOM_DEF_STEREO_COUNT>
5

> <PUBCHEM_ATOM_UDEF_STEREO_COUNT>
0

> <PUBCHEM_BOND_DEF_STEREO_COUNT>
0

> <PUBCHEM_BOND_UDEF_STEREO_COUNT>
0

> <PUBCHEM_ISOTOPIC_ATOM_COUNT>
0

> <PUBCHEM_COMPONENT_COUNT>
1

> <PUBCHEM_CACTVS_TAUTO_COUNT>
1

> <PUBCHEM_COORDINATE_TYPE>
1
5
255

> <PUBCHEM_BONDANNOTATIONS>
13  15  5
16  17  8
16  19  8
17  18  8
18  20  8
19  21  8
14  2  6
20  21  8
20  22  8
22  23  8
23  24  8
23  25  8
25  26  8
10  3  5
11  4  6
12  5  5
8  24  8
8  26  8
9  18  8
9  24  8

$$$$

