4386
  -OEChem-07051213043D

 27 28  0     0  0  0  0  0  0999 V2000
   -3.4726   -2.0781    0.1186 O   0  0  0  0  0  0  0  0  0  0  0  0
   -1.3752   -2.4456   -0.6496 O   0  0  0  0  0  0  0  0  0  0  0  0
    0.3262   -0.4918    0.4033 N   0  0  0  0  0  0  0  0  0  0  0  0
   -0.8161    0.3264    0.2553 C   0  0  0  0  0  0  0  0  0  0  0  0
   -2.0587   -0.2273   -0.0534 C   0  0  0  0  0  0  0  0  0  0  0  0
    1.6954   -0.2647    0.1741 C   0  0  0  0  0  0  0  0  0  0  0  0
   -0.6893    1.7055    0.4225 C   0  0  0  0  0  0  0  0  0  0  0  0
   -3.1742    0.5981   -0.1947 C   0  0  0  0  0  0  0  0  0  0  0  0
    2.6549   -0.9366    0.9350 C   0  0  0  0  0  0  0  0  0  0  0  0
    2.1008    0.6340   -0.8153 C   0  0  0  0  0  0  0  0  0  0  0  0
   -1.8048    2.5308    0.2812 C   0  0  0  0  0  0  0  0  0  0  0  0
   -3.0472    1.9771   -0.0274 C   0  0  0  0  0  0  0  0  0  0  0  0
    4.0125   -0.7108    0.7080 C   0  0  0  0  0  0  0  0  0  0  0  0
    3.4585    0.8597   -1.0424 C   0  0  0  0  0  0  0  0  0  0  0  0
   -2.2246   -1.6640   -0.2343 C   0  0  0  0  0  0  0  0  0  0  0  0
    4.4143    0.1872   -0.2807 C   0  0  0  0  0  0  0  0  0  0  0  0
    0.1247   -1.4128    0.7819 H   0  0  0  0  0  0  0  0  0  0  0  0
    0.2593    2.1643    0.6872 H   0  0  0  0  0  0  0  0  0  0  0  0
   -4.1537    0.2010   -0.4484 H   0  0  0  0  0  0  0  0  0  0  0  0
    2.3550   -1.6384    1.7091 H   0  0  0  0  0  0  0  0  0  0  0  0
    1.3800    1.1546   -1.4400 H   0  0  0  0  0  0  0  0  0  0  0  0
   -1.7073    3.6041    0.4162 H   0  0  0  0  0  0  0  0  0  0  0  0
   -3.9152    2.6203   -0.1394 H   0  0  0  0  0  0  0  0  0  0  0  0
    4.7568   -1.2344    1.3008 H   0  0  0  0  0  0  0  0  0  0  0  0
    3.7719    1.5548   -1.8158 H   0  0  0  0  0  0  0  0  0  0  0  0
    5.4714    0.3620   -0.4584 H   0  0  0  0  0  0  0  0  0  0  0  0
   -3.5843   -3.0450   -0.0034 H   0  0  0  0  0  0  0  0  0  0  0  0
  1 15  1  0  0  0  0
  1 27  1  0  0  0  0
  2 15  2  0  0  0  0
  3  4  1  0  0  0  0
  3  6  1  0  0  0  0
  3 17  1  0  0  0  0
  4  5  1  0  0  0  0
  4  7  2  0  0  0  0
  5  8  2  0  0  0  0
  5 15  1  0  0  0  0
  6  9  2  0  0  0  0
  6 10  1  0  0  0  0
  7 11  1  0  0  0  0
  7 18  1  0  0  0  0
  8 12  1  0  0  0  0
  8 19  1  0  0  0  0
  9 13  1  0  0  0  0
  9 20  1  0  0  0  0
 10 14  2  0  0  0  0
 10 21  1  0  0  0  0
 11 12  2  0  0  0  0
 11 22  1  0  0  0  0
 12 23  1  0  0  0  0
 13 16  2  0  0  0  0
 13 24  1  0  0  0  0
 14 16  1  0  0  0  0
 14 25  1  0  0  0  0
 16 26  1  0  0  0  0
M  END
> <PUBCHEM_COMPOUND_CID>
4386

> <PUBCHEM_CONFORMER_RMSD>
0.6

> <PUBCHEM_CONFORMER_DIVERSEORDER>
1
6
8
7
2
5
3
4

> <PUBCHEM_MMFF94_PARTIAL_CHARGES>
27
1 -0.65
10 -0.15
11 -0.15
12 -0.15
13 -0.15
14 -0.15
15 0.63
16 -0.15
17 0.4
18 0.15
19 0.15
2 -0.57
20 0.15
21 0.15
22 0.15
23 0.15
24 0.15
25 0.15
26 0.15
27 0.5
3 -0.6
4 0.1
5 0.09
6 0.1
7 -0.15
8 -0.15
9 -0.15

> <PUBCHEM_EFFECTIVE_ROTOR_COUNT>
3

> <PUBCHEM_PHARMACOPHORE_FEATURES>
7
1 1 acceptor
1 2 acceptor
1 3 cation
1 3 donor
3 1 2 15 anion
6 4 5 7 8 11 12 rings
6 6 9 10 13 14 16 rings

> <PUBCHEM_HEAVY_ATOM_COUNT>
16

> <PUBCHEM_ATOM_DEF_STEREO_COUNT>
0

> <PUBCHEM_ATOM_UDEF_STEREO_COUNT>
0

> <PUBCHEM_BOND_DEF_STEREO_COUNT>
0

> <PUBCHEM_BOND_UDEF_STEREO_COUNT>
0

> <PUBCHEM_ISOTOPIC_ATOM_COUNT>
0

> <PUBCHEM_COMPONENT_COUNT>
1

> <PUBCHEM_CACTVS_TAUTO_COUNT>
2

> <PUBCHEM_CONFORMER_ID>
0000112200000001

> <PUBCHEM_MMFF94_ENERGY>
63.7459

> <PUBCHEM_FEATURE_SELFOVERLAP>
35.58

> <PUBCHEM_SHAPE_FINGERPRINT>
10062212 137 18272940435586170866
10616163 171 18410291423817637630
11578080 2 17771663146008638116
12173636 292 18336834211517247069
12236239 1 18059857289572822136
12403814 3 17846215596596806173
12500047 106 18263089958183926416
12553582 1 18192999210049602383
13538477 17 18413394254178470848
13583140 156 17532112595426146586
15279307 12 18270683189638117578
15375462 189 18270673160952544627
15442244 35 18198909300129040010
15669948 3 18409733962642035822
15775835 57 18201431532205245860
16752209 62 18336279989137772583
16945 1 18335137622178533145
1741750 31 18189895494724130377
17492 89 18413669119422871274
18186145 218 16415479359354352458
19422 9 18273496775627270762
200 152 18202005386922239642
20279233 1 16950287325405188742
20510252 161 18261107469746355747
20645476 183 18200599210666650465
20645477 56 18335698390109330448
20645477 70 15195294161740406424
20871998 184 18187364320404707895
20871999 31 18410863131488378935
21524375 3 18127409183913573265
21634736 98 18269271258026254860
23402539 116 18261968426506906461
23402655 69 18130786793734946772
23557571 272 18187079521339561848
23559900 14 18115028619177062130
23598291 2 18059296564708047574
23598294 1 18409450284331284907
2748010 2 18118701923958209817
2838139 119 16700353033991969437
3082319 5 18202001019188224572
4175511 318 18272376411949025901
474 4 17417238841628757196
5104073 3 18413109468140691552
573450 72 18342187695289068458
6049 1 17749113253348939928
69090 78 18341054137112872621
6992083 37 18129939108492224444
7097593 13 17984715660241008138
7615 1 18131358509626798824
77492 1 18059857281209630424
90525 40 18410574023890825815
9709674 26 18188207718690184078

> <PUBCHEM_SHAPE_MULTIPOLES>
312.55
7.51
2.34
0.87
5.34
0.25
0.03
0.06
0.29
-2.81
0.07
0.56
-0.01
-0.85

> <PUBCHEM_SHAPE_SELFOVERLAP>
675.475

> <PUBCHEM_SHAPE_VOLUME>
170.4

> <PUBCHEM_COORDINATE_TYPE>
2
5
10

$$$$

