47205122
  -OEChem-06241222582D

 33 34  0     1  0  0  0  0  0999 V2000
    2.0000   -0.5000    0.0000 Br  0  0  0  0  0  0  0  0  0  0  0  0
    3.7320    0.5000    0.0000 S   0  0  0  0  0  0  0  0  0  0  0  0
    3.7320   -3.5000    0.0000 F   0  0  0  0  0  0  0  0  0  0  0  0
    4.7320    0.5000    0.0000 O   0  0  0  0  0  0  0  0  0  0  0  0
    2.7320    0.5000    0.0000 O   0  0  0  0  0  0  0  0  0  0  0  0
    3.7320    1.5000    0.0000 N   0  0  3  0  0  0  0  0  0  0  0  0
    4.5981    2.0000    0.0000 C   0  0  3  0  0  0  0  0  0  0  0  0
    4.5981    3.0000    0.0000 C   0  0  0  0  0  0  0  0  0  0  0  0
    2.8660    2.0000    0.0000 C   0  0  0  0  0  0  0  0  0  0  0  0
    3.7320    3.5000    0.0000 C   0  0  0  0  0  0  0  0  0  0  0  0
    2.8660    3.0000    0.0000 C   0  0  0  0  0  0  0  0  0  0  0  0
    5.4641    1.5000    0.0000 C   0  0  0  0  0  0  0  0  0  0  0  0
    3.7320   -0.5000    0.0000 C   0  0  0  0  0  0  0  0  0  0  0  0
    2.8660   -1.0000    0.0000 C   0  0  0  0  0  0  0  0  0  0  0  0
    4.5981   -1.0000    0.0000 C   0  0  0  0  0  0  0  0  0  0  0  0
    2.8660   -2.0000    0.0000 C   0  0  0  0  0  0  0  0  0  0  0  0
    4.5981   -2.0000    0.0000 C   0  0  0  0  0  0  0  0  0  0  0  0
    3.7320   -2.5000    0.0000 C   0  0  0  0  0  0  0  0  0  0  0  0
    4.5981    1.3800    0.0000 H   0  0  0  0  0  0  0  0  0  0  0  0
    5.2087    2.8923    0.0000 H   0  0  0  0  0  0  0  0  0  0  0  0
    4.8101    3.5826    0.0000 H   0  0  0  0  0  0  0  0  0  0  0  0
    2.2554    2.1077    0.0000 H   0  0  0  0  0  0  0  0  0  0  0  0
    2.6540    1.4174    0.0000 H   0  0  0  0  0  0  0  0  0  0  0  0
    4.1306    3.9750    0.0000 H   0  0  0  0  0  0  0  0  0  0  0  0
    3.3335    3.9750    0.0000 H   0  0  0  0  0  0  0  0  0  0  0  0
    2.6540    3.5826    0.0000 H   0  0  0  0  0  0  0  0  0  0  0  0
    2.2554    2.8923    0.0000 H   0  0  0  0  0  0  0  0  0  0  0  0
    5.1541    0.9631    0.0000 H   0  0  0  0  0  0  0  0  0  0  0  0
    6.0010    1.1900    0.0000 H   0  0  0  0  0  0  0  0  0  0  0  0
    5.7741    2.0369    0.0000 H   0  0  0  0  0  0  0  0  0  0  0  0
    5.1350   -0.6900    0.0000 H   0  0  0  0  0  0  0  0  0  0  0  0
    2.3291   -2.3100    0.0000 H   0  0  0  0  0  0  0  0  0  0  0  0
    5.1350   -2.3100    0.0000 H   0  0  0  0  0  0  0  0  0  0  0  0
  1 14  1  0  0  0  0
  2  4  2  0  0  0  0
  2  5  2  0  0  0  0
  2  6  1  0  0  0  0
  2 13  1  0  0  0  0
  3 18  1  0  0  0  0
  6  7  1  0  0  0  0
  6  9  1  0  0  0  0
  7  8  1  0  0  0  0
  7 12  1  0  0  0  0
  7 19  1  0  0  0  0
  8 10  1  0  0  0  0
  8 20  1  0  0  0  0
  8 21  1  0  0  0  0
  9 11  1  0  0  0  0
  9 22  1  0  0  0  0
  9 23  1  0  0  0  0
 10 11  1  0  0  0  0
 10 24  1  0  0  0  0
 10 25  1  0  0  0  0
 11 26  1  0  0  0  0
 11 27  1  0  0  0  0
 12 28  1  0  0  0  0
 12 29  1  0  0  0  0
 12 30  1  0  0  0  0
 13 14  2  0  0  0  0
 13 15  1  0  0  0  0
 14 16  1  0  0  0  0
 15 17  2  0  0  0  0
 15 31  1  0  0  0  0
 16 18  2  0  0  0  0
 16 32  1  0  0  0  0
 17 18  1  0  0  0  0
 17 33  1  0  0  0  0
M  END
> <PUBCHEM_COMPOUND_CID>
47205122

> <PUBCHEM_COMPOUND_CANONICALIZED>
1

> <PUBCHEM_CACTVS_COMPLEXITY>
384

> <PUBCHEM_CACTVS_HBOND_ACCEPTOR>
4

> <PUBCHEM_CACTVS_HBOND_DONOR>
0

> <PUBCHEM_CACTVS_ROTATABLE_BOND>
2

> <PUBCHEM_CACTVS_SUBSKEYS>
AAADccByMQBAEAAAAAAAAAAAAAAAAAAAAAA8QAAAAAAAAAABAAAAHQRAQAABqCjBUAwyAYIAAAKAACBCAHBCABAgAAQIiBgIAKgIICKAkRCEIAAggACIihcQAAAAAAAAAAAAAEAAAAAAAAAAgAAAAAAAAA==

> <PUBCHEM_IUPAC_OPENEYE_NAME>
1-(2-bromo-4-fluoro-phenyl)sulfonyl-2-methyl-piperidine

> <PUBCHEM_IUPAC_CAS_NAME>
1-(2-bromo-4-fluorophenyl)sulfonyl-2-methylpiperidine

> <PUBCHEM_IUPAC_NAME>
1-(2-bromo-4-fluorophenyl)sulfonyl-2-methylpiperidine

> <PUBCHEM_IUPAC_SYSTEMATIC_NAME>
1-(2-bromanyl-4-fluoranyl-phenyl)sulfonyl-2-methyl-piperidine

> <PUBCHEM_IUPAC_TRADITIONAL_NAME>
1-(2-bromo-4-fluoro-phenyl)sulfonyl-2-methyl-piperidine

> <PUBCHEM_IUPAC_INCHI>
InChI=1S/C12H15BrFNO2S/c1-9-4-2-3-7-15(9)18(16,17)12-6-5-10(14)8-11(12)13/h5-6,8-9H,2-4,7H2,1H3

> <PUBCHEM_IUPAC_INCHIKEY>
YWHDRZNZVZKBOV-UHFFFAOYSA-N

> <PUBCHEM_XLOGP3_AA>
3.1

> <PUBCHEM_EXACT_MASS>
334.99909

> <PUBCHEM_MOLECULAR_FORMULA>
C12H15BrFNO2S

> <PUBCHEM_MOLECULAR_WEIGHT>
336.220403

> <PUBCHEM_OPENEYE_CAN_SMILES>
CC1CCCCN1S(=O)(=O)C2=C(C=C(C=C2)F)Br

> <PUBCHEM_OPENEYE_ISO_SMILES>
CC1CCCCN1S(=O)(=O)C2=C(C=C(C=C2)F)Br

> <PUBCHEM_CACTVS_TPSA>
45.8

> <PUBCHEM_MONOISOTOPIC_WEIGHT>
334.99909

> <PUBCHEM_TOTAL_CHARGE>
0

> <PUBCHEM_HEAVY_ATOM_COUNT>
18

> <PUBCHEM_ATOM_DEF_STEREO_COUNT>
0

> <PUBCHEM_ATOM_UDEF_STEREO_COUNT>
1

> <PUBCHEM_BOND_DEF_STEREO_COUNT>
0

> <PUBCHEM_BOND_UDEF_STEREO_COUNT>
0

> <PUBCHEM_ISOTOPIC_ATOM_COUNT>
0

> <PUBCHEM_COMPONENT_COUNT>
1

> <PUBCHEM_CACTVS_TAUTO_COUNT>
1

> <PUBCHEM_COORDINATE_TYPE>
1
5
255

> <PUBCHEM_BONDANNOTATIONS>
13  14  8
13  15  8
14  16  8
15  17  8
16  18  8
17  18  8
7  12  3

$$$$

