439929
  -OEChem-07051212482D

 26 28  0     0  0  0  0  0  0999 V2000
    4.3198    1.2673    0.0000 O   0  0  0  0  0  0  0  0  0  0  0  0
    2.5381    0.2568    0.0000 O   0  0  0  0  0  0  0  0  0  0  0  0
    5.2022   -0.2673    0.0000 C   0  0  0  0  0  0  0  0  0  0  0  0
    6.0682    0.2327    0.0000 C   0  0  0  0  0  0  0  0  0  0  0  0
    5.2022   -1.2673    0.0000 C   0  0  0  0  0  0  0  0  0  0  0  0
    6.9343   -0.2673    0.0000 C   0  0  0  0  0  0  0  0  0  0  0  0
    4.3083    0.2674    0.0000 C   0  0  0  0  0  0  0  0  0  0  0  0
    6.0682   -1.7673    0.0000 C   0  0  0  0  0  0  0  0  0  0  0  0
    6.9343   -1.2673    0.0000 C   0  0  0  0  0  0  0  0  0  0  0  0
    6.0522    1.2742    0.0000 C   0  0  0  0  0  0  0  0  0  0  0  0
    4.3083   -1.8020    0.0000 C   0  0  0  0  0  0  0  0  0  0  0  0
    7.8443    0.2395    0.0000 C   0  0  0  0  0  0  0  0  0  0  0  0
    3.4022   -0.2465    0.0000 C   0  0  0  0  0  0  0  0  0  0  0  0
    3.4022   -1.2881    0.0000 C   0  0  0  0  0  0  0  0  0  0  0  0
    6.9502    1.8020    0.0000 C   0  0  0  0  0  0  0  0  0  0  0  0
    7.8523    1.2812    0.0000 C   0  0  0  0  0  0  0  0  0  0  0  0
    6.0682   -2.3873    0.0000 H   0  0  0  0  0  0  0  0  0  0  0  0
    7.4712   -1.5773    0.0000 H   0  0  0  0  0  0  0  0  0  0  0  0
    5.5117    1.5780    0.0000 H   0  0  0  0  0  0  0  0  0  0  0  0
    4.3154   -2.4219    0.0000 H   0  0  0  0  0  0  0  0  0  0  0  0
    8.3776   -0.0766    0.0000 H   0  0  0  0  0  0  0  0  0  0  0  0
    2.8665   -1.6002    0.0000 H   0  0  0  0  0  0  0  0  0  0  0  0
    6.9478    2.4220    0.0000 H   0  0  0  0  0  0  0  0  0  0  0  0
    8.3904    1.5891    0.0000 H   0  0  0  0  0  0  0  0  0  0  0  0
    3.7865    1.5835    0.0000 H   0  0  0  0  0  0  0  0  0  0  0  0
    2.0000   -0.0511    0.0000 H   0  0  0  0  0  0  0  0  0  0  0  0
  1  7  1  0  0  0  0
  1 25  1  0  0  0  0
  2 13  1  0  0  0  0
  2 26  1  0  0  0  0
  3  4  1  0  0  0  0
  3  5  2  0  0  0  0
  3  7  1  0  0  0  0
  4  6  1  0  0  0  0
  4 10  2  0  0  0  0
  5  8  1  0  0  0  0
  5 11  1  0  0  0  0
  6  9  1  0  0  0  0
  6 12  2  0  0  0  0
  7 13  2  0  0  0  0
  8  9  2  0  0  0  0
  8 17  1  0  0  0  0
  9 18  1  0  0  0  0
 10 15  1  0  0  0  0
 10 19  1  0  0  0  0
 11 14  2  0  0  0  0
 11 20  1  0  0  0  0
 12 16  1  0  0  0  0
 12 21  1  0  0  0  0
 13 14  1  0  0  0  0
 14 22  1  0  0  0  0
 15 16  2  0  0  0  0
 15 23  1  0  0  0  0
 16 24  1  0  0  0  0
M  END
> <PUBCHEM_COMPOUND_CID>
439929

> <PUBCHEM_COMPOUND_CANONICALIZED>
1

> <PUBCHEM_CACTVS_COMPLEXITY>
253

> <PUBCHEM_CACTVS_HBOND_ACCEPTOR>
2

> <PUBCHEM_CACTVS_HBOND_DONOR>
2

> <PUBCHEM_CACTVS_ROTATABLE_BOND>
0

> <PUBCHEM_CACTVS_SUBSKEYS>
AAADccBwMAAAAAAAAAAAAAAAAAAAAAAAAAAwYMAAAAAAAADBVAAAGgAACAAADASAmAAwBsAAAgCAAiBCAAACAAAgIAAIiAAGiIgJJiKCERKAcAEkwBEJmAeAwPAO4AADAAAYQADAAAYAADCAAAAAAAAAAA==

> <PUBCHEM_IUPAC_OPENEYE_NAME>
phenanthrene-3,4-diol

> <PUBCHEM_IUPAC_CAS_NAME>
phenanthrene-3,4-diol

> <PUBCHEM_IUPAC_NAME>
phenanthrene-3,4-diol

> <PUBCHEM_IUPAC_SYSTEMATIC_NAME>
phenanthrene-3,4-diol

> <PUBCHEM_IUPAC_TRADITIONAL_NAME>
phenanthrene-3,4-diol

> <PUBCHEM_IUPAC_INCHI>
InChI=1S/C14H10O2/c15-12-8-7-10-6-5-9-3-1-2-4-11(9)13(10)14(12)16/h1-8,15-16H

> <PUBCHEM_IUPAC_INCHIKEY>
RLZZZVKAURTHCP-UHFFFAOYSA-N

> <PUBCHEM_XLOGP3_AA>
3.7

> <PUBCHEM_EXACT_MASS>
210.06808

> <PUBCHEM_MOLECULAR_FORMULA>
C14H10O2

> <PUBCHEM_MOLECULAR_WEIGHT>
210.228

> <PUBCHEM_OPENEYE_CAN_SMILES>
C1=CC=C2C(=C1)C=CC3=C2C(=C(C=C3)O)O

> <PUBCHEM_OPENEYE_ISO_SMILES>
C1=CC=C2C(=C1)C=CC3=C2C(=C(C=C3)O)O

> <PUBCHEM_CACTVS_TPSA>
40.5

> <PUBCHEM_MONOISOTOPIC_WEIGHT>
210.06808

> <PUBCHEM_TOTAL_CHARGE>
0

> <PUBCHEM_HEAVY_ATOM_COUNT>
16

> <PUBCHEM_ATOM_DEF_STEREO_COUNT>
0

> <PUBCHEM_ATOM_UDEF_STEREO_COUNT>
0

> <PUBCHEM_BOND_DEF_STEREO_COUNT>
0

> <PUBCHEM_BOND_UDEF_STEREO_COUNT>
0

> <PUBCHEM_ISOTOPIC_ATOM_COUNT>
0

> <PUBCHEM_COMPONENT_COUNT>
1

> <PUBCHEM_CACTVS_TAUTO_COUNT>
13

> <PUBCHEM_COORDINATE_TYPE>
1
5
255

> <PUBCHEM_BONDANNOTATIONS>
10  15  8
11  14  8
12  16  8
13  14  8
15  16  8
3  4  8
3  5  8
3  7  8
4  10  8
4  6  8
5  11  8
5  8  8
6  12  8
6  9  8
7  13  8
8  9  8

$$$$

