9319
  -OEChem-06261203363D

 46 45  0     0  0  0  0  0  0999 V2000
   -2.8561   -2.3326   -1.0409 S   0  0  0  0  0  0  0  0  0  0  0  0
   -4.4768    0.2171   -0.3736 O   0  0  0  0  0  0  0  0  0  0  0  0
   -4.3519    1.0667    1.7673 O   0  0  0  0  0  0  0  0  0  0  0  0
   -0.8862   -4.0156    0.1453 N   0  0  0  0  0  0  0  0  0  0  0  0
    2.5175    1.1034   -0.5704 C   0  0  0  0  0  0  0  0  0  0  0  0
    1.2024    1.2430    0.1986 C   0  0  0  0  0  0  0  0  0  0  0  0
    3.6868    0.6309    0.2990 C   0  0  0  0  0  0  0  0  0  0  0  0
    0.0525    1.6265   -0.7356 C   0  0  0  0  0  0  0  0  0  0  0  0
    5.0125    0.3875   -0.4310 C   0  0  0  0  0  0  0  0  0  0  0  0
   -1.2575    1.7989    0.0360 C   0  0  0  0  0  0  0  0  0  0  0  0
    6.1218   -0.1406    0.4821 C   0  0  0  0  0  0  0  0  0  0  0  0
   -2.3992    2.2160   -0.8963 C   0  0  0  0  0  0  0  0  0  0  0  0
    7.4682   -0.2975   -0.2299 C   0  0  0  0  0  0  0  0  0  0  0  0
   -3.7169    2.4235   -0.1497 C   0  0  0  0  0  0  0  0  0  0  0  0
    8.5834   -0.7947    0.6767 C   0  0  0  0  0  0  0  0  0  0  0  0
   -4.2038    1.1783    0.5580 C   0  0  0  0  0  0  0  0  0  0  0  0
   -4.9792   -1.0186    0.1450 C   0  0  0  0  0  0  0  0  0  0  0  0
   -3.8272   -1.9624    0.4520 C   0  0  0  0  0  0  0  0  0  0  0  0
   -1.6905   -3.3297   -0.3325 C   0  0  0  0  0  0  0  0  0  0  0  0
    2.3801    0.3886   -1.3914 H   0  0  0  0  0  0  0  0  0  0  0  0
    2.7778    2.0651   -1.0292 H   0  0  0  0  0  0  0  0  0  0  0  0
    0.9661    0.2958    0.6983 H   0  0  0  0  0  0  0  0  0  0  0  0
    1.3169    2.0024    0.9814 H   0  0  0  0  0  0  0  0  0  0  0  0
    3.8522    1.3678    1.0952 H   0  0  0  0  0  0  0  0  0  0  0  0
    3.3930   -0.3013    0.7987 H   0  0  0  0  0  0  0  0  0  0  0  0
   -0.0722    0.8534   -1.5035 H   0  0  0  0  0  0  0  0  0  0  0  0
    0.2986    2.5613   -1.2538 H   0  0  0  0  0  0  0  0  0  0  0  0
    4.8486   -0.3270   -1.2470 H   0  0  0  0  0  0  0  0  0  0  0  0
    5.3381    1.3271   -0.8938 H   0  0  0  0  0  0  0  0  0  0  0  0
   -1.1280    2.5581    0.8169 H   0  0  0  0  0  0  0  0  0  0  0  0
   -1.5039    0.8560    0.5381 H   0  0  0  0  0  0  0  0  0  0  0  0
    5.8171   -1.1082    0.8992 H   0  0  0  0  0  0  0  0  0  0  0  0
    6.2453    0.5447    1.3299 H   0  0  0  0  0  0  0  0  0  0  0  0
   -2.5283    1.4555   -1.6758 H   0  0  0  0  0  0  0  0  0  0  0  0
   -2.1336    3.1510   -1.4043 H   0  0  0  0  0  0  0  0  0  0  0  0
    7.7666    0.6669   -0.6581 H   0  0  0  0  0  0  0  0  0  0  0  0
    7.3550   -0.9954   -1.0681 H   0  0  0  0  0  0  0  0  0  0  0  0
   -4.5018    2.7564   -0.8381 H   0  0  0  0  0  0  0  0  0  0  0  0
   -3.5997    3.2137    0.6014 H   0  0  0  0  0  0  0  0  0  0  0  0
    8.3372   -1.7755    1.0954 H   0  0  0  0  0  0  0  0  0  0  0  0
    8.7513   -0.0997    1.5055 H   0  0  0  0  0  0  0  0  0  0  0  0
    9.5179   -0.8880    0.1148 H   0  0  0  0  0  0  0  0  0  0  0  0
   -5.6414   -1.4483   -0.6155 H   0  0  0  0  0  0  0  0  0  0  0  0
   -5.5978   -0.8560    1.0358 H   0  0  0  0  0  0  0  0  0  0  0  0
   -3.1580   -1.5079    1.1905 H   0  0  0  0  0  0  0  0  0  0  0  0
   -4.2181   -2.8969    0.8678 H   0  0  0  0  0  0  0  0  0  0  0  0
  1 18  1  0  0  0  0
  1 19  1  0  0  0  0
  2 16  1  0  0  0  0
  2 17  1  0  0  0  0
  3 16  2  0  0  0  0
  4 19  3  0  0  0  0
  5  6  1  0  0  0  0
  5  7  1  0  0  0  0
  5 20  1  0  0  0  0
  5 21  1  0  0  0  0
  6  8  1  0  0  0  0
  6 22  1  0  0  0  0
  6 23  1  0  0  0  0
  7  9  1  0  0  0  0
  7 24  1  0  0  0  0
  7 25  1  0  0  0  0
  8 10  1  0  0  0  0
  8 26  1  0  0  0  0
  8 27  1  0  0  0  0
  9 11  1  0  0  0  0
  9 28  1  0  0  0  0
  9 29  1  0  0  0  0
 10 12  1  0  0  0  0
 10 30  1  0  0  0  0
 10 31  1  0  0  0  0
 11 13  1  0  0  0  0
 11 32  1  0  0  0  0
 11 33  1  0  0  0  0
 12 14  1  0  0  0  0
 12 34  1  0  0  0  0
 12 35  1  0  0  0  0
 13 15  1  0  0  0  0
 13 36  1  0  0  0  0
 13 37  1  0  0  0  0
 14 16  1  0  0  0  0
 14 38  1  0  0  0  0
 14 39  1  0  0  0  0
 15 40  1  0  0  0  0
 15 41  1  0  0  0  0
 15 42  1  0  0  0  0
 17 18  1  0  0  0  0
 17 43  1  0  0  0  0
 17 44  1  0  0  0  0
 18 45  1  0  0  0  0
 18 46  1  0  0  0  0
M  END
> <PUBCHEM_COMPOUND_CID>
9319

> <PUBCHEM_CONFORMER_RMSD>
1.4

> <PUBCHEM_CONFORMER_DIVERSEORDER>
2
55
65
48
41
50
31
26
46
44
16
9
30
1
37
19
34
59
14
33
40
52
11
67
38
17
23
24
62
43
18
28
53
21
45
6
47
8
49
36
27
39
7
15
3
61
25
20
32
5
58
51
66
12
4
54
57
29
64
35
10
22
60
13
63
56
42

> <PUBCHEM_MMFF94_PARTIAL_CHARGES>
9
1 -0.27
14 0.06
16 0.66
17 0.28
18 0.23
19 0.59
2 -0.43
3 -0.57
4 -0.56

> <PUBCHEM_EFFECTIVE_ROTOR_COUNT>
14

> <PUBCHEM_PHARMACOPHORE_FEATURES>
3
1 15 hydrophobe
1 3 acceptor
1 4 acceptor

> <PUBCHEM_HEAVY_ATOM_COUNT>
19

> <PUBCHEM_ATOM_DEF_STEREO_COUNT>
0

> <PUBCHEM_ATOM_UDEF_STEREO_COUNT>
0

> <PUBCHEM_BOND_DEF_STEREO_COUNT>
0

> <PUBCHEM_BOND_UDEF_STEREO_COUNT>
0

> <PUBCHEM_ISOTOPIC_ATOM_COUNT>
0

> <PUBCHEM_COMPONENT_COUNT>
1

> <PUBCHEM_CACTVS_TAUTO_COUNT>
1

> <PUBCHEM_CONFORMER_ID>
0000246700000002

> <PUBCHEM_MMFF94_ENERGY>
3.8218

> <PUBCHEM_FEATURE_SELFOVERLAP>
15.223

> <PUBCHEM_SHAPE_FINGERPRINT>
11524674 6 17821732744888737502
12091667 2 16773510079354329604
12838863 1 18262526871293472319
14251740 79 18335703806342522787
14251751 18 18409729530768822104
14647877 51 18118395379099767510
14866123 147 18410576149836794927
15021287 119 17560797723954718676
15348495 7 18113907022764582336
16719943 64 18411699872437948030
17780758 139 18113334228187059681
20771845 165 17555180512364690029
23402539 116 16845570950214856356
338550 245 18343577460949418758
397830 11 18114758027774489984
484985 159 18342469101678678023
559249 180 18342740723541111421
602551 16 18408603630445196108
6138700 20 18339364064104996271
6437827 68 18410292527908978414

> <PUBCHEM_SHAPE_MULTIPOLES>
378.14
18.7
3.74
0.99
47.78
3.71
-0.12
3.58
-3.78
-5.86
0.48
-0.62
-0.11
-0.76

> <PUBCHEM_SHAPE_SELFOVERLAP>
686.031

> <PUBCHEM_SHAPE_VOLUME>
239.5

> <PUBCHEM_COORDINATE_TYPE>
2
5
10

$$$$

