5282259
  -OEChem-07051213043D

 54 53  0     0  0  0  0  0  0999 V2000
   -7.4814   -1.6490    0.7006 O   0  0  0  0  0  0  0  0  0  0  0  0
   -6.6284    0.1739    1.7525 O   0  0  0  0  0  0  0  0  0  0  0  0
    2.7978   -1.1837   -2.4845 O   0  5  0  0  0  0  0  0  0  0  0  0
    1.1082   -2.5312   -2.0597 O   0  0  0  0  0  0  0  0  0  0  0  0
    1.8346   -1.5644   -1.8133 N   0  3  0  0  0  0  0  0  0  0  0  0
   -3.1031    1.6648   -0.5062 C   0  0  0  0  0  0  0  0  0  0  0  0
   -1.7439    1.0416   -0.1754 C   0  0  0  0  0  0  0  0  0  0  0  0
   -4.2199    0.6225   -0.4581 C   0  0  0  0  0  0  0  0  0  0  0  0
   -0.6011    2.0624   -0.1770 C   0  0  0  0  0  0  0  0  0  0  0  0
   -5.6148    1.1912   -0.7430 C   0  0  0  0  0  0  0  0  0  0  0  0
    0.7863    1.4913    0.1322 C   0  0  0  0  0  0  0  0  0  0  0  0
   -6.7466    0.1686   -0.6629 C   0  0  0  0  0  0  0  0  0  0  0  0
    1.2428    0.4754   -0.8778 C   0  0  0  0  0  0  0  0  0  0  0  0
    4.7322    0.6972    2.0272 C   0  0  0  0  0  0  0  0  0  0  0  0
    4.9494    0.8268    0.5147 C   0  0  0  0  0  0  0  0  0  0  0  0
    3.6046   -0.2509    2.4472 C   0  0  0  0  0  0  0  0  0  0  0  0
    1.5299   -0.8104   -0.6341 C   0  0  0  0  0  0  0  0  0  0  0  0
    6.1250    1.7140    0.1115 C   0  0  0  0  0  0  0  0  0  0  0  0
    1.5001   -1.6219    0.6215 C   0  0  0  0  0  0  0  0  0  0  0  0
    3.7393   -1.6361    1.8749 C   0  0  0  0  0  0  0  0  0  0  0  0
    2.8122   -2.2049    1.0872 C   0  0  0  0  0  0  0  0  0  0  0  0
   -6.9419   -0.4045    0.7202 C   0  0  0  0  0  0  0  0  0  0  0  0
    6.3187    1.7271   -1.3976 C   0  0  0  0  0  0  0  0  0  0  0  0
   -3.0676    2.1206   -1.5029 H   0  0  0  0  0  0  0  0  0  0  0  0
   -3.3209    2.4671    0.2090 H   0  0  0  0  0  0  0  0  0  0  0  0
   -1.7908    0.5625    0.8104 H   0  0  0  0  0  0  0  0  0  0  0  0
   -1.5349    0.2495   -0.9042 H   0  0  0  0  0  0  0  0  0  0  0  0
   -4.0053   -0.1697   -1.1863 H   0  0  0  0  0  0  0  0  0  0  0  0
   -4.2133    0.1477    0.5300 H   0  0  0  0  0  0  0  0  0  0  0  0
   -0.5727    2.5634   -1.1534 H   0  0  0  0  0  0  0  0  0  0  0  0
   -0.8233    2.8426    0.5621 H   0  0  0  0  0  0  0  0  0  0  0  0
   -5.6162    1.6324   -1.7473 H   0  0  0  0  0  0  0  0  0  0  0  0
   -5.8154    2.0108   -0.0416 H   0  0  0  0  0  0  0  0  0  0  0  0
    1.5129    2.3129    0.1394 H   0  0  0  0  0  0  0  0  0  0  0  0
    0.7754    1.0816    1.1459 H   0  0  0  0  0  0  0  0  0  0  0  0
   -7.6912    0.6347   -0.9633 H   0  0  0  0  0  0  0  0  0  0  0  0
   -6.5347   -0.6527   -1.3570 H   0  0  0  0  0  0  0  0  0  0  0  0
    4.5326    1.6902    2.4485 H   0  0  0  0  0  0  0  0  0  0  0  0
    5.6684    0.3516    2.4850 H   0  0  0  0  0  0  0  0  0  0  0  0
    1.3030    0.8654   -1.8941 H   0  0  0  0  0  0  0  0  0  0  0  0
    5.1104   -0.1678    0.0823 H   0  0  0  0  0  0  0  0  0  0  0  0
    4.0339    1.2224    0.0603 H   0  0  0  0  0  0  0  0  0  0  0  0
    2.6526    0.2154    2.1860 H   0  0  0  0  0  0  0  0  0  0  0  0
    3.6082   -0.3344    3.5410 H   0  0  0  0  0  0  0  0  0  0  0  0
    7.0432    1.3520    0.5881 H   0  0  0  0  0  0  0  0  0  0  0  0
    5.9557    2.7367    0.4671 H   0  0  0  0  0  0  0  0  0  0  0  0
    0.7953   -2.4568    0.5010 H   0  0  0  0  0  0  0  0  0  0  0  0
    1.0548   -1.0456    1.4396 H   0  0  0  0  0  0  0  0  0  0  0  0
    4.6381   -2.1957    2.1199 H   0  0  0  0  0  0  0  0  0  0  0  0
    3.0268   -3.2082    0.7218 H   0  0  0  0  0  0  0  0  0  0  0  0
    6.5271    0.7212   -1.7758 H   0  0  0  0  0  0  0  0  0  0  0  0
    7.1615    2.3720   -1.6655 H   0  0  0  0  0  0  0  0  0  0  0  0
    5.4255    2.1067   -1.9040 H   0  0  0  0  0  0  0  0  0  0  0  0
   -7.5916   -2.0144    1.6042 H   0  0  0  0  0  0  0  0  0  0  0  0
  1 22  1  0  0  0  0
  1 54  1  0  0  0  0
  2 22  2  0  0  0  0
  3  5  1  0  0  0  0
  4  5  2  0  0  0  0
  5 17  1  0  0  0  0
  6  7  1  0  0  0  0
  6  8  1  0  0  0  0
  6 24  1  0  0  0  0
  6 25  1  0  0  0  0
  7  9  1  0  0  0  0
  7 26  1  0  0  0  0
  7 27  1  0  0  0  0
  8 10  1  0  0  0  0
  8 28  1  0  0  0  0
  8 29  1  0  0  0  0
  9 11  1  0  0  0  0
  9 30  1  0  0  0  0
  9 31  1  0  0  0  0
 10 12  1  0  0  0  0
 10 32  1  0  0  0  0
 10 33  1  0  0  0  0
 11 13  1  0  0  0  0
 11 34  1  0  0  0  0
 11 35  1  0  0  0  0
 12 22  1  0  0  0  0
 12 36  1  0  0  0  0
 12 37  1  0  0  0  0
 13 17  2  0  0  0  0
 13 40  1  0  0  0  0
 14 15  1  0  0  0  0
 14 16  1  0  0  0  0
 14 38  1  0  0  0  0
 14 39  1  0  0  0  0
 15 18  1  0  0  0  0
 15 41  1  0  0  0  0
 15 42  1  0  0  0  0
 16 20  1  0  0  0  0
 16 43  1  0  0  0  0
 16 44  1  0  0  0  0
 17 19  1  0  0  0  0
 18 23  1  0  0  0  0
 18 45  1  0  0  0  0
 18 46  1  0  0  0  0
 19 21  1  0  0  0  0
 19 47  1  0  0  0  0
 19 48  1  0  0  0  0
 20 21  2  0  0  0  0
 20 49  1  0  0  0  0
 21 50  1  0  0  0  0
 23 51  1  0  0  0  0
 23 52  1  0  0  0  0
 23 53  1  0  0  0  0
M  CHG  2   3  -1   5   1
M  END
> <PUBCHEM_COMPOUND_CID>
5282259

> <PUBCHEM_CONFORMER_RMSD>
1.4

> <PUBCHEM_CONFORMER_DIVERSEORDER>
7
26
67
42
49
20
78
38
34
39
55
64
31
40
33
22
60
46
48
76
63
41
51
47
56
10
77
25
19
1
27
74
71
4
21
18
44
29
11
66
2
9
30
58
14
43
16
70
65
3
45
24
62
5
50
54
53
72
73
36
12
57
23
37
13
59
35
32
75
17
69
15
61
6
28
52
8
68

> <PUBCHEM_MMFF94_PARTIAL_CHARGES>
18
1 -0.65
11 0.14
12 0.06
13 -0.29
16 0.14
17 0.07
19 0.28
2 -0.57
20 -0.29
21 -0.29
22 0.66
3 -0.52
4 -0.52
40 0.15
49 0.15
5 0.84
50 0.15
54 0.5

> <PUBCHEM_EFFECTIVE_ROTOR_COUNT>
15

> <PUBCHEM_PHARMACOPHORE_FEATURES>
8
1 1 acceptor
1 2 acceptor
1 23 hydrophobe
1 3 acceptor
1 3 anion
1 4 acceptor
3 1 2 22 anion
5 14 15 16 18 20 hydrophobe

> <PUBCHEM_HEAVY_ATOM_COUNT>
23

> <PUBCHEM_ATOM_DEF_STEREO_COUNT>
0

> <PUBCHEM_ATOM_UDEF_STEREO_COUNT>
0

> <PUBCHEM_BOND_DEF_STEREO_COUNT>
2

> <PUBCHEM_BOND_UDEF_STEREO_COUNT>
0

> <PUBCHEM_ISOTOPIC_ATOM_COUNT>
0

> <PUBCHEM_COMPONENT_COUNT>
1

> <PUBCHEM_CACTVS_TAUTO_COUNT>
1

> <PUBCHEM_CONFORMER_ID>
005099D300000007

> <PUBCHEM_MMFF94_ENERGY>
18.8678

> <PUBCHEM_FEATURE_SELFOVERLAP>
40.732

> <PUBCHEM_SHAPE_FINGERPRINT>
10378564 45 9295282871949974547
10763959 59 6988313950398327323
11135609 99 17917436479350133602
13899415 154 18187087239116777040
14251732 16 17989491818376859873
14251751 18 17703515475954187467
15183329 4 8934720054002467001
19377110 9 18410289237958937137
20567600 234 17346604058423235860
21781051 124 18334853918709881782
25222932 49 18271254858654854475
4340502 62 17917993875841417692
465052 167 18340779207967112224
5104073 3 18335700611483278649
9862260 156 7997975669748450644

> <PUBCHEM_SHAPE_MULTIPOLES>
444.87
19.21
2.48
2.07
32.62
0.52
-1.01
-1.46
5.4
-2
0.06
-2.64
0.99
-0.15

> <PUBCHEM_SHAPE_SELFOVERLAP>
840.758

> <PUBCHEM_SHAPE_VOLUME>
273.9

> <PUBCHEM_COORDINATE_TYPE>
2
5
10

$$$$

