227666
  -OEChem-07051213073D

 53 56  0     1  0  0  0  0  0999 V2000
   -5.0382   -0.8502    0.2178 O   0  0  0  0  0  0  0  0  0  0  0  0
    0.0451   -2.6351    0.4629 O   0  0  0  0  0  0  0  0  0  0  0  0
    5.8402    0.1697   -0.9689 O   0  0  0  0  0  0  0  0  0  0  0  0
   -1.8514    0.8853   -0.2315 C   0  0  1  0  0  0  0  0  0  0  0  0
   -0.4196    0.9165    0.3267 C   0  0  1  0  0  0  0  0  0  0  0  0
   -2.6177   -0.4040    0.1420 C   0  0  1  0  0  0  0  0  0  0  0  0
    0.3741   -0.3054   -0.2333 C   0  0  1  0  0  0  0  0  0  0  0  0
    1.8678   -0.3198    0.2549 C   0  0  2  0  0  0  0  0  0  0  0  0
   -4.0310   -0.0743   -0.4277 C   0  0  2  0  0  0  0  0  0  0  0  0
    2.5045    1.0553   -0.1464 C   0  0  1  0  0  0  0  0  0  0  0  0
   -2.8092    2.0010    0.1772 C   0  0  0  0  0  0  0  0  0  0  0  0
    0.2803    2.2375   -0.0198 C   0  0  0  0  0  0  0  0  0  0  0  0
   -1.8813   -1.5929   -0.4841 C   0  0  0  0  0  0  0  0  0  0  0  0
   -4.2139    1.4251   -0.0754 C   0  0  0  0  0  0  0  0  0  0  0  0
    1.7382    2.2525    0.4261 C   0  0  0  0  0  0  0  0  0  0  0  0
   -0.4331   -1.6048   -0.0073 C   0  0  0  0  0  0  0  0  0  0  0  0
    2.6795   -1.4173   -0.4952 C   0  0  0  0  0  0  0  0  0  0  0  0
   -2.7131   -0.6471    1.6774 C   0  0  0  0  0  0  0  0  0  0  0  0
    3.9943    1.1545    0.1949 C   0  0  0  0  0  0  0  0  0  0  0  0
    1.9507   -0.5643    1.7820 C   0  0  0  0  0  0  0  0  0  0  0  0
   -4.1982   -0.3026   -1.9355 C   0  0  0  0  0  0  0  0  0  0  0  0
    4.1806   -1.3811   -0.2162 C   0  0  0  0  0  0  0  0  0  0  0  0
    4.7512    0.0014   -0.4205 C   0  0  0  0  0  0  0  0  0  0  0  0
   -1.7578    0.9407   -1.3267 H   0  0  0  0  0  0  0  0  0  0  0  0
   -0.4706    0.8537    1.4189 H   0  0  0  0  0  0  0  0  0  0  0  0
    0.4044   -0.2025   -1.3297 H   0  0  0  0  0  0  0  0  0  0  0  0
    2.4347    1.1334   -1.2432 H   0  0  0  0  0  0  0  0  0  0  0  0
   -2.6446    2.9127   -0.4066 H   0  0  0  0  0  0  0  0  0  0  0  0
   -2.6917    2.2624    1.2349 H   0  0  0  0  0  0  0  0  0  0  0  0
   -0.2409    3.0774    0.4541 H   0  0  0  0  0  0  0  0  0  0  0  0
    0.2345    2.4093   -1.1030 H   0  0  0  0  0  0  0  0  0  0  0  0
   -1.8510   -1.5404   -1.5777 H   0  0  0  0  0  0  0  0  0  0  0  0
   -2.3613   -2.5394   -0.2113 H   0  0  0  0  0  0  0  0  0  0  0  0
   -4.8408    1.5721    0.8118 H   0  0  0  0  0  0  0  0  0  0  0  0
   -4.7029    1.9704   -0.8911 H   0  0  0  0  0  0  0  0  0  0  0  0
    2.1996    3.1872    0.0840 H   0  0  0  0  0  0  0  0  0  0  0  0
    1.7945    2.2631    1.5207 H   0  0  0  0  0  0  0  0  0  0  0  0
    2.5261   -1.2981   -1.5764 H   0  0  0  0  0  0  0  0  0  0  0  0
    2.3198   -2.4194   -0.2431 H   0  0  0  0  0  0  0  0  0  0  0  0
   -3.2658   -1.5695    1.8914 H   0  0  0  0  0  0  0  0  0  0  0  0
   -1.7316   -0.7652    2.1464 H   0  0  0  0  0  0  0  0  0  0  0  0
   -3.2195    0.1693    2.2017 H   0  0  0  0  0  0  0  0  0  0  0  0
    4.1753    1.1585    1.2741 H   0  0  0  0  0  0  0  0  0  0  0  0
    4.4051    2.0865   -0.2113 H   0  0  0  0  0  0  0  0  0  0  0  0
    1.5774   -1.5562    2.0526 H   0  0  0  0  0  0  0  0  0  0  0  0
    2.9766   -0.5110    2.1570 H   0  0  0  0  0  0  0  0  0  0  0  0
    1.3725    0.1649    2.3551 H   0  0  0  0  0  0  0  0  0  0  0  0
   -3.4743    0.2553   -2.5353 H   0  0  0  0  0  0  0  0  0  0  0  0
   -4.1152   -1.3668   -2.1819 H   0  0  0  0  0  0  0  0  0  0  0  0
   -5.2030   -0.0016   -2.2555 H   0  0  0  0  0  0  0  0  0  0  0  0
    4.6905   -2.0743   -0.8945 H   0  0  0  0  0  0  0  0  0  0  0  0
    4.4043   -1.6973    0.8075 H   0  0  0  0  0  0  0  0  0  0  0  0
   -5.1708   -0.5163    1.1203 H   0  0  0  0  0  0  0  0  0  0  0  0
  1  9  1  0  0  0  0
  1 53  1  0  0  0  0
  2 16  2  0  0  0  0
  3 23  2  0  0  0  0
  4  5  1  0  0  0  0
  4  6  1  0  0  0  0
  4 11  1  0  0  0  0
  4 24  1  0  0  0  0
  5  7  1  0  0  0  0
  5 12  1  0  0  0  0
  5 25  1  0  0  0  0
  6  9  1  0  0  0  0
  6 13  1  0  0  0  0
  6 18  1  0  0  0  0
  7  8  1  0  0  0  0
  7 16  1  0  0  0  0
  7 26  1  0  0  0  0
  8 10  1  0  0  0  0
  8 17  1  0  0  0  0
  8 20  1  0  0  0  0
  9 14  1  0  0  0  0
  9 21  1  0  0  0  0
 10 15  1  0  0  0  0
 10 19  1  0  0  0  0
 10 27  1  0  0  0  0
 11 14  1  0  0  0  0
 11 28  1  0  0  0  0
 11 29  1  0  0  0  0
 12 15  1  0  0  0  0
 12 30  1  0  0  0  0
 12 31  1  0  0  0  0
 13 16  1  0  0  0  0
 13 32  1  0  0  0  0
 13 33  1  0  0  0  0
 14 34  1  0  0  0  0
 14 35  1  0  0  0  0
 15 36  1  0  0  0  0
 15 37  1  0  0  0  0
 17 22  1  0  0  0  0
 17 38  1  0  0  0  0
 17 39  1  0  0  0  0
 18 40  1  0  0  0  0
 18 41  1  0  0  0  0
 18 42  1  0  0  0  0
 19 23  1  0  0  0  0
 19 43  1  0  0  0  0
 19 44  1  0  0  0  0
 20 45  1  0  0  0  0
 20 46  1  0  0  0  0
 20 47  1  0  0  0  0
 21 48  1  0  0  0  0
 21 49  1  0  0  0  0
 21 50  1  0  0  0  0
 22 23  1  0  0  0  0
 22 51  1  0  0  0  0
 22 52  1  0  0  0  0
M  END
> <PUBCHEM_COMPOUND_CID>
227666

> <PUBCHEM_CONFORMER_RMSD>
0.6

> <PUBCHEM_CONFORMER_DIVERSEORDER>
1

> <PUBCHEM_MMFF94_PARTIAL_CHARGES>
11
1 -0.68
13 0.06
16 0.45
19 0.06
2 -0.57
22 0.06
23 0.45
3 -0.57
53 0.4
7 0.06
9 0.28

> <PUBCHEM_EFFECTIVE_ROTOR_COUNT>
1.8

> <PUBCHEM_PHARMACOPHORE_FEATURES>
8
1 1 acceptor
1 1 donor
1 2 acceptor
1 3 acceptor
5 4 6 9 11 14 rings
6 4 5 6 7 13 16 rings
6 5 7 8 10 12 15 rings
6 8 10 17 19 22 23 rings

> <PUBCHEM_HEAVY_ATOM_COUNT>
23

> <PUBCHEM_ATOM_DEF_STEREO_COUNT>
7

> <PUBCHEM_ATOM_UDEF_STEREO_COUNT>
0

> <PUBCHEM_BOND_DEF_STEREO_COUNT>
0

> <PUBCHEM_BOND_UDEF_STEREO_COUNT>
0

> <PUBCHEM_ISOTOPIC_ATOM_COUNT>
0

> <PUBCHEM_COMPONENT_COUNT>
1

> <PUBCHEM_CACTVS_TAUTO_COUNT>
9

> <PUBCHEM_CONFORMER_ID>
0003795200000001

> <PUBCHEM_MMFF94_ENERGY>
85.3549

> <PUBCHEM_FEATURE_SELFOVERLAP>
40.684

> <PUBCHEM_SHAPE_FINGERPRINT>
10366900 7 17846501413473840057
10498660 4 18341055219370836797
10967382 1 18410294692039238904
12011746 2 18413110558687883165
12236239 1 17846779624576027278
12403259 226 18336552629467157553
12403259 415 18343028774524475429
12553582 1 18409457972270087848
12788726 201 18190461764698282640
12969540 114 18200889416900762039
13140716 1 17906175044602272264
13221675 6 18412826863212976376
13224815 77 18130791169921317401
13583140 156 16917348108515058809
13862211 1 18408890646167017566
14790565 3 18338508771958357728
15099037 51 18410856564008636062
15196674 1 18410011069615939916
15209289 33 18335421279008991181
15536298 74 18260833674414029560
15788980 27 17822010917188551796
15848702 151 17822002155323379870
1601671 61 18412545448439933644
16752209 62 18410019861387770632
16945 1 18266173920527244144
17349148 13 17967535670364932535
17357779 13 18411993467717026685
18186145 218 18131639997440951573
19591789 44 18338800125401501478
19862831 5 18343022181416937772
200 152 18040154019643850137
20028762 73 18114467743408983327
20645477 70 18340209587618204580
20775438 99 16814937225152093231
20871999 31 18410291423880408572
21029758 11 18333733519938850560
21033648 29 18272664419560788213
21267235 1 18408876326339734406
21279426 13 18266739267325384246
221357 26 18335424569075447789
221490 88 18267298733833500856
22393880 68 18338813263980779973
23402539 116 18334016120507891484
23493267 7 17989486320485970321
23559900 14 18261398780731365864
2748010 2 18413112736188972105
296302 2 15841554084637314544
3004659 81 18271239534849819822
335352 9 18265332991658189485
34934 24 18410297978374938080
350125 39 18409726288184714153
3759504 43 17704067365728966610
4280585 95 17324354598859230470
4340502 62 16415191304129029136
474 4 17489298634684451572
5104073 3 18409449219163545808
633830 44 18410579521728403295
69090 78 18260551104004348214
7364860 26 18189058607725535336
9709674 26 18265054626311549799

> <PUBCHEM_SHAPE_MULTIPOLES>
455.72
9.8
2.22
1.15
3
0.29
0.13
-0.07
-2.58
0.06
0.14
-0.51
-0.25
0.05

> <PUBCHEM_SHAPE_SELFOVERLAP>
976.637

> <PUBCHEM_SHAPE_VOLUME>
251.2

> <PUBCHEM_COORDINATE_TYPE>
2
5
10

$$$$

