17395332
  -OEChem-06241222493D

 33 34  0     0  0  0  0  0  0999 V2000
   -4.5412   -1.2060   -2.2870 F   0  0  0  0  0  0  0  0  0  0  0  0
   -5.2340    2.2420    0.8848 F   0  0  0  0  0  0  0  0  0  0  0  0
    4.4136    0.5850   -1.4622 O   0  0  0  0  0  0  0  0  0  0  0  0
    1.5902   -1.8213   -0.9035 O   0  0  0  0  0  0  0  0  0  0  0  0
   -0.4616    0.6664    1.5437 O   0  0  0  0  0  0  0  0  0  0  0  0
    3.0057   -1.4363    0.8992 N   0  0  0  0  0  0  0  0  0  0  0  0
   -0.5619   -1.5335    0.8131 N   0  0  0  0  0  0  0  0  0  0  0  0
    4.2220   -1.2219    0.1482 C   0  0  0  0  0  0  0  0  0  0  0  0
    0.7040   -1.9494    1.3404 C   0  0  0  0  0  0  0  0  0  0  0  0
    4.3774    0.2383   -0.1489 C   0  0  0  0  0  0  0  0  0  0  0  0
    1.7844   -1.7198    0.3053 C   0  0  0  0  0  0  0  0  0  0  0  0
   -2.3927    0.0271    0.3775 C   0  0  0  0  0  0  0  0  0  0  0  0
   -1.0517   -0.2383    0.9590 C   0  0  0  0  0  0  0  0  0  0  0  0
    4.4966    1.3529    0.6484 C   0  0  0  0  0  0  0  0  0  0  0  0
   -3.1996    1.0303    0.9144 C   0  0  0  0  0  0  0  0  0  0  0  0
   -2.8457   -0.7280   -0.7043 C   0  0  0  0  0  0  0  0  0  0  0  0
    4.6138    2.4552   -0.2317 C   0  0  0  0  0  0  0  0  0  0  0  0
   -4.1055   -0.4798   -1.2493 C   0  0  0  0  0  0  0  0  0  0  0  0
   -4.4593    1.2784    0.3693 C   0  0  0  0  0  0  0  0  0  0  0  0
    4.5576    1.9357   -1.5040 C   0  0  0  0  0  0  0  0  0  0  0  0
   -4.9123    0.5233   -0.7125 C   0  0  0  0  0  0  0  0  0  0  0  0
    4.1923   -1.8091   -0.7755 H   0  0  0  0  0  0  0  0  0  0  0  0
    5.0594   -1.5717    0.7599 H   0  0  0  0  0  0  0  0  0  0  0  0
    0.6524   -3.0194    1.5632 H   0  0  0  0  0  0  0  0  0  0  0  0
    0.9145   -1.3999    2.2633 H   0  0  0  0  0  0  0  0  0  0  0  0
    3.0649   -1.3733    1.9114 H   0  0  0  0  0  0  0  0  0  0  0  0
   -1.1244   -2.2487    0.3652 H   0  0  0  0  0  0  0  0  0  0  0  0
    4.4992    1.3713    1.7289 H   0  0  0  0  0  0  0  0  0  0  0  0
   -2.8669    1.6266    1.7597 H   0  0  0  0  0  0  0  0  0  0  0  0
   -2.2385   -1.4977   -1.1709 H   0  0  0  0  0  0  0  0  0  0  0  0
    4.7252    3.4977    0.0288 H   0  0  0  0  0  0  0  0  0  0  0  0
    4.6033    2.3703   -2.4918 H   0  0  0  0  0  0  0  0  0  0  0  0
   -5.8931    0.7163   -1.1365 H   0  0  0  0  0  0  0  0  0  0  0  0
  1 18  1  0  0  0  0
  2 19  1  0  0  0  0
  3 10  1  0  0  0  0
  3 20  1  0  0  0  0
  4 11  2  0  0  0  0
  5 13  2  0  0  0  0
  6  8  1  0  0  0  0
  6 11  1  0  0  0  0
  6 26  1  0  0  0  0
  7  9  1  0  0  0  0
  7 13  1  0  0  0  0
  7 27  1  0  0  0  0
  8 10  1  0  0  0  0
  8 22  1  0  0  0  0
  8 23  1  0  0  0  0
  9 11  1  0  0  0  0
  9 24  1  0  0  0  0
  9 25  1  0  0  0  0
 10 14  2  0  0  0  0
 12 13  1  0  0  0  0
 12 15  2  0  0  0  0
 12 16  1  0  0  0  0
 14 17  1  0  0  0  0
 14 28  1  0  0  0  0
 15 19  1  0  0  0  0
 15 29  1  0  0  0  0
 16 18  2  0  0  0  0
 16 30  1  0  0  0  0
 17 20  2  0  0  0  0
 17 31  1  0  0  0  0
 18 21  1  0  0  0  0
 19 21  2  0  0  0  0
 20 32  1  0  0  0  0
 21 33  1  0  0  0  0
M  END
> <PUBCHEM_COMPOUND_CID>
17395332

> <PUBCHEM_CONFORMER_RMSD>
0.8

> <PUBCHEM_CONFORMER_DIVERSEORDER>
1
232
151
68
94
124
208
147
6
101
69
45
242
155
188
29
95
198
175
205
202
133
113
88
158
228
50
231
3
17
65
42
247
106
86
36
55
227
234
240
74
84
7
233
204
211
24
110
28
131
121
182
209
23
105
92
64
215
20
169
10
170
125
166
235
129
19
104
85
226
66
49
225
164
193
141
81
91
53
139
195
13
176
194
160
78
16
51
87
54
83
46
192
111
12
56
132
31
230
61
144
217
185
150
241
11
32
249
77
40
218
122
219
41
59
120
52
168
165
112
190
163
93
210
135
97
108
137
212
25
244
90
35
102
186
127
142
221
128
183
107
161
216
207
33
76
82
199
224
145
4
2
214
138
154
44
80
96
73
237
178
67
126
223
134
22
250
181
60
118
8
203
179
148
43
100
117
109
63
14
130
70
239
62
75
174
116
149
115
252
236
34
79
71
9
152
114
253
162
156
5
47
37
123
57
196
197
72
177
238
243
136
213
143
140
146
15
222
220
157
26
103
187
206
200
159
184
38
48
171
30
99
189
229
251
39
167
21
248
18
58
173
98
191
245
246
89
172
119
180
201
153
27

> <PUBCHEM_MMFF94_PARTIAL_CHARGES>
29
1 -0.19
10 -0.04
11 0.57
12 0.09
13 0.54
14 -0.15
15 -0.15
16 -0.15
17 -0.15
18 0.19
19 0.19
2 -0.19
20 -0.01
21 -0.15
26 0.37
27 0.37
28 0.15
29 0.15
3 -0.28
30 0.15
31 0.15
32 0.15
33 0.15
4 -0.57
5 -0.57
6 -0.73
7 -0.73
8 0.48
9 0.36

> <PUBCHEM_EFFECTIVE_ROTOR_COUNT>
7

> <PUBCHEM_PHARMACOPHORE_FEATURES>
7
1 3 acceptor
1 4 acceptor
1 5 acceptor
1 6 donor
1 7 donor
5 3 10 14 17 20 rings
6 12 15 16 18 19 21 rings

> <PUBCHEM_HEAVY_ATOM_COUNT>
21

> <PUBCHEM_ATOM_DEF_STEREO_COUNT>
0

> <PUBCHEM_ATOM_UDEF_STEREO_COUNT>
0

> <PUBCHEM_BOND_DEF_STEREO_COUNT>
0

> <PUBCHEM_BOND_UDEF_STEREO_COUNT>
0

> <PUBCHEM_ISOTOPIC_ATOM_COUNT>
0

> <PUBCHEM_COMPONENT_COUNT>
1

> <PUBCHEM_CACTVS_TAUTO_COUNT>
4

> <PUBCHEM_CONFORMER_ID>
01096E8400000001

> <PUBCHEM_MMFF94_ENERGY>
32.0675

> <PUBCHEM_FEATURE_SELFOVERLAP>
35.52

> <PUBCHEM_SHAPE_FINGERPRINT>
10319926 262 13901915552052663121
10498660 4 18267574729149574504
10730089 43 16415194534493068406
10928967 22 7276564096158486500
11128504 68 18334017189548708947
12616971 3 18338520849316281827
12633257 1 15697441001797222764
12670546 177 18187087273275424663
12839892 36 12607397810930084929
12892183 10 13038906612338133238
13551218 46 8935002577093934241
13675066 3 15339117974228206091
14251732 14 17023467426067456263
14251740 57 10952053360094249752
14251757 5 17825114705191306879
14251758 9 9367083150371394027
14251764 30 6050455837499520060
14251764 75 17772169939412493860
14528608 73 18334577923520512756
14774955 27 18202563939214102940
14848178 96 18202000997887552380
15342168 16 18272643567203954459
17870717 6 16153427259991078117
17959699 21 18410854407935209505
193927 3 5112012759013754666
21033648 29 16343428379170590478
212916 134 15052020060666744778
21315764 119 17024014046676647988
21591340 35 14036807061906638950
22849339 104 16805614638048198151
22950370 63 8718835301270330354
23559900 14 17242455146837769671
25122255 55 5689007883207429309
2838139 119 18410292480790763296
3004659 81 17678178398164811094
3117164 225 10663283144527452919
341906 21 14979959193958728182
3472631 163 18263925608891667741
34797466 226 16226341330283988673
4259306 186 5689594983117838130
474 4 18272650151684329010
543368 44 18408608033134853673
633830 44 18341610468469190355
7970288 3 8141544375013589748
8509985 295 12823296805657677766
88748 71 6554598364797355044

> <PUBCHEM_SHAPE_MULTIPOLES>
390.05
13.4
2.39
1.53
0.43
0.28
0.49
7.96
3.52
-2.17
-0.23
0.99
-0.04
-1.82

> <PUBCHEM_SHAPE_SELFOVERLAP>
829.099

> <PUBCHEM_SHAPE_VOLUME>
217

> <PUBCHEM_COORDINATE_TYPE>
2
5
10

$$$$

