5280836
  -OEChem-07051212502D

123123  0     0  0  0  0  0  0999 V2000
    2.0000  -12.5000    0.0000 O   0  0  0  0  0  0  0  0  0  0  0  0
    2.0000  -10.5000    0.0000 O   0  0  0  0  0  0  0  0  0  0  0  0
    5.4641  -12.5000    0.0000 O   0  0  0  0  0  0  0  0  0  0  0  0
   10.6603    1.5000    0.0000 C   0  0  0  0  0  0  0  0  0  0  0  0
    8.9282   -1.5000    0.0000 C   0  0  0  0  0  0  0  0  0  0  0  0
    8.9282   -0.5000    0.0000 C   0  0  0  0  0  0  0  0  0  0  0  0
   10.6603    2.5000    0.0000 C   0  0  0  0  0  0  0  0  0  0  0  0
   12.3923    4.5000    0.0000 C   0  0  0  0  0  0  0  0  0  0  0  0
    7.1962   -4.5000    0.0000 C   0  0  0  0  0  0  0  0  0  0  0  0
    7.1962   -3.5000    0.0000 C   0  0  0  0  0  0  0  0  0  0  0  0
    9.7942    1.0000    0.0000 C   0  0  0  0  0  0  0  0  0  0  0  0
   12.3923    5.5000    0.0000 C   0  0  0  0  0  0  0  0  0  0  0  0
    8.0622   -2.0000    0.0000 C   0  0  0  0  0  0  0  0  0  0  0  0
   11.5263    4.0000    0.0000 C   0  0  0  0  0  0  0  0  0  0  0  0
    6.3301   -5.0000    0.0000 C   0  0  0  0  0  0  0  0  0  0  0  0
    9.7942    0.0000    0.0000 C   0  0  0  0  0  0  0  0  0  0  0  0
   14.1244    7.5000    0.0000 C   0  0  0  0  0  0  0  0  0  0  0  0
   11.5263    3.0000    0.0000 C   0  0  0  0  0  0  0  0  0  0  0  0
    8.0622   -3.0000    0.0000 C   0  0  0  0  0  0  0  0  0  0  0  0
   13.2583    7.0000    0.0000 C   0  0  0  0  0  0  0  0  0  0  0  0
    5.4641   -6.5000    0.0000 C   0  0  0  0  0  0  0  0  0  0  0  0
    5.4641   -7.5000    0.0000 C   0  0  0  0  0  0  0  0  0  0  0  0
   14.1244    8.5000    0.0000 C   0  0  0  0  0  0  0  0  0  0  0  0
   13.2583    6.0000    0.0000 C   0  0  0  0  0  0  0  0  0  0  0  0
    6.3301   -6.0000    0.0000 C   0  0  0  0  0  0  0  0  0  0  0  0
    4.5981   -8.0000    0.0000 C   0  0  0  0  0  0  0  0  0  0  0  0
    8.9282    1.5000    0.0000 C   0  0  0  0  0  0  0  0  0  0  0  0
    7.1962   -1.5000    0.0000 C   0  0  0  0  0  0  0  0  0  0  0  0
   14.9904    9.0000    0.0000 C   0  0  0  0  0  0  0  0  0  0  0  0
   10.6603    4.5000    0.0000 C   0  0  0  0  0  0  0  0  0  0  0  0
   14.9904   10.0000    0.0000 C   0  0  0  0  0  0  0  0  0  0  0  0
   15.8564   10.5000    0.0000 C   0  0  0  0  0  0  0  0  0  0  0  0
    5.4641   -4.5000    0.0000 C   0  0  0  0  0  0  0  0  0  0  0  0
    3.7320   -9.5000    0.0000 C   0  0  0  0  0  0  0  0  0  0  0  0
    4.5981   -9.0000    0.0000 C   0  0  0  0  0  0  0  0  0  0  0  0
   12.3923    7.5000    0.0000 C   0  0  0  0  0  0  0  0  0  0  0  0
    3.7320  -10.5000    0.0000 C   0  0  0  0  0  0  0  0  0  0  0  0
   15.8564   11.5000    0.0000 C   0  0  0  0  0  0  0  0  0  0  0  0
    3.7320   -7.5000    0.0000 C   0  0  0  0  0  0  0  0  0  0  0  0
   14.1244   10.5000    0.0000 C   0  0  0  0  0  0  0  0  0  0  0  0
    4.5981  -11.0000    0.0000 C   0  0  0  0  0  0  0  0  0  0  0  0
    2.8660  -11.0000    0.0000 C   0  0  0  0  0  0  0  0  0  0  0  0
   16.7224   12.0000    0.0000 C   0  0  0  0  0  0  0  0  0  0  0  0
    4.5981  -12.0000    0.0000 C   0  0  0  0  0  0  0  0  0  0  0  0
    2.8660  -12.0000    0.0000 C   0  0  0  0  0  0  0  0  0  0  0  0
    5.4641  -10.5000    0.0000 C   0  0  0  0  0  0  0  0  0  0  0  0
    3.7320  -12.5000    0.0000 C   0  0  0  0  0  0  0  0  0  0  0  0
   16.7224   13.0000    0.0000 C   0  0  0  0  0  0  0  0  0  0  0  0
   17.5885   13.5000    0.0000 C   0  0  0  0  0  0  0  0  0  0  0  0
   15.8564   13.5000    0.0000 C   0  0  0  0  0  0  0  0  0  0  0  0
    2.0000  -13.5000    0.0000 C   0  0  0  0  0  0  0  0  0  0  0  0
   10.8723    0.9174    0.0000 H   0  0  0  0  0  0  0  0  0  0  0  0
   11.2708    1.6077    0.0000 H   0  0  0  0  0  0  0  0  0  0  0  0
    9.1403   -2.0826    0.0000 H   0  0  0  0  0  0  0  0  0  0  0  0
    9.5388   -1.3923    0.0000 H   0  0  0  0  0  0  0  0  0  0  0  0
    8.7162    0.0826    0.0000 H   0  0  0  0  0  0  0  0  0  0  0  0
    8.3176   -0.6077    0.0000 H   0  0  0  0  0  0  0  0  0  0  0  0
   10.4482    3.0826    0.0000 H   0  0  0  0  0  0  0  0  0  0  0  0
   10.0497    2.3923    0.0000 H   0  0  0  0  0  0  0  0  0  0  0  0
   12.6044    3.9174    0.0000 H   0  0  0  0  0  0  0  0  0  0  0  0
   13.0029    4.6077    0.0000 H   0  0  0  0  0  0  0  0  0  0  0  0
    7.4082   -5.0826    0.0000 H   0  0  0  0  0  0  0  0  0  0  0  0
    7.8067   -4.3923    0.0000 H   0  0  0  0  0  0  0  0  0  0  0  0
    6.9841   -2.9174    0.0000 H   0  0  0  0  0  0  0  0  0  0  0  0
    6.5856   -3.6077    0.0000 H   0  0  0  0  0  0  0  0  0  0  0  0
   12.1803    6.0826    0.0000 H   0  0  0  0  0  0  0  0  0  0  0  0
   11.7817    5.3923    0.0000 H   0  0  0  0  0  0  0  0  0  0  0  0
   14.3364    6.9174    0.0000 H   0  0  0  0  0  0  0  0  0  0  0  0
   14.7349    7.6077    0.0000 H   0  0  0  0  0  0  0  0  0  0  0  0
   10.3312   -0.3100    0.0000 H   0  0  0  0  0  0  0  0  0  0  0  0
   12.0632    2.6900    0.0000 H   0  0  0  0  0  0  0  0  0  0  0  0
    8.5991   -3.3100    0.0000 H   0  0  0  0  0  0  0  0  0  0  0  0
    5.2520   -5.9174    0.0000 H   0  0  0  0  0  0  0  0  0  0  0  0
    4.8535   -6.6077    0.0000 H   0  0  0  0  0  0  0  0  0  0  0  0
    5.6762   -8.0826    0.0000 H   0  0  0  0  0  0  0  0  0  0  0  0
    6.0747   -7.3923    0.0000 H   0  0  0  0  0  0  0  0  0  0  0  0
   13.9123    9.0826    0.0000 H   0  0  0  0  0  0  0  0  0  0  0  0
   13.5138    8.3923    0.0000 H   0  0  0  0  0  0  0  0  0  0  0  0
   13.7953    5.6900    0.0000 H   0  0  0  0  0  0  0  0  0  0  0  0
    6.8671   -6.3100    0.0000 H   0  0  0  0  0  0  0  0  0  0  0  0
    9.2382    2.0369    0.0000 H   0  0  0  0  0  0  0  0  0  0  0  0
    8.3913    1.8100    0.0000 H   0  0  0  0  0  0  0  0  0  0  0  0
    8.6182    0.9631    0.0000 H   0  0  0  0  0  0  0  0  0  0  0  0
   15.5273    8.6900    0.0000 H   0  0  0  0  0  0  0  0  0  0  0  0
    7.5062   -0.9631    0.0000 H   0  0  0  0  0  0  0  0  0  0  0  0
    6.6592   -1.1900    0.0000 H   0  0  0  0  0  0  0  0  0  0  0  0
    6.8862   -2.0369    0.0000 H   0  0  0  0  0  0  0  0  0  0  0  0
   10.9703    5.0369    0.0000 H   0  0  0  0  0  0  0  0  0  0  0  0
   10.1233    4.8100    0.0000 H   0  0  0  0  0  0  0  0  0  0  0  0
   10.3503    3.9631    0.0000 H   0  0  0  0  0  0  0  0  0  0  0  0
   16.0685    9.9174    0.0000 H   0  0  0  0  0  0  0  0  0  0  0  0
   16.4670   10.6077    0.0000 H   0  0  0  0  0  0  0  0  0  0  0  0
    5.7741   -3.9631    0.0000 H   0  0  0  0  0  0  0  0  0  0  0  0
    4.9272   -4.1900    0.0000 H   0  0  0  0  0  0  0  0  0  0  0  0
    5.1541   -5.0369    0.0000 H   0  0  0  0  0  0  0  0  0  0  0  0
    3.5200   -8.9174    0.0000 H   0  0  0  0  0  0  0  0  0  0  0  0
    3.1215   -9.6077    0.0000 H   0  0  0  0  0  0  0  0  0  0  0  0
    5.1350   -9.3100    0.0000 H   0  0  0  0  0  0  0  0  0  0  0  0
   12.7023    8.0369    0.0000 H   0  0  0  0  0  0  0  0  0  0  0  0
   11.8554    7.8100    0.0000 H   0  0  0  0  0  0  0  0  0  0  0  0
   12.0823    6.9631    0.0000 H   0  0  0  0  0  0  0  0  0  0  0  0
   15.6444   12.0826    0.0000 H   0  0  0  0  0  0  0  0  0  0  0  0
   15.2458   11.3923    0.0000 H   0  0  0  0  0  0  0  0  0  0  0  0
    4.0420   -6.9631    0.0000 H   0  0  0  0  0  0  0  0  0  0  0  0
    3.1951   -7.1900    0.0000 H   0  0  0  0  0  0  0  0  0  0  0  0
    3.4220   -8.0369    0.0000 H   0  0  0  0  0  0  0  0  0  0  0  0
   14.4344   11.0369    0.0000 H   0  0  0  0  0  0  0  0  0  0  0  0
   13.5874   10.8100    0.0000 H   0  0  0  0  0  0  0  0  0  0  0  0
   13.8144    9.9631    0.0000 H   0  0  0  0  0  0  0  0  0  0  0  0
   17.2594   11.6900    0.0000 H   0  0  0  0  0  0  0  0  0  0  0  0
    5.7741  -11.0369    0.0000 H   0  0  0  0  0  0  0  0  0  0  0  0
    6.0010  -10.1900    0.0000 H   0  0  0  0  0  0  0  0  0  0  0  0
    5.1541   -9.9631    0.0000 H   0  0  0  0  0  0  0  0  0  0  0  0
    3.7320  -13.1200    0.0000 H   0  0  0  0  0  0  0  0  0  0  0  0
   17.8985   12.9631    0.0000 H   0  0  0  0  0  0  0  0  0  0  0  0
   18.1254   13.8100    0.0000 H   0  0  0  0  0  0  0  0  0  0  0  0
   17.2785   14.0369    0.0000 H   0  0  0  0  0  0  0  0  0  0  0  0
   16.1664   14.0369    0.0000 H   0  0  0  0  0  0  0  0  0  0  0  0
   15.3195   13.8100    0.0000 H   0  0  0  0  0  0  0  0  0  0  0  0
   15.5464   12.9631    0.0000 H   0  0  0  0  0  0  0  0  0  0  0  0
    1.3800  -13.5000    0.0000 H   0  0  0  0  0  0  0  0  0  0  0  0
    2.0000  -14.1200    0.0000 H   0  0  0  0  0  0  0  0  0  0  0  0
    2.6200  -13.5000    0.0000 H   0  0  0  0  0  0  0  0  0  0  0  0
  1 45  1  0  0  0  0
  1 51  1  0  0  0  0
  2 42  2  0  0  0  0
  3 44  2  0  0  0  0
  4  7  1  0  0  0  0
  4 11  1  0  0  0  0
  4 52  1  0  0  0  0
  4 53  1  0  0  0  0
  5  6  1  0  0  0  0
  5 13  1  0  0  0  0
  5 54  1  0  0  0  0
  5 55  1  0  0  0  0
  6 16  1  0  0  0  0
  6 56  1  0  0  0  0
  6 57  1  0  0  0  0
  7 18  1  0  0  0  0
  7 58  1  0  0  0  0
  7 59  1  0  0  0  0
  8 12  1  0  0  0  0
  8 14  1  0  0  0  0
  8 60  1  0  0  0  0
  8 61  1  0  0  0  0
  9 10  1  0  0  0  0
  9 15  1  0  0  0  0
  9 62  1  0  0  0  0
  9 63  1  0  0  0  0
 10 19  1  0  0  0  0
 10 64  1  0  0  0  0
 10 65  1  0  0  0  0
 11 16  2  0  0  0  0
 11 27  1  0  0  0  0
 12 24  1  0  0  0  0
 12 66  1  0  0  0  0
 12 67  1  0  0  0  0
 13 19  2  0  0  0  0
 13 28  1  0  0  0  0
 14 18  2  0  0  0  0
 14 30  1  0  0  0  0
 15 25  2  0  0  0  0
 15 33  1  0  0  0  0
 16 70  1  0  0  0  0
 17 20  1  0  0  0  0
 17 23  1  0  0  0  0
 17 68  1  0  0  0  0
 17 69  1  0  0  0  0
 18 71  1  0  0  0  0
 19 72  1  0  0  0  0
 20 24  2  0  0  0  0
 20 36  1  0  0  0  0
 21 22  1  0  0  0  0
 21 25  1  0  0  0  0
 21 73  1  0  0  0  0
 21 74  1  0  0  0  0
 22 26  1  0  0  0  0
 22 75  1  0  0  0  0
 22 76  1  0  0  0  0
 23 29  1  0  0  0  0
 23 77  1  0  0  0  0
 23 78  1  0  0  0  0
 24 79  1  0  0  0  0
 25 80  1  0  0  0  0
 26 35  2  0  0  0  0
 26 39  1  0  0  0  0
 27 81  1  0  0  0  0
 27 82  1  0  0  0  0
 27 83  1  0  0  0  0
 28 85  1  0  0  0  0
 28 86  1  0  0  0  0
 28 87  1  0  0  0  0
 29 31  2  0  0  0  0
 29 84  1  0  0  0  0
 30 88  1  0  0  0  0
 30 89  1  0  0  0  0
 30 90  1  0  0  0  0
 31 32  1  0  0  0  0
 31 40  1  0  0  0  0
 32 38  1  0  0  0  0
 32 91  1  0  0  0  0
 32 92  1  0  0  0  0
 33 93  1  0  0  0  0
 33 94  1  0  0  0  0
 33 95  1  0  0  0  0
 34 35  1  0  0  0  0
 34 37  1  0  0  0  0
 34 96  1  0  0  0  0
 34 97  1  0  0  0  0
 35 98  1  0  0  0  0
 36 99  1  0  0  0  0
 36100  1  0  0  0  0
 36101  1  0  0  0  0
 37 41  2  0  0  0  0
 37 42  1  0  0  0  0
 38 43  1  0  0  0  0
 38102  1  0  0  0  0
 38103  1  0  0  0  0
 39104  1  0  0  0  0
 39105  1  0  0  0  0
 39106  1  0  0  0  0
 40107  1  0  0  0  0
 40108  1  0  0  0  0
 40109  1  0  0  0  0
 41 44  1  0  0  0  0
 41 46  1  0  0  0  0
 42 45  1  0  0  0  0
 43 48  2  0  0  0  0
 43110  1  0  0  0  0
 44 47  1  0  0  0  0
 45 47  2  0  0  0  0
 46111  1  0  0  0  0
 46112  1  0  0  0  0
 46113  1  0  0  0  0
 47114  1  0  0  0  0
 48 49  1  0  0  0  0
 48 50  1  0  0  0  0
 49115  1  0  0  0  0
 49116  1  0  0  0  0
 49117  1  0  0  0  0
 50118  1  0  0  0  0
 50119  1  0  0  0  0
 50120  1  0  0  0  0
 51121  1  0  0  0  0
 51122  1  0  0  0  0
 51123  1  0  0  0  0
M  END
> <PUBCHEM_COMPOUND_CID>
5280836

> <PUBCHEM_COMPOUND_CANONICALIZED>
1

> <PUBCHEM_CACTVS_COMPLEXITY>
1450

> <PUBCHEM_CACTVS_HBOND_ACCEPTOR>
3

> <PUBCHEM_CACTVS_HBOND_DONOR>
0

> <PUBCHEM_CACTVS_ROTATABLE_BOND>
24

> <PUBCHEM_CACTVS_SUBSKEYS>
AAADcfB8MAAAAAAAAAAAAAAAAAAAAAAAAAAgAAAAAAAAAAAAAAAAGgAAAAAADASAgAICAAAABACIAqBSAAIACAAgIAAACAFAAEgAABIAAQQAAAAEwAAIAYKAAAAAAAAAAAAAAAAAAAAAAAAAAAAAAAAAAA==

> <PUBCHEM_IUPAC_OPENEYE_NAME>
5-methoxy-2-methyl-3-[(2E,6E,10E,14E,18E,22E,26E)-3,7,11,15,19,23,27,31-octamethyldotriaconta-2,6,10,14,18,22,26,30-octaenyl]-1,4-benzoquinone

> <PUBCHEM_IUPAC_CAS_NAME>
5-methoxy-2-methyl-3-[(2E,6E,10E,14E,18E,22E,26E)-3,7,11,15,19,23,27,31-octamethyldotriaconta-2,6,10,14,18,22,26,30-octaenyl]cyclohexa-2,5-diene-1,4-dione

> <PUBCHEM_IUPAC_NAME>
5-methoxy-2-methyl-3-[(2E,6E,10E,14E,18E,22E,26E)-3,7,11,15,19,23,27,31-octamethyldotriaconta-2,6,10,14,18,22,26,30-octaenyl]cyclohexa-2,5-diene-1,4-dione

> <PUBCHEM_IUPAC_SYSTEMATIC_NAME>
5-methoxy-2-methyl-3-[(2E,6E,10E,14E,18E,22E,26E)-3,7,11,15,19,23,27,31-octamethyldotriaconta-2,6,10,14,18,22,26,30-octaenyl]cyclohexa-2,5-diene-1,4-dione

> <PUBCHEM_IUPAC_TRADITIONAL_NAME>
5-methoxy-2-methyl-3-[(2E,6E,10E,14E,18E,22E,26E)-3,7,11,15,19,23,27,31-octamethyldotriaconta-2,6,10,14,18,22,26,30-octaenyl]-p-benzoquinone

> <PUBCHEM_IUPAC_INCHI>
InChI=1S/C48H72O3/c1-36(2)19-12-20-37(3)21-13-22-38(4)23-14-24-39(5)25-15-26-40(6)27-16-28-41(7)29-17-30-42(8)31-18-32-43(9)33-34-45-44(10)46(49)35-47(51-11)48(45)50/h19,21,23,25,27,29,31,33,35H,12-18,20,22,24,26,28,30,32,34H2,1-11H3/b37-21+,38-23+,39-25+,40-27+,41-29+,42-31+,43-33+

> <PUBCHEM_IUPAC_INCHIKEY>
FLYBTLROCQBHMR-KFSSTAEESA-N

> <PUBCHEM_XLOGP3_AA>
15.5

> <PUBCHEM_EXACT_MASS>
696.548146

> <PUBCHEM_MOLECULAR_FORMULA>
C48H72O3

> <PUBCHEM_MOLECULAR_WEIGHT>
697.08348

> <PUBCHEM_OPENEYE_CAN_SMILES>
CC1=C(C(=O)C(=CC1=O)OC)CC=C(C)CCC=C(C)CCC=C(C)CCC=C(C)CCC=C(C)CCC=C(C)CCC=C(C)CCC=C(C)C

> <PUBCHEM_OPENEYE_ISO_SMILES>
CC1=C(C(=O)C(=CC1=O)OC)C/C=C(\C)/CC/C=C(\C)/CC/C=C(\C)/CC/C=C(\C)/CC/C=C(\C)/CC/C=C(\C)/CC/C=C(\C)/CCC=C(C)C

> <PUBCHEM_CACTVS_TPSA>
43.4

> <PUBCHEM_MONOISOTOPIC_WEIGHT>
696.548146

> <PUBCHEM_TOTAL_CHARGE>
0

> <PUBCHEM_HEAVY_ATOM_COUNT>
51

> <PUBCHEM_ATOM_DEF_STEREO_COUNT>
0

> <PUBCHEM_ATOM_UDEF_STEREO_COUNT>
0

> <PUBCHEM_BOND_DEF_STEREO_COUNT>
7

> <PUBCHEM_BOND_UDEF_STEREO_COUNT>
0

> <PUBCHEM_ISOTOPIC_ATOM_COUNT>
0

> <PUBCHEM_COMPONENT_COUNT>
1

> <PUBCHEM_CACTVS_TAUTO_COUNT>
57

> <PUBCHEM_COORDINATE_TYPE>
1
5
255

$$$$

