4501
  -OEChem-07051212573D

 44 48  0     0  0  0  0  0  0999 V2000
    5.5142   -1.4125    0.1150 O   0  0  0  0  0  0  0  0  0  0  0  0
    6.1205    0.9086   -0.0955 O   0  0  0  0  0  0  0  0  0  0  0  0
   -5.1283    1.6838   -0.1389 O   0  0  0  0  0  0  0  0  0  0  0  0
   -5.7031   -1.0224    0.1066 O   0  0  0  0  0  0  0  0  0  0  0  0
    0.2704   -1.6256    0.1453 N   0  3  0  0  0  0  0  0  0  0  0  0
    0.6798   -0.3448    0.0291 C   0  0  0  0  0  0  0  0  0  0  0  0
   -0.3226    0.6631   -0.0595 C   0  0  0  0  0  0  0  0  0  0  0  0
    2.0749   -0.0301   -0.0023 C   0  0  0  0  0  0  0  0  0  0  0  0
   -1.7080    0.2869   -0.0224 C   0  0  0  0  0  0  0  0  0  0  0  0
    2.4603    1.3369   -0.1267 C   0  0  0  0  0  0  0  0  0  0  0  0
   -2.0352   -1.0792    0.1014 C   0  0  0  0  0  0  0  0  0  0  0  0
   -1.0088   -2.0056    0.1822 C   0  0  0  0  0  0  0  0  0  0  0  0
    0.1220    1.9946   -0.1807 C   0  0  0  0  0  0  0  0  0  0  0  0
    3.1070   -0.9994    0.0829 C   0  0  0  0  0  0  0  0  0  0  0  0
    1.4779    2.3233   -0.2135 C   0  0  0  0  0  0  0  0  0  0  0  0
    3.8167    1.7086   -0.1632 C   0  0  0  0  0  0  0  0  0  0  0  0
    4.4277   -0.5958    0.0439 C   0  0  0  0  0  0  0  0  0  0  0  0
   -2.7957    1.1941   -0.1015 C   0  0  0  0  0  0  0  0  0  0  0  0
    4.7734    0.7228   -0.0763 C   0  0  0  0  0  0  0  0  0  0  0  0
   -3.3735   -1.5053    0.1435 C   0  0  0  0  0  0  0  0  0  0  0  0
    1.1078   -2.8196    0.2495 C   0  0  0  0  0  0  0  0  0  0  0  0
   -4.1255    0.7648   -0.0588 C   0  0  0  0  0  0  0  0  0  0  0  0
   -4.4144   -0.5862    0.0637 C   0  0  0  0  0  0  0  0  0  0  0  0
    6.5854   -0.4512    0.0261 C   0  0  0  0  0  0  0  0  0  0  0  0
   -5.6017    2.2348    1.0883 C   0  0  0  0  0  0  0  0  0  0  0  0
   -6.3213   -1.3445   -1.1383 C   0  0  0  0  0  0  0  0  0  0  0  0
   -1.2517   -3.0608    0.2780 H   0  0  0  0  0  0  0  0  0  0  0  0
   -0.5812    2.8203   -0.2535 H   0  0  0  0  0  0  0  0  0  0  0  0
    3.0671   -2.0610    0.1797 H   0  0  0  0  0  0  0  0  0  0  0  0
    1.7522    3.3726   -0.3088 H   0  0  0  0  0  0  0  0  0  0  0  0
    4.1154    2.7490   -0.2577 H   0  0  0  0  0  0  0  0  0  0  0  0
   -2.6206    2.2628   -0.1996 H   0  0  0  0  0  0  0  0  0  0  0  0
   -3.6097   -2.5639    0.2404 H   0  0  0  0  0  0  0  0  0  0  0  0
    1.6554   -2.9476   -0.6887 H   0  0  0  0  0  0  0  0  0  0  0  0
    1.6583   -2.7810    1.1938 H   0  0  0  0  0  0  0  0  0  0  0  0
    0.5267   -3.7466    0.3321 H   0  0  0  0  0  0  0  0  0  0  0  0
    7.2015   -0.6914   -0.8480 H   0  0  0  0  0  0  0  0  0  0  0  0
    7.2051   -0.5315    0.9267 H   0  0  0  0  0  0  0  0  0  0  0  0
   -6.0064    1.4484    1.7332 H   0  0  0  0  0  0  0  0  0  0  0  0
   -6.4011    2.9447    0.8592 H   0  0  0  0  0  0  0  0  0  0  0  0
   -4.7972    2.7678    1.6049 H   0  0  0  0  0  0  0  0  0  0  0  0
   -7.3458   -1.6698   -0.9378 H   0  0  0  0  0  0  0  0  0  0  0  0
   -5.7850   -2.1606   -1.6327 H   0  0  0  0  0  0  0  0  0  0  0  0
   -6.3542   -0.4662   -1.7907 H   0  0  0  0  0  0  0  0  0  0  0  0
  1 17  1  0  0  0  0
  1 24  1  0  0  0  0
  2 19  1  0  0  0  0
  2 24  1  0  0  0  0
  3 22  1  0  0  0  0
  3 25  1  0  0  0  0
  4 23  1  0  0  0  0
  4 26  1  0  0  0  0
  5  6  1  0  0  0  0
  5 12  2  0  0  0  0
  5 21  1  0  0  0  0
  6  7  2  0  0  0  0
  6  8  1  0  0  0  0
  7  9  1  0  0  0  0
  7 13  1  0  0  0  0
  8 10  1  0  0  0  0
  8 14  2  0  0  0  0
  9 11  1  0  0  0  0
  9 18  2  0  0  0  0
 10 15  1  0  0  0  0
 10 16  2  0  0  0  0
 11 12  1  0  0  0  0
 11 20  2  0  0  0  0
 12 27  1  0  0  0  0
 13 15  2  0  0  0  0
 13 28  1  0  0  0  0
 14 17  1  0  0  0  0
 14 29  1  0  0  0  0
 15 30  1  0  0  0  0
 16 19  1  0  0  0  0
 16 31  1  0  0  0  0
 17 19  2  0  0  0  0
 18 22  1  0  0  0  0
 18 32  1  0  0  0  0
 20 23  1  0  0  0  0
 20 33  1  0  0  0  0
 21 34  1  0  0  0  0
 21 35  1  0  0  0  0
 21 36  1  0  0  0  0
 22 23  2  0  0  0  0
 24 37  1  0  0  0  0
 24 38  1  0  0  0  0
 25 39  1  0  0  0  0
 25 40  1  0  0  0  0
 25 41  1  0  0  0  0
 26 42  1  0  0  0  0
 26 43  1  0  0  0  0
 26 44  1  0  0  0  0
M  CHG  1   5   1
M  END
> <PUBCHEM_COMPOUND_CID>
4501

> <PUBCHEM_CONFORMER_RMSD>
0.6

> <PUBCHEM_CONFORMER_DIVERSEORDER>
1
2

> <PUBCHEM_MMFF94_PARTIAL_CHARGES>
28
1 -0.36
12 0.21
13 -0.15
14 -0.15
15 -0.15
16 -0.15
17 0.08
18 -0.15
19 0.08
2 -0.36
20 -0.15
21 0.49
22 0.08
23 0.08
24 0.56
25 0.28
26 0.28
27 0.15
28 0.15
29 0.15
3 -0.36
30 0.15
31 0.15
32 0.15
33 0.15
4 -0.36
5 -0.21
6 0.36

> <PUBCHEM_EFFECTIVE_ROTOR_COUNT>
2.6

> <PUBCHEM_PHARMACOPHORE_FEATURES>
9
1 1 acceptor
1 2 acceptor
1 3 acceptor
1 4 acceptor
5 1 2 17 19 24 rings
6 5 6 7 9 11 12 rings
6 6 7 8 10 13 15 rings
6 8 10 14 16 17 19 rings
6 9 11 18 20 22 23 rings

> <PUBCHEM_HEAVY_ATOM_COUNT>
26

> <PUBCHEM_ATOM_DEF_STEREO_COUNT>
0

> <PUBCHEM_ATOM_UDEF_STEREO_COUNT>
0

> <PUBCHEM_BOND_DEF_STEREO_COUNT>
0

> <PUBCHEM_BOND_UDEF_STEREO_COUNT>
0

> <PUBCHEM_ISOTOPIC_ATOM_COUNT>
0

> <PUBCHEM_COMPONENT_COUNT>
1

> <PUBCHEM_CACTVS_TAUTO_COUNT>
1

> <PUBCHEM_CONFORMER_ID>
0000119500000001

> <PUBCHEM_MMFF94_ENERGY>
137.9596

> <PUBCHEM_FEATURE_SELFOVERLAP>
45.901

> <PUBCHEM_SHAPE_FINGERPRINT>
10906281 52 18268973389248857526
11578080 2 16628576914793439215
12011746 2 18271811202542184703
12107183 9 17763183939630119753
12166972 35 18187928335320459129
12236239 1 18186801387298709712
12403260 363 18337108961028644837
12516196 113 18187086144079093912
12838862 33 18268448870958316800
13140716 1 18412258406942852080
13402501 40 18412826884819701094
13862211 1 18412267246354870562
14251764 18 18411699872194568840
14790565 3 18412821382819291612
14849402 71 18337383834066440289
15099037 51 18412544306031153070
15131766 46 15982840067088323852
15183329 4 18343304772900503056
15196674 1 18411699876547623368
1601671 61 18411419548327115888
1813 80 17060624378283876564
18681886 176 18335428928108336433
19591789 44 18412546474683656422
200 152 18114183025145407145
20028762 73 18260270724355633398
21033648 29 17895207579487072394
21130935 74 18333452066906656858
21236236 1 18409730664713755453
21267235 1 18412257316137255139
21279426 13 18339360884990018142
21421861 104 17915746585659342170
21682296 61 18335693996590109678
21709351 56 18412832386873527653
23402539 116 18334298668846689468
23522609 53 18197187378657509636
23559900 14 18268155258182572721
23569917 315 18411696578008654130
3004659 81 18273494577278995140
3178227 256 18342164536846767451
335352 9 18411981373489664404
34797466 226 16877937184070693756
34934 24 18410576231472464751
350125 39 18412262839475929189
3680242 22 18271810185146612954
38695281 34 18259984898555907343
4073 2 17988357058289946770
4214541 1 18411136931147807589
4325135 7 18333453132290310703
5104073 3 18412826867312986480
6138700 20 18341049705176225530
6328613 192 18271237223682777956
7226269 152 18040712601895620137
7495541 125 16805889464141331091
9996256 80 18408604734483932319

> <PUBCHEM_SHAPE_MULTIPOLES>
506.61
14.82
2.55
0.71
0.14
0.03
0.01
-0.44
0.49
-0.93
-0.18
-0.59
-0.04
-1

> <PUBCHEM_SHAPE_SELFOVERLAP>
1157.761

> <PUBCHEM_SHAPE_VOLUME>
265.7

> <PUBCHEM_COORDINATE_TYPE>
2
5
10

$$$$

