4930
  -OEChem-07051213023D

 36 37  0     1  0  0  0  0  0999 V2000
   -1.6445    1.0706   -1.8551 O   0  0  0  0  0  0  0  0  0  0  0  0
   -3.7216    0.3355    0.0008 N   0  0  0  0  0  0  0  0  0  0  0  0
   -1.4204    1.1571   -0.4416 C   0  0  1  0  0  0  0  0  0  0  0  0
   -2.3039    0.1225    0.2830 C   0  0  0  0  0  0  0  0  0  0  0  0
    0.0311    0.9508   -0.1663 C   0  0  0  0  0  0  0  0  0  0  0  0
   -4.5388   -0.6553    0.6844 C   0  0  0  0  0  0  0  0  0  0  0  0
    0.6314   -0.2715   -0.4697 C   0  0  0  0  0  0  0  0  0  0  0  0
    1.9966   -0.4819   -0.2161 C   0  0  0  0  0  0  0  0  0  0  0  0
    0.7854    1.9775    0.3940 C   0  0  0  0  0  0  0  0  0  0  0  0
    2.7638    0.5622    0.3533 C   0  0  0  0  0  0  0  0  0  0  0  0
   -4.1593   -2.0608    0.2266 C   0  0  0  0  0  0  0  0  0  0  0  0
   -6.0130   -0.3708    0.4155 C   0  0  0  0  0  0  0  0  0  0  0  0
    2.1430    1.7859    0.6527 C   0  0  0  0  0  0  0  0  0  0  0  0
    2.6172   -1.7056   -0.5153 C   0  0  0  0  0  0  0  0  0  0  0  0
    4.1291    0.3518    0.6068 C   0  0  0  0  0  0  0  0  0  0  0  0
    3.9746   -1.8973   -0.2564 C   0  0  0  0  0  0  0  0  0  0  0  0
    4.7293   -0.8707    0.3034 C   0  0  0  0  0  0  0  0  0  0  0  0
   -1.7240    2.1663   -0.1360 H   0  0  0  0  0  0  0  0  0  0  0  0
   -2.1143    0.1704    1.3628 H   0  0  0  0  0  0  0  0  0  0  0  0
   -2.0055   -0.8662   -0.0742 H   0  0  0  0  0  0  0  0  0  0  0  0
   -4.3847   -0.5835    1.7688 H   0  0  0  0  0  0  0  0  0  0  0  0
   -3.9911    1.2735    0.2964 H   0  0  0  0  0  0  0  0  0  0  0  0
    0.0476   -1.0700   -0.9235 H   0  0  0  0  0  0  0  0  0  0  0  0
    0.3324    2.9352    0.6364 H   0  0  0  0  0  0  0  0  0  0  0  0
   -4.9136   -2.7842    0.5583 H   0  0  0  0  0  0  0  0  0  0  0  0
   -4.1018   -2.1337   -0.8656 H   0  0  0  0  0  0  0  0  0  0  0  0
   -3.2100   -2.3994    0.6537 H   0  0  0  0  0  0  0  0  0  0  0  0
   -6.2909    0.6314    0.7608 H   0  0  0  0  0  0  0  0  0  0  0  0
   -6.6494   -1.0893    0.9432 H   0  0  0  0  0  0  0  0  0  0  0  0
   -6.2464   -0.4375   -0.6533 H   0  0  0  0  0  0  0  0  0  0  0  0
    2.7133    2.6023    1.0910 H   0  0  0  0  0  0  0  0  0  0  0  0
    2.0472   -2.5224   -0.9532 H   0  0  0  0  0  0  0  0  0  0  0  0
   -2.5999    1.1766   -2.0030 H   0  0  0  0  0  0  0  0  0  0  0  0
    4.7382    1.1403    1.0439 H   0  0  0  0  0  0  0  0  0  0  0  0
    4.4423   -2.8487   -0.4924 H   0  0  0  0  0  0  0  0  0  0  0  0
    5.7860   -1.0207    0.5045 H   0  0  0  0  0  0  0  0  0  0  0  0
  1  3  1  0  0  0  0
  1 33  1  0  0  0  0
  2  4  1  0  0  0  0
  2  6  1  0  0  0  0
  2 22  1  0  0  0  0
  3  4  1  0  0  0  0
  3  5  1  0  0  0  0
  3 18  1  0  0  0  0
  4 19  1  0  0  0  0
  4 20  1  0  0  0  0
  5  7  2  0  0  0  0
  5  9  1  0  0  0  0
  6 11  1  0  0  0  0
  6 12  1  0  0  0  0
  6 21  1  0  0  0  0
  7  8  1  0  0  0  0
  7 23  1  0  0  0  0
  8 10  1  0  0  0  0
  8 14  2  0  0  0  0
  9 13  2  0  0  0  0
  9 24  1  0  0  0  0
 10 13  1  0  0  0  0
 10 15  2  0  0  0  0
 11 25  1  0  0  0  0
 11 26  1  0  0  0  0
 11 27  1  0  0  0  0
 12 28  1  0  0  0  0
 12 29  1  0  0  0  0
 12 30  1  0  0  0  0
 13 31  1  0  0  0  0
 14 16  1  0  0  0  0
 14 32  1  0  0  0  0
 15 17  1  0  0  0  0
 15 34  1  0  0  0  0
 16 17  2  0  0  0  0
 16 35  1  0  0  0  0
 17 36  1  0  0  0  0
M  END
> <PUBCHEM_COMPOUND_CID>
4930

> <PUBCHEM_CONFORMER_RMSD>
0.6

> <PUBCHEM_CONFORMER_DIVERSEORDER>
1
8
31
37
13
17
38
39
9
34
20
33
12
23
6
16
14
42
2
18
40
10
22
19
32
36
27
26
7
28
30
11
15
5
35
3
21
24
29
41
4
25

> <PUBCHEM_MMFF94_PARTIAL_CHARGES>
22
1 -0.68
13 -0.15
14 -0.15
15 -0.15
16 -0.15
17 -0.15
2 -0.9
22 0.36
23 0.15
24 0.15
3 0.42
31 0.15
32 0.15
33 0.4
34 0.15
35 0.15
36 0.15
4 0.27
5 -0.14
6 0.27
7 -0.15
9 -0.15

> <PUBCHEM_EFFECTIVE_ROTOR_COUNT>
4

> <PUBCHEM_PHARMACOPHORE_FEATURES>
7
1 1 acceptor
1 1 donor
1 2 cation
1 2 donor
3 6 11 12 hydrophobe
6 5 7 8 9 10 13 rings
6 8 10 14 15 16 17 rings

> <PUBCHEM_HEAVY_ATOM_COUNT>
17

> <PUBCHEM_ATOM_DEF_STEREO_COUNT>
0

> <PUBCHEM_ATOM_UDEF_STEREO_COUNT>
1

> <PUBCHEM_BOND_DEF_STEREO_COUNT>
0

> <PUBCHEM_BOND_UDEF_STEREO_COUNT>
0

> <PUBCHEM_ISOTOPIC_ATOM_COUNT>
0

> <PUBCHEM_COMPONENT_COUNT>
1

> <PUBCHEM_CACTVS_TAUTO_COUNT>
1

> <PUBCHEM_CONFORMER_ID>
0000134200000001

> <PUBCHEM_MMFF94_ENERGY>
36.6584

> <PUBCHEM_FEATURE_SELFOVERLAP>
35.549

> <PUBCHEM_SHAPE_FINGERPRINT>
10693767 8 12678921055423771416
11796584 16 17557720341232493738
12032990 46 18337391647075181140
12236239 1 16805608057767968013
12251169 10 18113054917846881575
12596602 18 16443068257542019475
13464513 79 18413670201811801082
13675066 3 17676774248627142976
13685833 64 18271800204033026411
13740256 8 18410290333080164466
14252887 29 17749384905962356094
14341114 176 18260822700846214169
14386348 63 18343864420309053355
14790565 3 17402328174944179700
15375462 189 17749117698761514056
15422964 175 18262797492327766316
15475509 84 17676479601065280041
15527383 91 18333449837575582161
15885798 251 18411415129101518289
16752209 62 15985116214554923341
16945 1 18115605828348306460
17959699 21 9871754589436942111
1813 80 17561079194472795197
18785283 64 18266747870462155616
19141452 34 18410854335685864051
19862831 5 13973962103792976193
200 152 18113344115507249085
20028762 73 17968100785362712815
20261772 1 17967255282147167630
20281475 54 18341044151540619981
20374829 77 18060702788693223067
20645477 70 18341333314208012673
21041028 32 18040998483424458160
21267235 1 18261668273002294254
21673915 165 18263366889048860279
221490 88 18340482257822138427
23402539 116 16271931544610421909
23557571 272 17704078399315489804
23559900 14 18410859815779251969
26918003 58 18260829289568600369
2748010 2 17754751734261382652
2871803 45 18060422434270570507
31174 14 18336551533923416944
316301 35 18200876175495866427
3286 77 18409727352782546737
3421961 26 18408041792898867312
4047638 21 7853574608364289528
4214541 1 18409165541549307953
4325135 7 18060414695272058420
465052 167 18334006185837338998
5104073 3 18116441525793825258
5352402 22 18334289889970543975
83771 10 18411980282003663285
9709674 26 18198619930981515923

> <PUBCHEM_SHAPE_MULTIPOLES>
339
11.11
2.01
0.92
11.39
0.22
-0.25
5.54
2.52
-0.84
0.02
0.23
-0.18
0.87

> <PUBCHEM_SHAPE_SELFOVERLAP>
713.107

> <PUBCHEM_SHAPE_VOLUME>
192.8

> <PUBCHEM_COORDINATE_TYPE>
2
5
10

$$$$

