442481
  -OEChem-07051212583D

 46 49  0     1  0  0  0  0  0999 V2000
    2.7295   -1.2469   -1.4640 O   0  0  0  0  0  0  0  0  0  0  0  0
   -2.8422   -1.4062    1.7588 O   0  0  0  0  0  0  0  0  0  0  0  0
    0.5993   -0.1165    0.5174 N   0  0  2  0  0  0  0  0  0  0  0  0
   -1.7568   -0.3603   -0.0137 N   0  0  0  0  0  0  0  0  0  0  0  0
    0.7236    0.9695   -0.4708 C   0  0  1  0  0  0  0  0  0  0  0  0
    1.8671   -0.8219    0.8020 C   0  0  2  0  0  0  0  0  0  0  0  0
   -0.4867   -1.0745    0.2224 C   0  0  1  0  0  0  0  0  0  0  0  0
   -1.7155    0.6855   -1.0489 C   0  0  2  0  0  0  0  0  0  0  0  0
   -0.6275    1.6900   -0.6556 C   0  0  0  0  0  0  0  0  0  0  0  0
    1.7792    1.9940   -0.0263 C   0  0  0  0  0  0  0  0  0  0  0  0
    2.9952    0.1619    1.1681 C   0  0  0  0  0  0  0  0  0  0  0  0
    3.1422    1.3369    0.1972 C   0  0  2  0  0  0  0  0  0  0  0  0
    2.2796   -1.8661   -0.2658 C   0  0  1  0  0  0  0  0  0  0  0  0
   -0.1515   -2.0596   -0.9085 C   0  0  0  0  0  0  0  0  0  0  0  0
    1.1308   -2.8240   -0.5881 C   0  0  0  0  0  0  0  0  0  0  0  0
   -3.0544    1.3670   -1.3265 C   0  0  0  0  0  0  0  0  0  0  0  0
   -2.8363   -0.5755    0.8458 C   0  0  0  0  0  0  0  0  0  0  0  0
   -3.8356    1.5743   -0.0461 C   0  0  0  0  0  0  0  0  0  0  0  0
    4.1561    2.3521    0.7233 C   0  0  0  0  0  0  0  0  0  0  0  0
   -4.0960    0.2203    0.5792 C   0  0  0  0  0  0  0  0  0  0  0  0
    1.0217    0.5681   -1.4469 H   0  0  0  0  0  0  0  0  0  0  0  0
    1.6879   -1.4019    1.7198 H   0  0  0  0  0  0  0  0  0  0  0  0
   -0.6193   -1.6758    1.1305 H   0  0  0  0  0  0  0  0  0  0  0  0
   -1.4106    0.2025   -1.9855 H   0  0  0  0  0  0  0  0  0  0  0  0
   -0.5298    2.4583   -1.4325 H   0  0  0  0  0  0  0  0  0  0  0  0
   -0.9045    2.2042    0.2742 H   0  0  0  0  0  0  0  0  0  0  0  0
    1.4514    2.4900    0.8977 H   0  0  0  0  0  0  0  0  0  0  0  0
    1.8732    2.7795   -0.7867 H   0  0  0  0  0  0  0  0  0  0  0  0
    3.9480   -0.3757    1.2507 H   0  0  0  0  0  0  0  0  0  0  0  0
    2.7835    0.5609    2.1704 H   0  0  0  0  0  0  0  0  0  0  0  0
    3.5182    0.9715   -0.7647 H   0  0  0  0  0  0  0  0  0  0  0  0
    3.1242   -2.4494    0.1210 H   0  0  0  0  0  0  0  0  0  0  0  0
   -0.0357   -1.5442   -1.8686 H   0  0  0  0  0  0  0  0  0  0  0  0
   -0.9767   -2.7704   -1.0384 H   0  0  0  0  0  0  0  0  0  0  0  0
    0.9523   -3.4805    0.2724 H   0  0  0  0  0  0  0  0  0  0  0  0
    1.3891   -3.4626   -1.4406 H   0  0  0  0  0  0  0  0  0  0  0  0
   -3.6444    0.7324   -2.0012 H   0  0  0  0  0  0  0  0  0  0  0  0
   -2.9086    2.3199   -1.8478 H   0  0  0  0  0  0  0  0  0  0  0  0
   -4.7869    2.0722   -0.2635 H   0  0  0  0  0  0  0  0  0  0  0  0
   -3.2806    2.2175    0.6461 H   0  0  0  0  0  0  0  0  0  0  0  0
    4.2772    3.1802    0.0171 H   0  0  0  0  0  0  0  0  0  0  0  0
    3.8410    2.7714    1.6849 H   0  0  0  0  0  0  0  0  0  0  0  0
    5.1362    1.8839    0.8630 H   0  0  0  0  0  0  0  0  0  0  0  0
   -4.7399   -0.3867   -0.0682 H   0  0  0  0  0  0  0  0  0  0  0  0
   -4.6205    0.3601    1.5314 H   0  0  0  0  0  0  0  0  0  0  0  0
    3.0069   -1.9504   -2.0752 H   0  0  0  0  0  0  0  0  0  0  0  0
  1 13  1  0  0  0  0
  1 46  1  0  0  0  0
  2 17  2  0  0  0  0
  3  5  1  0  0  0  0
  3  6  1  0  0  0  0
  3  7  1  0  0  0  0
  4  7  1  0  0  0  0
  4  8  1  0  0  0  0
  4 17  1  0  0  0  0
  5  9  1  0  0  0  0
  5 10  1  0  0  0  0
  5 21  1  0  0  0  0
  6 11  1  0  0  0  0
  6 13  1  0  0  0  0
  6 22  1  0  0  0  0
  7 14  1  0  0  0  0
  7 23  1  0  0  0  0
  8  9  1  0  0  0  0
  8 16  1  0  0  0  0
  8 24  1  0  0  0  0
  9 25  1  0  0  0  0
  9 26  1  0  0  0  0
 10 12  1  0  0  0  0
 10 27  1  0  0  0  0
 10 28  1  0  0  0  0
 11 12  1  0  0  0  0
 11 29  1  0  0  0  0
 11 30  1  0  0  0  0
 12 19  1  0  0  0  0
 12 31  1  0  0  0  0
 13 15  1  0  0  0  0
 13 32  1  0  0  0  0
 14 15  1  0  0  0  0
 14 33  1  0  0  0  0
 14 34  1  0  0  0  0
 15 35  1  0  0  0  0
 15 36  1  0  0  0  0
 16 18  1  0  0  0  0
 16 37  1  0  0  0  0
 16 38  1  0  0  0  0
 17 20  1  0  0  0  0
 18 20  1  0  0  0  0
 18 39  1  0  0  0  0
 18 40  1  0  0  0  0
 19 41  1  0  0  0  0
 19 42  1  0  0  0  0
 19 43  1  0  0  0  0
 20 44  1  0  0  0  0
 20 45  1  0  0  0  0
M  END
> <PUBCHEM_COMPOUND_CID>
442481

> <PUBCHEM_CONFORMER_RMSD>
0.6

> <PUBCHEM_CONFORMER_DIVERSEORDER>
1

> <PUBCHEM_MMFF94_PARTIAL_CHARGES>
12
1 -0.68
13 0.28
17 0.57
2 -0.57
20 0.06
3 -0.81
4 -0.66
46 0.4
5 0.27
6 0.27
7 0.57
8 0.3

> <PUBCHEM_EFFECTIVE_ROTOR_COUNT>
2

> <PUBCHEM_PHARMACOPHORE_FEATURES>
8
1 1 acceptor
1 1 donor
1 2 acceptor
1 3 cation
6 3 4 5 7 8 9 rings
6 3 5 6 10 11 12 rings
6 3 6 7 13 14 15 rings
6 4 8 16 17 18 20 rings

> <PUBCHEM_HEAVY_ATOM_COUNT>
20

> <PUBCHEM_ATOM_DEF_STEREO_COUNT>
6

> <PUBCHEM_ATOM_UDEF_STEREO_COUNT>
0

> <PUBCHEM_BOND_DEF_STEREO_COUNT>
0

> <PUBCHEM_BOND_UDEF_STEREO_COUNT>
0

> <PUBCHEM_ISOTOPIC_ATOM_COUNT>
0

> <PUBCHEM_COMPONENT_COUNT>
1

> <PUBCHEM_CACTVS_TAUTO_COUNT>
1

> <PUBCHEM_CONFORMER_ID>
0006C07100000001

> <PUBCHEM_MMFF94_ENERGY>
36.6985

> <PUBCHEM_FEATURE_SELFOVERLAP>
40.765

> <PUBCHEM_SHAPE_FINGERPRINT>
10493431 412 18191589657622593128
10608611 8 18342180024366896029
10948715 1 18261959531508082852
10980938 120 18410573976582758488
11132069 177 18202280286683789305
11640471 11 17168146771277871049
11680986 33 18341612654612363868
12035758 1 18335429001982948474
12382932 28 18343305855369723689
12633257 1 18130232678228488929
13140716 1 18341615953141875251
13583140 156 17058400053323203160
14223421 5 18342171155206513441
15219456 202 18413107285959635637
15309172 13 18335988575226677512
15375358 24 18271817847152036053
15635459 17 18270396212987499079
16945 1 18265341792135875559
1813 80 16663156581246190406
18186145 218 18113897195066635687
19049666 15 18126850636338196237
19784866 170 18343018865739478792
19786989 88 18334582342883559250
20645477 70 18114467867471449941
21524375 3 18194124010433605282
21731228 192 18265618688867229322
22182313 1 18413666911439552148
23175994 123 17975970187255035591
2334 1 18341896247050221045
23419403 2 16885486405068817342
23557571 272 17988915678383297365
23559900 14 17845648291098192750
2748010 2 18413389847315139637
3729539 64 18117811470333117966
474 4 18261964032407287137
49207404 50 18412821369923392193
495365 180 18188789360436092777
5104073 3 18342735260907233705
6049 1 18270949241476711515
633830 44 17749378291391083533
7364860 26 18335703892173199340
77492 1 16515976972580027095
8272917 22 18115024220587342645
84936 31 17677053563240598350
9709674 26 18342459253191476035
9862522 239 18194980560119866624

> <PUBCHEM_SHAPE_MULTIPOLES>
389.89
6.72
2.73
1.25
1.92
0.62
0.05
-3.36
1.53
-1.77
-0.47
0.35
0.24
1.32

> <PUBCHEM_SHAPE_SELFOVERLAP>
824.245

> <PUBCHEM_SHAPE_VOLUME>
214.2

> <PUBCHEM_COORDINATE_TYPE>
2
5
10

$$$$

