176079
  -OEChem-07051212563D

101106  0     1  0  0  0  0  0999 V2000
    4.7174   -1.2711   -0.5170 O   0  0  0  0  0  0  0  0  0  0  0  0
   -7.3064   -2.2084    0.3492 O   0  0  0  0  0  0  0  0  0  0  0  0
   -5.9798   -1.6865   -1.4295 O   0  0  0  0  0  0  0  0  0  0  0  0
    5.3744    0.9534   -0.2676 O   0  0  0  0  0  0  0  0  0  0  0  0
    7.1936   -2.1041    0.5595 O   0  0  0  0  0  0  0  0  0  0  0  0
    9.3211   -0.1148    0.1246 O   0  0  0  0  0  0  0  0  0  0  0  0
    8.4264    2.4997    1.0256 O   0  0  0  0  0  0  0  0  0  0  0  0
    6.4458    4.2263    0.4157 O   0  0  0  0  0  0  0  0  0  0  0  0
    5.0004    3.3363   -1.1057 O   0  0  0  0  0  0  0  0  0  0  0  0
   -2.0107   -1.3493    0.2613 C   0  0  2  0  0  0  0  0  0  0  0  0
   -1.0263   -0.5355   -0.6624 C   0  0  1  0  0  0  0  0  0  0  0  0
    0.3878   -1.1992   -0.9872 C   0  0  2  0  0  0  0  0  0  0  0  0
   -3.2090   -0.3420    0.7410 C   0  0  1  0  0  0  0  0  0  0  0  0
    1.0232   -1.6304    0.3865 C   0  0  2  0  0  0  0  0  0  0  0  0
   -1.2379   -1.9320    1.4782 C   0  0  0  0  0  0  0  0  0  0  0  0
    2.5388   -2.0526    0.3474 C   0  0  0  0  0  0  0  0  0  0  0  0
    0.0927   -2.6064    1.1354 C   0  0  0  0  0  0  0  0  0  0  0  0
   -3.8620    0.3143   -0.4922 C   0  0  0  0  0  0  0  0  0  0  0  0
   -1.7650    0.0350   -1.8948 C   0  0  0  0  0  0  0  0  0  0  0  0
   -5.3103    0.8131   -0.4378 C   0  0  1  0  0  0  0  0  0  0  0  0
    1.3045   -0.1110   -1.6260 C   0  0  0  0  0  0  0  0  0  0  0  0
   -4.2470   -1.1073    1.6164 C   0  0  0  0  0  0  0  0  0  0  0  0
   -6.2387   -0.1004    0.3970 C   0  0  1  0  0  0  0  0  0  0  0  0
   -2.6190   -2.5613   -0.5117 C   0  0  0  0  0  0  0  0  0  0  0  0
    3.3438   -0.9186   -0.3550 C   0  0  2  0  0  0  0  0  0  0  0  0
   -5.6077   -0.4172    1.7634 C   0  0  0  0  0  0  0  0  0  0  0  0
    0.2832   -2.3692   -1.9984 C   0  0  0  0  0  0  0  0  0  0  0  0
   -3.1775    0.4697   -1.6430 C   0  0  0  0  0  0  0  0  0  0  0  0
    2.7788   -0.5006   -1.7091 C   0  0  0  0  0  0  0  0  0  0  0  0
   -2.6658    0.8276    1.6194 C   0  0  0  0  0  0  0  0  0  0  0  0
   -5.3663    2.2968   -0.0059 C   0  0  0  0  0  0  0  0  0  0  0  0
   -7.6473    0.5114    0.5662 C   0  0  0  0  0  0  0  0  0  0  0  0
   -6.7936    2.8761    0.0924 C   0  0  0  0  0  0  0  0  0  0  0  0
    3.0881   -2.1686    1.7971 C   0  0  0  0  0  0  0  0  0  0  0  0
    2.7878   -3.4252   -0.3090 C   0  0  0  0  0  0  0  0  0  0  0  0
   -7.6455    1.9736    1.0041 C   0  0  0  0  0  0  0  0  0  0  0  0
   -6.4713   -1.3998   -0.3480 C   0  0  0  0  0  0  0  0  0  0  0  0
   -6.7198    4.2842    0.7154 C   0  0  0  0  0  0  0  0  0  0  0  0
   -7.4301    3.0133   -1.3036 C   0  0  0  0  0  0  0  0  0  0  0  0
    5.5695   -0.3788    0.2000 C   0  0  2  0  0  0  0  0  0  0  0  0
    7.0153   -0.8180   -0.0333 C   0  0  1  0  0  0  0  0  0  0  0  0
    8.0016    0.1693    0.5915 C   0  0  2  0  0  0  0  0  0  0  0  0
    6.1839    1.8955    0.4267 C   0  0  1  0  0  0  0  0  0  0  0  0
    7.6649    1.6111    0.2096 C   0  0  1  0  0  0  0  0  0  0  0  0
    5.7943    3.2015   -0.1863 C   0  0  0  0  0  0  0  0  0  0  0  0
   -0.7492    0.3481   -0.0711 H   0  0  0  0  0  0  0  0  0  0  0  0
    1.0246   -0.7140    1.0011 H   0  0  0  0  0  0  0  0  0  0  0  0
   -1.8666   -2.6503    2.0188 H   0  0  0  0  0  0  0  0  0  0  0  0
   -0.9983   -1.1477    2.1997 H   0  0  0  0  0  0  0  0  0  0  0  0
    0.5391   -2.9186    2.0841 H   0  0  0  0  0  0  0  0  0  0  0  0
   -0.0798   -3.5268    0.5720 H   0  0  0  0  0  0  0  0  0  0  0  0
   -1.8062   -0.6899   -2.7110 H   0  0  0  0  0  0  0  0  0  0  0  0
   -1.2136    0.9023   -2.2764 H   0  0  0  0  0  0  0  0  0  0  0  0
   -5.6918    0.7950   -1.4697 H   0  0  0  0  0  0  0  0  0  0  0  0
    1.2353    0.8168   -1.0425 H   0  0  0  0  0  0  0  0  0  0  0  0
    0.9550    0.1346   -2.6364 H   0  0  0  0  0  0  0  0  0  0  0  0
   -3.8340   -1.2737    2.6198 H   0  0  0  0  0  0  0  0  0  0  0  0
   -4.4473   -2.1048    1.2219 H   0  0  0  0  0  0  0  0  0  0  0  0
   -3.2723   -2.2597   -1.3336 H   0  0  0  0  0  0  0  0  0  0  0  0
   -1.8572   -3.2105   -0.9377 H   0  0  0  0  0  0  0  0  0  0  0  0
   -3.1980   -3.2193    0.1427 H   0  0  0  0  0  0  0  0  0  0  0  0
    3.2521   -0.0344    0.2946 H   0  0  0  0  0  0  0  0  0  0  0  0
   -6.2607   -1.0704    2.3565 H   0  0  0  0  0  0  0  0  0  0  0  0
   -5.4939    0.4969    2.3560 H   0  0  0  0  0  0  0  0  0  0  0  0
   -0.5306   -2.2408   -2.7138 H   0  0  0  0  0  0  0  0  0  0  0  0
    1.1775   -2.4712   -2.6173 H   0  0  0  0  0  0  0  0  0  0  0  0
    0.1392   -3.3389   -1.5194 H   0  0  0  0  0  0  0  0  0  0  0  0
   -3.6690    0.9399   -2.4925 H   0  0  0  0  0  0  0  0  0  0  0  0
    2.9442   -1.2917   -2.4481 H   0  0  0  0  0  0  0  0  0  0  0  0
    3.3509    0.3543   -2.0920 H   0  0  0  0  0  0  0  0  0  0  0  0
   -2.0797    0.4805    2.4723 H   0  0  0  0  0  0  0  0  0  0  0  0
   -2.0507    1.5333    1.0522 H   0  0  0  0  0  0  0  0  0  0  0  0
   -3.4722    1.4149    2.0647 H   0  0  0  0  0  0  0  0  0  0  0  0
   -4.8871    2.4204    0.9689 H   0  0  0  0  0  0  0  0  0  0  0  0
   -4.7744    2.9025   -0.7058 H   0  0  0  0  0  0  0  0  0  0  0  0
   -8.2293   -0.0589    1.3026 H   0  0  0  0  0  0  0  0  0  0  0  0
   -8.2091    0.4263   -0.3737 H   0  0  0  0  0  0  0  0  0  0  0  0
    4.1638   -2.3753    1.8061 H   0  0  0  0  0  0  0  0  0  0  0  0
    2.9201   -1.2456    2.3630 H   0  0  0  0  0  0  0  0  0  0  0  0
    2.6216   -2.9911    2.3476 H   0  0  0  0  0  0  0  0  0  0  0  0
    2.6410   -3.4124   -1.3890 H   0  0  0  0  0  0  0  0  0  0  0  0
    3.8217   -3.7549   -0.1492 H   0  0  0  0  0  0  0  0  0  0  0  0
    2.1406   -4.1993    0.1150 H   0  0  0  0  0  0  0  0  0  0  0  0
   -8.6805    2.3378    1.0332 H   0  0  0  0  0  0  0  0  0  0  0  0
   -7.2752    2.0337    2.0355 H   0  0  0  0  0  0  0  0  0  0  0  0
   -7.7172    4.7286    0.8081 H   0  0  0  0  0  0  0  0  0  0  0  0
   -6.1093    4.9565    0.1021 H   0  0  0  0  0  0  0  0  0  0  0  0
   -6.2761    4.2543    1.7170 H   0  0  0  0  0  0  0  0  0  0  0  0
   -8.4350    3.4453   -1.2343 H   0  0  0  0  0  0  0  0  0  0  0  0
   -7.5241    2.0548   -1.8214 H   0  0  0  0  0  0  0  0  0  0  0  0
   -6.8312    3.6714   -1.9434 H   0  0  0  0  0  0  0  0  0  0  0  0
    5.3254   -0.4379    1.2686 H   0  0  0  0  0  0  0  0  0  0  0  0
   -7.4694   -3.0558   -0.1172 H   0  0  0  0  0  0  0  0  0  0  0  0
    7.2124   -0.9283   -1.1069 H   0  0  0  0  0  0  0  0  0  0  0  0
    8.0231    0.0462    1.6817 H   0  0  0  0  0  0  0  0  0  0  0  0
    5.9024    1.9177    1.4868 H   0  0  0  0  0  0  0  0  0  0  0  0
    7.9465    1.7990   -0.8347 H   0  0  0  0  0  0  0  0  0  0  0  0
    8.1224   -2.3593    0.4252 H   0  0  0  0  0  0  0  0  0  0  0  0
    9.9395    0.4397    0.6294 H   0  0  0  0  0  0  0  0  0  0  0  0
    9.3632    2.3840    0.7942 H   0  0  0  0  0  0  0  0  0  0  0  0
    6.2045    5.0935    0.0257 H   0  0  0  0  0  0  0  0  0  0  0  0
  1 25  1  0  0  0  0
  1 40  1  0  0  0  0
  2 37  1  0  0  0  0
  2 93  1  0  0  0  0
  3 37  2  0  0  0  0
  4 40  1  0  0  0  0
  4 43  1  0  0  0  0
  5 41  1  0  0  0  0
  5 98  1  0  0  0  0
  6 42  1  0  0  0  0
  6 99  1  0  0  0  0
  7 44  1  0  0  0  0
  7100  1  0  0  0  0
  8 45  1  0  0  0  0
  8101  1  0  0  0  0
  9 45  2  0  0  0  0
 10 11  1  0  0  0  0
 10 13  1  0  0  0  0
 10 15  1  0  0  0  0
 10 24  1  0  0  0  0
 11 12  1  0  0  0  0
 11 19  1  0  0  0  0
 11 46  1  0  0  0  0
 12 14  1  0  0  0  0
 12 21  1  0  0  0  0
 12 27  1  0  0  0  0
 13 18  1  0  0  0  0
 13 22  1  0  0  0  0
 13 30  1  0  0  0  0
 14 16  1  0  0  0  0
 14 17  1  0  0  0  0
 14 47  1  0  0  0  0
 15 17  1  0  0  0  0
 15 48  1  0  0  0  0
 15 49  1  0  0  0  0
 16 25  1  0  0  0  0
 16 34  1  0  0  0  0
 16 35  1  0  0  0  0
 17 50  1  0  0  0  0
 17 51  1  0  0  0  0
 18 20  1  0  0  0  0
 18 28  2  0  0  0  0
 19 28  1  0  0  0  0
 19 52  1  0  0  0  0
 19 53  1  0  0  0  0
 20 23  1  0  0  0  0
 20 31  1  0  0  0  0
 20 54  1  0  0  0  0
 21 29  1  0  0  0  0
 21 55  1  0  0  0  0
 21 56  1  0  0  0  0
 22 26  1  0  0  0  0
 22 57  1  0  0  0  0
 22 58  1  0  0  0  0
 23 26  1  0  0  0  0
 23 32  1  0  0  0  0
 23 37  1  0  0  0  0
 24 59  1  0  0  0  0
 24 60  1  0  0  0  0
 24 61  1  0  0  0  0
 25 29  1  0  0  0  0
 25 62  1  0  0  0  0
 26 63  1  0  0  0  0
 26 64  1  0  0  0  0
 27 65  1  0  0  0  0
 27 66  1  0  0  0  0
 27 67  1  0  0  0  0
 28 68  1  0  0  0  0
 29 69  1  0  0  0  0
 29 70  1  0  0  0  0
 30 71  1  0  0  0  0
 30 72  1  0  0  0  0
 30 73  1  0  0  0  0
 31 33  1  0  0  0  0
 31 74  1  0  0  0  0
 31 75  1  0  0  0  0
 32 36  1  0  0  0  0
 32 76  1  0  0  0  0
 32 77  1  0  0  0  0
 33 36  1  0  0  0  0
 33 38  1  0  0  0  0
 33 39  1  0  0  0  0
 34 78  1  0  0  0  0
 34 79  1  0  0  0  0
 34 80  1  0  0  0  0
 35 81  1  0  0  0  0
 35 82  1  0  0  0  0
 35 83  1  0  0  0  0
 36 84  1  0  0  0  0
 36 85  1  0  0  0  0
 38 86  1  0  0  0  0
 38 87  1  0  0  0  0
 38 88  1  0  0  0  0
 39 89  1  0  0  0  0
 39 90  1  0  0  0  0
 39 91  1  0  0  0  0
 40 41  1  0  0  0  0
 40 92  1  0  0  0  0
 41 42  1  0  0  0  0
 41 94  1  0  0  0  0
 42 44  1  0  0  0  0
 42 95  1  0  0  0  0
 43 44  1  0  0  0  0
 43 45  1  0  0  0  0
 43 96  1  0  0  0  0
 44 97  1  0  0  0  0
M  END
> <PUBCHEM_COMPOUND_CID>
176079

> <PUBCHEM_CONFORMER_RMSD>
1

> <PUBCHEM_CONFORMER_DIVERSEORDER>
1
13
8
7
11
5
15
14
12
3
9
6
10
2
4

> <PUBCHEM_MMFF94_PARTIAL_CHARGES>
29
1 -0.56
100 0.4
101 0.5
13 0.14
18 -0.28
19 0.14
2 -0.65
20 0.14
23 0.06
25 0.28
28 -0.29
3 -0.57
37 0.66
4 -0.56
40 0.56
41 0.28
42 0.28
43 0.34
44 0.28
45 0.66
5 -0.68
6 -0.68
68 0.15
7 -0.68
8 -0.65
9 -0.57
93 0.5
98 0.4
99 0.4

> <PUBCHEM_EFFECTIVE_ROTOR_COUNT>
7.8

> <PUBCHEM_PHARMACOPHORE_FEATURES>
22
1 1 acceptor
1 2 acceptor
1 3 acceptor
1 4 acceptor
1 5 acceptor
1 5 donor
1 6 acceptor
1 6 donor
1 7 acceptor
1 7 donor
1 8 acceptor
1 9 acceptor
3 16 34 35 hydrophobe
3 2 3 37 anion
3 33 38 39 hydrophobe
3 8 9 45 anion
6 10 11 12 14 15 17 rings
6 10 11 13 18 19 28 rings
6 12 14 16 21 25 29 rings
6 13 18 20 22 23 26 rings
6 20 23 31 32 33 36 rings
6 4 40 41 42 43 44 rings

> <PUBCHEM_HEAVY_ATOM_COUNT>
45

> <PUBCHEM_ATOM_DEF_STEREO_COUNT>
13

> <PUBCHEM_ATOM_UDEF_STEREO_COUNT>
0

> <PUBCHEM_BOND_DEF_STEREO_COUNT>
0

> <PUBCHEM_BOND_UDEF_STEREO_COUNT>
0

> <PUBCHEM_ISOTOPIC_ATOM_COUNT>
0

> <PUBCHEM_COMPONENT_COUNT>
1

> <PUBCHEM_CACTVS_TAUTO_COUNT>
1

> <PUBCHEM_CONFORMER_ID>
0002AFCF00000001

> <PUBCHEM_MMFF94_ENERGY>
179.662

> <PUBCHEM_FEATURE_SELFOVERLAP>
111.907

> <PUBCHEM_SHAPE_FINGERPRINT>
10 15 17846498102571045206
10554248 39 16950840439588246726
10673678 19 18260263053807318814
11007060 377 18341325618270560659
11456790 92 18342464751298436712
11578821 258 18114179730895981816
12522641 24 17988086703295224522
12539765 74 18261388992316691542
12664476 115 18202848739102162236
13782708 43 9799687087093981111
13811026 1 18335137622062352293
14394314 77 18342455993364909949
14415361 349 7637394125169065324
15131766 46 18188220822577167252
15183329 4 4750868213510760591
15198563 99 14345781773805701194
15289351 153 18412271636096115144
15361156 5 6555415336243334981
15510800 12 11743847997088080416
15840311 113 18410007733075093854
16989713 51 16951141552015713511
16994733 274 18260833704257014571
17686467 74 18271242730352772459
19304144 158 18260264170709442261
2026 5 8935008070726975076
20511986 3 18059575867106344811
20691028 202 18411421679084692464
21033648 29 18060411439085824931
21130935 74 18201155550429007835
21647283 7 18413388726598363408
22122407 14 18337101349798249832
23576562 1 14997151088908745321
24771293 8 18201998837002057879
3383291 50 16773793684597337835
4093350 32 18262235646408553622
4169191 19 18336548304688356469
4403749 210 18410015438442108343
44880568 143 18114172094992059957
4616759 239 17989197141250755601
4625314 4 18335137622131463254
504579 68 4823205088213556465
504843 32 17676209035300427951
5104073 3 17845930836054231067
5265222 85 18333450959269415359
54039377 194 10231751202119819552
6201320 82 17896303887376376457
6691757 9 16128651942859970315
6697151 62 13254516384464510607
99344 41 18410573998205664832

> <PUBCHEM_SHAPE_MULTIPOLES>
873.26
27.14
4.21
1.6
20.35
3.55
-0.21
21.39
5.07
0.84
0.31
-1.03
-0.42
0.15

> <PUBCHEM_SHAPE_SELFOVERLAP>
1862.248

> <PUBCHEM_SHAPE_VOLUME>
477.1

> <PUBCHEM_COORDINATE_TYPE>
2
5
10

$$$$

