363275
  -OEChem-07051212562D

 49 53  0     1  0  0  0  0  0999 V2000
    4.3286   -1.6303    0.0000 O   0  0  0  0  0  0  0  0  0  0  0  0
    6.0604   -0.9002    0.0000 O   0  0  0  0  0  0  0  0  0  0  0  0
    5.2401    1.7815    0.0000 N   0  0  3  0  0  0  0  0  0  0  0  0
    5.8761   -1.3938    0.0000 N   0  0  0  0  0  0  0  0  0  0  0  0
    4.8392    0.0248    0.0000 C   0  0  1  0  0  0  0  0  0  0  0  0
    4.6166    0.9997    0.0000 C   0  0  1  0  0  0  0  0  0  0  0  0
    3.0889   -0.3961    0.0000 C   0  0  3  0  0  0  0  0  0  0  0  0
    4.0866   -0.6954    0.0000 C   0  0  0  0  0  0  0  0  0  0  0  0
    3.5359    1.3137    0.0000 C   0  0  0  0  0  0  0  0  0  0  0  0
    3.6261    1.3220    0.0000 C   0  0  0  0  0  0  0  0  0  0  0  0
    5.7401   -0.4091    0.0000 C   0  0  0  0  0  0  0  0  0  0  0  0
    2.8571    0.6195    0.0000 C   0  0  0  0  0  0  0  0  0  0  0  0
    6.2401    1.7815    0.0000 C   0  0  0  0  0  0  0  0  0  0  0  0
    6.6411    0.0248    0.0000 C   0  0  0  0  0  0  0  0  0  0  0  0
    6.8636    0.9997    0.0000 C   0  0  0  0  0  0  0  0  0  0  0  0
    5.0617   -0.9502    0.0000 C   0  0  0  0  0  0  0  0  0  0  0  0
    3.4149    2.2995    0.0000 C   0  0  0  0  0  0  0  0  0  0  0  0
    7.3262   -0.6955    0.0000 C   0  0  0  0  0  0  0  0  0  0  0  0
    6.8544   -1.5705    0.0000 C   0  0  0  0  0  0  0  0  0  0  0  0
    2.4628    2.6053    0.0000 C   0  0  0  0  0  0  0  0  0  0  0  0
    8.3606   -0.6495    0.0000 C   0  0  0  0  0  0  0  0  0  0  0  0
    7.3843   -2.4601    0.0000 C   0  0  0  0  0  0  0  0  0  0  0  0
    8.9110   -1.5266    0.0000 C   0  0  0  0  0  0  0  0  0  0  0  0
    4.5512   -2.6053    0.0000 C   0  0  0  0  0  0  0  0  0  0  0  0
    8.4195   -2.4380    0.0000 C   0  0  0  0  0  0  0  0  0  0  0  0
    4.4275    1.8284    0.0000 H   0  0  0  0  0  0  0  0  0  0  0  0
    2.6360   -0.8195    0.0000 H   0  0  0  0  0  0  0  0  0  0  0  0
    4.5856   -1.0634    0.0000 H   0  0  0  0  0  0  0  0  0  0  0  0
    3.8094   -1.2500    0.0000 H   0  0  0  0  0  0  0  0  0  0  0  0
    2.9179    1.3640    0.0000 H   0  0  0  0  0  0  0  0  0  0  0  0
    3.4781    1.9310    0.0000 H   0  0  0  0  0  0  0  0  0  0  0  0
    2.2654    0.8045    0.0000 H   0  0  0  0  0  0  0  0  0  0  0  0
    6.1022    2.3860    0.0000 H   0  0  0  0  0  0  0  0  0  0  0  0
    6.7987    2.0505    0.0000 H   0  0  0  0  0  0  0  0  0  0  0  0
    7.2502    1.4844    0.0000 H   0  0  0  0  0  0  0  0  0  0  0  0
    7.4222    0.7307    0.0000 H   0  0  0  0  0  0  0  0  0  0  0  0
    3.4991    2.9137    0.0000 H   0  0  0  0  0  0  0  0  0  0  0  0
    4.0344    2.3232    0.0000 H   0  0  0  0  0  0  0  0  0  0  0  0
    5.4287   -1.8231    0.0000 H   0  0  0  0  0  0  0  0  0  0  0  0
    2.2732    2.0149    0.0000 H   0  0  0  0  0  0  0  0  0  0  0  0
    1.8725    2.7948    0.0000 H   0  0  0  0  0  0  0  0  0  0  0  0
    2.6524    3.1956    0.0000 H   0  0  0  0  0  0  0  0  0  0  0  0
    8.6486   -0.1004    0.0000 H   0  0  0  0  0  0  0  0  0  0  0  0
    7.0837   -3.0024    0.0000 H   0  0  0  0  0  0  0  0  0  0  0  0
    9.5306   -1.5062    0.0000 H   0  0  0  0  0  0  0  0  0  0  0  0
    5.1556   -2.4673    0.0000 H   0  0  0  0  0  0  0  0  0  0  0  0
    4.6891   -3.2097    0.0000 H   0  0  0  0  0  0  0  0  0  0  0  0
    3.9467   -2.7432    0.0000 H   0  0  0  0  0  0  0  0  0  0  0  0
    8.7430   -2.9670    0.0000 H   0  0  0  0  0  0  0  0  0  0  0  0
  1 16  1  0  0  0  0
  1 24  1  0  0  0  0
  2 16  2  0  0  0  0
  3  6  1  0  0  0  0
  3  9  1  0  0  0  0
  3 13  1  0  0  0  0
  4 11  1  0  0  0  0
  4 19  1  0  0  0  0
  4 39  1  0  0  0  0
  5  6  1  0  0  0  0
  5  8  1  0  0  0  0
  5 11  1  0  0  0  0
  5 16  1  1  0  0  0
  6 10  1  0  0  0  0
  6 26  1  6  0  0  0
  7  8  1  0  0  0  0
  7  9  1  0  0  0  0
  7 12  1  0  0  0  0
  7 27  1  0  0  0  0
  8 28  1  0  0  0  0
  8 29  1  0  0  0  0
  9 30  1  0  0  0  0
  9 31  1  0  0  0  0
 10 12  2  0  0  0  0
 10 17  1  0  0  0  0
 11 14  2  0  0  0  0
 12 32  1  0  0  0  0
 13 15  1  0  0  0  0
 13 33  1  0  0  0  0
 13 34  1  0  0  0  0
 14 15  1  0  0  0  0
 14 18  1  0  0  0  0
 15 35  1  0  0  0  0
 15 36  1  0  0  0  0
 17 20  1  0  0  0  0
 17 37  1  0  0  0  0
 17 38  1  0  0  0  0
 18 19  1  0  0  0  0
 18 21  2  0  0  0  0
 19 22  2  0  0  0  0
 20 40  1  0  0  0  0
 20 41  1  0  0  0  0
 20 42  1  0  0  0  0
 21 23  1  0  0  0  0
 21 43  1  0  0  0  0
 22 25  1  0  0  0  0
 22 44  1  0  0  0  0
 23 25  2  0  0  0  0
 23 45  1  0  0  0  0
 24 46  1  0  0  0  0
 24 47  1  0  0  0  0
 24 48  1  0  0  0  0
 25 49  1  0  0  0  0
M  END
> <PUBCHEM_COMPOUND_CID>
363275

> <PUBCHEM_COMPOUND_CANONICALIZED>
1

> <PUBCHEM_CACTVS_COMPLEXITY>
603

> <PUBCHEM_CACTVS_HBOND_ACCEPTOR>
3

> <PUBCHEM_CACTVS_HBOND_DONOR>
1

> <PUBCHEM_CACTVS_ROTATABLE_BOND>
3

> <PUBCHEM_CACTVS_SUBSKEYS>
AAADceB7MAAAAAAAAAAAAAAAAAAAAWAAAAA8QIEABYAAAFix8AAAHgAQAAAADyjBngYyyPPJlACoAyTyTACCgCAhAiAImSE4ZJgIIPrA1ZGEIAhm0AHIyAeY2fKPgAAAAAACAAAAAAAAAAQAAAAAAAAAAA==

> <PUBCHEM_IUPAC_INCHI>
InChI=1S/C21H24N2O2/c1-3-14-10-13-11-21(20(24)25-2)18-16(8-9-23(12-13)19(14)21)15-6-4-5-7-17(15)22-18/h4-7,10,13,19,22H,3,8-9,11-12H2,1-2H3/t13?,19-,21-/m1/s1

> <PUBCHEM_IUPAC_INCHIKEY>
CMKFQVZJOWHHDV-BTSGLNRLSA-N

> <PUBCHEM_XLOGP3_AA>
2.8

> <PUBCHEM_EXACT_MASS>
336.183778

> <PUBCHEM_MOLECULAR_FORMULA>
C21H24N2O2

> <PUBCHEM_MOLECULAR_WEIGHT>
336.42746

> <PUBCHEM_OPENEYE_CAN_SMILES>
CCC1=CC2CC3(C1N(C2)CCC4=C3NC5=CC=CC=C45)C(=O)OC

> <PUBCHEM_OPENEYE_ISO_SMILES>
CCC1=CC2C[C@@]3([C@@H]1N(C2)CCC4=C3NC5=CC=CC=C45)C(=O)OC

> <PUBCHEM_CACTVS_TPSA>
45.3

> <PUBCHEM_MONOISOTOPIC_WEIGHT>
336.183778

> <PUBCHEM_TOTAL_CHARGE>
0

> <PUBCHEM_HEAVY_ATOM_COUNT>
25

> <PUBCHEM_ATOM_DEF_STEREO_COUNT>
2

> <PUBCHEM_ATOM_UDEF_STEREO_COUNT>
1

> <PUBCHEM_BOND_DEF_STEREO_COUNT>
0

> <PUBCHEM_BOND_UDEF_STEREO_COUNT>
0

> <PUBCHEM_ISOTOPIC_ATOM_COUNT>
0

> <PUBCHEM_COMPONENT_COUNT>
1

> <PUBCHEM_CACTVS_TAUTO_COUNT>
1

> <PUBCHEM_COORDINATE_TYPE>
1
5
255

> <PUBCHEM_BONDANNOTATIONS>
11  14  8
14  18  8
18  19  8
18  21  8
19  22  8
21  23  8
22  25  8
23  25  8
4  11  8
4  19  8
5  16  5
6  26  6
7  8  3

$$$$

