5519
  -OEChem-06261200432D

 60 63  0     0  0  0  0  0  0999 V2000
    6.3301    0.0141    0.0000 N   0  0  0  0  0  0  0  0  0  0  0  0
    5.4641   -2.4859    0.0000 N   0  0  0  0  0  0  0  0  0  0  0  0
    8.0622   -2.9859    0.0000 N   0  0  0  0  0  0  0  0  0  0  0  0
    2.8660   -2.9859    0.0000 N   0  0  0  0  0  0  0  0  0  0  0  0
    3.8365    1.1065    0.0000 N   0  0  0  0  0  0  0  0  0  0  0  0
    7.4969    2.2198    0.0000 N   0  0  0  0  0  0  0  0  0  0  0  0
    6.3301   -0.9859    0.0000 C   0  0  0  0  0  0  0  0  0  0  0  0
    5.4641   -1.4859    0.0000 C   0  0  0  0  0  0  0  0  0  0  0  0
    5.4641    0.5141    0.0000 C   0  0  0  0  0  0  0  0  0  0  0  0
    7.1962    0.5141    0.0000 C   0  0  0  0  0  0  0  0  0  0  0  0
    4.5981   -2.9859    0.0000 C   0  0  0  0  0  0  0  0  0  0  0  0
    6.3301   -2.9859    0.0000 C   0  0  0  0  0  0  0  0  0  0  0  0
    4.8213    1.2801    0.0000 C   0  0  0  0  0  0  0  0  0  0  0  0
    7.8389    1.2801    0.0000 C   0  0  0  0  0  0  0  0  0  0  0  0
    7.1962   -2.4859    0.0000 C   0  0  0  0  0  0  0  0  0  0  0  0
    3.7320   -2.4859    0.0000 C   0  0  0  0  0  0  0  0  0  0  0  0
    5.1633    2.2198    0.0000 C   0  0  0  0  0  0  0  0  0  0  0  0
    8.8238    1.1065    0.0000 C   0  0  0  0  0  0  0  0  0  0  0  0
    7.1962   -1.4859    0.0000 C   0  0  0  0  0  0  0  0  0  0  0  0
    3.7320   -1.4859    0.0000 C   0  0  0  0  0  0  0  0  0  0  0  0
    4.5206    2.9859    0.0000 C   0  0  0  0  0  0  0  0  0  0  0  0
    9.4665    1.8726    0.0000 C   0  0  0  0  0  0  0  0  0  0  0  0
    8.0622   -0.9859    0.0000 C   0  0  0  0  0  0  0  0  0  0  0  0
    2.8660   -0.9859    0.0000 C   0  0  0  0  0  0  0  0  0  0  0  0
    2.0000   -2.4859    0.0000 C   0  0  0  0  0  0  0  0  0  0  0  0
    8.9282   -2.4859    0.0000 C   0  0  0  0  0  0  0  0  0  0  0  0
    8.1397    2.9859    0.0000 C   0  0  0  0  0  0  0  0  0  0  0  0
    3.1937    1.8726    0.0000 C   0  0  0  0  0  0  0  0  0  0  0  0
    9.1245    2.8122    0.0000 C   0  0  0  0  0  0  0  0  0  0  0  0
    3.5357    2.8122    0.0000 C   0  0  0  0  0  0  0  0  0  0  0  0
    8.9282   -1.4859    0.0000 C   0  0  0  0  0  0  0  0  0  0  0  0
    2.0000   -1.4859    0.0000 C   0  0  0  0  0  0  0  0  0  0  0  0
    6.5422   -1.5685    0.0000 H   0  0  0  0  0  0  0  0  0  0  0  0
    6.9407   -0.8782    0.0000 H   0  0  0  0  0  0  0  0  0  0  0  0
    5.2520   -0.9033    0.0000 H   0  0  0  0  0  0  0  0  0  0  0  0
    4.8535   -1.5936    0.0000 H   0  0  0  0  0  0  0  0  0  0  0  0
    4.8702    0.3363    0.0000 H   0  0  0  0  0  0  0  0  0  0  0  0
    5.8626    0.9891    0.0000 H   0  0  0  0  0  0  0  0  0  0  0  0
    7.2681   -0.1017    0.0000 H   0  0  0  0  0  0  0  0  0  0  0  0
    6.7976    0.9891    0.0000 H   0  0  0  0  0  0  0  0  0  0  0  0
    5.9316   -3.4608    0.0000 H   0  0  0  0  0  0  0  0  0  0  0  0
    6.7287   -3.4608    0.0000 H   0  0  0  0  0  0  0  0  0  0  0  0
    4.1996   -3.4608    0.0000 H   0  0  0  0  0  0  0  0  0  0  0  0
    4.9966   -3.4608    0.0000 H   0  0  0  0  0  0  0  0  0  0  0  0
    5.7739    2.3275    0.0000 H   0  0  0  0  0  0  0  0  0  0  0  0
    9.0358    0.5239    0.0000 H   0  0  0  0  0  0  0  0  0  0  0  0
    6.6592   -1.1759    0.0000 H   0  0  0  0  0  0  0  0  0  0  0  0
    4.2690   -1.1759    0.0000 H   0  0  0  0  0  0  0  0  0  0  0  0
    4.7326    3.5685    0.0000 H   0  0  0  0  0  0  0  0  0  0  0  0
   10.0771    1.7649    0.0000 H   0  0  0  0  0  0  0  0  0  0  0  0
    8.0622   -0.3659    0.0000 H   0  0  0  0  0  0  0  0  0  0  0  0
    2.8660   -0.3659    0.0000 H   0  0  0  0  0  0  0  0  0  0  0  0
    1.4631   -2.7959    0.0000 H   0  0  0  0  0  0  0  0  0  0  0  0
    9.4651   -2.7959    0.0000 H   0  0  0  0  0  0  0  0  0  0  0  0
    7.9277    3.5685    0.0000 H   0  0  0  0  0  0  0  0  0  0  0  0
    2.5831    1.7649    0.0000 H   0  0  0  0  0  0  0  0  0  0  0  0
    3.1372    3.2872    0.0000 H   0  0  0  0  0  0  0  0  0  0  0  0
    9.5230    3.2872    0.0000 H   0  0  0  0  0  0  0  0  0  0  0  0
    9.4651   -1.1759    0.0000 H   0  0  0  0  0  0  0  0  0  0  0  0
    1.4631   -1.1759    0.0000 H   0  0  0  0  0  0  0  0  0  0  0  0
  1  7  1  0  0  0  0
  1  9  1  0  0  0  0
  1 10  1  0  0  0  0
  2  8  1  0  0  0  0
  2 11  1  0  0  0  0
  2 12  1  0  0  0  0
  3 15  1  0  0  0  0
  3 26  2  0  0  0  0
  4 16  1  0  0  0  0
  4 25  2  0  0  0  0
  5 13  1  0  0  0  0
  5 28  2  0  0  0  0
  6 14  1  0  0  0  0
  6 27  2  0  0  0  0
  7  8  1  0  0  0  0
  7 33  1  0  0  0  0
  7 34  1  0  0  0  0
  8 35  1  0  0  0  0
  8 36  1  0  0  0  0
  9 13  1  0  0  0  0
  9 37  1  0  0  0  0
  9 38  1  0  0  0  0
 10 14  1  0  0  0  0
 10 39  1  0  0  0  0
 10 40  1  0  0  0  0
 11 16  1  0  0  0  0
 11 43  1  0  0  0  0
 11 44  1  0  0  0  0
 12 15  1  0  0  0  0
 12 41  1  0  0  0  0
 12 42  1  0  0  0  0
 13 17  2  0  0  0  0
 14 18  2  0  0  0  0
 15 19  2  0  0  0  0
 16 20  2  0  0  0  0
 17 21  1  0  0  0  0
 17 45  1  0  0  0  0
 18 22  1  0  0  0  0
 18 46  1  0  0  0  0
 19 23  1  0  0  0  0
 19 47  1  0  0  0  0
 20 24  1  0  0  0  0
 20 48  1  0  0  0  0
 21 30  2  0  0  0  0
 21 49  1  0  0  0  0
 22 29  2  0  0  0  0
 22 50  1  0  0  0  0
 23 31  2  0  0  0  0
 23 51  1  0  0  0  0
 24 32  2  0  0  0  0
 24 52  1  0  0  0  0
 25 32  1  0  0  0  0
 25 53  1  0  0  0  0
 26 31  1  0  0  0  0
 26 54  1  0  0  0  0
 27 29  1  0  0  0  0
 27 55  1  0  0  0  0
 28 30  1  0  0  0  0
 28 56  1  0  0  0  0
 29 58  1  0  0  0  0
 30 57  1  0  0  0  0
 31 59  1  0  0  0  0
 32 60  1  0  0  0  0
M  END
> <PUBCHEM_COMPOUND_CID>
5519

> <PUBCHEM_COMPOUND_CANONICALIZED>
1

> <PUBCHEM_CACTVS_COMPLEXITY>
419

> <PUBCHEM_CACTVS_HBOND_ACCEPTOR>
6

> <PUBCHEM_CACTVS_HBOND_DONOR>
0

> <PUBCHEM_CACTVS_ROTATABLE_BOND>
11

> <PUBCHEM_CACTVS_SUBSKEYS>
AAADceB7gAAAAAAAAAAAAAAAAAAAAAAAAAAsWLFgAAAAAAAB/gAAHAAAAAAACAjBFgQ8gJMIEACgATRnRACCgCAxAiAI2CA4ZJgIYOLAkZGUIAhggADIyAcQAAAAAAAAAAAAAAAAAAAAAAAAAAAAAAAAAA==

> <PUBCHEM_IUPAC_OPENEYE_NAME>
N,N,N',N'-tetrakis(2-pyridylmethyl)ethane-1,2-diamine

> <PUBCHEM_IUPAC_CAS_NAME>
N,N,N',N'-tetrakis(2-pyridinylmethyl)ethane-1,2-diamine

> <PUBCHEM_IUPAC_NAME>
N,N,N',N'-tetrakis(pyridin-2-ylmethyl)ethane-1,2-diamine

> <PUBCHEM_IUPAC_SYSTEMATIC_NAME>
N,N,N',N'-tetrakis(pyridin-2-ylmethyl)ethane-1,2-diamine

> <PUBCHEM_IUPAC_TRADITIONAL_NAME>
2-[bis(2-pyridylmethyl)amino]ethyl-bis(2-pyridylmethyl)amine

> <PUBCHEM_IUPAC_INCHI>
InChI=1S/C26H28N6/c1-5-13-27-23(9-1)19-31(20-24-10-2-6-14-28-24)17-18-32(21-25-11-3-7-15-29-25)22-26-12-4-8-16-30-26/h1-16H,17-22H2

> <PUBCHEM_IUPAC_INCHIKEY>
CVRXLMUYFMERMJ-UHFFFAOYSA-N

> <PUBCHEM_XLOGP3_AA>
2.1

> <PUBCHEM_EXACT_MASS>
424.237545

> <PUBCHEM_MOLECULAR_FORMULA>
C26H28N6

> <PUBCHEM_MOLECULAR_WEIGHT>
424.54072

> <PUBCHEM_OPENEYE_CAN_SMILES>
C1=CC=NC(=C1)CN(CCN(CC2=CC=CC=N2)CC3=CC=CC=N3)CC4=CC=CC=N4

> <PUBCHEM_OPENEYE_ISO_SMILES>
C1=CC=NC(=C1)CN(CCN(CC2=CC=CC=N2)CC3=CC=CC=N3)CC4=CC=CC=N4

> <PUBCHEM_CACTVS_TPSA>
58

> <PUBCHEM_MONOISOTOPIC_WEIGHT>
424.237545

> <PUBCHEM_TOTAL_CHARGE>
0

> <PUBCHEM_HEAVY_ATOM_COUNT>
32

> <PUBCHEM_ATOM_DEF_STEREO_COUNT>
0

> <PUBCHEM_ATOM_UDEF_STEREO_COUNT>
0

> <PUBCHEM_BOND_DEF_STEREO_COUNT>
0

> <PUBCHEM_BOND_UDEF_STEREO_COUNT>
0

> <PUBCHEM_ISOTOPIC_ATOM_COUNT>
0

> <PUBCHEM_COMPONENT_COUNT>
1

> <PUBCHEM_CACTVS_TAUTO_COUNT>
1

> <PUBCHEM_COORDINATE_TYPE>
1
5
255

> <PUBCHEM_BONDANNOTATIONS>
13  17  8
14  18  8
15  19  8
16  20  8
17  21  8
18  22  8
19  23  8
20  24  8
21  30  8
22  29  8
23  31  8
24  32  8
25  32  8
26  31  8
27  29  8
28  30  8
3  15  8
3  26  8
4  16  8
4  25  8
5  13  8
5  28  8
6  14  8
6  27  8

$$$$

