248015
  -OEChem-07051213063D

 53 57  0     1  0  0  0  0  0999 V2000
    3.1341    0.1621   -0.7584 O   0  0  0  0  0  0  0  0  0  0  0  0
    3.1486   -0.7533    1.3849 O   0  0  0  0  0  0  0  0  0  0  0  0
   -4.7374    0.5692   -0.0019 C   0  0  1  0  0  0  0  0  0  0  0  0
   -3.2249    0.6872    0.1605 C   0  0  1  0  0  0  0  0  0  0  0  0
   -5.2401   -0.8450    0.3659 C   0  0  2  0  0  0  0  0  0  0  0  0
   -2.5545   -0.2961   -0.8502 C   0  0  2  0  0  0  0  0  0  0  0  0
   -4.6684   -1.8063   -0.6799 C   0  0  0  0  0  0  0  0  0  0  0  0
   -3.1259   -1.7373   -0.7218 C   0  0  0  0  0  0  0  0  0  0  0  0
   -5.6880    1.5159    0.7255 C   0  0  0  0  0  0  0  0  0  0  0  0
   -2.7059    2.1005   -0.1057 C   0  0  0  0  0  0  0  0  0  0  0  0
   -6.7220   -0.5697    0.3419 C   0  0  0  0  0  0  0  0  0  0  0  0
   -1.0338   -0.1893   -0.7902 C   0  0  0  0  0  0  0  0  0  0  0  0
   -4.8895   -1.3293    1.7909 C   0  0  0  0  0  0  0  0  0  0  0  0
   -1.2112    2.1680    0.1965 C   0  0  0  0  0  0  0  0  0  0  0  0
   -6.9644    0.7281    0.5920 C   0  0  0  0  0  0  0  0  0  0  0  0
   -0.4183    0.9983   -0.3357 C   0  0  0  0  0  0  0  0  0  0  0  0
   -0.2110   -1.2264   -1.2640 C   0  0  0  0  0  0  0  0  0  0  0  0
    0.9841    1.0976   -0.3202 C   0  0  0  0  0  0  0  0  0  0  0  0
    1.1806   -1.1109   -1.2502 C   0  0  0  0  0  0  0  0  0  0  0  0
    1.7786    0.0492   -0.7748 C   0  0  0  0  0  0  0  0  0  0  0  0
    3.7356   -0.2845    0.4211 C   0  0  0  0  0  0  0  0  0  0  0  0
    5.2117   -0.1300    0.3647 C   0  0  0  0  0  0  0  0  0  0  0  0
    6.0020   -1.0217    1.0601 C   0  0  0  0  0  0  0  0  0  0  0  0
    5.7459    0.8998   -0.3818 C   0  0  0  0  0  0  0  0  0  0  0  0
    7.3884   -0.8769    1.0068 C   0  0  0  0  0  0  0  0  0  0  0  0
    7.1323    1.0445   -0.4351 C   0  0  0  0  0  0  0  0  0  0  0  0
    7.9534    0.1561    0.2593 C   0  0  0  0  0  0  0  0  0  0  0  0
   -4.9364    0.7405   -1.0767 H   0  0  0  0  0  0  0  0  0  0  0  0
   -2.9411    0.4182    1.1860 H   0  0  0  0  0  0  0  0  0  0  0  0
   -2.8193    0.0424   -1.8643 H   0  0  0  0  0  0  0  0  0  0  0  0
   -4.9825   -2.8366   -0.4723 H   0  0  0  0  0  0  0  0  0  0  0  0
   -5.0609   -1.5619   -1.6759 H   0  0  0  0  0  0  0  0  0  0  0  0
   -2.7101   -2.2197    0.1711 H   0  0  0  0  0  0  0  0  0  0  0  0
   -2.7997   -2.3460   -1.5736 H   0  0  0  0  0  0  0  0  0  0  0  0
   -5.4260    1.6763    1.7754 H   0  0  0  0  0  0  0  0  0  0  0  0
   -5.7597    2.4804    0.2145 H   0  0  0  0  0  0  0  0  0  0  0  0
   -3.2274    2.8379    0.5147 H   0  0  0  0  0  0  0  0  0  0  0  0
   -2.8878    2.3780   -1.1521 H   0  0  0  0  0  0  0  0  0  0  0  0
   -7.4853   -1.3267    0.2349 H   0  0  0  0  0  0  0  0  0  0  0  0
   -5.2293   -0.6301    2.5636 H   0  0  0  0  0  0  0  0  0  0  0  0
   -5.3688   -2.2945    1.9957 H   0  0  0  0  0  0  0  0  0  0  0  0
   -3.8157   -1.4680    1.9421 H   0  0  0  0  0  0  0  0  0  0  0  0
   -1.0700    2.2003    1.2846 H   0  0  0  0  0  0  0  0  0  0  0  0
   -0.8129    3.1038   -0.2142 H   0  0  0  0  0  0  0  0  0  0  0  0
   -7.9502    1.1574    0.6938 H   0  0  0  0  0  0  0  0  0  0  0  0
   -0.6354   -2.1440   -1.6601 H   0  0  0  0  0  0  0  0  0  0  0  0
    1.4572    2.0052    0.0497 H   0  0  0  0  0  0  0  0  0  0  0  0
    1.7896   -1.9323   -1.6181 H   0  0  0  0  0  0  0  0  0  0  0  0
    5.5739   -1.8320    1.6426 H   0  0  0  0  0  0  0  0  0  0  0  0
    5.1275    1.6116   -0.9200 H   0  0  0  0  0  0  0  0  0  0  0  0
    8.0279   -1.5690    1.5468 H   0  0  0  0  0  0  0  0  0  0  0  0
    7.5726    1.8506   -1.0147 H   0  0  0  0  0  0  0  0  0  0  0  0
    9.0328    0.2691    0.2182 H   0  0  0  0  0  0  0  0  0  0  0  0
  1 20  1  0  0  0  0
  1 21  1  0  0  0  0
  2 21  2  0  0  0  0
  3  4  1  0  0  0  0
  3  5  1  0  0  0  0
  3  9  1  0  0  0  0
  3 28  1  0  0  0  0
  4  6  1  0  0  0  0
  4 10  1  0  0  0  0
  4 29  1  0  0  0  0
  5  7  1  0  0  0  0
  5 11  1  0  0  0  0
  5 13  1  0  0  0  0
  6  8  1  0  0  0  0
  6 12  1  0  0  0  0
  6 30  1  0  0  0  0
  7  8  1  0  0  0  0
  7 31  1  0  0  0  0
  7 32  1  0  0  0  0
  8 33  1  0  0  0  0
  8 34  1  0  0  0  0
  9 15  1  0  0  0  0
  9 35  1  0  0  0  0
  9 36  1  0  0  0  0
 10 14  1  0  0  0  0
 10 37  1  0  0  0  0
 10 38  1  0  0  0  0
 11 15  2  0  0  0  0
 11 39  1  0  0  0  0
 12 16  2  0  0  0  0
 12 17  1  0  0  0  0
 13 40  1  0  0  0  0
 13 41  1  0  0  0  0
 13 42  1  0  0  0  0
 14 16  1  0  0  0  0
 14 43  1  0  0  0  0
 14 44  1  0  0  0  0
 15 45  1  0  0  0  0
 16 18  1  0  0  0  0
 17 19  2  0  0  0  0
 17 46  1  0  0  0  0
 18 20  2  0  0  0  0
 18 47  1  0  0  0  0
 19 20  1  0  0  0  0
 19 48  1  0  0  0  0
 21 22  1  0  0  0  0
 22 23  2  0  0  0  0
 22 24  1  0  0  0  0
 23 25  1  0  0  0  0
 23 49  1  0  0  0  0
 24 26  2  0  0  0  0
 24 50  1  0  0  0  0
 25 27  2  0  0  0  0
 25 51  1  0  0  0  0
 26 27  1  0  0  0  0
 26 52  1  0  0  0  0
 27 53  1  0  0  0  0
M  END
> <PUBCHEM_COMPOUND_CID>
248015

> <PUBCHEM_CONFORMER_RMSD>
0.8

> <PUBCHEM_CONFORMER_DIVERSEORDER>
1
13
18
23
7
21
4
19
15
8
11
20
22
17
24
5
16
6
3
14
12
9
10
2

> <PUBCHEM_MMFF94_PARTIAL_CHARGES>
31
1 -0.23
11 -0.29
12 -0.14
14 0.14
15 -0.29
16 -0.14
17 -0.15
18 -0.15
19 -0.15
2 -0.57
20 0.08
21 0.63
22 0.09
23 -0.15
24 -0.15
25 -0.15
26 -0.15
27 -0.15
39 0.15
45 0.15
46 0.15
47 0.15
48 0.15
49 0.15
5 0.14
50 0.15
51 0.15
52 0.15
53 0.15
6 0.14
9 0.14

> <PUBCHEM_EFFECTIVE_ROTOR_COUNT>
4

> <PUBCHEM_PHARMACOPHORE_FEATURES>
6
1 2 acceptor
5 3 5 9 11 15 rings
6 12 16 17 18 19 20 rings
6 22 23 24 25 26 27 rings
6 3 4 5 6 7 8 rings
6 4 6 10 12 14 16 rings

> <PUBCHEM_HEAVY_ATOM_COUNT>
27

> <PUBCHEM_ATOM_DEF_STEREO_COUNT>
4

> <PUBCHEM_ATOM_UDEF_STEREO_COUNT>
0

> <PUBCHEM_BOND_DEF_STEREO_COUNT>
0

> <PUBCHEM_BOND_UDEF_STEREO_COUNT>
0

> <PUBCHEM_ISOTOPIC_ATOM_COUNT>
0

> <PUBCHEM_COMPONENT_COUNT>
1

> <PUBCHEM_CACTVS_TAUTO_COUNT>
1

> <PUBCHEM_CONFORMER_ID>
0003C8CF00000001

> <PUBCHEM_MMFF94_ENERGY>
98.5853

> <PUBCHEM_FEATURE_SELFOVERLAP>
30.551

> <PUBCHEM_SHAPE_FINGERPRINT>
10 15 18335419062821703700
10290309 65 18115025350090298303
10299344 5 18343302565809545914
10319926 262 18041009401035710578
106641 1 18409729538978688888
10670039 82 9223238429566630415
11315181 36 18412544297968758585
11524674 6 16877664543493480839
11646440 116 17022621983805341744
12082328 90 11743846867131580531
12166972 35 17704070681934511812
12236239 1 18201720661029748020
12516196 113 16774080674485967116
12596602 18 18059858376605866584
12838862 33 18261120707790564813
13533116 47 18060143163403217786
13540713 4 17826223279199323805
13668630 136 15841548578494503264
13685833 64 16271928220680209438
13782708 43 15267066939064092912
13885169 127 16988850514048685189
14251764 18 18411138021826661022
14394314 77 18201156650451941977
14849402 71 18200307702932121884
14856354 85 18337390448405298927
14933364 13 18260267443532693000
15021287 119 17346874555458393661
15183329 4 9367348145742796854
15461852 350 17168151113890773469
15685185 35 17484506851811797828
15716309 27 18201721756072231090
17780758 139 18130786742364202651
18335252 114 5833987231065422058
21033648 29 16661227875022056618
21150785 3 8502653705604086822
21267235 1 18342739646485261718
21521721 280 17775284920715348200
22224240 67 17603309249561652646
23035841 295 18413110558872473258
23522609 53 18198318737557255132
23576562 1 8357672094087131723
24771293 8 17894906374417612001
2838139 119 5039949658638077131
3009799 131 12247679366182872308
335352 9 18335141978035046405
34797466 226 17894906314182549060
350125 39 18333732399137268916
4093350 32 15719664463634621142
4325135 7 18343582941264196188
5104073 3 18262510370049381929
5385378 56 16877937278887198086
5758199 1 16950559995583066999
5969126 39 15482678991363884654
6009941 240 17704353282392541905
7226269 152 18410012152554405577
9953998 17 18259707795728575705
999808 66 17418084400298120611

> <PUBCHEM_SHAPE_MULTIPOLES>
543.91
21.68
1.79
1.19
24
0.31
0.18
-0.77
7.13
-1.82
-0.05
-0.02
-0.43
-0.94

> <PUBCHEM_SHAPE_SELFOVERLAP>
1203.192

> <PUBCHEM_SHAPE_VOLUME>
290.3

> <PUBCHEM_COORDINATE_TYPE>
2
5
10

$$$$

