443004
  -OEChem-07051213002D

 44 46  0     1  0  0  0  0  0999 V2000
    3.7320   -0.8350    0.0000 O   0  0  0  0  0  0  0  0  0  0  0  0
    4.9764   -2.3890    0.0000 O   0  0  0  0  0  0  0  0  0  0  0  0
    2.8660    0.6650    0.0000 O   0  0  0  0  0  0  0  0  0  0  0  0
    6.5690    2.4500    0.0000 N   0  0  3  0  0  0  0  0  0  0  0  0
    7.0468    0.5015    0.0000 C   0  0  3  0  0  0  0  0  0  0  0  0
    7.3056    1.4674    0.0000 C   0  0  3  0  0  0  0  0  0  0  0  0
    5.5116   -0.7417    0.0000 C   0  0  1  0  0  0  0  0  0  0  0  0
    8.8787   -0.2574    0.0000 C   0  0  0  0  0  0  0  0  0  0  0  0
    4.5981   -0.3350    0.0000 C   0  0  1  0  0  0  0  0  0  0  0  0
    9.1375    0.7086    0.0000 C   0  0  0  0  0  0  0  0  0  0  0  0
    4.7026    0.6596    0.0000 C   0  0  0  0  0  0  0  0  0  0  0  0
    5.7195   -1.7198    0.0000 C   0  0  3  0  0  0  0  0  0  0  0  0
    6.0690    3.3160    0.0000 C   0  0  0  0  0  0  0  0  0  0  0  0
    6.6706   -2.0289    0.0000 C   0  0  0  0  0  0  0  0  0  0  0  0
    2.8660   -0.3350    0.0000 C   0  0  0  0  0  0  0  0  0  0  0  0
    6.8785   -3.0070    0.0000 C   0  0  0  0  0  0  0  0  0  0  0  0
    7.4137   -1.3597    0.0000 C   0  0  0  0  0  0  0  0  0  0  0  0
    2.0000   -0.8350    0.0000 C   0  0  0  0  0  0  0  0  0  0  0  0
    7.8296   -3.3160    0.0000 C   0  0  0  0  0  0  0  0  0  0  0  0
    8.3648   -1.6687    0.0000 C   0  0  0  0  0  0  0  0  0  0  0  0
    8.5727   -2.6469    0.0000 C   0  0  0  0  0  0  0  0  0  0  0  0
    7.1688   -0.3397    0.0000 H   0  0  0  0  0  0  0  0  0  0  0  0
    7.2666    0.6183    0.0000 H   0  0  0  0  0  0  0  0  0  0  0  0
    5.0298   -1.1319    0.0000 H   0  0  0  0  0  0  0  0  0  0  0  0
    8.6667   -0.8400    0.0000 H   0  0  0  0  0  0  0  0  0  0  0  0
    9.4700   -0.4438    0.0000 H   0  0  0  0  0  0  0  0  0  0  0  0
    4.0781    0.0027    0.0000 H   0  0  0  0  0  0  0  0  0  0  0  0
    9.7288    0.5221    0.0000 H   0  0  0  0  0  0  0  0  0  0  0  0
    9.3496    1.2912    0.0000 H   0  0  0  0  0  0  0  0  0  0  0  0
    4.6003    1.2711    0.0000 H   0  0  0  0  0  0  0  0  0  0  0  0
    4.0829    0.6407    0.0000 H   0  0  0  0  0  0  0  0  0  0  0  0
    5.8963   -2.5513    0.0000 H   0  0  0  0  0  0  0  0  0  0  0  0
    6.6059    3.6260    0.0000 H   0  0  0  0  0  0  0  0  0  0  0  0
    5.7590    3.8530    0.0000 H   0  0  0  0  0  0  0  0  0  0  0  0
    5.5320    3.0060    0.0000 H   0  0  0  0  0  0  0  0  0  0  0  0
    5.1053   -2.9954    0.0000 H   0  0  0  0  0  0  0  0  0  0  0  0
    6.4178   -3.4219    0.0000 H   0  0  0  0  0  0  0  0  0  0  0  0
    7.2848   -0.7533    0.0000 H   0  0  0  0  0  0  0  0  0  0  0  0
    1.6900   -0.2980    0.0000 H   0  0  0  0  0  0  0  0  0  0  0  0
    1.4631   -1.1450    0.0000 H   0  0  0  0  0  0  0  0  0  0  0  0
    2.3100   -1.3719    0.0000 H   0  0  0  0  0  0  0  0  0  0  0  0
    7.9585   -3.9225    0.0000 H   0  0  0  0  0  0  0  0  0  0  0  0
    8.8255   -1.2539    0.0000 H   0  0  0  0  0  0  0  0  0  0  0  0
    9.1624   -2.8385    0.0000 H   0  0  0  0  0  0  0  0  0  0  0  0
  9  1  1  6  0  0  0
  1 15  1  0  0  0  0
  2 12  1  0  0  0  0
  2 36  1  0  0  0  0
  3 15  2  0  0  0  0
  4  5  1  0  0  0  0
  4  6  1  0  0  0  0
  4 13  1  0  0  0  0
  5  7  1  0  0  0  0
  5  8  1  0  0  0  0
  5 22  1  0  0  0  0
  6 10  1  0  0  0  0
  6 11  1  0  0  0  0
  6 23  1  0  0  0  0
  7  9  1  0  0  0  0
  7 12  1  6  0  0  0
  7 24  1  0  0  0  0
  8 10  1  0  0  0  0
  8 25  1  0  0  0  0
  8 26  1  0  0  0  0
  9 11  1  0  0  0  0
  9 27  1  0  0  0  0
 10 28  1  0  0  0  0
 10 29  1  0  0  0  0
 11 30  1  0  0  0  0
 11 31  1  0  0  0  0
 12 14  1  0  0  0  0
 12 32  1  0  0  0  0
 13 33  1  0  0  0  0
 13 34  1  0  0  0  0
 13 35  1  0  0  0  0
 14 16  2  0  0  0  0
 14 17  1  0  0  0  0
 15 18  1  0  0  0  0
 16 19  1  0  0  0  0
 16 37  1  0  0  0  0
 17 20  2  0  0  0  0
 17 38  1  0  0  0  0
 18 39  1  0  0  0  0
 18 40  1  0  0  0  0
 18 41  1  0  0  0  0
 19 21  2  0  0  0  0
 19 42  1  0  0  0  0
 20 21  1  0  0  0  0
 20 43  1  0  0  0  0
 21 44  1  0  0  0  0
M  END
> <PUBCHEM_COMPOUND_CID>
443004

> <PUBCHEM_COMPOUND_CANONICALIZED>
1

> <PUBCHEM_CACTVS_COMPLEXITY>
380

> <PUBCHEM_CACTVS_HBOND_ACCEPTOR>
4

> <PUBCHEM_CACTVS_HBOND_DONOR>
1

> <PUBCHEM_CACTVS_ROTATABLE_BOND>
4

> <PUBCHEM_CACTVS_SUBSKEYS>
AAADceB6MAAAAAAAAAAAAAAAAAAAAWAAAAA8QAAABgAAAAABAAAAHgAACAAADTzhmAYyCIMABgCIAiDSCAACAAAgAAAIiAAICIgINiKAkRCGcAAnwAGImAeQ0OMOAAAAAAAAAAAAAAAAAAAAAAAAAAAAAA==

> <PUBCHEM_IUPAC_OPENEYE_NAME>
[(3R,4R)-4-[hydroxy(phenyl)methyl]-8-methyl-8-azabicyclo[3.2.1]octan-3-yl] acetate

> <PUBCHEM_IUPAC_CAS_NAME>
acetic acid [(3R,4R)-4-[hydroxy(phenyl)methyl]-8-methyl-8-azabicyclo[3.2.1]octan-3-yl] ester

> <PUBCHEM_IUPAC_NAME>
[(3R,4R)-4-[hydroxy(phenyl)methyl]-8-methyl-8-azabicyclo[3.2.1]octan-3-yl] acetate

> <PUBCHEM_IUPAC_SYSTEMATIC_NAME>
[(3R,4R)-8-methyl-4-[oxidanyl(phenyl)methyl]-8-azabicyclo[3.2.1]octan-3-yl] ethanoate

> <PUBCHEM_IUPAC_TRADITIONAL_NAME>
acetic acid [(3R,4R)-4-[hydroxy(phenyl)methyl]-8-methyl-8-azabicyclo[3.2.1]octan-3-yl] ester

> <PUBCHEM_IUPAC_INCHI>
InChI=1S/C17H23NO3/c1-11(19)21-15-10-13-8-9-14(18(13)2)16(15)17(20)12-6-4-3-5-7-12/h3-7,13-17,20H,8-10H2,1-2H3/t13?,14?,15-,16+,17?/m1/s1

> <PUBCHEM_IUPAC_INCHIKEY>
RNAIYSUVIULACI-ZPSGRKDYSA-N

> <PUBCHEM_XLOGP3_AA>
2.1

> <PUBCHEM_EXACT_MASS>
289.167794

> <PUBCHEM_MOLECULAR_FORMULA>
C17H23NO3

> <PUBCHEM_MOLECULAR_WEIGHT>
289.36942

> <PUBCHEM_OPENEYE_CAN_SMILES>
CC(=O)OC1CC2CCC(C1C(C3=CC=CC=C3)O)N2C

> <PUBCHEM_OPENEYE_ISO_SMILES>
CC(=O)O[C@@H]1CC2CCC([C@@H]1C(C3=CC=CC=C3)O)N2C

> <PUBCHEM_CACTVS_TPSA>
49.8

> <PUBCHEM_MONOISOTOPIC_WEIGHT>
289.167794

> <PUBCHEM_TOTAL_CHARGE>
0

> <PUBCHEM_HEAVY_ATOM_COUNT>
21

> <PUBCHEM_ATOM_DEF_STEREO_COUNT>
2

> <PUBCHEM_ATOM_UDEF_STEREO_COUNT>
3

> <PUBCHEM_BOND_DEF_STEREO_COUNT>
0

> <PUBCHEM_BOND_UDEF_STEREO_COUNT>
0

> <PUBCHEM_ISOTOPIC_ATOM_COUNT>
0

> <PUBCHEM_COMPONENT_COUNT>
1

> <PUBCHEM_CACTVS_TAUTO_COUNT>
1

> <PUBCHEM_COORDINATE_TYPE>
1
5
255

> <PUBCHEM_BONDANNOTATIONS>
9  1  6
12  32  3
14  16  8
14  17  8
16  19  8
17  20  8
19  21  8
20  21  8
5  22  3
6  23  3
7  12  6

$$$$

