10207
  -OEChem-06261204223D

 30 32  0     0  0  0  0  0  0999 V2000
    1.5525   -2.9525   -0.0584 O   0  0  0  0  0  0  0  0  0  0  0  0
   -0.9518   -2.4244    0.0443 O   0  0  0  0  0  0  0  0  0  0  0  0
   -0.0347    2.8370   -0.1418 O   0  0  0  0  0  0  0  0  0  0  0  0
   -3.4864   -2.0663    0.1507 O   0  0  0  0  0  0  0  0  0  0  0  0
    5.1655    0.9606    1.0120 O   0  0  0  0  0  0  0  0  0  0  0  0
    0.8793    0.6731   -0.1261 C   0  0  0  0  0  0  0  0  0  0  0  0
    0.6396   -0.7018   -0.0772 C   0  0  0  0  0  0  0  0  0  0  0  0
   -1.8659   -0.2613    0.0257 C   0  0  0  0  0  0  0  0  0  0  0  0
   -1.6262    1.1137   -0.0232 C   0  0  0  0  0  0  0  0  0  0  0  0
   -0.7417   -1.2192    0.0006 C   0  0  0  0  0  0  0  0  0  0  0  0
   -0.2448    1.6310   -0.1010 C   0  0  0  0  0  0  0  0  0  0  0  0
    2.1934    1.1506   -0.1998 C   0  0  0  0  0  0  0  0  0  0  0  0
    1.7140   -1.5991   -0.1019 C   0  0  0  0  0  0  0  0  0  0  0  0
    3.2611    0.2529   -0.2243 C   0  0  0  0  0  0  0  0  0  0  0  0
    3.0220   -1.1191   -0.1755 C   0  0  0  0  0  0  0  0  0  0  0  0
   -3.1800   -0.7387    0.0993 C   0  0  0  0  0  0  0  0  0  0  0  0
   -2.7005    2.0111    0.0014 C   0  0  0  0  0  0  0  0  0  0  0  0
    4.6608    0.7624   -0.3028 C   0  0  0  0  0  0  0  0  0  0  0  0
   -4.2477    0.1591    0.1233 C   0  0  0  0  0  0  0  0  0  0  0  0
   -4.0084    1.5311    0.0746 C   0  0  0  0  0  0  0  0  0  0  0  0
    2.3937    2.2187   -0.2365 H   0  0  0  0  0  0  0  0  0  0  0  0
    3.8602   -1.8121   -0.1932 H   0  0  0  0  0  0  0  0  0  0  0  0
   -2.5405    3.0853   -0.0356 H   0  0  0  0  0  0  0  0  0  0  0  0
    5.3153    0.0561   -0.8243 H   0  0  0  0  0  0  0  0  0  0  0  0
    4.7123    1.7120   -0.8465 H   0  0  0  0  0  0  0  0  0  0  0  0
   -5.2706   -0.2037    0.1804 H   0  0  0  0  0  0  0  0  0  0  0  0
   -4.8414    2.2279    0.0936 H   0  0  0  0  0  0  0  0  0  0  0  0
    2.4219   -3.3871   -0.0866 H   0  0  0  0  0  0  0  0  0  0  0  0
   -2.6825   -2.6064    0.1290 H   0  0  0  0  0  0  0  0  0  0  0  0
    4.5118    1.4753    1.5155 H   0  0  0  0  0  0  0  0  0  0  0  0
  1 13  1  0  0  0  0
  1 28  1  0  0  0  0
  2 10  2  0  0  0  0
  3 11  2  0  0  0  0
  4 16  1  0  0  0  0
  4 29  1  0  0  0  0
  5 18  1  0  0  0  0
  5 30  1  0  0  0  0
  6  7  2  0  0  0  0
  6 11  1  0  0  0  0
  6 12  1  0  0  0  0
  7 10  1  0  0  0  0
  7 13  1  0  0  0  0
  8  9  2  0  0  0  0
  8 10  1  0  0  0  0
  8 16  1  0  0  0  0
  9 11  1  0  0  0  0
  9 17  1  0  0  0  0
 12 14  2  0  0  0  0
 12 21  1  0  0  0  0
 13 15  2  0  0  0  0
 14 15  1  0  0  0  0
 14 18  1  0  0  0  0
 15 22  1  0  0  0  0
 16 19  2  0  0  0  0
 17 20  2  0  0  0  0
 17 23  1  0  0  0  0
 18 24  1  0  0  0  0
 18 25  1  0  0  0  0
 19 20  1  0  0  0  0
 19 26  1  0  0  0  0
 20 27  1  0  0  0  0
M  END
> <PUBCHEM_COMPOUND_CID>
10207

> <PUBCHEM_CONFORMER_RMSD>
0.6

> <PUBCHEM_CONFORMER_DIVERSEORDER>
1

> <PUBCHEM_MMFF94_PARTIAL_CHARGES>
28
1 -0.53
10 0.4
11 0.4
12 -0.15
13 0.08
14 -0.14
15 -0.15
16 0.08
17 -0.15
18 0.42
19 -0.15
2 -0.57
20 -0.15
21 0.15
22 0.15
23 0.15
26 0.15
27 0.15
28 0.45
29 0.45
3 -0.57
30 0.4
4 -0.53
5 -0.68
6 0.09
7 0.09
8 0.09
9 0.09

> <PUBCHEM_EFFECTIVE_ROTOR_COUNT>
1

> <PUBCHEM_PHARMACOPHORE_FEATURES>
9
1 1 donor
1 2 acceptor
1 3 acceptor
1 4 donor
1 5 acceptor
1 5 donor
6 6 7 12 13 14 15 rings
6 6 7 8 9 10 11 rings
6 8 9 16 17 19 20 rings

> <PUBCHEM_HEAVY_ATOM_COUNT>
20

> <PUBCHEM_ATOM_DEF_STEREO_COUNT>
0

> <PUBCHEM_ATOM_UDEF_STEREO_COUNT>
0

> <PUBCHEM_BOND_DEF_STEREO_COUNT>
0

> <PUBCHEM_BOND_UDEF_STEREO_COUNT>
0

> <PUBCHEM_ISOTOPIC_ATOM_COUNT>
0

> <PUBCHEM_COMPONENT_COUNT>
1

> <PUBCHEM_CACTVS_TAUTO_COUNT>
24

> <PUBCHEM_CONFORMER_ID>
000027DF00000001

> <PUBCHEM_MMFF94_ENERGY>
62.9331

> <PUBCHEM_FEATURE_SELFOVERLAP>
45.711

> <PUBCHEM_SHAPE_FINGERPRINT>
10319926 262 18263664921973193896
10411042 1 17473823927394090238
10493431 412 18335973281597593329
10498660 4 18411134774900093476
10608611 8 18339079401312726181
10616163 171 18410851040807605703
10863032 1 18336545027063261545
10967382 1 18339077211037530823
11132069 177 18412543227672731773
12236239 1 17775005653341531364
12403814 3 17561367283419599285
12839892 36 18339941384586395658
13132413 78 18408882919236093637
13140716 1 17978504239761163491
13214271 11 18408044000474893773
13380535 76 18412543215004146682
138480 1 17762618795138995606
14223421 5 18267584804456866750
14787075 74 17969227733151241568
14790565 3 18339350860700736780
15196674 1 18410854394981599166
15375358 24 18412544322915584136
15442244 35 18050848024322994571
15536298 74 18335418027776803014
16945 1 18267018367274837567
19591789 44 18338232644157135308
19784866 170 18411698798827284792
200 152 18113342998852675629
20510252 161 18261390091463867504
21029758 11 18334298647720376153
21267235 1 18339631278840562295
21421861 104 17915464023966046482
21501502 16 18339080517946187795
2334 1 18411134762199658303
23366157 5 17987229122531993790
23402539 116 18335709307958044358
23463225 33 18341046427720215045
23557571 272 18261659403556984366
23559900 14 18119250803667678950
2748010 2 18339073899670519239
335352 9 17762899166434939173
34934 24 18410860992420572487
350125 39 18267297626064578993
3545911 37 18410852191668748565
43471831 8 18342177799637302722
5104073 3 18339077193673156610
7364860 26 18191305081943219302
9709674 26 18410004459614149534

> <PUBCHEM_SHAPE_MULTIPOLES>
382.24
8.07
2.69
0.65
3.05
0.68
-0.03
-1.85
-0.83
-0.51
0.02
0.24
-0.07
0.23

> <PUBCHEM_SHAPE_SELFOVERLAP>
863.961

> <PUBCHEM_SHAPE_VOLUME>
198.7

> <PUBCHEM_COORDINATE_TYPE>
2
5
10

$$$$

