4518
  -OEChem-06261200112D

 24 23  0     1  0  0  0  0  0999 V2000
    6.0010    2.1550    0.0000 O   0  5  0  0  0  0  0  0  0  0  0  0
    7.7331    1.1550    0.0000 O   0  0  0  0  0  0  0  0  0  0  0  0
    5.1350    0.6550    0.0000 N   0  0  3  0  0  0  0  0  0  0  0  0
    2.5369    1.1550    0.0000 N   0  3  0  0  0  0  0  0  0  0  0  0
    6.0010    1.1550    0.0000 N   0  0  0  0  0  0  0  0  0  0  0  0
    4.2690   -1.8450    0.0000 N   0  0  0  0  0  0  0  0  0  0  0  0
    6.8671    0.6550    0.0000 N   0  0  0  0  0  0  0  0  0  0  0  0
    4.2690    1.1550    0.0000 C   0  0  0  0  0  0  0  0  0  0  0  0
    5.1350   -0.3450    0.0000 C   0  0  0  0  0  0  0  0  0  0  0  0
    3.4030    0.6550    0.0000 C   0  0  0  0  0  0  0  0  0  0  0  0
    4.2690   -0.8450    0.0000 C   0  0  0  0  0  0  0  0  0  0  0  0
    4.6675    1.6300    0.0000 H   0  0  0  0  0  0  0  0  0  0  0  0
    3.8705    1.6300    0.0000 H   0  0  0  0  0  0  0  0  0  0  0  0
    5.3471   -0.9276    0.0000 H   0  0  0  0  0  0  0  0  0  0  0  0
    5.7456   -0.2373    0.0000 H   0  0  0  0  0  0  0  0  0  0  0  0
    3.0044    0.1801    0.0000 H   0  0  0  0  0  0  0  0  0  0  0  0
    3.8015    0.1801    0.0000 H   0  0  0  0  0  0  0  0  0  0  0  0
    4.0569   -0.2624    0.0000 H   0  0  0  0  0  0  0  0  0  0  0  0
    3.6584   -0.9527    0.0000 H   0  0  0  0  0  0  0  0  0  0  0  0
    2.0000    1.4650    0.0000 H   0  0  0  0  0  0  0  0  0  0  0  0
    2.2269    0.6181    0.0000 H   0  0  0  0  0  0  0  0  0  0  0  0
    2.8469    1.6919    0.0000 H   0  0  0  0  0  0  0  0  0  0  0  0
    3.7320   -2.1550    0.0000 H   0  0  0  0  0  0  0  0  0  0  0  0
    4.8059   -2.1550    0.0000 H   0  0  0  0  0  0  0  0  0  0  0  0
  1  5  1  0  0  0  0
  2  7  2  0  0  0  0
  3  5  1  0  0  0  0
  3  8  1  0  0  0  0
  3  9  1  0  0  0  0
  4 10  1  0  0  0  0
  4 20  1  0  0  0  0
  4 21  1  0  0  0  0
  4 22  1  0  0  0  0
  5  7  1  0  0  0  0
  6 11  1  0  0  0  0
  6 23  1  0  0  0  0
  6 24  1  0  0  0  0
  8 10  1  0  0  0  0
  8 12  1  0  0  0  0
  8 13  1  0  0  0  0
  9 11  1  0  0  0  0
  9 14  1  0  0  0  0
  9 15  1  0  0  0  0
 10 16  1  0  0  0  0
 10 17  1  0  0  0  0
 11 18  1  0  0  0  0
 11 19  1  0  0  0  0
M  CHG  2   1  -1   4   1
M  END
> <PUBCHEM_COMPOUND_CID>
4518

> <PUBCHEM_COMPOUND_CANONICALIZED>
1

> <PUBCHEM_CACTVS_COMPLEXITY>
111

> <PUBCHEM_CACTVS_HBOND_ACCEPTOR>
6

> <PUBCHEM_CACTVS_HBOND_DONOR>
2

> <PUBCHEM_CACTVS_ROTATABLE_BOND>
5

> <PUBCHEM_CACTVS_SUBSKEYS>
AAADccBjsAAAAAAAAAAAAAAAAAAAAAAAAAAAAAAAAAAAAAAAAAAAHAAcAAAAAADBAAQAAAJAAAABAAAAAAAAAAAAAAAQAIAIAAAAQAAAAAAQAAAAEACAAAAAAAAAAAAAAAAAAAAAAAAAAAAAAAAAAAAAAA==

> <PUBCHEM_IUPAC_OPENEYE_NAME>
2-[2-aminoethyl-[nitroso(oxido)amino]amino]ethylammonium

> <PUBCHEM_IUPAC_CAS_NAME>
2-[2-aminoethyl-[nitroso(oxido)amino]amino]ethylammonium

> <PUBCHEM_IUPAC_NAME>
2-[2-aminoethyl-[nitroso(oxido)amino]amino]ethylazanium

> <PUBCHEM_IUPAC_SYSTEMATIC_NAME>
2-[2-azanylethyl-[nitroso(oxidanidyl)amino]amino]ethylazanium

> <PUBCHEM_IUPAC_TRADITIONAL_NAME>
2-[2-aminoethyl-[nitroso(oxido)amino]amino]ethylammonium

> <PUBCHEM_IUPAC_INCHI>
InChI=1S/C4H12N5O2/c5-1-3-8(4-2-6)9(11)7-10/h1-6H2/q-1/p+1

> <PUBCHEM_IUPAC_INCHIKEY>
PAOXTYJXTPPVHU-UHFFFAOYSA-O

> <PUBCHEM_XLOGP3_AA>
-2

> <PUBCHEM_EXACT_MASS>
163.106925

> <PUBCHEM_MOLECULAR_FORMULA>
C4H13N5O2

> <PUBCHEM_MOLECULAR_WEIGHT>
163.17832

> <PUBCHEM_OPENEYE_CAN_SMILES>
C(CN(CCN)N(N=O)[O-])[NH3+]

> <PUBCHEM_OPENEYE_ISO_SMILES>
C(CN(CCN)N(N=O)[O-])[NH3+]

> <PUBCHEM_CACTVS_TPSA>
113

> <PUBCHEM_MONOISOTOPIC_WEIGHT>
163.106925

> <PUBCHEM_TOTAL_CHARGE>
0

> <PUBCHEM_HEAVY_ATOM_COUNT>
11

> <PUBCHEM_ATOM_DEF_STEREO_COUNT>
0

> <PUBCHEM_ATOM_UDEF_STEREO_COUNT>
0

> <PUBCHEM_BOND_DEF_STEREO_COUNT>
0

> <PUBCHEM_BOND_UDEF_STEREO_COUNT>
0

> <PUBCHEM_ISOTOPIC_ATOM_COUNT>
0

> <PUBCHEM_COMPONENT_COUNT>
1

> <PUBCHEM_CACTVS_TAUTO_COUNT>
1

> <PUBCHEM_COORDINATE_TYPE>
1
5
255

$$$$

