46173921
  -OEChem-07051213103D

 39 39  0     0  0  0  0  0  0999 V2000
   -0.8181    1.1182   -2.1145 O   0  0  0  0  0  0  0  0  0  0  0  0
   -3.7021    0.7209    1.5571 O   0  0  0  0  0  0  0  0  0  0  0  0
    2.9977   -1.0860    1.1244 C   0  0  0  0  0  0  0  0  0  0  0  0
   -1.2723   -0.5515   -0.5156 C   0  0  0  0  0  0  0  0  0  0  0  0
   -0.3437   -1.7130   -0.7876 C   0  0  0  0  0  0  0  0  0  0  0  0
    3.0466    0.4505    1.3386 C   0  0  0  0  0  0  0  0  0  0  0  0
    2.1041   -1.4683   -0.0502 C   0  0  0  0  0  0  0  0  0  0  0  0
   -0.4029    1.8005    0.1681 C   0  0  0  0  0  0  0  0  0  0  0  0
    1.1024    1.7237    0.2820 C   0  0  0  0  0  0  0  0  0  0  0  0
    0.7976   -1.7066    0.1892 C   0  0  0  0  0  0  0  0  0  0  0  0
   -0.8534    0.8243   -0.9199 C   0  0  0  0  0  0  0  0  0  0  0  0
    1.6527    1.0309    1.3004 C   0  0  0  0  0  0  0  0  0  0  0  0
   -2.4937   -0.6580    0.0227 C   0  0  0  0  0  0  0  0  0  0  0  0
    2.7445   -1.3864   -1.4049 C   0  0  0  0  0  0  0  0  0  0  0  0
    1.8776    2.3460   -0.8464 C   0  0  0  0  0  0  0  0  0  0  0  0
   -3.3933    0.5365    0.1821 C   0  0  0  0  0  0  0  0  0  0  0  0
   -3.0438   -1.9816    0.4745 C   0  0  0  0  0  0  0  0  0  0  0  0
    2.6326   -1.5613    2.0449 H   0  0  0  0  0  0  0  0  0  0  0  0
    4.0119   -1.4739    0.9716 H   0  0  0  0  0  0  0  0  0  0  0  0
   -0.8457   -2.6837   -0.7408 H   0  0  0  0  0  0  0  0  0  0  0  0
    0.0046   -1.6283   -1.8218 H   0  0  0  0  0  0  0  0  0  0  0  0
    3.5041    0.6711    2.3096 H   0  0  0  0  0  0  0  0  0  0  0  0
    3.6985    0.8927    0.5798 H   0  0  0  0  0  0  0  0  0  0  0  0
   -0.7322    2.8110   -0.0977 H   0  0  0  0  0  0  0  0  0  0  0  0
   -0.8920    1.5556    1.1172 H   0  0  0  0  0  0  0  0  0  0  0  0
    0.4778   -1.7585    1.2310 H   0  0  0  0  0  0  0  0  0  0  0  0
    0.9950    0.6567    2.0846 H   0  0  0  0  0  0  0  0  0  0  0  0
    3.0995   -0.3718   -1.6062 H   0  0  0  0  0  0  0  0  0  0  0  0
    2.0750   -1.6757   -2.2176 H   0  0  0  0  0  0  0  0  0  0  0  0
    3.6052   -2.0625   -1.4478 H   0  0  0  0  0  0  0  0  0  0  0  0
    1.4877    3.3473   -1.0602 H   0  0  0  0  0  0  0  0  0  0  0  0
    2.9377    2.4734   -0.6130 H   0  0  0  0  0  0  0  0  0  0  0  0
    1.7964    1.7449   -1.7563 H   0  0  0  0  0  0  0  0  0  0  0  0
   -4.3335    0.3336   -0.3448 H   0  0  0  0  0  0  0  0  0  0  0  0
   -3.0230    1.4836   -0.2124 H   0  0  0  0  0  0  0  0  0  0  0  0
   -3.7258   -1.8501    1.3216 H   0  0  0  0  0  0  0  0  0  0  0  0
   -3.6083   -2.4524   -0.3366 H   0  0  0  0  0  0  0  0  0  0  0  0
   -2.2731   -2.6737    0.8244 H   0  0  0  0  0  0  0  0  0  0  0  0
   -4.3376    1.4549    1.6121 H   0  0  0  0  0  0  0  0  0  0  0  0
  1 11  2  0  0  0  0
  2 16  1  0  0  0  0
  2 39  1  0  0  0  0
  3  6  1  0  0  0  0
  3  7  1  0  0  0  0
  3 18  1  0  0  0  0
  3 19  1  0  0  0  0
  4  5  1  0  0  0  0
  4 11  1  0  0  0  0
  4 13  2  0  0  0  0
  5 10  1  0  0  0  0
  5 20  1  0  0  0  0
  5 21  1  0  0  0  0
  6 12  1  0  0  0  0
  6 22  1  0  0  0  0
  6 23  1  0  0  0  0
  7 10  2  0  0  0  0
  7 14  1  0  0  0  0
  8  9  1  0  0  0  0
  8 11  1  0  0  0  0
  8 24  1  0  0  0  0
  8 25  1  0  0  0  0
  9 12  2  0  0  0  0
  9 15  1  0  0  0  0
 10 26  1  0  0  0  0
 12 27  1  0  0  0  0
 13 16  1  0  0  0  0
 13 17  1  0  0  0  0
 14 28  1  0  0  0  0
 14 29  1  0  0  0  0
 14 30  1  0  0  0  0
 15 31  1  0  0  0  0
 15 32  1  0  0  0  0
 15 33  1  0  0  0  0
 16 34  1  0  0  0  0
 16 35  1  0  0  0  0
 17 36  1  0  0  0  0
 17 37  1  0  0  0  0
 17 38  1  0  0  0  0
M  END
> <PUBCHEM_COMPOUND_CID>
46173921

> <PUBCHEM_CONFORMER_RMSD>
0.6

> <PUBCHEM_CONFORMER_DIVERSEORDER>
2
8
6
1
7
3
4
5

> <PUBCHEM_MMFF94_PARTIAL_CHARGES>
20
1 -0.57
10 -0.29
11 0.49
12 -0.29
13 -0.28
14 0.14
15 0.14
16 0.42
17 0.14
2 -0.68
26 0.15
27 0.15
3 0.14
39 0.4
4 -0.12
5 0.28
6 0.14
7 -0.28
8 0.2
9 -0.28

> <PUBCHEM_EFFECTIVE_ROTOR_COUNT>
1.8

> <PUBCHEM_PHARMACOPHORE_FEATURES>
4
1 1 acceptor
1 17 hydrophobe
1 2 acceptor
1 2 donor

> <PUBCHEM_HEAVY_ATOM_COUNT>
17

> <PUBCHEM_ATOM_DEF_STEREO_COUNT>
0

> <PUBCHEM_ATOM_UDEF_STEREO_COUNT>
0

> <PUBCHEM_BOND_DEF_STEREO_COUNT>
3

> <PUBCHEM_BOND_UDEF_STEREO_COUNT>
0

> <PUBCHEM_ISOTOPIC_ATOM_COUNT>
0

> <PUBCHEM_COMPONENT_COUNT>
1

> <PUBCHEM_CACTVS_TAUTO_COUNT>
13

> <PUBCHEM_CONFORMER_ID>
02C08EE100000002

> <PUBCHEM_MMFF94_ENERGY>
39.2913

> <PUBCHEM_FEATURE_SELFOVERLAP>
20.297

> <PUBCHEM_SHAPE_FINGERPRINT>
10382601 240 18058444305715545112
10980938 120 18262515884006758563
11067466 332 18271803562201559834
11086676 242 18342739654178462658
11132069 177 18412266172370466483
12011746 2 18046057422501984037
12251169 10 18411700985023738891
12382932 28 18261967279201862736
12633257 1 18340208587059435443
12696612 119 18339090302103214698
12716301 132 17700715100904927157
13140716 1 18409167705806552443
14817 1 16266352678915361268
15881359 60 17835845990306703686
16945 1 18342175626219976359
18981168 100 15287288083270145979
20691752 17 17774723065108447923
21061003 4 18337401550942705138
21501502 16 18340204077438706547
22721475 48 18410864277880669296
22802520 49 17391353292547014694
2334 1 18265897964836677471
23419403 2 12996788492475739552
23463225 33 18341059505705772825
2748010 2 18192732239271616468
5262128 65 12390967815872202154
84936 31 17095239233176947262

> <PUBCHEM_SHAPE_MULTIPOLES>
338.11
5.36
2.49
1.49
2.47
0.19
0.22
-0.91
-1.98
-0.68
0.33
-0.36
0.26
0.15

> <PUBCHEM_SHAPE_SELFOVERLAP>
676.39

> <PUBCHEM_SHAPE_VOLUME>
198.4

> <PUBCHEM_COORDINATE_TYPE>
2
5
10

$$$$

