159358
  -OEChem-07051213063D

 57 60  0     1  0  0  0  0  0999 V2000
    3.8350    0.6546    0.6000 O   0  0  0  0  0  0  0  0  0  0  0  0
    5.4801   -0.5122   -0.5267 O   0  0  0  0  0  0  0  0  0  0  0  0
   -0.8613   -0.9025    0.3334 C   0  0  1  0  0  0  0  0  0  0  0  0
    0.6046   -0.9061   -0.1205 C   0  0  1  0  0  0  0  0  0  0  0  0
   -1.5444    0.4031   -0.1828 C   0  0  1  0  0  0  0  0  0  0  0  0
    1.4028    0.3114    0.3963 C   0  0  2  0  0  0  0  0  0  0  0  0
   -3.0681    0.4626    0.1998 C   0  0  2  0  0  0  0  0  0  0  0  0
   -0.7430    1.6756    0.1981 C   0  0  0  0  0  0  0  0  0  0  0  0
    0.7497    1.5864   -0.1697 C   0  0  0  0  0  0  0  0  0  0  0  0
   -3.7559   -0.8340   -0.3366 C   0  0  1  0  0  0  0  0  0  0  0  0
    2.8293   -0.0435   -0.1223 C   0  0  2  0  0  0  0  0  0  0  0  0
   -1.6037   -2.1480   -0.1728 C   0  0  0  0  0  0  0  0  0  0  0  0
    1.4833   -2.0963    0.2575 C   0  0  0  0  0  0  0  0  0  0  0  0
   -3.0895   -2.1170    0.1729 C   0  0  0  0  0  0  0  0  0  0  0  0
    2.9285   -1.5680    0.1476 C   0  0  0  0  0  0  0  0  0  0  0  0
   -3.7533    1.6786   -0.4972 C   0  0  0  0  0  0  0  0  0  0  0  0
    1.4316    0.4219    1.9497 C   0  0  0  0  0  0  0  0  0  0  0  0
   -3.2530    0.6095    1.7336 C   0  0  0  0  0  0  0  0  0  0  0  0
   -5.2721   -0.8567   -0.0642 C   0  0  0  0  0  0  0  0  0  0  0  0
   -5.2523    1.5893   -0.5701 C   0  0  0  0  0  0  0  0  0  0  0  0
    3.0178    0.2306   -1.5607 C   0  0  0  0  0  0  0  0  0  0  0  0
   -5.9344    0.4552   -0.3622 C   0  0  0  0  0  0  0  0  0  0  0  0
    5.1261    0.3203    0.2972 C   0  0  0  0  0  0  0  0  0  0  0  0
    3.1705    0.4537   -2.7303 C   0  0  0  0  0  0  0  0  0  0  0  0
    6.0717    1.1314    1.1302 C   0  0  0  0  0  0  0  0  0  0  0  0
   -0.8947   -0.9282    1.4275 H   0  0  0  0  0  0  0  0  0  0  0  0
    0.5857   -0.8754   -1.2218 H   0  0  0  0  0  0  0  0  0  0  0  0
   -1.5047    0.3544   -1.2830 H   0  0  0  0  0  0  0  0  0  0  0  0
   -0.8350    1.8843    1.2678 H   0  0  0  0  0  0  0  0  0  0  0  0
   -1.1626    2.5465   -0.3187 H   0  0  0  0  0  0  0  0  0  0  0  0
    0.8172    1.6100   -1.2635 H   0  0  0  0  0  0  0  0  0  0  0  0
    1.2730    2.4796    0.1924 H   0  0  0  0  0  0  0  0  0  0  0  0
   -3.6365   -0.8334   -1.4321 H   0  0  0  0  0  0  0  0  0  0  0  0
   -1.1607   -3.0528    0.2595 H   0  0  0  0  0  0  0  0  0  0  0  0
   -1.4908   -2.2315   -1.2614 H   0  0  0  0  0  0  0  0  0  0  0  0
    1.3214   -2.9482   -0.4111 H   0  0  0  0  0  0  0  0  0  0  0  0
    1.2805   -2.4359    1.2795 H   0  0  0  0  0  0  0  0  0  0  0  0
   -3.5758   -2.9906   -0.2784 H   0  0  0  0  0  0  0  0  0  0  0  0
   -3.2191   -2.2168    1.2568 H   0  0  0  0  0  0  0  0  0  0  0  0
    3.4628   -1.7871    1.0802 H   0  0  0  0  0  0  0  0  0  0  0  0
    3.4529   -2.1059   -0.6516 H   0  0  0  0  0  0  0  0  0  0  0  0
   -3.3819    1.7848   -1.5245 H   0  0  0  0  0  0  0  0  0  0  0  0
   -3.4915    2.6050    0.0286 H   0  0  0  0  0  0  0  0  0  0  0  0
    1.9781    1.3200    2.2609 H   0  0  0  0  0  0  0  0  0  0  0  0
    0.4350    0.4911    2.3924 H   0  0  0  0  0  0  0  0  0  0  0  0
    1.9246   -0.4338    2.4218 H   0  0  0  0  0  0  0  0  0  0  0  0
   -2.8242    1.5478    2.0999 H   0  0  0  0  0  0  0  0  0  0  0  0
   -4.3079    0.6254    2.0245 H   0  0  0  0  0  0  0  0  0  0  0  0
   -2.7826   -0.2041    2.2915 H   0  0  0  0  0  0  0  0  0  0  0  0
   -5.4805   -1.1298    0.9770 H   0  0  0  0  0  0  0  0  0  0  0  0
   -5.7325   -1.6317   -0.6892 H   0  0  0  0  0  0  0  0  0  0  0  0
   -5.7971    2.4994   -0.8043 H   0  0  0  0  0  0  0  0  0  0  0  0
   -7.0192    0.4711   -0.4133 H   0  0  0  0  0  0  0  0  0  0  0  0
    3.3058    0.6516   -3.7677 H   0  0  0  0  0  0  0  0  0  0  0  0
    5.8992    0.9277    2.1899 H   0  0  0  0  0  0  0  0  0  0  0  0
    5.9361    2.1942    0.9149 H   0  0  0  0  0  0  0  0  0  0  0  0
    7.1009    0.8541    0.8848 H   0  0  0  0  0  0  0  0  0  0  0  0
  1 11  1  0  0  0  0
  1 23  1  0  0  0  0
  2 23  2  0  0  0  0
  3  4  1  0  0  0  0
  3  5  1  0  0  0  0
  3 12  1  0  0  0  0
  3 26  1  0  0  0  0
  4  6  1  0  0  0  0
  4 13  1  0  0  0  0
  4 27  1  0  0  0  0
  5  7  1  0  0  0  0
  5  8  1  0  0  0  0
  5 28  1  0  0  0  0
  6  9  1  0  0  0  0
  6 11  1  0  0  0  0
  6 17  1  0  0  0  0
  7 10  1  0  0  0  0
  7 16  1  0  0  0  0
  7 18  1  0  0  0  0
  8  9  1  0  0  0  0
  8 29  1  0  0  0  0
  8 30  1  0  0  0  0
  9 31  1  0  0  0  0
  9 32  1  0  0  0  0
 10 14  1  0  0  0  0
 10 19  1  0  0  0  0
 10 33  1  0  0  0  0
 11 15  1  0  0  0  0
 11 21  1  0  0  0  0
 12 14  1  0  0  0  0
 12 34  1  0  0  0  0
 12 35  1  0  0  0  0
 13 15  1  0  0  0  0
 13 36  1  0  0  0  0
 13 37  1  0  0  0  0
 14 38  1  0  0  0  0
 14 39  1  0  0  0  0
 15 40  1  0  0  0  0
 15 41  1  0  0  0  0
 16 20  1  0  0  0  0
 16 42  1  0  0  0  0
 16 43  1  0  0  0  0
 17 44  1  0  0  0  0
 17 45  1  0  0  0  0
 17 46  1  0  0  0  0
 18 47  1  0  0  0  0
 18 48  1  0  0  0  0
 18 49  1  0  0  0  0
 19 22  1  0  0  0  0
 19 50  1  0  0  0  0
 19 51  1  0  0  0  0
 20 22  2  0  0  0  0
 20 52  1  0  0  0  0
 21 24  3  0  0  0  0
 22 53  1  0  0  0  0
 23 25  1  0  0  0  0
 24 54  1  0  0  0  0
 25 55  1  0  0  0  0
 25 56  1  0  0  0  0
 25 57  1  0  0  0  0
M  END
> <PUBCHEM_COMPOUND_CID>
159358

> <PUBCHEM_CONFORMER_RMSD>
0.8

> <PUBCHEM_CONFORMER_DIVERSEORDER>
1
2

> <PUBCHEM_MMFF94_PARTIAL_CHARGES>
14
1 -0.43
11 0.48
16 0.14
19 0.14
2 -0.57
20 -0.29
21 -0.2
22 -0.29
23 0.66
24 -0.18
25 0.06
52 0.15
53 0.15
54 0.18

> <PUBCHEM_EFFECTIVE_ROTOR_COUNT>
3.8

> <PUBCHEM_PHARMACOPHORE_FEATURES>
6
1 2 acceptor
1 24 hydrophobe
5 4 6 11 13 15 rings
6 3 4 5 6 8 9 rings
6 3 5 7 10 12 14 rings
6 7 10 16 19 20 22 rings

> <PUBCHEM_HEAVY_ATOM_COUNT>
25

> <PUBCHEM_ATOM_DEF_STEREO_COUNT>
7

> <PUBCHEM_ATOM_UDEF_STEREO_COUNT>
0

> <PUBCHEM_BOND_DEF_STEREO_COUNT>
0

> <PUBCHEM_BOND_UDEF_STEREO_COUNT>
0

> <PUBCHEM_ISOTOPIC_ATOM_COUNT>
0

> <PUBCHEM_COMPONENT_COUNT>
1

> <PUBCHEM_CACTVS_TAUTO_COUNT>
1

> <PUBCHEM_CONFORMER_ID>
00026E7E00000001

> <PUBCHEM_MMFF94_ENERGY>
81.1976

> <PUBCHEM_FEATURE_SELFOVERLAP>
30.534

> <PUBCHEM_SHAPE_FINGERPRINT>
10 15 18271812281138275512
10366900 7 16950288411852631883
10411042 1 17691128137201338867
10498660 4 18409727387321483717
11315181 36 17822009791733099088
11405975 8 15626215793231509696
12011746 2 18261115183860968965
12236239 1 17703792509301691752
12403259 118 17704067400178219773
12403259 415 18261121772694599609
12403814 3 17489591168922088813
12553582 1 18338496604494959969
12616971 3 17060055926039303967
12633257 1 15913327987648498384
12788726 201 17458626786816872001
12838862 33 18267325221540731173
13140716 1 18267016155129608953
13224815 77 18260545645317023763
13911987 19 16443623472828909952
14386348 63 17967247589776006495
14790565 3 18268429040793942632
15196674 1 18410858806293060635
15238133 3 18059853969452469269
15788980 27 18131066039238339800
1601671 61 18342459257212364269
16945 1 18337096943145602704
17349148 13 17775279461511305952
17980427 23 17988085474754690260
1813 80 17059784450437782090
18608769 82 18338517440093567075
18681886 176 18341896256019989664
200 152 15574713595171523707
20511986 3 18200611257617464075
21033648 29 17895491262340879585
21033650 10 18196345204373909300
21267235 1 18411131412241471827
21421861 104 17701835481789448690
23402539 116 18343871004509560388
23557571 272 18334853926877628420
23559900 14 18114755836644830249
300161 21 18412270553358161299
3004659 81 18271243940805874234
335352 9 18411421704342637524
34797466 226 17385439903794763924
34934 24 18411707594577623595
350125 39 18337107857147969433
3545911 37 18408887339068456515
4340502 62 18408045121740880694
465052 167 7853571322698737364
474 4 17131825452415321078
5104073 3 18341049722013132787
542803 24 17346880052488517509
633830 44 16773506707503607246

> <PUBCHEM_SHAPE_MULTIPOLES>
502.75
12.57
1.96
1.42
0.74
0.63
0.41
-2.91
0.45
-1.12
0
1.42
-0.4
0.35

> <PUBCHEM_SHAPE_SELFOVERLAP>
1071.907

> <PUBCHEM_SHAPE_VOLUME>
275.2

> <PUBCHEM_COORDINATE_TYPE>
2
5
10

$$$$

