441864
  -OEChem-07051212563D

 87 92  0     1  0  0  0  0  0999 V2000
    3.5383    3.1414    1.0589 O   0  0  0  0  0  0  0  0  0  0  0  0
   -2.5172    1.7057   -0.7687 O   0  0  0  0  0  0  0  0  0  0  0  0
   -3.4309   -0.8179    0.0052 O   0  0  0  0  0  0  0  0  0  0  0  0
   -0.5770    1.2024   -3.4615 O   0  0  0  0  0  0  0  0  0  0  0  0
    8.0656   -1.3166    0.7099 O   0  0  0  0  0  0  0  0  0  0  0  0
   -5.0818   -2.2629   -0.8990 O   0  0  0  0  0  0  0  0  0  0  0  0
   -3.4155    2.5263    1.1951 O   0  0  0  0  0  0  0  0  0  0  0  0
   -5.5645   -3.1544    1.7902 O   0  0  0  0  0  0  0  0  0  0  0  0
    9.1081   -2.9562   -0.4702 O   0  0  0  0  0  0  0  0  0  0  0  0
   -6.9457   -0.8538    2.5276 O   0  0  0  0  0  0  0  0  0  0  0  0
   -7.8799   -0.0228   -0.0382 O   0  0  0  0  0  0  0  0  0  0  0  0
    3.0643    1.8188    0.7623 C   0  0  1  0  0  0  0  0  0  0  0  0
    1.6583    1.9674    0.1020 C   0  0  1  0  0  0  0  0  0  0  0  0
    1.1421    0.6317   -0.4933 C   0  0  1  0  0  0  0  0  0  0  0  0
    4.1076    1.0403   -0.1269 C   0  0  2  0  0  0  0  0  0  0  0  0
   -0.3033    0.7448   -1.0977 C   0  0  2  0  0  0  0  0  0  0  0  0
   -1.2920    1.4000   -0.0824 C   0  0  1  0  0  0  0  0  0  0  0  0
    2.1595    0.0112   -1.4823 C   0  0  0  0  0  0  0  0  0  0  0  0
    3.5276    0.6887   -1.5101 C   0  0  0  0  0  0  0  0  0  0  0  0
    4.4144   -0.2442    0.7082 C   0  0  2  0  0  0  0  0  0  0  0  0
    0.6455    2.6065    1.0735 C   0  0  0  0  0  0  0  0  0  0  0  0
    3.0412    1.0719    2.1189 C   0  0  0  0  0  0  0  0  0  0  0  0
   -0.7493    2.7272    0.4768 C   0  0  0  0  0  0  0  0  0  0  0  0
    4.3174    0.2439    2.1495 C   0  0  0  0  0  0  0  0  0  0  0  0
   -0.8607   -0.6345   -1.5502 C   0  0  0  0  0  0  0  0  0  0  0  0
   -1.6426    0.4309    1.0785 C   0  0  0  0  0  0  0  0  0  0  0  0
    5.3979    1.8656   -0.3725 C   0  0  0  0  0  0  0  0  0  0  0  0
   -1.1892   -1.5754   -0.3915 C   0  0  0  0  0  0  0  0  0  0  0  0
   -2.1453   -0.9375    0.6089 C   0  0  2  0  0  0  0  0  0  0  0  0
   -0.2374    1.6012   -2.3524 C   0  0  0  0  0  0  0  0  0  0  0  0
    5.6954   -0.9536    0.4129 C   0  0  0  0  0  0  0  0  0  0  0  0
    5.6812   -2.0282   -0.5452 C   0  0  0  0  0  0  0  0  0  0  0  0
    6.8638   -0.6499    0.9873 C   0  0  0  0  0  0  0  0  0  0  0  0
   -3.4889    2.2661    0.0017 C   0  0  0  0  0  0  0  0  0  0  0  0
   -4.2094   -1.9929    0.2035 C   0  0  2  0  0  0  0  0  0  0  0  0
    6.8000   -2.6953   -0.8449 C   0  0  0  0  0  0  0  0  0  0  0  0
   -4.6997    2.5289   -0.8415 C   0  0  0  0  0  0  0  0  0  0  0  0
   -5.0044   -1.8722    1.5023 C   0  0  1  0  0  0  0  0  0  0  0  0
    8.0808   -2.3440   -0.1967 C   0  0  0  0  0  0  0  0  0  0  0  0
   -6.1199   -0.8347    1.3654 C   0  0  1  0  0  0  0  0  0  0  0  0
   -6.0883   -1.2672   -1.1083 C   0  0  2  0  0  0  0  0  0  0  0  0
   -6.9795   -1.1147    0.1322 C   0  0  2  0  0  0  0  0  0  0  0  0
   -6.8870   -1.6922   -2.3374 C   0  0  0  0  0  0  0  0  0  0  0  0
    1.7769    2.6885   -0.7191 H   0  0  0  0  0  0  0  0  0  0  0  0
    1.0812   -0.0741    0.3433 H   0  0  0  0  0  0  0  0  0  0  0  0
    1.7819    0.0171   -2.5104 H   0  0  0  0  0  0  0  0  0  0  0  0
    2.2804   -1.0513   -1.2358 H   0  0  0  0  0  0  0  0  0  0  0  0
    3.4301    1.6116   -2.0989 H   0  0  0  0  0  0  0  0  0  0  0  0
    4.2245    0.0571   -2.0740 H   0  0  0  0  0  0  0  0  0  0  0  0
    3.5948   -0.9669    0.5883 H   0  0  0  0  0  0  0  0  0  0  0  0
    0.5836    2.0336    2.0044 H   0  0  0  0  0  0  0  0  0  0  0  0
    0.9904    3.6082    1.3582 H   0  0  0  0  0  0  0  0  0  0  0  0
    2.9921    1.7449    2.9819 H   0  0  0  0  0  0  0  0  0  0  0  0
    2.1914    0.3841    2.1868 H   0  0  0  0  0  0  0  0  0  0  0  0
   -0.7410    3.4893   -0.3135 H   0  0  0  0  0  0  0  0  0  0  0  0
   -1.3635    3.1616    1.2681 H   0  0  0  0  0  0  0  0  0  0  0  0
    4.2439   -0.5799    2.8676 H   0  0  0  0  0  0  0  0  0  0  0  0
    5.1499    0.8865    2.4542 H   0  0  0  0  0  0  0  0  0  0  0  0
   -1.7808   -0.4961   -2.1355 H   0  0  0  0  0  0  0  0  0  0  0  0
   -0.1630   -1.1431   -2.2259 H   0  0  0  0  0  0  0  0  0  0  0  0
   -2.3566    0.8113    1.8081 H   0  0  0  0  0  0  0  0  0  0  0  0
   -0.7348    0.2456    1.6665 H   0  0  0  0  0  0  0  0  0  0  0  0
    5.9275    2.1060    0.5545 H   0  0  0  0  0  0  0  0  0  0  0  0
    5.1623    2.8133   -0.8718 H   0  0  0  0  0  0  0  0  0  0  0  0
    6.0958    1.3385   -1.0327 H   0  0  0  0  0  0  0  0  0  0  0  0
   -1.6160   -2.4940   -0.8097 H   0  0  0  0  0  0  0  0  0  0  0  0
   -0.2643   -1.8667    0.1190 H   0  0  0  0  0  0  0  0  0  0  0  0
   -2.2042   -1.5784    1.4987 H   0  0  0  0  0  0  0  0  0  0  0  0
    0.1346    2.6313   -2.2347 H   0  0  0  0  0  0  0  0  0  0  0  0
    4.3025    3.0753    1.6557 H   0  0  0  0  0  0  0  0  0  0  0  0
    4.7466   -2.2963   -1.0263 H   0  0  0  0  0  0  0  0  0  0  0  0
    7.0517    0.1252    1.7149 H   0  0  0  0  0  0  0  0  0  0  0  0
   -3.5642   -2.8781    0.2543 H   0  0  0  0  0  0  0  0  0  0  0  0
    6.7975   -3.5056   -1.5646 H   0  0  0  0  0  0  0  0  0  0  0  0
   -5.5992    2.3326   -0.2520 H   0  0  0  0  0  0  0  0  0  0  0  0
   -4.6887    3.5685   -1.1770 H   0  0  0  0  0  0  0  0  0  0  0  0
   -4.7188    1.8667   -1.7114 H   0  0  0  0  0  0  0  0  0  0  0  0
   -4.3696   -1.6002    2.3525 H   0  0  0  0  0  0  0  0  0  0  0  0
   -5.6930    0.1728    1.3012 H   0  0  0  0  0  0  0  0  0  0  0  0
   -5.6028   -0.3146   -1.3481 H   0  0  0  0  0  0  0  0  0  0  0  0
   -7.5789   -2.0182    0.2999 H   0  0  0  0  0  0  0  0  0  0  0  0
   -4.8267   -3.7726    1.9290 H   0  0  0  0  0  0  0  0  0  0  0  0
   -6.2165   -1.8522   -3.1892 H   0  0  0  0  0  0  0  0  0  0  0  0
   -7.6280   -0.9400   -2.6221 H   0  0  0  0  0  0  0  0  0  0  0  0
   -7.4005   -2.6436   -2.1599 H   0  0  0  0  0  0  0  0  0  0  0  0
   -7.2957   -1.7556    2.6281 H   0  0  0  0  0  0  0  0  0  0  0  0
   -8.5272   -0.2752   -0.7176 H   0  0  0  0  0  0  0  0  0  0  0  0
  1 12  1  0  0  0  0
  1 70  1  0  0  0  0
  2 17  1  0  0  0  0
  2 34  1  0  0  0  0
  3 29  1  0  0  0  0
  3 35  1  0  0  0  0
  4 30  2  0  0  0  0
  5 33  1  0  0  0  0
  5 39  1  0  0  0  0
  6 35  1  0  0  0  0
  6 41  1  0  0  0  0
  7 34  2  0  0  0  0
  8 38  1  0  0  0  0
  8 82  1  0  0  0  0
  9 39  2  0  0  0  0
 10 40  1  0  0  0  0
 10 86  1  0  0  0  0
 11 42  1  0  0  0  0
 11 87  1  0  0  0  0
 12 13  1  0  0  0  0
 12 15  1  0  0  0  0
 12 22  1  0  0  0  0
 13 14  1  0  0  0  0
 13 21  1  0  0  0  0
 13 44  1  0  0  0  0
 14 16  1  0  0  0  0
 14 18  1  0  0  0  0
 14 45  1  0  0  0  0
 15 19  1  0  0  0  0
 15 20  1  0  0  0  0
 15 27  1  0  0  0  0
 16 17  1  0  0  0  0
 16 25  1  0  0  0  0
 16 30  1  0  0  0  0
 17 23  1  0  0  0  0
 17 26  1  0  0  0  0
 18 19  1  0  0  0  0
 18 46  1  0  0  0  0
 18 47  1  0  0  0  0
 19 48  1  0  0  0  0
 19 49  1  0  0  0  0
 20 24  1  0  0  0  0
 20 31  1  0  0  0  0
 20 50  1  0  0  0  0
 21 23  1  0  0  0  0
 21 51  1  0  0  0  0
 21 52  1  0  0  0  0
 22 24  1  0  0  0  0
 22 53  1  0  0  0  0
 22 54  1  0  0  0  0
 23 55  1  0  0  0  0
 23 56  1  0  0  0  0
 24 57  1  0  0  0  0
 24 58  1  0  0  0  0
 25 28  1  0  0  0  0
 25 59  1  0  0  0  0
 25 60  1  0  0  0  0
 26 29  1  0  0  0  0
 26 61  1  0  0  0  0
 26 62  1  0  0  0  0
 27 63  1  0  0  0  0
 27 64  1  0  0  0  0
 27 65  1  0  0  0  0
 28 29  1  0  0  0  0
 28 66  1  0  0  0  0
 28 67  1  0  0  0  0
 29 68  1  0  0  0  0
 30 69  1  0  0  0  0
 31 32  1  0  0  0  0
 31 33  2  0  0  0  0
 32 36  2  0  0  0  0
 32 71  1  0  0  0  0
 33 72  1  0  0  0  0
 34 37  1  0  0  0  0
 35 38  1  0  0  0  0
 35 73  1  0  0  0  0
 36 39  1  0  0  0  0
 36 74  1  0  0  0  0
 37 75  1  0  0  0  0
 37 76  1  0  0  0  0
 37 77  1  0  0  0  0
 38 40  1  0  0  0  0
 38 78  1  0  0  0  0
 40 42  1  0  0  0  0
 40 79  1  0  0  0  0
 41 42  1  0  0  0  0
 41 43  1  0  0  0  0
 41 80  1  0  0  0  0
 42 81  1  0  0  0  0
 43 83  1  0  0  0  0
 43 84  1  0  0  0  0
 43 85  1  0  0  0  0
M  END
> <PUBCHEM_COMPOUND_CID>
441864

> <PUBCHEM_CONFORMER_RMSD>
1.2

> <PUBCHEM_CONFORMER_DIVERSEORDER>
1
7
9
6
11
10
8
4
2
5
3

> <PUBCHEM_MMFF94_PARTIAL_CHARGES>
37
1 -0.68
10 -0.68
11 -0.68
12 0.28
16 0.06
17 0.28
2 -0.43
20 0.14
29 0.28
3 -0.56
30 0.45
31 -0.14
32 -0.15
33 -0.07
34 0.66
35 0.56
36 -0.14
37 0.06
38 0.28
39 0.71
4 -0.57
40 0.28
41 0.28
42 0.28
5 -0.23
6 -0.56
69 0.06
7 -0.57
70 0.4
71 0.15
72 0.15
74 0.15
8 -0.68
82 0.4
86 0.4
87 0.4
9 -0.57

> <PUBCHEM_EFFECTIVE_ROTOR_COUNT>
9.4

> <PUBCHEM_PHARMACOPHORE_FEATURES>
19
1 1 acceptor
1 1 donor
1 10 acceptor
1 10 donor
1 11 acceptor
1 11 donor
1 3 acceptor
1 4 acceptor
1 6 acceptor
1 7 acceptor
1 8 acceptor
1 8 donor
1 9 acceptor
5 12 15 20 22 24 rings
6 12 13 14 15 18 19 rings
6 13 14 16 17 21 23 rings
6 16 17 25 26 28 29 rings
6 5 31 32 33 36 39 rings
6 6 35 38 40 41 42 rings

> <PUBCHEM_HEAVY_ATOM_COUNT>
43

> <PUBCHEM_ATOM_DEF_STEREO_COUNT>
13

> <PUBCHEM_ATOM_UDEF_STEREO_COUNT>
0

> <PUBCHEM_BOND_DEF_STEREO_COUNT>
0

> <PUBCHEM_BOND_UDEF_STEREO_COUNT>
0

> <PUBCHEM_ISOTOPIC_ATOM_COUNT>
0

> <PUBCHEM_COMPONENT_COUNT>
1

> <PUBCHEM_CACTVS_TAUTO_COUNT>
1

> <PUBCHEM_CONFORMER_ID>
0006BE0800000001

> <PUBCHEM_MMFF94_ENERGY>
166.9765

> <PUBCHEM_FEATURE_SELFOVERLAP>
96.733

> <PUBCHEM_SHAPE_FINGERPRINT>
11135609 12 18408891729031422440
11456790 92 15213308529927180378
117089 54 18336537331157983806
12107698 1 18259985950896201968
12422481 6 17313373488574602661
13673619 4 18343584053834630348
13782708 43 18410011026623926076
13811026 1 18411704292317277258
14347424 109 17967813808579608496
14747282 305 17985264321017330539
15064986 96 17459185356194054934
15082195 135 11167942442369132894
15131766 46 16446467840553516152
15198563 99 17203344333332758677
15911013 46 18343300383624041578
21033648 29 14346064348383092114
21792965 78 18338805623497919159
21987483 16 17025736749875762407
23559900 14 18129382588452933089
25269216 80 17203317932189965522
2838139 119 8790622385040241129
3383291 50 18411422812772157090
392239 28 17967807241716939721
4112364 45 4822919266893940826
439807 62 18412821391741191362
4461854 278 17894909625602951974
474113 269 18187937183137581839
504579 68 16630522942799563460
5104073 3 18113898269378705080
513202 73 18408605859691329045
54039377 194 18334852862548996766
6009941 240 18264208196317674792
9962374 69 18262530191149743118
999808 66 18260831531520708986

> <PUBCHEM_SHAPE_MULTIPOLES>
820.36
22.23
3.47
2.09
9.05
0.18
-0.51
-21.22
2.98
0.93
0.21
-1.76
0.07
1.5

> <PUBCHEM_SHAPE_SELFOVERLAP>
1771.889

> <PUBCHEM_SHAPE_VOLUME>
441.8

> <PUBCHEM_COORDINATE_TYPE>
2
5
10

$$$$

