11580
  -OEChem-06261205513D

 26 25  0     0  0  0  0  0  0999 V2000
   -5.0483   -1.3651   -0.4653 F   0  0  0  0  0  0  0  0  0  0  0  0
    4.5788   -1.6119   -0.4140 F   0  0  0  0  0  0  0  0  0  0  0  0
    2.3476   -0.1294    0.2544 O   0  0  0  0  0  0  0  0  0  0  0  0
    1.2609    1.7584   -0.5058 O   0  0  0  0  0  0  0  0  0  0  0  0
   -2.5512   -0.1523    0.3152 C   0  0  0  0  0  0  0  0  0  0  0  0
   -1.2697    0.6327    0.0225 C   0  0  0  0  0  0  0  0  0  0  0  0
   -3.8263    0.6019   -0.0685 C   0  0  0  0  0  0  0  0  0  0  0  0
    0.0061   -0.1471    0.3389 C   0  0  0  0  0  0  0  0  0  0  0  0
   -5.0703   -0.2105    0.2516 C   0  0  0  0  0  0  0  0  0  0  0  0
    1.2489    0.6301   -0.0334 C   0  0  0  0  0  0  0  0  0  0  0  0
    3.6104    0.4792   -0.0347 C   0  0  0  0  0  0  0  0  0  0  0  0
    4.7132   -0.4859    0.3391 C   0  0  0  0  0  0  0  0  0  0  0  0
   -2.5819   -0.3994    1.3836 H   0  0  0  0  0  0  0  0  0  0  0  0
   -2.5182   -1.1047   -0.2285 H   0  0  0  0  0  0  0  0  0  0  0  0
   -1.2785    1.5679    0.5967 H   0  0  0  0  0  0  0  0  0  0  0  0
   -1.2634    0.9215   -1.0364 H   0  0  0  0  0  0  0  0  0  0  0  0
   -3.8047    0.8166   -1.1431 H   0  0  0  0  0  0  0  0  0  0  0  0
   -3.8679    1.5589    0.4631 H   0  0  0  0  0  0  0  0  0  0  0  0
    0.0453   -0.3710    1.4105 H   0  0  0  0  0  0  0  0  0  0  0  0
    0.0112   -1.0872   -0.2239 H   0  0  0  0  0  0  0  0  0  0  0  0
   -5.9752    0.3387   -0.0236 H   0  0  0  0  0  0  0  0  0  0  0  0
   -5.1230   -0.4692    1.3132 H   0  0  0  0  0  0  0  0  0  0  0  0
    3.7125    1.4064    0.5395 H   0  0  0  0  0  0  0  0  0  0  0  0
    3.6603    0.6969   -1.1072 H   0  0  0  0  0  0  0  0  0  0  0  0
    5.7014   -0.0609    0.1454 H   0  0  0  0  0  0  0  0  0  0  0  0
    4.6414   -0.7871    1.3880 H   0  0  0  0  0  0  0  0  0  0  0  0
  1  9  1  0  0  0  0
  2 12  1  0  0  0  0
  3 10  1  0  0  0  0
  3 11  1  0  0  0  0
  4 10  2  0  0  0  0
  5  6  1  0  0  0  0
  5  7  1  0  0  0  0
  5 13  1  0  0  0  0
  5 14  1  0  0  0  0
  6  8  1  0  0  0  0
  6 15  1  0  0  0  0
  6 16  1  0  0  0  0
  7  9  1  0  0  0  0
  7 17  1  0  0  0  0
  7 18  1  0  0  0  0
  8 10  1  0  0  0  0
  8 19  1  0  0  0  0
  8 20  1  0  0  0  0
  9 21  1  0  0  0  0
  9 22  1  0  0  0  0
 11 12  1  0  0  0  0
 11 23  1  0  0  0  0
 11 24  1  0  0  0  0
 12 25  1  0  0  0  0
 12 26  1  0  0  0  0
M  END
> <PUBCHEM_COMPOUND_CID>
11580

> <PUBCHEM_CONFORMER_RMSD>
0.8

> <PUBCHEM_CONFORMER_DIVERSEORDER>
1
279
143
117
188
41
345
210
101
180
31
335
142
9
284
112
70
58
78
248
263
147
365
311
163
148
28
298
351
363
68
316
122
302
333
85
272
354
15
296
303
72
355
274
92
244
330
258
328
342
149
253
359
278
309
21
228
348
136
45
287
35
313
2
22
268
349
217
43
152
161
337
240
75
176
294
285
126
177
63
64
357
157
324
56
321
282
360
288
44
243
347
343
11
141
225
87
16
170
338
281
89
277
26
358
5
133
221
186
327
59
17
107
104
145
127
267
110
222
82
326
234
280
95
123
109
231
304
308
118
166
312
224
317
150
246
139
111
205
200
197
362
144
339
192
88
208
80
212
165
336
189
259
286
334
297
91
346
233
105
226
187
352
8
73
238
315
40
51
160
198
219
293
62
271
257
24
191
156
325
67
247
195
223
276
14
114
7
220
48
353
340
97
39
69
254
299
184
52
99
264
361
185
341
310
290
307
215
159
12
19
84
90
25
171
53
227
54
344
106
77
314
193
132
103
332
94
213
4
119
125
252
32
201
10
120
128
169
42
179
320
98
74
102
235
270
129
135
350
151
6
108
96
30
140
134
242
206
236
167
47
164
18
256
260
61
292
211
162
13
218
23
318
121
322
66
178
29
241
27
239
245
275
356
202
158
295
124
138
203
81
250
71
37
232
116
131
265
175
207
216
55
93
364
146
57
155
3
237
65
269
230
86
182
305
183
329
331
249
261
113
115
199
196
181
153
49
301
172
255
38
306
273
154
190
173
130
20
291
214
289
251
168
36
79
323
60
266
83
300
34
100
204
262
46
174
76
194
229
209
50
33
319
283
137

> <PUBCHEM_MMFF94_PARTIAL_CHARGES>
9
1 -0.34
10 0.66
11 0.28
12 0.34
2 -0.34
3 -0.43
4 -0.57
8 0.06
9 0.34

> <PUBCHEM_EFFECTIVE_ROTOR_COUNT>
8

> <PUBCHEM_PHARMACOPHORE_FEATURES>
2
1 4 acceptor
4 5 6 7 8 hydrophobe

> <PUBCHEM_HEAVY_ATOM_COUNT>
12

> <PUBCHEM_ATOM_DEF_STEREO_COUNT>
0

> <PUBCHEM_ATOM_UDEF_STEREO_COUNT>
0

> <PUBCHEM_BOND_DEF_STEREO_COUNT>
0

> <PUBCHEM_BOND_UDEF_STEREO_COUNT>
0

> <PUBCHEM_ISOTOPIC_ATOM_COUNT>
0

> <PUBCHEM_COMPONENT_COUNT>
1

> <PUBCHEM_CACTVS_TAUTO_COUNT>
1

> <PUBCHEM_CONFORMER_ID>
00002D3C00000001

> <PUBCHEM_MMFF94_ENERGY>
3.4041

> <PUBCHEM_FEATURE_SELFOVERLAP>
10.148

> <PUBCHEM_SHAPE_FINGERPRINT>
11062470 55 8935003672394860777
13690532 89 18410573993746667011
14123238 8 18260266334729549633
14252887 29 18114456851265599926
14455015 7 18272925021159633091
15242439 84 17346601855236550425
17834072 33 18410572847180524052
17834076 25 9223231849444052745
200 152 18407760331049469649
20645477 70 18412261757576570398
20719005 15 18411982468136592880
20767249 213 10303817584183204043
23402539 116 18334299773296947085
23532345 12 18408599271138001185
23590187 198 18261108586828339931
42 15 18040433300045188393
42788 4 18411982464005272801
449060 50 7925916980319626705
49783359 22 17749112175628841327

> <PUBCHEM_SHAPE_MULTIPOLES>
220.67
11.8
1.21
0.66
3.09
0
0.02
4.61
-0.4
-0.45
-0.22
0.02
0.02
-0.11

> <PUBCHEM_SHAPE_SELFOVERLAP>
406.895

> <PUBCHEM_SHAPE_VOLUME>
138.7

> <PUBCHEM_COORDINATE_TYPE>
2
5
10

$$$$

