253326
  -OEChem-07051213072D

 45 48  0     1  0  0  0  0  0999 V2000
    2.7472    0.3599    0.0000 F   0  0  0  0  0  0  0  0  0  0  0  0
    3.7160   -2.8552    0.0000 O   0  0  0  0  0  0  0  0  0  0  0  0
    2.0000    0.1863    0.0000 O   0  0  0  0  0  0  0  0  0  0  0  0
    4.6102   -4.3830    0.0000 O   0  0  0  0  0  0  0  0  0  0  0  0
    3.6789    4.3830    0.0000 O   0  0  0  0  0  0  0  0  0  0  0  0
    4.5981   -0.3137    0.0000 C   0  0  1  0  0  0  0  0  0  0  0  0
    4.5981   -1.3137    0.0000 C   0  0  1  0  0  0  0  0  0  0  0  0
    3.7320    0.1863    0.0000 C   0  0  2  0  0  0  0  0  0  0  0  0
    3.7320   -1.8137    0.0000 C   0  0  2  0  0  0  0  0  0  0  0  0
    3.7160    1.2278    0.0000 C   0  0  1  0  0  0  0  0  0  0  0  0
    5.5081    0.1931    0.0000 C   0  0  0  0  0  0  0  0  0  0  0  0
    2.8660   -1.3137    0.0000 C   0  0  0  0  0  0  0  0  0  0  0  0
    2.8660   -0.3137    0.0000 C   0  0  0  0  0  0  0  0  0  0  0  0
    5.5081   -1.8206    0.0000 C   0  0  0  0  0  0  0  0  0  0  0  0
    4.6140    1.7555    0.0000 C   0  0  0  0  0  0  0  0  0  0  0  0
    5.5161    1.2347    0.0000 C   0  0  0  0  0  0  0  0  0  0  0  0
    2.8660   -2.3137    0.0000 C   0  0  0  0  0  0  0  0  0  0  0  0
    2.7325    1.0466    0.0000 C   0  0  0  0  0  0  0  0  0  0  0  0
    5.5161   -2.8622    0.0000 C   0  0  0  0  0  0  0  0  0  0  0  0
    2.7641    1.7484    0.0000 C   0  0  0  0  0  0  0  0  0  0  0  0
    4.6140   -3.3830    0.0000 C   0  0  0  0  0  0  0  0  0  0  0  0
    4.6224    2.8405    0.0000 C   0  0  0  0  0  0  0  0  0  0  0  0
    2.7473    2.8333    0.0000 C   0  0  0  0  0  0  0  0  0  0  0  0
    3.6828    3.3830    0.0000 C   0  0  0  0  0  0  0  0  0  0  0  0
    5.3309   -0.7444    0.0000 H   0  0  0  0  0  0  0  0  0  0  0  0
    5.3309   -0.8831    0.0000 H   0  0  0  0  0  0  0  0  0  0  0  0
    5.7126   -0.3922    0.0000 H   0  0  0  0  0  0  0  0  0  0  0  0
    6.1197    0.2945    0.0000 H   0  0  0  0  0  0  0  0  0  0  0  0
    2.2554   -1.2061    0.0000 H   0  0  0  0  0  0  0  0  0  0  0  0
    2.6540   -1.8963    0.0000 H   0  0  0  0  0  0  0  0  0  0  0  0
    6.1197   -1.9220    0.0000 H   0  0  0  0  0  0  0  0  0  0  0  0
    5.7126   -1.2353    0.0000 H   0  0  0  0  0  0  0  0  0  0  0  0
    6.1261    1.1239    0.0000 H   0  0  0  0  0  0  0  0  0  0  0  0
    5.7297    1.8168    0.0000 H   0  0  0  0  0  0  0  0  0  0  0  0
    2.5560   -1.7768    0.0000 H   0  0  0  0  0  0  0  0  0  0  0  0
    2.3291   -2.6237    0.0000 H   0  0  0  0  0  0  0  0  0  0  0  0
    3.1760   -2.8507    0.0000 H   0  0  0  0  0  0  0  0  0  0  0  0
    2.6202    1.6563    0.0000 H   0  0  0  0  0  0  0  0  0  0  0  0
    2.1228    0.9342    0.0000 H   0  0  0  0  0  0  0  0  0  0  0  0
    2.8449    0.4368    0.0000 H   0  0  0  0  0  0  0  0  0  0  0  0
    5.7297   -3.4442    0.0000 H   0  0  0  0  0  0  0  0  0  0  0  0
    6.1261   -2.7514    0.0000 H   0  0  0  0  0  0  0  0  0  0  0  0
    2.2332    1.4281    0.0000 H   0  0  0  0  0  0  0  0  0  0  0  0
    5.1605    3.1484    0.0000 H   0  0  0  0  0  0  0  0  0  0  0  0
    2.2069    3.1370    0.0000 H   0  0  0  0  0  0  0  0  0  0  0  0
  8  1  1  1  0  0  0
  2  9  1  0  0  0  0
  2 21  1  0  0  0  0
  3 13  2  0  0  0  0
  4 21  2  0  0  0  0
  5 24  2  0  0  0  0
  6  7  1  0  0  0  0
  6  8  1  0  0  0  0
  6 11  1  0  0  0  0
  6 25  1  6  0  0  0
  7  9  1  0  0  0  0
  7 14  1  0  0  0  0
  7 26  1  1  0  0  0
  8 10  1  0  0  0  0
  8 13  1  0  0  0  0
  9 12  1  0  0  0  0
  9 17  1  6  0  0  0
 10 15  1  0  0  0  0
 10 18  1  6  0  0  0
 10 20  1  0  0  0  0
 11 16  1  0  0  0  0
 11 27  1  0  0  0  0
 11 28  1  0  0  0  0
 12 13  1  0  0  0  0
 12 29  1  0  0  0  0
 12 30  1  0  0  0  0
 14 19  1  0  0  0  0
 14 31  1  0  0  0  0
 14 32  1  0  0  0  0
 15 16  1  0  0  0  0
 15 22  2  0  0  0  0
 16 33  1  0  0  0  0
 16 34  1  0  0  0  0
 17 35  1  0  0  0  0
 17 36  1  0  0  0  0
 17 37  1  0  0  0  0
 18 38  1  0  0  0  0
 18 39  1  0  0  0  0
 18 40  1  0  0  0  0
 19 21  1  0  0  0  0
 19 41  1  0  0  0  0
 19 42  1  0  0  0  0
 20 23  2  0  0  0  0
 20 43  1  0  0  0  0
 22 24  1  0  0  0  0
 22 44  1  0  0  0  0
 23 24  1  0  0  0  0
 23 45  1  0  0  0  0
M  END
> <PUBCHEM_COMPOUND_CID>
253326

> <PUBCHEM_COMPOUND_CANONICALIZED>
1

> <PUBCHEM_CACTVS_COMPLEXITY>
723

> <PUBCHEM_CACTVS_HBOND_ACCEPTOR>
5

> <PUBCHEM_CACTVS_HBOND_DONOR>
0

> <PUBCHEM_CACTVS_ROTATABLE_BOND>
0

> <PUBCHEM_CACTVS_SUBSKEYS>
AAADceB4OQAAAAAAAAAAAAAAAAAAAAAAAAA0YIEAAAAAAADQAAAAGwAAAAAAD0SAgAACCAAABACIAqDSCAAAAAAgAAAICAEAAEgAABYAAQACAAAEoAAIAYOIzPDPgAAAAAAAAADAAAYAADAAAAAAAAAAAA==

> <PUBCHEM_IUPAC_OPENEYE_NAME>
(4aS,4bS,10aS,10bR,12aS)-10b-fluoro-10a,12a-dimethyl-4,4a,4b,5,6,12-hexahydro-3H-naphtho[2,1-f]chromene-2,8,11-trione

> <PUBCHEM_IUPAC_CAS_NAME>
(4aS,4bS,10aS,10bR,12aS)-10b-fluoro-10a,12a-dimethyl-4,4a,4b,5,6,12-hexahydro-3H-naphtho[2,1-f][1]benzopyran-2,8,11-trione

> <PUBCHEM_IUPAC_NAME>
(4aS,4bS,10aS,10bR,12aS)-10b-fluoro-10a,12a-dimethyl-4,4a,4b,5,6,12-hexahydro-3H-naphtho[2,1-f]chromene-2,8,11-trione

> <PUBCHEM_IUPAC_SYSTEMATIC_NAME>
(4aS,4bS,10aS,10bR,12aS)-10b-fluoranyl-10a,12a-dimethyl-4,4a,4b,5,6,12-hexahydro-3H-naphtho[2,1-f]chromene-2,8,11-trione

> <PUBCHEM_IUPAC_TRADITIONAL_NAME>
(4aS,4bS,10aS,10bR,12aS)-10b-fluoro-10a,12a-dimethyl-4,4a,4b,5,6,12-hexahydro-3H-naphtho[2,1-f]chromene-2,8,11-trione

> <PUBCHEM_IUPAC_INCHI>
InChI=1S/C19H21FO4/c1-17-8-7-12(21)9-11(17)3-4-14-13-5-6-16(23)24-18(13,2)10-15(22)19(14,17)20/h7-9,13-14H,3-6,10H2,1-2H3/t13-,14-,17-,18-,19-/m0/s1

> <PUBCHEM_IUPAC_INCHIKEY>
YIGCZRBQSHBYRL-ZENYQMPMSA-N

> <PUBCHEM_XLOGP3_AA>
1.9

> <PUBCHEM_EXACT_MASS>
332.142387

> <PUBCHEM_MOLECULAR_FORMULA>
C19H21FO4

> <PUBCHEM_MOLECULAR_WEIGHT>
332.366043

> <PUBCHEM_OPENEYE_CAN_SMILES>
CC12CC(=O)C3(C(C1CCC(=O)O2)CCC4=CC(=O)C=CC43C)F

> <PUBCHEM_OPENEYE_ISO_SMILES>
C[C@]12CC(=O)[C@]3([C@H]([C@@H]1CCC(=O)O2)CCC4=CC(=O)C=C[C@@]43C)F

> <PUBCHEM_CACTVS_TPSA>
60.4

> <PUBCHEM_MONOISOTOPIC_WEIGHT>
332.142387

> <PUBCHEM_TOTAL_CHARGE>
0

> <PUBCHEM_HEAVY_ATOM_COUNT>
24

> <PUBCHEM_ATOM_DEF_STEREO_COUNT>
5

> <PUBCHEM_ATOM_UDEF_STEREO_COUNT>
0

> <PUBCHEM_BOND_DEF_STEREO_COUNT>
0

> <PUBCHEM_BOND_UDEF_STEREO_COUNT>
0

> <PUBCHEM_ISOTOPIC_ATOM_COUNT>
0

> <PUBCHEM_COMPONENT_COUNT>
1

> <PUBCHEM_CACTVS_TAUTO_COUNT>
12

> <PUBCHEM_COORDINATE_TYPE>
1
5
255

> <PUBCHEM_BONDANNOTATIONS>
8  1  5
10  18  6
6  25  6
7  26  5
9  17  6

$$$$

