11954162
  -OEChem-07051213073D

 70 73  0     1  0  0  0  0  0999 V2000
    1.8198    3.0865    0.5639 O   0  0  0  0  0  0  0  0  0  0  0  0
   -0.5718   -0.5805    0.9625 C   0  0  1  0  0  0  0  0  0  0  0  0
    0.1228    0.7615    0.6291 C   0  0  2  0  0  0  0  0  0  0  0  0
   -2.0502   -0.1360    0.8599 C   0  0  2  0  0  0  0  0  0  0  0  0
    1.6538    0.6686    0.7051 C   0  0  1  0  0  0  0  0  0  0  0  0
    2.1455   -0.4335   -0.2831 C   0  0  2  0  0  0  0  0  0  0  0  0
   -0.1436   -1.6094   -0.0895 C   0  0  0  0  0  0  0  0  0  0  0  0
   -0.6182    1.7587    1.5228 C   0  0  0  0  0  0  0  0  0  0  0  0
   -2.0652    1.2340    1.5709 C   0  0  0  0  0  0  0  0  0  0  0  0
    1.3832   -1.7740   -0.1222 C   0  0  0  0  0  0  0  0  0  0  0  0
    3.7120   -0.5778   -0.2495 C   0  0  2  0  0  0  0  0  0  0  0  0
   -3.0922   -1.0997    1.4100 C   0  0  1  0  0  0  0  0  0  0  0  0
   -0.2501   -1.1205    2.3801 C   0  0  0  0  0  0  0  0  0  0  0  0
    2.3344    1.9893    0.3556 C   0  0  0  0  0  0  0  0  0  0  0  0
    4.3439    0.8035   -0.4659 C   0  0  0  0  0  0  0  0  0  0  0  0
    4.1702   -1.5298   -1.3932 C   0  0  0  0  0  0  0  0  0  0  0  0
    4.2075   -1.1393    1.1062 C   0  0  0  0  0  0  0  0  0  0  0  0
   -4.5346   -0.5763    1.2476 C   0  0  0  0  0  0  0  0  0  0  0  0
    3.7121    1.9563   -0.1939 C   0  0  0  0  0  0  0  0  0  0  0  0
   -2.9679   -2.4610    0.7141 C   0  0  0  0  0  0  0  0  0  0  0  0
    5.6900   -1.5795   -1.5859 C   0  0  0  0  0  0  0  0  0  0  0  0
    5.6896    0.8500   -1.0213 C   0  0  0  0  0  0  0  0  0  0  0  0
   -4.9733   -0.2460   -0.1852 C   0  0  0  0  0  0  0  0  0  0  0  0
    6.3193   -0.2250   -1.5124 C   0  0  0  0  0  0  0  0  0  0  0  0
   -6.3868    0.3385   -0.2721 C   0  0  0  0  0  0  0  0  0  0  0  0
   -6.8531    0.6031   -1.7170 C   0  0  0  0  0  0  0  0  0  0  0  0
   -6.8136   -0.6545   -2.5866 C   0  0  0  0  0  0  0  0  0  0  0  0
   -5.9836    1.6928   -2.3501 C   0  0  0  0  0  0  0  0  0  0  0  0
   -0.1250    1.0427   -0.4083 H   0  0  0  0  0  0  0  0  0  0  0  0
   -2.2542    0.0432   -0.2046 H   0  0  0  0  0  0  0  0  0  0  0  0
    1.9526    0.4395    1.7326 H   0  0  0  0  0  0  0  0  0  0  0  0
    1.8881   -0.0758   -1.2946 H   0  0  0  0  0  0  0  0  0  0  0  0
   -0.4863   -1.3014   -1.0856 H   0  0  0  0  0  0  0  0  0  0  0  0
   -0.5484   -2.6048    0.0891 H   0  0  0  0  0  0  0  0  0  0  0  0
   -0.5969    2.7751    1.1185 H   0  0  0  0  0  0  0  0  0  0  0  0
   -0.1878    1.7921    2.5298 H   0  0  0  0  0  0  0  0  0  0  0  0
   -2.3932    1.1585    2.6139 H   0  0  0  0  0  0  0  0  0  0  0  0
   -2.7470    1.9247    1.0622 H   0  0  0  0  0  0  0  0  0  0  0  0
    1.7067   -2.2923    0.7856 H   0  0  0  0  0  0  0  0  0  0  0  0
    1.6240   -2.4410   -0.9576 H   0  0  0  0  0  0  0  0  0  0  0  0
   -2.9401   -1.2554    2.4854 H   0  0  0  0  0  0  0  0  0  0  0  0
   -0.6948   -2.1066    2.5457 H   0  0  0  0  0  0  0  0  0  0  0  0
    0.8234   -1.2366    2.5515 H   0  0  0  0  0  0  0  0  0  0  0  0
   -0.6220   -0.4632    3.1724 H   0  0  0  0  0  0  0  0  0  0  0  0
    3.7134   -1.2058   -2.3392 H   0  0  0  0  0  0  0  0  0  0  0  0
    3.8198   -2.5533   -1.2156 H   0  0  0  0  0  0  0  0  0  0  0  0
    5.3015   -1.1676    1.1644 H   0  0  0  0  0  0  0  0  0  0  0  0
    3.8729   -0.5328    1.9533 H   0  0  0  0  0  0  0  0  0  0  0  0
    3.8579   -2.1637    1.2690 H   0  0  0  0  0  0  0  0  0  0  0  0
   -5.2315   -1.3132    1.6684 H   0  0  0  0  0  0  0  0  0  0  0  0
   -4.6551    0.3237    1.8640 H   0  0  0  0  0  0  0  0  0  0  0  0
    4.1783    2.9214   -0.3704 H   0  0  0  0  0  0  0  0  0  0  0  0
   -2.8110   -2.3704   -0.3652 H   0  0  0  0  0  0  0  0  0  0  0  0
   -3.8860   -3.0454    0.8524 H   0  0  0  0  0  0  0  0  0  0  0  0
   -2.1820   -3.0724    1.1616 H   0  0  0  0  0  0  0  0  0  0  0  0
    5.9073   -2.0276   -2.5624 H   0  0  0  0  0  0  0  0  0  0  0  0
    6.1502   -2.2275   -0.8312 H   0  0  0  0  0  0  0  0  0  0  0  0
    6.2039    1.8075   -1.0382 H   0  0  0  0  0  0  0  0  0  0  0  0
   -4.2761    0.4756   -0.6175 H   0  0  0  0  0  0  0  0  0  0  0  0
   -4.9087   -1.1608   -0.7817 H   0  0  0  0  0  0  0  0  0  0  0  0
    7.3319   -0.1197   -1.8909 H   0  0  0  0  0  0  0  0  0  0  0  0
   -6.4354    1.2691    0.3069 H   0  0  0  0  0  0  0  0  0  0  0  0
   -7.0895   -0.3595    0.2004 H   0  0  0  0  0  0  0  0  0  0  0  0
   -7.8877    0.9654   -1.6739 H   0  0  0  0  0  0  0  0  0  0  0  0
   -5.7921   -0.9822   -2.8029 H   0  0  0  0  0  0  0  0  0  0  0  0
   -7.3010   -0.4625   -3.5489 H   0  0  0  0  0  0  0  0  0  0  0  0
   -7.3475   -1.4794   -2.1035 H   0  0  0  0  0  0  0  0  0  0  0  0
   -4.9594    1.3554   -2.5373 H   0  0  0  0  0  0  0  0  0  0  0  0
   -6.4048    1.9962   -3.3152 H   0  0  0  0  0  0  0  0  0  0  0  0
   -5.9434    2.5837   -1.7145 H   0  0  0  0  0  0  0  0  0  0  0  0
  1 14  2  0  0  0  0
  2  3  1  0  0  0  0
  2  4  1  0  0  0  0
  2  7  1  0  0  0  0
  2 13  1  0  0  0  0
  3  5  1  0  0  0  0
  3  8  1  0  0  0  0
  3 29  1  0  0  0  0
  4  9  1  0  0  0  0
  4 12  1  0  0  0  0
  4 30  1  0  0  0  0
  5  6  1  0  0  0  0
  5 14  1  0  0  0  0
  5 31  1  0  0  0  0
  6 10  1  0  0  0  0
  6 11  1  0  0  0  0
  6 32  1  0  0  0  0
  7 10  1  0  0  0  0
  7 33  1  0  0  0  0
  7 34  1  0  0  0  0
  8  9  1  0  0  0  0
  8 35  1  0  0  0  0
  8 36  1  0  0  0  0
  9 37  1  0  0  0  0
  9 38  1  0  0  0  0
 10 39  1  0  0  0  0
 10 40  1  0  0  0  0
 11 15  1  0  0  0  0
 11 16  1  0  0  0  0
 11 17  1  0  0  0  0
 12 18  1  0  0  0  0
 12 20  1  0  0  0  0
 12 41  1  0  0  0  0
 13 42  1  0  0  0  0
 13 43  1  0  0  0  0
 13 44  1  0  0  0  0
 14 19  1  0  0  0  0
 15 19  2  0  0  0  0
 15 22  1  0  0  0  0
 16 21  1  0  0  0  0
 16 45  1  0  0  0  0
 16 46  1  0  0  0  0
 17 47  1  0  0  0  0
 17 48  1  0  0  0  0
 17 49  1  0  0  0  0
 18 23  1  0  0  0  0
 18 50  1  0  0  0  0
 18 51  1  0  0  0  0
 19 52  1  0  0  0  0
 20 53  1  0  0  0  0
 20 54  1  0  0  0  0
 20 55  1  0  0  0  0
 21 24  1  0  0  0  0
 21 56  1  0  0  0  0
 21 57  1  0  0  0  0
 22 24  2  0  0  0  0
 22 58  1  0  0  0  0
 23 25  1  0  0  0  0
 23 59  1  0  0  0  0
 23 60  1  0  0  0  0
 24 61  1  0  0  0  0
 25 26  1  0  0  0  0
 25 62  1  0  0  0  0
 25 63  1  0  0  0  0
 26 27  1  0  0  0  0
 26 28  1  0  0  0  0
 26 64  1  0  0  0  0
 27 65  1  0  0  0  0
 27 66  1  0  0  0  0
 27 67  1  0  0  0  0
 28 68  1  0  0  0  0
 28 69  1  0  0  0  0
 28 70  1  0  0  0  0
M  END
> <PUBCHEM_COMPOUND_CID>
11954162

> <PUBCHEM_CONFORMER_RMSD>
0.8

> <PUBCHEM_CONFORMER_DIVERSEORDER>
1
7
4
8
5
6
3
2

> <PUBCHEM_MMFF94_PARTIAL_CHARGES>
12
1 -0.57
11 0.14
14 0.49
15 -0.14
19 -0.14
21 0.14
22 -0.15
24 -0.29
5 0.06
52 0.15
58 0.15
61 0.15

> <PUBCHEM_EFFECTIVE_ROTOR_COUNT>
6.4

> <PUBCHEM_PHARMACOPHORE_FEATURES>
8
1 1 acceptor
1 20 hydrophobe
3 26 27 28 hydrophobe
5 12 18 23 25 26 hydrophobe
5 2 3 4 8 9 rings
6 11 15 16 21 22 24 rings
6 2 3 5 6 7 10 rings
6 5 6 11 14 15 19 rings

> <PUBCHEM_HEAVY_ATOM_COUNT>
28

> <PUBCHEM_ATOM_DEF_STEREO_COUNT>
6

> <PUBCHEM_ATOM_UDEF_STEREO_COUNT>
1

> <PUBCHEM_BOND_DEF_STEREO_COUNT>
0

> <PUBCHEM_BOND_UDEF_STEREO_COUNT>
0

> <PUBCHEM_ISOTOPIC_ATOM_COUNT>
0

> <PUBCHEM_COMPONENT_COUNT>
1

> <PUBCHEM_CACTVS_TAUTO_COUNT>
2

> <PUBCHEM_CONFORMER_ID>
00B667F200000001

> <PUBCHEM_MMFF94_ENERGY>
83.3925

> <PUBCHEM_FEATURE_SELFOVERLAP>
40.693

> <PUBCHEM_SHAPE_FINGERPRINT>
10 15 8430310208541710022
10554248 39 16844471438945750467
10693767 8 18040718116654870182
10763959 59 17988918942543073316
11963148 33 14346072074718626396
12011746 2 18339911663348922618
12236239 1 16950270823987889320
12403259 415 17917141711353890353
12838862 33 18334860481826150516
13540713 4 18194681458808234139
13690498 29 18197776605917030579
13782708 43 14634864275346609036
13944108 23 17336489883373342869
13947930 73 13840844167316690725
14068700 675 16950279637197542488
14347329 18 17418102052677296013
14415361 349 17168129149491397510
14931854 50 18271229600337061718
15183329 4 18411701015299525881
15188451 53 14418136223277151077
15196674 1 18262216907840105240
15238133 3 15410615852649862052
15510800 12 5617242759557843493
16994733 274 16056306221178568476
17349148 13 17313929888359785362
17913733 40 11167944667041275429
18222031 100 18113335327888065274
200 152 17821995523841069034
20028762 73 16950279633018964454
20775438 99 16810710775674593975
21033648 29 17489027054668864280
21033650 10 17346875625126413081
21267235 1 18189872306844389738
21279426 13 18411975832438663331
21424621 283 16056879143676473225
21521239 73 18040720255474106503
21637258 2 15502377841871520521
21756936 100 14908177534990864899
21781055 127 13470683760047327374
21859007 373 18129959913483085332
22122407 14 14045727241018535453
221357 26 18409164428519957340
2215653 11 18407754833180061770
22393880 68 18341895139165300459
23522609 53 16589680436593055928
23559900 14 18335413518024264928
23569914 152 17618514615254029495
24771293 8 17894915109895828608
2838139 119 17846511365408787725
3004659 81 18410848841931744594
312425 54 7420683708424612727
335352 9 18262501650453419818
3882209 13 17549275069276186066
4015057 19 18114740435203037969
4058900 60 17060338573789909483
439807 62 17386012703247750239
474113 269 18129107895863151010
50009960 94 6842478066003317293
5104073 3 10951472736155064148

> <PUBCHEM_SHAPE_MULTIPOLES>
570.36
16.71
2.31
2.13
14.12
0.54
0.62
1.77
14.42
-0.62
-0.3
2.28
0.01
1.94

> <PUBCHEM_SHAPE_SELFOVERLAP>
1194.628

> <PUBCHEM_SHAPE_VOLUME>
321.5

> <PUBCHEM_COORDINATE_TYPE>
2
5
10

$$$$

