9570093
  -OEChem-07051213132D

 28 27  0     0  0  0  0  0  0999 V2000
    8.0622    0.3770    0.0000 S   0  0  0  0  0  0  0  0  0  0  0  0
    7.5622    1.2430    0.0000 O   0  0  0  0  0  0  0  0  0  0  0  0
    8.5622   -0.4890    0.0000 O   0  0  0  0  0  0  0  0  0  0  0  0
    4.5981   -0.6230    0.0000 O   0  0  0  0  0  0  0  0  0  0  0  0
    3.7320    0.8770    0.0000 O   0  0  0  0  0  0  0  0  0  0  0  0
    5.4641   -0.1230    0.0000 N   0  0  0  0  0  0  0  0  0  0  0  0
    2.8660   -0.6230    0.0000 N   0  0  0  0  0  0  0  0  0  0  0  0
    7.1962   -0.1230    0.0000 C   0  0  0  0  0  0  0  0  0  0  0  0
    6.6962    0.7430    0.0000 C   0  0  0  0  0  0  0  0  0  0  0  0
    7.6962   -0.9890    0.0000 C   0  0  0  0  0  0  0  0  0  0  0  0
    6.3301   -0.6230    0.0000 C   0  0  0  0  0  0  0  0  0  0  0  0
    8.9282    0.8770    0.0000 C   0  0  0  0  0  0  0  0  0  0  0  0
    3.7320   -0.1230    0.0000 C   0  0  0  0  0  0  0  0  0  0  0  0
    2.0000   -0.1230    0.0000 C   0  0  0  0  0  0  0  0  0  0  0  0
    7.2331    1.0530    0.0000 H   0  0  0  0  0  0  0  0  0  0  0  0
    6.3862    1.2800    0.0000 H   0  0  0  0  0  0  0  0  0  0  0  0
    6.1592    0.4330    0.0000 H   0  0  0  0  0  0  0  0  0  0  0  0
    7.1592   -1.2990    0.0000 H   0  0  0  0  0  0  0  0  0  0  0  0
    8.0062   -1.5260    0.0000 H   0  0  0  0  0  0  0  0  0  0  0  0
    8.2331   -0.6790    0.0000 H   0  0  0  0  0  0  0  0  0  0  0  0
    6.3301   -1.2430    0.0000 H   0  0  0  0  0  0  0  0  0  0  0  0
    9.2382    0.3401    0.0000 H   0  0  0  0  0  0  0  0  0  0  0  0
    9.4651    1.1870    0.0000 H   0  0  0  0  0  0  0  0  0  0  0  0
    8.6182    1.4139    0.0000 H   0  0  0  0  0  0  0  0  0  0  0  0
    2.8660   -1.2430    0.0000 H   0  0  0  0  0  0  0  0  0  0  0  0
    2.3100    0.4139    0.0000 H   0  0  0  0  0  0  0  0  0  0  0  0
    1.4631    0.1870    0.0000 H   0  0  0  0  0  0  0  0  0  0  0  0
    1.6900   -0.6599    0.0000 H   0  0  0  0  0  0  0  0  0  0  0  0
  1  2  2  0  0  0  0
  1  3  2  0  0  0  0
  1  8  1  0  0  0  0
  1 12  1  0  0  0  0
  4  6  1  0  0  0  0
  4 13  1  0  0  0  0
  5 13  2  0  0  0  0
  6 11  2  0  0  0  0
  7 13  1  0  0  0  0
  7 14  1  0  0  0  0
  7 25  1  0  0  0  0
  8  9  1  0  0  0  0
  8 10  1  0  0  0  0
  8 11  1  0  0  0  0
  9 15  1  0  0  0  0
  9 16  1  0  0  0  0
  9 17  1  0  0  0  0
 10 18  1  0  0  0  0
 10 19  1  0  0  0  0
 10 20  1  0  0  0  0
 11 21  1  0  0  0  0
 12 22  1  0  0  0  0
 12 23  1  0  0  0  0
 12 24  1  0  0  0  0
 14 26  1  0  0  0  0
 14 27  1  0  0  0  0
 14 28  1  0  0  0  0
M  END
> <PUBCHEM_COMPOUND_CID>
9570093

> <PUBCHEM_COMPOUND_CANONICALIZED>
1

> <PUBCHEM_CACTVS_COMPLEXITY>
326

> <PUBCHEM_CACTVS_HBOND_ACCEPTOR>
5

> <PUBCHEM_CACTVS_HBOND_DONOR>
1

> <PUBCHEM_CACTVS_ROTATABLE_BOND>
4

> <PUBCHEM_CACTVS_SUBSKEYS>
AAADccBjOABAAAAAAAAAAAAAAAAAAAAAAAAAAAAAAAAAAAAAAAAAHgQUAAAADADBQASCCALQAAooABAhGHBAAAAAABAAAIAoAAEAAAAAAAAAAAAAAgAAAAAAAAAAAAAAAAAAAAAAAAAAAAAAAAAAAAAAAA==

> <PUBCHEM_IUPAC_OPENEYE_NAME>
[(E)-(2-methyl-2-methylsulfonyl-propylidene)amino] N-methylcarbamate

> <PUBCHEM_IUPAC_CAS_NAME>
N-methylcarbamic acid [(E)-(2-methyl-2-methylsulfonylpropylidene)amino] ester

> <PUBCHEM_IUPAC_NAME>
[(E)-(2-methyl-2-methylsulfonylpropylidene)amino] N-methylcarbamate

> <PUBCHEM_IUPAC_SYSTEMATIC_NAME>
[(E)-(2-methyl-2-methylsulfonyl-propylidene)amino] N-methylcarbamate

> <PUBCHEM_IUPAC_TRADITIONAL_NAME>
N-methylcarbamic acid [(E)-(2-mesyl-2-methyl-propylidene)amino] ester

> <PUBCHEM_IUPAC_INCHI>
InChI=1S/C7H14N2O4S/c1-7(2,14(4,11)12)5-9-13-6(10)8-3/h5H,1-4H3,(H,8,10)/b9-5+

> <PUBCHEM_IUPAC_INCHIKEY>
YRRKLBAKDXSTNC-WEVVVXLNSA-N

> <PUBCHEM_XLOGP3>
-0.6

> <PUBCHEM_EXACT_MASS>
222.067428

> <PUBCHEM_MOLECULAR_FORMULA>
C7H14N2O4S

> <PUBCHEM_MOLECULAR_WEIGHT>
222.26206

> <PUBCHEM_OPENEYE_CAN_SMILES>
CC(C)(C=NOC(=O)NC)S(=O)(=O)C

> <PUBCHEM_OPENEYE_ISO_SMILES>
CC(C)(/C=N/OC(=O)NC)S(=O)(=O)C

> <PUBCHEM_CACTVS_TPSA>
93.2

> <PUBCHEM_MONOISOTOPIC_WEIGHT>
222.067428

> <PUBCHEM_TOTAL_CHARGE>
0

> <PUBCHEM_HEAVY_ATOM_COUNT>
14

> <PUBCHEM_ATOM_DEF_STEREO_COUNT>
0

> <PUBCHEM_ATOM_UDEF_STEREO_COUNT>
0

> <PUBCHEM_BOND_DEF_STEREO_COUNT>
1

> <PUBCHEM_BOND_UDEF_STEREO_COUNT>
0

> <PUBCHEM_ISOTOPIC_ATOM_COUNT>
0

> <PUBCHEM_COMPONENT_COUNT>
1

> <PUBCHEM_CACTVS_TAUTO_COUNT>
2

> <PUBCHEM_COORDINATE_TYPE>
1
5
255

$$$$

