5280687
  -OEChem-07051212493D

 19 18  0     0  0  0  0  0  0999 V2000
   -0.0708   -1.8520    1.2062 O   0  0  0  0  0  0  0  0  0  0  0  0
   -1.4188    2.1408    0.0008 O   0  0  0  0  0  0  0  0  0  0  0  0
   -3.6652    1.0091   -0.0234 O   0  0  0  0  0  0  0  0  0  0  0  0
   -0.0480   -2.0336   -1.0607 O   0  0  0  0  0  0  0  0  0  0  0  0
   -2.6638   -1.0573   -0.0313 O   0  0  0  0  0  0  0  0  0  0  0  0
    4.8299    0.2640   -0.0221 O   0  0  0  0  0  0  0  0  0  0  0  0
   -0.0754    0.1390   -0.0091 C   0  0  0  0  0  0  0  0  0  0  0  0
    1.1302    0.7392    0.0011 C   0  0  0  0  0  0  0  0  0  0  0  0
   -1.3432    0.9220    0.0079 C   0  0  0  0  0  0  0  0  0  0  0  0
   -0.0533   -1.3484   -0.0501 C   0  0  0  0  0  0  0  0  0  0  0  0
    2.4354    0.1094   -0.0130 C   0  0  0  0  0  0  0  0  0  0  0  0
   -2.6321    0.1562   -0.0054 C   0  0  0  0  0  0  0  0  0  0  0  0
    3.5752    0.8118   -0.0008 C   0  0  0  0  0  0  0  0  0  0  0  0
    1.1544    1.8286    0.0261 H   0  0  0  0  0  0  0  0  0  0  0  0
    2.4974   -0.9741   -0.0383 H   0  0  0  0  0  0  0  0  0  0  0  0
    3.6177    1.8932    0.0229 H   0  0  0  0  0  0  0  0  0  0  0  0
   -0.0680   -2.8330    1.2085 H   0  0  0  0  0  0  0  0  0  0  0  0
   -4.5294    0.5457   -0.0492 H   0  0  0  0  0  0  0  0  0  0  0  0
    5.4634    1.0026   -0.0079 H   0  0  0  0  0  0  0  0  0  0  0  0
  1 10  1  0  0  0  0
  1 17  1  0  0  0  0
  2  9  2  0  0  0  0
  3 12  1  0  0  0  0
  3 18  1  0  0  0  0
  4 10  2  0  0  0  0
  5 12  2  0  0  0  0
  6 13  1  0  0  0  0
  6 19  1  0  0  0  0
  7  8  2  0  0  0  0
  7  9  1  0  0  0  0
  7 10  1  0  0  0  0
  8 11  1  0  0  0  0
  8 14  1  0  0  0  0
  9 12  1  0  0  0  0
 11 13  2  0  0  0  0
 11 15  1  0  0  0  0
 13 16  1  0  0  0  0
M  END
> <PUBCHEM_COMPOUND_CID>
5280687

> <PUBCHEM_CONFORMER_RMSD>
0.6

> <PUBCHEM_CONFORMER_DIVERSEORDER>
1
9
12
14
5
7
10
6
8
11
13
2
4
15
3

> <PUBCHEM_MMFF94_PARTIAL_CHARGES>
19
1 -0.65
10 0.71
11 -0.15
12 0.72
13 -0.07
14 0.15
15 0.15
16 0.15
17 0.5
18 0.5
19 0.45
2 -0.57
3 -0.65
4 -0.57
5 -0.57
6 -0.53
7 0.03
8 -0.15
9 0.56

> <PUBCHEM_EFFECTIVE_ROTOR_COUNT>
4

> <PUBCHEM_PHARMACOPHORE_FEATURES>
9
1 1 acceptor
1 2 acceptor
1 3 acceptor
1 4 acceptor
1 5 acceptor
1 6 donor
1 7 anion
3 1 4 10 anion
3 3 5 12 anion

> <PUBCHEM_HEAVY_ATOM_COUNT>
13

> <PUBCHEM_ATOM_DEF_STEREO_COUNT>
0

> <PUBCHEM_ATOM_UDEF_STEREO_COUNT>
0

> <PUBCHEM_BOND_DEF_STEREO_COUNT>
2

> <PUBCHEM_BOND_UDEF_STEREO_COUNT>
0

> <PUBCHEM_ISOTOPIC_ATOM_COUNT>
0

> <PUBCHEM_COMPONENT_COUNT>
1

> <PUBCHEM_CACTVS_TAUTO_COUNT>
5

> <PUBCHEM_CONFORMER_ID>
005093AF00000001

> <PUBCHEM_MMFF94_ENERGY>
32.0709

> <PUBCHEM_FEATURE_SELFOVERLAP>
46.093

> <PUBCHEM_SHAPE_FINGERPRINT>
10922049 32 18410569604469620458
11132069 177 18409729560253240568
12346645 44 18261951967918038321
13024252 1 17917152697505803679
13380535 76 18410854386449888191
14325111 11 18410574006890239596
14614273 12 18270965777164585621
14648413 74 17613711944084059029
14993402 34 17988927738725441252
15775835 57 18410856581193890392
16945 1 18409170999808967863
187816 3 17530682113064542240
20645476 183 17702646762572748126
20645477 56 18334298626672716736
20871998 184 18190452762456898550
21501502 16 18120660394548245417
21524375 3 18411138069213823328
23235685 24 18411705395601795197
23402539 116 18261402134847415188
23402655 69 18263378039506504837
23559900 14 18260832575625127336
366044 4 18407478864414806046
43471831 8 18271812353799453866
528862 383 17631745983558289322
6333449 129 18261394399447511646
69090 78 18186806859440472902
7364860 26 18046626986404549271
81539 233 18200597019790406431

> <PUBCHEM_SHAPE_MULTIPOLES>
232.32
6.01
1.82
0.73
5.18
0.46
-0.04
-2.05
0.07
-0.83
0.03
0
0.31
0

> <PUBCHEM_SHAPE_SELFOVERLAP>
468.616

> <PUBCHEM_SHAPE_VOLUME>
133.4

> <PUBCHEM_COORDINATE_TYPE>
2
5
10

$$$$

