854107
  -OEChem-06241222473D

 37 39  0     0  0  0  0  0  0999 V2000
   -0.9231   -1.8767    0.2973 O   0  0  0  0  0  0  0  0  0  0  0  0
    1.2540   -2.4106    0.9925 O   0  0  0  0  0  0  0  0  0  0  0  0
   -2.8623    2.5665    0.4428 O   0  0  0  0  0  0  0  0  0  0  0  0
    0.5901   -0.1302    0.9282 C   0  0  0  0  0  0  0  0  0  0  0  0
   -0.4525    0.8788    0.6518 C   0  0  0  0  0  0  0  0  0  0  0  0
   -1.6837    0.4527    0.2767 C   0  0  0  0  0  0  0  0  0  0  0  0
    1.9323    0.3175    1.4509 C   0  0  0  0  0  0  0  0  0  0  0  0
   -1.9393   -0.9683    0.0483 C   0  0  0  0  0  0  0  0  0  0  0  0
    0.3092   -1.4363    0.7419 C   0  0  0  0  0  0  0  0  0  0  0  0
    2.9639    0.2493    0.3702 C   0  0  0  0  0  0  0  0  0  0  0  0
   -2.8566    1.3897    0.1005 C   0  0  0  0  0  0  0  0  0  0  0  0
   -0.0454    2.3258    0.7990 C   0  0  0  0  0  0  0  0  0  0  0  0
   -3.1174   -1.4090   -0.4141 C   0  0  0  0  0  0  0  0  0  0  0  0
   -4.2053   -0.5068   -0.7207 C   0  0  0  0  0  0  0  0  0  0  0  0
   -4.0963    0.8088   -0.4858 C   0  0  0  0  0  0  0  0  0  0  0  0
    2.6696    0.7366   -0.9010 C   0  0  0  0  0  0  0  0  0  0  0  0
    4.2149   -0.3010    0.6393 C   0  0  0  0  0  0  0  0  0  0  0  0
   -5.4462   -1.1190   -1.2971 C   0  0  0  0  0  0  0  0  0  0  0  0
    3.6316    0.6733   -1.9090 C   0  0  0  0  0  0  0  0  0  0  0  0
    5.1770   -0.3642   -0.3687 C   0  0  0  0  0  0  0  0  0  0  0  0
    4.8853    0.1229   -1.6429 C   0  0  0  0  0  0  0  0  0  0  0  0
    2.2173   -0.3174    2.3014 H   0  0  0  0  0  0  0  0  0  0  0  0
    1.9295    1.3200    1.8895 H   0  0  0  0  0  0  0  0  0  0  0  0
   -0.1083    2.6322    1.8485 H   0  0  0  0  0  0  0  0  0  0  0  0
   -0.6642    3.0020    0.2054 H   0  0  0  0  0  0  0  0  0  0  0  0
    0.9636    2.5352    0.4375 H   0  0  0  0  0  0  0  0  0  0  0  0
   -3.2748   -2.4708   -0.5814 H   0  0  0  0  0  0  0  0  0  0  0  0
   -4.9103    1.4954   -0.6937 H   0  0  0  0  0  0  0  0  0  0  0  0
    1.7103    1.1711   -1.1575 H   0  0  0  0  0  0  0  0  0  0  0  0
    4.4563   -0.6830    1.6275 H   0  0  0  0  0  0  0  0  0  0  0  0
   -5.8714   -1.8535   -0.6045 H   0  0  0  0  0  0  0  0  0  0  0  0
   -5.2231   -1.6227   -2.2439 H   0  0  0  0  0  0  0  0  0  0  0  0
   -6.2181   -0.3678   -1.4967 H   0  0  0  0  0  0  0  0  0  0  0  0
    3.4050    1.0518   -2.9015 H   0  0  0  0  0  0  0  0  0  0  0  0
    6.1533   -0.7926   -0.1616 H   0  0  0  0  0  0  0  0  0  0  0  0
    2.0941   -2.0259    1.2785 H   0  0  0  0  0  0  0  0  0  0  0  0
    5.6344    0.0736   -2.4277 H   0  0  0  0  0  0  0  0  0  0  0  0
  1  8  1  0  0  0  0
  1  9  1  0  0  0  0
  2  9  1  0  0  0  0
  2 36  1  0  0  0  0
  3 11  2  0  0  0  0
  4  5  1  0  0  0  0
  4  7  1  0  0  0  0
  4  9  2  0  0  0  0
  5  6  2  0  0  0  0
  5 12  1  0  0  0  0
  6  8  1  0  0  0  0
  6 11  1  0  0  0  0
  7 10  1  0  0  0  0
  7 22  1  0  0  0  0
  7 23  1  0  0  0  0
  8 13  2  0  0  0  0
 10 16  2  0  0  0  0
 10 17  1  0  0  0  0
 11 15  1  0  0  0  0
 12 24  1  0  0  0  0
 12 25  1  0  0  0  0
 12 26  1  0  0  0  0
 13 14  1  0  0  0  0
 13 27  1  0  0  0  0
 14 15  2  0  0  0  0
 14 18  1  0  0  0  0
 15 28  1  0  0  0  0
 16 19  1  0  0  0  0
 16 29  1  0  0  0  0
 17 20  2  0  0  0  0
 17 30  1  0  0  0  0
 18 31  1  0  0  0  0
 18 32  1  0  0  0  0
 18 33  1  0  0  0  0
 19 21  2  0  0  0  0
 19 34  1  0  0  0  0
 20 21  1  0  0  0  0
 20 35  1  0  0  0  0
 21 37  1  0  0  0  0
M  END
> <PUBCHEM_COMPOUND_CID>
854107

> <PUBCHEM_CONFORMER_RMSD>
0.6

> <PUBCHEM_CONFORMER_DIVERSEORDER>
4
3
2
1

> <PUBCHEM_MMFF94_PARTIAL_CHARGES>
29
1 -0.15
10 -0.14
11 0.54
12 0.14
13 -0.15
14 -0.14
15 -0.14
16 -0.15
17 -0.15
18 0.14
19 -0.15
2 -0.53
20 -0.15
21 -0.15
27 0.15
28 0.15
29 0.15
3 -0.57
30 0.15
34 0.15
35 0.15
36 0.45
37 0.15
4 -0.14
5 -0.14
6 0.01
7 0.28
8 0.08
9 0.15

> <PUBCHEM_EFFECTIVE_ROTOR_COUNT>
2

> <PUBCHEM_PHARMACOPHORE_FEATURES>
6
1 1 acceptor
1 2 donor
1 3 acceptor
6 1 4 5 6 8 9 rings
6 10 16 17 19 20 21 rings
6 6 8 11 13 14 15 rings

> <PUBCHEM_HEAVY_ATOM_COUNT>
21

> <PUBCHEM_ATOM_DEF_STEREO_COUNT>
0

> <PUBCHEM_ATOM_UDEF_STEREO_COUNT>
0

> <PUBCHEM_BOND_DEF_STEREO_COUNT>
0

> <PUBCHEM_BOND_UDEF_STEREO_COUNT>
0

> <PUBCHEM_ISOTOPIC_ATOM_COUNT>
0

> <PUBCHEM_COMPONENT_COUNT>
1

> <PUBCHEM_CACTVS_TAUTO_COUNT>
30

> <PUBCHEM_CONFORMER_ID>
000D085B00000004

> <PUBCHEM_MMFF94_ENERGY>
67.88

> <PUBCHEM_FEATURE_SELFOVERLAP>
30.471

> <PUBCHEM_SHAPE_FINGERPRINT>
10498660 4 18412269462357710661
10756046 5 18265049326295870662
11045977 3 12895353295920321366
11458722 379 18410012143431506603
11796584 16 15357694184930737375
12236239 1 17988929980914511056
12251169 10 9223232948882106962
12363563 72 17240750784040538944
12954195 1 17968372454959941905
13540713 5 18123200249460641267
13544653 18 14562523007688606912
14294032 229 18195807595234715893
14386348 63 17167860859473278196
14790565 3 17538553714519569081
15142383 8 14490461002851414539
15475509 35 13912898462608615415
16752209 62 18410295813104902674
16945 1 18338245873189306747
16988056 13 15098743128680238788
17870717 6 18113606902522066645
19141452 34 16805888386199524703
19784866 140 18334016086216958647
19862831 5 18343299254131291244
20374829 77 17894631456673794190
20645476 183 17917993836865472074
20645477 70 16588023494434748662
20871999 31 18336538357047921476
21033650 10 18118938482251517004
21267235 1 18334862663564054871
21475661 188 14045746980276797151
21637258 2 15791739589845147431
21857420 4 15873971840789857791
231179 274 16200434671727967334
23366157 5 17842279451879697395
23379529 103 17534913978870484791
23402539 116 18408604794792744652
23557571 272 17894916226259920112
23559900 14 18333448747450363760
25147074 1 18267873967862965427
2748010 2 17834686993777608339
2838139 119 16415204472488378276
296302 2 14549022091304574163
3004659 81 18342460387474805650
33382 64 16008743593790583639
465052 167 6483070803813998743
474 4 17561363997838215338
4990 188 17821732736245924755
9709674 26 18044382625421317297

> <PUBCHEM_SHAPE_MULTIPOLES>
414.56
10.44
2
1.4
1.12
0.37
-0.4
-1.38
-5.59
-1.59
0.51
1.23
-0.03
-0.85

> <PUBCHEM_SHAPE_SELFOVERLAP>
907.729

> <PUBCHEM_SHAPE_VOLUME>
222

> <PUBCHEM_COORDINATE_TYPE>
2
5
10

$$$$

