7031
  -OEChem-07051213133D

 40 41  0     0  0  0  0  0  0999 V2000
    0.0010   -2.9118   -0.2947 O   0  0  0  0  0  0  0  0  0  0  0  0
    4.9366    1.0245    0.1012 N   0  0  0  0  0  0  0  0  0  0  0  0
   -4.9095    1.1571    0.1138 N   0  0  0  0  0  0  0  0  0  0  0  0
    1.2522   -0.9829   -0.0934 C   0  0  0  0  0  0  0  0  0  0  0  0
   -1.3015   -0.9359   -0.0897 C   0  0  0  0  0  0  0  0  0  0  0  0
    3.6994    0.3505    0.0360 C   0  0  0  0  0  0  0  0  0  0  0  0
   -3.6908    0.4504    0.0452 C   0  0  0  0  0  0  0  0  0  0  0  0
   -0.0240   -1.6769   -0.1604 C   0  0  0  0  0  0  0  0  0  0  0  0
    1.8638   -0.7656    1.1413 C   0  0  0  0  0  0  0  0  0  0  0  0
   -1.2748    0.4404    0.0425 C   0  0  0  0  0  0  0  0  0  0  0  0
    1.8644   -0.5336   -1.2635 C   0  0  0  0  0  0  0  0  0  0  0  0
   -2.4915   -1.6374   -0.1564 C   0  0  0  0  0  0  0  0  0  0  0  0
    3.0873   -0.0989    1.2061 C   0  0  0  0  0  0  0  0  0  0  0  0
   -2.4800    1.1396    0.1107 C   0  0  0  0  0  0  0  0  0  0  0  0
    3.0880    0.1330   -1.1988 C   0  0  0  0  0  0  0  0  0  0  0  0
   -3.6966   -0.9381   -0.0885 C   0  0  0  0  0  0  0  0  0  0  0  0
    5.8803    0.7258    1.1598 C   0  0  0  0  0  0  0  0  0  0  0  0
    5.2863    2.0149   -0.8979 C   0  0  0  0  0  0  0  0  0  0  0  0
   -4.9991    2.5155   -0.3833 C   0  0  0  0  0  0  0  0  0  0  0  0
   -6.0916    0.5292    0.6699 C   0  0  0  0  0  0  0  0  0  0  0  0
    1.3946   -1.1092    2.0596 H   0  0  0  0  0  0  0  0  0  0  0  0
   -0.3572    1.0162    0.1001 H   0  0  0  0  0  0  0  0  0  0  0  0
    1.3982   -0.6999   -2.2313 H   0  0  0  0  0  0  0  0  0  0  0  0
   -2.5171   -2.7179   -0.2626 H   0  0  0  0  0  0  0  0  0  0  0  0
    3.5305    0.0646    2.1843 H   0  0  0  0  0  0  0  0  0  0  0  0
   -2.4407    2.2191    0.2268 H   0  0  0  0  0  0  0  0  0  0  0  0
    3.5431    0.4589   -2.1298 H   0  0  0  0  0  0  0  0  0  0  0  0
   -4.6214   -1.5041   -0.1547 H   0  0  0  0  0  0  0  0  0  0  0  0
    5.5953    1.2319    2.0881 H   0  0  0  0  0  0  0  0  0  0  0  0
    6.8892    1.0639    0.8974 H   0  0  0  0  0  0  0  0  0  0  0  0
    5.9479   -0.3523    1.3446 H   0  0  0  0  0  0  0  0  0  0  0  0
    6.0886    2.6701   -0.5403 H   0  0  0  0  0  0  0  0  0  0  0  0
    4.4350    2.6624   -1.1365 H   0  0  0  0  0  0  0  0  0  0  0  0
    5.6394    1.5327   -1.8155 H   0  0  0  0  0  0  0  0  0  0  0  0
   -4.4681    2.6303   -1.3351 H   0  0  0  0  0  0  0  0  0  0  0  0
   -4.5882    3.2231    0.3445 H   0  0  0  0  0  0  0  0  0  0  0  0
   -6.0407    2.8014   -0.5677 H   0  0  0  0  0  0  0  0  0  0  0  0
   -6.5605   -0.1343   -0.0642 H   0  0  0  0  0  0  0  0  0  0  0  0
   -6.8370    1.2782    0.9602 H   0  0  0  0  0  0  0  0  0  0  0  0
   -5.8546   -0.0443    1.5732 H   0  0  0  0  0  0  0  0  0  0  0  0
  1  8  2  0  0  0  0
  2  6  1  0  0  0  0
  2 17  1  0  0  0  0
  2 18  1  0  0  0  0
  3  7  1  0  0  0  0
  3 19  1  0  0  0  0
  3 20  1  0  0  0  0
  4  8  1  0  0  0  0
  4  9  2  0  0  0  0
  4 11  1  0  0  0  0
  5  8  1  0  0  0  0
  5 10  2  0  0  0  0
  5 12  1  0  0  0  0
  6 13  2  0  0  0  0
  6 15  1  0  0  0  0
  7 14  2  0  0  0  0
  7 16  1  0  0  0  0
  9 13  1  0  0  0  0
  9 21  1  0  0  0  0
 10 14  1  0  0  0  0
 10 22  1  0  0  0  0
 11 15  2  0  0  0  0
 11 23  1  0  0  0  0
 12 16  2  0  0  0  0
 12 24  1  0  0  0  0
 13 25  1  0  0  0  0
 14 26  1  0  0  0  0
 15 27  1  0  0  0  0
 16 28  1  0  0  0  0
 17 29  1  0  0  0  0
 17 30  1  0  0  0  0
 17 31  1  0  0  0  0
 18 32  1  0  0  0  0
 18 33  1  0  0  0  0
 18 34  1  0  0  0  0
 19 35  1  0  0  0  0
 19 36  1  0  0  0  0
 19 37  1  0  0  0  0
 20 38  1  0  0  0  0
 20 39  1  0  0  0  0
 20 40  1  0  0  0  0
M  END
> <PUBCHEM_COMPOUND_CID>
7031

> <PUBCHEM_CONFORMER_RMSD>
0.6

> <PUBCHEM_CONFORMER_DIVERSEORDER>
1
3
2
4
7
5
6
8

> <PUBCHEM_MMFF94_PARTIAL_CHARGES>
28
1 -0.57
10 -0.15
11 -0.15
12 -0.15
13 -0.15
14 -0.15
15 -0.15
16 -0.15
17 0.37
18 0.37
19 0.37
2 -0.84
20 0.37
21 0.15
22 0.15
23 0.15
24 0.15
25 0.15
26 0.15
27 0.15
28 0.15
3 -0.84
4 0.09
5 0.09
6 0.1
7 0.1
8 0.4
9 -0.15

> <PUBCHEM_EFFECTIVE_ROTOR_COUNT>
4

> <PUBCHEM_PHARMACOPHORE_FEATURES>
5
1 1 acceptor
1 2 cation
1 3 cation
6 4 6 9 11 13 15 rings
6 5 7 10 12 14 16 rings

> <PUBCHEM_HEAVY_ATOM_COUNT>
20

> <PUBCHEM_ATOM_DEF_STEREO_COUNT>
0

> <PUBCHEM_ATOM_UDEF_STEREO_COUNT>
0

> <PUBCHEM_BOND_DEF_STEREO_COUNT>
0

> <PUBCHEM_BOND_UDEF_STEREO_COUNT>
0

> <PUBCHEM_ISOTOPIC_ATOM_COUNT>
0

> <PUBCHEM_COMPONENT_COUNT>
1

> <PUBCHEM_CACTVS_TAUTO_COUNT>
1

> <PUBCHEM_CONFORMER_ID>
00001B7700000001

> <PUBCHEM_MMFF94_ENERGY>
94.7806

> <PUBCHEM_FEATURE_SELFOVERLAP>
25.371

> <PUBCHEM_SHAPE_FINGERPRINT>
10 15 18130780136435443689
10354089 29 17632856430125087280
10411042 1 17617098010634118511
10498660 4 18333729143393445777
12107183 9 18270411598124999290
12236239 1 17988928834042373738
12390115 104 18187914084924419163
12403259 118 17775278383527541805
12403259 415 18339920540782599197
12403814 3 17632298995373885093
12596602 18 17275103894783599208
12730499 353 17603578629894919295
12788726 201 17268326350940051706
12892183 10 15984834777742204094
12969540 114 17530975713060905853
13583140 156 16917075438780434927
13685833 64 10159693607871076613
13955234 65 18194674002534777707
14341114 328 17489867128728384896
14739800 52 18122078507451939264
15188451 53 14189281635657780761
15196674 1 18409729577570272775
15238133 3 17417802980813236052
17539 30 17607820395478990735
17980427 23 18130222658233337319
193927 3 10663815308381720769
19784866 170 18411979187277580811
19784866 240 9511460048020971663
20281389 69 18410858763032229560
20374829 77 9727638301833361307
20388580 30 7781509330814849442
20645477 56 18187363216840757635
20645477 70 16733255858706211310
21452121 103 18339924921659991710
21637258 2 8214150616520392388
221357 26 16008744731930420040
23016692 55 9583518737054014208
23402539 116 18260275114038328798
23402655 69 17240201044926316390
23557571 272 17968654900235420599
23559900 14 18186794808084273262
26918003 58 14979956973682110445
270888 7 18411700997555654493
2838139 119 18188220844189439452
2916195 48 18114751438619106064
293599 30 18334575737160431104
29717793 49 6916266238657978784
3472631 163 18410291393536361813
350125 39 18195526132408865526
351380 3 8862946069582648220
3680242 22 18340766043676150272
4028521 119 17967531272350076379
465052 167 11383830485294313352
474 4 17416684640534052940
5104073 3 18128529552408486745
633830 44 18411985783978608830
76465 3 10231743479900541961
7808743 9 18410576154125870377
9981440 41 18413669115016913803

> <PUBCHEM_SHAPE_MULTIPOLES>
395.76
13.37
2.16
1.06
0.47
0.13
0.03
-9.78
1.85
1.14
-0.4
-1.18
-0.05
-0.27

> <PUBCHEM_SHAPE_SELFOVERLAP>
839.801

> <PUBCHEM_SHAPE_VOLUME>
222.6

> <PUBCHEM_COORDINATE_TYPE>
2
5
10

$$$$

