4892
  -OEChem-06261200242D

 58 62  0     1  0  0  0  0  0999 V2000
    6.4227    2.4802    0.0000 O   0  0  0  0  0  0  0  0  0  0  0  0
   14.2830    0.0044    0.0000 O   0  0  0  0  0  0  0  0  0  0  0  0
   14.2830   -2.0439    0.0000 O   0  0  0  0  0  0  0  0  0  0  0  0
    7.2888    0.9802    0.0000 N   0  0  0  0  0  0  0  0  0  0  0  0
    9.0208   -0.0198    0.0000 N   0  0  0  0  0  0  0  0  0  0  0  0
   10.7528   -0.0198    0.0000 N   0  0  0  0  0  0  0  0  0  0  0  0
    9.8868   -1.5198    0.0000 N   0  0  0  0  0  0  0  0  0  0  0  0
   10.7528   -3.0198    0.0000 N   0  0  0  0  0  0  0  0  0  0  0  0
    3.6248    1.4978    0.0000 C   0  0  3  0  0  0  0  0  0  0  0  0
    2.7588    0.9978    0.0000 C   0  0  3  0  0  0  0  0  0  0  0  0
    3.0332   -0.4767    0.0000 C   0  0  0  0  0  0  0  0  0  0  0  0
    2.0672   -0.2178    0.0000 C   0  0  0  0  0  0  0  0  0  0  0  0
    5.5567    0.9802    0.0000 C   0  0  0  0  0  0  0  0  0  0  0  0
    5.2979    0.0143    0.0000 C   0  0  0  0  0  0  0  0  0  0  0  0
    2.8660    3.3298    0.0000 C   0  0  0  0  0  0  0  0  0  0  0  0
    2.0000    2.8298    0.0000 C   0  0  0  0  0  0  0  0  0  0  0  0
    6.4227    1.4802    0.0000 C   0  0  0  0  0  0  0  0  0  0  0  0
    7.2888   -0.0198    0.0000 C   0  0  0  0  0  0  0  0  0  0  0  0
    8.1548    1.4802    0.0000 C   0  0  0  0  0  0  0  0  0  0  0  0
    9.0208    0.9802    0.0000 C   0  0  0  0  0  0  0  0  0  0  0  0
    8.1548   -0.5198    0.0000 C   0  0  0  0  0  0  0  0  0  0  0  0
    9.8868   -0.5198    0.0000 C   0  0  0  0  0  0  0  0  0  0  0  0
   11.6189   -0.5198    0.0000 C   0  0  0  0  0  0  0  0  0  0  0  0
   11.6189   -1.5198    0.0000 C   0  0  0  0  0  0  0  0  0  0  0  0
   10.7528   -2.0198    0.0000 C   0  0  0  0  0  0  0  0  0  0  0  0
   12.5128    0.0149    0.0000 C   0  0  0  0  0  0  0  0  0  0  0  0
   12.5128   -2.0545    0.0000 C   0  0  0  0  0  0  0  0  0  0  0  0
   13.4189   -0.4990    0.0000 C   0  0  0  0  0  0  0  0  0  0  0  0
   13.4189   -1.5406    0.0000 C   0  0  0  0  0  0  0  0  0  0  0  0
   14.2791    1.0044    0.0000 C   0  0  0  0  0  0  0  0  0  0  0  0
   15.1509   -1.5473    0.0000 C   0  0  0  0  0  0  0  0  0  0  0  0
    4.0336    1.9640    0.0000 H   0  0  0  0  0  0  0  0  0  0  0  0
    3.1921    1.4413    0.0000 H   0  0  0  0  0  0  0  0  0  0  0  0
    2.8668   -1.0739    0.0000 H   0  0  0  0  0  0  0  0  0  0  0  0
    3.6288   -0.6488    0.0000 H   0  0  0  0  0  0  0  0  0  0  0  0
    1.5042    0.0418    0.0000 H   0  0  0  0  0  0  0  0  0  0  0  0
    1.8564   -0.8009    0.0000 H   0  0  0  0  0  0  0  0  0  0  0  0
    5.5785   -0.5386    0.0000 H   0  0  0  0  0  0  0  0  0  0  0  0
    3.0653    3.9169    0.0000 H   0  0  0  0  0  0  0  0  0  0  0  0
    1.4129    3.0291    0.0000 H   0  0  0  0  0  0  0  0  0  0  0  0
    6.6782    0.0879    0.0000 H   0  0  0  0  0  0  0  0  0  0  0  0
    7.0767   -0.6024    0.0000 H   0  0  0  0  0  0  0  0  0  0  0  0
    8.5533    1.9552    0.0000 H   0  0  0  0  0  0  0  0  0  0  0  0
    7.7562    1.9552    0.0000 H   0  0  0  0  0  0  0  0  0  0  0  0
    7.7562   -0.9947    0.0000 H   0  0  0  0  0  0  0  0  0  0  0  0
    8.5533   -0.9947    0.0000 H   0  0  0  0  0  0  0  0  0  0  0  0
    9.6314    0.8725    0.0000 H   0  0  0  0  0  0  0  0  0  0  0  0
    9.2328    1.5628    0.0000 H   0  0  0  0  0  0  0  0  0  0  0  0
   12.5056    0.6348    0.0000 H   0  0  0  0  0  0  0  0  0  0  0  0
   12.5056   -2.6744    0.0000 H   0  0  0  0  0  0  0  0  0  0  0  0
   10.2159   -3.3298    0.0000 H   0  0  0  0  0  0  0  0  0  0  0  0
   11.2898   -3.3298    0.0000 H   0  0  0  0  0  0  0  0  0  0  0  0
   14.8991    1.0067    0.0000 H   0  0  0  0  0  0  0  0  0  0  0  0
   14.2767    1.6243    0.0000 H   0  0  0  0  0  0  0  0  0  0  0  0
   13.6591    1.0020    0.0000 H   0  0  0  0  0  0  0  0  0  0  0  0
   15.4588   -2.0854    0.0000 H   0  0  0  0  0  0  0  0  0  0  0  0
   15.6890   -1.2394    0.0000 H   0  0  0  0  0  0  0  0  0  0  0  0
   14.8430   -1.0092    0.0000 H   0  0  0  0  0  0  0  0  0  0  0  0
  1 17  2  0  0  0  0
  2 28  1  0  0  0  0
  2 30  1  0  0  0  0
  3 29  1  0  0  0  0
  3 31  1  0  0  0  0
  4 17  1  0  0  0  0
  4 18  1  0  0  0  0
  4 19  1  0  0  0  0
  5 20  1  0  0  0  0
  5 21  1  0  0  0  0
  5 22  1  0  0  0  0
  6 22  2  0  0  0  0
  6 23  1  0  0  0  0
  7 22  1  0  0  0  0
  7 25  2  0  0  0  0
  8 25  1  0  0  0  0
  8 51  1  0  0  0  0
  8 52  1  0  0  0  0
  9 11  1  0  0  0  0
  9 13  1  0  0  0  0
  9 15  1  0  0  0  0
  9 32  1  0  0  0  0
 10 12  1  0  0  0  0
 10 14  1  0  0  0  0
 10 16  1  0  0  0  0
 10 33  1  0  0  0  0
 11 12  1  0  0  0  0
 11 34  1  0  0  0  0
 11 35  1  0  0  0  0
 12 36  1  0  0  0  0
 12 37  1  0  0  0  0
 13 14  2  0  0  0  0
 13 17  1  0  0  0  0
 14 38  1  0  0  0  0
 15 16  2  0  0  0  0
 15 39  1  0  0  0  0
 16 40  1  0  0  0  0
 18 21  1  0  0  0  0
 18 41  1  0  0  0  0
 18 42  1  0  0  0  0
 19 20  1  0  0  0  0
 19 43  1  0  0  0  0
 19 44  1  0  0  0  0
 20 47  1  0  0  0  0
 20 48  1  0  0  0  0
 21 45  1  0  0  0  0
 21 46  1  0  0  0  0
 23 24  1  0  0  0  0
 23 26  2  0  0  0  0
 24 25  1  0  0  0  0
 24 27  2  0  0  0  0
 26 28  1  0  0  0  0
 26 49  1  0  0  0  0
 27 29  1  0  0  0  0
 27 50  1  0  0  0  0
 28 29  2  0  0  0  0
 30 53  1  0  0  0  0
 30 54  1  0  0  0  0
 30 55  1  0  0  0  0
 31 56  1  0  0  0  0
 31 57  1  0  0  0  0
 31 58  1  0  0  0  0
M  END
> <PUBCHEM_COMPOUND_CID>
4892

> <PUBCHEM_COMPOUND_CANONICALIZED>
1

> <PUBCHEM_CACTVS_COMPLEXITY>
735

> <PUBCHEM_CACTVS_HBOND_ACCEPTOR>
7

> <PUBCHEM_CACTVS_HBOND_DONOR>
1

> <PUBCHEM_CACTVS_ROTATABLE_BOND>
4

> <PUBCHEM_CACTVS_SUBSKEYS>
AAADceB7sAAAAAAAAAAAAAAAAAAAAAAAAAA8WIECAAAAAACx8AAAHgAQAAAADQzBngYz9vdIFACoAydydACCiCkhIqAJmCE+7NiNbrLE+duUNCpuxhvK6ae42FOOIEABAgACQABAgAIEAASAAAAAAAAAAA==

> <PUBCHEM_IUPAC_OPENEYE_NAME>
[4-(4-amino-6,7-dimethoxy-quinazolin-2-yl)piperazin-1-yl]-(3-bicyclo[2.2.2]octa-2,5-dienyl)methanone

> <PUBCHEM_IUPAC_CAS_NAME>
[4-(4-amino-6,7-dimethoxy-2-quinazolinyl)-1-piperazinyl]-(3-bicyclo[2.2.2]octa-2,5-dienyl)methanone

> <PUBCHEM_IUPAC_NAME>
[4-(4-amino-6,7-dimethoxyquinazolin-2-yl)piperazin-1-yl]-(3-bicyclo[2.2.2]octa-2,5-dienyl)methanone

> <PUBCHEM_IUPAC_SYSTEMATIC_NAME>
[4-(4-azanyl-6,7-dimethoxy-quinazolin-2-yl)piperazin-1-yl]-(3-bicyclo[2.2.2]octa-2,5-dienyl)methanone

> <PUBCHEM_IUPAC_TRADITIONAL_NAME>
[4-(4-amino-6,7-dimethoxy-quinazolin-2-yl)piperazino]-(3-bicyclo[2.2.2]octa-2,5-dienyl)methanone

> <PUBCHEM_IUPAC_INCHI>
InChI=1S/C23H27N5O3/c1-30-19-12-17-18(13-20(19)31-2)25-23(26-21(17)24)28-9-7-27(8-10-28)22(29)16-11-14-3-5-15(16)6-4-14/h3,5,11-15H,4,6-10H2,1-2H3,(H2,24,25,26)

> <PUBCHEM_IUPAC_INCHIKEY>
MXXRJJCMLRPJOF-UHFFFAOYSA-N

> <PUBCHEM_XLOGP3>
3

> <PUBCHEM_EXACT_MASS>
421.21139

> <PUBCHEM_MOLECULAR_FORMULA>
C23H27N5O3

> <PUBCHEM_MOLECULAR_WEIGHT>
421.49218

> <PUBCHEM_OPENEYE_CAN_SMILES>
COC1=C(C=C2C(=C1)C(=NC(=N2)N3CCN(CC3)C(=O)C4=CC5CCC4C=C5)N)OC

> <PUBCHEM_OPENEYE_ISO_SMILES>
COC1=C(C=C2C(=C1)C(=NC(=N2)N3CCN(CC3)C(=O)C4=CC5CCC4C=C5)N)OC

> <PUBCHEM_CACTVS_TPSA>
93.8

> <PUBCHEM_MONOISOTOPIC_WEIGHT>
421.21139

> <PUBCHEM_TOTAL_CHARGE>
0

> <PUBCHEM_HEAVY_ATOM_COUNT>
31

> <PUBCHEM_ATOM_DEF_STEREO_COUNT>
0

> <PUBCHEM_ATOM_UDEF_STEREO_COUNT>
2

> <PUBCHEM_BOND_DEF_STEREO_COUNT>
0

> <PUBCHEM_BOND_UDEF_STEREO_COUNT>
0

> <PUBCHEM_ISOTOPIC_ATOM_COUNT>
0

> <PUBCHEM_COMPONENT_COUNT>
1

> <PUBCHEM_CACTVS_TAUTO_COUNT>
3

> <PUBCHEM_COORDINATE_TYPE>
1
5
255

> <PUBCHEM_BONDANNOTATIONS>
10  12  3
23  24  8
23  26  8
24  25  8
24  27  8
26  28  8
27  29  8
28  29  8
6  22  8
6  23  8
7  22  8
7  25  8
9  11  3

$$$$

