17396541
  -OEChem-06241222573D

 47 48  0     1  0  0  0  0  0999 V2000
   -0.5940   -0.0317    0.0116 O   0  0  0  0  0  0  0  0  0  0  0  0
    0.2439    1.7024    1.2567 O   0  0  0  0  0  0  0  0  0  0  0  0
    6.0893   -1.2057   -0.0305 O   0  0  0  0  0  0  0  0  0  0  0  0
   -1.9216    1.3119   -1.9214 O   0  0  0  0  0  0  0  0  0  0  0  0
    1.8892   -0.9530   -0.5858 N   0  0  0  0  0  0  0  0  0  0  0  0
   -3.1600    2.4861   -0.3556 N   0  0  0  0  0  0  0  0  0  0  0  0
    2.9824    0.6142    0.5458 C   0  0  0  0  0  0  0  0  0  0  0  0
    3.9286   -0.2561   -0.0498 C   0  0  0  0  0  0  0  0  0  0  0  0
    1.7295    0.1599    0.1977 C   0  0  0  0  0  0  0  0  0  0  0  0
    3.2251   -1.2155   -0.7438 C   0  0  0  0  0  0  0  0  0  0  0  0
   -1.9184    0.4100    0.2944 C   0  0  2  0  0  0  0  0  0  0  0  0
    0.4219    0.7097    0.5586 C   0  0  0  0  0  0  0  0  0  0  0  0
   -2.8002   -0.8171    0.3045 C   0  0  0  0  0  0  0  0  0  0  0  0
    3.2855    1.7921    1.3860 C   0  0  0  0  0  0  0  0  0  0  0  0
    3.6818   -2.3656   -1.5482 C   0  0  0  0  0  0  0  0  0  0  0  0
    5.3608   -0.1904    0.0270 C   0  0  0  0  0  0  0  0  0  0  0  0
   -2.3308    1.4362   -0.7618 C   0  0  0  0  0  0  0  0  0  0  0  0
   -3.4089   -1.2485   -0.8741 C   0  0  0  0  0  0  0  0  0  0  0  0
   -3.0059   -1.5183    1.4927 C   0  0  0  0  0  0  0  0  0  0  0  0
    6.0742    1.1517    0.1870 C   0  0  0  0  0  0  0  0  0  0  0  0
   -4.2231   -2.3811   -0.8645 C   0  0  0  0  0  0  0  0  0  0  0  0
   -3.8201   -2.6509    1.5022 C   0  0  0  0  0  0  0  0  0  0  0  0
   -3.7299    2.6530    0.9786 C   0  0  0  0  0  0  0  0  0  0  0  0
   -3.5709    3.4891   -1.3308 C   0  0  0  0  0  0  0  0  0  0  0  0
   -4.4286   -3.0822    0.3238 C   0  0  0  0  0  0  0  0  0  0  0  0
   -1.9456    0.8625    1.2908 H   0  0  0  0  0  0  0  0  0  0  0  0
    1.1354   -1.4958   -0.9851 H   0  0  0  0  0  0  0  0  0  0  0  0
    4.1262    1.5950    2.0571 H   0  0  0  0  0  0  0  0  0  0  0  0
    2.4563    2.0662    2.0423 H   0  0  0  0  0  0  0  0  0  0  0  0
    3.5207    2.6615    0.7647 H   0  0  0  0  0  0  0  0  0  0  0  0
    4.1077   -3.1397   -0.9018 H   0  0  0  0  0  0  0  0  0  0  0  0
    2.8609   -2.8169   -2.1155 H   0  0  0  0  0  0  0  0  0  0  0  0
    4.4480   -2.0567   -2.2668 H   0  0  0  0  0  0  0  0  0  0  0  0
   -3.2648   -0.7441   -1.8232 H   0  0  0  0  0  0  0  0  0  0  0  0
   -2.5358   -1.1935    2.4171 H   0  0  0  0  0  0  0  0  0  0  0  0
    7.0694    1.0783   -0.2633 H   0  0  0  0  0  0  0  0  0  0  0  0
    5.5356    1.9424   -0.3404 H   0  0  0  0  0  0  0  0  0  0  0  0
    6.1869    1.3923    1.2458 H   0  0  0  0  0  0  0  0  0  0  0  0
   -4.6944   -2.7196   -1.7826 H   0  0  0  0  0  0  0  0  0  0  0  0
   -3.9796   -3.1974    2.4272 H   0  0  0  0  0  0  0  0  0  0  0  0
   -4.6998    3.1550    0.9090 H   0  0  0  0  0  0  0  0  0  0  0  0
   -3.8818    1.6920    1.4724 H   0  0  0  0  0  0  0  0  0  0  0  0
   -3.0431    3.2654    1.5693 H   0  0  0  0  0  0  0  0  0  0  0  0
   -3.3458    4.4824   -0.9312 H   0  0  0  0  0  0  0  0  0  0  0  0
   -3.0539    3.3672   -2.2859 H   0  0  0  0  0  0  0  0  0  0  0  0
   -4.6480    3.3950   -1.4982 H   0  0  0  0  0  0  0  0  0  0  0  0
   -5.0617   -3.9647    0.3310 H   0  0  0  0  0  0  0  0  0  0  0  0
  1 11  1  0  0  0  0
  1 12  1  0  0  0  0
  2 12  2  0  0  0  0
  3 16  2  0  0  0  0
  4 17  2  0  0  0  0
  5  9  1  0  0  0  0
  5 10  1  0  0  0  0
  5 27  1  0  0  0  0
  6 17  1  0  0  0  0
  6 23  1  0  0  0  0
  6 24  1  0  0  0  0
  7  8  1  0  0  0  0
  7  9  2  0  0  0  0
  7 14  1  0  0  0  0
  8 10  2  0  0  0  0
  8 16  1  0  0  0  0
  9 12  1  0  0  0  0
 10 15  1  0  0  0  0
 11 13  1  0  0  0  0
 11 17  1  0  0  0  0
 11 26  1  0  0  0  0
 13 18  2  0  0  0  0
 13 19  1  0  0  0  0
 14 28  1  0  0  0  0
 14 29  1  0  0  0  0
 14 30  1  0  0  0  0
 15 31  1  0  0  0  0
 15 32  1  0  0  0  0
 15 33  1  0  0  0  0
 16 20  1  0  0  0  0
 18 21  1  0  0  0  0
 18 34  1  0  0  0  0
 19 22  2  0  0  0  0
 19 35  1  0  0  0  0
 20 36  1  0  0  0  0
 20 37  1  0  0  0  0
 20 38  1  0  0  0  0
 21 25  2  0  0  0  0
 21 39  1  0  0  0  0
 22 25  1  0  0  0  0
 22 40  1  0  0  0  0
 23 41  1  0  0  0  0
 23 42  1  0  0  0  0
 23 43  1  0  0  0  0
 24 44  1  0  0  0  0
 24 45  1  0  0  0  0
 24 46  1  0  0  0  0
 25 47  1  0  0  0  0
M  END
> <PUBCHEM_COMPOUND_CID>
17396541

> <PUBCHEM_CONFORMER_RMSD>
1.2

> <PUBCHEM_CONFORMER_DIVERSEORDER>
1
19
26
16
30
33
25
15
20
44
14
31
12
5
29
45
56
46
50
49
53
34
55
35
18
59
3
24
21
39
6
61
8
41
57
10
60
28
7
42
11
54
17
40
36
37
58
43
27
38
51
32
2
9
48
4
47
13
23
22
52

> <PUBCHEM_MMFF94_PARTIAL_CHARGES>
31
1 -0.43
10 -0.33
11 0.48
12 0.81
13 -0.14
14 0.18
15 0.18
16 0.6
17 0.57
18 -0.15
19 -0.15
2 -0.57
20 0.06
21 -0.15
22 -0.15
23 0.3
24 0.3
25 -0.15
27 0.27
3 -0.57
34 0.15
35 0.15
39 0.15
4 -0.57
40 0.15
47 0.15
5 0.03
6 -0.66
7 -0.18
8 -0.09
9 -0.24

> <PUBCHEM_EFFECTIVE_ROTOR_COUNT>
7

> <PUBCHEM_PHARMACOPHORE_FEATURES>
7
1 2 acceptor
1 3 acceptor
1 4 acceptor
1 5 cation
1 5 donor
5 5 7 8 9 10 rings
6 13 18 19 21 22 25 rings

> <PUBCHEM_HEAVY_ATOM_COUNT>
25

> <PUBCHEM_ATOM_DEF_STEREO_COUNT>
0

> <PUBCHEM_ATOM_UDEF_STEREO_COUNT>
1

> <PUBCHEM_BOND_DEF_STEREO_COUNT>
0

> <PUBCHEM_BOND_UDEF_STEREO_COUNT>
0

> <PUBCHEM_ISOTOPIC_ATOM_COUNT>
0

> <PUBCHEM_COMPONENT_COUNT>
1

> <PUBCHEM_CACTVS_TAUTO_COUNT>
20

> <PUBCHEM_CONFORMER_ID>
0109733D00000001

> <PUBCHEM_MMFF94_ENERGY>
56.2767

> <PUBCHEM_FEATURE_SELFOVERLAP>
35.52

> <PUBCHEM_SHAPE_FINGERPRINT>
10675989 125 17327743306031992805
11101153 10 18057596565197619076
11370993 144 18041546044651988851
11405975 8 18337954601181138784
11545043 162 18408046217126333664
11796584 16 18197782305274913194
11809386 21 18272377485432744426
12549972 3 17749969837421223097
12616971 3 16917055699089695916
12788726 201 18272103703549075547
13544653 18 18335696083864723867
13583140 156 18040158417764337948
14508225 48 18270691844661870477
14849402 71 16444475555965040360
15131766 46 16157106041035286769
15361156 5 18339918217242215191
15420108 30 12668018361992638182
15463212 79 17774166845669563937
17357779 13 18268441144122370935
17844677 252 18336261267649577432
1813 80 18197483040400899631
20645477 70 17532374356112422798
21065201 7 18342186578513246936
221490 88 18260828202931344232
22393880 68 18340490070879527938
23557571 272 18413393141587093892
23559900 14 18338528434555729953
329604 57 18340484465957444404
3729539 64 17403446872480718911
4015057 19 17895771714746543281
4073 2 18410855486509966890
44062 13 18340482391050760902
4921388 177 18272087231779711533
5104073 3 18335424586645350528
7399639 24 18046358439385115768
7495541 125 18334858269511428056
81228 2 18272938194183116737
9709674 26 18261958543285770845

> <PUBCHEM_SHAPE_MULTIPOLES>
481.05
12.74
3.6
1.42
13.91
0.91
-0.09
-3.76
0.01
-5.9
-0.46
-0.84
0.06
2.48

> <PUBCHEM_SHAPE_SELFOVERLAP>
1016.919

> <PUBCHEM_SHAPE_VOLUME>
270.4

> <PUBCHEM_COORDINATE_TYPE>
2
5
10

$$$$

