14344
  -OEChem-06241222432D

 30 31  0     0  0  0  0  0  0999 V2000
    3.7320   -0.5173    0.0000 O   0  0  0  0  0  0  0  0  0  0  0  0
    2.0000   -0.5173    0.0000 O   0  0  0  0  0  0  0  0  0  0  0  0
    2.8660   -2.0173    0.0000 N   0  0  0  0  0  0  0  0  0  0  0  0
    6.3981    0.9619    0.0000 C   0  0  0  0  0  0  0  0  0  0  0  0
    6.3981    2.0035    0.0000 C   0  0  0  0  0  0  0  0  0  0  0  0
    5.4920    0.4480    0.0000 C   0  0  0  0  0  0  0  0  0  0  0  0
    5.4920    2.5173    0.0000 C   0  0  0  0  0  0  0  0  0  0  0  0
    4.5981    0.9827    0.0000 C   0  0  0  0  0  0  0  0  0  0  0  0
    4.5981    1.9827    0.0000 C   0  0  0  0  0  0  0  0  0  0  0  0
    3.7320    0.4827    0.0000 C   0  0  0  0  0  0  0  0  0  0  0  0
    3.7320    2.4827    0.0000 C   0  0  0  0  0  0  0  0  0  0  0  0
    2.8660    0.9827    0.0000 C   0  0  0  0  0  0  0  0  0  0  0  0
    2.8660    1.9827    0.0000 C   0  0  0  0  0  0  0  0  0  0  0  0
    2.8660   -1.0173    0.0000 C   0  0  0  0  0  0  0  0  0  0  0  0
    2.0000   -2.5173    0.0000 C   0  0  0  0  0  0  0  0  0  0  0  0
    6.6071    0.3782    0.0000 H   0  0  0  0  0  0  0  0  0  0  0  0
    7.0089    1.0680    0.0000 H   0  0  0  0  0  0  0  0  0  0  0  0
    7.0089    1.8974    0.0000 H   0  0  0  0  0  0  0  0  0  0  0  0
    6.6071    2.5872    0.0000 H   0  0  0  0  0  0  0  0  0  0  0  0
    5.0874   -0.0218    0.0000 H   0  0  0  0  0  0  0  0  0  0  0  0
    5.8856   -0.0310    0.0000 H   0  0  0  0  0  0  0  0  0  0  0  0
    5.8856    2.9964    0.0000 H   0  0  0  0  0  0  0  0  0  0  0  0
    5.0874    2.9871    0.0000 H   0  0  0  0  0  0  0  0  0  0  0  0
    3.7320    3.1027    0.0000 H   0  0  0  0  0  0  0  0  0  0  0  0
    2.3291    0.6727    0.0000 H   0  0  0  0  0  0  0  0  0  0  0  0
    2.3291    2.2927    0.0000 H   0  0  0  0  0  0  0  0  0  0  0  0
    3.4030   -2.3273    0.0000 H   0  0  0  0  0  0  0  0  0  0  0  0
    1.6900   -1.9804    0.0000 H   0  0  0  0  0  0  0  0  0  0  0  0
    1.4631   -2.8273    0.0000 H   0  0  0  0  0  0  0  0  0  0  0  0
    2.3100   -3.0543    0.0000 H   0  0  0  0  0  0  0  0  0  0  0  0
  1 10  1  0  0  0  0
  1 14  1  0  0  0  0
  2 14  2  0  0  0  0
  3 14  1  0  0  0  0
  3 15  1  0  0  0  0
  3 27  1  0  0  0  0
  4  5  1  0  0  0  0
  4  6  1  0  0  0  0
  4 16  1  0  0  0  0
  4 17  1  0  0  0  0
  5  7  1  0  0  0  0
  5 18  1  0  0  0  0
  5 19  1  0  0  0  0
  6  8  1  0  0  0  0
  6 20  1  0  0  0  0
  6 21  1  0  0  0  0
  7  9  1  0  0  0  0
  7 22  1  0  0  0  0
  7 23  1  0  0  0  0
  8  9  2  0  0  0  0
  8 10  1  0  0  0  0
  9 11  1  0  0  0  0
 10 12  2  0  0  0  0
 11 13  2  0  0  0  0
 11 24  1  0  0  0  0
 12 13  1  0  0  0  0
 12 25  1  0  0  0  0
 13 26  1  0  0  0  0
 15 28  1  0  0  0  0
 15 29  1  0  0  0  0
 15 30  1  0  0  0  0
M  END
> <PUBCHEM_COMPOUND_CID>
14344

> <PUBCHEM_COMPOUND_CANONICALIZED>
1

> <PUBCHEM_CACTVS_COMPLEXITY>
230

> <PUBCHEM_CACTVS_HBOND_ACCEPTOR>
2

> <PUBCHEM_CACTVS_HBOND_DONOR>
1

> <PUBCHEM_CACTVS_ROTATABLE_BOND>
2

> <PUBCHEM_CACTVS_SUBSKEYS>
AAADccByMAAAAAAAAAAAAAAAAAAAAAAAAAAwYAAAAAAAAADBAAAAHgAQAAAADASAmAQyDoLABACIAiBCGAACCAAgIAAIiIAOCIkMJiKEMRqIMiAkwhEIqAeAwLAOgAABAAAYAAAAAAIAADAAAAAAAAAAAA==

> <PUBCHEM_IUPAC_OPENEYE_NAME>
tetralin-5-yl N-methylcarbamate

> <PUBCHEM_IUPAC_CAS_NAME>
N-methylcarbamic acid 5,6,7,8-tetrahydronaphthalen-1-yl ester

> <PUBCHEM_IUPAC_NAME>
5,6,7,8-tetrahydronaphthalen-1-yl N-methylcarbamate

> <PUBCHEM_IUPAC_SYSTEMATIC_NAME>
5,6,7,8-tetrahydronaphthalen-1-yl N-methylcarbamate

> <PUBCHEM_IUPAC_TRADITIONAL_NAME>
N-methylcarbamic acid tetralin-5-yl ester

> <PUBCHEM_IUPAC_INCHI>
InChI=1S/C12H15NO2/c1-13-12(14)15-11-8-4-6-9-5-2-3-7-10(9)11/h4,6,8H,2-3,5,7H2,1H3,(H,13,14)

> <PUBCHEM_IUPAC_INCHIKEY>
FDHRBCMXYSGNPA-UHFFFAOYSA-N

> <PUBCHEM_XLOGP3_AA>
2.9

> <PUBCHEM_EXACT_MASS>
205.110279

> <PUBCHEM_MOLECULAR_FORMULA>
C12H15NO2

> <PUBCHEM_MOLECULAR_WEIGHT>
205.253

> <PUBCHEM_OPENEYE_CAN_SMILES>
CNC(=O)OC1=CC=CC2=C1CCCC2

> <PUBCHEM_OPENEYE_ISO_SMILES>
CNC(=O)OC1=CC=CC2=C1CCCC2

> <PUBCHEM_CACTVS_TPSA>
38.3

> <PUBCHEM_MONOISOTOPIC_WEIGHT>
205.110279

> <PUBCHEM_TOTAL_CHARGE>
0

> <PUBCHEM_HEAVY_ATOM_COUNT>
15

> <PUBCHEM_ATOM_DEF_STEREO_COUNT>
0

> <PUBCHEM_ATOM_UDEF_STEREO_COUNT>
0

> <PUBCHEM_BOND_DEF_STEREO_COUNT>
0

> <PUBCHEM_BOND_UDEF_STEREO_COUNT>
0

> <PUBCHEM_ISOTOPIC_ATOM_COUNT>
0

> <PUBCHEM_COMPONENT_COUNT>
1

> <PUBCHEM_CACTVS_TAUTO_COUNT>
2

> <PUBCHEM_COORDINATE_TYPE>
1
5
255

> <PUBCHEM_BONDANNOTATIONS>
10  12  8
11  13  8
12  13  8
8  10  8
8  9  8
9  11  8

$$$$

