5318880
  -OEChem-07051213103D

 65 66  0     1  0  0  0  0  0999 V2000
    4.3239    4.3686   -0.4003 O   0  0  0  0  0  0  0  0  0  0  0  0
    0.0632    0.4092   -0.1632 O   0  0  0  0  0  0  0  0  0  0  0  0
    2.8608   -3.0319    1.6364 O   0  0  0  0  0  0  0  0  0  0  0  0
   -1.1922   -4.1978   -0.5594 O   0  0  0  0  0  0  0  0  0  0  0  0
   -2.0029   -1.8613   -2.2439 O   0  0  0  0  0  0  0  0  0  0  0  0
   -3.2879    2.4506   -0.0524 O   0  0  0  0  0  0  0  0  0  0  0  0
   -7.8058    3.1545    1.2754 O   0  0  0  0  0  0  0  0  0  0  0  0
    3.5476    0.1089    0.1837 C   0  0  2  0  0  0  0  0  0  0  0  0
    4.0678    1.5431    0.4499 C   0  0  0  0  0  0  0  0  0  0  0  0
    4.9944    2.0664   -0.6612 C   0  0  0  0  0  0  0  0  0  0  0  0
    5.4719    3.5198   -0.4603 C   0  0  0  0  0  0  0  0  0  0  0  0
    2.4506   -0.2429    1.2189 C   0  0  0  0  0  0  0  0  0  0  0  0
    4.6637   -0.9319    0.1459 C   0  0  0  0  0  0  0  0  0  0  0  0
    1.4743   -1.2922    0.7412 C   0  0  0  0  0  0  0  0  0  0  0  0
    6.3147    3.9542   -1.6641 C   0  0  0  0  0  0  0  0  0  0  0  0
    6.2747    3.6966    0.8305 C   0  0  0  0  0  0  0  0  0  0  0  0
    5.4818   -1.1584    1.3877 C   0  0  0  0  0  0  0  0  0  0  0  0
    0.3148   -0.9126    0.0652 C   0  0  0  0  0  0  0  0  0  0  0  0
    1.7334   -2.6422    0.9776 C   0  0  0  0  0  0  0  0  0  0  0  0
    4.9145   -1.6319   -0.9732 C   0  0  0  0  0  0  0  0  0  0  0  0
   -0.5856   -1.8831   -0.3744 C   0  0  0  0  0  0  0  0  0  0  0  0
    0.8333   -3.6127    0.5381 C   0  0  0  0  0  0  0  0  0  0  0  0
   -0.3263   -3.2331   -0.1380 C   0  0  0  0  0  0  0  0  0  0  0  0
   -1.7986   -1.4878   -1.0812 C   0  0  0  0  0  0  0  0  0  0  0  0
   -2.7772   -0.5929   -0.3781 C   0  0  0  0  0  0  0  0  0  0  0  0
   -0.8438   -5.5505   -0.2728 C   0  0  0  0  0  0  0  0  0  0  0  0
   -3.8922   -0.1824   -1.0002 C   0  0  0  0  0  0  0  0  0  0  0  0
   -4.9036    0.7061   -0.4014 C   0  0  0  0  0  0  0  0  0  0  0  0
   -4.5648    1.9828    0.0471 C   0  0  0  0  0  0  0  0  0  0  0  0
   -6.2176    0.2523   -0.2866 C   0  0  0  0  0  0  0  0  0  0  0  0
   -5.5400    2.8057    0.6106 C   0  0  0  0  0  0  0  0  0  0  0  0
   -7.1928    1.0753    0.2769 C   0  0  0  0  0  0  0  0  0  0  0  0
   -6.8541    2.3519    0.7255 C   0  0  0  0  0  0  0  0  0  0  0  0
    3.0670    0.1416   -0.8053 H   0  0  0  0  0  0  0  0  0  0  0  0
    3.2077    2.2200    0.5285 H   0  0  0  0  0  0  0  0  0  0  0  0
    4.5772    1.5748    1.4192 H   0  0  0  0  0  0  0  0  0  0  0  0
    5.8700    1.4125   -0.7520 H   0  0  0  0  0  0  0  0  0  0  0  0
    4.4448    2.0028   -1.6097 H   0  0  0  0  0  0  0  0  0  0  0  0
    1.8918    0.6568    1.5082 H   0  0  0  0  0  0  0  0  0  0  0  0
    2.8900   -0.5577    2.1733 H   0  0  0  0  0  0  0  0  0  0  0  0
    6.6258    5.0008   -1.5684 H   0  0  0  0  0  0  0  0  0  0  0  0
    7.2116    3.3355   -1.7724 H   0  0  0  0  0  0  0  0  0  0  0  0
    5.7330    3.8900   -2.5908 H   0  0  0  0  0  0  0  0  0  0  0  0
    5.6483    3.5494    1.7164 H   0  0  0  0  0  0  0  0  0  0  0  0
    7.1210    3.0036    0.8762 H   0  0  0  0  0  0  0  0  0  0  0  0
    6.6643    4.7185    0.9082 H   0  0  0  0  0  0  0  0  0  0  0  0
    6.2251   -1.9509    1.2446 H   0  0  0  0  0  0  0  0  0  0  0  0
    4.8660   -1.4510    2.2404 H   0  0  0  0  0  0  0  0  0  0  0  0
    6.0305   -0.2500    1.6550 H   0  0  0  0  0  0  0  0  0  0  0  0
    4.6317    5.2830   -0.2791 H   0  0  0  0  0  0  0  0  0  0  0  0
    4.3342   -1.4806   -1.8773 H   0  0  0  0  0  0  0  0  0  0  0  0
    5.7053   -2.3736   -1.0119 H   0  0  0  0  0  0  0  0  0  0  0  0
    1.0884   -4.6453    0.7506 H   0  0  0  0  0  0  0  0  0  0  0  0
    0.8928    0.9102   -0.2046 H   0  0  0  0  0  0  0  0  0  0  0  0
    2.8759   -4.0018    1.7034 H   0  0  0  0  0  0  0  0  0  0  0  0
   -2.5517   -0.2949    0.6408 H   0  0  0  0  0  0  0  0  0  0  0  0
    0.0804   -5.8469   -0.7806 H   0  0  0  0  0  0  0  0  0  0  0  0
   -0.8099   -5.7402    0.8055 H   0  0  0  0  0  0  0  0  0  0  0  0
   -1.6425   -6.1803   -0.6787 H   0  0  0  0  0  0  0  0  0  0  0  0
   -4.1222   -0.5109   -2.0106 H   0  0  0  0  0  0  0  0  0  0  0  0
   -6.4980   -0.7403   -0.6309 H   0  0  0  0  0  0  0  0  0  0  0  0
   -5.2779    3.8011    0.9611 H   0  0  0  0  0  0  0  0  0  0  0  0
   -8.2146    0.7163    0.3640 H   0  0  0  0  0  0  0  0  0  0  0  0
   -3.2484    3.3515    0.3118 H   0  0  0  0  0  0  0  0  0  0  0  0
   -7.3973    3.9997    1.5301 H   0  0  0  0  0  0  0  0  0  0  0  0
  1 11  1  0  0  0  0
  1 50  1  0  0  0  0
  2 18  1  0  0  0  0
  2 54  1  0  0  0  0
  3 19  1  0  0  0  0
  3 55  1  0  0  0  0
  4 23  1  0  0  0  0
  4 26  1  0  0  0  0
  5 24  2  0  0  0  0
  6 29  1  0  0  0  0
  6 64  1  0  0  0  0
  7 33  1  0  0  0  0
  7 65  1  0  0  0  0
  8  9  1  0  0  0  0
  8 12  1  0  0  0  0
  8 13  1  0  0  0  0
  8 34  1  0  0  0  0
  9 10  1  0  0  0  0
  9 35  1  0  0  0  0
  9 36  1  0  0  0  0
 10 11  1  0  0  0  0
 10 37  1  0  0  0  0
 10 38  1  0  0  0  0
 11 15  1  0  0  0  0
 11 16  1  0  0  0  0
 12 14  1  0  0  0  0
 12 39  1  0  0  0  0
 12 40  1  0  0  0  0
 13 17  1  0  0  0  0
 13 20  2  0  0  0  0
 14 18  2  0  0  0  0
 14 19  1  0  0  0  0
 15 41  1  0  0  0  0
 15 42  1  0  0  0  0
 15 43  1  0  0  0  0
 16 44  1  0  0  0  0
 16 45  1  0  0  0  0
 16 46  1  0  0  0  0
 17 47  1  0  0  0  0
 17 48  1  0  0  0  0
 17 49  1  0  0  0  0
 18 21  1  0  0  0  0
 19 22  2  0  0  0  0
 20 51  1  0  0  0  0
 20 52  1  0  0  0  0
 21 23  2  0  0  0  0
 21 24  1  0  0  0  0
 22 23  1  0  0  0  0
 22 53  1  0  0  0  0
 24 25  1  0  0  0  0
 25 27  2  0  0  0  0
 25 56  1  0  0  0  0
 26 57  1  0  0  0  0
 26 58  1  0  0  0  0
 26 59  1  0  0  0  0
 27 28  1  0  0  0  0
 27 60  1  0  0  0  0
 28 29  2  0  0  0  0
 28 30  1  0  0  0  0
 29 31  1  0  0  0  0
 30 32  2  0  0  0  0
 30 61  1  0  0  0  0
 31 33  2  0  0  0  0
 31 62  1  0  0  0  0
 32 33  1  0  0  0  0
 32 63  1  0  0  0  0
M  END
> <PUBCHEM_COMPOUND_CID>
5318880

> <PUBCHEM_CONFORMER_RMSD>
1.2

> <PUBCHEM_CONFORMER_DIVERSEORDER>
3
84
26
27
72
38
34
10
36
12
30
116
62
96
73
41
49
89
28
58
54
82
31
40
1
53
52
61
103
119
112
115
104
23
11
74
111
91
106
44
108
15
68
102
20
43
66
71
110
42
118
47
13
75
57
121
94
48
32
37
8
87
5
17
77
85
46
50
100
19
69
55
80
78
93
2
79
64
63
76
16
95
4
33
113
59
25
7
105
22
24
51
120
56
18
14
6
92
117
39
45
86
60
98
99
90
65
21
97
70
29
88
67
35
114
83
81
107
9
101
109

> <PUBCHEM_MMFF94_PARTIAL_CHARGES>
42
1 -0.68
11 0.28
12 0.14
13 -0.28
14 -0.14
17 0.14
18 0.08
19 0.08
2 -0.53
20 -0.3
21 0.09
22 -0.15
23 0.08
24 0.47
25 -0.14
26 0.28
27 -0.18
28 0.03
29 0.08
3 -0.53
30 -0.15
31 -0.15
32 -0.15
33 0.08
4 -0.36
5 -0.57
50 0.4
51 0.15
52 0.15
53 0.15
54 0.45
55 0.45
56 0.15
6 -0.53
60 0.15
61 0.15
62 0.15
63 0.15
64 0.45
65 0.45
7 -0.53
8 0.14

> <PUBCHEM_EFFECTIVE_ROTOR_COUNT>
10

> <PUBCHEM_PHARMACOPHORE_FEATURES>
12
1 1 acceptor
1 1 donor
1 2 donor
1 3 donor
1 4 acceptor
1 5 acceptor
1 6 donor
1 7 donor
3 11 15 16 hydrophobe
5 8 9 10 12 13 hydrophobe
6 14 18 19 21 22 23 rings
6 28 29 30 31 32 33 rings

> <PUBCHEM_HEAVY_ATOM_COUNT>
33

> <PUBCHEM_ATOM_DEF_STEREO_COUNT>
0

> <PUBCHEM_ATOM_UDEF_STEREO_COUNT>
1

> <PUBCHEM_BOND_DEF_STEREO_COUNT>
1

> <PUBCHEM_BOND_UDEF_STEREO_COUNT>
0

> <PUBCHEM_ISOTOPIC_ATOM_COUNT>
0

> <PUBCHEM_COMPONENT_COUNT>
1

> <PUBCHEM_CACTVS_TAUTO_COUNT>
171

> <PUBCHEM_CONFORMER_ID>
005128E000000003

> <PUBCHEM_MMFF94_ENERGY>
107.2291

> <PUBCHEM_FEATURE_SELFOVERLAP>
60.893

> <PUBCHEM_SHAPE_FINGERPRINT>
10673678 19 18409442618078437977
10675989 125 18410292536693708600
11479125 193 18412539886214894496
11505856 67 18191314775700465087
1200032 147 17988922224768577272
12107183 9 18270136668778674578
13885169 86 18412544288645899869
14251764 75 18341049627581951588
14747281 78 18264750169708819622
14790565 3 18410857676352411653
14849402 71 18268148836879807370
15001296 14 18413110584352133353
15064981 194 18197201565197199668
15357212 105 18198888250309914140
15513586 35 16410407093025014428
15840311 113 18412542141552720389
16112460 7 18409727361499582120
16126227 98 18337952269003762953
16728433 281 17697307427484322292
17899979 129 18410285901190743844
19302320 297 18341050817377583328
19309040 13 18188208689806409284
20691028 202 18409451345215152144
21133410 62 18336252462972071961
21458453 9 17917979578069668329
22122407 14 18340759433832082833
23569914 152 9005945142678517401
27425 322 18408322172590606110
3103668 31 15453106909049545975
3178227 256 18200034070533213786
3610482 184 18187649050850688941
38570 142 18410566288754725388
439807 62 9798533734563784841
44880568 143 17906158565974054348
5104073 3 17845664651013531218
5219985 13 18407761434750569733
5951187 136 18335411375415683710
6058803 2 18196679331640389162
613672 6 7132425852644860518
7288768 16 17917152671999822450
7808743 9 18267592307996834922

> <PUBCHEM_SHAPE_MULTIPOLES>
638.04
18.84
6.69
1.28
15.32
1.95
-0.16
-28.45
1.87
-4.7
-0.31
-0.67
0.08
-3.85

> <PUBCHEM_SHAPE_SELFOVERLAP>
1339.488

> <PUBCHEM_SHAPE_VOLUME>
360.4

> <PUBCHEM_COORDINATE_TYPE>
2
5
10

$$$$

