9697
  -OEChem-06261203573D

 16 16  0     0  0  0  0  0  0999 V2000
    1.8068    2.3929    0.0004 F   0  0  0  0  0  0  0  0  0  0  0  0
    2.3406   -2.3073   -0.0001 F   0  0  0  0  0  0  0  0  0  0  0  0
   -2.5366   -1.6362    0.0005 O   0  5  0  0  0  0  0  0  0  0  0  0
   -2.8344    0.5388    0.0002 O   0  0  0  0  0  0  0  0  0  0  0  0
   -2.0862   -0.4666    0.0000 N   0  3  0  0  0  0  0  0  0  0  0  0
   -0.9463    2.1554   -0.0002 N   0  0  0  0  0  0  0  0  0  0  0  0
   -0.6762   -0.2736   -0.0005 C   0  0  0  0  0  0  0  0  0  0  0  0
   -0.1227    1.0067   -0.0004 C   0  0  0  0  0  0  0  0  0  0  0  0
    0.1558   -1.3932   -0.0003 C   0  0  0  0  0  0  0  0  0  0  0  0
    1.2629    1.1675    0.0000 C   0  0  0  0  0  0  0  0  0  0  0  0
    1.5414   -1.2323    0.0001 C   0  0  0  0  0  0  0  0  0  0  0  0
    2.0949    0.0480    0.0003 C   0  0  0  0  0  0  0  0  0  0  0  0
   -0.2349   -2.4075   -0.0003 H   0  0  0  0  0  0  0  0  0  0  0  0
    3.1736    0.1730    0.0005 H   0  0  0  0  0  0  0  0  0  0  0  0
   -0.5122    3.0697   -0.0006 H   0  0  0  0  0  0  0  0  0  0  0  0
   -1.9529    2.0947   -0.0021 H   0  0  0  0  0  0  0  0  0  0  0  0
  1 10  1  0  0  0  0
  2 11  1  0  0  0  0
  3  5  1  0  0  0  0
  4  5  2  0  0  0  0
  5  7  1  0  0  0  0
  6  8  1  0  0  0  0
  6 15  1  0  0  0  0
  6 16  1  0  0  0  0
  7  8  2  0  0  0  0
  7  9  1  0  0  0  0
  8 10  1  0  0  0  0
  9 11  2  0  0  0  0
  9 13  1  0  0  0  0
 10 12  2  0  0  0  0
 11 12  1  0  0  0  0
 12 14  1  0  0  0  0
M  CHG  2   3  -1   5   1
M  END
> <PUBCHEM_COMPOUND_CID>
9697

> <PUBCHEM_CONFORMER_RMSD>
0.4

> <PUBCHEM_CONFORMER_DIVERSEORDER>
1

> <PUBCHEM_MMFF94_PARTIAL_CHARGES>
16
1 -0.19
10 0.19
11 0.19
12 -0.15
13 0.15
14 0.15
15 0.4
16 0.4
2 -0.19
3 -0.52
4 -0.52
5 0.91
6 -0.9
7 0.13
8 0.1
9 -0.15

> <PUBCHEM_EFFECTIVE_ROTOR_COUNT>
1

> <PUBCHEM_PHARMACOPHORE_FEATURES>
6
1 3 acceptor
1 3 anion
1 4 acceptor
1 6 cation
1 6 donor
6 7 8 9 10 11 12 rings

> <PUBCHEM_HEAVY_ATOM_COUNT>
12

> <PUBCHEM_ATOM_DEF_STEREO_COUNT>
0

> <PUBCHEM_ATOM_UDEF_STEREO_COUNT>
0

> <PUBCHEM_BOND_DEF_STEREO_COUNT>
0

> <PUBCHEM_BOND_UDEF_STEREO_COUNT>
0

> <PUBCHEM_ISOTOPIC_ATOM_COUNT>
0

> <PUBCHEM_COMPONENT_COUNT>
1

> <PUBCHEM_CACTVS_TAUTO_COUNT>
1

> <PUBCHEM_CONFORMER_ID>
000025E100000001

> <PUBCHEM_MMFF94_ENERGY>
44.2247

> <PUBCHEM_FEATURE_SELFOVERLAP>
30.527

> <PUBCHEM_SHAPE_FINGERPRINT>
12423570 1 14600570095311961782
161256 15 18411416219706485932
16945 1 18410855477344993220
17990270 104 18411703175003573922
193761 8 18338517542333920864
19973954 147 18410855468950230969
20871998 184 17756154740577698550
21040471 1 17834395622937868804
23552423 10 18341327820923677079
23559900 14 17686622751299940710
241688 4 18123469655241464552
2748010 2 17979068284909964086

> <PUBCHEM_SHAPE_MULTIPOLES>
210.71
3.37
2.41
0.56
1.39
0.41
0
-0.84
0
-0.83
0
-0.03
0
0

> <PUBCHEM_SHAPE_SELFOVERLAP>
449.653

> <PUBCHEM_SHAPE_VOLUME>
117.6

> <PUBCHEM_COORDINATE_TYPE>
2
5
10

$$$$

