441099
  -OEChem-07051212523D

 56 58  0     1  0  0  0  0  0999 V2000
   -0.2967   -3.5473   -0.8593 P   0  0  2  0  0  0  0  0  0  0  0  0
   -2.5781   -1.7537   -1.3439 P   0  0  2  0  0  0  0  0  0  0  0  0
    3.2459   -1.3639    0.2646 O   0  0  0  0  0  0  0  0  0  0  0  0
    4.0739   -1.6377    3.1991 O   0  0  0  0  0  0  0  0  0  0  0  0
    1.1503   -3.1500   -0.2565 O   0  0  0  0  0  0  0  0  0  0  0  0
   -1.0513   -2.1215   -0.9604 O   0  0  0  0  0  0  0  0  0  0  0  0
   -1.6315    0.7451    1.1330 O   0  0  0  0  0  0  0  0  0  0  0  0
    4.5745    2.5478    0.2483 O   0  0  0  0  0  0  0  0  0  0  0  0
   -2.8558   -0.3438   -0.5996 O   0  0  0  0  0  0  0  0  0  0  0  0
   -1.0486   -4.2699    0.3772 O   0  0  0  0  0  0  0  0  0  0  0  0
   -0.2765   -4.3351   -2.1366 O   0  0  0  0  0  0  0  0  0  0  0  0
    1.4026    3.4624   -2.9533 O   0  0  0  0  0  0  0  0  0  0  0  0
   -3.4418   -2.8314   -0.5012 O   0  0  0  0  0  0  0  0  0  0  0  0
   -2.8591   -1.7522   -2.8187 O   0  0  0  0  0  0  0  0  0  0  0  0
   -5.5242    1.8966    1.2809 O   0  0  0  0  0  0  0  0  0  0  0  0
   -3.5635    3.7196    1.3091 O   0  0  0  0  0  0  0  0  0  0  0  0
    2.9724    0.9117   -0.2066 N   0  0  0  0  0  0  0  0  0  0  0  0
    2.9861    2.9911   -1.3456 N   0  0  0  0  0  0  0  0  0  0  0  0
    2.8149   -1.3472    2.5958 C   0  0  2  0  0  0  0  0  0  0  0  0
    2.6558   -2.1541    1.3148 C   0  0  1  0  0  0  0  0  0  0  0  0
    2.8036    0.0817    2.1039 C   0  0  0  0  0  0  0  0  0  0  0  0
    3.4778   -0.0326    0.7464 C   0  0  1  0  0  0  0  0  0  0  0  0
    1.1985   -2.4049    0.9494 C   0  0  0  0  0  0  0  0  0  0  0  0
    1.8584    0.5616   -0.9588 C   0  0  0  0  0  0  0  0  0  0  0  0
    3.5849    2.1709   -0.3830 C   0  0  0  0  0  0  0  0  0  0  0  0
    1.2879    1.3489   -1.8791 C   0  0  0  0  0  0  0  0  0  0  0  0
    1.8772    2.6924   -2.1227 C   0  0  0  0  0  0  0  0  0  0  0  0
   -2.6262   -0.2204    0.8004 C   0  0  2  0  0  0  0  0  0  0  0  0
    0.0883    0.9524   -2.6782 C   0  0  0  0  0  0  0  0  0  0  0  0
   -3.9304    0.0997    1.5140 C   0  0  0  0  0  0  0  0  0  0  0  0
   -1.9223    2.0468    0.6500 C   0  0  1  0  0  0  0  0  0  0  0  0
   -4.3619    1.5187    1.2729 C   0  0  0  0  0  0  0  0  0  0  0  0
   -3.2741    2.5476    1.1162 C   0  0  0  0  0  0  0  0  0  0  0  0
   -0.8109    2.9704    1.1279 C   0  0  0  0  0  0  0  0  0  0  0  0
    2.0386   -1.5444    3.3410 H   0  0  0  0  0  0  0  0  0  0  0  0
    3.2035   -3.1025    1.3453 H   0  0  0  0  0  0  0  0  0  0  0  0
    3.3337    0.7809    2.7582 H   0  0  0  0  0  0  0  0  0  0  0  0
    1.7687    0.4307    2.0029 H   0  0  0  0  0  0  0  0  0  0  0  0
    4.5621    0.0917    0.8519 H   0  0  0  0  0  0  0  0  0  0  0  0
    0.6318   -1.4776    0.8394 H   0  0  0  0  0  0  0  0  0  0  0  0
    0.7334   -2.9914    1.7479 H   0  0  0  0  0  0  0  0  0  0  0  0
    4.0620   -2.5748    3.4585 H   0  0  0  0  0  0  0  0  0  0  0  0
    1.4282   -0.4128   -0.7937 H   0  0  0  0  0  0  0  0  0  0  0  0
    3.4104    3.9032   -1.4900 H   0  0  0  0  0  0  0  0  0  0  0  0
   -2.2594   -1.1772    1.1874 H   0  0  0  0  0  0  0  0  0  0  0  0
   -4.7289   -0.5678    1.1739 H   0  0  0  0  0  0  0  0  0  0  0  0
   -3.8028   -0.0070    2.5970 H   0  0  0  0  0  0  0  0  0  0  0  0
   -1.9292    2.0358   -0.4452 H   0  0  0  0  0  0  0  0  0  0  0  0
   -0.7417    1.6414   -2.4961 H   0  0  0  0  0  0  0  0  0  0  0  0
   -0.2518   -0.0568   -2.4336 H   0  0  0  0  0  0  0  0  0  0  0  0
    0.3218    0.9692   -3.7479 H   0  0  0  0  0  0  0  0  0  0  0  0
   -0.8014    3.0346    2.2220 H   0  0  0  0  0  0  0  0  0  0  0  0
    0.1691    2.5883    0.8257 H   0  0  0  0  0  0  0  0  0  0  0  0
   -0.9301    3.9825    0.7285 H   0  0  0  0  0  0  0  0  0  0  0  0
   -1.2115   -3.7708    1.2052 H   0  0  0  0  0  0  0  0  0  0  0  0
   -3.5255   -3.7457   -0.8462 H   0  0  0  0  0  0  0  0  0  0  0  0
  1  5  1  0  0  0  0
  1  6  1  0  0  0  0
  1 10  1  0  0  0  0
  1 11  2  0  0  0  0
  2  6  1  0  0  0  0
  2  9  1  0  0  0  0
  2 13  1  0  0  0  0
  2 14  2  0  0  0  0
  3 20  1  0  0  0  0
  3 22  1  0  0  0  0
  4 19  1  0  0  0  0
  4 42  1  0  0  0  0
  5 23  1  0  0  0  0
  7 28  1  0  0  0  0
  7 31  1  0  0  0  0
  8 25  2  0  0  0  0
  9 28  1  0  0  0  0
 10 55  1  0  0  0  0
 12 27  2  0  0  0  0
 13 56  1  0  0  0  0
 15 32  2  0  0  0  0
 16 33  2  0  0  0  0
 17 22  1  0  0  0  0
 17 24  1  0  0  0  0
 17 25  1  0  0  0  0
 18 25  1  0  0  0  0
 18 27  1  0  0  0  0
 18 44  1  0  0  0  0
 19 20  1  0  0  0  0
 19 21  1  0  0  0  0
 19 35  1  0  0  0  0
 20 23  1  0  0  0  0
 20 36  1  0  0  0  0
 21 22  1  0  0  0  0
 21 37  1  0  0  0  0
 21 38  1  0  0  0  0
 22 39  1  0  0  0  0
 23 40  1  0  0  0  0
 23 41  1  0  0  0  0
 24 26  2  0  0  0  0
 24 43  1  0  0  0  0
 26 27  1  0  0  0  0
 26 29  1  0  0  0  0
 28 30  1  0  0  0  0
 28 45  1  0  0  0  0
 29 49  1  0  0  0  0
 29 50  1  0  0  0  0
 29 51  1  0  0  0  0
 30 32  1  0  0  0  0
 30 46  1  0  0  0  0
 30 47  1  0  0  0  0
 31 33  1  0  0  0  0
 31 34  1  0  0  0  0
 31 48  1  0  0  0  0
 32 33  1  0  0  0  0
 34 52  1  0  0  0  0
 34 53  1  0  0  0  0
 34 54  1  0  0  0  0
M  END
> <PUBCHEM_COMPOUND_CID>
441099

> <PUBCHEM_CONFORMER_RMSD>
1.6

> <PUBCHEM_CONFORMER_DIVERSEORDER>
1
8
101
25
82
119
69
15
44
95
89
38
73
105
30
2
20
60
78
107
55
62
32
34
108
9
61
114
58
92
63
97
52
117
33
104
18
109
91
76
93
96
40
27
6
98
23
67
103
17
75
79
36
21
50
84
49
68
111
100
26
87
28
3
22
118
39
115
64
42
81
66
90
102
94
80
48
74
24
71
56
113
77
43
45
99
88
47
65
35
46
57
106
31
37
19
14
70
116
4
110
12
83
11
29
51
54
85
86
41
53
112
7
10
16
72
59
13
5

> <PUBCHEM_MMFF94_PARTIAL_CHARGES>
37
1 1.51
10 -0.77
11 -0.7
12 -0.57
13 -0.77
14 -0.7
15 -0.57
16 -0.57
17 -0.47
18 -0.49
19 0.28
2 1.51
20 0.28
22 0.58
23 0.28
24 -0.04
25 0.69
26 -0.12
27 0.62
28 0.56
29 0.14
3 -0.56
30 0.06
31 0.34
32 0.51
33 0.51
4 -0.68
42 0.4
43 0.15
44 0.37
5 -0.55
55 0.5
56 0.5
6 -0.54
7 -0.56
8 -0.57
9 -0.55

> <PUBCHEM_EFFECTIVE_ROTOR_COUNT>
9.8

> <PUBCHEM_PHARMACOPHORE_FEATURES>
16
1 10 acceptor
1 11 acceptor
1 12 acceptor
1 13 acceptor
1 14 acceptor
1 15 acceptor
1 16 acceptor
1 18 donor
1 3 acceptor
1 4 acceptor
1 4 donor
1 7 acceptor
1 8 acceptor
5 3 19 20 21 22 rings
6 17 18 24 25 26 27 rings
6 7 28 30 31 32 33 rings

> <PUBCHEM_HEAVY_ATOM_COUNT>
34

> <PUBCHEM_ATOM_DEF_STEREO_COUNT>
5

> <PUBCHEM_ATOM_UDEF_STEREO_COUNT>
0

> <PUBCHEM_BOND_DEF_STEREO_COUNT>
0

> <PUBCHEM_BOND_UDEF_STEREO_COUNT>
0

> <PUBCHEM_ISOTOPIC_ATOM_COUNT>
0

> <PUBCHEM_COMPONENT_COUNT>
1

> <PUBCHEM_CACTVS_TAUTO_COUNT>
24

> <PUBCHEM_CONFORMER_ID>
0006BB0B00000001

> <PUBCHEM_MMFF94_ENERGY>
28.099

> <PUBCHEM_FEATURE_SELFOVERLAP>
81.222

> <PUBCHEM_SHAPE_FINGERPRINT>
10032420 55 17758672252722917821
11513181 2 18113336427363445918
12539773 59 17977959989937613518
12788726 201 17975961078225194399
13009979 54 18050876350281665282
13965767 371 18342454863445080772
15274700 34 18200881781551566317
15297060 5 18040984142602107234
15420108 30 18412548734554314296
19319366 153 17769929082810832211
20511986 3 18340770355902897457
21860390 5 17914595379567528385
23559900 14 17830720312264933129
35225 105 17676213446077956076
50150288 127 16325058598135718189
6287921 2 18337385041004458530

> <PUBCHEM_SHAPE_MULTIPOLES>
615.27
8.17
5.56
2.91
3.69
2.41
-0.68
-4.3
4.81
0.46
-2.03
-1.17
-0.15
-4.57

> <PUBCHEM_SHAPE_SELFOVERLAP>
1259.238

> <PUBCHEM_SHAPE_VOLUME>
356.2

> <PUBCHEM_COORDINATE_TYPE>
2
5
10

$$$$

