12445
  -OEChem-06261206563D

 33 35  0     0  0  0  0  0  0999 V2000
    0.3485   -0.5485   -0.1317 O   0  0  0  0  0  0  0  0  0  0  0  0
   -1.3861   -2.6599   -0.3948 O   0  0  0  0  0  0  0  0  0  0  0  0
   -0.9726    3.3716    0.3235 O   0  0  0  0  0  0  0  0  0  0  0  0
   -3.5224    2.5223    0.1866 O   0  0  0  0  0  0  0  0  0  0  0  0
   -4.1142   -2.1078   -0.3551 O   0  0  0  0  0  0  0  0  0  0  0  0
   -1.5355    1.0507    0.0390 C   0  0  0  0  0  0  0  0  0  0  0  0
   -1.0288   -0.3280   -0.1188 C   0  0  0  0  0  0  0  0  0  0  0  0
    1.2292    0.5138    0.0009 C   0  0  0  0  0  0  0  0  0  0  0  0
   -0.6268    2.0455    0.1682 C   0  0  0  0  0  0  0  0  0  0  0  0
   -1.8612   -1.3730   -0.2486 C   0  0  0  0  0  0  0  0  0  0  0  0
   -2.9942    1.2516    0.0463 C   0  0  0  0  0  0  0  0  0  0  0  0
    0.7937    1.7731    0.1531 C   0  0  0  0  0  0  0  0  0  0  0  0
    2.6562    0.1407   -0.0181 C   0  0  0  0  0  0  0  0  0  0  0  0
   -3.3348   -1.1678   -0.2380 C   0  0  0  0  0  0  0  0  0  0  0  0
   -3.8363    0.2181   -0.0820 C   0  0  0  0  0  0  0  0  0  0  0  0
    3.6135    1.0425   -0.4926 C   0  0  0  0  0  0  0  0  0  0  0  0
    3.0613   -1.1171    0.4389 C   0  0  0  0  0  0  0  0  0  0  0  0
    4.9630    0.6900   -0.5102 C   0  0  0  0  0  0  0  0  0  0  0  0
    4.4108   -1.4696    0.4215 C   0  0  0  0  0  0  0  0  0  0  0  0
    5.3617   -0.5660   -0.0531 C   0  0  0  0  0  0  0  0  0  0  0  0
   -1.2251   -3.2824    0.8652 C   0  0  0  0  0  0  0  0  0  0  0  0
    1.4621    2.6171    0.2854 H   0  0  0  0  0  0  0  0  0  0  0  0
   -4.9134    0.3494   -0.0784 H   0  0  0  0  0  0  0  0  0  0  0  0
    3.3394    2.0227   -0.8740 H   0  0  0  0  0  0  0  0  0  0  0  0
    2.3429   -1.8382    0.8213 H   0  0  0  0  0  0  0  0  0  0  0  0
    5.7033    1.3916   -0.8836 H   0  0  0  0  0  0  0  0  0  0  0  0
    4.7218   -2.4469    0.7789 H   0  0  0  0  0  0  0  0  0  0  0  0
   -1.9383    3.4598    0.3233 H   0  0  0  0  0  0  0  0  0  0  0  0
    6.4123   -0.8408   -0.0673 H   0  0  0  0  0  0  0  0  0  0  0  0
   -4.4931    2.4633    0.1692 H   0  0  0  0  0  0  0  0  0  0  0  0
   -0.4806   -2.7615    1.4773 H   0  0  0  0  0  0  0  0  0  0  0  0
   -2.1766   -3.3448    1.4047 H   0  0  0  0  0  0  0  0  0  0  0  0
   -0.8666   -4.3024    0.6974 H   0  0  0  0  0  0  0  0  0  0  0  0
  1  7  1  0  0  0  0
  1  8  1  0  0  0  0
  2 10  1  0  0  0  0
  2 21  1  0  0  0  0
  3  9  1  0  0  0  0
  3 28  1  0  0  0  0
  4 11  1  0  0  0  0
  4 30  1  0  0  0  0
  5 14  2  0  0  0  0
  6  7  1  0  0  0  0
  6  9  2  0  0  0  0
  6 11  1  0  0  0  0
  7 10  2  0  0  0  0
  8 12  2  0  0  0  0
  8 13  1  0  0  0  0
  9 12  1  0  0  0  0
 10 14  1  0  0  0  0
 11 15  2  0  0  0  0
 12 22  1  0  0  0  0
 13 16  2  0  0  0  0
 13 17  1  0  0  0  0
 14 15  1  0  0  0  0
 15 23  1  0  0  0  0
 16 18  1  0  0  0  0
 16 24  1  0  0  0  0
 17 19  2  0  0  0  0
 17 25  1  0  0  0  0
 18 20  2  0  0  0  0
 18 26  1  0  0  0  0
 19 20  1  0  0  0  0
 19 27  1  0  0  0  0
 20 29  1  0  0  0  0
 21 31  1  0  0  0  0
 21 32  1  0  0  0  0
 21 33  1  0  0  0  0
M  END
> <PUBCHEM_COMPOUND_CID>
12445

> <PUBCHEM_CONFORMER_RMSD>
0.6

> <PUBCHEM_CONFORMER_DIVERSEORDER>
2
1

> <PUBCHEM_MMFF94_PARTIAL_CHARGES>
29
1 -0.15
10 0.09
11 0.08
12 -0.15
13 0.03
14 0.54
15 -0.14
16 -0.15
17 -0.15
18 -0.15
19 -0.15
2 -0.36
20 -0.15
21 0.28
22 0.15
23 0.15
24 0.15
25 0.15
26 0.15
27 0.15
28 0.45
29 0.15
3 -0.53
30 0.45
4 -0.53
5 -0.57
7 0.08
8 0.05
9 0.08

> <PUBCHEM_EFFECTIVE_ROTOR_COUNT>
2

> <PUBCHEM_PHARMACOPHORE_FEATURES>
8
1 1 acceptor
1 2 acceptor
1 3 donor
1 4 donor
1 5 acceptor
6 1 6 7 8 9 12 rings
6 13 16 17 18 19 20 rings
6 6 7 10 11 14 15 rings

> <PUBCHEM_HEAVY_ATOM_COUNT>
21

> <PUBCHEM_ATOM_DEF_STEREO_COUNT>
0

> <PUBCHEM_ATOM_UDEF_STEREO_COUNT>
0

> <PUBCHEM_BOND_DEF_STEREO_COUNT>
0

> <PUBCHEM_BOND_UDEF_STEREO_COUNT>
0

> <PUBCHEM_ISOTOPIC_ATOM_COUNT>
0

> <PUBCHEM_COMPONENT_COUNT>
1

> <PUBCHEM_CACTVS_TAUTO_COUNT>
12

> <PUBCHEM_CONFORMER_ID>
0000309D00000002

> <PUBCHEM_MMFF94_ENERGY>
69.8891

> <PUBCHEM_FEATURE_SELFOVERLAP>
40.638

> <PUBCHEM_SHAPE_FINGERPRINT>
10319926 262 18189920741538714730
10411042 1 18265053518806580207
10493431 412 18117266168168577033
10616163 171 18410008819528265846
10693767 8 17754761342161981007
10906281 52 18262499438814268269
10967382 1 17977668602476524069
1100329 8 18408881837310874241
11578080 2 17169844270912074122
11680986 33 17976544910066911705
12107183 9 17764312034787535418
12236239 1 17988923387733640116
12403814 3 17775568666912438421
12553582 1 18337680698005261594
12788726 201 18410576206029507730
13140716 1 18408319995464127729
13167823 11 18413671322835285878
138480 1 16248282471395119241
14790565 3 18120929770434155337
15042514 8 18410570704113019651
15196674 1 18410575093664450708
16752209 62 18339094751641893179
16945 1 18122346766418127305
17492 89 18339079397440473018
17804303 29 18261111842044304729
19591789 44 18411420613637449291
200 152 18342177748076134822
20510252 161 18188771789640658080
20775438 99 16673073798335814015
20871999 31 18411705374026615165
21267235 1 18411410692162853070
221490 88 17981320097598131706
2297311 6 18260818303031779220
23366157 5 18056765321564380860
23402539 116 18335146409491515581
23557571 272 18261101959920603852
23559900 14 18334581252779712544
2748010 2 17400647022065418373
3004659 81 18273500065909816678
3084891 72 18336549416567447255
3178227 256 18339628007141191153
335352 9 18337673138736246492
350125 39 18411134732536099657
4214541 1 18410856585826493732
4921388 177 16343696574018842434
5104073 3 18409450297706817200
559249 180 18340491179097180338
77779 3 18411136948548956604
8809292 202 18411136896571681034
9709674 26 18408315606028702062

> <PUBCHEM_SHAPE_MULTIPOLES>
402.82
9.32
3.19
0.7
8.82
0.32
-0.02
1.53
0.78
-2.86
-0.53
0.09
0.12
-0.62

> <PUBCHEM_SHAPE_SELFOVERLAP>
889.575

> <PUBCHEM_SHAPE_VOLUME>
213.2

> <PUBCHEM_COORDINATE_TYPE>
2
5
10

$$$$

