17396022
  -OEChem-06241222532D

 43 45  0     1  0  0  0  0  0999 V2000
    4.6783   -2.3330    0.0000 S   0  0  0  0  0  0  0  0  0  0  0  0
    2.3660    0.3378    0.0000 F   0  0  0  0  0  0  0  0  0  0  0  0
    6.0651    3.5197    0.0000 O   0  0  0  0  0  0  0  0  0  0  0  0
    6.7619   -2.3943    0.0000 O   0  0  0  0  0  0  0  0  0  0  0  0
    6.7619   -0.6622    0.0000 O   0  0  0  0  0  0  0  0  0  0  0  0
    4.7827    1.2055    0.0000 N   0  0  3  0  0  0  0  0  0  0  0  0
    5.3208    2.8518    0.0000 C   0  0  3  0  0  0  0  0  0  0  0  0
    5.5270    1.8733    0.0000 C   0  0  0  0  0  0  0  0  0  0  0  0
    3.8322    1.5162    0.0000 C   0  0  0  0  0  0  0  0  0  0  0  0
    4.3703    3.1625    0.0000 C   0  0  0  0  0  0  0  0  0  0  0  0
    3.6260    2.4946    0.0000 C   0  0  0  0  0  0  0  0  0  0  0  0
    4.9889    0.2270    0.0000 C   0  0  0  0  0  0  0  0  0  0  0  0
    4.6783   -0.7235    0.0000 C   0  0  0  0  0  0  0  0  0  0  0  0
    3.7320   -1.0283    0.0000 C   0  0  0  0  0  0  0  0  0  0  0  0
    5.2619   -1.5283    0.0000 C   0  0  0  0  0  0  0  0  0  0  0  0
    3.7320   -2.0283    0.0000 C   0  0  0  0  0  0  0  0  0  0  0  0
    2.8660   -0.5283    0.0000 C   0  0  0  0  0  0  0  0  0  0  0  0
    2.8660   -2.5283    0.0000 C   0  0  0  0  0  0  0  0  0  0  0  0
    6.2619   -1.5283    0.0000 C   0  0  0  0  0  0  0  0  0  0  0  0
    2.0000   -1.0283    0.0000 C   0  0  0  0  0  0  0  0  0  0  0  0
    2.0000   -2.0283    0.0000 C   0  0  0  0  0  0  0  0  0  0  0  0
    6.2619   -3.2603    0.0000 C   0  0  0  0  0  0  0  0  0  0  0  0
    6.7619   -4.1264    0.0000 C   0  0  0  0  0  0  0  0  0  0  0  0
    5.1929    3.4585    0.0000 H   0  0  0  0  0  0  0  0  0  0  0  0
    5.8547    1.3470    0.0000 H   0  0  0  0  0  0  0  0  0  0  0  0
    6.1023    2.1046    0.0000 H   0  0  0  0  0  0  0  0  0  0  0  0
    3.2125    1.4956    0.0000 H   0  0  0  0  0  0  0  0  0  0  0  0
    3.7448    0.9023    0.0000 H   0  0  0  0  0  0  0  0  0  0  0  0
    4.6623    3.7094    0.0000 H   0  0  0  0  0  0  0  0  0  0  0  0
    3.8824    3.5450    0.0000 H   0  0  0  0  0  0  0  0  0  0  0  0
    3.2983    3.0210    0.0000 H   0  0  0  0  0  0  0  0  0  0  0  0
    3.0507    2.2634    0.0000 H   0  0  0  0  0  0  0  0  0  0  0  0
    5.4768   -0.1556    0.0000 H   0  0  0  0  0  0  0  0  0  0  0  0
    4.3698    0.2605    0.0000 H   0  0  0  0  0  0  0  0  0  0  0  0
    5.9372    4.1264    0.0000 H   0  0  0  0  0  0  0  0  0  0  0  0
    2.8660   -3.1483    0.0000 H   0  0  0  0  0  0  0  0  0  0  0  0
    1.4631   -0.7183    0.0000 H   0  0  0  0  0  0  0  0  0  0  0  0
    1.4631   -2.3383    0.0000 H   0  0  0  0  0  0  0  0  0  0  0  0
    5.7869   -2.8618    0.0000 H   0  0  0  0  0  0  0  0  0  0  0  0
    5.7869   -3.6588    0.0000 H   0  0  0  0  0  0  0  0  0  0  0  0
    6.2249   -4.4364    0.0000 H   0  0  0  0  0  0  0  0  0  0  0  0
    7.0719   -4.6633    0.0000 H   0  0  0  0  0  0  0  0  0  0  0  0
    7.2988   -3.8164    0.0000 H   0  0  0  0  0  0  0  0  0  0  0  0
  1 15  1  0  0  0  0
  1 16  1  0  0  0  0
  2 17  1  0  0  0  0
  3  7  1  0  0  0  0
  3 35  1  0  0  0  0
  4 19  1  0  0  0  0
  4 22  1  0  0  0  0
  5 19  2  0  0  0  0
  6  8  1  0  0  0  0
  6  9  1  0  0  0  0
  6 12  1  0  0  0  0
  7  8  1  0  0  0  0
  7 10  1  0  0  0  0
  7 24  1  0  0  0  0
  8 25  1  0  0  0  0
  8 26  1  0  0  0  0
  9 11  1  0  0  0  0
  9 27  1  0  0  0  0
  9 28  1  0  0  0  0
 10 11  1  0  0  0  0
 10 29  1  0  0  0  0
 10 30  1  0  0  0  0
 11 31  1  0  0  0  0
 11 32  1  0  0  0  0
 12 13  1  0  0  0  0
 12 33  1  0  0  0  0
 12 34  1  0  0  0  0
 13 14  1  0  0  0  0
 13 15  2  0  0  0  0
 14 16  1  0  0  0  0
 14 17  2  0  0  0  0
 15 19  1  0  0  0  0
 16 18  2  0  0  0  0
 17 20  1  0  0  0  0
 18 21  1  0  0  0  0
 18 36  1  0  0  0  0
 20 21  2  0  0  0  0
 20 37  1  0  0  0  0
 21 38  1  0  0  0  0
 22 23  1  0  0  0  0
 22 39  1  0  0  0  0
 22 40  1  0  0  0  0
 23 41  1  0  0  0  0
 23 42  1  0  0  0  0
 23 43  1  0  0  0  0
M  END
> <PUBCHEM_COMPOUND_CID>
17396022

> <PUBCHEM_COMPOUND_CANONICALIZED>
1

> <PUBCHEM_CACTVS_COMPLEXITY>
425

> <PUBCHEM_CACTVS_HBOND_ACCEPTOR>
6

> <PUBCHEM_CACTVS_HBOND_DONOR>
1

> <PUBCHEM_CACTVS_ROTATABLE_BOND>
5

> <PUBCHEM_CACTVS_SUBSKEYS>
AAADceB6MQBAAAAAAAAAAAAAAAAAASAAAAA8QAAAAAAAAEgB8AAAHwQACAAADBTh2A4yCcMABgiMAiDSCACDAIAkCBBIiBkIDMgKNjKgtRmGcQhkwAG4qQe8yOCOgAAAAAAEAAAAAAAAAAgAAAAAAAAAAA==

> <PUBCHEM_IUPAC_OPENEYE_NAME>
ethyl 4-fluoro-3-[(3-hydroxy-1-piperidyl)methyl]benzothiophene-2-carboxylate

> <PUBCHEM_IUPAC_CAS_NAME>
4-fluoro-3-[(3-hydroxy-1-piperidinyl)methyl]-1-benzothiophene-2-carboxylic acid ethyl ester

> <PUBCHEM_IUPAC_NAME>
ethyl 4-fluoro-3-[(3-hydroxypiperidin-1-yl)methyl]-1-benzothiophene-2-carboxylate

> <PUBCHEM_IUPAC_SYSTEMATIC_NAME>
ethyl 4-fluoranyl-3-[(3-oxidanylpiperidin-1-yl)methyl]-1-benzothiophene-2-carboxylate

> <PUBCHEM_IUPAC_TRADITIONAL_NAME>
4-fluoro-3-[(3-hydroxypiperidino)methyl]benzothiophene-2-carboxylic acid ethyl ester

> <PUBCHEM_IUPAC_INCHI>
InChI=1S/C17H20FNO3S/c1-2-22-17(21)16-12(10-19-8-4-5-11(20)9-19)15-13(18)6-3-7-14(15)23-16/h3,6-7,11,20H,2,4-5,8-10H2,1H3

> <PUBCHEM_IUPAC_INCHIKEY>
QDYOPLPHNNLNKC-UHFFFAOYSA-N

> <PUBCHEM_XLOGP3_AA>
3.3

> <PUBCHEM_EXACT_MASS>
337.114793

> <PUBCHEM_MOLECULAR_FORMULA>
C17H20FNO3S

> <PUBCHEM_MOLECULAR_WEIGHT>
337.409003

> <PUBCHEM_OPENEYE_CAN_SMILES>
CCOC(=O)C1=C(C2=C(C=CC=C2S1)F)CN3CCCC(C3)O

> <PUBCHEM_OPENEYE_ISO_SMILES>
CCOC(=O)C1=C(C2=C(C=CC=C2S1)F)CN3CCCC(C3)O

> <PUBCHEM_CACTVS_TPSA>
78

> <PUBCHEM_MONOISOTOPIC_WEIGHT>
337.114793

> <PUBCHEM_TOTAL_CHARGE>
0

> <PUBCHEM_HEAVY_ATOM_COUNT>
23

> <PUBCHEM_ATOM_DEF_STEREO_COUNT>
0

> <PUBCHEM_ATOM_UDEF_STEREO_COUNT>
1

> <PUBCHEM_BOND_DEF_STEREO_COUNT>
0

> <PUBCHEM_BOND_UDEF_STEREO_COUNT>
0

> <PUBCHEM_ISOTOPIC_ATOM_COUNT>
0

> <PUBCHEM_COMPONENT_COUNT>
1

> <PUBCHEM_CACTVS_TAUTO_COUNT>
1

> <PUBCHEM_COORDINATE_TYPE>
1
5
255

> <PUBCHEM_BONDANNOTATIONS>
1  15  8
1  16  8
13  14  8
13  15  8
14  16  8
14  17  8
16  18  8
17  20  8
18  21  8
20  21  8
7  3  3

$$$$

