36392
  -OEChem-07051213123D

 36 36  0     1  0  0  0  0  0999 V2000
   -2.8001    0.2721   -3.9155 Cl  0  0  0  0  0  0  0  0  0  0  0  0
    4.2318   -1.2455   -0.1373 F   0  0  0  0  0  0  0  0  0  0  0  0
    4.2120    0.6948   -1.1061 F   0  0  0  0  0  0  0  0  0  0  0  0
    4.2286    0.5667    1.0646 F   0  0  0  0  0  0  0  0  0  0  0  0
    0.0929   -3.5048   -0.1988 O   0  5  0  0  0  0  0  0  0  0  0  0
    0.0926    3.5040    0.2150 O   0  5  0  0  0  0  0  0  0  0  0  0
   -1.8354   -2.4511   -0.1035 O   0  0  0  0  0  0  0  0  0  0  0  0
   -1.8355    2.4463    0.1841 O   0  0  0  0  0  0  0  0  0  0  0  0
   -2.0127   -0.0026    0.0433 N   0  0  3  0  0  0  0  0  0  0  0  0
   -0.5831   -2.4531   -0.1254 N   0  3  0  0  0  0  0  0  0  0  0  0
   -0.5832    2.4509    0.1643 N   0  3  0  0  0  0  0  0  0  0  0  0
   -2.7412   -0.0774    1.3042 C   0  0  0  0  0  0  0  0  0  0  0  0
   -0.6186   -0.0012    0.0202 C   0  0  0  0  0  0  0  0  0  0  0  0
   -2.7839    0.0846   -1.1899 C   0  0  0  0  0  0  0  0  0  0  0  0
   -1.7660   -0.1820    2.4740 C   0  0  0  0  0  0  0  0  0  0  0  0
    0.1012   -1.2063   -0.0633 C   0  0  0  0  0  0  0  0  0  0  0  0
    0.1012    1.2055    0.0795 C   0  0  0  0  0  0  0  0  0  0  0  0
    2.1932    0.0016   -0.0269 C   0  0  0  0  0  0  0  0  0  0  0  0
    1.4959   -1.2049   -0.0866 C   0  0  0  0  0  0  0  0  0  0  0  0
    1.4959    1.2067    0.0563 C   0  0  0  0  0  0  0  0  0  0  0  0
   -1.8681    0.1755   -2.4004 C   0  0  0  0  0  0  0  0  0  0  0  0
   -2.5020   -0.2831    3.8012 C   0  0  0  0  0  0  0  0  0  0  0  0
    3.6844    0.0031   -0.0531 C   0  0  0  0  0  0  0  0  0  0  0  0
   -3.4120   -0.9448    1.2973 H   0  0  0  0  0  0  0  0  0  0  0  0
   -3.3774    0.8074    1.4251 H   0  0  0  0  0  0  0  0  0  0  0  0
   -3.4362   -0.7924   -1.2805 H   0  0  0  0  0  0  0  0  0  0  0  0
   -3.4461    0.9582   -1.1546 H   0  0  0  0  0  0  0  0  0  0  0  0
   -1.1319   -1.0709    2.3953 H   0  0  0  0  0  0  0  0  0  0  0  0
   -1.1140    0.6959    2.5340 H   0  0  0  0  0  0  0  0  0  0  0  0
    2.0593   -2.1324   -0.1512 H   0  0  0  0  0  0  0  0  0  0  0  0
    2.0688    2.1301    0.1011 H   0  0  0  0  0  0  0  0  0  0  0  0
   -1.2415    1.0706   -2.3850 H   0  0  0  0  0  0  0  0  0  0  0  0
   -1.2276   -0.7037   -2.5063 H   0  0  0  0  0  0  0  0  0  0  0  0
   -3.1281    0.5989    3.9705 H   0  0  0  0  0  0  0  0  0  0  0  0
   -3.1430   -1.1701    3.8277 H   0  0  0  0  0  0  0  0  0  0  0  0
   -1.7878   -0.3557    4.6276 H   0  0  0  0  0  0  0  0  0  0  0  0
  1 21  1  0  0  0  0
  2 23  1  0  0  0  0
  3 23  1  0  0  0  0
  4 23  1  0  0  0  0
  5 10  1  0  0  0  0
  6 11  1  0  0  0  0
  7 10  2  0  0  0  0
  8 11  2  0  0  0  0
  9 12  1  0  0  0  0
  9 13  1  0  0  0  0
  9 14  1  0  0  0  0
 10 16  1  0  0  0  0
 11 17  1  0  0  0  0
 12 15  1  0  0  0  0
 12 24  1  0  0  0  0
 12 25  1  0  0  0  0
 13 16  2  0  0  0  0
 13 17  1  0  0  0  0
 14 21  1  0  0  0  0
 14 26  1  0  0  0  0
 14 27  1  0  0  0  0
 15 22  1  0  0  0  0
 15 28  1  0  0  0  0
 15 29  1  0  0  0  0
 16 19  1  0  0  0  0
 17 20  2  0  0  0  0
 18 19  2  0  0  0  0
 18 20  1  0  0  0  0
 18 23  1  0  0  0  0
 19 30  1  0  0  0  0
 20 31  1  0  0  0  0
 21 32  1  0  0  0  0
 21 33  1  0  0  0  0
 22 34  1  0  0  0  0
 22 35  1  0  0  0  0
 22 36  1  0  0  0  0
M  CHG  4   5  -1   6  -1  10   1  11   1
M  END
> <PUBCHEM_COMPOUND_CID>
36392

> <PUBCHEM_CONFORMER_RMSD>
0.8

> <PUBCHEM_CONFORMER_DIVERSEORDER>
1
4
2
3

> <PUBCHEM_MMFF94_PARTIAL_CHARGES>
23
1 -0.29
10 0.91
11 0.91
12 0.37
13 0.1
14 0.37
16 0.13
17 0.13
18 -0.14
19 -0.15
2 -0.34
20 -0.15
21 0.29
23 1.16
3 -0.34
30 0.15
31 0.15
4 -0.34
5 -0.52
6 -0.52
7 -0.52
8 -0.52
9 -0.84

> <PUBCHEM_EFFECTIVE_ROTOR_COUNT>
8

> <PUBCHEM_PHARMACOPHORE_FEATURES>
9
1 22 hydrophobe
1 5 acceptor
1 5 anion
1 6 acceptor
1 6 anion
1 7 acceptor
1 8 acceptor
1 9 cation
6 13 16 17 18 19 20 rings

> <PUBCHEM_HEAVY_ATOM_COUNT>
23

> <PUBCHEM_ATOM_DEF_STEREO_COUNT>
0

> <PUBCHEM_ATOM_UDEF_STEREO_COUNT>
0

> <PUBCHEM_BOND_DEF_STEREO_COUNT>
0

> <PUBCHEM_BOND_UDEF_STEREO_COUNT>
0

> <PUBCHEM_ISOTOPIC_ATOM_COUNT>
0

> <PUBCHEM_COMPONENT_COUNT>
1

> <PUBCHEM_CACTVS_TAUTO_COUNT>
1

> <PUBCHEM_CONFORMER_ID>
00008E2800000001

> <PUBCHEM_MMFF94_ENERGY>
94.2526

> <PUBCHEM_FEATURE_SELFOVERLAP>
45.829

> <PUBCHEM_SHAPE_FINGERPRINT>
11578080 2 12675264925778872927
12403814 3 17560516192541747390
12553582 1 18336819815245579172
12633257 1 17696989779479375451
12714826 92 17703504398510864122
13140716 1 18193274096767293384
14142880 1 17822289119431935745
14787075 74 17198794382433945096
15163728 17 16197627785692637215
15309172 13 18337374011596793634
16945 1 18409446973301804976
229495 10 17754444982979778571
2334 1 17905328425360225672
23402539 116 18188788218080034124
23419403 2 17558251147682183857
23493267 7 17274828007727872488
23559900 14 18336273345625011048
2748010 2 18050833705212941276
394222 165 16911757276951316965
6992083 37 18190721073258497074
81228 2 18117556224131177298

> <PUBCHEM_SHAPE_MULTIPOLES>
414.96
5.66
2.95
2.69
7.22
0.01
-0.03
0.91
-0.09
-4.94
0.02
-0.19
-0.07
0.46

> <PUBCHEM_SHAPE_SELFOVERLAP>
858.142

> <PUBCHEM_SHAPE_VOLUME>
240.8

> <PUBCHEM_COORDINATE_TYPE>
2
5
10

$$$$

