20776698
  -OEChem-07051212452D

 59 61  0     1  0  0  0  0  0999 V2000
    8.5991   -0.1538    0.0000 P   0  0  3  0  0  0  0  0  0  0  0  0
    6.8671   -0.1538    0.0000 P   0  0  3  0  0  0  0  0  0  0  0  0
   12.1107   -0.0605    0.0000 O   0  0  0  0  0  0  0  0  0  0  0  0
    4.2690    0.3462    0.0000 O   0  0  0  0  0  0  0  0  0  0  0  0
   10.5586    2.0099    0.0000 O   0  0  0  0  0  0  0  0  0  0  0  0
   12.6866    2.4622    0.0000 O   0  0  0  0  0  0  0  0  0  0  0  0
    9.4651    0.3462    0.0000 O   0  0  0  0  0  0  0  0  0  0  0  0
    6.0010    0.3462    0.0000 O   0  0  0  0  0  0  0  0  0  0  0  0
    2.5369   -1.6538    0.0000 O   0  0  0  0  0  0  0  0  0  0  0  0
    4.2690   -2.6538    0.0000 O   0  0  0  0  0  0  0  0  0  0  0  0
    7.7331   -0.6538    0.0000 O   0  0  0  0  0  0  0  0  0  0  0  0
    2.5369    1.3462    0.0000 O   0  0  0  0  0  0  0  0  0  0  0  0
   13.5933   -1.1445    0.0000 O   0  0  0  0  0  0  0  0  0  0  0  0
    9.0991   -1.0198    0.0000 O   0  0  0  0  0  0  0  0  0  0  0  0
    7.3671    0.7122    0.0000 O   0  0  0  0  0  0  0  0  0  0  0  0
    8.0991    0.7122    0.0000 O   0  0  0  0  0  0  0  0  0  0  0  0
    6.3671   -1.0198    0.0000 O   0  0  0  0  0  0  0  0  0  0  0  0
   16.7580    0.2645    0.0000 O   0  0  0  0  0  0  0  0  0  0  0  0
   13.7744    0.5781    0.0000 N   0  0  0  0  0  0  0  0  0  0  0  0
   15.1756   -0.4400    0.0000 N   0  0  0  0  0  0  0  0  0  0  0  0
   11.3017    1.3407    0.0000 C   0  0  1  0  0  0  0  0  0  0  0  0
   12.2799    1.5486    0.0000 C   0  0  2  0  0  0  0  0  0  0  0  0
   11.1972    0.3462    0.0000 C   0  0  1  0  0  0  0  0  0  0  0  0
   12.7799    0.6826    0.0000 C   0  0  1  0  0  0  0  0  0  0  0  0
    3.4030   -1.1538    0.0000 C   0  0  1  0  0  0  0  0  0  0  0  0
    4.2690   -1.6538    0.0000 C   0  0  1  0  0  0  0  0  0  0  0  0
   10.3312   -0.1538    0.0000 C   0  0  0  0  0  0  0  0  0  0  0  0
    3.4030   -0.1538    0.0000 C   0  0  1  0  0  0  0  0  0  0  0  0
    5.1350   -1.1538    0.0000 C   0  0  0  0  0  0  0  0  0  0  0  0
    5.1350   -0.1538    0.0000 C   0  0  2  0  0  0  0  0  0  0  0  0
    2.5369    0.3462    0.0000 C   0  0  0  0  0  0  0  0  0  0  0  0
   14.1811   -0.3355    0.0000 C   0  0  0  0  0  0  0  0  0  0  0  0
   14.3622    1.3871    0.0000 C   0  0  0  0  0  0  0  0  0  0  0  0
   15.3567    1.2826    0.0000 C   0  0  0  0  0  0  0  0  0  0  0  0
   15.7634    0.3690    0.0000 C   0  0  0  0  0  0  0  0  0  0  0  0
   11.4622    1.9396    0.0000 H   0  0  0  0  0  0  0  0  0  0  0  0
   12.8990    1.5811    0.0000 H   0  0  0  0  0  0  0  0  0  0  0  0
   11.2296   -0.2729    0.0000 H   0  0  0  0  0  0  0  0  0  0  0  0
   13.0021    0.1038    0.0000 H   0  0  0  0  0  0  0  0  0  0  0  0
    3.4030   -1.7738    0.0000 H   0  0  0  0  0  0  0  0  0  0  0  0
    4.8059   -1.9638    0.0000 H   0  0  0  0  0  0  0  0  0  0  0  0
    9.9326   -0.6287    0.0000 H   0  0  0  0  0  0  0  0  0  0  0  0
   10.7297   -0.6287    0.0000 H   0  0  0  0  0  0  0  0  0  0  0  0
    3.4030    0.4662    0.0000 H   0  0  0  0  0  0  0  0  0  0  0  0
    5.3471   -1.7364    0.0000 H   0  0  0  0  0  0  0  0  0  0  0  0
    5.7456   -1.0461    0.0000 H   0  0  0  0  0  0  0  0  0  0  0  0
    5.1350    0.4662    0.0000 H   0  0  0  0  0  0  0  0  0  0  0  0
   10.6875    2.6163    0.0000 H   0  0  0  0  0  0  0  0  0  0  0  0
   12.3222    2.9638    0.0000 H   0  0  0  0  0  0  0  0  0  0  0  0
    1.9264    0.4539    0.0000 H   0  0  0  0  0  0  0  0  0  0  0  0
    2.3249   -0.2364    0.0000 H   0  0  0  0  0  0  0  0  0  0  0  0
   14.1100    1.9535    0.0000 H   0  0  0  0  0  0  0  0  0  0  0  0
    2.5369   -2.2738    0.0000 H   0  0  0  0  0  0  0  0  0  0  0  0
    4.8059   -2.9638    0.0000 H   0  0  0  0  0  0  0  0  0  0  0  0
   15.4278   -1.0064    0.0000 H   0  0  0  0  0  0  0  0  0  0  0  0
   15.7211    1.7842    0.0000 H   0  0  0  0  0  0  0  0  0  0  0  0
    2.0000    1.6562    0.0000 H   0  0  0  0  0  0  0  0  0  0  0  0
    8.7891   -1.5568    0.0000 H   0  0  0  0  0  0  0  0  0  0  0  0
    7.0571    1.2492    0.0000 H   0  0  0  0  0  0  0  0  0  0  0  0
  1  7  1  0  0  0  0
  1 11  1  0  0  0  0
  1 14  1  0  0  0  0
  1 16  2  0  0  0  0
  2  8  1  0  0  0  0
  2 11  1  0  0  0  0
  2 15  1  0  0  0  0
  2 17  2  0  0  0  0
  3 23  1  0  0  0  0
  3 24  1  0  0  0  0
  4 28  1  0  0  0  0
  4 30  1  0  0  0  0
 21  5  1  1  0  0  0
  5 48  1  0  0  0  0
 22  6  1  1  0  0  0
  6 49  1  0  0  0  0
  7 27  1  0  0  0  0
 30  8  1  6  0  0  0
 25  9  1  6  0  0  0
  9 53  1  0  0  0  0
 26 10  1  1  0  0  0
 10 54  1  0  0  0  0
 12 31  1  0  0  0  0
 12 57  1  0  0  0  0
 13 32  2  0  0  0  0
 14 58  1  0  0  0  0
 15 59  1  0  0  0  0
 18 35  2  0  0  0  0
 24 19  1  6  0  0  0
 19 32  1  0  0  0  0
 19 33  1  0  0  0  0
 20 32  1  0  0  0  0
 20 35  1  0  0  0  0
 20 55  1  0  0  0  0
 21 22  1  0  0  0  0
 21 23  1  0  0  0  0
 21 36  1  0  0  0  0
 22 24  1  0  0  0  0
 22 37  1  0  0  0  0
 23 27  1  6  0  0  0
 23 38  1  0  0  0  0
 24 39  1  0  0  0  0
 25 26  1  0  0  0  0
 25 28  1  0  0  0  0
 25 40  1  0  0  0  0
 26 29  1  0  0  0  0
 26 41  1  0  0  0  0
 27 42  1  0  0  0  0
 27 43  1  0  0  0  0
 28 31  1  1  0  0  0
 28 44  1  0  0  0  0
 29 30  1  0  0  0  0
 29 45  1  0  0  0  0
 29 46  1  0  0  0  0
 30 47  1  0  0  0  0
 31 50  1  0  0  0  0
 31 51  1  0  0  0  0
 33 34  2  0  0  0  0
 33 52  1  0  0  0  0
 34 35  1  0  0  0  0
 34 56  1  0  0  0  0
M  END
> <PUBCHEM_COMPOUND_CID>
20776698

> <PUBCHEM_COMPOUND_CANONICALIZED>
1

> <PUBCHEM_CACTVS_COMPLEXITY>
933

> <PUBCHEM_CACTVS_HBOND_ACCEPTOR>
16

> <PUBCHEM_CACTVS_HBOND_DONOR>
8

> <PUBCHEM_CACTVS_ROTATABLE_BOND>
9

> <PUBCHEM_CACTVS_SUBSKEYS>
AAADceBzPgMAAAAAAAAAAAAAAAAAASAAAAAkQAAAAAAAAAAAAAAAHgAQCCAACBTxgAcBCAPABxCIQCFWUICAAAAAAgAIAAAIAECTEAIAgAAOQAAPFyIXAMHwcAYAAAAAAAAAAAAAAAAAAAAAAAAAAAAAAA==

> <PUBCHEM_IUPAC_OPENEYE_NAME>
[(2R,4R,5S,6R)-4,5-dihydroxy-6-(hydroxymethyl)tetrahydropyran-2-yl] [[(2R,3S,4R,5R)-5-(2,4-dioxopyrimidin-1-yl)-3,4-dihydroxy-tetrahydrofuran-2-yl]methoxy-hydroxy-phosphoryl] hydrogen phosphate

> <PUBCHEM_IUPAC_CAS_NAME>
[(2R,4R,5S,6R)-4,5-dihydroxy-6-(hydroxymethyl)-2-oxanyl] [[(2R,3S,4R,5R)-5-(2,4-dioxo-1-pyrimidinyl)-3,4-dihydroxy-2-oxolanyl]methoxy-hydroxyphosphoryl] hydrogen phosphate

> <PUBCHEM_IUPAC_NAME>
[(2R,4R,5S,6R)-4,5-dihydroxy-6-(hydroxymethyl)oxan-2-yl] [[(2R,3S,4R,5R)-5-(2,4-dioxopyrimidin-1-yl)-3,4-dihydroxyoxolan-2-yl]methoxy-hydroxyphosphoryl] hydrogen phosphate

> <PUBCHEM_IUPAC_SYSTEMATIC_NAME>
[[(2R,3S,4R,5R)-5-[2,4-bis(oxidanylidene)pyrimidin-1-yl]-3,4-bis(oxidanyl)oxolan-2-yl]methoxy-oxidanyl-phosphoryl] [(2R,4R,5S,6R)-6-(hydroxymethyl)-4,5-bis(oxidanyl)oxan-2-yl] hydrogen phosphate

> <PUBCHEM_IUPAC_TRADITIONAL_NAME>
[(2R,4R,5S,6R)-4,5-dihydroxy-6-methylol-tetrahydropyran-2-yl] [[(2R,3S,4R,5R)-5-(2,4-diketopyrimidin-1-yl)-3,4-dihydroxy-tetrahydrofuran-2-yl]methoxy-hydroxy-phosphoryl] hydrogen phosphate

> <PUBCHEM_IUPAC_INCHI>
InChI=1S/C15H24N2O16P2/c18-4-7-11(21)6(19)3-10(30-7)32-35(27,28)33-34(25,26)29-5-8-12(22)13(23)14(31-8)17-2-1-9(20)16-15(17)24/h1-2,6-8,10-14,18-19,21-23H,3-5H2,(H,25,26)(H,27,28)(H,16,20,24)/t6-,7-,8-,10-,11+,12-,13-,14-/m1/s1

> <PUBCHEM_IUPAC_INCHIKEY>
MEJLHDUXDMCALH-GUBZJDGZSA-N

> <PUBCHEM_XLOGP3>
-5.3

> <PUBCHEM_EXACT_MASS>
550.060106

> <PUBCHEM_MOLECULAR_FORMULA>
C15H24N2O16P2

> <PUBCHEM_MOLECULAR_WEIGHT>
550.302384

> <PUBCHEM_OPENEYE_CAN_SMILES>
C1C(C(C(OC1OP(=O)(O)OP(=O)(O)OCC2C(C(C(O2)N3C=CC(=O)NC3=O)O)O)CO)O)O

> <PUBCHEM_OPENEYE_ISO_SMILES>
C1[C@H]([C@@H]([C@H](O[C@@H]1OP(=O)(O)OP(=O)(O)OC[C@@H]2[C@H]([C@H]([C@@H](O2)N3C=CC(=O)NC3=O)O)O)CO)O)O

> <PUBCHEM_CACTVS_TPSA>
271

> <PUBCHEM_MONOISOTOPIC_WEIGHT>
550.060106

> <PUBCHEM_TOTAL_CHARGE>
0

> <PUBCHEM_HEAVY_ATOM_COUNT>
35

> <PUBCHEM_ATOM_DEF_STEREO_COUNT>
8

> <PUBCHEM_ATOM_UDEF_STEREO_COUNT>
0

> <PUBCHEM_BOND_DEF_STEREO_COUNT>
0

> <PUBCHEM_BOND_UDEF_STEREO_COUNT>
0

> <PUBCHEM_ISOTOPIC_ATOM_COUNT>
0

> <PUBCHEM_COMPONENT_COUNT>
1

> <PUBCHEM_CACTVS_TAUTO_COUNT>
3

> <PUBCHEM_COORDINATE_TYPE>
1
5
255

> <PUBCHEM_BONDANNOTATIONS>
26  10  5
24  19  6
19  32  8
19  33  8
20  32  8
20  35  8
23  27  6
28  31  5
33  34  8
34  35  8
21  5  5
22  6  5
30  8  6
25  9  6

$$$$

