10539
  -OEChem-06261204392D

 39 42  0     1  0  0  0  0  0999 V2000
    3.7841    0.8516    0.0000 P   0  0  0  0  0  0  0  0  0  0  0  0
    4.2841    1.7176    0.0000 O   0  0  0  0  0  0  0  0  0  0  0  0
    4.6501    0.3516    0.0000 N   0  0  0  0  0  0  0  0  0  0  0  0
    2.9180    0.3516    0.0000 N   0  0  0  0  0  0  0  0  0  0  0  0
    3.2841    1.7176    0.0000 N   0  0  0  0  0  0  0  0  0  0  0  0
    3.7841   -1.1484    0.0000 C   0  0  0  0  0  0  0  0  0  0  0  0
    3.8001   -2.1899    0.0000 C   0  0  0  0  0  0  0  0  0  0  0  0
    4.6501   -0.6484    0.0000 C   0  0  3  0  0  0  0  0  0  0  0  0
    2.9180   -0.6484    0.0000 C   0  0  3  0  0  0  0  0  0  0  0  0
    4.6772   -2.6526    0.0000 C   0  0  0  0  0  0  0  0  0  0  0  0
    2.9021   -2.7176    0.0000 C   0  0  0  0  0  0  0  0  0  0  0  0
    5.5095   -1.1432    0.0000 C   0  0  0  0  0  0  0  0  0  0  0  0
    2.0080   -1.1552    0.0000 C   0  0  0  0  0  0  0  0  0  0  0  0
    5.5230   -2.1348    0.0000 C   0  0  0  0  0  0  0  0  0  0  0  0
    2.0000   -2.1968    0.0000 C   0  0  0  0  0  0  0  0  0  0  0  0
    3.2841    2.7176    0.0000 C   0  0  0  0  0  0  0  0  0  0  0  0
    2.4180    2.2176    0.0000 C   0  0  0  0  0  0  0  0  0  0  0  0
    3.2495   -1.4625    0.0000 H   0  0  0  0  0  0  0  0  0  0  0  0
    3.8143   -2.8097    0.0000 H   0  0  0  0  0  0  0  0  0  0  0  0
    2.3835   -0.3343    0.0000 H   0  0  0  0  0  0  0  0  0  0  0  0
    5.1868   -0.3380    0.0000 H   0  0  0  0  0  0  0  0  0  0  0  0
    4.2951   -3.1409    0.0000 H   0  0  0  0  0  0  0  0  0  0  0  0
    5.0898   -3.1154    0.0000 H   0  0  0  0  0  0  0  0  0  0  0  0
    2.5048   -3.1936    0.0000 H   0  0  0  0  0  0  0  0  0  0  0  0
    3.3030   -3.1905    0.0000 H   0  0  0  0  0  0  0  0  0  0  0  0
    6.1211   -1.2450    0.0000 H   0  0  0  0  0  0  0  0  0  0  0  0
    5.7185   -0.5594    0.0000 H   0  0  0  0  0  0  0  0  0  0  0  0
    1.8035   -0.5699    0.0000 H   0  0  0  0  0  0  0  0  0  0  0  0
    1.3964   -1.2566    0.0000 H   0  0  0  0  0  0  0  0  0  0  0  0
    5.1870    0.6616    0.0000 H   0  0  0  0  0  0  0  0  0  0  0  0
    2.3811    0.6616    0.0000 H   0  0  0  0  0  0  0  0  0  0  0  0
    5.7476   -2.7126    0.0000 H   0  0  0  0  0  0  0  0  0  0  0  0
    6.1316   -2.0164    0.0000 H   0  0  0  0  0  0  0  0  0  0  0  0
    1.3900   -2.0860    0.0000 H   0  0  0  0  0  0  0  0  0  0  0  0
    1.7864   -2.7789    0.0000 H   0  0  0  0  0  0  0  0  0  0  0  0
    3.8946    2.8253    0.0000 H   0  0  0  0  0  0  0  0  0  0  0  0
    3.0720    3.3002    0.0000 H   0  0  0  0  0  0  0  0  0  0  0  0
    2.0195    2.6926    0.0000 H   0  0  0  0  0  0  0  0  0  0  0  0
    2.0195    1.7427    0.0000 H   0  0  0  0  0  0  0  0  0  0  0  0
  1  2  2  0  0  0  0
  1  3  1  0  0  0  0
  1  4  1  0  0  0  0
  1  5  1  0  0  0  0
  3  8  1  0  0  0  0
  3 30  1  0  0  0  0
  4  9  1  0  0  0  0
  4 31  1  0  0  0  0
  5 16  1  0  0  0  0
  5 17  1  0  0  0  0
  6  7  1  0  0  0  0
  6  8  1  0  0  0  0
  6  9  1  0  0  0  0
  6 18  1  0  0  0  0
  7 10  1  0  0  0  0
  7 11  1  0  0  0  0
  7 19  1  0  0  0  0
  8 12  1  0  0  0  0
  8 21  1  0  0  0  0
  9 13  1  0  0  0  0
  9 20  1  0  0  0  0
 10 14  1  0  0  0  0
 10 22  1  0  0  0  0
 10 23  1  0  0  0  0
 11 15  1  0  0  0  0
 11 24  1  0  0  0  0
 11 25  1  0  0  0  0
 12 14  1  0  0  0  0
 12 26  1  0  0  0  0
 12 27  1  0  0  0  0
 13 15  1  0  0  0  0
 13 28  1  0  0  0  0
 13 29  1  0  0  0  0
 14 32  1  0  0  0  0
 14 33  1  0  0  0  0
 15 34  1  0  0  0  0
 15 35  1  0  0  0  0
 16 17  1  0  0  0  0
 16 36  1  0  0  0  0
 16 37  1  0  0  0  0
 17 38  1  0  0  0  0
 17 39  1  0  0  0  0
M  END
> <PUBCHEM_COMPOUND_CID>
10539

> <PUBCHEM_COMPOUND_CANONICALIZED>
1

> <PUBCHEM_CACTVS_COMPLEXITY>
347

> <PUBCHEM_CACTVS_HBOND_ACCEPTOR>
4

> <PUBCHEM_CACTVS_HBOND_DONOR>
2

> <PUBCHEM_CACTVS_ROTATABLE_BOND>
1

> <PUBCHEM_CACTVS_SUBSKEYS>
AAADceBzIAIAAAAAAAAAAAAAFgAAAAAAAAA8YIAAAAAAAADwAAAAHAAQgCAADSjBAAQAAAJAAAAAQAAAAAAAAAAAAAAAAIAIAAAAAAIAwAAAAAAAEAAAAAEQgIAOgAAAAAAAAAAAAACAACQAAAAAAAAAAA==

> <PUBCHEM_IUPAC_INCHI>
InChI=1S/C12H22N3OP/c16-17(15-7-8-15)13-10-5-1-3-9-4-2-6-11(14-17)12(9)10/h9-12H,1-8H2,(H2,13,14,16)

> <PUBCHEM_IUPAC_INCHIKEY>
WVGLQHCNUZQBLV-UHFFFAOYSA-N

> <PUBCHEM_XLOGP3_AA>
1.4

> <PUBCHEM_EXACT_MASS>
255.150049

> <PUBCHEM_MOLECULAR_FORMULA>
C12H22N3OP

> <PUBCHEM_MOLECULAR_WEIGHT>
255.296342

> <PUBCHEM_OPENEYE_CAN_SMILES>
C1CC2CCCC3C2C(C1)NP(=O)(N3)N4CC4

> <PUBCHEM_OPENEYE_ISO_SMILES>
C1CC2CCCC3C2C(C1)NP(=O)(N3)N4CC4

> <PUBCHEM_CACTVS_TPSA>
44.1

> <PUBCHEM_MONOISOTOPIC_WEIGHT>
255.150049

> <PUBCHEM_TOTAL_CHARGE>
0

> <PUBCHEM_HEAVY_ATOM_COUNT>
17

> <PUBCHEM_ATOM_DEF_STEREO_COUNT>
0

> <PUBCHEM_ATOM_UDEF_STEREO_COUNT>
2

> <PUBCHEM_BOND_DEF_STEREO_COUNT>
0

> <PUBCHEM_BOND_UDEF_STEREO_COUNT>
0

> <PUBCHEM_ISOTOPIC_ATOM_COUNT>
0

> <PUBCHEM_COMPONENT_COUNT>
1

> <PUBCHEM_CACTVS_TAUTO_COUNT>
2

> <PUBCHEM_COORDINATE_TYPE>
1
5
255

> <PUBCHEM_BONDANNOTATIONS>
8  12  3
9  13  3

$$$$

