7009432
  -OEChem-07051213153D

 20 20  0     1  0  0  0  0  0999 V2000
   -2.0780    0.7867    0.9497 O   0  0  0  0  0  0  0  0  0  0  0  0
    0.3200    1.2228   -0.1552 N   0  0  0  0  0  0  0  0  0  0  0  0
    1.8123   -1.2521    0.0664 N   0  0  0  0  0  0  0  0  0  0  0  0
   -2.6008   -0.7351   -0.6951 N   0  0  0  0  0  0  0  0  0  0  0  0
   -0.3058   -0.0802   -0.3946 C   0  0  1  0  0  0  0  0  0  0  0  0
    0.3874   -1.1925    0.3941 C   0  0  0  0  0  0  0  0  0  0  0  0
    1.7470    1.1555   -0.4856 C   0  0  0  0  0  0  0  0  0  0  0  0
    2.4527    0.0440    0.2926 C   0  0  0  0  0  0  0  0  0  0  0  0
   -1.7347    0.0509    0.0276 C   0  0  0  0  0  0  0  0  0  0  0  0
   -0.2712   -0.2984   -1.4704 H   0  0  0  0  0  0  0  0  0  0  0  0
    0.2610   -1.0508    1.4756 H   0  0  0  0  0  0  0  0  0  0  0  0
   -0.0705   -2.1609    0.1604 H   0  0  0  0  0  0  0  0  0  0  0  0
    2.2108    2.1193   -0.2481 H   0  0  0  0  0  0  0  0  0  0  0  0
    1.8697    1.0060   -1.5655 H   0  0  0  0  0  0  0  0  0  0  0  0
    3.5005   -0.0159   -0.0211 H   0  0  0  0  0  0  0  0  0  0  0  0
    2.4573    0.2711    1.3659 H   0  0  0  0  0  0  0  0  0  0  0  0
    0.2313    1.4593    0.8341 H   0  0  0  0  0  0  0  0  0  0  0  0
    1.9113   -1.4982   -0.9189 H   0  0  0  0  0  0  0  0  0  0  0  0
   -3.5956   -0.7336   -0.4956 H   0  0  0  0  0  0  0  0  0  0  0  0
   -2.2886   -1.3449   -1.4440 H   0  0  0  0  0  0  0  0  0  0  0  0
  1  9  2  0  0  0  0
  2  5  1  0  0  0  0
  2  7  1  0  0  0  0
  2 17  1  0  0  0  0
  3  6  1  0  0  0  0
  3  8  1  0  0  0  0
  3 18  1  0  0  0  0
  4  9  1  0  0  0  0
  4 19  1  0  0  0  0
  4 20  1  0  0  0  0
  5  6  1  0  0  0  0
  5  9  1  0  0  0  0
  5 10  1  0  0  0  0
  6 11  1  0  0  0  0
  6 12  1  0  0  0  0
  7  8  1  0  0  0  0
  7 13  1  0  0  0  0
  7 14  1  0  0  0  0
  8 15  1  0  0  0  0
  8 16  1  0  0  0  0
M  END
> <PUBCHEM_COMPOUND_CID>
7009432

> <PUBCHEM_CONFORMER_RMSD>
0.4

> <PUBCHEM_CONFORMER_DIVERSEORDER>
1
3
18
16
5
17
15
2
7
6
13
11
14
9
19
4
10
8
12

> <PUBCHEM_MMFF94_PARTIAL_CHARGES>
13
1 -0.57
17 0.36
18 0.36
19 0.37
2 -0.9
20 0.37
3 -0.9
4 -0.8
5 0.33
6 0.27
7 0.27
8 0.27
9 0.57

> <PUBCHEM_EFFECTIVE_ROTOR_COUNT>
2.2

> <PUBCHEM_PHARMACOPHORE_FEATURES>
7
1 1 acceptor
1 2 cation
1 2 donor
1 3 cation
1 3 donor
1 4 donor
6 2 3 5 6 7 8 rings

> <PUBCHEM_HEAVY_ATOM_COUNT>
9

> <PUBCHEM_ATOM_DEF_STEREO_COUNT>
1

> <PUBCHEM_ATOM_UDEF_STEREO_COUNT>
0

> <PUBCHEM_BOND_DEF_STEREO_COUNT>
0

> <PUBCHEM_BOND_UDEF_STEREO_COUNT>
0

> <PUBCHEM_ISOTOPIC_ATOM_COUNT>
0

> <PUBCHEM_COMPONENT_COUNT>
1

> <PUBCHEM_CACTVS_TAUTO_COUNT>
2

> <PUBCHEM_CONFORMER_ID>
006AF49800000001

> <PUBCHEM_MMFF94_ENERGY>
12.4513

> <PUBCHEM_FEATURE_SELFOVERLAP>
35.524

> <PUBCHEM_SHAPE_FINGERPRINT>
18185500 45 18408888455337849779
21040471 1 18269270158482809428
23552423 10 18340766030622176582
29004967 10 17846211189511571184
5084963 1 18410581664563551884

> <PUBCHEM_SHAPE_MULTIPOLES>
164.4
3.46
1.32
0.78
0.72
0.05
0.04
0.04
-0.01
-0.45
0.01
0.24
-0.05
-0.38

> <PUBCHEM_SHAPE_SELFOVERLAP>
322.285

> <PUBCHEM_SHAPE_VOLUME>
97.8

> <PUBCHEM_COORDINATE_TYPE>
2
5
10

$$$$

