27189
  -OEChem-07051213123D

 41 42  0     1  0  0  0  0  0999 V2000
   -0.0800   -0.7074   -1.3672 O   0  0  0  0  0  0  0  0  0  0  0  0
   -2.1239    1.0353   -1.5410 O   0  0  0  0  0  0  0  0  0  0  0  0
   -3.0089    0.3172    0.4754 N   0  0  0  0  0  0  0  0  0  0  0  0
   -1.3072   -1.0606   -0.7373 C   0  0  1  0  0  0  0  0  0  0  0  0
   -2.1782    0.1898   -0.6413 C   0  0  0  0  0  0  0  0  0  0  0  0
   -3.8867    1.4647    0.6748 C   0  0  0  0  0  0  0  0  0  0  0  0
   -3.0651   -0.6888    1.5335 C   0  0  0  0  0  0  0  0  0  0  0  0
    1.0623   -0.8843   -0.6329 C   0  0  0  0  0  0  0  0  0  0  0  0
    1.9081    0.1936   -0.3327 C   0  0  0  0  0  0  0  0  0  0  0  0
   -1.9800   -2.1486   -1.5615 C   0  0  0  0  0  0  0  0  0  0  0  0
    3.0779   -0.0396    0.4289 C   0  0  0  0  0  0  0  0  0  0  0  0
   -5.2532    1.2245    0.0557 C   0  0  0  0  0  0  0  0  0  0  0  0
   -2.0502   -0.3948    2.6252 C   0  0  0  0  0  0  0  0  0  0  0  0
    1.3597   -2.1726   -0.1926 C   0  0  0  0  0  0  0  0  0  0  0  0
    1.6215    1.4972   -0.7695 C   0  0  0  0  0  0  0  0  0  0  0  0
    3.3644   -1.3432    0.8662 C   0  0  0  0  0  0  0  0  0  0  0  0
    2.5100   -2.4018    0.5567 C   0  0  0  0  0  0  0  0  0  0  0  0
    3.9267    1.0376    0.7312 C   0  0  0  0  0  0  0  0  0  0  0  0
    2.4762    2.5556   -0.4602 C   0  0  0  0  0  0  0  0  0  0  0  0
    3.6267    2.3263    0.2887 C   0  0  0  0  0  0  0  0  0  0  0  0
   -1.0998   -1.4563    0.2576 H   0  0  0  0  0  0  0  0  0  0  0  0
   -3.9736    1.6869    1.7436 H   0  0  0  0  0  0  0  0  0  0  0  0
   -3.4317    2.3380    0.1943 H   0  0  0  0  0  0  0  0  0  0  0  0
   -4.0737   -0.6931    1.9638 H   0  0  0  0  0  0  0  0  0  0  0  0
   -2.9161   -1.6939    1.1325 H   0  0  0  0  0  0  0  0  0  0  0  0
   -2.9467   -2.4364   -1.1378 H   0  0  0  0  0  0  0  0  0  0  0  0
   -1.3483   -3.0395   -1.6315 H   0  0  0  0  0  0  0  0  0  0  0  0
   -2.1528   -1.8043   -2.5876 H   0  0  0  0  0  0  0  0  0  0  0  0
   -5.1699    1.0278   -1.0184 H   0  0  0  0  0  0  0  0  0  0  0  0
   -5.7514    0.3640    0.5136 H   0  0  0  0  0  0  0  0  0  0  0  0
   -5.8925    2.1019    0.1938 H   0  0  0  0  0  0  0  0  0  0  0  0
   -1.0286   -0.3555    2.2350 H   0  0  0  0  0  0  0  0  0  0  0  0
   -2.2544    0.5690    3.1032 H   0  0  0  0  0  0  0  0  0  0  0  0
   -2.0909   -1.1689    3.3977 H   0  0  0  0  0  0  0  0  0  0  0  0
    0.7169   -3.0142   -0.4330 H   0  0  0  0  0  0  0  0  0  0  0  0
    0.7323    1.7114   -1.3578 H   0  0  0  0  0  0  0  0  0  0  0  0
    4.2584   -1.5456    1.4524 H   0  0  0  0  0  0  0  0  0  0  0  0
    2.7449   -3.4057    0.8984 H   0  0  0  0  0  0  0  0  0  0  0  0
    4.8312    0.8816    1.3154 H   0  0  0  0  0  0  0  0  0  0  0  0
    2.2434    3.5591   -0.8045 H   0  0  0  0  0  0  0  0  0  0  0  0
    4.2917    3.1507    0.5292 H   0  0  0  0  0  0  0  0  0  0  0  0
  1  4  1  0  0  0  0
  1  8  1  0  0  0  0
  2  5  2  0  0  0  0
  3  5  1  0  0  0  0
  3  6  1  0  0  0  0
  3  7  1  0  0  0  0
  4  5  1  0  0  0  0
  4 10  1  0  0  0  0
  4 21  1  0  0  0  0
  6 12  1  0  0  0  0
  6 22  1  0  0  0  0
  6 23  1  0  0  0  0
  7 13  1  0  0  0  0
  7 24  1  0  0  0  0
  7 25  1  0  0  0  0
  8  9  1  0  0  0  0
  8 14  2  0  0  0  0
  9 11  1  0  0  0  0
  9 15  2  0  0  0  0
 10 26  1  0  0  0  0
 10 27  1  0  0  0  0
 10 28  1  0  0  0  0
 11 16  1  0  0  0  0
 11 18  2  0  0  0  0
 12 29  1  0  0  0  0
 12 30  1  0  0  0  0
 12 31  1  0  0  0  0
 13 32  1  0  0  0  0
 13 33  1  0  0  0  0
 13 34  1  0  0  0  0
 14 17  1  0  0  0  0
 14 35  1  0  0  0  0
 15 19  1  0  0  0  0
 15 36  1  0  0  0  0
 16 17  2  0  0  0  0
 16 37  1  0  0  0  0
 17 38  1  0  0  0  0
 18 20  1  0  0  0  0
 18 39  1  0  0  0  0
 19 20  2  0  0  0  0
 19 40  1  0  0  0  0
 20 41  1  0  0  0  0
M  END
> <PUBCHEM_COMPOUND_CID>
27189

> <PUBCHEM_CONFORMER_RMSD>
0.8

> <PUBCHEM_CONFORMER_DIVERSEORDER>
1
64
84
57
22
27
81
62
74
80
76
51
77
73
85
12
28
23
82
39
10
56
21
30
17
59
53
49
68
36
46
66
6
14
9
38
72
31
8
32
83
3
65
55
18
40
33
43
37
34
47
58
67
13
2
48
61
41
11
70
24
45
63
52
69
71
75
35
15
5
54
20
60
50
79
4
26
42
78
44
29
7
25
19
16

> <PUBCHEM_MMFF94_PARTIAL_CHARGES>
22
1 -0.36
14 -0.15
15 -0.15
16 -0.15
17 -0.15
18 -0.15
19 -0.15
2 -0.57
20 -0.15
3 -0.66
35 0.15
36 0.15
37 0.15
38 0.15
39 0.15
4 0.34
40 0.15
41 0.15
5 0.57
6 0.3
7 0.3
8 0.08

> <PUBCHEM_EFFECTIVE_ROTOR_COUNT>
6

> <PUBCHEM_PHARMACOPHORE_FEATURES>
4
1 1 acceptor
1 2 acceptor
6 8 9 11 14 16 17 rings
6 9 11 15 18 19 20 rings

> <PUBCHEM_HEAVY_ATOM_COUNT>
20

> <PUBCHEM_ATOM_DEF_STEREO_COUNT>
0

> <PUBCHEM_ATOM_UDEF_STEREO_COUNT>
1

> <PUBCHEM_BOND_DEF_STEREO_COUNT>
0

> <PUBCHEM_BOND_UDEF_STEREO_COUNT>
0

> <PUBCHEM_ISOTOPIC_ATOM_COUNT>
0

> <PUBCHEM_COMPONENT_COUNT>
1

> <PUBCHEM_CACTVS_TAUTO_COUNT>
1

> <PUBCHEM_CONFORMER_ID>
00006A3500000001

> <PUBCHEM_MMFF94_ENERGY>
58.0417

> <PUBCHEM_FEATURE_SELFOVERLAP>
20.331

> <PUBCHEM_SHAPE_FINGERPRINT>
10366900 7 17989480818717337647
10382601 240 18272099292496408040
10465860 228 18408606959371605932
10498660 4 14851879331123593241
11370993 70 18202278074538418243
11471102 22 18202567254854989286
11640471 11 17894629249108115810
12166972 35 17749675215386016843
12403259 327 17703219723978781523
12633257 1 17275389767907067216
12670545 47 18059280037510316859
12670546 177 7204481208883598057
13140716 1 18410864230889269126
13583140 156 18342449331780209883
13764800 53 16878213178526833307
14251764 38 18193275424029219457
14790565 3 18199461066178345500
14844126 61 16901064621009118082
15238133 3 18056467585503247540
15527383 91 18270964656441527418
1813 80 17535453053290540070
18981168 100 17024004039202511383
19049666 15 17702111467544304958
20157964 124 18338240466126278213
20510252 161 17186729312577826614
20715895 44 17828202430970109953
20739085 24 18272370884853746620
21475661 188 17982172532980660525
21503847 285 18334289903277270062
21524375 3 18047759200430009094
21756936 100 17837475372614920244
21864079 5 18265610975159200244
22854114 111 18411983546442474484
23184049 59 18263931105758742518
23557571 272 13985248556682690525
23559900 14 17417513809334206495
2748010 2 17687760745279872310
351380 180 18270400615693078345
3797600 57 17681242526427738323
4409770 3 14871552106569063807
474 4 18340211803836841716
49207404 50 18129369432508858104
5048184 11 18335700481774195276
7097593 13 18340212980674153374
7832392 63 18334300855364786350

> <PUBCHEM_SHAPE_MULTIPOLES>
394.87
8.3
2.67
1.62
5.02
0.02
-0.62
4.07
-2.3
-1.94
0.37
1.34
-0.42
-0.54

> <PUBCHEM_SHAPE_SELFOVERLAP>
826.92

> <PUBCHEM_SHAPE_VOLUME>
224.3

> <PUBCHEM_COORDINATE_TYPE>
2
5
10

$$$$

