13590
  -OEChem-06241222393D

 17 17  0     0  0  0  0  0  0999 V2000
   -0.4841   -1.1036   -0.1370 N   0  0  0  0  0  0  0  0  0  0  0  0
   -0.3784    1.1692   -0.0881 N   0  0  0  0  0  0  0  0  0  0  0  0
   -1.8356   -0.7795    0.2067 C   0  0  0  0  0  0  0  0  0  0  0  0
    0.2496    0.0356   -0.2731 C   0  0  0  0  0  0  0  0  0  0  0  0
   -1.7860    0.7558    0.2026 C   0  0  0  0  0  0  0  0  0  0  0  0
    1.7077   -0.0176   -0.5919 C   0  0  0  0  0  0  0  0  0  0  0  0
    2.5268   -0.0600    0.6809 C   0  0  0  0  0  0  0  0  0  0  0  0
   -2.0984   -1.1680    1.1949 H   0  0  0  0  0  0  0  0  0  0  0  0
   -2.5439   -1.1617   -0.5339 H   0  0  0  0  0  0  0  0  0  0  0  0
   -2.4494    1.1666   -0.5660 H   0  0  0  0  0  0  0  0  0  0  0  0
   -2.0936    1.1602    1.1726 H   0  0  0  0  0  0  0  0  0  0  0  0
   -0.1386   -2.0511   -0.2273 H   0  0  0  0  0  0  0  0  0  0  0  0
    1.9126   -0.9042   -1.2013 H   0  0  0  0  0  0  0  0  0  0  0  0
    1.9764    0.8654   -1.1816 H   0  0  0  0  0  0  0  0  0  0  0  0
    3.5952   -0.0959    0.4471 H   0  0  0  0  0  0  0  0  0  0  0  0
    2.2778   -0.9416    1.2809 H   0  0  0  0  0  0  0  0  0  0  0  0
    2.3412    0.8248    1.2992 H   0  0  0  0  0  0  0  0  0  0  0  0
  1  3  1  0  0  0  0
  1  4  1  0  0  0  0
  1 12  1  0  0  0  0
  2  4  2  0  0  0  0
  2  5  1  0  0  0  0
  3  5  1  0  0  0  0
  3  8  1  0  0  0  0
  3  9  1  0  0  0  0
  4  6  1  0  0  0  0
  5 10  1  0  0  0  0
  5 11  1  0  0  0  0
  6  7  1  0  0  0  0
  6 13  1  0  0  0  0
  6 14  1  0  0  0  0
  7 15  1  0  0  0  0
  7 16  1  0  0  0  0
  7 17  1  0  0  0  0
M  END
> <PUBCHEM_COMPOUND_CID>
13590

> <PUBCHEM_CONFORMER_RMSD>
0.4

> <PUBCHEM_CONFORMER_DIVERSEORDER>
1
2

> <PUBCHEM_MMFF94_PARTIAL_CHARGES>
7
1 -0.82
12 0.4
2 -0.7
3 0.37
4 0.44
5 0.25
6 0.06

> <PUBCHEM_EFFECTIVE_ROTOR_COUNT>
1.6

> <PUBCHEM_PHARMACOPHORE_FEATURES>
4
1 1 donor
1 7 hydrophobe
3 1 2 4 cation
5 1 2 3 4 5 rings

> <PUBCHEM_HEAVY_ATOM_COUNT>
7

> <PUBCHEM_ATOM_DEF_STEREO_COUNT>
0

> <PUBCHEM_ATOM_UDEF_STEREO_COUNT>
0

> <PUBCHEM_BOND_DEF_STEREO_COUNT>
0

> <PUBCHEM_BOND_UDEF_STEREO_COUNT>
0

> <PUBCHEM_ISOTOPIC_ATOM_COUNT>
0

> <PUBCHEM_COMPONENT_COUNT>
1

> <PUBCHEM_CACTVS_TAUTO_COUNT>
1

> <PUBCHEM_CONFORMER_ID>
0000351600000001

> <PUBCHEM_MMFF94_ENERGY>
13.6164

> <PUBCHEM_FEATURE_SELFOVERLAP>
20.297

> <PUBCHEM_SHAPE_FINGERPRINT>
10857977 72 18335144137459045186
16714656 1 18410566297175815669
21040471 1 18194673993738387037
23552423 10 18201710795289629830
24536 1 18334572456021798844
29004967 10 18336256856127158402
369184 2 18409177609858497634
5460574 1 9727638297480391246

> <PUBCHEM_SHAPE_MULTIPOLES>
134.09
3.08
1.07
0.74
1.19
0.02
0.02
-0.1
0.58
-0.46
0
0.26
-0.01
-0.02

> <PUBCHEM_SHAPE_SELFOVERLAP>
258.621

> <PUBCHEM_SHAPE_VOLUME>
81.6

> <PUBCHEM_COORDINATE_TYPE>
2
5
10

$$$$

