188957
  -OEChem-07051213022D

 34 36  0     0  0  0  0  0  0999 V2000
    7.2764    0.2097    0.0000 O   0  0  0  0  0  0  0  0  0  0  0  0
    7.2764   -1.3997    0.0000 O   0  0  0  0  0  0  0  0  0  0  0  0
    3.7320   -2.5950    0.0000 O   0  0  0  0  0  0  0  0  0  0  0  0
    4.5981    1.9050    0.0000 N   0  0  0  0  0  0  0  0  0  0  0  0
    4.5981   -0.0950    0.0000 C   0  0  0  0  0  0  0  0  0  0  0  0
    4.5981   -1.0950    0.0000 C   0  0  0  0  0  0  0  0  0  0  0  0
    3.7320    0.4050    0.0000 C   0  0  0  0  0  0  0  0  0  0  0  0
    6.3301   -0.0950    0.0000 C   0  0  0  0  0  0  0  0  0  0  0  0
    5.4641    0.4050    0.0000 C   0  0  0  0  0  0  0  0  0  0  0  0
    6.3301   -1.0950    0.0000 C   0  0  0  0  0  0  0  0  0  0  0  0
    5.4641   -1.5950    0.0000 C   0  0  0  0  0  0  0  0  0  0  0  0
    3.7320    1.4050    0.0000 C   0  0  0  0  0  0  0  0  0  0  0  0
    3.7320   -1.5950    0.0000 C   0  0  0  0  0  0  0  0  0  0  0  0
    2.8660   -0.0950    0.0000 C   0  0  0  0  0  0  0  0  0  0  0  0
    7.8600   -0.5950    0.0000 C   0  0  0  0  0  0  0  0  0  0  0  0
    2.8660    1.9050    0.0000 C   0  0  0  0  0  0  0  0  0  0  0  0
    2.0000    0.4050    0.0000 C   0  0  0  0  0  0  0  0  0  0  0  0
    2.0000    1.4050    0.0000 C   0  0  0  0  0  0  0  0  0  0  0  0
    4.5981    2.9050    0.0000 C   0  0  0  0  0  0  0  0  0  0  0  0
    5.4641    1.0250    0.0000 H   0  0  0  0  0  0  0  0  0  0  0  0
    5.4641   -2.2150    0.0000 H   0  0  0  0  0  0  0  0  0  0  0  0
    3.5200   -1.0124    0.0000 H   0  0  0  0  0  0  0  0  0  0  0  0
    3.1215   -1.7027    0.0000 H   0  0  0  0  0  0  0  0  0  0  0  0
    2.8660   -0.7150    0.0000 H   0  0  0  0  0  0  0  0  0  0  0  0
    8.3208   -1.0097    0.0000 H   0  0  0  0  0  0  0  0  0  0  0  0
    8.3208   -0.1803    0.0000 H   0  0  0  0  0  0  0  0  0  0  0  0
    2.8660    2.5250    0.0000 H   0  0  0  0  0  0  0  0  0  0  0  0
    1.4631    0.0950    0.0000 H   0  0  0  0  0  0  0  0  0  0  0  0
    5.1350    1.5950    0.0000 H   0  0  0  0  0  0  0  0  0  0  0  0
    1.4631    1.7150    0.0000 H   0  0  0  0  0  0  0  0  0  0  0  0
    5.2181    2.9050    0.0000 H   0  0  0  0  0  0  0  0  0  0  0  0
    4.5981    3.5250    0.0000 H   0  0  0  0  0  0  0  0  0  0  0  0
    3.9781    2.9050    0.0000 H   0  0  0  0  0  0  0  0  0  0  0  0
    3.1951   -2.9050    0.0000 H   0  0  0  0  0  0  0  0  0  0  0  0
  1  8  1  0  0  0  0
  1 15  1  0  0  0  0
  2 10  1  0  0  0  0
  2 15  1  0  0  0  0
  3 13  1  0  0  0  0
  3 34  1  0  0  0  0
  4 12  1  0  0  0  0
  4 19  1  0  0  0  0
  4 29  1  0  0  0  0
  5  6  1  0  0  0  0
  5  7  1  0  0  0  0
  5  9  2  0  0  0  0
  6 11  2  0  0  0  0
  6 13  1  0  0  0  0
  7 12  1  0  0  0  0
  7 14  2  0  0  0  0
  8  9  1  0  0  0  0
  8 10  2  0  0  0  0
  9 20  1  0  0  0  0
 10 11  1  0  0  0  0
 11 21  1  0  0  0  0
 12 16  2  0  0  0  0
 13 22  1  0  0  0  0
 13 23  1  0  0  0  0
 14 17  1  0  0  0  0
 14 24  1  0  0  0  0
 15 25  1  0  0  0  0
 15 26  1  0  0  0  0
 16 18  1  0  0  0  0
 16 27  1  0  0  0  0
 17 18  2  0  0  0  0
 17 28  1  0  0  0  0
 18 30  1  0  0  0  0
 19 31  1  0  0  0  0
 19 32  1  0  0  0  0
 19 33  1  0  0  0  0
M  END
> <PUBCHEM_COMPOUND_CID>
188957

> <PUBCHEM_COMPOUND_CANONICALIZED>
1

> <PUBCHEM_CACTVS_COMPLEXITY>
299

> <PUBCHEM_CACTVS_HBOND_ACCEPTOR>
4

> <PUBCHEM_CACTVS_HBOND_DONOR>
2

> <PUBCHEM_CACTVS_ROTATABLE_BOND>
3

> <PUBCHEM_CACTVS_SUBSKEYS>
AAADccByMAAAAAAAAAAAAAAAAAAAASAAAAAwYAAAAAAAAEgBQAAAHgAQCAAADAyhmAcyzoLABgCAAiRCQACCCAAhIgAIiIAO7IgdNiLEsZukcCpk0BFO+AfQ8P8OoAABAAASQABAAAIAACSAAAAAAAAAAA==

> <PUBCHEM_IUPAC_OPENEYE_NAME>
[6-[2-(methylamino)phenyl]-1,3-benzodioxol-5-yl]methanol

> <PUBCHEM_IUPAC_CAS_NAME>
[6-[2-(methylamino)phenyl]-1,3-benzodioxol-5-yl]methanol

> <PUBCHEM_IUPAC_NAME>
[6-[2-(methylamino)phenyl]-1,3-benzodioxol-5-yl]methanol

> <PUBCHEM_IUPAC_SYSTEMATIC_NAME>
[6-[2-(methylamino)phenyl]-1,3-benzodioxol-5-yl]methanol

> <PUBCHEM_IUPAC_TRADITIONAL_NAME>
[6-[2-(methylamino)phenyl]-1,3-benzodioxol-5-yl]methanol

> <PUBCHEM_IUPAC_INCHI>
InChI=1S/C15H15NO3/c1-16-13-5-3-2-4-11(13)12-7-15-14(18-9-19-15)6-10(12)8-17/h2-7,16-17H,8-9H2,1H3

> <PUBCHEM_IUPAC_INCHIKEY>
GSEKYIWUAPZIEF-UHFFFAOYSA-N

> <PUBCHEM_XLOGP3_AA>
2.5

> <PUBCHEM_EXACT_MASS>
257.105193

> <PUBCHEM_MOLECULAR_FORMULA>
C15H15NO3

> <PUBCHEM_MOLECULAR_WEIGHT>
257.2845

> <PUBCHEM_OPENEYE_CAN_SMILES>
CNC1=CC=CC=C1C2=CC3=C(C=C2CO)OCO3

> <PUBCHEM_OPENEYE_ISO_SMILES>
CNC1=CC=CC=C1C2=CC3=C(C=C2CO)OCO3

> <PUBCHEM_CACTVS_TPSA>
50.7

> <PUBCHEM_MONOISOTOPIC_WEIGHT>
257.105193

> <PUBCHEM_TOTAL_CHARGE>
0

> <PUBCHEM_HEAVY_ATOM_COUNT>
19

> <PUBCHEM_ATOM_DEF_STEREO_COUNT>
0

> <PUBCHEM_ATOM_UDEF_STEREO_COUNT>
0

> <PUBCHEM_BOND_DEF_STEREO_COUNT>
0

> <PUBCHEM_BOND_UDEF_STEREO_COUNT>
0

> <PUBCHEM_ISOTOPIC_ATOM_COUNT>
0

> <PUBCHEM_COMPONENT_COUNT>
1

> <PUBCHEM_CACTVS_TAUTO_COUNT>
1

> <PUBCHEM_COORDINATE_TYPE>
1
5
255

> <PUBCHEM_BONDANNOTATIONS>
10  11  8
12  16  8
14  17  8
16  18  8
17  18  8
5  6  8
5  9  8
6  11  8
7  12  8
7  14  8
8  10  8
8  9  8

$$$$

