12650900
  -OEChem-07051213122D

 16 15  0     1  0  0  0  0  0999 V2000
    4.5981    0.0670    0.0000 O   0  0  0  0  0  0  0  0  0  0  0  0
    2.7320    1.2990    0.0000 N   0  0  0  0  0  0  0  0  0  0  0  0
    3.7320   -0.4330    0.0000 C   0  0  1  0  0  0  0  0  0  0  0  0
    2.8660   -0.9330    0.0000 C   0  0  0  0  0  0  0  0  0  0  0  0
    4.2320   -1.2990    0.0000 C   0  0  0  0  0  0  0  0  0  0  0  0
    2.0000   -0.4330    0.0000 C   0  0  0  0  0  0  0  0  0  0  0  0
    3.2320    0.4330    0.0000 C   0  0  0  0  0  0  0  0  0  0  0  0
    2.4675   -1.4080    0.0000 H   0  0  0  0  0  0  0  0  0  0  0  0
    3.2646   -1.4080    0.0000 H   0  0  0  0  0  0  0  0  0  0  0  0
    3.6951   -1.6090    0.0000 H   0  0  0  0  0  0  0  0  0  0  0  0
    4.5420   -1.8360    0.0000 H   0  0  0  0  0  0  0  0  0  0  0  0
    4.7690   -0.9890    0.0000 H   0  0  0  0  0  0  0  0  0  0  0  0
    2.3100    0.1039    0.0000 H   0  0  0  0  0  0  0  0  0  0  0  0
    1.4631   -0.1230    0.0000 H   0  0  0  0  0  0  0  0  0  0  0  0
    1.6900   -0.9699    0.0000 H   0  0  0  0  0  0  0  0  0  0  0  0
    5.1350   -0.2430    0.0000 H   0  0  0  0  0  0  0  0  0  0  0  0
  3  1  1  6  0  0  0
  1 16  1  0  0  0  0
  2  7  3  0  0  0  0
  3  4  1  0  0  0  0
  3  5  1  0  0  0  0
  3  7  1  0  0  0  0
  4  6  1  0  0  0  0
  4  8  1  0  0  0  0
  4  9  1  0  0  0  0
  5 10  1  0  0  0  0
  5 11  1  0  0  0  0
  5 12  1  0  0  0  0
  6 13  1  0  0  0  0
  6 14  1  0  0  0  0
  6 15  1  0  0  0  0
M  END
> <PUBCHEM_COMPOUND_CID>
12650900

> <PUBCHEM_COMPOUND_CANONICALIZED>
1

> <PUBCHEM_CACTVS_COMPLEXITY>
102

> <PUBCHEM_CACTVS_HBOND_ACCEPTOR>
2

> <PUBCHEM_CACTVS_HBOND_DONOR>
1

> <PUBCHEM_CACTVS_ROTATABLE_BOND>
1

> <PUBCHEM_CACTVS_SUBSKEYS>
AAADccBiIAAAAAAAAAAAAAAAAAAAAAAAAAAAAAAAAAAAAAAAAAAAHgAACAAADESBgAACAAAAAgAQBAAAAAAAAAAAAAAAAAAAAAAAgAAAAAAAQAAAAAAAAAgAAAAIAAAAAAAAAAAAAAAAAAAAAAAAAAAAAA==

> <PUBCHEM_IUPAC_OPENEYE_NAME>
(2R)-2-hydroxy-2-methyl-butanenitrile

> <PUBCHEM_IUPAC_CAS_NAME>
(2R)-2-hydroxy-2-methylbutanenitrile

> <PUBCHEM_IUPAC_NAME>
(2R)-2-hydroxy-2-methylbutanenitrile

> <PUBCHEM_IUPAC_SYSTEMATIC_NAME>
(2R)-2-methyl-2-oxidanyl-butanenitrile

> <PUBCHEM_IUPAC_TRADITIONAL_NAME>
(2R)-2-hydroxy-2-methyl-butyronitrile

> <PUBCHEM_IUPAC_INCHI>
InChI=1S/C5H9NO/c1-3-5(2,7)4-6/h7H,3H2,1-2H3/t5-/m1/s1

> <PUBCHEM_IUPAC_INCHIKEY>
VMEHOTODTPXCKT-RXMQYKEDSA-N

> <PUBCHEM_XLOGP3_AA>
0.4

> <PUBCHEM_EXACT_MASS>
99.068414

> <PUBCHEM_MOLECULAR_FORMULA>
C5H9NO

> <PUBCHEM_MOLECULAR_WEIGHT>
99.13106

> <PUBCHEM_OPENEYE_CAN_SMILES>
CCC(C)(C#N)O

> <PUBCHEM_OPENEYE_ISO_SMILES>
CC[C@](C)(C#N)O

> <PUBCHEM_CACTVS_TPSA>
44

> <PUBCHEM_MONOISOTOPIC_WEIGHT>
99.068414

> <PUBCHEM_TOTAL_CHARGE>
0

> <PUBCHEM_HEAVY_ATOM_COUNT>
7

> <PUBCHEM_ATOM_DEF_STEREO_COUNT>
1

> <PUBCHEM_ATOM_UDEF_STEREO_COUNT>
0

> <PUBCHEM_BOND_DEF_STEREO_COUNT>
0

> <PUBCHEM_BOND_UDEF_STEREO_COUNT>
0

> <PUBCHEM_ISOTOPIC_ATOM_COUNT>
0

> <PUBCHEM_COMPONENT_COUNT>
1

> <PUBCHEM_CACTVS_TAUTO_COUNT>
1

> <PUBCHEM_COORDINATE_TYPE>
1
5
255

> <PUBCHEM_BONDANNOTATIONS>
3  1  6

$$$$

