443454
  -OEChem-07051213022D

 51 54  0     1  0  0  0  0  0999 V2000
    6.8283   -0.7181    0.0000 O   0  0  0  0  0  0  0  0  0  0  0  0
    2.0000    0.7440    0.0000 O   0  0  0  0  0  0  0  0  0  0  0  0
    5.6292   -1.9679    0.0000 O   0  0  0  0  0  0  0  0  0  0  0  0
    2.7461   -2.8554    0.0000 O   0  0  0  0  0  0  0  0  0  0  0  0
    4.4778   -2.8857    0.0000 O   0  0  0  0  0  0  0  0  0  0  0  0
    5.2824    0.6802    0.0000 C   0  0  1  0  0  0  0  0  0  0  0  0
    4.3814    1.1141    0.0000 C   0  0  2  0  0  0  0  0  0  0  0  0
    3.6963    0.3938    0.0000 C   0  0  1  0  0  0  0  0  0  0  0  0
    4.1681   -0.4812    0.0000 C   0  0  2  0  0  0  0  0  0  0  0  0
    5.1464   -0.3045    0.0000 C   0  0  2  0  0  0  0  0  0  0  0  0
    5.1755    1.8570    0.0000 C   0  0  0  0  0  0  0  0  0  0  0  0
    6.1833    1.1141    0.0000 C   0  0  0  0  0  0  0  0  0  0  0  0
    5.7824    2.8708    0.0000 C   0  0  1  0  0  0  0  0  0  0  0  0
    3.6382   -1.3708    0.0000 C   0  0  2  0  0  0  0  0  0  0  0  0
    4.1589    2.0890    0.0000 C   0  0  0  0  0  0  0  0  0  0  0  0
    2.6618    0.4398    0.0000 C   0  0  0  0  0  0  0  0  0  0  0  0
    4.7824    2.8708    0.0000 C   0  0  0  0  0  0  0  0  0  0  0  0
    6.4058    2.0890    0.0000 C   0  0  0  0  0  0  0  0  0  0  0  0
    2.6030   -1.3487    0.0000 C   0  0  0  0  0  0  0  0  0  0  0  0
    2.1115   -0.4373    0.0000 C   0  0  0  0  0  0  0  0  0  0  0  0
    2.9492    1.0586    0.0000 C   0  0  0  0  0  0  0  0  0  0  0  0
    5.8680   -0.9968    0.0000 C   0  0  0  0  0  0  0  0  0  0  0  0
    4.4953   -1.8858    0.0000 C   0  0  0  0  0  0  0  0  0  0  0  0
    3.6207   -2.3706    0.0000 C   0  0  0  0  0  0  0  0  0  0  0  0
    7.3808    2.3115    0.0000 C   0  0  0  0  0  0  0  0  0  0  0  0
    3.6156    1.4829    0.0000 H   0  0  0  0  0  0  0  0  0  0  0  0
    4.6523   -1.1798    0.0000 H   0  0  0  0  0  0  0  0  0  0  0  0
    4.9673   -0.8981    0.0000 H   0  0  0  0  0  0  0  0  0  0  0  0
    4.7677    2.3240    0.0000 H   0  0  0  0  0  0  0  0  0  0  0  0
    4.6055    1.6132    0.0000 H   0  0  0  0  0  0  0  0  0  0  0  0
    6.3213    0.5096    0.0000 H   0  0  0  0  0  0  0  0  0  0  0  0
    6.8033    1.1141    0.0000 H   0  0  0  0  0  0  0  0  0  0  0  0
    5.9715    3.6995    0.0000 H   0  0  0  0  0  0  0  0  0  0  0  0
    3.7723    2.5738    0.0000 H   0  0  0  0  0  0  0  0  0  0  0  0
    3.6003    1.8200    0.0000 H   0  0  0  0  0  0  0  0  0  0  0  0
    2.7950    1.0454    0.0000 H   0  0  0  0  0  0  0  0  0  0  0  0
    2.0880    0.6746    0.0000 H   0  0  0  0  0  0  0  0  0  0  0  0
    4.9203    3.4753    0.0000 H   0  0  0  0  0  0  0  0  0  0  0  0
    4.2238    3.1399    0.0000 H   0  0  0  0  0  0  0  0  0  0  0  0
    2.0149   -1.5452    0.0000 H   0  0  0  0  0  0  0  0  0  0  0  0
    2.6960   -1.9617    0.0000 H   0  0  0  0  0  0  0  0  0  0  0  0
    1.6504   -0.0227    0.0000 H   0  0  0  0  0  0  0  0  0  0  0  0
    1.6242   -0.8206    0.0000 H   0  0  0  0  0  0  0  0  0  0  0  0
    3.0746    1.6658    0.0000 H   0  0  0  0  0  0  0  0  0  0  0  0
    4.1760   -2.4173    0.0000 H   0  0  0  0  0  0  0  0  0  0  0  0
    5.0268   -2.2052    0.0000 H   0  0  0  0  0  0  0  0  0  0  0  0
    4.8147   -1.3544    0.0000 H   0  0  0  0  0  0  0  0  0  0  0  0
    7.8025    1.8570    0.0000 H   0  0  0  0  0  0  0  0  0  0  0  0
    7.5635    2.9040    0.0000 H   0  0  0  0  0  0  0  0  0  0  0  0
    7.2757   -1.1473    0.0000 H   0  0  0  0  0  0  0  0  0  0  0  0
    2.7352   -3.4753    0.0000 H   0  0  0  0  0  0  0  0  0  0  0  0
  1 22  1  0  0  0  0
  1 50  1  0  0  0  0
  2 21  2  0  0  0  0
  3 22  2  0  0  0  0
  4 24  1  0  0  0  0
  4 51  1  0  0  0  0
  5 24  2  0  0  0  0
  6  7  1  0  0  0  0
  6 10  1  0  0  0  0
  6 11  1  6  0  0  0
  6 12  1  0  0  0  0
  7  8  1  0  0  0  0
  7 15  1  0  0  0  0
  7 26  1  1  0  0  0
  8  9  1  0  0  0  0
  8 16  1  0  0  0  0
  8 21  1  6  0  0  0
  9 10  1  0  0  0  0
  9 14  1  0  0  0  0
  9 27  1  1  0  0  0
 10 22  1  1  0  0  0
 10 28  1  0  0  0  0
 11 13  1  0  0  0  0
 11 29  1  0  0  0  0
 11 30  1  0  0  0  0
 12 18  1  0  0  0  0
 12 31  1  0  0  0  0
 12 32  1  0  0  0  0
 13 17  1  0  0  0  0
 13 18  1  0  0  0  0
 13 33  1  6  0  0  0
 14 19  1  0  0  0  0
 14 23  1  1  0  0  0
 14 24  1  0  0  0  0
 15 17  1  0  0  0  0
 15 34  1  0  0  0  0
 15 35  1  0  0  0  0
 16 20  1  0  0  0  0
 16 36  1  0  0  0  0
 16 37  1  0  0  0  0
 17 38  1  0  0  0  0
 17 39  1  0  0  0  0
 18 25  2  0  0  0  0
 19 20  1  0  0  0  0
 19 40  1  0  0  0  0
 19 41  1  0  0  0  0
 20 42  1  0  0  0  0
 20 43  1  0  0  0  0
 21 44  1  0  0  0  0
 23 45  1  0  0  0  0
 23 46  1  0  0  0  0
 23 47  1  0  0  0  0
 25 48  1  0  0  0  0
 25 49  1  0  0  0  0
M  END
> <PUBCHEM_COMPOUND_CID>
443454

> <PUBCHEM_COMPOUND_CANONICALIZED>
1

> <PUBCHEM_CACTVS_COMPLEXITY>
684

> <PUBCHEM_CACTVS_HBOND_ACCEPTOR>
5

> <PUBCHEM_CACTVS_HBOND_DONOR>
2

> <PUBCHEM_CACTVS_ROTATABLE_BOND>
3

> <PUBCHEM_CACTVS_SUBSKEYS>
AAADceB4OAAAAAAAAAAAAAAAAAAAAYMAAAAwYAAABgAAAGDAAAAAGgAACAAADwCggAICCAAAAgCIAgjSiAAAAAAgAAAAAAEAAAgAABIAAQAAQAAEgAAAAAGI7vCPgAAAAAAAAACAAAQAACAAAQAACAAAAA==

> <PUBCHEM_IUPAC_INCHI>
InChI=1S/C20H26O5/c1-11-8-20-9-12(11)4-5-13(20)19(10-21)7-3-6-18(2,17(24)25)15(19)14(20)16(22)23/h10,12-15H,1,3-9H2,2H3,(H,22,23)(H,24,25)/t12-,13+,14-,15-,18-,19-,20+/m1/s1

> <PUBCHEM_IUPAC_INCHIKEY>
QQRSSHFHXYSOMF-CXXOJBQZSA-N

> <PUBCHEM_XLOGP3_AA>
2.3

> <PUBCHEM_EXACT_MASS>
346.178024

> <PUBCHEM_MOLECULAR_FORMULA>
C20H26O5

> <PUBCHEM_MOLECULAR_WEIGHT>
346.41744

> <PUBCHEM_OPENEYE_CAN_SMILES>
CC1(CCCC2(C1C(C34C2CCC(C3)C(=C)C4)C(=O)O)C=O)C(=O)O

> <PUBCHEM_OPENEYE_ISO_SMILES>
C[C@]1(CCC[C@@]2([C@@H]1[C@@H]([C@]34[C@H]2CC[C@H](C3)C(=C)C4)C(=O)O)C=O)C(=O)O

> <PUBCHEM_CACTVS_TPSA>
91.7

> <PUBCHEM_MONOISOTOPIC_WEIGHT>
346.178024

> <PUBCHEM_TOTAL_CHARGE>
0

> <PUBCHEM_HEAVY_ATOM_COUNT>
25

> <PUBCHEM_ATOM_DEF_STEREO_COUNT>
7

> <PUBCHEM_ATOM_UDEF_STEREO_COUNT>
0

> <PUBCHEM_BOND_DEF_STEREO_COUNT>
0

> <PUBCHEM_BOND_UDEF_STEREO_COUNT>
0

> <PUBCHEM_ISOTOPIC_ATOM_COUNT>
0

> <PUBCHEM_COMPONENT_COUNT>
1

> <PUBCHEM_CACTVS_TAUTO_COUNT>
1

> <PUBCHEM_COORDINATE_TYPE>
1
5
255

> <PUBCHEM_BONDANNOTATIONS>
10  22  5
13  33  6
14  23  5
6  11  6
7  26  5
8  21  6
9  27  5

$$$$

