83030
  -OEChem-07051213032D

 25 24  0     0  0  0  0  0  0999 V2000
    6.0010   -0.2500    0.0000 Ge  0  0  0  0  0  0  0  0  0  0  0  0
    7.7331   -0.2500    0.0000 Ge  0  0  0  0  0  0  0  0  0  0  0  0
    6.8671    0.2500    0.0000 O   0  0  0  0  0  0  0  0  0  0  0  0
    6.0010   -1.2500    0.0000 O   0  0  0  0  0  0  0  0  0  0  0  0
    7.7331   -1.2500    0.0000 O   0  0  0  0  0  0  0  0  0  0  0  0
   11.1972   -0.2500    0.0000 O   0  0  0  0  0  0  0  0  0  0  0  0
    2.5369   -0.2500    0.0000 O   0  0  0  0  0  0  0  0  0  0  0  0
   10.3312    1.2500    0.0000 O   0  0  0  0  0  0  0  0  0  0  0  0
    3.4030    1.2500    0.0000 O   0  0  0  0  0  0  0  0  0  0  0  0
    8.5991    0.2500    0.0000 C   0  0  0  0  0  0  0  0  0  0  0  0
    5.1350    0.2500    0.0000 C   0  0  0  0  0  0  0  0  0  0  0  0
    4.2690   -0.2500    0.0000 C   0  0  0  0  0  0  0  0  0  0  0  0
    9.4651   -0.2500    0.0000 C   0  0  0  0  0  0  0  0  0  0  0  0
   10.3312    0.2500    0.0000 C   0  0  0  0  0  0  0  0  0  0  0  0
    3.4030    0.2500    0.0000 C   0  0  0  0  0  0  0  0  0  0  0  0
    8.9976    0.7249    0.0000 H   0  0  0  0  0  0  0  0  0  0  0  0
    8.2006    0.7249    0.0000 H   0  0  0  0  0  0  0  0  0  0  0  0
    5.5335    0.7249    0.0000 H   0  0  0  0  0  0  0  0  0  0  0  0
    4.7365    0.7249    0.0000 H   0  0  0  0  0  0  0  0  0  0  0  0
    9.0666   -0.7249    0.0000 H   0  0  0  0  0  0  0  0  0  0  0  0
    9.8637   -0.7249    0.0000 H   0  0  0  0  0  0  0  0  0  0  0  0
    3.8705   -0.7249    0.0000 H   0  0  0  0  0  0  0  0  0  0  0  0
    4.6675   -0.7249    0.0000 H   0  0  0  0  0  0  0  0  0  0  0  0
   11.7341    0.0600    0.0000 H   0  0  0  0  0  0  0  0  0  0  0  0
    2.0000    0.0600    0.0000 H   0  0  0  0  0  0  0  0  0  0  0  0
  1  3  1  0  0  0  0
  1  4  2  0  0  0  0
  1 11  1  0  0  0  0
  2  3  1  0  0  0  0
  2  5  2  0  0  0  0
  2 10  1  0  0  0  0
  6 14  1  0  0  0  0
  6 24  1  0  0  0  0
  7 15  1  0  0  0  0
  7 25  1  0  0  0  0
  8 14  2  0  0  0  0
  9 15  2  0  0  0  0
 10 13  1  0  0  0  0
 10 16  1  0  0  0  0
 10 17  1  0  0  0  0
 11 12  1  0  0  0  0
 11 18  1  0  0  0  0
 11 19  1  0  0  0  0
 12 15  1  0  0  0  0
 12 22  1  0  0  0  0
 12 23  1  0  0  0  0
 13 14  1  0  0  0  0
 13 20  1  0  0  0  0
 13 21  1  0  0  0  0
M  END
> <PUBCHEM_COMPOUND_CID>
83030

> <PUBCHEM_COMPOUND_CANONICALIZED>
1

> <PUBCHEM_CACTVS_COMPLEXITY>
259

> <PUBCHEM_CACTVS_HBOND_ACCEPTOR>
7

> <PUBCHEM_CACTVS_HBOND_DONOR>
2

> <PUBCHEM_CACTVS_ROTATABLE_BOND>
8

> <PUBCHEM_CACTVS_SUBSKEYS>
AAADccBgOAAAAAAAgAAAAAAAAAAAAAAAAAAAAAAAAAAAAAAAAAAAGgAACAAACACAgAAACAAAAgAIAACQCAAAAAAAAAAAAAEAAAAAAAAAAAAAQAAAAAAAAAAAAAAAAAAAAAAAAAAAAAAAAAAAAAAAAAAAAA==

> <PUBCHEM_IUPAC_OPENEYE_NAME>
3-[[2-carboxyethyl(oxo)germyl]oxy-oxo-germyl]propanoic acid

> <PUBCHEM_IUPAC_CAS_NAME>
3-[[2-carboxyethyl(oxo)germyl]oxy-oxogermyl]propanoic acid

> <PUBCHEM_IUPAC_NAME>
3-[[2-carboxyethyl(oxo)germyl]oxy-oxogermyl]propanoic acid

> <PUBCHEM_IUPAC_SYSTEMATIC_NAME>
3-[[3-hydroxy-3-oxopropyl(oxidanylidene)germyl]oxy-oxidanylidene-germyl]propanoic acid

> <PUBCHEM_IUPAC_TRADITIONAL_NAME>
3-[[2-carboxyethyl(keto)germyl]oxy-keto-germyl]propionic acid

> <PUBCHEM_IUPAC_INCHI>
InChI=1S/C6H10Ge2O7/c9-5(10)1-3-7(13)15-8(14)4-2-6(11)12/h1-4H2,(H,9,10)(H,11,12)

> <PUBCHEM_IUPAC_INCHIKEY>
XEABSBMNTNXEJM-UHFFFAOYSA-N

> <PUBCHEM_EXACT_MASS>
339.885906

> <PUBCHEM_MOLECULAR_FORMULA>
C6H10Ge2O7

> <PUBCHEM_MOLECULAR_WEIGHT>
339.4194

> <PUBCHEM_OPENEYE_CAN_SMILES>
C(C[Ge](=O)O[Ge](=O)CCC(=O)O)C(=O)O

> <PUBCHEM_OPENEYE_ISO_SMILES>
C(C[Ge](=O)O[Ge](=O)CCC(=O)O)C(=O)O

> <PUBCHEM_CACTVS_TPSA>
118

> <PUBCHEM_MONOISOTOPIC_WEIGHT>
341.885008

> <PUBCHEM_TOTAL_CHARGE>
0

> <PUBCHEM_HEAVY_ATOM_COUNT>
15

> <PUBCHEM_ATOM_DEF_STEREO_COUNT>
0

> <PUBCHEM_ATOM_UDEF_STEREO_COUNT>
0

> <PUBCHEM_BOND_DEF_STEREO_COUNT>
0

> <PUBCHEM_BOND_UDEF_STEREO_COUNT>
0

> <PUBCHEM_ISOTOPIC_ATOM_COUNT>
0

> <PUBCHEM_COMPONENT_COUNT>
1

> <PUBCHEM_CACTVS_TAUTO_COUNT>
1

> <PUBCHEM_COORDINATE_TYPE>
1
5
255

$$$$

