5281191
  -OEChem-07051212553D

 41 41  0     1  0  0  0  0  0999 V2000
   -4.2653   -0.0285    3.8430 O   0  0  0  0  0  0  0  0  0  0  0  0
   -5.9178   -0.2580   -1.5550 O   0  0  0  0  0  0  0  0  0  0  0  0
   -4.9174    1.7721   -1.4095 O   0  0  0  0  0  0  0  0  0  0  0  0
    2.2824   -3.4485   -0.9198 O   0  0  0  0  0  0  0  0  0  0  0  0
    4.0483   -2.8865    0.4072 O   0  0  0  0  0  0  0  0  0  0  0  0
    4.5220    1.8180    1.8772 O   0  0  0  0  0  0  0  0  0  0  0  0
    5.3640    2.3949   -0.1834 O   0  0  0  0  0  0  0  0  0  0  0  0
   -2.4890    0.7235   -0.9729 N   0  0  0  0  0  0  0  0  0  0  0  0
    3.8572   -0.3312   -0.1550 N   0  0  0  0  0  0  0  0  0  0  0  0
   -3.5770   -0.2298   -1.0724 C   0  0  1  0  0  0  0  0  0  0  0  0
   -3.6716   -1.0109    0.2419 C   0  0  0  0  0  0  0  0  0  0  0  0
    1.4071   -0.7894   -0.3179 C   0  0  0  0  0  0  0  0  0  0  0  0
   -3.9275   -0.1096    1.4560 C   0  0  0  0  0  0  0  0  0  0  0  0
    2.8195   -1.1705   -0.7634 C   0  0  2  0  0  0  0  0  0  0  0  0
    1.1980    0.6981   -0.4074 C   0  0  0  0  0  0  0  0  0  0  0  0
   -0.1428    1.1737   -0.6292 C   0  0  0  0  0  0  0  0  0  0  0  0
   -4.0481   -0.9080    2.7492 C   0  0  0  0  0  0  0  0  0  0  0  0
    2.2336    1.5384   -0.2777 C   0  0  0  0  0  0  0  0  0  0  0  0
   -1.2007    0.3652   -0.7633 C   0  0  0  0  0  0  0  0  0  0  0  0
   -4.8464    0.5510   -1.3515 C   0  0  0  0  0  0  0  0  0  0  0  0
    3.5367    0.9040    0.0082 C   0  0  0  0  0  0  0  0  0  0  0  0
    3.1396   -2.5694   -0.3458 C   0  0  0  0  0  0  0  0  0  0  0  0
    4.5953    1.8013    0.5416 C   0  0  0  0  0  0  0  0  0  0  0  0
   -3.4010   -0.9030   -1.9196 H   0  0  0  0  0  0  0  0  0  0  0  0
   -4.4950   -1.7332    0.1671 H   0  0  0  0  0  0  0  0  0  0  0  0
   -2.7681   -1.6072    0.4148 H   0  0  0  0  0  0  0  0  0  0  0  0
    0.7405   -1.3483   -0.9820 H   0  0  0  0  0  0  0  0  0  0  0  0
    1.2061   -1.1254    0.7079 H   0  0  0  0  0  0  0  0  0  0  0  0
   -4.8468    0.4725    1.3192 H   0  0  0  0  0  0  0  0  0  0  0  0
   -3.1242    0.6264    1.5777 H   0  0  0  0  0  0  0  0  0  0  0  0
    2.9250   -1.1117   -1.8545 H   0  0  0  0  0  0  0  0  0  0  0  0
   -2.6914    1.7167   -1.0316 H   0  0  0  0  0  0  0  0  0  0  0  0
   -0.2904    2.2498   -0.6875 H   0  0  0  0  0  0  0  0  0  0  0  0
   -4.8807   -1.6171    2.7026 H   0  0  0  0  0  0  0  0  0  0  0  0
   -3.1297   -1.4698    2.9454 H   0  0  0  0  0  0  0  0  0  0  0  0
    2.1518    2.6173   -0.3120 H   0  0  0  0  0  0  0  0  0  0  0  0
   -1.1090   -0.7106   -0.7160 H   0  0  0  0  0  0  0  0  0  0  0  0
   -5.0910    0.4554    3.6708 H   0  0  0  0  0  0  0  0  0  0  0  0
   -6.7327    0.2548   -1.7423 H   0  0  0  0  0  0  0  0  0  0  0  0
    2.4763   -4.3738   -0.6580 H   0  0  0  0  0  0  0  0  0  0  0  0
    5.2007    2.4005    2.2801 H   0  0  0  0  0  0  0  0  0  0  0  0
  1 17  1  0  0  0  0
  1 38  1  0  0  0  0
  2 20  1  0  0  0  0
  2 39  1  0  0  0  0
  3 20  2  0  0  0  0
  4 22  1  0  0  0  0
  4 40  1  0  0  0  0
  5 22  2  0  0  0  0
  6 23  1  0  0  0  0
  6 41  1  0  0  0  0
  7 23  2  0  0  0  0
  8 10  1  0  0  0  0
  8 19  1  0  0  0  0
  8 32  1  0  0  0  0
  9 14  1  0  0  0  0
  9 21  2  0  0  0  0
 10 11  1  0  0  0  0
 10 20  1  0  0  0  0
 10 24  1  0  0  0  0
 11 13  1  0  0  0  0
 11 25  1  0  0  0  0
 11 26  1  0  0  0  0
 12 14  1  0  0  0  0
 12 15  1  0  0  0  0
 12 27  1  0  0  0  0
 12 28  1  0  0  0  0
 13 17  1  0  0  0  0
 13 29  1  0  0  0  0
 13 30  1  0  0  0  0
 14 22  1  0  0  0  0
 14 31  1  0  0  0  0
 15 16  1  0  0  0  0
 15 18  2  0  0  0  0
 16 19  2  0  0  0  0
 16 33  1  0  0  0  0
 17 34  1  0  0  0  0
 17 35  1  0  0  0  0
 18 21  1  0  0  0  0
 18 36  1  0  0  0  0
 19 37  1  0  0  0  0
 21 23  1  0  0  0  0
M  END
> <PUBCHEM_COMPOUND_CID>
5281191

> <PUBCHEM_CONFORMER_RMSD>
1

> <PUBCHEM_CONFORMER_DIVERSEORDER>
1
11
31
9
17
14
45
27
30
19
16
47
15
5
12
43
36
39
35
8
24
21
46
32
20
22
44
7
37
33
13
48
26
28
25
40
23
34
2
3
4
42
38
29
6
41
18
10

> <PUBCHEM_MMFF94_PARTIAL_CHARGES>
29
1 -0.68
10 0.43
12 0.14
14 0.31
15 -0.14
16 -0.15
17 0.28
18 -0.14
19 -0.05
2 -0.65
20 0.66
21 0.44
22 0.66
23 0.72
3 -0.57
32 0.4
33 0.15
36 0.15
37 0.15
38 0.4
39 0.5
4 -0.65
40 0.5
41 0.5
5 -0.57
6 -0.65
7 -0.57
8 -0.87
9 -0.7

> <PUBCHEM_EFFECTIVE_ROTOR_COUNT>
9.4

> <PUBCHEM_PHARMACOPHORE_FEATURES>
15
1 1 acceptor
1 1 donor
1 2 acceptor
1 3 acceptor
1 4 acceptor
1 5 acceptor
1 6 acceptor
1 7 acceptor
1 8 cation
1 8 donor
1 9 acceptor
3 2 3 20 anion
3 4 5 22 anion
3 6 7 23 anion
6 9 12 14 15 18 21 rings

> <PUBCHEM_HEAVY_ATOM_COUNT>
23

> <PUBCHEM_ATOM_DEF_STEREO_COUNT>
2

> <PUBCHEM_ATOM_UDEF_STEREO_COUNT>
0

> <PUBCHEM_BOND_DEF_STEREO_COUNT>
1

> <PUBCHEM_BOND_UDEF_STEREO_COUNT>
0

> <PUBCHEM_ISOTOPIC_ATOM_COUNT>
0

> <PUBCHEM_COMPONENT_COUNT>
1

> <PUBCHEM_CACTVS_TAUTO_COUNT>
3

> <PUBCHEM_CONFORMER_ID>
005095A700000001

> <PUBCHEM_MMFF94_ENERGY>
41.9636

> <PUBCHEM_FEATURE_SELFOVERLAP>
76.294

> <PUBCHEM_SHAPE_FINGERPRINT>
10670039 82 15357688678371499216
10912923 1 17530683216860451239
11370993 144 18341038727250165273
11552529 35 17751076908355593223
11595378 159 15647059299863213619
11796584 16 16487262083890739432
12107183 9 17610901570983806577
12596602 18 17458345196028952983
13073987 5 18335144211270353741
13533116 47 18114471127805366447
13583140 156 18115313254822487037
13631057 29 17680722423479752631
14790565 3 17980483361092632820
15375358 24 18272939310267751029
17913733 40 18334577898167278290
20600515 1 16845577508592604893
20645477 70 18338245958524416782
20681651 13 18041003921190327039
21065201 7 17203608228538748967
21796203 349 18046601663805711338
22182313 1 17988349434322173371
23559900 14 17560795589118666870
268830 7 17603859018455582417
33824 294 18409739460664418262
3421961 26 18265625445114738118
42630746 31 18261403243423393492
4921388 177 16558738036710148411
5104073 3 18337394941325744401
90127 26 18411415154734042285
9709674 26 18201721764894183759

> <PUBCHEM_SHAPE_MULTIPOLES>
422.28
13.48
2.67
2.17
6.18
1.91
2.74
-2.65
1.84
-4.77
-0.4
4.53
0.19
2.7

> <PUBCHEM_SHAPE_SELFOVERLAP>
863.485

> <PUBCHEM_SHAPE_VOLUME>
240.4

> <PUBCHEM_COORDINATE_TYPE>
2
5
10

$$$$

