10183
  -OEChem-06261204212D

 34 36  0     1  0  0  0  0  0999 V2000
    3.3121   -0.3671    0.0000 O   0  0  0  0  0  0  0  0  0  0  0  0
    5.9781   -1.8879    0.0000 O   0  0  0  0  0  0  0  0  0  0  0  0
    2.3121   -1.4126    0.0000 O   0  0  0  0  0  0  0  0  0  0  0  0
    5.9781    1.1121    0.0000 O   0  0  0  0  0  0  0  0  0  0  0  0
    9.5082    0.1363    0.0000 O   0  0  0  0  0  0  0  0  0  0  0  0
    9.5082   -1.9120    0.0000 O   0  0  0  0  0  0  0  0  0  0  0  0
    8.5867    1.6567    0.0000 O   0  0  0  0  0  0  0  0  0  0  0  0
    6.8547    1.6367    0.0000 O   0  0  0  0  0  0  0  0  0  0  0  0
    3.3121   -1.4087    0.0000 C   0  0  3  0  0  0  0  0  0  0  0  0
    4.2181   -1.9225    0.0000 C   0  0  0  0  0  0  0  0  0  0  0  0
    5.1121   -1.3879    0.0000 C   0  0  0  0  0  0  0  0  0  0  0  0
    5.1121   -0.3879    0.0000 C   0  0  0  0  0  0  0  0  0  0  0  0
    4.2181    0.1468    0.0000 C   0  0  0  0  0  0  0  0  0  0  0  0
    5.9781    0.1121    0.0000 C   0  0  0  0  0  0  0  0  0  0  0  0
    6.8441   -0.3879    0.0000 C   0  0  0  0  0  0  0  0  0  0  0  0
    2.8154   -2.2766    0.0000 C   0  0  0  0  0  0  0  0  0  0  0  0
    6.8441   -1.3879    0.0000 C   0  0  0  0  0  0  0  0  0  0  0  0
    7.7381    0.1468    0.0000 C   0  0  0  0  0  0  0  0  0  0  0  0
    7.7381   -1.9225    0.0000 C   0  0  0  0  0  0  0  0  0  0  0  0
    8.6441   -0.3671    0.0000 C   0  0  0  0  0  0  0  0  0  0  0  0
    8.6441   -1.4087    0.0000 C   0  0  0  0  0  0  0  0  0  0  0  0
    7.7265    1.1467    0.0000 C   0  0  0  0  0  0  0  0  0  0  0  0
    3.8245   -2.4016    0.0000 H   0  0  0  0  0  0  0  0  0  0  0  0
    4.6227   -2.3923    0.0000 H   0  0  0  0  0  0  0  0  0  0  0  0
    4.6227    0.6166    0.0000 H   0  0  0  0  0  0  0  0  0  0  0  0
    3.8245    0.6258    0.0000 H   0  0  0  0  0  0  0  0  0  0  0  0
    2.2773   -1.9687    0.0000 H   0  0  0  0  0  0  0  0  0  0  0  0
    2.5075   -2.8148    0.0000 H   0  0  0  0  0  0  0  0  0  0  0  0
    3.3535   -2.5846    0.0000 H   0  0  0  0  0  0  0  0  0  0  0  0
    2.0000   -0.8768    0.0000 H   0  0  0  0  0  0  0  0  0  0  0  0
    7.7309   -2.5425    0.0000 H   0  0  0  0  0  0  0  0  0  0  0  0
    5.4412    1.4221    0.0000 H   0  0  0  0  0  0  0  0  0  0  0  0
   10.0463   -0.1717    0.0000 H   0  0  0  0  0  0  0  0  0  0  0  0
    8.5795    2.2766    0.0000 H   0  0  0  0  0  0  0  0  0  0  0  0
  1  9  1  0  0  0  0
  1 13  1  0  0  0  0
  2 11  1  0  0  0  0
  2 17  1  0  0  0  0
  3  9  1  0  0  0  0
  3 30  1  0  0  0  0
  4 14  1  0  0  0  0
  4 32  1  0  0  0  0
  5 20  1  0  0  0  0
  5 33  1  0  0  0  0
  6 21  2  0  0  0  0
  7 22  1  0  0  0  0
  7 34  1  0  0  0  0
  8 22  2  0  0  0  0
  9 10  1  0  0  0  0
  9 16  1  0  0  0  0
 10 11  1  0  0  0  0
 10 23  1  0  0  0  0
 10 24  1  0  0  0  0
 11 12  2  0  0  0  0
 12 13  1  0  0  0  0
 12 14  1  0  0  0  0
 13 25  1  0  0  0  0
 13 26  1  0  0  0  0
 14 15  2  0  0  0  0
 15 17  1  0  0  0  0
 15 18  1  0  0  0  0
 16 27  1  0  0  0  0
 16 28  1  0  0  0  0
 16 29  1  0  0  0  0
 17 19  2  0  0  0  0
 18 20  2  0  0  0  0
 18 22  1  0  0  0  0
 19 21  1  0  0  0  0
 19 31  1  0  0  0  0
 20 21  1  0  0  0  0
M  END
> <PUBCHEM_COMPOUND_CID>
10183

> <PUBCHEM_COMPOUND_CANONICALIZED>
1

> <PUBCHEM_CACTVS_COMPLEXITY>
736

> <PUBCHEM_CACTVS_HBOND_ACCEPTOR>
8

> <PUBCHEM_CACTVS_HBOND_DONOR>
4

> <PUBCHEM_CACTVS_ROTATABLE_BOND>
1

> <PUBCHEM_CACTVS_SUBSKEYS>
AAADccBwPAAAAAAAAAAAAAAAAAAAAAAAAAAgQIAAAAAAAACAAAAAGgAACAAADASggAICCAAABgCIAqDSCAIACAAgIAAACAFAAEgYBBAAIAACUAAFwAAMsQJCAAAAAAAAAAAAAAAAAAAAAAAAAAAAAAAAAA==

> <PUBCHEM_IUPAC_OPENEYE_NAME>
3,8,10-trihydroxy-3-methyl-7-oxo-1,4-dihydropyrano[4,3-b]chromene-9-carboxylic acid

> <PUBCHEM_IUPAC_CAS_NAME>
3,8,10-trihydroxy-3-methyl-7-oxo-1,4-dihydropyrano[4,3-b][1]benzopyran-9-carboxylic acid

> <PUBCHEM_IUPAC_NAME>
3,8,10-trihydroxy-3-methyl-7-oxo-1,4-dihydropyrano[4,3-b]chromene-9-carboxylic acid

> <PUBCHEM_IUPAC_SYSTEMATIC_NAME>
3-methyl-3,8,10-tris(oxidanyl)-7-oxidanylidene-1,4-dihydropyrano[4,3-b]chromene-9-carboxylic acid

> <PUBCHEM_IUPAC_TRADITIONAL_NAME>
3,8,10-trihydroxy-7-keto-3-methyl-1,4-dihydropyrano[4,3-b]chromene-9-carboxylic acid

> <PUBCHEM_IUPAC_INCHI>
InChI=1S/C14H12O8/c1-14(20)3-8-5(4-21-14)11(16)9-7(22-8)2-6(15)12(17)10(9)13(18)19/h2,16-17,20H,3-4H2,1H3,(H,18,19)

> <PUBCHEM_IUPAC_INCHIKEY>
LYLJWLBWIIQADO-UHFFFAOYSA-N

> <PUBCHEM_XLOGP3_AA>
-1.1

> <PUBCHEM_EXACT_MASS>
308.053217

> <PUBCHEM_MOLECULAR_FORMULA>
C14H12O8

> <PUBCHEM_MOLECULAR_WEIGHT>
308.24028

> <PUBCHEM_OPENEYE_CAN_SMILES>
CC1(CC2=C(CO1)C(=C3C(=CC(=O)C(=C3C(=O)O)O)O2)O)O

> <PUBCHEM_OPENEYE_ISO_SMILES>
CC1(CC2=C(CO1)C(=C3C(=CC(=O)C(=C3C(=O)O)O)O2)O)O

> <PUBCHEM_CACTVS_TPSA>
134

> <PUBCHEM_MONOISOTOPIC_WEIGHT>
308.053217

> <PUBCHEM_TOTAL_CHARGE>
0

> <PUBCHEM_HEAVY_ATOM_COUNT>
22

> <PUBCHEM_ATOM_DEF_STEREO_COUNT>
0

> <PUBCHEM_ATOM_UDEF_STEREO_COUNT>
1

> <PUBCHEM_BOND_DEF_STEREO_COUNT>
0

> <PUBCHEM_BOND_UDEF_STEREO_COUNT>
0

> <PUBCHEM_ISOTOPIC_ATOM_COUNT>
0

> <PUBCHEM_COMPONENT_COUNT>
1

> <PUBCHEM_CACTVS_TAUTO_COUNT>
33

> <PUBCHEM_COORDINATE_TYPE>
1
5
255

> <PUBCHEM_BONDANNOTATIONS>
11  12  8
12  14  8
14  15  8
15  18  8
17  19  8
18  20  8
19  21  8
2  11  8
2  17  8
20  21  8
9  16  3

$$$$

