73432
  -OEChem-07051212563D

 69 73  0     1  0  0  0  0  0999 V2000
    0.7485   -1.9633   -1.7800 O   0  0  0  0  0  0  0  0  0  0  0  0
   -0.3559    2.2478   -0.0089 O   0  0  0  0  0  0  0  0  0  0  0  0
   -1.5832   -3.1461   -0.5315 O   0  0  0  0  0  0  0  0  0  0  0  0
    0.9037   -2.1751    1.8795 O   0  0  0  0  0  0  0  0  0  0  0  0
    2.6086    0.6406    1.2265 O   0  0  0  0  0  0  0  0  0  0  0  0
    3.1780   -2.1939    0.7497 O   0  0  0  0  0  0  0  0  0  0  0  0
    3.3392   -2.1382   -1.5541 O   0  0  0  0  0  0  0  0  0  0  0  0
    1.2863    2.9981    1.3413 O   0  0  0  0  0  0  0  0  0  0  0  0
   -6.8892    1.1640    0.3734 O   0  0  0  0  0  0  0  0  0  0  0  0
   -6.0979   -1.0735    1.6319 O   0  0  0  0  0  0  0  0  0  0  0  0
    3.0950    1.7267   -0.7506 O   0  0  0  0  0  0  0  0  0  0  0  0
   -0.4227   -0.0818   -0.8853 C   0  0  2  0  0  0  0  0  0  0  0  0
   -1.4161   -0.7558    0.1431 C   0  0  1  0  0  0  0  0  0  0  0  0
    1.0192   -0.1403   -0.3791 C   0  0  2  0  0  0  0  0  0  0  0  0
   -2.9509   -0.4374   -0.1213 C   0  0  2  0  0  0  0  0  0  0  0  0
    1.2543   -1.6400   -0.4591 C   0  0  1  0  0  0  0  0  0  0  0  0
   -0.7505    1.3898   -1.1291 C   0  0  1  0  0  0  0  0  0  0  0  0
   -1.0562   -2.2474    0.4367 C   0  0  2  0  0  0  0  0  0  0  0  0
   -3.1106    1.1192   -0.2104 C   0  0  1  0  0  0  0  0  0  0  0  0
   -0.2080   -0.9340   -2.1482 C   0  0  0  0  0  0  0  0  0  0  0  0
    0.4666   -2.4787    0.5595 C   0  0  2  0  0  0  0  0  0  0  0  0
   -2.2380    1.6665   -1.3666 C   0  0  0  0  0  0  0  0  0  0  0  0
    1.2272    0.6335    0.9034 C   0  0  2  0  0  0  0  0  0  0  0  0
   -3.7787   -0.9107    1.0945 C   0  0  0  0  0  0  0  0  0  0  0  0
   -3.5360   -1.1199   -1.3870 C   0  0  0  0  0  0  0  0  0  0  0  0
   -4.5757    1.5774   -0.2162 C   0  0  0  0  0  0  0  0  0  0  0  0
    2.7032   -2.0159   -0.5159 C   0  0  0  0  0  0  0  0  0  0  0  0
    0.7582    2.0637    0.7444 C   0  0  0  0  0  0  0  0  0  0  0  0
   -5.2143   -0.4389    1.0542 C   0  0  0  0  0  0  0  0  0  0  0  0
   -5.5506    0.8349    0.3546 C   0  0  0  0  0  0  0  0  0  0  0  0
   -4.8430    2.9406   -0.8086 C   0  0  0  0  0  0  0  0  0  0  0  0
    3.4355    1.2221    0.3061 C   0  0  0  0  0  0  0  0  0  0  0  0
    4.5587   -2.5588    0.8429 C   0  0  0  0  0  0  0  0  0  0  0  0
    4.8243    1.1118    0.8125 C   0  0  0  0  0  0  0  0  0  0  0  0
    5.9254    1.5372    0.1671 C   0  0  0  0  0  0  0  0  0  0  0  0
    7.2801    1.3598    0.8039 C   0  0  0  0  0  0  0  0  0  0  0  0
    5.9654    2.2161   -1.1735 C   0  0  0  0  0  0  0  0  0  0  0  0
   -1.2222   -0.2524    1.1004 H   0  0  0  0  0  0  0  0  0  0  0  0
    1.6242    0.2937   -1.1814 H   0  0  0  0  0  0  0  0  0  0  0  0
   -0.1927    1.7708   -1.9939 H   0  0  0  0  0  0  0  0  0  0  0  0
   -1.5222   -2.5210    1.3912 H   0  0  0  0  0  0  0  0  0  0  0  0
   -2.7050    1.5525    0.7175 H   0  0  0  0  0  0  0  0  0  0  0  0
   -1.0927   -1.4280   -2.5422 H   0  0  0  0  0  0  0  0  0  0  0  0
    0.2396   -0.3574   -2.9662 H   0  0  0  0  0  0  0  0  0  0  0  0
    0.6705   -3.5444    0.3907 H   0  0  0  0  0  0  0  0  0  0  0  0
   -2.5543    1.2574   -2.3314 H   0  0  0  0  0  0  0  0  0  0  0  0
   -2.3540    2.7541   -1.4384 H   0  0  0  0  0  0  0  0  0  0  0  0
    0.6971    0.2235    1.7641 H   0  0  0  0  0  0  0  0  0  0  0  0
   -3.3465   -0.5446    2.0338 H   0  0  0  0  0  0  0  0  0  0  0  0
   -3.7954   -2.0062    1.1370 H   0  0  0  0  0  0  0  0  0  0  0  0
   -2.9987   -0.8618   -2.2981 H   0  0  0  0  0  0  0  0  0  0  0  0
   -3.5558   -2.2083   -1.2986 H   0  0  0  0  0  0  0  0  0  0  0  0
   -4.5747   -0.8278   -1.5735 H   0  0  0  0  0  0  0  0  0  0  0  0
   -1.4063   -4.0515   -0.2246 H   0  0  0  0  0  0  0  0  0  0  0  0
    1.7956   -2.5424    1.9934 H   0  0  0  0  0  0  0  0  0  0  0  0
   -4.1391    3.6731   -0.3984 H   0  0  0  0  0  0  0  0  0  0  0  0
   -5.8374    3.3346   -0.5873 H   0  0  0  0  0  0  0  0  0  0  0  0
   -4.7330    2.9114   -1.8971 H   0  0  0  0  0  0  0  0  0  0  0  0
   -7.0543    1.9003   -0.2349 H   0  0  0  0  0  0  0  0  0  0  0  0
    5.1836   -1.9036    0.2286 H   0  0  0  0  0  0  0  0  0  0  0  0
    4.6836   -3.6022    0.5394 H   0  0  0  0  0  0  0  0  0  0  0  0
    4.8669   -2.4554    1.8867 H   0  0  0  0  0  0  0  0  0  0  0  0
    4.9309    0.6387    1.7863 H   0  0  0  0  0  0  0  0  0  0  0  0
    7.9316    0.7737    0.1473 H   0  0  0  0  0  0  0  0  0  0  0  0
    7.2253    0.8385    1.7655 H   0  0  0  0  0  0  0  0  0  0  0  0
    7.7481    2.3338    0.9809 H   0  0  0  0  0  0  0  0  0  0  0  0
    5.0507    2.7581   -1.4174 H   0  0  0  0  0  0  0  0  0  0  0  0
    6.1664    1.4830   -1.9609 H   0  0  0  0  0  0  0  0  0  0  0  0
    6.7661    2.9643   -1.1967 H   0  0  0  0  0  0  0  0  0  0  0  0
  1 16  1  0  0  0  0
  1 20  1  0  0  0  0
  2 17  1  0  0  0  0
  2 28  1  0  0  0  0
  3 18  1  0  0  0  0
  3 54  1  0  0  0  0
  4 21  1  0  0  0  0
  4 55  1  0  0  0  0
  5 23  1  0  0  0  0
  5 32  1  0  0  0  0
  6 27  1  0  0  0  0
  6 33  1  0  0  0  0
  7 27  2  0  0  0  0
  8 28  2  0  0  0  0
  9 30  1  0  0  0  0
  9 59  1  0  0  0  0
 10 29  2  0  0  0  0
 11 32  2  0  0  0  0
 12 13  1  0  0  0  0
 12 14  1  0  0  0  0
 12 17  1  0  0  0  0
 12 20  1  0  0  0  0
 13 15  1  0  0  0  0
 13 18  1  0  0  0  0
 13 38  1  0  0  0  0
 14 16  1  0  0  0  0
 14 23  1  0  0  0  0
 14 39  1  0  0  0  0
 15 19  1  0  0  0  0
 15 24  1  0  0  0  0
 15 25  1  0  0  0  0
 16 21  1  0  0  0  0
 16 27  1  0  0  0  0
 17 22  1  0  0  0  0
 17 40  1  0  0  0  0
 18 21  1  0  0  0  0
 18 41  1  0  0  0  0
 19 22  1  0  0  0  0
 19 26  1  0  0  0  0
 19 42  1  0  0  0  0
 20 43  1  0  0  0  0
 20 44  1  0  0  0  0
 21 45  1  0  0  0  0
 22 46  1  0  0  0  0
 22 47  1  0  0  0  0
 23 28  1  0  0  0  0
 23 48  1  0  0  0  0
 24 29  1  0  0  0  0
 24 49  1  0  0  0  0
 24 50  1  0  0  0  0
 25 51  1  0  0  0  0
 25 52  1  0  0  0  0
 25 53  1  0  0  0  0
 26 30  2  0  0  0  0
 26 31  1  0  0  0  0
 29 30  1  0  0  0  0
 31 56  1  0  0  0  0
 31 57  1  0  0  0  0
 31 58  1  0  0  0  0
 32 34  1  0  0  0  0
 33 60  1  0  0  0  0
 33 61  1  0  0  0  0
 33 62  1  0  0  0  0
 34 35  2  0  0  0  0
 34 63  1  0  0  0  0
 35 36  1  0  0  0  0
 35 37  1  0  0  0  0
 36 64  1  0  0  0  0
 36 65  1  0  0  0  0
 36 66  1  0  0  0  0
 37 67  1  0  0  0  0
 37 68  1  0  0  0  0
 37 69  1  0  0  0  0
M  END
> <PUBCHEM_COMPOUND_CID>
73432

> <PUBCHEM_CONFORMER_RMSD>
1

> <PUBCHEM_CONFORMER_DIVERSEORDER>
2
5
1
4
3

> <PUBCHEM_MMFF94_PARTIAL_CHARGES>
35
1 -0.56
10 -0.57
11 -0.57
16 0.34
17 0.28
18 0.28
19 0.14
2 -0.43
20 0.28
21 0.28
23 0.34
24 0.06
26 -0.28
27 0.66
28 0.66
29 0.49
3 -0.68
30 0.09
31 0.14
32 0.71
33 0.28
34 -0.14
35 -0.28
36 0.14
37 0.14
4 -0.68
5 -0.43
54 0.4
55 0.4
59 0.45
6 -0.43
63 0.15
7 -0.57
8 -0.57
9 -0.53

> <PUBCHEM_EFFECTIVE_ROTOR_COUNT>
6.6

> <PUBCHEM_PHARMACOPHORE_FEATURES>
15
1 1 acceptor
1 10 acceptor
1 11 acceptor
1 3 acceptor
1 3 donor
1 4 acceptor
1 4 donor
1 7 acceptor
1 8 acceptor
1 9 donor
3 35 36 37 hydrophobe
6 12 13 15 17 19 22 rings
6 15 19 24 26 29 30 rings
6 2 12 14 17 23 28 rings
8 1 12 13 14 16 18 20 21 rings

> <PUBCHEM_HEAVY_ATOM_COUNT>
37

> <PUBCHEM_ATOM_DEF_STEREO_COUNT>
10

> <PUBCHEM_ATOM_UDEF_STEREO_COUNT>
0

> <PUBCHEM_BOND_DEF_STEREO_COUNT>
0

> <PUBCHEM_BOND_UDEF_STEREO_COUNT>
0

> <PUBCHEM_ISOTOPIC_ATOM_COUNT>
0

> <PUBCHEM_COMPONENT_COUNT>
1

> <PUBCHEM_CACTVS_TAUTO_COUNT>
17

> <PUBCHEM_CONFORMER_ID>
00011ED800000002

> <PUBCHEM_MMFF94_ENERGY>
149.1864

> <PUBCHEM_FEATURE_SELFOVERLAP>
76.286

> <PUBCHEM_SHAPE_FINGERPRINT>
10006869 2 18261116326174921120
10165383 225 18410573963835448393
10369192 42 18270680862367503116
10674148 151 16950550079395396848
11007060 377 18118692010926089312
11135926 11 18341348712747027972
11578080 2 17487358146610775381
12035758 1 18336539413409267248
12422481 6 18192178017013624570
12788726 201 17676483990785496360
13140716 1 18195527219072345761
13402501 40 18411980256244409264
14787075 74 18412550890210846998
14790565 3 18338234976403920592
14856354 85 18198901418463209823
14955137 171 18191588751094512202
15081414 286 18260541242786018312
15927050 60 18411421679027527570
1601671 61 18333733490053427576
1813 80 16415759738692552639
18608769 82 18339075965829668939
20691752 17 17846787329504958295
21033648 29 18271517680698997879
21756936 100 18336274444044531396
23559900 14 18057315300304637943
3178227 256 18335411318806356744
3298306 158 18335707113657484964
3411729 13 18410854386618595860
350125 39 18269556207668288212
392239 28 18268146633571731643
4093350 32 17241035604453609500
4340502 62 18272650156153213516
5104073 3 18270391810899254873
5265222 85 18124305014176857284
6086070 43 17241060824538650689
6669772 16 18334010614376188222
7226269 152 18186519869758039544

> <PUBCHEM_SHAPE_MULTIPOLES>
696.88
13.57
3.45
1.52
2.41
0.55
0.28
-7.38
-3.34
1.49
0.04
-0.06
0.33
0.66

> <PUBCHEM_SHAPE_SELFOVERLAP>
1523.654

> <PUBCHEM_SHAPE_VOLUME>
370.4

> <PUBCHEM_COORDINATE_TYPE>
2
5
10

$$$$

