11185733
  -OEChem-07051213043D

 48 51  0     1  0  0  0  0  0999 V2000
   -0.1239    2.6775   -0.3252 O   0  0  0  0  0  0  0  0  0  0  0  0
   -5.0099    0.9192    0.7744 O   0  0  0  0  0  0  0  0  0  0  0  0
    5.6515   -0.2349    0.9006 O   0  0  0  0  0  0  0  0  0  0  0  0
   -0.6384   -0.8908   -0.2952 C   0  0  2  0  0  0  0  0  0  0  0  0
    0.1742    0.3168    0.2756 C   0  0  1  0  0  0  0  0  0  0  0  0
    1.6608    0.3253   -0.2361 C   0  0  2  0  0  0  0  0  0  0  0  0
   -2.0533   -0.8435    0.2928 C   0  0  1  0  0  0  0  0  0  0  0  0
   -2.7938    0.4490   -0.1117 C   0  0  2  0  0  0  0  0  0  0  0  0
    2.2899   -1.0651    0.1243 C   0  0  1  0  0  0  0  0  0  0  0  0
    0.0525   -2.2233    0.0154 C   0  0  0  0  0  0  0  0  0  0  0  0
    1.5014   -2.2431   -0.4579 C   0  0  0  0  0  0  0  0  0  0  0  0
   -2.0811    1.6246    0.5371 C   0  0  0  0  0  0  0  0  0  0  0  0
   -3.0437   -1.9577   -0.0300 C   0  0  0  0  0  0  0  0  0  0  0  0
   -0.6226    1.6326    0.0900 C   0  0  0  0  0  0  0  0  0  0  0  0
    2.4992    1.3963    0.5235 C   0  0  0  0  0  0  0  0  0  0  0  0
    3.7718   -1.1731   -0.2474 C   0  0  0  0  0  0  0  0  0  0  0  0
   -4.1625    0.1000    0.4445 C   0  0  0  0  0  0  0  0  0  0  0  0
    1.7189    0.6031   -1.7584 C   0  0  0  0  0  0  0  0  0  0  0  0
   -4.3683   -1.4031    0.5117 C   0  0  0  0  0  0  0  0  0  0  0  0
   -2.9706    0.6829   -1.6232 C   0  0  0  0  0  0  0  0  0  0  0  0
    3.9946    1.3500    0.2167 C   0  0  0  0  0  0  0  0  0  0  0  0
    4.5536   -0.0426    0.3786 C   0  0  0  0  0  0  0  0  0  0  0  0
   -0.7106   -0.8052   -1.3848 H   0  0  0  0  0  0  0  0  0  0  0  0
    0.2210    0.1926    1.3693 H   0  0  0  0  0  0  0  0  0  0  0  0
   -1.9418   -0.8565    1.3910 H   0  0  0  0  0  0  0  0  0  0  0  0
    2.2395   -1.1651    1.2203 H   0  0  0  0  0  0  0  0  0  0  0  0
   -0.4854   -3.0487   -0.4653 H   0  0  0  0  0  0  0  0  0  0  0  0
    0.0240   -2.4147    1.0958 H   0  0  0  0  0  0  0  0  0  0  0  0
    1.9598   -3.1889   -0.1435 H   0  0  0  0  0  0  0  0  0  0  0  0
    1.5374   -2.2318   -1.5533 H   0  0  0  0  0  0  0  0  0  0  0  0
   -2.1063    1.5679    1.6315 H   0  0  0  0  0  0  0  0  0  0  0  0
   -2.5513    2.5733    0.2539 H   0  0  0  0  0  0  0  0  0  0  0  0
   -2.7869   -2.9035    0.4573 H   0  0  0  0  0  0  0  0  0  0  0  0
   -3.1061   -2.1446   -1.1074 H   0  0  0  0  0  0  0  0  0  0  0  0
    2.3634    1.2546    1.6044 H   0  0  0  0  0  0  0  0  0  0  0  0
    2.1487    2.4081    0.3003 H   0  0  0  0  0  0  0  0  0  0  0  0
    3.9323   -1.1549   -1.3297 H   0  0  0  0  0  0  0  0  0  0  0  0
    4.1795   -2.1183    0.1303 H   0  0  0  0  0  0  0  0  0  0  0  0
    2.7378    0.5528   -2.1524 H   0  0  0  0  0  0  0  0  0  0  0  0
    1.1266   -0.1103   -2.3370 H   0  0  0  0  0  0  0  0  0  0  0  0
    1.3457    1.6027   -1.9998 H   0  0  0  0  0  0  0  0  0  0  0  0
   -4.5188   -1.6925    1.5557 H   0  0  0  0  0  0  0  0  0  0  0  0
   -5.2157   -1.7113   -0.1042 H   0  0  0  0  0  0  0  0  0  0  0  0
   -2.0181    0.8428   -2.1373 H   0  0  0  0  0  0  0  0  0  0  0  0
   -3.4805   -0.1496   -2.1190 H   0  0  0  0  0  0  0  0  0  0  0  0
   -3.5872    1.5728   -1.7997 H   0  0  0  0  0  0  0  0  0  0  0  0
    4.5243    2.0216    0.9015 H   0  0  0  0  0  0  0  0  0  0  0  0
    4.2036    1.6876   -0.8032 H   0  0  0  0  0  0  0  0  0  0  0  0
  1 14  2  0  0  0  0
  2 17  2  0  0  0  0
  3 22  2  0  0  0  0
  4  5  1  0  0  0  0
  4  7  1  0  0  0  0
  4 10  1  0  0  0  0
  4 23  1  0  0  0  0
  5  6  1  0  0  0  0
  5 14  1  0  0  0  0
  5 24  1  0  0  0  0
  6  9  1  0  0  0  0
  6 15  1  0  0  0  0
  6 18  1  0  0  0  0
  7  8  1  0  0  0  0
  7 13  1  0  0  0  0
  7 25  1  0  0  0  0
  8 12  1  0  0  0  0
  8 17  1  0  0  0  0
  8 20  1  0  0  0  0
  9 11  1  0  0  0  0
  9 16  1  0  0  0  0
  9 26  1  0  0  0  0
 10 11  1  0  0  0  0
 10 27  1  0  0  0  0
 10 28  1  0  0  0  0
 11 29  1  0  0  0  0
 11 30  1  0  0  0  0
 12 14  1  0  0  0  0
 12 31  1  0  0  0  0
 12 32  1  0  0  0  0
 13 19  1  0  0  0  0
 13 33  1  0  0  0  0
 13 34  1  0  0  0  0
 15 21  1  0  0  0  0
 15 35  1  0  0  0  0
 15 36  1  0  0  0  0
 16 22  1  0  0  0  0
 16 37  1  0  0  0  0
 16 38  1  0  0  0  0
 17 19  1  0  0  0  0
 18 39  1  0  0  0  0
 18 40  1  0  0  0  0
 18 41  1  0  0  0  0
 19 42  1  0  0  0  0
 19 43  1  0  0  0  0
 20 44  1  0  0  0  0
 20 45  1  0  0  0  0
 20 46  1  0  0  0  0
 21 22  1  0  0  0  0
 21 47  1  0  0  0  0
 21 48  1  0  0  0  0
M  END
> <PUBCHEM_COMPOUND_CID>
11185733

> <PUBCHEM_CONFORMER_RMSD>
0.6

> <PUBCHEM_CONFORMER_DIVERSEORDER>
1

> <PUBCHEM_MMFF94_PARTIAL_CHARGES>
12
1 -0.57
12 0.06
14 0.45
16 0.06
17 0.45
19 0.06
2 -0.57
21 0.06
22 0.45
3 -0.57
5 0.06
8 0.06

> <PUBCHEM_EFFECTIVE_ROTOR_COUNT>
1.6

> <PUBCHEM_PHARMACOPHORE_FEATURES>
7
1 1 acceptor
1 2 acceptor
1 3 acceptor
5 7 8 13 17 19 rings
6 4 5 6 9 10 11 rings
6 4 5 7 8 12 14 rings
6 6 9 15 16 21 22 rings

> <PUBCHEM_HEAVY_ATOM_COUNT>
22

> <PUBCHEM_ATOM_DEF_STEREO_COUNT>
6

> <PUBCHEM_ATOM_UDEF_STEREO_COUNT>
0

> <PUBCHEM_BOND_DEF_STEREO_COUNT>
0

> <PUBCHEM_BOND_UDEF_STEREO_COUNT>
0

> <PUBCHEM_ISOTOPIC_ATOM_COUNT>
0

> <PUBCHEM_COMPONENT_COUNT>
1

> <PUBCHEM_CACTVS_TAUTO_COUNT>
18

> <PUBCHEM_CONFORMER_ID>
00AAAE4500000001

> <PUBCHEM_MMFF94_ENERGY>
67.083

> <PUBCHEM_FEATURE_SELFOVERLAP>
35.615

> <PUBCHEM_SHAPE_FINGERPRINT>
10062212 137 18340771451155890059
10967382 1 18409728486548274830
11132069 177 18413102858006634983
12011746 2 18409166628175709078
12236239 1 17918273143336910856
12403259 226 18338239366345657256
12403259 415 18412550907475417636
12403814 3 17846497024486631989
12633257 1 18334019384809780144
12839892 36 18337404824088145346
13140716 1 18337954472026145224
13214271 11 18333169466658563831
13224815 77 18411135835603846182
13675066 3 18273211976118876851
13862211 1 18410297969110302955
14178342 30 18337944675443464097
14223421 5 18264770041968550990
14341114 176 18408599292791861026
14787075 74 18269275672999453418
14790565 3 18194391196102354764
15163728 17 14636533420751461649
15196674 1 18409728430650253674
15536298 74 18261106404742373502
15788980 27 17131837564038427333
16945 1 18194968671317984470
17349148 13 18060418010654423138
1813 80 17418092135549810742
18186145 218 18411419522673428262
19141452 34 18408038494838529443
19591789 44 18265616485338373530
200 152 18114189622758590375
20028762 73 17970627385863724727
20715895 44 17914063242205965261
21033648 29 18340225036694982104
21267235 1 18411128126217009002
21421861 104 18057325195914595442
22182313 1 18269273641353140367
2334 1 18410854317762060031
23402539 116 18261399926938617894
23557571 272 18187355493893707486
23558518 356 18126838532930679576
23559900 14 18334858363958880550
26918003 58 18411140242361715265
2748010 2 18410573968008674303
296302 2 15863788395920960518
335352 9 18409447015818883655
34934 24 18410015481096044051
350125 39 18409448073188343040
5104073 3 18410292471583339322
7364860 26 18188767387383601534
9709674 26 18262516030062261022

> <PUBCHEM_SHAPE_MULTIPOLES>
435.14
9.25
2.3
1.01
2.12
0.18
0.4
0.31
-2.28
-0.27
0.03
-0.08
-0.2
0.19

> <PUBCHEM_SHAPE_SELFOVERLAP>
938.457

> <PUBCHEM_SHAPE_VOLUME>
238.1

> <PUBCHEM_COORDINATE_TYPE>
2
5
10

$$$$

