5281588
  -OEChem-07051212582D

 81 83  0     1  0  0  0  0  0999 V2000
    2.8660    0.8100    0.0000 O   0  0  0  0  0  0  0  0  0  0  0  0
    6.9641    0.4440    0.0000 O   0  0  0  0  0  0  0  0  0  0  0  0
    3.7226    0.2933    0.0000 O   0  0  0  0  0  0  0  0  0  0  0  0
    3.7118   -2.6532    0.0000 O   0  0  0  0  0  0  0  0  0  0  0  0
    6.4641    3.0420    0.0000 N   0  0  0  0  0  0  0  0  0  0  0  0
    5.4641    1.3100    0.0000 N   0  0  0  0  0  0  0  0  0  0  0  0
    5.4641   -0.6900    0.0000 N   0  0  0  0  0  0  0  0  0  0  0  0
    4.5981   -3.1900    0.0000 N   0  0  0  0  0  0  0  0  0  0  0  0
    6.9641    2.1760    0.0000 C   0  0  1  0  0  0  0  0  0  0  0  0
    7.9641    2.1760    0.0000 C   0  0  1  0  0  0  0  0  0  0  0  0
    4.5981    0.8100    0.0000 C   0  0  1  0  0  0  0  0  0  0  0  0
    8.4641    3.0421    0.0000 C   0  0  0  0  0  0  0  0  0  0  0  0
    6.4641    1.3100    0.0000 C   0  0  0  0  0  0  0  0  0  0  0  0
    3.7320    1.3100    0.0000 C   0  0  1  0  0  0  0  0  0  0  0  0
    8.4641    1.3100    0.0000 C   0  0  0  0  0  0  0  0  0  0  0  0
    5.4641   -1.6900    0.0000 C   0  0  1  0  0  0  0  0  0  0  0  0
    6.3301   -2.1900    0.0000 C   0  0  0  0  0  0  0  0  0  0  0  0
    4.5981   -0.1900    0.0000 C   0  0  0  0  0  0  0  0  0  0  0  0
    7.1962   -1.6900    0.0000 C   0  0  0  0  0  0  0  0  0  0  0  0
    9.4641    3.0421    0.0000 C   0  0  0  0  0  0  0  0  0  0  0  0
    3.7320    2.3100    0.0000 C   0  0  0  0  0  0  0  0  0  0  0  0
    6.9641    3.9081    0.0000 C   0  0  0  0  0  0  0  0  0  0  0  0
    5.4641    3.0420    0.0000 C   0  0  0  0  0  0  0  0  0  0  0  0
    4.5981   -2.1900    0.0000 C   0  0  0  0  0  0  0  0  0  0  0  0
    8.0622   -2.1900    0.0000 C   0  0  0  0  0  0  0  0  0  0  0  0
    7.1962   -0.6900    0.0000 C   0  0  0  0  0  0  0  0  0  0  0  0
    4.5981    2.8100    0.0000 C   0  0  0  0  0  0  0  0  0  0  0  0
    2.8660    2.8100    0.0000 C   0  0  0  0  0  0  0  0  0  0  0  0
    2.8660   -0.1900    0.0000 C   0  0  0  0  0  0  0  0  0  0  0  0
    4.5981    3.8100    0.0000 C   0  0  0  0  0  0  0  0  0  0  0  0
    2.8660    3.8100    0.0000 C   0  0  0  0  0  0  0  0  0  0  0  0
    3.7320   -0.6900    0.0000 C   0  0  0  0  0  0  0  0  0  0  0  0
    2.0000   -0.6900    0.0000 C   0  0  0  0  0  0  0  0  0  0  0  0
    3.7320    4.3100    0.0000 C   0  0  0  0  0  0  0  0  0  0  0  0
    3.7320   -3.6900    0.0000 C   0  0  0  0  0  0  0  0  0  0  0  0
    2.8660   -2.1900    0.0000 C   0  0  0  0  0  0  0  0  0  0  0  0
    3.7320   -1.6900    0.0000 C   0  0  0  0  0  0  0  0  0  0  0  0
    2.0000   -1.6900    0.0000 C   0  0  0  0  0  0  0  0  0  0  0  0
    2.8660   -3.1900    0.0000 C   0  0  0  0  0  0  0  0  0  0  0  0
    7.2741    2.7130    0.0000 H   0  0  0  0  0  0  0  0  0  0  0  0
    8.5841    2.1760    0.0000 H   0  0  0  0  0  0  0  0  0  0  0  0
    5.1350    0.5000    0.0000 H   0  0  0  0  0  0  0  0  0  0  0  0
    8.5718    3.6526    0.0000 H   0  0  0  0  0  0  0  0  0  0  0  0
    7.8815    3.2541    0.0000 H   0  0  0  0  0  0  0  0  0  0  0  0
    4.2690    1.6200    0.0000 H   0  0  0  0  0  0  0  0  0  0  0  0
    5.4641    1.9300    0.0000 H   0  0  0  0  0  0  0  0  0  0  0  0
    7.9272    1.0000    0.0000 H   0  0  0  0  0  0  0  0  0  0  0  0
    8.7741    0.7731    0.0000 H   0  0  0  0  0  0  0  0  0  0  0  0
    9.0010    1.6200    0.0000 H   0  0  0  0  0  0  0  0  0  0  0  0
    6.0010   -1.3800    0.0000 H   0  0  0  0  0  0  0  0  0  0  0  0
    5.9316   -2.6650    0.0000 H   0  0  0  0  0  0  0  0  0  0  0  0
    6.7287   -2.6649    0.0000 H   0  0  0  0  0  0  0  0  0  0  0  0
    6.6592   -1.3800    0.0000 H   0  0  0  0  0  0  0  0  0  0  0  0
    6.0010   -0.3800    0.0000 H   0  0  0  0  0  0  0  0  0  0  0  0
    9.4641    2.4221    0.0000 H   0  0  0  0  0  0  0  0  0  0  0  0
   10.0841    3.0421    0.0000 H   0  0  0  0  0  0  0  0  0  0  0  0
    9.4641    3.6621    0.0000 H   0  0  0  0  0  0  0  0  0  0  0  0
    5.4641    3.6620    0.0000 H   0  0  0  0  0  0  0  0  0  0  0  0
    4.8441    3.0420    0.0000 H   0  0  0  0  0  0  0  0  0  0  0  0
    5.4641    2.4220    0.0000 H   0  0  0  0  0  0  0  0  0  0  0  0
    7.5010    3.5981    0.0000 H   0  0  0  0  0  0  0  0  0  0  0  0
    7.2741    4.4450    0.0000 H   0  0  0  0  0  0  0  0  0  0  0  0
    6.4272    4.2181    0.0000 H   0  0  0  0  0  0  0  0  0  0  0  0
    7.8162   -0.6900    0.0000 H   0  0  0  0  0  0  0  0  0  0  0  0
    7.1962   -0.0700    0.0000 H   0  0  0  0  0  0  0  0  0  0  0  0
    6.5762   -0.6900    0.0000 H   0  0  0  0  0  0  0  0  0  0  0  0
    7.7522   -2.7269    0.0000 H   0  0  0  0  0  0  0  0  0  0  0  0
    8.5991   -2.5000    0.0000 H   0  0  0  0  0  0  0  0  0  0  0  0
    8.3722   -1.6530    0.0000 H   0  0  0  0  0  0  0  0  0  0  0  0
    5.1350    2.5000    0.0000 H   0  0  0  0  0  0  0  0  0  0  0  0
    2.3291    2.5000    0.0000 H   0  0  0  0  0  0  0  0  0  0  0  0
    5.1350   -3.5000    0.0000 H   0  0  0  0  0  0  0  0  0  0  0  0
    5.1350    4.1200    0.0000 H   0  0  0  0  0  0  0  0  0  0  0  0
    2.3291    4.1200    0.0000 H   0  0  0  0  0  0  0  0  0  0  0  0
    4.2690   -0.3800    0.0000 H   0  0  0  0  0  0  0  0  0  0  0  0
    1.4631   -0.3800    0.0000 H   0  0  0  0  0  0  0  0  0  0  0  0
    3.7320    4.9300    0.0000 H   0  0  0  0  0  0  0  0  0  0  0  0
    3.7320   -4.3100    0.0000 H   0  0  0  0  0  0  0  0  0  0  0  0
    4.2690   -2.0000    0.0000 H   0  0  0  0  0  0  0  0  0  0  0  0
    1.4631   -2.0000    0.0000 H   0  0  0  0  0  0  0  0  0  0  0  0
    2.3291   -3.5000    0.0000 H   0  0  0  0  0  0  0  0  0  0  0  0
  1 14  1  0  0  0  0
  1 29  1  0  0  0  0
  2 13  2  0  0  0  0
  3 18  2  0  0  0  0
  4 24  2  0  0  0  0
  9  5  1  1  0  0  0
  5 22  1  0  0  0  0
  5 23  1  0  0  0  0
 11  6  1  6  0  0  0
  6 13  1  0  0  0  0
  6 46  1  0  0  0  0
  7 16  1  0  0  0  0
  7 18  1  0  0  0  0
  7 54  1  0  0  0  0
  8 24  1  0  0  0  0
  8 35  1  0  0  0  0
  8 72  1  0  0  0  0
  9 10  1  0  0  0  0
  9 13  1  0  0  0  0
  9 40  1  0  0  0  0
 10 12  1  0  0  0  0
 10 15  1  1  0  0  0
 10 41  1  0  0  0  0
 11 14  1  0  0  0  0
 11 18  1  0  0  0  0
 11 42  1  0  0  0  0
 12 20  1  0  0  0  0
 12 43  1  0  0  0  0
 12 44  1  0  0  0  0
 14 21  1  6  0  0  0
 14 45  1  0  0  0  0
 15 47  1  0  0  0  0
 15 48  1  0  0  0  0
 15 49  1  0  0  0  0
 16 17  1  1  0  0  0
 16 24  1  0  0  0  0
 16 50  1  0  0  0  0
 17 19  1  0  0  0  0
 17 51  1  0  0  0  0
 17 52  1  0  0  0  0
 19 25  1  0  0  0  0
 19 26  1  0  0  0  0
 19 53  1  0  0  0  0
 20 55  1  0  0  0  0
 20 56  1  0  0  0  0
 20 57  1  0  0  0  0
 21 27  2  0  0  0  0
 21 28  1  0  0  0  0
 22 61  1  0  0  0  0
 22 62  1  0  0  0  0
 22 63  1  0  0  0  0
 23 58  1  0  0  0  0
 23 59  1  0  0  0  0
 23 60  1  0  0  0  0
 25 67  1  0  0  0  0
 25 68  1  0  0  0  0
 25 69  1  0  0  0  0
 26 64  1  0  0  0  0
 26 65  1  0  0  0  0
 26 66  1  0  0  0  0
 27 30  1  0  0  0  0
 27 70  1  0  0  0  0
 28 31  2  0  0  0  0
 28 71  1  0  0  0  0
 29 32  2  0  0  0  0
 29 33  1  0  0  0  0
 30 34  2  0  0  0  0
 30 73  1  0  0  0  0
 31 34  1  0  0  0  0
 31 74  1  0  0  0  0
 32 37  1  0  0  0  0
 32 75  1  0  0  0  0
 33 38  2  0  0  0  0
 33 76  1  0  0  0  0
 34 77  1  0  0  0  0
 35 39  2  0  0  0  0
 35 78  1  0  0  0  0
 36 37  2  0  0  0  0
 36 38  1  0  0  0  0
 36 39  1  0  0  0  0
 37 79  1  0  0  0  0
 38 80  1  0  0  0  0
 39 81  1  0  0  0  0
M  END
> <PUBCHEM_COMPOUND_CID>
5281588

> <PUBCHEM_COMPOUND_CANONICALIZED>
1

> <PUBCHEM_CACTVS_COMPLEXITY>
830

> <PUBCHEM_CACTVS_HBOND_ACCEPTOR>
5

> <PUBCHEM_CACTVS_HBOND_DONOR>
3

> <PUBCHEM_CACTVS_ROTATABLE_BOND>
8

> <PUBCHEM_CACTVS_SUBSKEYS>
AAADcfB7uAAAAAAAAAAAAAAAAAAAAAAAAAAwYAAAAAAAAAABQAAAHgAQAAAADTzhmAYyBoPABACIAiFWUAACCAAgIgAIiIGOCIgOZjaEsTuXOCCm9hGYqAeYyKCOIAAAAAAAAABAAAAAAAAAAAAAAAAAAA==

> <PUBCHEM_IUPAC_OPENEYE_NAME>
(2S,3R)-2-(dimethylamino)-N-[(2Z,6S,9S,10R)-6-isobutyl-5,8-dioxo-10-phenyl-11-oxa-4,7-diazabicyclo[10.2.2]hexadeca-1(14),2,12,15-tetraen-9-yl]-3-methyl-pentanamide

> <PUBCHEM_IUPAC_CAS_NAME>
(2S,3R)-2-(dimethylamino)-3-methyl-N-[(2Z,6S,9S,10R)-6-(2-methylpropyl)-5,8-dioxo-10-phenyl-11-oxa-4,7-diazabicyclo[10.2.2]hexadeca-1(14),2,12,15-tetraen-9-yl]pentanamide

> <PUBCHEM_IUPAC_NAME>
(2S,3R)-2-(dimethylamino)-3-methyl-N-[(2Z,6S,9S,10R)-6-(2-methylpropyl)-5,8-dioxo-10-phenyl-11-oxa-4,7-diazabicyclo[10.2.2]hexadeca-1(14),2,12,15-tetraen-9-yl]pentanamide

> <PUBCHEM_IUPAC_SYSTEMATIC_NAME>
(2S,3R)-2-(dimethylamino)-3-methyl-N-[(2Z,6S,9S,10R)-6-(2-methylpropyl)-5,8-bis(oxidanylidene)-10-phenyl-11-oxa-4,7-diazabicyclo[10.2.2]hexadeca-1(14),2,12,15-tetraen-9-yl]pentanamide

> <PUBCHEM_IUPAC_TRADITIONAL_NAME>
(2S,3R)-2-(dimethylamino)-N-[(2Z,6S,9S,10R)-6-isobutyl-5,8-diketo-10-phenyl-11-oxa-4,7-diazabicyclo[10.2.2]hexadeca-1(14),2,12,15-tetraen-9-yl]-3-methyl-valeramide

> <PUBCHEM_IUPAC_INCHI>
InChI=1S/C31H42N4O4/c1-7-21(4)27(35(5)6)31(38)34-26-28(23-11-9-8-10-12-23)39-24-15-13-22(14-16-24)17-18-32-29(36)25(19-20(2)3)33-30(26)37/h8-18,20-21,25-28H,7,19H2,1-6H3,(H,32,36)(H,33,37)(H,34,38)/b18-17-/t21-,25+,26+,27+,28-/m1/s1

> <PUBCHEM_IUPAC_INCHIKEY>
KGRSGRNSVOPQEA-NNQIDPCFSA-N

> <PUBCHEM_XLOGP3_AA>
5.1

> <PUBCHEM_EXACT_MASS>
534.320606

> <PUBCHEM_MOLECULAR_FORMULA>
C31H42N4O4

> <PUBCHEM_MOLECULAR_WEIGHT>
534.68958

> <PUBCHEM_OPENEYE_CAN_SMILES>
CCC(C)C(C(=O)NC1C(OC2=CC=C(C=C2)C=CNC(=O)C(NC1=O)CC(C)C)C3=CC=CC=C3)N(C)C

> <PUBCHEM_OPENEYE_ISO_SMILES>
CC[C@@H](C)[C@@H](C(=O)N[C@H]1[C@H](OC2=CC=C(C=C2)/C=C\NC(=O)[C@@H](NC1=O)CC(C)C)C3=CC=CC=C3)N(C)C

> <PUBCHEM_CACTVS_TPSA>
99.8

> <PUBCHEM_MONOISOTOPIC_WEIGHT>
534.320606

> <PUBCHEM_TOTAL_CHARGE>
0

> <PUBCHEM_HEAVY_ATOM_COUNT>
39

> <PUBCHEM_ATOM_DEF_STEREO_COUNT>
5

> <PUBCHEM_ATOM_UDEF_STEREO_COUNT>
0

> <PUBCHEM_BOND_DEF_STEREO_COUNT>
1

> <PUBCHEM_BOND_UDEF_STEREO_COUNT>
0

> <PUBCHEM_ISOTOPIC_ATOM_COUNT>
0

> <PUBCHEM_COMPONENT_COUNT>
1

> <PUBCHEM_CACTVS_TAUTO_COUNT>
18

> <PUBCHEM_COORDINATE_TYPE>
1
5
255

> <PUBCHEM_BONDANNOTATIONS>
10  15  5
14  21  6
16  17  5
21  27  8
21  28  8
27  30  8
28  31  8
29  32  8
29  33  8
30  34  8
31  34  8
32  37  8
33  38  8
36  37  8
36  38  8
9  5  5
11  6  6

$$$$

