10666
  -OEChem-07051212463D

 20 20  0     0  0  0  0  0  0999 V2000
   -2.0674    1.2235    0.4021 O   0  0  0  0  0  0  0  0  0  0  0  0
    1.3585   -2.0158   -0.1847 O   0  0  0  0  0  0  0  0  0  0  0  0
    1.9445    0.2363   -0.0436 N   0  0  0  0  0  0  0  0  0  0  0  0
   -2.1949   -2.3442    0.1078 N   0  0  0  0  0  0  0  0  0  0  0  0
   -0.7555    0.8212    0.2493 C   0  0  0  0  0  0  0  0  0  0  0  0
    1.0395   -0.8337   -0.0537 C   0  0  0  0  0  0  0  0  0  0  0  0
   -0.4145   -0.4709    0.1082 C   0  0  0  0  0  0  0  0  0  0  0  0
    1.5313    1.5469    0.1057 C   0  0  0  0  0  0  0  0  0  0  0  0
    0.2410    1.8638    0.2490 C   0  0  0  0  0  0  0  0  0  0  0  0
    3.3753   -0.0053   -0.1936 C   0  0  0  0  0  0  0  0  0  0  0  0
   -2.6618    1.4816   -0.8546 C   0  0  0  0  0  0  0  0  0  0  0  0
   -1.3959   -1.5033    0.1081 C   0  0  0  0  0  0  0  0  0  0  0  0
    2.3031    2.3087    0.1022 H   0  0  0  0  0  0  0  0  0  0  0  0
   -0.0698    2.8956    0.3676 H   0  0  0  0  0  0  0  0  0  0  0  0
    3.7355    0.5204   -1.0836 H   0  0  0  0  0  0  0  0  0  0  0  0
    3.5904   -1.0715   -0.3036 H   0  0  0  0  0  0  0  0  0  0  0  0
    3.8963    0.3695    0.6932 H   0  0  0  0  0  0  0  0  0  0  0  0
   -2.1583    2.3061   -1.3719 H   0  0  0  0  0  0  0  0  0  0  0  0
   -3.7003    1.7809   -0.6833 H   0  0  0  0  0  0  0  0  0  0  0  0
   -2.6725    0.5916   -1.4932 H   0  0  0  0  0  0  0  0  0  0  0  0
  1  5  1  0  0  0  0
  1 11  1  0  0  0  0
  2  6  2  0  0  0  0
  3  6  1  0  0  0  0
  3  8  1  0  0  0  0
  3 10  1  0  0  0  0
  4 12  3  0  0  0  0
  5  7  2  0  0  0  0
  5  9  1  0  0  0  0
  6  7  1  0  0  0  0
  7 12  1  0  0  0  0
  8  9  2  0  0  0  0
  8 13  1  0  0  0  0
  9 14  1  0  0  0  0
 10 15  1  0  0  0  0
 10 16  1  0  0  0  0
 10 17  1  0  0  0  0
 11 18  1  0  0  0  0
 11 19  1  0  0  0  0
 11 20  1  0  0  0  0
M  END
> <PUBCHEM_COMPOUND_CID>
10666

> <PUBCHEM_CONFORMER_RMSD>
0.4

> <PUBCHEM_CONFORMER_DIVERSEORDER>
1
2

> <PUBCHEM_MMFF94_PARTIAL_CHARGES>
14
1 -0.36
10 0.3
11 0.28
12 0.49
13 0.15
14 0.15
2 -0.57
3 -0.47
4 -0.56
5 0.08
6 0.62
7 0.08
8 -0.04
9 -0.15

> <PUBCHEM_EFFECTIVE_ROTOR_COUNT>
1

> <PUBCHEM_PHARMACOPHORE_FEATURES>
4
1 1 acceptor
1 2 acceptor
1 4 acceptor
6 3 5 6 7 8 9 rings

> <PUBCHEM_HEAVY_ATOM_COUNT>
12

> <PUBCHEM_ATOM_DEF_STEREO_COUNT>
0

> <PUBCHEM_ATOM_UDEF_STEREO_COUNT>
0

> <PUBCHEM_BOND_DEF_STEREO_COUNT>
0

> <PUBCHEM_BOND_UDEF_STEREO_COUNT>
0

> <PUBCHEM_ISOTOPIC_ATOM_COUNT>
0

> <PUBCHEM_COMPONENT_COUNT>
1

> <PUBCHEM_CACTVS_TAUTO_COUNT>
1

> <PUBCHEM_CONFORMER_ID>
000029AA00000001

> <PUBCHEM_MMFF94_ENERGY>
31.4444

> <PUBCHEM_FEATURE_SELFOVERLAP>
20.297

> <PUBCHEM_SHAPE_FINGERPRINT>
11206711 2 18339637820012210614
12138202 97 18272375303673221111
12524768 44 18117833524098547518
13380535 21 18337938091094938918
13380535 76 18337116781715756318
161256 15 17975975362711342745
16945 1 18337388348250452824
193761 8 18410292471525316136
20588541 1 18337109080881508124
21040471 1 18338797930588836768
21501502 16 18267580217400392793
2334 1 18193276295564085008
23552423 10 18199466571724122248
23559900 14 18334007329532639556
2748010 2 18264210218783131916
5084963 1 17970619701970916074
528886 8 18409453625958343712

> <PUBCHEM_SHAPE_MULTIPOLES>
225.25
3.83
2.42
0.68
1.07
0.67
0.05
-0.15
0.58
-1.12
-0.01
-0.16
-0.13
0.35

> <PUBCHEM_SHAPE_SELFOVERLAP>
466.304

> <PUBCHEM_SHAPE_VOLUME>
127.2

> <PUBCHEM_COORDINATE_TYPE>
2
5
10

$$$$

