11011465
  -OEChem-07051213083D

 46 46  0     1  0  0  0  0  0999 V2000
   -3.3119   -1.5607   -1.2328 O   0  0  0  0  0  0  0  0  0  0  0  0
   -5.4933   -0.3913    1.3616 O   0  0  0  0  0  0  0  0  0  0  0  0
    3.5880   -2.6865    0.6321 O   0  0  0  0  0  0  0  0  0  0  0  0
    2.8284   -1.7145   -1.3166 O   0  0  0  0  0  0  0  0  0  0  0  0
   -3.6248   -1.1569    0.1065 C   0  0  1  0  0  0  0  0  0  0  0  0
   -3.3164   -0.1524   -0.9655 C   0  0  1  0  0  0  0  0  0  0  0  0
   -1.9648    0.4856   -1.0702 C   0  0  0  0  0  0  0  0  0  0  0  0
   -5.0368   -1.4112    0.4804 C   0  0  0  0  0  0  0  0  0  0  0  0
   -2.5918   -1.5502    1.0946 C   0  0  0  0  0  0  0  0  0  0  0  0
   -1.8316    1.6878   -0.1314 C   0  0  0  0  0  0  0  0  0  0  0  0
   -0.4641    2.3291   -0.2050 C   0  0  0  0  0  0  0  0  0  0  0  0
    0.4144    2.3926    0.8151 C   0  0  0  0  0  0  0  0  0  0  0  0
   -0.0982    2.9050   -1.5492 C   0  0  0  0  0  0  0  0  0  0  0  0
    1.7949    2.9898    0.8155 C   0  0  0  0  0  0  0  0  0  0  0  0
    2.8789    2.0042    1.2764 C   0  0  0  0  0  0  0  0  0  0  0  0
    3.0478    0.7958    0.3790 C   0  0  0  0  0  0  0  0  0  0  0  0
    3.3371    1.1170   -1.0665 C   0  0  0  0  0  0  0  0  0  0  0  0
    2.9472   -0.4912    0.7611 C   0  0  0  0  0  0  0  0  0  0  0  0
    3.0976   -1.6686   -0.1282 C   0  0  0  0  0  0  0  0  0  0  0  0
    3.7996   -3.9233   -0.0568 C   0  0  0  0  0  0  0  0  0  0  0  0
   -4.1147    0.4461   -1.3830 H   0  0  0  0  0  0  0  0  0  0  0  0
   -1.8417    0.8130   -2.1101 H   0  0  0  0  0  0  0  0  0  0  0  0
   -1.1551   -0.2302   -0.8889 H   0  0  0  0  0  0  0  0  0  0  0  0
   -5.6929   -1.4107   -0.3975 H   0  0  0  0  0  0  0  0  0  0  0  0
   -5.1485   -2.3796    0.9794 H   0  0  0  0  0  0  0  0  0  0  0  0
   -2.8362   -2.5190    1.5446 H   0  0  0  0  0  0  0  0  0  0  0  0
   -1.5919   -1.6567    0.6639 H   0  0  0  0  0  0  0  0  0  0  0  0
   -2.5374   -0.8158    1.9045 H   0  0  0  0  0  0  0  0  0  0  0  0
   -2.5948    2.4381   -0.3745 H   0  0  0  0  0  0  0  0  0  0  0  0
   -2.0405    1.3747    0.8987 H   0  0  0  0  0  0  0  0  0  0  0  0
   -6.4175   -0.5979    1.5826 H   0  0  0  0  0  0  0  0  0  0  0  0
    0.1038    1.9670    1.7687 H   0  0  0  0  0  0  0  0  0  0  0  0
    0.6059    3.7380   -1.4993 H   0  0  0  0  0  0  0  0  0  0  0  0
   -0.9918    3.3130   -2.0364 H   0  0  0  0  0  0  0  0  0  0  0  0
    0.3121    2.1287   -2.2018 H   0  0  0  0  0  0  0  0  0  0  0  0
    1.7852    3.8336    1.5175 H   0  0  0  0  0  0  0  0  0  0  0  0
    2.0818    3.4134   -0.1490 H   0  0  0  0  0  0  0  0  0  0  0  0
    3.8387    2.5339    1.3288 H   0  0  0  0  0  0  0  0  0  0  0  0
    2.6572    1.6770    2.3008 H   0  0  0  0  0  0  0  0  0  0  0  0
    2.4170    1.1195   -1.6567 H   0  0  0  0  0  0  0  0  0  0  0  0
    3.8035    2.1044   -1.1586 H   0  0  0  0  0  0  0  0  0  0  0  0
    4.0530    0.4213   -1.5153 H   0  0  0  0  0  0  0  0  0  0  0  0
    2.7613   -0.7127    1.8096 H   0  0  0  0  0  0  0  0  0  0  0  0
    2.8535   -4.3005   -0.4568 H   0  0  0  0  0  0  0  0  0  0  0  0
    4.5326   -3.7898   -0.8581 H   0  0  0  0  0  0  0  0  0  0  0  0
    4.1918   -4.6492    0.6604 H   0  0  0  0  0  0  0  0  0  0  0  0
  1  5  1  0  0  0  0
  1  6  1  0  0  0  0
  2  8  1  0  0  0  0
  2 31  1  0  0  0  0
  3 19  1  0  0  0  0
  3 20  1  0  0  0  0
  4 19  2  0  0  0  0
  5  6  1  0  0  0  0
  5  8  1  0  0  0  0
  5  9  1  0  0  0  0
  6  7  1  0  0  0  0
  6 21  1  0  0  0  0
  7 10  1  0  0  0  0
  7 22  1  0  0  0  0
  7 23  1  0  0  0  0
  8 24  1  0  0  0  0
  8 25  1  0  0  0  0
  9 26  1  0  0  0  0
  9 27  1  0  0  0  0
  9 28  1  0  0  0  0
 10 11  1  0  0  0  0
 10 29  1  0  0  0  0
 10 30  1  0  0  0  0
 11 12  2  0  0  0  0
 11 13  1  0  0  0  0
 12 14  1  0  0  0  0
 12 32  1  0  0  0  0
 13 33  1  0  0  0  0
 13 34  1  0  0  0  0
 13 35  1  0  0  0  0
 14 15  1  0  0  0  0
 14 36  1  0  0  0  0
 14 37  1  0  0  0  0
 15 16  1  0  0  0  0
 15 38  1  0  0  0  0
 15 39  1  0  0  0  0
 16 17  1  0  0  0  0
 16 18  2  0  0  0  0
 17 40  1  0  0  0  0
 17 41  1  0  0  0  0
 17 42  1  0  0  0  0
 18 19  1  0  0  0  0
 18 43  1  0  0  0  0
 20 44  1  0  0  0  0
 20 45  1  0  0  0  0
 20 46  1  0  0  0  0
M  END
> <PUBCHEM_COMPOUND_CID>
11011465

> <PUBCHEM_CONFORMER_RMSD>
1

> <PUBCHEM_CONFORMER_DIVERSEORDER>
2
119
33
75
248
79
245
10
246
82
145
17
91
233
151
173
138
223
220
16
202
210
49
129
197
87
43
182
46
134
7
205
208
178
34
94
192
224
27
163
56
18
176
65
217
166
175
239
111
61
42
1
156
164
142
116
207
9
236
102
55
115
121
147
107
73
3
45
112
81
101
97
193
108
100
52
199
231
19
11
181
86
137
154
150
78
195
95
13
240
162
227
58
93
114
8
135
189
5
159
209
31
180
185
201
191
161
213
127
143
28
118
40
99
237
160
90
140
85
212
62
171
68
47
44
235
131
122
36
105
89
252
139
106
174
219
242
232
194
125
109
244
243
133
30
76
148
126
144
249
226
57
169
250
222
63
113
152
41
149
184
117
74
77
70
67
187
92
39
22
98
72
198
153
96
110
218
190
128
60
172
51
6
183
204
157
59
37
186
54
14
130
196
80
251
168
230
203
120
21
24
221
103
83
206
25
141
69
214
228
215
84
38
15
71
177
247
136
158
20
104
23
241
123
32
26
146
170
12
167
211
165
53
64
200
216
35
179
234
124
4
132
188
50
88
155
238
48
229
66
29
225

> <PUBCHEM_MMFF94_PARTIAL_CHARGES>
24
1 -0.3
10 0.14
11 -0.28
12 -0.29
13 0.14
14 0.14
15 0.14
16 -0.28
17 0.14
18 -0.14
19 0.71
2 -0.68
20 0.28
21 0.1
3 -0.43
31 0.4
32 0.15
4 -0.57
43 0.15
5 -0.04
6 -0.05
7 0.09
8 0.38
9 0.09

> <PUBCHEM_EFFECTIVE_ROTOR_COUNT>
9.6

> <PUBCHEM_PHARMACOPHORE_FEATURES>
7
1 1 acceptor
1 13 hydrophobe
1 17 hydrophobe
1 2 acceptor
1 2 donor
1 4 acceptor
4 12 14 15 16 hydrophobe

> <PUBCHEM_HEAVY_ATOM_COUNT>
20

> <PUBCHEM_ATOM_DEF_STEREO_COUNT>
2

> <PUBCHEM_ATOM_UDEF_STEREO_COUNT>
0

> <PUBCHEM_BOND_DEF_STEREO_COUNT>
2

> <PUBCHEM_BOND_UDEF_STEREO_COUNT>
0

> <PUBCHEM_ISOTOPIC_ATOM_COUNT>
0

> <PUBCHEM_COMPONENT_COUNT>
1

> <PUBCHEM_CACTVS_TAUTO_COUNT>
1

> <PUBCHEM_CONFORMER_ID>
00A8058900000002

> <PUBCHEM_MMFF94_ENERGY>
34.908

> <PUBCHEM_FEATURE_SELFOVERLAP>
35.542

> <PUBCHEM_SHAPE_FINGERPRINT>
10764073 3 18119800568393281253
11135609 12 18341619277905673976
11186622 174 18408605864766777633
114674 6 18341336595758504858
117890 22 18408892819051178293
12107183 9 18116140242538929585
12553582 1 18336271141135819469
12596602 18 16516811321284832929
12633257 1 17603307063539506031
12990986 174 18122915497371467290
13533116 47 18115870686164945451
14251705 54 18336554905735994788
14251731 5 18338516455765061410
14863182 85 18268994177060018476
14866123 147 17905047302713622217
14916288 52 18192158302776144582
15422964 175 18341903952142844693
15635459 17 18269841930003690371
15664445 248 18127957642616157756
17818456 19 17895458303094588153
1813 80 17846496994295806101
19930381 70 18411143493874082587
20645477 70 18122931749337733549
20765182 33 18261939839547553881
20775530 9 18340210807631555342
221490 88 18338242673496556728
23466295 7 17832982020525842186
3117164 225 18261662771144154201
345986 75 17821725048602644785
3737641 26 18408315588674337124
5352402 22 18200030617353205233
5486654 36 18191863633401503024
7987 15 18188488107082067950
88748 71 18340767173152133570
9795274 37 18270123534135647882

> <PUBCHEM_SHAPE_MULTIPOLES>
388.11
9.76
4.34
1.38
8.44
1.32
-0.15
7.97
1.7
-4.99
0
0.24
-0.38
1.02

> <PUBCHEM_SHAPE_SELFOVERLAP>
757.529

> <PUBCHEM_SHAPE_VOLUME>
235.6

> <PUBCHEM_COORDINATE_TYPE>
2
5
10

$$$$

