23663979
  -OEChem-07051213042D

 43 44  0     1  0  0  0  0  0999 V2000
    9.2365    1.0016    0.0000 S   0  0  0  0  0  0  0  0  0  0  0  0
    9.1854   -3.2617    0.0000 Na  0  3  0  0  0  0  0  0  0  0  0  0
    6.5715   -1.0201    0.0000 O   0  0  0  0  0  0  0  0  0  0  0  0
    8.8764   -2.3106    0.0000 O   0  5  0  0  0  0  0  0  0  0  0  0
   10.5236   -1.7754    0.0000 O   0  0  0  0  0  0  0  0  0  0  0  0
    5.3442    0.1831    0.0000 O   0  0  0  0  0  0  0  0  0  0  0  0
    8.2854   -0.3074    0.0000 N   0  0  0  0  0  0  0  0  0  0  0  0
    6.5715    1.4053    0.0000 N   0  0  0  0  0  0  0  0  0  0  0  0
    5.1602    2.8224    0.0000 N   0  0  0  0  0  0  0  0  0  0  0  0
    8.2854    0.6926    0.0000 C   0  0  1  0  0  0  0  0  0  0  0  0
    9.8242    0.1926    0.0000 C   0  0  0  0  0  0  0  0  0  0  0  0
    9.2365   -0.6164    0.0000 C   0  0  2  0  0  0  0  0  0  0  0  0
    7.2771    0.6967    0.0000 C   0  0  1  0  0  0  0  0  0  0  0  0
    7.2771   -0.3116    0.0000 C   0  0  0  0  0  0  0  0  0  0  0  0
   10.6333    0.7804    0.0000 C   0  0  0  0  0  0  0  0  0  0  0  0
   10.6333   -0.3952    0.0000 C   0  0  0  0  0  0  0  0  0  0  0  0
    9.5455   -1.5675    0.0000 C   0  0  0  0  0  0  0  0  0  0  0  0
    5.6050    1.1484    0.0000 C   0  0  0  0  0  0  0  0  0  0  0  0
    4.8994    1.8570    0.0000 C   0  0  1  0  0  0  0  0  0  0  0  0
    3.9329    1.6002    0.0000 C   0  0  0  0  0  0  0  0  0  0  0  0
    3.2273    2.3087    0.0000 C   0  0  0  0  0  0  0  0  0  0  0  0
    3.6721    0.6348    0.0000 C   0  0  0  0  0  0  0  0  0  0  0  0
    2.2608    2.0519    0.0000 C   0  0  0  0  0  0  0  0  0  0  0  0
    2.7056    0.3779    0.0000 C   0  0  0  0  0  0  0  0  0  0  0  0
    2.0000    1.0865    0.0000 C   0  0  0  0  0  0  0  0  0  0  0  0
    8.1542    1.5324    0.0000 H   0  0  0  0  0  0  0  0  0  0  0  0
    8.7981   -1.0548    0.0000 H   0  0  0  0  0  0  0  0  0  0  0  0
    6.7041    0.4600    0.0000 H   0  0  0  0  0  0  0  0  0  0  0  0
   10.9977    0.2788    0.0000 H   0  0  0  0  0  0  0  0  0  0  0  0
   11.1349    1.1448    0.0000 H   0  0  0  0  0  0  0  0  0  0  0  0
   10.2688    1.2820    0.0000 H   0  0  0  0  0  0  0  0  0  0  0  0
   10.2688   -0.8968    0.0000 H   0  0  0  0  0  0  0  0  0  0  0  0
   11.1349   -0.7596    0.0000 H   0  0  0  0  0  0  0  0  0  0  0  0
   10.9977    0.1064    0.0000 H   0  0  0  0  0  0  0  0  0  0  0  0
    6.7332    2.0038    0.0000 H   0  0  0  0  0  0  0  0  0  0  0  0
    4.4619    2.2963    0.0000 H   0  0  0  0  0  0  0  0  0  0  0  0
    4.7227    3.2617    0.0000 H   0  0  0  0  0  0  0  0  0  0  0  0
    5.7594    2.9816    0.0000 H   0  0  0  0  0  0  0  0  0  0  0  0
    3.3890    2.9073    0.0000 H   0  0  0  0  0  0  0  0  0  0  0  0
    4.1096    0.1955    0.0000 H   0  0  0  0  0  0  0  0  0  0  0  0
    1.8233    2.4912    0.0000 H   0  0  0  0  0  0  0  0  0  0  0  0
    2.5440   -0.2206    0.0000 H   0  0  0  0  0  0  0  0  0  0  0  0
    1.4008    0.9273    0.0000 H   0  0  0  0  0  0  0  0  0  0  0  0
  1 10  1  0  0  0  0
  1 11  1  0  0  0  0
  3 14  2  0  0  0  0
  4 17  1  0  0  0  0
  5 17  2  0  0  0  0
  6 18  2  0  0  0  0
  7 10  1  0  0  0  0
  7 12  1  0  0  0  0
  7 14  1  0  0  0  0
 13  8  1  1  0  0  0
  8 18  1  0  0  0  0
  8 35  1  0  0  0  0
 19  9  1  1  0  0  0
  9 37  1  0  0  0  0
  9 38  1  0  0  0  0
 10 13  1  0  0  0  0
 10 26  1  6  0  0  0
 11 12  1  0  0  0  0
 11 15  1  0  0  0  0
 11 16  1  0  0  0  0
 12 17  1  6  0  0  0
 12 27  1  0  0  0  0
 13 14  1  0  0  0  0
 13 28  1  0  0  0  0
 15 29  1  0  0  0  0
 15 30  1  0  0  0  0
 15 31  1  0  0  0  0
 16 32  1  0  0  0  0
 16 33  1  0  0  0  0
 16 34  1  0  0  0  0
 18 19  1  0  0  0  0
 19 20  1  0  0  0  0
 19 36  1  0  0  0  0
 20 21  2  0  0  0  0
 20 22  1  0  0  0  0
 21 23  1  0  0  0  0
 21 39  1  0  0  0  0
 22 24  2  0  0  0  0
 22 40  1  0  0  0  0
 23 25  2  0  0  0  0
 23 41  1  0  0  0  0
 24 25  1  0  0  0  0
 24 42  1  0  0  0  0
 25 43  1  0  0  0  0
M  CHG  2   2   1   4  -1
M  END
> <PUBCHEM_COMPOUND_CID>
23663979

> <PUBCHEM_COMPOUND_CANONICALIZED>
1

> <PUBCHEM_CACTVS_COMPLEXITY>
568

> <PUBCHEM_CACTVS_HBOND_ACCEPTOR>
6

> <PUBCHEM_CACTVS_HBOND_DONOR>
2

> <PUBCHEM_CACTVS_ROTATABLE_BOND>
4

> <PUBCHEM_CACTVS_SUBSKEYS>
AAADceB7OCBAAAAAAAAAAAAAAABYAWAAAAAwAAAABYAAAAABAAAAHgQQAAAADCjF2ASyCIPAAAiIAiHSGACCAABgABAIiIGIBIgKYDqglTGUIABklgC4iAcYiICOAAAAAAAAAAAAAAAAAAAAAAAAAAAAAA==

> <PUBCHEM_IUPAC_OPENEYE_NAME>
sodium (2S,5R,6R)-6-[[(2R)-2-amino-2-phenyl-acetyl]amino]-3,3-dimethyl-7-oxo-4-thia-1-azabicyclo[3.2.0]heptane-2-carboxylate

> <PUBCHEM_IUPAC_CAS_NAME>
sodium (2S,5R,6R)-6-[[(2R)-2-amino-1-oxo-2-phenylethyl]amino]-3,3-dimethyl-7-oxo-4-thia-1-azabicyclo[3.2.0]heptane-2-carboxylate

> <PUBCHEM_IUPAC_NAME>
sodium (2S,5R,6R)-6-[[(2R)-2-amino-2-phenylacetyl]amino]-3,3-dimethyl-7-oxo-4-thia-1-azabicyclo[3.2.0]heptane-2-carboxylate

> <PUBCHEM_IUPAC_SYSTEMATIC_NAME>
sodium (2S,5R,6R)-6-[[(2R)-2-azanyl-2-phenyl-ethanoyl]amino]-3,3-dimethyl-7-oxidanylidene-4-thia-1-azabicyclo[3.2.0]heptane-2-carboxylate

> <PUBCHEM_IUPAC_TRADITIONAL_NAME>
sodium (2S,5R,6R)-6-[[(2R)-2-amino-2-phenyl-acetyl]amino]-7-keto-3,3-dimethyl-4-thia-1-azabicyclo[3.2.0]heptane-2-carboxylate

> <PUBCHEM_IUPAC_INCHI>
InChI=1S/C16H19N3O4S.Na/c1-16(2)11(15(22)23)19-13(21)10(14(19)24-16)18-12(20)9(17)8-6-4-3-5-7-8;/h3-7,9-11,14H,17H2,1-2H3,(H,18,20)(H,22,23);/q;+1/p-1/t9-,10-,11+,14-;/m1./s1

> <PUBCHEM_IUPAC_INCHIKEY>
KLOHDWPABZXLGI-YWUHCJSESA-M

> <PUBCHEM_EXACT_MASS>
371.091571

> <PUBCHEM_MOLECULAR_FORMULA>
C16H18N3NaO4S

> <PUBCHEM_MOLECULAR_WEIGHT>
371.386589

> <PUBCHEM_OPENEYE_CAN_SMILES>
CC1(C(N2C(S1)C(C2=O)NC(=O)C(C3=CC=CC=C3)N)C(=O)[O-])C.[Na+]

> <PUBCHEM_OPENEYE_ISO_SMILES>
CC1([C@@H](N2[C@H](S1)[C@@H](C2=O)NC(=O)[C@@H](C3=CC=CC=C3)N)C(=O)[O-])C.[Na+]

> <PUBCHEM_CACTVS_TPSA>
141

> <PUBCHEM_MONOISOTOPIC_WEIGHT>
371.091571

> <PUBCHEM_TOTAL_CHARGE>
0

> <PUBCHEM_HEAVY_ATOM_COUNT>
25

> <PUBCHEM_ATOM_DEF_STEREO_COUNT>
4

> <PUBCHEM_ATOM_UDEF_STEREO_COUNT>
0

> <PUBCHEM_BOND_DEF_STEREO_COUNT>
0

> <PUBCHEM_BOND_UDEF_STEREO_COUNT>
0

> <PUBCHEM_ISOTOPIC_ATOM_COUNT>
0

> <PUBCHEM_COMPONENT_COUNT>
2

> <PUBCHEM_CACTVS_TAUTO_COUNT>
4

> <PUBCHEM_NONSTANDARDBOND>
2  4  7

> <PUBCHEM_COORDINATE_TYPE>
1
5
255

> <PUBCHEM_BONDANNOTATIONS>
10  26  6
12  17  6
20  21  8
20  22  8
21  23  8
22  24  8
23  25  8
24  25  8
13  8  5
19  9  5

$$$$

