25265910
  -OEChem-07051212553D

 41 40  0     1  0  0  0  0  0999 V2000
    6.8419    2.3930    0.0955 O   0  0  0  0  0  0  0  0  0  0  0  0
   -9.6758    1.7537   -1.1285 O   0  0  0  0  0  0  0  0  0  0  0  0
    7.3868    0.1943   -0.7838 C   0  0  0  0  0  0  0  0  0  0  0  0
    6.4696    1.0172    0.1341 C   0  0  2  0  0  0  0  0  0  0  0  0
    7.0951   -1.3109   -0.7905 C   0  0  0  0  0  0  0  0  0  0  0  0
    8.0510   -2.0543   -1.7120 C   0  0  0  0  0  0  0  0  0  0  0  0
    5.0166    0.9181   -0.2367 C   0  0  0  0  0  0  0  0  0  0  0  0
    4.0683    0.4730    0.6016 C   0  0  0  0  0  0  0  0  0  0  0  0
   -7.6883    0.4729   -0.5686 C   0  0  0  0  0  0  0  0  0  0  0  0
   -7.0631   -0.9127   -0.3871 C   0  0  0  0  0  0  0  0  0  0  0  0
   -9.1549    0.4389   -0.9937 C   0  0  0  0  0  0  0  0  0  0  0  0
    2.6709    0.3841    0.2402 C   0  0  0  0  0  0  0  0  0  0  0  0
    1.7254   -0.0617    1.0817 C   0  0  0  0  0  0  0  0  0  0  0  0
   -5.6561   -0.8371    0.0297 C   0  0  0  0  0  0  0  0  0  0  0  0
    0.3265   -0.1492    0.7156 C   0  0  0  0  0  0  0  0  0  0  0  0
   -0.6779   -0.5812    1.4925 C   0  0  0  0  0  0  0  0  0  0  0  0
   -4.5058   -0.7786    0.3683 C   0  0  0  0  0  0  0  0  0  0  0  0
   -2.0393   -0.6493    1.0883 C   0  0  0  0  0  0  0  0  0  0  0  0
   -3.1908   -0.7102    0.7537 C   0  0  0  0  0  0  0  0  0  0  0  0
    7.3191    0.5872   -1.8074 H   0  0  0  0  0  0  0  0  0  0  0  0
    8.4277    0.3654   -0.4789 H   0  0  0  0  0  0  0  0  0  0  0  0
    6.6274    0.6778    1.1653 H   0  0  0  0  0  0  0  0  0  0  0  0
    6.0691   -1.5002   -1.1245 H   0  0  0  0  0  0  0  0  0  0  0  0
    7.1873   -1.7095    0.2262 H   0  0  0  0  0  0  0  0  0  0  0  0
    9.0890   -1.9188   -1.3922 H   0  0  0  0  0  0  0  0  0  0  0  0
    7.8297   -3.1262   -1.7021 H   0  0  0  0  0  0  0  0  0  0  0  0
    7.9589   -1.6977   -2.7429 H   0  0  0  0  0  0  0  0  0  0  0  0
    4.7457    1.2386   -1.2406 H   0  0  0  0  0  0  0  0  0  0  0  0
    6.2819    2.8707    0.7314 H   0  0  0  0  0  0  0  0  0  0  0  0
    4.3446    0.1582    1.6048 H   0  0  0  0  0  0  0  0  0  0  0  0
   -7.1173    1.0479   -1.3099 H   0  0  0  0  0  0  0  0  0  0  0  0
   -7.6032    1.0469    0.3638 H   0  0  0  0  0  0  0  0  0  0  0  0
   -7.6339   -1.4751    0.3611 H   0  0  0  0  0  0  0  0  0  0  0  0
   -7.1346   -1.4711   -1.3279 H   0  0  0  0  0  0  0  0  0  0  0  0
   -9.2599   -0.0734   -1.9556 H   0  0  0  0  0  0  0  0  0  0  0  0
   -9.7544   -0.0929   -0.2477 H   0  0  0  0  0  0  0  0  0  0  0  0
    2.4003    0.6990   -0.7653 H   0  0  0  0  0  0  0  0  0  0  0  0
    1.9893   -0.3780    2.0880 H   0  0  0  0  0  0  0  0  0  0  0  0
  -10.6057    1.6661   -1.3988 H   0  0  0  0  0  0  0  0  0  0  0  0
    0.0862    0.1731   -0.2974 H   0  0  0  0  0  0  0  0  0  0  0  0
   -0.4600   -0.9072    2.5062 H   0  0  0  0  0  0  0  0  0  0  0  0
  1  4  1  0  0  0  0
  1 29  1  0  0  0  0
  2 11  1  0  0  0  0
  2 39  1  0  0  0  0
  3  4  1  0  0  0  0
  3  5  1  0  0  0  0
  3 20  1  0  0  0  0
  3 21  1  0  0  0  0
  4  7  1  0  0  0  0
  4 22  1  0  0  0  0
  5  6  1  0  0  0  0
  5 23  1  0  0  0  0
  5 24  1  0  0  0  0
  6 25  1  0  0  0  0
  6 26  1  0  0  0  0
  6 27  1  0  0  0  0
  7  8  2  0  0  0  0
  7 28  1  0  0  0  0
  8 12  1  0  0  0  0
  8 30  1  0  0  0  0
  9 10  1  0  0  0  0
  9 11  1  0  0  0  0
  9 31  1  0  0  0  0
  9 32  1  0  0  0  0
 10 14  1  0  0  0  0
 10 33  1  0  0  0  0
 10 34  1  0  0  0  0
 11 35  1  0  0  0  0
 11 36  1  0  0  0  0
 12 13  2  0  0  0  0
 12 37  1  0  0  0  0
 13 15  1  0  0  0  0
 13 38  1  0  0  0  0
 14 17  3  0  0  0  0
 15 16  2  0  0  0  0
 15 40  1  0  0  0  0
 16 18  1  0  0  0  0
 16 41  1  0  0  0  0
 17 19  1  0  0  0  0
 18 19  3  0  0  0  0
M  END
> <PUBCHEM_COMPOUND_CID>
25265910

> <PUBCHEM_CONFORMER_RMSD>
0.8

> <PUBCHEM_CONFORMER_DIVERSEORDER>
1
102
22
58
8
89
35
28
3
37
100
11
88
94
99
17
80
53
21
67
10
93
25
52
43
85
64
38
6
68
15
92
96
107
57
14
78
32
34
103
54
18
19
66
2
83
31
23
75
7
24
4
44
69
26
90
51
49
65
47
87
45
13
40
33
46
84
20
16
86
61
95
42
62
27
76
29
91
74
30
77
101
82
73
48
12
59
97
36
56
98
60
79
71
9
104
72
106
105
55
70
63
5
39
81
41
50

> <PUBCHEM_MMFF94_PARTIAL_CHARGES>
21
1 -0.68
10 0.2
11 0.28
12 -0.15
13 -0.15
14 -0.2
15 -0.15
16 -0.09
18 -0.06
2 -0.68
28 0.15
29 0.4
30 0.15
37 0.15
38 0.15
39 0.4
4 0.42
40 0.15
41 0.15
7 -0.29
8 -0.15

> <PUBCHEM_EFFECTIVE_ROTOR_COUNT>
7

> <PUBCHEM_PHARMACOPHORE_FEATURES>
5
1 1 acceptor
1 1 donor
1 2 acceptor
1 2 donor
1 6 hydrophobe

> <PUBCHEM_HEAVY_ATOM_COUNT>
19

> <PUBCHEM_ATOM_DEF_STEREO_COUNT>
1

> <PUBCHEM_ATOM_UDEF_STEREO_COUNT>
0

> <PUBCHEM_BOND_DEF_STEREO_COUNT>
3

> <PUBCHEM_BOND_UDEF_STEREO_COUNT>
0

> <PUBCHEM_ISOTOPIC_ATOM_COUNT>
0

> <PUBCHEM_COMPONENT_COUNT>
1

> <PUBCHEM_CACTVS_TAUTO_COUNT>
1

> <PUBCHEM_CONFORMER_ID>
018186F600000001

> <PUBCHEM_MMFF94_ENERGY>
9.3278

> <PUBCHEM_FEATURE_SELFOVERLAP>
25.371

> <PUBCHEM_SHAPE_FINGERPRINT>
10 15 12535629371153951459
10066227 49 18113892788916266422
106641 1 9007054664751563163
13177829 20 10303815380200252131
14428016 248 15626218031426228271
14617042 71 12031492273782371654
14849402 71 12031493364092037526
15183329 4 18411698802805871410
155225 1 17632303394037873541
15690457 1 5833989464838818397
15706992 2 14548727434978513919
1754908 1 8862944983108436063
1818759 1 4967615022947247741
18335252 114 18335139778331373568
20281389 69 14333136234897841558
20621476 8 18131069333441378195
20735858 18 10159703508372022529
21095123 145 16271916096694415355
21095123 293 15554447414139106735
21130935 74 7564804358944683204
21130983 4 14045743707780768226
22224240 67 8935004758700034841
23081809 10 17458608009689059880
23524908 199 18338237166747642606
28498 318 18260546736149182638
3711267 37 16774075189776132413
5283156 175 17530960293764498074
5758199 1 16272214089677463891
6438161 24 16226051097658198314
9953998 17 12247677176530494065

> <PUBCHEM_SHAPE_MULTIPOLES>
379.27
34.45
1.6
1.3
33.14
0.09
0
2.97
20.94
-3.09
0.59
0.32
-0.23
2.97

> <PUBCHEM_SHAPE_SELFOVERLAP>
720.853

> <PUBCHEM_SHAPE_VOLUME>
230.4

> <PUBCHEM_COORDINATE_TYPE>
2
5
10

$$$$

