442554
  -OEChem-07051212582D

 77 83  0     1  0  0  0  0  0999 V2000
    5.7149   -0.8646    0.0000 S   0  0  0  0  0  0  0  0  0  0  0  0
    2.5100    0.9562    0.0000 O   0  0  0  0  0  0  0  0  0  0  0  0
    9.8780    1.0849    0.0000 O   0  0  0  0  0  0  0  0  0  0  0  0
    5.3489    2.1742    0.0000 N   0  0  3  0  0  0  0  0  0  0  0  0
    8.2972   -1.5691    0.0000 N   0  0  3  0  0  0  0  0  0  0  0  0
    6.2149    0.6742    0.0000 C   0  0  2  0  0  0  0  0  0  0  0  0
    6.7149   -0.8646    0.0000 C   0  0  1  0  0  0  0  0  0  0  0  0
    7.0239    0.0864    0.0000 C   0  0  0  0  0  0  0  0  0  0  0  0
    5.3489    1.1742    0.0000 C   0  0  0  0  0  0  0  0  0  0  0  0
    7.0809    1.1742    0.0000 C   0  0  0  0  0  0  0  0  0  0  0  0
    5.4059    0.0864    0.0000 C   0  0  0  0  0  0  0  0  0  0  0  0
    6.2149    2.6742    0.0000 C   0  0  1  0  0  0  0  0  0  0  0  0
    7.7094   -0.7601    0.0000 C   0  0  0  0  0  0  0  0  0  0  0  0
    6.3082   -1.7782    0.0000 C   0  0  0  0  0  0  0  0  0  0  0  0
    7.8905   -2.4827    0.0000 C   0  0  1  0  0  0  0  0  0  0  0  0
    7.0809    2.1742    0.0000 C   0  0  0  0  0  0  0  0  0  0  0  0
    6.8959   -2.5872    0.0000 C   0  0  0  0  0  0  0  0  0  0  0  0
    6.2310    3.7157    0.0000 C   0  0  1  0  0  0  0  0  0  0  0  0
    4.4389    2.6811    0.0000 C   0  0  1  0  0  0  0  0  0  0  0  0
    8.4896   -3.3347    0.0000 C   0  0  1  0  0  0  0  0  0  0  0  0
    9.3313   -1.4443    0.0000 C   0  0  1  0  0  0  0  0  0  0  0  0
    5.3329    4.2435    0.0000 C   0  0  0  0  0  0  0  0  0  0  0  0
    4.4308    3.7227    0.0000 C   0  0  0  0  0  0  0  0  0  0  0  0
    9.5264   -3.2338    0.0000 C   0  0  0  0  0  0  0  0  0  0  0  0
    9.9501   -2.2822    0.0000 C   0  0  0  0  0  0  0  0  0  0  0  0
    7.1027    4.2057    0.0000 C   0  0  0  0  0  0  0  0  0  0  0  0
    3.5787    2.1711    0.0000 C   0  0  0  0  0  0  0  0  0  0  0  0
    8.0724   -4.2435    0.0000 C   0  0  0  0  0  0  0  0  0  0  0  0
    9.7275   -0.5261    0.0000 C   0  0  0  0  0  0  0  0  0  0  0  0
    2.6605    2.5672    0.0000 C   0  0  0  0  0  0  0  0  0  0  0  0
    3.4857    1.1754    0.0000 C   0  0  0  0  0  0  0  0  0  0  0  0
   10.7031   -0.3069    0.0000 C   0  0  0  0  0  0  0  0  0  0  0  0
    9.2175    0.3341    0.0000 C   0  0  0  0  0  0  0  0  0  0  0  0
    2.0000    1.8164    0.0000 C   0  0  0  0  0  0  0  0  0  0  0  0
   10.7962    0.6888    0.0000 C   0  0  0  0  0  0  0  0  0  0  0  0
    7.5903   -0.1657    0.0000 H   0  0  0  0  0  0  0  0  0  0  0  0
    7.3339    0.6234    0.0000 H   0  0  0  0  0  0  0  0  0  0  0  0
    4.7383    1.2819    0.0000 H   0  0  0  0  0  0  0  0  0  0  0  0
    5.1368    0.5916    0.0000 H   0  0  0  0  0  0  0  0  0  0  0  0
    7.2930    0.5916    0.0000 H   0  0  0  0  0  0  0  0  0  0  0  0
    7.6915    1.2819    0.0000 H   0  0  0  0  0  0  0  0  0  0  0  0
    5.0959    0.6234    0.0000 H   0  0  0  0  0  0  0  0  0  0  0  0
    4.8395   -0.1657    0.0000 H   0  0  0  0  0  0  0  0  0  0  0  0
    6.9543    3.0935    0.0000 H   0  0  0  0  0  0  0  0  0  0  0  0
    8.2667   -0.4883    0.0000 H   0  0  0  0  0  0  0  0  0  0  0  0
    7.5385   -0.1641    0.0000 H   0  0  0  0  0  0  0  0  0  0  0  0
    5.7942   -1.4315    0.0000 H   0  0  0  0  0  0  0  0  0  0  0  0
    5.8775   -2.2242    0.0000 H   0  0  0  0  0  0  0  0  0  0  0  0
    7.5388   -3.2565    0.0000 H   0  0  0  0  0  0  0  0  0  0  0  0
    7.6915    2.0666    0.0000 H   0  0  0  0  0  0  0  0  0  0  0  0
    7.2930    2.7568    0.0000 H   0  0  0  0  0  0  0  0  0  0  0  0
    6.3387   -2.8590    0.0000 H   0  0  0  0  0  0  0  0  0  0  0  0
    7.0668   -3.1832    0.0000 H   0  0  0  0  0  0  0  0  0  0  0  0
    6.7637    3.3985    0.0000 H   0  0  0  0  0  0  0  0  0  0  0  0
    3.8990    2.9859    0.0000 H   0  0  0  0  0  0  0  0  0  0  0  0
    8.8492   -3.8398    0.0000 H   0  0  0  0  0  0  0  0  0  0  0  0
    9.9473   -1.3735    0.0000 H   0  0  0  0  0  0  0  0  0  0  0  0
    5.7339    4.7164    0.0000 H   0  0  0  0  0  0  0  0  0  0  0  0
    4.9356    4.7194    0.0000 H   0  0  0  0  0  0  0  0  0  0  0  0
    4.2173    4.3047    0.0000 H   0  0  0  0  0  0  0  0  0  0  0  0
    3.8208    3.6119    0.0000 H   0  0  0  0  0  0  0  0  0  0  0  0
    9.4800   -3.8521    0.0000 H   0  0  0  0  0  0  0  0  0  0  0  0
   10.1276   -3.3853    0.0000 H   0  0  0  0  0  0  0  0  0  0  0  0
   10.4649   -2.6276    0.0000 H   0  0  0  0  0  0  0  0  0  0  0  0
   10.3784   -1.8340    0.0000 H   0  0  0  0  0  0  0  0  0  0  0  0
    7.4065    3.6652    0.0000 H   0  0  0  0  0  0  0  0  0  0  0  0
    7.6432    4.5094    0.0000 H   0  0  0  0  0  0  0  0  0  0  0  0
    6.7989    4.7462    0.0000 H   0  0  0  0  0  0  0  0  0  0  0  0
    7.5089   -3.9848    0.0000 H   0  0  0  0  0  0  0  0  0  0  0  0
    7.8137   -4.8069    0.0000 H   0  0  0  0  0  0  0  0  0  0  0  0
    8.6358   -4.5022    0.0000 H   0  0  0  0  0  0  0  0  0  0  0  0
    2.5246    3.1721    0.0000 H   0  0  0  0  0  0  0  0  0  0  0  0
    3.9512    0.7659    0.0000 H   0  0  0  0  0  0  0  0  0  0  0  0
   11.1687   -0.7164    0.0000 H   0  0  0  0  0  0  0  0  0  0  0  0
    8.6002    0.3918    0.0000 H   0  0  0  0  0  0  0  0  0  0  0  0
    1.3827    1.8741    0.0000 H   0  0  0  0  0  0  0  0  0  0  0  0
   11.3295    1.0050    0.0000 H   0  0  0  0  0  0  0  0  0  0  0  0
  1  7  1  0  0  0  0
  1 11  1  0  0  0  0
  2 31  1  0  0  0  0
  2 34  1  0  0  0  0
  3 33  1  0  0  0  0
  3 35  1  0  0  0  0
  4  9  1  0  0  0  0
  4 12  1  0  0  0  0
  4 19  1  0  0  0  0
  5 13  1  0  0  0  0
  5 15  1  0  0  0  0
  5 21  1  0  0  0  0
  6  8  1  0  0  0  0
  6  9  1  0  0  0  0
  6 10  1  1  0  0  0
  6 11  1  0  0  0  0
  7  8  1  0  0  0  0
  7 13  1  0  0  0  0
  7 14  1  6  0  0  0
  8 36  1  0  0  0  0
  8 37  1  0  0  0  0
  9 38  1  0  0  0  0
  9 39  1  0  0  0  0
 10 16  1  0  0  0  0
 10 40  1  0  0  0  0
 10 41  1  0  0  0  0
 11 42  1  0  0  0  0
 11 43  1  0  0  0  0
 12 16  1  0  0  0  0
 12 18  1  0  0  0  0
 12 44  1  1  0  0  0
 13 45  1  0  0  0  0
 13 46  1  0  0  0  0
 14 17  1  0  0  0  0
 14 47  1  0  0  0  0
 14 48  1  0  0  0  0
 15 17  1  0  0  0  0
 15 20  1  0  0  0  0
 15 49  1  1  0  0  0
 16 50  1  0  0  0  0
 16 51  1  0  0  0  0
 17 52  1  0  0  0  0
 17 53  1  0  0  0  0
 18 22  1  0  0  0  0
 18 26  1  1  0  0  0
 18 54  1  0  0  0  0
 19 23  1  0  0  0  0
 19 27  1  6  0  0  0
 19 55  1  0  0  0  0
 20 24  1  0  0  0  0
 20 28  1  1  0  0  0
 20 56  1  0  0  0  0
 21 25  1  0  0  0  0
 21 29  1  6  0  0  0
 21 57  1  0  0  0  0
 22 23  1  0  0  0  0
 22 58  1  0  0  0  0
 22 59  1  0  0  0  0
 23 60  1  0  0  0  0
 23 61  1  0  0  0  0
 24 25  1  0  0  0  0
 24 62  1  0  0  0  0
 24 63  1  0  0  0  0
 25 64  1  0  0  0  0
 25 65  1  0  0  0  0
 26 66  1  0  0  0  0
 26 67  1  0  0  0  0
 26 68  1  0  0  0  0
 27 30  1  0  0  0  0
 27 31  2  0  0  0  0
 28 69  1  0  0  0  0
 28 70  1  0  0  0  0
 28 71  1  0  0  0  0
 29 32  1  0  0  0  0
 29 33  2  0  0  0  0
 30 34  2  0  0  0  0
 30 72  1  0  0  0  0
 31 73  1  0  0  0  0
 32 35  2  0  0  0  0
 32 74  1  0  0  0  0
 33 75  1  0  0  0  0
 34 76  1  0  0  0  0
 35 77  1  0  0  0  0
M  END
> <PUBCHEM_COMPOUND_CID>
442554

> <PUBCHEM_COMPOUND_CANONICALIZED>
1

> <PUBCHEM_CACTVS_COMPLEXITY>
782

> <PUBCHEM_CACTVS_HBOND_ACCEPTOR>
5

> <PUBCHEM_CACTVS_HBOND_DONOR>
0

> <PUBCHEM_CACTVS_ROTATABLE_BOND>
2

> <PUBCHEM_CACTVS_SUBSKEYS>
AAADcfB7MABAAAAAAAAAAAAAAAAAASJEgAAsWLFgAAAAAACx4AAAHgQAAAAADyjl2AayBIMABEiIAihSgACCCAAkIBAIiAEODMgMJhoktQuGGSjmwBGoKYO8yOCPAAAAAAAAAAAAAAAAAAAAAAAAAAAAAA==

> <PUBCHEM_IUPAC_INCHI>
InChI=1S/C30H42N2O2S/c1-21-3-5-27(23-9-13-33-15-23)31-18-29(11-7-25(21)31)17-30(35-20-29)12-8-26-22(2)4-6-28(32(26)19-30)24-10-14-34-16-24/h9-10,13-16,21-22,25-28H,3-8,11-12,17-20H2,1-2H3/t21-,22-,25+,26+,27+,28+,29+,30+/m1/s1

> <PUBCHEM_IUPAC_INCHIKEY>
WBMOHCBEBDKSBI-JYZUVFRYSA-N

> <PUBCHEM_XLOGP3_AA>
5.9

> <PUBCHEM_EXACT_MASS>
494.2967

> <PUBCHEM_MOLECULAR_FORMULA>
C30H42N2O2S

> <PUBCHEM_MOLECULAR_WEIGHT>
494.73168

> <PUBCHEM_OPENEYE_CAN_SMILES>
CC1CCC(N2C1CCC3(C2)CC4(CCC5C(CCC(N5C4)C6=COC=C6)C)SC3)C7=COC=C7

> <PUBCHEM_OPENEYE_ISO_SMILES>
C[C@@H]1CC[C@H](N2[C@H]1CC[C@@]3(C2)C[C@]4(CC[C@H]5[C@@H](CC[C@H](N5C4)C6=COC=C6)C)SC3)C7=COC=C7

> <PUBCHEM_CACTVS_TPSA>
58.1

> <PUBCHEM_MONOISOTOPIC_WEIGHT>
494.2967

> <PUBCHEM_TOTAL_CHARGE>
0

> <PUBCHEM_HEAVY_ATOM_COUNT>
35

> <PUBCHEM_ATOM_DEF_STEREO_COUNT>
8

> <PUBCHEM_ATOM_UDEF_STEREO_COUNT>
0

> <PUBCHEM_BOND_DEF_STEREO_COUNT>
0

> <PUBCHEM_BOND_UDEF_STEREO_COUNT>
0

> <PUBCHEM_ISOTOPIC_ATOM_COUNT>
0

> <PUBCHEM_COMPONENT_COUNT>
1

> <PUBCHEM_CACTVS_TAUTO_COUNT>
1

> <PUBCHEM_COORDINATE_TYPE>
1
5
255

> <PUBCHEM_BONDANNOTATIONS>
12  44  5
15  49  5
18  26  5
19  27  6
2  31  8
2  34  8
20  28  5
21  29  6
27  30  8
27  31  8
29  32  8
29  33  8
3  33  8
3  35  8
30  34  8
32  35  8
6  10  5
7  14  6

$$$$

