442245
  -OEChem-07051212573D

 41 44  0     1  0  0  0  0  0999 V2000
   -1.1862    2.3798    0.0504 O   0  0  0  0  0  0  0  0  0  0  0  0
    1.2156    3.7339    0.3260 O   0  0  0  0  0  0  0  0  0  0  0  0
   -5.2516   -0.3105    0.2521 O   0  0  0  0  0  0  0  0  0  0  0  0
    2.2284   -2.5001   -0.4449 N   0  0  1  0  0  0  0  0  0  0  0  0
    1.0573   -1.8546    0.1598 C   0  0  2  0  0  0  0  0  0  0  0  0
   -1.1217   -0.6862   -0.1654 C   0  0  0  0  0  0  0  0  0  0  0  0
   -0.2831   -1.9432   -0.6034 C   0  0  0  0  0  0  0  0  0  0  0  0
    1.2210   -0.3661    0.1698 C   0  0  0  0  0  0  0  0  0  0  0  0
    0.0044    0.3064    0.0526 C   0  0  0  0  0  0  0  0  0  0  0  0
    2.4401    0.2818    0.2688 C   0  0  0  0  0  0  0  0  0  0  0  0
    3.4420   -2.0665    0.2891 C   0  0  0  0  0  0  0  0  0  0  0  0
    3.6947   -0.5410    0.1858 C   0  0  0  0  0  0  0  0  0  0  0  0
   -2.0463   -0.2775   -1.2875 C   0  0  0  0  0  0  0  0  0  0  0  0
   -1.8645   -0.9544    1.1255 C   0  0  0  0  0  0  0  0  0  0  0  0
   -0.0179    1.6892    0.1214 C   0  0  0  0  0  0  0  0  0  0  0  0
    2.4224    1.6749    0.3206 C   0  0  0  0  0  0  0  0  0  0  0  0
    2.1036   -3.9567   -0.4097 C   0  0  0  0  0  0  0  0  0  0  0  0
    1.1993    2.3703    0.2645 C   0  0  0  0  0  0  0  0  0  0  0  0
   -3.3726   -0.1541   -1.1649 C   0  0  0  0  0  0  0  0  0  0  0  0
   -3.1893   -0.8358    1.2691 C   0  0  0  0  0  0  0  0  0  0  0  0
   -4.0366   -0.4237    0.1289 C   0  0  0  0  0  0  0  0  0  0  0  0
    1.3409    4.4340   -0.9087 C   0  0  0  0  0  0  0  0  0  0  0  0
    0.9159   -2.1944    1.1959 H   0  0  0  0  0  0  0  0  0  0  0  0
   -0.0885   -1.9146   -1.6867 H   0  0  0  0  0  0  0  0  0  0  0  0
   -0.8022   -2.8881   -0.4010 H   0  0  0  0  0  0  0  0  0  0  0  0
    4.3269   -2.5815   -0.1052 H   0  0  0  0  0  0  0  0  0  0  0  0
    3.3585   -2.3447    1.3492 H   0  0  0  0  0  0  0  0  0  0  0  0
    4.1679   -0.3307   -0.7819 H   0  0  0  0  0  0  0  0  0  0  0  0
    4.3919   -0.2379    0.9752 H   0  0  0  0  0  0  0  0  0  0  0  0
   -1.6029   -0.0645   -2.2585 H   0  0  0  0  0  0  0  0  0  0  0  0
   -1.2867   -1.2616    1.9949 H   0  0  0  0  0  0  0  0  0  0  0  0
    3.3560    2.2279    0.3890 H   0  0  0  0  0  0  0  0  0  0  0  0
    2.9799   -4.4268   -0.8696 H   0  0  0  0  0  0  0  0  0  0  0  0
    1.2351   -4.2874   -0.9890 H   0  0  0  0  0  0  0  0  0  0  0  0
    2.0045   -4.3404    0.6121 H   0  0  0  0  0  0  0  0  0  0  0  0
   -3.9911    0.1460   -2.0027 H   0  0  0  0  0  0  0  0  0  0  0  0
   -3.6741   -1.0382    2.2170 H   0  0  0  0  0  0  0  0  0  0  0  0
   -0.9943    3.3272    0.1577 H   0  0  0  0  0  0  0  0  0  0  0  0
    0.5253    4.1720   -1.5902 H   0  0  0  0  0  0  0  0  0  0  0  0
    2.3054    4.2132   -1.3769 H   0  0  0  0  0  0  0  0  0  0  0  0
    1.2912    5.5064   -0.7013 H   0  0  0  0  0  0  0  0  0  0  0  0
  1 15  1  0  0  0  0
  1 38  1  0  0  0  0
  2 18  1  0  0  0  0
  2 22  1  0  0  0  0
  3 21  2  0  0  0  0
  4  5  1  0  0  0  0
  4 11  1  0  0  0  0
  4 17  1  0  0  0  0
  5  7  1  0  0  0  0
  5  8  1  0  0  0  0
  5 23  1  0  0  0  0
  6  7  1  0  0  0  0
  6  9  1  0  0  0  0
  6 13  1  0  0  0  0
  6 14  1  0  0  0  0
  7 24  1  0  0  0  0
  7 25  1  0  0  0  0
  8  9  2  0  0  0  0
  8 10  1  0  0  0  0
  9 15  1  0  0  0  0
 10 12  1  0  0  0  0
 10 16  2  0  0  0  0
 11 12  1  0  0  0  0
 11 26  1  0  0  0  0
 11 27  1  0  0  0  0
 12 28  1  0  0  0  0
 12 29  1  0  0  0  0
 13 19  2  0  0  0  0
 13 30  1  0  0  0  0
 14 20  2  0  0  0  0
 14 31  1  0  0  0  0
 15 18  2  0  0  0  0
 16 18  1  0  0  0  0
 16 32  1  0  0  0  0
 17 33  1  0  0  0  0
 17 34  1  0  0  0  0
 17 35  1  0  0  0  0
 19 21  1  0  0  0  0
 19 36  1  0  0  0  0
 20 21  1  0  0  0  0
 20 37  1  0  0  0  0
 22 39  1  0  0  0  0
 22 40  1  0  0  0  0
 22 41  1  0  0  0  0
M  END
> <PUBCHEM_COMPOUND_CID>
442245

> <PUBCHEM_CONFORMER_RMSD>
0.6

> <PUBCHEM_CONFORMER_DIVERSEORDER>
1

> <PUBCHEM_MMFF94_PARTIAL_CHARGES>
27
1 -0.53
10 -0.14
11 0.27
12 0.14
13 -0.29
14 -0.29
15 0.08
16 -0.15
17 0.27
18 0.08
19 -0.14
2 -0.36
20 -0.14
21 0.54
22 0.28
3 -0.57
30 0.15
31 0.15
32 0.15
36 0.15
37 0.15
38 0.45
4 -0.81
5 0.41
6 0.42
8 -0.14
9 -0.14

> <PUBCHEM_EFFECTIVE_ROTOR_COUNT>
1.8

> <PUBCHEM_PHARMACOPHORE_FEATURES>
8
1 1 donor
1 2 acceptor
1 3 acceptor
1 4 cation
5 5 6 7 8 9 rings
6 4 5 8 10 11 12 rings
6 6 13 14 19 20 21 rings
6 8 9 10 15 16 18 rings

> <PUBCHEM_HEAVY_ATOM_COUNT>
22

> <PUBCHEM_ATOM_DEF_STEREO_COUNT>
1

> <PUBCHEM_ATOM_UDEF_STEREO_COUNT>
0

> <PUBCHEM_BOND_DEF_STEREO_COUNT>
0

> <PUBCHEM_BOND_UDEF_STEREO_COUNT>
0

> <PUBCHEM_ISOTOPIC_ATOM_COUNT>
0

> <PUBCHEM_COMPONENT_COUNT>
1

> <PUBCHEM_CACTVS_TAUTO_COUNT>
3

> <PUBCHEM_CONFORMER_ID>
0006BF8500000001

> <PUBCHEM_MMFF94_ENERGY>
71.4044

> <PUBCHEM_FEATURE_SELFOVERLAP>
40.792

> <PUBCHEM_SHAPE_FINGERPRINT>
10165383 225 17474928949295673545
10411042 1 18193837273885288070
104564 63 18190736634199219084
10967382 1 18409452466470057018
1100329 8 18121219780005982144
11471102 20 18410578357575929487
11582403 64 16547559164214038781
11640471 11 17531517673276893601
116883 192 17976824507984528454
12173636 292 17328866495998808781
12236239 1 17458065967388943571
12553582 1 18336272322626560510
12788726 201 17983297315947696842
13134695 92 18412548733804929198
13140716 1 18193002504283548922
138480 1 18410575106391369848
14178342 30 17828784853724346482
14790565 3 18266446612734450856
14866123 147 16970833078707765491
15042514 8 17689151631309248122
16087824 20 17833829752898232033
16945 1 18408888408299087234
17357779 13 18339370789005313055
1813 80 17969768864575964494
18785283 64 18198900318998989585
20739085 24 18190160455609460755
21041028 32 18337953522785592529
21641784 216 18127108979196051492
22182313 1 18265352757530325436
2255824 54 18336827468418176372
23175994 123 18341327881322452359
23184049 59 18260548922182138635
2334 1 17761217609386997338
23558518 356 17622155089806111258
23559900 14 18411983525152410475
238 59 17620806808965569261
2748010 2 18192162692206308324
3091708 16 9430209420014923720
352729 6 16968598291422569582
3729539 64 17982698958737523060
3886686 26 17035888454846437288
474 4 18263928726599964129
54173680 148 17617095149937147874
6443956 14 18411979195456045749
7364860 26 18410012096086613480
77492 1 17458346316989166719
81228 2 17979921832451074152
8272917 22 18336540530554320983
84936 182 17753054899508510593

> <PUBCHEM_SHAPE_MULTIPOLES>
430.16
6.34
4.42
0.98
6.16
3.19
0.05
-2.48
-0.52
-4.88
0.89
0.63
-0.05
0.26

> <PUBCHEM_SHAPE_SELFOVERLAP>
953.326

> <PUBCHEM_SHAPE_VOLUME>
232.7

> <PUBCHEM_COORDINATE_TYPE>
2
5
10

$$$$

