11643
  -OEChem-07051213143D

  5  4  0     0  0  0  0  0  0999 V2000
    1.3779    0.2223    0.0000 Cl  0  0  0  0  0  0  0  0  0  0  0  0
   -1.1823    0.3545    0.0000 F   0  0  0  0  0  0  0  0  0  0  0  0
   -0.1956   -0.5767    0.0000 C   0  0  0  0  0  0  0  0  0  0  0  0
   -0.2919   -1.1933   -0.8967 H   0  0  0  0  0  0  0  0  0  0  0  0
   -0.2920   -1.1933    0.8966 H   0  0  0  0  0  0  0  0  0  0  0  0
  1  3  1  0  0  0  0
  2  3  1  0  0  0  0
  3  4  1  0  0  0  0
  3  5  1  0  0  0  0
M  END
> <PUBCHEM_COMPOUND_CID>
11643

> <PUBCHEM_CONFORMER_RMSD>
0.4

> <PUBCHEM_CONFORMER_DIVERSEORDER>
1

> <PUBCHEM_MMFF94_PARTIAL_CHARGES>
3
1 -0.29
2 -0.34
3 0.63

> <PUBCHEM_EFFECTIVE_ROTOR_COUNT>
0

> <PUBCHEM_PHARMACOPHORE_FEATURES>
0

> <PUBCHEM_HEAVY_ATOM_COUNT>
3

> <PUBCHEM_ATOM_DEF_STEREO_COUNT>
0

> <PUBCHEM_ATOM_UDEF_STEREO_COUNT>
0

> <PUBCHEM_BOND_DEF_STEREO_COUNT>
0

> <PUBCHEM_BOND_UDEF_STEREO_COUNT>
0

> <PUBCHEM_ISOTOPIC_ATOM_COUNT>
0

> <PUBCHEM_COMPONENT_COUNT>
1

> <PUBCHEM_CACTVS_TAUTO_COUNT>
1

> <PUBCHEM_CONFORMER_ID>
00002D7B00000001

> <PUBCHEM_MMFF94_ENERGY>
0.1153

> <PUBCHEM_FEATURE_SELFOVERLAP>
0

> <PUBCHEM_SHAPE_FINGERPRINT>
139733 1 18410856572614407716
21015797 1 18196933275290026374

> <PUBCHEM_SHAPE_MULTIPOLES>
56.33
1.66
0.76
0.59
0.28
0.06
0
-0.26
0
-0.04
0
0.07
0.02
0

> <PUBCHEM_SHAPE_SELFOVERLAP>
80.739

> <PUBCHEM_SHAPE_VOLUME>
43.6

> <PUBCHEM_COORDINATE_TYPE>
2
5
10

$$$$

