9561873
  -OEChem-07051213063D

 50 53  0     1  0  0  0  0  0999 V2000
   -5.2558   -1.9051   -0.0562 O   0  0  0  0  0  0  0  0  0  0  0  0
   -6.0497    2.2358    0.2626 O   0  0  0  0  0  0  0  0  0  0  0  0
    5.3597    0.5479   -0.3959 O   0  0  0  0  0  0  0  0  0  0  0  0
   -6.0541    0.8408    0.1736 N   0  0  0  0  0  0  0  0  0  0  0  0
   -2.5628    0.2932   -0.1978 C   0  0  1  0  0  0  0  0  0  0  0  0
   -1.0790    0.5741    0.0413 C   0  0  1  0  0  0  0  0  0  0  0  0
   -2.9622   -1.1034    0.3559 C   0  0  2  0  0  0  0  0  0  0  0  0
   -0.2443   -0.4912   -0.7358 C   0  0  2  0  0  0  0  0  0  0  0  0
   -2.2082   -2.1606   -0.4411 C   0  0  0  0  0  0  0  0  0  0  0  0
   -0.6856   -1.9356   -0.3720 C   0  0  0  0  0  0  0  0  0  0  0  0
   -3.6124    1.2807    0.3298 C   0  0  0  0  0  0  0  0  0  0  0  0
   -0.6579    1.9695   -0.4225 C   0  0  0  0  0  0  0  0  0  0  0  0
   -4.4514   -1.0163    0.1191 C   0  0  0  0  0  0  0  0  0  0  0  0
    1.2528   -0.2215   -0.6083 C   0  0  0  0  0  0  0  0  0  0  0  0
   -2.7654   -1.2970    1.8706 C   0  0  0  0  0  0  0  0  0  0  0  0
   -4.8379    0.4258    0.1956 C   0  0  0  0  0  0  0  0  0  0  0  0
    0.7936    2.2298   -0.0308 C   0  0  0  0  0  0  0  0  0  0  0  0
    1.7248    1.0773   -0.3175 C   0  0  0  0  0  0  0  0  0  0  0  0
    2.1985   -1.2308   -0.8625 C   0  0  0  0  0  0  0  0  0  0  0  0
    3.1078    1.3183   -0.2375 C   0  0  0  0  0  0  0  0  0  0  0  0
    3.5696   -0.9755   -0.7884 C   0  0  0  0  0  0  0  0  0  0  0  0
    4.0247    0.2978   -0.4716 C   0  0  0  0  0  0  0  0  0  0  0  0
    6.2021   -0.5330    0.0022 C   0  0  0  0  0  0  0  0  0  0  0  0
    7.4184    0.0251    0.6634 C   0  0  0  0  0  0  0  0  0  0  0  0
    7.7747   -0.2463    1.9238 C   0  0  0  0  0  0  0  0  0  0  0  0
   -2.7078    0.2777   -1.2931 H   0  0  0  0  0  0  0  0  0  0  0  0
   -0.8614    0.5024    1.1149 H   0  0  0  0  0  0  0  0  0  0  0  0
   -0.4634   -0.3654   -1.8077 H   0  0  0  0  0  0  0  0  0  0  0  0
   -2.5268   -2.1391   -1.4916 H   0  0  0  0  0  0  0  0  0  0  0  0
   -2.4488   -3.1664   -0.0757 H   0  0  0  0  0  0  0  0  0  0  0  0
   -0.3201   -2.1898    0.6305 H   0  0  0  0  0  0  0  0  0  0  0  0
   -0.2235   -2.6561   -1.0569 H   0  0  0  0  0  0  0  0  0  0  0  0
   -3.6630    2.1772   -0.2930 H   0  0  0  0  0  0  0  0  0  0  0  0
   -3.4509    1.5525    1.3762 H   0  0  0  0  0  0  0  0  0  0  0  0
   -1.2877    2.7452    0.0268 H   0  0  0  0  0  0  0  0  0  0  0  0
   -0.7728    2.0551   -1.5108 H   0  0  0  0  0  0  0  0  0  0  0  0
   -1.7155   -1.2497    2.1714 H   0  0  0  0  0  0  0  0  0  0  0  0
   -3.3081   -0.5498    2.4597 H   0  0  0  0  0  0  0  0  0  0  0  0
   -3.1492   -2.2766    2.1805 H   0  0  0  0  0  0  0  0  0  0  0  0
    0.8404    2.4391    1.0457 H   0  0  0  0  0  0  0  0  0  0  0  0
    1.1417    3.1279   -0.5554 H   0  0  0  0  0  0  0  0  0  0  0  0
    1.8885   -2.2346   -1.1372 H   0  0  0  0  0  0  0  0  0  0  0  0
    3.4697    2.3147    0.0085 H   0  0  0  0  0  0  0  0  0  0  0  0
    4.2459   -1.7940   -1.0172 H   0  0  0  0  0  0  0  0  0  0  0  0
   -7.0006    2.4360    0.2373 H   0  0  0  0  0  0  0  0  0  0  0  0
    5.6899   -1.2105    0.6980 H   0  0  0  0  0  0  0  0  0  0  0  0
    6.5070   -1.0958   -0.8875 H   0  0  0  0  0  0  0  0  0  0  0  0
    8.0477    0.6878    0.0751 H   0  0  0  0  0  0  0  0  0  0  0  0
    8.6732    0.1904    2.3460 H   0  0  0  0  0  0  0  0  0  0  0  0
    7.1837   -0.9019    2.5536 H   0  0  0  0  0  0  0  0  0  0  0  0
  1 13  2  0  0  0  0
  2  4  1  0  0  0  0
  2 45  1  0  0  0  0
  3 22  1  0  0  0  0
  3 23  1  0  0  0  0
  4 16  2  0  0  0  0
  5  6  1  0  0  0  0
  5  7  1  0  0  0  0
  5 11  1  0  0  0  0
  5 26  1  0  0  0  0
  6  8  1  0  0  0  0
  6 12  1  0  0  0  0
  6 27  1  0  0  0  0
  7  9  1  0  0  0  0
  7 13  1  0  0  0  0
  7 15  1  0  0  0  0
  8 10  1  0  0  0  0
  8 14  1  0  0  0  0
  8 28  1  0  0  0  0
  9 10  1  0  0  0  0
  9 29  1  0  0  0  0
  9 30  1  0  0  0  0
 10 31  1  0  0  0  0
 10 32  1  0  0  0  0
 11 16  1  0  0  0  0
 11 33  1  0  0  0  0
 11 34  1  0  0  0  0
 12 17  1  0  0  0  0
 12 35  1  0  0  0  0
 12 36  1  0  0  0  0
 13 16  1  0  0  0  0
 14 18  2  0  0  0  0
 14 19  1  0  0  0  0
 15 37  1  0  0  0  0
 15 38  1  0  0  0  0
 15 39  1  0  0  0  0
 17 18  1  0  0  0  0
 17 40  1  0  0  0  0
 17 41  1  0  0  0  0
 18 20  1  0  0  0  0
 19 21  2  0  0  0  0
 19 42  1  0  0  0  0
 20 22  2  0  0  0  0
 20 43  1  0  0  0  0
 21 22  1  0  0  0  0
 21 44  1  0  0  0  0
 23 24  1  0  0  0  0
 23 46  1  0  0  0  0
 23 47  1  0  0  0  0
 24 25  2  0  0  0  0
 24 48  1  0  0  0  0
 25 49  1  0  0  0  0
 25 50  1  0  0  0  0
M  END
> <PUBCHEM_COMPOUND_CID>
9561873

> <PUBCHEM_CONFORMER_RMSD>
0.8

> <PUBCHEM_CONFORMER_DIVERSEORDER>
1
3
2
4

> <PUBCHEM_MMFF94_PARTIAL_CHARGES>
26
1 -0.57
11 0.06
13 0.51
14 -0.14
16 0.39
17 0.14
18 -0.14
19 -0.15
2 -0.34
20 -0.15
21 -0.15
22 0.08
23 0.42
24 -0.29
25 -0.3
3 -0.36
4 -0.51
42 0.15
43 0.15
44 0.15
45 0.4
48 0.15
49 0.15
50 0.15
7 0.06
8 0.14

> <PUBCHEM_EFFECTIVE_ROTOR_COUNT>
4

> <PUBCHEM_PHARMACOPHORE_FEATURES>
9
1 1 acceptor
1 2 anion
1 25 hydrophobe
1 3 acceptor
1 4 acceptor
5 5 7 11 13 16 rings
6 14 18 19 20 21 22 rings
6 5 6 7 8 9 10 rings
6 6 8 12 14 17 18 rings

> <PUBCHEM_HEAVY_ATOM_COUNT>
25

> <PUBCHEM_ATOM_DEF_STEREO_COUNT>
4

> <PUBCHEM_ATOM_UDEF_STEREO_COUNT>
0

> <PUBCHEM_BOND_DEF_STEREO_COUNT>
1

> <PUBCHEM_BOND_UDEF_STEREO_COUNT>
0

> <PUBCHEM_ISOTOPIC_ATOM_COUNT>
0

> <PUBCHEM_COMPONENT_COUNT>
1

> <PUBCHEM_CACTVS_TAUTO_COUNT>
3

> <PUBCHEM_CONFORMER_ID>
0091E71100000001

> <PUBCHEM_MMFF94_ENERGY>
82.318

> <PUBCHEM_FEATURE_SELFOVERLAP>
45.775

> <PUBCHEM_SHAPE_FINGERPRINT>
10 15 18335145268095877160
10319926 262 18336837398662153152
10906281 52 18265872761736378740
11089746 13 17385726885061959808
11315181 36 18343300331930738333
11719270 70 18334294284524181710
12035758 1 18339626911364997465
12236239 1 17917427605936337972
12516196 113 17967248689683422424
12838862 33 18337404823961375605
13140716 1 18263364685972879844
13402501 40 18409162238144360037
13668630 136 14261352479601004640
13862211 1 18411137996162501750
14251764 18 18342174453435422134
14466204 15 18410853291249039113
14790565 3 17545877127833578908
15196674 1 18409442558049070653
15238133 3 18272359871876923372
15461852 350 17168149996487178412
17492 89 17908982106757921651
1813 80 17561078125442553270
200 152 17749384863255178703
2026 5 14260251924882200520
21033648 29 17894920611104810609
21130935 74 18187363255543605262
21150785 3 6483347837984468184
21267235 1 18337942407479127326
21279426 13 18266734878085040199
21421861 104 17988086715752572146
22224240 67 17530690900931581398
23035841 295 17346881152464362600
23402539 116 18334859407055405871
23522609 53 17773289345296922276
23559900 14 18260550009009396281
26918003 58 18202560666306539990
3004659 81 18271796918419793084
335352 9 18410290306867399037
3383291 50 18271241621444933659
34934 24 18410009957240769327
350125 39 18410009919245661052
4073 2 18059566941589408122
4214541 1 18409725145564768181
4258327 124 13912899549435690392
5104073 3 18338788997194057208
559249 180 18343303656525491251
7226269 152 18272371996617416457
9709674 26 18267857286405153087

> <PUBCHEM_SHAPE_MULTIPOLES>
491.9
16.61
2.13
1.08
20.22
0.24
0.48
0.29
6.37
-2.35
-0.12
1.03
-0.31
-0.07

> <PUBCHEM_SHAPE_SELFOVERLAP>
1064.028

> <PUBCHEM_SHAPE_VOLUME>
269.7

> <PUBCHEM_COORDINATE_TYPE>
2
5
10

$$$$

