46173948
  -OEChem-07051213102D

 52 53  0     1  0  0  0  0  0999 V2000
    6.0010    0.8100    0.0000 O   0  0  0  0  0  0  0  0  0  0  0  0
    6.8671   -0.6900    0.0000 O   0  0  0  0  0  0  0  0  0  0  0  0
    6.0010   -1.1900    0.0000 O   0  0  0  0  0  0  0  0  0  0  0  0
    4.2690   -2.1900    0.0000 O   0  0  0  0  0  0  0  0  0  0  0  0
    9.4651    0.8100    0.0000 O   0  0  0  0  0  0  0  0  0  0  0  0
    9.4651   -1.1900    0.0000 O   0  0  0  0  0  0  0  0  0  0  0  0
    6.8671   -2.6900    0.0000 O   0  0  0  0  0  0  0  0  0  0  0  0
    9.4651    1.8100    0.0000 O   0  0  0  0  0  0  0  0  0  0  0  0
    4.2690    1.8100    0.0000 N   0  0  0  0  0  0  0  0  0  0  0  0
    2.5369   -1.1900    0.0000 N   0  0  0  0  0  0  0  0  0  0  0  0
    7.7331    1.8100    0.0000 N   0  0  0  0  0  0  0  0  0  0  0  0
    5.1350    0.3100    0.0000 C   0  0  2  0  0  0  0  0  0  0  0  0
    4.2690    0.8100    0.0000 C   0  0  2  0  0  0  0  0  0  0  0  0
    5.1350   -0.6900    0.0000 C   0  0  1  0  0  0  0  0  0  0  0  0
    3.4030   -0.6900    0.0000 C   0  0  1  0  0  0  0  0  0  0  0  0
    4.2690   -1.1900    0.0000 C   0  0  2  0  0  0  0  0  0  0  0  0
    3.4030    0.3100    0.0000 C   0  0  0  0  0  0  0  0  0  0  0  0
    6.8671    0.3100    0.0000 C   0  0  1  0  0  0  0  0  0  0  0  0
    7.7331    0.8100    0.0000 C   0  0  1  0  0  0  0  0  0  0  0  0
    8.5991    0.3100    0.0000 C   0  0  2  0  0  0  0  0  0  0  0  0
    8.5991   -0.6900    0.0000 C   0  0  1  0  0  0  0  0  0  0  0  0
    7.7331   -1.1900    0.0000 C   0  0  1  0  0  0  0  0  0  0  0  0
    7.7331   -2.1900    0.0000 C   0  0  0  0  0  0  0  0  0  0  0  0
    8.5991    2.3100    0.0000 C   0  0  0  0  0  0  0  0  0  0  0  0
    8.5991    3.3100    0.0000 C   0  0  0  0  0  0  0  0  0  0  0  0
    5.1350    0.9300    0.0000 H   0  0  0  0  0  0  0  0  0  0  0  0
    4.8059    1.1200    0.0000 H   0  0  0  0  0  0  0  0  0  0  0  0
    5.6720   -0.3800    0.0000 H   0  0  0  0  0  0  0  0  0  0  0  0
    2.8660   -0.3800    0.0000 H   0  0  0  0  0  0  0  0  0  0  0  0
    4.8059   -1.5000    0.0000 H   0  0  0  0  0  0  0  0  0  0  0  0
    3.1909    0.8926    0.0000 H   0  0  0  0  0  0  0  0  0  0  0  0
    2.7924    0.2023    0.0000 H   0  0  0  0  0  0  0  0  0  0  0  0
    6.3301    0.0000    0.0000 H   0  0  0  0  0  0  0  0  0  0  0  0
    8.2700    1.1200    0.0000 H   0  0  0  0  0  0  0  0  0  0  0  0
    8.5991    0.9300    0.0000 H   0  0  0  0  0  0  0  0  0  0  0  0
    8.5991   -1.3100    0.0000 H   0  0  0  0  0  0  0  0  0  0  0  0
    7.1962   -1.5000    0.0000 H   0  0  0  0  0  0  0  0  0  0  0  0
    3.7320    2.1200    0.0000 H   0  0  0  0  0  0  0  0  0  0  0  0
    4.8059    2.1200    0.0000 H   0  0  0  0  0  0  0  0  0  0  0  0
    2.0000   -0.8800    0.0000 H   0  0  0  0  0  0  0  0  0  0  0  0
    2.5369   -1.8100    0.0000 H   0  0  0  0  0  0  0  0  0  0  0  0
    7.1962    2.1200    0.0000 H   0  0  0  0  0  0  0  0  0  0  0  0
    7.9451   -2.7726    0.0000 H   0  0  0  0  0  0  0  0  0  0  0  0
    8.3437   -2.0823    0.0000 H   0  0  0  0  0  0  0  0  0  0  0  0
    6.0010   -1.8100    0.0000 H   0  0  0  0  0  0  0  0  0  0  0  0
    3.7320   -2.5000    0.0000 H   0  0  0  0  0  0  0  0  0  0  0  0
   10.0021    0.5000    0.0000 H   0  0  0  0  0  0  0  0  0  0  0  0
    9.4651   -1.8100    0.0000 H   0  0  0  0  0  0  0  0  0  0  0  0
    6.8671   -3.3100    0.0000 H   0  0  0  0  0  0  0  0  0  0  0  0
    9.2191    3.3100    0.0000 H   0  0  0  0  0  0  0  0  0  0  0  0
    8.5991    3.9300    0.0000 H   0  0  0  0  0  0  0  0  0  0  0  0
    7.9791    3.3100    0.0000 H   0  0  0  0  0  0  0  0  0  0  0  0
 12  1  1  1  0  0  0
 18  1  1  6  0  0  0
  2 18  1  0  0  0  0
  2 22  1  0  0  0  0
 14  3  1  6  0  0  0
  3 45  1  0  0  0  0
 16  4  1  1  0  0  0
  4 46  1  0  0  0  0
 20  5  1  1  0  0  0
  5 47  1  0  0  0  0
 21  6  1  6  0  0  0
  6 48  1  0  0  0  0
  7 23  1  0  0  0  0
  7 49  1  0  0  0  0
  8 24  2  0  0  0  0
 13  9  1  6  0  0  0
  9 38  1  0  0  0  0
  9 39  1  0  0  0  0
 15 10  1  6  0  0  0
 10 40  1  0  0  0  0
 10 41  1  0  0  0  0
 19 11  1  6  0  0  0
 11 24  1  0  0  0  0
 11 42  1  0  0  0  0
 12 13  1  0  0  0  0
 12 14  1  0  0  0  0
 12 26  1  0  0  0  0
 13 17  1  0  0  0  0
 13 27  1  0  0  0  0
 14 16  1  0  0  0  0
 14 28  1  0  0  0  0
 15 16  1  0  0  0  0
 15 17  1  0  0  0  0
 15 29  1  0  0  0  0
 16 30  1  0  0  0  0
 17 31  1  0  0  0  0
 17 32  1  0  0  0  0
 18 19  1  0  0  0  0
 18 33  1  0  0  0  0
 19 20  1  0  0  0  0
 19 34  1  0  0  0  0
 20 21  1  0  0  0  0
 20 35  1  0  0  0  0
 21 22  1  0  0  0  0
 21 36  1  0  0  0  0
 22 23  1  1  0  0  0
 22 37  1  0  0  0  0
 23 43  1  0  0  0  0
 23 44  1  0  0  0  0
 24 25  1  0  0  0  0
 25 50  1  0  0  0  0
 25 51  1  0  0  0  0
 25 52  1  0  0  0  0
M  END
> <PUBCHEM_COMPOUND_CID>
46173948

> <PUBCHEM_COMPOUND_CANONICALIZED>
1

> <PUBCHEM_CACTVS_COMPLEXITY>
469

> <PUBCHEM_CACTVS_HBOND_ACCEPTOR>
10

> <PUBCHEM_CACTVS_HBOND_DONOR>
8

> <PUBCHEM_CACTVS_ROTATABLE_BOND>
4

> <PUBCHEM_CACTVS_SUBSKEYS>
AAADceBzPAAAAAAAAAAAAAAAAAAAAAAAAAA0QAAAAAAAAAAAAAAAHgAQCAAACDzxgAcCCALABgAIAAEQEAAAAAAAAAAAAIAIAAATEAIAwAAnQAAHFgCXAAHwcA8AAAAAAAAAAAAAgAAUCACgAAAAAAAAAA==

> <PUBCHEM_IUPAC_OPENEYE_NAME>
N-[(2S,3R,4R,5S,6R)-2-[(1R,2R,3S,4R,6S)-4,6-diamino-2,3-dihydroxy-cyclohexoxy]-4,5-dihydroxy-6-(hydroxymethyl)tetrahydropyran-3-yl]acetamide

> <PUBCHEM_IUPAC_CAS_NAME>
N-[(2S,3R,4R,5S,6R)-2-[(1R,2R,3S,4R,6S)-4,6-diamino-2,3-dihydroxycyclohexyl]oxy-4,5-dihydroxy-6-(hydroxymethyl)-3-oxanyl]acetamide

> <PUBCHEM_IUPAC_NAME>
N-[(2S,3R,4R,5S,6R)-2-[(1R,2R,3S,4R,6S)-4,6-diamino-2,3-dihydroxycyclohexyl]oxy-4,5-dihydroxy-6-(hydroxymethyl)oxan-3-yl]acetamide

> <PUBCHEM_IUPAC_SYSTEMATIC_NAME>
N-[(2S,3R,4R,5S,6R)-2-[(1R,2R,3S,4R,6S)-4,6-bis(azanyl)-2,3-bis(oxidanyl)cyclohexyl]oxy-6-(hydroxymethyl)-4,5-bis(oxidanyl)oxan-3-yl]ethanamide

> <PUBCHEM_IUPAC_TRADITIONAL_NAME>
N-[(2S,3R,4R,5S,6R)-2-[(1R,2R,3S,4R,6S)-4,6-diamino-2,3-dihydroxy-cyclohexoxy]-4,5-dihydroxy-6-methylol-tetrahydropyran-3-yl]acetamide

> <PUBCHEM_IUPAC_INCHI>
InChI=1S/C14H27N3O8/c1-4(19)17-8-11(22)10(21)7(3-18)24-14(8)25-13-6(16)2-5(15)9(20)12(13)23/h5-14,18,20-23H,2-3,15-16H2,1H3,(H,17,19)/t5-,6+,7-,8-,9+,10-,11-,12-,13-,14-/m1/s1

> <PUBCHEM_IUPAC_INCHIKEY>
ARLIVUJSSKFVPL-JPYLPOILSA-N

> <PUBCHEM_XLOGP3_AA>
-4.8

> <PUBCHEM_EXACT_MASS>
365.179815

> <PUBCHEM_MOLECULAR_FORMULA>
C14H27N3O8

> <PUBCHEM_MOLECULAR_WEIGHT>
365.37948

> <PUBCHEM_OPENEYE_CAN_SMILES>
CC(=O)NC1C(C(C(OC1OC2C(CC(C(C2O)O)N)N)CO)O)O

> <PUBCHEM_OPENEYE_ISO_SMILES>
CC(=O)N[C@@H]1[C@H]([C@@H]([C@H](O[C@@H]1O[C@@H]2[C@H](C[C@H]([C@@H]([C@H]2O)O)N)N)CO)O)O

> <PUBCHEM_CACTVS_TPSA>
201

> <PUBCHEM_MONOISOTOPIC_WEIGHT>
365.179815

> <PUBCHEM_TOTAL_CHARGE>
0

> <PUBCHEM_HEAVY_ATOM_COUNT>
25

> <PUBCHEM_ATOM_DEF_STEREO_COUNT>
10

> <PUBCHEM_ATOM_UDEF_STEREO_COUNT>
0

> <PUBCHEM_BOND_DEF_STEREO_COUNT>
0

> <PUBCHEM_BOND_UDEF_STEREO_COUNT>
0

> <PUBCHEM_ISOTOPIC_ATOM_COUNT>
0

> <PUBCHEM_COMPONENT_COUNT>
1

> <PUBCHEM_CACTVS_TAUTO_COUNT>
2

> <PUBCHEM_COORDINATE_TYPE>
1
5
255

> <PUBCHEM_BONDANNOTATIONS>
12  1  5
18  1  6
15  10  6
19  11  6
22  23  5
14  3  6
16  4  5
20  5  5
21  6  6
13  9  6

$$$$

