2265
  -OEChem-07051212523D

 26 28  0     0  0  0  0  0  0999 V2000
   -0.3031    0.3792   -1.6099 S   0  0  0  0  0  0  0  0  0  0  0  0
   -2.4400   -1.8923   -1.2402 O   0  5  0  0  0  0  0  0  0  0  0  0
   -4.0960   -1.7222    0.1910 O   0  0  0  0  0  0  0  0  0  0  0  0
   -1.5345    1.9027    0.2762 N   0  0  0  0  0  0  0  0  0  0  0  0
    2.8464    1.1503   -0.9043 N   0  0  0  0  0  0  0  0  0  0  0  0
   -3.2828    0.7329    0.9880 N   0  0  0  0  0  0  0  0  0  0  0  0
    0.5357   -1.5203    0.1226 N   0  0  0  0  0  0  0  0  0  0  0  0
    4.2709    0.0937    0.4460 N   0  0  0  0  0  0  0  0  0  0  0  0
   -3.0629   -1.2410   -0.3546 N   0  3  0  0  0  0  0  0  0  0  0  0
    2.7516   -1.6762    1.1312 N   0  0  0  0  0  0  0  0  0  0  0  0
   -1.5468    0.7425   -0.3987 C   0  0  0  0  0  0  0  0  0  0  0  0
    2.1576    0.0841   -0.3999 C   0  0  0  0  0  0  0  0  0  0  0  0
    0.8755   -0.4037   -0.5598 C   0  0  0  0  0  0  0  0  0  0  0  0
   -2.6030    0.0276    0.0265 C   0  0  0  0  0  0  0  0  0  0  0  0
   -2.6133    1.8570    1.1147 C   0  0  0  0  0  0  0  0  0  0  0  0
    3.0630   -0.5562    0.4355 C   0  0  0  0  0  0  0  0  0  0  0  0
   -0.6065    3.0078    0.1901 C   0  0  0  0  0  0  0  0  0  0  0  0
    4.1068    1.1139   -0.3689 C   0  0  0  0  0  0  0  0  0  0  0  0
    1.4812   -2.0798    0.9146 C   0  0  0  0  0  0  0  0  0  0  0  0
   -2.8626    2.6627    1.7920 H   0  0  0  0  0  0  0  0  0  0  0  0
    0.3689    2.6716    0.5490 H   0  0  0  0  0  0  0  0  0  0  0  0
   -0.5500    3.3418   -0.8488 H   0  0  0  0  0  0  0  0  0  0  0  0
   -0.9628    3.8306    0.8156 H   0  0  0  0  0  0  0  0  0  0  0  0
    2.4929    1.8418   -1.5523 H   0  0  0  0  0  0  0  0  0  0  0  0
    4.8519    1.8575   -0.6132 H   0  0  0  0  0  0  0  0  0  0  0  0
    1.1750   -2.9736    1.4473 H   0  0  0  0  0  0  0  0  0  0  0  0
  1 11  1  0  0  0  0
  1 13  1  0  0  0  0
  2  9  1  0  0  0  0
  3  9  2  0  0  0  0
  4 11  1  0  0  0  0
  4 15  1  0  0  0  0
  4 17  1  0  0  0  0
  5 12  1  0  0  0  0
  5 18  1  0  0  0  0
  5 24  1  0  0  0  0
  6 14  1  0  0  0  0
  6 15  2  0  0  0  0
  7 13  2  0  0  0  0
  7 19  1  0  0  0  0
  8 16  1  0  0  0  0
  8 18  2  0  0  0  0
  9 14  1  0  0  0  0
 10 16  1  0  0  0  0
 10 19  2  0  0  0  0
 11 14  2  0  0  0  0
 12 13  1  0  0  0  0
 12 16  2  0  0  0  0
 15 20  1  0  0  0  0
 17 21  1  0  0  0  0
 17 22  1  0  0  0  0
 17 23  1  0  0  0  0
 18 25  1  0  0  0  0
 19 26  1  0  0  0  0
M  CHG  2   2  -1   9   1
M  END
> <PUBCHEM_COMPOUND_CID>
2265

> <PUBCHEM_CONFORMER_RMSD>
0.6

> <PUBCHEM_CONFORMER_DIVERSEORDER>
1
14
11
7
18
13
5
8
16
9
10
12
15
6
3
17
4
2

> <PUBCHEM_MMFF94_PARTIAL_CHARGES>
23
1 -0.16
10 -0.57
11 -0.1
12 -0.15
13 0.41
14 0.31
15 0.04
16 0.48
17 0.26
18 0.04
19 0.47
2 -0.52
20 0.15
24 0.27
25 0.15
26 0.15
3 -0.52
4 0.05
5 0.03
6 -0.57
7 -0.62
8 -0.57
9 0.96

> <PUBCHEM_EFFECTIVE_ROTOR_COUNT>
3

> <PUBCHEM_PHARMACOPHORE_FEATURES>
11
1 2 acceptor
1 2 anion
1 3 acceptor
1 5 donor
1 7 acceptor
3 4 6 15 cation
3 5 8 18 cation
3 7 10 19 cation
5 4 6 11 14 15 rings
5 5 8 12 16 18 rings
6 7 10 12 13 16 19 rings

> <PUBCHEM_HEAVY_ATOM_COUNT>
19

> <PUBCHEM_ATOM_DEF_STEREO_COUNT>
0

> <PUBCHEM_ATOM_UDEF_STEREO_COUNT>
0

> <PUBCHEM_BOND_DEF_STEREO_COUNT>
0

> <PUBCHEM_BOND_UDEF_STEREO_COUNT>
0

> <PUBCHEM_ISOTOPIC_ATOM_COUNT>
0

> <PUBCHEM_COMPONENT_COUNT>
1

> <PUBCHEM_CACTVS_TAUTO_COUNT>
4

> <PUBCHEM_CONFORMER_ID>
000008D900000001

> <PUBCHEM_MMFF94_ENERGY>
35.6611

> <PUBCHEM_FEATURE_SELFOVERLAP>
56.032

> <PUBCHEM_SHAPE_FINGERPRINT>
10165383 225 15864338113058992236
1100329 8 17979071578865212331
11132069 177 18334855034662880980
11578080 2 18128559101404565125
12251169 10 18197217172686268784
12382932 28 18335134353824341901
12553582 1 18189906326985286655
13032168 30 18271525273769037723
13693222 15 17775568671291515484
13764800 53 17095804429371617417
14178342 30 18052838114942448146
14223421 5 18337673130346479412
14289901 80 18342176708551852128
14341114 328 18409439285083855888
14787075 74 18050848814654811188
15375462 189 18341324509920584353
15442244 35 18196940091925787018
15775835 57 18334571386601484808
16945 1 18050567635967423420
17492 89 18341051920862957571
18981168 100 15503245313416815160
19050596 39 18413108385439621640
200 152 18271817799722662855
20442098 301 18339643476621341066
23388829 49 18343015575620327125
23402539 116 18260836942752227934
23493267 7 17604139453939281456
23557571 272 17894899716252445500
23559900 14 17970056957896428478
23566358 27 18269543009239562550
23590187 214 18201721777473305490
34934 24 18411980295453191057
392239 28 18122060905847090128
7097593 13 17981329207144879346
90316 7 18337949099297033377
9925002 15 16665448731792214348

> <PUBCHEM_SHAPE_MULTIPOLES>
348.25
7.05
2.53
1.16
1.95
0.5
-0.18
-0.57
1.1
-1.13
0.44
-0.16
-0.06
-1.35

> <PUBCHEM_SHAPE_SELFOVERLAP>
757.591

> <PUBCHEM_SHAPE_VOLUME>
193.6

> <PUBCHEM_COORDINATE_TYPE>
2
5
10

$$$$

