3341
  -OEChem-07051212543D

 37 39  0     1  0  0  0  0  0999 V2000
   -3.2016    0.9245    2.4323 Cl  0  0  0  0  0  0  0  0  0  0  0  0
   -3.5597   -2.2712   -1.4723 O   0  0  0  0  0  0  0  0  0  0  0  0
   -4.4986   -1.1282    0.8380 O   0  0  0  0  0  0  0  0  0  0  0  0
    5.1080   -1.6132    1.3238 O   0  0  0  0  0  0  0  0  0  0  0  0
    0.8412    2.8370   -0.5896 N   0  0  0  0  0  0  0  0  0  0  0  0
    0.5329    0.4229   -1.3582 C   0  0  1  0  0  0  0  0  0  0  0  0
   -0.8110    0.0545   -0.7316 C   0  0  0  0  0  0  0  0  0  0  0  0
    0.5496    1.9352   -1.7053 C   0  0  0  0  0  0  0  0  0  0  0  0
   -1.2863    0.6511    0.4535 C   0  0  0  0  0  0  0  0  0  0  0  0
   -0.5013    1.7075    1.1903 C   0  0  0  0  0  0  0  0  0  0  0  0
   -0.2602    2.9672    0.3613 C   0  0  0  0  0  0  0  0  0  0  0  0
    1.7679   -0.1265   -0.6340 C   0  0  0  0  0  0  0  0  0  0  0  0
   -1.5986   -0.9288   -1.3626 C   0  0  0  0  0  0  0  0  0  0  0  0
   -2.5267    0.2441    0.9769 C   0  0  0  0  0  0  0  0  0  0  0  0
   -2.8281   -1.3167   -0.8325 C   0  0  0  0  0  0  0  0  0  0  0  0
    2.9899    0.5324   -0.7482 C   0  0  0  0  0  0  0  0  0  0  0  0
    1.6632   -1.2832    0.1353 C   0  0  0  0  0  0  0  0  0  0  0  0
   -3.2919   -0.7307    0.3383 C   0  0  0  0  0  0  0  0  0  0  0  0
    4.1132    0.0318   -0.0900 C   0  0  0  0  0  0  0  0  0  0  0  0
    2.7866   -1.7836    0.7936 C   0  0  0  0  0  0  0  0  0  0  0  0
    4.0115   -1.1261    0.6810 C   0  0  0  0  0  0  0  0  0  0  0  0
    0.5692   -0.0789   -2.3380 H   0  0  0  0  0  0  0  0  0  0  0  0
    1.3245    2.1039   -2.4642 H   0  0  0  0  0  0  0  0  0  0  0  0
   -0.3898    2.2304   -2.1926 H   0  0  0  0  0  0  0  0  0  0  0  0
   -0.9782    2.0279    2.1192 H   0  0  0  0  0  0  0  0  0  0  0  0
    0.4512    1.2752    1.5232 H   0  0  0  0  0  0  0  0  0  0  0  0
   -1.1768    3.3009   -0.1408 H   0  0  0  0  0  0  0  0  0  0  0  0
    0.0209    3.7693    1.0548 H   0  0  0  0  0  0  0  0  0  0  0  0
    1.0443    3.7617   -0.9706 H   0  0  0  0  0  0  0  0  0  0  0  0
   -1.2477   -1.4020   -2.2777 H   0  0  0  0  0  0  0  0  0  0  0  0
    3.1186    1.4207   -1.3570 H   0  0  0  0  0  0  0  0  0  0  0  0
    0.7320   -1.8315    0.2346 H   0  0  0  0  0  0  0  0  0  0  0  0
    5.0662    0.5452   -0.1855 H   0  0  0  0  0  0  0  0  0  0  0  0
    2.6953   -2.6883    1.3888 H   0  0  0  0  0  0  0  0  0  0  0  0
   -4.3794   -2.4171   -0.9686 H   0  0  0  0  0  0  0  0  0  0  0  0
   -4.6733   -0.6257    1.6522 H   0  0  0  0  0  0  0  0  0  0  0  0
    4.8567   -2.4176    1.8095 H   0  0  0  0  0  0  0  0  0  0  0  0
  1 14  1  0  0  0  0
  2 15  1  0  0  0  0
  2 35  1  0  0  0  0
  3 18  1  0  0  0  0
  3 36  1  0  0  0  0
  4 21  1  0  0  0  0
  4 37  1  0  0  0  0
  5  8  1  0  0  0  0
  5 11  1  0  0  0  0
  5 29  1  0  0  0  0
  6  7  1  0  0  0  0
  6  8  1  0  0  0  0
  6 12  1  0  0  0  0
  6 22  1  0  0  0  0
  7  9  1  0  0  0  0
  7 13  2  0  0  0  0
  8 23  1  0  0  0  0
  8 24  1  0  0  0  0
  9 10  1  0  0  0  0
  9 14  2  0  0  0  0
 10 11  1  0  0  0  0
 10 25  1  0  0  0  0
 10 26  1  0  0  0  0
 11 27  1  0  0  0  0
 11 28  1  0  0  0  0
 12 16  2  0  0  0  0
 12 17  1  0  0  0  0
 13 15  1  0  0  0  0
 13 30  1  0  0  0  0
 14 18  1  0  0  0  0
 15 18  2  0  0  0  0
 16 19  1  0  0  0  0
 16 31  1  0  0  0  0
 17 20  2  0  0  0  0
 17 32  1  0  0  0  0
 19 21  2  0  0  0  0
 19 33  1  0  0  0  0
 20 21  1  0  0  0  0
 20 34  1  0  0  0  0
M  END
> <PUBCHEM_COMPOUND_CID>
3341

> <PUBCHEM_CONFORMER_RMSD>
0.6

> <PUBCHEM_CONFORMER_DIVERSEORDER>
1
8
7
5
4
3
6
2
9

> <PUBCHEM_MMFF94_PARTIAL_CHARGES>
30
1 -0.18
10 0.14
11 0.27
12 -0.14
13 -0.15
14 0.18
15 0.08
16 -0.15
17 -0.15
18 0.08
19 -0.15
2 -0.53
20 -0.15
21 0.08
29 0.36
3 -0.53
30 0.15
31 0.15
32 0.15
33 0.15
34 0.15
35 0.45
36 0.45
37 0.45
4 -0.53
5 -0.9
6 0.29
7 -0.14
8 0.27
9 -0.14

> <PUBCHEM_EFFECTIVE_ROTOR_COUNT>
2

> <PUBCHEM_PHARMACOPHORE_FEATURES>
8
1 2 donor
1 3 donor
1 4 donor
1 5 cation
1 5 donor
6 12 16 17 19 20 21 rings
6 7 9 13 14 15 18 rings
7 5 6 7 8 9 10 11 rings

> <PUBCHEM_HEAVY_ATOM_COUNT>
21

> <PUBCHEM_ATOM_DEF_STEREO_COUNT>
0

> <PUBCHEM_ATOM_UDEF_STEREO_COUNT>
1

> <PUBCHEM_BOND_DEF_STEREO_COUNT>
0

> <PUBCHEM_BOND_UDEF_STEREO_COUNT>
0

> <PUBCHEM_ISOTOPIC_ATOM_COUNT>
0

> <PUBCHEM_COMPONENT_COUNT>
1

> <PUBCHEM_CACTVS_TAUTO_COUNT>
84

> <PUBCHEM_CONFORMER_ID>
00000D0D00000001

> <PUBCHEM_MMFF94_ENERGY>
64.5266

> <PUBCHEM_FEATURE_SELFOVERLAP>
40.608

> <PUBCHEM_SHAPE_FINGERPRINT>
10948715 1 7348889974921844204
11132069 177 17822007648591754310
11221954 11 5182406654461947643
11578080 2 18265074490620638389
11725454 13 15287040817470791897
12202030 40 16915641602387035025
12236239 1 18336818723733003478
12363563 72 17346878987769450006
12553582 1 18410569583031837462
12633257 1 17822008769820981336
13004483 165 18269285727480827169
13083527 12 15432314624782785415
13544653 18 17917706920380935690
13583140 156 17315381334309198314
13911987 19 16268226057887512692
13965767 371 17465629666542077785
14178342 30 17749939034032112431
14251757 17 15626227913776665234
14341114 328 18186518787636627928
14787075 74 18117837690713105992
15375462 189 18339357474564458270
16945 1 17916574337199227141
17980427 23 16878231883336319361
1813 80 18271793653653843446
18915476 22 16700308834156283252
19862831 5 10952044533334673010
200 152 18060424637820869242
20600515 1 17240479152996716119
20871999 31 12823289117734802518
22112679 90 18188755189454824389
2255824 54 18125149438162263068
23366157 5 17976262335605343185
23388829 49 18411129234397666836
23402539 116 18201723998198322642
23419403 2 17608129478642259037
23526113 38 16415194529496740453
23557571 272 16516226497268603529
23598288 3 18197213857071996628
25147074 1 17678733428820400527
2748010 2 17469569251285929861
7064713 232 17677597830207575489
7097593 13 18045780349925137882
7471813 234 17606419656709546223
77492 1 18336815416571139005
90316 7 18262231235002139905

> <PUBCHEM_SHAPE_MULTIPOLES>
411.45
7.63
2.56
1.74
3.5
1.37
0.26
-5.13
3.18
-0.32
-0.25
-0.88
0.17
-2.04

> <PUBCHEM_SHAPE_SELFOVERLAP>
886.895

> <PUBCHEM_SHAPE_VOLUME>
224.8

> <PUBCHEM_COORDINATE_TYPE>
2
5
10

$$$$

