13069
  -OEChem-06261207433D

 26 28  0     0  0  0  0  0  0999 V2000
   -0.0002    2.6299   -0.0002 N   0  0  0  0  0  0  0  0  0  0  0  0
   -1.2251    0.5182    0.0000 C   0  0  0  0  0  0  0  0  0  0  0  0
    1.2251    0.5182    0.0000 C   0  0  0  0  0  0  0  0  0  0  0  0
   -1.2251   -0.8939    0.0000 C   0  0  0  0  0  0  0  0  0  0  0  0
    1.2251   -0.8939   -0.0001 C   0  0  0  0  0  0  0  0  0  0  0  0
    0.0000    1.2059    0.0001 C   0  0  0  0  0  0  0  0  0  0  0  0
    0.0001   -1.5815   -0.0001 C   0  0  0  0  0  0  0  0  0  0  0  0
   -2.4505    1.2051    0.0001 C   0  0  0  0  0  0  0  0  0  0  0  0
    2.4505    1.2051    0.0001 C   0  0  0  0  0  0  0  0  0  0  0  0
   -2.4504   -1.5808    0.0001 C   0  0  0  0  0  0  0  0  0  0  0  0
    2.4506   -1.5807    0.0000 C   0  0  0  0  0  0  0  0  0  0  0  0
   -3.6587    0.5077    0.0000 C   0  0  0  0  0  0  0  0  0  0  0  0
    3.6587    0.5077    0.0001 C   0  0  0  0  0  0  0  0  0  0  0  0
   -3.6587   -0.8835    0.0000 C   0  0  0  0  0  0  0  0  0  0  0  0
    3.6587   -0.8834    0.0000 C   0  0  0  0  0  0  0  0  0  0  0  0
    0.0000   -2.6716   -0.0002 H   0  0  0  0  0  0  0  0  0  0  0  0
   -2.5287    2.2869    0.0001 H   0  0  0  0  0  0  0  0  0  0  0  0
    2.5286    2.2870    0.0001 H   0  0  0  0  0  0  0  0  0  0  0  0
   -2.4742   -2.6687    0.0000 H   0  0  0  0  0  0  0  0  0  0  0  0
    2.4743   -2.6686   -0.0001 H   0  0  0  0  0  0  0  0  0  0  0  0
   -4.5995    1.0504    0.0000 H   0  0  0  0  0  0  0  0  0  0  0  0
    4.5995    1.0504    0.0003 H   0  0  0  0  0  0  0  0  0  0  0  0
   -4.5988   -1.4272    0.0000 H   0  0  0  0  0  0  0  0  0  0  0  0
    4.5989   -1.4271    0.0000 H   0  0  0  0  0  0  0  0  0  0  0  0
   -0.8566    3.1614    0.0007 H   0  0  0  0  0  0  0  0  0  0  0  0
    0.8562    3.1614    0.0001 H   0  0  0  0  0  0  0  0  0  0  0  0
  1  6  1  0  0  0  0
  1 25  1  0  0  0  0
  1 26  1  0  0  0  0
  2  4  1  0  0  0  0
  2  6  2  0  0  0  0
  2  8  1  0  0  0  0
  3  5  1  0  0  0  0
  3  6  1  0  0  0  0
  3  9  2  0  0  0  0
  4  7  2  0  0  0  0
  4 10  1  0  0  0  0
  5  7  1  0  0  0  0
  5 11  2  0  0  0  0
  7 16  1  0  0  0  0
  8 12  2  0  0  0  0
  8 17  1  0  0  0  0
  9 13  1  0  0  0  0
  9 18  1  0  0  0  0
 10 14  2  0  0  0  0
 10 19  1  0  0  0  0
 11 15  1  0  0  0  0
 11 20  1  0  0  0  0
 12 14  1  0  0  0  0
 12 21  1  0  0  0  0
 13 15  2  0  0  0  0
 13 22  1  0  0  0  0
 14 23  1  0  0  0  0
 15 24  1  0  0  0  0
M  END
> <PUBCHEM_COMPOUND_CID>
13069

> <PUBCHEM_CONFORMER_RMSD>
0.4

> <PUBCHEM_CONFORMER_DIVERSEORDER>
1

> <PUBCHEM_MMFF94_PARTIAL_CHARGES>
22
1 -0.9
10 -0.15
11 -0.15
12 -0.15
13 -0.15
14 -0.15
15 -0.15
16 0.15
17 0.15
18 0.15
19 0.15
20 0.15
21 0.15
22 0.15
23 0.15
24 0.15
25 0.4
26 0.4
6 0.1
7 -0.15
8 -0.15
9 -0.15

> <PUBCHEM_EFFECTIVE_ROTOR_COUNT>
0

> <PUBCHEM_PHARMACOPHORE_FEATURES>
5
1 1 cation
1 1 donor
6 2 3 4 5 6 7 rings
6 2 4 8 10 12 14 rings
6 3 5 9 11 13 15 rings

> <PUBCHEM_HEAVY_ATOM_COUNT>
15

> <PUBCHEM_ATOM_DEF_STEREO_COUNT>
0

> <PUBCHEM_ATOM_UDEF_STEREO_COUNT>
0

> <PUBCHEM_BOND_DEF_STEREO_COUNT>
0

> <PUBCHEM_BOND_UDEF_STEREO_COUNT>
0

> <PUBCHEM_ISOTOPIC_ATOM_COUNT>
0

> <PUBCHEM_COMPONENT_COUNT>
1

> <PUBCHEM_CACTVS_TAUTO_COUNT>
1

> <PUBCHEM_CONFORMER_ID>
0000330D00000001

> <PUBCHEM_MMFF94_ENERGY>
64.928

> <PUBCHEM_FEATURE_SELFOVERLAP>
25.423

> <PUBCHEM_SHAPE_FINGERPRINT>
10608611 8 18410578383198254560
10967382 1 18410573972340623138
11132069 177 18409454686667371400
11471102 20 18410860957702183574
11806522 49 18339083666531898687
12032990 46 18410569591400147683
12382932 28 18408885156771324625
13140716 1 18410856602594809210
13221675 6 18410856563934958242
13296908 3 18410854360622042635
13380535 76 18410575088958526919
14144814 61 18410011039535299219
14325111 11 18410856559645103296
15196674 1 18410573989446483399
15219456 202 18409167718417075942
15375462 189 18130507530144141379
15442244 35 18194683902396893418
15536298 74 18334294262611059698
16945 1 18410575097548000292
18186145 218 17989209265120589374
193761 8 17690279730212959363
200 152 18041007219909547415
20201158 50 18411418418698164323
20510252 161 18260830448640441504
20645477 70 18336550507558121847
21029758 11 18335146379933386689
21267235 1 18410846664035607299
21501502 16 18410573993746699466
221490 88 18197490736243913338
2334 1 18410856529575148422
23402539 116 18261684730530891758
23402655 69 18335989748158957493
23463225 33 18412262843770467774
23559900 14 18335986475821203974
2748010 2 18410013234231880502
3071541 158 18272371932061012605
3312278 4 18411134744687375897
335352 9 18050568744069005471
34934 24 18410583885056492586
5104073 3 18411138038916782250
528886 8 18409735066411707770
537710 114 18411694370383875188
53812653 166 18334298621723452976
69090 78 18334018289450785479
7364860 26 18191587441155763160
8809292 202 18272365347939451283
9709674 26 18410006628704678142

> <PUBCHEM_SHAPE_MULTIPOLES>
303.71
6.27
2.05
0.61
0
0.48
0
-0.83
0
0
0
0
-0.01
0

> <PUBCHEM_SHAPE_SELFOVERLAP>
688.982

> <PUBCHEM_SHAPE_VOLUME>
158.9

> <PUBCHEM_COORDINATE_TYPE>
2
5
10

$$$$

