35823
  -OEChem-07051213113D

 22 23  0     0  0  0  0  0  0999 V2000
    0.4710    2.8035   -0.0804 Cl  0  0  0  0  0  0  0  0  0  0  0  0
    3.6950   -2.5456    0.0788 Cl  0  0  0  0  0  0  0  0  0  0  0  0
   -3.8281   -0.4029   -2.2894 Cl  0  0  0  0  0  0  0  0  0  0  0  0
    5.1958    0.3036   -0.2359 Cl  0  0  0  0  0  0  0  0  0  0  0  0
   -5.2368   -0.3062    0.6220 Cl  0  0  0  0  0  0  0  0  0  0  0  0
    0.6922    0.0816    0.1028 C   0  0  0  0  0  0  0  0  0  0  0  0
   -0.7474   -0.0137    0.2121 C   0  0  0  0  0  0  0  0  0  0  0  0
    1.3433    1.3101   -0.0338 C   0  0  0  0  0  0  0  0  0  0  0  0
    1.4393   -1.0980    0.1354 C   0  0  0  0  0  0  0  0  0  0  0  0
   -1.5276   -0.1469   -0.9365 C   0  0  0  0  0  0  0  0  0  0  0  0
   -1.3551    0.0277    1.4670 C   0  0  0  0  0  0  0  0  0  0  0  0
    2.8295   -1.0498    0.0320 C   0  0  0  0  0  0  0  0  0  0  0  0
    2.7334    1.3583   -0.1373 C   0  0  0  0  0  0  0  0  0  0  0  0
   -2.9153   -0.2387   -0.8302 C   0  0  0  0  0  0  0  0  0  0  0  0
   -2.7428   -0.0640    1.5733 C   0  0  0  0  0  0  0  0  0  0  0  0
    3.4765    0.1785   -0.1044 C   0  0  0  0  0  0  0  0  0  0  0  0
   -3.5229   -0.1973    0.4246 C   0  0  0  0  0  0  0  0  0  0  0  0
    0.9366   -2.0582    0.2414 H   0  0  0  0  0  0  0  0  0  0  0  0
   -1.0526   -0.1789   -1.9155 H   0  0  0  0  0  0  0  0  0  0  0  0
   -0.7616    0.1316    2.3724 H   0  0  0  0  0  0  0  0  0  0  0  0
    3.2377    2.3167   -0.2436 H   0  0  0  0  0  0  0  0  0  0  0  0
   -3.1996   -0.0298    2.5592 H   0  0  0  0  0  0  0  0  0  0  0  0
  1  8  1  0  0  0  0
  2 12  1  0  0  0  0
  3 14  1  0  0  0  0
  4 16  1  0  0  0  0
  5 17  1  0  0  0  0
  6  7  1  0  0  0  0
  6  8  1  0  0  0  0
  6  9  2  0  0  0  0
  7 10  2  0  0  0  0
  7 11  1  0  0  0  0
  8 13  2  0  0  0  0
  9 12  1  0  0  0  0
  9 18  1  0  0  0  0
 10 14  1  0  0  0  0
 10 19  1  0  0  0  0
 11 15  2  0  0  0  0
 11 20  1  0  0  0  0
 12 16  2  0  0  0  0
 13 16  1  0  0  0  0
 13 21  1  0  0  0  0
 14 17  2  0  0  0  0
 15 17  1  0  0  0  0
 15 22  1  0  0  0  0
M  END
> <PUBCHEM_COMPOUND_CID>
35823

> <PUBCHEM_CONFORMER_RMSD>
0.6

> <PUBCHEM_CONFORMER_DIVERSEORDER>
2
5
4
3
6
1

> <PUBCHEM_MMFF94_PARTIAL_CHARGES>
20
1 -0.18
10 -0.15
11 -0.15
12 0.18
13 -0.15
14 0.18
15 -0.15
16 0.18
17 0.18
18 0.15
19 0.15
2 -0.18
20 0.15
21 0.15
22 0.15
3 -0.18
4 -0.18
5 -0.18
8 0.18
9 -0.15

> <PUBCHEM_EFFECTIVE_ROTOR_COUNT>
1

> <PUBCHEM_PHARMACOPHORE_FEATURES>
2
6 6 8 9 12 13 16 rings
6 7 10 11 14 15 17 rings

> <PUBCHEM_HEAVY_ATOM_COUNT>
17

> <PUBCHEM_ATOM_DEF_STEREO_COUNT>
0

> <PUBCHEM_ATOM_UDEF_STEREO_COUNT>
0

> <PUBCHEM_BOND_DEF_STEREO_COUNT>
0

> <PUBCHEM_BOND_UDEF_STEREO_COUNT>
0

> <PUBCHEM_ISOTOPIC_ATOM_COUNT>
0

> <PUBCHEM_COMPONENT_COUNT>
1

> <PUBCHEM_CACTVS_TAUTO_COUNT>
1

> <PUBCHEM_CONFORMER_ID>
00008BEF00000002

> <PUBCHEM_MMFF94_ENERGY>
46.5767

> <PUBCHEM_FEATURE_SELFOVERLAP>
10.149

> <PUBCHEM_SHAPE_FINGERPRINT>
10062212 137 17530687585169388599
10498660 4 15625956369054545975
11471102 20 18341608196837289184
12236239 1 17821723931589315771
12553582 1 18408325510075275150
13134695 92 18411422804060441692
13140716 1 18194965141740986904
13538477 17 17313103017108567959
13760787 5 18335425685503213750
14115302 16 17386003928022512301
14386348 63 17774997981617233338
14576447 43 18187940430016741502
15375462 189 18113617889380654032
16945 1 18411978045016688128
17357779 13 18272939340306557812
1813 80 18116696595142963598
18186145 218 17489592311177686765
200 152 18334296469986847145
20279233 1 17561358483073762154
20645477 70 18271806864963202626
21267235 1 18335971026164392362
21639500 275 18267024955470229269
22112679 90 17385992936842960801
2255824 54 18262234396530482236
23175994 123 18131062740513916284
232386 152 16515970268146543149
23402539 116 18259987071676853244
23526113 38 17987816196783538132
23557571 272 16702302347347277644
23559900 14 16916794036929165626
2748010 2 18195250155749637220
474 4 17898299303374838160
5281201 14 17704352186337176671
573450 72 17022904570687795559
602551 16 15430045318271211542
77492 1 17821725022563756441

> <PUBCHEM_SHAPE_MULTIPOLES>
359.2
9.54
1.89
1.35
0.86
0.49
0.38
-2.6
0.77
-2.36
0.04
2.13
-0.17
-0.31

> <PUBCHEM_SHAPE_SELFOVERLAP>
733.226

> <PUBCHEM_SHAPE_VOLUME>
200.5

> <PUBCHEM_COORDINATE_TYPE>
2
5
10

$$$$

