3037123
  -OEChem-07051213122D

 72 76  0     1  0  0  0  0  0999 V2000
    5.9812    0.4216    0.0000 O   0  0  0  0  0  0  0  0  0  0  0  0
    4.2493    0.4416    0.0000 O   0  0  0  0  0  0  0  0  0  0  0  0
    4.0636   -2.1377    0.0000 O   0  0  0  0  0  0  0  0  0  0  0  0
    5.9812   -3.6476    0.0000 O   0  0  0  0  0  0  0  0  0  0  0  0
    2.5405    2.4615    0.0000 O   0  0  0  0  0  0  0  0  0  0  0  0
    7.7296    0.3870    0.0000 O   0  0  0  0  0  0  0  0  0  0  0  0
    7.7296   -3.6130    0.0000 O   0  0  0  0  0  0  0  0  0  0  0  0
    9.4780    0.4216    0.0000 O   0  0  0  0  0  0  0  0  0  0  0  0
    9.4780   -3.6476    0.0000 O   0  0  0  0  0  0  0  0  0  0  0  0
   11.3153    0.4646    0.0000 O   0  0  0  0  0  0  0  0  0  0  0  0
    4.2840    3.4414    0.0000 N   0  0  0  0  0  0  0  0  0  0  0  0
    5.0636   -2.1338    0.0000 C   0  0  2  0  0  0  0  0  0  0  0  0
    5.0636   -1.0922    0.0000 C   0  0  0  0  0  0  0  0  0  0  0  0
    5.9697   -0.5784    0.0000 C   0  0  1  0  0  0  0  0  0  0  0  0
    5.9697   -2.6477    0.0000 C   0  0  1  0  0  0  0  0  0  0  0  0
    6.8636   -1.1130    0.0000 C   0  0  0  0  0  0  0  0  0  0  0  0
    6.8636   -2.1130    0.0000 C   0  0  0  0  0  0  0  0  0  0  0  0
    4.2724    2.4415    0.0000 C   0  0  1  0  0  0  0  0  0  0  0  0
    5.1210    0.9316    0.0000 C   0  0  2  0  0  0  0  0  0  0  0  0
    4.5669   -3.0018    0.0000 C   0  0  0  0  0  0  0  0  0  0  0  0
    5.1326    1.9315    0.0000 C   0  0  0  0  0  0  0  0  0  0  0  0
    3.4007    1.9515    0.0000 C   0  0  1  0  0  0  0  0  0  0  0  0
    3.3891    0.9516    0.0000 C   0  0  2  0  0  0  0  0  0  0  0  0
    7.7296   -0.6130    0.0000 C   0  0  0  0  0  0  0  0  0  0  0  0
    7.7296   -2.6130    0.0000 C   0  0  0  0  0  0  0  0  0  0  0  0
    8.5957   -1.1130    0.0000 C   0  0  0  0  0  0  0  0  0  0  0  0
    8.5957   -2.1130    0.0000 C   0  0  0  0  0  0  0  0  0  0  0  0
    5.0703   -3.8659    0.0000 C   0  0  0  0  0  0  0  0  0  0  0  0
    2.5174    0.4616    0.0000 C   0  0  0  0  0  0  0  0  0  0  0  0
    9.4896   -0.5784    0.0000 C   0  0  0  0  0  0  0  0  0  0  0  0
    9.4896   -2.6477    0.0000 C   0  0  0  0  0  0  0  0  0  0  0  0
    5.1557    3.9314    0.0000 C   0  0  0  0  0  0  0  0  0  0  0  0
    3.4238    3.9514    0.0000 C   0  0  0  0  0  0  0  0  0  0  0  0
   10.3957   -1.0922    0.0000 C   0  0  0  0  0  0  0  0  0  0  0  0
   10.3957   -2.1338    0.0000 C   0  0  0  0  0  0  0  0  0  0  0  0
   11.3268   -0.5353    0.0000 C   0  0  0  0  0  0  0  0  0  0  0  0
   11.3268   -2.6908    0.0000 C   0  0  0  0  0  0  0  0  0  0  0  0
   12.2706   -1.0705    0.0000 C   0  0  0  0  0  0  0  0  0  0  0  0
   12.2706   -2.1555    0.0000 C   0  0  0  0  0  0  0  0  0  0  0  0
    4.8545   -0.5085    0.0000 H   0  0  0  0  0  0  0  0  0  0  0  0
    4.4527   -1.1983    0.0000 H   0  0  0  0  0  0  0  0  0  0  0  0
    5.4357   -0.2632    0.0000 H   0  0  0  0  0  0  0  0  0  0  0  0
    5.4357   -2.9628    0.0000 H   0  0  0  0  0  0  0  0  0  0  0  0
    3.7391    2.7577    0.0000 H   0  0  0  0  0  0  0  0  0  0  0  0
    5.6615    1.2353    0.0000 H   0  0  0  0  0  0  0  0  0  0  0  0
    4.0905   -2.6051    0.0000 H   0  0  0  0  0  0  0  0  0  0  0  0
    4.0935   -3.4021    0.0000 H   0  0  0  0  0  0  0  0  0  0  0  0
    5.7419    1.8168    0.0000 H   0  0  0  0  0  0  0  0  0  0  0  0
    5.3514    2.5116    0.0000 H   0  0  0  0  0  0  0  0  0  0  0  0
    3.4078    2.5715    0.0000 H   0  0  0  0  0  0  0  0  0  0  0  0
    3.3819    0.3316    0.0000 H   0  0  0  0  0  0  0  0  0  0  0  0
    3.7557   -2.6758    0.0000 H   0  0  0  0  0  0  0  0  0  0  0  0
    4.5345   -4.1779    0.0000 H   0  0  0  0  0  0  0  0  0  0  0  0
    5.3823   -4.4016    0.0000 H   0  0  0  0  0  0  0  0  0  0  0  0
    5.6060   -3.5538    0.0000 H   0  0  0  0  0  0  0  0  0  0  0  0
    6.5217   -3.9514    0.0000 H   0  0  0  0  0  0  0  0  0  0  0  0
    2.2136    1.0021    0.0000 H   0  0  0  0  0  0  0  0  0  0  0  0
    1.9769    0.1579    0.0000 H   0  0  0  0  0  0  0  0  0  0  0  0
    2.8211   -0.0789    0.0000 H   0  0  0  0  0  0  0  0  0  0  0  0
    2.0000    2.1577    0.0000 H   0  0  0  0  0  0  0  0  0  0  0  0
    5.4595    3.3909    0.0000 H   0  0  0  0  0  0  0  0  0  0  0  0
    5.6962    4.2351    0.0000 H   0  0  0  0  0  0  0  0  0  0  0  0
    4.8520    4.4718    0.0000 H   0  0  0  0  0  0  0  0  0  0  0  0
    3.7400    4.4847    0.0000 H   0  0  0  0  0  0  0  0  0  0  0  0
    2.8905    4.2676    0.0000 H   0  0  0  0  0  0  0  0  0  0  0  0
    3.1076    3.4181    0.0000 H   0  0  0  0  0  0  0  0  0  0  0  0
    8.2666    0.6970    0.0000 H   0  0  0  0  0  0  0  0  0  0  0  0
    8.2666   -3.9230    0.0000 H   0  0  0  0  0  0  0  0  0  0  0  0
   11.3197   -3.3107    0.0000 H   0  0  0  0  0  0  0  0  0  0  0  0
   12.8063   -0.7585    0.0000 H   0  0  0  0  0  0  0  0  0  0  0  0
   12.8063   -2.4676    0.0000 H   0  0  0  0  0  0  0  0  0  0  0  0
   11.8486    0.7808    0.0000 H   0  0  0  0  0  0  0  0  0  0  0  0
 14  1  1  6  0  0  0
 19  1  1  6  0  0  0
  2 19  1  0  0  0  0
  2 23  1  0  0  0  0
 12  3  1  6  0  0  0
  3 52  1  0  0  0  0
 15  4  1  1  0  0  0
  4 56  1  0  0  0  0
 22  5  1  1  0  0  0
  5 60  1  0  0  0  0
  6 24  1  0  0  0  0
  6 67  1  0  0  0  0
  7 25  1  0  0  0  0
  7 68  1  0  0  0  0
  8 30  2  0  0  0  0
  9 31  2  0  0  0  0
 10 36  1  0  0  0  0
 10 72  1  0  0  0  0
 18 11  1  1  0  0  0
 11 32  1  0  0  0  0
 11 33  1  0  0  0  0
 12 13  1  0  0  0  0
 12 15  1  0  0  0  0
 12 20  1  0  0  0  0
 13 14  1  0  0  0  0
 13 40  1  0  0  0  0
 13 41  1  0  0  0  0
 14 16  1  0  0  0  0
 14 42  1  0  0  0  0
 15 17  1  0  0  0  0
 15 43  1  0  0  0  0
 16 17  1  0  0  0  0
 16 24  2  0  0  0  0
 17 25  2  0  0  0  0
 18 21  1  0  0  0  0
 18 22  1  0  0  0  0
 18 44  1  0  0  0  0
 19 21  1  0  0  0  0
 19 45  1  0  0  0  0
 20 28  1  0  0  0  0
 20 46  1  0  0  0  0
 20 47  1  0  0  0  0
 21 48  1  0  0  0  0
 21 49  1  0  0  0  0
 22 23  1  0  0  0  0
 22 50  1  0  0  0  0
 23 29  1  1  0  0  0
 23 51  1  0  0  0  0
 24 26  1  0  0  0  0
 25 27  1  0  0  0  0
 26 27  2  0  0  0  0
 26 30  1  0  0  0  0
 27 31  1  0  0  0  0
 28 53  1  0  0  0  0
 28 54  1  0  0  0  0
 28 55  1  0  0  0  0
 29 57  1  0  0  0  0
 29 58  1  0  0  0  0
 29 59  1  0  0  0  0
 30 34  1  0  0  0  0
 31 35  1  0  0  0  0
 32 61  1  0  0  0  0
 32 62  1  0  0  0  0
 32 63  1  0  0  0  0
 33 64  1  0  0  0  0
 33 65  1  0  0  0  0
 33 66  1  0  0  0  0
 34 35  2  0  0  0  0
 34 36  1  0  0  0  0
 35 37  1  0  0  0  0
 36 38  2  0  0  0  0
 37 39  2  0  0  0  0
 37 69  1  0  0  0  0
 38 39  1  0  0  0  0
 38 70  1  0  0  0  0
 39 71  1  0  0  0  0
M  END
> <PUBCHEM_COMPOUND_CID>
3037123

> <PUBCHEM_COMPOUND_CANONICALIZED>
1

> <PUBCHEM_CACTVS_COMPLEXITY>
947

> <PUBCHEM_CACTVS_HBOND_ACCEPTOR>
11

> <PUBCHEM_CACTVS_HBOND_DONOR>
6

> <PUBCHEM_CACTVS_ROTATABLE_BOND>
4

> <PUBCHEM_CACTVS_SUBSKEYS>
AAADcfB6PAAAAAAAAAAAAAAAAAAAAAAAAAA0YMGCAAAAAADBQAAAHgAACAAADHzxmAcyDoMABgCIAqBSAAACAAAkIAAIiAEOCMgbNzaCtRqmcUAn4BEfuYfL7PzOwQADAAAYAADCAAYQADCAAAAAAAAAAA==

> <PUBCHEM_IUPAC_OPENEYE_NAME>
(7S,9R,10R)-7-[(2R,4S,5S,6S)-4-(dimethylamino)-5-hydroxy-6-methyl-tetrahydropyran-2-yl]oxy-9-ethyl-4,6,9,10,11-pentahydroxy-8,10-dihydro-7H-tetracene-5,12-dione

> <PUBCHEM_IUPAC_CAS_NAME>
(7S,9R,10R)-7-[[(2R,4S,5S,6S)-4-(dimethylamino)-5-hydroxy-6-methyl-2-oxanyl]oxy]-9-ethyl-4,6,9,10,11-pentahydroxy-8,10-dihydro-7H-tetracene-5,12-dione

> <PUBCHEM_IUPAC_NAME>
(7S,9R,10R)-7-[(2R,4S,5S,6S)-4-(dimethylamino)-5-hydroxy-6-methyloxan-2-yl]oxy-9-ethyl-4,6,9,10,11-pentahydroxy-8,10-dihydro-7H-tetracene-5,12-dione

> <PUBCHEM_IUPAC_SYSTEMATIC_NAME>
(7S,9R,10R)-7-[(2R,4S,5S,6S)-4-(dimethylamino)-6-methyl-5-oxidanyl-oxan-2-yl]oxy-9-ethyl-4,6,9,10,11-pentakis(oxidanyl)-8,10-dihydro-7H-tetracene-5,12-dione

> <PUBCHEM_IUPAC_TRADITIONAL_NAME>
(7S,9R,10R)-7-[(2R,4S,5S,6S)-4-(dimethylamino)-5-hydroxy-6-methyl-tetrahydropyran-2-yl]oxy-9-ethyl-4,6,9,10,11-pentahydroxy-8,10-dihydro-7H-tetracene-5,12-quinone

> <PUBCHEM_IUPAC_INCHI>
InChI=1S/C28H33NO10/c1-5-28(37)10-15(39-16-9-13(29(3)4)22(31)11(2)38-16)18-21(27(28)36)26(35)19-20(25(18)34)24(33)17-12(23(19)32)7-6-8-14(17)30/h6-8,11,13,15-16,22,27,30-31,34-37H,5,9-10H2,1-4H3/t11-,13-,15-,16-,22+,27+,28+/m0/s1

> <PUBCHEM_IUPAC_INCHIKEY>
HINUXGZHCXYZMB-DJNFHWKQSA-N

> <PUBCHEM_XLOGP3_AA>
2

> <PUBCHEM_EXACT_MASS>
543.210446

> <PUBCHEM_MOLECULAR_FORMULA>
C28H33NO10

> <PUBCHEM_MOLECULAR_WEIGHT>
543.56232

> <PUBCHEM_OPENEYE_CAN_SMILES>
CCC1(CC(C2=C(C3=C(C(=C2C1O)O)C(=O)C4=C(C3=O)C(=CC=C4)O)O)OC5CC(C(C(O5)C)O)N(C)C)O

> <PUBCHEM_OPENEYE_ISO_SMILES>
CC[C@]1(C[C@@H](C2=C(C3=C(C(=C2[C@H]1O)O)C(=O)C4=C(C3=O)C(=CC=C4)O)O)O[C@H]5C[C@@H]([C@@H]([C@@H](O5)C)O)N(C)C)O

> <PUBCHEM_CACTVS_TPSA>
177

> <PUBCHEM_MONOISOTOPIC_WEIGHT>
543.210446

> <PUBCHEM_TOTAL_CHARGE>
0

> <PUBCHEM_HEAVY_ATOM_COUNT>
39

> <PUBCHEM_ATOM_DEF_STEREO_COUNT>
7

> <PUBCHEM_ATOM_UDEF_STEREO_COUNT>
0

> <PUBCHEM_BOND_DEF_STEREO_COUNT>
0

> <PUBCHEM_BOND_UDEF_STEREO_COUNT>
0

> <PUBCHEM_ISOTOPIC_ATOM_COUNT>
0

> <PUBCHEM_COMPONENT_COUNT>
1

> <PUBCHEM_CACTVS_TAUTO_COUNT>
77

> <PUBCHEM_COORDINATE_TYPE>
1
5
255

> <PUBCHEM_BONDANNOTATIONS>
14  1  6
19  1  6
18  11  5
16  17  8
16  24  8
17  25  8
23  29  5
24  26  8
25  27  8
26  27  8
12  3  6
34  35  8
34  36  8
35  37  8
36  38  8
37  39  8
38  39  8
15  4  5
22  5  5

$$$$

