443684
  -OEChem-07051213022D

 26 29  0     0  0  0  0  0  0999 V2000
    5.3871    2.2280    0.0000 O   0  0  0  0  0  0  0  0  0  0  0  0
    3.9933    3.0327    0.0000 O   0  0  0  0  0  0  0  0  0  0  0  0
    2.0000   -0.9875    0.0000 N   0  0  0  0  0  0  0  0  0  0  0  0
    3.7841    0.0609    0.0000 C   0  0  0  0  0  0  0  0  0  0  0  0
    2.9180    0.5609    0.0000 C   0  0  0  0  0  0  0  0  0  0  0  0
    3.8001   -0.9806    0.0000 C   0  0  0  0  0  0  0  0  0  0  0  0
    4.6501    1.5609    0.0000 C   0  0  0  0  0  0  0  0  0  0  0  0
    4.6501    0.5609    0.0000 C   0  0  0  0  0  0  0  0  0  0  0  0
    3.7841    2.0609    0.0000 C   0  0  0  0  0  0  0  0  0  0  0  0
    2.9180    1.5609    0.0000 C   0  0  0  0  0  0  0  0  0  0  0  0
    2.9021   -1.5083    0.0000 C   0  0  0  0  0  0  0  0  0  0  0  0
    2.0080    0.0541    0.0000 C   0  0  0  0  0  0  0  0  0  0  0  0
    4.7520   -1.5012    0.0000 C   0  0  0  0  0  0  0  0  0  0  0  0
    4.9820    3.1358    0.0000 C   0  0  0  0  0  0  0  0  0  0  0  0
    2.8937   -2.5933    0.0000 C   0  0  0  0  0  0  0  0  0  0  0  0
    4.7688   -2.5861    0.0000 C   0  0  0  0  0  0  0  0  0  0  0  0
    3.8334   -3.1358    0.0000 C   0  0  0  0  0  0  0  0  0  0  0  0
    5.1870    0.2509    0.0000 H   0  0  0  0  0  0  0  0  0  0  0  0
    2.3811    1.8709    0.0000 H   0  0  0  0  0  0  0  0  0  0  0  0
    1.4747    0.3703    0.0000 H   0  0  0  0  0  0  0  0  0  0  0  0
    5.2829   -1.1809    0.0000 H   0  0  0  0  0  0  0  0  0  0  0  0
    5.5716    3.3276    0.0000 H   0  0  0  0  0  0  0  0  0  0  0  0
    4.8532    3.7423    0.0000 H   0  0  0  0  0  0  0  0  0  0  0  0
    2.3556   -2.9012    0.0000 H   0  0  0  0  0  0  0  0  0  0  0  0
    5.3093   -2.8898    0.0000 H   0  0  0  0  0  0  0  0  0  0  0  0
    3.8357   -3.7558    0.0000 H   0  0  0  0  0  0  0  0  0  0  0  0
  1  7  1  0  0  0  0
  1 14  1  0  0  0  0
  2  9  1  0  0  0  0
  2 14  1  0  0  0  0
  3 11  1  0  0  0  0
  3 12  2  0  0  0  0
  4  5  1  0  0  0  0
  4  6  1  0  0  0  0
  4  8  2  0  0  0  0
  5 10  2  0  0  0  0
  5 12  1  0  0  0  0
  6 11  1  0  0  0  0
  6 13  2  0  0  0  0
  7  8  1  0  0  0  0
  7  9  2  0  0  0  0
  8 18  1  0  0  0  0
  9 10  1  0  0  0  0
 10 19  1  0  0  0  0
 11 15  2  0  0  0  0
 12 20  1  0  0  0  0
 13 16  1  0  0  0  0
 13 21  1  0  0  0  0
 14 22  1  0  0  0  0
 14 23  1  0  0  0  0
 15 17  1  0  0  0  0
 15 24  1  0  0  0  0
 16 17  2  0  0  0  0
 16 25  1  0  0  0  0
 17 26  1  0  0  0  0
M  END
> <PUBCHEM_COMPOUND_CID>
443684

> <PUBCHEM_COMPOUND_CANONICALIZED>
1

> <PUBCHEM_CACTVS_COMPLEXITY>
296

> <PUBCHEM_CACTVS_HBOND_ACCEPTOR>
3

> <PUBCHEM_CACTVS_HBOND_DONOR>
0

> <PUBCHEM_CACTVS_ROTATABLE_BOND>
0

> <PUBCHEM_CACTVS_SUBSKEYS>
AAADccByMAAAAAAAAAAAAAAAAAAAASAAAAA8YIAAAAAAAEix/AAAHgAAAAAADAzBngc8zvIIFACgAzRnRACCiCAxIiAI2CA+7JgdJuLEsZukMCpkwBHO6Aew0PMOoAABAAASQABAAAIAACSAAAAAAAAAAA==

> <PUBCHEM_IUPAC_OPENEYE_NAME>
[1,3]dioxolo[4,5-j]phenanthridine

> <PUBCHEM_IUPAC_CAS_NAME>
[1,3]dioxolo[4,5-j]phenanthridine

> <PUBCHEM_IUPAC_NAME>
[1,3]dioxolo[4,5-j]phenanthridine

> <PUBCHEM_IUPAC_SYSTEMATIC_NAME>
[1,3]dioxolo[4,5-j]phenanthridine

> <PUBCHEM_IUPAC_TRADITIONAL_NAME>
[1,3]dioxolo[4,5-j]phenanthridine

> <PUBCHEM_IUPAC_INCHI>
InChI=1S/C14H9NO2/c1-2-4-12-10(3-1)11-6-14-13(16-8-17-14)5-9(11)7-15-12/h1-7H,8H2

> <PUBCHEM_IUPAC_INCHIKEY>
RFILRSDHWIIIMN-UHFFFAOYSA-N

> <PUBCHEM_XLOGP3>
3.3

> <PUBCHEM_EXACT_MASS>
223.063329

> <PUBCHEM_MOLECULAR_FORMULA>
C14H9NO2

> <PUBCHEM_MOLECULAR_WEIGHT>
223.22676

> <PUBCHEM_OPENEYE_CAN_SMILES>
C1OC2=C(O1)C=C3C4=CC=CC=C4N=CC3=C2

> <PUBCHEM_OPENEYE_ISO_SMILES>
C1OC2=C(O1)C=C3C4=CC=CC=C4N=CC3=C2

> <PUBCHEM_CACTVS_TPSA>
31.4

> <PUBCHEM_MONOISOTOPIC_WEIGHT>
223.063329

> <PUBCHEM_TOTAL_CHARGE>
0

> <PUBCHEM_HEAVY_ATOM_COUNT>
17

> <PUBCHEM_ATOM_DEF_STEREO_COUNT>
0

> <PUBCHEM_ATOM_UDEF_STEREO_COUNT>
0

> <PUBCHEM_BOND_DEF_STEREO_COUNT>
0

> <PUBCHEM_BOND_UDEF_STEREO_COUNT>
0

> <PUBCHEM_ISOTOPIC_ATOM_COUNT>
0

> <PUBCHEM_COMPONENT_COUNT>
1

> <PUBCHEM_CACTVS_TAUTO_COUNT>
1

> <PUBCHEM_COORDINATE_TYPE>
1
5
255

> <PUBCHEM_BONDANNOTATIONS>
11  15  8
13  16  8
15  17  8
16  17  8
3  11  8
3  12  8
4  5  8
4  6  8
4  8  8
5  10  8
5  12  8
6  11  8
6  13  8
7  8  8
7  9  8
9  10  8

$$$$

