5281653
  -OEChem-07051212583D

 33 35  0     0  0  0  0  0  0999 V2000
    0.4231    1.6167    0.0483 O   0  0  0  0  0  0  0  0  0  0  0  0
   -4.9132    0.1879    0.2349 O   0  0  0  0  0  0  0  0  0  0  0  0
   -3.0315   -1.7965    0.1641 O   0  0  0  0  0  0  0  0  0  0  0  0
   -0.4940   -2.3709    0.0764 O   0  0  0  0  0  0  0  0  0  0  0  0
    5.0706    0.6934   -0.1182 O   0  0  0  0  0  0  0  0  0  0  0  0
    2.0496   -2.9654   -0.0154 O   0  0  0  0  0  0  0  0  0  0  0  0
   -1.2664   -0.1458    0.1049 C   0  0  0  0  0  0  0  0  0  0  0  0
    1.1712   -0.7077    0.0179 C   0  0  0  0  0  0  0  0  0  0  0  0
    1.4129    0.6657    0.0116 C   0  0  0  0  0  0  0  0  0  0  0  0
   -0.8830    1.1951    0.0932 C   0  0  0  0  0  0  0  0  0  0  0  0
   -0.2211   -1.1798    0.0668 C   0  0  0  0  0  0  0  0  0  0  0  0
   -2.6180   -0.4973    0.1518 C   0  0  0  0  0  0  0  0  0  0  0  0
    2.2327   -1.6157   -0.0199 C   0  0  0  0  0  0  0  0  0  0  0  0
    2.7270    1.1358   -0.0339 C   0  0  0  0  0  0  0  0  0  0  0  0
   -1.8589    2.1932    0.1283 C   0  0  0  0  0  0  0  0  0  0  0  0
   -3.5883    0.5044    0.1872 C   0  0  0  0  0  0  0  0  0  0  0  0
    3.7902    0.2332   -0.0727 C   0  0  0  0  0  0  0  0  0  0  0  0
    3.5432   -1.1399   -0.0654 C   0  0  0  0  0  0  0  0  0  0  0  0
   -3.2098    1.8472    0.1756 C   0  0  0  0  0  0  0  0  0  0  0  0
   -5.5883    0.0379   -1.0121 C   0  0  0  0  0  0  0  0  0  0  0  0
    5.2519    2.1084   -0.1234 C   0  0  0  0  0  0  0  0  0  0  0  0
    2.8586    2.2130   -0.0371 H   0  0  0  0  0  0  0  0  0  0  0  0
   -1.5749    3.2422    0.1199 H   0  0  0  0  0  0  0  0  0  0  0  0
    4.3818   -1.8315   -0.0958 H   0  0  0  0  0  0  0  0  0  0  0  0
   -3.9628    2.6304    0.2041 H   0  0  0  0  0  0  0  0  0  0  0  0
   -2.2726   -2.3983    0.1316 H   0  0  0  0  0  0  0  0  0  0  0  0
    2.9137   -3.4105   -0.0459 H   0  0  0  0  0  0  0  0  0  0  0  0
   -5.5682    0.9771   -1.5741 H   0  0  0  0  0  0  0  0  0  0  0  0
   -6.6299   -0.2252   -0.8084 H   0  0  0  0  0  0  0  0  0  0  0  0
   -5.1343   -0.7634   -1.6035 H   0  0  0  0  0  0  0  0  0  0  0  0
    4.8818    2.5654    0.8007 H   0  0  0  0  0  0  0  0  0  0  0  0
    4.8164    2.5671   -1.0177 H   0  0  0  0  0  0  0  0  0  0  0  0
    6.3301    2.2957   -0.1619 H   0  0  0  0  0  0  0  0  0  0  0  0
  1  9  1  0  0  0  0
  1 10  1  0  0  0  0
  2 16  1  0  0  0  0
  2 20  1  0  0  0  0
  3 12  1  0  0  0  0
  3 26  1  0  0  0  0
  4 11  2  0  0  0  0
  5 17  1  0  0  0  0
  5 21  1  0  0  0  0
  6 13  1  0  0  0  0
  6 27  1  0  0  0  0
  7 10  2  0  0  0  0
  7 11  1  0  0  0  0
  7 12  1  0  0  0  0
  8  9  1  0  0  0  0
  8 11  1  0  0  0  0
  8 13  2  0  0  0  0
  9 14  2  0  0  0  0
 10 15  1  0  0  0  0
 12 16  2  0  0  0  0
 13 18  1  0  0  0  0
 14 17  1  0  0  0  0
 14 22  1  0  0  0  0
 15 19  2  0  0  0  0
 15 23  1  0  0  0  0
 16 19  1  0  0  0  0
 17 18  2  0  0  0  0
 18 24  1  0  0  0  0
 19 25  1  0  0  0  0
 20 28  1  0  0  0  0
 20 29  1  0  0  0  0
 20 30  1  0  0  0  0
 21 31  1  0  0  0  0
 21 32  1  0  0  0  0
 21 33  1  0  0  0  0
M  END
> <PUBCHEM_COMPOUND_CID>
5281653

> <PUBCHEM_CONFORMER_RMSD>
0.6

> <PUBCHEM_CONFORMER_DIVERSEORDER>
2
1

> <PUBCHEM_MMFF94_PARTIAL_CHARGES>
27
1 -0.17
10 0.08
11 0.4
12 0.08
13 0.08
14 -0.15
15 -0.15
16 0.08
17 0.08
18 -0.15
19 -0.15
2 -0.36
20 0.28
21 0.28
22 0.15
23 0.15
24 0.15
25 0.15
26 0.45
27 0.45
3 -0.53
4 -0.57
5 -0.36
6 -0.53
7 0.09
8 0.09
9 0.08

> <PUBCHEM_EFFECTIVE_ROTOR_COUNT>
2

> <PUBCHEM_PHARMACOPHORE_FEATURES>
9
1 1 acceptor
1 2 acceptor
1 3 donor
1 4 acceptor
1 5 acceptor
1 6 donor
6 1 7 8 9 10 11 rings
6 7 10 12 15 16 19 rings
6 8 9 13 14 17 18 rings

> <PUBCHEM_HEAVY_ATOM_COUNT>
21

> <PUBCHEM_ATOM_DEF_STEREO_COUNT>
0

> <PUBCHEM_ATOM_UDEF_STEREO_COUNT>
0

> <PUBCHEM_BOND_DEF_STEREO_COUNT>
0

> <PUBCHEM_BOND_UDEF_STEREO_COUNT>
0

> <PUBCHEM_ISOTOPIC_ATOM_COUNT>
0

> <PUBCHEM_COMPONENT_COUNT>
1

> <PUBCHEM_CACTVS_TAUTO_COUNT>
24

> <PUBCHEM_CONFORMER_ID>
0050977500000002

> <PUBCHEM_MMFF94_ENERGY>
85.372

> <PUBCHEM_FEATURE_SELFOVERLAP>
45.726

> <PUBCHEM_SHAPE_FINGERPRINT>
10366900 7 18187087234715794889
10411042 1 17762618795408384778
10608611 8 18339643459420554744
10616163 171 18410289177349106342
10967382 1 18410854390686612403
11471102 20 18410857676563492622
11578080 2 17130158725789220142
12011746 2 18410011026719099140
12107183 9 17543062837147009537
12403260 363 18266466592510004378
13140716 1 17978500940904351458
138480 1 17834393802130665890
14787075 74 18333453131641470417
14790565 3 18338507543782424816
15196674 1 18338234980835804009
15238133 3 13973688390265372879
15375358 24 18343862221048323642
15442244 35 18050003591008578490
15536298 74 18335136548600044494
16945 1 18339073804875212042
17492 89 18193556890247014963
18769570 83 15338847512175338669
19591789 44 18049719611865324720
200 152 18186525410497472325
20510252 161 18261388992041969048
20645477 70 18188207714521693934
21029758 11 18334296448623313217
21267235 1 18337944696659844018
21501502 16 18264768951025687345
2334 1 18338515343262841842
23366157 5 18059005228818955602
23402539 116 18336834091099556486
23559900 14 18264494996326345673
2748010 2 18339637965998874350
2871803 45 18411982493938064663
335352 9 18410854353144970726
33824 294 18412825815346711026
34934 24 18411142419984123591
350125 39 18267865154690215852
3545911 37 18412824681185019077
4340502 62 16845572019571250099
474 4 17846771880750194172
474229 33 18410293592506499076
5104073 3 18340483494994279473
69090 78 18335703853523742375
7364860 26 18263923409836906286
9709674 26 18337383967257353271

> <PUBCHEM_SHAPE_MULTIPOLES>
396.95
10.07
2.51
0.65
0.8
0.66
-0.05
-3.21
-1.42
-1.18
0.08
0.3
-0.02
-0.16

> <PUBCHEM_SHAPE_SELFOVERLAP>
887.312

> <PUBCHEM_SHAPE_VOLUME>
210.4

> <PUBCHEM_COORDINATE_TYPE>
2
5
10

$$$$

