3037151
  -OEChem-07051213093D

 53 56  0     1  0  0  0  0  0999 V2000
   -4.0356   -2.4888    0.4701 O   0  0  0  0  0  0  0  0  0  0  0  0
   -3.8265    1.1948   -1.3323 O   0  0  0  0  0  0  0  0  0  0  0  0
   -1.7708   -2.7900    0.2048 O   0  0  0  0  0  0  0  0  0  0  0  0
    0.2459    2.4839   -0.1995 N   0  0  1  0  0  0  0  0  0  0  0  0
    1.9819   -0.7146   -1.1472 N   0  0  0  0  0  0  0  0  0  0  0  0
    0.4558    1.3480   -1.1378 C   0  0  2  0  0  0  0  0  0  0  0  0
   -1.4636    0.0751   -0.0011 C   0  0  1  0  0  0  0  0  0  0  0  0
   -0.8241    0.5224   -1.3242 C   0  0  0  0  0  0  0  0  0  0  0  0
   -1.6788    1.3121    0.8980 C   0  0  2  0  0  0  0  0  0  0  0  0
   -0.3599    2.0821    1.0799 C   0  0  0  0  0  0  0  0  0  0  0  0
    1.6692    0.5541   -0.7496 C   0  0  0  0  0  0  0  0  0  0  0  0
    1.5098    3.2323    0.0177 C   0  0  0  0  0  0  0  0  0  0  0  0
    2.7051    1.0301    0.0286 C   0  0  0  0  0  0  0  0  0  0  0  0
    2.6692    2.3985    0.6191 C   0  0  0  0  0  0  0  0  0  0  0  0
   -2.7406   -0.6652   -0.2915 C   0  0  0  0  0  0  0  0  0  0  0  0
    3.6759   -0.0022    0.1342 C   0  0  0  0  0  0  0  0  0  0  0  0
   -2.2156    0.9496    2.2541 C   0  0  0  0  0  0  0  0  0  0  0  0
    3.1973   -1.0851   -0.6110 C   0  0  0  0  0  0  0  0  0  0  0  0
    4.9168   -0.1266    0.7902 C   0  0  0  0  0  0  0  0  0  0  0  0
   -2.7752   -2.0915    0.1496 C   0  0  0  0  0  0  0  0  0  0  0  0
   -3.7946   -0.1064   -0.9041 C   0  0  0  0  0  0  0  0  0  0  0  0
    3.9044   -2.2871   -0.7321 C   0  0  0  0  0  0  0  0  0  0  0  0
   -3.3804    1.3913    2.7405 C   0  0  0  0  0  0  0  0  0  0  0  0
    5.6327   -1.3239    0.6778 C   0  0  0  0  0  0  0  0  0  0  0  0
    5.1324   -2.3861   -0.0722 C   0  0  0  0  0  0  0  0  0  0  0  0
   -4.1682   -3.8460    0.9062 C   0  0  0  0  0  0  0  0  0  0  0  0
   -4.6624    1.3391   -2.4683 C   0  0  0  0  0  0  0  0  0  0  0  0
    0.6846    1.7850   -2.1209 H   0  0  0  0  0  0  0  0  0  0  0  0
   -0.7528   -0.5900    0.5077 H   0  0  0  0  0  0  0  0  0  0  0  0
   -1.5136    1.1504   -1.9006 H   0  0  0  0  0  0  0  0  0  0  0  0
   -0.6280   -0.3533   -1.9566 H   0  0  0  0  0  0  0  0  0  0  0  0
   -2.3761    2.0101    0.4171 H   0  0  0  0  0  0  0  0  0  0  0  0
   -0.5612    2.9870    1.6693 H   0  0  0  0  0  0  0  0  0  0  0  0
    0.3323    1.4716    1.6744 H   0  0  0  0  0  0  0  0  0  0  0  0
    1.3246    4.1103    0.6488 H   0  0  0  0  0  0  0  0  0  0  0  0
    1.8316    3.6355   -0.9523 H   0  0  0  0  0  0  0  0  0  0  0  0
    2.5413    2.3144    1.7048 H   0  0  0  0  0  0  0  0  0  0  0  0
    3.6190    2.9145    0.4394 H   0  0  0  0  0  0  0  0  0  0  0  0
    1.4147   -1.3016   -1.7429 H   0  0  0  0  0  0  0  0  0  0  0  0
   -1.6171    0.2844    2.8722 H   0  0  0  0  0  0  0  0  0  0  0  0
    5.3198    0.6930    1.3783 H   0  0  0  0  0  0  0  0  0  0  0  0
   -4.7115   -0.6446   -1.1074 H   0  0  0  0  0  0  0  0  0  0  0  0
    3.5165   -3.1151   -1.3160 H   0  0  0  0  0  0  0  0  0  0  0  0
   -3.7125    1.0900    3.7280 H   0  0  0  0  0  0  0  0  0  0  0  0
   -4.0201    2.0543    2.1687 H   0  0  0  0  0  0  0  0  0  0  0  0
    6.5902   -1.4246    1.1820 H   0  0  0  0  0  0  0  0  0  0  0  0
    5.7053   -3.3069   -0.1463 H   0  0  0  0  0  0  0  0  0  0  0  0
   -3.5832   -4.0099    1.8163 H   0  0  0  0  0  0  0  0  0  0  0  0
   -3.8517   -4.5308    0.1137 H   0  0  0  0  0  0  0  0  0  0  0  0
   -5.2227   -4.0299    1.1287 H   0  0  0  0  0  0  0  0  0  0  0  0
   -5.7090    1.1379   -2.2142 H   0  0  0  0  0  0  0  0  0  0  0  0
   -4.3359    0.6860   -3.2854 H   0  0  0  0  0  0  0  0  0  0  0  0
   -4.5917    2.3750   -2.8131 H   0  0  0  0  0  0  0  0  0  0  0  0
  1 20  1  0  0  0  0
  1 26  1  0  0  0  0
  2 21  1  0  0  0  0
  2 27  1  0  0  0  0
  3 20  2  0  0  0  0
  4  6  1  0  0  0  0
  4 10  1  0  0  0  0
  4 12  1  0  0  0  0
  5 11  1  0  0  0  0
  5 18  1  0  0  0  0
  5 39  1  0  0  0  0
  6  8  1  0  0  0  0
  6 11  1  0  0  0  0
  6 28  1  0  0  0  0
  7  8  1  0  0  0  0
  7  9  1  0  0  0  0
  7 15  1  0  0  0  0
  7 29  1  0  0  0  0
  8 30  1  0  0  0  0
  8 31  1  0  0  0  0
  9 10  1  0  0  0  0
  9 17  1  0  0  0  0
  9 32  1  0  0  0  0
 10 33  1  0  0  0  0
 10 34  1  0  0  0  0
 11 13  2  0  0  0  0
 12 14  1  0  0  0  0
 12 35  1  0  0  0  0
 12 36  1  0  0  0  0
 13 14  1  0  0  0  0
 13 16  1  0  0  0  0
 14 37  1  0  0  0  0
 14 38  1  0  0  0  0
 15 20  1  0  0  0  0
 15 21  2  0  0  0  0
 16 18  1  0  0  0  0
 16 19  2  0  0  0  0
 17 23  2  0  0  0  0
 17 40  1  0  0  0  0
 18 22  2  0  0  0  0
 19 24  1  0  0  0  0
 19 41  1  0  0  0  0
 21 42  1  0  0  0  0
 22 25  1  0  0  0  0
 22 43  1  0  0  0  0
 23 44  1  0  0  0  0
 23 45  1  0  0  0  0
 24 25  2  0  0  0  0
 24 46  1  0  0  0  0
 25 47  1  0  0  0  0
 26 48  1  0  0  0  0
 26 49  1  0  0  0  0
 26 50  1  0  0  0  0
 27 51  1  0  0  0  0
 27 52  1  0  0  0  0
 27 53  1  0  0  0  0
M  END
> <PUBCHEM_COMPOUND_CID>
3037151

> <PUBCHEM_CONFORMER_RMSD>
0.8

> <PUBCHEM_CONFORMER_DIVERSEORDER>
1
5
25
4
34
30
15
27
7
21
18
32
35
28
6
17
10
8
11
3
26
22
9
16
12
19
24
33
29
14
13
20
2
23
31

> <PUBCHEM_MMFF94_PARTIAL_CHARGES>
34
1 -0.43
10 0.27
11 -0.33
12 0.27
13 -0.18
14 0.18
15 -0.12
17 -0.29
18 -0.15
19 -0.15
2 -0.36
20 0.71
21 -0.07
22 -0.15
23 -0.3
24 -0.15
25 -0.15
26 0.28
27 0.28
3 -0.57
39 0.27
4 -0.81
40 0.15
41 0.15
42 0.15
43 0.15
44 0.15
45 0.15
46 0.15
47 0.15
5 0.03
6 0.45
7 0.14
9 0.14

> <PUBCHEM_EFFECTIVE_ROTOR_COUNT>
6.2

> <PUBCHEM_PHARMACOPHORE_FEATURES>
10
1 2 acceptor
1 23 hydrophobe
1 3 acceptor
1 4 cation
1 5 cation
1 5 donor
5 5 11 13 16 18 rings
6 16 18 19 22 24 25 rings
6 4 6 11 12 13 14 rings
6 4 6 7 8 9 10 rings

> <PUBCHEM_HEAVY_ATOM_COUNT>
27

> <PUBCHEM_ATOM_DEF_STEREO_COUNT>
3

> <PUBCHEM_ATOM_UDEF_STEREO_COUNT>
0

> <PUBCHEM_BOND_DEF_STEREO_COUNT>
1

> <PUBCHEM_BOND_UDEF_STEREO_COUNT>
0

> <PUBCHEM_ISOTOPIC_ATOM_COUNT>
0

> <PUBCHEM_COMPONENT_COUNT>
1

> <PUBCHEM_CACTVS_TAUTO_COUNT>
1

> <PUBCHEM_CONFORMER_ID>
002E57DF00000001

> <PUBCHEM_MMFF94_ENERGY>
65.4978

> <PUBCHEM_FEATURE_SELFOVERLAP>
50.991

> <PUBCHEM_SHAPE_FINGERPRINT>
10258939 38 17340143147757309649
10366900 7 17749115504238817730
107951 10 16271082790975663145
11135609 12 18341048506421076801
11552529 35 17821737143389285886
11578080 2 18200876171475342141
11796584 16 18059306443185549930
12553582 1 18265032799709777484
12596599 1 18410569613217999378
12633257 1 18261943159082259760
12892183 10 17821449054283706808
13140716 1 18260536844807877640
13583140 156 18118412747825764413
14114206 34 14764361439257251135
14178342 30 18115290271998928730
14725015 67 18058170522851942539
15420108 30 16525524246914353473
15927050 60 16894272984543045284
17349148 13 17967817162785639805
17492 89 18339641109947246098
17980427 23 17313386763680646297
1813 80 17988061396983555172
19319366 153 17252863858582769693
20600515 1 18337662130903976132
20775530 9 18340767022907886610
21033650 10 16773528757734083557
21421861 104 17973419049937904707
22393880 68 18060151924387609851
23559900 14 18338246993965137768
23572383 38 18409459093599826838
3027735 51 17977959204031814469
3729539 64 17984152723293833623
392239 28 17170693081573663808
4015057 19 18190201039130266653
44062 13 18131073727472880095
463206 1 17988371489111406506
5104073 3 18261387806556765889
5486654 36 18337094740054467298
56633871 153 18192134100282549842
613672 6 18335994154906380654
7399639 24 17547862858659786565
9709674 26 18340496547505256655
9981440 41 15937808738874401841

> <PUBCHEM_SHAPE_MULTIPOLES>
528.08
10.69
3.71
1.8
5.93
1.86
-0.37
7.15
-0.16
-1.48
-0.85
-2.74
-0.91
0.98

> <PUBCHEM_SHAPE_SELFOVERLAP>
1139.457

> <PUBCHEM_SHAPE_VOLUME>
288

> <PUBCHEM_COORDINATE_TYPE>
2
5
10

$$$$

