7464
  -OEChem-06261202063D

 23 23  0     0  0  0  0  0  0999 V2000
    3.5031   -0.2332    0.0000 N   0  0  0  0  0  0  0  0  0  0  0  0
   -2.1576    0.3584   -0.0002 C   0  0  0  0  0  0  0  0  0  0  0  0
   -0.6743    0.2037    0.0003 C   0  0  0  0  0  0  0  0  0  0  0  0
   -2.8122   -0.2380    1.2603 C   0  0  0  0  0  0  0  0  0  0  0  0
   -2.8117   -0.2385   -1.2606 C   0  0  0  0  0  0  0  0  0  0  0  0
    0.1451    1.3326    0.0000 C   0  0  0  0  0  0  0  0  0  0  0  0
   -0.1063   -1.0703    0.0004 C   0  0  0  0  0  0  0  0  0  0  0  0
    1.5325    1.1874   -0.0002 C   0  0  0  0  0  0  0  0  0  0  0  0
    1.2810   -1.2154    0.0001 C   0  0  0  0  0  0  0  0  0  0  0  0
    2.1004   -0.0866   -0.0002 C   0  0  0  0  0  0  0  0  0  0  0  0
   -2.4024    1.4295   -0.0005 H   0  0  0  0  0  0  0  0  0  0  0  0
   -2.3729    0.1921    2.1673 H   0  0  0  0  0  0  0  0  0  0  0  0
   -2.6888   -1.3252    1.3108 H   0  0  0  0  0  0  0  0  0  0  0  0
   -3.8864   -0.0236    1.2728 H   0  0  0  0  0  0  0  0  0  0  0  0
   -2.3720    0.1910   -2.1677 H   0  0  0  0  0  0  0  0  0  0  0  0
   -3.8858   -0.0241   -1.2737 H   0  0  0  0  0  0  0  0  0  0  0  0
   -2.6883   -1.3258   -1.3105 H   0  0  0  0  0  0  0  0  0  0  0  0
   -0.2807    2.3324   -0.0002 H   0  0  0  0  0  0  0  0  0  0  0  0
   -0.7253   -1.9632    0.0005 H   0  0  0  0  0  0  0  0  0  0  0  0
    2.1603    2.0748   -0.0003 H   0  0  0  0  0  0  0  0  0  0  0  0
    1.7117   -2.2136    0.0003 H   0  0  0  0  0  0  0  0  0  0  0  0
    3.9156   -1.1566   -0.0006 H   0  0  0  0  0  0  0  0  0  0  0  0
    4.0976    0.5849   -0.0009 H   0  0  0  0  0  0  0  0  0  0  0  0
  1 10  1  0  0  0  0
  1 22  1  0  0  0  0
  1 23  1  0  0  0  0
  2  3  1  0  0  0  0
  2  4  1  0  0  0  0
  2  5  1  0  0  0  0
  2 11  1  0  0  0  0
  3  6  2  0  0  0  0
  3  7  1  0  0  0  0
  4 12  1  0  0  0  0
  4 13  1  0  0  0  0
  4 14  1  0  0  0  0
  5 15  1  0  0  0  0
  5 16  1  0  0  0  0
  5 17  1  0  0  0  0
  6  8  1  0  0  0  0
  6 18  1  0  0  0  0
  7  9  2  0  0  0  0
  7 19  1  0  0  0  0
  8 10  2  0  0  0  0
  8 20  1  0  0  0  0
  9 10  1  0  0  0  0
  9 21  1  0  0  0  0
M  END
> <PUBCHEM_COMPOUND_CID>
7464

> <PUBCHEM_CONFORMER_RMSD>
0.4

> <PUBCHEM_CONFORMER_DIVERSEORDER>
1
2

> <PUBCHEM_MMFF94_PARTIAL_CHARGES>
14
1 -0.9
10 0.1
18 0.15
19 0.15
2 0.14
20 0.15
21 0.15
22 0.4
23 0.4
3 -0.14
6 -0.15
7 -0.15
8 -0.15
9 -0.15

> <PUBCHEM_EFFECTIVE_ROTOR_COUNT>
1

> <PUBCHEM_PHARMACOPHORE_FEATURES>
4
1 1 cation
1 1 donor
3 2 4 5 hydrophobe
6 3 6 7 8 9 10 rings

> <PUBCHEM_HEAVY_ATOM_COUNT>
10

> <PUBCHEM_ATOM_DEF_STEREO_COUNT>
0

> <PUBCHEM_ATOM_UDEF_STEREO_COUNT>
0

> <PUBCHEM_BOND_DEF_STEREO_COUNT>
0

> <PUBCHEM_BOND_UDEF_STEREO_COUNT>
0

> <PUBCHEM_ISOTOPIC_ATOM_COUNT>
0

> <PUBCHEM_COMPONENT_COUNT>
1

> <PUBCHEM_CACTVS_TAUTO_COUNT>
1

> <PUBCHEM_CONFORMER_ID>
00001D2800000001

> <PUBCHEM_MMFF94_ENERGY>
33.6065

> <PUBCHEM_FEATURE_SELFOVERLAP>
20.297

> <PUBCHEM_SHAPE_FINGERPRINT>
10219947 1 18409448094108849718
10857977 72 18131348587904133705
12032990 46 18340476855133185426
12138202 97 16988577805073942271
124424 183 17631747048440925546
12897270 3 18412834589832735741
12932764 1 17894350003219535665
14128692 85 17823152150181284831
14325111 11 18410575058951498784
14993402 34 18187090546024641342
16945 1 18410856559834968390
17844478 74 17989196045469572129
20201158 50 18201720677945866579
21040471 1 18266741268722238336
23235685 24 18410854356474567104
23402655 69 18194984035249836045
23552423 10 18054785354287884798
2748010 2 18123185702084422054
29004967 10 18343014519021195537
5084963 1 18114190704652492321
528886 8 18409452504934793811

> <PUBCHEM_SHAPE_MULTIPOLES>
200.81
4.56
1.24
0.93
0.19
0.09
0
-0.4
0
0.41
0
-0.92
-0.07
0

> <PUBCHEM_SHAPE_SELFOVERLAP>
408.495

> <PUBCHEM_SHAPE_VOLUME>
118.3

> <PUBCHEM_COORDINATE_TYPE>
2
5
10

$$$$

