443471
  -OEChem-07051213023D

 52 54  0     1  0  0  0  0  0999 V2000
   -1.0181   -0.6675   -0.0035 C   0  0  1  0  0  0  0  0  0  0  0  0
   -1.9105    0.5904    0.3605 C   0  0  2  0  0  0  0  0  0  0  0  0
   -3.3872    0.5883   -0.1762 C   0  0  0  0  0  0  0  0  0  0  0  0
    0.2880   -0.5906    0.8960 C   0  0  2  0  0  0  0  0  0  0  0  0
   -1.8240   -1.9498    0.3372 C   0  0  0  0  0  0  0  0  0  0  0  0
   -1.1487    1.9133    0.1141 C   0  0  0  0  0  0  0  0  0  0  0  0
   -4.0491   -0.7743    0.1430 C   0  0  0  0  0  0  0  0  0  0  0  0
   -3.2213   -1.9802   -0.2769 C   0  0  0  0  0  0  0  0  0  0  0  0
    0.9964    0.7391    0.6721 C   0  0  0  0  0  0  0  0  0  0  0  0
    0.1589    1.9651    0.9062 C   0  0  0  0  0  0  0  0  0  0  0  0
   -0.5939   -0.7194   -1.4935 C   0  0  0  0  0  0  0  0  0  0  0  0
    1.2306   -1.8260    0.7965 C   0  0  0  0  0  0  0  0  0  0  0  0
   -4.2172    1.6679    0.5699 C   0  0  0  0  0  0  0  0  0  0  0  0
   -3.5216    0.9065   -1.6770 C   0  0  0  0  0  0  0  0  0  0  0  0
    2.2769    0.8267    0.2763 C   0  0  0  0  0  0  0  0  0  0  0  0
    2.6186   -1.5662    0.2870 C   0  0  0  0  0  0  0  0  0  0  0  0
    3.0978   -0.3386    0.0376 C   0  0  0  0  0  0  0  0  0  0  0  0
    4.4859   -0.0989   -0.4731 C   0  0  0  0  0  0  0  0  0  0  0  0
    4.4380    0.6019   -1.8273 C   0  0  0  0  0  0  0  0  0  0  0  0
    5.3004    0.7124    0.5311 C   0  0  0  0  0  0  0  0  0  0  0  0
   -2.0305    0.5339    1.4561 H   0  0  0  0  0  0  0  0  0  0  0  0
   -0.0543   -0.5778    1.9429 H   0  0  0  0  0  0  0  0  0  0  0  0
   -1.9218   -2.0389    1.4273 H   0  0  0  0  0  0  0  0  0  0  0  0
   -1.2946   -2.8481    0.0018 H   0  0  0  0  0  0  0  0  0  0  0  0
   -1.7517    2.7729    0.4231 H   0  0  0  0  0  0  0  0  0  0  0  0
   -0.9400    2.0512   -0.9522 H   0  0  0  0  0  0  0  0  0  0  0  0
   -5.0377   -0.8366   -0.3297 H   0  0  0  0  0  0  0  0  0  0  0  0
   -4.2260   -0.8471    1.2251 H   0  0  0  0  0  0  0  0  0  0  0  0
   -3.1647   -2.0439   -1.3681 H   0  0  0  0  0  0  0  0  0  0  0  0
   -3.7326   -2.8931    0.0522 H   0  0  0  0  0  0  0  0  0  0  0  0
   -0.0659    2.0365    1.9779 H   0  0  0  0  0  0  0  0  0  0  0  0
    0.7006    2.8806    0.6401 H   0  0  0  0  0  0  0  0  0  0  0  0
   -1.4271   -0.9128   -2.1670 H   0  0  0  0  0  0  0  0  0  0  0  0
   -0.1107    0.2025   -1.8278 H   0  0  0  0  0  0  0  0  0  0  0  0
    0.1168   -1.5323   -1.6765 H   0  0  0  0  0  0  0  0  0  0  0  0
    0.7983   -2.6163    0.1775 H   0  0  0  0  0  0  0  0  0  0  0  0
    1.3293   -2.2635    1.7991 H   0  0  0  0  0  0  0  0  0  0  0  0
   -3.9165    2.6825    0.2906 H   0  0  0  0  0  0  0  0  0  0  0  0
   -5.2842    1.5759    0.3336 H   0  0  0  0  0  0  0  0  0  0  0  0
   -4.1140    1.5712    1.6565 H   0  0  0  0  0  0  0  0  0  0  0  0
   -4.5768    1.0316   -1.9510 H   0  0  0  0  0  0  0  0  0  0  0  0
   -3.0136    1.8387   -1.9423 H   0  0  0  0  0  0  0  0  0  0  0  0
   -3.1394    0.1162   -2.3211 H   0  0  0  0  0  0  0  0  0  0  0  0
    2.7146    1.8090    0.1297 H   0  0  0  0  0  0  0  0  0  0  0  0
    3.2465   -2.4380    0.1222 H   0  0  0  0  0  0  0  0  0  0  0  0
    4.9976   -1.0602   -0.6150 H   0  0  0  0  0  0  0  0  0  0  0  0
    4.0515    1.6247   -1.7645 H   0  0  0  0  0  0  0  0  0  0  0  0
    3.8169    0.0471   -2.5397 H   0  0  0  0  0  0  0  0  0  0  0  0
    5.4457    0.6662   -2.2536 H   0  0  0  0  0  0  0  0  0  0  0  0
    5.2935    0.2408    1.5204 H   0  0  0  0  0  0  0  0  0  0  0  0
    4.9397    1.7403    0.6421 H   0  0  0  0  0  0  0  0  0  0  0  0
    6.3452    0.7737    0.2055 H   0  0  0  0  0  0  0  0  0  0  0  0
  1  2  1  0  0  0  0
  1  4  1  0  0  0  0
  1  5  1  0  0  0  0
  1 11  1  0  0  0  0
  2  3  1  0  0  0  0
  2  6  1  0  0  0  0
  2 21  1  0  0  0  0
  3  7  1  0  0  0  0
  3 13  1  0  0  0  0
  3 14  1  0  0  0  0
  4  9  1  0  0  0  0
  4 12  1  0  0  0  0
  4 22  1  0  0  0  0
  5  8  1  0  0  0  0
  5 23  1  0  0  0  0
  5 24  1  0  0  0  0
  6 10  1  0  0  0  0
  6 25  1  0  0  0  0
  6 26  1  0  0  0  0
  7  8  1  0  0  0  0
  7 27  1  0  0  0  0
  7 28  1  0  0  0  0
  8 29  1  0  0  0  0
  8 30  1  0  0  0  0
  9 10  1  0  0  0  0
  9 15  2  0  0  0  0
 10 31  1  0  0  0  0
 10 32  1  0  0  0  0
 11 33  1  0  0  0  0
 11 34  1  0  0  0  0
 11 35  1  0  0  0  0
 12 16  1  0  0  0  0
 12 36  1  0  0  0  0
 12 37  1  0  0  0  0
 13 38  1  0  0  0  0
 13 39  1  0  0  0  0
 13 40  1  0  0  0  0
 14 41  1  0  0  0  0
 14 42  1  0  0  0  0
 14 43  1  0  0  0  0
 15 17  1  0  0  0  0
 15 44  1  0  0  0  0
 16 17  2  0  0  0  0
 16 45  1  0  0  0  0
 17 18  1  0  0  0  0
 18 19  1  0  0  0  0
 18 20  1  0  0  0  0
 18 46  1  0  0  0  0
 19 47  1  0  0  0  0
 19 48  1  0  0  0  0
 19 49  1  0  0  0  0
 20 50  1  0  0  0  0
 20 51  1  0  0  0  0
 20 52  1  0  0  0  0
M  END
> <PUBCHEM_COMPOUND_CID>
443471

> <PUBCHEM_CONFORMER_RMSD>
0.6

> <PUBCHEM_CONFORMER_DIVERSEORDER>
1
2
3

> <PUBCHEM_MMFF94_PARTIAL_CHARGES>
10
10 0.14
12 0.14
15 -0.15
16 -0.29
17 -0.14
18 0.14
4 0.14
44 0.15
45 0.15
9 -0.28

> <PUBCHEM_EFFECTIVE_ROTOR_COUNT>
2.4

> <PUBCHEM_PHARMACOPHORE_FEATURES>
5
3 18 19 20 hydrophobe
3 3 13 14 hydrophobe
6 1 2 3 5 7 8 rings
6 1 2 4 6 9 10 rings
6 4 9 12 15 16 17 rings

> <PUBCHEM_HEAVY_ATOM_COUNT>
20

> <PUBCHEM_ATOM_DEF_STEREO_COUNT>
3

> <PUBCHEM_ATOM_UDEF_STEREO_COUNT>
0

> <PUBCHEM_BOND_DEF_STEREO_COUNT>
0

> <PUBCHEM_BOND_UDEF_STEREO_COUNT>
0

> <PUBCHEM_ISOTOPIC_ATOM_COUNT>
0

> <PUBCHEM_COMPONENT_COUNT>
1

> <PUBCHEM_CACTVS_TAUTO_COUNT>
1

> <PUBCHEM_CONFORMER_ID>
0006C44F00000001

> <PUBCHEM_MMFF94_ENERGY>
62.71

> <PUBCHEM_FEATURE_SELFOVERLAP>
25.41

> <PUBCHEM_SHAPE_FINGERPRINT>
10498660 4 18411982468500719652
10616163 171 18407758127430904071
10759866 29 18201999962689963138
10863032 1 18410577309514413947
10967382 1 18265338498259898003
11961588 58 17130731512035368341
12011746 2 18409454674520980399
12119455 92 15052016758153307792
12173636 292 18340209699223752199
12236239 1 17917713495796576338
12403814 3 17418096533306197301
12553582 1 18334864947605720953
12670546 177 18272084968205424236
12788726 201 17533212200841882417
13140716 1 18337959973869085497
13221675 6 18408326609233267154
13224815 77 18411986866525988970
13760787 19 18413387661398455211
14787075 74 18059847334107720731
14790565 3 18047463715075696625
15196674 1 18410012169143496074
15239154 128 18060419135756532940
15375358 24 18040719156231458326
15415430 112 18409448089755905699
15536298 74 18115311064120361592
15788980 27 17060344045636188114
16752209 62 18042414697192015505
16945 1 18338530732373484129
17804303 29 18261108535299243065
1813 80 4895285810840466088
18186145 218 18411705365605712872
19765921 60 17775289390948265090
19862831 5 18411416224381066414
200 152 17240484706273385488
20871999 31 18411417280595062975
21267235 1 18337383855804377571
22182313 1 18191603951199693441
23175994 123 16660637440902716067
23227448 37 18059850628073317188
23402539 116 18412832365567170894
23402655 69 18411983597765804136
23557571 272 18261099756080219414
23559900 14 18334858325509507136
25 1 18341334469564927314
2748010 2 18121231891280844705
296302 2 17275100652162002287
3004659 81 18341612676747018554
3312278 4 18410573989451823426
3323516 105 18338235964240714816
34934 24 18335989735094551544
350125 39 18341046338153623329
4175511 318 18342460356702815277
4340502 62 16845281796020652593
474 4 17561074800784294654
4990 188 18040991847994676532
5104073 3 18412828018480292490
9709674 26 18114739460103133934

> <PUBCHEM_SHAPE_MULTIPOLES>
411.59
9.13
2.09
1.24
5.79
0.23
0.58
-1.49
1.8
-1.27
-0.38
0.29
-0.18
-0.21

> <PUBCHEM_SHAPE_SELFOVERLAP>
855.78

> <PUBCHEM_SHAPE_VOLUME>
233.2

> <PUBCHEM_COORDINATE_TYPE>
2
5
10

$$$$

