21742
  -OEChem-07051212593D

 33 34  0     0  0  0  0  0  0999 V2000
    2.7319    1.6047    0.0023 O   0  0  0  0  0  0  0  0  0  0  0  0
    3.6896   -0.8461   -0.0012 O   0  0  0  0  0  0  0  0  0  0  0  0
   -2.7085   -1.2268    0.0003 C   0  0  0  0  0  0  0  0  0  0  0  0
   -1.7521   -0.0753   -0.0002 C   0  0  0  0  0  0  0  0  0  0  0  0
   -0.3628   -0.2531    0.0000 C   0  0  0  0  0  0  0  0  0  0  0  0
    0.4606    0.8776    0.0000 C   0  0  0  0  0  0  0  0  0  0  0  0
   -0.0835    2.1654   -0.0004 C   0  0  0  0  0  0  0  0  0  0  0  0
   -2.3009    1.2090   -0.0006 C   0  0  0  0  0  0  0  0  0  0  0  0
    0.2061   -1.6028    0.0004 C   0  0  0  0  0  0  0  0  0  0  0  0
   -3.5902   -1.2534   -1.2601 C   0  0  0  0  0  0  0  0  0  0  0  0
   -3.5898   -1.2528    1.2609 C   0  0  0  0  0  0  0  0  0  0  0  0
   -1.4680    2.3267   -0.0008 C   0  0  0  0  0  0  0  0  0  0  0  0
    1.9206    0.6921    0.0002 C   0  0  0  0  0  0  0  0  0  0  0  0
    1.5248   -1.8464    0.0002 C   0  0  0  0  0  0  0  0  0  0  0  0
    2.4751   -0.7056   -0.0008 C   0  0  0  0  0  0  0  0  0  0  0  0
    0.7403    3.4123   -0.0001 C   0  0  0  0  0  0  0  0  0  0  0  0
    2.1067   -3.2255    0.0000 C   0  0  0  0  0  0  0  0  0  0  0  0
   -2.2219   -2.1983    0.0004 H   0  0  0  0  0  0  0  0  0  0  0  0
   -3.3757    1.3687   -0.0007 H   0  0  0  0  0  0  0  0  0  0  0  0
   -0.4233   -2.4790    0.0008 H   0  0  0  0  0  0  0  0  0  0  0  0
   -4.2591   -0.3882   -1.3171 H   0  0  0  0  0  0  0  0  0  0  0  0
   -4.2160   -2.1527   -1.2723 H   0  0  0  0  0  0  0  0  0  0  0  0
   -2.9737   -1.2628   -2.1660 H   0  0  0  0  0  0  0  0  0  0  0  0
   -2.9732   -1.2619    2.1667 H   0  0  0  0  0  0  0  0  0  0  0  0
   -4.2158   -2.1521    1.2736 H   0  0  0  0  0  0  0  0  0  0  0  0
   -4.2587   -0.3875    1.3177 H   0  0  0  0  0  0  0  0  0  0  0  0
   -1.9200    3.3152   -0.0010 H   0  0  0  0  0  0  0  0  0  0  0  0
    0.1156    4.3133   -0.0012 H   0  0  0  0  0  0  0  0  0  0  0  0
    1.3611    3.4692    0.8998 H   0  0  0  0  0  0  0  0  0  0  0  0
    1.3629    3.4684   -0.8989 H   0  0  0  0  0  0  0  0  0  0  0  0
    1.3327   -4.0001    0.0001 H   0  0  0  0  0  0  0  0  0  0  0  0
    2.7282   -3.3776    0.8886 H   0  0  0  0  0  0  0  0  0  0  0  0
    2.7278   -3.3776   -0.8889 H   0  0  0  0  0  0  0  0  0  0  0  0
  1 13  2  0  0  0  0
  2 15  2  0  0  0  0
  3  4  1  0  0  0  0
  3 10  1  0  0  0  0
  3 11  1  0  0  0  0
  3 18  1  0  0  0  0
  4  5  2  0  0  0  0
  4  8  1  0  0  0  0
  5  6  1  0  0  0  0
  5  9  1  0  0  0  0
  6  7  2  0  0  0  0
  6 13  1  0  0  0  0
  7 12  1  0  0  0  0
  7 16  1  0  0  0  0
  8 12  2  0  0  0  0
  8 19  1  0  0  0  0
  9 14  2  0  0  0  0
  9 20  1  0  0  0  0
 10 21  1  0  0  0  0
 10 22  1  0  0  0  0
 10 23  1  0  0  0  0
 11 24  1  0  0  0  0
 11 25  1  0  0  0  0
 11 26  1  0  0  0  0
 12 27  1  0  0  0  0
 13 15  1  0  0  0  0
 14 15  1  0  0  0  0
 14 17  1  0  0  0  0
 16 28  1  0  0  0  0
 16 29  1  0  0  0  0
 16 30  1  0  0  0  0
 17 31  1  0  0  0  0
 17 32  1  0  0  0  0
 17 33  1  0  0  0  0
M  END
> <PUBCHEM_COMPOUND_CID>
21742

> <PUBCHEM_CONFORMER_RMSD>
0.6

> <PUBCHEM_CONFORMER_DIVERSEORDER>
1

> <PUBCHEM_MMFF94_PARTIAL_CHARGES>
18
1 -0.57
12 -0.15
13 0.48
14 -0.12
15 0.56
16 0.14
17 0.14
19 0.15
2 -0.57
20 0.15
27 0.15
3 0.14
4 -0.14
5 0.03
6 0.09
7 -0.14
8 -0.15
9 -0.18

> <PUBCHEM_EFFECTIVE_ROTOR_COUNT>
1

> <PUBCHEM_PHARMACOPHORE_FEATURES>
5
1 1 acceptor
1 2 acceptor
3 3 10 11 hydrophobe
6 4 5 6 7 8 12 rings
6 5 6 9 13 14 15 rings

> <PUBCHEM_HEAVY_ATOM_COUNT>
17

> <PUBCHEM_ATOM_DEF_STEREO_COUNT>
0

> <PUBCHEM_ATOM_UDEF_STEREO_COUNT>
0

> <PUBCHEM_BOND_DEF_STEREO_COUNT>
0

> <PUBCHEM_BOND_UDEF_STEREO_COUNT>
0

> <PUBCHEM_ISOTOPIC_ATOM_COUNT>
0

> <PUBCHEM_COMPONENT_COUNT>
1

> <PUBCHEM_CACTVS_TAUTO_COUNT>
1

> <PUBCHEM_CONFORMER_ID>
000054EE00000001

> <PUBCHEM_MMFF94_ENERGY>
49.5743

> <PUBCHEM_FEATURE_SELFOVERLAP>
25.404

> <PUBCHEM_SHAPE_FINGERPRINT>
10967382 1 18194402190901283398
11471102 20 18339365150182725591
11578080 2 17315104145667644873
11680986 33 18193843862501432266
12553582 1 18410289207508939851
13140716 1 18266740362294176808
13583140 156 4678818311864780831
14178342 30 18194694884812645632
14251717 144 18193282892681123191
14790565 3 17979895143388036437
16945 1 18266458711350387621
193761 8 18266740375263545732
19591789 44 17475782166002215370
20510252 161 17324934041164580608
20645477 70 18125734383344800791
20739085 24 17983555435150941777
21501502 16 18266742574276329734
23184049 29 18196092376697232794
2334 1 18410855477313344713
23388829 49 18334860463743980357
23419403 2 16687463394126929504
23559900 14 18048043153988165978
2748010 2 18409737282688854356
3084891 72 16463898879113508142
34934 24 18267028430172312937
54173680 148 17979351194242591586
589210 1 18193837269668623522
7364860 26 18265052427309692121
77492 1 17532642430944117575
81228 2 18124039189321864673
8809292 202 17980756357112518411
9709674 26 17903079172272756350

> <PUBCHEM_SHAPE_MULTIPOLES>
338.11
5.23
3.55
0.8
1.3
1.24
0
-2.94
0
-1.33
0
0.71
-0.25
0

> <PUBCHEM_SHAPE_SELFOVERLAP>
728.69

> <PUBCHEM_SHAPE_VOLUME>
188.5

> <PUBCHEM_COORDINATE_TYPE>
2
5
10

$$$$

