197775
  -OEChem-07051212573D

 49 54  0     1  0  0  0  0  0999 V2000
   -0.0993    0.5091   -1.2358 O   0  0  0  0  0  0  0  0  0  0  0  0
   -1.4627    2.3827   -0.9158 O   0  0  0  0  0  0  0  0  0  0  0  0
   -4.3623    1.5182   -0.7148 O   0  0  0  0  0  0  0  0  0  0  0  0
   -5.7244    0.4479    0.9561 O   0  0  0  0  0  0  0  0  0  0  0  0
    4.7550    1.7646    1.6128 O   0  0  0  0  0  0  0  0  0  0  0  0
    6.0156    0.2636    0.2130 O   0  0  0  0  0  0  0  0  0  0  0  0
   -0.2873   -2.3214   -0.6420 N   0  0  1  0  0  0  0  0  0  0  0  0
   -0.3655   -1.2547    0.3997 C   0  0  1  0  0  0  0  0  0  0  0  0
    0.3808    0.0607    0.0400 C   0  0  1  0  0  0  0  0  0  0  0  0
   -1.8126   -0.7904    0.6149 C   0  0  0  0  0  0  0  0  0  0  0  0
    1.8937    0.0320    0.0467 C   0  0  0  0  0  0  0  0  0  0  0  0
    1.0816   -2.8144   -0.8764 C   0  0  0  0  0  0  0  0  0  0  0  0
   -2.3377    0.2349   -0.2021 C   0  0  0  0  0  0  0  0  0  0  0  0
    1.9535   -1.8409   -1.6654 C   0  0  0  0  0  0  0  0  0  0  0  0
    2.6399   -0.8481   -0.7707 C   0  0  0  0  0  0  0  0  0  0  0  0
   -1.4563    0.9786   -1.1848 C   0  0  2  0  0  0  0  0  0  0  0  0
   -2.6187   -1.3860    1.6128 C   0  0  0  0  0  0  0  0  0  0  0  0
   -1.1297   -3.4844   -0.3153 C   0  0  0  0  0  0  0  0  0  0  0  0
   -3.6712    0.5705   -0.0198 C   0  0  0  0  0  0  0  0  0  0  0  0
    2.5761    0.9442    0.8786 C   0  0  0  0  0  0  0  0  0  0  0  0
    4.0479   -0.8075   -0.7550 C   0  0  0  0  0  0  0  0  0  0  0  0
   -4.4521   -0.0359    0.9384 C   0  0  0  0  0  0  0  0  0  0  0  0
    3.9552    0.9507    0.8719 C   0  0  0  0  0  0  0  0  0  0  0  0
   -3.9528   -1.0097    1.7766 C   0  0  0  0  0  0  0  0  0  0  0  0
    4.6726    0.0974    0.0750 C   0  0  0  0  0  0  0  0  0  0  0  0
   -5.6611    1.4287   -0.0975 C   0  0  0  0  0  0  0  0  0  0  0  0
    6.0613    1.3228    1.1909 C   0  0  0  0  0  0  0  0  0  0  0  0
   -0.6393    3.0871   -1.8320 C   0  0  0  0  0  0  0  0  0  0  0  0
    0.0304   -1.6325    1.3528 H   0  0  0  0  0  0  0  0  0  0  0  0
    0.1006    0.8271    0.7802 H   0  0  0  0  0  0  0  0  0  0  0  0
    1.0220   -3.7149   -1.5031 H   0  0  0  0  0  0  0  0  0  0  0  0
    1.5604   -3.1249    0.0620 H   0  0  0  0  0  0  0  0  0  0  0  0
    1.3836   -1.3211   -2.4451 H   0  0  0  0  0  0  0  0  0  0  0  0
    2.7106   -2.4270   -2.2033 H   0  0  0  0  0  0  0  0  0  0  0  0
   -1.8755    0.8190   -2.1863 H   0  0  0  0  0  0  0  0  0  0  0  0
   -2.2062   -2.1610    2.2544 H   0  0  0  0  0  0  0  0  0  0  0  0
   -0.8784   -3.9117    0.6620 H   0  0  0  0  0  0  0  0  0  0  0  0
   -1.0206   -4.2732   -1.0695 H   0  0  0  0  0  0  0  0  0  0  0  0
   -2.1935   -3.2304   -0.3363 H   0  0  0  0  0  0  0  0  0  0  0  0
    2.0353    1.6381    1.5151 H   0  0  0  0  0  0  0  0  0  0  0  0
    4.6361   -1.4750   -1.3772 H   0  0  0  0  0  0  0  0  0  0  0  0
   -4.5714   -1.4757    2.5352 H   0  0  0  0  0  0  0  0  0  0  0  0
   -6.3980    1.1675   -0.8656 H   0  0  0  0  0  0  0  0  0  0  0  0
   -5.9198    2.4089    0.3191 H   0  0  0  0  0  0  0  0  0  0  0  0
    6.6124    0.9667    2.0689 H   0  0  0  0  0  0  0  0  0  0  0  0
    6.5983    2.1756    0.7599 H   0  0  0  0  0  0  0  0  0  0  0  0
   -0.9055    2.8488   -2.8667 H   0  0  0  0  0  0  0  0  0  0  0  0
    0.4194    2.8783   -1.6518 H   0  0  0  0  0  0  0  0  0  0  0  0
   -0.7992    4.1577   -1.6757 H   0  0  0  0  0  0  0  0  0  0  0  0
  1  9  1  0  0  0  0
  1 16  1  0  0  0  0
  2 16  1  0  0  0  0
  2 28  1  0  0  0  0
  3 19  1  0  0  0  0
  3 26  1  0  0  0  0
  4 22  1  0  0  0  0
  4 26  1  0  0  0  0
  5 23  1  0  0  0  0
  5 27  1  0  0  0  0
  6 25  1  0  0  0  0
  6 27  1  0  0  0  0
  7  8  1  0  0  0  0
  7 12  1  0  0  0  0
  7 18  1  0  0  0  0
  8  9  1  0  0  0  0
  8 10  1  0  0  0  0
  8 29  1  0  0  0  0
  9 11  1  0  0  0  0
  9 30  1  0  0  0  0
 10 13  2  0  0  0  0
 10 17  1  0  0  0  0
 11 15  1  0  0  0  0
 11 20  2  0  0  0  0
 12 14  1  0  0  0  0
 12 31  1  0  0  0  0
 12 32  1  0  0  0  0
 13 16  1  0  0  0  0
 13 19  1  0  0  0  0
 14 15  1  0  0  0  0
 14 33  1  0  0  0  0
 14 34  1  0  0  0  0
 15 21  2  0  0  0  0
 16 35  1  0  0  0  0
 17 24  2  0  0  0  0
 17 36  1  0  0  0  0
 18 37  1  0  0  0  0
 18 38  1  0  0  0  0
 18 39  1  0  0  0  0
 19 22  2  0  0  0  0
 20 23  1  0  0  0  0
 20 40  1  0  0  0  0
 21 25  1  0  0  0  0
 21 41  1  0  0  0  0
 22 24  1  0  0  0  0
 23 25  2  0  0  0  0
 24 42  1  0  0  0  0
 26 43  1  0  0  0  0
 26 44  1  0  0  0  0
 27 45  1  0  0  0  0
 27 46  1  0  0  0  0
 28 47  1  0  0  0  0
 28 48  1  0  0  0  0
 28 49  1  0  0  0  0
M  END
> <PUBCHEM_COMPOUND_CID>
197775

> <PUBCHEM_CONFORMER_RMSD>
0.8

> <PUBCHEM_CONFORMER_DIVERSEORDER>
1
2
5
4
3

> <PUBCHEM_MMFF94_PARTIAL_CHARGES>
32
1 -0.56
10 -0.14
11 -0.14
12 0.27
13 -0.14
14 0.14
15 -0.14
16 0.7
17 -0.15
18 0.27
19 0.08
2 -0.56
20 -0.15
21 -0.15
22 0.08
23 0.08
24 -0.15
25 0.08
26 0.56
27 0.56
28 0.28
3 -0.36
36 0.15
4 -0.36
40 0.15
41 0.15
42 0.15
5 -0.36
6 -0.36
7 -0.81
8 0.41
9 0.42

> <PUBCHEM_EFFECTIVE_ROTOR_COUNT>
3.2

> <PUBCHEM_PHARMACOPHORE_FEATURES>
13
1 1 acceptor
1 2 acceptor
1 3 acceptor
1 4 acceptor
1 5 acceptor
1 6 acceptor
1 7 cation
5 3 4 19 22 26 rings
5 5 6 23 25 27 rings
6 1 8 9 10 13 16 rings
6 10 13 17 19 22 24 rings
6 11 15 20 21 23 25 rings
7 7 8 9 11 12 14 15 rings

> <PUBCHEM_HEAVY_ATOM_COUNT>
28

> <PUBCHEM_ATOM_DEF_STEREO_COUNT>
3

> <PUBCHEM_ATOM_UDEF_STEREO_COUNT>
0

> <PUBCHEM_BOND_DEF_STEREO_COUNT>
0

> <PUBCHEM_BOND_UDEF_STEREO_COUNT>
0

> <PUBCHEM_ISOTOPIC_ATOM_COUNT>
0

> <PUBCHEM_COMPONENT_COUNT>
1

> <PUBCHEM_CACTVS_TAUTO_COUNT>
1

> <PUBCHEM_CONFORMER_ID>
0003048F00000001

> <PUBCHEM_MMFF94_ENERGY>
92.6004

> <PUBCHEM_FEATURE_SELFOVERLAP>
66.387

> <PUBCHEM_SHAPE_FINGERPRINT>
10 15 18341620274781516584
10006869 2 17986127411722297585
10074138 170 18196953083938386642
10165383 225 18333447643089880536
10319926 262 18059304278822492762
10675989 125 16190055539972031181
10906281 52 18058430154109599965
11112241 14 18113905944400593889
11115154 58 16955943024810563087
11370993 70 18187078447017801074
11595378 159 17703804638658854304
11646440 116 18272074029699675065
12035758 1 18200863024985883737
12236239 1 15769772459786784844
12403259 415 18337953493174534932
12422481 6 18341895139302255412
12633257 1 18262803965165449216
12730499 353 18260823830127557974
12969540 114 18336839657741169055
13034934 17 18410569578821272491
13140716 1 18128251194808093796
13402501 40 18410294735094842176
13583140 156 17131012917728105772
13726171 33 17341768401688857429
140371 6 18200860886029425413
15238133 3 17346873459745490140
15324884 4 18196063708228693815
15840311 113 17679844163388002489
17349148 13 14979954791791407488
17980427 23 17846213315647042439
1813 80 13686299131692517690
19784866 170 18342174479284275635
20511986 3 15357988888375129600
20600515 1 17346305008376630911
21033648 29 18334301946096894281
21236236 1 18042411239812271455
21792961 116 18263354941520137174
22182313 1 18270677700590649407
22224240 67 18407760331307984419
23557571 272 17988351688952871303
23559900 14 17915163831316735215
2838139 119 16226041189226364232
335352 9 18040150722248365582
350125 39 18196649812176351310
4340502 62 18040989635865382203
474 4 17530682100248199130
5104073 3 18198333147472375851
5265222 85 18269824356174207286
6004065 56 18337960000493431397
621550 34 18337109080707305286
7226269 152 17632860841157103917

> <PUBCHEM_SHAPE_MULTIPOLES>
536.03
11.88
2.85
1.54
4.05
0.96
-0.04
-5.78
-5.15
-0.56
1.22
0.03
-0.24
2.35

> <PUBCHEM_SHAPE_SELFOVERLAP>
1208.175

> <PUBCHEM_SHAPE_VOLUME>
279.1

> <PUBCHEM_COORDINATE_TYPE>
2
5
10

$$$$

