256114
  -OEChem-07051213063D

 32 34  0     0  0  0  0  0  0999 V2000
    0.1721    1.6519    0.2971 O   0  0  0  0  0  0  0  0  0  0  0  0
    4.6128   -0.0849    0.6726 O   0  0  0  0  0  0  0  0  0  0  0  0
   -1.9359    2.4971    0.0852 O   0  0  0  0  0  0  0  0  0  0  0  0
    4.8067    0.0024   -1.6586 O   0  0  0  0  0  0  0  0  0  0  0  0
   -5.3241   -0.4661    0.9704 N   0  0  0  0  0  0  0  0  0  0  0  0
    0.5268   -0.7487    0.2361 C   0  0  0  0  0  0  0  0  0  0  0  0
    1.0344    0.5406    0.3398 C   0  0  0  0  0  0  0  0  0  0  0  0
   -1.7363    0.1265    0.0413 C   0  0  0  0  0  0  0  0  0  0  0  0
   -0.9083   -0.9283    0.0888 C   0  0  0  0  0  0  0  0  0  0  0  0
    1.4128   -1.8280    0.2807 C   0  0  0  0  0  0  0  0  0  0  0  0
   -3.1861   -0.1077   -0.0935 C   0  0  0  0  0  0  0  0  0  0  0  0
    2.3987    0.7830    0.4864 C   0  0  0  0  0  0  0  0  0  0  0  0
   -1.2047    1.5135    0.1422 C   0  0  0  0  0  0  0  0  0  0  0  0
    3.2759   -0.2982    0.5297 C   0  0  0  0  0  0  0  0  0  0  0  0
    2.7844   -1.6013    0.4269 C   0  0  0  0  0  0  0  0  0  0  0  0
   -3.7822   -0.1916   -1.3449 C   0  0  0  0  0  0  0  0  0  0  0  0
   -3.9907   -0.2498    1.0236 C   0  0  0  0  0  0  0  0  0  0  0  0
   -5.1516   -0.4130   -1.4404 C   0  0  0  0  0  0  0  0  0  0  0  0
   -5.8713   -0.5422   -0.2634 C   0  0  0  0  0  0  0  0  0  0  0  0
    5.3040    0.0574   -0.5417 C   0  0  0  0  0  0  0  0  0  0  0  0
    6.7626    0.2875   -0.2783 C   0  0  0  0  0  0  0  0  0  0  0  0
   -1.2827   -1.9460    0.0217 H   0  0  0  0  0  0  0  0  0  0  0  0
    1.0505   -2.8501    0.2033 H   0  0  0  0  0  0  0  0  0  0  0  0
    2.7724    1.7997    0.5659 H   0  0  0  0  0  0  0  0  0  0  0  0
    3.4655   -2.4477    0.4611 H   0  0  0  0  0  0  0  0  0  0  0  0
   -3.1949   -0.0859   -2.2533 H   0  0  0  0  0  0  0  0  0  0  0  0
   -3.5837   -0.1929    2.0289 H   0  0  0  0  0  0  0  0  0  0  0  0
   -5.6402   -0.4822   -2.4054 H   0  0  0  0  0  0  0  0  0  0  0  0
   -6.9421   -0.7160   -0.2835 H   0  0  0  0  0  0  0  0  0  0  0  0
    6.8923    1.2019    0.3056 H   0  0  0  0  0  0  0  0  0  0  0  0
    7.2894    0.4029   -1.2298 H   0  0  0  0  0  0  0  0  0  0  0  0
    7.1816   -0.5714    0.2516 H   0  0  0  0  0  0  0  0  0  0  0  0
  1  7  1  0  0  0  0
  1 13  1  0  0  0  0
  2 14  1  0  0  0  0
  2 20  1  0  0  0  0
  3 13  2  0  0  0  0
  4 20  2  0  0  0  0
  5 17  1  0  0  0  0
  5 19  2  0  0  0  0
  6  7  2  0  0  0  0
  6  9  1  0  0  0  0
  6 10  1  0  0  0  0
  7 12  1  0  0  0  0
  8  9  2  0  0  0  0
  8 11  1  0  0  0  0
  8 13  1  0  0  0  0
  9 22  1  0  0  0  0
 10 15  2  0  0  0  0
 10 23  1  0  0  0  0
 11 16  1  0  0  0  0
 11 17  2  0  0  0  0
 12 14  2  0  0  0  0
 12 24  1  0  0  0  0
 14 15  1  0  0  0  0
 15 25  1  0  0  0  0
 16 18  2  0  0  0  0
 16 26  1  0  0  0  0
 17 27  1  0  0  0  0
 18 19  1  0  0  0  0
 18 28  1  0  0  0  0
 19 29  1  0  0  0  0
 20 21  1  0  0  0  0
 21 30  1  0  0  0  0
 21 31  1  0  0  0  0
 21 32  1  0  0  0  0
M  END
> <PUBCHEM_COMPOUND_CID>
256114

> <PUBCHEM_CONFORMER_RMSD>
0.6

> <PUBCHEM_CONFORMER_DIVERSEORDER>
2
37
43
3
45
22
27
5
46
25
13
35
44
24
1
42
18
10
23
28
9
38
4
21
19
26
16
39
12
33
11
17
6
7
41
14
32
40
8
30
15
36
20
34
29
31

> <PUBCHEM_MMFF94_PARTIAL_CHARGES>
29
1 -0.23
10 -0.15
11 0.03
12 -0.15
13 0.71
14 0.08
15 -0.15
16 -0.15
17 0.16
18 -0.15
19 0.16
2 -0.23
20 0.66
21 0.06
22 0.15
23 0.15
24 0.15
25 0.15
26 0.15
27 0.15
28 0.15
29 0.15
3 -0.57
4 -0.57
5 -0.62
6 0.03
7 0.08
8 -0.01
9 -0.18

> <PUBCHEM_EFFECTIVE_ROTOR_COUNT>
3

> <PUBCHEM_PHARMACOPHORE_FEATURES>
6
1 3 acceptor
1 4 acceptor
1 5 acceptor
6 1 6 7 8 9 13 rings
6 5 11 16 17 18 19 rings
6 6 7 10 12 14 15 rings

> <PUBCHEM_HEAVY_ATOM_COUNT>
21

> <PUBCHEM_ATOM_DEF_STEREO_COUNT>
0

> <PUBCHEM_ATOM_UDEF_STEREO_COUNT>
0

> <PUBCHEM_BOND_DEF_STEREO_COUNT>
0

> <PUBCHEM_BOND_UDEF_STEREO_COUNT>
0

> <PUBCHEM_ISOTOPIC_ATOM_COUNT>
0

> <PUBCHEM_COMPONENT_COUNT>
1

> <PUBCHEM_CACTVS_TAUTO_COUNT>
1

> <PUBCHEM_CONFORMER_ID>
0003E87200000002

> <PUBCHEM_MMFF94_ENERGY>
73.4462

> <PUBCHEM_FEATURE_SELFOVERLAP>
30.473

> <PUBCHEM_SHAPE_FINGERPRINT>
10090160 65 18131071545349996770
10366900 7 18410295808741409427
10670039 82 18201145668462808956
10906281 52 18341034307586191507
10968037 39 18412545396826239207
11287383 113 16559029380777906774
11405975 8 8718528528651598190
11796584 16 14490186107511004380
11963148 33 18341618083584200914
12011746 2 18410857654904046262
12236239 1 17530685381850970635
12553582 1 18334587836410390475
12788726 201 18342182214642027073
12916748 109 18411696595936271384
13140716 1 18194125118276659635
13288520 33 17022623061704514605
13533116 47 17988654033903972690
13583140 156 15913034405454503184
13862211 1 18408892831946733610
14123256 10 18413389834799476662
14251764 18 8718534026272832642
14347332 77 17970061347933448278
15048467 5 16917353636138020687
15196674 1 18339081621963636722
15537594 2 18334298664831751831
15788980 27 5689590584913019267
17844677 252 15213298595166470074
1813 80 18187637012020655349
18222031 100 17968109607250807319
19489759 90 13973966506250440895
200 152 18408893949112698393
21267235 1 18333730183329315311
21641784 216 18129932481474128132
221357 26 18186802487485804696
23035841 295 17676206874889100742
23402539 116 18186805781372013389
23522609 53 17897417606687077416
23536379 177 15698007344152107784
23557571 272 17822286920250495476
23559900 14 18270967825594927864
23569914 152 17107641973461824941
23569943 247 17605821741291199110
25147074 1 18267869577979101488
26918003 58 18060140938261953259
2871803 45 18341055197932735226
312423 11 18196090160525769826
33382 64 15864062200740377726
34797466 226 16774071877902594119
3545911 37 18131068225640729954
4325135 7 17561081384800815639
4340502 62 16487256573590299034
4463277 17 18407759244206660761
5104073 3 18265622163574828936
5207 217 18131347488898855868
5283173 99 16415208909305697949
542803 24 17704074005821810711
5486654 2 18341611503503535099

> <PUBCHEM_SHAPE_MULTIPOLES>
403.71
14.05
1.5
1.07
5.06
0.43
-0.32
-1.31
-3.19
0
0.2
-0.48
-0.08
-0.25

> <PUBCHEM_SHAPE_SELFOVERLAP>
889.246

> <PUBCHEM_SHAPE_VOLUME>
214.4

> <PUBCHEM_COORDINATE_TYPE>
2
5
10

$$$$

