9482
  -OEChem-06261203443D

 35 36  0     0  0  0  0  0  0999 V2000
   -6.0695   -0.7890   -0.1615 F   0  0  0  0  0  0  0  0  0  0  0  0
   -4.5001   -2.0738   -0.9298 F   0  0  0  0  0  0  0  0  0  0  0  0
   -4.7694   -1.8559    1.2169 F   0  0  0  0  0  0  0  0  0  0  0  0
    5.8361   -0.4515    0.1912 N   0  0  0  0  0  0  0  0  0  0  0  0
    0.3691    0.4436   -0.6177 N   0  0  0  0  0  0  0  0  0  0  0  0
   -0.2037    0.6213    0.4829 N   0  0  0  0  0  0  0  0  0  0  0  0
    4.4589   -0.2260   -0.0122 C   0  0  0  0  0  0  0  0  0  0  0  0
    3.5711   -1.3016   -0.0289 C   0  0  0  0  0  0  0  0  0  0  0  0
    3.9846    1.0727   -0.1974 C   0  0  0  0  0  0  0  0  0  0  0  0
    1.7415    0.2190   -0.4146 C   0  0  0  0  0  0  0  0  0  0  0  0
    2.2090   -1.0786   -0.2307 C   0  0  0  0  0  0  0  0  0  0  0  0
    2.6226    1.2958   -0.3989 C   0  0  0  0  0  0  0  0  0  0  0  0
   -3.8199   -0.0067    0.0627 C   0  0  0  0  0  0  0  0  0  0  0  0
    6.4494   -1.6903   -0.2445 C   0  0  0  0  0  0  0  0  0  0  0  0
    6.6593    0.5586    0.8262 C   0  0  0  0  0  0  0  0  0  0  0  0
   -1.5693    0.8450    0.2802 C   0  0  0  0  0  0  0  0  0  0  0  0
   -2.4578   -0.2302    0.2641 C   0  0  0  0  0  0  0  0  0  0  0  0
   -4.2935    1.2922   -0.1224 C   0  0  0  0  0  0  0  0  0  0  0  0
   -2.0430    2.1439    0.0952 C   0  0  0  0  0  0  0  0  0  0  0  0
   -3.4051    2.3674   -0.1059 C   0  0  0  0  0  0  0  0  0  0  0  0
   -4.7701   -1.1561    0.0452 C   0  0  0  0  0  0  0  0  0  0  0  0
    3.9057   -2.3237    0.1236 H   0  0  0  0  0  0  0  0  0  0  0  0
    4.6501    1.9313   -0.2025 H   0  0  0  0  0  0  0  0  0  0  0  0
    1.5235   -1.9218   -0.2405 H   0  0  0  0  0  0  0  0  0  0  0  0
    2.2616    2.3103   -0.5457 H   0  0  0  0  0  0  0  0  0  0  0  0
    6.2478   -2.4954    0.4698 H   0  0  0  0  0  0  0  0  0  0  0  0
    7.5373   -1.5864   -0.3244 H   0  0  0  0  0  0  0  0  0  0  0  0
    6.0885   -1.9900   -1.2349 H   0  0  0  0  0  0  0  0  0  0  0  0
    7.5900    0.1256    1.2099 H   0  0  0  0  0  0  0  0  0  0  0  0
    6.1482    1.0133    1.6824 H   0  0  0  0  0  0  0  0  0  0  0  0
    6.9311    1.3431    0.1121 H   0  0  0  0  0  0  0  0  0  0  0  0
   -2.0889   -1.2430    0.4093 H   0  0  0  0  0  0  0  0  0  0  0  0
   -5.3506    1.4867   -0.2806 H   0  0  0  0  0  0  0  0  0  0  0  0
   -1.3590    2.9885    0.1071 H   0  0  0  0  0  0  0  0  0  0  0  0
   -3.7739    3.3789   -0.2497 H   0  0  0  0  0  0  0  0  0  0  0  0
  1 21  1  0  0  0  0
  2 21  1  0  0  0  0
  3 21  1  0  0  0  0
  4  7  1  0  0  0  0
  4 14  1  0  0  0  0
  4 15  1  0  0  0  0
  5  6  2  0  0  0  0
  5 10  1  0  0  0  0
  6 16  1  0  0  0  0
  7  8  2  0  0  0  0
  7  9  1  0  0  0  0
  8 11  1  0  0  0  0
  8 22  1  0  0  0  0
  9 12  2  0  0  0  0
  9 23  1  0  0  0  0
 10 11  2  0  0  0  0
 10 12  1  0  0  0  0
 11 24  1  0  0  0  0
 12 25  1  0  0  0  0
 13 17  2  0  0  0  0
 13 18  1  0  0  0  0
 13 21  1  0  0  0  0
 14 26  1  0  0  0  0
 14 27  1  0  0  0  0
 14 28  1  0  0  0  0
 15 29  1  0  0  0  0
 15 30  1  0  0  0  0
 15 31  1  0  0  0  0
 16 17  1  0  0  0  0
 16 19  2  0  0  0  0
 17 32  1  0  0  0  0
 18 20  2  0  0  0  0
 18 33  1  0  0  0  0
 19 20  1  0  0  0  0
 19 34  1  0  0  0  0
 20 35  1  0  0  0  0
M  END
> <PUBCHEM_COMPOUND_CID>
9482

> <PUBCHEM_CONFORMER_RMSD>
0.6

> <PUBCHEM_CONFORMER_DIVERSEORDER>
1
2
4
3
5
6

> <PUBCHEM_MMFF94_PARTIAL_CHARGES>
29
1 -0.34
10 0.18
11 -0.15
12 -0.15
13 -0.14
14 0.37
15 0.37
16 0.18
17 -0.15
18 -0.15
19 -0.15
2 -0.34
20 -0.15
21 1.16
22 0.15
23 0.15
24 0.15
25 0.15
3 -0.34
32 0.15
33 0.15
34 0.15
35 0.15
4 -0.84
5 -0.18
6 -0.18
7 0.1
8 -0.15
9 -0.15

> <PUBCHEM_EFFECTIVE_ROTOR_COUNT>
4

> <PUBCHEM_PHARMACOPHORE_FEATURES>
3
1 4 cation
6 13 16 17 18 19 20 rings
6 7 8 9 10 11 12 rings

> <PUBCHEM_HEAVY_ATOM_COUNT>
21

> <PUBCHEM_ATOM_DEF_STEREO_COUNT>
0

> <PUBCHEM_ATOM_UDEF_STEREO_COUNT>
0

> <PUBCHEM_BOND_DEF_STEREO_COUNT>
0

> <PUBCHEM_BOND_UDEF_STEREO_COUNT>
0

> <PUBCHEM_ISOTOPIC_ATOM_COUNT>
0

> <PUBCHEM_COMPONENT_COUNT>
1

> <PUBCHEM_CACTVS_TAUTO_COUNT>
1

> <PUBCHEM_CONFORMER_ID>
0000250A00000001

> <PUBCHEM_MMFF94_ENERGY>
64.5842

> <PUBCHEM_FEATURE_SELFOVERLAP>
15.223

> <PUBCHEM_SHAPE_FINGERPRINT>
10 15 18262530213041083984
10595046 47 18413669119475053396
11089746 13 12031786933775150846
11315181 36 17917707989511573629
11524674 6 16588024611015782151
11545043 162 18261116296168179128
12107183 9 17620478347136473136
12166972 35 17988638580195169820
12236239 1 18408604786234289564
12596602 18 18260551147644949192
12616971 3 17417515991035389045
12760667 363 18410009919392944675
13167823 11 18412545426716917446
13288520 33 18412261736175398517
13583140 156 17895205431798098092
1420 363 18260545632532394182
14251732 16 18409169888056204952
14461889 52 18409737227819527354
14508225 48 18342468011126425461
15196674 1 18411135857495589468
15716309 27 17967816045882899366
17349148 13 17846775200232347664
17834072 33 18341891892312183028
17834072 8 11240003360384596202
17844677 252 18335696152610879648
17857418 61 18412547608539315290
18222031 100 17489868241916237948
18681886 176 18409451384686905368
18927931 339 18411693292869128559
19489759 90 18202565094148972337
200 152 18408886243398251704
21033648 29 17241346779345761952
21054139 6 18060140925155875642
21150785 3 15267053723238746034
21267235 1 18411973667796134534
21709351 56 18202566198061095420
220451 1 18200868604016376208
23081809 10 17846211198813623252
23198884 109 11312060950164675015
23402539 116 18202284714425884461
23559900 14 18410864239379561785
26918003 58 18334576875395680497
3004659 81 18131072623259700241
34797466 226 17531519902961525748
3545911 37 18338796831045807276
4073 2 18201431493671703970
4214541 1 18411698824418065293
4325135 7 18409449167644997612
474229 33 18334013882540150214
5104073 3 18335420218278709416
559249 180 18341896333376685325
6431902 208 18411983520778847807
7495541 125 17895196571655028672
9709674 26 18340476841979401091

> <PUBCHEM_SHAPE_MULTIPOLES>
395.41
16.53
2.08
0.76
9.64
0.06
0.05
-5.67
1.38
-2.05
-0.06
-0.05
-0.1
0.34

> <PUBCHEM_SHAPE_SELFOVERLAP>
844.84

> <PUBCHEM_SHAPE_VOLUME>
222.4

> <PUBCHEM_COORDINATE_TYPE>
2
5
10

$$$$

