237655
  -OEChem-07051213063D

 36 38  0     1  0  0  0  0  0999 V2000
    5.9633   -0.1416    0.0316 O   0  0  0  0  0  0  0  0  0  0  0  0
   -4.9885   -1.4838    0.4434 O   0  0  0  0  0  0  0  0  0  0  0  0
   -2.7964   -0.6509    0.4775 N   0  0  0  0  0  0  0  0  0  0  0  0
   -0.4713    0.2845    0.4740 C   0  0  2  0  0  0  0  0  0  0  0  0
    0.1008    1.6960    0.5708 C   0  0  0  0  0  0  0  0  0  0  0  0
    0.3316   -0.5487   -0.5282 C   0  0  0  0  0  0  0  0  0  0  0  0
    1.5347    1.6523    1.0951 C   0  0  0  0  0  0  0  0  0  0  0  0
    1.8243   -0.4274   -0.3423 C   0  0  0  0  0  0  0  0  0  0  0  0
    2.3925    0.6309    0.3908 C   0  0  0  0  0  0  0  0  0  0  0  0
   -1.9043    0.3380    0.0419 C   0  0  0  0  0  0  0  0  0  0  0  0
    2.6651   -1.3640   -0.9631 C   0  0  0  0  0  0  0  0  0  0  0  0
    3.7876    0.7093    0.5187 C   0  0  0  0  0  0  0  0  0  0  0  0
   -2.3357    1.3268   -0.7596 C   0  0  0  0  0  0  0  0  0  0  0  0
    4.6115   -0.2340   -0.0946 C   0  0  0  0  0  0  0  0  0  0  0  0
    4.0506   -1.2686   -0.8373 C   0  0  0  0  0  0  0  0  0  0  0  0
   -4.1514   -0.6489    0.1009 C   0  0  0  0  0  0  0  0  0  0  0  0
   -2.3190   -1.7225    1.3491 C   0  0  0  0  0  0  0  0  0  0  0  0
   -3.7070    1.3878   -1.1807 C   0  0  0  0  0  0  0  0  0  0  0  0
   -4.5882    0.4647   -0.7879 C   0  0  0  0  0  0  0  0  0  0  0  0
   -0.3714   -0.1494    1.4755 H   0  0  0  0  0  0  0  0  0  0  0  0
   -0.5011    2.3339    1.2302 H   0  0  0  0  0  0  0  0  0  0  0  0
    0.1544    2.1846   -0.4101 H   0  0  0  0  0  0  0  0  0  0  0  0
    0.1093   -0.2309   -1.5565 H   0  0  0  0  0  0  0  0  0  0  0  0
    0.0520   -1.6054   -0.4551 H   0  0  0  0  0  0  0  0  0  0  0  0
    1.5232    1.4078    2.1647 H   0  0  0  0  0  0  0  0  0  0  0  0
    1.9798    2.6491    0.9895 H   0  0  0  0  0  0  0  0  0  0  0  0
    2.2414   -2.1757   -1.5495 H   0  0  0  0  0  0  0  0  0  0  0  0
    4.2343    1.5129    1.1002 H   0  0  0  0  0  0  0  0  0  0  0  0
   -1.7103    2.1112   -1.1640 H   0  0  0  0  0  0  0  0  0  0  0  0
    4.6804   -2.0082   -1.3243 H   0  0  0  0  0  0  0  0  0  0  0  0
   -1.9955   -1.2999    2.3050 H   0  0  0  0  0  0  0  0  0  0  0  0
   -1.5088   -2.2753    0.8705 H   0  0  0  0  0  0  0  0  0  0  0  0
   -3.1178   -2.4387    1.5641 H   0  0  0  0  0  0  0  0  0  0  0  0
   -4.0094    2.2028   -1.8290 H   0  0  0  0  0  0  0  0  0  0  0  0
   -5.6257    0.4979   -1.0989 H   0  0  0  0  0  0  0  0  0  0  0  0
    6.3765   -0.8748   -0.4561 H   0  0  0  0  0  0  0  0  0  0  0  0
  1 14  1  0  0  0  0
  1 36  1  0  0  0  0
  2 16  2  0  0  0  0
  3 10  1  0  0  0  0
  3 16  1  0  0  0  0
  3 17  1  0  0  0  0
  4  5  1  0  0  0  0
  4  6  1  0  0  0  0
  4 10  1  0  0  0  0
  4 20  1  0  0  0  0
  5  7  1  0  0  0  0
  5 21  1  0  0  0  0
  5 22  1  0  0  0  0
  6  8  1  0  0  0  0
  6 23  1  0  0  0  0
  6 24  1  0  0  0  0
  7  9  1  0  0  0  0
  7 25  1  0  0  0  0
  7 26  1  0  0  0  0
  8  9  2  0  0  0  0
  8 11  1  0  0  0  0
  9 12  1  0  0  0  0
 10 13  2  0  0  0  0
 11 15  2  0  0  0  0
 11 27  1  0  0  0  0
 12 14  2  0  0  0  0
 12 28  1  0  0  0  0
 13 18  1  0  0  0  0
 13 29  1  0  0  0  0
 14 15  1  0  0  0  0
 15 30  1  0  0  0  0
 16 19  1  0  0  0  0
 17 31  1  0  0  0  0
 17 32  1  0  0  0  0
 17 33  1  0  0  0  0
 18 19  2  0  0  0  0
 18 34  1  0  0  0  0
 19 35  1  0  0  0  0
M  END
> <PUBCHEM_COMPOUND_CID>
237655

> <PUBCHEM_CONFORMER_RMSD>
0.6

> <PUBCHEM_CONFORMER_DIVERSEORDER>
2
8
7
3
4
6
5
1

> <PUBCHEM_MMFF94_PARTIAL_CHARGES>
25
1 -0.53
10 -0.03
11 -0.15
12 -0.15
13 -0.15
14 0.08
15 -0.15
16 0.62
17 0.3
18 -0.15
19 -0.14
2 -0.57
27 0.15
28 0.15
29 0.15
3 -0.47
30 0.15
34 0.15
35 0.15
36 0.45
4 0.14
6 0.14
7 0.14
8 -0.14
9 -0.14

> <PUBCHEM_EFFECTIVE_ROTOR_COUNT>
1.8

> <PUBCHEM_PHARMACOPHORE_FEATURES>
5
1 1 donor
1 2 acceptor
6 3 10 13 16 18 19 rings
6 4 5 6 7 8 9 rings
6 8 9 11 12 14 15 rings

> <PUBCHEM_HEAVY_ATOM_COUNT>
19

> <PUBCHEM_ATOM_DEF_STEREO_COUNT>
0

> <PUBCHEM_ATOM_UDEF_STEREO_COUNT>
1

> <PUBCHEM_BOND_DEF_STEREO_COUNT>
0

> <PUBCHEM_BOND_UDEF_STEREO_COUNT>
0

> <PUBCHEM_ISOTOPIC_ATOM_COUNT>
0

> <PUBCHEM_COMPONENT_COUNT>
1

> <PUBCHEM_CACTVS_TAUTO_COUNT>
9

> <PUBCHEM_CONFORMER_ID>
0003A05700000002

> <PUBCHEM_MMFF94_ENERGY>
52.1938

> <PUBCHEM_FEATURE_SELFOVERLAP>
25.393

> <PUBCHEM_SHAPE_FINGERPRINT>
10 15 18336559222985418280
11089746 13 15267344015878021070
11471102 20 18113340804045324292
11543360 7 17560788919113181100
11615757 297 17167864157712749211
11796584 16 17988927816462575554
12107183 9 5397751517442398390
12236239 1 15626227926798762549
12403259 415 18411144619176301257
12500047 106 18059860579491572523
13402501 40 18410008827828004463
13544653 18 17967248736738152068
13760787 19 17632301194001495226
13862211 1 17895199926335606142
14252887 29 17095797802574520982
14386348 63 18408319982167411610
14573314 32 18271809050789806854
15196674 1 18042121110897977996
15219456 202 18408327666127706609
15375358 24 18409169921877743050
15788980 27 18335144184714195916
15961568 22 17560239099044596532
18186145 218 18341899627553577177
18785283 64 18191312567939691960
19141452 34 18261388893990995807
19433438 38 18341614832097473007
19489759 90 17989489636216579070
200 152 17458348558592622289
20279233 1 18411132550064790422
20645477 70 18041277759662438110
20871999 31 18131070454596874893
21033648 29 18187662304877229257
21033650 10 17201344411870845556
21065201 7 18060144257802083561
21267235 1 18040707083273613750
221490 88 18263645065221129587
23175994 123 18259421923112022929
23402539 116 17704077308356321028
23536379 177 17346601906760294696
23557571 272 18273496779663970324
23559900 14 18342177821249120190
26918003 58 18333732424705976106
2871803 45 18262235629375708030
3004659 81 17917151723392662466
3268164 11 17703801322933370871
4214541 1 18273496784064166173
474 4 15793729624186739216
4921388 177 17346307190109409987
5104073 3 17896037822931318410
5283173 99 18270123538156594236
7495541 125 18412262800984532940
77492 1 15719393906580943985
9709674 26 18268712719035797475

> <PUBCHEM_SHAPE_MULTIPOLES>
374.29
10.86
1.69
1.09
2.51
0.05
0.02
-2.29
-1.39
-0.55
0.21
-0.41
-0.04
1.74

> <PUBCHEM_SHAPE_SELFOVERLAP>
813.336

> <PUBCHEM_SHAPE_VOLUME>
203.1

> <PUBCHEM_COORDINATE_TYPE>
2
5
10

$$$$

