6801
  -OEChem-06261201312D

 51 52  0     0  0  0  0  0  0999 V2000
    5.4641    0.0000    0.0000 O   0  0  0  0  0  0  0  0  0  0  0  0
    3.7320    3.0000    0.0000 O   0  0  0  0  0  0  0  0  0  0  0  0
    4.5981    4.5000    0.0000 O   0  0  0  0  0  0  0  0  0  0  0  0
    7.1962    3.0000    0.0000 O   0  0  0  0  0  0  0  0  0  0  0  0
    3.7320   -3.0000    0.0000 C   0  0  0  0  0  0  0  0  0  0  0  0
    2.8660   -3.5000    0.0000 C   0  0  0  0  0  0  0  0  0  0  0  0
    3.7320   -2.0000    0.0000 C   0  0  0  0  0  0  0  0  0  0  0  0
    2.8660   -4.5000    0.0000 C   0  0  0  0  0  0  0  0  0  0  0  0
    4.5981   -1.5000    0.0000 C   0  0  0  0  0  0  0  0  0  0  0  0
    2.0000   -5.0000    0.0000 C   0  0  0  0  0  0  0  0  0  0  0  0
    4.5981   -0.5000    0.0000 C   0  0  0  0  0  0  0  0  0  0  0  0
    2.0000   -6.0000    0.0000 C   0  0  0  0  0  0  0  0  0  0  0  0
    5.4641    1.0000    0.0000 C   0  0  0  0  0  0  0  0  0  0  0  0
    4.5981    1.5000    0.0000 C   0  0  0  0  0  0  0  0  0  0  0  0
    6.3301    1.5000    0.0000 C   0  0  0  0  0  0  0  0  0  0  0  0
    5.4641    3.0000    0.0000 C   0  0  0  0  0  0  0  0  0  0  0  0
    4.5981    2.5000    0.0000 C   0  0  0  0  0  0  0  0  0  0  0  0
    6.3301    2.5000    0.0000 C   0  0  0  0  0  0  0  0  0  0  0  0
    5.4641    4.0000    0.0000 C   0  0  0  0  0  0  0  0  0  0  0  0
    6.3301    4.5000    0.0000 C   0  0  0  0  0  0  0  0  0  0  0  0
    7.1962    4.0000    0.0000 C   0  0  0  0  0  0  0  0  0  0  0  0
    6.3301    5.5000    0.0000 C   0  0  0  0  0  0  0  0  0  0  0  0
    8.0622    4.5000    0.0000 C   0  0  0  0  0  0  0  0  0  0  0  0
    7.1962    6.0000    0.0000 C   0  0  0  0  0  0  0  0  0  0  0  0
    8.0622    5.5000    0.0000 C   0  0  0  0  0  0  0  0  0  0  0  0
    3.9441   -3.5826    0.0000 H   0  0  0  0  0  0  0  0  0  0  0  0
    4.3426   -2.8923    0.0000 H   0  0  0  0  0  0  0  0  0  0  0  0
    2.6540   -2.9174    0.0000 H   0  0  0  0  0  0  0  0  0  0  0  0
    2.2554   -3.6077    0.0000 H   0  0  0  0  0  0  0  0  0  0  0  0
    3.5200   -1.4174    0.0000 H   0  0  0  0  0  0  0  0  0  0  0  0
    3.1215   -2.1077    0.0000 H   0  0  0  0  0  0  0  0  0  0  0  0
    3.0781   -5.0826    0.0000 H   0  0  0  0  0  0  0  0  0  0  0  0
    3.4766   -4.3923    0.0000 H   0  0  0  0  0  0  0  0  0  0  0  0
    4.8101   -2.0826    0.0000 H   0  0  0  0  0  0  0  0  0  0  0  0
    5.2087   -1.3923    0.0000 H   0  0  0  0  0  0  0  0  0  0  0  0
    1.7880   -4.4174    0.0000 H   0  0  0  0  0  0  0  0  0  0  0  0
    1.3894   -5.1077    0.0000 H   0  0  0  0  0  0  0  0  0  0  0  0
    4.3860    0.0826    0.0000 H   0  0  0  0  0  0  0  0  0  0  0  0
    3.9875   -0.6077    0.0000 H   0  0  0  0  0  0  0  0  0  0  0  0
    1.3800   -6.0000    0.0000 H   0  0  0  0  0  0  0  0  0  0  0  0
    2.0000   -6.6200    0.0000 H   0  0  0  0  0  0  0  0  0  0  0  0
    2.6200   -6.0000    0.0000 H   0  0  0  0  0  0  0  0  0  0  0  0
    4.0611    1.1900    0.0000 H   0  0  0  0  0  0  0  0  0  0  0  0
    6.8671    1.1900    0.0000 H   0  0  0  0  0  0  0  0  0  0  0  0
    6.8671    2.8100    0.0000 H   0  0  0  0  0  0  0  0  0  0  0  0
    5.7932    5.8100    0.0000 H   0  0  0  0  0  0  0  0  0  0  0  0
    8.5991    4.1900    0.0000 H   0  0  0  0  0  0  0  0  0  0  0  0
    3.1951    2.6900    0.0000 H   0  0  0  0  0  0  0  0  0  0  0  0
    7.1962    6.6200    0.0000 H   0  0  0  0  0  0  0  0  0  0  0  0
    8.5991    5.8100    0.0000 H   0  0  0  0  0  0  0  0  0  0  0  0
    7.7331    2.6900    0.0000 H   0  0  0  0  0  0  0  0  0  0  0  0
  1 11  1  0  0  0  0
  1 13  1  0  0  0  0
  2 17  1  0  0  0  0
  2 48  1  0  0  0  0
  3 19  2  0  0  0  0
  4 21  1  0  0  0  0
  4 51  1  0  0  0  0
  5  6  1  0  0  0  0
  5  7  1  0  0  0  0
  5 26  1  0  0  0  0
  5 27  1  0  0  0  0
  6  8  1  0  0  0  0
  6 28  1  0  0  0  0
  6 29  1  0  0  0  0
  7  9  1  0  0  0  0
  7 30  1  0  0  0  0
  7 31  1  0  0  0  0
  8 10  1  0  0  0  0
  8 32  1  0  0  0  0
  8 33  1  0  0  0  0
  9 11  1  0  0  0  0
  9 34  1  0  0  0  0
  9 35  1  0  0  0  0
 10 12  1  0  0  0  0
 10 36  1  0  0  0  0
 10 37  1  0  0  0  0
 11 38  1  0  0  0  0
 11 39  1  0  0  0  0
 12 40  1  0  0  0  0
 12 41  1  0  0  0  0
 12 42  1  0  0  0  0
 13 14  2  0  0  0  0
 13 15  1  0  0  0  0
 14 17  1  0  0  0  0
 14 43  1  0  0  0  0
 15 18  2  0  0  0  0
 15 44  1  0  0  0  0
 16 17  2  0  0  0  0
 16 18  1  0  0  0  0
 16 19  1  0  0  0  0
 18 45  1  0  0  0  0
 19 20  1  0  0  0  0
 20 21  1  0  0  0  0
 20 22  2  0  0  0  0
 21 23  2  0  0  0  0
 22 24  1  0  0  0  0
 22 46  1  0  0  0  0
 23 25  1  0  0  0  0
 23 47  1  0  0  0  0
 24 25  2  0  0  0  0
 24 49  1  0  0  0  0
 25 50  1  0  0  0  0
M  END
> <PUBCHEM_COMPOUND_CID>
6801

> <PUBCHEM_COMPOUND_CANONICALIZED>
1

> <PUBCHEM_CACTVS_COMPLEXITY>
384

> <PUBCHEM_CACTVS_HBOND_ACCEPTOR>
4

> <PUBCHEM_CACTVS_HBOND_DONOR>
2

> <PUBCHEM_CACTVS_ROTATABLE_BOND>
10

> <PUBCHEM_CACTVS_SUBSKEYS>
AAADceB4OAAAAAAAAAAAAAAAAAAAAAAAAAAwYAAAAAAAAAABQAAAGgAACAAADASgmAIyBoAABgCIAqBSAAACCAAkIAAIiAEGCMgMJzaGNRqCeWCl4BUIuYeI7OzOIAAACAAIAABAAAAQABAAAAAAAAAAAA==

> <PUBCHEM_IUPAC_OPENEYE_NAME>
(2-hydroxy-4-octoxy-phenyl)-(2-hydroxyphenyl)methanone

> <PUBCHEM_IUPAC_CAS_NAME>
(2-hydroxy-4-octoxyphenyl)-(2-hydroxyphenyl)methanone

> <PUBCHEM_IUPAC_NAME>
(2-hydroxy-4-octoxyphenyl)-(2-hydroxyphenyl)methanone

> <PUBCHEM_IUPAC_SYSTEMATIC_NAME>
(2-hydroxyphenyl)-(4-octoxy-2-oxidanyl-phenyl)methanone

> <PUBCHEM_IUPAC_TRADITIONAL_NAME>
(2-hydroxy-4-octoxy-phenyl)-(2-hydroxyphenyl)methanone

> <PUBCHEM_IUPAC_INCHI>
InChI=1S/C21H26O4/c1-2-3-4-5-6-9-14-25-16-12-13-18(20(23)15-16)21(24)17-10-7-8-11-19(17)22/h7-8,10-13,15,22-23H,2-6,9,14H2,1H3

> <PUBCHEM_IUPAC_INCHIKEY>
XRCGPZWJUXJKJF-UHFFFAOYSA-N

> <PUBCHEM_XLOGP3_AA>
6.5

> <PUBCHEM_EXACT_MASS>
342.183109

> <PUBCHEM_MOLECULAR_FORMULA>
C21H26O4

> <PUBCHEM_MOLECULAR_WEIGHT>
342.42874

> <PUBCHEM_OPENEYE_CAN_SMILES>
CCCCCCCCOC1=CC(=C(C=C1)C(=O)C2=CC=CC=C2O)O

> <PUBCHEM_OPENEYE_ISO_SMILES>
CCCCCCCCOC1=CC(=C(C=C1)C(=O)C2=CC=CC=C2O)O

> <PUBCHEM_CACTVS_TPSA>
66.8

> <PUBCHEM_MONOISOTOPIC_WEIGHT>
342.183109

> <PUBCHEM_TOTAL_CHARGE>
0

> <PUBCHEM_HEAVY_ATOM_COUNT>
25

> <PUBCHEM_ATOM_DEF_STEREO_COUNT>
0

> <PUBCHEM_ATOM_UDEF_STEREO_COUNT>
0

> <PUBCHEM_BOND_DEF_STEREO_COUNT>
0

> <PUBCHEM_BOND_UDEF_STEREO_COUNT>
0

> <PUBCHEM_ISOTOPIC_ATOM_COUNT>
0

> <PUBCHEM_COMPONENT_COUNT>
1

> <PUBCHEM_CACTVS_TAUTO_COUNT>
24

> <PUBCHEM_COORDINATE_TYPE>
1
5
255

> <PUBCHEM_BONDANNOTATIONS>
13  14  8
13  15  8
14  17  8
15  18  8
16  17  8
16  18  8
20  21  8
20  22  8
21  23  8
22  24  8
23  25  8
24  25  8

$$$$

