443528
  -OEChem-07051213023D

 21 20  0     0  0  0  0  0  0999 V2000
    3.0161   -0.6213    0.4067 O   0  0  0  0  0  0  0  0  0  0  0  0
    1.7102    1.2326    0.4963 O   0  0  0  0  0  0  0  0  0  0  0  0
   -1.4597   -0.1153    0.5540 C   0  0  0  0  0  0  0  0  0  0  0  0
   -0.5051   -0.1115   -0.6388 C   0  0  0  0  0  0  0  0  0  0  0  0
   -2.2789    1.1700    0.7386 C   0  0  0  0  0  0  0  0  0  0  0  0
   -2.4143   -1.3129    0.5038 C   0  0  0  0  0  0  0  0  0  0  0  0
    0.8126   -0.8327   -0.4518 C   0  0  0  0  0  0  0  0  0  0  0  0
   -0.7404    0.5325   -1.7957 C   0  0  0  0  0  0  0  0  0  0  0  0
    1.8594    0.0585    0.1869 C   0  0  0  0  0  0  0  0  0  0  0  0
   -0.8496   -0.2131    1.4623 H   0  0  0  0  0  0  0  0  0  0  0  0
   -2.8244    1.1438    1.6887 H   0  0  0  0  0  0  0  0  0  0  0  0
   -3.0157    1.3039   -0.0605 H   0  0  0  0  0  0  0  0  0  0  0  0
   -1.6267    2.0499    0.7553 H   0  0  0  0  0  0  0  0  0  0  0  0
   -1.8597   -2.2559    0.4476 H   0  0  0  0  0  0  0  0  0  0  0  0
   -3.0409   -1.3499    1.4015 H   0  0  0  0  0  0  0  0  0  0  0  0
   -3.0756   -1.2598   -0.3683 H   0  0  0  0  0  0  0  0  0  0  0  0
    1.2055   -1.1698   -1.4187 H   0  0  0  0  0  0  0  0  0  0  0  0
    0.6670   -1.7187    0.1758 H   0  0  0  0  0  0  0  0  0  0  0  0
   -1.6623    1.0749   -1.9713 H   0  0  0  0  0  0  0  0  0  0  0  0
   -0.0145    0.5253   -2.6025 H   0  0  0  0  0  0  0  0  0  0  0  0
    3.6972   -0.0558    0.8295 H   0  0  0  0  0  0  0  0  0  0  0  0
  1  9  1  0  0  0  0
  1 21  1  0  0  0  0
  2  9  2  0  0  0  0
  3  4  1  0  0  0  0
  3  5  1  0  0  0  0
  3  6  1  0  0  0  0
  3 10  1  0  0  0  0
  4  7  1  0  0  0  0
  4  8  2  0  0  0  0
  5 11  1  0  0  0  0
  5 12  1  0  0  0  0
  5 13  1  0  0  0  0
  6 14  1  0  0  0  0
  6 15  1  0  0  0  0
  6 16  1  0  0  0  0
  7  9  1  0  0  0  0
  7 17  1  0  0  0  0
  7 18  1  0  0  0  0
  8 19  1  0  0  0  0
  8 20  1  0  0  0  0
M  END
> <PUBCHEM_COMPOUND_CID>
443528

> <PUBCHEM_CONFORMER_RMSD>
0.6

> <PUBCHEM_CONFORMER_DIVERSEORDER>
1
12
15
16
14
7
11
18
6
19
10
3
5
17
2
9
4
13
8

> <PUBCHEM_MMFF94_PARTIAL_CHARGES>
10
1 -0.65
19 0.15
2 -0.57
20 0.15
21 0.5
3 0.14
4 -0.28
7 0.2
8 -0.3
9 0.66

> <PUBCHEM_EFFECTIVE_ROTOR_COUNT>
3

> <PUBCHEM_PHARMACOPHORE_FEATURES>
5
1 1 acceptor
1 2 acceptor
1 8 hydrophobe
3 1 2 9 anion
3 3 5 6 hydrophobe

> <PUBCHEM_HEAVY_ATOM_COUNT>
9

> <PUBCHEM_ATOM_DEF_STEREO_COUNT>
0

> <PUBCHEM_ATOM_UDEF_STEREO_COUNT>
0

> <PUBCHEM_BOND_DEF_STEREO_COUNT>
0

> <PUBCHEM_BOND_UDEF_STEREO_COUNT>
0

> <PUBCHEM_ISOTOPIC_ATOM_COUNT>
0

> <PUBCHEM_COMPONENT_COUNT>
1

> <PUBCHEM_CACTVS_TAUTO_COUNT>
1

> <PUBCHEM_CONFORMER_ID>
0006C48800000001

> <PUBCHEM_MMFF94_ENERGY>
8.3501

> <PUBCHEM_FEATURE_SELFOVERLAP>
25.434

> <PUBCHEM_SHAPE_FINGERPRINT>
12423570 1 9859470841183571333
12932764 1 17632581586704508258
14128692 85 12894483560652910011
19837323 101 5689601614600168559
20653091 64 16412917381128770509
20711985 344 15625681499257384447
21028194 46 15791724226414722367
21040471 1 14707198916191988326
23552449 11 16556777452399922461
29004967 10 18334857255477354202
369184 2 18411142424305217923
5084963 1 18131075904783558386

> <PUBCHEM_SHAPE_MULTIPOLES>
173.48
3.74
1.25
1.21
1.3
0.04
0.17
0.87
-1.16
-0.51
0.13
-0.29
-0.45
0.02

> <PUBCHEM_SHAPE_SELFOVERLAP>
323.42

> <PUBCHEM_SHAPE_VOLUME>
109.6

> <PUBCHEM_COORDINATE_TYPE>
2
5
10

$$$$

