24892735
  -OEChem-07051212473D

 69 74  0     1  0  0  0  0  0999 V2000
   -3.0734   -3.4804    1.2751 O   0  0  0  0  0  0  0  0  0  0  0  0
    5.1773   -0.1755   -2.2139 O   0  0  0  0  0  0  0  0  0  0  0  0
    0.1848   -1.8484    1.5051 O   0  0  0  0  0  0  0  0  0  0  0  0
    2.0483   -1.9817   -2.5366 O   0  0  0  0  0  0  0  0  0  0  0  0
   -4.9049   -0.7991   -1.3972 O   0  0  0  0  0  0  0  0  0  0  0  0
    0.2930   -0.1920   -1.2748 O   0  0  0  0  0  0  0  0  0  0  0  0
    4.4795    1.2741    1.6825 O   0  0  0  0  0  0  0  0  0  0  0  0
   -1.6774    1.3753    3.1229 O   0  0  0  0  0  0  0  0  0  0  0  0
    2.9843    1.8854    3.6602 O   0  0  0  0  0  0  0  0  0  0  0  0
   -5.0150    1.5129   -2.4969 O   0  0  0  0  0  0  0  0  0  0  0  0
   -1.7641    4.7514   -1.3583 O   0  0  0  0  0  0  0  0  0  0  0  0
   -1.9121   -0.9859    0.7063 C   0  0  0  0  0  0  0  0  0  0  0  0
   -1.2288   -1.9639    1.6352 C   0  0  1  0  0  0  0  0  0  0  0  0
   -3.0791   -1.3639    0.0246 C   0  0  0  0  0  0  0  0  0  0  0  0
   -1.4323    0.3274    0.5716 C   0  0  0  0  0  0  0  0  0  0  0  0
   -1.6478   -3.4080    1.3344 C   0  0  1  0  0  0  0  0  0  0  0  0
   -3.6423   -2.7609    0.1727 C   0  0  1  0  0  0  0  0  0  0  0  0
   -0.2327    0.7201    1.3077 C   0  0  0  0  0  0  0  0  0  0  0  0
    2.6546   -0.1826   -1.0308 C   0  0  0  0  0  0  0  0  0  0  0  0
    2.8447   -0.8059   -2.3953 C   0  0  1  0  0  0  0  0  0  0  0  0
    1.0644    0.5883    0.7962 C   0  0  0  0  0  0  0  0  0  0  0  0
    3.7087    0.2022   -0.2916 C   0  0  0  0  0  0  0  0  0  0  0  0
   -2.0777    1.2606   -0.2558 C   0  0  0  0  0  0  0  0  0  0  0  0
    4.3019   -1.2165   -2.6440 C   0  0  1  0  0  0  0  0  0  0  0  0
    5.1294    0.0633   -0.7978 C   0  0  1  0  0  0  0  0  0  0  0  0
   -3.7304   -0.4329   -0.8009 C   0  0  0  0  0  0  0  0  0  0  0  0
   -3.2423    0.8743   -0.9536 C   0  0  0  0  0  0  0  0  0  0  0  0
    2.1579    0.9748    1.5673 C   0  0  0  0  0  0  0  0  0  0  0  0
    1.2598    0.0496   -0.5606 C   0  0  0  0  0  0  0  0  0  0  0  0
    3.5264    0.8515    1.0376 C   0  0  0  0  0  0  0  0  0  0  0  0
   -1.1934   -4.3731    2.4261 C   0  0  0  0  0  0  0  0  0  0  0  0
   -3.5207   -3.5838   -1.1107 C   0  0  0  0  0  0  0  0  0  0  0  0
   -0.4291    1.2357    2.5892 C   0  0  0  0  0  0  0  0  0  0  0  0
    1.9575    1.4940    2.8526 C   0  0  0  0  0  0  0  0  0  0  0  0
   -1.5925    2.5708   -0.4017 C   0  0  0  0  0  0  0  0  0  0  0  0
    4.5651   -1.4630   -4.1272 C   0  0  0  0  0  0  0  0  0  0  0  0
    5.9248   -1.0131   -0.0566 C   0  0  0  0  0  0  0  0  0  0  0  0
   -3.8900    1.8072   -1.7804 C   0  0  0  0  0  0  0  0  0  0  0  0
    0.6646    1.6222    3.3604 C   0  0  0  0  0  0  0  0  0  0  0  0
   -2.2469    3.4853   -1.2273 C   0  0  0  0  0  0  0  0  0  0  0  0
   -3.3940    3.1039   -1.9160 C   0  0  0  0  0  0  0  0  0  0  0  0
   -1.5090   -1.6996    2.6625 H   0  0  0  0  0  0  0  0  0  0  0  0
   -1.2153   -3.7575    0.3887 H   0  0  0  0  0  0  0  0  0  0  0  0
   -4.7005   -2.6938    0.4469 H   0  0  0  0  0  0  0  0  0  0  0  0
    2.5243   -0.0790   -3.1525 H   0  0  0  0  0  0  0  0  0  0  0  0
    4.5392   -2.1496   -2.1178 H   0  0  0  0  0  0  0  0  0  0  0  0
    5.6471    1.0201   -0.6598 H   0  0  0  0  0  0  0  0  0  0  0  0
   -1.5349   -5.3893    2.2010 H   0  0  0  0  0  0  0  0  0  0  0  0
   -1.6287   -4.1032    3.3946 H   0  0  0  0  0  0  0  0  0  0  0  0
   -0.1036   -4.3858    2.5219 H   0  0  0  0  0  0  0  0  0  0  0  0
   -2.4841   -3.6321   -1.4619 H   0  0  0  0  0  0  0  0  0  0  0  0
   -4.1213   -3.1785   -1.9297 H   0  0  0  0  0  0  0  0  0  0  0  0
   -3.8425   -4.6155   -0.9311 H   0  0  0  0  0  0  0  0  0  0  0  0
   -0.6999    2.9123    0.1165 H   0  0  0  0  0  0  0  0  0  0  0  0
    4.3902   -0.5540   -4.7134 H   0  0  0  0  0  0  0  0  0  0  0  0
    3.9315   -2.2632   -4.5211 H   0  0  0  0  0  0  0  0  0  0  0  0
    5.6133   -1.7396   -4.2850 H   0  0  0  0  0  0  0  0  0  0  0  0
    5.4118   -1.9805   -0.0687 H   0  0  0  0  0  0  0  0  0  0  0  0
    6.0908   -0.7406    0.9903 H   0  0  0  0  0  0  0  0  0  0  0  0
    6.8999   -1.1625   -0.5327 H   0  0  0  0  0  0  0  0  0  0  0  0
    0.5187    2.0240    4.3604 H   0  0  0  0  0  0  0  0  0  0  0  0
    0.4556   -2.3129    0.6947 H   0  0  0  0  0  0  0  0  0  0  0  0
    1.1151   -1.7093   -2.5490 H   0  0  0  0  0  0  0  0  0  0  0  0
   -3.8940    3.8262   -2.5572 H   0  0  0  0  0  0  0  0  0  0  0  0
   -5.3268   -1.5433   -0.9448 H   0  0  0  0  0  0  0  0  0  0  0  0
   -1.6043    1.7480    4.0181 H   0  0  0  0  0  0  0  0  0  0  0  0
    3.8384    1.6538    3.2657 H   0  0  0  0  0  0  0  0  0  0  0  0
   -5.2987    2.2942   -3.0014 H   0  0  0  0  0  0  0  0  0  0  0  0
   -0.9646    4.8443   -0.8125 H   0  0  0  0  0  0  0  0  0  0  0  0
  1 16  1  0  0  0  0
  1 17  1  0  0  0  0
  2 24  1  0  0  0  0
  2 25  1  0  0  0  0
  3 13  1  0  0  0  0
  3 62  1  0  0  0  0
  4 20  1  0  0  0  0
  4 63  1  0  0  0  0
  5 26  1  0  0  0  0
  5 65  1  0  0  0  0
  6 29  2  0  0  0  0
  7 30  2  0  0  0  0
  8 33  1  0  0  0  0
  8 66  1  0  0  0  0
  9 34  1  0  0  0  0
  9 67  1  0  0  0  0
 10 38  1  0  0  0  0
 10 68  1  0  0  0  0
 11 40  1  0  0  0  0
 11 69  1  0  0  0  0
 12 13  1  0  0  0  0
 12 14  1  0  0  0  0
 12 15  2  0  0  0  0
 13 16  1  0  0  0  0
 13 42  1  0  0  0  0
 14 17  1  0  0  0  0
 14 26  2  0  0  0  0
 15 18  1  0  0  0  0
 15 23  1  0  0  0  0
 16 31  1  0  0  0  0
 16 43  1  0  0  0  0
 17 32  1  0  0  0  0
 17 44  1  0  0  0  0
 18 21  2  0  0  0  0
 18 33  1  0  0  0  0
 19 20  1  0  0  0  0
 19 22  2  0  0  0  0
 19 29  1  0  0  0  0
 20 24  1  0  0  0  0
 20 45  1  0  0  0  0
 21 28  1  0  0  0  0
 21 29  1  0  0  0  0
 22 25  1  0  0  0  0
 22 30  1  0  0  0  0
 23 27  2  0  0  0  0
 23 35  1  0  0  0  0
 24 36  1  0  0  0  0
 24 46  1  0  0  0  0
 25 37  1  0  0  0  0
 25 47  1  0  0  0  0
 26 27  1  0  0  0  0
 27 38  1  0  0  0  0
 28 30  1  0  0  0  0
 28 34  2  0  0  0  0
 31 48  1  0  0  0  0
 31 49  1  0  0  0  0
 31 50  1  0  0  0  0
 32 51  1  0  0  0  0
 32 52  1  0  0  0  0
 32 53  1  0  0  0  0
 33 39  2  0  0  0  0
 34 39  1  0  0  0  0
 35 40  2  0  0  0  0
 35 54  1  0  0  0  0
 36 55  1  0  0  0  0
 36 56  1  0  0  0  0
 36 57  1  0  0  0  0
 37 58  1  0  0  0  0
 37 59  1  0  0  0  0
 37 60  1  0  0  0  0
 38 41  2  0  0  0  0
 39 61  1  0  0  0  0
 40 41  1  0  0  0  0
 41 64  1  0  0  0  0
M  END
> <PUBCHEM_COMPOUND_CID>
24892735

> <PUBCHEM_CONFORMER_RMSD>
0.8

> <PUBCHEM_CONFORMER_DIVERSEORDER>
1
2

> <PUBCHEM_MMFF94_PARTIAL_CHARGES>
43
1 -0.56
10 -0.53
11 -0.53
12 -0.14
13 0.42
14 -0.14
16 0.28
17 0.42
19 -0.12
2 -0.56
20 0.42
21 0.09
22 -0.12
24 0.28
25 0.42
26 0.08
28 0.09
29 0.47
3 -0.68
30 0.47
33 0.08
34 0.08
35 -0.15
38 0.08
39 -0.15
4 -0.68
40 0.08
41 -0.15
5 -0.53
54 0.15
6 -0.57
61 0.15
62 0.4
63 0.4
64 0.15
65 0.45
66 0.45
67 0.45
68 0.45
69 0.45
7 -0.57
8 -0.53
9 -0.53

> <PUBCHEM_EFFECTIVE_ROTOR_COUNT>
2.6

> <PUBCHEM_PHARMACOPHORE_FEATURES>
19
1 1 acceptor
1 10 donor
1 11 donor
1 2 acceptor
1 3 acceptor
1 3 donor
1 4 acceptor
1 4 donor
1 5 donor
1 6 acceptor
1 7 acceptor
1 8 donor
1 9 donor
6 1 12 13 14 16 17 rings
6 12 14 15 23 26 27 rings
6 18 21 28 33 34 39 rings
6 19 21 22 28 29 30 rings
6 2 19 20 22 24 25 rings
6 23 27 35 38 40 41 rings

> <PUBCHEM_HEAVY_ATOM_COUNT>
41

> <PUBCHEM_ATOM_DEF_STEREO_COUNT>
6

> <PUBCHEM_ATOM_UDEF_STEREO_COUNT>
0

> <PUBCHEM_BOND_DEF_STEREO_COUNT>
0

> <PUBCHEM_BOND_UDEF_STEREO_COUNT>
0

> <PUBCHEM_ISOTOPIC_ATOM_COUNT>
0

> <PUBCHEM_COMPONENT_COUNT>
1

> <PUBCHEM_CACTVS_TAUTO_COUNT>
894

> <PUBCHEM_CONFORMER_ID>
017BD53F00000001

> <PUBCHEM_MMFF94_ENERGY>
148.9059

> <PUBCHEM_FEATURE_SELFOVERLAP>
96.518

> <PUBCHEM_SHAPE_FINGERPRINT>
11049842 53 17915474997555058362
11135926 11 17096092356117558048
11227688 84 16879327104597176886
11582403 64 17033101385668221129
11640471 11 16774081794976675805
12655364 131 15481276981812836148
12788726 201 17417524697123794563
13617811 41 18059585706702587813
13782708 43 18114188505729873447
13911987 19 17242467005844036248
14294032 229 17916885628957531485
15064981 113 17844529014463438326
15131766 46 17689664820542802892
15297060 5 18199753720595873933
15324884 4 17973183750344614113
19315092 285 14201983249373396194
20511986 3 16773810185661274428
20600515 1 17911546219497736809
21033650 10 18272926150377303020
21756936 100 16343691145507344104
21987440 362 17404904764458403792
23559900 14 18337966635690311336
24893989 43 16965833192157661447
3044373 233 17604130602429117942
3380486 145 17679021491369893731
469060 322 17769896217911188691
50150288 127 16557310844399163881

> <PUBCHEM_SHAPE_MULTIPOLES>
779.2
9.9
4.39
3.87
8.46
1.28
-0.62
1.35
7.75
-6.5
-0.28
3.39
-0.55
4.21

> <PUBCHEM_SHAPE_SELFOVERLAP>
1769.83

> <PUBCHEM_SHAPE_VOLUME>
400.9

> <PUBCHEM_COORDINATE_TYPE>
2
5
10

$$$$

