73154
  -OEChem-07051212563D

 53 57  0     1  0  0  0  0  0999 V2000
    1.2716    1.6731    1.9029 O   0  0  0  0  0  0  0  0  0  0  0  0
    0.7264   -2.7233   -0.1263 O   0  0  0  0  0  0  0  0  0  0  0  0
    0.3663    3.0122    0.1891 O   0  0  0  0  0  0  0  0  0  0  0  0
    2.3049    1.9510   -1.6151 O   0  0  0  0  0  0  0  0  0  0  0  0
   -1.7681    2.4610   -1.1369 O   0  0  0  0  0  0  0  0  0  0  0  0
    1.8371   -3.4881   -1.9182 O   0  0  0  0  0  0  0  0  0  0  0  0
   -4.2809    1.6677   -1.4727 O   0  0  0  0  0  0  0  0  0  0  0  0
    1.1620   -0.4726    0.8697 C   0  0  2  0  0  0  0  0  0  0  0  0
    0.3190    0.5360    0.0467 C   0  0  1  0  0  0  0  0  0  0  0  0
   -1.2637    0.4551    0.2394 C   0  0  2  0  0  0  0  0  0  0  0  0
    2.5902   -0.6371    0.2552 C   0  0  2  0  0  0  0  0  0  0  0  0
    1.0721    1.8205    0.4805 C   0  0  2  0  0  0  0  0  0  0  0  0
    0.5660   -1.8653    1.0367 C   0  0  1  0  0  0  0  0  0  0  0  0
   -1.6919   -1.0616    0.2427 C   0  0  1  0  0  0  0  0  0  0  0  0
    1.2960    0.2682    2.2107 C   0  0  0  0  0  0  0  0  0  0  0  0
    3.3703    0.7102    0.1922 C   0  0  2  0  0  0  0  0  0  0  0  0
    2.4641    1.8940   -0.1984 C   0  0  1  0  0  0  0  0  0  0  0  0
   -0.9363   -1.8500    1.3300 C   0  0  0  0  0  0  0  0  0  0  0  0
   -1.9862    1.0686   -1.0080 C   0  0  1  0  0  0  0  0  0  0  0  0
    2.5180   -1.3696   -1.0811 C   0  0  0  0  0  0  0  0  0  0  0  0
   -1.7628    1.1879    1.5160 C   0  0  0  0  0  0  0  0  0  0  0  0
   -3.2061   -1.2556    0.2382 C   0  0  0  0  0  0  0  0  0  0  0  0
    4.6495    0.6514   -0.6476 C   0  0  0  0  0  0  0  0  0  0  0  0
    1.6896   -2.6197   -1.0601 C   0  0  0  0  0  0  0  0  0  0  0  0
   -3.4952    0.8647   -0.9708 C   0  0  0  0  0  0  0  0  0  0  0  0
   -4.0285   -0.3618   -0.3338 C   0  0  0  0  0  0  0  0  0  0  0  0
   -3.7833   -2.5169    0.8190 C   0  0  0  0  0  0  0  0  0  0  0  0
    0.4692    0.3676   -1.0250 H   0  0  0  0  0  0  0  0  0  0  0  0
    3.1641   -1.2912    0.9307 H   0  0  0  0  0  0  0  0  0  0  0  0
    1.0689   -2.3920    1.8577 H   0  0  0  0  0  0  0  0  0  0  0  0
   -1.3733   -1.4912   -0.7204 H   0  0  0  0  0  0  0  0  0  0  0  0
    0.4898    0.0572    2.9151 H   0  0  0  0  0  0  0  0  0  0  0  0
    2.2267    0.0354    2.7397 H   0  0  0  0  0  0  0  0  0  0  0  0
    3.7107    0.9132    1.2178 H   0  0  0  0  0  0  0  0  0  0  0  0
    2.9608    2.8259    0.1026 H   0  0  0  0  0  0  0  0  0  0  0  0
   -1.1419   -1.4482    2.3267 H   0  0  0  0  0  0  0  0  0  0  0  0
   -1.2756   -2.8928    1.3402 H   0  0  0  0  0  0  0  0  0  0  0  0
   -1.6212    0.5904   -1.9261 H   0  0  0  0  0  0  0  0  0  0  0  0
    3.5291   -1.6791   -1.3718 H   0  0  0  0  0  0  0  0  0  0  0  0
    2.1274   -0.7298   -1.8778 H   0  0  0  0  0  0  0  0  0  0  0  0
   -1.4946    2.2469    1.5198 H   0  0  0  0  0  0  0  0  0  0  0  0
   -2.8526    1.1600    1.6136 H   0  0  0  0  0  0  0  0  0  0  0  0
   -1.3796    0.7489    2.4359 H   0  0  0  0  0  0  0  0  0  0  0  0
    5.3073   -0.1464   -0.2864 H   0  0  0  0  0  0  0  0  0  0  0  0
    4.4509    0.4695   -1.7080 H   0  0  0  0  0  0  0  0  0  0  0  0
    5.2009    1.5947   -0.5700 H   0  0  0  0  0  0  0  0  0  0  0  0
    0.9955    3.7521    0.1730 H   0  0  0  0  0  0  0  0  0  0  0  0
    3.1371    2.2791   -1.9953 H   0  0  0  0  0  0  0  0  0  0  0  0
   -5.1038   -0.5017   -0.3604 H   0  0  0  0  0  0  0  0  0  0  0  0
   -2.1203    2.7378   -2.0002 H   0  0  0  0  0  0  0  0  0  0  0  0
   -3.5931   -2.5681    1.8957 H   0  0  0  0  0  0  0  0  0  0  0  0
   -3.3452   -3.3957    0.3349 H   0  0  0  0  0  0  0  0  0  0  0  0
   -4.8683   -2.5785    0.6794 H   0  0  0  0  0  0  0  0  0  0  0  0
  1 12  1  0  0  0  0
  1 15  1  0  0  0  0
  2 13  1  0  0  0  0
  2 24  1  0  0  0  0
  3 12  1  0  0  0  0
  3 47  1  0  0  0  0
  4 17  1  0  0  0  0
  4 48  1  0  0  0  0
  5 19  1  0  0  0  0
  5 50  1  0  0  0  0
  6 24  2  0  0  0  0
  7 25  2  0  0  0  0
  8  9  1  0  0  0  0
  8 11  1  0  0  0  0
  8 13  1  0  0  0  0
  8 15  1  0  0  0  0
  9 10  1  0  0  0  0
  9 12  1  0  0  0  0
  9 28  1  0  0  0  0
 10 14  1  0  0  0  0
 10 19  1  0  0  0  0
 10 21  1  0  0  0  0
 11 16  1  0  0  0  0
 11 20  1  0  0  0  0
 11 29  1  0  0  0  0
 12 17  1  0  0  0  0
 13 18  1  0  0  0  0
 13 30  1  0  0  0  0
 14 18  1  0  0  0  0
 14 22  1  0  0  0  0
 14 31  1  0  0  0  0
 15 32  1  0  0  0  0
 15 33  1  0  0  0  0
 16 17  1  0  0  0  0
 16 23  1  0  0  0  0
 16 34  1  0  0  0  0
 17 35  1  0  0  0  0
 18 36  1  0  0  0  0
 18 37  1  0  0  0  0
 19 25  1  0  0  0  0
 19 38  1  0  0  0  0
 20 24  1  0  0  0  0
 20 39  1  0  0  0  0
 20 40  1  0  0  0  0
 21 41  1  0  0  0  0
 21 42  1  0  0  0  0
 21 43  1  0  0  0  0
 22 26  2  0  0  0  0
 22 27  1  0  0  0  0
 23 44  1  0  0  0  0
 23 45  1  0  0  0  0
 23 46  1  0  0  0  0
 25 26  1  0  0  0  0
 26 49  1  0  0  0  0
 27 51  1  0  0  0  0
 27 52  1  0  0  0  0
 27 53  1  0  0  0  0
M  END
> <PUBCHEM_COMPOUND_CID>
73154

> <PUBCHEM_CONFORMER_RMSD>
0.6

> <PUBCHEM_CONFORMER_DIVERSEORDER>
1

> <PUBCHEM_MMFF94_PARTIAL_CHARGES>
23
1 -0.56
12 0.56
13 0.28
14 0.14
15 0.28
17 0.28
19 0.34
2 -0.43
20 0.06
22 -0.28
24 0.66
25 0.49
26 -0.14
27 0.14
3 -0.68
4 -0.68
47 0.4
48 0.4
49 0.15
5 -0.68
50 0.4
6 -0.57
7 -0.57

> <PUBCHEM_EFFECTIVE_ROTOR_COUNT>
1.6

> <PUBCHEM_PHARMACOPHORE_FEATURES>
13
1 1 acceptor
1 3 acceptor
1 3 donor
1 4 acceptor
1 4 donor
1 5 acceptor
1 5 donor
1 6 acceptor
1 7 acceptor
6 10 14 19 22 25 26 rings
6 2 8 11 13 20 24 rings
6 8 9 10 13 14 18 rings
8 1 8 9 11 12 15 16 17 rings

> <PUBCHEM_HEAVY_ATOM_COUNT>
27

> <PUBCHEM_ATOM_DEF_STEREO_COUNT>
10

> <PUBCHEM_ATOM_UDEF_STEREO_COUNT>
0

> <PUBCHEM_BOND_DEF_STEREO_COUNT>
0

> <PUBCHEM_BOND_UDEF_STEREO_COUNT>
0

> <PUBCHEM_ISOTOPIC_ATOM_COUNT>
0

> <PUBCHEM_COMPONENT_COUNT>
1

> <PUBCHEM_CACTVS_TAUTO_COUNT>
13

> <PUBCHEM_CONFORMER_ID>
00011DC200000001

> <PUBCHEM_MMFF94_ENERGY>
112.2871

> <PUBCHEM_FEATURE_SELFOVERLAP>
66.206

> <PUBCHEM_SHAPE_FINGERPRINT>
10165383 225 17396125851310479481
10498660 4 18059866051638558509
10675989 125 17551254173221194229
10863032 1 18201445782779743698
10871710 139 16252213624754290460
10948715 1 18059296461517887276
1100329 8 17472984381139949241
11370993 70 18412829049425274260
11578080 2 16414099527764266239
11640471 11 15769773554729346667
12035758 1 18044380431304816538
12156800 1 11735070252002233587
12553582 1 17687171410884116727
13140716 1 18270977768834459017
13224815 77 17917714574281728123
13583140 156 17023173900098517059
14223421 5 18411139108854423859
14251745 187 18411704295994981600
14659021 117 16605186105824359311
16945 1 17977378661971619170
17492 54 17698431140048861436
19591789 44 18126284142878584723
20600515 1 17330020373332991986
20691752 17 17132121247134801731
20775438 99 17976298813290187783
20905425 154 18271535255272754074
22182313 1 18264493875745608720
23114952 82 18337953514264457415
2334 1 18199477562798692441
23419403 2 15507448536264824866
23493267 7 17846223198329795571
23557571 272 18201715124801111511
23559900 14 18340493373719778706
23566358 2 18338794615179942071
238 59 18193020160904606967
25222932 49 16983219670406818291
2748010 2 18267311919588873505
3060560 45 18188495648923378702
3323516 105 18335413543614778559
3380486 77 17550690123839885043
3493558 16 14902249835481756012
350125 39 18269830922118763041
35225 105 12313614999409666518
4280585 95 17905609161761687870
495365 180 17969245372645119473
5262128 65 17972593569881960750
81228 2 17179684169789346714
9709674 26 18411985792942764911

> <PUBCHEM_SHAPE_MULTIPOLES>
514.56
6.52
3.33
1.64
2.37
1.16
0.22
-0.5
-1.99
-0.24
-1
-0.21
0.04
1.5

> <PUBCHEM_SHAPE_SELFOVERLAP>
1135.4

> <PUBCHEM_SHAPE_VOLUME>
268.9

> <PUBCHEM_COORDINATE_TYPE>
2
5
10

$$$$

