440365
  -OEChem-07051212492D

 29 28  0     1  0  0  0  0  0999 V2000
    6.8671   -1.8100    0.0000 P   0  0  3  0  0  0  0  0  0  0  0  0
    3.4030    2.1900    0.0000 P   0  0  0  0  0  0  0  0  0  0  0  0
    6.8671   -0.8100    0.0000 O   0  0  0  0  0  0  0  0  0  0  0  0
    6.8671   -2.8100    0.0000 O   0  0  0  0  0  0  0  0  0  0  0  0
    7.8671   -1.8100    0.0000 O   0  0  0  0  0  0  0  0  0  0  0  0
    2.5369    1.6900    0.0000 O   0  0  0  0  0  0  0  0  0  0  0  0
    2.9030    3.0560    0.0000 O   0  0  0  0  0  0  0  0  0  0  0  0
    5.8671   -1.8100    0.0000 O   0  0  0  0  0  0  0  0  0  0  0  0
    3.9030    1.3240    0.0000 O   0  0  0  0  0  0  0  0  0  0  0  0
    5.1350    1.1900    0.0000 N   0  0  0  0  0  0  0  0  0  0  0  0
    4.2690    2.6900    0.0000 N   0  0  0  0  0  0  0  0  0  0  0  0
    6.0010    2.6900    0.0000 N   0  0  0  0  0  0  0  0  0  0  0  0
    6.0010   -0.3100    0.0000 C   0  0  0  0  0  0  0  0  0  0  0  0
    6.0010    0.6900    0.0000 C   0  0  0  0  0  0  0  0  0  0  0  0
    5.1350    2.1900    0.0000 C   0  0  0  0  0  0  0  0  0  0  0  0
    7.7331   -3.3100    0.0000 C   0  0  0  0  0  0  0  0  0  0  0  0
    5.3905   -0.2023    0.0000 H   0  0  0  0  0  0  0  0  0  0  0  0
    5.7890   -0.8926    0.0000 H   0  0  0  0  0  0  0  0  0  0  0  0
    6.6116    0.5823    0.0000 H   0  0  0  0  0  0  0  0  0  0  0  0
    6.2131    1.2726    0.0000 H   0  0  0  0  0  0  0  0  0  0  0  0
    4.2690    3.3100    0.0000 H   0  0  0  0  0  0  0  0  0  0  0  0
    6.5380    2.3800    0.0000 H   0  0  0  0  0  0  0  0  0  0  0  0
    6.0010    3.3100    0.0000 H   0  0  0  0  0  0  0  0  0  0  0  0
    7.4231   -3.8469    0.0000 H   0  0  0  0  0  0  0  0  0  0  0  0
    8.2700   -3.6200    0.0000 H   0  0  0  0  0  0  0  0  0  0  0  0
    8.0431   -2.7731    0.0000 H   0  0  0  0  0  0  0  0  0  0  0  0
    8.1771   -1.2731    0.0000 H   0  0  0  0  0  0  0  0  0  0  0  0
    2.0000    2.0000    0.0000 H   0  0  0  0  0  0  0  0  0  0  0  0
    2.2830    3.0560    0.0000 H   0  0  0  0  0  0  0  0  0  0  0  0
  1  3  1  0  0  0  0
  1  4  1  0  0  0  0
  1  5  1  0  0  0  0
  1  8  2  0  0  0  0
  2  6  1  0  0  0  0
  2  7  1  0  0  0  0
  2  9  2  0  0  0  0
  2 11  1  0  0  0  0
  3 13  1  0  0  0  0
  4 16  1  0  0  0  0
  5 27  1  0  0  0  0
  6 28  1  0  0  0  0
  7 29  1  0  0  0  0
 10 14  1  0  0  0  0
 10 15  2  0  0  0  0
 11 15  1  0  0  0  0
 11 21  1  0  0  0  0
 12 15  1  0  0  0  0
 12 22  1  0  0  0  0
 12 23  1  0  0  0  0
 13 14  1  0  0  0  0
 13 17  1  0  0  0  0
 13 18  1  0  0  0  0
 14 19  1  0  0  0  0
 14 20  1  0  0  0  0
 16 24  1  0  0  0  0
 16 25  1  0  0  0  0
 16 26  1  0  0  0  0
M  END
> <PUBCHEM_COMPOUND_CID>
440365

> <PUBCHEM_COMPOUND_CANONICALIZED>
1

> <PUBCHEM_CACTVS_COMPLEXITY>
339

> <PUBCHEM_CACTVS_HBOND_ACCEPTOR>
8

> <PUBCHEM_CACTVS_HBOND_DONOR>
5

> <PUBCHEM_CACTVS_ROTATABLE_BOND>
7

> <PUBCHEM_CACTVS_SUBSKEYS>
AAADccBjOAMAAAAAAAAAAAAAAAAAAAAAAAAAAAAAAAAAAAAAAAAAHgAQiCAAAADhgAYDAAJAARAgQAAAJIAAAAEAAAAAAAAAAAACAAAAAAAAAAAAAAAAAAAAAAAAAAAAAAAAAAAAAAAAAAAAAAAAAAAAAA==

> <PUBCHEM_IUPAC_OPENEYE_NAME>
[[N'-[2-[hydroxy(methoxy)phosphoryl]oxyethyl]carbamimidoyl]amino]phosphonic acid

> <PUBCHEM_IUPAC_CAS_NAME>
[[amino-[2-[hydroxy(methoxy)phosphoryl]oxyethylimino]methyl]amino]phosphonic acid

> <PUBCHEM_IUPAC_NAME>
[[N'-[2-[hydroxy(methoxy)phosphoryl]oxyethyl]carbamimidoyl]amino]phosphonic acid

> <PUBCHEM_IUPAC_SYSTEMATIC_NAME>
[[N'-[2-[methoxy(oxidanyl)phosphoryl]oxyethyl]carbamimidoyl]amino]phosphonic acid

> <PUBCHEM_IUPAC_TRADITIONAL_NAME>
[[N'-[2-[hydroxy(methoxy)phosphoryl]oxyethyl]amidino]amino]phosphonic acid

> <PUBCHEM_IUPAC_INCHI>
InChI=1S/C4H13N3O7P2/c1-13-16(11,12)14-3-2-6-4(5)7-15(8,9)10/h2-3H2,1H3,(H,11,12)(H5,5,6,7,8,9,10)

> <PUBCHEM_IUPAC_INCHIKEY>
SKVVAASQKFJYKN-UHFFFAOYSA-N

> <PUBCHEM_XLOGP3_AA>
-3.8

> <PUBCHEM_EXACT_MASS>
277.022873

> <PUBCHEM_MOLECULAR_FORMULA>
C4H13N3O7P2

> <PUBCHEM_MOLECULAR_WEIGHT>
277.109444

> <PUBCHEM_OPENEYE_CAN_SMILES>
COP(=O)(O)OCCN=C(N)NP(=O)(O)O

> <PUBCHEM_OPENEYE_ISO_SMILES>
COP(=O)(O)OCCN=C(N)NP(=O)(O)O

> <PUBCHEM_CACTVS_TPSA>
164

> <PUBCHEM_MONOISOTOPIC_WEIGHT>
277.022873

> <PUBCHEM_TOTAL_CHARGE>
0

> <PUBCHEM_HEAVY_ATOM_COUNT>
16

> <PUBCHEM_ATOM_DEF_STEREO_COUNT>
0

> <PUBCHEM_ATOM_UDEF_STEREO_COUNT>
0

> <PUBCHEM_BOND_DEF_STEREO_COUNT>
0

> <PUBCHEM_BOND_UDEF_STEREO_COUNT>
0

> <PUBCHEM_ISOTOPIC_ATOM_COUNT>
0

> <PUBCHEM_COMPONENT_COUNT>
1

> <PUBCHEM_CACTVS_TAUTO_COUNT>
5

> <PUBCHEM_COORDINATE_TYPE>
1
5
255

$$$$

