10639
  -OEChem-06261204473D

 33 35  0     0  0  0  0  0  0999 V2000
   -2.9175   -2.5769    0.0012 O   0  0  0  0  0  0  0  0  0  0  0  0
   -0.3560   -2.5628    0.0011 O   0  0  0  0  0  0  0  0  0  0  0  0
   -0.2047    2.7791    0.0002 O   0  0  0  0  0  0  0  0  0  0  0  0
    2.2007   -2.7212   -0.0008 O   0  0  0  0  0  0  0  0  0  0  0  0
    4.6291    1.3464    0.0008 O   0  0  0  0  0  0  0  0  0  0  0  0
   -1.5336    0.8418    0.0001 C   0  0  0  0  0  0  0  0  0  0  0  0
   -1.5730   -0.5542   -0.0002 C   0  0  0  0  0  0  0  0  0  0  0  0
    0.9721   -0.6260   -0.0002 C   0  0  0  0  0  0  0  0  0  0  0  0
    1.0114    0.7699    0.0000 C   0  0  0  0  0  0  0  0  0  0  0  0
   -0.3216   -1.3391   -0.0003 C   0  0  0  0  0  0  0  0  0  0  0  0
   -0.2400    1.5548    0.0002 C   0  0  0  0  0  0  0  0  0  0  0  0
   -2.7269    1.5739    0.0002 C   0  0  0  0  0  0  0  0  0  0  0  0
   -2.8058   -1.2180   -0.0003 C   0  0  0  0  0  0  0  0  0  0  0  0
   -3.9532    0.9086    0.0000 C   0  0  0  0  0  0  0  0  0  0  0  0
    2.1654   -1.3582   -0.0005 C   0  0  0  0  0  0  0  0  0  0  0  0
    2.2441    1.4336    0.0000 C   0  0  0  0  0  0  0  0  0  0  0  0
   -3.9925   -0.4844   -0.0003 C   0  0  0  0  0  0  0  0  0  0  0  0
    3.4310    0.7002   -0.0003 C   0  0  0  0  0  0  0  0  0  0  0  0
    3.3918   -0.6927   -0.0006 C   0  0  0  0  0  0  0  0  0  0  0  0
   -5.2243    1.6890   -0.0006 C   0  0  0  0  0  0  0  0  0  0  0  0
    5.8035    0.5364    0.0003 C   0  0  0  0  0  0  0  0  0  0  0  0
   -2.7103    2.6612    0.0023 H   0  0  0  0  0  0  0  0  0  0  0  0
    2.2954    2.5197    0.0004 H   0  0  0  0  0  0  0  0  0  0  0  0
   -4.9476   -1.0046    0.0016 H   0  0  0  0  0  0  0  0  0  0  0  0
    4.2878   -1.3046   -0.0008 H   0  0  0  0  0  0  0  0  0  0  0  0
   -5.5261    1.9157    1.0267 H   0  0  0  0  0  0  0  0  0  0  0  0
   -5.1089    2.6298   -0.5493 H   0  0  0  0  0  0  0  0  0  0  0  0
   -6.0318    1.1319   -0.4880 H   0  0  0  0  0  0  0  0  0  0  0  0
   -2.0435   -2.9945    0.0015 H   0  0  0  0  0  0  0  0  0  0  0  0
    3.1229   -3.0290   -0.0010 H   0  0  0  0  0  0  0  0  0  0  0  0
    6.6631    1.2148    0.0008 H   0  0  0  0  0  0  0  0  0  0  0  0
    5.8759   -0.0683   -0.9101 H   0  0  0  0  0  0  0  0  0  0  0  0
    5.8758   -0.0694    0.9100 H   0  0  0  0  0  0  0  0  0  0  0  0
  1 13  1  0  0  0  0
  1 29  1  0  0  0  0
  2 10  2  0  0  0  0
  3 11  2  0  0  0  0
  4 15  1  0  0  0  0
  4 30  1  0  0  0  0
  5 18  1  0  0  0  0
  5 21  1  0  0  0  0
  6  7  2  0  0  0  0
  6 11  1  0  0  0  0
  6 12  1  0  0  0  0
  7 10  1  0  0  0  0
  7 13  1  0  0  0  0
  8  9  2  0  0  0  0
  8 10  1  0  0  0  0
  8 15  1  0  0  0  0
  9 11  1  0  0  0  0
  9 16  1  0  0  0  0
 12 14  2  0  0  0  0
 12 22  1  0  0  0  0
 13 17  2  0  0  0  0
 14 17  1  0  0  0  0
 14 20  1  0  0  0  0
 15 19  2  0  0  0  0
 16 18  2  0  0  0  0
 16 23  1  0  0  0  0
 17 24  1  0  0  0  0
 18 19  1  0  0  0  0
 19 25  1  0  0  0  0
 20 26  1  0  0  0  0
 20 27  1  0  0  0  0
 20 28  1  0  0  0  0
 21 31  1  0  0  0  0
 21 32  1  0  0  0  0
 21 33  1  0  0  0  0
M  END
> <PUBCHEM_COMPOUND_CID>
10639

> <PUBCHEM_CONFORMER_RMSD>
0.6

> <PUBCHEM_CONFORMER_DIVERSEORDER>
1

> <PUBCHEM_MMFF94_PARTIAL_CHARGES>
27
1 -0.53
10 0.4
11 0.4
12 -0.15
13 0.08
14 -0.14
15 0.08
16 -0.15
17 -0.15
18 0.08
19 -0.15
2 -0.57
20 0.14
21 0.28
22 0.15
23 0.15
24 0.15
25 0.15
29 0.45
3 -0.57
30 0.45
4 -0.53
5 -0.36
6 0.09
7 0.09
8 0.09
9 0.09

> <PUBCHEM_EFFECTIVE_ROTOR_COUNT>
1

> <PUBCHEM_PHARMACOPHORE_FEATURES>
8
1 1 donor
1 2 acceptor
1 3 acceptor
1 4 donor
1 5 acceptor
6 6 7 12 13 14 17 rings
6 6 7 8 9 10 11 rings
6 8 9 15 16 18 19 rings

> <PUBCHEM_HEAVY_ATOM_COUNT>
21

> <PUBCHEM_ATOM_DEF_STEREO_COUNT>
0

> <PUBCHEM_ATOM_UDEF_STEREO_COUNT>
0

> <PUBCHEM_BOND_DEF_STEREO_COUNT>
0

> <PUBCHEM_BOND_UDEF_STEREO_COUNT>
0

> <PUBCHEM_ISOTOPIC_ATOM_COUNT>
0

> <PUBCHEM_COMPONENT_COUNT>
1

> <PUBCHEM_CACTVS_TAUTO_COUNT>
57

> <PUBCHEM_CONFORMER_ID>
0000298F00000001

> <PUBCHEM_MMFF94_ENERGY>
74.6148

> <PUBCHEM_FEATURE_SELFOVERLAP>
40.637

> <PUBCHEM_SHAPE_FINGERPRINT>
10411042 1 17402048899212400550
10493431 412 18336820979260967833
10498660 4 18410570699791776124
10616163 171 18410009892847875759
10967382 1 18338516446985047303
11132069 177 18411139134196855793
11471102 20 18410295851664714548
12011746 2 18408605859369679708
12236239 1 17846499214767238164
12403259 415 18115026286677745368
12403814 3 17632582656024972621
12788726 201 17386563712353468001
12838862 33 18338817670338027157
13132413 78 18336827502741219037
13140716 1 18340485681117061627
13214271 11 18335422339770916087
138480 1 17689999354738015555
14790565 3 18339354154893082564
15196674 1 18410575097558699207
15442244 35 18194120956574876594
15536298 74 18334856160139315966
1601671 61 18411138039154521864
16087824 20 18409169884626550559
16945 1 18122624951154347171
19591789 44 18193838145952838632
19784866 170 18412543214988153584
200 152 17967535657543347037
20510252 161 18261391199602424600
20642791 178 18129087936100295036
20739085 24 17980170287877975377
21267235 1 18339353063680758219
21279426 13 18336824299143872894
21421861 104 17915468396401100330
22182313 1 18262496148711596783
2334 1 18410573963908918115
23366157 5 18059007423584297026
23402539 116 18334582313029772012
23402655 69 18334016107259012165
23463225 33 18412263964603944693
23557571 272 18260540083165726494
23559900 14 18335138726528284758
2748010 2 18410290319978978367
335352 9 18410856607354026110
34934 24 18410859879839549867
350125 39 18267017268164246897
3545911 37 18410291423622075501
4214541 1 18410856542460193217
474 4 17846493704097220812
5104073 3 18411982472473875970
7364860 26 18263644125177478582
7832392 63 18409451375490400055
9709674 26 18409443687251364790

> <PUBCHEM_SHAPE_MULTIPOLES>
402.82
9.42
2.67
0.59
3.18
0.91
0
-3.18
0
-0.66
0
-0.02
-0.02
0

> <PUBCHEM_SHAPE_SELFOVERLAP>
906.006

> <PUBCHEM_SHAPE_VOLUME>
211.7

> <PUBCHEM_COORDINATE_TYPE>
2
5
10

$$$$

