441978
  -OEChem-07051212563D

 54 59  0     1  0  0  0  0  0999 V2000
    0.1668    0.7709   -1.7604 O   0  0  0  0  0  0  0  0  0  0  0  0
    0.1968   -2.9966    0.9030 O   0  0  0  0  0  0  0  0  0  0  0  0
   -0.5521   -3.1819   -1.2746 O   0  0  0  0  0  0  0  0  0  0  0  0
   -5.3266   -1.0271   -0.0192 O   0  0  0  0  0  0  0  0  0  0  0  0
    2.0620    1.8151    1.2449 N   0  0  1  0  0  0  0  0  0  0  0  0
   -0.8316    2.2044   -0.1414 N   0  0  2  0  0  0  0  0  0  0  0  0
   -0.4440   -0.0767    0.4240 C   0  0  1  0  0  0  0  0  0  0  0  0
    0.0852    1.0966   -0.3441 C   0  0  1  0  0  0  0  0  0  0  0  0
    0.5259   -1.1632   -0.5165 C   0  0  2  0  0  0  0  0  0  0  0  0
    1.4730    1.0482    0.2319 C   0  0  2  0  0  0  0  0  0  0  0  0
    2.2069   -1.1883   -0.2099 C   0  0  2  0  0  0  0  0  0  0  0  0
    1.8952   -0.5632    1.0324 C   0  0  0  0  0  0  0  0  0  0  0  0
   -0.1755    0.4617    2.0361 C   0  0  0  0  0  0  0  0  0  0  0  0
    0.3115   -0.6397   -1.9206 C   0  0  0  0  0  0  0  0  0  0  0  0
   -1.9049    0.1558    0.1324 C   0  0  0  0  0  0  0  0  0  0  0  0
    1.1967    1.3754    2.3934 C   0  0  0  0  0  0  0  0  0  0  0  0
    3.4881   -0.1441   -0.2213 C   0  0  0  0  0  0  0  0  0  0  0  0
    3.4893    1.2071    0.9426 C   0  0  0  0  0  0  0  0  0  0  0  0
   -2.0770    1.5378   -0.1408 C   0  0  0  0  0  0  0  0  0  0  0  0
   -0.0123   -2.5579   -0.3709 C   0  0  0  0  0  0  0  0  0  0  0  0
   -0.6509    3.4998   -0.7469 C   0  0  0  0  0  0  0  0  0  0  0  0
   -2.9710   -0.7190    0.1829 C   0  0  0  0  0  0  0  0  0  0  0  0
   -3.3422    2.0503   -0.3620 C   0  0  0  0  0  0  0  0  0  0  0  0
    4.4873   -0.2741   -1.1041 C   0  0  0  0  0  0  0  0  0  0  0  0
   -4.2439   -0.1997   -0.0564 C   0  0  0  0  0  0  0  0  0  0  0  0
   -4.4280    1.1692   -0.3231 C   0  0  0  0  0  0  0  0  0  0  0  0
    5.6462    0.6591   -1.1935 C   0  0  0  0  0  0  0  0  0  0  0  0
   -0.2711   -4.3200    1.1822 C   0  0  0  0  0  0  0  0  0  0  0  0
    2.0324    1.3017   -0.6872 H   0  0  0  0  0  0  0  0  0  0  0  0
    2.5721   -2.2141   -0.0932 H   0  0  0  0  0  0  0  0  0  0  0  0
    1.1678   -1.1163    1.6211 H   0  0  0  0  0  0  0  0  0  0  0  0
    2.7093   -0.6026    1.7794 H   0  0  0  0  0  0  0  0  0  0  0  0
   -0.2554   -0.3880    2.7283 H   0  0  0  0  0  0  0  0  0  0  0  0
   -1.0162    1.1098    2.3245 H   0  0  0  0  0  0  0  0  0  0  0  0
    1.1508   -0.8440   -2.5925 H   0  0  0  0  0  0  0  0  0  0  0  0
   -0.6025   -1.0069   -2.3983 H   0  0  0  0  0  0  0  0  0  0  0  0
    0.8232    2.2907    2.8702 H   0  0  0  0  0  0  0  0  0  0  0  0
    1.7803    0.8657    3.1710 H   0  0  0  0  0  0  0  0  0  0  0  0
    4.0086    0.9236    1.8663 H   0  0  0  0  0  0  0  0  0  0  0  0
    4.0479    2.0231    0.4698 H   0  0  0  0  0  0  0  0  0  0  0  0
   -0.8697    3.4706   -1.8196 H   0  0  0  0  0  0  0  0  0  0  0  0
    0.3827    3.8376   -0.6200 H   0  0  0  0  0  0  0  0  0  0  0  0
   -1.2986    4.2460   -0.2754 H   0  0  0  0  0  0  0  0  0  0  0  0
   -2.8217   -1.7675    0.4148 H   0  0  0  0  0  0  0  0  0  0  0  0
   -3.5046    3.1023   -0.5691 H   0  0  0  0  0  0  0  0  0  0  0  0
    4.4504   -1.0858   -1.8257 H   0  0  0  0  0  0  0  0  0  0  0  0
   -5.4297    1.5539   -0.5005 H   0  0  0  0  0  0  0  0  0  0  0  0
    6.5347    0.0987   -1.5042 H   0  0  0  0  0  0  0  0  0  0  0  0
    5.8984    1.1321   -0.2413 H   0  0  0  0  0  0  0  0  0  0  0  0
    5.4572    1.4307   -1.9455 H   0  0  0  0  0  0  0  0  0  0  0  0
   -0.0437   -4.5472    2.2271 H   0  0  0  0  0  0  0  0  0  0  0  0
    0.2430   -5.0456    0.5446 H   0  0  0  0  0  0  0  0  0  0  0  0
   -1.3542   -4.3763    1.0379 H   0  0  0  0  0  0  0  0  0  0  0  0
   -5.0256   -1.9309    0.1774 H   0  0  0  0  0  0  0  0  0  0  0  0
  1  8  1  0  0  0  0
  1 14  1  0  0  0  0
  2 20  1  0  0  0  0
  2 28  1  0  0  0  0
  3 20  2  0  0  0  0
  4 25  1  0  0  0  0
  4 54  1  0  0  0  0
  5 10  1  0  0  0  0
  5 16  1  0  0  0  0
  5 18  1  0  0  0  0
  6  8  1  0  0  0  0
  6 19  1  0  0  0  0
  6 21  1  0  0  0  0
  7  8  1  0  0  0  0
  7  9  1  0  0  0  0
  7 13  1  0  0  0  0
  7 15  1  0  0  0  0
  8 10  1  0  0  0  0
  9 11  1  0  0  0  0
  9 14  1  0  0  0  0
  9 20  1  0  0  0  0
 10 12  1  0  0  0  0
 10 29  1  0  0  0  0
 11 12  1  0  0  0  0
 11 17  1  0  0  0  0
 11 30  1  0  0  0  0
 12 31  1  0  0  0  0
 12 32  1  0  0  0  0
 13 16  1  0  0  0  0
 13 33  1  0  0  0  0
 13 34  1  0  0  0  0
 14 35  1  0  0  0  0
 14 36  1  0  0  0  0
 15 19  2  0  0  0  0
 15 22  1  0  0  0  0
 16 37  1  0  0  0  0
 16 38  1  0  0  0  0
 17 18  1  0  0  0  0
 17 24  2  0  0  0  0
 18 39  1  0  0  0  0
 18 40  1  0  0  0  0
 19 23  1  0  0  0  0
 21 41  1  0  0  0  0
 21 42  1  0  0  0  0
 21 43  1  0  0  0  0
 22 25  2  0  0  0  0
 22 44  1  0  0  0  0
 23 26  2  0  0  0  0
 23 45  1  0  0  0  0
 24 27  1  0  0  0  0
 24 46  1  0  0  0  0
 25 26  1  0  0  0  0
 26 47  1  0  0  0  0
 27 48  1  0  0  0  0
 27 49  1  0  0  0  0
 27 50  1  0  0  0  0
 28 51  1  0  0  0  0
 28 52  1  0  0  0  0
 28 53  1  0  0  0  0
M  END
> <PUBCHEM_COMPOUND_CID>
441978

> <PUBCHEM_CONFORMER_RMSD>
0.8

> <PUBCHEM_CONFORMER_DIVERSEORDER>
1

> <PUBCHEM_MMFF94_PARTIAL_CHARGES>
31
1 -0.56
10 0.27
11 0.14
14 0.28
15 -0.14
16 0.27
17 -0.28
18 0.41
19 0.1
2 -0.43
20 0.66
21 0.37
22 -0.15
23 -0.15
24 -0.29
25 0.08
26 -0.15
27 0.14
28 0.28
3 -0.57
4 -0.53
44 0.15
45 0.15
46 0.15
47 0.15
5 -0.81
54 0.45
6 -0.84
7 0.14
8 0.65
9 0.06

> <PUBCHEM_EFFECTIVE_ROTOR_COUNT>
3.4

> <PUBCHEM_PHARMACOPHORE_FEATURES>
11
1 1 acceptor
1 27 hydrophobe
1 3 acceptor
1 4 donor
1 5 cation
1 6 cation
5 6 7 8 15 19 rings
6 15 19 22 23 25 26 rings
6 5 10 11 12 17 18 rings
6 5 7 8 10 13 16 rings
8 1 7 8 9 10 11 12 14 rings

> <PUBCHEM_HEAVY_ATOM_COUNT>
28

> <PUBCHEM_ATOM_DEF_STEREO_COUNT>
4

> <PUBCHEM_ATOM_UDEF_STEREO_COUNT>
1

> <PUBCHEM_BOND_DEF_STEREO_COUNT>
0

> <PUBCHEM_BOND_UDEF_STEREO_COUNT>
1

> <PUBCHEM_ISOTOPIC_ATOM_COUNT>
0

> <PUBCHEM_COMPONENT_COUNT>
1

> <PUBCHEM_CACTVS_TAUTO_COUNT>
3

> <PUBCHEM_CONFORMER_ID>
0006BE7A00000001

> <PUBCHEM_MMFF94_ENERGY>
381.1927

> <PUBCHEM_FEATURE_SELFOVERLAP>
57.223

> <PUBCHEM_SHAPE_FINGERPRINT>
10076449 9 17750217159255617854
10366900 7 18261684769787243661
10863032 1 18339644563174272456
10906281 52 18200857583220426501
10948715 1 18410017610903898872
1100329 8 18198058075643023870
11578080 2 17056120984455850695
12011746 2 18408884022926306334
12035758 1 18261109621772982154
12236239 1 17131834269804039356
12969540 114 18272664427949802076
13140716 1 18337963375783766617
14178342 30 18336255796135432313
14223421 5 18123759909294981645
14787075 74 18261107478415612934
14790565 3 18412254034835592892
15209289 33 18113615694325350351
16945 1 18050857907074371737
17980427 23 17560787849402957701
19591789 44 18409453612936402134
20691752 17 18266200373304433039
20905425 154 18120939670443808271
21033648 29 18187376393616040025
21330990 113 18341335569050090324
21421861 104 17839175560956048579
22393880 68 18115042865393660029
23227448 37 18265051324120477164
23366157 5 17554321797576768114
23419403 2 17101951622772958350
23559900 14 17907030816846374059
238 59 17830771933260469493
2748010 2 18410020922582270213
296302 2 16845569837596254116
3052486 1 18126011472875390379
3383291 50 17749946799855834278
3759504 43 18343578525858727734
633830 44 18041290927684222045
6442390 28 18412549807726127154
81228 2 17759556302935789799

> <PUBCHEM_SHAPE_MULTIPOLES>
542.79
7.4
3.51
1.6
0.21
2.91
-0.43
-1.92
2.07
-1.04
-0.36
0.96
-0.11
0.49

> <PUBCHEM_SHAPE_SELFOVERLAP>
1217.689

> <PUBCHEM_SHAPE_VOLUME>
292.9

> <PUBCHEM_COORDINATE_TYPE>
2
5
10

$$$$

