17396357
  -OEChem-06241222563D

 44 45  0     0  0  0  0  0  0999 V2000
    1.4053    0.3223    0.0869 O   0  0  0  0  0  0  0  0  0  0  0  0
   -6.3856    1.2801   -0.2129 O   0  0  0  0  0  0  0  0  0  0  0  0
   -0.1596    2.4609   -0.1660 O   0  0  0  0  0  0  0  0  0  0  0  0
    1.8290   -1.9226    0.3709 O   0  0  0  0  0  0  0  0  0  0  0  0
   -3.2111   -2.6804    0.3280 O   0  0  0  0  0  0  0  0  0  0  0  0
   -4.9638   -1.1209    0.0980 N   0  0  0  0  0  0  0  0  0  0  0  0
    4.5044   -0.8961   -0.7755 C   0  0  0  0  0  0  0  0  0  0  0  0
    3.6426   -0.3848    0.1949 C   0  0  0  0  0  0  0  0  0  0  0  0
    6.3265    0.3758    0.1725 C   0  0  0  0  0  0  0  0  0  0  0  0
    5.8462   -0.5158   -0.7868 C   0  0  0  0  0  0  0  0  0  0  0  0
   -2.2350    1.3507   -0.1010 C   0  0  0  0  0  0  0  0  0  0  0  0
    4.1230    0.5067    1.1542 C   0  0  0  0  0  0  0  0  0  0  0  0
   -4.3029    0.1038   -0.0211 C   0  0  0  0  0  0  0  0  0  0  0  0
    5.4649    0.8871    1.1430 C   0  0  0  0  0  0  0  0  0  0  0  0
   -2.9089    0.1350    0.0158 C   0  0  0  0  0  0  0  0  0  0  0  0
   -0.7816    1.3843   -0.0637 C   0  0  0  0  0  0  0  0  0  0  0  0
    0.0105    0.0811    0.1056 C   0  0  0  0  0  0  0  0  0  0  0  0
    4.0156   -1.8511   -1.8153 C   0  0  0  0  0  0  0  0  0  0  0  0
    2.2093   -0.7706    0.2300 C   0  0  0  0  0  0  0  0  0  0  0  0
   -2.9553    2.5353   -0.2550 C   0  0  0  0  0  0  0  0  0  0  0  0
   -5.0230    1.2885   -0.1750 C   0  0  0  0  0  0  0  0  0  0  0  0
   -4.3492    2.5043   -0.2919 C   0  0  0  0  0  0  0  0  0  0  0  0
    7.7611    0.7835    0.1588 C   0  0  0  0  0  0  0  0  0  0  0  0
   -4.4018   -2.3934    0.2579 C   0  0  0  0  0  0  0  0  0  0  0  0
   -5.4606   -3.4637    0.3479 C   0  0  0  0  0  0  0  0  0  0  0  0
    6.5228   -0.9135   -1.5396 H   0  0  0  0  0  0  0  0  0  0  0  0
    3.4637    0.9104    1.9185 H   0  0  0  0  0  0  0  0  0  0  0  0
    5.8271    1.5807    1.8973 H   0  0  0  0  0  0  0  0  0  0  0  0
   -2.3227   -0.7600    0.1349 H   0  0  0  0  0  0  0  0  0  0  0  0
   -0.2381   -0.5873   -0.7262 H   0  0  0  0  0  0  0  0  0  0  0  0
   -0.2576   -0.3646    1.0698 H   0  0  0  0  0  0  0  0  0  0  0  0
    3.1201   -1.4626   -2.3120 H   0  0  0  0  0  0  0  0  0  0  0  0
    3.7894   -2.8227   -1.3646 H   0  0  0  0  0  0  0  0  0  0  0  0
    4.7646   -2.0159   -2.5977 H   0  0  0  0  0  0  0  0  0  0  0  0
   -2.4536    3.4949   -0.3483 H   0  0  0  0  0  0  0  0  0  0  0  0
   -4.8976    3.4349   -0.4123 H   0  0  0  0  0  0  0  0  0  0  0  0
    8.3631    0.0579    0.7146 H   0  0  0  0  0  0  0  0  0  0  0  0
    8.1418    0.8463   -0.8664 H   0  0  0  0  0  0  0  0  0  0  0  0
    7.8984    1.7712    0.6121 H   0  0  0  0  0  0  0  0  0  0  0  0
   -5.9798   -1.0680    0.0625 H   0  0  0  0  0  0  0  0  0  0  0  0
   -6.7062    2.1916   -0.3244 H   0  0  0  0  0  0  0  0  0  0  0  0
   -4.9882   -4.4453    0.4440 H   0  0  0  0  0  0  0  0  0  0  0  0
   -6.0922   -3.2857    1.2228 H   0  0  0  0  0  0  0  0  0  0  0  0
   -6.0763   -3.4539   -0.5560 H   0  0  0  0  0  0  0  0  0  0  0  0
  1 17  1  0  0  0  0
  1 19  1  0  0  0  0
  2 21  1  0  0  0  0
  2 41  1  0  0  0  0
  3 16  2  0  0  0  0
  4 19  2  0  0  0  0
  5 24  2  0  0  0  0
  6 13  1  0  0  0  0
  6 24  1  0  0  0  0
  6 40  1  0  0  0  0
  7  8  2  0  0  0  0
  7 10  1  0  0  0  0
  7 18  1  0  0  0  0
  8 12  1  0  0  0  0
  8 19  1  0  0  0  0
  9 10  2  0  0  0  0
  9 14  1  0  0  0  0
  9 23  1  0  0  0  0
 10 26  1  0  0  0  0
 11 15  2  0  0  0  0
 11 16  1  0  0  0  0
 11 20  1  0  0  0  0
 12 14  2  0  0  0  0
 12 27  1  0  0  0  0
 13 15  1  0  0  0  0
 13 21  2  0  0  0  0
 14 28  1  0  0  0  0
 15 29  1  0  0  0  0
 16 17  1  0  0  0  0
 17 30  1  0  0  0  0
 17 31  1  0  0  0  0
 18 32  1  0  0  0  0
 18 33  1  0  0  0  0
 18 34  1  0  0  0  0
 20 22  2  0  0  0  0
 20 35  1  0  0  0  0
 21 22  1  0  0  0  0
 22 36  1  0  0  0  0
 23 37  1  0  0  0  0
 23 38  1  0  0  0  0
 23 39  1  0  0  0  0
 24 25  1  0  0  0  0
 25 42  1  0  0  0  0
 25 43  1  0  0  0  0
 25 44  1  0  0  0  0
M  END
> <PUBCHEM_COMPOUND_CID>
17396357

> <PUBCHEM_CONFORMER_RMSD>
1.2

> <PUBCHEM_CONFORMER_DIVERSEORDER>
1
28
99
88
91
20
68
80
61
100
77
27
114
50
93
12
4
63
38
107
71
78
113
112
31
29
10
46
82
41
84
64
89
36
9
23
95
60
44
83
120
65
59
18
3
98
42
119
22
35
70
101
40
15
117
32
90
21
106
81
47
33
49
52
54
111
30
87
53
105
102
116
104
7
45
96
62
67
97
118
57
92
2
76
73
5
79
19
34
109
16
6
55
43
17
51
74
115
11
56
66
13
72
94
48
108
58
85
8
75
110
24
39
103
69
37
26
86
25
14

> <PUBCHEM_MMFF94_PARTIAL_CHARGES>
33
1 -0.43
10 -0.15
11 0.09
12 -0.15
13 0.12
14 -0.15
15 -0.15
16 0.42
17 0.34
18 0.14
19 0.63
2 -0.53
20 -0.15
21 0.08
22 -0.15
23 0.14
24 0.57
25 0.06
26 0.15
27 0.15
28 0.15
29 0.15
3 -0.57
35 0.15
36 0.15
4 -0.57
40 0.37
41 0.45
5 -0.57
6 -0.55
7 -0.14
8 0.09
9 -0.14

> <PUBCHEM_EFFECTIVE_ROTOR_COUNT>
7

> <PUBCHEM_PHARMACOPHORE_FEATURES>
7
1 2 donor
1 3 acceptor
1 4 acceptor
1 5 acceptor
1 6 donor
6 11 13 15 20 21 22 rings
6 7 8 9 10 12 14 rings

> <PUBCHEM_HEAVY_ATOM_COUNT>
25

> <PUBCHEM_ATOM_DEF_STEREO_COUNT>
0

> <PUBCHEM_ATOM_UDEF_STEREO_COUNT>
0

> <PUBCHEM_BOND_DEF_STEREO_COUNT>
0

> <PUBCHEM_BOND_UDEF_STEREO_COUNT>
0

> <PUBCHEM_ISOTOPIC_ATOM_COUNT>
0

> <PUBCHEM_COMPONENT_COUNT>
1

> <PUBCHEM_CACTVS_TAUTO_COUNT>
18

> <PUBCHEM_CONFORMER_ID>
0109728500000001

> <PUBCHEM_MMFF94_ENERGY>
75.1717

> <PUBCHEM_FEATURE_SELFOVERLAP>
35.524

> <PUBCHEM_SHAPE_FINGERPRINT>
10411042 1 18124595276825395363
11014199 57 17686349672135032935
11045977 3 18187652392155916081
12236239 1 17561084722179879968
12516196 113 18260552246655890665
12616971 3 16343412968917596726
12730499 353 17894631449149508758
12838862 33 18270980019903626469
13631057 29 18411703149740146523
13911882 115 18114175341802732558
14461889 52 18261401040089651714
15461852 350 18342168952700634966
15537594 2 18060697325500097763
18608769 82 18335985294504646696
20511986 3 17560531710490832481
21033648 29 17822026297344996544
21054139 6 18060139817201947722
21236236 1 18411419492682724531
21623969 137 17530678810451093126
21792961 116 17676763254655258942
2303208 19 17967805051162228230
23559900 14 18409175389698678489
23622692 118 18339644413541318823
239999 70 18261111911496777164
3246875 12 18336832983842363664
335352 9 18412832383343301837
3383291 50 18342734080182110907
34797466 226 18186800313810476780
4073 2 18409163337761560578
4325135 7 18273215313614674404
5104073 3 18261395602349805946

> <PUBCHEM_SHAPE_MULTIPOLES>
480.16
18.99
3.05
0.93
13.22
1.44
0.15
1.21
-0.28
-6.38
0.07
1.27
0.24
2.09

> <PUBCHEM_SHAPE_SELFOVERLAP>
1021.758

> <PUBCHEM_SHAPE_VOLUME>
267

> <PUBCHEM_COORDINATE_TYPE>
2
5
10

$$$$

