9835
  -OEChem-06261204063D

 27 27  0     0  0  0  0  0  0999 V2000
   -2.0592   -0.4719    0.1694 O   0  0  0  0  0  0  0  0  0  0  0  0
    3.2844   -3.3288   -0.3278 O   0  0  0  0  0  0  0  0  0  0  0  0
    4.8293    0.8547    0.2221 O   0  0  0  0  0  0  0  0  0  0  0  0
   -5.5069    0.0380   -0.1171 O   0  5  0  0  0  0  0  0  0  0  0  0
   -4.3310   -1.7582    0.3411 O   0  0  0  0  0  0  0  0  0  0  0  0
    2.5788    0.2362    0.2453 N   0  0  0  0  0  0  0  0  0  0  0  0
    1.3063    0.7252    0.0721 N   0  0  0  0  0  0  0  0  0  0  0  0
   -4.3863   -0.5237    0.0639 N   0  3  0  0  0  0  0  0  0  0  0  0
    3.2432    2.4360   -0.2137 N   0  0  0  0  0  0  0  0  0  0  0  0
    2.8430   -1.1570    0.5720 C   0  0  0  0  0  0  0  0  0  0  0  0
    3.0118   -1.9824   -0.6936 C   0  0  0  0  0  0  0  0  0  0  0  0
   -1.0702    0.4258    0.0195 C   0  0  0  0  0  0  0  0  0  0  0  0
    0.2896   -0.0626    0.1970 C   0  0  0  0  0  0  0  0  0  0  0  0
   -1.5265    1.6650   -0.2796 C   0  0  0  0  0  0  0  0  0  0  0  0
   -3.2093    0.2196   -0.0429 C   0  0  0  0  0  0  0  0  0  0  0  0
   -2.9354    1.5382   -0.3228 C   0  0  0  0  0  0  0  0  0  0  0  0
    3.6383    1.1460    0.0952 C   0  0  0  0  0  0  0  0  0  0  0  0
    2.1021   -1.5717    1.2613 H   0  0  0  0  0  0  0  0  0  0  0  0
    3.7842   -1.2072    1.1355 H   0  0  0  0  0  0  0  0  0  0  0  0
    3.8433   -1.6097   -1.3010 H   0  0  0  0  0  0  0  0  0  0  0  0
    2.1026   -1.9644   -1.3031 H   0  0  0  0  0  0  0  0  0  0  0  0
    0.3567   -1.1389    0.4191 H   0  0  0  0  0  0  0  0  0  0  0  0
   -0.9445    2.5595   -0.4494 H   0  0  0  0  0  0  0  0  0  0  0  0
   -3.6562    2.3160   -0.5324 H   0  0  0  0  0  0  0  0  0  0  0  0
    3.3877   -3.8330   -1.1529 H   0  0  0  0  0  0  0  0  0  0  0  0
    3.9227    3.1777   -0.3450 H   0  0  0  0  0  0  0  0  0  0  0  0
    2.2639    2.6788   -0.3189 H   0  0  0  0  0  0  0  0  0  0  0  0
  1 12  1  0  0  0  0
  1 15  1  0  0  0  0
  2 11  1  0  0  0  0
  2 25  1  0  0  0  0
  3 17  2  0  0  0  0
  4  8  1  0  0  0  0
  5  8  2  0  0  0  0
  6  7  1  0  0  0  0
  6 10  1  0  0  0  0
  6 17  1  0  0  0  0
  7 13  2  0  0  0  0
  8 15  1  0  0  0  0
  9 17  1  0  0  0  0
  9 26  1  0  0  0  0
  9 27  1  0  0  0  0
 10 11  1  0  0  0  0
 10 18  1  0  0  0  0
 10 19  1  0  0  0  0
 11 20  1  0  0  0  0
 11 21  1  0  0  0  0
 12 13  1  0  0  0  0
 12 14  2  0  0  0  0
 13 22  1  0  0  0  0
 14 16  1  0  0  0  0
 14 23  1  0  0  0  0
 15 16  2  0  0  0  0
 16 24  1  0  0  0  0
M  CHG  2   4  -1   8   1
M  END
> <PUBCHEM_COMPOUND_CID>
9835

> <PUBCHEM_CONFORMER_RMSD>
0.8

> <PUBCHEM_CONFORMER_DIVERSEORDER>
2
13
6
18
26
21
27
32
30
23
5
34
3
8
29
31
25
1
4
17
20
14
16
33
19
10
15
7
28
22
11
9
24
12

> <PUBCHEM_MMFF94_PARTIAL_CHARGES>
23
1 -0.28
10 0.3
11 0.28
12 0.05
13 0.47
14 -0.15
15 0.22
16 -0.15
17 0.69
2 -0.68
22 0.06
23 0.15
24 0.15
25 0.4
26 0.37
27 0.37
3 -0.57
4 -0.52
5 -0.52
6 -0.3
7 -0.51
8 0.96
9 -0.8

> <PUBCHEM_EFFECTIVE_ROTOR_COUNT>
6

> <PUBCHEM_PHARMACOPHORE_FEATURES>
10
1 1 acceptor
1 2 acceptor
1 2 donor
1 3 acceptor
1 4 acceptor
1 4 anion
1 5 acceptor
1 7 acceptor
1 9 donor
5 1 12 14 15 16 rings

> <PUBCHEM_HEAVY_ATOM_COUNT>
17

> <PUBCHEM_ATOM_DEF_STEREO_COUNT>
0

> <PUBCHEM_ATOM_UDEF_STEREO_COUNT>
0

> <PUBCHEM_BOND_DEF_STEREO_COUNT>
0

> <PUBCHEM_BOND_UDEF_STEREO_COUNT>
1

> <PUBCHEM_ISOTOPIC_ATOM_COUNT>
0

> <PUBCHEM_COMPONENT_COUNT>
1

> <PUBCHEM_CACTVS_TAUTO_COUNT>
2

> <PUBCHEM_CONFORMER_ID>
0000266B00000002

> <PUBCHEM_MMFF94_ENERGY>
31.9261

> <PUBCHEM_FEATURE_SELFOVERLAP>
50.836

> <PUBCHEM_SHAPE_FINGERPRINT>
10616163 171 18264208023775567839
11405975 8 18263924526090378249
12107183 9 17685203268174787753
12616999 72 18411697678099328792
12916754 54 18337389460715281457
13296908 3 18338800125264169544
13533116 47 18187366558346478147
13955234 65 18334296461803244338
14252887 29 18341888589007364432
15375462 6 18410855468913457300
15442244 35 18047750683404716664
15477762 27 18337672026993577766
15536298 74 18411419544026873794
17492 89 18337954592317436399
17834074 16 18410292518933811467
18186145 218 17988362696911962908
20279233 1 17632854226617038696
20281475 54 18187370926159230967
20645477 70 18338802311518925110
21618674 68 18343019986646809028
221490 88 18339355366073548194
22485316 2 18409168792670427447
22943178 12 18341058517831795661
23402539 116 18201447930506114725
23557571 272 17775571956878622749
23559900 14 18338523052781872664
312423 11 18189040040296740168
33824 294 18410576184823800098
3421961 26 18264491861664682202
3545911 37 18411700980438796364
4214541 1 18340207487442552281
5104073 3 18337673121709105265
621550 34 18340495490975411428
7364860 26 18408323319963467060
77779 3 18410574015416896697
9709674 26 18342453746569103874

> <PUBCHEM_SHAPE_MULTIPOLES>
300.58
10.45
2.47
0.66
5.2
1.21
-0.02
1.66
0.06
-2.79
-0.37
-0.16
0.08
0.64

> <PUBCHEM_SHAPE_SELFOVERLAP>
617.263

> <PUBCHEM_SHAPE_VOLUME>
172.9

> <PUBCHEM_COORDINATE_TYPE>
2
5
10

$$$$

