65253
  -OEChem-07051212452D

 28 29  0     1  0  0  0  0  0999 V2000
    9.5312    0.8461    0.0000 O   0  0  0  0  0  0  0  0  0  0  0  0
    7.7953    1.8394    0.0000 O   0  0  0  0  0  0  0  0  0  0  0  0
    4.2690    1.8152    0.0000 O   0  0  0  0  0  0  0  0  0  0  0  0
    6.0290   -1.2194    0.0000 N   0  0  0  0  0  0  0  0  0  0  0  0
    6.0290    0.8499    0.0000 N   0  0  0  0  0  0  0  0  0  0  0  0
    4.2690   -1.1848    0.0000 N   0  0  0  0  0  0  0  0  0  0  0  0
    3.4030    0.3152    0.0000 N   0  0  0  0  0  0  0  0  0  0  0  0
    2.5369   -1.1848    0.0000 N   0  0  0  0  0  0  0  0  0  0  0  0
    6.9350   -0.7056    0.0000 C   0  0  0  0  0  0  0  0  0  0  0  0
    6.9350    0.3361    0.0000 C   0  0  0  0  0  0  0  0  0  0  0  0
    5.1350   -0.6848    0.0000 C   0  0  0  0  0  0  0  0  0  0  0  0
    5.1350    0.3152    0.0000 C   0  0  0  0  0  0  0  0  0  0  0  0
    7.7991    0.8394    0.0000 C   0  0  0  0  0  0  0  0  0  0  0  0
    8.6671    0.3427    0.0000 C   0  0  2  0  0  0  0  0  0  0  0  0
    4.2690    0.8152    0.0000 C   0  0  0  0  0  0  0  0  0  0  0  0
    3.4030   -0.6848    0.0000 C   0  0  0  0  0  0  0  0  0  0  0  0
    8.6709   -0.6573    0.0000 C   0  0  0  0  0  0  0  0  0  0  0  0
    7.1441   -1.2893    0.0000 H   0  0  0  0  0  0  0  0  0  0  0  0
    7.5459   -0.5995    0.0000 H   0  0  0  0  0  0  0  0  0  0  0  0
    6.0218   -1.8394    0.0000 H   0  0  0  0  0  0  0  0  0  0  0  0
    8.6647    0.9627    0.0000 H   0  0  0  0  0  0  0  0  0  0  0  0
    4.2690   -1.8048    0.0000 H   0  0  0  0  0  0  0  0  0  0  0  0
    8.0509   -0.6597    0.0000 H   0  0  0  0  0  0  0  0  0  0  0  0
    8.6733   -1.2773    0.0000 H   0  0  0  0  0  0  0  0  0  0  0  0
    9.2909   -0.6549    0.0000 H   0  0  0  0  0  0  0  0  0  0  0  0
   10.0693    0.5381    0.0000 H   0  0  0  0  0  0  0  0  0  0  0  0
    2.0000   -0.8748    0.0000 H   0  0  0  0  0  0  0  0  0  0  0  0
    2.5369   -1.8048    0.0000 H   0  0  0  0  0  0  0  0  0  0  0  0
 14  1  1  1  0  0  0
  1 26  1  0  0  0  0
  2 13  2  0  0  0  0
  3 15  2  0  0  0  0
  4  9  1  0  0  0  0
  4 11  1  0  0  0  0
  4 20  1  0  0  0  0
  5 10  2  0  0  0  0
  5 12  1  0  0  0  0
  6 11  1  0  0  0  0
  6 16  1  0  0  0  0
  6 22  1  0  0  0  0
  7 15  1  0  0  0  0
  7 16  2  0  0  0  0
  8 16  1  0  0  0  0
  8 27  1  0  0  0  0
  8 28  1  0  0  0  0
  9 10  1  0  0  0  0
  9 18  1  0  0  0  0
  9 19  1  0  0  0  0
 10 13  1  0  0  0  0
 11 12  2  0  0  0  0
 12 15  1  0  0  0  0
 13 14  1  0  0  0  0
 14 17  1  0  0  0  0
 14 21  1  0  0  0  0
 17 23  1  0  0  0  0
 17 24  1  0  0  0  0
 17 25  1  0  0  0  0
M  END
> <PUBCHEM_COMPOUND_CID>
65253

> <PUBCHEM_COMPOUND_CANONICALIZED>
1

> <PUBCHEM_CACTVS_COMPLEXITY>
491

> <PUBCHEM_CACTVS_HBOND_ACCEPTOR>
5

> <PUBCHEM_CACTVS_HBOND_DONOR>
4

> <PUBCHEM_CACTVS_ROTATABLE_BOND>
2

> <PUBCHEM_CACTVS_SUBSKEYS>
AAADccBzsAAAAAAAAAAAAAAAAAAAAAAAAAAgQAAAAAAAAACAAAAAHgAQCAAACBzhgAYDAALAAgCoAYVwdAKAAAEAAAABAIH4AECAUAoAgAAEQAAMAAIAAEAwAAAAAAAAAAAAAAAAAAAAAAAAAAAAAAAAAA==

> <PUBCHEM_IUPAC_OPENEYE_NAME>
2-amino-6-[(2S)-2-hydroxypropanoyl]-7,8-dihydro-1H-pteridin-4-one

> <PUBCHEM_IUPAC_CAS_NAME>
2-amino-6-[(2S)-2-hydroxy-1-oxopropyl]-7,8-dihydro-1H-pteridin-4-one

> <PUBCHEM_IUPAC_NAME>
2-amino-6-[(2S)-2-hydroxypropanoyl]-7,8-dihydro-1H-pteridin-4-one

> <PUBCHEM_IUPAC_SYSTEMATIC_NAME>
2-azanyl-6-[(2S)-2-oxidanylpropanoyl]-7,8-dihydro-1H-pteridin-4-one

> <PUBCHEM_IUPAC_TRADITIONAL_NAME>
2-amino-6-[(2S)-2-hydroxypropanoyl]-7,8-dihydro-1H-pteridin-4-one

> <PUBCHEM_IUPAC_INCHI>
InChI=1S/C9H11N5O3/c1-3(15)6(16)4-2-11-7-5(12-4)8(17)14-9(10)13-7/h3,15H,2H2,1H3,(H4,10,11,13,14,17)/t3-/m0/s1

> <PUBCHEM_IUPAC_INCHIKEY>
VPVOXUSPXFPWBN-VKHMYHEASA-N

> <PUBCHEM_XLOGP3_AA>
-2

> <PUBCHEM_EXACT_MASS>
237.086189

> <PUBCHEM_MOLECULAR_FORMULA>
C9H11N5O3

> <PUBCHEM_MOLECULAR_WEIGHT>
237.21534

> <PUBCHEM_OPENEYE_CAN_SMILES>
CC(C(=O)C1=NC2=C(NC1)NC(=NC2=O)N)O

> <PUBCHEM_OPENEYE_ISO_SMILES>
C[C@@H](C(=O)C1=NC2=C(NC1)NC(=NC2=O)N)O

> <PUBCHEM_CACTVS_TPSA>
129

> <PUBCHEM_MONOISOTOPIC_WEIGHT>
237.086189

> <PUBCHEM_TOTAL_CHARGE>
0

> <PUBCHEM_HEAVY_ATOM_COUNT>
17

> <PUBCHEM_ATOM_DEF_STEREO_COUNT>
1

> <PUBCHEM_ATOM_UDEF_STEREO_COUNT>
0

> <PUBCHEM_BOND_DEF_STEREO_COUNT>
0

> <PUBCHEM_BOND_UDEF_STEREO_COUNT>
0

> <PUBCHEM_ISOTOPIC_ATOM_COUNT>
0

> <PUBCHEM_COMPONENT_COUNT>
1

> <PUBCHEM_CACTVS_TAUTO_COUNT>
301

> <PUBCHEM_COORDINATE_TYPE>
1
5
255

> <PUBCHEM_BONDANNOTATIONS>
14  1  5
11  12  8
12  15  8
6  11  8
6  16  8
7  15  8
7  16  8

$$$$

