17395821
  -OEChem-06241222522D

 45 47  0     0  0  0  0  0  0999 V2000
    6.3301    3.7500    0.0000 O   0  0  0  0  0  0  0  0  0  0  0  0
    7.1962   -0.7500    0.0000 O   0  0  0  0  0  0  0  0  0  0  0  0
    5.4641    2.2500    0.0000 N   0  0  0  0  0  0  0  0  0  0  0  0
    5.4641    1.2500    0.0000 N   0  0  0  0  0  0  0  0  0  0  0  0
    5.4641   -0.7500    0.0000 N   0  0  0  0  0  0  0  0  0  0  0  0
    2.8660   -3.2500    0.0000 N   0  0  0  0  0  0  0  0  0  0  0  0
    4.5981    2.7500    0.0000 C   0  0  0  0  0  0  0  0  0  0  0  0
    3.7320    2.2500    0.0000 C   0  0  0  0  0  0  0  0  0  0  0  0
    7.1962    2.2500    0.0000 C   0  0  0  0  0  0  0  0  0  0  0  0
    2.8660    2.7500    0.0000 C   0  0  0  0  0  0  0  0  0  0  0  0
    7.1962    1.2500    0.0000 C   0  0  0  0  0  0  0  0  0  0  0  0
    6.3301    2.7500    0.0000 C   0  0  0  0  0  0  0  0  0  0  0  0
    6.3301    0.7500    0.0000 C   0  0  0  0  0  0  0  0  0  0  0  0
    8.0901    2.7847    0.0000 C   0  0  0  0  0  0  0  0  0  0  0  0
    8.0901    0.7153    0.0000 C   0  0  0  0  0  0  0  0  0  0  0  0
    2.0000    2.2500    0.0000 C   0  0  0  0  0  0  0  0  0  0  0  0
    6.3301   -0.2500    0.0000 C   0  0  0  0  0  0  0  0  0  0  0  0
    8.9962    2.2708    0.0000 C   0  0  0  0  0  0  0  0  0  0  0  0
    8.9962    1.2292    0.0000 C   0  0  0  0  0  0  0  0  0  0  0  0
    5.4641   -1.7500    0.0000 C   0  0  0  0  0  0  0  0  0  0  0  0
    4.5981   -2.2500    0.0000 C   0  0  0  0  0  0  0  0  0  0  0  0
    4.5981   -3.2500    0.0000 C   0  0  0  0  0  0  0  0  0  0  0  0
    3.7320   -1.7500    0.0000 C   0  0  0  0  0  0  0  0  0  0  0  0
    3.7320   -3.7500    0.0000 C   0  0  0  0  0  0  0  0  0  0  0  0
    2.8660   -2.2500    0.0000 C   0  0  0  0  0  0  0  0  0  0  0  0
    4.9966    3.2250    0.0000 H   0  0  0  0  0  0  0  0  0  0  0  0
    4.1996    3.2250    0.0000 H   0  0  0  0  0  0  0  0  0  0  0  0
    3.3335    1.7750    0.0000 H   0  0  0  0  0  0  0  0  0  0  0  0
    4.1306    1.7750    0.0000 H   0  0  0  0  0  0  0  0  0  0  0  0
    3.2646    3.2250    0.0000 H   0  0  0  0  0  0  0  0  0  0  0  0
    2.4675    3.2250    0.0000 H   0  0  0  0  0  0  0  0  0  0  0  0
    8.0829    3.4046    0.0000 H   0  0  0  0  0  0  0  0  0  0  0  0
    8.0829    0.0954    0.0000 H   0  0  0  0  0  0  0  0  0  0  0  0
    1.6900    2.7869    0.0000 H   0  0  0  0  0  0  0  0  0  0  0  0
    1.4631    1.9400    0.0000 H   0  0  0  0  0  0  0  0  0  0  0  0
    2.3100    1.7131    0.0000 H   0  0  0  0  0  0  0  0  0  0  0  0
    9.5319    2.5829    0.0000 H   0  0  0  0  0  0  0  0  0  0  0  0
    9.5319    0.9171    0.0000 H   0  0  0  0  0  0  0  0  0  0  0  0
    4.9272   -0.4400    0.0000 H   0  0  0  0  0  0  0  0  0  0  0  0
    5.6762   -2.3326    0.0000 H   0  0  0  0  0  0  0  0  0  0  0  0
    6.0747   -1.6423    0.0000 H   0  0  0  0  0  0  0  0  0  0  0  0
    5.1350   -3.5600    0.0000 H   0  0  0  0  0  0  0  0  0  0  0  0
    3.7320   -1.1300    0.0000 H   0  0  0  0  0  0  0  0  0  0  0  0
    3.7320   -4.3700    0.0000 H   0  0  0  0  0  0  0  0  0  0  0  0
    2.3291   -1.9400    0.0000 H   0  0  0  0  0  0  0  0  0  0  0  0
  1 12  2  0  0  0  0
  2 17  2  0  0  0  0
  3  4  1  0  0  0  0
  3  7  1  0  0  0  0
  3 12  1  0  0  0  0
  4 13  2  0  0  0  0
  5 17  1  0  0  0  0
  5 20  1  0  0  0  0
  5 39  1  0  0  0  0
  6 24  2  0  0  0  0
  6 25  1  0  0  0  0
  7  8  1  0  0  0  0
  7 26  1  0  0  0  0
  7 27  1  0  0  0  0
  8 10  1  0  0  0  0
  8 28  1  0  0  0  0
  8 29  1  0  0  0  0
  9 11  1  0  0  0  0
  9 12  1  0  0  0  0
  9 14  2  0  0  0  0
 10 16  1  0  0  0  0
 10 30  1  0  0  0  0
 10 31  1  0  0  0  0
 11 13  1  0  0  0  0
 11 15  2  0  0  0  0
 13 17  1  0  0  0  0
 14 18  1  0  0  0  0
 14 32  1  0  0  0  0
 15 19  1  0  0  0  0
 15 33  1  0  0  0  0
 16 34  1  0  0  0  0
 16 35  1  0  0  0  0
 16 36  1  0  0  0  0
 18 19  2  0  0  0  0
 18 37  1  0  0  0  0
 19 38  1  0  0  0  0
 20 21  1  0  0  0  0
 20 40  1  0  0  0  0
 20 41  1  0  0  0  0
 21 22  2  0  0  0  0
 21 23  1  0  0  0  0
 22 24  1  0  0  0  0
 22 42  1  0  0  0  0
 23 25  2  0  0  0  0
 23 43  1  0  0  0  0
 24 44  1  0  0  0  0
 25 45  1  0  0  0  0
M  END
> <PUBCHEM_COMPOUND_CID>
17395821

> <PUBCHEM_COMPOUND_CANONICALIZED>
1

> <PUBCHEM_CACTVS_COMPLEXITY>
514

> <PUBCHEM_CACTVS_HBOND_ACCEPTOR>
4

> <PUBCHEM_CACTVS_HBOND_DONOR>
1

> <PUBCHEM_CACTVS_ROTATABLE_BOND>
6

> <PUBCHEM_CACTVS_SUBSKEYS>
AAADceB7sAAAAAAAAAAAAAAAAAAAAAAAAAA8QIAAAAAAAACBwAAAHgAYAAAADAjBmgQ+gJLIEACoAzF3VACSgCA1AiAa2KE4ZNgIIPLAlZGEIQhgjgDIyYcYi4COgAAAAAAQAAAAAAAAACAAAAAAAAAAAA==

> <PUBCHEM_IUPAC_OPENEYE_NAME>
3-butyl-4-oxo-N-(4-pyridylmethyl)phthalazine-1-carboxamide

> <PUBCHEM_IUPAC_CAS_NAME>
3-butyl-4-oxo-N-(pyridin-4-ylmethyl)-1-phthalazinecarboxamide

> <PUBCHEM_IUPAC_NAME>
3-butyl-4-oxo-N-(pyridin-4-ylmethyl)phthalazine-1-carboxamide

> <PUBCHEM_IUPAC_SYSTEMATIC_NAME>
3-butyl-4-oxidanylidene-N-(pyridin-4-ylmethyl)phthalazine-1-carboxamide

> <PUBCHEM_IUPAC_TRADITIONAL_NAME>
3-butyl-4-keto-N-(4-pyridylmethyl)phthalazine-1-carboxamide

> <PUBCHEM_IUPAC_INCHI>
InChI=1S/C19H20N4O2/c1-2-3-12-23-19(25)16-7-5-4-6-15(16)17(22-23)18(24)21-13-14-8-10-20-11-9-14/h4-11H,2-3,12-13H2,1H3,(H,21,24)

> <PUBCHEM_IUPAC_INCHIKEY>
MEETUEBFCUHXRN-UHFFFAOYSA-N

> <PUBCHEM_XLOGP3_AA>
2.3

> <PUBCHEM_EXACT_MASS>
336.158626

> <PUBCHEM_MOLECULAR_FORMULA>
C19H20N4O2

> <PUBCHEM_MOLECULAR_WEIGHT>
336.3877

> <PUBCHEM_OPENEYE_CAN_SMILES>
CCCCN1C(=O)C2=CC=CC=C2C(=N1)C(=O)NCC3=CC=NC=C3

> <PUBCHEM_OPENEYE_ISO_SMILES>
CCCCN1C(=O)C2=CC=CC=C2C(=N1)C(=O)NCC3=CC=NC=C3

> <PUBCHEM_CACTVS_TPSA>
74.7

> <PUBCHEM_MONOISOTOPIC_WEIGHT>
336.158626

> <PUBCHEM_TOTAL_CHARGE>
0

> <PUBCHEM_HEAVY_ATOM_COUNT>
25

> <PUBCHEM_ATOM_DEF_STEREO_COUNT>
0

> <PUBCHEM_ATOM_UDEF_STEREO_COUNT>
0

> <PUBCHEM_BOND_DEF_STEREO_COUNT>
0

> <PUBCHEM_BOND_UDEF_STEREO_COUNT>
0

> <PUBCHEM_ISOTOPIC_ATOM_COUNT>
0

> <PUBCHEM_COMPONENT_COUNT>
1

> <PUBCHEM_CACTVS_TAUTO_COUNT>
2

> <PUBCHEM_COORDINATE_TYPE>
1
5
255

> <PUBCHEM_BONDANNOTATIONS>
11  13  8
11  15  8
14  18  8
15  19  8
18  19  8
21  22  8
21  23  8
22  24  8
23  25  8
3  12  8
3  4  8
4  13  8
6  24  8
6  25  8
9  11  8
9  12  8
9  14  8

$$$$

