443436
  -OEChem-07051213022D

 28 27  0     1  0  0  0  0  0999 V2000
    3.4030   -1.8450    0.0000 O   0  0  0  0  0  0  0  0  0  0  0  0
    2.5369    0.6550    0.0000 O   0  0  0  0  0  0  0  0  0  0  0  0
    6.0010   -0.3450    0.0000 O   0  0  0  0  0  0  0  0  0  0  0  0
    3.4030    2.1550    0.0000 O   0  0  0  0  0  0  0  0  0  0  0  0
    5.1350    1.1550    0.0000 N   0  0  0  0  0  0  0  0  0  0  0  0
    4.2690    0.6550    0.0000 C   0  0  3  0  0  0  0  0  0  0  0  0
    4.2690   -0.3450    0.0000 C   0  0  0  0  0  0  0  0  0  0  0  0
    6.8671    1.1550    0.0000 C   0  0  0  0  0  0  0  0  0  0  0  0
    3.4030   -0.8450    0.0000 C   0  0  0  0  0  0  0  0  0  0  0  0
    6.0010    0.6550    0.0000 C   0  0  0  0  0  0  0  0  0  0  0  0
    7.7331    0.6550    0.0000 C   0  0  0  0  0  0  0  0  0  0  0  0
    3.4030    1.1550    0.0000 C   0  0  0  0  0  0  0  0  0  0  0  0
    8.5991    1.1550    0.0000 C   0  0  0  0  0  0  0  0  0  0  0  0
    4.2690    1.5050    0.0000 H   0  0  0  0  0  0  0  0  0  0  0  0
    4.4810   -0.9276    0.0000 H   0  0  0  0  0  0  0  0  0  0  0  0
    4.8796   -0.2373    0.0000 H   0  0  0  0  0  0  0  0  0  0  0  0
    5.1350    1.7750    0.0000 H   0  0  0  0  0  0  0  0  0  0  0  0
    7.2656    1.6300    0.0000 H   0  0  0  0  0  0  0  0  0  0  0  0
    6.4685    1.6300    0.0000 H   0  0  0  0  0  0  0  0  0  0  0  0
    3.1909   -0.2624    0.0000 H   0  0  0  0  0  0  0  0  0  0  0  0
    2.7924   -0.9527    0.0000 H   0  0  0  0  0  0  0  0  0  0  0  0
    7.3346    0.1801    0.0000 H   0  0  0  0  0  0  0  0  0  0  0  0
    8.1316    0.1801    0.0000 H   0  0  0  0  0  0  0  0  0  0  0  0
    8.9091    0.6181    0.0000 H   0  0  0  0  0  0  0  0  0  0  0  0
    9.1360    1.4650    0.0000 H   0  0  0  0  0  0  0  0  0  0  0  0
    8.2891    1.6919    0.0000 H   0  0  0  0  0  0  0  0  0  0  0  0
    2.8660   -2.1550    0.0000 H   0  0  0  0  0  0  0  0  0  0  0  0
    2.0000    0.9650    0.0000 H   0  0  0  0  0  0  0  0  0  0  0  0
  1  9  1  0  0  0  0
  1 27  1  0  0  0  0
  2 12  1  0  0  0  0
  2 28  1  0  0  0  0
  3 10  2  0  0  0  0
  4 12  2  0  0  0  0
  5  6  1  0  0  0  0
  5 10  1  0  0  0  0
  5 17  1  0  0  0  0
  6  7  1  0  0  0  0
  6 12  1  0  0  0  0
  6 14  1  0  0  0  0
  7  9  1  0  0  0  0
  7 15  1  0  0  0  0
  7 16  1  0  0  0  0
  8 10  1  0  0  0  0
  8 11  1  0  0  0  0
  8 18  1  0  0  0  0
  8 19  1  0  0  0  0
  9 20  1  0  0  0  0
  9 21  1  0  0  0  0
 11 13  1  0  0  0  0
 11 22  1  0  0  0  0
 11 23  1  0  0  0  0
 13 24  1  0  0  0  0
 13 25  1  0  0  0  0
 13 26  1  0  0  0  0
M  END
> <PUBCHEM_COMPOUND_CID>
443436

> <PUBCHEM_COMPOUND_CANONICALIZED>
1

> <PUBCHEM_CACTVS_COMPLEXITY>
181

> <PUBCHEM_CACTVS_HBOND_ACCEPTOR>
4

> <PUBCHEM_CACTVS_HBOND_DONOR>
3

> <PUBCHEM_CACTVS_ROTATABLE_BOND>
6

> <PUBCHEM_CACTVS_SUBSKEYS>
AAADccByOAAAAAAAAAAAAAAAAAAAAAAAAAAAAAAAAAAAAAAAAAAAHgAQCAAACCjhgAYCCALAAgAIAAGQGAAAAAAAAAAAAIGIAAACEBAAgCAEQAAGFgCQAABCAAAAAAAAAAAAAAAAAAAAAAAAAAAAAAAAAA==

> <PUBCHEM_IUPAC_OPENEYE_NAME>
2-(butanoylamino)-4-hydroxy-butanoic acid

> <PUBCHEM_IUPAC_CAS_NAME>
4-hydroxy-2-(1-oxobutylamino)butanoic acid

> <PUBCHEM_IUPAC_NAME>
2-(butanoylamino)-4-hydroxybutanoic acid

> <PUBCHEM_IUPAC_SYSTEMATIC_NAME>
2-(butanoylamino)-4-oxidanyl-butanoic acid

> <PUBCHEM_IUPAC_TRADITIONAL_NAME>
2-butyramido-4-hydroxy-butyric acid

> <PUBCHEM_IUPAC_INCHI>
InChI=1S/C8H15NO4/c1-2-3-7(11)9-6(4-5-10)8(12)13/h6,10H,2-5H2,1H3,(H,9,11)(H,12,13)

> <PUBCHEM_IUPAC_INCHIKEY>
FWULQXYJOANGSS-UHFFFAOYSA-N

> <PUBCHEM_XLOGP3_AA>
-0.3

> <PUBCHEM_EXACT_MASS>
189.100108

> <PUBCHEM_MOLECULAR_FORMULA>
C8H15NO4

> <PUBCHEM_MOLECULAR_WEIGHT>
189.209

> <PUBCHEM_OPENEYE_CAN_SMILES>
CCCC(=O)NC(CCO)C(=O)O

> <PUBCHEM_OPENEYE_ISO_SMILES>
CCCC(=O)NC(CCO)C(=O)O

> <PUBCHEM_CACTVS_TPSA>
86.6

> <PUBCHEM_MONOISOTOPIC_WEIGHT>
189.100108

> <PUBCHEM_TOTAL_CHARGE>
0

> <PUBCHEM_HEAVY_ATOM_COUNT>
13

> <PUBCHEM_ATOM_DEF_STEREO_COUNT>
0

> <PUBCHEM_ATOM_UDEF_STEREO_COUNT>
1

> <PUBCHEM_BOND_DEF_STEREO_COUNT>
0

> <PUBCHEM_BOND_UDEF_STEREO_COUNT>
0

> <PUBCHEM_ISOTOPIC_ATOM_COUNT>
0

> <PUBCHEM_COMPONENT_COUNT>
1

> <PUBCHEM_CACTVS_TAUTO_COUNT>
2

> <PUBCHEM_COORDINATE_TYPE>
1
5
255

> <PUBCHEM_BONDANNOTATIONS>
6  14  3

$$$$

