51090965
  -OEChem-06241223013D

 49 50  0     1  0  0  0  0  0999 V2000
    0.3439   -0.7513   -1.3235 O   0  0  0  0  0  0  0  0  0  0  0  0
    3.5609   -0.5097    0.3473 N   0  0  0  0  0  0  0  0  0  0  0  0
    0.6937    1.4437   -0.6593 N   0  0  0  0  0  0  0  0  0  0  0  0
   -3.5473   -0.0695    0.1373 N   0  0  0  0  0  0  0  0  0  0  0  0
   -3.2455    0.8760    1.0434 N   0  0  0  0  0  0  0  0  0  0  0  0
    3.7504   -1.5681    1.3388 C   0  0  0  0  0  0  0  0  0  0  0  0
    4.8021   -0.4874   -0.4263 C   0  0  0  0  0  0  0  0  0  0  0  0
    3.2638    0.7773    0.9585 C   0  0  0  0  0  0  0  0  0  0  0  0
    4.4124   -2.6754    0.5321 C   0  0  0  0  0  0  0  0  0  0  0  0
    5.1065   -1.9648   -0.6258 C   0  0  0  0  0  0  0  0  0  0  0  0
    3.0834    1.8888   -0.0921 C   0  0  1  0  0  0  0  0  0  0  0  0
    2.0328    1.5655   -1.1685 C   0  0  0  0  0  0  0  0  0  0  0  0
    2.7640    3.2159    0.6046 C   0  0  0  0  0  0  0  0  0  0  0  0
   -4.8899   -0.5951    0.0700 C   0  0  0  0  0  0  0  0  0  0  0  0
   -0.0519    0.2770   -0.7808 C   0  0  0  0  0  0  0  0  0  0  0  0
   -1.4291    0.3209   -0.2255 C   0  0  0  0  0  0  0  0  0  0  0  0
   -5.8584    0.0306    1.0991 C   0  0  0  0  0  0  0  0  0  0  0  0
   -5.4815   -0.3312   -1.3316 C   0  0  0  0  0  0  0  0  0  0  0  0
   -4.8661   -2.1163    0.3330 C   0  0  0  0  0  0  0  0  0  0  0  0
   -2.4940   -0.4372   -0.6476 C   0  0  0  0  0  0  0  0  0  0  0  0
   -1.9502    1.1104    0.8169 C   0  0  0  0  0  0  0  0  0  0  0  0
    4.6995    0.0121   -1.3943 H   0  0  0  0  0  0  0  0  0  0  0  0
    5.6214   -0.0136    0.1297 H   0  0  0  0  0  0  0  0  0  0  0  0
    4.4183   -1.2520    2.1504 H   0  0  0  0  0  0  0  0  0  0  0  0
    2.8029   -1.8991    1.7754 H   0  0  0  0  0  0  0  0  0  0  0  0
    4.0560    1.0702    1.6609 H   0  0  0  0  0  0  0  0  0  0  0  0
    2.3414    0.6878    1.5467 H   0  0  0  0  0  0  0  0  0  0  0  0
    5.1205   -3.2473    1.1403 H   0  0  0  0  0  0  0  0  0  0  0  0
    3.6629   -3.3741    0.1422 H   0  0  0  0  0  0  0  0  0  0  0  0
    4.6975   -2.3225   -1.5781 H   0  0  0  0  0  0  0  0  0  0  0  0
    6.1845   -2.1553   -0.6303 H   0  0  0  0  0  0  0  0  0  0  0  0
    4.0381    2.0451   -0.6110 H   0  0  0  0  0  0  0  0  0  0  0  0
    2.3085    0.6655   -1.7272 H   0  0  0  0  0  0  0  0  0  0  0  0
    2.0051    2.3832   -1.8987 H   0  0  0  0  0  0  0  0  0  0  0  0
    1.8530    3.1504    1.2086 H   0  0  0  0  0  0  0  0  0  0  0  0
    2.6325    4.0202   -0.1269 H   0  0  0  0  0  0  0  0  0  0  0  0
    3.5833    3.5055    1.2717 H   0  0  0  0  0  0  0  0  0  0  0  0
    0.2656    2.2670   -0.2469 H   0  0  0  0  0  0  0  0  0  0  0  0
   -4.4289   -2.3400    1.3134 H   0  0  0  0  0  0  0  0  0  0  0  0
   -5.8774   -2.5387    0.3126 H   0  0  0  0  0  0  0  0  0  0  0  0
   -4.2763   -2.6524   -0.4192 H   0  0  0  0  0  0  0  0  0  0  0  0
   -5.4908    0.7412   -1.5598 H   0  0  0  0  0  0  0  0  0  0  0  0
   -4.9052   -0.8294   -2.1194 H   0  0  0  0  0  0  0  0  0  0  0  0
   -6.5119   -0.6982   -1.4031 H   0  0  0  0  0  0  0  0  0  0  0  0
   -5.9498    1.1139    0.9559 H   0  0  0  0  0  0  0  0  0  0  0  0
   -6.8640   -0.3972    1.0116 H   0  0  0  0  0  0  0  0  0  0  0  0
   -5.5174   -0.1422    2.1267 H   0  0  0  0  0  0  0  0  0  0  0  0
   -2.5799   -1.1866   -1.4227 H   0  0  0  0  0  0  0  0  0  0  0  0
   -1.4450    1.8462    1.4265 H   0  0  0  0  0  0  0  0  0  0  0  0
  1 15  2  0  0  0  0
  2  6  1  0  0  0  0
  2  7  1  0  0  0  0
  2  8  1  0  0  0  0
  3 12  1  0  0  0  0
  3 15  1  0  0  0  0
  3 38  1  0  0  0  0
  4  5  1  0  0  0  0
  4 14  1  0  0  0  0
  4 20  1  0  0  0  0
  5 21  2  0  0  0  0
  6  9  1  0  0  0  0
  6 24  1  0  0  0  0
  6 25  1  0  0  0  0
  7 10  1  0  0  0  0
  7 22  1  0  0  0  0
  7 23  1  0  0  0  0
  8 11  1  0  0  0  0
  8 26  1  0  0  0  0
  8 27  1  0  0  0  0
  9 10  1  0  0  0  0
  9 28  1  0  0  0  0
  9 29  1  0  0  0  0
 10 30  1  0  0  0  0
 10 31  1  0  0  0  0
 11 12  1  0  0  0  0
 11 13  1  0  0  0  0
 11 32  1  0  0  0  0
 12 33  1  0  0  0  0
 12 34  1  0  0  0  0
 13 35  1  0  0  0  0
 13 36  1  0  0  0  0
 13 37  1  0  0  0  0
 14 17  1  0  0  0  0
 14 18  1  0  0  0  0
 14 19  1  0  0  0  0
 15 16  1  0  0  0  0
 16 20  2  0  0  0  0
 16 21  1  0  0  0  0
 17 45  1  0  0  0  0
 17 46  1  0  0  0  0
 17 47  1  0  0  0  0
 18 42  1  0  0  0  0
 18 43  1  0  0  0  0
 18 44  1  0  0  0  0
 19 39  1  0  0  0  0
 19 40  1  0  0  0  0
 19 41  1  0  0  0  0
 20 48  1  0  0  0  0
 21 49  1  0  0  0  0
M  END
> <PUBCHEM_COMPOUND_CID>
51090965

> <PUBCHEM_CONFORMER_RMSD>
1

> <PUBCHEM_CONFORMER_DIVERSEORDER>
1
66
98
126
93
90
28
58
41
136
123
81
69
76
79
43
83
22
12
45
138
75
121
60
122
11
85
86
21
37
125
145
99
80
110
87
106
14
116
15
61
102
97
94
144
84
35
141
117
78
50
4
104
105
115
62
63
25
113
19
72
30
142
38
140
109
82
96
70
137
42
146
65
8
5
16
119
127
36
124
74
20
40
118
135
48
27
131
2
134
64
3
100
44
120
46
132
24
67
31
56
17
33
92
112
148
139
34
55
59
111
130
73
128
89
57
52
7
143
23
9
54
10
51
29
133
26
108
53
13
107
88
114
95
101
77
71
103
39
6
32
18
68
49
129
47
147
91

> <PUBCHEM_MMFF94_PARTIAL_CHARGES>
17
1 -0.57
12 0.3
14 0.26
15 0.72
16 -0.09
2 -0.81
20 -0.3
21 0.14
3 -0.73
38 0.37
4 0.31
48 0.15
49 0.15
5 -0.71
6 0.27
7 0.27
8 0.27

> <PUBCHEM_EFFECTIVE_ROTOR_COUNT>
8

> <PUBCHEM_PHARMACOPHORE_FEATURES>
8
1 1 acceptor
1 13 hydrophobe
1 2 cation
1 3 donor
1 5 acceptor
4 14 17 18 19 hydrophobe
5 2 6 7 9 10 rings
5 4 5 16 20 21 rings

> <PUBCHEM_HEAVY_ATOM_COUNT>
21

> <PUBCHEM_ATOM_DEF_STEREO_COUNT>
0

> <PUBCHEM_ATOM_UDEF_STEREO_COUNT>
1

> <PUBCHEM_BOND_DEF_STEREO_COUNT>
0

> <PUBCHEM_BOND_UDEF_STEREO_COUNT>
0

> <PUBCHEM_ISOTOPIC_ATOM_COUNT>
0

> <PUBCHEM_COMPONENT_COUNT>
1

> <PUBCHEM_CACTVS_TAUTO_COUNT>
2

> <PUBCHEM_CONFORMER_ID>
030B961500000001

> <PUBCHEM_MMFF94_ENERGY>
29.9935

> <PUBCHEM_FEATURE_SELFOVERLAP>
40.594

> <PUBCHEM_SHAPE_FINGERPRINT>
10366900 7 17846211193996449394
10912923 1 17822570504604612269
114674 6 18131357405968118410
11796584 16 17703518705479515555
11858739 19 18341900688426031485
11954058 11 18187642539996785518
12107183 9 18119803874652962233
12553582 1 18337685217038747086
12596602 18 17894632573919387554
12616971 3 18113336401830342749
12839892 36 17530966878081394647
12892183 10 17459481107741725304
13167823 11 18409730625700399115
13464513 79 18341330068030635126
13533116 47 18410854330741784137
13583140 156 18194684765732779541
13911852 28 18194124242568139246
13914758 101 18337398244667414853
13955234 65 18337954468259237936
14211702 104 18269830914072822979
14251740 57 18339360764594192786
14251758 9 18342744056947527197
14251764 30 18191298489411435542
14341114 176 18334009510326538466
14366163 111 9655581811480709334
14528608 73 9439403527592947171
14573314 32 17203335524138406285
15142526 21 17467363218559978904
15183329 4 13830133905901649591
15664445 248 15482666871488168004
17349148 13 18113336410072065917
17857418 61 18410856572677899719
1813 80 17917710232080608124
18222031 100 18411425046180777350
20028762 73 18186526492276201255
20388580 30 18060411448403448204
20397935 70 18341894060959424603
20645477 70 17988927743168114452
21065198 48 18261106374498429936
21150785 3 11095876035337778163
21344244 78 18114477699047801416
220451 1 18339632344466965165
22079108 93 5906044876864516397
2215653 11 17918280865561690591
22224240 67 18267595615892403576
22950370 63 18266452291012752526
23559900 14 18130787819783698353
239999 70 17346599630343582624
25122255 55 17632003145094682051
31174 14 18412554193373267076
312423 11 18336254695737944792
3421961 26 18411986862584624856
345986 75 18262527025616116400
34797466 226 15625926630242169150
3680242 22 18040704854027468409
4072396 5 17603864516361887189
465052 167 18409443704810964310
5104073 3 18187916245546144539
6913067 236 15864078684745978365
7970288 3 18196657508948293058
8509985 295 17458065962756171696
960060 61 16558751234675254546

> <PUBCHEM_SHAPE_MULTIPOLES>
406.38
14.08
2.62
1.24
9.86
0.38
0.03
-7.33
-1.41
-4.13
-0.46
0.22
0
-0.33

> <PUBCHEM_SHAPE_SELFOVERLAP>
824.164

> <PUBCHEM_SHAPE_VOLUME>
241.2

> <PUBCHEM_COORDINATE_TYPE>
2
5
10

$$$$

