17395725
  -OEChem-06241222522D

 43 46  0     0  0  0  0  0  0999 V2000
    6.3821   -0.2154    0.0000 O   0  0  0  0  0  0  0  0  0  0  0  0
    2.0520    1.2846    0.0000 O   0  0  0  0  0  0  0  0  0  0  0  0
    5.5161   -1.7154    0.0000 O   0  0  0  0  0  0  0  0  0  0  0  0
    8.9802    2.2846    0.0000 O   0  0  0  0  0  0  0  0  0  0  0  0
    8.9802   -0.7154    0.0000 N   0  0  0  0  0  0  0  0  0  0  0  0
    8.1142    0.7846    0.0000 N   0  0  0  0  0  0  0  0  0  0  0  0
    3.7841   -0.7154    0.0000 C   0  0  0  0  0  0  0  0  0  0  0  0
    2.9180   -0.2154    0.0000 C   0  0  0  0  0  0  0  0  0  0  0  0
    4.6501   -0.2154    0.0000 C   0  0  0  0  0  0  0  0  0  0  0  0
    2.9180    0.7846    0.0000 C   0  0  0  0  0  0  0  0  0  0  0  0
    9.8462   -0.2154    0.0000 C   0  0  0  0  0  0  0  0  0  0  0  0
    4.6501    0.7846    0.0000 C   0  0  0  0  0  0  0  0  0  0  0  0
    3.8001   -1.7569    0.0000 C   0  0  0  0  0  0  0  0  0  0  0  0
    8.1142   -0.2154    0.0000 C   0  0  0  0  0  0  0  0  0  0  0  0
    9.8462    0.7846    0.0000 C   0  0  0  0  0  0  0  0  0  0  0  0
    2.0080   -0.7222    0.0000 C   0  0  0  0  0  0  0  0  0  0  0  0
    3.7841    1.2846    0.0000 C   0  0  0  0  0  0  0  0  0  0  0  0
    7.2482   -0.7154    0.0000 C   0  0  0  0  0  0  0  0  0  0  0  0
    5.5161   -0.7154    0.0000 C   0  0  0  0  0  0  0  0  0  0  0  0
    2.9021   -2.2846    0.0000 C   0  0  0  0  0  0  0  0  0  0  0  0
    2.0000   -1.7638    0.0000 C   0  0  0  0  0  0  0  0  0  0  0  0
   10.7402   -0.7500    0.0000 C   0  0  0  0  0  0  0  0  0  0  0  0
    8.9802    1.2846    0.0000 C   0  0  0  0  0  0  0  0  0  0  0  0
   10.7402    1.3193    0.0000 C   0  0  0  0  0  0  0  0  0  0  0  0
   11.6462   -0.2362    0.0000 C   0  0  0  0  0  0  0  0  0  0  0  0
   11.6462    0.8054    0.0000 C   0  0  0  0  0  0  0  0  0  0  0  0
    2.0520    2.2846    0.0000 C   0  0  0  0  0  0  0  0  0  0  0  0
    5.1870    1.0946    0.0000 H   0  0  0  0  0  0  0  0  0  0  0  0
    4.3406   -2.0606    0.0000 H   0  0  0  0  0  0  0  0  0  0  0  0
    1.4747   -0.4060    0.0000 H   0  0  0  0  0  0  0  0  0  0  0  0
    3.7841    1.9046    0.0000 H   0  0  0  0  0  0  0  0  0  0  0  0
    6.8496   -1.1903    0.0000 H   0  0  0  0  0  0  0  0  0  0  0  0
    7.6467   -1.1903    0.0000 H   0  0  0  0  0  0  0  0  0  0  0  0
    8.9802   -1.3354    0.0000 H   0  0  0  0  0  0  0  0  0  0  0  0
    2.9045   -2.9046    0.0000 H   0  0  0  0  0  0  0  0  0  0  0  0
    1.4619   -2.0717    0.0000 H   0  0  0  0  0  0  0  0  0  0  0  0
   10.7330   -1.3700    0.0000 H   0  0  0  0  0  0  0  0  0  0  0  0
   10.7330    1.9392    0.0000 H   0  0  0  0  0  0  0  0  0  0  0  0
   12.1820   -0.5483    0.0000 H   0  0  0  0  0  0  0  0  0  0  0  0
   12.1820    1.1175    0.0000 H   0  0  0  0  0  0  0  0  0  0  0  0
    2.6720    2.2846    0.0000 H   0  0  0  0  0  0  0  0  0  0  0  0
    2.0520    2.9046    0.0000 H   0  0  0  0  0  0  0  0  0  0  0  0
    1.4320    2.2846    0.0000 H   0  0  0  0  0  0  0  0  0  0  0  0
  1 18  1  0  0  0  0
  1 19  1  0  0  0  0
  2 10  1  0  0  0  0
  2 27  1  0  0  0  0
  3 19  2  0  0  0  0
  4 23  2  0  0  0  0
  5 11  1  0  0  0  0
  5 14  1  0  0  0  0
  5 34  1  0  0  0  0
  6 14  2  0  0  0  0
  6 23  1  0  0  0  0
  7  8  1  0  0  0  0
  7  9  1  0  0  0  0
  7 13  2  0  0  0  0
  8 10  1  0  0  0  0
  8 16  2  0  0  0  0
  9 12  2  0  0  0  0
  9 19  1  0  0  0  0
 10 17  2  0  0  0  0
 11 15  1  0  0  0  0
 11 22  2  0  0  0  0
 12 17  1  0  0  0  0
 12 28  1  0  0  0  0
 13 20  1  0  0  0  0
 13 29  1  0  0  0  0
 14 18  1  0  0  0  0
 15 23  1  0  0  0  0
 15 24  2  0  0  0  0
 16 21  1  0  0  0  0
 16 30  1  0  0  0  0
 17 31  1  0  0  0  0
 18 32  1  0  0  0  0
 18 33  1  0  0  0  0
 20 21  2  0  0  0  0
 20 35  1  0  0  0  0
 21 36  1  0  0  0  0
 22 25  1  0  0  0  0
 22 37  1  0  0  0  0
 24 26  1  0  0  0  0
 24 38  1  0  0  0  0
 25 26  2  0  0  0  0
 25 39  1  0  0  0  0
 26 40  1  0  0  0  0
 27 41  1  0  0  0  0
 27 42  1  0  0  0  0
 27 43  1  0  0  0  0
M  END
> <PUBCHEM_COMPOUND_CID>
17395725

> <PUBCHEM_COMPOUND_CANONICALIZED>
1

> <PUBCHEM_CACTVS_COMPLEXITY>
605

> <PUBCHEM_CACTVS_HBOND_ACCEPTOR>
4

> <PUBCHEM_CACTVS_HBOND_DONOR>
1

> <PUBCHEM_CACTVS_ROTATABLE_BOND>
5

> <PUBCHEM_CACTVS_SUBSKEYS>
AAADceB7OAAAAAAAAAAAAAAAAAAAAAAAAAAwYMEAAAAAAADBVAAAHgAQAAAADAyhmAIzzsLABACoAifyfASCCAElIgAJiAEWbMgOJjrE/ZuHMahk0BHY6ceY7PzOoAADAAAaAABAAAYAADQAAAAAAAAAAA==

> <PUBCHEM_IUPAC_OPENEYE_NAME>
(4-oxo-1H-quinazolin-2-yl)methyl 4-methoxynaphthalene-1-carboxylate

> <PUBCHEM_IUPAC_CAS_NAME>
4-methoxy-1-naphthalenecarboxylic acid (4-oxo-1H-quinazolin-2-yl)methyl ester

> <PUBCHEM_IUPAC_NAME>
(4-oxo-1H-quinazolin-2-yl)methyl 4-methoxynaphthalene-1-carboxylate

> <PUBCHEM_IUPAC_SYSTEMATIC_NAME>
(4-oxidanylidene-1H-quinazolin-2-yl)methyl 4-methoxynaphthalene-1-carboxylate

> <PUBCHEM_IUPAC_TRADITIONAL_NAME>
4-methoxynaphthalene-1-carboxylic acid (4-keto-1H-quinazolin-2-yl)methyl ester

> <PUBCHEM_IUPAC_INCHI>
InChI=1S/C21H16N2O4/c1-26-18-11-10-15(13-6-2-3-7-14(13)18)21(25)27-12-19-22-17-9-5-4-8-16(17)20(24)23-19/h2-11H,12H2,1H3,(H,22,23,24)

> <PUBCHEM_IUPAC_INCHIKEY>
RKUXZZAMGYUCSN-UHFFFAOYSA-N

> <PUBCHEM_XLOGP3_AA>
3.5

> <PUBCHEM_EXACT_MASS>
360.111007

> <PUBCHEM_MOLECULAR_FORMULA>
C21H16N2O4

> <PUBCHEM_MOLECULAR_WEIGHT>
360.36274

> <PUBCHEM_OPENEYE_CAN_SMILES>
COC1=CC=C(C2=CC=CC=C21)C(=O)OCC3=NC(=O)C4=CC=CC=C4N3

> <PUBCHEM_OPENEYE_ISO_SMILES>
COC1=CC=C(C2=CC=CC=C21)C(=O)OCC3=NC(=O)C4=CC=CC=C4N3

> <PUBCHEM_CACTVS_TPSA>
77

> <PUBCHEM_MONOISOTOPIC_WEIGHT>
360.111007

> <PUBCHEM_TOTAL_CHARGE>
0

> <PUBCHEM_HEAVY_ATOM_COUNT>
27

> <PUBCHEM_ATOM_DEF_STEREO_COUNT>
0

> <PUBCHEM_ATOM_UDEF_STEREO_COUNT>
0

> <PUBCHEM_BOND_DEF_STEREO_COUNT>
0

> <PUBCHEM_BOND_UDEF_STEREO_COUNT>
0

> <PUBCHEM_ISOTOPIC_ATOM_COUNT>
0

> <PUBCHEM_COMPONENT_COUNT>
1

> <PUBCHEM_CACTVS_TAUTO_COUNT>
10

> <PUBCHEM_COORDINATE_TYPE>
1
5
255

> <PUBCHEM_BONDANNOTATIONS>
10  17  8
11  15  8
11  22  8
12  17  8
13  20  8
15  23  8
15  24  8
16  21  8
20  21  8
22  25  8
24  26  8
25  26  8
5  11  8
5  14  8
6  14  8
6  23  8
7  13  8
7  8  8
7  9  8
8  10  8
8  16  8
9  12  8

$$$$

