108010
  -OEChem-07051212552D

 27 26  0     1  0  0  0  0  0999 V2000
    6.8671    1.8100    0.0000 O   0  0  0  0  0  0  0  0  0  0  0  0
    6.0010    3.3100    0.0000 O   0  0  0  0  0  0  0  0  0  0  0  0
    4.2690    2.3100    0.0000 N   0  0  0  0  0  0  0  0  0  0  0  0
    2.5369   -2.6900    0.0000 N   0  0  0  0  0  0  0  0  0  0  0  0
    4.2690   -2.6900    0.0000 N   0  0  0  0  0  0  0  0  0  0  0  0
    4.2690    0.3100    0.0000 C   0  0  0  0  0  0  0  0  0  0  0  0
    5.1350    0.8100    0.0000 C   0  0  0  0  0  0  0  0  0  0  0  0
    4.2690   -0.6900    0.0000 C   0  0  0  0  0  0  0  0  0  0  0  0
    5.1350    1.8100    0.0000 C   0  0  1  0  0  0  0  0  0  0  0  0
    3.4030   -1.1900    0.0000 C   0  0  0  0  0  0  0  0  0  0  0  0
    6.0010    2.3100    0.0000 C   0  0  0  0  0  0  0  0  0  0  0  0
    3.4030   -2.1900    0.0000 C   0  0  0  0  0  0  0  0  0  0  0  0
    4.0569    0.8926    0.0000 H   0  0  0  0  0  0  0  0  0  0  0  0
    3.6584    0.2023    0.0000 H   0  0  0  0  0  0  0  0  0  0  0  0
    5.3471    0.2274    0.0000 H   0  0  0  0  0  0  0  0  0  0  0  0
    5.7456    0.9177    0.0000 H   0  0  0  0  0  0  0  0  0  0  0  0
    4.4810   -1.2726    0.0000 H   0  0  0  0  0  0  0  0  0  0  0  0
    4.8796   -0.5823    0.0000 H   0  0  0  0  0  0  0  0  0  0  0  0
    5.1350    2.4300    0.0000 H   0  0  0  0  0  0  0  0  0  0  0  0
    3.1909   -0.6074    0.0000 H   0  0  0  0  0  0  0  0  0  0  0  0
    2.7924   -1.2977    0.0000 H   0  0  0  0  0  0  0  0  0  0  0  0
    3.7320    2.0000    0.0000 H   0  0  0  0  0  0  0  0  0  0  0  0
    4.2690    2.9300    0.0000 H   0  0  0  0  0  0  0  0  0  0  0  0
    2.5369   -3.3100    0.0000 H   0  0  0  0  0  0  0  0  0  0  0  0
    2.0000   -2.3800    0.0000 H   0  0  0  0  0  0  0  0  0  0  0  0
    7.4040    2.1200    0.0000 H   0  0  0  0  0  0  0  0  0  0  0  0
    4.2690   -3.3100    0.0000 H   0  0  0  0  0  0  0  0  0  0  0  0
  1 11  1  0  0  0  0
  1 26  1  0  0  0  0
  2 11  2  0  0  0  0
  9  3  1  6  0  0  0
  3 22  1  0  0  0  0
  3 23  1  0  0  0  0
  4 12  1  0  0  0  0
  4 24  1  0  0  0  0
  4 25  1  0  0  0  0
  5 12  2  0  0  0  0
  5 27  1  0  0  0  0
  6  7  1  0  0  0  0
  6  8  1  0  0  0  0
  6 13  1  0  0  0  0
  6 14  1  0  0  0  0
  7  9  1  0  0  0  0
  7 15  1  0  0  0  0
  7 16  1  0  0  0  0
  8 10  1  0  0  0  0
  8 17  1  0  0  0  0
  8 18  1  0  0  0  0
  9 11  1  0  0  0  0
  9 19  1  0  0  0  0
 10 12  1  0  0  0  0
 10 20  1  0  0  0  0
 10 21  1  0  0  0  0
M  END
> <PUBCHEM_COMPOUND_CID>
108010

> <PUBCHEM_COMPOUND_CANONICALIZED>
1

> <PUBCHEM_CACTVS_COMPLEXITY>
170

> <PUBCHEM_CACTVS_HBOND_ACCEPTOR>
4

> <PUBCHEM_CACTVS_HBOND_DONOR>
4

> <PUBCHEM_CACTVS_ROTATABLE_BOND>
6

> <PUBCHEM_CACTVS_SUBSKEYS>
AAADccBjMAAAAAAAAAAAAAAAAAAAAAAAAAAAAAAAAAAAAAAAAAAAHgAQCAAACCjBgAQBCABAAgAoAAKwKAAAAACAAAAAAIGwAAACABIAgAAAQAAEEAAAAAGYyCCAAAAAAAAAAAAAAAAAAAAAAAAAAAAAAA==

> <PUBCHEM_IUPAC_OPENEYE_NAME>
(2S)-2,7-diamino-7-imino-heptanoic acid

> <PUBCHEM_IUPAC_CAS_NAME>
(2S)-2,7-diamino-7-iminoheptanoic acid

> <PUBCHEM_IUPAC_NAME>
(2S)-2,7-diamino-7-iminoheptanoic acid

> <PUBCHEM_IUPAC_SYSTEMATIC_NAME>
(2S)-2,7-bis(azanyl)-7-azanylidene-heptanoic acid

> <PUBCHEM_IUPAC_TRADITIONAL_NAME>
(2S)-2,7-diamino-7-imino-enanthic acid

> <PUBCHEM_IUPAC_INCHI>
InChI=1S/C7H15N3O2/c8-5(7(11)12)3-1-2-4-6(9)10/h5H,1-4,8H2,(H3,9,10)(H,11,12)/t5-/m0/s1

> <PUBCHEM_IUPAC_INCHIKEY>
SILQDLDAWPQMEL-YFKPBYRVSA-N

> <PUBCHEM_XLOGP3>
-3.2

> <PUBCHEM_EXACT_MASS>
173.116427

> <PUBCHEM_MOLECULAR_FORMULA>
C7H15N3O2

> <PUBCHEM_MOLECULAR_WEIGHT>
173.2129

> <PUBCHEM_OPENEYE_CAN_SMILES>
C(CCC(=N)N)CC(C(=O)O)N

> <PUBCHEM_OPENEYE_ISO_SMILES>
C(CCC(=N)N)C[C@@H](C(=O)O)N

> <PUBCHEM_CACTVS_TPSA>
113

> <PUBCHEM_MONOISOTOPIC_WEIGHT>
173.116427

> <PUBCHEM_TOTAL_CHARGE>
0

> <PUBCHEM_HEAVY_ATOM_COUNT>
12

> <PUBCHEM_ATOM_DEF_STEREO_COUNT>
1

> <PUBCHEM_ATOM_UDEF_STEREO_COUNT>
0

> <PUBCHEM_BOND_DEF_STEREO_COUNT>
0

> <PUBCHEM_BOND_UDEF_STEREO_COUNT>
0

> <PUBCHEM_ISOTOPIC_ATOM_COUNT>
0

> <PUBCHEM_COMPONENT_COUNT>
1

> <PUBCHEM_CACTVS_TAUTO_COUNT>
2

> <PUBCHEM_COORDINATE_TYPE>
1
5
255

> <PUBCHEM_BONDANNOTATIONS>
9  3  6

$$$$

