7847061
  -OEChem-06241222483D

 49 51  0     0  0  0  0  0  0999 V2000
    0.2411   -2.1315   -0.5123 O   0  0  0  0  0  0  0  0  0  0  0  0
   -2.5105   -1.8909   -0.8783 O   0  0  0  0  0  0  0  0  0  0  0  0
    0.9117   -2.2471    1.6868 O   0  0  0  0  0  0  0  0  0  0  0  0
    3.4547    1.5754   -0.3952 N   0  0  0  0  0  0  0  0  0  0  0  0
    3.0886   -0.8044   -0.2177 C   0  0  0  0  0  0  0  0  0  0  0  0
    1.8020   -0.5694    0.2454 C   0  0  0  0  0  0  0  0  0  0  0  0
    1.3340    0.7435    0.3909 C   0  0  0  0  0  0  0  0  0  0  0  0
    3.8678    0.2935   -0.5214 C   0  0  0  0  0  0  0  0  0  0  0  0
    2.2057    1.8004    0.0544 C   0  0  0  0  0  0  0  0  0  0  0  0
    5.2630    0.1144   -1.0248 C   0  0  0  0  0  0  0  0  0  0  0  0
    3.6176   -2.1899   -0.3843 C   0  0  0  0  0  0  0  0  0  0  0  0
    0.0365    1.0149    0.8572 C   0  0  0  0  0  0  0  0  0  0  0  0
    0.9609   -1.7206    0.5725 C   0  0  0  0  0  0  0  0  0  0  0  0
    1.7402    3.1044    0.1991 C   0  0  0  0  0  0  0  0  0  0  0  0
    6.2848    0.0703    0.1071 C   0  0  0  0  0  0  0  0  0  0  0  0
   -0.4029    2.3287    0.9922 C   0  0  0  0  0  0  0  0  0  0  0  0
    0.4502    3.3745    0.6626 C   0  0  0  0  0  0  0  0  0  0  0  0
   -0.6247   -3.2548   -0.3172 C   0  0  0  0  0  0  0  0  0  0  0  0
   -1.9888   -2.7579    0.1215 C   0  0  0  0  0  0  0  0  0  0  0  0
   -3.3637   -0.9054   -0.4564 C   0  0  0  0  0  0  0  0  0  0  0  0
   -4.2938    1.2998   -0.7227 C   0  0  0  0  0  0  0  0  0  0  0  0
   -3.4250    0.2967   -1.1523 C   0  0  0  0  0  0  0  0  0  0  0  0
   -4.1599   -1.1174    0.6634 C   0  0  0  0  0  0  0  0  0  0  0  0
   -5.0956    1.0945    0.4000 C   0  0  0  0  0  0  0  0  0  0  0  0
   -5.0287   -0.1143    1.0930 C   0  0  0  0  0  0  0  0  0  0  0  0
   -4.3652    2.5922   -1.4633 C   0  0  0  0  0  0  0  0  0  0  0  0
    5.5105    0.9614   -1.6784 H   0  0  0  0  0  0  0  0  0  0  0  0
    5.3597   -0.7713   -1.6618 H   0  0  0  0  0  0  0  0  0  0  0  0
    4.6098   -2.2991    0.0625 H   0  0  0  0  0  0  0  0  0  0  0  0
    3.0046   -2.9572    0.0963 H   0  0  0  0  0  0  0  0  0  0  0  0
    3.6742   -2.4436   -1.4483 H   0  0  0  0  0  0  0  0  0  0  0  0
   -0.6539    0.2195    1.1255 H   0  0  0  0  0  0  0  0  0  0  0  0
    2.3891    3.9414   -0.0525 H   0  0  0  0  0  0  0  0  0  0  0  0
    6.2632    0.9977    0.6900 H   0  0  0  0  0  0  0  0  0  0  0  0
    7.2936   -0.0476   -0.3012 H   0  0  0  0  0  0  0  0  0  0  0  0
    6.0995   -0.7582    0.7971 H   0  0  0  0  0  0  0  0  0  0  0  0
   -1.4066    2.5344    1.3519 H   0  0  0  0  0  0  0  0  0  0  0  0
    0.1154    4.4027    0.7644 H   0  0  0  0  0  0  0  0  0  0  0  0
   -0.2043   -3.9734    0.3949 H   0  0  0  0  0  0  0  0  0  0  0  0
   -0.7024   -3.7566   -1.2875 H   0  0  0  0  0  0  0  0  0  0  0  0
   -1.8651   -2.2341    1.0777 H   0  0  0  0  0  0  0  0  0  0  0  0
   -2.6661   -3.6089    0.2523 H   0  0  0  0  0  0  0  0  0  0  0  0
   -2.7944    0.4503   -2.0243 H   0  0  0  0  0  0  0  0  0  0  0  0
   -4.1593   -2.0531    1.2138 H   0  0  0  0  0  0  0  0  0  0  0  0
   -5.7760    1.8684    0.7452 H   0  0  0  0  0  0  0  0  0  0  0  0
   -5.6577   -0.2761    1.9635 H   0  0  0  0  0  0  0  0  0  0  0  0
   -3.6145    3.2883   -1.0759 H   0  0  0  0  0  0  0  0  0  0  0  0
   -5.3540    3.0526   -1.3640 H   0  0  0  0  0  0  0  0  0  0  0  0
   -4.1873    2.4428   -2.5338 H   0  0  0  0  0  0  0  0  0  0  0  0
  1 13  1  0  0  0  0
  1 18  1  0  0  0  0
  2 19  1  0  0  0  0
  2 20  1  0  0  0  0
  3 13  2  0  0  0  0
  4  8  2  0  0  0  0
  4  9  1  0  0  0  0
  5  6  2  0  0  0  0
  5  8  1  0  0  0  0
  5 11  1  0  0  0  0
  6  7  1  0  0  0  0
  6 13  1  0  0  0  0
  7  9  1  0  0  0  0
  7 12  2  0  0  0  0
  8 10  1  0  0  0  0
  9 14  2  0  0  0  0
 10 15  1  0  0  0  0
 10 27  1  0  0  0  0
 10 28  1  0  0  0  0
 11 29  1  0  0  0  0
 11 30  1  0  0  0  0
 11 31  1  0  0  0  0
 12 16  1  0  0  0  0
 12 32  1  0  0  0  0
 14 17  1  0  0  0  0
 14 33  1  0  0  0  0
 15 34  1  0  0  0  0
 15 35  1  0  0  0  0
 15 36  1  0  0  0  0
 16 17  2  0  0  0  0
 16 37  1  0  0  0  0
 17 38  1  0  0  0  0
 18 19  1  0  0  0  0
 18 39  1  0  0  0  0
 18 40  1  0  0  0  0
 19 41  1  0  0  0  0
 19 42  1  0  0  0  0
 20 22  1  0  0  0  0
 20 23  2  0  0  0  0
 21 22  2  0  0  0  0
 21 24  1  0  0  0  0
 21 26  1  0  0  0  0
 22 43  1  0  0  0  0
 23 25  1  0  0  0  0
 23 44  1  0  0  0  0
 24 25  2  0  0  0  0
 24 45  1  0  0  0  0
 25 46  1  0  0  0  0
 26 47  1  0  0  0  0
 26 48  1  0  0  0  0
 26 49  1  0  0  0  0
M  END
> <PUBCHEM_COMPOUND_CID>
7847061

> <PUBCHEM_CONFORMER_RMSD>
1

> <PUBCHEM_CONFORMER_DIVERSEORDER>
1
8
458
46
488
27
98
451
164
10
40
286
497
481
108
333
290
495
75
117
504
376
244
412
336
346
250
293
7
430
474
60
4
33
12
112
94
202
57
201
454
225
140
332
186
122
353
61
120
256
2
538
150
482
384
52
531
371
3
13
34
370
448
20
514
325
11
489
205
5
93
478
85
66
304
139
17
434
36
216
6
29
156
63
263
26
467
102
101
79
348
308
183
14
28
103
426
317
178
181
48
23
22
393
490
379
339
37
295
15
67
9
507
309
480
131
173
356
96
126
389
105
212
73
283
77
31
133
167
298
195
437

> <PUBCHEM_MMFF94_PARTIAL_CHARGES>
32
1 -0.43
10 0.14
11 0.14
12 -0.15
13 0.63
14 -0.15
16 -0.15
17 -0.15
18 0.28
19 0.28
2 -0.36
20 0.08
21 -0.14
22 -0.15
23 -0.15
24 -0.15
25 -0.15
26 0.14
3 -0.57
32 0.15
33 0.15
37 0.15
38 0.15
4 -0.62
43 0.15
44 0.15
45 0.15
46 0.15
5 -0.14
6 0.09
8 0.17
9 0.31

> <PUBCHEM_EFFECTIVE_ROTOR_COUNT>
7

> <PUBCHEM_PHARMACOPHORE_FEATURES>
7
1 15 hydrophobe
1 2 acceptor
1 3 acceptor
1 4 acceptor
6 20 21 22 23 24 25 rings
6 4 5 6 7 8 9 rings
6 7 9 12 14 16 17 rings

> <PUBCHEM_HEAVY_ATOM_COUNT>
26

> <PUBCHEM_ATOM_DEF_STEREO_COUNT>
0

> <PUBCHEM_ATOM_UDEF_STEREO_COUNT>
0

> <PUBCHEM_BOND_DEF_STEREO_COUNT>
0

> <PUBCHEM_BOND_UDEF_STEREO_COUNT>
0

> <PUBCHEM_ISOTOPIC_ATOM_COUNT>
0

> <PUBCHEM_COMPONENT_COUNT>
1

> <PUBCHEM_CACTVS_TAUTO_COUNT>
2

> <PUBCHEM_CONFORMER_ID>
0077BC9500000001

> <PUBCHEM_MMFF94_ENERGY>
84.6269

> <PUBCHEM_FEATURE_SELFOVERLAP>
35.552

> <PUBCHEM_SHAPE_FINGERPRINT>
10366900 7 18060423469996044411
10675989 125 17116646986637247037
10759866 29 18059015119389932770
10906281 52 18265600010708684008
1100329 8 18337106766099818664
11578080 2 14475524043252043444
12422481 6 18195277505864177416
12553582 1 18334866051565368129
12788726 201 18114742767048701368
12838862 33 18335999643795626145
13402501 40 18412541025066489993
13944108 23 17620767510532704101
14251757 17 18409445851893360738
14251757 5 18411132519889054855
14466204 15 18340215106994078138
14617045 38 18341610451959201597
14713325 29 16977015065776074248
14765038 42 18115570630537675257
14790565 3 18336818792468830632
14931854 50 18337399339293303645
15081414 286 18261382386556054910
1601671 61 18408887334778874318
16087824 20 18336819909371486649
18608769 82 18270115700563881147
19311894 1 18261108543741627479
20465049 17 18410572860471529771
20775438 99 16235945371301410119
21279426 13 18338513153215013478
221357 26 18264491693876004335
22393880 68 18410583868145804789
23559900 14 18188209793797749888
238 59 17979116835589524541
350125 39 18337951178535678935
3524813 1 18343587317730181063
3680242 22 18341333374786123538
5081480 168 17317014134582323951
508706 21 18340498750939504223
5283173 99 18340208462943512420
6287921 2 17841430337198667205
7226269 152 18408887326320665800
7399639 24 16890331759258978306

> <PUBCHEM_SHAPE_MULTIPOLES>
512.48
11.31
3.87
1.14
0.29
0.23
0
1.66
-2.13
-0.61
0.2
-0.69
0.13
0.7

> <PUBCHEM_SHAPE_SELFOVERLAP>
1107.235

> <PUBCHEM_SHAPE_VOLUME>
283.1

> <PUBCHEM_COORDINATE_TYPE>
2
5
10

$$$$

