56928168
  -OEChem-07051213153D

 68 69  0     1  0  0  0  0  0999 V2000
    5.4214   -1.2342    0.5543 Cl  0  0  0  0  0  0  0  0  0  0  0  0
   -3.3590   -1.8526   -0.8579 O   0  0  0  0  0  0  0  0  0  0  0  0
    1.2560   -5.2503    0.4029 O   0  0  0  0  0  0  0  0  0  0  0  0
   -5.3661    2.9382   -0.4712 O   0  0  0  0  0  0  0  0  0  0  0  0
   -5.4251    0.3234   -1.1197 O   0  0  0  0  0  0  0  0  0  0  0  0
    0.7597   -1.3176   -1.9099 O   0  0  0  0  0  0  0  0  0  0  0  0
    5.9630    1.6294    1.0719 O   0  0  0  0  0  0  0  0  0  0  0  0
    2.7664   -1.4993   -0.6954 N   0  0  0  0  0  0  0  0  0  0  0  0
   -2.3689   -2.0611    1.3670 C   0  0  2  0  0  0  0  0  0  0  0  0
   -2.9807   -1.1145    0.3035 C   0  0  2  0  0  0  0  0  0  0  0  0
   -4.2300   -0.3983    0.8283 C   0  0  0  0  0  0  0  0  0  0  0  0
   -0.9781   -2.5312    0.9779 C   0  0  0  0  0  0  0  0  0  0  0  0
   -0.5490   -3.6339    0.3282 C   0  0  0  0  0  0  0  0  0  0  0  0
   -3.3177   -3.1753    1.8269 C   0  0  0  0  0  0  0  0  0  0  0  0
    0.9507   -3.8718    0.1801 C   0  0  2  0  0  0  0  0  0  0  0  0
   -4.7466    0.6519   -0.1442 C   0  0  0  0  0  0  0  0  0  0  0  0
    1.4901   -3.4779   -1.2005 C   0  0  0  0  0  0  0  0  0  0  0  0
   -4.3764    2.1066    0.1165 C   0  0  1  0  0  0  0  0  0  0  0  0
   -1.4388   -4.6799   -0.2850 C   0  0  0  0  0  0  0  0  0  0  0  0
    1.6212   -1.9703   -1.3277 C   0  0  0  0  0  0  0  0  0  0  0  0
   -3.0477    2.3859   -0.5132 C   0  0  0  0  0  0  0  0  0  0  0  0
    1.7512    3.4075   -0.6842 C   0  0  0  0  0  0  0  0  0  0  0  0
    2.6867    2.2494   -0.4162 C   0  0  0  0  0  0  0  0  0  0  0  0
    3.1216   -0.1516   -0.4544 C   0  0  0  0  0  0  0  0  0  0  0  0
    0.4784    3.3340    0.1434 C   0  0  0  0  0  0  0  0  0  0  0  0
    2.2989    0.9389   -0.7514 C   0  0  0  0  0  0  0  0  0  0  0  0
   -1.9632    2.7690    0.1784 C   0  0  0  0  0  0  0  0  0  0  0  0
   -0.6775    2.9755   -0.4504 C   0  0  0  0  0  0  0  0  0  0  0  0
    3.9285    2.4617    0.1915 C   0  0  0  0  0  0  0  0  0  0  0  0
    4.3583    0.0835    0.1608 C   0  0  0  0  0  0  0  0  0  0  0  0
    4.7621    1.3821    0.4743 C   0  0  0  0  0  0  0  0  0  0  0  0
    0.6440    3.6742    1.6010 C   0  0  0  0  0  0  0  0  0  0  0  0
   -6.5119    3.0565    0.3620 C   0  0  0  0  0  0  0  0  0  0  0  0
    7.0785    1.8524    0.2127 C   0  0  0  0  0  0  0  0  0  0  0  0
   -2.1983   -1.4502    2.2668 H   0  0  0  0  0  0  0  0  0  0  0  0
   -2.2265   -0.3824   -0.0071 H   0  0  0  0  0  0  0  0  0  0  0  0
   -5.0556   -1.1037    0.9819 H   0  0  0  0  0  0  0  0  0  0  0  0
   -4.0310    0.0818    1.7923 H   0  0  0  0  0  0  0  0  0  0  0  0
   -0.2053   -1.8430    1.3263 H   0  0  0  0  0  0  0  0  0  0  0  0
   -3.7943   -3.6973    0.9934 H   0  0  0  0  0  0  0  0  0  0  0  0
   -4.1229   -2.7587    2.4424 H   0  0  0  0  0  0  0  0  0  0  0  0
   -2.7948   -3.9137    2.4446 H   0  0  0  0  0  0  0  0  0  0  0  0
    1.4867   -3.3189    0.9618 H   0  0  0  0  0  0  0  0  0  0  0  0
    0.8489   -3.8471   -2.0094 H   0  0  0  0  0  0  0  0  0  0  0  0
    2.4727   -3.9349   -1.3744 H   0  0  0  0  0  0  0  0  0  0  0  0
   -4.3412    2.2819    1.1989 H   0  0  0  0  0  0  0  0  0  0  0  0
   -1.0084   -5.0625   -1.2163 H   0  0  0  0  0  0  0  0  0  0  0  0
   -2.4217   -4.2904   -0.5528 H   0  0  0  0  0  0  0  0  0  0  0  0
   -1.5651   -5.5224    0.4019 H   0  0  0  0  0  0  0  0  0  0  0  0
   -3.6133   -1.2156   -1.5466 H   0  0  0  0  0  0  0  0  0  0  0  0
   -2.9798    2.2481   -1.5910 H   0  0  0  0  0  0  0  0  0  0  0  0
    2.2239   -5.3436    0.3889 H   0  0  0  0  0  0  0  0  0  0  0  0
    2.2533    4.3634   -0.4866 H   0  0  0  0  0  0  0  0  0  0  0  0
    1.5277    3.4197   -1.7595 H   0  0  0  0  0  0  0  0  0  0  0  0
    3.4294   -2.1901   -0.3505 H   0  0  0  0  0  0  0  0  0  0  0  0
    1.3294    0.8027   -1.2172 H   0  0  0  0  0  0  0  0  0  0  0  0
   -2.0438    2.8952    1.2525 H   0  0  0  0  0  0  0  0  0  0  0  0
   -0.6545    2.7682   -1.5202 H   0  0  0  0  0  0  0  0  0  0  0  0
    4.2421    3.4688    0.4556 H   0  0  0  0  0  0  0  0  0  0  0  0
    1.1598    4.6349    1.7057 H   0  0  0  0  0  0  0  0  0  0  0  0
   -0.3029    3.7674    2.1372 H   0  0  0  0  0  0  0  0  0  0  0  0
    1.2390    2.9072    2.1070 H   0  0  0  0  0  0  0  0  0  0  0  0
   -7.2448    3.6824   -0.1547 H   0  0  0  0  0  0  0  0  0  0  0  0
   -6.2509    3.5434    1.3068 H   0  0  0  0  0  0  0  0  0  0  0  0
   -6.9675    2.0805    0.5538 H   0  0  0  0  0  0  0  0  0  0  0  0
    7.9760    1.9357    0.8317 H   0  0  0  0  0  0  0  0  0  0  0  0
    6.9481    2.7882   -0.3401 H   0  0  0  0  0  0  0  0  0  0  0  0
    7.2131    1.0223   -0.4876 H   0  0  0  0  0  0  0  0  0  0  0  0
  1 30  1  0  0  0  0
  2 10  1  0  0  0  0
  2 50  1  0  0  0  0
  3 15  1  0  0  0  0
  3 52  1  0  0  0  0
  4 18  1  0  0  0  0
  4 33  1  0  0  0  0
  5 16  2  0  0  0  0
  6 20  2  0  0  0  0
  7 31  1  0  0  0  0
  7 34  1  0  0  0  0
  8 20  1  0  0  0  0
  8 24  1  0  0  0  0
  8 55  1  0  0  0  0
  9 10  1  0  0  0  0
  9 12  1  0  0  0  0
  9 14  1  0  0  0  0
  9 35  1  0  0  0  0
 10 11  1  0  0  0  0
 10 36  1  0  0  0  0
 11 16  1  0  0  0  0
 11 37  1  0  0  0  0
 11 38  1  0  0  0  0
 12 13  2  0  0  0  0
 12 39  1  0  0  0  0
 13 15  1  0  0  0  0
 13 19  1  0  0  0  0
 14 40  1  0  0  0  0
 14 41  1  0  0  0  0
 14 42  1  0  0  0  0
 15 17  1  0  0  0  0
 15 43  1  0  0  0  0
 16 18  1  0  0  0  0
 17 20  1  0  0  0  0
 17 44  1  0  0  0  0
 17 45  1  0  0  0  0
 18 21  1  0  0  0  0
 18 46  1  0  0  0  0
 19 47  1  0  0  0  0
 19 48  1  0  0  0  0
 19 49  1  0  0  0  0
 21 27  2  0  0  0  0
 21 51  1  0  0  0  0
 22 23  1  0  0  0  0
 22 25  1  0  0  0  0
 22 53  1  0  0  0  0
 22 54  1  0  0  0  0
 23 26  2  0  0  0  0
 23 29  1  0  0  0  0
 24 26  1  0  0  0  0
 24 30  2  0  0  0  0
 25 28  2  0  0  0  0
 25 32  1  0  0  0  0
 26 56  1  0  0  0  0
 27 28  1  0  0  0  0
 27 57  1  0  0  0  0
 28 58  1  0  0  0  0
 29 31  2  0  0  0  0
 29 59  1  0  0  0  0
 30 31  1  0  0  0  0
 32 60  1  0  0  0  0
 32 61  1  0  0  0  0
 32 62  1  0  0  0  0
 33 63  1  0  0  0  0
 33 64  1  0  0  0  0
 33 65  1  0  0  0  0
 34 66  1  0  0  0  0
 34 67  1  0  0  0  0
 34 68  1  0  0  0  0
M  END
> <PUBCHEM_COMPOUND_CID>
56928168

> <PUBCHEM_CONFORMER_RMSD>
0.8

> <PUBCHEM_CONFORMER_DIVERSEORDER>
1
4
3
2

> <PUBCHEM_MMFF94_PARTIAL_CHARGES>
42
1 -0.18
10 0.28
11 0.06
12 -0.29
13 -0.28
15 0.42
16 0.45
17 0.06
18 0.48
19 0.14
2 -0.68
20 0.57
21 -0.29
22 0.28
23 -0.14
24 0.12
25 -0.28
26 -0.15
27 -0.15
28 -0.15
29 -0.15
3 -0.68
30 0.18
31 0.08
32 0.14
33 0.28
34 0.28
39 0.15
4 -0.56
5 -0.57
50 0.4
51 0.15
52 0.4
55 0.37
56 0.15
57 0.15
58 0.15
59 0.15
6 -0.57
7 -0.36
8 -0.55
9 0.14

> <PUBCHEM_EFFECTIVE_ROTOR_COUNT>
3.6

> <PUBCHEM_PHARMACOPHORE_FEATURES>
10
1 2 acceptor
1 2 donor
1 3 acceptor
1 3 donor
1 4 acceptor
1 5 acceptor
1 6 acceptor
1 7 acceptor
1 8 donor
6 23 24 26 29 30 31 rings

> <PUBCHEM_HEAVY_ATOM_COUNT>
34

> <PUBCHEM_ATOM_DEF_STEREO_COUNT>
4

> <PUBCHEM_ATOM_UDEF_STEREO_COUNT>
0

> <PUBCHEM_BOND_DEF_STEREO_COUNT>
3

> <PUBCHEM_BOND_UDEF_STEREO_COUNT>
0

> <PUBCHEM_ISOTOPIC_ATOM_COUNT>
0

> <PUBCHEM_COMPONENT_COUNT>
1

> <PUBCHEM_CACTVS_TAUTO_COUNT>
21

> <PUBCHEM_CONFORMER_ID>
0364A7A800000001

> <PUBCHEM_MMFF94_ENERGY>
90.0451

> <PUBCHEM_FEATURE_SELFOVERLAP>
50.752

> <PUBCHEM_SHAPE_FINGERPRINT>
10439779 11 18338246968126294912
10675989 125 17907580577367062777
12107183 9 18342188773748600210
13122387 1 17691117553962869813
13402501 40 18410292501743477217
14466204 15 18410295778892870098
14725015 67 18122064200435503179
15320467 1 18195245507761469041
15351339 4 17981047737001583121
15400415 2 18411136922490256245
15475509 84 17835805201403330662
16719943 64 18340208500980714992
16993438 75 18269272357210685787
17093844 170 18338795718891760360
19246450 95 18339376188713375010
20028762 73 18189904282743870902
20764821 26 18411691071959625309
21133410 38 17970055854802314825
21133410 90 17025151822273377769
238918 7 18261949661699669190
3383291 50 18338801100944640467
354706 109 18191894260792789689
373842 8 18341337794312927746
3882209 13 16964952336539819882
4403749 210 18265063440197267504
50150288 127 16445856790802268185
508706 21 18192141603716717574
5265222 85 18269823251313194477
6036956 94 17910110205809521573
6371009 1 18267031565730833663
6669772 16 18339926038794749821
9981440 41 18413386523512164907

> <PUBCHEM_SHAPE_MULTIPOLES>
661.38
12.98
7.23
1.26
2.25
5.24
-0.07
-10.6
-1.77
-2.59
-0.57
-0.21
0.48
1.56

> <PUBCHEM_SHAPE_SELFOVERLAP>
1346.796

> <PUBCHEM_SHAPE_VOLUME>
381.8

> <PUBCHEM_COORDINATE_TYPE>
2
5
10

$$$$

