11695
  -OEChem-06261206003D

 40 41  0     1  0  0  0  0  0999 V2000
    0.5012    2.4863    0.5377 O   0  0  0  0  0  0  0  0  0  0  0  0
   -1.3229    0.2487    0.4087 N   0  0  0  0  0  0  0  0  0  0  0  0
    2.0940   -1.1796   -0.0811 N   0  0  2  0  0  0  0  0  0  0  0  0
    0.1103    0.1012    0.6609 C   0  0  1  0  0  0  0  0  0  0  0  0
    0.6280   -1.1329   -0.1042 C   0  0  0  0  0  0  0  0  0  0  0  0
    2.7272   -0.0111   -0.7259 C   0  0  1  0  0  0  0  0  0  0  0  0
    0.7808    1.3609    0.1240 C   0  0  0  0  0  0  0  0  0  0  0  0
   -2.0548   -0.9284    0.8972 C   0  0  0  0  0  0  0  0  0  0  0  0
   -1.5725    0.4734   -1.0221 C   0  0  0  0  0  0  0  0  0  0  0  0
    1.7745    1.1669   -0.9991 C   0  0  0  0  0  0  0  0  0  0  0  0
    0.3674   -0.0086    2.1684 C   0  0  0  0  0  0  0  0  0  0  0  0
   -3.5611   -0.7687    0.6857 C   0  0  0  0  0  0  0  0  0  0  0  0
   -3.0630    0.6788   -1.2965 C   0  0  0  0  0  0  0  0  0  0  0  0
   -3.8892   -0.4925   -0.7771 C   0  0  0  0  0  0  0  0  0  0  0  0
    3.8917    0.4434    0.1623 C   0  0  0  0  0  0  0  0  0  0  0  0
    2.5883   -2.4375   -0.6391 C   0  0  0  0  0  0  0  0  0  0  0  0
    0.2727   -2.0486    0.3835 H   0  0  0  0  0  0  0  0  0  0  0  0
    0.3314   -1.1971   -1.1527 H   0  0  0  0  0  0  0  0  0  0  0  0
    3.1479   -0.2937   -1.7009 H   0  0  0  0  0  0  0  0  0  0  0  0
   -1.9150   -1.0773    1.9722 H   0  0  0  0  0  0  0  0  0  0  0  0
   -1.7626   -1.8540    0.3895 H   0  0  0  0  0  0  0  0  0  0  0  0
   -1.2711   -0.3560   -1.6663 H   0  0  0  0  0  0  0  0  0  0  0  0
   -1.0821    1.3789   -1.3928 H   0  0  0  0  0  0  0  0  0  0  0  0
    1.2064    0.9836   -1.9184 H   0  0  0  0  0  0  0  0  0  0  0  0
    2.3344    2.0975   -1.1445 H   0  0  0  0  0  0  0  0  0  0  0  0
    0.1318   -0.9984    2.5731 H   0  0  0  0  0  0  0  0  0  0  0  0
    1.4228    0.1813    2.3983 H   0  0  0  0  0  0  0  0  0  0  0  0
   -0.2048    0.7398    2.7304 H   0  0  0  0  0  0  0  0  0  0  0  0
   -3.9338    0.0566    1.3058 H   0  0  0  0  0  0  0  0  0  0  0  0
   -4.0815   -1.6753    1.0155 H   0  0  0  0  0  0  0  0  0  0  0  0
   -3.2312    0.8000   -2.3728 H   0  0  0  0  0  0  0  0  0  0  0  0
   -3.4008    1.6055   -0.8150 H   0  0  0  0  0  0  0  0  0  0  0  0
   -3.6750   -1.3863   -1.3759 H   0  0  0  0  0  0  0  0  0  0  0  0
   -4.9576   -0.2781   -0.8890 H   0  0  0  0  0  0  0  0  0  0  0  0
    4.6157   -0.3647    0.3141 H   0  0  0  0  0  0  0  0  0  0  0  0
    4.4288    1.2777   -0.3021 H   0  0  0  0  0  0  0  0  0  0  0  0
    3.5445    0.7752    1.1468 H   0  0  0  0  0  0  0  0  0  0  0  0
    2.1916   -3.2917   -0.0791 H   0  0  0  0  0  0  0  0  0  0  0  0
    3.6794   -2.4961   -0.5616 H   0  0  0  0  0  0  0  0  0  0  0  0
    2.3107   -2.5576   -1.6925 H   0  0  0  0  0  0  0  0  0  0  0  0
  1  7  2  0  0  0  0
  2  4  1  0  0  0  0
  2  8  1  0  0  0  0
  2  9  1  0  0  0  0
  3  5  1  0  0  0  0
  3  6  1  0  0  0  0
  3 16  1  0  0  0  0
  4  5  1  0  0  0  0
  4  7  1  0  0  0  0
  4 11  1  0  0  0  0
  5 17  1  0  0  0  0
  5 18  1  0  0  0  0
  6 10  1  0  0  0  0
  6 15  1  0  0  0  0
  6 19  1  0  0  0  0
  7 10  1  0  0  0  0
  8 12  1  0  0  0  0
  8 20  1  0  0  0  0
  8 21  1  0  0  0  0
  9 13  1  0  0  0  0
  9 22  1  0  0  0  0
  9 23  1  0  0  0  0
 10 24  1  0  0  0  0
 10 25  1  0  0  0  0
 11 26  1  0  0  0  0
 11 27  1  0  0  0  0
 11 28  1  0  0  0  0
 12 14  1  0  0  0  0
 12 29  1  0  0  0  0
 12 30  1  0  0  0  0
 13 14  1  0  0  0  0
 13 31  1  0  0  0  0
 13 32  1  0  0  0  0
 14 33  1  0  0  0  0
 14 34  1  0  0  0  0
 15 35  1  0  0  0  0
 15 36  1  0  0  0  0
 15 37  1  0  0  0  0
 16 38  1  0  0  0  0
 16 39  1  0  0  0  0
 16 40  1  0  0  0  0
M  END
> <PUBCHEM_COMPOUND_CID>
11695

> <PUBCHEM_CONFORMER_RMSD>
0.6

> <PUBCHEM_CONFORMER_DIVERSEORDER>
4
43
11
7
28
41
31
2
35
24
27
22
40
44
13
42
21
30
1
34
45
26
9
23
12
20
16
19
39
17
29
15
8
37
33
5
38
36
3
18
25
10
32
6
14

> <PUBCHEM_MMFF94_PARTIAL_CHARGES>
11
1 -0.57
10 0.06
16 0.27
2 -0.81
3 -0.81
4 0.33
5 0.27
6 0.27
7 0.45
8 0.27
9 0.27

> <PUBCHEM_EFFECTIVE_ROTOR_COUNT>
3.2

> <PUBCHEM_PHARMACOPHORE_FEATURES>
5
1 1 acceptor
1 2 cation
1 3 cation
6 2 8 9 12 13 14 rings
6 3 4 5 6 7 10 rings

> <PUBCHEM_HEAVY_ATOM_COUNT>
16

> <PUBCHEM_ATOM_DEF_STEREO_COUNT>
0

> <PUBCHEM_ATOM_UDEF_STEREO_COUNT>
2

> <PUBCHEM_BOND_DEF_STEREO_COUNT>
0

> <PUBCHEM_BOND_UDEF_STEREO_COUNT>
0

> <PUBCHEM_ISOTOPIC_ATOM_COUNT>
0

> <PUBCHEM_COMPONENT_COUNT>
1

> <PUBCHEM_CACTVS_TAUTO_COUNT>
2

> <PUBCHEM_CONFORMER_ID>
00002DAF00000004

> <PUBCHEM_MMFF94_ENERGY>
35.5928

> <PUBCHEM_FEATURE_SELFOVERLAP>
25.371

> <PUBCHEM_SHAPE_FINGERPRINT>
10498660 4 16630538344963731207
11578080 2 17314530290111972128
12423570 1 16252484108772066432
12491281 212 14476663231054372270
12808571 1 12967117333180447444
13296908 3 18336826497634469206
13705890 14 18413108376860385854
14817 1 15752249757496573656
15219456 202 18273494567971707295
15375462 189 17312822679818480658
16945 1 18335973177842676952
17834072 14 18341900748592717514
18186145 218 17703219732257537735
18511873 20 12247678258149862042
200 152 18261391182754546254
20201158 50 18343860013445780222
20361792 2 17748830738958507749
20645477 70 18335144249334410735
20671657 53 18194957667981401350
22802520 49 18060413599691563205
23114952 82 17988347243893822318
232386 152 15574714647406888637
23402539 116 17131560444295770070
23419403 2 17477539516659977792
23526113 38 18342748454355487731
23557571 272 17775560936028996455
23559900 14 18058176188472214666
2748010 2 18341602767793002702
4990 188 18131917048807153711
528886 8 18409731737928000394
77492 1 17312812775818769579
81228 2 17977102693042943648
9981440 41 13897643735163295180

> <PUBCHEM_SHAPE_MULTIPOLES>
313.44
6
1.82
1.39
2.13
0.09
0.45
1.18
-1.55
-1.17
-0.18
0.32
-0.02
0.68

> <PUBCHEM_SHAPE_SELFOVERLAP>
636.859

> <PUBCHEM_SHAPE_VOLUME>
183.6

> <PUBCHEM_COORDINATE_TYPE>
2
5
10

$$$$

