5284597
  -OEChem-07051213053D

 49 52  0     1  0  0  0  0  0999 V2000
   -4.9375    0.9320   -0.3005 O   0  0  0  0  0  0  0  0  0  0  0  0
    5.8810    0.1275    0.8006 O   0  0  0  0  0  0  0  0  0  0  0  0
   -2.4993    0.5126   -0.2524 C   0  0  1  0  0  0  0  0  0  0  0  0
   -1.7233   -0.7309    0.2344 C   0  0  2  0  0  0  0  0  0  0  0  0
   -0.3075   -0.8141   -0.3454 C   0  0  1  0  0  0  0  0  0  0  0  0
    0.4905    0.4537    0.0786 C   0  0  2  0  0  0  0  0  0  0  0  0
   -3.8954    0.2495    0.3929 C   0  0  2  0  0  0  0  0  0  0  0  0
   -1.7337    1.7580    0.2238 C   0  0  0  0  0  0  0  0  0  0  0  0
   -2.6888   -1.8804   -0.0337 C   0  0  0  0  0  0  0  0  0  0  0  0
   -0.2729    1.7583   -0.2628 C   0  0  0  0  0  0  0  0  0  0  0  0
   -4.0854   -1.2802    0.2131 C   0  0  0  0  0  0  0  0  0  0  0  0
    1.9329    0.4332   -0.5139 C   0  0  2  0  0  0  0  0  0  0  0  0
    0.4310   -2.0737    0.1256 C   0  0  0  0  0  0  0  0  0  0  0  0
   -2.6504    0.5839   -1.8002 C   0  0  0  0  0  0  0  0  0  0  0  0
    1.8276   -2.1396   -0.4827 C   0  0  0  0  0  0  0  0  0  0  0  0
    2.6290   -0.8891   -0.2183 C   0  0  0  0  0  0  0  0  0  0  0  0
   -4.0275    0.6346    1.8717 C   0  0  0  0  0  0  0  0  0  0  0  0
    2.7463    1.6368    0.0056 C   0  0  0  0  0  0  0  0  0  0  0  0
    4.2333    1.5002   -0.2700 C   0  0  0  0  0  0  0  0  0  0  0  0
    3.8963   -0.9876    0.2141 C   0  0  0  0  0  0  0  0  0  0  0  0
    4.7537    0.2153    0.3195 C   0  0  0  0  0  0  0  0  0  0  0  0
   -1.6052   -0.6739    1.3272 H   0  0  0  0  0  0  0  0  0  0  0  0
   -0.3600   -0.8566   -1.4401 H   0  0  0  0  0  0  0  0  0  0  0  0
    0.5835    0.4264    1.1757 H   0  0  0  0  0  0  0  0  0  0  0  0
   -1.7134    1.8026    1.3192 H   0  0  0  0  0  0  0  0  0  0  0  0
   -2.2361    2.6717   -0.1152 H   0  0  0  0  0  0  0  0  0  0  0  0
   -2.5025   -2.7324    0.6283 H   0  0  0  0  0  0  0  0  0  0  0  0
   -2.6067   -2.2412   -1.0652 H   0  0  0  0  0  0  0  0  0  0  0  0
   -0.2366    1.9374   -1.3434 H   0  0  0  0  0  0  0  0  0  0  0  0
    0.2263    2.6150    0.2045 H   0  0  0  0  0  0  0  0  0  0  0  0
   -4.7453   -1.5120   -0.6314 H   0  0  0  0  0  0  0  0  0  0  0  0
   -4.5414   -1.7369    1.0992 H   0  0  0  0  0  0  0  0  0  0  0  0
    1.8597    0.5181   -1.6074 H   0  0  0  0  0  0  0  0  0  0  0  0
   -0.1226   -2.9723   -0.1698 H   0  0  0  0  0  0  0  0  0  0  0  0
    0.5005   -2.0863    1.2209 H   0  0  0  0  0  0  0  0  0  0  0  0
   -1.6920    0.5943   -2.3248 H   0  0  0  0  0  0  0  0  0  0  0  0
   -3.2213   -0.2585   -2.2039 H   0  0  0  0  0  0  0  0  0  0  0  0
   -3.1775    1.5000   -2.0921 H   0  0  0  0  0  0  0  0  0  0  0  0
    1.7427   -2.2714   -1.5691 H   0  0  0  0  0  0  0  0  0  0  0  0
    2.3388   -3.0310   -0.0991 H   0  0  0  0  0  0  0  0  0  0  0  0
   -3.9548    1.7203    1.9993 H   0  0  0  0  0  0  0  0  0  0  0  0
   -5.0164    0.3557    2.2553 H   0  0  0  0  0  0  0  0  0  0  0  0
   -3.2768    0.1556    2.5059 H   0  0  0  0  0  0  0  0  0  0  0  0
    2.5960    1.7448    1.0884 H   0  0  0  0  0  0  0  0  0  0  0  0
    2.3896    2.5624   -0.4604 H   0  0  0  0  0  0  0  0  0  0  0  0
   -5.7884    0.6248    0.0564 H   0  0  0  0  0  0  0  0  0  0  0  0
    4.7675    2.3397    0.1878 H   0  0  0  0  0  0  0  0  0  0  0  0
    4.4420    1.5025   -1.3452 H   0  0  0  0  0  0  0  0  0  0  0  0
    4.3603   -1.9437    0.4303 H   0  0  0  0  0  0  0  0  0  0  0  0
  1  7  1  0  0  0  0
  1 46  1  0  0  0  0
  2 21  2  0  0  0  0
  3  4  1  0  0  0  0
  3  7  1  0  0  0  0
  3  8  1  0  0  0  0
  3 14  1  0  0  0  0
  4  5  1  0  0  0  0
  4  9  1  0  0  0  0
  4 22  1  0  0  0  0
  5  6  1  0  0  0  0
  5 13  1  0  0  0  0
  5 23  1  0  0  0  0
  6 10  1  0  0  0  0
  6 12  1  0  0  0  0
  6 24  1  0  0  0  0
  7 11  1  0  0  0  0
  7 17  1  0  0  0  0
  8 10  1  0  0  0  0
  8 25  1  0  0  0  0
  8 26  1  0  0  0  0
  9 11  1  0  0  0  0
  9 27  1  0  0  0  0
  9 28  1  0  0  0  0
 10 29  1  0  0  0  0
 10 30  1  0  0  0  0
 11 31  1  0  0  0  0
 11 32  1  0  0  0  0
 12 16  1  0  0  0  0
 12 18  1  0  0  0  0
 12 33  1  0  0  0  0
 13 15  1  0  0  0  0
 13 34  1  0  0  0  0
 13 35  1  0  0  0  0
 14 36  1  0  0  0  0
 14 37  1  0  0  0  0
 14 38  1  0  0  0  0
 15 16  1  0  0  0  0
 15 39  1  0  0  0  0
 15 40  1  0  0  0  0
 16 20  2  0  0  0  0
 17 41  1  0  0  0  0
 17 42  1  0  0  0  0
 17 43  1  0  0  0  0
 18 19  1  0  0  0  0
 18 44  1  0  0  0  0
 18 45  1  0  0  0  0
 19 21  1  0  0  0  0
 19 47  1  0  0  0  0
 19 48  1  0  0  0  0
 20 21  1  0  0  0  0
 20 49  1  0  0  0  0
M  END
> <PUBCHEM_COMPOUND_CID>
5284597

> <PUBCHEM_CONFORMER_RMSD>
0.6

> <PUBCHEM_CONFORMER_DIVERSEORDER>
1

> <PUBCHEM_MMFF94_PARTIAL_CHARGES>
11
1 -0.68
12 0.14
15 0.14
16 -0.28
19 0.06
2 -0.57
20 -0.14
21 0.49
46 0.4
49 0.15
7 0.28

> <PUBCHEM_EFFECTIVE_ROTOR_COUNT>
1.8

> <PUBCHEM_PHARMACOPHORE_FEATURES>
7
1 1 acceptor
1 1 donor
1 2 acceptor
5 3 4 7 9 11 rings
6 12 16 18 19 20 21 rings
6 3 4 5 6 8 10 rings
6 5 6 12 13 15 16 rings

> <PUBCHEM_HEAVY_ATOM_COUNT>
21

> <PUBCHEM_ATOM_DEF_STEREO_COUNT>
6

> <PUBCHEM_ATOM_UDEF_STEREO_COUNT>
0

> <PUBCHEM_BOND_DEF_STEREO_COUNT>
0

> <PUBCHEM_BOND_UDEF_STEREO_COUNT>
0

> <PUBCHEM_ISOTOPIC_ATOM_COUNT>
0

> <PUBCHEM_COMPONENT_COUNT>
1

> <PUBCHEM_CACTVS_TAUTO_COUNT>
8

> <PUBCHEM_CONFORMER_ID>
0050A2F500000001

> <PUBCHEM_MMFF94_ENERGY>
66.0861

> <PUBCHEM_FEATURE_SELFOVERLAP>
35.614

> <PUBCHEM_SHAPE_FINGERPRINT>
10062212 137 18337958891537215959
10366900 7 17822300088583042337
10616163 171 18336824204122147431
10967382 1 18410572911626028502
11132069 177 18412541020186038287
11578080 2 16771560726720998462
12236239 1 17603870039652711637
12403259 415 18342463634169440236
12403814 3 17846499227620225589
12507557 5 18342744009280802560
12633257 1 18411982451320727168
128620 24 17918273151488995604
13140716 1 18338794490304059192
13214271 11 18334576832878349095
13224815 77 18409165510861875630
13583140 156 14706932830125277950
13675066 3 17918269857227922049
14223421 5 18338514269415574942
14341114 176 18412541042125117978
14341114 328 18334287648161119732
14787075 74 18341332176052436506
14790565 3 18194954146250961596
15163728 17 14925607117905442857
15196674 1 18411418384412129598
15209294 21 17968084361364691049
15375358 24 18341893013066421551
15536298 74 18261386784655372134
15788980 27 17632579344357117688
16945 1 18338515373301401679
17349148 13 18272371962484089676
1813 80 17418365900458916471
18186145 218 18410007749970152286
19050596 39 18410009923096996704
200 152 18187654591653652415
21033648 29 18059030431186148732
21267235 1 18411409583971684870
21421861 104 18058452191233192866
21623110 236 18339355250019611009
21637258 2 15625645121786363699
22182313 1 18128255777527402869
22854114 59 18411416215458900362
23402539 116 18409738334992557430
23557571 272 18114174181845148878
23559900 14 18336547218003471926
26918003 58 18343303669041309952
296302 2 18186800287766067383
335352 9 18411138064744594774
34797466 226 15574713551879134808
34934 24 18410579521865683015
350125 39 18265329513362504795
351380 180 18413110554651346106
3545911 37 18410573998273807918
3680242 22 18341330101910131338
4214541 1 18412545396641557869
474 4 18408601457275880666
474229 33 18410013213163440206
5104073 3 18338797814999007120
633830 44 18040990731208455300
7364860 26 18262796401633433110
9709674 26 18410567401077979926

> <PUBCHEM_SHAPE_MULTIPOLES>
420.43
10.13
2.09
1.03
5.1
0.45
-0.02
-1.39
-2.18
0.18
0.1
-0.91
-0.2
-0.02

> <PUBCHEM_SHAPE_SELFOVERLAP>
901.441

> <PUBCHEM_SHAPE_VOLUME>
230.9

> <PUBCHEM_COORDINATE_TYPE>
2
5
10

$$$$

