5281494
  -OEChem-07051212573D

 71 72  0     1  0  0  0  0  0999 V2000
    0.6110   -2.0154   -0.0624 O   0  0  0  0  0  0  0  0  0  0  0  0
   -0.5139    0.7636    1.1747 O   0  0  0  0  0  0  0  0  0  0  0  0
    3.0771    0.4343   -1.7796 O   0  0  0  0  0  0  0  0  0  0  0  0
   -0.9162   -3.4996    0.7963 O   0  0  0  0  0  0  0  0  0  0  0  0
   -1.5589    2.4148    2.3909 O   0  0  0  0  0  0  0  0  0  0  0  0
   -2.9401    0.5215   -0.7253 O   0  0  0  0  0  0  0  0  0  0  0  0
    3.5194   -1.4654   -3.0175 O   0  0  0  0  0  0  0  0  0  0  0  0
   -3.4169    5.2426   -1.0328 O   0  0  0  0  0  0  0  0  0  0  0  0
   -2.0100   -1.1211   -2.0411 O   0  0  0  0  0  0  0  0  0  0  0  0
   -3.5857   -1.4094    1.5988 O   0  0  0  0  0  0  0  0  0  0  0  0
    1.2112   -0.8099    1.9213 C   0  0  2  0  0  0  0  0  0  0  0  0
    0.4675    0.5281    2.1821 C   0  0  1  0  0  0  0  0  0  0  0  0
    1.5864   -1.0814    0.4518 C   0  0  1  0  0  0  0  0  0  0  0  0
    1.3955    1.7601    2.3261 C   0  0  0  0  0  0  0  0  0  0  0  0
    0.3304   -1.9862    2.1984 C   0  0  0  0  0  0  0  0  0  0  0  0
    2.9590   -1.6988    0.3039 C   0  0  0  0  0  0  0  0  0  0  0  0
    2.3124    2.0114    1.1465 C   0  0  0  0  0  0  0  0  0  0  0  0
    4.0719   -1.1776   -0.2587 C   0  0  0  0  0  0  0  0  0  0  0  0
   -0.0914   -2.6150    0.9368 C   0  0  0  0  0  0  0  0  0  0  0  0
    4.2103    0.1705   -0.9549 C   0  0  2  0  0  0  0  0  0  0  0  0
    4.4941    1.3675   -0.0198 C   0  0  0  0  0  0  0  0  0  0  0  0
    3.5363    1.4492    1.1345 C   0  0  0  0  0  0  0  0  0  0  0  0
   -0.0242   -2.4851    3.3854 C   0  0  0  0  0  0  0  0  0  0  0  0
    1.7341    2.8330    0.0287 C   0  0  0  0  0  0  0  0  0  0  0  0
    5.3553   -1.9725   -0.2166 C   0  0  0  0  0  0  0  0  0  0  0  0
   -1.2629    1.8927    1.3252 C   0  0  0  0  0  0  0  0  0  0  0  0
   -1.6710    2.4114   -0.0162 C   0  0  0  0  0  0  0  0  0  0  0  0
    2.8493   -0.4704   -2.7766 C   0  0  0  0  0  0  0  0  0  0  0  0
   -1.9251    1.4318   -1.1256 C   0  0  0  0  0  0  0  0  0  0  0  0
   -1.8320    3.7455   -0.1015 C   0  0  0  0  0  0  0  0  0  0  0  0
    1.6341   -0.0679   -3.5561 C   0  0  0  0  0  0  0  0  0  0  0  0
   -2.2192    4.5319   -1.3148 C   0  0  0  0  0  0  0  0  0  0  0  0
   -2.8673   -0.7331   -1.2598 C   0  0  0  0  0  0  0  0  0  0  0  0
   -3.9914   -1.5750   -0.7453 C   0  0  0  0  0  0  0  0  0  0  0  0
   -4.5829   -1.2575    0.5981 C   0  0  0  0  0  0  0  0  0  0  0  0
   -4.4260   -2.5408   -1.5768 C   0  0  0  0  0  0  0  0  0  0  0  0
   -5.5203   -3.5279   -1.3185 C   0  0  0  0  0  0  0  0  0  0  0  0
    2.0908   -0.8510    2.5768 H   0  0  0  0  0  0  0  0  0  0  0  0
   -0.0646    0.4298    3.1394 H   0  0  0  0  0  0  0  0  0  0  0  0
    1.4821   -0.1851   -0.1553 H   0  0  0  0  0  0  0  0  0  0  0  0
    2.0110    1.5996    3.2230 H   0  0  0  0  0  0  0  0  0  0  0  0
    0.8445    2.6811    2.5418 H   0  0  0  0  0  0  0  0  0  0  0  0
    3.0453   -2.6870    0.7568 H   0  0  0  0  0  0  0  0  0  0  0  0
    5.0703    0.1239   -1.6388 H   0  0  0  0  0  0  0  0  0  0  0  0
    5.5067    1.2753    0.3932 H   0  0  0  0  0  0  0  0  0  0  0  0
    4.4807    2.2991   -0.5956 H   0  0  0  0  0  0  0  0  0  0  0  0
    3.8475    0.8800    2.0100 H   0  0  0  0  0  0  0  0  0  0  0  0
   -0.6564   -3.3619    3.4734 H   0  0  0  0  0  0  0  0  0  0  0  0
    0.3161   -2.0193    4.3044 H   0  0  0  0  0  0  0  0  0  0  0  0
    2.5058    3.2269   -0.6382 H   0  0  0  0  0  0  0  0  0  0  0  0
    1.2009    3.7021    0.4259 H   0  0  0  0  0  0  0  0  0  0  0  0
    1.0543    2.2339   -0.5794 H   0  0  0  0  0  0  0  0  0  0  0  0
    6.1356   -1.4019    0.2978 H   0  0  0  0  0  0  0  0  0  0  0  0
    5.2431   -2.9258    0.3106 H   0  0  0  0  0  0  0  0  0  0  0  0
    5.6990   -2.1958   -1.2319 H   0  0  0  0  0  0  0  0  0  0  0  0
   -2.2639    1.9065   -2.0482 H   0  0  0  0  0  0  0  0  0  0  0  0
   -0.9844    0.9176   -1.3569 H   0  0  0  0  0  0  0  0  0  0  0  0
   -1.6307    4.3591    0.7760 H   0  0  0  0  0  0  0  0  0  0  0  0
    1.7670    0.9397   -3.9580 H   0  0  0  0  0  0  0  0  0  0  0  0
    0.7525   -0.1127   -2.9126 H   0  0  0  0  0  0  0  0  0  0  0  0
    1.4941   -0.7588   -4.3921 H   0  0  0  0  0  0  0  0  0  0  0  0
   -2.3927    3.9303   -2.2069 H   0  0  0  0  0  0  0  0  0  0  0  0
   -1.4349    5.2573   -1.5545 H   0  0  0  0  0  0  0  0  0  0  0  0
   -3.2346    5.8558   -0.3000 H   0  0  0  0  0  0  0  0  0  0  0  0
   -4.9418   -0.2235    0.6272 H   0  0  0  0  0  0  0  0  0  0  0  0
   -5.4308   -1.8869    0.8734 H   0  0  0  0  0  0  0  0  0  0  0  0
   -3.9510   -2.6608   -2.5493 H   0  0  0  0  0  0  0  0  0  0  0  0
   -6.3593   -3.3341   -1.9939 H   0  0  0  0  0  0  0  0  0  0  0  0
   -5.8961   -3.5224   -0.2945 H   0  0  0  0  0  0  0  0  0  0  0  0
   -5.1506   -4.5386   -1.5207 H   0  0  0  0  0  0  0  0  0  0  0  0
   -3.3009   -2.3394    1.5937 H   0  0  0  0  0  0  0  0  0  0  0  0
  1 13  1  0  0  0  0
  1 19  1  0  0  0  0
  2 12  1  0  0  0  0
  2 26  1  0  0  0  0
  3 20  1  0  0  0  0
  3 28  1  0  0  0  0
  4 19  2  0  0  0  0
  5 26  2  0  0  0  0
  6 29  1  0  0  0  0
  6 33  1  0  0  0  0
  7 28  2  0  0  0  0
  8 32  1  0  0  0  0
  8 64  1  0  0  0  0
  9 33  2  0  0  0  0
 10 35  1  0  0  0  0
 10 71  1  0  0  0  0
 11 12  1  0  0  0  0
 11 13  1  0  0  0  0
 11 15  1  0  0  0  0
 11 38  1  0  0  0  0
 12 14  1  0  0  0  0
 12 39  1  0  0  0  0
 13 16  1  0  0  0  0
 13 40  1  0  0  0  0
 14 17  1  0  0  0  0
 14 41  1  0  0  0  0
 14 42  1  0  0  0  0
 15 19  1  0  0  0  0
 15 23  2  0  0  0  0
 16 18  2  0  0  0  0
 16 43  1  0  0  0  0
 17 22  2  0  0  0  0
 17 24  1  0  0  0  0
 18 20  1  0  0  0  0
 18 25  1  0  0  0  0
 20 21  1  0  0  0  0
 20 44  1  0  0  0  0
 21 22  1  0  0  0  0
 21 45  1  0  0  0  0
 21 46  1  0  0  0  0
 22 47  1  0  0  0  0
 23 48  1  0  0  0  0
 23 49  1  0  0  0  0
 24 50  1  0  0  0  0
 24 51  1  0  0  0  0
 24 52  1  0  0  0  0
 25 53  1  0  0  0  0
 25 54  1  0  0  0  0
 25 55  1  0  0  0  0
 26 27  1  0  0  0  0
 27 29  1  0  0  0  0
 27 30  2  0  0  0  0
 28 31  1  0  0  0  0
 29 56  1  0  0  0  0
 29 57  1  0  0  0  0
 30 32  1  0  0  0  0
 30 58  1  0  0  0  0
 31 59  1  0  0  0  0
 31 60  1  0  0  0  0
 31 61  1  0  0  0  0
 32 62  1  0  0  0  0
 32 63  1  0  0  0  0
 33 34  1  0  0  0  0
 34 35  1  0  0  0  0
 34 36  2  0  0  0  0
 35 65  1  0  0  0  0
 35 66  1  0  0  0  0
 36 37  1  0  0  0  0
 36 67  1  0  0  0  0
 37 68  1  0  0  0  0
 37 69  1  0  0  0  0
 37 70  1  0  0  0  0
M  END
> <PUBCHEM_COMPOUND_CID>
5281494

> <PUBCHEM_CONFORMER_RMSD>
1.2

> <PUBCHEM_CONFORMER_DIVERSEORDER>
1
7
8
33
2
21
13
19
5
6
23
34
17
16
4
20
25
35
28
18
36
11
29
3
9
32
14
31
30
27
10
38
12
26
15
22
24
37

> <PUBCHEM_MMFF94_PARTIAL_CHARGES>
45
1 -0.43
10 -0.68
11 0.14
12 0.28
13 0.42
14 0.14
15 -0.12
16 -0.29
17 -0.28
18 -0.28
19 0.71
2 -0.43
20 0.42
21 0.14
22 -0.29
23 -0.3
24 0.14
25 0.14
26 0.71
27 -0.12
28 0.66
29 0.42
3 -0.43
30 -0.29
31 0.06
32 0.42
33 0.71
34 -0.12
35 0.42
36 -0.29
37 0.14
4 -0.57
43 0.15
47 0.15
48 0.15
49 0.15
5 -0.57
58 0.15
6 -0.43
64 0.4
67 0.15
7 -0.57
71 0.4
8 -0.68
9 -0.57

> <PUBCHEM_EFFECTIVE_ROTOR_COUNT>
12

> <PUBCHEM_PHARMACOPHORE_FEATURES>
10
1 10 acceptor
1 10 donor
1 37 hydrophobe
1 4 acceptor
1 5 acceptor
1 7 acceptor
1 8 acceptor
1 8 donor
1 9 acceptor
5 1 11 13 15 19 rings

> <PUBCHEM_HEAVY_ATOM_COUNT>
37

> <PUBCHEM_ATOM_DEF_STEREO_COUNT>
4

> <PUBCHEM_ATOM_UDEF_STEREO_COUNT>
0

> <PUBCHEM_BOND_DEF_STEREO_COUNT>
4

> <PUBCHEM_BOND_UDEF_STEREO_COUNT>
0

> <PUBCHEM_ISOTOPIC_ATOM_COUNT>
0

> <PUBCHEM_COMPONENT_COUNT>
1

> <PUBCHEM_CACTVS_TAUTO_COUNT>
1

> <PUBCHEM_CONFORMER_ID>
005096D600000001

> <PUBCHEM_MMFF94_ENERGY>
79.5789

> <PUBCHEM_FEATURE_SELFOVERLAP>
50.743

> <PUBCHEM_SHAPE_FINGERPRINT>
11421498 54 18343867736203550099
11578080 2 17910373010557542942
11828532 37 17840878365129094739
12156800 1 16668306629317520054
12788726 201 18200319810043723144
15664445 248 18123761859252975477
17909252 39 18040723528403008826
19311894 1 18119248613038640054
19319366 153 17555445489886154537
20691752 17 18342176618373155297
20764821 26 17980194193443943942
21285901 2 18115589236198396252
22907989 373 17845067628746803592
35225 105 17618449597801244702

> <PUBCHEM_SHAPE_MULTIPOLES>
702.75
8.98
5.16
3.14
2.39
5.37
0.56
-5.34
4.68
5.67
0.2
-1.19
-1.08
0.4

> <PUBCHEM_SHAPE_SELFOVERLAP>
1447.633

> <PUBCHEM_SHAPE_VOLUME>
398

> <PUBCHEM_COORDINATE_TYPE>
2
5
10

$$$$

