8191
  -OEChem-06261202383D

 34 33  0     0  0  0  0  0  0999 V2000
   -0.8585   -1.9358    0.5624 S   0  0  0  0  0  0  0  0  0  0  0  0
    0.8612   -1.9297   -0.5631 S   0  0  0  0  0  0  0  0  0  0  0  0
   -4.0540    0.5476   -0.3206 C   0  0  0  0  0  0  0  0  0  0  0  0
    4.0541    0.5458    0.3218 C   0  0  0  0  0  0  0  0  0  0  0  0
   -3.2081   -0.5088    0.3952 C   0  0  0  0  0  0  0  0  0  0  0  0
    3.2068   -0.5071   -0.3975 C   0  0  0  0  0  0  0  0  0  0  0  0
   -5.3996    0.7490    0.3761 C   0  0  0  0  0  0  0  0  0  0  0  0
    5.3978    0.7515   -0.3772 C   0  0  0  0  0  0  0  0  0  0  0  0
   -1.8532   -0.6762   -0.2869 C   0  0  0  0  0  0  0  0  0  0  0  0
    1.8538   -0.6789    0.2872 C   0  0  0  0  0  0  0  0  0  0  0  0
   -6.2282    1.8216   -0.3125 C   0  0  0  0  0  0  0  0  0  0  0  0
    6.2278    1.8209    0.3150 C   0  0  0  0  0  0  0  0  0  0  0  0
   -3.5085    1.4990   -0.3445 H   0  0  0  0  0  0  0  0  0  0  0  0
   -4.2198    0.2440   -1.3615 H   0  0  0  0  0  0  0  0  0  0  0  0
    3.5084    1.4968    0.3522 H   0  0  0  0  0  0  0  0  0  0  0  0
    4.2227    0.2367    1.3606 H   0  0  0  0  0  0  0  0  0  0  0  0
   -3.7506   -1.4626    0.3980 H   0  0  0  0  0  0  0  0  0  0  0  0
   -3.0664   -0.2092    1.4415 H   0  0  0  0  0  0  0  0  0  0  0  0
    3.7502   -1.4605   -0.4068 H   0  0  0  0  0  0  0  0  0  0  0  0
    3.0626   -0.2018   -1.4418 H   0  0  0  0  0  0  0  0  0  0  0  0
   -5.9606   -0.1927    0.3814 H   0  0  0  0  0  0  0  0  0  0  0  0
   -5.2389    1.0370    1.4216 H   0  0  0  0  0  0  0  0  0  0  0  0
    5.9592   -0.1900   -0.3888 H   0  0  0  0  0  0  0  0  0  0  0  0
    5.2343    1.0449   -1.4207 H   0  0  0  0  0  0  0  0  0  0  0  0
   -1.9984   -0.9804   -1.3290 H   0  0  0  0  0  0  0  0  0  0  0  0
   -1.3123    0.2761   -0.2731 H   0  0  0  0  0  0  0  0  0  0  0  0
    2.0030   -0.9873    1.3276 H   0  0  0  0  0  0  0  0  0  0  0  0
    1.3138    0.2739    0.2808 H   0  0  0  0  0  0  0  0  0  0  0  0
   -5.7085    2.7850   -0.3041 H   0  0  0  0  0  0  0  0  0  0  0  0
   -6.4336    1.5508   -1.3531 H   0  0  0  0  0  0  0  0  0  0  0  0
   -7.1864    1.9483    0.2010 H   0  0  0  0  0  0  0  0  0  0  0  0
    5.7076    2.7840    0.3129 H   0  0  0  0  0  0  0  0  0  0  0  0
    6.4360    1.5447    1.3536 H   0  0  0  0  0  0  0  0  0  0  0  0
    7.1847    1.9506   -0.2003 H   0  0  0  0  0  0  0  0  0  0  0  0
  1  2  1  0  0  0  0
  1  9  1  0  0  0  0
  2 10  1  0  0  0  0
  3  5  1  0  0  0  0
  3  7  1  0  0  0  0
  3 13  1  0  0  0  0
  3 14  1  0  0  0  0
  4  6  1  0  0  0  0
  4  8  1  0  0  0  0
  4 15  1  0  0  0  0
  4 16  1  0  0  0  0
  5  9  1  0  0  0  0
  5 17  1  0  0  0  0
  5 18  1  0  0  0  0
  6 10  1  0  0  0  0
  6 19  1  0  0  0  0
  6 20  1  0  0  0  0
  7 11  1  0  0  0  0
  7 21  1  0  0  0  0
  7 22  1  0  0  0  0
  8 12  1  0  0  0  0
  8 23  1  0  0  0  0
  8 24  1  0  0  0  0
  9 25  1  0  0  0  0
  9 26  1  0  0  0  0
 10 27  1  0  0  0  0
 10 28  1  0  0  0  0
 11 29  1  0  0  0  0
 11 30  1  0  0  0  0
 11 31  1  0  0  0  0
 12 32  1  0  0  0  0
 12 33  1  0  0  0  0
 12 34  1  0  0  0  0
M  END
> <PUBCHEM_COMPOUND_CID>
8191

> <PUBCHEM_CONFORMER_RMSD>
0.8

> <PUBCHEM_CONFORMER_DIVERSEORDER>
1
86
248
99
409
115
75
380
372
367
16
84
245
74
403
382
249
437
260
77
250
275
132
331
419
198
415
199
328
449
120
378
11
338
322
416
326
108
9
134
241
317
366
422
279
334
452
299
230
206
85
18
410
440
79
324
54
126
97
271
387
20
255
294
209
442
200
401
257
82
283
105
91
420
133
215
124
3
368
385
258
118
240
98
147
353
42
138
327
186
284
242
112
435
273
244
176
5
417
225
4
167
139
96
386
83
63
73
25
313
2
360
444
27
264
310
52
179
448
14
332
36
228
344
404
282
287
211
446
259
357
117
309
38
100
408
374
212
49
191
192
205
383
131
355
33
330
316
184
443
412
46
155
302
238
152
407
39
391
201
145
6
218
352
15
434
159
227
261
384
233
319
329
161
303
277
285
173
160
47
270
189
447
92
71
44
341
323
336
102
265
239
286
236
111
423
377
217
40
50
345
425
335
109
232
254
216
164
307
207
122
31
95
196
431
32
308
76
343
156
69
214
202
103
433
224
424
41
342
125
402
10
397
426
311
60
183
128
101
182
246
219
421
137
181
318
163
88
278
429
292
256
28
213
144
87
170
235
432
234
166
358
369
140
153
400
23
177
381
451
154
337
269
67
24
21
121
453
276
53
362
252
158
229
450
222
414
393
93
78
110
390
223
314
34
333
351
59
17
445
70
280
193
304
142
376
180
7
94
195
58
371
363
175
22
35
136
394
146
89
406
80
346
231
348
290
72
418
204
13
375
55
359
106
413
237
454
395
30
441
37
116
220
172
113
251
107
165
149
12
268
396
312
168
392
135
373
267
297
148
295
208
320
438
68
123
356
19
361
298
300
379
293
354
66
389
272
129
62
190
289
243
347
370
266
436
288
194
162
315
43
26
169
8
197
150
188
281
29
171
127
411
291
104
130
388
339
262
439
143
253
399
56
321
430
203
185
45
405
305
178
64
48
349
296
57
340
51
119
157
174
364
81
221
61
90
427
274
301
325
428
263
350
226
114
398
247
65
151
365
187
210
141
306

> <PUBCHEM_MMFF94_PARTIAL_CHARGES>
4
1 -0.23
10 0.23
2 -0.23
9 0.23

> <PUBCHEM_EFFECTIVE_ROTOR_COUNT>
9

> <PUBCHEM_PHARMACOPHORE_FEATURES>
2
1 11 hydrophobe
1 12 hydrophobe

> <PUBCHEM_HEAVY_ATOM_COUNT>
12

> <PUBCHEM_ATOM_DEF_STEREO_COUNT>
0

> <PUBCHEM_ATOM_UDEF_STEREO_COUNT>
0

> <PUBCHEM_BOND_DEF_STEREO_COUNT>
0

> <PUBCHEM_BOND_UDEF_STEREO_COUNT>
0

> <PUBCHEM_ISOTOPIC_ATOM_COUNT>
0

> <PUBCHEM_COMPONENT_COUNT>
1

> <PUBCHEM_CACTVS_TAUTO_COUNT>
1

> <PUBCHEM_CONFORMER_ID>
00001FFF00000001

> <PUBCHEM_MMFF94_ENERGY>
-6.8908

> <PUBCHEM_FEATURE_SELFOVERLAP>
10.149

> <PUBCHEM_SHAPE_FINGERPRINT>
100836 57 18411416206916432022
117890 112 18412545397126939024
14123255 352 18409728452199008066
14123256 34 9079115583057443269
1420 369 9727638310476062888
14455015 7 8574419938183384239
14576447 43 6627479501660295238
15501527 16 18411134723486969467
15501527 24 17603308172036395099
17834072 32 18338797819188459052
20281389 69 18343866623316098248
20374829 77 8070032151178852295
20388580 30 7348880100919060386
20526848 3 18410852161599040421
20605781 2 18410854378107763015
20621476 66 18341890754325295028
20767249 213 18411700989397671279
212847 35 18335707160933507674
22765269 38 18342744048315180229
23402655 69 17894912935998550934
23590187 135 9007064552230417690
23590187 49 18411700984686212983
270888 7 18410857663446624993
2916195 48 18341892996092196363
293599 30 18409729547679373630
3014063 24 11167935836583188673
351380 3 9223231836237637800
465052 167 10159689218229708688
5283384 27 18059585710839299421
7062679 13 8790613593506099100
77188 2 17474672127484619226

> <PUBCHEM_SHAPE_MULTIPOLES>
254.65
16.63
2.14
0.79
0.02
0.2
0
-15.82
0.01
0
0
0
0.1
0.68

> <PUBCHEM_SHAPE_SELFOVERLAP>
425.68

> <PUBCHEM_SHAPE_VOLUME>
172.9

> <PUBCHEM_COORDINATE_TYPE>
2
5
10

$$$$

