71339
  -OEChem-07051213012D

 42 45  0     1  0  0  0  0  0999 V2000
    5.1766   -2.3937    0.0000 S   0  0  0  0  0  0  0  0  0  0  0  0
    2.0000    0.6829    0.0000 O   0  0  0  0  0  0  0  0  0  0  0  0
    3.3948    2.6042    0.0000 O   0  0  0  0  0  0  0  0  0  0  0  0
    3.3220   -3.1174    0.0000 O   0  5  0  0  0  0  0  0  0  0  0  0
    2.0348   -1.9584    0.0000 O   0  0  0  0  0  0  0  0  0  0  0  0
    3.4742   -0.4450    0.0000 N   0  0  0  0  0  0  0  0  0  0  0  0
    7.7155   -1.8937    0.0000 N   0  3  0  0  0  0  0  0  0  0  0  0
    7.7155   -2.8937    0.0000 N   0  0  0  0  0  0  0  0  0  0  0  0
    9.2453   -2.3937    0.0000 N   0  0  0  0  0  0  0  0  0  0  0  0
    4.3402    0.0550    0.0000 C   0  0  1  0  0  0  0  0  0  0  0  0
    3.8397    0.9302    0.0000 C   0  0  2  0  0  0  0  0  0  0  0  0
    5.0834   -0.6142    0.0000 C   0  0  2  0  0  0  0  0  0  0  0  0
    2.9665    0.4261    0.0000 C   0  0  0  0  0  0  0  0  0  0  0  0
    4.6766   -1.5277    0.0000 C   0  0  0  0  0  0  0  0  0  0  0  0
    3.6821   -1.4232    0.0000 C   0  0  0  0  0  0  0  0  0  0  0  0
    4.1005    1.8956    0.0000 C   0  0  1  0  0  0  0  0  0  0  0  0
    6.0615   -0.4062    0.0000 C   0  0  0  0  0  0  0  0  0  0  0  0
    6.1766   -2.3937    0.0000 C   0  0  3  0  0  0  0  0  0  0  0  0
    5.0669    2.1525    0.0000 C   0  0  0  0  0  0  0  0  0  0  0  0
    6.7644   -1.5847    0.0000 C   0  0  0  0  0  0  0  0  0  0  0  0
    6.7644   -3.2027    0.0000 C   0  0  0  0  0  0  0  0  0  0  0  0
    3.0130   -2.1663    0.0000 C   0  0  0  0  0  0  0  0  0  0  0  0
    8.6617   -1.5890    0.0000 C   0  0  0  0  0  0  0  0  0  0  0  0
    8.6617   -3.1985    0.0000 C   0  0  0  0  0  0  0  0  0  0  0  0
    5.0019    0.5885    0.0000 H   0  0  0  0  0  0  0  0  0  0  0  0
    3.1658    1.4484    0.0000 H   0  0  0  0  0  0  0  0  0  0  0  0
    5.2438   -0.0153    0.0000 H   0  0  0  0  0  0  0  0  0  0  0  0
    4.2622    2.4942    0.0000 H   0  0  0  0  0  0  0  0  0  0  0  0
    6.1904   -1.0127    0.0000 H   0  0  0  0  0  0  0  0  0  0  0  0
    6.6680   -0.2773    0.0000 H   0  0  0  0  0  0  0  0  0  0  0  0
    5.9326    0.2002    0.0000 H   0  0  0  0  0  0  0  0  0  0  0  0
    5.8951   -1.8413    0.0000 H   0  0  0  0  0  0  0  0  0  0  0  0
    5.2262    1.5533    0.0000 H   0  0  0  0  0  0  0  0  0  0  0  0
    5.6661    2.3117    0.0000 H   0  0  0  0  0  0  0  0  0  0  0  0
    4.9077    2.7517    0.0000 H   0  0  0  0  0  0  0  0  0  0  0  0
    7.0166   -1.0183    0.0000 H   0  0  0  0  0  0  0  0  0  0  0  0
    6.2275   -1.2747    0.0000 H   0  0  0  0  0  0  0  0  0  0  0  0
    6.2275   -3.5127    0.0000 H   0  0  0  0  0  0  0  0  0  0  0  0
    7.0166   -3.7691    0.0000 H   0  0  0  0  0  0  0  0  0  0  0  0
    3.5565    3.2027    0.0000 H   0  0  0  0  0  0  0  0  0  0  0  0
    8.8543   -0.9997    0.0000 H   0  0  0  0  0  0  0  0  0  0  0  0
    8.8543   -3.7878    0.0000 H   0  0  0  0  0  0  0  0  0  0  0  0
  1 14  1  0  0  0  0
  1 18  1  0  0  0  0
  2 13  2  0  0  0  0
 16  3  1  6  0  0  0
  3 40  1  0  0  0  0
  4 22  1  0  0  0  0
  5 22  2  0  0  0  0
  6 10  1  0  0  0  0
  6 13  1  0  0  0  0
  6 15  1  0  0  0  0
  7  8  1  0  0  0  0
  7 20  1  0  0  0  0
  7 23  2  0  0  0  0
  8 21  1  0  0  0  0
  8 24  1  0  0  0  0
  9 23  1  0  0  0  0
  9 24  2  0  0  0  0
 10 11  1  0  0  0  0
 10 12  1  0  0  0  0
 10 25  1  6  0  0  0
 11 13  1  0  0  0  0
 11 16  1  0  0  0  0
 11 26  1  1  0  0  0
 12 14  1  0  0  0  0
 12 17  1  1  0  0  0
 12 27  1  0  0  0  0
 14 15  2  0  0  0  0
 15 22  1  0  0  0  0
 16 19  1  0  0  0  0
 16 28  1  0  0  0  0
 17 29  1  0  0  0  0
 17 30  1  0  0  0  0
 17 31  1  0  0  0  0
 18 20  1  0  0  0  0
 18 21  1  0  0  0  0
 18 32  1  0  0  0  0
 19 33  1  0  0  0  0
 19 34  1  0  0  0  0
 19 35  1  0  0  0  0
 20 36  1  0  0  0  0
 20 37  1  0  0  0  0
 21 38  1  0  0  0  0
 21 39  1  0  0  0  0
 23 41  1  0  0  0  0
 24 42  1  0  0  0  0
M  CHG  2   4  -1   7   1
M  END
> <PUBCHEM_COMPOUND_CID>
71339

> <PUBCHEM_COMPOUND_CANONICALIZED>
1

> <PUBCHEM_CACTVS_COMPLEXITY>
609

> <PUBCHEM_CACTVS_HBOND_ACCEPTOR>
6

> <PUBCHEM_CACTVS_HBOND_DONOR>
1

> <PUBCHEM_CACTVS_ROTATABLE_BOND>
3

> <PUBCHEM_CACTVS_SUBSKEYS>
AAADceBzuABAAAAAAAAAAAAAAABYAWLEAAAAAAAABAAWAAABgAAAHgQICAAADTzlwAaHGAcIEgiqAAXRfAAQAAswgJAVSAGIAEiCHB4gyCAEUAAOpgK4AQOYAAAOAAAAAAAAAAAAAAAAAAAAAAAAAAAAAA==

> <PUBCHEM_IUPAC_OPENEYE_NAME>
(4R,5S,6S)-3-(6,7-dihydro-5H-pyrazolo[1,2-a][1,2,4]triazol-4-ium-6-ylsulfanyl)-6-[(1R)-1-hydroxyethyl]-4-methyl-7-oxo-1-azabicyclo[3.2.0]hept-2-ene-2-carboxylate

> <PUBCHEM_IUPAC_CAS_NAME>
(4R,5S,6S)-3-(6,7-dihydro-5H-pyrazolo[1,2-a][1,2,4]triazol-4-ium-6-ylthio)-6-[(1R)-1-hydroxyethyl]-4-methyl-7-oxo-1-azabicyclo[3.2.0]hept-2-ene-2-carboxylate

> <PUBCHEM_IUPAC_NAME>
(4R,5S,6S)-3-(6,7-dihydro-5H-pyrazolo[1,2-a][1,2,4]triazol-4-ium-6-ylsulfanyl)-6-[(1R)-1-hydroxyethyl]-4-methyl-7-oxo-1-azabicyclo[3.2.0]hept-2-ene-2-carboxylate

> <PUBCHEM_IUPAC_SYSTEMATIC_NAME>
(4R,5S,6S)-3-(6,7-dihydro-5H-pyrazolo[1,2-a][1,2,4]triazol-4-ium-6-ylsulfanyl)-4-methyl-6-[(1R)-1-oxidanylethyl]-7-oxidanylidene-1-azabicyclo[3.2.0]hept-2-ene-2-carboxylate

> <PUBCHEM_IUPAC_TRADITIONAL_NAME>
(4R,5S,6S)-3-(6,7-dihydro-5H-pyrazolo[1,2-a][1,2,4]triazol-4-ium-6-ylthio)-6-[(1R)-1-hydroxyethyl]-7-keto-4-methyl-1-azabicyclo[3.2.0]hept-2-ene-2-carboxylate

> <PUBCHEM_IUPAC_INCHI>
InChI=1S/C15H18N4O4S/c1-7-11-10(8(2)20)14(21)19(11)12(15(22)23)13(7)24-9-3-17-5-16-6-18(17)4-9/h5-11,20H,3-4H2,1-2H3/t7-,8-,10-,11-/m1/s1

> <PUBCHEM_IUPAC_INCHIKEY>
MRMBZHPJVKCOMA-YJFSRANCSA-N

> <PUBCHEM_XLOGP3_AA>
1.4

> <PUBCHEM_EXACT_MASS>
350.104876

> <PUBCHEM_MOLECULAR_FORMULA>
C15H18N4O4S

> <PUBCHEM_MOLECULAR_WEIGHT>
350.39282

> <PUBCHEM_OPENEYE_CAN_SMILES>
CC1C2C(C(=O)N2C(=C1SC3CN4C=NC=[N+]4C3)C(=O)[O-])C(C)O

> <PUBCHEM_OPENEYE_ISO_SMILES>
C[C@@H]1[C@@H]2[C@H](C(=O)N2C(=C1SC3CN4C=NC=[N+]4C3)C(=O)[O-])[C@@H](C)O

> <PUBCHEM_CACTVS_TPSA>
128

> <PUBCHEM_MONOISOTOPIC_WEIGHT>
350.104876

> <PUBCHEM_TOTAL_CHARGE>
0

> <PUBCHEM_HEAVY_ATOM_COUNT>
24

> <PUBCHEM_ATOM_DEF_STEREO_COUNT>
4

> <PUBCHEM_ATOM_UDEF_STEREO_COUNT>
1

> <PUBCHEM_BOND_DEF_STEREO_COUNT>
0

> <PUBCHEM_BOND_UDEF_STEREO_COUNT>
0

> <PUBCHEM_ISOTOPIC_ATOM_COUNT>
0

> <PUBCHEM_COMPONENT_COUNT>
1

> <PUBCHEM_CACTVS_TAUTO_COUNT>
2

> <PUBCHEM_COORDINATE_TYPE>
1
5
255

> <PUBCHEM_BONDANNOTATIONS>
18  1  3
10  25  6
11  26  5
12  17  5
16  3  6
7  23  8
7  8  8
8  24  8
9  23  8
9  24  8

$$$$

