255
  -OEChem-07051212483D

 32 33  0     0  0  0  0  0  0999 V2000
   -0.0208    1.8868    0.2487 P   0  0  0  0  0  0  0  0  0  0  0  0
   -0.6724    0.6004   -0.4883 O   0  0  0  0  0  0  0  0  0  0  0  0
    1.4383    2.0229   -0.4311 O   0  0  0  0  0  0  0  0  0  0  0  0
   -0.8203    3.1368   -0.4010 O   0  0  0  0  0  0  0  0  0  0  0  0
   -0.0273    1.8556    1.7504 O   0  0  0  0  0  0  0  0  0  0  0  0
   -6.7088   -0.4746    0.8489 O   0  5  0  0  0  0  0  0  0  0  0  0
    5.4287   -2.6212    0.9434 O   0  5  0  0  0  0  0  0  0  0  0  0
   -6.3227   -2.1301   -0.5401 O   0  0  0  0  0  0  0  0  0  0  0  0
    6.6987   -1.3985   -0.3648 O   0  0  0  0  0  0  0  0  0  0  0  0
   -5.9408   -1.1149    0.0908 N   0  3  0  0  0  0  0  0  0  0  0  0
    5.6084   -1.6132    0.2181 N   0  3  0  0  0  0  0  0  0  0  0  0
   -1.9596    0.1810   -0.3465 C   0  0  0  0  0  0  0  0  0  0  0  0
    2.4632    1.1297   -0.2713 C   0  0  0  0  0  0  0  0  0  0  0  0
   -2.8323    0.8783    0.4888 C   0  0  0  0  0  0  0  0  0  0  0  0
    2.2800    0.0057    0.5274 C   0  0  0  0  0  0  0  0  0  0  0  0
   -2.4062   -0.9453   -1.0375 C   0  0  0  0  0  0  0  0  0  0  0  0
    3.6783    1.3529   -0.9100 C   0  0  0  0  0  0  0  0  0  0  0  0
   -4.5983   -0.6769   -0.0579 C   0  0  0  0  0  0  0  0  0  0  0  0
    4.5450   -0.6870    0.0514 C   0  0  0  0  0  0  0  0  0  0  0  0
   -4.1517    0.4493    0.6331 C   0  0  0  0  0  0  0  0  0  0  0  0
    3.3240   -0.9052    0.6892 C   0  0  0  0  0  0  0  0  0  0  0  0
   -3.7256   -1.3743   -0.8934 C   0  0  0  0  0  0  0  0  0  0  0  0
    4.7222    0.4419   -0.7483 C   0  0  0  0  0  0  0  0  0  0  0  0
   -2.5310    1.7587    1.0449 H   0  0  0  0  0  0  0  0  0  0  0  0
    1.3487   -0.2080    1.0388 H   0  0  0  0  0  0  0  0  0  0  0  0
   -1.7302   -1.4920   -1.6894 H   0  0  0  0  0  0  0  0  0  0  0  0
    3.8201    2.2309   -1.5338 H   0  0  0  0  0  0  0  0  0  0  0  0
   -4.8037    1.0167    1.2924 H   0  0  0  0  0  0  0  0  0  0  0  0
    3.1501   -1.7742    1.3189 H   0  0  0  0  0  0  0  0  0  0  0  0
   -4.0384   -2.2560   -1.4469 H   0  0  0  0  0  0  0  0  0  0  0  0
    5.6595    0.6445   -1.2602 H   0  0  0  0  0  0  0  0  0  0  0  0
   -0.6593    4.0371   -0.0464 H   0  0  0  0  0  0  0  0  0  0  0  0
  1  2  1  0  0  0  0
  1  3  1  0  0  0  0
  1  4  1  0  0  0  0
  1  5  2  0  0  0  0
  2 12  1  0  0  0  0
  3 13  1  0  0  0  0
  4 32  1  0  0  0  0
  6 10  1  0  0  0  0
  7 11  1  0  0  0  0
  8 10  2  0  0  0  0
  9 11  2  0  0  0  0
 10 18  1  0  0  0  0
 11 19  1  0  0  0  0
 12 14  2  0  0  0  0
 12 16  1  0  0  0  0
 13 15  2  0  0  0  0
 13 17  1  0  0  0  0
 14 20  1  0  0  0  0
 14 24  1  0  0  0  0
 15 21  1  0  0  0  0
 15 25  1  0  0  0  0
 16 22  2  0  0  0  0
 16 26  1  0  0  0  0
 17 23  2  0  0  0  0
 17 27  1  0  0  0  0
 18 20  2  0  0  0  0
 18 22  1  0  0  0  0
 19 21  2  0  0  0  0
 19 23  1  0  0  0  0
 20 28  1  0  0  0  0
 21 29  1  0  0  0  0
 22 30  1  0  0  0  0
 23 31  1  0  0  0  0
M  CHG  4   6  -1   7  -1  10   1  11   1
M  END
> <PUBCHEM_COMPOUND_CID>
255

> <PUBCHEM_CONFORMER_RMSD>
0.8

> <PUBCHEM_CONFORMER_DIVERSEORDER>
1
4
3
9
10
11
15
14
2
12
13
6
7
5
8

> <PUBCHEM_MMFF94_PARTIAL_CHARGES>
32
1 1.51
10 0.91
11 0.91
12 0.08
13 0.08
14 -0.15
15 -0.15
16 -0.15
17 -0.15
18 0.13
19 0.13
2 -0.35
20 -0.15
21 -0.15
22 -0.15
23 -0.15
24 0.15
25 0.15
26 0.15
27 0.15
28 0.15
29 0.15
3 -0.35
30 0.15
31 0.15
32 0.5
4 -0.77
5 -0.7
6 -0.52
7 -0.52
8 -0.52
9 -0.52

> <PUBCHEM_EFFECTIVE_ROTOR_COUNT>
6

> <PUBCHEM_PHARMACOPHORE_FEATURES>
10
1 4 acceptor
1 5 acceptor
1 6 acceptor
1 6 anion
1 7 acceptor
1 7 anion
1 8 acceptor
1 9 acceptor
6 12 14 16 18 20 22 rings
6 13 15 17 19 21 23 rings

> <PUBCHEM_HEAVY_ATOM_COUNT>
23

> <PUBCHEM_ATOM_DEF_STEREO_COUNT>
0

> <PUBCHEM_ATOM_UDEF_STEREO_COUNT>
0

> <PUBCHEM_BOND_DEF_STEREO_COUNT>
0

> <PUBCHEM_BOND_UDEF_STEREO_COUNT>
0

> <PUBCHEM_ISOTOPIC_ATOM_COUNT>
0

> <PUBCHEM_COMPONENT_COUNT>
1

> <PUBCHEM_CACTVS_TAUTO_COUNT>
1

> <PUBCHEM_CONFORMER_ID>
000000FF00000001

> <PUBCHEM_MMFF94_ENERGY>
51.2998

> <PUBCHEM_FEATURE_SELFOVERLAP>
50.917

> <PUBCHEM_SHAPE_FINGERPRINT>
10622 236 17843138145113017722
10753850 27 18343305881334381586
12107183 9 18263635324879439665
12166972 35 17989485212495210342
12236239 1 18409162208032200369
12553582 1 18338812155462251948
12592606 108 18409450263811646063
12596602 18 17676487228836954859
12633257 1 15502668074260251970
12760667 363 18412543227888821299
13533116 47 18339922623667962896
13551218 46 18334856142901756055
13685833 64 18413107251367905691
13862211 1 18261112942162542223
13955234 65 18048034069278455593
14123256 34 18411695495623251546
14251752 14 18272656787635765093
14251764 30 18342740702198280155
14347332 77 18272374225889786740
14528608 73 11240004438590289991
14576447 43 18272932765460291162
15188451 53 16226626086990201751
15537594 2 18337670810916544198
17492 89 18194965369263990118
1813 80 18411407415018638164
19784866 140 17988928872654953017
19784866 240 18412539920537266909
1979834 28 16950271923494541790
200 152 18201154442706558128
20028762 73 18408604786203505070
21267235 1 18411131450732484814
21344244 181 17561358470157459531
21637258 2 18341620321123673568
221357 26 17917997178439257348
22950370 63 18411980239375795717
23522609 53 18122029144570230061
23559900 14 18268996372025098945
23622692 118 18341893035005858676
270888 7 8790588317982492018
2767999 5 9367344825427498638
2838139 119 8430320116862534842
2871803 45 17703792526698053168
3004659 81 18131354111537992170
3411729 13 16951980431679024208
3472631 163 10159690309520732010
34797466 226 15841263757907171639
351380 3 18410576188612371646
46194498 28 16845011199874303996
465052 167 18336259059498155071
5104073 3 17460027397612237003
54039377 194 18340201986270227262
559249 180 18408604799177181205
7970288 3 18411704283147808474

> <PUBCHEM_SHAPE_MULTIPOLES>
420.26
16.03
2.46
1.02
3.27
0.53
-0.12
-12.84
-0.48
-1.12
-0.08
0
0.08
-1.49

> <PUBCHEM_SHAPE_SELFOVERLAP>
887.457

> <PUBCHEM_SHAPE_VOLUME>
236.5

> <PUBCHEM_COORDINATE_TYPE>
2
5
10

$$$$

