73574
  -OEChem-07051212522D

 50 54  0     1  0  0  0  0  0999 V2000
    2.5405   -0.1655    0.0000 O   0  0  0  0  0  0  0  0  0  0  0  0
    2.5247   -2.2138    0.0000 O   0  0  0  0  0  0  0  0  0  0  0  0
    6.9088   -0.6687    0.0000 O   0  0  0  0  0  0  0  0  0  0  0  0
    7.0009   -1.7142    0.0000 O   0  0  0  0  0  0  0  0  0  0  0  0
    7.8129    0.8282    0.0000 O   0  0  0  0  0  0  0  0  0  0  0  0
    4.2889    2.8628    0.0000 O   0  0  0  0  0  0  0  0  0  0  0  0
    5.1702    4.4754    0.0000 O   0  0  0  0  0  0  0  0  0  0  0  0
    7.0447   -4.8056    0.0000 O   0  0  0  0  0  0  0  0  0  0  0  0
    7.8934   -3.2956    0.0000 O   0  0  0  0  0  0  0  0  0  0  0  0
    8.7850    4.4893    0.0000 O   0  0  0  0  0  0  0  0  0  0  0  0
    3.4007   -0.6755    0.0000 C   0  0  2  0  0  0  0  0  0  0  0  0
    3.3926   -1.7171    0.0000 C   0  0  2  0  0  0  0  0  0  0  0  0
    4.3107   -0.1687    0.0000 C   0  0  0  0  0  0  0  0  0  0  0  0
    5.1767   -0.6687    0.0000 C   0  0  0  0  0  0  0  0  0  0  0  0
    4.2947   -2.2379    0.0000 C   0  0  0  0  0  0  0  0  0  0  0  0
    5.1928   -1.7102    0.0000 C   0  0  0  0  0  0  0  0  0  0  0  0
    6.0427   -0.1687    0.0000 C   0  0  0  0  0  0  0  0  0  0  0  0
    4.3107    0.8313    0.0000 C   0  0  0  0  0  0  0  0  0  0  0  0
    6.0427    0.8313    0.0000 C   0  0  0  0  0  0  0  0  0  0  0  0
    5.1767    1.3313    0.0000 C   0  0  0  0  0  0  0  0  0  0  0  0
    6.1447   -2.2308    0.0000 C   0  0  0  0  0  0  0  0  0  0  0  0
    4.2864   -3.3229    0.0000 C   0  0  0  0  0  0  0  0  0  0  0  0
    5.2260   -3.8654    0.0000 C   0  0  0  0  0  0  0  0  0  0  0  0
    6.1614   -3.3157    0.0000 C   0  0  0  0  0  0  0  0  0  0  0  0
    6.9527    1.3382    0.0000 C   0  0  0  0  0  0  0  0  0  0  0  0
    5.1606    2.3728    0.0000 C   0  0  0  0  0  0  0  0  0  0  0  0
    6.0587    2.9006    0.0000 C   0  0  0  0  0  0  0  0  0  0  0  0
    6.9608    2.3798    0.0000 C   0  0  0  0  0  0  0  0  0  0  0  0
    5.2298   -4.8654    0.0000 C   0  0  0  0  0  0  0  0  0  0  0  0
    6.0420    3.9854    0.0000 C   0  0  0  0  0  0  0  0  0  0  0  0
    7.9086    2.9077    0.0000 C   0  0  0  0  0  0  0  0  0  0  0  0
    7.0332   -3.8056    0.0000 C   0  0  0  0  0  0  0  0  0  0  0  0
    7.9170    3.9927    0.0000 C   0  0  0  0  0  0  0  0  0  0  0  0
    6.9774    4.5352    0.0000 C   0  0  0  0  0  0  0  0  0  0  0  0
    3.4090   -0.0556    0.0000 H   0  0  0  0  0  0  0  0  0  0  0  0
    3.3914   -2.3371    0.0000 H   0  0  0  0  0  0  0  0  0  0  0  0
    3.7737    1.1413    0.0000 H   0  0  0  0  0  0  0  0  0  0  0  0
    3.7482   -3.6308    0.0000 H   0  0  0  0  0  0  0  0  0  0  0  0
    2.0000   -0.4693    0.0000 H   0  0  0  0  0  0  0  0  0  0  0  0
    2.5223   -2.8338    0.0000 H   0  0  0  0  0  0  0  0  0  0  0  0
    4.6098   -4.8678    0.0000 H   0  0  0  0  0  0  0  0  0  0  0  0
    5.2322   -5.4854    0.0000 H   0  0  0  0  0  0  0  0  0  0  0  0
    5.8498   -4.8630    0.0000 H   0  0  0  0  0  0  0  0  0  0  0  0
    7.4457   -0.3587    0.0000 H   0  0  0  0  0  0  0  0  0  0  0  0
    8.4420    2.5915    0.0000 H   0  0  0  0  0  0  0  0  0  0  0  0
    7.5437   -2.0138    0.0000 H   0  0  0  0  0  0  0  0  0  0  0  0
    6.9750    5.1552    0.0000 H   0  0  0  0  0  0  0  0  0  0  0  0
    5.1630    5.0954    0.0000 H   0  0  0  0  0  0  0  0  0  0  0  0
    7.5852   -5.1093    0.0000 H   0  0  0  0  0  0  0  0  0  0  0  0
    8.7873    5.1093    0.0000 H   0  0  0  0  0  0  0  0  0  0  0  0
 11  1  1  1  0  0  0
  1 39  1  0  0  0  0
 12  2  1  6  0  0  0
  2 40  1  0  0  0  0
  3 17  1  0  0  0  0
  3 44  1  0  0  0  0
  4 21  1  0  0  0  0
  4 46  1  0  0  0  0
  5 25  2  0  0  0  0
  6 26  2  0  0  0  0
  7 30  1  0  0  0  0
  7 48  1  0  0  0  0
  8 32  1  0  0  0  0
  8 49  1  0  0  0  0
  9 32  2  0  0  0  0
 10 33  1  0  0  0  0
 10 50  1  0  0  0  0
 11 12  1  0  0  0  0
 11 13  1  0  0  0  0
 11 35  1  0  0  0  0
 12 15  1  0  0  0  0
 12 36  1  0  0  0  0
 13 14  1  0  0  0  0
 13 18  2  0  0  0  0
 14 16  1  0  0  0  0
 14 17  2  0  0  0  0
 15 16  2  0  0  0  0
 15 22  1  0  0  0  0
 16 21  1  0  0  0  0
 17 19  1  0  0  0  0
 18 20  1  0  0  0  0
 18 37  1  0  0  0  0
 19 20  2  0  0  0  0
 19 25  1  0  0  0  0
 20 26  1  0  0  0  0
 21 24  2  0  0  0  0
 22 23  2  0  0  0  0
 22 38  1  0  0  0  0
 23 24  1  0  0  0  0
 23 29  1  0  0  0  0
 24 32  1  0  0  0  0
 25 28  1  0  0  0  0
 26 27  1  0  0  0  0
 27 28  2  0  0  0  0
 27 30  1  0  0  0  0
 28 31  1  0  0  0  0
 29 41  1  0  0  0  0
 29 42  1  0  0  0  0
 29 43  1  0  0  0  0
 30 34  2  0  0  0  0
 31 33  2  0  0  0  0
 31 45  1  0  0  0  0
 33 34  1  0  0  0  0
 34 47  1  0  0  0  0
M  END
> <PUBCHEM_COMPOUND_CID>
73574

> <PUBCHEM_COMPOUND_CANONICALIZED>
1

> <PUBCHEM_CACTVS_COMPLEXITY>
876

> <PUBCHEM_CACTVS_HBOND_ACCEPTOR>
10

> <PUBCHEM_CACTVS_HBOND_DONOR>
7

> <PUBCHEM_CACTVS_ROTATABLE_BOND>
1

> <PUBCHEM_CACTVS_SUBSKEYS>
AAADceB4PAAAAAAAAAAAAAAAAAAAAAAAAAAwYMGDAAAAAADBUAAAGgAACAAADBSgmAIyDoAAAgCIAqDSCAACAAAkIAAAiAEGCMgJNzaCFRKAcUAl4BUJmYfL7PTO4AADCAAYAADAAAYQADCAAAAAAAAAAA==

> <PUBCHEM_IUPAC_OPENEYE_NAME>
(5S,6S)-1,5,6,9,11,14-hexahydroxy-3-methyl-8,13-dioxo-5,6-dihydrobenzo[a]tetracene-2-carboxylic acid

> <PUBCHEM_IUPAC_CAS_NAME>
(5S,6S)-1,5,6,9,11,14-hexahydroxy-3-methyl-8,13-dioxo-5,6-dihydrobenzo[a]tetracene-2-carboxylic acid

> <PUBCHEM_IUPAC_NAME>
(5S,6S)-1,5,6,9,11,14-hexahydroxy-3-methyl-8,13-dioxo-5,6-dihydrobenzo[a]tetracene-2-carboxylic acid

> <PUBCHEM_IUPAC_SYSTEMATIC_NAME>
(5S,6S)-3-methyl-1,5,6,9,11,14-hexakis(oxidanyl)-8,13-bis(oxidanylidene)-5,6-dihydrobenzo[a]tetracene-2-carboxylic acid

> <PUBCHEM_IUPAC_TRADITIONAL_NAME>
(5S,6S)-1,5,6,9,11,14-hexahydroxy-8,13-diketo-3-methyl-5,6-dihydrobenzo[a]tetracene-2-carboxylic acid

> <PUBCHEM_IUPAC_INCHI>
InChI=1S/C24H16O10/c1-6-2-8-15(22(31)13(6)24(33)34)16-10(21(30)20(8)29)5-11-17(23(16)32)19(28)9-3-7(25)4-12(26)14(9)18(11)27/h2-5,20-21,25-26,29-32H,1H3,(H,33,34)/t20-,21-/m0/s1

> <PUBCHEM_IUPAC_INCHIKEY>
ROFMCMXCPNFONV-SFTDATJTSA-N

> <PUBCHEM_XLOGP3_AA>
2.7

> <PUBCHEM_EXACT_MASS>
464.074347

> <PUBCHEM_MOLECULAR_FORMULA>
C24H16O10

> <PUBCHEM_MOLECULAR_WEIGHT>
464.37784

> <PUBCHEM_OPENEYE_CAN_SMILES>
CC1=C(C(=C2C(=C1)C(C(C3=C2C(=C4C(=C3)C(=O)C5=C(C=C(C=C5C4=O)O)O)O)O)O)O)C(=O)O

> <PUBCHEM_OPENEYE_ISO_SMILES>
CC1=C(C(=C2C(=C1)[C@@H]([C@H](C3=C2C(=C4C(=C3)C(=O)C5=C(C=C(C=C5C4=O)O)O)O)O)O)O)C(=O)O

> <PUBCHEM_CACTVS_TPSA>
193

> <PUBCHEM_MONOISOTOPIC_WEIGHT>
464.074347

> <PUBCHEM_TOTAL_CHARGE>
0

> <PUBCHEM_HEAVY_ATOM_COUNT>
34

> <PUBCHEM_ATOM_DEF_STEREO_COUNT>
2

> <PUBCHEM_ATOM_UDEF_STEREO_COUNT>
0

> <PUBCHEM_BOND_DEF_STEREO_COUNT>
0

> <PUBCHEM_BOND_UDEF_STEREO_COUNT>
0

> <PUBCHEM_ISOTOPIC_ATOM_COUNT>
0

> <PUBCHEM_COMPONENT_COUNT>
1

> <PUBCHEM_CACTVS_TAUTO_COUNT>
994

> <PUBCHEM_COORDINATE_TYPE>
1
5
255

> <PUBCHEM_BONDANNOTATIONS>
11  1  5
13  14  8
13  18  8
14  17  8
15  16  8
15  22  8
16  21  8
17  19  8
18  20  8
19  20  8
12  2  6
21  24  8
22  23  8
23  24  8
27  28  8
27  30  8
28  31  8
30  34  8
31  33  8
33  34  8

$$$$

