15588758
  -OEChem-07051213113D

 77 80  0     1  0  0  0  0  0999 V2000
    1.8318   -0.5810    1.3159 O   0  0  0  0  0  0  0  0  0  0  0  0
   -1.2782   -0.5210   -0.6553 O   0  0  0  0  0  0  0  0  0  0  0  0
    3.2911   -0.4224   -0.5365 O   0  0  0  0  0  0  0  0  0  0  0  0
   -3.2067    0.7830   -0.5288 O   0  0  0  0  0  0  0  0  0  0  0  0
   -0.5186   -0.0794    2.7373 O   0  0  0  0  0  0  0  0  0  0  0  0
    5.4719   -1.9917    0.3992 O   0  0  0  0  0  0  0  0  0  0  0  0
   -4.4635   -1.2205   -0.3640 O   0  0  0  0  0  0  0  0  0  0  0  0
    8.0449   -1.0532   -0.5541 O   0  0  0  0  0  0  0  0  0  0  0  0
   -4.5652    1.4434   -2.8938 O   0  0  0  0  0  0  0  0  0  0  0  0
   -7.3287    1.2189   -2.0642 O   0  0  0  0  0  0  0  0  0  0  0  0
   -7.5721    0.4545    0.6942 O   0  0  0  0  0  0  0  0  0  0  0  0
   -4.6927   -2.3803    2.0967 O   0  0  0  0  0  0  0  0  0  0  0  0
   -2.2609    2.0183    1.9000 N   0  0  0  0  0  0  0  0  0  0  0  0
    2.7915   -3.1350   -1.2374 N   0  0  0  0  0  0  0  0  0  0  0  0
    3.6349    2.4422   -0.2147 N   0  0  0  0  0  0  0  0  0  0  0  0
    8.4744    1.7823   -0.2001 N   0  0  0  0  0  0  0  0  0  0  0  0
    0.6956   -0.0158    0.6609 C   0  0  1  0  0  0  0  0  0  0  0  0
   -0.1670   -1.1074    0.0209 C   0  0  2  0  0  0  0  0  0  0  0  0
   -0.1374    0.7865    1.6658 C   0  0  1  0  0  0  0  0  0  0  0  0
    0.6672   -1.9081   -0.9777 C   0  0  0  0  0  0  0  0  0  0  0  0
   -1.3853    1.3321    0.9495 C   0  0  1  0  0  0  0  0  0  0  0  0
    1.9326   -2.4294   -0.2894 C   0  0  2  0  0  0  0  0  0  0  0  0
    2.6953   -1.2966    0.4216 C   0  0  2  0  0  0  0  0  0  0  0  0
   -2.1463    0.2005    0.2285 C   0  0  2  0  0  0  0  0  0  0  0  0
    4.5024    0.1503   -0.0353 C   0  0  2  0  0  0  0  0  0  0  0  0
    4.7032    1.5405   -0.6528 C   0  0  2  0  0  0  0  0  0  0  0  0
    5.6595   -0.7981   -0.3673 C   0  0  1  0  0  0  0  0  0  0  0  0
    7.0280   -0.1971   -0.0265 C   0  0  2  0  0  0  0  0  0  0  0  0
    6.0582    2.1321   -0.2550 C   0  0  0  0  0  0  0  0  0  0  0  0
    7.2064    1.1964   -0.6438 C   0  0  1  0  0  0  0  0  0  0  0  0
   -3.9470   -0.2115   -1.2342 C   0  0  1  0  0  0  0  0  0  0  0  0
   -5.0685    0.3852   -2.0862 C   0  0  1  0  0  0  0  0  0  0  0  0
   -6.2151    0.9083   -1.2234 C   0  0  2  0  0  0  0  0  0  0  0  0
   -6.6571   -0.1536   -0.2145 C   0  0  1  0  0  0  0  0  0  0  0  0
   -5.4555   -0.7310    0.5457 C   0  0  1  0  0  0  0  0  0  0  0  0
   -1.7699    3.3591    2.1759 C   0  0  0  0  0  0  0  0  0  0  0  0
   -5.8529   -1.9002    1.4427 C   0  0  0  0  0  0  0  0  0  0  0  0
    1.0359    0.6851   -0.1121 H   0  0  0  0  0  0  0  0  0  0  0  0
   -0.5366   -1.8183    0.7710 H   0  0  0  0  0  0  0  0  0  0  0  0
    0.4784    1.5806    2.0999 H   0  0  0  0  0  0  0  0  0  0  0  0
    0.0694   -2.7353   -1.3811 H   0  0  0  0  0  0  0  0  0  0  0  0
    0.9210   -1.2758   -1.8393 H   0  0  0  0  0  0  0  0  0  0  0  0
   -1.0621    2.0364    0.1689 H   0  0  0  0  0  0  0  0  0  0  0  0
    1.6090   -3.1454    0.4781 H   0  0  0  0  0  0  0  0  0  0  0  0
    3.4263   -1.7661    1.0790 H   0  0  0  0  0  0  0  0  0  0  0  0
   -2.5695   -0.4983    0.9593 H   0  0  0  0  0  0  0  0  0  0  0  0
    4.4264    0.2675    1.0567 H   0  0  0  0  0  0  0  0  0  0  0  0
    4.6432    1.4629   -1.7459 H   0  0  0  0  0  0  0  0  0  0  0  0
    5.6157   -1.1034   -1.4195 H   0  0  0  0  0  0  0  0  0  0  0  0
    7.1691   -0.1661    1.0611 H   0  0  0  0  0  0  0  0  0  0  0  0
    6.1937    3.1069   -0.7428 H   0  0  0  0  0  0  0  0  0  0  0  0
    6.0799    2.3167    0.8286 H   0  0  0  0  0  0  0  0  0  0  0  0
    7.2486    1.1094   -1.7373 H   0  0  0  0  0  0  0  0  0  0  0  0
   -3.1968    2.0942    1.5009 H   0  0  0  0  0  0  0  0  0  0  0  0
   -3.2624   -0.7079   -1.9324 H   0  0  0  0  0  0  0  0  0  0  0  0
    3.5963   -3.5238   -0.7476 H   0  0  0  0  0  0  0  0  0  0  0  0
    2.2863   -3.9243   -1.6375 H   0  0  0  0  0  0  0  0  0  0  0  0
   -1.1728   -0.7242    2.4293 H   0  0  0  0  0  0  0  0  0  0  0  0
   -5.4619   -0.3851   -2.7621 H   0  0  0  0  0  0  0  0  0  0  0  0
   -5.9356    1.8431   -0.7237 H   0  0  0  0  0  0  0  0  0  0  0  0
    2.7367    2.0873   -0.5386 H   0  0  0  0  0  0  0  0  0  0  0  0
    3.7562    3.3549   -0.6517 H   0  0  0  0  0  0  0  0  0  0  0  0
   -7.1973   -0.9539   -0.7348 H   0  0  0  0  0  0  0  0  0  0  0  0
   -5.0000    0.0374    1.1840 H   0  0  0  0  0  0  0  0  0  0  0  0
    9.2462    1.1832   -0.4901 H   0  0  0  0  0  0  0  0  0  0  0  0
    8.6170    2.6802   -0.6607 H   0  0  0  0  0  0  0  0  0  0  0  0
    5.6350   -1.7784    1.3340 H   0  0  0  0  0  0  0  0  0  0  0  0
   -0.7915    3.3501    2.6644 H   0  0  0  0  0  0  0  0  0  0  0  0
   -2.4620    3.8588    2.8616 H   0  0  0  0  0  0  0  0  0  0  0  0
   -1.7132    3.9677    1.2671 H   0  0  0  0  0  0  0  0  0  0  0  0
    7.9332   -1.0941   -1.5192 H   0  0  0  0  0  0  0  0  0  0  0  0
   -6.5841   -1.5945    2.1971 H   0  0  0  0  0  0  0  0  0  0  0  0
   -6.2665   -2.7228    0.8499 H   0  0  0  0  0  0  0  0  0  0  0  0
   -3.8379    1.0830   -3.4292 H   0  0  0  0  0  0  0  0  0  0  0  0
   -7.5921    0.4074   -2.5308 H   0  0  0  0  0  0  0  0  0  0  0  0
   -7.0932    1.1426    1.1868 H   0  0  0  0  0  0  0  0  0  0  0  0
   -4.9674   -3.1246    2.6589 H   0  0  0  0  0  0  0  0  0  0  0  0
  1 17  1  0  0  0  0
  1 23  1  0  0  0  0
  2 18  1  0  0  0  0
  2 24  1  0  0  0  0
  3 23  1  0  0  0  0
  3 25  1  0  0  0  0
  4 24  1  0  0  0  0
  4 31  1  0  0  0  0
  5 19  1  0  0  0  0
  5 58  1  0  0  0  0
  6 27  1  0  0  0  0
  6 67  1  0  0  0  0
  7 31  1  0  0  0  0
  7 35  1  0  0  0  0
  8 28  1  0  0  0  0
  8 71  1  0  0  0  0
  9 32  1  0  0  0  0
  9 74  1  0  0  0  0
 10 33  1  0  0  0  0
 10 75  1  0  0  0  0
 11 34  1  0  0  0  0
 11 76  1  0  0  0  0
 12 37  1  0  0  0  0
 12 77  1  0  0  0  0
 13 21  1  0  0  0  0
 13 36  1  0  0  0  0
 13 54  1  0  0  0  0
 14 22  1  0  0  0  0
 14 56  1  0  0  0  0
 14 57  1  0  0  0  0
 15 26  1  0  0  0  0
 15 61  1  0  0  0  0
 15 62  1  0  0  0  0
 16 30  1  0  0  0  0
 16 65  1  0  0  0  0
 16 66  1  0  0  0  0
 17 18  1  0  0  0  0
 17 19  1  0  0  0  0
 17 38  1  0  0  0  0
 18 20  1  0  0  0  0
 18 39  1  0  0  0  0
 19 21  1  0  0  0  0
 19 40  1  0  0  0  0
 20 22  1  0  0  0  0
 20 41  1  0  0  0  0
 20 42  1  0  0  0  0
 21 24  1  0  0  0  0
 21 43  1  0  0  0  0
 22 23  1  0  0  0  0
 22 44  1  0  0  0  0
 23 45  1  0  0  0  0
 24 46  1  0  0  0  0
 25 26  1  0  0  0  0
 25 27  1  0  0  0  0
 25 47  1  0  0  0  0
 26 29  1  0  0  0  0
 26 48  1  0  0  0  0
 27 28  1  0  0  0  0
 27 49  1  0  0  0  0
 28 30  1  0  0  0  0
 28 50  1  0  0  0  0
 29 30  1  0  0  0  0
 29 51  1  0  0  0  0
 29 52  1  0  0  0  0
 30 53  1  0  0  0  0
 31 32  1  0  0  0  0
 31 55  1  0  0  0  0
 32 33  1  0  0  0  0
 32 59  1  0  0  0  0
 33 34  1  0  0  0  0
 33 60  1  0  0  0  0
 34 35  1  0  0  0  0
 34 63  1  0  0  0  0
 35 37  1  0  0  0  0
 35 64  1  0  0  0  0
 36 68  1  0  0  0  0
 36 69  1  0  0  0  0
 36 70  1  0  0  0  0
 37 72  1  0  0  0  0
 37 73  1  0  0  0  0
M  END
> <PUBCHEM_COMPOUND_CID>
15588758

> <PUBCHEM_CONFORMER_RMSD>
1

> <PUBCHEM_CONFORMER_DIVERSEORDER>
1
36
37
10
26
16
11
8
33
39
19
32
7
5
40
31
23
25
18
29
34
9
24
27
21
17
38
20
3
13
15
28
22
14
12
2
41
35
30
4
6

> <PUBCHEM_MMFF94_PARTIAL_CHARGES>
49
1 -0.56
10 -0.68
11 -0.68
12 -0.68
13 -0.9
14 -0.99
15 -0.99
16 -0.99
17 0.28
18 0.28
19 0.28
2 -0.56
21 0.27
22 0.27
23 0.56
24 0.56
25 0.28
26 0.27
27 0.28
28 0.28
3 -0.56
30 0.27
31 0.56
32 0.28
33 0.28
34 0.28
35 0.28
36 0.27
37 0.28
4 -0.56
5 -0.68
54 0.36
56 0.36
57 0.36
58 0.4
6 -0.68
61 0.36
62 0.36
65 0.36
66 0.36
67 0.4
7 -0.56
71 0.4
74 0.4
75 0.4
76 0.4
77 0.4
8 -0.68
9 -0.68

> <PUBCHEM_EFFECTIVE_ROTOR_COUNT>
10

> <PUBCHEM_PHARMACOPHORE_FEATURES>
31
1 1 acceptor
1 10 acceptor
1 10 donor
1 11 acceptor
1 11 donor
1 12 acceptor
1 12 donor
1 13 cation
1 13 donor
1 14 cation
1 14 donor
1 15 cation
1 15 donor
1 16 cation
1 16 donor
1 2 acceptor
1 3 acceptor
1 4 acceptor
1 5 acceptor
1 5 donor
1 6 acceptor
1 6 donor
1 7 acceptor
1 8 acceptor
1 8 donor
1 9 acceptor
1 9 donor
6 1 17 18 20 22 23 rings
6 2 17 18 19 21 24 rings
6 25 26 27 28 29 30 rings
6 7 31 32 33 34 35 rings

> <PUBCHEM_HEAVY_ATOM_COUNT>
37

> <PUBCHEM_ATOM_DEF_STEREO_COUNT>
17

> <PUBCHEM_ATOM_UDEF_STEREO_COUNT>
0

> <PUBCHEM_BOND_DEF_STEREO_COUNT>
0

> <PUBCHEM_BOND_UDEF_STEREO_COUNT>
0

> <PUBCHEM_ISOTOPIC_ATOM_COUNT>
0

> <PUBCHEM_COMPONENT_COUNT>
1

> <PUBCHEM_CACTVS_TAUTO_COUNT>
1

> <PUBCHEM_CONFORMER_ID>
00EDDD9600000001

> <PUBCHEM_MMFF94_ENERGY>
91.0429

> <PUBCHEM_FEATURE_SELFOVERLAP>
157.492

> <PUBCHEM_SHAPE_FINGERPRINT>
10010297 198 17025407132652932727
10835480 77 18272374200394107935
11135926 11 18186800292298847103
12107183 9 11527942366102653436
12107698 1 16732702736302841496
12166972 35 18272646819006407484
12788726 201 18115313409610154115
13540713 5 17679015156493469098
13726171 33 17558844012452782485
13811026 1 18060140929461100004
13911987 19 18260835899586936439
14068700 675 17095246912357192920
14118638 360 17968372451150147754
14294032 229 16878216554307707928
14556957 393 18187079572400082925
14705955 166 15912782656099520796
14767858 380 17967819348992169004
14840074 17 17385725803231043397
14856354 85 17822005372892343951
150020 25 18272651246626754359
15064981 194 18122046634330258508
15131766 46 17200500825229736708
15183329 4 16008746900841236438
15461852 350 16486962999347940658
15537594 2 17240768401980621783
16994733 274 17489314135010919957
18335252 114 18409457981482625636
19319366 153 18186810209399829302
20157964 124 18413389848275384774
20511986 3 15122967209050068671
20554085 129 16271931544805659056
21033648 29 16272205293584636152
21641784 216 18114454651810373465
21792961 116 18410576210514515075
23522609 53 17241026782701722609
4073 2 17703789214925210755
4093350 32 16630256904183261162
4098825 35 18272091642938172565
4258327 124 17559095598619230390
4353968 344 18041838532610655292
437815 12 4823212831480577787
5265222 85 17918280861768091459
6058803 2 17462839114647252786
6371009 1 18334295358281992112
77296 10 17703793647389469522

> <PUBCHEM_SHAPE_MULTIPOLES>
671.09
22.26
2.73
1.96
11.31
0.28
0.07
3.31
-7.1
1.58
0.69
-3.98
0.61
0.94

> <PUBCHEM_SHAPE_SELFOVERLAP>
1393.983

> <PUBCHEM_SHAPE_VOLUME>
375

> <PUBCHEM_COORDINATE_TYPE>
2
5
10

$$$$

