6758
  -OEChem-07051212533D

 51 55  0     1  0  0  0  0  0999 V2000
   -0.7703   -0.6467   -1.2961 O   0  0  0  0  0  0  0  0  0  0  0  0
    1.6648   -2.0388   -1.7327 O   0  0  0  0  0  0  0  0  0  0  0  0
   -4.4750    0.5686    1.2480 O   0  0  0  0  0  0  0  0  0  0  0  0
    0.8178    3.1330   -1.0968 O   0  0  0  0  0  0  0  0  0  0  0  0
    4.7019    1.1118    1.6279 O   0  0  0  0  0  0  0  0  0  0  0  0
    5.0176   -1.6479    1.5673 O   0  0  0  0  0  0  0  0  0  0  0  0
    1.1459    0.8464   -1.7706 C   0  0  2  0  0  0  0  0  0  0  0  0
    0.1501   -0.1891   -2.2971 C   0  0  1  0  0  0  0  0  0  0  0  0
   -1.4089    0.3542   -0.6288 C   0  0  0  0  0  0  0  0  0  0  0  0
    2.1723    0.1970   -0.8706 C   0  0  0  0  0  0  0  0  0  0  0  0
    0.3805    1.9874   -1.1361 C   0  0  0  0  0  0  0  0  0  0  0  0
    0.9228   -1.4097   -2.7833 C   0  0  0  0  0  0  0  0  0  0  0  0
   -2.5985    0.0494    0.0098 C   0  0  0  0  0  0  0  0  0  0  0  0
   -0.9230    1.6594   -0.5264 C   0  0  0  0  0  0  0  0  0  0  0  0
   -3.3631   -1.2197    0.0406 C   0  0  0  0  0  0  0  0  0  0  0  0
   -4.3737   -0.8760    1.1461 C   0  0  2  0  0  0  0  0  0  0  0  0
   -3.3048    1.0251    0.6968 C   0  0  0  0  0  0  0  0  0  0  0  0
    2.3722   -1.1918   -0.9188 C   0  0  0  0  0  0  0  0  0  0  0  0
   -1.6466    2.6472    0.1684 C   0  0  0  0  0  0  0  0  0  0  0  0
    2.9855    0.9577   -0.0162 C   0  0  0  0  0  0  0  0  0  0  0  0
   -2.8597    2.3299    0.7822 C   0  0  0  0  0  0  0  0  0  0  0  0
   -5.7297   -1.4443    0.8920 C   0  0  0  0  0  0  0  0  0  0  0  0
    3.3167   -1.8054   -0.0895 C   0  0  0  0  0  0  0  0  0  0  0  0
    3.9361    0.3442    0.8026 C   0  0  0  0  0  0  0  0  0  0  0  0
    4.0970   -1.0374    0.7708 C   0  0  0  0  0  0  0  0  0  0  0  0
   -6.6540   -0.6041    0.0616 C   0  0  0  0  0  0  0  0  0  0  0  0
   -6.1005   -2.6383    1.3777 C   0  0  0  0  0  0  0  0  0  0  0  0
    4.1977    1.3544    2.9396 C   0  0  0  0  0  0  0  0  0  0  0  0
    6.3290   -1.8161    1.0316 C   0  0  0  0  0  0  0  0  0  0  0  0
    1.6847    1.2603   -2.6346 H   0  0  0  0  0  0  0  0  0  0  0  0
   -0.4337    0.2258   -3.1301 H   0  0  0  0  0  0  0  0  0  0  0  0
    0.2244   -2.1643   -3.1615 H   0  0  0  0  0  0  0  0  0  0  0  0
    1.6097   -1.1538   -3.5992 H   0  0  0  0  0  0  0  0  0  0  0  0
   -3.8359   -1.3974   -0.9315 H   0  0  0  0  0  0  0  0  0  0  0  0
   -2.7502   -2.0837    0.3142 H   0  0  0  0  0  0  0  0  0  0  0  0
   -3.9918   -1.2255    2.1167 H   0  0  0  0  0  0  0  0  0  0  0  0
   -1.2733    3.6651    0.2444 H   0  0  0  0  0  0  0  0  0  0  0  0
    2.8880    2.0396    0.0191 H   0  0  0  0  0  0  0  0  0  0  0  0
   -3.4240    3.0852    1.3175 H   0  0  0  0  0  0  0  0  0  0  0  0
    3.4487   -2.8845   -0.1215 H   0  0  0  0  0  0  0  0  0  0  0  0
   -6.9329    0.3125    0.5911 H   0  0  0  0  0  0  0  0  0  0  0  0
   -6.1838   -0.3331   -0.8893 H   0  0  0  0  0  0  0  0  0  0  0  0
   -7.5815   -1.1366   -0.1765 H   0  0  0  0  0  0  0  0  0  0  0  0
   -7.0887   -3.0436    1.1883 H   0  0  0  0  0  0  0  0  0  0  0  0
   -5.4216   -3.2378    1.9752 H   0  0  0  0  0  0  0  0  0  0  0  0
    3.2443    1.8900    2.8909 H   0  0  0  0  0  0  0  0  0  0  0  0
    4.9208    1.9754    3.4752 H   0  0  0  0  0  0  0  0  0  0  0  0
    4.0728    0.4135    3.4848 H   0  0  0  0  0  0  0  0  0  0  0  0
    6.7752   -0.8456    0.7928 H   0  0  0  0  0  0  0  0  0  0  0  0
    6.2998   -2.4469    0.1376 H   0  0  0  0  0  0  0  0  0  0  0  0
    6.9470   -2.3086    1.7873 H   0  0  0  0  0  0  0  0  0  0  0  0
  1  8  1  0  0  0  0
  1  9  1  0  0  0  0
  2 12  1  0  0  0  0
  2 18  1  0  0  0  0
  3 16  1  0  0  0  0
  3 17  1  0  0  0  0
  4 11  2  0  0  0  0
  5 24  1  0  0  0  0
  5 28  1  0  0  0  0
  6 25  1  0  0  0  0
  6 29  1  0  0  0  0
  7  8  1  0  0  0  0
  7 10  1  0  0  0  0
  7 11  1  0  0  0  0
  7 30  1  0  0  0  0
  8 12  1  0  0  0  0
  8 31  1  0  0  0  0
  9 13  1  0  0  0  0
  9 14  2  0  0  0  0
 10 18  1  0  0  0  0
 10 20  2  0  0  0  0
 11 14  1  0  0  0  0
 12 32  1  0  0  0  0
 12 33  1  0  0  0  0
 13 15  1  0  0  0  0
 13 17  2  0  0  0  0
 14 19  1  0  0  0  0
 15 16  1  0  0  0  0
 15 34  1  0  0  0  0
 15 35  1  0  0  0  0
 16 22  1  0  0  0  0
 16 36  1  0  0  0  0
 17 21  1  0  0  0  0
 18 23  2  0  0  0  0
 19 21  2  0  0  0  0
 19 37  1  0  0  0  0
 20 24  1  0  0  0  0
 20 38  1  0  0  0  0
 21 39  1  0  0  0  0
 22 26  1  0  0  0  0
 22 27  2  0  0  0  0
 23 25  1  0  0  0  0
 23 40  1  0  0  0  0
 24 25  2  0  0  0  0
 26 41  1  0  0  0  0
 26 42  1  0  0  0  0
 26 43  1  0  0  0  0
 27 44  1  0  0  0  0
 27 45  1  0  0  0  0
 28 46  1  0  0  0  0
 28 47  1  0  0  0  0
 28 48  1  0  0  0  0
 29 49  1  0  0  0  0
 29 50  1  0  0  0  0
 29 51  1  0  0  0  0
M  END
> <PUBCHEM_COMPOUND_CID>
6758

> <PUBCHEM_CONFORMER_RMSD>
0.8

> <PUBCHEM_CONFORMER_DIVERSEORDER>
1
4
3
2

> <PUBCHEM_MMFF94_PARTIAL_CHARGES>
35
1 -0.36
10 -0.14
11 0.42
12 0.28
13 -0.14
14 0.09
15 0.14
16 0.42
17 0.08
18 0.08
19 -0.15
2 -0.36
20 -0.15
21 -0.15
22 -0.28
23 -0.15
24 0.08
25 0.08
26 0.14
27 -0.3
28 0.28
29 0.28
3 -0.36
37 0.15
38 0.15
39 0.15
4 -0.57
40 0.15
44 0.15
45 0.15
5 -0.36
6 -0.36
7 0.2
8 0.28
9 0.08

> <PUBCHEM_EFFECTIVE_ROTOR_COUNT>
4.2

> <PUBCHEM_PHARMACOPHORE_FEATURES>
11
1 1 acceptor
1 2 acceptor
1 3 acceptor
1 4 acceptor
1 5 acceptor
1 6 acceptor
5 3 13 15 16 17 rings
6 1 7 8 9 11 14 rings
6 10 18 20 23 24 25 rings
6 2 7 8 10 12 18 rings
6 9 13 14 17 19 21 rings

> <PUBCHEM_HEAVY_ATOM_COUNT>
29

> <PUBCHEM_ATOM_DEF_STEREO_COUNT>
3

> <PUBCHEM_ATOM_UDEF_STEREO_COUNT>
0

> <PUBCHEM_BOND_DEF_STEREO_COUNT>
0

> <PUBCHEM_BOND_UDEF_STEREO_COUNT>
0

> <PUBCHEM_ISOTOPIC_ATOM_COUNT>
0

> <PUBCHEM_COMPONENT_COUNT>
1

> <PUBCHEM_CACTVS_TAUTO_COUNT>
2

> <PUBCHEM_CONFORMER_ID>
00001A6600000001

> <PUBCHEM_MMFF94_ENERGY>
113.0124

> <PUBCHEM_FEATURE_SELFOVERLAP>
56.087

> <PUBCHEM_SHAPE_FINGERPRINT>
10165383 225 17313657158295334844
10319926 262 18189328146771651030
10674148 151 14189581861992239927
11115154 58 15123513618710257583
11720765 8 13110968600191298854
11796584 16 17131829825140467059
11963148 33 17475786556098122043
1200032 147 5978114552271226110
12166972 35 17275099514149032999
12422481 6 18187368739588237197
12633257 1 17240776059680119248
12892183 10 18335143115483850808
12895836 83 7997962471071240083
12895837 130 6266028299518796194
13083527 12 18339918225954021373
13583140 156 18193011515283158764
13911987 19 12532764087287710422
14178342 30 18265884933995598301
14251751 18 17917992738076381027
14341114 328 16443067162250999163
14705955 166 18114743857849017553
14848178 5 17703788098597405339
14931854 50 11095891496714024866
14950920 106 18336839687900886122
15064986 96 17242455155981533870
15183329 4 13110966439906826035
15188451 53 18272654554200056067
15210252 30 6212386571642044232
15475509 8 13686035227896052167
17349148 13 17561068216594447635
1813 80 17203609285195734132
19784866 240 17275099540071531647
1979834 28 17968077717266867159
20028762 73 18202001040590222138
20567600 234 17168145598994424923
20567600 9 8934738668760453931
20626108 58 17275379893834801719
20775530 9 15552494814637294736
21033648 29 17313376898319569593
21304304 249 18342174474963701175
21421861 104 18268688564197909373
21458453 9 17532384062691662619
21756936 100 4678520378404547926
21792934 111 18261660559673288089
22122407 14 16443634617879004641
23536364 44 12534812434204944279
23559900 14 18044629096994899269
23572383 38 18409726292600773535
25222932 49 17622139292969228427
2838139 119 5184061505572021010
3004659 81 17060337409590267611
3459 83 13901639570924692821
3729539 64 11815632899315115737
38570 142 5545202735365465798
3886686 26 17691405634694662939
392239 28 17240492385500843971
394222 165 17906432356056467932
4098825 35 8934707916614987288
427121 178 16660633042792985958
439807 62 17773302441390809275
463206 1 15123793959303957481
49207404 50 17894908593796962956
50009960 94 17840036135196394179
5104073 3 17896021300234354499
6523845 18 17167855353726384780
6823239 73 17970879319642747740
7970288 3 18060701714487825642
960060 61 14405180651448805323

> <PUBCHEM_SHAPE_MULTIPOLES>
561.59
13.41
2.8
2.24
7.41
0.79
0.26
-9.15
-10.41
0.54
-0.2
-2.23
-0.18
0.93

> <PUBCHEM_SHAPE_SELFOVERLAP>
1254.09

> <PUBCHEM_SHAPE_VOLUME>
298.9

> <PUBCHEM_COORDINATE_TYPE>
2
5
10

$$$$

