439838
  -OEChem-07051212472D

 34 35  0     0  0  0  0  0  0999 V2000
    2.3090    1.0304    0.0000 S   0  0  0  0  0  0  0  0  0  0  0  0
    4.0778    3.5620    0.0000 O   0  0  0  0  0  0  0  0  0  0  0  0
    2.4955    2.8575    0.0000 O   0  0  0  0  0  0  0  0  0  0  0  0
    2.8090   -0.5084    0.0000 N   0  3  0  0  0  0  0  0  0  0  0  0
    4.5411   -3.5084    0.0000 N   0  0  0  0  0  0  0  0  0  0  0  0
    5.4071   -2.0084    0.0000 N   0  0  0  0  0  0  0  0  0  0  0  0
    2.8090   -3.5084    0.0000 N   0  0  0  0  0  0  0  0  0  0  0  0
    3.6180    0.0794    0.0000 C   0  0  0  0  0  0  0  0  0  0  0  0
    2.8090   -1.5084    0.0000 C   0  0  0  0  0  0  0  0  0  0  0  0
    3.3090    1.0304    0.0000 C   0  0  0  0  0  0  0  0  0  0  0  0
    3.6750   -2.0084    0.0000 C   0  0  0  0  0  0  0  0  0  0  0  0
    2.0000    0.0794    0.0000 C   0  0  0  0  0  0  0  0  0  0  0  0
    3.8968    1.8394    0.0000 C   0  0  0  0  0  0  0  0  0  0  0  0
    4.5691   -0.2296    0.0000 C   0  0  0  0  0  0  0  0  0  0  0  0
    3.6750   -3.0084    0.0000 C   0  0  0  0  0  0  0  0  0  0  0  0
    4.5411   -1.5084    0.0000 C   0  0  0  0  0  0  0  0  0  0  0  0
    3.4901    2.7530    0.0000 C   0  0  0  0  0  0  0  0  0  0  0  0
    5.4071   -3.0084    0.0000 C   0  0  0  0  0  0  0  0  0  0  0  0
    6.2731   -3.5084    0.0000 C   0  0  0  0  0  0  0  0  0  0  0  0
    2.1984   -1.4008    0.0000 H   0  0  0  0  0  0  0  0  0  0  0  0
    2.5970   -2.0910    0.0000 H   0  0  0  0  0  0  0  0  0  0  0  0
    1.4103   -0.1122    0.0000 H   0  0  0  0  0  0  0  0  0  0  0  0
    4.3275    1.3935    0.0000 H   0  0  0  0  0  0  0  0  0  0  0  0
    4.4108    2.1862    0.0000 H   0  0  0  0  0  0  0  0  0  0  0  0
    4.3775   -0.8193    0.0000 H   0  0  0  0  0  0  0  0  0  0  0  0
    5.1588   -0.4212    0.0000 H   0  0  0  0  0  0  0  0  0  0  0  0
    4.7607    0.3600    0.0000 H   0  0  0  0  0  0  0  0  0  0  0  0
    4.5411   -0.8884    0.0000 H   0  0  0  0  0  0  0  0  0  0  0  0
    2.8090   -4.1284    0.0000 H   0  0  0  0  0  0  0  0  0  0  0  0
    2.2721   -3.1984    0.0000 H   0  0  0  0  0  0  0  0  0  0  0  0
    5.9631   -4.0454    0.0000 H   0  0  0  0  0  0  0  0  0  0  0  0
    6.8100   -3.8184    0.0000 H   0  0  0  0  0  0  0  0  0  0  0  0
    6.5831   -2.9715    0.0000 H   0  0  0  0  0  0  0  0  0  0  0  0
    3.8257    4.1284    0.0000 H   0  0  0  0  0  0  0  0  0  0  0  0
  1 10  1  0  0  0  0
  1 12  1  0  0  0  0
  2 17  1  0  0  0  0
  2 34  1  0  0  0  0
  3 17  2  0  0  0  0
  4  8  1  0  0  0  0
  4  9  1  0  0  0  0
  4 12  2  0  0  0  0
  5 15  2  0  0  0  0
  5 18  1  0  0  0  0
  6 16  1  0  0  0  0
  6 18  2  0  0  0  0
  7 15  1  0  0  0  0
  7 29  1  0  0  0  0
  7 30  1  0  0  0  0
  8 10  2  0  0  0  0
  8 14  1  0  0  0  0
  9 11  1  0  0  0  0
  9 20  1  0  0  0  0
  9 21  1  0  0  0  0
 10 13  1  0  0  0  0
 11 15  1  0  0  0  0
 11 16  2  0  0  0  0
 12 22  1  0  0  0  0
 13 17  1  0  0  0  0
 13 23  1  0  0  0  0
 13 24  1  0  0  0  0
 14 25  1  0  0  0  0
 14 26  1  0  0  0  0
 14 27  1  0  0  0  0
 16 28  1  0  0  0  0
 18 19  1  0  0  0  0
 19 31  1  0  0  0  0
 19 32  1  0  0  0  0
 19 33  1  0  0  0  0
M  CHG  1   4   1
M  END
> <PUBCHEM_COMPOUND_CID>
439838

> <PUBCHEM_COMPOUND_CANONICALIZED>
1

> <PUBCHEM_CACTVS_COMPLEXITY>
331

> <PUBCHEM_CACTVS_HBOND_ACCEPTOR>
6

> <PUBCHEM_CACTVS_HBOND_DONOR>
2

> <PUBCHEM_CACTVS_ROTATABLE_BOND>
4

> <PUBCHEM_CACTVS_SUBSKEYS>
AAADccBzsABAAAAAAAAAAAAAAAAAAWAAAAAsAAAAAAAAAAAB4AAAHgQQCAAADAjB3wSvuZdMEgisAxb3bACA8KlxCLgBWDU4RBiAKJJgzUAERAgsQAPISCKsAAAAAAAAAAAAAAAAAAAAAAAAAAAAAAAAAA==

> <PUBCHEM_IUPAC_OPENEYE_NAME>
2-[3-[(4-amino-2-methyl-pyrimidin-5-yl)methyl]-4-methyl-thiazol-3-ium-5-yl]acetic acid

> <PUBCHEM_IUPAC_CAS_NAME>
2-[3-[(4-amino-2-methyl-5-pyrimidinyl)methyl]-4-methyl-5-thiazol-3-iumyl]acetic acid

> <PUBCHEM_IUPAC_NAME>
2-[3-[(4-amino-2-methylpyrimidin-5-yl)methyl]-4-methyl-1,3-thiazol-3-ium-5-yl]acetic acid

> <PUBCHEM_IUPAC_SYSTEMATIC_NAME>
2-[3-[(4-azanyl-2-methyl-pyrimidin-5-yl)methyl]-4-methyl-1,3-thiazol-3-ium-5-yl]ethanoic acid

> <PUBCHEM_IUPAC_TRADITIONAL_NAME>
2-[3-[(4-amino-2-methyl-pyrimidin-5-yl)methyl]-4-methyl-thiazol-3-ium-5-yl]acetic acid

> <PUBCHEM_IUPAC_INCHI>
InChI=1S/C12H14N4O2S/c1-7-10(3-11(17)18)19-6-16(7)5-9-4-14-8(2)15-12(9)13/h4,6H,3,5H2,1-2H3,(H2-,13,14,15,17,18)/p+1

> <PUBCHEM_IUPAC_INCHIKEY>
QNGQHEBFAUOYHC-UHFFFAOYSA-O

> <PUBCHEM_XLOGP3_AA>
0.9

> <PUBCHEM_EXACT_MASS>
279.091572

> <PUBCHEM_MOLECULAR_FORMULA>
C12H15N4O2S+

> <PUBCHEM_MOLECULAR_WEIGHT>
279.3381

> <PUBCHEM_OPENEYE_CAN_SMILES>
CC1=C(SC=[N+]1CC2=CN=C(N=C2N)C)CC(=O)O

> <PUBCHEM_OPENEYE_ISO_SMILES>
CC1=C(SC=[N+]1CC2=CN=C(N=C2N)C)CC(=O)O

> <PUBCHEM_CACTVS_TPSA>
121

> <PUBCHEM_MONOISOTOPIC_WEIGHT>
279.091572

> <PUBCHEM_TOTAL_CHARGE>
1

> <PUBCHEM_HEAVY_ATOM_COUNT>
19

> <PUBCHEM_ATOM_DEF_STEREO_COUNT>
0

> <PUBCHEM_ATOM_UDEF_STEREO_COUNT>
0

> <PUBCHEM_BOND_DEF_STEREO_COUNT>
0

> <PUBCHEM_BOND_UDEF_STEREO_COUNT>
0

> <PUBCHEM_ISOTOPIC_ATOM_COUNT>
0

> <PUBCHEM_COMPONENT_COUNT>
1

> <PUBCHEM_CACTVS_TAUTO_COUNT>
3

> <PUBCHEM_COORDINATE_TYPE>
1
5
255

> <PUBCHEM_BONDANNOTATIONS>
1  10  8
1  12  8
11  15  8
11  16  8
4  12  8
4  8  8
5  15  8
5  18  8
6  16  8
6  18  8
8  10  8

$$$$

