17395940
  -OEChem-06241222532D

 50 52  0     1  0  0  0  0  0999 V2000
    5.4921    0.7679    0.0000 O   0  0  0  0  0  0  0  0  0  0  0  0
    2.0000   -0.5109    0.0000 O   0  0  0  0  0  0  0  0  0  0  0  0
    5.5202   -0.5109    0.0000 O   0  0  0  0  0  0  0  0  0  0  0  0
    4.6261    2.2679    0.0000 N   0  0  0  0  0  0  0  0  0  0  0  0
    3.7601   -0.2321    0.0000 N   0  0  0  0  0  0  0  0  0  0  0  0
    4.2601   -1.7710    0.0000 N   0  0  0  0  0  0  0  0  0  0  0  0
    3.7601    2.7679    0.0000 C   0  0  3  0  0  0  0  0  0  0  0  0
    3.7601    3.7679    0.0000 C   0  0  0  0  0  0  0  0  0  0  0  0
    3.2601   -1.7710    0.0000 C   0  0  3  0  0  0  0  0  0  0  0  0
    4.6261    4.2679    0.0000 C   0  0  0  0  0  0  0  0  0  0  0  0
    2.6723   -2.5800    0.0000 C   0  0  0  0  0  0  0  0  0  0  0  0
    5.4921    2.7679    0.0000 C   0  0  0  0  0  0  0  0  0  0  0  0
    5.4921    3.7679    0.0000 C   0  0  0  0  0  0  0  0  0  0  0  0
    3.0790   -3.4935    0.0000 C   0  0  0  0  0  0  0  0  0  0  0  0
    3.7601    0.7679    0.0000 C   0  0  0  0  0  0  0  0  0  0  0  0
    4.6261    1.2679    0.0000 C   0  0  0  0  0  0  0  0  0  0  0  0
    2.9511   -0.8199    0.0000 C   0  0  0  0  0  0  0  0  0  0  0  0
    2.8940    2.2679    0.0000 C   0  0  0  0  0  0  0  0  0  0  0  0
    4.5691   -0.8199    0.0000 C   0  0  0  0  0  0  0  0  0  0  0  0
    6.3861    2.2332    0.0000 C   0  0  0  0  0  0  0  0  0  0  0  0
    6.3861    4.3025    0.0000 C   0  0  0  0  0  0  0  0  0  0  0  0
    2.4912   -4.3025    0.0000 C   0  0  0  0  0  0  0  0  0  0  0  0
    4.0736   -3.5980    0.0000 C   0  0  0  0  0  0  0  0  0  0  0  0
    7.2921    2.7471    0.0000 C   0  0  0  0  0  0  0  0  0  0  0  0
    7.2921    3.7887    0.0000 C   0  0  0  0  0  0  0  0  0  0  0  0
    3.7601    2.1479    0.0000 H   0  0  0  0  0  0  0  0  0  0  0  0
    3.5480    4.3505    0.0000 H   0  0  0  0  0  0  0  0  0  0  0  0
    3.1495    3.6602    0.0000 H   0  0  0  0  0  0  0  0  0  0  0  0
    3.5416   -2.3234    0.0000 H   0  0  0  0  0  0  0  0  0  0  0  0
    5.0246    4.7428    0.0000 H   0  0  0  0  0  0  0  0  0  0  0  0
    4.2276    4.7428    0.0000 H   0  0  0  0  0  0  0  0  0  0  0  0
    2.2416   -2.1340    0.0000 H   0  0  0  0  0  0  0  0  0  0  0  0
    2.1583   -2.9267    0.0000 H   0  0  0  0  0  0  0  0  0  0  0  0
    3.3312   -4.0599    0.0000 H   0  0  0  0  0  0  0  0  0  0  0  0
    3.5480    1.3505    0.0000 H   0  0  0  0  0  0  0  0  0  0  0  0
    3.1495    0.6602    0.0000 H   0  0  0  0  0  0  0  0  0  0  0  0
    2.5840    2.8048    0.0000 H   0  0  0  0  0  0  0  0  0  0  0  0
    2.3571    1.9579    0.0000 H   0  0  0  0  0  0  0  0  0  0  0  0
    3.2040    1.7309    0.0000 H   0  0  0  0  0  0  0  0  0  0  0  0
    4.6245   -2.2726    0.0000 H   0  0  0  0  0  0  0  0  0  0  0  0
    6.3789    1.6133    0.0000 H   0  0  0  0  0  0  0  0  0  0  0  0
    6.3789    4.9225    0.0000 H   0  0  0  0  0  0  0  0  0  0  0  0
    1.9896   -3.9381    0.0000 H   0  0  0  0  0  0  0  0  0  0  0  0
    2.1268   -4.8041    0.0000 H   0  0  0  0  0  0  0  0  0  0  0  0
    2.9928   -4.6670    0.0000 H   0  0  0  0  0  0  0  0  0  0  0  0
    4.0087   -4.2147    0.0000 H   0  0  0  0  0  0  0  0  0  0  0  0
    4.6902   -3.6629    0.0000 H   0  0  0  0  0  0  0  0  0  0  0  0
    4.1384   -2.9814    0.0000 H   0  0  0  0  0  0  0  0  0  0  0  0
    7.8279    2.4350    0.0000 H   0  0  0  0  0  0  0  0  0  0  0  0
    7.8279    4.1008    0.0000 H   0  0  0  0  0  0  0  0  0  0  0  0
  1 16  2  0  0  0  0
  2 17  2  0  0  0  0
  3 19  2  0  0  0  0
  4  7  1  0  0  0  0
  4 12  1  0  0  0  0
  4 16  1  0  0  0  0
  5 15  1  0  0  0  0
  5 17  1  0  0  0  0
  5 19  1  0  0  0  0
  6  9  1  0  0  0  0
  6 19  1  0  0  0  0
  6 40  1  0  0  0  0
  7  8  1  0  0  0  0
  7 18  1  0  0  0  0
  7 26  1  0  0  0  0
  8 10  1  0  0  0  0
  8 27  1  0  0  0  0
  8 28  1  0  0  0  0
  9 11  1  0  0  0  0
  9 17  1  0  0  0  0
  9 29  1  0  0  0  0
 10 13  1  0  0  0  0
 10 30  1  0  0  0  0
 10 31  1  0  0  0  0
 11 14  1  0  0  0  0
 11 32  1  0  0  0  0
 11 33  1  0  0  0  0
 12 13  1  0  0  0  0
 12 20  2  0  0  0  0
 13 21  2  0  0  0  0
 14 22  1  0  0  0  0
 14 23  1  0  0  0  0
 14 34  1  0  0  0  0
 15 16  1  0  0  0  0
 15 35  1  0  0  0  0
 15 36  1  0  0  0  0
 18 37  1  0  0  0  0
 18 38  1  0  0  0  0
 18 39  1  0  0  0  0
 20 24  1  0  0  0  0
 20 41  1  0  0  0  0
 21 25  1  0  0  0  0
 21 42  1  0  0  0  0
 22 43  1  0  0  0  0
 22 44  1  0  0  0  0
 22 45  1  0  0  0  0
 23 46  1  0  0  0  0
 23 47  1  0  0  0  0
 23 48  1  0  0  0  0
 24 25  2  0  0  0  0
 24 49  1  0  0  0  0
 25 50  1  0  0  0  0
M  END
> <PUBCHEM_COMPOUND_CID>
17395940

> <PUBCHEM_COMPOUND_CANONICALIZED>
1

> <PUBCHEM_CACTVS_COMPLEXITY>
548

> <PUBCHEM_CACTVS_HBOND_ACCEPTOR>
3

> <PUBCHEM_CACTVS_HBOND_DONOR>
1

> <PUBCHEM_CACTVS_ROTATABLE_BOND>
4

> <PUBCHEM_CACTVS_SUBSKEYS>
AAADceB7MAAAAAAAAAAAAAAAAAAAAWAAAAA8QAAAAAAAAACxAAAAHgAQAAAADSjBmAQzwIPAAACIAiVSUACCAAAhAgAIiIGIZIiIYDLAkbGUIAholyLIyAcYgIAOAAAAAAACAAAAAAAAAAQAAAAAAAAAAA==

> <PUBCHEM_IUPAC_OPENEYE_NAME>
5-isobutyl-3-[2-(2-methyl-3,4-dihydro-2H-quinolin-1-yl)-2-oxo-ethyl]imidazolidine-2,4-dione

> <PUBCHEM_IUPAC_CAS_NAME>
3-[2-(2-methyl-3,4-dihydro-2H-quinolin-1-yl)-2-oxoethyl]-5-(2-methylpropyl)imidazolidine-2,4-dione

> <PUBCHEM_IUPAC_NAME>
3-[2-(2-methyl-3,4-dihydro-2H-quinolin-1-yl)-2-oxoethyl]-5-(2-methylpropyl)imidazolidine-2,4-dione

> <PUBCHEM_IUPAC_SYSTEMATIC_NAME>
3-[2-(2-methyl-3,4-dihydro-2H-quinolin-1-yl)-2-oxidanylidene-ethyl]-5-(2-methylpropyl)imidazolidine-2,4-dione

> <PUBCHEM_IUPAC_TRADITIONAL_NAME>
5-isobutyl-3-[2-keto-2-(2-methyl-3,4-dihydro-2H-quinolin-1-yl)ethyl]hydantoin

> <PUBCHEM_IUPAC_INCHI>
InChI=1S/C19H25N3O3/c1-12(2)10-15-18(24)21(19(25)20-15)11-17(23)22-13(3)8-9-14-6-4-5-7-16(14)22/h4-7,12-13,15H,8-11H2,1-3H3,(H,20,25)

> <PUBCHEM_IUPAC_INCHIKEY>
PEYONGBBYLGJPT-UHFFFAOYSA-N

> <PUBCHEM_XLOGP3_AA>
2.8

> <PUBCHEM_EXACT_MASS>
343.189592

> <PUBCHEM_MOLECULAR_FORMULA>
C19H25N3O3

> <PUBCHEM_MOLECULAR_WEIGHT>
343.4201

> <PUBCHEM_OPENEYE_CAN_SMILES>
CC1CCC2=CC=CC=C2N1C(=O)CN3C(=O)C(NC3=O)CC(C)C

> <PUBCHEM_OPENEYE_ISO_SMILES>
CC1CCC2=CC=CC=C2N1C(=O)CN3C(=O)C(NC3=O)CC(C)C

> <PUBCHEM_CACTVS_TPSA>
69.7

> <PUBCHEM_MONOISOTOPIC_WEIGHT>
343.189592

> <PUBCHEM_TOTAL_CHARGE>
0

> <PUBCHEM_HEAVY_ATOM_COUNT>
25

> <PUBCHEM_ATOM_DEF_STEREO_COUNT>
0

> <PUBCHEM_ATOM_UDEF_STEREO_COUNT>
2

> <PUBCHEM_BOND_DEF_STEREO_COUNT>
0

> <PUBCHEM_BOND_UDEF_STEREO_COUNT>
0

> <PUBCHEM_ISOTOPIC_ATOM_COUNT>
0

> <PUBCHEM_COMPONENT_COUNT>
1

> <PUBCHEM_CACTVS_TAUTO_COUNT>
4

> <PUBCHEM_COORDINATE_TYPE>
1
5
255

> <PUBCHEM_BONDANNOTATIONS>
12  13  8
12  20  8
13  21  8
20  24  8
21  25  8
24  25  8
7  18  3
9  11  3

$$$$

