12246
  -OEChem-06261206433D

 19 18  0     1  0  0  0  0  0999 V2000
   -1.3499    1.3306   -0.2199 N   0  0  0  0  0  0  0  0  0  0  0  0
    0.3045   -0.5305   -0.1282 C   0  0  0  0  0  0  0  0  0  0  0  0
   -1.0614    0.0076    0.3337 C   0  0  2  0  0  0  0  0  0  0  0  0
    1.4804    0.3623    0.2788 C   0  0  0  0  0  0  0  0  0  0  0  0
   -2.1804   -0.9451   -0.0854 C   0  0  0  0  0  0  0  0  0  0  0  0
    2.8069   -0.2249   -0.1791 C   0  0  0  0  0  0  0  0  0  0  0  0
    0.3043   -0.6491   -1.2199 H   0  0  0  0  0  0  0  0  0  0  0  0
    0.4541   -1.5322    0.2950 H   0  0  0  0  0  0  0  0  0  0  0  0
   -1.0623    0.0824    1.4278 H   0  0  0  0  0  0  0  0  0  0  0  0
    1.3788    1.3602   -0.1608 H   0  0  0  0  0  0  0  0  0  0  0  0
    1.4948    0.4839    1.3680 H   0  0  0  0  0  0  0  0  0  0  0  0
   -3.1542   -0.5933    0.2734 H   0  0  0  0  0  0  0  0  0  0  0  0
   -2.2370   -1.0455   -1.1753 H   0  0  0  0  0  0  0  0  0  0  0  0
   -2.0156   -1.9428    0.3357 H   0  0  0  0  0  0  0  0  0  0  0  0
    2.9730   -1.2118    0.2646 H   0  0  0  0  0  0  0  0  0  0  0  0
    2.8351   -0.3282   -1.2685 H   0  0  0  0  0  0  0  0  0  0  0  0
    3.6335    0.4261    0.1221 H   0  0  0  0  0  0  0  0  0  0  0  0
   -0.6920    2.0135    0.1524 H   0  0  0  0  0  0  0  0  0  0  0  0
   -2.2734    1.6369    0.0846 H   0  0  0  0  0  0  0  0  0  0  0  0
  1  3  1  0  0  0  0
  1 18  1  0  0  0  0
  1 19  1  0  0  0  0
  2  3  1  0  0  0  0
  2  4  1  0  0  0  0
  2  7  1  0  0  0  0
  2  8  1  0  0  0  0
  3  5  1  0  0  0  0
  3  9  1  0  0  0  0
  4  6  1  0  0  0  0
  4 10  1  0  0  0  0
  4 11  1  0  0  0  0
  5 12  1  0  0  0  0
  5 13  1  0  0  0  0
  5 14  1  0  0  0  0
  6 15  1  0  0  0  0
  6 16  1  0  0  0  0
  6 17  1  0  0  0  0
M  END
> <PUBCHEM_COMPOUND_CID>
12246

> <PUBCHEM_CONFORMER_RMSD>
0.4

> <PUBCHEM_CONFORMER_DIVERSEORDER>
1
6
12
10
11
7
4
3
8
9
2
5

> <PUBCHEM_MMFF94_PARTIAL_CHARGES>
4
1 -0.99
18 0.36
19 0.36
3 0.27

> <PUBCHEM_EFFECTIVE_ROTOR_COUNT>
2

> <PUBCHEM_PHARMACOPHORE_FEATURES>
3
1 1 cation
1 1 donor
1 6 hydrophobe

> <PUBCHEM_HEAVY_ATOM_COUNT>
6

> <PUBCHEM_ATOM_DEF_STEREO_COUNT>
0

> <PUBCHEM_ATOM_UDEF_STEREO_COUNT>
1

> <PUBCHEM_BOND_DEF_STEREO_COUNT>
0

> <PUBCHEM_BOND_UDEF_STEREO_COUNT>
0

> <PUBCHEM_ISOTOPIC_ATOM_COUNT>
0

> <PUBCHEM_COMPONENT_COUNT>
1

> <PUBCHEM_CACTVS_TAUTO_COUNT>
1

> <PUBCHEM_CONFORMER_ID>
00002FD600000001

> <PUBCHEM_MMFF94_ENERGY>
-5.5574

> <PUBCHEM_FEATURE_SELFOVERLAP>
15.223

> <PUBCHEM_SHAPE_FINGERPRINT>
139733 1 9222967966605933251
14390081 3 18412266133968857944
16714656 1 18408602526548793895
20096714 4 18340769359279781752
21040471 1 18123756623260027705
23552423 10 18200870789944142362
23552449 1 18410578400404640437
29004967 10 16298097683863517698
5460574 1 9871755684774765938

> <PUBCHEM_SHAPE_MULTIPOLES>
118.5
3.63
1.07
0.65
1.57
0.21
0.02
-0.59
-0.19
-0.53
-0.08
0.01
0
0.09

> <PUBCHEM_SHAPE_SELFOVERLAP>
201.215

> <PUBCHEM_SHAPE_VOLUME>
80.2

> <PUBCHEM_COORDINATE_TYPE>
2
5
10

$$$$

