10403174
  -OEChem-07051213093D

 37 39  0     1  0  0  0  0  0999 V2000
   -3.4217    4.1999   -0.4068 F   0  0  0  0  0  0  0  0  0  0  0  0
   -0.2128   -0.6362    1.7944 O   0  0  0  0  0  0  0  0  0  0  0  0
   -4.1848   -3.3975    0.0566 O   0  0  0  0  0  0  0  0  0  0  0  0
   -2.3470   -3.8479   -1.2001 O   0  0  0  0  0  0  0  0  0  0  0  0
    6.4578    0.2424   -0.5844 N   0  0  0  0  0  0  0  0  0  0  0  0
   -0.2882   -0.4037    0.3520 C   0  0  1  0  0  0  0  0  0  0  0  0
    1.1430   -0.2109   -0.0573 C   0  0  0  0  0  0  0  0  0  0  0  0
   -0.9333   -1.6208   -0.3006 C   0  0  0  0  0  0  0  0  0  0  0  0
    1.9736   -0.4237    1.0343 C   0  0  0  0  0  0  0  0  0  0  0  0
   -1.1204    0.8188    0.1504 C   0  0  0  0  0  0  0  0  0  0  0  0
    1.1626   -0.7802    2.2205 C   0  0  0  0  0  0  0  0  0  0  0  0
   -2.3085   -1.9351    0.2730 C   0  0  0  0  0  0  0  0  0  0  0  0
    1.6692    0.1166   -1.2983 C   0  0  0  0  0  0  0  0  0  0  0  0
    3.3493   -0.3152    0.9257 C   0  0  0  0  0  0  0  0  0  0  0  0
   -1.7787    1.0207   -1.0618 C   0  0  0  0  0  0  0  0  0  0  0  0
   -1.2383    1.7571    1.1749 C   0  0  0  0  0  0  0  0  0  0  0  0
    3.0549    0.2340   -1.4229 C   0  0  0  0  0  0  0  0  0  0  0  0
    3.8904    0.0200   -0.3166 C   0  0  0  0  0  0  0  0  0  0  0  0
   -2.9259   -3.1468   -0.3799 C   0  0  0  0  0  0  0  0  0  0  0  0
   -2.5565    2.1633   -1.2500 C   0  0  0  0  0  0  0  0  0  0  0  0
   -2.0162    2.8996    0.9869 C   0  0  0  0  0  0  0  0  0  0  0  0
   -2.6754    3.1028   -0.2257 C   0  0  0  0  0  0  0  0  0  0  0  0
    5.3067    0.1426   -0.4642 C   0  0  0  0  0  0  0  0  0  0  0  0
   -0.9670   -1.5552   -1.3948 H   0  0  0  0  0  0  0  0  0  0  0  0
   -0.2967   -2.4966   -0.1015 H   0  0  0  0  0  0  0  0  0  0  0  0
    1.3228   -1.8182    2.5252 H   0  0  0  0  0  0  0  0  0  0  0  0
    1.3360   -0.1030    3.0611 H   0  0  0  0  0  0  0  0  0  0  0  0
   -2.2371   -2.1465    1.3457 H   0  0  0  0  0  0  0  0  0  0  0  0
   -3.0087   -1.1079    0.1255 H   0  0  0  0  0  0  0  0  0  0  0  0
    1.0291    0.2770   -2.1591 H   0  0  0  0  0  0  0  0  0  0  0  0
    3.9828   -0.4897    1.7904 H   0  0  0  0  0  0  0  0  0  0  0  0
   -1.6943    0.3339   -1.8969 H   0  0  0  0  0  0  0  0  0  0  0  0
   -0.7287    1.6462    2.1275 H   0  0  0  0  0  0  0  0  0  0  0  0
    3.4763    0.4919   -2.3922 H   0  0  0  0  0  0  0  0  0  0  0  0
   -3.0648    2.3253   -2.1958 H   0  0  0  0  0  0  0  0  0  0  0  0
   -2.1061    3.6334    1.7824 H   0  0  0  0  0  0  0  0  0  0  0  0
   -4.5677   -4.1946   -0.3679 H   0  0  0  0  0  0  0  0  0  0  0  0
  1 22  1  0  0  0  0
  2  6  1  0  0  0  0
  2 11  1  0  0  0  0
  3 19  1  0  0  0  0
  3 37  1  0  0  0  0
  4 19  2  0  0  0  0
  5 23  3  0  0  0  0
  6  7  1  0  0  0  0
  6  8  1  0  0  0  0
  6 10  1  0  0  0  0
  7  9  2  0  0  0  0
  7 13  1  0  0  0  0
  8 12  1  0  0  0  0
  8 24  1  0  0  0  0
  8 25  1  0  0  0  0
  9 11  1  0  0  0  0
  9 14  1  0  0  0  0
 10 15  2  0  0  0  0
 10 16  1  0  0  0  0
 11 26  1  0  0  0  0
 11 27  1  0  0  0  0
 12 19  1  0  0  0  0
 12 28  1  0  0  0  0
 12 29  1  0  0  0  0
 13 17  2  0  0  0  0
 13 30  1  0  0  0  0
 14 18  2  0  0  0  0
 14 31  1  0  0  0  0
 15 20  1  0  0  0  0
 15 32  1  0  0  0  0
 16 21  2  0  0  0  0
 16 33  1  0  0  0  0
 17 18  1  0  0  0  0
 17 34  1  0  0  0  0
 18 23  1  0  0  0  0
 20 22  2  0  0  0  0
 20 35  1  0  0  0  0
 21 22  1  0  0  0  0
 21 36  1  0  0  0  0
M  END
> <PUBCHEM_COMPOUND_CID>
10403174

> <PUBCHEM_CONFORMER_RMSD>
0.8

> <PUBCHEM_CONFORMER_DIVERSEORDER>
3
12
10
7
9
15
6
8
16
14
4
5
13
2
11
1

> <PUBCHEM_MMFF94_PARTIAL_CHARGES>
30
1 -0.19
10 -0.14
11 0.42
12 0.06
13 -0.15
14 -0.15
15 -0.15
16 -0.15
17 -0.15
18 0.07
19 0.66
2 -0.56
20 -0.15
21 -0.15
22 0.19
23 0.48
3 -0.65
30 0.15
31 0.15
32 0.15
33 0.15
34 0.15
35 0.15
36 0.15
37 0.5
4 -0.57
5 -0.56
6 0.57
7 -0.14
9 -0.14

> <PUBCHEM_EFFECTIVE_ROTOR_COUNT>
4.6

> <PUBCHEM_PHARMACOPHORE_FEATURES>
8
1 2 acceptor
1 3 acceptor
1 4 acceptor
1 5 acceptor
3 3 4 19 anion
5 2 6 7 9 11 rings
6 10 15 16 20 21 22 rings
6 7 9 13 14 17 18 rings

> <PUBCHEM_HEAVY_ATOM_COUNT>
23

> <PUBCHEM_ATOM_DEF_STEREO_COUNT>
0

> <PUBCHEM_ATOM_UDEF_STEREO_COUNT>
1

> <PUBCHEM_BOND_DEF_STEREO_COUNT>
0

> <PUBCHEM_BOND_UDEF_STEREO_COUNT>
0

> <PUBCHEM_ISOTOPIC_ATOM_COUNT>
0

> <PUBCHEM_COMPONENT_COUNT>
1

> <PUBCHEM_CACTVS_TAUTO_COUNT>
1

> <PUBCHEM_CONFORMER_ID>
009EBD6600000003

> <PUBCHEM_MMFF94_ENERGY>
61.5279

> <PUBCHEM_FEATURE_SELFOVERLAP>
40.734

> <PUBCHEM_SHAPE_FINGERPRINT>
10291535 26 17968372450939573944
10764073 3 15435325280629920355
11101153 10 18053372211886207028
11640471 11 17987801950509061512
11833330 49 18338798897114519557
121448 382 18043264628623661721
12553582 1 18195542384745065819
12714826 92 17967814912275537002
12788726 201 18343028756906964491
13540713 5 17988657340965564874
13583140 156 17822311084570056986
13590594 115 18124584303062102467
13681431 1 17689432681453526635
13955234 65 17257076603531510673
14004458 79 18337664227005849503
14251757 5 18410863135904880023
14713325 29 18334286587304236726
15439362 3 17832423468792823782
15534591 1 18130781304603049856
15842332 3 17845111703970325106
15906896 17 18200865266616011795
17539 30 18335988579859229255
17980427 26 10084602413981244251
1813 80 17973992969312113855
200 152 17988082162992383238
20600515 1 17555194457463252513
21285901 2 18041542673282464807
21426921 1 18410854348069268398
21524375 3 18058158617033064665
2255824 54 17327746600772315055
22907989 373 18334857194999639908
23402539 116 18200591393726412678
23419403 2 17387140779742636433
23557571 272 18261391126845936478
23598288 3 18343026630839981451
25147074 1 17845950614257387946
266924 1 18060431221863491538
283562 15 18271808969338857402
394222 165 17626670753474319144
4409770 3 18409171013189995679
458136 41 17758393359574595785
497634 4 17460289107059708824
5486654 2 18337961190183606493
6442390 28 17972578143029210249
7164475 11 18341894061054441630
7471813 234 18126564518644160036
81228 2 18339630153749002635

> <PUBCHEM_SHAPE_MULTIPOLES>
443.47
8.36
4.1
1.53
13
0.59
-0.45
-0.41
2.41
-9.38
0.77
0.36
0
-0.55

> <PUBCHEM_SHAPE_SELFOVERLAP>
974

> <PUBCHEM_SHAPE_VOLUME>
241.6

> <PUBCHEM_COORDINATE_TYPE>
2
5
10

$$$$

