112203
  -OEChem-07051212453D

 28 29  0     1  0  0  0  0  0999 V2000
    0.3036   -0.5282    1.0864 O   0  0  0  0  0  0  0  0  0  0  0  0
   -2.3871    1.2699    0.2799 O   0  0  0  0  0  0  0  0  0  0  0  0
    0.9147    0.5742   -1.0283 C   0  0  1  0  0  0  0  0  0  0  0  0
    1.3883    0.1193    0.3858 C   0  0  0  0  0  0  0  0  0  0  0  0
   -0.8965   -0.6602    0.3110 C   0  0  2  0  0  0  0  0  0  0  0  0
    0.4364   -0.6575   -1.8238 C   0  0  0  0  0  0  0  0  0  0  0  0
   -0.6006   -1.4241   -0.9901 C   0  0  0  0  0  0  0  0  0  0  0  0
   -0.3039    1.5107   -0.8929 C   0  0  0  0  0  0  0  0  0  0  0  0
   -1.3209    0.7635   -0.0556 C   0  0  0  0  0  0  0  0  0  0  0  0
    2.5446   -0.8897    0.3135 C   0  0  0  0  0  0  0  0  0  0  0  0
    1.8577    1.2970    1.2534 C   0  0  0  0  0  0  0  0  0  0  0  0
   -1.9364   -1.3750    1.1608 C   0  0  0  0  0  0  0  0  0  0  0  0
    1.7190    1.0824   -1.5720 H   0  0  0  0  0  0  0  0  0  0  0  0
    1.2734   -1.3125   -2.0886 H   0  0  0  0  0  0  0  0  0  0  0  0
   -0.0097   -0.3450   -2.7763 H   0  0  0  0  0  0  0  0  0  0  0  0
   -1.5136   -1.5661   -1.5807 H   0  0  0  0  0  0  0  0  0  0  0  0
   -0.2014   -2.4193   -0.7591 H   0  0  0  0  0  0  0  0  0  0  0  0
   -0.7411    1.7356   -1.8710 H   0  0  0  0  0  0  0  0  0  0  0  0
   -0.0419    2.4491   -0.3978 H   0  0  0  0  0  0  0  0  0  0  0  0
    2.9051   -1.1411    1.3182 H   0  0  0  0  0  0  0  0  0  0  0  0
    3.3863   -0.4931   -0.2635 H   0  0  0  0  0  0  0  0  0  0  0  0
    2.2328   -1.8422   -0.1259 H   0  0  0  0  0  0  0  0  0  0  0  0
    1.0330    1.9723    1.5022 H   0  0  0  0  0  0  0  0  0  0  0  0
    2.6468    1.8707    0.7570 H   0  0  0  0  0  0  0  0  0  0  0  0
    2.2425    0.9428    2.2172 H   0  0  0  0  0  0  0  0  0  0  0  0
   -2.1245   -0.8271    2.0914 H   0  0  0  0  0  0  0  0  0  0  0  0
   -2.8888   -1.4805    0.6310 H   0  0  0  0  0  0  0  0  0  0  0  0
   -1.5848   -2.3715    1.4503 H   0  0  0  0  0  0  0  0  0  0  0  0
  1  4  1  0  0  0  0
  1  5  1  0  0  0  0
  2  9  2  0  0  0  0
  3  4  1  0  0  0  0
  3  6  1  0  0  0  0
  3  8  1  0  0  0  0
  3 13  1  0  0  0  0
  4 10  1  0  0  0  0
  4 11  1  0  0  0  0
  5  7  1  0  0  0  0
  5  9  1  0  0  0  0
  5 12  1  0  0  0  0
  6  7  1  0  0  0  0
  6 14  1  0  0  0  0
  6 15  1  0  0  0  0
  7 16  1  0  0  0  0
  7 17  1  0  0  0  0
  8  9  1  0  0  0  0
  8 18  1  0  0  0  0
  8 19  1  0  0  0  0
 10 20  1  0  0  0  0
 10 21  1  0  0  0  0
 10 22  1  0  0  0  0
 11 23  1  0  0  0  0
 11 24  1  0  0  0  0
 11 25  1  0  0  0  0
 12 26  1  0  0  0  0
 12 27  1  0  0  0  0
 12 28  1  0  0  0  0
M  END
> <PUBCHEM_COMPOUND_CID>
112203

> <PUBCHEM_CONFORMER_RMSD>
0.4

> <PUBCHEM_CONFORMER_DIVERSEORDER>
2
1

> <PUBCHEM_MMFF94_PARTIAL_CHARGES>
6
1 -0.56
2 -0.57
4 0.28
5 0.34
8 0.06
9 0.45

> <PUBCHEM_EFFECTIVE_ROTOR_COUNT>
1

> <PUBCHEM_PHARMACOPHORE_FEATURES>
4
1 1 acceptor
1 2 acceptor
3 4 10 11 hydrophobe
8 1 3 4 5 6 7 8 9 rings

> <PUBCHEM_HEAVY_ATOM_COUNT>
12

> <PUBCHEM_ATOM_DEF_STEREO_COUNT>
0

> <PUBCHEM_ATOM_UDEF_STEREO_COUNT>
2

> <PUBCHEM_BOND_DEF_STEREO_COUNT>
0

> <PUBCHEM_BOND_UDEF_STEREO_COUNT>
0

> <PUBCHEM_ISOTOPIC_ATOM_COUNT>
0

> <PUBCHEM_COMPONENT_COUNT>
1

> <PUBCHEM_CACTVS_TAUTO_COUNT>
2

> <PUBCHEM_CONFORMER_ID>
0001B64B00000002

> <PUBCHEM_MMFF94_ENERGY>
38.5973

> <PUBCHEM_FEATURE_SELFOVERLAP>
20.297

> <PUBCHEM_SHAPE_FINGERPRINT>
12423570 1 11049276347991291391
13024252 1 17486529046049867744
137420 1 13240805298002510876
14817 1 13101755667412251476
15557651 10 18121514701923864364
16945 1 18120674666370940720
20653091 64 16270789014521624305
21040471 1 18057308686271071573
21922407 69 17840019650477895134
369184 2 5111707099281811566
5084963 1 18270406116950040109
54276843 12 16486114266544141200

> <PUBCHEM_SHAPE_MULTIPOLES>
235.22
2.68
1.63
1.5
0.29
0.19
-0.3
-0.04
1.09
-0.33
-0.04
0.12
-0.2
0.33

> <PUBCHEM_SHAPE_SELFOVERLAP>
494.605

> <PUBCHEM_SHAPE_VOLUME>
133.2

> <PUBCHEM_COORDINATE_TYPE>
2
5
10

$$$$

