442858
  -OEChem-07051213003D

 28 30  0     0  0  0  0  0  0999 V2000
    0.3431   -0.0137   -0.0016 O   0  0  0  0  0  0  0  0  0  0  0  0
   -5.8339    1.2627    0.0006 O   0  0  0  0  0  0  0  0  0  0  0  0
    1.2151   -2.1004   -0.0002 N   0  0  0  0  0  0  0  0  0  0  0  0
    3.8960    1.9988    0.0005 N   0  0  0  0  0  0  0  0  0  0  0  0
   -2.0082   -0.3479   -0.0004 C   0  0  0  0  0  0  0  0  0  0  0  0
   -0.6788   -0.9076   -0.0012 C   0  0  0  0  0  0  0  0  0  0  0  0
    1.4488   -0.8076   -0.0011 C   0  0  0  0  0  0  0  0  0  0  0  0
    2.7033   -0.1073   -0.0003 C   0  0  0  0  0  0  0  0  0  0  0  0
   -3.1198   -1.1907    0.0016 C   0  0  0  0  0  0  0  0  0  0  0  0
   -2.1825    1.0361   -0.0017 C   0  0  0  0  0  0  0  0  0  0  0  0
   -0.1545   -2.1685   -0.0005 C   0  0  0  0  0  0  0  0  0  0  0  0
   -4.4053   -0.6496    0.0022 C   0  0  0  0  0  0  0  0  0  0  0  0
   -3.4682    1.5772   -0.0011 C   0  0  0  0  0  0  0  0  0  0  0  0
   -4.5796    0.7344    0.0007 C   0  0  0  0  0  0  0  0  0  0  0  0
    3.9127   -0.7965    0.0005 C   0  0  0  0  0  0  0  0  0  0  0  0
    2.7516    1.2791   -0.0001 C   0  0  0  0  0  0  0  0  0  0  0  0
    5.1112   -0.0913    0.0011 C   0  0  0  0  0  0  0  0  0  0  0  0
    5.0491    1.2929    0.0012 C   0  0  0  0  0  0  0  0  0  0  0  0
   -3.0139   -2.2725    0.0026 H   0  0  0  0  0  0  0  0  0  0  0  0
   -1.3409    1.7241   -0.0033 H   0  0  0  0  0  0  0  0  0  0  0  0
   -0.6675   -3.1190    0.0003 H   0  0  0  0  0  0  0  0  0  0  0  0
   -5.2631   -1.3167    0.0036 H   0  0  0  0  0  0  0  0  0  0  0  0
   -3.5980    2.6560   -0.0023 H   0  0  0  0  0  0  0  0  0  0  0  0
    3.9423   -1.8833    0.0004 H   0  0  0  0  0  0  0  0  0  0  0  0
    1.8564    1.8941   -0.0006 H   0  0  0  0  0  0  0  0  0  0  0  0
    6.0638   -0.6085    0.0016 H   0  0  0  0  0  0  0  0  0  0  0  0
    5.9554    1.8894    0.0017 H   0  0  0  0  0  0  0  0  0  0  0  0
   -6.4815    0.5369    0.0019 H   0  0  0  0  0  0  0  0  0  0  0  0
  1  6  1  0  0  0  0
  1  7  1  0  0  0  0
  2 14  1  0  0  0  0
  2 28  1  0  0  0  0
  3  7  2  0  0  0  0
  3 11  1  0  0  0  0
  4 16  1  0  0  0  0
  4 18  2  0  0  0  0
  5  6  1  0  0  0  0
  5  9  2  0  0  0  0
  5 10  1  0  0  0  0
  6 11  2  0  0  0  0
  7  8  1  0  0  0  0
  8 15  1  0  0  0  0
  8 16  2  0  0  0  0
  9 12  1  0  0  0  0
  9 19  1  0  0  0  0
 10 13  2  0  0  0  0
 10 20  1  0  0  0  0
 11 21  1  0  0  0  0
 12 14  2  0  0  0  0
 12 22  1  0  0  0  0
 13 14  1  0  0  0  0
 13 23  1  0  0  0  0
 15 17  2  0  0  0  0
 15 24  1  0  0  0  0
 16 25  1  0  0  0  0
 17 18  1  0  0  0  0
 17 26  1  0  0  0  0
 18 27  1  0  0  0  0
M  END
> <PUBCHEM_COMPOUND_CID>
442858

> <PUBCHEM_CONFORMER_RMSD>
0.6

> <PUBCHEM_CONFORMER_DIVERSEORDER>
1
4
2
3

> <PUBCHEM_MMFF94_PARTIAL_CHARGES>
28
1 -0.28
10 -0.15
11 0.08
12 -0.15
13 -0.15
14 0.08
15 -0.15
16 0.16
17 -0.15
18 0.16
19 0.15
2 -0.53
20 0.15
21 0.15
22 0.15
23 0.15
24 0.15
25 0.15
26 0.15
27 0.15
28 0.45
3 -0.57
4 -0.62
5 0.05
6 0.09
7 0.43
8 0.05
9 -0.15

> <PUBCHEM_EFFECTIVE_ROTOR_COUNT>
2

> <PUBCHEM_PHARMACOPHORE_FEATURES>
5
1 2 donor
1 4 acceptor
5 1 3 6 7 11 rings
6 4 8 15 16 17 18 rings
6 5 9 10 12 13 14 rings

> <PUBCHEM_HEAVY_ATOM_COUNT>
18

> <PUBCHEM_ATOM_DEF_STEREO_COUNT>
0

> <PUBCHEM_ATOM_UDEF_STEREO_COUNT>
0

> <PUBCHEM_BOND_DEF_STEREO_COUNT>
0

> <PUBCHEM_BOND_UDEF_STEREO_COUNT>
0

> <PUBCHEM_ISOTOPIC_ATOM_COUNT>
0

> <PUBCHEM_COMPONENT_COUNT>
1

> <PUBCHEM_CACTVS_TAUTO_COUNT>
2

> <PUBCHEM_CONFORMER_ID>
0006C1EA00000001

> <PUBCHEM_MMFF94_ENERGY>
39.5441

> <PUBCHEM_FEATURE_SELFOVERLAP>
25.371

> <PUBCHEM_SHAPE_FINGERPRINT>
10411042 1 17474106501618846919
11595378 159 16630258007573624413
12107183 9 17692255548386868384
122479 349 18342454790604748850
12403259 415 18115307769975150872
12596602 18 16415474913668133888
12633257 1 15913324667543865468
12916748 109 18409724054294843794
13081056 2 18410855468839565204
13214271 11 18342174449858041983
13785724 45 17835244824320871850
14251764 18 18272657831734564250
14252887 29 12535351229235347424
14341114 176 18342731935879566944
14528608 73 18335707126352008765
15188451 53 15482096173519285177
15196674 1 18410855438658749476
17834072 8 18260822722758796654
200 152 18040156214825767075
20645477 56 18343580776679709391
20645477 70 17168410650127349318
21267235 1 18410566288580911523
212847 35 18413388727051530516
21524375 3 18410855451765418306
21652331 79 18413390946922076509
22854114 59 18343582945020982845
23227448 37 18262520286374669639
23402539 116 18260835873157489654
23402655 69 18187085056993172238
23559900 14 18261673778828991078
245318 6 17127876960400992740
2916195 48 18114753624931682584
335352 9 18410574011876388222
34934 24 18411986892744269927
351380 180 18410294705119436504
351380 3 9871747987945808985
3545911 37 18412260662116952997
4214541 1 18410856546754887680
465052 167 11024105469078820704
474 4 18131066013284036652
474229 33 18338797819336782171
495365 180 17313394379506117834
4990 188 17967245399622370942
5104073 3 18413671300822393139
542803 24 17561361781397447357
633830 44 18410298003691574822
77779 3 18410292510180034722

> <PUBCHEM_SHAPE_MULTIPOLES>
348.73
11.95
2
0.6
0.7
0.17
0
-5.54
0.01
-0.18
0
-0.01
0.01
0

> <PUBCHEM_SHAPE_SELFOVERLAP>
777.981

> <PUBCHEM_SHAPE_VOLUME>
186

> <PUBCHEM_COORDINATE_TYPE>
2
5
10

$$$$

