17396070
  -OEChem-06241222543D

 56 59  0     1  0  0  0  0  0999 V2000
   -1.2864   -1.0638    0.4729 S   0  0  0  0  0  0  0  0  0  0  0  0
    5.7476   -0.3716    0.8043 O   0  0  0  0  0  0  0  0  0  0  0  0
    1.6840   -1.6315    1.9019 O   0  0  0  0  0  0  0  0  0  0  0  0
    1.8231    3.3258   -0.3457 O   0  0  0  0  0  0  0  0  0  0  0  0
    1.9308   -1.7358   -0.3970 N   0  0  0  0  0  0  0  0  0  0  0  0
   -4.0342   -1.3051    0.1674 N   0  0  0  0  0  0  0  0  0  0  0  0
   -3.0208   -3.2138    0.3465 N   0  0  0  0  0  0  0  0  0  0  0  0
   -5.0033   -2.2275    0.0875 N   0  0  0  0  0  0  0  0  0  0  0  0
   -4.3775   -3.3930    0.1972 N   0  0  0  0  0  0  0  0  0  0  0  0
    3.3416   -1.3333   -0.4299 C   0  0  1  0  0  0  0  0  0  0  0  0
    3.7903   -1.6777   -1.8559 C   0  0  0  0  0  0  0  0  0  0  0  0
    2.5148   -1.5409   -2.6807 C   0  0  0  0  0  0  0  0  0  0  0  0
    1.4363   -2.0481   -1.7359 C   0  0  0  0  0  0  0  0  0  0  0  0
    3.5777    0.1257   -0.0846 C   0  0  0  0  0  0  0  0  0  0  0  0
    1.2329   -1.9068    0.7889 C   0  0  0  0  0  0  0  0  0  0  0  0
    4.7700    0.5321    0.5144 C   0  0  0  0  0  0  0  0  0  0  0  0
    2.5872    1.0643   -0.3737 C   0  0  0  0  0  0  0  0  0  0  0  0
   -0.1634   -2.4578    0.6478 C   0  0  0  0  0  0  0  0  0  0  0  0
    2.7892    2.4093   -0.0642 C   0  0  0  0  0  0  0  0  0  0  0  0
    4.9721    1.8771    0.8240 C   0  0  0  0  0  0  0  0  0  0  0  0
    3.9816    2.8157    0.5348 C   0  0  0  0  0  0  0  0  0  0  0  0
    6.9338    0.1309    1.4160 C   0  0  0  0  0  0  0  0  0  0  0  0
   -2.8306   -1.9147    0.3249 C   0  0  0  0  0  0  0  0  0  0  0  0
    0.6285    2.8427   -0.9582 C   0  0  0  0  0  0  0  0  0  0  0  0
   -4.3315    0.0517    0.0886 C   0  0  0  0  0  0  0  0  0  0  0  0
   -3.3968    0.9406   -0.4424 C   0  0  0  0  0  0  0  0  0  0  0  0
   -5.5644    0.5229    0.5398 C   0  0  0  0  0  0  0  0  0  0  0  0
   -4.9282    2.7721   -0.0712 C   0  0  0  0  0  0  0  0  0  0  0  0
   -3.6952    2.3008   -0.5223 C   0  0  0  0  0  0  0  0  0  0  0  0
   -5.8627    1.8831    0.4599 C   0  0  0  0  0  0  0  0  0  0  0  0
   -5.2464    4.2267   -0.1551 C   0  0  0  0  0  0  0  0  0  0  0  0
    3.8677   -1.9608    0.3001 H   0  0  0  0  0  0  0  0  0  0  0  0
    4.6054   -1.0531   -2.2341 H   0  0  0  0  0  0  0  0  0  0  0  0
    4.1229   -2.7230   -1.8912 H   0  0  0  0  0  0  0  0  0  0  0  0
    2.5515   -2.1082   -3.6150 H   0  0  0  0  0  0  0  0  0  0  0  0
    2.3388   -0.4890   -2.9326 H   0  0  0  0  0  0  0  0  0  0  0  0
    1.3337   -3.1360   -1.8130 H   0  0  0  0  0  0  0  0  0  0  0  0
    0.4677   -1.5803   -1.9262 H   0  0  0  0  0  0  0  0  0  0  0  0
    1.6766    0.7200   -0.8473 H   0  0  0  0  0  0  0  0  0  0  0  0
   -0.4012   -3.0150    1.5608 H   0  0  0  0  0  0  0  0  0  0  0  0
   -0.2511   -3.1552   -0.1881 H   0  0  0  0  0  0  0  0  0  0  0  0
    5.8711    2.2662    1.2891 H   0  0  0  0  0  0  0  0  0  0  0  0
    4.1434    3.8624    0.7780 H   0  0  0  0  0  0  0  0  0  0  0  0
    7.4634    0.8283    0.7580 H   0  0  0  0  0  0  0  0  0  0  0  0
    6.7289    0.5606    2.4025 H   0  0  0  0  0  0  0  0  0  0  0  0
    7.6006   -0.7232    1.5747 H   0  0  0  0  0  0  0  0  0  0  0  0
    0.8258    2.4154   -1.9473 H   0  0  0  0  0  0  0  0  0  0  0  0
    0.0924    2.1478   -0.3030 H   0  0  0  0  0  0  0  0  0  0  0  0
   -0.0281    3.7058   -1.1100 H   0  0  0  0  0  0  0  0  0  0  0  0
   -2.4833    0.6376   -0.9367 H   0  0  0  0  0  0  0  0  0  0  0  0
   -6.3093   -0.1437    0.9671 H   0  0  0  0  0  0  0  0  0  0  0  0
   -2.9719    2.9801   -0.9659 H   0  0  0  0  0  0  0  0  0  0  0  0
   -6.8263    2.2385    0.8152 H   0  0  0  0  0  0  0  0  0  0  0  0
   -4.3397    4.8352   -0.0694 H   0  0  0  0  0  0  0  0  0  0  0  0
   -5.9148    4.5324    0.6570 H   0  0  0  0  0  0  0  0  0  0  0  0
   -5.7301    4.4508   -1.1109 H   0  0  0  0  0  0  0  0  0  0  0  0
  1 18  1  0  0  0  0
  1 23  1  0  0  0  0
  2 16  1  0  0  0  0
  2 22  1  0  0  0  0
  3 15  2  0  0  0  0
  4 19  1  0  0  0  0
  4 24  1  0  0  0  0
  5 10  1  0  0  0  0
  5 13  1  0  0  0  0
  5 15  1  0  0  0  0
  6  8  1  0  0  0  0
  6 23  1  0  0  0  0
  6 25  1  0  0  0  0
  7  9  1  0  0  0  0
  7 23  2  0  0  0  0
  8  9  2  0  0  0  0
 10 11  1  0  0  0  0
 10 14  1  0  0  0  0
 10 32  1  0  0  0  0
 11 12  1  0  0  0  0
 11 33  1  0  0  0  0
 11 34  1  0  0  0  0
 12 13  1  0  0  0  0
 12 35  1  0  0  0  0
 12 36  1  0  0  0  0
 13 37  1  0  0  0  0
 13 38  1  0  0  0  0
 14 16  2  0  0  0  0
 14 17  1  0  0  0  0
 15 18  1  0  0  0  0
 16 20  1  0  0  0  0
 17 19  2  0  0  0  0
 17 39  1  0  0  0  0
 18 40  1  0  0  0  0
 18 41  1  0  0  0  0
 19 21  1  0  0  0  0
 20 21  2  0  0  0  0
 20 42  1  0  0  0  0
 21 43  1  0  0  0  0
 22 44  1  0  0  0  0
 22 45  1  0  0  0  0
 22 46  1  0  0  0  0
 24 47  1  0  0  0  0
 24 48  1  0  0  0  0
 24 49  1  0  0  0  0
 25 26  2  0  0  0  0
 25 27  1  0  0  0  0
 26 29  1  0  0  0  0
 26 50  1  0  0  0  0
 27 30  2  0  0  0  0
 27 51  1  0  0  0  0
 28 29  2  0  0  0  0
 28 30  1  0  0  0  0
 28 31  1  0  0  0  0
 29 52  1  0  0  0  0
 30 53  1  0  0  0  0
 31 54  1  0  0  0  0
 31 55  1  0  0  0  0
 31 56  1  0  0  0  0
M  END
> <PUBCHEM_COMPOUND_CID>
17396070

> <PUBCHEM_CONFORMER_RMSD>
1.2

> <PUBCHEM_CONFORMER_DIVERSEORDER>
1
188
276
265
294
153
239
270
288
221
259
81
107
169
125
71
132
91
31
15
176
76
75
103
175
4
290
70
128
62
147
170
5
250
232
145
66
95
300
281
106
61
122
126
187
199
96
84
257
8
216
120
202
51
245
152
141
266
234
273
22
206
287
117
18
131
212
229
210
249
271
151
207
36
16
136
186
233
86
224
214
275
74
284
79
20
163
242
43
150
138
258
292
211
33
209
73
139
110
89
162
44
154
118
160
155
115
49
243
189
2
274
6
38
248
279
192
19
92
64
98
191
226
172
251
94
254
203
291
69
148
289
165
244
28
45
53
190
29
135
63
255
277
30
65
228
204
42
3
280
82
80
183
269
198
253
100
220
111
182
116
296
83
142
68
194
231
93
159
295
129
99
181
57
196
201
223
113
101
197
108
133
285
105
27
85
260
246
134
283
40
50
26
158
23
217
90
293
180
14
278
24
56
171
240
12
144
109
146
149
58
230
208
52
200
13
282
236
59
97
55
225
123
222
67
185
34
46
166
247
112
87
60
104
264
184
140
179
286
156
37
47
77
238
193
119
213
54
11
48
161
263
164
137
252
9
88
267
72
167
143
17
195
35
219
297
256
130
25
177
215
168
21
39
235
227
7
178
32
218
41
299
272
78
10
121
298
173
205
237
157
124
268
114
241
127
262
174
261
102

> <PUBCHEM_MMFF94_PARTIAL_CHARGES>
35
1 -0.29
10 0.44
13 0.3
14 -0.14
15 0.57
16 0.08
17 -0.15
18 0.29
19 0.08
2 -0.36
20 -0.15
21 -0.15
22 0.28
23 0.24
24 0.28
25 -0.02
26 -0.15
27 -0.15
28 -0.14
29 -0.15
3 -0.57
30 -0.15
31 0.14
39 0.15
4 -0.36
42 0.15
43 0.15
5 -0.66
50 0.15
51 0.15
52 0.15
53 0.15
6 0.59
7 -0.34
8 -0.42

> <PUBCHEM_EFFECTIVE_ROTOR_COUNT>
9

> <PUBCHEM_PHARMACOPHORE_FEATURES>
8
1 2 acceptor
1 3 acceptor
1 4 acceptor
3 6 7 23 cation
5 5 10 11 12 13 rings
5 6 7 8 9 23 rings
6 14 16 17 19 20 21 rings
6 25 26 27 28 29 30 rings

> <PUBCHEM_HEAVY_ATOM_COUNT>
31

> <PUBCHEM_ATOM_DEF_STEREO_COUNT>
0

> <PUBCHEM_ATOM_UDEF_STEREO_COUNT>
1

> <PUBCHEM_BOND_DEF_STEREO_COUNT>
0

> <PUBCHEM_BOND_UDEF_STEREO_COUNT>
0

> <PUBCHEM_ISOTOPIC_ATOM_COUNT>
0

> <PUBCHEM_COMPONENT_COUNT>
1

> <PUBCHEM_CACTVS_TAUTO_COUNT>
1

> <PUBCHEM_CONFORMER_ID>
0109716600000001

> <PUBCHEM_MMFF94_ENERGY>
108.079

> <PUBCHEM_FEATURE_SELFOVERLAP>
40.595

> <PUBCHEM_SHAPE_FINGERPRINT>
10439779 11 18339369659571664016
10764073 3 18341905138386982598
10864689 126 17980195610767535653
11069576 57 15503210270810608214
11720765 8 17394444045054727870
12107183 9 18271257130803324458
12107698 1 18268154166807406666
12422481 6 18261405429556556442
12925494 130 18125718144427655545
13402501 40 18411982494070420668
14223995 32 18268716189005791436
14251764 38 18268988700443537237
144659 39 17749104470357032557
14466204 15 18342463634079366738
14739800 52 18342186582639747171
15238133 3 18272928311537124382
15320467 1 18339926034152142449
15419008 145 18271821124296434144
20715895 44 18335420209361596859
21197605 99 18337107848004153164
21315763 129 18339080384744400347
23227448 37 18410291415675667359
23559900 14 18116426127841014895
2838139 119 18262245430343397362
328310 1195 18186519895400618858
338550 245 18272645723357288701
3388396 114 17107365488989821893
3680242 22 18200593734309223904
4093350 32 17386284423731232261
4144715 1 18341888555160121650
46194498 28 17968642870259079703
5081480 168 17534868013633857094
508706 21 18341889676077214863
6823239 73 18335127735205795300

> <PUBCHEM_SHAPE_MULTIPOLES>
599.3
15.34
4.77
1.42
4.65
1.69
0.66
7.11
-3.62
4.59
0.29
-2
-0.79
1.88

> <PUBCHEM_SHAPE_SELFOVERLAP>
1273.779

> <PUBCHEM_SHAPE_VOLUME>
337.9

> <PUBCHEM_COORDINATE_TYPE>
2
5
10

$$$$

