14076
  -OEChem-06241222413D

 19 19  0     0  0  0  0  0  0999 V2000
    1.4498    0.0591   -0.5151 N   0  0  0  0  0  0  0  0  0  0  0  0
   -3.4569    0.2927   -0.1165 N   0  0  0  0  0  0  0  0  0  0  0  0
    2.6800   -0.5390   -0.0178 C   0  0  0  0  0  0  0  0  0  0  0  0
    2.2706    0.8446    0.3948 C   0  0  0  0  0  0  0  0  0  0  0  0
    0.2928   -0.4902    0.1830 C   0  0  0  0  0  0  0  0  0  0  0  0
   -0.9905    0.1759   -0.3165 C   0  0  0  0  0  0  0  0  0  0  0  0
   -2.2459   -0.3431    0.3880 C   0  0  0  0  0  0  0  0  0  0  0  0
    3.4795   -0.6358   -0.7402 H   0  0  0  0  0  0  0  0  0  0  0  0
    2.6141   -1.3353    0.7122 H   0  0  0  0  0  0  0  0  0  0  0  0
    1.9445    1.0065    1.4136 H   0  0  0  0  0  0  0  0  0  0  0  0
    2.7946    1.6796   -0.0527 H   0  0  0  0  0  0  0  0  0  0  0  0
    0.2240   -1.5643   -0.0361 H   0  0  0  0  0  0  0  0  0  0  0  0
    0.3404   -0.4036    1.2773 H   0  0  0  0  0  0  0  0  0  0  0  0
   -0.9182    1.2613   -0.1651 H   0  0  0  0  0  0  0  0  0  0  0  0
   -1.0870    0.0125   -1.3982 H   0  0  0  0  0  0  0  0  0  0  0  0
   -2.1731   -0.1604    1.4656 H   0  0  0  0  0  0  0  0  0  0  0  0
   -2.3318   -1.4262    0.2491 H   0  0  0  0  0  0  0  0  0  0  0  0
   -3.5322    0.1338   -1.1206 H   0  0  0  0  0  0  0  0  0  0  0  0
   -3.3853    1.3029    0.0006 H   0  0  0  0  0  0  0  0  0  0  0  0
  1  3  1  0  0  0  0
  1  4  1  0  0  0  0
  1  5  1  0  0  0  0
  2  7  1  0  0  0  0
  2 18  1  0  0  0  0
  2 19  1  0  0  0  0
  3  4  1  0  0  0  0
  3  8  1  0  0  0  0
  3  9  1  0  0  0  0
  4 10  1  0  0  0  0
  4 11  1  0  0  0  0
  5  6  1  0  0  0  0
  5 12  1  0  0  0  0
  5 13  1  0  0  0  0
  6  7  1  0  0  0  0
  6 14  1  0  0  0  0
  6 15  1  0  0  0  0
  7 16  1  0  0  0  0
  7 17  1  0  0  0  0
M  END
> <PUBCHEM_COMPOUND_CID>
14076

> <PUBCHEM_CONFORMER_RMSD>
0.6

> <PUBCHEM_CONFORMER_DIVERSEORDER>
1
12
11
4
6
5
8
10
7
3
9
2

> <PUBCHEM_MMFF94_PARTIAL_CHARGES>
12
1 -0.59
10 0.1
11 0.1
18 0.36
19 0.36
2 -0.99
3 -0.04
4 -0.04
5 0.27
7 0.27
8 0.1
9 0.1

> <PUBCHEM_EFFECTIVE_ROTOR_COUNT>
3.6

> <PUBCHEM_PHARMACOPHORE_FEATURES>
3
1 1 cation
1 2 cation
1 2 donor

> <PUBCHEM_HEAVY_ATOM_COUNT>
7

> <PUBCHEM_ATOM_DEF_STEREO_COUNT>
0

> <PUBCHEM_ATOM_UDEF_STEREO_COUNT>
0

> <PUBCHEM_BOND_DEF_STEREO_COUNT>
0

> <PUBCHEM_BOND_UDEF_STEREO_COUNT>
0

> <PUBCHEM_ISOTOPIC_ATOM_COUNT>
0

> <PUBCHEM_COMPONENT_COUNT>
1

> <PUBCHEM_CACTVS_TAUTO_COUNT>
1

> <PUBCHEM_CONFORMER_ID>
000036FC00000001

> <PUBCHEM_MMFF94_ENERGY>
4.4026

> <PUBCHEM_FEATURE_SELFOVERLAP>
15.223

> <PUBCHEM_SHAPE_FINGERPRINT>
11062470 55 18411138035012223573
12932764 1 14261354617803751007
14325111 11 18410573968172184955
14390081 3 18408605868302382081
29004967 10 18409163307722916466
3248919 1 16732977622308693527
5460574 1 9295291633604058767

> <PUBCHEM_SHAPE_MULTIPOLES>
134.09
5.05
0.82
0.69
2.49
0.04
-0.02
0.33
-0.16
-0.31
-0.05
-0.04
0.01
0.17

> <PUBCHEM_SHAPE_SELFOVERLAP>
242.926

> <PUBCHEM_SHAPE_VOLUME>
86.8

> <PUBCHEM_COORDINATE_TYPE>
2
5
10

$$$$

