5319323
  -OEChem-07051212592D

 54 57  0     1  0  0  0  0  0999 V2000
    8.9951    1.4623    0.0000 O   0  0  0  0  0  0  0  0  0  0  0  0
    8.1465   -0.0476    0.0000 O   0  0  0  0  0  0  0  0  0  0  0  0
   11.6103   -0.0075    0.0000 O   0  0  0  0  0  0  0  0  0  0  0  0
   11.5872    1.9924    0.0000 O   0  0  0  0  0  0  0  0  0  0  0  0
    9.8900   -1.0275    0.0000 O   0  0  0  0  0  0  0  0  0  0  0  0
    8.9720    3.4622    0.0000 O   0  0  0  0  0  0  0  0  0  0  0  0
    6.3981   -0.0822    0.0000 O   0  0  0  0  0  0  0  0  0  0  0  0
    6.3981   -4.0822    0.0000 O   0  0  0  0  0  0  0  0  0  0  0  0
    4.6497   -0.0476    0.0000 O   0  0  0  0  0  0  0  0  0  0  0  0
    2.8680   -3.1063    0.0000 O   0  0  0  0  0  0  0  0  0  0  0  0
   10.7386    0.4824    0.0000 C   0  0  1  0  0  0  0  0  0  0  0  0
   10.7270    1.4824    0.0000 C   0  0  1  0  0  0  0  0  0  0  0  0
    9.8784   -0.0275    0.0000 C   0  0  2  0  0  0  0  0  0  0  0  0
    9.8553    1.9723    0.0000 C   0  0  1  0  0  0  0  0  0  0  0  0
    9.0067    0.4624    0.0000 C   0  0  1  0  0  0  0  0  0  0  0  0
    9.8437    2.9723    0.0000 C   0  0  0  0  0  0  0  0  0  0  0  0
    8.1580   -1.0475    0.0000 C   0  0  0  0  0  0  0  0  0  0  0  0
    7.2641   -1.5822    0.0000 C   0  0  0  0  0  0  0  0  0  0  0  0
    7.2641   -2.5822    0.0000 C   0  0  0  0  0  0  0  0  0  0  0  0
    9.0641   -1.5614    0.0000 C   0  0  0  0  0  0  0  0  0  0  0  0
    6.3981   -1.0822    0.0000 C   0  0  0  0  0  0  0  0  0  0  0  0
    9.0641   -2.6030    0.0000 C   0  0  0  0  0  0  0  0  0  0  0  0
    5.5320   -1.5822    0.0000 C   0  0  0  0  0  0  0  0  0  0  0  0
    8.1580   -3.1168    0.0000 C   0  0  0  0  0  0  0  0  0  0  0  0
    5.5320   -2.5822    0.0000 C   0  0  0  0  0  0  0  0  0  0  0  0
    6.3981   -3.0822    0.0000 C   0  0  0  0  0  0  0  0  0  0  0  0
    4.6381   -1.0475    0.0000 C   0  0  0  0  0  0  0  0  0  0  0  0
    4.6381   -3.1168    0.0000 C   0  0  0  0  0  0  0  0  0  0  0  0
    9.9282   -3.1063    0.0000 C   0  0  0  0  0  0  0  0  0  0  0  0
    3.7320   -2.6030    0.0000 C   0  0  0  0  0  0  0  0  0  0  0  0
    3.7320   -1.5614    0.0000 C   0  0  0  0  0  0  0  0  0  0  0  0
    2.0000   -2.6097    0.0000 C   0  0  0  0  0  0  0  0  0  0  0  0
   11.2719    0.7986    0.0000 H   0  0  0  0  0  0  0  0  0  0  0  0
   11.2675    1.1786    0.0000 H   0  0  0  0  0  0  0  0  0  0  0  0
    9.3451   -0.3437    0.0000 H   0  0  0  0  0  0  0  0  0  0  0  0
    9.3148    2.2761    0.0000 H   0  0  0  0  0  0  0  0  0  0  0  0
    9.0138   -0.1576    0.0000 H   0  0  0  0  0  0  0  0  0  0  0  0
   10.4555    2.8717    0.0000 H   0  0  0  0  0  0  0  0  0  0  0  0
   10.0490    3.5573    0.0000 H   0  0  0  0  0  0  0  0  0  0  0  0
   12.1437    0.3087    0.0000 H   0  0  0  0  0  0  0  0  0  0  0  0
   11.5801    2.6123    0.0000 H   0  0  0  0  0  0  0  0  0  0  0  0
   10.4305   -1.3312    0.0000 H   0  0  0  0  0  0  0  0  0  0  0  0
    9.5998   -1.2493    0.0000 H   0  0  0  0  0  0  0  0  0  0  0  0
    8.9648    4.0822    0.0000 H   0  0  0  0  0  0  0  0  0  0  0  0
    8.1509   -3.7368    0.0000 H   0  0  0  0  0  0  0  0  0  0  0  0
    4.6453   -3.7368    0.0000 H   0  0  0  0  0  0  0  0  0  0  0  0
    9.6161   -3.6420    0.0000 H   0  0  0  0  0  0  0  0  0  0  0  0
   10.4639   -3.4184    0.0000 H   0  0  0  0  0  0  0  0  0  0  0  0
   10.2403   -2.5706    0.0000 H   0  0  0  0  0  0  0  0  0  0  0  0
    3.1963   -1.2493    0.0000 H   0  0  0  0  0  0  0  0  0  0  0  0
    4.1164    0.2686    0.0000 H   0  0  0  0  0  0  0  0  0  0  0  0
    2.3079   -2.0715    0.0000 H   0  0  0  0  0  0  0  0  0  0  0  0
    1.4619   -2.3017    0.0000 H   0  0  0  0  0  0  0  0  0  0  0  0
    1.6921   -3.1478    0.0000 H   0  0  0  0  0  0  0  0  0  0  0  0
  1 14  1  0  0  0  0
  1 15  1  0  0  0  0
 15  2  1  6  0  0  0
  2 17  1  0  0  0  0
 11  3  1  6  0  0  0
  3 40  1  0  0  0  0
 12  4  1  1  0  0  0
  4 41  1  0  0  0  0
 13  5  1  1  0  0  0
  5 42  1  0  0  0  0
  6 16  1  0  0  0  0
  6 44  1  0  0  0  0
  7 21  2  0  0  0  0
  8 26  2  0  0  0  0
  9 27  1  0  0  0  0
  9 51  1  0  0  0  0
 10 30  1  0  0  0  0
 10 32  1  0  0  0  0
 11 12  1  0  0  0  0
 11 13  1  0  0  0  0
 11 33  1  0  0  0  0
 12 14  1  0  0  0  0
 12 34  1  0  0  0  0
 13 15  1  0  0  0  0
 13 35  1  0  0  0  0
 14 16  1  6  0  0  0
 14 36  1  0  0  0  0
 15 37  1  0  0  0  0
 16 38  1  0  0  0  0
 16 39  1  0  0  0  0
 17 18  1  0  0  0  0
 17 20  2  0  0  0  0
 18 19  2  0  0  0  0
 18 21  1  0  0  0  0
 19 24  1  0  0  0  0
 19 26  1  0  0  0  0
 20 22  1  0  0  0  0
 20 43  1  0  0  0  0
 21 23  1  0  0  0  0
 22 24  2  0  0  0  0
 22 29  1  0  0  0  0
 23 25  2  0  0  0  0
 23 27  1  0  0  0  0
 24 45  1  0  0  0  0
 25 26  1  0  0  0  0
 25 28  1  0  0  0  0
 27 31  2  0  0  0  0
 28 30  2  0  0  0  0
 28 46  1  0  0  0  0
 29 47  1  0  0  0  0
 29 48  1  0  0  0  0
 29 49  1  0  0  0  0
 30 31  1  0  0  0  0
 31 50  1  0  0  0  0
 32 52  1  0  0  0  0
 32 53  1  0  0  0  0
 32 54  1  0  0  0  0
M  END
> <PUBCHEM_COMPOUND_CID>
5319323

> <PUBCHEM_COMPOUND_CANONICALIZED>
1

> <PUBCHEM_CACTVS_COMPLEXITY>
715

> <PUBCHEM_CACTVS_HBOND_ACCEPTOR>
10

> <PUBCHEM_CACTVS_HBOND_DONOR>
5

> <PUBCHEM_CACTVS_ROTATABLE_BOND>
4

> <PUBCHEM_CACTVS_SUBSKEYS>
AAADceB4PAAAAAAAAAAAAAAAAAAAAAAAAAA0YMEAAAAAAADBQAAAGgAACAAADBSwmAMyDoAABgCIAqBSAAACCAAkIAAAiAEGCMgdNzaGNRqieWCl4BUPuYfL7PzO4AADCAAYAADAAAYQADAAAAAAAAAAAA==

> <PUBCHEM_IUPAC_OPENEYE_NAME>
1-hydroxy-3-methoxy-6-methyl-8-[(2S,3R,4S,5S,6R)-3,4,5-trihydroxy-6-(hydroxymethyl)tetrahydropyran-2-yl]oxy-anthracene-9,10-dione

> <PUBCHEM_IUPAC_CAS_NAME>
1-hydroxy-3-methoxy-6-methyl-8-[[(2S,3R,4S,5S,6R)-3,4,5-trihydroxy-6-(hydroxymethyl)-2-oxanyl]oxy]anthracene-9,10-dione

> <PUBCHEM_IUPAC_NAME>
1-hydroxy-3-methoxy-6-methyl-8-[(2S,3R,4S,5S,6R)-3,4,5-trihydroxy-6-(hydroxymethyl)oxan-2-yl]oxyanthracene-9,10-dione

> <PUBCHEM_IUPAC_SYSTEMATIC_NAME>
1-[(2S,3R,4S,5S,6R)-6-(hydroxymethyl)-3,4,5-tris(oxidanyl)oxan-2-yl]oxy-6-methoxy-3-methyl-8-oxidanyl-anthracene-9,10-dione

> <PUBCHEM_IUPAC_TRADITIONAL_NAME>
1-hydroxy-3-methoxy-6-methyl-8-[(2S,3R,4S,5S,6R)-3,4,5-trihydroxy-6-methylol-tetrahydropyran-2-yl]oxy-9,10-anthraquinone

> <PUBCHEM_IUPAC_INCHI>
InChI=1S/C22H22O10/c1-8-3-10-16(19(27)15-11(17(10)25)5-9(30-2)6-12(15)24)13(4-8)31-22-21(29)20(28)18(26)14(7-23)32-22/h3-6,14,18,20-24,26,28-29H,7H2,1-2H3/t14-,18-,20+,21-,22-/m1/s1

> <PUBCHEM_IUPAC_INCHIKEY>
WLXGUTUUWXVZNM-DQMLXFRHSA-N

> <PUBCHEM_XLOGP3_AA>
1.2

> <PUBCHEM_EXACT_MASS>
446.121297

> <PUBCHEM_MOLECULAR_FORMULA>
C22H22O10

> <PUBCHEM_MOLECULAR_WEIGHT>
446.40408

> <PUBCHEM_OPENEYE_CAN_SMILES>
CC1=CC(=C2C(=C1)C(=O)C3=CC(=CC(=C3C2=O)O)OC)OC4C(C(C(C(O4)CO)O)O)O

> <PUBCHEM_OPENEYE_ISO_SMILES>
CC1=CC(=C2C(=C1)C(=O)C3=CC(=CC(=C3C2=O)O)OC)O[C@H]4[C@@H]([C@H]([C@@H]([C@H](O4)CO)O)O)O

> <PUBCHEM_CACTVS_TPSA>
163

> <PUBCHEM_MONOISOTOPIC_WEIGHT>
446.121297

> <PUBCHEM_TOTAL_CHARGE>
0

> <PUBCHEM_HEAVY_ATOM_COUNT>
32

> <PUBCHEM_ATOM_DEF_STEREO_COUNT>
5

> <PUBCHEM_ATOM_UDEF_STEREO_COUNT>
0

> <PUBCHEM_BOND_DEF_STEREO_COUNT>
0

> <PUBCHEM_BOND_UDEF_STEREO_COUNT>
0

> <PUBCHEM_ISOTOPIC_ATOM_COUNT>
0

> <PUBCHEM_COMPONENT_COUNT>
1

> <PUBCHEM_CACTVS_TAUTO_COUNT>
24

> <PUBCHEM_COORDINATE_TYPE>
1
5
255

> <PUBCHEM_BONDANNOTATIONS>
14  16  6
17  18  8
17  20  8
18  19  8
19  24  8
15  2  6
20  22  8
22  24  8
23  25  8
23  27  8
25  28  8
27  31  8
28  30  8
11  3  6
30  31  8
12  4  5
13  5  5

$$$$

