442523
  -OEChem-07051212582D

 44 47  0     1  0  0  0  0  0999 V2000
    8.0050   -0.4145    0.0000 O   0  0  0  0  0  0  0  0  0  0  0  0
    8.2462   -2.2465    0.0000 O   0  0  0  0  0  0  0  0  0  0  0  0
    2.5619   -0.5031    0.0000 N   0  0  3  0  0  0  0  0  0  0  0  0
    3.4655   -1.4580    0.0000 C   0  0  1  0  0  0  0  0  0  0  0  0
    4.3791   -1.8648    0.0000 C   0  0  2  0  0  0  0  0  0  0  0  0
    3.5701   -0.4635    0.0000 C   0  0  1  0  0  0  0  0  0  0  0  0
    2.8023   -2.1985    0.0000 C   0  0  2  0  0  0  0  0  0  0  0  0
    5.9142   -0.6216    0.0000 C   0  0  2  0  0  0  0  0  0  0  0  0
    6.1731    0.3443    0.0000 C   0  0  1  0  0  0  0  0  0  0  0  0
    5.4364    1.3269    0.0000 C   0  0  1  0  0  0  0  0  0  0  0  0
    4.2726   -2.8531    0.0000 C   0  0  0  0  0  0  0  0  0  0  0  0
    3.3001   -3.0590    0.0000 C   0  0  0  0  0  0  0  0  0  0  0  0
    2.1537   -1.4257    0.0000 C   0  0  0  0  0  0  0  0  0  0  0  0
    3.3610   -2.4526    0.0000 C   0  0  0  0  0  0  0  0  0  0  0  0
    7.7462   -1.3804    0.0000 C   0  0  0  0  0  0  0  0  0  0  0  0
    4.9364    2.1929    0.0000 C   0  0  0  0  0  0  0  0  0  0  0  0
    2.0000    0.3241    0.0000 C   0  0  0  0  0  0  0  0  0  0  0  0
    5.4364    3.0590    0.0000 C   0  0  0  0  0  0  0  0  0  0  0  0
    3.9364    2.1929    0.0000 C   0  0  0  0  0  0  0  0  0  0  0  0
    5.1556   -2.2105    0.0000 H   0  0  0  0  0  0  0  0  0  0  0  0
    3.6589    0.3818    0.0000 H   0  0  0  0  0  0  0  0  0  0  0  0
    2.1063   -2.6864    0.0000 H   0  0  0  0  0  0  0  0  0  0  0  0
    5.6942   -1.4427    0.0000 H   0  0  0  0  0  0  0  0  0  0  0  0
    6.3931    1.1653    0.0000 H   0  0  0  0  0  0  0  0  0  0  0  0
    5.9539    1.6685    0.0000 H   0  0  0  0  0  0  0  0  0  0  0  0
    4.3365   -3.4698    0.0000 H   0  0  0  0  0  0  0  0  0  0  0  0
    4.8926   -2.8544    0.0000 H   0  0  0  0  0  0  0  0  0  0  0  0
    2.7338   -3.3113    0.0000 H   0  0  0  0  0  0  0  0  0  0  0  0
    3.4915   -3.6487    0.0000 H   0  0  0  0  0  0  0  0  0  0  0  0
    1.6312   -1.0919    0.0000 H   0  0  0  0  0  0  0  0  0  0  0  0
    1.7446   -1.8916    0.0000 H   0  0  0  0  0  0  0  0  0  0  0  0
    2.7444   -2.3878    0.0000 H   0  0  0  0  0  0  0  0  0  0  0  0
    3.2962   -3.0692    0.0000 H   0  0  0  0  0  0  0  0  0  0  0  0
    3.9776   -2.5174    0.0000 H   0  0  0  0  0  0  0  0  0  0  0  0
    5.5564    2.1929    0.0000 H   0  0  0  0  0  0  0  0  0  0  0  0
    2.5128    0.6725    0.0000 H   0  0  0  0  0  0  0  0  0  0  0  0
    1.6516    0.8369    0.0000 H   0  0  0  0  0  0  0  0  0  0  0  0
    1.4872   -0.0243    0.0000 H   0  0  0  0  0  0  0  0  0  0  0  0
    5.9734    2.7490    0.0000 H   0  0  0  0  0  0  0  0  0  0  0  0
    5.7464    3.5959    0.0000 H   0  0  0  0  0  0  0  0  0  0  0  0
    4.8995    3.3690    0.0000 H   0  0  0  0  0  0  0  0  0  0  0  0
    3.9364    2.8129    0.0000 H   0  0  0  0  0  0  0  0  0  0  0  0
    3.3164    2.1929    0.0000 H   0  0  0  0  0  0  0  0  0  0  0  0
    3.9364    1.5729    0.0000 H   0  0  0  0  0  0  0  0  0  0  0  0
  1  9  1  0  0  0  0
  1 15  1  0  0  0  0
  2 15  2  0  0  0  0
  3  6  1  0  0  0  0
  3 13  1  0  0  0  0
  3 17  1  0  0  0  0
  4  5  1  0  0  0  0
  4  6  1  0  0  0  0
  4  7  1  0  0  0  0
  4 14  1  1  0  0  0
  5  8  1  0  0  0  0
  5 11  1  0  0  0  0
  5 20  1  1  0  0  0
  6  9  1  0  0  0  0
  6 21  1  1  0  0  0
  7 12  1  0  0  0  0
  7 13  1  0  0  0  0
  7 22  1  1  0  0  0
  8 10  1  0  0  0  0
  8 15  1  0  0  0  0
  8 23  1  1  0  0  0
  9 10  1  0  0  0  0
  9 24  1  6  0  0  0
 10 16  1  6  0  0  0
 10 25  1  0  0  0  0
 11 12  1  0  0  0  0
 11 26  1  0  0  0  0
 11 27  1  0  0  0  0
 12 28  1  0  0  0  0
 12 29  1  0  0  0  0
 13 30  1  0  0  0  0
 13 31  1  0  0  0  0
 14 32  1  0  0  0  0
 14 33  1  0  0  0  0
 14 34  1  0  0  0  0
 16 18  1  0  0  0  0
 16 19  1  0  0  0  0
 16 35  1  0  0  0  0
 17 36  1  0  0  0  0
 17 37  1  0  0  0  0
 17 38  1  0  0  0  0
 18 39  1  0  0  0  0
 18 40  1  0  0  0  0
 18 41  1  0  0  0  0
 19 42  1  0  0  0  0
 19 43  1  0  0  0  0
 19 44  1  0  0  0  0
M  END
> <PUBCHEM_COMPOUND_CID>
442523

> <PUBCHEM_COMPOUND_CANONICALIZED>
1

> <PUBCHEM_CACTVS_COMPLEXITY>
435

> <PUBCHEM_CACTVS_HBOND_ACCEPTOR>
3

> <PUBCHEM_CACTVS_HBOND_DONOR>
0

> <PUBCHEM_CACTVS_ROTATABLE_BOND>
1

> <PUBCHEM_CACTVS_SUBSKEYS>
AAADceB6MAAAAAAAAAAAAAAAAAAAAeJEAAAwAAAABIAWAHgAAAAAHgAAAAAADzzhgAYCCAMABAAIAACQCAAAAAAAAAAAAAEIAAACABIAgAAHAAAEAACQAAGa2fOfgAAAAAAAAADQAAaAADQgAQAACAAAAA==

> <PUBCHEM_IUPAC_INCHI>
InChI=1S/C16H25NO2/c1-8(2)11-12-10-6-5-9-7-17(4)14(16(9,10)3)13(11)19-15(12)18/h8-14H,5-7H2,1-4H3/t9-,10+,11+,12-,13-,14-,16+/m1/s1

> <PUBCHEM_IUPAC_INCHIKEY>
RYAHJFGVOCZDEI-UFFNCVEVSA-N

> <PUBCHEM_XLOGP3_AA>
3

> <PUBCHEM_EXACT_MASS>
263.188529

> <PUBCHEM_MOLECULAR_FORMULA>
C16H25NO2

> <PUBCHEM_MOLECULAR_WEIGHT>
263.3752

> <PUBCHEM_OPENEYE_CAN_SMILES>
CC(C)C1C2C3CCC4C3(C(C1OC2=O)N(C4)C)C

> <PUBCHEM_OPENEYE_ISO_SMILES>
CC(C)[C@H]1[C@H]2[C@@H]3CC[C@H]4[C@@]3([C@@H]([C@@H]1OC2=O)N(C4)C)C

> <PUBCHEM_CACTVS_TPSA>
29.5

> <PUBCHEM_MONOISOTOPIC_WEIGHT>
263.188529

> <PUBCHEM_TOTAL_CHARGE>
0

> <PUBCHEM_HEAVY_ATOM_COUNT>
19

> <PUBCHEM_ATOM_DEF_STEREO_COUNT>
7

> <PUBCHEM_ATOM_UDEF_STEREO_COUNT>
0

> <PUBCHEM_BOND_DEF_STEREO_COUNT>
0

> <PUBCHEM_BOND_UDEF_STEREO_COUNT>
0

> <PUBCHEM_ISOTOPIC_ATOM_COUNT>
0

> <PUBCHEM_COMPONENT_COUNT>
1

> <PUBCHEM_CACTVS_TAUTO_COUNT>
1

> <PUBCHEM_COORDINATE_TYPE>
1
5
255

> <PUBCHEM_BONDANNOTATIONS>
10  16  6
4  14  5
5  20  5
6  21  5
7  22  5
8  23  5
9  24  6

$$$$

