92990
  -OEChem-07051212573D

 47 50  0     1  0  0  0  0  0999 V2000
   -1.2742    1.5219   -0.0570 N   0  0  2  0  0  0  0  0  0  0  0  0
    1.5057   -1.7648    0.1716 N   0  0  0  0  0  0  0  0  0  0  0  0
   -2.8978   -0.2691   -0.0135 C   0  0  2  0  0  0  0  0  0  0  0  0
   -2.3487    0.9110   -0.8352 C   0  0  0  0  0  0  0  0  0  0  0  0
   -3.4996    0.3248    1.2911 C   0  0  0  0  0  0  0  0  0  0  0  0
   -1.7942   -1.3302    0.3302 C   0  0  0  0  0  0  0  0  0  0  0  0
   -2.5346    1.2752    2.0193 C   0  0  0  0  0  0  0  0  0  0  0  0
   -4.0197   -0.9558   -0.8148 C   0  0  0  0  0  0  0  0  0  0  0  0
   -1.8210    2.2571    1.0779 C   0  0  0  0  0  0  0  0  0  0  0  0
   -0.7883   -1.6712   -0.7918 C   0  0  0  0  0  0  0  0  0  0  0  0
   -0.2967    2.2399   -0.8611 C   0  0  0  0  0  0  0  0  0  0  0  0
    0.5337    1.2629   -1.7209 C   0  0  0  0  0  0  0  0  0  0  0  0
    0.5702   -1.0655   -0.5551 C   0  0  0  0  0  0  0  0  0  0  0  0
    1.1526    0.1452   -0.9235 C   0  0  0  0  0  0  0  0  0  0  0  0
   -4.6677   -2.0547   -0.0036 C   0  0  0  0  0  0  0  0  0  0  0  0
    2.4803    0.1575   -0.3755 C   0  0  0  0  0  0  0  0  0  0  0  0
    2.6680   -1.0471    0.2988 C   0  0  0  0  0  0  0  0  0  0  0  0
    3.5407    1.0897   -0.3883 C   0  0  0  0  0  0  0  0  0  0  0  0
    3.8591   -1.3728    0.9578 C   0  0  0  0  0  0  0  0  0  0  0  0
    4.7387    0.7803    0.2656 C   0  0  0  0  0  0  0  0  0  0  0  0
    4.8936   -0.4344    0.9280 C   0  0  0  0  0  0  0  0  0  0  0  0
   -2.0187    0.5540   -1.8138 H   0  0  0  0  0  0  0  0  0  0  0  0
   -3.1366    1.6450   -1.0564 H   0  0  0  0  0  0  0  0  0  0  0  0
   -3.7799   -0.4606    2.0013 H   0  0  0  0  0  0  0  0  0  0  0  0
   -4.4132    0.8858    1.0532 H   0  0  0  0  0  0  0  0  0  0  0  0
   -2.2338   -2.2627    0.6913 H   0  0  0  0  0  0  0  0  0  0  0  0
   -1.2235   -0.9808    1.2003 H   0  0  0  0  0  0  0  0  0  0  0  0
   -3.0840    1.8361    2.7846 H   0  0  0  0  0  0  0  0  0  0  0  0
   -1.7818    0.6851    2.5565 H   0  0  0  0  0  0  0  0  0  0  0  0
   -3.6301   -1.3744   -1.7504 H   0  0  0  0  0  0  0  0  0  0  0  0
   -4.7863   -0.2227   -1.0963 H   0  0  0  0  0  0  0  0  0  0  0  0
   -2.5117    3.0424    0.7465 H   0  0  0  0  0  0  0  0  0  0  0  0
   -1.0209    2.7474    1.6450 H   0  0  0  0  0  0  0  0  0  0  0  0
   -1.1608   -1.4052   -1.7851 H   0  0  0  0  0  0  0  0  0  0  0  0
   -0.6707   -2.7635   -0.8184 H   0  0  0  0  0  0  0  0  0  0  0  0
    0.4000    2.7728   -0.2012 H   0  0  0  0  0  0  0  0  0  0  0  0
   -0.7760    2.9932   -1.4977 H   0  0  0  0  0  0  0  0  0  0  0  0
    1.3255    1.8347   -2.2212 H   0  0  0  0  0  0  0  0  0  0  0  0
   -0.0661    0.8389   -2.5340 H   0  0  0  0  0  0  0  0  0  0  0  0
   -4.0232   -2.9194    0.1653 H   0  0  0  0  0  0  0  0  0  0  0  0
   -5.0826   -1.7193    0.9491 H   0  0  0  0  0  0  0  0  0  0  0  0
   -5.5208   -2.4426   -0.5748 H   0  0  0  0  0  0  0  0  0  0  0  0
    1.3535   -2.6813    0.5692 H   0  0  0  0  0  0  0  0  0  0  0  0
    3.4373    2.0434   -0.8982 H   0  0  0  0  0  0  0  0  0  0  0  0
    3.9787   -2.3186    1.4756 H   0  0  0  0  0  0  0  0  0  0  0  0
    5.5554    1.4972    0.2558 H   0  0  0  0  0  0  0  0  0  0  0  0
    5.8314   -0.6565    1.4306 H   0  0  0  0  0  0  0  0  0  0  0  0
  1  4  1  0  0  0  0
  1  9  1  0  0  0  0
  1 11  1  0  0  0  0
  2 13  1  0  0  0  0
  2 17  1  0  0  0  0
  2 43  1  0  0  0  0
  3  4  1  0  0  0  0
  3  5  1  0  0  0  0
  3  6  1  0  0  0  0
  3  8  1  0  0  0  0
  4 22  1  0  0  0  0
  4 23  1  0  0  0  0
  5  7  1  0  0  0  0
  5 24  1  0  0  0  0
  5 25  1  0  0  0  0
  6 10  1  0  0  0  0
  6 26  1  0  0  0  0
  6 27  1  0  0  0  0
  7  9  1  0  0  0  0
  7 28  1  0  0  0  0
  7 29  1  0  0  0  0
  8 15  1  0  0  0  0
  8 30  1  0  0  0  0
  8 31  1  0  0  0  0
  9 32  1  0  0  0  0
  9 33  1  0  0  0  0
 10 13  1  0  0  0  0
 10 34  1  0  0  0  0
 10 35  1  0  0  0  0
 11 12  1  0  0  0  0
 11 36  1  0  0  0  0
 11 37  1  0  0  0  0
 12 14  1  0  0  0  0
 12 38  1  0  0  0  0
 12 39  1  0  0  0  0
 13 14  2  0  0  0  0
 14 16  1  0  0  0  0
 15 40  1  0  0  0  0
 15 41  1  0  0  0  0
 15 42  1  0  0  0  0
 16 17  1  0  0  0  0
 16 18  2  0  0  0  0
 17 19  2  0  0  0  0
 18 20  1  0  0  0  0
 18 44  1  0  0  0  0
 19 21  1  0  0  0  0
 19 45  1  0  0  0  0
 20 21  2  0  0  0  0
 20 46  1  0  0  0  0
 21 47  1  0  0  0  0
M  END
> <PUBCHEM_COMPOUND_CID>
92990

> <PUBCHEM_CONFORMER_RMSD>
0.6

> <PUBCHEM_CONFORMER_DIVERSEORDER>
1
2

> <PUBCHEM_MMFF94_PARTIAL_CHARGES>
19
1 -0.81
10 0.18
11 0.27
12 0.18
13 -0.33
14 -0.18
17 -0.15
18 -0.15
19 -0.15
2 0.03
20 -0.15
21 -0.15
4 0.27
43 0.27
44 0.15
45 0.15
46 0.15
47 0.15
9 0.27

> <PUBCHEM_EFFECTIVE_ROTOR_COUNT>
2.6

> <PUBCHEM_PHARMACOPHORE_FEATURES>
7
1 1 cation
1 15 hydrophobe
1 2 cation
1 2 donor
5 2 13 14 16 17 rings
6 1 3 4 5 7 9 rings
6 16 17 18 19 20 21 rings

> <PUBCHEM_HEAVY_ATOM_COUNT>
21

> <PUBCHEM_ATOM_DEF_STEREO_COUNT>
1

> <PUBCHEM_ATOM_UDEF_STEREO_COUNT>
0

> <PUBCHEM_BOND_DEF_STEREO_COUNT>
0

> <PUBCHEM_BOND_UDEF_STEREO_COUNT>
0

> <PUBCHEM_ISOTOPIC_ATOM_COUNT>
0

> <PUBCHEM_COMPONENT_COUNT>
1

> <PUBCHEM_CACTVS_TAUTO_COUNT>
1

> <PUBCHEM_CONFORMER_ID>
00016B3E00000001

> <PUBCHEM_MMFF94_ENERGY>
52.2229

> <PUBCHEM_FEATURE_SELFOVERLAP>
35.609

> <PUBCHEM_SHAPE_FINGERPRINT>
10366900 7 18342172237754407192
1100329 8 18047752598907545487
11132069 177 18336262448164047828
11578080 2 18267605558093288973
12166972 35 18201159832652917183
12236239 1 18411140203591172886
12251169 10 18413389860727483998
12363563 72 16773506741736803604
12403814 3 18343021124871054153
12553582 1 18129922551329754493
12633257 1 18041273352577703728
12670546 56 18335427867852950298
13140716 1 18122619453295443547
13224815 77 18410853282817119686
13544653 18 17847061086203651588
13583140 156 16226622899797718502
13693222 15 18202281437566258572
13965767 371 17904743815676078825
14081887 123 18186523232310750136
14142880 1 18188773971858447673
14178342 30 18262505022398515793
14223421 5 18339926046925631590
14289901 80 17313384543282131510
14341114 328 18040426698606939744
14787075 74 18190747427177707988
15196674 1 18342462547014712870
15209294 21 18114455759853296569
15375462 478 18410295787393394119
16945 1 18124027085972012902
17349148 13 18343301444258865150
17492 89 18339646749234407859
17834072 14 17704075100843467885
192875 21 18201718418903741277
19433438 48 18410569613159677993
19862831 5 8070024446001930264
200 152 18341058441007687639
20261772 1 18413102883887104680
20510252 161 18186518821553306235
20715895 44 18126011705135986125
20775530 9 14688577501539027432
21267235 1 18343579625243839422
21623110 236 18337670806621895056
21756936 100 17530975696102777512
23402539 116 18113909225681833039
23419403 2 18045251300211926405
23557571 272 17240746364466301143
23559900 14 18191876840806012414
25 1 6627753283839142284
2748010 2 17838609316367072293
3797600 57 17894911815375960328
392239 28 18041564620074152282
439807 62 17912084950827719919
5104073 3 18338242656137515610
5161694 15 14764344916612618189
5283173 99 17487921070794613869
6034566 193 16336645230468816132
7064713 232 18260823855876224097
7097593 13 17982454007677406666
7471813 234 17393624483869328343
9882013 296 18410574002690094520

> <PUBCHEM_SHAPE_MULTIPOLES>
422.21
8.88
2.28
1.39
4.25
0.32
0.24
-2.5
2.48
-1.19
0.04
-0.54
0.53
-1.15

> <PUBCHEM_SHAPE_SELFOVERLAP>
910.623

> <PUBCHEM_SHAPE_VOLUME>
228.6

> <PUBCHEM_COORDINATE_TYPE>
2
5
10

$$$$

