126845
  -OEChem-07051212493D

 45 44  0     1  0  0  0  0  0999 V2000
    1.6084    1.2924    0.1787 S   0  0  0  0  0  0  0  0  0  0  0  0
   -1.9521   -0.9908   -2.1548 O   0  0  0  0  0  0  0  0  0  0  0  0
    1.2819   -2.3745    1.0635 O   0  0  0  0  0  0  0  0  0  0  0  0
   -4.8951    0.3189    2.2800 O   0  0  0  0  0  0  0  0  0  0  0  0
   -5.9795    1.6169    0.7698 O   0  0  0  0  0  0  0  0  0  0  0  0
    2.2293    2.8406   -1.8514 O   0  0  0  0  0  0  0  0  0  0  0  0
    4.4774   -0.8126    0.7397 O   0  0  0  0  0  0  0  0  0  0  0  0
    2.4715    3.6781    1.6226 O   0  0  0  0  0  0  0  0  0  0  0  0
    5.7710   -2.5803    1.3312 O   0  0  0  0  0  0  0  0  0  0  0  0
   -0.6275   -1.0082   -0.2468 N   0  0  0  0  0  0  0  0  0  0  0  0
    2.7962   -2.2131   -0.6868 N   0  0  0  0  0  0  0  0  0  0  0  0
   -6.7907   -0.6638   -0.5486 N   0  0  0  0  0  0  0  0  0  0  0  0
    2.5382    3.7707    0.2272 N   0  0  0  0  0  0  0  0  0  0  0  0
    0.6496   -1.1165   -0.9132 C   0  0  1  0  0  0  0  0  0  0  0  0
   -4.3505   -0.7710   -0.7204 C   0  0  0  0  0  0  0  0  0  0  0  0
   -3.0111   -0.8323    0.0169 C   0  0  0  0  0  0  0  0  0  0  0  0
   -5.5515   -0.7212    0.2307 C   0  0  1  0  0  0  0  0  0  0  0  0
   -1.8318   -0.9541   -0.9332 C   0  0  0  0  0  0  0  0  0  0  0  0
    1.2380    0.2507   -1.2706 C   0  0  0  0  0  0  0  0  0  0  0  0
    1.5823   -1.9727   -0.0589 C   0  0  0  0  0  0  0  0  0  0  0  0
   -5.5213    0.5279    1.0926 C   0  0  0  0  0  0  0  0  0  0  0  0
    3.8543   -2.9782   -0.0697 C   0  0  0  0  0  0  0  0  0  0  0  0
    2.1717    2.7619   -0.6274 C   0  0  0  0  0  0  0  0  0  0  0  0
    4.8014   -2.1265    0.7357 C   0  0  0  0  0  0  0  0  0  0  0  0
    3.0399    5.0575   -0.2066 C   0  0  0  0  0  0  0  0  0  0  0  0
    0.4871   -1.6684   -1.8485 H   0  0  0  0  0  0  0  0  0  0  0  0
   -4.4407   -1.6469   -1.3765 H   0  0  0  0  0  0  0  0  0  0  0  0
   -4.3516    0.1105   -1.3764 H   0  0  0  0  0  0  0  0  0  0  0  0
   -2.8570    0.0752    0.6113 H   0  0  0  0  0  0  0  0  0  0  0  0
   -2.9956   -1.6934    0.6954 H   0  0  0  0  0  0  0  0  0  0  0  0
   -5.5822   -1.6077    0.8740 H   0  0  0  0  0  0  0  0  0  0  0  0
   -0.6348   -0.9461    0.7676 H   0  0  0  0  0  0  0  0  0  0  0  0
    0.5229    0.7936   -1.8996 H   0  0  0  0  0  0  0  0  0  0  0  0
    2.1595    0.1366   -1.8501 H   0  0  0  0  0  0  0  0  0  0  0  0
    2.9576   -1.8599   -1.6248 H   0  0  0  0  0  0  0  0  0  0  0  0
   -6.8529   -1.4835   -1.1514 H   0  0  0  0  0  0  0  0  0  0  0  0
   -7.5918   -0.7138    0.0800 H   0  0  0  0  0  0  0  0  0  0  0  0
    4.4168   -3.4598   -0.8743 H   0  0  0  0  0  0  0  0  0  0  0  0
    3.4174   -3.7336    0.5901 H   0  0  0  0  0  0  0  0  0  0  0  0
   -4.8669    1.1329    2.8265 H   0  0  0  0  0  0  0  0  0  0  0  0
    2.3724    5.8392    0.1671 H   0  0  0  0  0  0  0  0  0  0  0  0
    3.0919    5.1145   -1.2967 H   0  0  0  0  0  0  0  0  0  0  0  0
    4.0388    5.2042    0.2139 H   0  0  0  0  0  0  0  0  0  0  0  0
    5.1074   -0.2802    1.2707 H   0  0  0  0  0  0  0  0  0  0  0  0
    1.5858    4.0464    1.7821 H   0  0  0  0  0  0  0  0  0  0  0  0
  1 19  1  0  0  0  0
  1 23  1  0  0  0  0
  2 18  2  0  0  0  0
  3 20  2  0  0  0  0
  4 21  1  0  0  0  0
  4 40  1  0  0  0  0
  5 21  2  0  0  0  0
  6 23  2  0  0  0  0
  7 24  1  0  0  0  0
  7 44  1  0  0  0  0
  8 13  1  0  0  0  0
  8 45  1  0  0  0  0
  9 24  2  0  0  0  0
 10 14  1  0  0  0  0
 10 18  1  0  0  0  0
 10 32  1  0  0  0  0
 11 20  1  0  0  0  0
 11 22  1  0  0  0  0
 11 35  1  0  0  0  0
 12 17  1  0  0  0  0
 12 36  1  0  0  0  0
 12 37  1  0  0  0  0
 13 23  1  0  0  0  0
 13 25  1  0  0  0  0
 14 19  1  0  0  0  0
 14 20  1  0  0  0  0
 14 26  1  0  0  0  0
 15 16  1  0  0  0  0
 15 17  1  0  0  0  0
 15 27  1  0  0  0  0
 15 28  1  0  0  0  0
 16 18  1  0  0  0  0
 16 29  1  0  0  0  0
 16 30  1  0  0  0  0
 17 21  1  0  0  0  0
 17 31  1  0  0  0  0
 19 33  1  0  0  0  0
 19 34  1  0  0  0  0
 22 24  1  0  0  0  0
 22 38  1  0  0  0  0
 22 39  1  0  0  0  0
 25 41  1  0  0  0  0
 25 42  1  0  0  0  0
 25 43  1  0  0  0  0
M  END
> <PUBCHEM_COMPOUND_CID>
126845

> <PUBCHEM_CONFORMER_RMSD>
1.2

> <PUBCHEM_CONFORMER_DIVERSEORDER>
1
98
25
96
71
78
61
59
48
20
70
56
79
15
97
44
42
65
89
7
83
84
3
22
94
64
27
46
88
47
91
39
80
92
95
30
67
75
24
34
13
5
35
62
63
54
41
90
81
40
26
38
86
36
4
14
72
43
45
10
19
31
73
52
29
58
37
33
6
23
50
53
57
66
85
55
12
76
17
32
21
69
28
16
11
2
51
8
74
77
49
68
18
82
9
87
60
93

> <PUBCHEM_MMFF94_PARTIAL_CHARGES>
31
1 -0.37
10 -0.73
11 -0.73
12 -0.99
13 -0.32
14 0.36
16 0.06
17 0.33
18 0.57
19 0.23
2 -0.57
20 0.57
21 0.66
22 0.36
23 0.77
24 0.66
25 0.3
3 -0.57
32 0.37
35 0.37
36 0.36
37 0.36
4 -0.65
40 0.5
44 0.5
45 0.4
5 -0.57
6 -0.57
7 -0.65
8 -0.44
9 -0.57

> <PUBCHEM_EFFECTIVE_ROTOR_COUNT>
14

> <PUBCHEM_PHARMACOPHORE_FEATURES>
12
1 10 donor
1 11 donor
1 12 cation
1 12 donor
1 2 acceptor
1 3 acceptor
1 4 acceptor
1 5 acceptor
1 7 acceptor
1 9 acceptor
3 4 5 21 anion
3 7 9 24 anion

> <PUBCHEM_HEAVY_ATOM_COUNT>
25

> <PUBCHEM_ATOM_DEF_STEREO_COUNT>
2

> <PUBCHEM_ATOM_UDEF_STEREO_COUNT>
0

> <PUBCHEM_BOND_DEF_STEREO_COUNT>
0

> <PUBCHEM_BOND_UDEF_STEREO_COUNT>
0

> <PUBCHEM_ISOTOPIC_ATOM_COUNT>
0

> <PUBCHEM_COMPONENT_COUNT>
1

> <PUBCHEM_CACTVS_TAUTO_COUNT>
4

> <PUBCHEM_CONFORMER_ID>
0001EF7D00000001

> <PUBCHEM_MMFF94_ENERGY>
37.0204

> <PUBCHEM_FEATURE_SELFOVERLAP>
61.01

> <PUBCHEM_SHAPE_FINGERPRINT>
12403259 118 18113895005545898663
12616971 3 18188196681404623683
13540713 5 18043544806441544295
13590594 115 18267298909938151281
13878862 14 18341066172408010325
13899415 154 18412256255955663990
14466204 15 18195526132809460867
14739800 52 17750804242171794265
14849402 71 18340483378993381220
14955137 171 18336822112647212742
17980427 23 17749685059266462783
17980427 26 18192159187750463588
1813 80 18264483052359756438
18785283 64 18272088241081175966
21033648 29 17461184276627815571
21304253 13 18336551607375334090
23559900 14 17131825457238082135
249057 25 18040715858187107423
25147074 1 17969515822556982263
5104073 3 18340194203805077499
5895379 119 17097187627979382585
6823239 73 16056871416988096879
6898599 12 7922764745425086146
9841814 1 18342733044282283998

> <PUBCHEM_SHAPE_MULTIPOLES>
451.46
13.83
5.12
1.53
21.17
7.36
-0.06
-3.35
-5.22
-11.35
-0.54
0.52
0.24
-2.02

> <PUBCHEM_SHAPE_SELFOVERLAP>
873.558

> <PUBCHEM_SHAPE_VOLUME>
272.8

> <PUBCHEM_COORDINATE_TYPE>
2
5
10

$$$$

