442290
  -OEChem-07051212573D

 46 48  0     1  0  0  0  0  0999 V2000
   -0.3055    3.1777    0.8743 O   0  0  0  0  0  0  0  0  0  0  0  0
   -2.7223    1.6709    0.0106 O   0  0  0  0  0  0  0  0  0  0  0  0
   -0.9449   -1.9161    0.7710 O   0  0  0  0  0  0  0  0  0  0  0  0
    4.0821   -0.5169   -0.3277 O   0  0  0  0  0  0  0  0  0  0  0  0
   -4.8010    0.9535   -0.6599 O   0  0  0  0  0  0  0  0  0  0  0  0
    4.2625   -1.2286   -1.5782 O   0  0  0  0  0  0  0  0  0  0  0  0
    0.3747   -3.7900    0.4809 O   0  0  0  0  0  0  0  0  0  0  0  0
    0.7360    2.1999    0.9905 C   0  0  1  0  0  0  0  0  0  0  0  0
   -0.3675    2.0574   -0.0192 C   0  0  1  0  0  0  0  0  0  0  0  0
   -1.4414    1.0472    0.2279 C   0  0  2  0  0  0  0  0  0  0  0  0
   -1.3713   -0.1058   -0.7755 C   0  0  1  0  0  0  0  0  0  0  0  0
    2.0991    2.6107    0.5450 C   0  0  0  0  0  0  0  0  0  0  0  0
    0.6561    1.5972    2.3609 C   0  0  0  0  0  0  0  0  0  0  0  0
   -0.4330   -1.2788   -0.4079 C   0  0  1  0  0  0  0  0  0  0  0  0
    3.0854    1.4386    0.6050 C   0  0  0  0  0  0  0  0  0  0  0  0
   -2.8291   -0.4230   -0.8961 C   0  0  0  0  0  0  0  0  0  0  0  0
    1.0458   -0.9260   -0.1169 C   0  0  0  0  0  0  0  0  0  0  0  0
    3.1426    0.5226   -0.6331 C   0  0  2  0  0  0  0  0  0  0  0  0
   -3.6054    0.7748   -0.5147 C   0  0  0  0  0  0  0  0  0  0  0  0
    1.8553   -0.1274   -1.1197 C   0  0  0  0  0  0  0  0  0  0  0  0
   -3.4371   -1.5556   -1.2588 C   0  0  0  0  0  0  0  0  0  0  0  0
    1.5357   -0.0359   -2.4221 C   0  0  0  0  0  0  0  0  0  0  0  0
   -0.2516   -3.0115    1.1872 C   0  0  0  0  0  0  0  0  0  0  0  0
   -0.3650   -3.1350    2.6765 C   0  0  0  0  0  0  0  0  0  0  0  0
   -0.1937    2.2779   -1.0635 H   0  0  0  0  0  0  0  0  0  0  0  0
   -1.4540    0.6724    1.2557 H   0  0  0  0  0  0  0  0  0  0  0  0
   -1.0794    0.2907   -1.7551 H   0  0  0  0  0  0  0  0  0  0  0  0
    2.4560    3.4030    1.2151 H   0  0  0  0  0  0  0  0  0  0  0  0
    2.0842    3.0421   -0.4628 H   0  0  0  0  0  0  0  0  0  0  0  0
    0.9458    0.5516    2.4350 H   0  0  0  0  0  0  0  0  0  0  0  0
    1.3135    2.1516    3.0425 H   0  0  0  0  0  0  0  0  0  0  0  0
   -0.3465    1.6834    2.7964 H   0  0  0  0  0  0  0  0  0  0  0  0
   -0.4695   -2.0083   -1.2287 H   0  0  0  0  0  0  0  0  0  0  0  0
    4.0920    1.8697    0.7118 H   0  0  0  0  0  0  0  0  0  0  0  0
    2.9686    0.8364    1.5127 H   0  0  0  0  0  0  0  0  0  0  0  0
    1.6234   -1.8490    0.0136 H   0  0  0  0  0  0  0  0  0  0  0  0
    1.1002   -0.4643    0.8571 H   0  0  0  0  0  0  0  0  0  0  0  0
    3.5829    1.1248   -1.4407 H   0  0  0  0  0  0  0  0  0  0  0  0
   -2.8657   -2.4342   -1.5374 H   0  0  0  0  0  0  0  0  0  0  0  0
   -4.5183   -1.6386   -1.2918 H   0  0  0  0  0  0  0  0  0  0  0  0
    2.1543    0.5222   -3.1178 H   0  0  0  0  0  0  0  0  0  0  0  0
    0.6724   -0.5361   -2.8439 H   0  0  0  0  0  0  0  0  0  0  0  0
    3.8079   -2.0415   -1.2984 H   0  0  0  0  0  0  0  0  0  0  0  0
   -1.4128   -3.2636    2.9594 H   0  0  0  0  0  0  0  0  0  0  0  0
    0.0573   -2.2473    3.1546 H   0  0  0  0  0  0  0  0  0  0  0  0
    0.1970   -4.0114    3.0116 H   0  0  0  0  0  0  0  0  0  0  0  0
  1  8  1  0  0  0  0
  1  9  1  0  0  0  0
  2 10  1  0  0  0  0
  2 19  1  0  0  0  0
  3 14  1  0  0  0  0
  3 23  1  0  0  0  0
  4  6  1  0  0  0  0
  4 18  1  0  0  0  0
  5 19  2  0  0  0  0
  6 43  1  0  0  0  0
  7 23  2  0  0  0  0
  8  9  1  0  0  0  0
  8 12  1  0  0  0  0
  8 13  1  0  0  0  0
  9 10  1  0  0  0  0
  9 25  1  0  0  0  0
 10 11  1  0  0  0  0
 10 26  1  0  0  0  0
 11 14  1  0  0  0  0
 11 16  1  0  0  0  0
 11 27  1  0  0  0  0
 12 15  1  0  0  0  0
 12 28  1  0  0  0  0
 12 29  1  0  0  0  0
 13 30  1  0  0  0  0
 13 31  1  0  0  0  0
 13 32  1  0  0  0  0
 14 17  1  0  0  0  0
 14 33  1  0  0  0  0
 15 18  1  0  0  0  0
 15 34  1  0  0  0  0
 15 35  1  0  0  0  0
 16 19  1  0  0  0  0
 16 21  2  0  0  0  0
 17 20  1  0  0  0  0
 17 36  1  0  0  0  0
 17 37  1  0  0  0  0
 18 20  1  0  0  0  0
 18 38  1  0  0  0  0
 20 22  2  0  0  0  0
 21 39  1  0  0  0  0
 21 40  1  0  0  0  0
 22 41  1  0  0  0  0
 22 42  1  0  0  0  0
 23 24  1  0  0  0  0
 24 44  1  0  0  0  0
 24 45  1  0  0  0  0
 24 46  1  0  0  0  0
M  END
> <PUBCHEM_COMPOUND_CID>
442290

> <PUBCHEM_CONFORMER_RMSD>
0.8

> <PUBCHEM_CONFORMER_DIVERSEORDER>
1
3
2
4

> <PUBCHEM_MMFF94_PARTIAL_CHARGES>
29
1 -0.3
10 0.38
11 0.14
12 0.09
13 0.09
14 0.28
16 -0.12
17 0.14
18 0.42
19 0.71
2 -0.43
20 -0.28
21 -0.3
22 -0.3
23 0.66
24 0.06
25 0.1
3 -0.43
39 0.15
4 -0.28
40 0.15
41 0.15
42 0.15
43 0.4
5 -0.57
6 -0.4
7 -0.57
8 -0.04
9 -0.05

> <PUBCHEM_EFFECTIVE_ROTOR_COUNT>
4.4

> <PUBCHEM_PHARMACOPHORE_FEATURES>
4
1 1 acceptor
1 5 acceptor
1 7 acceptor
5 2 10 11 16 19 rings

> <PUBCHEM_HEAVY_ATOM_COUNT>
24

> <PUBCHEM_ATOM_DEF_STEREO_COUNT>
6

> <PUBCHEM_ATOM_UDEF_STEREO_COUNT>
0

> <PUBCHEM_BOND_DEF_STEREO_COUNT>
0

> <PUBCHEM_BOND_UDEF_STEREO_COUNT>
0

> <PUBCHEM_ISOTOPIC_ATOM_COUNT>
0

> <PUBCHEM_COMPONENT_COUNT>
1

> <PUBCHEM_CACTVS_TAUTO_COUNT>
1

> <PUBCHEM_CONFORMER_ID>
0006BFB200000001

> <PUBCHEM_MMFF94_ENERGY>
63.0287

> <PUBCHEM_FEATURE_SELFOVERLAP>
20.297

> <PUBCHEM_SHAPE_FINGERPRINT>
10863032 1 17749393611439325148
10906281 52 18187910760699405204
1100329 8 17257087602235425425
12507560 18 18409449223790860590
12716301 132 18057328288485921835
12788726 201 18334573594731711312
13140716 1 18335420166676142129
14115302 16 18201145590562612164
14251745 187 18188500068376407953
14955137 171 16245155429992116387
15420108 30 16534252221902406704
16945 1 18042112322920390397
19049666 15 18194401078689441594
19784866 9 18200595937906826207
20511035 2 17756436962799740188
20600515 1 18200041637875673252
20691752 17 18271822180842668157
20905425 154 17899986215798318404
21421861 104 17981043338559095385
22182313 1 17684919208008176360
229495 10 17123371560902405141
23402539 116 18041003963891768798
23419403 2 17323749484715114733
23558518 356 17834131753322397789
23559900 14 18335140882649320884
238 59 17319025922527288285
2748010 2 16966618062159096565
35225 105 17409411327433554827
513532 50 17534946049538762133
5845 1 6395258694114058636
81228 2 17898823963652402580
9709674 26 18119534228084483100
9981440 41 16958756631277351313

> <PUBCHEM_SHAPE_MULTIPOLES>
452.82
5.9
3.77
1.95
1
1.95
0.56
-1.04
-2.97
0.25
2.5
-0.6
0.93
1.21

> <PUBCHEM_SHAPE_SELFOVERLAP>
947.688

> <PUBCHEM_SHAPE_VOLUME>
255.9

> <PUBCHEM_COORDINATE_TYPE>
2
5
10

$$$$

