12050
  -OEChem-06261206273D

 17 16  0     0  0  0  0  0  0999 V2000
    0.0462    0.0949   -0.1568 N   0  0  0  0  0  0  0  0  0  0  0  0
   -2.1193    1.3163    0.1841 N   0  0  0  0  0  0  0  0  0  0  0  0
    0.0919   -1.3308   -0.5813 C   0  0  0  0  0  0  0  0  0  0  0  0
    1.3110    0.8049   -0.4897 C   0  0  0  0  0  0  0  0  0  0  0  0
   -0.5738   -2.2343    0.4360 C   0  0  0  0  0  0  0  0  0  0  0  0
    2.3622    0.5973    0.5811 C   0  0  0  0  0  0  0  0  0  0  0  0
   -1.1182    0.7518    0.0265 C   0  0  0  0  0  0  0  0  0  0  0  0
   -0.4078   -1.4279   -1.5526 H   0  0  0  0  0  0  0  0  0  0  0  0
    1.1256   -1.6672   -0.7182 H   0  0  0  0  0  0  0  0  0  0  0  0
    1.6867    0.4730   -1.4648 H   0  0  0  0  0  0  0  0  0  0  0  0
    1.1109    1.8794   -0.5846 H   0  0  0  0  0  0  0  0  0  0  0  0
   -0.1020   -2.1315    1.4189 H   0  0  0  0  0  0  0  0  0  0  0  0
   -1.6372   -1.9996    0.5480 H   0  0  0  0  0  0  0  0  0  0  0  0
   -0.4928   -3.2808    0.1258 H   0  0  0  0  0  0  0  0  0  0  0  0
    2.0020    0.9471    1.5543 H   0  0  0  0  0  0  0  0  0  0  0  0
    2.6269   -0.4594    0.6860 H   0  0  0  0  0  0  0  0  0  0  0  0
    3.2727    1.1521    0.3343 H   0  0  0  0  0  0  0  0  0  0  0  0
  1  3  1  0  0  0  0
  1  4  1  0  0  0  0
  1  7  1  0  0  0  0
  2  7  3  0  0  0  0
  3  5  1  0  0  0  0
  3  8  1  0  0  0  0
  3  9  1  0  0  0  0
  4  6  1  0  0  0  0
  4 10  1  0  0  0  0
  4 11  1  0  0  0  0
  5 12  1  0  0  0  0
  5 13  1  0  0  0  0
  5 14  1  0  0  0  0
  6 15  1  0  0  0  0
  6 16  1  0  0  0  0
  6 17  1  0  0  0  0
M  END
> <PUBCHEM_COMPOUND_CID>
12050

> <PUBCHEM_CONFORMER_RMSD>
0.4

> <PUBCHEM_CONFORMER_DIVERSEORDER>
1
7
5
8
6
10
9
4
2
3

> <PUBCHEM_MMFF94_PARTIAL_CHARGES>
5
1 -0.84
2 -0.56
3 0.36
4 0.36
7 0.68

> <PUBCHEM_EFFECTIVE_ROTOR_COUNT>
2

> <PUBCHEM_PHARMACOPHORE_FEATURES>
3
1 1 cation
1 2 acceptor
3 1 2 7 cation

> <PUBCHEM_HEAVY_ATOM_COUNT>
7

> <PUBCHEM_ATOM_DEF_STEREO_COUNT>
0

> <PUBCHEM_ATOM_UDEF_STEREO_COUNT>
0

> <PUBCHEM_BOND_DEF_STEREO_COUNT>
0

> <PUBCHEM_BOND_UDEF_STEREO_COUNT>
0

> <PUBCHEM_ISOTOPIC_ATOM_COUNT>
0

> <PUBCHEM_COMPONENT_COUNT>
1

> <PUBCHEM_CACTVS_TAUTO_COUNT>
1

> <PUBCHEM_CONFORMER_ID>
00002F1200000001

> <PUBCHEM_MMFF94_ENERGY>
2.1935

> <PUBCHEM_FEATURE_SELFOVERLAP>
17.164

> <PUBCHEM_SHAPE_FINGERPRINT>
137420 1 16622310535642951726
20096714 4 18261110828411008316
21040471 1 18410285921858620756
23552449 1 18046911476479982592
23552449 11 17691412223237395393
29004967 10 17404852039507884419
5943 1 9571905394556829774

> <PUBCHEM_SHAPE_MULTIPOLES>
134.09
2.5
2.04
0.77
1.5
0.56
0.01
-0.63
-0.51
-1.56
-0.19
0.13
0.11
-0.02

> <PUBCHEM_SHAPE_SELFOVERLAP>
236.299

> <PUBCHEM_SHAPE_VOLUME>
87.1

> <PUBCHEM_COORDINATE_TYPE>
2
5
10

$$$$

