25010752
  -OEChem-07051213103D

 34 33  0     0  0  0  0  0  0999 V2000
    5.9959   -0.9187   -0.4313 S   0  0  0  0  0  0  0  0  0  0  0  0
   -5.0151   -2.3082   -0.4624 O   0  0  0  0  0  0  0  0  0  0  0  0
   -4.6697   -1.2972    0.4375 N   0  0  0  0  0  0  0  0  0  0  0  0
    0.8208    0.2084   -0.0170 C   0  0  0  0  0  0  0  0  0  0  0  0
   -0.3442    1.1895   -0.1796 C   0  0  0  0  0  0  0  0  0  0  0  0
    2.2038    0.7415   -0.4041 C   0  0  0  0  0  0  0  0  0  0  0  0
   -1.6884    0.6218    0.2818 C   0  0  0  0  0  0  0  0  0  0  0  0
   -2.8282    1.6102    0.0135 C   0  0  0  0  0  0  0  0  0  0  0  0
    3.3240   -0.2904   -0.2430 C   0  0  0  0  0  0  0  0  0  0  0  0
   -4.1792    1.0838    0.4915 C   0  0  0  0  0  0  0  0  0  0  0  0
    4.6748    0.3118   -0.6209 C   0  0  0  0  0  0  0  0  0  0  0  0
   -4.5429   -0.1920   -0.2174 C   0  0  0  0  0  0  0  0  0  0  0  0
    6.2483   -0.7605    1.3514 C   0  0  0  0  0  0  0  0  0  0  0  0
    0.6094   -0.6869   -0.6154 H   0  0  0  0  0  0  0  0  0  0  0  0
    0.8563   -0.1219    1.0291 H   0  0  0  0  0  0  0  0  0  0  0  0
   -0.4131    1.4812   -1.2349 H   0  0  0  0  0  0  0  0  0  0  0  0
   -0.1248    2.1028    0.3871 H   0  0  0  0  0  0  0  0  0  0  0  0
    2.4285    1.6214    0.2115 H   0  0  0  0  0  0  0  0  0  0  0  0
    2.1737    1.0837   -1.4460 H   0  0  0  0  0  0  0  0  0  0  0  0
   -1.8726   -0.3211   -0.2456 H   0  0  0  0  0  0  0  0  0  0  0  0
   -1.6409    0.3913    1.3528 H   0  0  0  0  0  0  0  0  0  0  0  0
   -2.8781    1.8207   -1.0621 H   0  0  0  0  0  0  0  0  0  0  0  0
   -2.6192    2.5608    0.5186 H   0  0  0  0  0  0  0  0  0  0  0  0
    3.1048   -1.1589   -0.8767 H   0  0  0  0  0  0  0  0  0  0  0  0
    3.3322   -0.6382    0.7964 H   0  0  0  0  0  0  0  0  0  0  0  0
   -4.9589    1.8204    0.2712 H   0  0  0  0  0  0  0  0  0  0  0  0
   -4.1648    0.9151    1.5737 H   0  0  0  0  0  0  0  0  0  0  0  0
    4.6593    0.6210   -1.6715 H   0  0  0  0  0  0  0  0  0  0  0  0
    4.9016    1.2009   -0.0234 H   0  0  0  0  0  0  0  0  0  0  0  0
   -4.6942   -0.1344   -1.3103 H   0  0  0  0  0  0  0  0  0  0  0  0
    7.0734   -1.4119    1.6525 H   0  0  0  0  0  0  0  0  0  0  0  0
    5.3555   -1.0656    1.9020 H   0  0  0  0  0  0  0  0  0  0  0  0
    6.5109    0.2679    1.6129 H   0  0  0  0  0  0  0  0  0  0  0  0
   -5.0824   -3.0790    0.1261 H   0  0  0  0  0  0  0  0  0  0  0  0
  1 11  1  0  0  0  0
  1 13  1  0  0  0  0
  2  3  1  0  0  0  0
  2 34  1  0  0  0  0
  3 12  2  0  0  0  0
  4  5  1  0  0  0  0
  4  6  1  0  0  0  0
  4 14  1  0  0  0  0
  4 15  1  0  0  0  0
  5  7  1  0  0  0  0
  5 16  1  0  0  0  0
  5 17  1  0  0  0  0
  6  9  1  0  0  0  0
  6 18  1  0  0  0  0
  6 19  1  0  0  0  0
  7  8  1  0  0  0  0
  7 20  1  0  0  0  0
  7 21  1  0  0  0  0
  8 10  1  0  0  0  0
  8 22  1  0  0  0  0
  8 23  1  0  0  0  0
  9 11  1  0  0  0  0
  9 24  1  0  0  0  0
  9 25  1  0  0  0  0
 10 12  1  0  0  0  0
 10 26  1  0  0  0  0
 10 27  1  0  0  0  0
 11 28  1  0  0  0  0
 11 29  1  0  0  0  0
 12 30  1  0  0  0  0
 13 31  1  0  0  0  0
 13 32  1  0  0  0  0
 13 33  1  0  0  0  0
M  END
> <PUBCHEM_COMPOUND_CID>
25010752

> <PUBCHEM_CONFORMER_RMSD>
1

> <PUBCHEM_CONFORMER_DIVERSEORDER>
2
78
1
29
21
106
48
25
41
8
107
93
20
136
34
30
40
19
83
9
88
13
72
3
89
76
44
110
45
15
96
6
69
137
56
84
102
104
51
138
37
18
47
7
77
24
61
22
131
12
134
4
35
55
123
42
124
43
139
53
100
113
46
112
114
11
71
10
97
91
108
58
116
50
122
54
36
14
5
16
121
86
140
32
75
68
101
126
105
133
31
82
95
98
62
92
118
23
111
17
26
73
99
135
109
115
57
67
128
87
117
28
66
80
38
52
129
63
79
94
59
39
49
130
127
90
64
85
125
81
119
103
70
120
33
60
132
65
27
74

> <PUBCHEM_MMFF94_PARTIAL_CHARGES>
9
1 -0.46
10 0.06
11 0.23
12 0.33
13 0.23
2 -0.34
3 -0.51
30 0.06
34 0.4

> <PUBCHEM_EFFECTIVE_ROTOR_COUNT>
9

> <PUBCHEM_PHARMACOPHORE_FEATURES>
3
1 13 hydrophobe
1 2 anion
1 3 acceptor

> <PUBCHEM_HEAVY_ATOM_COUNT>
13

> <PUBCHEM_ATOM_DEF_STEREO_COUNT>
0

> <PUBCHEM_ATOM_UDEF_STEREO_COUNT>
0

> <PUBCHEM_BOND_DEF_STEREO_COUNT>
1

> <PUBCHEM_BOND_UDEF_STEREO_COUNT>
0

> <PUBCHEM_ISOTOPIC_ATOM_COUNT>
0

> <PUBCHEM_COMPONENT_COUNT>
1

> <PUBCHEM_CACTVS_TAUTO_COUNT>
2

> <PUBCHEM_CONFORMER_ID>
017DA24000000002

> <PUBCHEM_MMFF94_ENERGY>
7.5323

> <PUBCHEM_FEATURE_SELFOVERLAP>
15.223

> <PUBCHEM_SHAPE_FINGERPRINT>
100836 57 8214142962746109740
10378564 45 11743846889397415544
10912923 1 18272079522551266072
11287383 113 18186802478795545888
117890 112 8934999261668981286
12091667 2 17418086654755237964
12555020 224 16845572015223619690
12596602 18 18113902689041938410
12670543 26 11887677299350354760
13288520 33 18410571782587712813
13862211 1 18131351929842351026
1420 363 17967247615915010348
14251718 22 18410852153504666284
14251732 16 18334859377513094808
14251752 14 17632304509584489365
15048467 5 7997969063967189722
15242439 84 13398622858072359916
15501527 16 9943812188080839991
17834072 33 18343015584547832740
17834072 8 12967127216084831438
17834076 25 7925623398067602212
18785283 64 17532387370069617000
20621476 30 18412258432744973238
20645477 70 15554167082098313712
21054139 6 18201721738966721842
21426921 1 18411980304201732069
220451 1 18271235127579994480
22896161 15 18409165472829707724
23035841 295 18413386549349981393
23081809 10 17775277292505608660
23402539 116 17846498157693697693
23559900 14 18338522924344960257
23590187 198 18342173397047560060
3014965 18 12463582794240303944
42788 4 18411696621500678180
49783359 22 18409446994412644586
542803 24 6916256330558875092
7062679 117 18341043051712370647
7495541 125 18187365407163549432

> <PUBCHEM_SHAPE_MULTIPOLES>
260.53
16.63
1.62
0.87
9.86
0.69
-0.17
7.76
-1.66
-2.74
0.11
1
0.1
-0.75

> <PUBCHEM_SHAPE_SELFOVERLAP>
455.095

> <PUBCHEM_SHAPE_VOLUME>
172.2

> <PUBCHEM_COORDINATE_TYPE>
2
5
10

$$$$

