24415
  -OEChem-07051213093D

 33 33  0     0  0  0  0  0  0999 V2000
    1.1084    0.0015   -1.3878 O   0  0  0  0  0  0  0  0  0  0  0  0
   -0.0091    0.0049    0.6811 N   0  0  0  0  0  0  0  0  0  0  0  0
    3.5405    0.0078   -0.2476 N   0  0  0  0  0  0  0  0  0  0  0  0
   -1.3606    0.0006    0.3188 C   0  0  0  0  0  0  0  0  0  0  0  0
   -2.0379    1.2066    0.1372 C   0  0  0  0  0  0  0  0  0  0  0  0
   -2.0310   -1.2095    0.1400 C   0  0  0  0  0  0  0  0  0  0  0  0
    2.3962    0.0119    0.6525 C   0  0  0  0  0  0  0  0  0  0  0  0
    1.1134    0.0075   -0.1610 C   0  0  0  0  0  0  0  0  0  0  0  0
   -3.3854    1.2024   -0.2229 C   0  0  0  0  0  0  0  0  0  0  0  0
   -3.3786   -1.2136   -0.2202 C   0  0  0  0  0  0  0  0  0  0  0  0
   -4.0557   -0.0076   -0.4017 C   0  0  0  0  0  0  0  0  0  0  0  0
   -1.3474    2.5191    0.3222 C   0  0  0  0  0  0  0  0  0  0  0  0
   -1.3330   -2.5176    0.3270 C   0  0  0  0  0  0  0  0  0  0  0  0
    4.7915    0.0012    0.4989 C   0  0  0  0  0  0  0  0  0  0  0  0
    5.9888   -0.0151   -0.4364 C   0  0  0  0  0  0  0  0  0  0  0  0
    0.1570    0.0380    1.6846 H   0  0  0  0  0  0  0  0  0  0  0  0
    2.3991   -0.8817    1.2874 H   0  0  0  0  0  0  0  0  0  0  0  0
    2.3997    0.9049    1.2884 H   0  0  0  0  0  0  0  0  0  0  0  0
   -3.9284    2.1325   -0.3691 H   0  0  0  0  0  0  0  0  0  0  0  0
   -3.9164   -2.1469   -0.3645 H   0  0  0  0  0  0  0  0  0  0  0  0
    3.5084    0.8322   -0.8474 H   0  0  0  0  0  0  0  0  0  0  0  0
    4.8574    0.8868    1.1421 H   0  0  0  0  0  0  0  0  0  0  0  0
    4.8412   -0.8847    1.1427 H   0  0  0  0  0  0  0  0  0  0  0  0
   -5.1049   -0.0109   -0.6826 H   0  0  0  0  0  0  0  0  0  0  0  0
   -0.9022    2.5833    1.3206 H   0  0  0  0  0  0  0  0  0  0  0  0
   -0.5646    2.6481   -0.4324 H   0  0  0  0  0  0  0  0  0  0  0  0
   -2.0406    3.3617    0.2242 H   0  0  0  0  0  0  0  0  0  0  0  0
   -0.5521   -2.6451   -0.4298 H   0  0  0  0  0  0  0  0  0  0  0  0
   -0.8839   -2.5762    1.3242 H   0  0  0  0  0  0  0  0  0  0  0  0
   -2.0220   -3.3643    0.2346 H   0  0  0  0  0  0  0  0  0  0  0  0
    5.9764   -0.9022   -1.0786 H   0  0  0  0  0  0  0  0  0  0  0  0
    6.0023    0.8723   -1.0780 H   0  0  0  0  0  0  0  0  0  0  0  0
    6.9192   -0.0287    0.1402 H   0  0  0  0  0  0  0  0  0  0  0  0
  1  8  2  0  0  0  0
  2  4  1  0  0  0  0
  2  8  1  0  0  0  0
  2 16  1  0  0  0  0
  3  7  1  0  0  0  0
  3 14  1  0  0  0  0
  3 21  1  0  0  0  0
  4  5  2  0  0  0  0
  4  6  1  0  0  0  0
  5  9  1  0  0  0  0
  5 12  1  0  0  0  0
  6 10  2  0  0  0  0
  6 13  1  0  0  0  0
  7  8  1  0  0  0  0
  7 17  1  0  0  0  0
  7 18  1  0  0  0  0
  9 11  2  0  0  0  0
  9 19  1  0  0  0  0
 10 11  1  0  0  0  0
 10 20  1  0  0  0  0
 11 24  1  0  0  0  0
 12 25  1  0  0  0  0
 12 26  1  0  0  0  0
 12 27  1  0  0  0  0
 13 28  1  0  0  0  0
 13 29  1  0  0  0  0
 13 30  1  0  0  0  0
 14 15  1  0  0  0  0
 14 22  1  0  0  0  0
 14 23  1  0  0  0  0
 15 31  1  0  0  0  0
 15 32  1  0  0  0  0
 15 33  1  0  0  0  0
M  END
> <PUBCHEM_COMPOUND_CID>
24415

> <PUBCHEM_CONFORMER_RMSD>
0.6

> <PUBCHEM_CONFORMER_DIVERSEORDER>
1
5
2
3
4

> <PUBCHEM_MMFF94_PARTIAL_CHARGES>
19
1 -0.57
10 -0.15
11 -0.15
12 0.14
13 0.14
14 0.27
16 0.37
19 0.15
2 -0.55
20 0.15
21 0.36
24 0.15
3 -0.9
4 0.12
5 -0.14
6 -0.14
7 0.33
8 0.57
9 -0.15

> <PUBCHEM_EFFECTIVE_ROTOR_COUNT>
5

> <PUBCHEM_PHARMACOPHORE_FEATURES>
5
1 1 acceptor
1 2 donor
1 3 cation
1 3 donor
6 4 5 6 9 10 11 rings

> <PUBCHEM_HEAVY_ATOM_COUNT>
15

> <PUBCHEM_ATOM_DEF_STEREO_COUNT>
0

> <PUBCHEM_ATOM_UDEF_STEREO_COUNT>
0

> <PUBCHEM_BOND_DEF_STEREO_COUNT>
0

> <PUBCHEM_BOND_UDEF_STEREO_COUNT>
0

> <PUBCHEM_ISOTOPIC_ATOM_COUNT>
0

> <PUBCHEM_COMPONENT_COUNT>
1

> <PUBCHEM_CACTVS_TAUTO_COUNT>
2

> <PUBCHEM_CONFORMER_ID>
00005F5F00000001

> <PUBCHEM_MMFF94_ENERGY>
50.1474

> <PUBCHEM_FEATURE_SELFOVERLAP>
25.371

> <PUBCHEM_SHAPE_FINGERPRINT>
10680689 15 18411692180451415514
11315181 36 18202562861430506112
12107183 9 17621326066860207808
12236239 1 17704075109338281529
12500047 106 18410580586817151322
13024252 1 11600006548926413883
13288520 33 18409166597435860487
14573314 32 18334570283301201222
14614273 12 18128260176312749221
16945 1 18410859859097754545
17834072 33 18272367543326856108
17870717 6 18260816116735384430
187816 3 18410580582769811575
19489759 90 18335142011998807704
200 152 18201723933325205566
20279233 1 17894623751898318526
20300324 65 18409729564648421720
20510252 161 18262236732834371177
20645476 183 17775574121990499995
20645477 56 18411134774763021224
20645477 70 16805877511737911854
21267235 1 18340481184402106659
21339142 51 18410859824184323085
2297311 6 18334285462175642988
2306618 200 18113891676207766625
23175994 123 17022901237777350272
23402539 116 18335710442045733805
23557571 272 18114174268066254388
23559900 14 18335989684003557848
2748010 2 17980495464621007151
4214541 1 18411138061014122984
573450 72 18271256001200213746
9709674 26 18335133211358273358

> <PUBCHEM_SHAPE_MULTIPOLES>
292.86
9.67
1.9
0.83
16.63
0
0.09
0.03
1.17
-2.22
-0.26
0.25
0
0

> <PUBCHEM_SHAPE_SELFOVERLAP>
589.708

> <PUBCHEM_SHAPE_VOLUME>
173

> <PUBCHEM_COORDINATE_TYPE>
2
5
10

$$$$

