471426
  -OEChem-07051213112D

 83 87  0     1  0  0  0  0  0999 V2000
   10.9848    2.7352    0.0000 O   0  0  0  0  0  0  0  0  0  0  0  0
    3.3248    0.5236    0.0000 O   0  0  0  0  0  0  0  0  0  0  0  0
    9.1654    3.7671    0.0000 O   0  0  0  0  0  0  0  0  0  0  0  0
    3.8493   -3.4509    0.0000 O   0  0  0  0  0  0  0  0  0  0  0  0
    5.5813   -3.4642    0.0000 O   0  0  0  0  0  0  0  0  0  0  0  0
    7.3770   -0.4091    0.0000 C   0  0  2  0  0  0  0  0  0  0  0  0
    7.3770    0.5909    0.0000 C   0  0  1  0  0  0  0  0  0  0  0  0
    8.2709    1.1255    0.0000 C   0  0  2  0  0  0  0  0  0  0  0  0
    6.5109   -0.9091    0.0000 C   0  0  1  0  0  0  0  0  0  0  0  0
    9.1770    0.6117    0.0000 C   0  0  1  0  0  0  0  0  0  0  0  0
    8.2709   -0.9438    0.0000 C   0  0  0  0  0  0  0  0  0  0  0  0
    5.6449   -0.4091    0.0000 C   0  0  0  0  0  0  0  0  0  0  0  0
    9.1770   -0.4300    0.0000 C   0  0  0  0  0  0  0  0  0  0  0  0
    4.7349   -0.9160    0.0000 C   0  0  1  0  0  0  0  0  0  0  0  0
   10.1208    1.1469    0.0000 C   0  0  0  0  0  0  0  0  0  0  0  0
    6.5109    1.0909    0.0000 C   0  0  0  0  0  0  0  0  0  0  0  0
    6.5270   -1.9506    0.0000 C   0  0  0  0  0  0  0  0  0  0  0  0
    8.2458    2.2102    0.0000 C   0  0  0  0  0  0  0  0  0  0  0  0
    4.7269   -1.9576    0.0000 C   0  0  1  0  0  0  0  0  0  0  0  0
    5.6290   -2.4784    0.0000 C   0  0  0  0  0  0  0  0  0  0  0  0
    7.7191   -1.3488    0.0000 C   0  0  0  0  0  0  0  0  0  0  0  0
   10.1208    2.2319    0.0000 C   0  0  1  0  0  0  0  0  0  0  0  0
    5.6449    0.5909    0.0000 C   0  0  0  0  0  0  0  0  0  0  0  0
    3.8081   -0.3519    0.0000 C   0  0  1  0  0  0  0  0  0  0  0  0
    7.4010    1.6188    0.0000 C   0  0  0  0  0  0  0  0  0  0  0  0
    9.1770    2.7671    0.0000 C   0  0  2  0  0  0  0  0  0  0  0  0
    7.1537   -1.6752    0.0000 C   0  0  0  0  0  0  0  0  0  0  0  0
    3.7914   -2.5073    0.0000 C   0  0  0  0  0  0  0  0  0  0  0  0
    2.8602   -0.8799    0.0000 C   0  0  1  0  0  0  0  0  0  0  0  0
   11.1207    1.1431    0.0000 C   0  0  0  0  0  0  0  0  0  0  0  0
   10.6174    0.2790    0.0000 C   0  0  0  0  0  0  0  0  0  0  0  0
    2.8518   -1.9648    0.0000 C   0  0  0  0  0  0  0  0  0  0  0  0
    4.7192   -2.9576    0.0000 C   0  0  0  0  0  0  0  0  0  0  0  0
    4.3247    0.5043    0.0000 C   0  0  0  0  0  0  0  0  0  0  0  0
    2.0000   -0.3699    0.0000 C   0  0  0  0  0  0  0  0  0  0  0  0
    7.3704    1.4408    0.0000 H   0  0  0  0  0  0  0  0  0  0  0  0
    9.9114    0.1838    0.0000 H   0  0  0  0  0  0  0  0  0  0  0  0
    7.8663   -1.4136    0.0000 H   0  0  0  0  0  0  0  0  0  0  0  0
    8.6645   -1.4228    0.0000 H   0  0  0  0  0  0  0  0  0  0  0  0
    9.3860   -1.0136    0.0000 H   0  0  0  0  0  0  0  0  0  0  0  0
    9.7878   -0.3239    0.0000 H   0  0  0  0  0  0  0  0  0  0  0  0
    4.7513   -0.0661    0.0000 H   0  0  0  0  0  0  0  0  0  0  0  0
    6.9095    1.5658    0.0000 H   0  0  0  0  0  0  0  0  0  0  0  0
    6.1124    1.5658    0.0000 H   0  0  0  0  0  0  0  0  0  0  0  0
    6.7450   -2.5310    0.0000 H   0  0  0  0  0  0  0  0  0  0  0  0
    7.1361   -1.8352    0.0000 H   0  0  0  0  0  0  0  0  0  0  0  0
    8.0233    2.7889    0.0000 H   0  0  0  0  0  0  0  0  0  0  0  0
    7.6376    2.0900    0.0000 H   0  0  0  0  0  0  0  0  0  0  0  0
    5.2316   -2.9544    0.0000 H   0  0  0  0  0  0  0  0  0  0  0  0
    6.0299   -2.9513    0.0000 H   0  0  0  0  0  0  0  0  0  0  0  0
    7.1365   -1.5609    0.0000 H   0  0  0  0  0  0  0  0  0  0  0  0
    7.9312   -1.9314    0.0000 H   0  0  0  0  0  0  0  0  0  0  0  0
    8.3017   -1.1367    0.0000 H   0  0  0  0  0  0  0  0  0  0  0  0
   10.6583    1.9229    0.0000 H   0  0  0  0  0  0  0  0  0  0  0  0
    5.1080    0.9009    0.0000 H   0  0  0  0  0  0  0  0  0  0  0  0
    7.7069    2.1581    0.0000 H   0  0  0  0  0  0  0  0  0  0  0  0
    6.8617    1.9247    0.0000 H   0  0  0  0  0  0  0  0  0  0  0  0
    7.0952    1.0795    0.0000 H   0  0  0  0  0  0  0  0  0  0  0  0
    8.6359    3.0699    0.0000 H   0  0  0  0  0  0  0  0  0  0  0  0
    6.6788   -2.0737    0.0000 H   0  0  0  0  0  0  0  0  0  0  0  0
    7.5522   -2.1501    0.0000 H   0  0  0  0  0  0  0  0  0  0  0  0
    7.6287   -1.2767    0.0000 H   0  0  0  0  0  0  0  0  0  0  0  0
    3.3942   -2.9833    0.0000 H   0  0  0  0  0  0  0  0  0  0  0  0
    4.1924   -2.9802    0.0000 H   0  0  0  0  0  0  0  0  0  0  0  0
    2.8686   -0.2599    0.0000 H   0  0  0  0  0  0  0  0  0  0  0  0
   11.1184    0.5231    0.0000 H   0  0  0  0  0  0  0  0  0  0  0  0
   11.7407    1.1407    0.0000 H   0  0  0  0  0  0  0  0  0  0  0  0
   11.1231    1.7630    0.0000 H   0  0  0  0  0  0  0  0  0  0  0  0
   10.0793   -0.0290    0.0000 H   0  0  0  0  0  0  0  0  0  0  0  0
   10.9253   -0.2592    0.0000 H   0  0  0  0  0  0  0  0  0  0  0  0
   11.1555    0.5869    0.0000 H   0  0  0  0  0  0  0  0  0  0  0  0
    2.2418   -1.8540    0.0000 H   0  0  0  0  0  0  0  0  0  0  0  0
    2.6383   -2.5469    0.0000 H   0  0  0  0  0  0  0  0  0  0  0  0
    4.8555    0.1840    0.0000 H   0  0  0  0  0  0  0  0  0  0  0  0
    4.6450    1.0352    0.0000 H   0  0  0  0  0  0  0  0  0  0  0  0
    3.7938    0.8246    0.0000 H   0  0  0  0  0  0  0  0  0  0  0  0
   10.9825    3.3552    0.0000 H   0  0  0  0  0  0  0  0  0  0  0  0
    2.3162    0.1634    0.0000 H   0  0  0  0  0  0  0  0  0  0  0  0
    1.4667   -0.0537    0.0000 H   0  0  0  0  0  0  0  0  0  0  0  0
    1.6838   -0.9032    0.0000 H   0  0  0  0  0  0  0  0  0  0  0  0
    2.7050    0.5355    0.0000 H   0  0  0  0  0  0  0  0  0  0  0  0
    8.6249    4.0708    0.0000 H   0  0  0  0  0  0  0  0  0  0  0  0
    3.8445   -4.0708    0.0000 H   0  0  0  0  0  0  0  0  0  0  0  0
 22  1  1  1  0  0  0
  1 77  1  0  0  0  0
 24  2  1  1  0  0  0
  2 81  1  0  0  0  0
 26  3  1  1  0  0  0
  3 82  1  0  0  0  0
  4 33  1  0  0  0  0
  4 83  1  0  0  0  0
  5 33  2  0  0  0  0
  6  7  1  0  0  0  0
  6  9  1  0  0  0  0
  6 11  1  0  0  0  0
  6 21  1  6  0  0  0
  7  8  1  0  0  0  0
  7 16  1  0  0  0  0
  7 36  1  1  0  0  0
  8 10  1  0  0  0  0
  8 18  1  0  0  0  0
  8 25  1  6  0  0  0
  9 12  1  0  0  0  0
  9 17  1  0  0  0  0
  9 27  1  1  0  0  0
 10 13  1  0  0  0  0
 10 15  1  0  0  0  0
 10 37  1  1  0  0  0
 11 13  1  0  0  0  0
 11 38  1  0  0  0  0
 11 39  1  0  0  0  0
 12 14  1  0  0  0  0
 12 23  2  0  0  0  0
 13 40  1  0  0  0  0
 13 41  1  0  0  0  0
 14 19  1  0  0  0  0
 14 24  1  0  0  0  0
 14 42  1  6  0  0  0
 15 22  1  0  0  0  0
 15 30  1  0  0  0  0
 15 31  1  0  0  0  0
 16 23  1  0  0  0  0
 16 43  1  0  0  0  0
 16 44  1  0  0  0  0
 17 20  1  0  0  0  0
 17 45  1  0  0  0  0
 17 46  1  0  0  0  0
 18 26  1  0  0  0  0
 18 47  1  0  0  0  0
 18 48  1  0  0  0  0
 19 20  1  0  0  0  0
 19 28  1  0  0  0  0
 19 33  1  6  0  0  0
 20 49  1  0  0  0  0
 20 50  1  0  0  0  0
 21 51  1  0  0  0  0
 21 52  1  0  0  0  0
 21 53  1  0  0  0  0
 22 26  1  0  0  0  0
 22 54  1  0  0  0  0
 23 55  1  0  0  0  0
 24 29  1  0  0  0  0
 24 34  1  0  0  0  0
 25 56  1  0  0  0  0
 25 57  1  0  0  0  0
 25 58  1  0  0  0  0
 26 59  1  0  0  0  0
 27 60  1  0  0  0  0
 27 61  1  0  0  0  0
 27 62  1  0  0  0  0
 28 32  1  0  0  0  0
 28 63  1  0  0  0  0
 28 64  1  0  0  0  0
 29 32  1  0  0  0  0
 29 35  1  1  0  0  0
 29 65  1  0  0  0  0
 30 66  1  0  0  0  0
 30 67  1  0  0  0  0
 30 68  1  0  0  0  0
 31 69  1  0  0  0  0
 31 70  1  0  0  0  0
 31 71  1  0  0  0  0
 32 72  1  0  0  0  0
 32 73  1  0  0  0  0
 34 74  1  0  0  0  0
 34 75  1  0  0  0  0
 34 76  1  0  0  0  0
 35 78  1  0  0  0  0
 35 79  1  0  0  0  0
 35 80  1  0  0  0  0
M  END
> <PUBCHEM_COMPOUND_CID>
471426

> <PUBCHEM_COMPOUND_CANONICALIZED>
1

> <PUBCHEM_CACTVS_COMPLEXITY>
956

> <PUBCHEM_CACTVS_HBOND_ACCEPTOR>
5

> <PUBCHEM_CACTVS_HBOND_DONOR>
4

> <PUBCHEM_CACTVS_ROTATABLE_BOND>
1

> <PUBCHEM_CACTVS_SUBSKEYS>
AAADcfB4OAAAAAAAAAAAAAAAAAAAAAAAAAAwYMGCAAAAAADAAAAAGgAACAAAD1SggAICCAAAAgCIAiDSCAAAAAAgAAAACAEAAAgBEBIAAQAAQAAEwAAJAAPKyPCPgAAAAAAAAADAAAYAADCAAAAAAAAAAA==

> <PUBCHEM_IUPAC_OPENEYE_NAME>
(1R,2R,4aS,6aR,6aS,6bR,8aR,10S,11R,12aR,14bS)-1,10,11-trihydroxy-1,2,6a,6b,9,9,12a-heptamethyl-2,3,4,5,6,6a,7,8,8a,10,11,12,13,14b-tetradecahydropicene-4a-carboxylic acid

> <PUBCHEM_IUPAC_CAS_NAME>
(1R,2R,4aS,6aR,6aS,6bR,8aR,10S,11R,12aR,14bS)-1,10,11-trihydroxy-1,2,6a,6b,9,9,12a-heptamethyl-2,3,4,5,6,6a,7,8,8a,10,11,12,13,14b-tetradecahydropicene-4a-carboxylic acid

> <PUBCHEM_IUPAC_NAME>
(1R,2R,4aS,6aR,6aS,6bR,8aR,10S,11R,12aR,14bS)-1,10,11-trihydroxy-1,2,6a,6b,9,9,12a-heptamethyl-2,3,4,5,6,6a,7,8,8a,10,11,12,13,14b-tetradecahydropicene-4a-carboxylic acid

> <PUBCHEM_IUPAC_SYSTEMATIC_NAME>
(1R,2R,4aS,6aR,6aS,6bR,8aR,10S,11R,12aR,14bS)-1,2,6a,6b,9,9,12a-heptamethyl-1,10,11-tris(oxidanyl)-2,3,4,5,6,6a,7,8,8a,10,11,12,13,14b-tetradecahydropicene-4a-carboxylic acid

> <PUBCHEM_IUPAC_TRADITIONAL_NAME>
(1R,2R,4aS,6aR,6aS,6bR,8aR,10S,11R,12aR,14bS)-1,10,11-trihydroxy-1,2,6a,6b,9,9,12a-heptamethyl-2,3,4,5,6,6a,7,8,8a,10,11,12,13,14b-tetradecahydropicene-4a-carboxylic acid

> <PUBCHEM_IUPAC_INCHI>
InChI=1S/C30H48O5/c1-17-10-13-30(24(33)34)15-14-27(5)18(22(30)29(17,7)35)8-9-21-26(4)16-19(31)23(32)25(2,3)20(26)11-12-28(21,27)6/h8,17,19-23,31-32,35H,9-16H2,1-7H3,(H,33,34)/t17-,19-,20+,21-,22-,23-,26+,27-,28-,29-,30+/m1/s1

> <PUBCHEM_IUPAC_INCHIKEY>
OXVUXGFZHDKYLS-QUFHAEKXSA-N

> <PUBCHEM_XLOGP3_AA>
5

> <PUBCHEM_EXACT_MASS>
488.350175

> <PUBCHEM_MOLECULAR_FORMULA>
C30H48O5

> <PUBCHEM_MOLECULAR_WEIGHT>
488.69912

> <PUBCHEM_OPENEYE_CAN_SMILES>
CC1CCC2(CCC3(C(=CCC4C3(CCC5C4(CC(C(C5(C)C)O)O)C)C)C2C1(C)O)C)C(=O)O

> <PUBCHEM_OPENEYE_ISO_SMILES>
C[C@@H]1CC[C@@]2(CC[C@@]3(C(=CC[C@H]4[C@]3(CC[C@@H]5[C@@]4(C[C@H]([C@H](C5(C)C)O)O)C)C)[C@@H]2[C@]1(C)O)C)C(=O)O

> <PUBCHEM_CACTVS_TPSA>
98

> <PUBCHEM_MONOISOTOPIC_WEIGHT>
488.350175

> <PUBCHEM_TOTAL_CHARGE>
0

> <PUBCHEM_HEAVY_ATOM_COUNT>
35

> <PUBCHEM_ATOM_DEF_STEREO_COUNT>
11

> <PUBCHEM_ATOM_UDEF_STEREO_COUNT>
0

> <PUBCHEM_BOND_DEF_STEREO_COUNT>
0

> <PUBCHEM_BOND_UDEF_STEREO_COUNT>
0

> <PUBCHEM_ISOTOPIC_ATOM_COUNT>
0

> <PUBCHEM_COMPONENT_COUNT>
1

> <PUBCHEM_CACTVS_TAUTO_COUNT>
1

> <PUBCHEM_COORDINATE_TYPE>
1
5
255

> <PUBCHEM_BONDANNOTATIONS>
22  1  5
10  37  5
14  42  6
19  33  6
24  2  5
29  35  5
26  3  5
6  21  6
7  36  5
8  25  6
9  27  5

$$$$

