6434236
  -OEChem-07051213133D

 48 47  0     1  0  0  0  0  0999 V2000
   -4.2450   -0.4360    0.2245 O   0  0  0  0  0  0  0  0  0  0  0  0
   -3.7136    0.4194   -1.8527 O   0  0  0  0  0  0  0  0  0  0  0  0
    3.5031    2.2201    0.2388 C   0  0  1  0  0  0  0  0  0  0  0  0
    3.5437    0.9322   -0.6137 C   0  0  0  0  0  0  0  0  0  0  0  0
    3.6686   -0.3747    0.1786 C   0  0  0  0  0  0  0  0  0  0  0  0
    3.7778   -1.5792   -0.7637 C   0  0  0  0  0  0  0  0  0  0  0  0
    3.8336   -2.9304   -0.0267 C   0  0  0  0  0  0  0  0  0  0  0  0
    2.2249    2.3766    1.0878 C   0  0  0  0  0  0  0  0  0  0  0  0
    4.7389    2.3364    1.1370 C   0  0  0  0  0  0  0  0  0  0  0  0
    3.8797   -4.0741   -1.0430 C   0  0  0  0  0  0  0  0  0  0  0  0
    5.0317   -3.0316    0.9184 C   0  0  0  0  0  0  0  0  0  0  0  0
    0.9650    2.3732    0.2653 C   0  0  0  0  0  0  0  0  0  0  0  0
   -0.0144    1.4666    0.4160 C   0  0  0  0  0  0  0  0  0  0  0  0
   -1.2648    1.3863   -0.3440 C   0  0  0  0  0  0  0  0  0  0  0  0
   -1.5034    2.4398   -1.3949 C   0  0  0  0  0  0  0  0  0  0  0  0
   -2.1257    0.3946   -0.0394 C   0  0  0  0  0  0  0  0  0  0  0  0
   -3.4335    0.1539   -0.6957 C   0  0  0  0  0  0  0  0  0  0  0  0
   -5.5581   -0.7699   -0.2374 C   0  0  0  0  0  0  0  0  0  0  0  0
   -6.3348   -1.3951    0.8337 C   0  0  0  0  0  0  0  0  0  0  0  0
   -6.9735   -1.9079    1.7111 C   0  0  0  0  0  0  0  0  0  0  0  0
    3.5377    3.0623   -0.4668 H   0  0  0  0  0  0  0  0  0  0  0  0
    2.6608    0.8845   -1.2622 H   0  0  0  0  0  0  0  0  0  0  0  0
    4.4047    1.0065   -1.2917 H   0  0  0  0  0  0  0  0  0  0  0  0
    4.5591   -0.3326    0.8117 H   0  0  0  0  0  0  0  0  0  0  0  0
    2.7999   -0.5003    0.8342 H   0  0  0  0  0  0  0  0  0  0  0  0
    4.6701   -1.4661   -1.3929 H   0  0  0  0  0  0  0  0  0  0  0  0
    2.9137   -1.5798   -1.4405 H   0  0  0  0  0  0  0  0  0  0  0  0
    2.9181   -3.0439    0.5675 H   0  0  0  0  0  0  0  0  0  0  0  0
    2.2664    3.3316    1.6271 H   0  0  0  0  0  0  0  0  0  0  0  0
    2.1892    1.5945    1.8561 H   0  0  0  0  0  0  0  0  0  0  0  0
    4.7205    1.6109    1.9563 H   0  0  0  0  0  0  0  0  0  0  0  0
    5.6581    2.1865    0.5613 H   0  0  0  0  0  0  0  0  0  0  0  0
    4.7893    3.3343    1.5865 H   0  0  0  0  0  0  0  0  0  0  0  0
    4.7816   -4.0200   -1.6623 H   0  0  0  0  0  0  0  0  0  0  0  0
    3.0093   -4.0400   -1.7069 H   0  0  0  0  0  0  0  0  0  0  0  0
    3.8737   -5.0455   -0.5370 H   0  0  0  0  0  0  0  0  0  0  0  0
    5.9710   -2.8295    0.3926 H   0  0  0  0  0  0  0  0  0  0  0  0
    4.9455   -2.3269    1.7509 H   0  0  0  0  0  0  0  0  0  0  0  0
    5.0984   -4.0346    1.3541 H   0  0  0  0  0  0  0  0  0  0  0  0
    0.8860    3.1628   -0.4765 H   0  0  0  0  0  0  0  0  0  0  0  0
    0.1268    0.6994    1.1766 H   0  0  0  0  0  0  0  0  0  0  0  0
   -0.7945    2.3229   -2.2216 H   0  0  0  0  0  0  0  0  0  0  0  0
   -1.3851    3.4434   -0.9702 H   0  0  0  0  0  0  0  0  0  0  0  0
   -2.5088    2.4209   -1.8186 H   0  0  0  0  0  0  0  0  0  0  0  0
   -1.8888   -0.3029    0.7628 H   0  0  0  0  0  0  0  0  0  0  0  0
   -5.4753   -1.4603   -1.0849 H   0  0  0  0  0  0  0  0  0  0  0  0
   -6.0624    0.1430   -0.5748 H   0  0  0  0  0  0  0  0  0  0  0  0
   -7.5402   -2.3629    2.4896 H   0  0  0  0  0  0  0  0  0  0  0  0
  1 17  1  0  0  0  0
  1 18  1  0  0  0  0
  2 17  2  0  0  0  0
  3  4  1  0  0  0  0
  3  8  1  0  0  0  0
  3  9  1  0  0  0  0
  3 21  1  0  0  0  0
  4  5  1  0  0  0  0
  4 22  1  0  0  0  0
  4 23  1  0  0  0  0
  5  6  1  0  0  0  0
  5 24  1  0  0  0  0
  5 25  1  0  0  0  0
  6  7  1  0  0  0  0
  6 26  1  0  0  0  0
  6 27  1  0  0  0  0
  7 10  1  0  0  0  0
  7 11  1  0  0  0  0
  7 28  1  0  0  0  0
  8 12  1  0  0  0  0
  8 29  1  0  0  0  0
  8 30  1  0  0  0  0
  9 31  1  0  0  0  0
  9 32  1  0  0  0  0
  9 33  1  0  0  0  0
 10 34  1  0  0  0  0
 10 35  1  0  0  0  0
 10 36  1  0  0  0  0
 11 37  1  0  0  0  0
 11 38  1  0  0  0  0
 11 39  1  0  0  0  0
 12 13  2  0  0  0  0
 12 40  1  0  0  0  0
 13 14  1  0  0  0  0
 13 41  1  0  0  0  0
 14 15  1  0  0  0  0
 14 16  2  0  0  0  0
 15 42  1  0  0  0  0
 15 43  1  0  0  0  0
 15 44  1  0  0  0  0
 16 17  1  0  0  0  0
 16 45  1  0  0  0  0
 18 19  1  0  0  0  0
 18 46  1  0  0  0  0
 18 47  1  0  0  0  0
 19 20  3  0  0  0  0
 20 48  1  0  0  0  0
M  END
> <PUBCHEM_COMPOUND_CID>
6434236

> <PUBCHEM_CONFORMER_RMSD>
1.2

> <PUBCHEM_CONFORMER_DIVERSEORDER>
1
82
69
30
27
12
23
61
41
62
55
11
26
70
52
45
97
73
40
43
15
24
85
17
80
14
37
6
10
47
66
42
71
35
9
86
74
28
91
5
90
31
16
56
49
95
57
78
88
38
79
22
87
68
77
4
50
51
39
94
20
64
48
34
19
46
93
89
59
76
65
58
33
83
44
36
18
75
3
54
63
25
53
2
81
13
67
29
72
84
92
96
60
21
8
7
32

> <PUBCHEM_MMFF94_PARTIAL_CHARGES>
16
1 -0.43
12 -0.29
13 -0.15
14 -0.14
15 0.14
16 -0.14
17 0.71
18 0.48
19 -0.2
2 -0.57
20 -0.18
40 0.15
41 0.15
45 0.15
48 0.18
8 0.14

> <PUBCHEM_EFFECTIVE_ROTOR_COUNT>
10

> <PUBCHEM_PHARMACOPHORE_FEATURES>
5
1 15 hydrophobe
1 2 acceptor
1 20 hydrophobe
1 9 hydrophobe
3 7 10 11 hydrophobe

> <PUBCHEM_HEAVY_ATOM_COUNT>
20

> <PUBCHEM_ATOM_DEF_STEREO_COUNT>
0

> <PUBCHEM_ATOM_UDEF_STEREO_COUNT>
1

> <PUBCHEM_BOND_DEF_STEREO_COUNT>
2

> <PUBCHEM_BOND_UDEF_STEREO_COUNT>
0

> <PUBCHEM_ISOTOPIC_ATOM_COUNT>
0

> <PUBCHEM_COMPONENT_COUNT>
1

> <PUBCHEM_CACTVS_TAUTO_COUNT>
1

> <PUBCHEM_CONFORMER_ID>
00622DBC00000001

> <PUBCHEM_MMFF94_ENERGY>
28.6143

> <PUBCHEM_FEATURE_SELFOVERLAP>
25.372

> <PUBCHEM_SHAPE_FINGERPRINT>
10669705 251 17913196573814664219
12107183 9 17970898101988972417
12596602 18 16589143810483284081
12623949 98 18409720759928581055
12730499 353 18338233761392295648
13073987 5 18335136488565915985
13533116 47 18187922850831312169
13911852 28 18409450289275040015
13955234 65 18189340078370524720
14251740 57 18342452647147081711
14251764 30 18343014510906118643
14429380 30 18121781896746914670
14556957 393 13470424253475550807
14617045 38 18337383829976278764
14863182 85 18337956689094952868
15019793 15 18196088846482977595
15110567 62 18409727344277099038
15537594 2 18187083901768380412
17492 89 18264771141775727294
1768 124 18266737979389765259
17859628 70 18407759227390651848
18335252 114 10015595986591185472
20554085 129 14562517506505693447
20645477 70 18413112749379881248
212916 134 14345787237199039093
21315759 148 18341892953390878721
21315759 227 18127138695663672510
21623969 137 18340206289030372625
22224240 67 17970360213533901768
3089732 80 18272364253108062099
33382 64 18409444761177636385
3421961 26 18334862740303578560
345986 75 17531241785662615617
34797466 226 16845284995860926021
46194498 28 17775004535985715252
5104073 3 18259982708359703553
621550 34 18338248046332904268
6433294 58 18409169896377354558
7918774 8 17631717297898727443
88748 71 18337390573090822694

> <PUBCHEM_SHAPE_MULTIPOLES>
399.85
15.96
4.53
1.35
23.91
3.24
-0.06
13.73
5.08
-8.03
0.13
0.93
0.05
3.15

> <PUBCHEM_SHAPE_SELFOVERLAP>
758.945

> <PUBCHEM_SHAPE_VOLUME>
246.1

> <PUBCHEM_COORDINATE_TYPE>
2
5
10

$$$$

