83126
  -OEChem-07051213083D

 22 23  0     0  0  0  0  0  0999 V2000
    3.3262    1.4297    0.0003 O   0  0  0  0  0  0  0  0  0  0  0  0
    0.0088   -2.8135    0.0009 O   0  0  0  0  0  0  0  0  0  0  0  0
   -3.5734    0.1074   -0.0003 O   0  0  0  0  0  0  0  0  0  0  0  0
    1.8184   -0.4250   -0.0005 N   0  0  0  0  0  0  0  0  0  0  0  0
   -1.4166    1.0157    0.0002 N   0  0  0  0  0  0  0  0  0  0  0  0
    0.9636    1.6565   -0.0007 N   0  0  0  0  0  0  0  0  0  0  0  0
   -1.7762   -1.3317   -0.0008 N   0  0  0  0  0  0  0  0  0  0  0  0
   -0.0689    0.7508   -0.0005 C   0  0  0  0  0  0  0  0  0  0  0  0
    0.4448   -0.4841   -0.0005 C   0  0  0  0  0  0  0  0  0  0  0  0
    2.2025    0.9506   -0.0005 C   0  0  0  0  0  0  0  0  0  0  0  0
   -0.4207   -1.6664   -0.0001 C   0  0  0  0  0  0  0  0  0  0  0  0
   -2.3496   -0.0424   -0.0001 C   0  0  0  0  0  0  0  0  0  0  0  0
    2.7260   -1.5435    0.0009 C   0  0  0  0  0  0  0  0  0  0  0  0
   -1.8848    2.3960    0.0015 C   0  0  0  0  0  0  0  0  0  0  0  0
    0.8508    2.6625   -0.0005 H   0  0  0  0  0  0  0  0  0  0  0  0
   -2.4301   -2.1098   -0.0009 H   0  0  0  0  0  0  0  0  0  0  0  0
    3.7600   -1.1878    0.0006 H   0  0  0  0  0  0  0  0  0  0  0  0
    2.5564   -2.1477   -0.8947 H   0  0  0  0  0  0  0  0  0  0  0  0
    2.5562   -2.1456    0.8979 H   0  0  0  0  0  0  0  0  0  0  0  0
   -1.5107    2.9013    0.8975 H   0  0  0  0  0  0  0  0  0  0  0  0
   -2.9769    2.4479    0.0024 H   0  0  0  0  0  0  0  0  0  0  0  0
   -1.5120    2.9024   -0.8944 H   0  0  0  0  0  0  0  0  0  0  0  0
  1 10  2  0  0  0  0
  2 11  2  0  0  0  0
  3 12  2  0  0  0  0
  4  9  1  0  0  0  0
  4 10  1  0  0  0  0
  4 13  1  0  0  0  0
  5  8  1  0  0  0  0
  5 12  1  0  0  0  0
  5 14  1  0  0  0  0
  6  8  1  0  0  0  0
  6 10  1  0  0  0  0
  6 15  1  0  0  0  0
  7 11  1  0  0  0  0
  7 12  1  0  0  0  0
  7 16  1  0  0  0  0
  8  9  2  0  0  0  0
  9 11  1  0  0  0  0
 13 17  1  0  0  0  0
 13 18  1  0  0  0  0
 13 19  1  0  0  0  0
 14 20  1  0  0  0  0
 14 21  1  0  0  0  0
 14 22  1  0  0  0  0
M  END
> <PUBCHEM_COMPOUND_CID>
83126

> <PUBCHEM_CONFORMER_RMSD>
0.4

> <PUBCHEM_CONFORMER_DIVERSEORDER>
1

> <PUBCHEM_MMFF94_PARTIAL_CHARGES>
16
1 -0.57
10 0.69
11 0.62
12 0.69
13 0.3
14 0.3
15 0.37
16 0.37
2 -0.57
3 -0.57
4 -0.47
5 -0.47
6 -0.54
7 -0.49
8 0.22
9 0.12

> <PUBCHEM_EFFECTIVE_ROTOR_COUNT>
0

> <PUBCHEM_PHARMACOPHORE_FEATURES>
7
1 1 acceptor
1 2 acceptor
1 3 acceptor
1 6 donor
1 7 donor
5 4 6 8 9 10 rings
6 5 7 8 9 11 12 rings

> <PUBCHEM_HEAVY_ATOM_COUNT>
14

> <PUBCHEM_ATOM_DEF_STEREO_COUNT>
0

> <PUBCHEM_ATOM_UDEF_STEREO_COUNT>
0

> <PUBCHEM_BOND_DEF_STEREO_COUNT>
0

> <PUBCHEM_BOND_UDEF_STEREO_COUNT>
0

> <PUBCHEM_ISOTOPIC_ATOM_COUNT>
0

> <PUBCHEM_COMPONENT_COUNT>
1

> <PUBCHEM_CACTVS_TAUTO_COUNT>
8

> <PUBCHEM_CONFORMER_ID>
000144B600000001

> <PUBCHEM_MMFF94_ENERGY>
43.25

> <PUBCHEM_FEATURE_SELFOVERLAP>
35.619

> <PUBCHEM_SHAPE_FINGERPRINT>
10967382 1 18410855430089796965
11471102 20 18411142463360921733
12423570 1 6690151535046025203
13140716 1 18266460004151719216
13380535 21 18339348657344862974
13380535 76 18337112263615817750
14325111 11 18410856585520674945
15775835 57 18334289847142112345
16945 1 18266458715656034340
193761 8 17978228588675690309
20510252 161 18333167271424360905
20588541 1 18264203621502186824
20871998 184 17973154037344226399
21040471 1 18410575063467947204
21501502 16 18337952393278031784
2334 1 18410856589894802500
23402539 116 18262811648381809421
23463225 33 18269557319864552634
23552423 10 18267864067462168263
23559900 14 18189888709699669780
241688 4 16608571510688523282
2748010 2 18339643446519776772
5084963 1 18114184180528565635
528886 8 18337958887394911225
53812653 166 18261678052099534504

> <PUBCHEM_SHAPE_MULTIPOLES>
250.58
4.35
2.54
0.57
0.04
0.43
0
-0.92
0
-0.17
0
0
0
0

> <PUBCHEM_SHAPE_SELFOVERLAP>
540.605

> <PUBCHEM_SHAPE_VOLUME>
136.7

> <PUBCHEM_COORDINATE_TYPE>
2
5
10

$$$$

