110685
  -OEChem-07051213103D

 29 29  0     1  0  0  0  0  0999 V2000
   -2.6120    2.0599   -0.3656 O   0  0  0  0  0  0  0  0  0  0  0  0
   -0.8147   -1.0578    0.1498 C   0  0  0  0  0  0  0  0  0  0  0  0
   -1.4282    0.2306    0.6139 C   0  0  1  0  0  0  0  0  0  0  0  0
   -0.2266    0.2461   -0.2687 C   0  0  1  0  0  0  0  0  0  0  0  0
   -1.5133   -1.8507   -0.9030 C   0  0  0  0  0  0  0  0  0  0  0  0
   -0.1331   -1.8995    1.1762 C   0  0  0  0  0  0  0  0  0  0  0  0
   -2.7215    0.6974    0.0519 C   0  0  0  0  0  0  0  0  0  0  0  0
    1.0505    0.6947    0.3182 C   0  0  0  0  0  0  0  0  0  0  0  0
    2.2970    0.4027   -0.0999 C   0  0  0  0  0  0  0  0  0  0  0  0
    3.5040    0.9442    0.6145 C   0  0  0  0  0  0  0  0  0  0  0  0
    2.5978   -0.4676   -1.2871 C   0  0  0  0  0  0  0  0  0  0  0  0
   -1.3149    0.5239    1.6514 H   0  0  0  0  0  0  0  0  0  0  0  0
   -0.3670    0.5709   -1.2952 H   0  0  0  0  0  0  0  0  0  0  0  0
   -1.7470   -1.2710   -1.8024 H   0  0  0  0  0  0  0  0  0  0  0  0
   -0.8821   -2.6839   -1.2336 H   0  0  0  0  0  0  0  0  0  0  0  0
   -2.4441   -2.2770   -0.5135 H   0  0  0  0  0  0  0  0  0  0  0  0
    0.7056   -2.4468    0.7323 H   0  0  0  0  0  0  0  0  0  0  0  0
    0.2537   -1.3191    2.0210 H   0  0  0  0  0  0  0  0  0  0  0  0
   -0.8318   -2.6354    1.5900 H   0  0  0  0  0  0  0  0  0  0  0  0
   -3.4962    0.6427    0.8242 H   0  0  0  0  0  0  0  0  0  0  0  0
   -3.0768    0.1281   -0.8090 H   0  0  0  0  0  0  0  0  0  0  0  0
    0.9554    1.3483    1.1842 H   0  0  0  0  0  0  0  0  0  0  0  0
   -3.4895    2.3300   -0.6862 H   0  0  0  0  0  0  0  0  0  0  0  0
    4.1246    0.1222    0.9858 H   0  0  0  0  0  0  0  0  0  0  0  0
    4.1058    1.5543   -0.0671 H   0  0  0  0  0  0  0  0  0  0  0  0
    3.2348    1.5704    1.4715 H   0  0  0  0  0  0  0  0  0  0  0  0
    3.1724    0.0938   -2.0310 H   0  0  0  0  0  0  0  0  0  0  0  0
    3.1875   -1.3368   -0.9775 H   0  0  0  0  0  0  0  0  0  0  0  0
    1.6958   -0.8411   -1.7806 H   0  0  0  0  0  0  0  0  0  0  0  0
  1  7  1  0  0  0  0
  1 23  1  0  0  0  0
  2  3  1  0  0  0  0
  2  4  1  0  0  0  0
  2  5  1  0  0  0  0
  2  6  1  0  0  0  0
  3  4  1  0  0  0  0
  3  7  1  0  0  0  0
  3 12  1  0  0  0  0
  4  8  1  0  0  0  0
  4 13  1  0  0  0  0
  5 14  1  0  0  0  0
  5 15  1  0  0  0  0
  5 16  1  0  0  0  0
  6 17  1  0  0  0  0
  6 18  1  0  0  0  0
  6 19  1  0  0  0  0
  7 20  1  0  0  0  0
  7 21  1  0  0  0  0
  8  9  2  0  0  0  0
  8 22  1  0  0  0  0
  9 10  1  0  0  0  0
  9 11  1  0  0  0  0
 10 24  1  0  0  0  0
 10 25  1  0  0  0  0
 10 26  1  0  0  0  0
 11 27  1  0  0  0  0
 11 28  1  0  0  0  0
 11 29  1  0  0  0  0
M  END
> <PUBCHEM_COMPOUND_CID>
110685

> <PUBCHEM_CONFORMER_RMSD>
0.6

> <PUBCHEM_CONFORMER_DIVERSEORDER>
2
15
19
18
20
10
13
8
16
17
7
21
12
11
3
1
5
14
6
9
4

> <PUBCHEM_MMFF94_PARTIAL_CHARGES>
15
1 -0.68
10 0.14
11 0.14
12 0.1
13 0.1
2 -0.19
22 0.15
23 0.4
3 -0.19
4 -0.06
5 0.09
6 0.09
7 0.38
8 -0.19
9 -0.28

> <PUBCHEM_EFFECTIVE_ROTOR_COUNT>
2.6

> <PUBCHEM_PHARMACOPHORE_FEATURES>
4
1 1 acceptor
1 1 donor
3 2 5 6 hydrophobe
3 9 10 11 hydrophobe

> <PUBCHEM_HEAVY_ATOM_COUNT>
11

> <PUBCHEM_ATOM_DEF_STEREO_COUNT>
0

> <PUBCHEM_ATOM_UDEF_STEREO_COUNT>
2

> <PUBCHEM_BOND_DEF_STEREO_COUNT>
0

> <PUBCHEM_BOND_UDEF_STEREO_COUNT>
0

> <PUBCHEM_ISOTOPIC_ATOM_COUNT>
0

> <PUBCHEM_COMPONENT_COUNT>
1

> <PUBCHEM_CACTVS_TAUTO_COUNT>
1

> <PUBCHEM_CONFORMER_ID>
0001B05D00000002

> <PUBCHEM_MMFF94_ENERGY>
21.9664

> <PUBCHEM_FEATURE_SELFOVERLAP>
20.297

> <PUBCHEM_SHAPE_FINGERPRINT>
1 1 18123752216781668839
12138202 97 18186526483637734516
12423570 1 17617688860630823203
12716758 59 18334290976597152866
12932764 1 18261380114671180142
13024252 1 17916872296508365403
14325111 11 18410574023933010737
15775835 57 18341334473785995977
16945 1 18341325596278525091
18186145 218 18042115621428912657
19837323 101 18272086063279737731
20201158 50 17967806180849318806
20524608 308 18333731286518758062
20645464 45 18408321064720644880
20645476 183 17703206486900247782
20653085 51 18261663852821511745
20871998 184 18190452758098640631
21028194 46 18339915017301798817
21040471 1 18343298192978911667
21524375 3 18341053033501449913
23402539 116 18193856859067435831
2748010 2 18041828541857270310
305870 269 18058457662715273546
3248919 1 17987519213149186166
369184 2 16878492458563973370
5084963 1 18338497699684954441
528862 383 17631179764781379858
6333449 129 18187368688064518885
69090 78 18113902649928367711
81228 2 18194677069130182491

> <PUBCHEM_SHAPE_MULTIPOLES>
220.51
4.6
1.86
1.07
2.75
0.26
0.04
-1.95
0.36
-1.34
0
0.28
0.4
0.33

> <PUBCHEM_SHAPE_SELFOVERLAP>
430.249

> <PUBCHEM_SHAPE_VOLUME>
136.4

> <PUBCHEM_COORDINATE_TYPE>
2
5
10

$$$$

