148759
  -OEChem-07051213002D

 45 47  0     1  0  0  0  0  0999 V2000
    8.2103   -0.7824    0.0000 O   0  0  0  0  0  0  0  0  0  0  0  0
    6.3981    2.0223    0.0000 O   0  0  0  0  0  0  0  0  0  0  0  0
    4.6497   -2.0123    0.0000 O   0  0  0  0  0  0  0  0  0  0  0  0
    2.8680    1.0464    0.0000 O   0  0  0  0  0  0  0  0  0  0  0  0
    6.3981   -0.9777    0.0000 N   0  3  0  0  0  0  0  0  0  0  0  0
    8.2103    0.8270    0.0000 C   0  0  0  0  0  0  0  0  0  0  0  0
    7.2641    0.5223    0.0000 C   0  0  0  0  0  0  0  0  0  0  0  0
    8.7939    0.0223    0.0000 C   0  0  3  0  0  0  0  0  0  0  0  0
    7.2641   -0.4777    0.0000 C   0  0  0  0  0  0  0  0  0  0  0  0
    6.3981    1.0223    0.0000 C   0  0  0  0  0  0  0  0  0  0  0  0
    5.5320   -0.4777    0.0000 C   0  0  0  0  0  0  0  0  0  0  0  0
    5.5320    0.5223    0.0000 C   0  0  0  0  0  0  0  0  0  0  0  0
    9.7939    0.0223    0.0000 C   0  0  0  0  0  0  0  0  0  0  0  0
    4.6381   -1.0124    0.0000 C   0  0  0  0  0  0  0  0  0  0  0  0
    6.3981   -1.9777    0.0000 C   0  0  0  0  0  0  0  0  0  0  0  0
    4.6381    1.0570    0.0000 C   0  0  0  0  0  0  0  0  0  0  0  0
    3.7320    0.5431    0.0000 C   0  0  0  0  0  0  0  0  0  0  0  0
    3.7320   -0.4985    0.0000 C   0  0  0  0  0  0  0  0  0  0  0  0
   10.2939    0.8883    0.0000 C   0  0  0  0  0  0  0  0  0  0  0  0
   10.2939   -0.8437    0.0000 C   0  0  0  0  0  0  0  0  0  0  0  0
    7.2641    2.5223    0.0000 C   0  0  0  0  0  0  0  0  0  0  0  0
    3.7895   -2.5223    0.0000 C   0  0  0  0  0  0  0  0  0  0  0  0
    2.0000    0.5498    0.0000 C   0  0  0  0  0  0  0  0  0  0  0  0
    8.7477    1.1362    0.0000 H   0  0  0  0  0  0  0  0  0  0  0  0
    7.9593    1.3939    0.0000 H   0  0  0  0  0  0  0  0  0  0  0  0
    9.0756   -0.5300    0.0000 H   0  0  0  0  0  0  0  0  0  0  0  0
    5.7781   -1.9777    0.0000 H   0  0  0  0  0  0  0  0  0  0  0  0
    6.3981   -2.5977    0.0000 H   0  0  0  0  0  0  0  0  0  0  0  0
    7.0181   -1.9777    0.0000 H   0  0  0  0  0  0  0  0  0  0  0  0
    4.6453    1.6769    0.0000 H   0  0  0  0  0  0  0  0  0  0  0  0
    3.1963   -0.8106    0.0000 H   0  0  0  0  0  0  0  0  0  0  0  0
   10.8309    0.5783    0.0000 H   0  0  0  0  0  0  0  0  0  0  0  0
   10.6039    1.4252    0.0000 H   0  0  0  0  0  0  0  0  0  0  0  0
    9.7570    1.1983    0.0000 H   0  0  0  0  0  0  0  0  0  0  0  0
    9.9839   -1.3807    0.0000 H   0  0  0  0  0  0  0  0  0  0  0  0
   10.9139   -0.8437    0.0000 H   0  0  0  0  0  0  0  0  0  0  0  0
    7.5741    1.9854    0.0000 H   0  0  0  0  0  0  0  0  0  0  0  0
    7.8010    2.8323    0.0000 H   0  0  0  0  0  0  0  0  0  0  0  0
    6.9541    3.0592    0.0000 H   0  0  0  0  0  0  0  0  0  0  0  0
    3.4733   -1.9890    0.0000 H   0  0  0  0  0  0  0  0  0  0  0  0
    3.2562   -2.8385    0.0000 H   0  0  0  0  0  0  0  0  0  0  0  0
    4.1057   -3.0556    0.0000 H   0  0  0  0  0  0  0  0  0  0  0  0
    1.6921    1.0879    0.0000 H   0  0  0  0  0  0  0  0  0  0  0  0
    1.4619    0.2419    0.0000 H   0  0  0  0  0  0  0  0  0  0  0  0
    2.3079    0.0117    0.0000 H   0  0  0  0  0  0  0  0  0  0  0  0
  1  8  1  0  0  0  0
  1  9  1  0  0  0  0
  2 10  1  0  0  0  0
  2 21  1  0  0  0  0
  3 14  1  0  0  0  0
  3 22  1  0  0  0  0
  4 17  1  0  0  0  0
  4 23  1  0  0  0  0
  5  9  2  0  0  0  0
  5 11  1  0  0  0  0
  5 15  1  0  0  0  0
  6  7  1  0  0  0  0
  6  8  1  0  0  0  0
  6 24  1  0  0  0  0
  6 25  1  0  0  0  0
  7  9  1  0  0  0  0
  7 10  2  0  0  0  0
  8 13  1  0  0  0  0
  8 26  1  0  0  0  0
 10 12  1  0  0  0  0
 11 12  2  0  0  0  0
 11 14  1  0  0  0  0
 12 16  1  0  0  0  0
 13 19  1  0  0  0  0
 13 20  2  0  0  0  0
 14 18  2  0  0  0  0
 15 27  1  0  0  0  0
 15 28  1  0  0  0  0
 15 29  1  0  0  0  0
 16 17  2  0  0  0  0
 16 30  1  0  0  0  0
 17 18  1  0  0  0  0
 18 31  1  0  0  0  0
 19 32  1  0  0  0  0
 19 33  1  0  0  0  0
 19 34  1  0  0  0  0
 20 35  1  0  0  0  0
 20 36  1  0  0  0  0
 21 37  1  0  0  0  0
 21 38  1  0  0  0  0
 21 39  1  0  0  0  0
 22 40  1  0  0  0  0
 22 41  1  0  0  0  0
 22 42  1  0  0  0  0
 23 43  1  0  0  0  0
 23 44  1  0  0  0  0
 23 45  1  0  0  0  0
M  CHG  1   5   1
M  END
> <PUBCHEM_COMPOUND_CID>
148759

> <PUBCHEM_COMPOUND_CANONICALIZED>
1

> <PUBCHEM_CACTVS_COMPLEXITY>
443

> <PUBCHEM_CACTVS_HBOND_ACCEPTOR>
4

> <PUBCHEM_CACTVS_HBOND_DONOR>
0

> <PUBCHEM_CACTVS_ROTATABLE_BOND>
4

> <PUBCHEM_CACTVS_SUBSKEYS>
AAADceB6OAAAAAAAAAAAAAAAAAAAASAAAAA8QAAAAAAAAFix8AAAHgAAAAAADByhngYyxvMMFACgAyRiRASCiCAhYCAA2CAvTJgOJ+LEsZuPOCjnwB3Y6Afw8P8OAEABCAACEAAAgAIQAAQgAAAAAAAAAA==

> <PUBCHEM_IUPAC_OPENEYE_NAME>
2-isopropenyl-4,6,8-trimethoxy-9-methyl-2,3-dihydrofuro[2,3-b]quinolin-9-ium

> <PUBCHEM_IUPAC_CAS_NAME>
4,6,8-trimethoxy-9-methyl-2-(1-methylethenyl)-2,3-dihydrofuro[2,3-b]quinolin-9-ium

> <PUBCHEM_IUPAC_NAME>
4,6,8-trimethoxy-9-methyl-2-prop-1-en-2-yl-2,3-dihydrofuro[2,3-b]quinolin-9-ium

> <PUBCHEM_IUPAC_SYSTEMATIC_NAME>
4,6,8-trimethoxy-9-methyl-2-prop-1-en-2-yl-2,3-dihydrofuro[2,3-b]quinolin-9-ium

> <PUBCHEM_IUPAC_TRADITIONAL_NAME>
2-isopropenyl-4,6,8-trimethoxy-9-methyl-2,3-dihydrofuro[2,3-b]quinolin-9-ium

> <PUBCHEM_IUPAC_INCHI>
InChI=1S/C18H22NO4/c1-10(2)14-9-13-17(22-6)12-7-11(20-4)8-15(21-5)16(12)19(3)18(13)23-14/h7-8,14H,1,9H2,2-6H3/q+1

> <PUBCHEM_IUPAC_INCHIKEY>
GZDGTOJAUNXBGU-UHFFFAOYSA-N

> <PUBCHEM_XLOGP3_AA>
3.9

> <PUBCHEM_EXACT_MASS>
316.154883

> <PUBCHEM_MOLECULAR_FORMULA>
C18H22NO4+

> <PUBCHEM_MOLECULAR_WEIGHT>
316.37158

> <PUBCHEM_OPENEYE_CAN_SMILES>
CC(=C)C1CC2=C(C3=CC(=CC(=C3[N+](=C2O1)C)OC)OC)OC

> <PUBCHEM_OPENEYE_ISO_SMILES>
CC(=C)C1CC2=C(C3=CC(=CC(=C3[N+](=C2O1)C)OC)OC)OC

> <PUBCHEM_CACTVS_TPSA>
40.8

> <PUBCHEM_MONOISOTOPIC_WEIGHT>
316.154883

> <PUBCHEM_TOTAL_CHARGE>
1

> <PUBCHEM_HEAVY_ATOM_COUNT>
23

> <PUBCHEM_ATOM_DEF_STEREO_COUNT>
0

> <PUBCHEM_ATOM_UDEF_STEREO_COUNT>
1

> <PUBCHEM_BOND_DEF_STEREO_COUNT>
0

> <PUBCHEM_BOND_UDEF_STEREO_COUNT>
0

> <PUBCHEM_ISOTOPIC_ATOM_COUNT>
0

> <PUBCHEM_COMPONENT_COUNT>
1

> <PUBCHEM_CACTVS_TAUTO_COUNT>
1

> <PUBCHEM_COORDINATE_TYPE>
1
5
255

> <PUBCHEM_BONDANNOTATIONS>
10  12  8
11  12  8
11  14  8
12  16  8
14  18  8
16  17  8
17  18  8
5  11  8
5  9  8
7  10  8
7  9  8
8  13  3

$$$$

