5086
  -OEChem-06261200303D

 30 31  0     0  0  0  0  0  0999 V2000
    1.1457   -2.9685   -0.3013 S   0  0  0  0  0  0  0  0  0  0  0  0
    3.9151    1.6486    1.7780 F   0  0  0  0  0  0  0  0  0  0  0  0
   -0.9426    1.0516    0.2276 O   0  0  0  0  0  0  0  0  0  0  0  0
   -2.8350   -0.2237    0.5577 N   0  0  0  0  0  0  0  0  0  0  0  0
   -1.3516   -2.5122    0.1861 N   0  0  0  0  0  0  0  0  0  0  0  0
   -5.2173    2.4822   -0.3775 N   0  0  0  0  0  0  0  0  0  0  0  0
    0.6447   -1.3361   -0.1408 C   0  0  0  0  0  0  0  0  0  0  0  0
   -0.7098   -1.2912    0.1153 C   0  0  0  0  0  0  0  0  0  0  0  0
    1.6165   -0.2792   -0.2802 C   0  0  0  0  0  0  0  0  0  0  0  0
   -3.7289    0.8971    0.7411 C   0  0  0  0  0  0  0  0  0  0  0  0
   -1.4612   -0.0804    0.3056 C   0  0  0  0  0  0  0  0  0  0  0  0
   -4.3279    1.3465   -0.5835 C   0  0  0  0  0  0  0  0  0  0  0  0
    2.3097    0.1830    0.8386 C   0  0  0  0  0  0  0  0  0  0  0  0
    1.8635    0.2800   -1.5339 C   0  0  0  0  0  0  0  0  0  0  0  0
    3.2499    1.2044    0.7037 C   0  0  0  0  0  0  0  0  0  0  0  0
    2.8038    1.3015   -1.6687 C   0  0  0  0  0  0  0  0  0  0  0  0
   -0.4716   -3.4673   -0.0180 C   0  0  0  0  0  0  0  0  0  0  0  0
    3.4969    1.7637   -0.5500 C   0  0  0  0  0  0  0  0  0  0  0  0
   -3.1803    1.7172    1.2181 H   0  0  0  0  0  0  0  0  0  0  0  0
   -4.5144    0.5690    1.4311 H   0  0  0  0  0  0  0  0  0  0  0  0
   -3.2309   -1.1585    0.5999 H   0  0  0  0  0  0  0  0  0  0  0  0
   -4.8832    0.5233   -1.0474 H   0  0  0  0  0  0  0  0  0  0  0  0
   -3.5337    1.6344   -1.2813 H   0  0  0  0  0  0  0  0  0  0  0  0
    2.1284   -0.2409    1.8234 H   0  0  0  0  0  0  0  0  0  0  0  0
    1.3310   -0.0676   -2.4161 H   0  0  0  0  0  0  0  0  0  0  0  0
    2.9960    1.7374   -2.6448 H   0  0  0  0  0  0  0  0  0  0  0  0
   -0.7457   -4.5133   -0.0092 H   0  0  0  0  0  0  0  0  0  0  0  0
    4.2288    2.5591   -0.6547 H   0  0  0  0  0  0  0  0  0  0  0  0
   -5.9784    2.2143    0.2452 H   0  0  0  0  0  0  0  0  0  0  0  0
   -5.6501    2.7380   -1.2640 H   0  0  0  0  0  0  0  0  0  0  0  0
  1  7  1  0  0  0  0
  1 17  1  0  0  0  0
  2 15  1  0  0  0  0
  3 11  2  0  0  0  0
  4 10  1  0  0  0  0
  4 11  1  0  0  0  0
  4 21  1  0  0  0  0
  5  8  1  0  0  0  0
  5 17  2  0  0  0  0
  6 12  1  0  0  0  0
  6 29  1  0  0  0  0
  6 30  1  0  0  0  0
  7  8  2  0  0  0  0
  7  9  1  0  0  0  0
  8 11  1  0  0  0  0
  9 13  2  0  0  0  0
  9 14  1  0  0  0  0
 10 12  1  0  0  0  0
 10 19  1  0  0  0  0
 10 20  1  0  0  0  0
 12 22  1  0  0  0  0
 12 23  1  0  0  0  0
 13 15  1  0  0  0  0
 13 24  1  0  0  0  0
 14 16  2  0  0  0  0
 14 25  1  0  0  0  0
 15 18  2  0  0  0  0
 16 18  1  0  0  0  0
 16 26  1  0  0  0  0
 17 27  1  0  0  0  0
 18 28  1  0  0  0  0
M  END
> <PUBCHEM_COMPOUND_CID>
5086

> <PUBCHEM_CONFORMER_RMSD>
0.6

> <PUBCHEM_CONFORMER_DIVERSEORDER>
2
80
42
53
81
18
9
74
34
69
26
3
71
61
51
68
33
38
46
58
52
79
66
6
22
82
10
75
62
25
39
77
5
45
73
35
31
36
83
41
17
48
65
72
11
64
37
29
78
4
14
32
76
67
59
8
13
28
63
21
30
40
60
44
70
24
12
7
49
27
1
23
56
54
50
57
20
43
19
15
55
47
16

> <PUBCHEM_MMFF94_PARTIAL_CHARGES>
26
1 -0.08
10 0.3
11 0.72
12 0.27
13 -0.15
14 -0.15
15 0.19
16 -0.15
17 0.23
18 -0.15
2 -0.19
21 0.37
24 0.15
25 0.15
26 0.15
27 0.15
28 0.15
29 0.36
3 -0.57
30 0.36
4 -0.73
5 -0.57
6 -0.99
7 -0.01
8 0.14
9 0.05

> <PUBCHEM_EFFECTIVE_ROTOR_COUNT>
5

> <PUBCHEM_PHARMACOPHORE_FEATURES>
7
1 3 acceptor
1 4 donor
1 5 acceptor
1 6 cation
1 6 donor
5 1 5 7 8 17 rings
6 9 13 14 15 16 18 rings

> <PUBCHEM_HEAVY_ATOM_COUNT>
18

> <PUBCHEM_ATOM_DEF_STEREO_COUNT>
0

> <PUBCHEM_ATOM_UDEF_STEREO_COUNT>
0

> <PUBCHEM_BOND_DEF_STEREO_COUNT>
0

> <PUBCHEM_BOND_UDEF_STEREO_COUNT>
0

> <PUBCHEM_ISOTOPIC_ATOM_COUNT>
0

> <PUBCHEM_COMPONENT_COUNT>
1

> <PUBCHEM_CACTVS_TAUTO_COUNT>
2

> <PUBCHEM_CONFORMER_ID>
000013DE00000002

> <PUBCHEM_MMFF94_ENERGY>
25.4068

> <PUBCHEM_FEATURE_SELFOVERLAP>
35.52

> <PUBCHEM_SHAPE_FINGERPRINT>
10498660 4 18335695036014334785
11140007 195 13326579608966581869
11543360 7 15719111353425199113
11582403 64 17097243612956934248
11725454 13 17096392569513912976
12173636 292 18267019444990044767
12500047 106 18336259029902758718
12633257 1 16272212980911587873
12730499 353 18339068402692622649
12788726 201 17697591095985891075
13140716 1 18411698824402592147
13294875 104 18336258029212685278
13764800 53 18192695778988539114
13878862 14 17836364123074015721
13955234 65 18122621919414131323
13965767 371 18130239206637079828
14123255 52 18411976944993461509
14178000 22 18337680728133160827
14178342 30 18197503909515310594
14957384 54 18200876162906213572
15061688 2 18261403225484187144
16752209 62 18122621661104312782
16945 1 17832135027195003566
17134986 127 18341037579992724550
1741750 31 18336823095988644267
1798214 55 18411412917066734221
18186145 218 18188192278345765753
18222031 100 10879985844597186081
19784866 34 18334577975471771977
20510252 161 17901371317076504778
21304303 282 17753646509488632302
21452121 103 18267030637901567401
21524375 3 18334008419215064542
22149856 69 18268408284155972769
23557571 272 17826780448654122128
23559900 14 18056471983903348835
23598291 2 17630888188516037166
2748010 2 18266997549400230911
43658 37 18408325514486046473
474 4 18270113643036753541
495365 180 18338801246688438221
633830 44 17677314122101117201
7364860 26 18120089734738416903
7471813 234 17609793241803677713
77492 1 17485936233558219470
7808743 9 18196923375660123292
81228 2 17831565488387346810
84936 182 18189049974630046633
88987 49 18193831549130881598
94968 8 7853562513625861181

> <PUBCHEM_SHAPE_MULTIPOLES>
346.19
7.62
3.39
1.2
7.76
3.05
-0.06
-8.81
0.23
0.63
-0.27
-1.17
-0.61
0.56

> <PUBCHEM_SHAPE_SELFOVERLAP>
724.028

> <PUBCHEM_SHAPE_VOLUME>
198.6

> <PUBCHEM_COORDINATE_TYPE>
2
5
10

$$$$

