53297344
  -OEChem-07051212513D

 27 27  0     1  0  0  0  0  0999 V2000
   -0.3667   -2.3883   -1.2600 O   0  0  0  0  0  0  0  0  0  0  0  0
    3.5521    0.8859   -0.7214 O   0  0  0  0  0  0  0  0  0  0  0  0
    1.3810   -1.6261    1.5742 O   0  0  0  0  0  0  0  0  0  0  0  0
   -2.3585    0.2414   -0.2198 C   0  0  2  0  0  0  0  0  0  0  0  0
   -1.0238   -0.4871    0.0631 C   0  0  2  0  0  0  0  0  0  0  0  0
   -0.0492    0.6101    0.5317 C   0  0  2  0  0  0  0  0  0  0  0  0
   -2.0955    1.7249    0.0700 C   0  0  0  0  0  0  0  0  0  0  0  0
   -0.5939    1.8838   -0.1130 C   0  0  0  0  0  0  0  0  0  0  0  0
   -3.5116   -0.3072    0.6116 C   0  0  0  0  0  0  0  0  0  0  0  0
    1.3978    0.3669    0.2607 C   0  0  0  0  0  0  0  0  0  0  0  0
   -0.5671   -1.1802   -1.1902 C   0  0  0  0  0  0  0  0  0  0  0  0
    2.2255    1.1188   -0.4793 C   0  0  0  0  0  0  0  0  0  0  0  0
    2.0101   -0.8427    0.8724 C   0  0  0  0  0  0  0  0  0  0  0  0
   -2.6347    0.1395   -1.2778 H   0  0  0  0  0  0  0  0  0  0  0  0
   -1.1409   -1.2511    0.8411 H   0  0  0  0  0  0  0  0  0  0  0  0
   -0.1693    0.7218    1.6199 H   0  0  0  0  0  0  0  0  0  0  0  0
   -2.3736    1.9819    1.0996 H   0  0  0  0  0  0  0  0  0  0  0  0
   -2.6609    2.3794   -0.6008 H   0  0  0  0  0  0  0  0  0  0  0  0
   -0.3669    1.9393   -1.1847 H   0  0  0  0  0  0  0  0  0  0  0  0
   -0.2237    2.7944    0.3691 H   0  0  0  0  0  0  0  0  0  0  0  0
   -3.3019   -0.2331    1.6841 H   0  0  0  0  0  0  0  0  0  0  0  0
   -3.6909   -1.3610    0.3741 H   0  0  0  0  0  0  0  0  0  0  0  0
   -4.4333    0.2475    0.4077 H   0  0  0  0  0  0  0  0  0  0  0  0
   -0.4133   -0.5378   -2.0751 H   0  0  0  0  0  0  0  0  0  0  0  0
    1.9173    2.0285   -0.9784 H   0  0  0  0  0  0  0  0  0  0  0  0
    3.0787   -1.0163    0.6670 H   0  0  0  0  0  0  0  0  0  0  0  0
    3.8720    1.6084   -1.2894 H   0  0  0  0  0  0  0  0  0  0  0  0
  1 11  2  0  0  0  0
  2 12  1  0  0  0  0
  2 27  1  0  0  0  0
  3 13  2  0  0  0  0
  4  5  1  0  0  0  0
  4  7  1  0  0  0  0
  4  9  1  0  0  0  0
  4 14  1  0  0  0  0
  5  6  1  0  0  0  0
  5 11  1  0  0  0  0
  5 15  1  0  0  0  0
  6  8  1  0  0  0  0
  6 10  1  0  0  0  0
  6 16  1  0  0  0  0
  7  8  1  0  0  0  0
  7 17  1  0  0  0  0
  7 18  1  0  0  0  0
  8 19  1  0  0  0  0
  8 20  1  0  0  0  0
  9 21  1  0  0  0  0
  9 22  1  0  0  0  0
  9 23  1  0  0  0  0
 10 12  2  0  0  0  0
 10 13  1  0  0  0  0
 11 24  1  0  0  0  0
 12 25  1  0  0  0  0
 13 26  1  0  0  0  0
M  END
> <PUBCHEM_COMPOUND_CID>
53297344

> <PUBCHEM_CONFORMER_RMSD>
0.6

> <PUBCHEM_CONFORMER_DIVERSEORDER>
1
7
12
14
9
13
10
5
17
6
4
11
2
3
16
15
8
18

> <PUBCHEM_MMFF94_PARTIAL_CHARGES>
13
1 -0.57
10 -0.12
11 0.45
12 -0.07
13 0.5
2 -0.53
24 0.06
25 0.15
26 0.06
27 0.45
3 -0.57
5 0.06
6 0.14

> <PUBCHEM_EFFECTIVE_ROTOR_COUNT>
4

> <PUBCHEM_PHARMACOPHORE_FEATURES>
4
1 1 acceptor
1 2 donor
1 3 acceptor
5 4 5 6 7 8 rings

> <PUBCHEM_HEAVY_ATOM_COUNT>
13

> <PUBCHEM_ATOM_DEF_STEREO_COUNT>
3

> <PUBCHEM_ATOM_UDEF_STEREO_COUNT>
0

> <PUBCHEM_BOND_DEF_STEREO_COUNT>
1

> <PUBCHEM_BOND_UDEF_STEREO_COUNT>
0

> <PUBCHEM_ISOTOPIC_ATOM_COUNT>
0

> <PUBCHEM_COMPONENT_COUNT>
1

> <PUBCHEM_CACTVS_TAUTO_COUNT>
4

> <PUBCHEM_CONFORMER_ID>
032D40C000000001

> <PUBCHEM_MMFF94_ENERGY>
25.0298

> <PUBCHEM_FEATURE_SELFOVERLAP>
20.297

> <PUBCHEM_SHAPE_FINGERPRINT>
12932764 1 18261121754844752233
13538477 17 18339373958686012926
14251711 518 18338809900694196252
14993402 34 18261676965657184541
15076042 46 18266185100379726857
15310529 11 18131075939048468185
15490181 8 17831864925096533289
15775835 57 18410288103607171936
16945 1 18336557018554157129
17990270 104 18121780800943996579
19873495 37 18270389504274904694
20511035 2 17979381941786707385
20645464 45 16951148208454826874
21501502 16 18269557311533165369
22112679 90 18118991129454138018
23235685 24 17676200269165913941
23419403 2 13096348823599435589
23463225 33 18267871755606621993
23552423 10 18059298793453046753
241688 4 16317237230412554873
2748010 2 18263932201054647629
5084963 1 18197228137774906897
528862 383 18131357422599243890
528886 8 18040145206449976189
53812653 8 18408602565129698464
53812654 25 18264228961740538192
81228 2 17463153261313752231

> <PUBCHEM_SHAPE_MULTIPOLES>
249.93
4.32
2.01
1.13
0.12
0.35
-0.03
-0.84
-0.27
-0.05
0.37
0.3
0.6
-0.61

> <PUBCHEM_SHAPE_SELFOVERLAP>
504.994

> <PUBCHEM_SHAPE_VOLUME>
146.7

> <PUBCHEM_COORDINATE_TYPE>
2
5
10

$$$$

