13448
  -OEChem-06261214173D

 26 27  0     0  0  0  0  0  0999 V2000
    6.1158    0.5838   -0.0004 Br  0  0  0  0  0  0  0  0  0  0  0  0
   -2.4523    2.3610   -0.0025 O   0  0  0  0  0  0  0  0  0  0  0  0
    0.2030   -0.8248    0.0023 N   0  0  0  0  0  0  0  0  0  0  0  0
   -2.0792   -0.0088   -0.0002 C   0  0  0  0  0  0  0  0  0  0  0  0
   -2.9402    1.0885   -0.0016 C   0  0  0  0  0  0  0  0  0  0  0  0
    1.5699   -0.4987    0.0008 C   0  0  0  0  0  0  0  0  0  0  0  0
   -2.5989   -1.3033    0.0014 C   0  0  0  0  0  0  0  0  0  0  0  0
   -0.6344    0.1745   -0.0003 C   0  0  0  0  0  0  0  0  0  0  0  0
   -4.3211    0.8913   -0.0014 C   0  0  0  0  0  0  0  0  0  0  0  0
   -3.9798   -1.5004    0.0018 C   0  0  0  0  0  0  0  0  0  0  0  0
    2.2415   -0.3351    1.2084 C   0  0  0  0  0  0  0  0  0  0  0  0
    2.2421   -0.3419   -1.2076 C   0  0  0  0  0  0  0  0  0  0  0  0
   -4.8409   -0.4032    0.0004 C   0  0  0  0  0  0  0  0  0  0  0  0
    3.5984   -0.0114    1.2077 C   0  0  0  0  0  0  0  0  0  0  0  0
    3.5989   -0.0184   -1.2082 C   0  0  0  0  0  0  0  0  0  0  0  0
    4.2771    0.1469   -0.0006 C   0  0  0  0  0  0  0  0  0  0  0  0
   -1.9548   -2.1786    0.0026 H   0  0  0  0  0  0  0  0  0  0  0  0
   -0.2528    1.2123   -0.0031 H   0  0  0  0  0  0  0  0  0  0  0  0
   -5.0040    1.7366   -0.0023 H   0  0  0  0  0  0  0  0  0  0  0  0
   -4.3849   -2.5081    0.0032 H   0  0  0  0  0  0  0  0  0  0  0  0
    1.7205   -0.4574    2.1542 H   0  0  0  0  0  0  0  0  0  0  0  0
    1.7215   -0.4695   -2.1529 H   0  0  0  0  0  0  0  0  0  0  0  0
   -5.9161   -0.5568    0.0007 H   0  0  0  0  0  0  0  0  0  0  0  0
    4.1120    0.1136    2.1575 H   0  0  0  0  0  0  0  0  0  0  0  0
    4.1131    0.1010   -2.1584 H   0  0  0  0  0  0  0  0  0  0  0  0
   -3.1968    2.9869   -0.0033 H   0  0  0  0  0  0  0  0  0  0  0  0
  1 16  1  0  0  0  0
  2  5  1  0  0  0  0
  2 26  1  0  0  0  0
  3  6  1  0  0  0  0
  3  8  2  0  0  0  0
  4  5  1  0  0  0  0
  4  7  2  0  0  0  0
  4  8  1  0  0  0  0
  5  9  2  0  0  0  0
  6 11  2  0  0  0  0
  6 12  1  0  0  0  0
  7 10  1  0  0  0  0
  7 17  1  0  0  0  0
  8 18  1  0  0  0  0
  9 13  1  0  0  0  0
  9 19  1  0  0  0  0
 10 13  2  0  0  0  0
 10 20  1  0  0  0  0
 11 14  1  0  0  0  0
 11 21  1  0  0  0  0
 12 15  2  0  0  0  0
 12 22  1  0  0  0  0
 13 23  1  0  0  0  0
 14 16  2  0  0  0  0
 14 24  1  0  0  0  0
 15 16  1  0  0  0  0
 15 25  1  0  0  0  0
M  END
> <PUBCHEM_COMPOUND_CID>
13448

> <PUBCHEM_CONFORMER_RMSD>
0.6

> <PUBCHEM_CONFORMER_DIVERSEORDER>
1
3
2
4

> <PUBCHEM_MMFF94_PARTIAL_CHARGES>
26
1 -0.11
10 -0.15
11 -0.15
12 -0.15
13 -0.15
14 -0.15
15 -0.15
16 0.11
17 0.15
18 0.06
19 0.15
2 -0.53
20 0.15
21 0.15
22 0.15
23 0.15
24 0.15
25 0.15
26 0.45
3 -0.63
4 0.09
5 0.08
6 0.18
7 -0.15
8 0.3
9 -0.15

> <PUBCHEM_EFFECTIVE_ROTOR_COUNT>
2

> <PUBCHEM_PHARMACOPHORE_FEATURES>
5
1 1 hydrophobe
1 2 donor
1 3 acceptor
6 4 5 7 9 10 13 rings
6 6 11 12 14 15 16 rings

> <PUBCHEM_HEAVY_ATOM_COUNT>
16

> <PUBCHEM_ATOM_DEF_STEREO_COUNT>
0

> <PUBCHEM_ATOM_UDEF_STEREO_COUNT>
0

> <PUBCHEM_BOND_DEF_STEREO_COUNT>
0

> <PUBCHEM_BOND_UDEF_STEREO_COUNT>
0

> <PUBCHEM_ISOTOPIC_ATOM_COUNT>
0

> <PUBCHEM_COMPONENT_COUNT>
1

> <PUBCHEM_CACTVS_TAUTO_COUNT>
4

> <PUBCHEM_CONFORMER_ID>
0000348800000001

> <PUBCHEM_MMFF94_ENERGY>
43.2693

> <PUBCHEM_FEATURE_SELFOVERLAP>
25.371

> <PUBCHEM_SHAPE_FINGERPRINT>
10366900 7 18186529795368924955
10498660 4 18337391655296350797
10680689 15 17748830696130192991
11287383 113 18040714736794422322
11315181 36 17846215523080721262
11471102 20 15864070966684141242
12107183 9 17480313691633578296
12236239 1 17775006786674697354
12390115 104 17970053664574949361
12507557 5 17846499218545358157
12916748 109 18412537717630383754
13167823 11 18272375303805635674
13897977 58 18413670214512216393
14386348 63 17603584118857517202
15961568 22 18339366236921260540
17834072 33 18131351886813491670
18186145 218 15719400529288580646
19050596 39 17917992780334645891
19489759 90 18343022189880219890
200 152 16415484843753354143
20279233 1 17821726134902582239
20645477 56 18186522102897770855
20645477 70 16588296241974838446
21033648 29 17168156662276460784
21065198 48 18060145383183755050
22646028 1 17704075092242957643
2297311 6 18261103067621154877
23048698 100 16917067767335763554
23402539 116 18341336617080210894
23402655 69 15719388464656712152
23536379 177 18410855478241883082
23557571 272 18187359947822214056
23559900 14 18261951967865199998
2916195 48 18334583395862878976
300161 21 17846505832763072223
3268164 11 18336555975288489877
3545911 37 18409165527941485543
441001 317 18410011048130748848
474 4 16987143930263389324
5104073 3 18337948012564462427
5281201 14 17458054989267847244
542803 24 17989486316460079814
573450 72 18201729478354883827
7495541 125 17894632509536893786
9971528 1 17489586792719925998

> <PUBCHEM_SHAPE_MULTIPOLES>
324.36
12.48
1.35
0.99
5.78
0.46
0
1.29
0
-1.79
0
1.09
-0.08
0.01

> <PUBCHEM_SHAPE_SELFOVERLAP>
683.372

> <PUBCHEM_SHAPE_VOLUME>
187.2

> <PUBCHEM_COORDINATE_TYPE>
2
5
10

$$$$

