1089
  -OEChem-07051212502D

  7  6  0     0  0  0  0  0  0999 V2000
    3.4030    0.0000    0.0000 Se  0  0  0  0  0  0  0  0  0  0  0  0
    4.2690    0.5000    0.0000 O   0  0  0  0  0  0  0  0  0  0  0  0
    2.5369   -0.5000    0.0000 O   0  0  0  0  0  0  0  0  0  0  0  0
    2.9030    0.8660    0.0000 O   0  0  0  0  0  0  0  0  0  0  0  0
    3.9030   -0.8660    0.0000 O   0  0  0  0  0  0  0  0  0  0  0  0
    4.8059    0.1900    0.0000 H   0  0  0  0  0  0  0  0  0  0  0  0
    2.0000   -0.1900    0.0000 H   0  0  0  0  0  0  0  0  0  0  0  0
  1  2  1  0  0  0  0
  1  3  1  0  0  0  0
  1  4  2  0  0  0  0
  1  5  2  0  0  0  0
  2  6  1  0  0  0  0
  3  7  1  0  0  0  0
M  END
> <PUBCHEM_COMPOUND_CID>
1089

> <PUBCHEM_COMPOUND_CANONICALIZED>
1

> <PUBCHEM_CACTVS_COMPLEXITY>
81.3

> <PUBCHEM_CACTVS_HBOND_ACCEPTOR>
4

> <PUBCHEM_CACTVS_HBOND_DONOR>
2

> <PUBCHEM_CACTVS_ROTATABLE_BOND>
0

> <PUBCHEM_CACTVS_SUBSKEYS>
AAADcQAAOAAAAAAAIAAAAAAAAAAAAAAAAAAAAAAAAAAAAAAAAAAAAAAACAAAAAAAAAAAAAAAAAAAAAAAAAAAAAAAAAAAAAAAAAAAAAAAAAAAAAAAAAAAAAAAAAAAAAAAAAAAAAAAAAAAAAAAAAAAAAAAAA==

> <PUBCHEM_IUPAC_OPENEYE_NAME>
selenic acid

> <PUBCHEM_IUPAC_CAS_NAME>
selenic acid

> <PUBCHEM_IUPAC_NAME>
selenic acid

> <PUBCHEM_IUPAC_SYSTEMATIC_NAME>
selenic acid

> <PUBCHEM_IUPAC_TRADITIONAL_NAME>
selenic acid

> <PUBCHEM_IUPAC_INCHI>
InChI=1S/H2O4Se/c1-5(2,3)4/h(H2,1,2,3,4)

> <PUBCHEM_IUPAC_INCHIKEY>
QYHFIVBSNOWOCQ-UHFFFAOYSA-N

> <PUBCHEM_EXACT_MASS>
145.91183

> <PUBCHEM_MOLECULAR_FORMULA>
H2O4Se

> <PUBCHEM_MOLECULAR_WEIGHT>
144.97348

> <PUBCHEM_OPENEYE_CAN_SMILES>
O[Se](=O)(=O)O

> <PUBCHEM_OPENEYE_ISO_SMILES>
O[Se](=O)(=O)O

> <PUBCHEM_CACTVS_TPSA>
74.6

> <PUBCHEM_MONOISOTOPIC_WEIGHT>
145.91183

> <PUBCHEM_TOTAL_CHARGE>
0

> <PUBCHEM_HEAVY_ATOM_COUNT>
5

> <PUBCHEM_ATOM_DEF_STEREO_COUNT>
0

> <PUBCHEM_ATOM_UDEF_STEREO_COUNT>
0

> <PUBCHEM_BOND_DEF_STEREO_COUNT>
0

> <PUBCHEM_BOND_UDEF_STEREO_COUNT>
0

> <PUBCHEM_ISOTOPIC_ATOM_COUNT>
0

> <PUBCHEM_COMPONENT_COUNT>
1

> <PUBCHEM_CACTVS_TAUTO_COUNT>
1

> <PUBCHEM_COORDINATE_TYPE>
1
5
255

$$$$

