33599
  -OEChem-07051213052D

 78 78  0     0  0  0  0  0  0999 V2000
    9.7942   -3.7500    0.0000 O   0  0  0  0  0  0  0  0  0  0  0  0
   13.2583   -1.7500    0.0000 O   0  0  0  0  0  0  0  0  0  0  0  0
   10.6603   -2.2500    0.0000 O   0  0  0  0  0  0  0  0  0  0  0  0
   11.5263   -1.7500    0.0000 O   0  0  0  0  0  0  0  0  0  0  0  0
   15.8564    2.7500    0.0000 C   0  0  0  0  0  0  0  0  0  0  0  0
    4.5981   -3.7500    0.0000 C   0  0  0  0  0  0  0  0  0  0  0  0
    3.7320   -3.2500    0.0000 C   0  0  0  0  0  0  0  0  0  0  0  0
   15.8564    3.7500    0.0000 C   0  0  0  0  0  0  0  0  0  0  0  0
   14.9904    2.2500    0.0000 C   0  0  0  0  0  0  0  0  0  0  0  0
    5.4641   -3.2500    0.0000 C   0  0  0  0  0  0  0  0  0  0  0  0
    2.8660   -3.7500    0.0000 C   0  0  0  0  0  0  0  0  0  0  0  0
   16.7224    4.2500    0.0000 C   0  0  0  0  0  0  0  0  0  0  0  0
    6.3301   -3.7500    0.0000 C   0  0  0  0  0  0  0  0  0  0  0  0
   14.9904    1.2500    0.0000 C   0  0  0  0  0  0  0  0  0  0  0  0
   14.1244    0.7500    0.0000 C   0  0  0  0  0  0  0  0  0  0  0  0
    7.1962   -3.2500    0.0000 C   0  0  0  0  0  0  0  0  0  0  0  0
   14.1244   -0.2500    0.0000 C   0  0  0  0  0  0  0  0  0  0  0  0
    8.0622   -3.7500    0.0000 C   0  0  0  0  0  0  0  0  0  0  0  0
    2.0000   -3.2500    0.0000 C   0  0  0  0  0  0  0  0  0  0  0  0
    2.8660   -4.7500    0.0000 C   0  0  0  0  0  0  0  0  0  0  0  0
   16.7224    5.2500    0.0000 C   0  0  0  0  0  0  0  0  0  0  0  0
   17.5885    3.7500    0.0000 C   0  0  0  0  0  0  0  0  0  0  0  0
    8.9282   -3.2500    0.0000 C   0  0  0  0  0  0  0  0  0  0  0  0
   13.2583   -0.7500    0.0000 C   0  0  0  0  0  0  0  0  0  0  0  0
   12.3923   -2.2500    0.0000 C   0  0  0  0  0  0  0  0  0  0  0  0
   10.6603   -3.2500    0.0000 C   0  0  0  0  0  0  0  0  0  0  0  0
   12.3923   -3.2500    0.0000 C   0  0  0  0  0  0  0  0  0  0  0  0
   11.5263   -3.7500    0.0000 C   0  0  0  0  0  0  0  0  0  0  0  0
   11.5263   -4.7500    0.0000 C   0  0  0  0  0  0  0  0  0  0  0  0
   13.2583   -3.7500    0.0000 C   0  0  0  0  0  0  0  0  0  0  0  0
   12.3923   -5.2500    0.0000 C   0  0  0  0  0  0  0  0  0  0  0  0
   13.2583   -4.7500    0.0000 C   0  0  0  0  0  0  0  0  0  0  0  0
   16.0685    2.1674    0.0000 H   0  0  0  0  0  0  0  0  0  0  0  0
   16.4670    2.8577    0.0000 H   0  0  0  0  0  0  0  0  0  0  0  0
    4.1996   -4.2250    0.0000 H   0  0  0  0  0  0  0  0  0  0  0  0
    4.9966   -4.2250    0.0000 H   0  0  0  0  0  0  0  0  0  0  0  0
    4.1306   -2.7750    0.0000 H   0  0  0  0  0  0  0  0  0  0  0  0
    3.3335   -2.7750    0.0000 H   0  0  0  0  0  0  0  0  0  0  0  0
   15.6444    4.3326    0.0000 H   0  0  0  0  0  0  0  0  0  0  0  0
   15.2458    3.6423    0.0000 H   0  0  0  0  0  0  0  0  0  0  0  0
   14.7783    2.8326    0.0000 H   0  0  0  0  0  0  0  0  0  0  0  0
   14.3798    2.1423    0.0000 H   0  0  0  0  0  0  0  0  0  0  0  0
    5.8626   -2.7750    0.0000 H   0  0  0  0  0  0  0  0  0  0  0  0
    5.0656   -2.7750    0.0000 H   0  0  0  0  0  0  0  0  0  0  0  0
    2.8660   -3.1300    0.0000 H   0  0  0  0  0  0  0  0  0  0  0  0
   16.1855    4.5600    0.0000 H   0  0  0  0  0  0  0  0  0  0  0  0
    5.9316   -4.2250    0.0000 H   0  0  0  0  0  0  0  0  0  0  0  0
    6.7287   -4.2250    0.0000 H   0  0  0  0  0  0  0  0  0  0  0  0
   15.2024    0.6674    0.0000 H   0  0  0  0  0  0  0  0  0  0  0  0
   15.6010    1.3577    0.0000 H   0  0  0  0  0  0  0  0  0  0  0  0
    7.5947   -2.7750    0.0000 H   0  0  0  0  0  0  0  0  0  0  0  0
    6.7976   -2.7750    0.0000 H   0  0  0  0  0  0  0  0  0  0  0  0
   13.9123    1.3326    0.0000 H   0  0  0  0  0  0  0  0  0  0  0  0
   13.5138    0.6423    0.0000 H   0  0  0  0  0  0  0  0  0  0  0  0
    7.6636   -4.2250    0.0000 H   0  0  0  0  0  0  0  0  0  0  0  0
    8.4607   -4.2250    0.0000 H   0  0  0  0  0  0  0  0  0  0  0  0
   14.3364   -0.8326    0.0000 H   0  0  0  0  0  0  0  0  0  0  0  0
   14.7349   -0.1423    0.0000 H   0  0  0  0  0  0  0  0  0  0  0  0
   17.2785    3.2131    0.0000 H   0  0  0  0  0  0  0  0  0  0  0  0
   18.1254    3.4400    0.0000 H   0  0  0  0  0  0  0  0  0  0  0  0
    2.3100   -2.7131    0.0000 H   0  0  0  0  0  0  0  0  0  0  0  0
    1.4631   -2.9400    0.0000 H   0  0  0  0  0  0  0  0  0  0  0  0
    1.6900   -3.7869    0.0000 H   0  0  0  0  0  0  0  0  0  0  0  0
    2.2460   -4.7500    0.0000 H   0  0  0  0  0  0  0  0  0  0  0  0
    2.8660   -5.3700    0.0000 H   0  0  0  0  0  0  0  0  0  0  0  0
    3.4860   -4.7500    0.0000 H   0  0  0  0  0  0  0  0  0  0  0  0
   17.3424    5.2500    0.0000 H   0  0  0  0  0  0  0  0  0  0  0  0
   16.7224    5.8700    0.0000 H   0  0  0  0  0  0  0  0  0  0  0  0
   16.1024    5.2500    0.0000 H   0  0  0  0  0  0  0  0  0  0  0  0
   17.8985    4.2869    0.0000 H   0  0  0  0  0  0  0  0  0  0  0  0
    9.3267   -2.7750    0.0000 H   0  0  0  0  0  0  0  0  0  0  0  0
    8.5297   -2.7750    0.0000 H   0  0  0  0  0  0  0  0  0  0  0  0
   13.0463   -0.1674    0.0000 H   0  0  0  0  0  0  0  0  0  0  0  0
   12.6477   -0.8577    0.0000 H   0  0  0  0  0  0  0  0  0  0  0  0
   10.9893   -5.0600    0.0000 H   0  0  0  0  0  0  0  0  0  0  0  0
   13.7953   -3.4400    0.0000 H   0  0  0  0  0  0  0  0  0  0  0  0
   12.3923   -5.8700    0.0000 H   0  0  0  0  0  0  0  0  0  0  0  0
   13.7953   -5.0600    0.0000 H   0  0  0  0  0  0  0  0  0  0  0  0
  1 23  1  0  0  0  0
  1 26  1  0  0  0  0
  2 24  1  0  0  0  0
  2 25  1  0  0  0  0
  3 26  2  0  0  0  0
  4 25  2  0  0  0  0
  5  8  1  0  0  0  0
  5  9  1  0  0  0  0
  5 33  1  0  0  0  0
  5 34  1  0  0  0  0
  6  7  1  0  0  0  0
  6 10  1  0  0  0  0
  6 35  1  0  0  0  0
  6 36  1  0  0  0  0
  7 11  1  0  0  0  0
  7 37  1  0  0  0  0
  7 38  1  0  0  0  0
  8 12  1  0  0  0  0
  8 39  1  0  0  0  0
  8 40  1  0  0  0  0
  9 14  1  0  0  0  0
  9 41  1  0  0  0  0
  9 42  1  0  0  0  0
 10 13  1  0  0  0  0
 10 43  1  0  0  0  0
 10 44  1  0  0  0  0
 11 19  1  0  0  0  0
 11 20  1  0  0  0  0
 11 45  1  0  0  0  0
 12 21  1  0  0  0  0
 12 22  1  0  0  0  0
 12 46  1  0  0  0  0
 13 16  1  0  0  0  0
 13 47  1  0  0  0  0
 13 48  1  0  0  0  0
 14 15  1  0  0  0  0
 14 49  1  0  0  0  0
 14 50  1  0  0  0  0
 15 17  1  0  0  0  0
 15 53  1  0  0  0  0
 15 54  1  0  0  0  0
 16 18  1  0  0  0  0
 16 51  1  0  0  0  0
 16 52  1  0  0  0  0
 17 24  1  0  0  0  0
 17 57  1  0  0  0  0
 17 58  1  0  0  0  0
 18 23  1  0  0  0  0
 18 55  1  0  0  0  0
 18 56  1  0  0  0  0
 19 61  1  0  0  0  0
 19 62  1  0  0  0  0
 19 63  1  0  0  0  0
 20 64  1  0  0  0  0
 20 65  1  0  0  0  0
 20 66  1  0  0  0  0
 21 67  1  0  0  0  0
 21 68  1  0  0  0  0
 21 69  1  0  0  0  0
 22 59  1  0  0  0  0
 22 60  1  0  0  0  0
 22 70  1  0  0  0  0
 23 71  1  0  0  0  0
 23 72  1  0  0  0  0
 24 73  1  0  0  0  0
 24 74  1  0  0  0  0
 25 27  1  0  0  0  0
 26 28  1  0  0  0  0
 27 28  1  0  0  0  0
 27 30  2  0  0  0  0
 28 29  2  0  0  0  0
 29 31  1  0  0  0  0
 29 75  1  0  0  0  0
 30 32  1  0  0  0  0
 30 76  1  0  0  0  0
 31 32  2  0  0  0  0
 31 77  1  0  0  0  0
 32 78  1  0  0  0  0
M  END
> <PUBCHEM_COMPOUND_CID>
33599

> <PUBCHEM_COMPOUND_CANONICALIZED>
1

> <PUBCHEM_CACTVS_COMPLEXITY>
442

> <PUBCHEM_CACTVS_HBOND_ACCEPTOR>
4

> <PUBCHEM_CACTVS_HBOND_DONOR>
0

> <PUBCHEM_CACTVS_ROTATABLE_BOND>
20

> <PUBCHEM_CACTVS_SUBSKEYS>
AAADcfB4OAAAAAAAAAAAAAAAAAAAAAAAAAAwAAAAAAAAAAABAAAAGgAAAAAADQCgmAIyCIAABACIAiDSCAACAAAkAAAIiAEACMgIJjKANRiCMQAkwAEIqYfLyOCOgAAAAAAQAAAAAAAAACAAAAAAAAAAAA==

> <PUBCHEM_IUPAC_OPENEYE_NAME>
bis(8-methylnonyl) benzene-1,2-dicarboxylate

> <PUBCHEM_IUPAC_CAS_NAME>
benzene-1,2-dicarboxylic acid bis(8-methylnonyl) ester

> <PUBCHEM_IUPAC_NAME>
bis(8-methylnonyl) benzene-1,2-dicarboxylate

> <PUBCHEM_IUPAC_SYSTEMATIC_NAME>
bis(8-methylnonyl) benzene-1,2-dicarboxylate

> <PUBCHEM_IUPAC_TRADITIONAL_NAME>
benzene-1,2-dicarboxylic acid bis(8-methylnonyl) ester

> <PUBCHEM_IUPAC_INCHI>
InChI=1S/C28H46O4/c1-23(2)17-11-7-5-9-15-21-31-27(29)25-19-13-14-20-26(25)28(30)32-22-16-10-6-8-12-18-24(3)4/h13-14,19-20,23-24H,5-12,15-18,21-22H2,1-4H3

> <PUBCHEM_IUPAC_INCHIKEY>
ZVFDTKUVRCTHQE-UHFFFAOYSA-N

> <PUBCHEM_XLOGP3>
10.6

> <PUBCHEM_EXACT_MASS>
446.33961

> <PUBCHEM_MOLECULAR_FORMULA>
C28H46O4

> <PUBCHEM_MOLECULAR_WEIGHT>
446.66244

> <PUBCHEM_OPENEYE_CAN_SMILES>
CC(C)CCCCCCCOC(=O)C1=CC=CC=C1C(=O)OCCCCCCCC(C)C

> <PUBCHEM_OPENEYE_ISO_SMILES>
CC(C)CCCCCCCOC(=O)C1=CC=CC=C1C(=O)OCCCCCCCC(C)C

> <PUBCHEM_CACTVS_TPSA>
52.6

> <PUBCHEM_MONOISOTOPIC_WEIGHT>
446.33961

> <PUBCHEM_TOTAL_CHARGE>
0

> <PUBCHEM_HEAVY_ATOM_COUNT>
32

> <PUBCHEM_ATOM_DEF_STEREO_COUNT>
0

> <PUBCHEM_ATOM_UDEF_STEREO_COUNT>
0

> <PUBCHEM_BOND_DEF_STEREO_COUNT>
0

> <PUBCHEM_BOND_UDEF_STEREO_COUNT>
0

> <PUBCHEM_ISOTOPIC_ATOM_COUNT>
0

> <PUBCHEM_COMPONENT_COUNT>
1

> <PUBCHEM_CACTVS_TAUTO_COUNT>
1

> <PUBCHEM_COORDINATE_TYPE>
1
5
255

> <PUBCHEM_BONDANNOTATIONS>
27  28  8
27  30  8
28  29  8
29  31  8
30  32  8
31  32  8

$$$$

