9146
  -OEChem-07051213132D

 32 36  0     0  0  0  0  0  0999 V2000
    3.7102    0.9110    0.0000 C   0  0  0  0  0  0  0  0  0  0  0  0
    4.5763    0.4110    0.0000 C   0  0  0  0  0  0  0  0  0  0  0  0
    2.9732    0.2439    0.0000 C   0  0  0  0  0  0  0  0  0  0  0  0
    4.3671   -0.5608    0.0000 C   0  0  0  0  0  0  0  0  0  0  0  0
    3.3784   -0.6638    0.0000 C   0  0  0  0  0  0  0  0  0  0  0  0
    5.4423    0.9110    0.0000 C   0  0  0  0  0  0  0  0  0  0  0  0
    3.7102    1.9110    0.0000 C   0  0  0  0  0  0  0  0  0  0  0  0
    5.4423    1.9110    0.0000 C   0  0  0  0  0  0  0  0  0  0  0  0
    4.5763    2.4110    0.0000 C   0  0  0  0  0  0  0  0  0  0  0  0
    2.0900    0.6867    0.0000 C   0  0  0  0  0  0  0  0  0  0  0  0
    2.7883    2.2663    0.0000 C   0  0  0  0  0  0  0  0  0  0  0  0
    4.9878   -1.3896    0.0000 C   0  0  0  0  0  0  0  0  0  0  0  0
    2.9418   -1.6028    0.0000 C   0  0  0  0  0  0  0  0  0  0  0  0
    6.3362    0.3764    0.0000 C   0  0  0  0  0  0  0  0  0  0  0  0
    2.0000    1.6707    0.0000 C   0  0  0  0  0  0  0  0  0  0  0  0
    6.3362    2.4457    0.0000 C   0  0  0  0  0  0  0  0  0  0  0  0
    4.5732   -2.3384    0.0000 C   0  0  0  0  0  0  0  0  0  0  0  0
    3.5433   -2.4457    0.0000 C   0  0  0  0  0  0  0  0  0  0  0  0
    7.2423    0.8902    0.0000 C   0  0  0  0  0  0  0  0  0  0  0  0
    7.2423    1.9318    0.0000 C   0  0  0  0  0  0  0  0  0  0  0  0
    4.5763    3.0310    0.0000 H   0  0  0  0  0  0  0  0  0  0  0  0
    1.5778    0.3374    0.0000 H   0  0  0  0  0  0  0  0  0  0  0  0
    2.7020    2.8803    0.0000 H   0  0  0  0  0  0  0  0  0  0  0  0
    5.6037   -1.3182    0.0000 H   0  0  0  0  0  0  0  0  0  0  0  0
    2.3245   -1.6599    0.0000 H   0  0  0  0  0  0  0  0  0  0  0  0
    6.3291   -0.2436    0.0000 H   0  0  0  0  0  0  0  0  0  0  0  0
    1.4329    1.9214    0.0000 H   0  0  0  0  0  0  0  0  0  0  0  0
    6.3291    3.0657    0.0000 H   0  0  0  0  0  0  0  0  0  0  0  0
    4.9391   -2.8388    0.0000 H   0  0  0  0  0  0  0  0  0  0  0  0
    3.2884   -3.0109    0.0000 H   0  0  0  0  0  0  0  0  0  0  0  0
    7.7780    0.5782    0.0000 H   0  0  0  0  0  0  0  0  0  0  0  0
    7.7780    2.2439    0.0000 H   0  0  0  0  0  0  0  0  0  0  0  0
  1  2  2  0  0  0  0
  1  3  1  0  0  0  0
  1  7  1  0  0  0  0
  2  4  1  0  0  0  0
  2  6  1  0  0  0  0
  3  5  1  0  0  0  0
  3 10  2  0  0  0  0
  4  5  1  0  0  0  0
  4 12  2  0  0  0  0
  5 13  2  0  0  0  0
  6  8  1  0  0  0  0
  6 14  2  0  0  0  0
  7  9  2  0  0  0  0
  7 11  1  0  0  0  0
  8  9  1  0  0  0  0
  8 16  2  0  0  0  0
  9 21  1  0  0  0  0
 10 15  1  0  0  0  0
 10 22  1  0  0  0  0
 11 15  2  0  0  0  0
 11 23  1  0  0  0  0
 12 17  1  0  0  0  0
 12 24  1  0  0  0  0
 13 18  1  0  0  0  0
 13 25  1  0  0  0  0
 14 19  1  0  0  0  0
 14 26  1  0  0  0  0
 15 27  1  0  0  0  0
 16 20  1  0  0  0  0
 16 28  1  0  0  0  0
 17 18  2  0  0  0  0
 17 29  1  0  0  0  0
 18 30  1  0  0  0  0
 19 20  2  0  0  0  0
 19 31  1  0  0  0  0
 20 32  1  0  0  0  0
M  END
> <PUBCHEM_COMPOUND_CID>
9146

> <PUBCHEM_COMPOUND_CANONICALIZED>
1

> <PUBCHEM_CACTVS_COMPLEXITY>
372

> <PUBCHEM_CACTVS_HBOND_ACCEPTOR>
0

> <PUBCHEM_CACTVS_HBOND_DONOR>
0

> <PUBCHEM_CACTVS_ROTATABLE_BOND>
0

> <PUBCHEM_CACTVS_SUBSKEYS>
AAADccB4AAAAAAAAAAAAAAAAAAAAAYAAAAAwYMGAAAAAAGDBVAAAGAAAAAAADACAGAAwAMAAAACAAiBCAAACAAAgAAAIiAAAAIgIICKAERCAIAAggAAIiAcAgMAOwAACAAAQAACAAAQAACAAAQAACAAAAA==

> <PUBCHEM_IUPAC_INCHI>
InChI=1S/C20H12/c1-2-8-15-13(6-1)12-14-7-5-11-17-16-9-3-4-10-18(16)20(15)19(14)17/h1-12H

> <PUBCHEM_IUPAC_INCHIKEY>
OQDXASJSCOTNQS-UHFFFAOYSA-N

> <PUBCHEM_XLOGP3>
6.4

> <PUBCHEM_EXACT_MASS>
252.0939

> <PUBCHEM_MOLECULAR_FORMULA>
C20H12

> <PUBCHEM_MOLECULAR_WEIGHT>
252.30928

> <PUBCHEM_OPENEYE_CAN_SMILES>
C1=CC=C2C(=C1)C=C3C=CC=C4C3=C2C5=CC=CC=C54

> <PUBCHEM_OPENEYE_ISO_SMILES>
C1=CC=C2C(=C1)C=C3C=CC=C4C3=C2C5=CC=CC=C54

> <PUBCHEM_CACTVS_TPSA>
0

> <PUBCHEM_MONOISOTOPIC_WEIGHT>
252.0939

> <PUBCHEM_TOTAL_CHARGE>
0

> <PUBCHEM_HEAVY_ATOM_COUNT>
20

> <PUBCHEM_ATOM_DEF_STEREO_COUNT>
0

> <PUBCHEM_ATOM_UDEF_STEREO_COUNT>
0

> <PUBCHEM_BOND_DEF_STEREO_COUNT>
0

> <PUBCHEM_BOND_UDEF_STEREO_COUNT>
0

> <PUBCHEM_ISOTOPIC_ATOM_COUNT>
0

> <PUBCHEM_COMPONENT_COUNT>
1

> <PUBCHEM_CACTVS_TAUTO_COUNT>
1

> <PUBCHEM_COORDINATE_TYPE>
1
5
255

> <PUBCHEM_BONDANNOTATIONS>
1  2  8
1  3  8
1  7  8
10  15  8
11  15  8
12  17  8
13  18  8
14  19  8
16  20  8
17  18  8
19  20  8
2  6  8
3  10  8
4  12  8
4  5  8
5  13  8
6  14  8
6  8  8
7  11  8
7  9  8
8  16  8
8  9  8

$$$$

