11953817
  -OEChem-07051212483D

 13 12  0     0  0  0  0  0  0999 V2000
   -2.8410    0.4832   -0.1611 O   0  0  0  0  0  0  0  0  0  0  0  0
    2.8786   -0.5492    0.1487 O   0  0  0  0  0  0  0  0  0  0  0  0
   -1.4732   -1.3194   -0.3658 O   0  0  0  0  0  0  0  0  0  0  0  0
    1.4173    0.7269   -1.1117 O   0  5  0  0  0  0  0  0  0  0  0  0
    1.6183    0.0838   -0.0322 N   0  3  0  0  0  0  0  0  0  0  0  0
   -0.6249    0.7140    0.6505 C   0  0  0  0  0  0  0  0  0  0  0  0
    0.6824    0.0253    0.8778 C   0  0  0  0  0  0  0  0  0  0  0  0
   -1.6575   -0.1647   -0.0062 C   0  0  0  0  0  0  0  0  0  0  0  0
   -1.0057    1.0065    1.6352 H   0  0  0  0  0  0  0  0  0  0  0  0
   -0.4959    1.6173    0.0471 H   0  0  0  0  0  0  0  0  0  0  0  0
    0.8623   -0.5681    1.7845 H   0  0  0  0  0  0  0  0  0  0  0  0
   -3.5157   -0.0854   -0.5899 H   0  0  0  0  0  0  0  0  0  0  0  0
    3.3325   -0.3206   -0.6799 H   0  0  0  0  0  0  0  0  0  0  0  0
  1  8  1  0  0  0  0
  1 12  1  0  0  0  0
  2  5  1  0  0  0  0
  2 13  1  0  0  0  0
  3  8  2  0  0  0  0
  4  5  1  0  0  0  0
  5  7  2  0  0  0  0
  6  7  1  0  0  0  0
  6  8  1  0  0  0  0
  6  9  1  0  0  0  0
  6 10  1  0  0  0  0
  7 11  1  0  0  0  0
M  CHG  2   4  -1   5   1
M  END
> <PUBCHEM_COMPOUND_CID>
11953817

> <PUBCHEM_CONFORMER_RMSD>
0.4

> <PUBCHEM_CONFORMER_DIVERSEORDER>
1
7
13
10
5
14
4
6
8
9
12
2
11
3

> <PUBCHEM_MMFF94_PARTIAL_CHARGES>
11
1 -0.65
11 0.06
12 0.5
13 0.4
2 -0.54
3 -0.57
4 -0.63
5 0.77
6 0.12
7 -0.12
8 0.66

> <PUBCHEM_EFFECTIVE_ROTOR_COUNT>
2

> <PUBCHEM_PHARMACOPHORE_FEATURES>
7
1 1 acceptor
1 2 acceptor
1 2 anion
1 3 acceptor
1 4 acceptor
1 4 anion
3 1 3 8 anion

> <PUBCHEM_HEAVY_ATOM_COUNT>
8

> <PUBCHEM_ATOM_DEF_STEREO_COUNT>
0

> <PUBCHEM_ATOM_UDEF_STEREO_COUNT>
0

> <PUBCHEM_BOND_DEF_STEREO_COUNT>
1

> <PUBCHEM_BOND_UDEF_STEREO_COUNT>
0

> <PUBCHEM_ISOTOPIC_ATOM_COUNT>
0

> <PUBCHEM_COMPONENT_COUNT>
1

> <PUBCHEM_CACTVS_TAUTO_COUNT>
2

> <PUBCHEM_CONFORMER_ID>
00B6669900000001

> <PUBCHEM_MMFF94_ENERGY>
10.3855

> <PUBCHEM_FEATURE_SELFOVERLAP>
35.674

> <PUBCHEM_SHAPE_FINGERPRINT>
11062470 55 16515408481839115345
14390081 3 15482676762312618197
15310529 11 18129089044259112743
16714656 1 18408886256662851361
20096714 4 16415479315887825049
21040471 1 18334299803118793745
24536 1 17346039939737303257
29004967 10 15574709188302891434
5460574 1 18411983576269810297

> <PUBCHEM_SHAPE_MULTIPOLES>
136.18
3.61
0.94
0.87
0.33
0.17
0.13
0.4
0.31
-0.33
-0.05
0.3
-0.12
-0.07

> <PUBCHEM_SHAPE_SELFOVERLAP>
255.324

> <PUBCHEM_SHAPE_VOLUME>
85.1

> <PUBCHEM_COORDINATE_TYPE>
2
5
10

$$$$

