15559964
  -OEChem-07051212503D

 47 47  0     1  0  0  0  0  0999 V2000
   -2.6156   -1.2224    0.1262 O   0  0  0  0  0  0  0  0  0  0  0  0
   -0.8047   -0.5725   -1.2521 O   0  0  0  0  0  0  0  0  0  0  0  0
   -3.3673    2.8124   -0.5138 O   0  0  0  0  0  0  0  0  0  0  0  0
   -4.3871    0.8291    1.1372 O   0  0  0  0  0  0  0  0  0  0  0  0
   -2.4476    1.1451   -2.6704 O   0  0  0  0  0  0  0  0  0  0  0  0
   -2.0399   -2.3103    2.5688 O   0  0  0  0  0  0  0  0  0  0  0  0
    1.6151   -1.2176   -2.4949 O   0  0  0  0  0  0  0  0  0  0  0  0
    1.6374   -0.8710    1.1506 O   0  0  0  0  0  0  0  0  0  0  0  0
    4.0919   -1.6743   -0.0755 O   0  0  0  0  0  0  0  0  0  0  0  0
    5.5059    0.6771    0.4303 O   0  0  0  0  0  0  0  0  0  0  0  0
    4.1749    2.9391    1.3444 O   0  0  0  0  0  0  0  0  0  0  0  0
   -2.6111    1.6240   -0.2998 C   0  0  1  0  0  0  0  0  0  0  0  0
   -2.9711    1.0101    1.0561 C   0  0  2  0  0  0  0  0  0  0  0  0
   -2.9044    0.6304   -1.4240 C   0  0  2  0  0  0  0  0  0  0  0  0
   -2.2868   -0.3530    1.2210 C   0  0  1  0  0  0  0  0  0  0  0  0
   -2.2212   -0.7117   -1.1501 C   0  0  2  0  0  0  0  0  0  0  0  0
   -2.7072   -1.0629    2.5035 C   0  0  0  0  0  0  0  0  0  0  0  0
    1.3682   -1.6225   -1.1424 C   0  0  2  0  0  0  0  0  0  0  0  0
   -0.1417   -1.8096   -1.0013 C   0  0  0  0  0  0  0  0  0  0  0  0
    1.9623   -0.5542   -0.2025 C   0  0  2  0  0  0  0  0  0  0  0  0
    3.4881   -0.4053   -0.3250 C   0  0  1  0  0  0  0  0  0  0  0  0
    4.0863    0.6503    0.6264 C   0  0  2  0  0  0  0  0  0  0  0  0
    3.5755    2.0695    0.3873 C   0  0  0  0  0  0  0  0  0  0  0  0
   -1.5526    1.9116   -0.3097 H   0  0  0  0  0  0  0  0  0  0  0  0
   -2.6942    1.6936    1.8658 H   0  0  0  0  0  0  0  0  0  0  0  0
   -3.9872    0.4897   -1.5180 H   0  0  0  0  0  0  0  0  0  0  0  0
   -1.1983   -0.2198    1.2397 H   0  0  0  0  0  0  0  0  0  0  0  0
   -2.5430   -1.4283   -1.9155 H   0  0  0  0  0  0  0  0  0  0  0  0
   -2.4585   -0.4755    3.3928 H   0  0  0  0  0  0  0  0  0  0  0  0
   -3.7800   -1.2780    2.5116 H   0  0  0  0  0  0  0  0  0  0  0  0
    1.8520   -2.5923   -0.9834 H   0  0  0  0  0  0  0  0  0  0  0  0
    1.4974    0.4103   -0.4318 H   0  0  0  0  0  0  0  0  0  0  0  0
   -0.3720   -2.1855    0.0006 H   0  0  0  0  0  0  0  0  0  0  0  0
   -0.4847   -2.5435   -1.7406 H   0  0  0  0  0  0  0  0  0  0  0  0
    3.7545   -0.1428   -1.3555 H   0  0  0  0  0  0  0  0  0  0  0  0
   -3.1301    3.1539   -1.3929 H   0  0  0  0  0  0  0  0  0  0  0  0
   -4.6360    0.0911    0.5559 H   0  0  0  0  0  0  0  0  0  0  0  0
   -1.4828    1.2525   -2.6111 H   0  0  0  0  0  0  0  0  0  0  0  0
    3.9363    0.3532    1.6709 H   0  0  0  0  0  0  0  0  0  0  0  0
    3.8614    2.4303   -0.6056 H   0  0  0  0  0  0  0  0  0  0  0  0
    2.4914    2.1498    0.4979 H   0  0  0  0  0  0  0  0  0  0  0  0
    1.1524   -0.3746   -2.6409 H   0  0  0  0  0  0  0  0  0  0  0  0
   -1.0840   -2.1331    2.5926 H   0  0  0  0  0  0  0  0  0  0  0  0
    1.9430   -1.7767    1.3277 H   0  0  0  0  0  0  0  0  0  0  0  0
    3.9751   -1.8817    0.8669 H   0  0  0  0  0  0  0  0  0  0  0  0
    5.8732    1.3320    1.0486 H   0  0  0  0  0  0  0  0  0  0  0  0
    3.8985    2.6377    2.2268 H   0  0  0  0  0  0  0  0  0  0  0  0
  1 15  1  0  0  0  0
  1 16  1  0  0  0  0
  2 16  1  0  0  0  0
  2 19  1  0  0  0  0
  3 12  1  0  0  0  0
  3 36  1  0  0  0  0
  4 13  1  0  0  0  0
  4 37  1  0  0  0  0
  5 14  1  0  0  0  0
  5 38  1  0  0  0  0
  6 17  1  0  0  0  0
  6 43  1  0  0  0  0
  7 18  1  0  0  0  0
  7 42  1  0  0  0  0
  8 20  1  0  0  0  0
  8 44  1  0  0  0  0
  9 21  1  0  0  0  0
  9 45  1  0  0  0  0
 10 22  1  0  0  0  0
 10 46  1  0  0  0  0
 11 23  1  0  0  0  0
 11 47  1  0  0  0  0
 12 13  1  0  0  0  0
 12 14  1  0  0  0  0
 12 24  1  0  0  0  0
 13 15  1  0  0  0  0
 13 25  1  0  0  0  0
 14 16  1  0  0  0  0
 14 26  1  0  0  0  0
 15 17  1  0  0  0  0
 15 27  1  0  0  0  0
 16 28  1  0  0  0  0
 17 29  1  0  0  0  0
 17 30  1  0  0  0  0
 18 19  1  0  0  0  0
 18 20  1  0  0  0  0
 18 31  1  0  0  0  0
 19 33  1  0  0  0  0
 19 34  1  0  0  0  0
 20 21  1  0  0  0  0
 20 32  1  0  0  0  0
 21 22  1  0  0  0  0
 21 35  1  0  0  0  0
 22 23  1  0  0  0  0
 22 39  1  0  0  0  0
 23 40  1  0  0  0  0
 23 41  1  0  0  0  0
M  END
> <PUBCHEM_COMPOUND_CID>
15559964

> <PUBCHEM_CONFORMER_RMSD>
1

> <PUBCHEM_CONFORMER_DIVERSEORDER>
3
16
78
22
37
20
64
11
72
25
71
65
27
34
33
28
74
2
7
46
67
29
76
21
73
18
63
44
19
62
70
43
4
56
61
40
30
38
39
68
14
49
80
52
60
45
35
79
31
54
48
42
51
17
47
75
9
10
59
55
13
1
23
41
15
24
81
26
12
77
5
53
58
57
32
69
8
6
50
36
66

> <PUBCHEM_MMFF94_PARTIAL_CHARGES>
32
1 -0.56
10 -0.68
11 -0.68
12 0.28
13 0.28
14 0.28
15 0.28
16 0.56
17 0.28
18 0.28
19 0.28
2 -0.56
20 0.28
21 0.28
22 0.28
23 0.28
3 -0.68
36 0.4
37 0.4
38 0.4
4 -0.68
42 0.4
43 0.4
44 0.4
45 0.4
46 0.4
47 0.4
5 -0.68
6 -0.68
7 -0.68
8 -0.68
9 -0.68

> <PUBCHEM_EFFECTIVE_ROTOR_COUNT>
9.2

> <PUBCHEM_PHARMACOPHORE_FEATURES>
21
1 1 acceptor
1 10 acceptor
1 10 donor
1 11 acceptor
1 11 donor
1 2 acceptor
1 3 acceptor
1 3 donor
1 4 acceptor
1 4 donor
1 5 acceptor
1 5 donor
1 6 acceptor
1 6 donor
1 7 acceptor
1 7 donor
1 8 acceptor
1 8 donor
1 9 acceptor
1 9 donor
6 1 12 13 14 15 16 rings

> <PUBCHEM_HEAVY_ATOM_COUNT>
23

> <PUBCHEM_ATOM_DEF_STEREO_COUNT>
9

> <PUBCHEM_ATOM_UDEF_STEREO_COUNT>
0

> <PUBCHEM_BOND_DEF_STEREO_COUNT>
0

> <PUBCHEM_BOND_UDEF_STEREO_COUNT>
0

> <PUBCHEM_ISOTOPIC_ATOM_COUNT>
0

> <PUBCHEM_COMPONENT_COUNT>
1

> <PUBCHEM_CACTVS_TAUTO_COUNT>
1

> <PUBCHEM_CONFORMER_ID>
00ED6D1C00000003

> <PUBCHEM_MMFF94_ENERGY>
62.1312

> <PUBCHEM_FEATURE_SELFOVERLAP>
106.656

> <PUBCHEM_SHAPE_FINGERPRINT>
10366900 7 18130787832721464706
10764073 3 7778464916630439079
11370993 144 18130789026954377794
11552529 35 17631450064648916250
11640471 11 16443901803346136879
12596599 1 14562813226981336616
12633257 1 17701555110661050034
13004483 165 16772368653472469211
13583140 156 18272377451547519154
14081887 123 17417816084610620170
14123260 362 16443337684966230938
14178342 30 16845572036751580274
15183329 4 17168411728559435028
15295992 7 18197210558447468243
15342168 16 17749099002747697477
15375462 189 13110958760420755806
18186145 218 17821721733183401334
18981168 100 18041823091237719263
19433438 48 15985098613314714451
20554085 129 16772134620704835837
21033648 29 17416983887447423708
21095088 737 17388842797999366820
212916 134 17274261802611390277
21475661 188 17832698346663656321
21713013 43 8142079862396539040
21864079 5 17894624842767296472
22907989 373 17097508496216563510
23557571 272 17774709866811221411
23559900 14 17841685673046378319
23598288 3 12822740538700074430
27216 239 18410856560024885469
4169191 19 17386011608242112000
469060 322 17760093912645689554
474 4 17822009834893775014
5081480 168 16735480179889063412
602551 16 16917063348495158242
633830 44 16950547879770319558
85463 6 15267065796212402106

> <PUBCHEM_SHAPE_MULTIPOLES>
408.77
9.29
2.55
2.28
8.74
1.29
0.35
5
2.1
1.08
0.03
-2.6
-0.78
1.85

> <PUBCHEM_SHAPE_SELFOVERLAP>
812.836

> <PUBCHEM_SHAPE_VOLUME>
238.5

> <PUBCHEM_COORDINATE_TYPE>
2
5
10

$$$$

