13539
  -OEChem-06241222393D

 22 21  0     1  0  0  0  0  0999 V2000
   -0.0663    0.1038   -0.1415 O   0  0  0  0  0  0  0  0  0  0  0  0
   -2.4439    1.2547    0.7183 O   0  0  0  0  0  0  0  0  0  0  0  0
    1.1760   -1.7983    0.2291 O   0  0  0  0  0  0  0  0  0  0  0  0
   -2.4613    0.2594   -0.3038 C   0  0  1  0  0  0  0  0  0  0  0  0
   -1.2714   -0.6673   -0.0897 C   0  0  0  0  0  0  0  0  0  0  0  0
   -3.7778   -0.4989   -0.2297 C   0  0  0  0  0  0  0  0  0  0  0  0
    1.0887   -0.5940    0.0347 C   0  0  0  0  0  0  0  0  0  0  0  0
    2.2500    0.3356   -0.0432 C   0  0  0  0  0  0  0  0  0  0  0  0
    2.0331    1.7979   -0.2857 C   0  0  0  0  0  0  0  0  0  0  0  0
    3.4728   -0.1929    0.1115 C   0  0  0  0  0  0  0  0  0  0  0  0
   -2.3640    0.7769   -1.2645 H   0  0  0  0  0  0  0  0  0  0  0  0
   -1.3348   -1.1401    0.8980 H   0  0  0  0  0  0  0  0  0  0  0  0
   -1.2454   -1.4401   -0.8665 H   0  0  0  0  0  0  0  0  0  0  0  0
   -4.6219    0.1848   -0.3711 H   0  0  0  0  0  0  0  0  0  0  0  0
   -3.8306   -1.2787   -0.9954 H   0  0  0  0  0  0  0  0  0  0  0  0
   -3.9103   -0.9615    0.7545 H   0  0  0  0  0  0  0  0  0  0  0  0
   -3.1978    1.8486    0.5617 H   0  0  0  0  0  0  0  0  0  0  0  0
    1.5263    1.9580   -1.2430 H   0  0  0  0  0  0  0  0  0  0  0  0
    1.4229    2.2337    0.5123 H   0  0  0  0  0  0  0  0  0  0  0  0
    2.9776    2.3517   -0.3170 H   0  0  0  0  0  0  0  0  0  0  0  0
    4.3590    0.4324    0.0651 H   0  0  0  0  0  0  0  0  0  0  0  0
    3.6357   -1.2510    0.2873 H   0  0  0  0  0  0  0  0  0  0  0  0
  1  5  1  0  0  0  0
  1  7  1  0  0  0  0
  2  4  1  0  0  0  0
  2 17  1  0  0  0  0
  3  7  2  0  0  0  0
  4  5  1  0  0  0  0
  4  6  1  0  0  0  0
  4 11  1  0  0  0  0
  5 12  1  0  0  0  0
  5 13  1  0  0  0  0
  6 14  1  0  0  0  0
  6 15  1  0  0  0  0
  6 16  1  0  0  0  0
  7  8  1  0  0  0  0
  8  9  1  0  0  0  0
  8 10  2  0  0  0  0
  9 18  1  0  0  0  0
  9 19  1  0  0  0  0
  9 20  1  0  0  0  0
 10 21  1  0  0  0  0
 10 22  1  0  0  0  0
M  END
> <PUBCHEM_COMPOUND_CID>
13539

> <PUBCHEM_CONFORMER_RMSD>
0.6

> <PUBCHEM_CONFORMER_DIVERSEORDER>
1
58
54
38
37
20
46
52
41
4
14
45
59
61
51
33
56
22
53
55
62
11
27
30
63
60
36
16
49
25
34
12
50
44
39
47
17
18
48
31
57
5
23
35
26
32
42
28
7
8
2
13
43
6
15
24
10
3
21
29
9
40
19

> <PUBCHEM_MMFF94_PARTIAL_CHARGES>
12
1 -0.43
10 -0.3
17 0.4
2 -0.68
21 0.15
22 0.15
3 -0.57
4 0.28
5 0.28
7 0.71
8 -0.12
9 0.14

> <PUBCHEM_EFFECTIVE_ROTOR_COUNT>
4

> <PUBCHEM_PHARMACOPHORE_FEATURES>
3
1 2 acceptor
1 2 donor
1 3 acceptor

> <PUBCHEM_HEAVY_ATOM_COUNT>
10

> <PUBCHEM_ATOM_DEF_STEREO_COUNT>
0

> <PUBCHEM_ATOM_UDEF_STEREO_COUNT>
1

> <PUBCHEM_BOND_DEF_STEREO_COUNT>
0

> <PUBCHEM_BOND_UDEF_STEREO_COUNT>
0

> <PUBCHEM_ISOTOPIC_ATOM_COUNT>
0

> <PUBCHEM_COMPONENT_COUNT>
1

> <PUBCHEM_CACTVS_TAUTO_COUNT>
1

> <PUBCHEM_CONFORMER_ID>
000034E300000001

> <PUBCHEM_MMFF94_ENERGY>
14.7944

> <PUBCHEM_FEATURE_SELFOVERLAP>
15.223

> <PUBCHEM_SHAPE_FINGERPRINT>
10219947 1 17632577149845023038
11062470 55 10807938167121545791
12162725 195 18409165502293156921
12897270 3 18410576162942528357
12932764 1 17274834535877630766
14144814 61 18411421742986806410
14325111 11 18411982420939425356
14390081 3 18334296457028202609
170605 34 18413108338094877778
20201158 50 18272653458645590499
21028194 46 18272652316015400213
23402655 69 18409455803749395173
23552423 10 18264205984056167399
3248919 1 18408325496979266095

> <PUBCHEM_SHAPE_MULTIPOLES>
188.19
6.02
1.45
0.66
2.48
0.18
-0.01
0.38
0.09
-0.59
-0.07
0.12
0.07
-0.35

> <PUBCHEM_SHAPE_SELFOVERLAP>
353.962

> <PUBCHEM_SHAPE_VOLUME>
117.7

> <PUBCHEM_COORDINATE_TYPE>
2
5
10

$$$$

