7712
  -OEChem-06261202153D

 22 22  0     0  0  0  0  0  0999 V2000
    3.2133    0.6563   -0.3100 O   0  0  0  0  0  0  0  0  0  0  0  0
    5.1687   -0.5173    0.0895 O   0  0  0  0  0  0  0  0  0  0  0  0
   -1.3887   -0.2953   -0.0326 C   0  0  0  0  0  0  0  0  0  0  0  0
    0.0224   -0.6481   -0.0247 C   0  0  0  0  0  0  0  0  0  0  0  0
   -1.7739    1.0415    0.0688 C   0  0  0  0  0  0  0  0  0  0  0  0
   -2.3568   -1.2938   -0.1415 C   0  0  0  0  0  0  0  0  0  0  0  0
    1.0295    0.1243    0.4429 C   0  0  0  0  0  0  0  0  0  0  0  0
   -3.1270    1.3800    0.0615 C   0  0  0  0  0  0  0  0  0  0  0  0
   -3.7100   -0.9552   -0.1489 C   0  0  0  0  0  0  0  0  0  0  0  0
    2.4665   -0.2886    0.4439 C   0  0  0  0  0  0  0  0  0  0  0  0
   -4.0950    0.3817   -0.0474 C   0  0  0  0  0  0  0  0  0  0  0  0
    4.5509    0.4144   -0.4016 C   0  0  0  0  0  0  0  0  0  0  0  0
    0.2673   -1.6300   -0.4244 H   0  0  0  0  0  0  0  0  0  0  0  0
   -1.0559    1.8537    0.1349 H   0  0  0  0  0  0  0  0  0  0  0  0
   -2.0759   -2.3413   -0.2201 H   0  0  0  0  0  0  0  0  0  0  0  0
    0.8321    1.0992    0.8793 H   0  0  0  0  0  0  0  0  0  0  0  0
    2.8310   -0.3033    1.4776 H   0  0  0  0  0  0  0  0  0  0  0  0
    2.5933   -1.2874    0.0097 H   0  0  0  0  0  0  0  0  0  0  0  0
   -3.4275    2.4212    0.1357 H   0  0  0  0  0  0  0  0  0  0  0  0
   -4.4640   -1.7322   -0.2336 H   0  0  0  0  0  0  0  0  0  0  0  0
   -5.1486    0.6454   -0.0543 H   0  0  0  0  0  0  0  0  0  0  0  0
    5.0096    1.2120   -1.0061 H   0  0  0  0  0  0  0  0  0  0  0  0
  1 10  1  0  0  0  0
  1 12  1  0  0  0  0
  2 12  2  0  0  0  0
  3  4  1  0  0  0  0
  3  5  2  0  0  0  0
  3  6  1  0  0  0  0
  4  7  2  0  0  0  0
  4 13  1  0  0  0  0
  5  8  1  0  0  0  0
  5 14  1  0  0  0  0
  6  9  2  0  0  0  0
  6 15  1  0  0  0  0
  7 10  1  0  0  0  0
  7 16  1  0  0  0  0
  8 11  2  0  0  0  0
  8 19  1  0  0  0  0
  9 11  1  0  0  0  0
  9 20  1  0  0  0  0
 10 17  1  0  0  0  0
 10 18  1  0  0  0  0
 11 21  1  0  0  0  0
 12 22  1  0  0  0  0
M  END
> <PUBCHEM_COMPOUND_CID>
7712

> <PUBCHEM_CONFORMER_RMSD>
0.6

> <PUBCHEM_CONFORMER_DIVERSEORDER>
1
10
5
4
9
6
2
3
8
7

> <PUBCHEM_MMFF94_PARTIAL_CHARGES>
20
1 -0.43
10 0.42
11 -0.15
12 0.66
13 0.15
14 0.15
15 0.15
16 0.15
19 0.15
2 -0.57
20 0.15
21 0.15
22 0.06
3 0.03
4 -0.18
5 -0.15
6 -0.15
7 -0.29
8 -0.15
9 -0.15

> <PUBCHEM_EFFECTIVE_ROTOR_COUNT>
4

> <PUBCHEM_PHARMACOPHORE_FEATURES>
2
1 2 acceptor
6 3 5 6 8 9 11 rings

> <PUBCHEM_HEAVY_ATOM_COUNT>
12

> <PUBCHEM_ATOM_DEF_STEREO_COUNT>
0

> <PUBCHEM_ATOM_UDEF_STEREO_COUNT>
0

> <PUBCHEM_BOND_DEF_STEREO_COUNT>
0

> <PUBCHEM_BOND_UDEF_STEREO_COUNT>
1

> <PUBCHEM_ISOTOPIC_ATOM_COUNT>
0

> <PUBCHEM_COMPONENT_COUNT>
1

> <PUBCHEM_CACTVS_TAUTO_COUNT>
1

> <PUBCHEM_CONFORMER_ID>
00001E2000000001

> <PUBCHEM_MMFF94_ENERGY>
26.1757

> <PUBCHEM_FEATURE_SELFOVERLAP>
10.148

> <PUBCHEM_SHAPE_FINGERPRINT>
10680689 15 18408599240835535019
11062470 55 10303817583476179402
12932764 1 17531260447369336523
13897977 58 18342172263271269413
14123238 8 17603586309802411172
17834076 25 14189578541634061071
1986462 14 18334012787228134764
20279233 1 17167577185431159510
20300324 65 18335984190355069161
204376 136 15482665763101755538
20645477 56 18337107964591067689
20645477 70 16950836016341734966
21119208 17 18413388730908505004
22485316 2 17748548130405920942
23402539 116 18334864912997711980
23559900 14 18186805764698572656
42788 4 18410856555993629764
573450 72 18340779216440774978
77779 3 18411698790237324142

> <PUBCHEM_SHAPE_MULTIPOLES>
235.22
9.77
1.21
0.66
10.9
0.06
0.01
0.37
-0.82
-1.08
-0.03
0.08
0
-0.24

> <PUBCHEM_SHAPE_SELFOVERLAP>
478.696

> <PUBCHEM_SHAPE_VOLUME>
135.9

> <PUBCHEM_COORDINATE_TYPE>
2
5
10

$$$$

