11953991
  -OEChem-07051213022D

112117  0     1  0  0  0  0  0999 V2000
    4.7095    4.6939    0.0000 O   0  0  0  0  0  0  0  0  0  0  0  0
    8.6663   -0.7500    0.0000 O   0  0  0  0  0  0  0  0  0  0  0  0
    8.6663   -1.7500    0.0000 O   0  0  0  0  0  0  0  0  0  0  0  0
    6.0682    0.7500    0.0000 O   0  0  0  0  0  0  0  0  0  0  0  0
    4.8602    4.1897    0.0000 O   0  0  0  0  0  0  0  0  0  0  0  0
    2.5381    3.7742    0.0000 O   0  0  0  0  0  0  0  0  0  0  0  0
    7.0682    1.7500    0.0000 O   0  0  0  0  0  0  0  0  0  0  0  0
   11.2644    3.7500    0.0000 O   0  0  0  0  0  0  0  0  0  0  0  0
   12.9965    3.7500    0.0000 O   0  0  0  0  0  0  0  0  0  0  0  0
   12.9965    0.7500    0.0000 O   0  0  0  0  0  0  0  0  0  0  0  0
   14.7285    1.7500    0.0000 O   0  0  0  0  0  0  0  0  0  0  0  0
    5.2022    3.2500    0.0000 C   0  0  1  0  0  0  0  0  0  0  0  0
    4.3083    3.7847    0.0000 C   0  0  1  0  0  0  0  0  0  0  0  0
    5.2022    2.2500    0.0000 C   0  0  1  0  0  0  0  0  0  0  0  0
    7.8003   -1.2500    0.0000 C   0  0  2  0  0  0  0  0  0  0  0  0
    6.9343    0.2500    0.0000 C   0  0  2  0  0  0  0  0  0  0  0  0
    6.9343   -0.7500    0.0000 C   0  0  0  0  0  0  0  0  0  0  0  0
    3.4022    3.2708    0.0000 C   0  0  1  0  0  0  0  0  0  0  0  0
    6.0682    3.7500    0.0000 C   0  0  0  0  0  0  0  0  0  0  0  0
    7.8003    0.7500    0.0000 C   0  0  0  0  0  0  0  0  0  0  0  0
    8.6663    0.2500    0.0000 C   0  0  1  0  0  0  0  0  0  0  0  0
    8.6663   -2.7500    0.0000 C   0  0  1  0  0  0  0  0  0  0  0  0
    4.3083    1.7153    0.0000 C   0  0  0  0  0  0  0  0  0  0  0  0
    5.7031    4.6743    0.0000 C   0  0  0  0  0  0  0  0  0  0  0  0
    3.4022    2.2292    0.0000 C   0  0  0  0  0  0  0  0  0  0  0  0
    7.8003   -3.2500    0.0000 C   0  0  2  0  0  0  0  0  0  0  0  0
    6.0682    1.7500    0.0000 C   0  0  0  0  0  0  0  0  0  0  0  0
    9.5323   -3.2500    0.0000 C   0  0  3  0  0  0  0  0  0  0  0  0
    6.9343   -1.7500    0.0000 C   0  0  0  0  0  0  0  0  0  0  0  0
    9.5323    0.7500    0.0000 C   0  0  0  0  0  0  0  0  0  0  0  0
    6.9343   -2.7500    0.0000 C   0  0  0  0  0  0  0  0  0  0  0  0
    6.9343    3.2500    0.0000 C   0  0  0  0  0  0  0  0  0  0  0  0
    9.5323   -4.2500    0.0000 C   0  0  0  0  0  0  0  0  0  0  0  0
    2.5381    1.7258    0.0000 C   0  0  0  0  0  0  0  0  0  0  0  0
    7.8003   -4.2500    0.0000 C   0  0  0  0  0  0  0  0  0  0  0  0
   10.3984   -2.7500    0.0000 C   0  0  0  0  0  0  0  0  0  0  0  0
    9.5323    1.7500    0.0000 C   0  0  0  0  0  0  0  0  0  0  0  0
   10.3984    3.2500    0.0000 C   0  0  2  0  0  0  0  0  0  0  0  0
   10.3984    2.2500    0.0000 C   0  0  0  0  0  0  0  0  0  0  0  0
    9.5323    3.7500    0.0000 C   0  0  2  0  0  0  0  0  0  0  0  0
    7.8003    3.7500    0.0000 C   0  0  0  0  0  0  0  0  0  0  0  0
   10.3984   -4.7500    0.0000 C   0  0  0  0  0  0  0  0  0  0  0  0
    8.6663    3.2500    0.0000 C   0  0  0  0  0  0  0  0  0  0  0  0
   12.1304    3.2500    0.0000 C   0  0  2  0  0  0  0  0  0  0  0  0
   12.1304    2.2500    0.0000 C   0  0  0  0  0  0  0  0  0  0  0  0
   12.9965    1.7500    0.0000 C   0  0  1  0  0  0  0  0  0  0  0  0
   13.8625    2.2500    0.0000 C   0  0  2  0  0  0  0  0  0  0  0  0
   13.8625    3.2500    0.0000 C   0  0  2  0  0  0  0  0  0  0  0  0
   11.2644    1.7500    0.0000 C   0  0  0  0  0  0  0  0  0  0  0  0
    9.5323    4.7500    0.0000 C   0  0  0  0  0  0  0  0  0  0  0  0
   14.7285    3.7500    0.0000 C   0  0  0  0  0  0  0  0  0  0  0  0
   13.8625    0.2500    0.0000 C   0  0  0  0  0  0  0  0  0  0  0  0
    3.6779    4.3548    0.0000 H   0  0  0  0  0  0  0  0  0  0  0  0
    5.2022    1.4000    0.0000 H   0  0  0  0  0  0  0  0  0  0  0  0
    6.1982   -0.1750    0.0000 H   0  0  0  0  0  0  0  0  0  0  0  0
    6.3237   -0.6423    0.0000 H   0  0  0  0  0  0  0  0  0  0  0  0
    6.7222   -1.3326    0.0000 H   0  0  0  0  0  0  0  0  0  0  0  0
    2.8647    2.9618    0.0000 H   0  0  0  0  0  0  0  0  0  0  0  0
    8.1988    1.2250    0.0000 H   0  0  0  0  0  0  0  0  0  0  0  0
    7.4018    1.2250    0.0000 H   0  0  0  0  0  0  0  0  0  0  0  0
    9.4024   -0.1750    0.0000 H   0  0  0  0  0  0  0  0  0  0  0  0
    9.2033   -2.4400    0.0000 H   0  0  0  0  0  0  0  0  0  0  0  0
    4.3154    1.0954    0.0000 H   0  0  0  0  0  0  0  0  0  0  0  0
    6.3047    4.8242    0.0000 H   0  0  0  0  0  0  0  0  0  0  0  0
    5.6337    5.2904    0.0000 H   0  0  0  0  0  0  0  0  0  0  0  0
    8.3372   -3.5600    0.0000 H   0  0  0  0  0  0  0  0  0  0  0  0
   10.2685   -3.6750    0.0000 H   0  0  0  0  0  0  0  0  0  0  0  0
    6.3973   -1.4400    0.0000 H   0  0  0  0  0  0  0  0  0  0  0  0
    9.7444    0.1674    0.0000 H   0  0  0  0  0  0  0  0  0  0  0  0
   10.1429    0.8577    0.0000 H   0  0  0  0  0  0  0  0  0  0  0  0
    6.3973   -3.0600    0.0000 H   0  0  0  0  0  0  0  0  0  0  0  0
    4.2776    4.4018    0.0000 H   0  0  0  0  0  0  0  0  0  0  0  0
    7.2444    2.7131    0.0000 H   0  0  0  0  0  0  0  0  0  0  0  0
    8.9218   -4.1423    0.0000 H   0  0  0  0  0  0  0  0  0  0  0  0
    9.3203   -4.8326    0.0000 H   0  0  0  0  0  0  0  0  0  0  0  0
    2.2261    2.2616    0.0000 H   0  0  0  0  0  0  0  0  0  0  0  0
    2.0024    1.4138    0.0000 H   0  0  0  0  0  0  0  0  0  0  0  0
    2.8502    1.1901    0.0000 H   0  0  0  0  0  0  0  0  0  0  0  0
    7.1803   -4.2500    0.0000 H   0  0  0  0  0  0  0  0  0  0  0  0
    7.8003   -4.8700    0.0000 H   0  0  0  0  0  0  0  0  0  0  0  0
    8.4203   -4.2500    0.0000 H   0  0  0  0  0  0  0  0  0  0  0  0
    2.0000    3.4662    0.0000 H   0  0  0  0  0  0  0  0  0  0  0  0
   10.7084   -3.2869    0.0000 H   0  0  0  0  0  0  0  0  0  0  0  0
   10.9353   -2.4400    0.0000 H   0  0  0  0  0  0  0  0  0  0  0  0
   10.0884   -2.2131    0.0000 H   0  0  0  0  0  0  0  0  0  0  0  0
    8.9954    2.0600    0.0000 H   0  0  0  0  0  0  0  0  0  0  0  0
   10.3984    3.8700    0.0000 H   0  0  0  0  0  0  0  0  0  0  0  0
   10.0693    4.0600    0.0000 H   0  0  0  0  0  0  0  0  0  0  0  0
    7.8003    4.3700    0.0000 H   0  0  0  0  0  0  0  0  0  0  0  0
   10.0884   -5.2869    0.0000 H   0  0  0  0  0  0  0  0  0  0  0  0
   10.9353   -5.0600    0.0000 H   0  0  0  0  0  0  0  0  0  0  0  0
   10.7084   -4.2131    0.0000 H   0  0  0  0  0  0  0  0  0  0  0  0
    8.6663    2.6300    0.0000 H   0  0  0  0  0  0  0  0  0  0  0  0
   11.5935    2.9400    0.0000 H   0  0  0  0  0  0  0  0  0  0  0  0
   11.5198    2.3577    0.0000 H   0  0  0  0  0  0  0  0  0  0  0  0
   11.9184    1.6674    0.0000 H   0  0  0  0  0  0  0  0  0  0  0  0
   13.5334    1.4400    0.0000 H   0  0  0  0  0  0  0  0  0  0  0  0
   13.8625    1.6300    0.0000 H   0  0  0  0  0  0  0  0  0  0  0  0
   13.8625    3.8700    0.0000 H   0  0  0  0  0  0  0  0  0  0  0  0
   10.9544    1.2131    0.0000 H   0  0  0  0  0  0  0  0  0  0  0  0
   11.8013    1.4400    0.0000 H   0  0  0  0  0  0  0  0  0  0  0  0
   11.5744    2.2869    0.0000 H   0  0  0  0  0  0  0  0  0  0  0  0
   10.1524    4.7500    0.0000 H   0  0  0  0  0  0  0  0  0  0  0  0
    9.5323    5.3700    0.0000 H   0  0  0  0  0  0  0  0  0  0  0  0
    8.9124    4.7500    0.0000 H   0  0  0  0  0  0  0  0  0  0  0  0
   15.0385    3.2131    0.0000 H   0  0  0  0  0  0  0  0  0  0  0  0
   15.2654    4.0600    0.0000 H   0  0  0  0  0  0  0  0  0  0  0  0
   14.4185    4.2869    0.0000 H   0  0  0  0  0  0  0  0  0  0  0  0
   15.2654    2.0600    0.0000 H   0  0  0  0  0  0  0  0  0  0  0  0
   13.5525   -0.2869    0.0000 H   0  0  0  0  0  0  0  0  0  0  0  0
   14.3994   -0.0600    0.0000 H   0  0  0  0  0  0  0  0  0  0  0  0
   14.1725    0.7869    0.0000 H   0  0  0  0  0  0  0  0  0  0  0  0
  1 13  1  0  0  0  0
  1 24  1  0  0  0  0
  2 15  1  0  0  0  0
  2 21  1  0  0  0  0
 15  3  1  6  0  0  0
  3 22  1  0  0  0  0
  4 16  1  0  0  0  0
  4 27  1  0  0  0  0
 12  5  1  6  0  0  0
  5 72  1  0  0  0  0
 18  6  1  1  0  0  0
  6 82  1  0  0  0  0
  7 27  2  0  0  0  0
 38  8  1  6  0  0  0
 44  8  1  6  0  0  0
  9 44  1  0  0  0  0
  9 48  1  0  0  0  0
 46 10  1  1  0  0  0
 10 52  1  0  0  0  0
 47 11  1  6  0  0  0
 11109  1  0  0  0  0
 12 13  1  0  0  0  0
 12 14  1  0  0  0  0
 12 19  1  0  0  0  0
 13 18  1  0  0  0  0
 13 53  1  6  0  0  0
 14 23  1  0  0  0  0
 14 27  1  0  0  0  0
 14 54  1  1  0  0  0
 15 17  1  0  0  0  0
 15 29  1  0  0  0  0
 16 17  1  0  0  0  0
 16 20  1  0  0  0  0
 16 55  1  6  0  0  0
 17 56  1  0  0  0  0
 17 57  1  0  0  0  0
 18 25  1  0  0  0  0
 18 58  1  0  0  0  0
 19 24  1  0  0  0  0
 19 32  2  0  0  0  0
 20 21  1  0  0  0  0
 20 59  1  0  0  0  0
 20 60  1  0  0  0  0
 21 30  1  0  0  0  0
 21 61  1  6  0  0  0
 22 26  1  0  0  0  0
 22 28  1  6  0  0  0
 22 62  1  0  0  0  0
 23 25  2  0  0  0  0
 23 63  1  0  0  0  0
 24 64  1  0  0  0  0
 24 65  1  0  0  0  0
 25 34  1  0  0  0  0
 26 31  1  0  0  0  0
 26 35  1  1  0  0  0
 26 66  1  0  0  0  0
 28 33  1  0  0  0  0
 28 36  1  0  0  0  0
 28 67  1  0  0  0  0
 29 31  2  0  0  0  0
 29 68  1  0  0  0  0
 30 37  1  0  0  0  0
 30 69  1  0  0  0  0
 30 70  1  0  0  0  0
 31 71  1  0  0  0  0
 32 41  1  0  0  0  0
 32 73  1  0  0  0  0
 33 42  1  0  0  0  0
 33 74  1  0  0  0  0
 33 75  1  0  0  0  0
 34 76  1  0  0  0  0
 34 77  1  0  0  0  0
 34 78  1  0  0  0  0
 35 79  1  0  0  0  0
 35 80  1  0  0  0  0
 35 81  1  0  0  0  0
 36 83  1  0  0  0  0
 36 84  1  0  0  0  0
 36 85  1  0  0  0  0
 37 39  2  0  0  0  0
 37 86  1  0  0  0  0
 38 39  1  0  0  0  0
 38 40  1  0  0  0  0
 38 87  1  0  0  0  0
 39 49  1  0  0  0  0
 40 43  1  0  0  0  0
 40 50  1  6  0  0  0
 40 88  1  0  0  0  0
 41 43  2  0  0  0  0
 41 89  1  0  0  0  0
 42 90  1  0  0  0  0
 42 91  1  0  0  0  0
 42 92  1  0  0  0  0
 43 93  1  0  0  0  0
 44 45  1  0  0  0  0
 44 94  1  0  0  0  0
 45 46  1  0  0  0  0
 45 95  1  0  0  0  0
 45 96  1  0  0  0  0
 46 47  1  0  0  0  0
 46 97  1  0  0  0  0
 47 48  1  0  0  0  0
 47 98  1  0  0  0  0
 48 51  1  1  0  0  0
 48 99  1  0  0  0  0
 49100  1  0  0  0  0
 49101  1  0  0  0  0
 49102  1  0  0  0  0
 50103  1  0  0  0  0
 50104  1  0  0  0  0
 50105  1  0  0  0  0
 51106  1  0  0  0  0
 51107  1  0  0  0  0
 51108  1  0  0  0  0
 52110  1  0  0  0  0
 52111  1  0  0  0  0
 52112  1  0  0  0  0
M  END
> <PUBCHEM_COMPOUND_CID>
11953991

> <PUBCHEM_COMPOUND_CANONICALIZED>
1

> <PUBCHEM_CACTVS_COMPLEXITY>
1450

> <PUBCHEM_CACTVS_HBOND_ACCEPTOR>
11

> <PUBCHEM_CACTVS_HBOND_DONOR>
3

> <PUBCHEM_CACTVS_ROTATABLE_BOND>
5

> <PUBCHEM_CACTVS_SUBSKEYS>
AAADcfB8PAAAAAAAAAAAAAAAAAAAASAAAAAkSIEAAAAAAEAAAAAAGgAACAAADVSwgAMCCAAABgCIAiDSCAAAAAAgAAAICAEAAAgZFBYAIQAiUAAF4AAPsAPK7OzOgAAAAAAAAAAAAAAAAAAAAAAAAAAAAA==

> <PUBCHEM_IUPAC_INCHI>
InChI=1S/C41H60O11/c1-9-22(2)37-25(5)15-16-40(52-37)20-30-18-29(51-40)14-13-24(4)36(50-33-19-32(46-8)35(43)27(7)48-33)23(3)11-10-12-28-21-47-38-34(42)26(6)17-31(39(44)49-30)41(28,38)45/h10-13,15-17,22-23,25,27,29-38,42-43,45H,9,14,18-21H2,1-8H3/b11-10+,24-13+,28-12+/t22?,23-,25-,27-,29+,30-,31-,32-,33-,34+,35-,36-,37+,38+,40+,41+/m0/s1

> <PUBCHEM_IUPAC_INCHIKEY>
ZBVWYDMYMRLKIV-QRPTXGNISA-N

> <PUBCHEM_XLOGP3_AA>
3.4

> <PUBCHEM_EXACT_MASS>
728.413563

> <PUBCHEM_MOLECULAR_FORMULA>
C41H60O11

> <PUBCHEM_MOLECULAR_WEIGHT>
728.9085

> <PUBCHEM_OPENEYE_CAN_SMILES>
CCC(C)C1C(C=CC2(O1)CC3CC(O2)CC=C(C(C(C=CC=C4COC5C4(C(C=C(C5O)C)C(=O)O3)O)C)OC6CC(C(C(O6)C)O)OC)C)C

> <PUBCHEM_OPENEYE_ISO_SMILES>
CCC(C)[C@@H]1[C@H](C=C[C@@]2(O1)C[C@@H]3C[C@H](O2)C/C=C(/[C@H]([C@H](/C=C/C=C/4\CO[C@H]5[C@@]4([C@@H](C=C([C@H]5O)C)C(=O)O3)O)C)O[C@H]6C[C@@H]([C@H]([C@@H](O6)C)O)OC)\C)C

> <PUBCHEM_CACTVS_TPSA>
142

> <PUBCHEM_MONOISOTOPIC_WEIGHT>
728.413563

> <PUBCHEM_TOTAL_CHARGE>
0

> <PUBCHEM_HEAVY_ATOM_COUNT>
52

> <PUBCHEM_ATOM_DEF_STEREO_COUNT>
15

> <PUBCHEM_ATOM_UDEF_STEREO_COUNT>
1

> <PUBCHEM_BOND_DEF_STEREO_COUNT>
3

> <PUBCHEM_BOND_UDEF_STEREO_COUNT>
0

> <PUBCHEM_ISOTOPIC_ATOM_COUNT>
0

> <PUBCHEM_COMPONENT_COUNT>
1

> <PUBCHEM_CACTVS_TAUTO_COUNT>
1

> <PUBCHEM_COORDINATE_TYPE>
1
5
255

> <PUBCHEM_BONDANNOTATIONS>
46  10  5
47  11  6
13  53  6
14  54  5
16  55  6
21  61  6
22  28  6
26  35  5
28  67  3
15  3  6
40  50  6
48  51  5
12  5  6
18  6  5
38  8  6
44  8  6

$$$$

