5284529
  -OEChem-07051213033D

 44 46  0     1  0  0  0  0  0999 V2000
   -0.3163   -1.2046   -0.8508 S   0  0  0  0  0  0  0  0  0  0  0  0
   -1.9646    2.8723    0.7152 O   0  0  0  0  0  0  0  0  0  0  0  0
   -4.0983   -2.2318    0.1220 O   0  0  0  0  0  0  0  0  0  0  0  0
    2.4436    1.9312   -1.6684 O   0  0  0  0  0  0  0  0  0  0  0  0
   -4.3576    1.7480    0.5625 O   0  0  0  0  0  0  0  0  0  0  0  0
   -4.7834   -0.1763    1.7226 O   0  0  0  0  0  0  0  0  0  0  0  0
   -2.0480    0.7345   -0.2724 N   0  0  0  0  0  0  0  0  0  0  0  0
    0.9057    1.4826    0.0084 N   0  0  0  0  0  0  0  0  0  0  0  0
    4.4126    2.2679    0.1801 N   0  0  0  0  0  0  0  0  0  0  0  0
   -1.0552    0.3918   -1.2763 C   0  0  1  0  0  0  0  0  0  0  0  0
   -0.2940    1.6526   -0.8104 C   0  0  1  0  0  0  0  0  0  0  0  0
   -1.5741    1.9637    0.0204 C   0  0  0  0  0  0  0  0  0  0  0  0
   -3.0596   -0.0912    0.0880 C   0  0  0  0  0  0  0  0  0  0  0  0
   -1.9076   -2.1031   -0.9464 C   0  0  0  0  0  0  0  0  0  0  0  0
   -3.0481   -1.4014   -0.2333 C   0  0  0  0  0  0  0  0  0  0  0  0
    2.1958    1.6390   -0.4989 C   0  0  0  0  0  0  0  0  0  0  0  0
    3.2858    1.4115    0.5396 C   0  0  1  0  0  0  0  0  0  0  0  0
    3.6489   -0.0362    0.5380 C   0  0  0  0  0  0  0  0  0  0  0  0
   -4.1595    0.4557    0.8922 C   0  0  0  0  0  0  0  0  0  0  0  0
    4.1480   -0.5938   -0.7737 C   0  0  0  0  0  0  0  0  0  0  0  0
    3.5379   -0.7990    1.6402 C   0  0  0  0  0  0  0  0  0  0  0  0
    3.8914   -2.2578    1.6817 C   0  0  0  0  0  0  0  0  0  0  0  0
    4.5014   -2.0521   -0.7295 C   0  0  0  0  0  0  0  0  0  0  0  0
    4.3861   -2.8014    0.3753 C   0  0  0  0  0  0  0  0  0  0  0  0
   -4.6908   -2.8021   -1.0263 C   0  0  0  0  0  0  0  0  0  0  0  0
   -1.4431    0.4613   -2.2997 H   0  0  0  0  0  0  0  0  0  0  0  0
   -0.1445    2.3884   -1.6104 H   0  0  0  0  0  0  0  0  0  0  0  0
    0.8112    1.2246    0.9879 H   0  0  0  0  0  0  0  0  0  0  0  0
   -1.7402   -3.0891   -0.5006 H   0  0  0  0  0  0  0  0  0  0  0  0
   -2.1538   -2.2436   -2.0041 H   0  0  0  0  0  0  0  0  0  0  0  0
    2.9172    1.7364    1.5196 H   0  0  0  0  0  0  0  0  0  0  0  0
    5.0445   -0.0540   -1.0978 H   0  0  0  0  0  0  0  0  0  0  0  0
    3.3860   -0.4765   -1.5515 H   0  0  0  0  0  0  0  0  0  0  0  0
    3.1737   -0.3625    2.5667 H   0  0  0  0  0  0  0  0  0  0  0  0
    4.7400    2.0699   -0.7634 H   0  0  0  0  0  0  0  0  0  0  0  0
    5.1955    2.0987    0.8098 H   0  0  0  0  0  0  0  0  0  0  0  0
    3.0064   -2.8265    1.9889 H   0  0  0  0  0  0  0  0  0  0  0  0
    4.6631   -2.4123    2.4442 H   0  0  0  0  0  0  0  0  0  0  0  0
    4.8667   -2.5093   -1.6448 H   0  0  0  0  0  0  0  0  0  0  0  0
    4.6595   -3.8517    0.3368 H   0  0  0  0  0  0  0  0  0  0  0  0
   -5.6478   -3.2418   -0.7280 H   0  0  0  0  0  0  0  0  0  0  0  0
   -4.0741   -3.6099   -1.4338 H   0  0  0  0  0  0  0  0  0  0  0  0
   -4.8978   -2.0516   -1.7983 H   0  0  0  0  0  0  0  0  0  0  0  0
   -5.0865    2.1533    1.0791 H   0  0  0  0  0  0  0  0  0  0  0  0
  1 10  1  0  0  0  0
  1 14  1  0  0  0  0
  2 12  2  0  0  0  0
  3 15  1  0  0  0  0
  3 25  1  0  0  0  0
  4 16  2  0  0  0  0
  5 19  1  0  0  0  0
  5 44  1  0  0  0  0
  6 19  2  0  0  0  0
  7 10  1  0  0  0  0
  7 12  1  0  0  0  0
  7 13  1  0  0  0  0
  8 11  1  0  0  0  0
  8 16  1  0  0  0  0
  8 28  1  0  0  0  0
  9 17  1  0  0  0  0
  9 35  1  0  0  0  0
  9 36  1  0  0  0  0
 10 11  1  0  0  0  0
 10 26  1  0  0  0  0
 11 12  1  0  0  0  0
 11 27  1  0  0  0  0
 13 15  2  0  0  0  0
 13 19  1  0  0  0  0
 14 15  1  0  0  0  0
 14 29  1  0  0  0  0
 14 30  1  0  0  0  0
 16 17  1  0  0  0  0
 17 18  1  0  0  0  0
 17 31  1  0  0  0  0
 18 20  1  0  0  0  0
 18 21  2  0  0  0  0
 20 23  1  0  0  0  0
 20 32  1  0  0  0  0
 20 33  1  0  0  0  0
 21 22  1  0  0  0  0
 21 34  1  0  0  0  0
 22 24  1  0  0  0  0
 22 37  1  0  0  0  0
 22 38  1  0  0  0  0
 23 24  2  0  0  0  0
 23 39  1  0  0  0  0
 24 40  1  0  0  0  0
 25 41  1  0  0  0  0
 25 42  1  0  0  0  0
 25 43  1  0  0  0  0
M  END
> <PUBCHEM_COMPOUND_CID>
5284529

> <PUBCHEM_CONFORMER_RMSD>
0.8

> <PUBCHEM_CONFORMER_DIVERSEORDER>
1
9
10
23
16
3
28
4
14
18
6
21
8
19
24
2
12
25
27
22
13
20
26
17
5
29
15
7
11

> <PUBCHEM_MMFF94_PARTIAL_CHARGES>
32
1 -0.45
10 0.44
11 0.28
12 0.58
13 0.12
14 0.37
15 -0.06
16 0.57
17 0.47
18 -0.28
19 0.71
2 -0.57
20 0.28
21 -0.29
22 0.28
23 -0.29
24 -0.29
25 0.28
28 0.37
3 -0.36
34 0.15
35 0.36
36 0.36
39 0.15
4 -0.57
40 0.15
44 0.5
5 -0.65
6 -0.57
7 -0.39
8 -0.65
9 -0.99

> <PUBCHEM_EFFECTIVE_ROTOR_COUNT>
7

> <PUBCHEM_PHARMACOPHORE_FEATURES>
12
1 2 acceptor
1 3 acceptor
1 4 acceptor
1 5 acceptor
1 6 acceptor
1 8 donor
1 9 cation
1 9 donor
3 5 6 19 anion
4 7 10 11 12 rings
6 1 7 10 13 14 15 rings
6 18 20 21 22 23 24 rings

> <PUBCHEM_HEAVY_ATOM_COUNT>
25

> <PUBCHEM_ATOM_DEF_STEREO_COUNT>
3

> <PUBCHEM_ATOM_UDEF_STEREO_COUNT>
0

> <PUBCHEM_BOND_DEF_STEREO_COUNT>
0

> <PUBCHEM_BOND_UDEF_STEREO_COUNT>
0

> <PUBCHEM_ISOTOPIC_ATOM_COUNT>
0

> <PUBCHEM_COMPONENT_COUNT>
1

> <PUBCHEM_CACTVS_TAUTO_COUNT>
2

> <PUBCHEM_CONFORMER_ID>
0050A2B100000001

> <PUBCHEM_MMFF94_ENERGY>
57.0996

> <PUBCHEM_FEATURE_SELFOVERLAP>
61.22

> <PUBCHEM_SHAPE_FINGERPRINT>
10673678 19 7852757599049542867
10928967 22 17987800851119175842
11552529 35 17604433959915632335
12107183 9 18192426587787158785
12422481 6 18261381308793596331
12553582 1 18270971253558786342
12596599 1 18270127936545360338
12596602 18 17677324992367684640
12633257 1 18260544575627619515
12839892 36 18040151803995023183
12892183 10 18115312163463170992
13140716 1 18408036329895567567
13533116 47 18264493892946764871
13551218 46 18411694383870066467
13583140 156 17677349220188958992
13692114 37 17896604080252312781
14341114 176 18337103574870383386
14420673 8 18118677962267594142
14848178 96 7420943184199070274
150020 26 17532651450334118958
15537594 2 18271796934924538818
16110190 28 18336274556568775602
17349148 13 18260556649139424165
17492 89 18410296899916848774
17818456 19 18263356039840093025
17959699 21 9151173151430731220
1813 80 17632856404107487693
20291156 8 18342744061157740956
20775530 9 17415572166579453026
21033648 29 14996551889779375491
21421861 104 18411700968075965224
21703447 108 17609509220201712561
235170 7 14620793829510225418
23559900 14 17895457224529970956
23598288 3 18261120702577849421
2838139 119 4821824007246377753
3117164 225 18336541741540231849
3472631 163 10231496111370282043
460360 51 18343586235377382399
463206 1 17979081478939546238
5104073 3 18261110759675571499
56633871 153 18336546139650377387
6823239 73 17968081067578507902
7097593 13 18410296882784270588

> <PUBCHEM_SHAPE_MULTIPOLES>
474.05
11.27
3.45
1.38
0.01
0.48
-0.22
5.44
-2.74
0.29
0.22
0.28
0.24
-1.68

> <PUBCHEM_SHAPE_SELFOVERLAP>
994.554

> <PUBCHEM_SHAPE_VOLUME>
268.3

> <PUBCHEM_COORDINATE_TYPE>
2
5
10

$$$$

