47205618
  -OEChem-06241222593D

 28 28  0     0  0  0  0  0  0999 V2000
   -2.0906    0.3773    0.1890 O   0  0  0  0  0  0  0  0  0  0  0  0
   -4.0948   -1.3576   -0.7217 O   0  0  0  0  0  0  0  0  0  0  0  0
    3.8126   -1.2343    0.8467 O   0  0  0  0  0  0  0  0  0  0  0  0
    0.3822    1.7070   -1.3590 O   0  0  0  0  0  0  0  0  0  0  0  0
   -1.6968    2.6583    0.3952 O   0  0  0  0  0  0  0  0  0  0  0  0
    0.6600    0.3303    0.5488 N   0  0  0  0  0  0  0  0  0  0  0  0
    2.5304   -0.9923    1.3245 N   0  0  0  0  0  0  0  0  0  0  0  0
   -3.4535    0.5380    0.5922 C   0  0  0  0  0  0  0  0  0  0  0  0
   -4.1321   -0.8183    0.5940 C   0  0  0  0  0  0  0  0  0  0  0  0
    1.9792   -0.1652    0.4317 C   0  0  0  0  0  0  0  0  0  0  0  0
    3.9956   -0.5509   -0.3120 C   0  0  0  0  0  0  0  0  0  0  0  0
    2.8576    0.1463   -0.6206 C   0  0  0  0  0  0  0  0  0  0  0  0
    0.0145    1.1832   -0.3209 C   0  0  0  0  0  0  0  0  0  0  0  0
    5.3060   -0.6942   -0.9583 C   0  0  0  0  0  0  0  0  0  0  0  0
   -1.3711    1.5145    0.1455 C   0  0  0  0  0  0  0  0  0  0  0  0
   -4.6992   -2.6422   -0.7751 C   0  0  0  0  0  0  0  0  0  0  0  0
   -3.4914    0.9767    1.5955 H   0  0  0  0  0  0  0  0  0  0  0  0
   -3.9536    1.2028   -0.1217 H   0  0  0  0  0  0  0  0  0  0  0  0
   -5.1716   -0.7161    0.9244 H   0  0  0  0  0  0  0  0  0  0  0  0
   -3.6001   -1.4969    1.2708 H   0  0  0  0  0  0  0  0  0  0  0  0
    2.7129    0.7776   -1.4841 H   0  0  0  0  0  0  0  0  0  0  0  0
    0.1665    0.0044    1.3761 H   0  0  0  0  0  0  0  0  0  0  0  0
    6.1031   -0.3483   -0.2931 H   0  0  0  0  0  0  0  0  0  0  0  0
    5.4983   -1.7416   -1.2103 H   0  0  0  0  0  0  0  0  0  0  0  0
    5.3574   -0.1087   -1.8816 H   0  0  0  0  0  0  0  0  0  0  0  0
   -4.6465   -3.0049   -1.8051 H   0  0  0  0  0  0  0  0  0  0  0  0
   -5.7511   -2.5841   -0.4789 H   0  0  0  0  0  0  0  0  0  0  0  0
   -4.1639   -3.3455   -0.1299 H   0  0  0  0  0  0  0  0  0  0  0  0
  1  8  1  0  0  0  0
  1 15  1  0  0  0  0
  2  9  1  0  0  0  0
  2 16  1  0  0  0  0
  3  7  1  0  0  0  0
  3 11  1  0  0  0  0
  4 13  2  0  0  0  0
  5 15  2  0  0  0  0
  6 10  1  0  0  0  0
  6 13  1  0  0  0  0
  6 22  1  0  0  0  0
  7 10  2  0  0  0  0
  8  9  1  0  0  0  0
  8 17  1  0  0  0  0
  8 18  1  0  0  0  0
  9 19  1  0  0  0  0
  9 20  1  0  0  0  0
 10 12  1  0  0  0  0
 11 12  2  0  0  0  0
 11 14  1  0  0  0  0
 12 21  1  0  0  0  0
 13 15  1  0  0  0  0
 14 23  1  0  0  0  0
 14 24  1  0  0  0  0
 14 25  1  0  0  0  0
 16 26  1  0  0  0  0
 16 27  1  0  0  0  0
 16 28  1  0  0  0  0
M  END
> <PUBCHEM_COMPOUND_CID>
47205618

> <PUBCHEM_CONFORMER_RMSD>
0.8

> <PUBCHEM_CONFORMER_DIVERSEORDER>
1
50
32
42
41
16
47
12
46
13
26
40
45
38
31
39
2
36
29
6
44
8
35
49
53
19
22
34
25
4
27
17
5
54
23
11
48
52
24
15
33
51
3
55
7
37
43
21
20
10
14
18
28
30
9

> <PUBCHEM_MMFF94_PARTIAL_CHARGES>
18
1 -0.43
10 0.35
11 -0.04
12 -0.15
13 0.63
14 0.18
15 0.72
16 0.28
2 -0.56
21 0.15
22 0.37
3 -0.02
4 -0.57
5 -0.57
6 -0.49
7 -0.41
8 0.28
9 0.28

> <PUBCHEM_EFFECTIVE_ROTOR_COUNT>
7

> <PUBCHEM_PHARMACOPHORE_FEATURES>
5
1 2 acceptor
1 4 acceptor
1 5 acceptor
1 6 donor
5 3 7 10 11 12 rings

> <PUBCHEM_HEAVY_ATOM_COUNT>
16

> <PUBCHEM_ATOM_DEF_STEREO_COUNT>
0

> <PUBCHEM_ATOM_UDEF_STEREO_COUNT>
0

> <PUBCHEM_BOND_DEF_STEREO_COUNT>
0

> <PUBCHEM_BOND_UDEF_STEREO_COUNT>
0

> <PUBCHEM_ISOTOPIC_ATOM_COUNT>
0

> <PUBCHEM_COMPONENT_COUNT>
1

> <PUBCHEM_CACTVS_TAUTO_COUNT>
8

> <PUBCHEM_CONFORMER_ID>
02D04CF200000001

> <PUBCHEM_MMFF94_ENERGY>
22.6611

> <PUBCHEM_FEATURE_SELFOVERLAP>
25.374

> <PUBCHEM_SHAPE_FINGERPRINT>
10042902 136 18187925006799906583
11046707 91 18335140890827733555
11806522 49 18342736286956121068
12553582 1 18343865507020182155
12633257 1 15068900785874794703
14004511 7 7132425805347406960
14178342 30 17459166578818192451
1420 369 18262238807683623231
14576447 43 18201439164446435898
15501527 24 18059847347192991582
15880784 105 18040711442106341242
17834072 33 18412536609671499836
1798214 20 18201727223666020535
18186145 218 14333403475841489953
18915474 69 18341046324498685687
193927 3 18262512594558032871
200 152 17632573881327541696
20281475 54 18270121348002198602
20291156 8 18411140191201941643
20388580 30 18271527477382289333
20621476 21 17677596696742748870
20671657 53 17917709080834213293
20871999 31 17632580469854794789
21054139 6 18272932726658431626
21713013 43 16557901201029615459
23402539 116 18131347539974317810
23402655 69 17631731702596902860
23559900 14 18335148591324930553
351380 3 18341608205390593075
4028521 119 12679468594670017143
602551 16 18113620079745929222
603831 33 17988927811613128882
6430166 295 8214141837279971066

> <PUBCHEM_SHAPE_MULTIPOLES>
289.96
10.66
2.2
1.06
0.53
0.13
-0.02
-8.17
-1.42
-2.94
-0.39
0.41
-0.15
-1.07

> <PUBCHEM_SHAPE_SELFOVERLAP>
584.258

> <PUBCHEM_SHAPE_VOLUME>
168.4

> <PUBCHEM_COORDINATE_TYPE>
2
5
10

$$$$

