37783
  -OEChem-07051212483D

 76 79  0     1  0  0  0  0  0999 V2000
    2.7317    1.2245   -0.3194 O   0  0  0  0  0  0  0  0  0  0  0  0
    2.1463   -1.7790   -0.5515 O   0  0  0  0  0  0  0  0  0  0  0  0
   -0.4656    0.6831    1.6574 O   0  0  0  0  0  0  0  0  0  0  0  0
   -2.9838   -1.4027   -1.2046 O   0  0  0  0  0  0  0  0  0  0  0  0
    1.5953    2.1605    1.4571 O   0  0  0  0  0  0  0  0  0  0  0  0
   -5.5511   -1.9701    0.0582 O   0  0  0  0  0  0  0  0  0  0  0  0
   -5.0385    3.0833   -2.0760 O   0  0  0  0  0  0  0  0  0  0  0  0
    3.9758   -1.1066    0.6829 O   0  0  0  0  0  0  0  0  0  0  0  0
    0.3474    1.3782   -1.0327 C   0  0  1  0  0  0  0  0  0  0  0  0
    1.5361    0.5150   -0.7031 C   0  0  1  0  0  0  0  0  0  0  0  0
    1.1075    0.6760   -2.1339 C   0  0  0  0  0  0  0  0  0  0  0  0
   -1.0618    0.9093   -0.7127 C   0  0  1  0  0  0  0  0  0  0  0  0
    1.3553   -0.7587    0.0600 C   0  0  1  0  0  0  0  0  0  0  0  0
   -1.0667   -0.0266    0.5558 C   0  0  1  0  0  0  0  0  0  0  0  0
   -0.1174   -1.2351    0.2179 C   0  0  2  0  0  0  0  0  0  0  0  0
    0.4061   -0.4666   -2.7954 C   0  0  0  0  0  0  0  0  0  0  0  0
    1.9868    1.4118   -3.0886 C   0  0  0  0  0  0  0  0  0  0  0  0
   -2.5386   -0.3108    0.9948 C   0  0  1  0  0  0  0  0  0  0  0  0
   -2.0795    2.0342   -0.7126 C   0  0  0  0  0  0  0  0  0  0  0  0
   -3.5269   -0.6307   -0.1438 C   0  0  1  0  0  0  0  0  0  0  0  0
   -0.1193   -2.3875    1.2322 C   0  0  0  0  0  0  0  0  0  0  0  0
   -3.4220    1.9110   -0.7726 C   0  0  0  0  0  0  0  0  0  0  0  0
   -4.2242    0.6182   -0.7027 C   0  0  0  0  0  0  0  0  0  0  0  0
   -2.8410   -1.3537    2.0340 C   0  0  0  0  0  0  0  0  0  0  0  0
    2.6065    2.0110    0.7849 C   0  0  0  0  0  0  0  0  0  0  0  0
   -4.4890   -1.5884    0.5276 C   0  0  0  0  0  0  0  0  0  0  0  0
   -3.9507   -2.0666    1.8158 C   0  0  0  0  0  0  0  0  0  0  0  0
    3.4496   -1.8394   -0.1433 C   0  0  0  0  0  0  0  0  0  0  0  0
   -4.2770    3.1488   -0.8883 C   0  0  0  0  0  0  0  0  0  0  0  0
    3.9363    2.6796    1.0495 C   0  0  0  0  0  0  0  0  0  0  0  0
   -4.5906   -3.1090    2.6449 C   0  0  0  0  0  0  0  0  0  0  0  0
    4.1433   -2.9622   -0.8803 C   0  0  0  0  0  0  0  0  0  0  0  0
    3.8793    3.6055    2.2620 C   0  0  0  0  0  0  0  0  0  0  0  0
    5.6160   -3.0755   -0.4943 C   0  0  0  0  0  0  0  0  0  0  0  0
    5.2296    4.2466    2.5376 C   0  0  0  0  0  0  0  0  0  0  0  0
    6.2946   -4.2277   -1.2168 C   0  0  0  0  0  0  0  0  0  0  0  0
    0.4677    2.4536   -0.9634 H   0  0  0  0  0  0  0  0  0  0  0  0
   -1.4130    0.3030   -1.5436 H   0  0  0  0  0  0  0  0  0  0  0  0
    1.7169   -0.5959    1.0852 H   0  0  0  0  0  0  0  0  0  0  0  0
   -0.4969   -1.7211   -0.6781 H   0  0  0  0  0  0  0  0  0  0  0  0
   -0.5555   -0.1795   -3.2324 H   0  0  0  0  0  0  0  0  0  0  0  0
    0.9998   -0.7659   -3.6728 H   0  0  0  0  0  0  0  0  0  0  0  0
    0.3255   -1.4055   -2.2676 H   0  0  0  0  0  0  0  0  0  0  0  0
    2.8391    0.7928   -3.3886 H   0  0  0  0  0  0  0  0  0  0  0  0
    1.4314    1.6944   -3.9897 H   0  0  0  0  0  0  0  0  0  0  0  0
    2.3821    2.3363   -2.6539 H   0  0  0  0  0  0  0  0  0  0  0  0
   -2.8888    0.6009    1.5077 H   0  0  0  0  0  0  0  0  0  0  0  0
   -1.6671    3.0415   -0.7403 H   0  0  0  0  0  0  0  0  0  0  0  0
    0.6724   -3.1132    1.0148 H   0  0  0  0  0  0  0  0  0  0  0  0
   -1.0524   -2.9547    1.1905 H   0  0  0  0  0  0  0  0  0  0  0  0
    0.0388   -2.0256    2.2530 H   0  0  0  0  0  0  0  0  0  0  0  0
   -0.9208    1.5365    1.7545 H   0  0  0  0  0  0  0  0  0  0  0  0
   -5.0946    0.8226   -0.0630 H   0  0  0  0  0  0  0  0  0  0  0  0
   -4.6229    0.4113   -1.7042 H   0  0  0  0  0  0  0  0  0  0  0  0
   -2.2525   -1.4518    2.9374 H   0  0  0  0  0  0  0  0  0  0  0  0
   -3.6847   -1.5663   -1.8584 H   0  0  0  0  0  0  0  0  0  0  0  0
   -3.6779    4.0652   -0.9163 H   0  0  0  0  0  0  0  0  0  0  0  0
   -4.9564    3.2190   -0.0319 H   0  0  0  0  0  0  0  0  0  0  0  0
    4.2143    3.2547    0.1591 H   0  0  0  0  0  0  0  0  0  0  0  0
    4.6838    1.8959    1.2168 H   0  0  0  0  0  0  0  0  0  0  0  0
   -5.6048   -2.8082    2.9253 H   0  0  0  0  0  0  0  0  0  0  0  0
   -4.0261   -3.2903    3.5652 H   0  0  0  0  0  0  0  0  0  0  0  0
   -4.6495   -4.0531    2.0945 H   0  0  0  0  0  0  0  0  0  0  0  0
    4.0571   -2.7704   -1.9558 H   0  0  0  0  0  0  0  0  0  0  0  0
    3.6241   -3.8971   -0.6411 H   0  0  0  0  0  0  0  0  0  0  0  0
    3.5595    3.0433    3.1477 H   0  0  0  0  0  0  0  0  0  0  0  0
    3.1308    4.3900    2.0982 H   0  0  0  0  0  0  0  0  0  0  0  0
   -5.5920    3.8821   -2.1080 H   0  0  0  0  0  0  0  0  0  0  0  0
    5.7091   -3.2238    0.5883 H   0  0  0  0  0  0  0  0  0  0  0  0
    6.1371   -2.1402   -0.7313 H   0  0  0  0  0  0  0  0  0  0  0  0
    5.1655    4.9059    3.4089 H   0  0  0  0  0  0  0  0  0  0  0  0
    5.5616    4.8443    1.6827 H   0  0  0  0  0  0  0  0  0  0  0  0
    5.9904    3.4865    2.7421 H   0  0  0  0  0  0  0  0  0  0  0  0
    5.8178   -5.1814   -0.9692 H   0  0  0  0  0  0  0  0  0  0  0  0
    6.2487   -4.0916   -2.3020 H   0  0  0  0  0  0  0  0  0  0  0  0
    7.3482   -4.2893   -0.9264 H   0  0  0  0  0  0  0  0  0  0  0  0
  1 10  1  0  0  0  0
  1 25  1  0  0  0  0
  2 13  1  0  0  0  0
  2 28  1  0  0  0  0
  3 14  1  0  0  0  0
  3 52  1  0  0  0  0
  4 20  1  0  0  0  0
  4 56  1  0  0  0  0
  5 25  2  0  0  0  0
  6 26  2  0  0  0  0
  7 29  1  0  0  0  0
  7 68  1  0  0  0  0
  8 28  2  0  0  0  0
  9 10  1  0  0  0  0
  9 11  1  0  0  0  0
  9 12  1  0  0  0  0
  9 37  1  0  0  0  0
 10 11  1  0  0  0  0
 10 13  1  0  0  0  0
 11 16  1  0  0  0  0
 11 17  1  0  0  0  0
 12 14  1  0  0  0  0
 12 19  1  0  0  0  0
 12 38  1  0  0  0  0
 13 15  1  0  0  0  0
 13 39  1  0  0  0  0
 14 15  1  0  0  0  0
 14 18  1  0  0  0  0
 15 21  1  0  0  0  0
 15 40  1  0  0  0  0
 16 41  1  0  0  0  0
 16 42  1  0  0  0  0
 16 43  1  0  0  0  0
 17 44  1  0  0  0  0
 17 45  1  0  0  0  0
 17 46  1  0  0  0  0
 18 20  1  0  0  0  0
 18 24  1  0  0  0  0
 18 47  1  0  0  0  0
 19 22  2  0  0  0  0
 19 48  1  0  0  0  0
 20 23  1  0  0  0  0
 20 26  1  0  0  0  0
 21 49  1  0  0  0  0
 21 50  1  0  0  0  0
 21 51  1  0  0  0  0
 22 23  1  0  0  0  0
 22 29  1  0  0  0  0
 23 53  1  0  0  0  0
 23 54  1  0  0  0  0
 24 27  2  0  0  0  0
 24 55  1  0  0  0  0
 25 30  1  0  0  0  0
 26 27  1  0  0  0  0
 27 31  1  0  0  0  0
 28 32  1  0  0  0  0
 29 57  1  0  0  0  0
 29 58  1  0  0  0  0
 30 33  1  0  0  0  0
 30 59  1  0  0  0  0
 30 60  1  0  0  0  0
 31 61  1  0  0  0  0
 31 62  1  0  0  0  0
 31 63  1  0  0  0  0
 32 34  1  0  0  0  0
 32 64  1  0  0  0  0
 32 65  1  0  0  0  0
 33 35  1  0  0  0  0
 33 66  1  0  0  0  0
 33 67  1  0  0  0  0
 34 36  1  0  0  0  0
 34 69  1  0  0  0  0
 34 70  1  0  0  0  0
 35 71  1  0  0  0  0
 35 72  1  0  0  0  0
 35 73  1  0  0  0  0
 36 74  1  0  0  0  0
 36 75  1  0  0  0  0
 36 76  1  0  0  0  0
M  END
> <PUBCHEM_COMPOUND_CID>
37783

> <PUBCHEM_CONFORMER_RMSD>
1

> <PUBCHEM_CONFORMER_DIVERSEORDER>
1
7
6
2
4
5
3

> <PUBCHEM_MMFF94_PARTIAL_CHARGES>
36
1 -0.3
10 0.05
11 -0.19
12 0.23
13 0.38
14 0.28
16 0.09
17 0.09
18 0.14
19 -0.29
2 -0.43
20 0.34
22 -0.28
23 0.14
24 -0.29
25 0.66
26 0.49
27 -0.12
28 0.66
29 0.42
3 -0.68
30 0.06
31 0.14
32 0.06
37 0.1
4 -0.68
48 0.15
5 -0.57
52 0.4
55 0.15
56 0.4
6 -0.57
68 0.4
7 -0.68
8 -0.57
9 -0.19

> <PUBCHEM_EFFECTIVE_ROTOR_COUNT>
9.8

> <PUBCHEM_PHARMACOPHORE_FEATURES>
15
1 3 acceptor
1 3 donor
1 35 hydrophobe
1 36 hydrophobe
1 4 acceptor
1 4 donor
1 5 acceptor
1 6 acceptor
1 7 acceptor
1 7 donor
1 8 acceptor
3 11 16 17 hydrophobe
5 18 20 24 26 27 rings
7 12 14 18 19 20 22 23 rings
7 9 10 11 12 13 14 15 rings

> <PUBCHEM_HEAVY_ATOM_COUNT>
36

> <PUBCHEM_ATOM_DEF_STEREO_COUNT>
8

> <PUBCHEM_ATOM_UDEF_STEREO_COUNT>
0

> <PUBCHEM_BOND_DEF_STEREO_COUNT>
0

> <PUBCHEM_BOND_UDEF_STEREO_COUNT>
0

> <PUBCHEM_ISOTOPIC_ATOM_COUNT>
0

> <PUBCHEM_COMPONENT_COUNT>
1

> <PUBCHEM_CACTVS_TAUTO_COUNT>
3

> <PUBCHEM_CONFORMER_ID>
0000939700000001

> <PUBCHEM_MMFF94_ENERGY>
101.4202

> <PUBCHEM_FEATURE_SELFOVERLAP>
76.166

> <PUBCHEM_SHAPE_FINGERPRINT>
10940486 97 17560221648174994239
11135609 12 17774703304269763937
11578080 2 18333450924577277209
12128747 34 18339368568787205004
12422481 6 18057343699329785208
12553582 1 17767948858728374007
12788726 201 17272839910669746265
13140716 1 18200043952688725393
13540713 4 18412830183254533089
13583140 156 18334017172442771020
14178342 30 17703518735475851049
14790565 3 17194604529972725813
14955137 171 18042693978268379414
15064986 96 18263664934673628840
15131766 46 17387698198153214457
15219462 58 18046594890372214936
15448158 91 18337090324633850079
17349148 13 17488747744635122253
17492 89 18059275583687740383
17913733 40 18042977471605776656
17980427 23 17631748044926885293
18393751 57 17686064894169787560
20600515 1 17905020892917326556
21033648 29 18270408178471253369
22149856 69 18129647696285556529
22182313 1 18272091560932776323
22393880 68 18201159957112347595
23557571 272 18130792201130381993
23559900 14 18273492385875055023
244849 19 18410579478731335336
4015057 19 18115606961813796189
469060 322 17761216514461026407
5171179 24 18409732880563653874
6669772 16 17824538574900527572

> <PUBCHEM_SHAPE_MULTIPOLES>
693.91
11.9
5.07
2.61
2.85
0.74
-0.11
-4.83
2
6.44
1.84
0.45
1.23
7.44

> <PUBCHEM_SHAPE_SELFOVERLAP>
1467.972

> <PUBCHEM_SHAPE_VOLUME>
384.4

> <PUBCHEM_COORDINATE_TYPE>
2
5
10

$$$$

