439514
  -OEChem-07051212463D

 43 45  0     1  0  0  0  0  0999 V2000
    1.7207   -0.0541    0.6138 O   0  0  0  0  0  0  0  0  0  0  0  0
    0.6871    1.1277   -1.1122 O   0  0  0  0  0  0  0  0  0  0  0  0
    5.3315   -0.0084   -1.3427 O   0  0  0  0  0  0  0  0  0  0  0  0
    4.8940   -1.8706    0.8244 O   0  0  0  0  0  0  0  0  0  0  0  0
    2.8301    0.4485   -2.8310 O   0  0  0  0  0  0  0  0  0  0  0  0
    1.2133   -1.5207    2.8826 O   0  0  0  0  0  0  0  0  0  0  0  0
   -0.4061    3.0049    0.6177 O   0  0  0  0  0  0  0  0  0  0  0  0
   -3.3657   -1.3995   -0.9752 O   0  0  0  0  0  0  0  0  0  0  0  0
   -5.3136   -2.6020   -0.9019 O   0  0  0  0  0  0  0  0  0  0  0  0
    4.0499   -0.5357   -0.9962 C   0  0  1  0  0  0  0  0  0  0  0  0
    4.0313   -0.7799    0.5128 C   0  0  1  0  0  0  0  0  0  0  0  0
    2.9627    0.4561   -1.4098 C   0  0  2  0  0  0  0  0  0  0  0  0
    2.6144   -1.1021    0.9934 C   0  0  1  0  0  0  0  0  0  0  0  0
    1.6105    0.0849   -0.8009 C   0  0  1  0  0  0  0  0  0  0  0  0
    2.5495   -1.2345    2.5117 C   0  0  0  0  0  0  0  0  0  0  0  0
   -0.5885    0.9766   -0.6418 C   0  0  0  0  0  0  0  0  0  0  0  0
   -1.1339    1.9211    0.2263 C   0  0  0  0  0  0  0  0  0  0  0  0
   -1.3332   -0.1278   -1.0402 C   0  0  0  0  0  0  0  0  0  0  0  0
   -2.6318   -0.2712   -0.5561 C   0  0  0  0  0  0  0  0  0  0  0  0
   -3.1971    0.6594    0.3118 C   0  0  0  0  0  0  0  0  0  0  0  0
   -2.4382    1.7642    0.7043 C   0  0  0  0  0  0  0  0  0  0  0  0
   -4.5569    0.4475    0.7776 C   0  0  0  0  0  0  0  0  0  0  0  0
   -5.2453   -0.6239    0.3765 C   0  0  0  0  0  0  0  0  0  0  0  0
   -4.6684   -1.6235   -0.5417 C   0  0  0  0  0  0  0  0  0  0  0  0
    0.3834    2.8633    1.7966 C   0  0  0  0  0  0  0  0  0  0  0  0
    3.9432   -1.4776   -1.5483 H   0  0  0  0  0  0  0  0  0  0  0  0
    4.4217    0.1053    1.0299 H   0  0  0  0  0  0  0  0  0  0  0  0
    3.2489    1.4751   -1.1234 H   0  0  0  0  0  0  0  0  0  0  0  0
    2.2537   -2.0430    0.5556 H   0  0  0  0  0  0  0  0  0  0  0  0
    1.2573   -0.8568   -1.2411 H   0  0  0  0  0  0  0  0  0  0  0  0
    3.1892   -2.0434    2.8757 H   0  0  0  0  0  0  0  0  0  0  0  0
    2.8412   -0.3028    3.0078 H   0  0  0  0  0  0  0  0  0  0  0  0
    5.9994   -0.6542   -1.0552 H   0  0  0  0  0  0  0  0  0  0  0  0
    4.5512   -2.6623    0.3757 H   0  0  0  0  0  0  0  0  0  0  0  0
    2.5774   -0.4494   -3.1058 H   0  0  0  0  0  0  0  0  0  0  0  0
    0.6543   -0.7977    2.5499 H   0  0  0  0  0  0  0  0  0  0  0  0
   -0.9314   -0.8633   -1.7301 H   0  0  0  0  0  0  0  0  0  0  0  0
   -2.8550    2.5071    1.3808 H   0  0  0  0  0  0  0  0  0  0  0  0
   -5.0008    1.1703    1.4533 H   0  0  0  0  0  0  0  0  0  0  0  0
   -6.2607   -0.7890    0.7200 H   0  0  0  0  0  0  0  0  0  0  0  0
    1.3505    2.4212    1.5435 H   0  0  0  0  0  0  0  0  0  0  0  0
   -0.1221    2.2534    2.5530 H   0  0  0  0  0  0  0  0  0  0  0  0
    0.5576    3.8596    2.2124 H   0  0  0  0  0  0  0  0  0  0  0  0
  1 13  1  0  0  0  0
  1 14  1  0  0  0  0
  2 14  1  0  0  0  0
  2 16  1  0  0  0  0
  3 10  1  0  0  0  0
  3 33  1  0  0  0  0
  4 11  1  0  0  0  0
  4 34  1  0  0  0  0
  5 12  1  0  0  0  0
  5 35  1  0  0  0  0
  6 15  1  0  0  0  0
  6 36  1  0  0  0  0
  7 17  1  0  0  0  0
  7 25  1  0  0  0  0
  8 19  1  0  0  0  0
  8 24  1  0  0  0  0
  9 24  2  0  0  0  0
 10 11  1  0  0  0  0
 10 12  1  0  0  0  0
 10 26  1  0  0  0  0
 11 13  1  0  0  0  0
 11 27  1  0  0  0  0
 12 14  1  0  0  0  0
 12 28  1  0  0  0  0
 13 15  1  0  0  0  0
 13 29  1  0  0  0  0
 14 30  1  0  0  0  0
 15 31  1  0  0  0  0
 15 32  1  0  0  0  0
 16 17  2  0  0  0  0
 16 18  1  0  0  0  0
 17 21  1  0  0  0  0
 18 19  2  0  0  0  0
 18 37  1  0  0  0  0
 19 20  1  0  0  0  0
 20 21  2  0  0  0  0
 20 22  1  0  0  0  0
 21 38  1  0  0  0  0
 22 23  2  0  0  0  0
 22 39  1  0  0  0  0
 23 24  1  0  0  0  0
 23 40  1  0  0  0  0
 25 41  1  0  0  0  0
 25 42  1  0  0  0  0
 25 43  1  0  0  0  0
M  END
> <PUBCHEM_COMPOUND_CID>
439514

> <PUBCHEM_CONFORMER_RMSD>
0.8

> <PUBCHEM_CONFORMER_DIVERSEORDER>
1
83
65
84
70
44
51
86
89
57
23
74
27
85
90
58
20
28
67
68
19
33
54
3
80
56
73
7
91
21
87
81
35
79
78
75
25
59
10
13
64
50
9
71
62
41
92
39
2
53
38
5
17
43
52
6
60
8
72
36
66
14
48
4
88
49
18
29
63
55
30
12
47
16
69
34
42
15
37
32
45
46
24
40
77
82
76
11
26
61
22
31

> <PUBCHEM_MMFF94_PARTIAL_CHARGES>
33
1 -0.56
10 0.28
11 0.28
12 0.28
13 0.28
14 0.56
15 0.28
16 0.08
17 0.08
18 -0.15
19 0.08
2 -0.36
20 0.03
21 -0.15
22 -0.18
23 -0.14
24 0.71
25 0.28
3 -0.68
33 0.4
34 0.4
35 0.4
36 0.4
37 0.15
38 0.15
39 0.15
4 -0.68
40 0.15
5 -0.68
6 -0.68
7 -0.36
8 -0.23
9 -0.57

> <PUBCHEM_EFFECTIVE_ROTOR_COUNT>
5.2

> <PUBCHEM_PHARMACOPHORE_FEATURES>
15
1 1 acceptor
1 2 acceptor
1 3 acceptor
1 3 donor
1 4 acceptor
1 4 donor
1 5 acceptor
1 5 donor
1 6 acceptor
1 6 donor
1 7 acceptor
1 9 acceptor
6 1 10 11 12 13 14 rings
6 16 17 18 19 20 21 rings
6 8 19 20 22 23 24 rings

> <PUBCHEM_HEAVY_ATOM_COUNT>
25

> <PUBCHEM_ATOM_DEF_STEREO_COUNT>
5

> <PUBCHEM_ATOM_UDEF_STEREO_COUNT>
0

> <PUBCHEM_BOND_DEF_STEREO_COUNT>
0

> <PUBCHEM_BOND_UDEF_STEREO_COUNT>
0

> <PUBCHEM_ISOTOPIC_ATOM_COUNT>
0

> <PUBCHEM_COMPONENT_COUNT>
1

> <PUBCHEM_CACTVS_TAUTO_COUNT>
1

> <PUBCHEM_CONFORMER_ID>
0006B4DA00000001

> <PUBCHEM_MMFF94_ENERGY>
94.6476

> <PUBCHEM_FEATURE_SELFOVERLAP>
76.209

> <PUBCHEM_SHAPE_FINGERPRINT>
11045977 3 16225765225109496239
11370993 144 15574981923385145143
11545043 162 17312818273704319855
11578080 2 18057068915105896820
11582403 64 15120980154546005516
11725454 13 14117516485209612544
11796584 16 18343864412130777047
12156800 1 5109802732400365368
12236239 1 18272925055049872940
12553582 1 18335990809126642679
12633257 1 15357709586356562318
12788726 201 18340196514080842217
13009979 54 17983310505924028050
13140716 1 17967807194857505881
13911987 19 16270491124781347806
14251757 17 15051735317583847201
14251764 30 17894342302670501078
14787075 74 18341896243177604344
15081414 286 13840271390525458082
151778 21 15648202676039327530
15183329 4 18130240324188141303
15375462 189 18272370879973015601
15537594 2 18272644654390057747
16988056 13 15395091542908748898
17138139 8 17986110708162557955
1813 80 18259984851363656981
18186145 218 13830127304315291749
18222031 100 17895203168888046341
18785283 64 15936988327048503802
200 152 17703785942128131661
20028762 73 17917153905188985762
20511986 3 18130794507280211765
20600515 1 17968373562777252537
20645477 70 16271922718484257336
21033648 29 16081371899177986323
22950370 63 18334290972233568359
2297311 6 17822837775955878476
23366157 5 18121217572177046845
23557571 272 17531797082216637868
23559900 14 17894911794122793025
23596394 208 15698005149387110498
238 59 16056876957522217626
3411729 13 17897451579461650744
351380 3 18343581841752782883
5104073 3 17679008315565446259
602551 16 18040999535490771070
621550 5 16516506911409803060
6823239 73 17967251970600580528
7970288 3 18408610244811643391

> <PUBCHEM_SHAPE_MULTIPOLES>
461.66
10.79
2.43
2.09
2.88
1.31
-0.71
-7.31
0.98
1.86
-0.79
-2.78
-0.43
-1.54

> <PUBCHEM_SHAPE_SELFOVERLAP>
989.257

> <PUBCHEM_SHAPE_VOLUME>
252.8

> <PUBCHEM_COORDINATE_TYPE>
2
5
10

$$$$

