443123
  -OEChem-07051213013D

 42 44  0     0  0  0  0  0  0999 V2000
    1.6616   -0.8538    0.1085 O   0  0  0  0  0  0  0  0  0  0  0  0
   -2.4136    1.7004    0.6491 O   0  0  0  0  0  0  0  0  0  0  0  0
   -2.4891   -3.0708    0.6665 O   0  0  0  0  0  0  0  0  0  0  0  0
   -0.0820    2.8210    0.3421 O   0  0  0  0  0  0  0  0  0  0  0  0
   -2.4578   -0.6727    0.6587 C   0  0  0  0  0  0  0  0  0  0  0  0
   -0.3546    0.4740    0.3762 C   0  0  0  0  0  0  0  0  0  0  0  0
   -1.7382    0.5190    0.5613 C   0  0  0  0  0  0  0  0  0  0  0  0
    0.3056   -0.7505    0.2891 C   0  0  0  0  0  0  0  0  0  0  0  0
   -3.9400   -0.6403    0.8581 C   0  0  0  0  0  0  0  0  0  0  0  0
   -1.7984   -1.8996    0.5720 C   0  0  0  0  0  0  0  0  0  0  0  0
   -0.4161   -1.9402    0.3873 C   0  0  0  0  0  0  0  0  0  0  0  0
    0.4312    1.7129    0.2713 C   0  0  0  0  0  0  0  0  0  0  0  0
    2.4044    0.3122    0.0006 C   0  0  0  0  0  0  0  0  0  0  0  0
   -4.7042   -0.6301   -0.4413 C   0  0  0  0  0  0  0  0  0  0  0  0
    1.8858    1.5482    0.0751 C   0  0  0  0  0  0  0  0  0  0  0  0
    3.8518    0.0864   -0.1854 C   0  0  0  0  0  0  0  0  0  0  0  0
   -5.5409    0.3182   -0.9044 C   0  0  0  0  0  0  0  0  0  0  0  0
    4.7758    1.0089    0.3121 C   0  0  0  0  0  0  0  0  0  0  0  0
    4.3042   -1.0509   -0.8591 C   0  0  0  0  0  0  0  0  0  0  0  0
   -6.2732    0.2641   -2.2151 C   0  0  0  0  0  0  0  0  0  0  0  0
   -5.8178    1.5536   -0.0894 C   0  0  0  0  0  0  0  0  0  0  0  0
    6.1431    0.7955    0.1369 C   0  0  0  0  0  0  0  0  0  0  0  0
    5.6714   -1.2644   -1.0341 C   0  0  0  0  0  0  0  0  0  0  0  0
    6.5909   -0.3411   -0.5362 C   0  0  0  0  0  0  0  0  0  0  0  0
   -4.2792   -1.4934    1.4589 H   0  0  0  0  0  0  0  0  0  0  0  0
   -4.1860    0.2104    1.4999 H   0  0  0  0  0  0  0  0  0  0  0  0
    0.0958   -2.8970    0.3201 H   0  0  0  0  0  0  0  0  0  0  0  0
   -4.5562   -1.5085   -1.0688 H   0  0  0  0  0  0  0  0  0  0  0  0
    2.4667    2.4580   -0.0218 H   0  0  0  0  0  0  0  0  0  0  0  0
   -1.8093    2.4517    0.5532 H   0  0  0  0  0  0  0  0  0  0  0  0
    4.4687    1.8951    0.8610 H   0  0  0  0  0  0  0  0  0  0  0  0
    3.6098   -1.7827   -1.2648 H   0  0  0  0  0  0  0  0  0  0  0  0
   -3.4162   -2.9449    0.4122 H   0  0  0  0  0  0  0  0  0  0  0  0
   -6.0201   -0.6389   -2.7803 H   0  0  0  0  0  0  0  0  0  0  0  0
   -7.3555    0.2630   -2.0504 H   0  0  0  0  0  0  0  0  0  0  0  0
   -6.0121    1.1292   -2.8331 H   0  0  0  0  0  0  0  0  0  0  0  0
   -5.7398    1.4029    0.9891 H   0  0  0  0  0  0  0  0  0  0  0  0
   -5.1437    2.3623   -0.3890 H   0  0  0  0  0  0  0  0  0  0  0  0
   -6.8452    1.8956   -0.2613 H   0  0  0  0  0  0  0  0  0  0  0  0
    6.8597    1.5115    0.5288 H   0  0  0  0  0  0  0  0  0  0  0  0
    6.0205   -2.1486   -1.5596 H   0  0  0  0  0  0  0  0  0  0  0  0
    7.6555   -0.5077   -0.6718 H   0  0  0  0  0  0  0  0  0  0  0  0
  1  8  1  0  0  0  0
  1 13  1  0  0  0  0
  2  7  1  0  0  0  0
  2 30  1  0  0  0  0
  3 10  1  0  0  0  0
  3 33  1  0  0  0  0
  4 12  2  0  0  0  0
  5  7  2  0  0  0  0
  5  9  1  0  0  0  0
  5 10  1  0  0  0  0
  6  7  1  0  0  0  0
  6  8  2  0  0  0  0
  6 12  1  0  0  0  0
  8 11  1  0  0  0  0
  9 14  1  0  0  0  0
  9 25  1  0  0  0  0
  9 26  1  0  0  0  0
 10 11  2  0  0  0  0
 11 27  1  0  0  0  0
 12 15  1  0  0  0  0
 13 15  2  0  0  0  0
 13 16  1  0  0  0  0
 14 17  2  0  0  0  0
 14 28  1  0  0  0  0
 15 29  1  0  0  0  0
 16 18  2  0  0  0  0
 16 19  1  0  0  0  0
 17 20  1  0  0  0  0
 17 21  1  0  0  0  0
 18 22  1  0  0  0  0
 18 31  1  0  0  0  0
 19 23  2  0  0  0  0
 19 32  1  0  0  0  0
 20 34  1  0  0  0  0
 20 35  1  0  0  0  0
 20 36  1  0  0  0  0
 21 37  1  0  0  0  0
 21 38  1  0  0  0  0
 21 39  1  0  0  0  0
 22 24  2  0  0  0  0
 22 40  1  0  0  0  0
 23 24  1  0  0  0  0
 23 41  1  0  0  0  0
 24 42  1  0  0  0  0
M  END
> <PUBCHEM_COMPOUND_CID>
443123

> <PUBCHEM_CONFORMER_RMSD>
0.6

> <PUBCHEM_CONFORMER_DIVERSEORDER>
3
8
13
14
11
10
16
2
5
15
4
6
12
1
18
9
7
17

> <PUBCHEM_MMFF94_PARTIAL_CHARGES>
34
1 -0.16
10 0.08
11 -0.15
12 0.47
13 0.05
14 -0.29
15 -0.14
16 0.03
17 -0.28
18 -0.15
19 -0.15
2 -0.53
20 0.14
21 0.14
22 -0.15
23 -0.15
24 -0.15
27 0.15
28 0.15
29 0.15
3 -0.53
30 0.45
31 0.15
32 0.15
33 0.45
4 -0.57
40 0.15
41 0.15
42 0.15
5 -0.14
6 0.09
7 0.08
8 0.08
9 0.28

> <PUBCHEM_EFFECTIVE_ROTOR_COUNT>
3

> <PUBCHEM_PHARMACOPHORE_FEATURES>
8
1 1 acceptor
1 2 donor
1 3 donor
1 4 acceptor
3 17 20 21 hydrophobe
6 1 6 8 12 13 15 rings
6 16 18 19 22 23 24 rings
6 5 6 7 8 10 11 rings

> <PUBCHEM_HEAVY_ATOM_COUNT>
24

> <PUBCHEM_ATOM_DEF_STEREO_COUNT>
0

> <PUBCHEM_ATOM_UDEF_STEREO_COUNT>
0

> <PUBCHEM_BOND_DEF_STEREO_COUNT>
0

> <PUBCHEM_BOND_UDEF_STEREO_COUNT>
0

> <PUBCHEM_ISOTOPIC_ATOM_COUNT>
0

> <PUBCHEM_COMPONENT_COUNT>
1

> <PUBCHEM_CACTVS_TAUTO_COUNT>
12

> <PUBCHEM_CONFORMER_ID>
0006C2F300000003

> <PUBCHEM_MMFF94_ENERGY>
70.6266

> <PUBCHEM_FEATURE_SELFOVERLAP>
40.623

> <PUBCHEM_SHAPE_FINGERPRINT>
10 15 18187092720660208376
10165383 225 17988647424291766351
10693767 8 18114755926829068343
10835480 77 18338520725337554672
10906281 52 18263062418737696833
11315181 36 17749383746210234640
11796584 16 18202000993666691890
12011746 2 18410857667767738733
12236239 1 5184353997435101898
12516196 113 17894630344778625960
12555020 224 18408604747458505047
12596602 18 13840261516042300950
12670543 26 18410575114891412983
12788726 201 18337113478706597176
13540713 4 18123756348893538411
13862211 1 18408603673648018314
14251752 14 17704079516185736684
14856354 85 15410603766928415459
15099037 51 18412825768128132609
15183329 4 18343026613928610813
15196674 1 18266734693380405554
17980427 23 17168688778902640601
18769570 83 16200155421460102573
19141452 34 18114173095492696806
19958102 18 18200595916089443134
200 152 17603585223122892425
21029758 11 18333449833122561025
21236236 1 18261387901315539001
21267235 1 18338782451948727810
21279426 13 18412262813568637631
21307412 95 18261940925594492302
21521239 73 17968391073806687863
21637258 2 15502668104509600677
21859007 373 17988099840951426988
22122407 14 15123212369055269684
2215653 11 18333448738222041102
22393880 68 18340782438104278391
23402539 116 18259983786290628829
23559900 14 18335704884305623688
23569914 152 17254005662674311167
3004659 81 18273493460429281564
3009799 131 18411141333172716549
335352 9 18411133619828021949
34934 24 18413111653867977682
3759504 43 17346876724348260827
4015057 19 18041563525148018881
4058900 60 17559958891103518051
484989 97 18269557127419582667
5104073 3 18333724737653494386
5283173 99 18340771536775960132
542803 24 14477243743245117890
6138700 20 18408882974975696767

> <PUBCHEM_SHAPE_MULTIPOLES>
470.43
15.64
2.23
1.09
4.41
0.23
0.49
-0.94
6.85
-0.92
-0.49
-1.33
0.11
1.13

> <PUBCHEM_SHAPE_SELFOVERLAP>
1028.637

> <PUBCHEM_SHAPE_VOLUME>
254.5

> <PUBCHEM_COORDINATE_TYPE>
2
5
10

$$$$

