5926352
  -OEChem-07051213063D

 32 33  0     0  0  0  0  0  0999 V2000
   -2.2945   -2.5240   -0.2269 O   0  0  0  0  0  0  0  0  0  0  0  0
    4.6022   -0.8269   -0.0055 N   0  0  0  0  0  0  0  0  0  0  0  0
    0.7109    0.4904    0.1392 C   0  0  0  0  0  0  0  0  0  0  0  0
    0.4205    1.9610    0.3438 C   0  0  0  0  0  0  0  0  0  0  0  0
    1.9838    0.0595    0.0922 C   0  0  0  0  0  0  0  0  0  0  0  0
   -0.3778   -0.4710    0.0219 C   0  0  0  0  0  0  0  0  0  0  0  0
   -1.6908   -0.2116    0.0485 C   0  0  0  0  0  0  0  0  0  0  0  0
    0.3229    2.7290   -0.9687 C   0  0  0  0  0  0  0  0  0  0  0  0
    3.0997    1.0120    0.2085 C   0  0  0  0  0  0  0  0  0  0  0  0
    2.2822   -1.3716   -0.0767 C   0  0  0  0  0  0  0  0  0  0  0  0
   -2.6485   -1.3584   -0.0899 C   0  0  0  0  0  0  0  0  0  0  0  0
   -2.2188    1.1285    0.2056 C   0  0  0  0  0  0  0  0  0  0  0  0
    4.3502    0.5174    0.1533 C   0  0  0  0  0  0  0  0  0  0  0  0
    3.5765   -1.7386   -0.1165 C   0  0  0  0  0  0  0  0  0  0  0  0
   -4.0961   -1.0092   -0.0532 C   0  0  0  0  0  0  0  0  0  0  0  0
   -3.5400    1.3490    0.2280 C   0  0  0  0  0  0  0  0  0  0  0  0
   -4.4823    0.2644    0.0965 C   0  0  0  0  0  0  0  0  0  0  0  0
   -0.3105    2.1604    1.1305 H   0  0  0  0  0  0  0  0  0  0  0  0
    1.2424    2.4431    0.8852 H   0  0  0  0  0  0  0  0  0  0  0  0
   -0.1459   -1.5171   -0.1042 H   0  0  0  0  0  0  0  0  0  0  0  0
    0.0449    3.7699   -0.7724 H   0  0  0  0  0  0  0  0  0  0  0  0
    1.2841    2.7417   -1.4940 H   0  0  0  0  0  0  0  0  0  0  0  0
   -0.4162    2.3047   -1.6554 H   0  0  0  0  0  0  0  0  0  0  0  0
    3.0008    2.0840    0.2872 H   0  0  0  0  0  0  0  0  0  0  0  0
    1.5659   -2.1715   -0.1735 H   0  0  0  0  0  0  0  0  0  0  0  0
   -1.7330    2.0720    0.1319 H   0  0  0  0  0  0  0  0  0  0  0  0
    5.2371    1.1354    0.2107 H   0  0  0  0  0  0  0  0  0  0  0  0
    3.9007   -2.7643   -0.2377 H   0  0  0  0  0  0  0  0  0  0  0  0
    5.5601   -1.1504   -0.0468 H   0  0  0  0  0  0  0  0  0  0  0  0
   -4.8168   -1.8125   -0.1527 H   0  0  0  0  0  0  0  0  0  0  0  0
   -3.9409    2.3567    0.2732 H   0  0  0  0  0  0  0  0  0  0  0  0
   -5.5376    0.5159    0.1176 H   0  0  0  0  0  0  0  0  0  0  0  0
  1 11  2  0  0  0  0
  2 13  1  0  0  0  0
  2 14  1  0  0  0  0
  2 29  1  0  0  0  0
  3  4  1  0  0  0  0
  3  5  2  0  0  0  0
  3  6  1  0  0  0  0
  4  8  1  0  0  0  0
  4 18  1  0  0  0  0
  4 19  1  0  0  0  0
  5  9  1  0  0  0  0
  5 10  1  0  0  0  0
  6  7  2  0  0  0  0
  6 20  1  0  0  0  0
  7 11  1  0  0  0  0
  7 12  1  0  0  0  0
  8 21  1  0  0  0  0
  8 22  1  0  0  0  0
  8 23  1  0  0  0  0
  9 13  2  0  0  0  0
  9 24  1  0  0  0  0
 10 14  2  0  0  0  0
 10 25  1  0  0  0  0
 11 15  1  0  0  0  0
 12 16  2  0  0  0  0
 12 26  1  0  0  0  0
 13 27  1  0  0  0  0
 14 28  1  0  0  0  0
 15 17  2  0  0  0  0
 15 30  1  0  0  0  0
 16 17  1  0  0  0  0
 16 31  1  0  0  0  0
 17 32  1  0  0  0  0
M  END
> <PUBCHEM_COMPOUND_CID>
5926352

> <PUBCHEM_CONFORMER_RMSD>
0.6

> <PUBCHEM_CONFORMER_DIVERSEORDER>
1
2
3

> <PUBCHEM_MMFF94_PARTIAL_CHARGES>
25
1 -0.57
10 -0.15
11 0.54
12 -0.15
13 -0.05
14 -0.05
15 -0.14
16 -0.15
17 -0.15
2 -0.6
20 0.15
24 0.15
25 0.15
26 0.15
27 0.15
28 0.15
29 0.4
3 -0.14
30 0.15
31 0.15
32 0.15
4 0.14
6 -0.15
7 0.01
9 -0.15

> <PUBCHEM_EFFECTIVE_ROTOR_COUNT>
2.2

> <PUBCHEM_PHARMACOPHORE_FEATURES>
6
1 1 acceptor
1 2 cation
1 2 donor
1 8 hydrophobe
6 2 5 9 10 13 14 rings
6 7 11 12 15 16 17 rings

> <PUBCHEM_HEAVY_ATOM_COUNT>
17

> <PUBCHEM_ATOM_DEF_STEREO_COUNT>
0

> <PUBCHEM_ATOM_UDEF_STEREO_COUNT>
0

> <PUBCHEM_BOND_DEF_STEREO_COUNT>
1

> <PUBCHEM_BOND_UDEF_STEREO_COUNT>
0

> <PUBCHEM_ISOTOPIC_ATOM_COUNT>
0

> <PUBCHEM_COMPONENT_COUNT>
1

> <PUBCHEM_CACTVS_TAUTO_COUNT>
1

> <PUBCHEM_CONFORMER_ID>
005A6DD000000001

> <PUBCHEM_MMFF94_ENERGY>
81.8984

> <PUBCHEM_FEATURE_SELFOVERLAP>
30.446

> <PUBCHEM_SHAPE_FINGERPRINT>
10616163 171 18335137544705968406
10967382 1 18410293622576590426
11132069 177 18410580595422819416
11806522 49 18338519633813831696
12251169 10 18409445856610275573
14965852 173 18335985264213087107
15196674 1 18409449197646419451
15242433 33 18410853269832172798
15375358 24 18259984894133949366
15442244 35 18409447007313598185
15536298 74 18334295362017166576
17357779 13 18129964328767098893
17492 89 18195526995739918731
17804303 29 18334011688001564449
17834074 16 18409166618947685170
1813 80 17489585675537857844
18186145 218 16272205263140056684
19141452 34 18335420166834072647
200 152 17894636937584872199
20281475 54 18411702054101213396
20645477 70 18261392286398000958
21267235 1 18410002243426706011
21421861 104 17915184743986824874
221490 88 18198054772834434755
22485316 2 18409731763771741618
23402539 116 18260556653650623477
23463225 33 18410291423595500478
23557571 272 18335132142127239892
23559900 14 18261117348556576808
2871803 45 18341897428461736814
335352 9 18337672026793189541
34934 24 18412550920011724626
3545911 37 18408039606675831536
4214541 1 18408603686242568457
4921388 177 16702010934038115219
5104073 3 18408603668936177603
69090 78 18335423482480363727
6992083 37 18338221756758353705
7364860 26 18192994816013020625
77779 3 18408884040153778002
8809292 202 18341330007188982243
9709674 26 18334852814075521063
9981440 41 17261031022317080353

> <PUBCHEM_SHAPE_MULTIPOLES>
339
8.83
2.37
0.69
1.05
0.35
-0.04
-2.31
0.37
-0.18
-0.41
0.01
0.18
-0.1

> <PUBCHEM_SHAPE_SELFOVERLAP>
722.61

> <PUBCHEM_SHAPE_VOLUME>
186

> <PUBCHEM_COORDINATE_TYPE>
2
5
10

$$$$

