637796
  -OEChem-07051212593D

 22 23  0     0  0  0  0  0  0999 V2000
    1.9518   -1.6954    0.0423 O   0  0  0  0  0  0  0  0  0  0  0  0
    3.0860    0.4270   -0.0855 O   0  0  0  0  0  0  0  0  0  0  0  0
    1.0855   -0.6457    0.0389 C   0  0  0  0  0  0  0  0  0  0  0  0
    1.7333    0.5662   -0.0339 C   0  0  0  0  0  0  0  0  0  0  0  0
   -1.0152    0.4629    0.0879 C   0  0  0  0  0  0  0  0  0  0  0  0
   -0.2903   -0.7312    0.1010 C   0  0  0  0  0  0  0  0  0  0  0  0
    1.0411    1.7596   -0.0485 C   0  0  0  0  0  0  0  0  0  0  0  0
   -0.3533    1.7011    0.0135 C   0  0  0  0  0  0  0  0  0  0  0  0
    3.2173   -1.0083   -0.0374 C   0  0  0  0  0  0  0  0  0  0  0  0
   -2.4682    0.4261    0.1517 C   0  0  0  0  0  0  0  0  0  0  0  0
   -3.2478   -0.6365   -0.1508 C   0  0  0  0  0  0  0  0  0  0  0  0
   -4.7403   -0.6257   -0.0794 C   0  0  0  0  0  0  0  0  0  0  0  0
   -0.7528   -1.7088    0.1759 H   0  0  0  0  0  0  0  0  0  0  0  0
    1.5554    2.7122   -0.1061 H   0  0  0  0  0  0  0  0  0  0  0  0
   -0.9168    2.6317    0.0018 H   0  0  0  0  0  0  0  0  0  0  0  0
    3.7423   -1.3431   -0.9394 H   0  0  0  0  0  0  0  0  0  0  0  0
    3.8180   -1.2766    0.8393 H   0  0  0  0  0  0  0  0  0  0  0  0
   -2.9525    1.3498    0.4622 H   0  0  0  0  0  0  0  0  0  0  0  0
   -2.8158   -1.5728   -0.4911 H   0  0  0  0  0  0  0  0  0  0  0  0
   -5.1622   -0.8423   -1.0656 H   0  0  0  0  0  0  0  0  0  0  0  0
   -5.0852   -1.3939    0.6194 H   0  0  0  0  0  0  0  0  0  0  0  0
   -5.1317    0.3402    0.2548 H   0  0  0  0  0  0  0  0  0  0  0  0
  1  3  1  0  0  0  0
  1  9  1  0  0  0  0
  2  4  1  0  0  0  0
  2  9  1  0  0  0  0
  3  4  2  0  0  0  0
  3  6  1  0  0  0  0
  4  7  1  0  0  0  0
  5  6  2  0  0  0  0
  5  8  1  0  0  0  0
  5 10  1  0  0  0  0
  6 13  1  0  0  0  0
  7  8  2  0  0  0  0
  7 14  1  0  0  0  0
  8 15  1  0  0  0  0
  9 16  1  0  0  0  0
  9 17  1  0  0  0  0
 10 11  2  0  0  0  0
 10 18  1  0  0  0  0
 11 12  1  0  0  0  0
 11 19  1  0  0  0  0
 12 20  1  0  0  0  0
 12 21  1  0  0  0  0
 12 22  1  0  0  0  0
M  END
> <PUBCHEM_COMPOUND_CID>
637796

> <PUBCHEM_CONFORMER_RMSD>
0.4

> <PUBCHEM_CONFORMER_DIVERSEORDER>
1
2

> <PUBCHEM_MMFF94_PARTIAL_CHARGES>
17
1 -0.36
10 -0.18
11 -0.29
12 0.14
13 0.15
14 0.15
15 0.15
18 0.15
19 0.15
2 -0.36
3 0.08
4 0.08
5 0.03
6 -0.15
7 -0.15
8 -0.15
9 0.56

> <PUBCHEM_EFFECTIVE_ROTOR_COUNT>
1.6

> <PUBCHEM_PHARMACOPHORE_FEATURES>
5
1 1 acceptor
1 12 hydrophobe
1 2 acceptor
5 1 2 3 4 9 rings
6 3 4 5 6 7 8 rings

> <PUBCHEM_HEAVY_ATOM_COUNT>
12

> <PUBCHEM_ATOM_DEF_STEREO_COUNT>
0

> <PUBCHEM_ATOM_UDEF_STEREO_COUNT>
0

> <PUBCHEM_BOND_DEF_STEREO_COUNT>
1

> <PUBCHEM_BOND_UDEF_STEREO_COUNT>
0

> <PUBCHEM_ISOTOPIC_ATOM_COUNT>
0

> <PUBCHEM_COMPONENT_COUNT>
1

> <PUBCHEM_CACTVS_TAUTO_COUNT>
1

> <PUBCHEM_CONFORMER_ID>
0009BB6400000001

> <PUBCHEM_MMFF94_ENERGY>
28.2286

> <PUBCHEM_FEATURE_SELFOVERLAP>
25.527

> <PUBCHEM_SHAPE_FINGERPRINT>
10219947 1 18334010588384331183
11471102 20 18411985732665185237
11543360 7 15769478855569456555
11769659 78 18338520845058036171
11806522 49 18410014295405320095
12032990 46 18410007771065290814
14251717 144 18410857633677207631
14252887 29 18040988553264533383
14325111 11 18410011056836539537
14576447 43 18189627038146806463
14993402 34 18333728000852822535
15477762 27 18410856529875809383
15501101 241 18413389813172003781
15757776 16 18342181072032922163
16945 1 18340759373544206520
18186145 218 17704079486632610015
193761 8 17618220611741118776
20201158 50 18343581832856730827
20645477 70 18410295800758363247
20871998 22 18189046663104740246
21501925 9 18410582789834414680
221490 88 18125997170665800371
23402539 116 18339652234096723870
23402655 69 18410860962614394469
23552423 10 18128528469659969930
2748010 2 18194125337589133684
581208 293 18337958887210463681
7364860 26 18261675848628532040
8809292 202 18129938984249526227

> <PUBCHEM_SHAPE_MULTIPOLES>
235.22
6.32
1.62
0.61
5.9
0.36
0
-2.42
0.29
-0.75
0.01
0.05
0.01
-0.08

> <PUBCHEM_SHAPE_SELFOVERLAP>
505.059

> <PUBCHEM_SHAPE_VOLUME>
131.3

> <PUBCHEM_COORDINATE_TYPE>
2
5
10

$$$$

