443032
  -OEChem-07051213002D

 22 22  0     0  0  0  0  0  0999 V2000
    4.4142    1.3586    0.0000 S   0  0  0  0  0  0  0  0  0  0  0  0
    2.0000    0.3586    0.0000 S   0  0  0  0  0  0  0  0  0  0  0  0
    3.7071    2.0657    0.0000 S   0  0  0  0  0  0  0  0  0  0  0  0
    2.0000    1.3586    0.0000 S   0  0  0  0  0  0  0  0  0  0  0  0
    2.7071    2.0657    0.0000 S   0  0  0  0  0  0  0  0  0  0  0  0
    4.0898   -1.2724    0.0000 N   0  0  0  0  0  0  0  0  0  0  0  0
    3.7071   -0.3485    0.0000 C   0  0  0  0  0  0  0  0  0  0  0  0
    4.4142    0.3586    0.0000 C   0  0  0  0  0  0  0  0  0  0  0  0
    2.7071   -0.3485    0.0000 C   0  0  0  0  0  0  0  0  0  0  0  0
    3.4810   -2.0657    0.0000 C   0  0  0  0  0  0  0  0  0  0  0  0
    5.0812   -1.4029    0.0000 C   0  0  0  0  0  0  0  0  0  0  0  0
    3.3626   -0.8640    0.0000 H   0  0  0  0  0  0  0  0  0  0  0  0
    2.1702   -0.6585    0.0000 H   0  0  0  0  0  0  0  0  0  0  0  0
    2.8676   -0.9474    0.0000 H   0  0  0  0  0  0  0  0  0  0  0  0
    4.7242   -0.1783    0.0000 H   0  0  0  0  0  0  0  0  0  0  0  0
    5.0131    0.5191    0.0000 H   0  0  0  0  0  0  0  0  0  0  0  0
    5.0003   -2.0176    0.0000 H   0  0  0  0  0  0  0  0  0  0  0  0
    5.6959   -1.4838    0.0000 H   0  0  0  0  0  0  0  0  0  0  0  0
    5.1622   -0.7882    0.0000 H   0  0  0  0  0  0  0  0  0  0  0  0
    2.9892   -1.6883    0.0000 H   0  0  0  0  0  0  0  0  0  0  0  0
    3.1036   -2.5576    0.0000 H   0  0  0  0  0  0  0  0  0  0  0  0
    3.9729   -2.4432    0.0000 H   0  0  0  0  0  0  0  0  0  0  0  0
  1  3  1  0  0  0  0
  1  8  1  0  0  0  0
  2  4  1  0  0  0  0
  2  9  1  0  0  0  0
  3  5  1  0  0  0  0
  4  5  1  0  0  0  0
  6  7  1  0  0  0  0
  6 10  1  0  0  0  0
  6 11  1  0  0  0  0
  7  8  1  0  0  0  0
  7  9  1  0  0  0  0
  7 12  1  0  0  0  0
  8 15  1  0  0  0  0
  8 16  1  0  0  0  0
  9 13  1  0  0  0  0
  9 14  1  0  0  0  0
 10 20  1  0  0  0  0
 10 21  1  0  0  0  0
 10 22  1  0  0  0  0
 11 17  1  0  0  0  0
 11 18  1  0  0  0  0
 11 19  1  0  0  0  0
M  END
> <PUBCHEM_COMPOUND_CID>
443032

> <PUBCHEM_COMPOUND_CANONICALIZED>
1

> <PUBCHEM_CACTVS_COMPLEXITY>
101

> <PUBCHEM_CACTVS_HBOND_ACCEPTOR>
6

> <PUBCHEM_CACTVS_HBOND_DONOR>
0

> <PUBCHEM_CACTVS_ROTATABLE_BOND>
1

> <PUBCHEM_CACTVS_SUBSKEYS>
AAADccBiAABwAAAAAAAAAAAAAAAAAAAAAAAAAAAAAAASAAAAAAAAHAQAAAAACCjFQASCAAMAAAAAAAAAAAAAAAAAAAAAAAAIAAAAAAAAAAAAAAAAAAAAAAAAAAAAAAAAAAAAAAAAAAAAAAAAAAAAAAAAAA==

> <PUBCHEM_IUPAC_OPENEYE_NAME>
N,N-dimethylpentathiocan-7-amine

> <PUBCHEM_IUPAC_CAS_NAME>
N,N-dimethyl-7-pentathiocanamine

> <PUBCHEM_IUPAC_NAME>
N,N-dimethylpentathiocan-7-amine

> <PUBCHEM_IUPAC_SYSTEMATIC_NAME>
N,N-dimethyl-1,2,3,4,5-pentathiocan-7-amine

> <PUBCHEM_IUPAC_TRADITIONAL_NAME>
dimethyl(pentathiocan-7-yl)amine

> <PUBCHEM_IUPAC_INCHI>
InChI=1S/C5H11NS5/c1-6(2)5-3-7-9-11-10-8-4-5/h5H,3-4H2,1-2H3

> <PUBCHEM_IUPAC_INCHIKEY>
KKJUPNGICOCCDW-UHFFFAOYSA-N

> <PUBCHEM_XLOGP3_AA>
2.1

> <PUBCHEM_EXACT_MASS>
244.949504

> <PUBCHEM_MOLECULAR_FORMULA>
C5H11NS5

> <PUBCHEM_MOLECULAR_WEIGHT>
245.47254

> <PUBCHEM_OPENEYE_CAN_SMILES>
CN(C)C1CSSSSSC1

> <PUBCHEM_OPENEYE_ISO_SMILES>
CN(C)C1CSSSSSC1

> <PUBCHEM_CACTVS_TPSA>
130

> <PUBCHEM_MONOISOTOPIC_WEIGHT>
244.949504

> <PUBCHEM_TOTAL_CHARGE>
0

> <PUBCHEM_HEAVY_ATOM_COUNT>
11

> <PUBCHEM_ATOM_DEF_STEREO_COUNT>
0

> <PUBCHEM_ATOM_UDEF_STEREO_COUNT>
0

> <PUBCHEM_BOND_DEF_STEREO_COUNT>
0

> <PUBCHEM_BOND_UDEF_STEREO_COUNT>
0

> <PUBCHEM_ISOTOPIC_ATOM_COUNT>
0

> <PUBCHEM_COMPONENT_COUNT>
1

> <PUBCHEM_CACTVS_TAUTO_COUNT>
1

> <PUBCHEM_COORDINATE_TYPE>
1
5
255

$$$$

