2369
  -OEChem-07051212523D

 51 52  0     1  0  0  0  0  0999 V2000
   -3.7506    0.1789    0.0513 O   0  0  0  0  0  0  0  0  0  0  0  0
    2.3292    1.6517    0.3725 O   0  0  0  0  0  0  0  0  0  0  0  0
    4.9845    1.1348    1.0158 O   0  0  0  0  0  0  0  0  0  0  0  0
    2.9386   -1.8105    0.0938 N   0  0  0  0  0  0  0  0  0  0  0  0
   -4.2498   -1.9439    0.9992 C   0  0  0  0  0  0  0  0  0  0  0  0
   -3.7819   -3.3515    0.7947 C   0  0  0  0  0  0  0  0  0  0  0  0
   -2.8708   -2.3405    1.4269 C   0  0  0  0  0  0  0  0  0  0  0  0
   -4.4116   -1.0562   -0.1867 C   0  0  0  0  0  0  0  0  0  0  0  0
   -3.8784    1.0607   -1.0568 C   0  0  0  0  0  0  0  0  0  0  0  0
   -3.1518    2.3745   -0.7531 C   0  0  0  0  0  0  0  0  0  0  0  0
   -1.7032    2.1832   -0.4557 C   0  0  0  0  0  0  0  0  0  0  0  0
    3.9843    0.1329    1.2209 C   0  0  2  0  0  0  0  0  0  0  0  0
    3.9597   -0.7769   -0.0097 C   0  0  0  0  0  0  0  0  0  0  0  0
    2.8987   -2.6258   -1.1127 C   0  0  0  0  0  0  0  0  0  0  0  0
    2.6497    0.8255    1.4876 C   0  0  0  0  0  0  0  0  0  0  0  0
   -0.7679    2.2224   -1.4899 C   0  0  0  0  0  0  0  0  0  0  0  0
   -1.2835    1.9654    0.8564 C   0  0  0  0  0  0  0  0  0  0  0  0
    0.9991    1.8269    0.0989 C   0  0  0  0  0  0  0  0  0  0  0  0
    1.8550   -3.7258   -0.9478 C   0  0  0  0  0  0  0  0  0  0  0  0
    2.5916   -1.7565   -2.3288 C   0  0  0  0  0  0  0  0  0  0  0  0
    0.5873    2.0436   -1.2118 C   0  0  0  0  0  0  0  0  0  0  0  0
    0.0716    1.7868    1.1346 C   0  0  0  0  0  0  0  0  0  0  0  0
   -4.9737   -1.7423    1.7784 H   0  0  0  0  0  0  0  0  0  0  0  0
   -4.2022   -4.1194    1.4329 H   0  0  0  0  0  0  0  0  0  0  0  0
   -3.5411   -3.6881   -0.2060 H   0  0  0  0  0  0  0  0  0  0  0  0
   -2.0231   -1.9969    0.8466 H   0  0  0  0  0  0  0  0  0  0  0  0
   -2.6779   -2.4303    2.4889 H   0  0  0  0  0  0  0  0  0  0  0  0
   -5.4789   -0.8770   -0.3606 H   0  0  0  0  0  0  0  0  0  0  0  0
   -3.9921   -1.5207   -1.0873 H   0  0  0  0  0  0  0  0  0  0  0  0
   -3.4484    0.5914   -1.9499 H   0  0  0  0  0  0  0  0  0  0  0  0
   -4.9385    1.2676   -1.2440 H   0  0  0  0  0  0  0  0  0  0  0  0
   -3.2762    3.0652   -1.5962 H   0  0  0  0  0  0  0  0  0  0  0  0
   -3.6305    2.8599    0.1077 H   0  0  0  0  0  0  0  0  0  0  0  0
    4.2706   -0.4431    2.1089 H   0  0  0  0  0  0  0  0  0  0  0  0
    4.9513   -1.2317   -0.1340 H   0  0  0  0  0  0  0  0  0  0  0  0
    3.8139   -0.1260   -0.8778 H   0  0  0  0  0  0  0  0  0  0  0  0
    3.8694   -3.1151   -1.2643 H   0  0  0  0  0  0  0  0  0  0  0  0
    3.1242   -2.3967    0.9070 H   0  0  0  0  0  0  0  0  0  0  0  0
    1.8877    0.0618    1.6851 H   0  0  0  0  0  0  0  0  0  0  0  0
    2.7475    1.4735    2.3668 H   0  0  0  0  0  0  0  0  0  0  0  0
   -1.0826    2.3890   -2.5167 H   0  0  0  0  0  0  0  0  0  0  0  0
   -2.0008    1.9394    1.6726 H   0  0  0  0  0  0  0  0  0  0  0  0
    0.8518   -3.3087   -0.8026 H   0  0  0  0  0  0  0  0  0  0  0  0
    1.8258   -4.3693   -1.8338 H   0  0  0  0  0  0  0  0  0  0  0  0
    2.0849   -4.3620   -0.0857 H   0  0  0  0  0  0  0  0  0  0  0  0
    3.4500   -1.1548   -2.6431 H   0  0  0  0  0  0  0  0  0  0  0  0
    1.7398   -1.0903   -2.1499 H   0  0  0  0  0  0  0  0  0  0  0  0
    2.3335   -2.3854   -3.1891 H   0  0  0  0  0  0  0  0  0  0  0  0
    1.3126    2.0728   -2.0200 H   0  0  0  0  0  0  0  0  0  0  0  0
    0.3588    1.6521    2.1730 H   0  0  0  0  0  0  0  0  0  0  0  0
    5.8347    0.6789    0.8934 H   0  0  0  0  0  0  0  0  0  0  0  0
  1  8  1  0  0  0  0
  1  9  1  0  0  0  0
  2 15  1  0  0  0  0
  2 18  1  0  0  0  0
  3 12  1  0  0  0  0
  3 51  1  0  0  0  0
  4 13  1  0  0  0  0
  4 14  1  0  0  0  0
  4 38  1  0  0  0  0
  5  6  1  0  0  0  0
  5  7  1  0  0  0  0
  5  8  1  0  0  0  0
  5 23  1  0  0  0  0
  6  7  1  0  0  0  0
  6 24  1  0  0  0  0
  6 25  1  0  0  0  0
  7 26  1  0  0  0  0
  7 27  1  0  0  0  0
  8 28  1  0  0  0  0
  8 29  1  0  0  0  0
  9 10  1  0  0  0  0
  9 30  1  0  0  0  0
  9 31  1  0  0  0  0
 10 11  1  0  0  0  0
 10 32  1  0  0  0  0
 10 33  1  0  0  0  0
 11 16  2  0  0  0  0
 11 17  1  0  0  0  0
 12 13  1  0  0  0  0
 12 15  1  0  0  0  0
 12 34  1  0  0  0  0
 13 35  1  0  0  0  0
 13 36  1  0  0  0  0
 14 19  1  0  0  0  0
 14 20  1  0  0  0  0
 14 37  1  0  0  0  0
 15 39  1  0  0  0  0
 15 40  1  0  0  0  0
 16 21  1  0  0  0  0
 16 41  1  0  0  0  0
 17 22  2  0  0  0  0
 17 42  1  0  0  0  0
 18 21  2  0  0  0  0
 18 22  1  0  0  0  0
 19 43  1  0  0  0  0
 19 44  1  0  0  0  0
 19 45  1  0  0  0  0
 20 46  1  0  0  0  0
 20 47  1  0  0  0  0
 20 48  1  0  0  0  0
 21 49  1  0  0  0  0
 22 50  1  0  0  0  0
M  END
> <PUBCHEM_COMPOUND_CID>
2369

> <PUBCHEM_CONFORMER_RMSD>
1.2

> <PUBCHEM_CONFORMER_DIVERSEORDER>
1
63
57
60
37
6
52
44
74
39
14
61
29
87
26
11
62
55
24
22
85
12
75
27
81
56
80
8
48
23
86
9
45
90
49
50
58
18
38
41
35
21
73
47
30
10
20
3
28
88
82
71
32
42
31
83
54
34
25
89
65
78
53
43
72
36
13
51
16
69
68
84
17
33
2
66
59
15
70
19
7
40
77
46
64
76
67
79
4
5

> <PUBCHEM_MMFF94_PARTIAL_CHARGES>
31
1 -0.56
10 0.14
11 -0.14
12 0.28
13 0.27
14 0.27
15 0.28
16 -0.15
17 -0.15
18 0.08
2 -0.36
21 -0.15
22 -0.15
23 0.1
24 0.1
25 0.1
26 0.1
27 0.1
3 -0.68
38 0.36
4 -0.9
41 0.15
42 0.15
49 0.15
5 -0.19
50 0.15
51 0.4
6 -0.2
7 -0.2
8 0.38
9 0.28

> <PUBCHEM_EFFECTIVE_ROTOR_COUNT>
11.6

> <PUBCHEM_PHARMACOPHORE_FEATURES>
8
1 1 acceptor
1 2 acceptor
1 3 acceptor
1 3 donor
1 4 cation
1 4 donor
3 14 19 20 hydrophobe
6 11 16 17 18 21 22 rings

> <PUBCHEM_HEAVY_ATOM_COUNT>
22

> <PUBCHEM_ATOM_DEF_STEREO_COUNT>
0

> <PUBCHEM_ATOM_UDEF_STEREO_COUNT>
1

> <PUBCHEM_BOND_DEF_STEREO_COUNT>
0

> <PUBCHEM_BOND_UDEF_STEREO_COUNT>
0

> <PUBCHEM_ISOTOPIC_ATOM_COUNT>
0

> <PUBCHEM_COMPONENT_COUNT>
1

> <PUBCHEM_CACTVS_TAUTO_COUNT>
1

> <PUBCHEM_CONFORMER_ID>
0000094100000001

> <PUBCHEM_MMFF94_ENERGY>
48.9313

> <PUBCHEM_FEATURE_SELFOVERLAP>
40.599

> <PUBCHEM_SHAPE_FINGERPRINT>
108634 29 18340771528212334258
117890 22 18409444786989468943
12596602 18 15575292973322013599
13402501 40 18410295795983451947
13583140 156 17240483619589157833
13617811 41 17773877691840403285
13911882 115 18334011683986009530
14020679 6 17248343122057143129
14251757 17 18339361967438185091
14659021 117 16387605966513104838
20403669 9 18343023246885552859
20765182 20 18189598485109413047
23559900 14 18264776630728289052
238918 7 18262247629377806866
3052486 1 18060700598122934066
3493558 16 8710101510943887601
445580 102 18336263448986659047
574716 61 15625931024310211039
6433294 58 18195813092022227746
7987 15 18188193403484948087
9709674 26 18410016575764065369

> <PUBCHEM_SHAPE_MULTIPOLES>
430.16
9.54
4.58
1.72
0.86
3.2
-0.38
4.9
1.69
1.64
-0.72
-0.85
0.26
3.41

> <PUBCHEM_SHAPE_SELFOVERLAP>
860.194

> <PUBCHEM_SHAPE_VOLUME>
256

> <PUBCHEM_COORDINATE_TYPE>
2
5
10

$$$$

