440908
  -OEChem-07051212512D

 42 45  0     1  0  0  0  0  0999 V2000
    1.7360   -0.7237    0.0000 O   0  0  0  0  0  0  0  0  0  0  0  0
    6.6193    0.3827    0.0000 O   0  0  0  0  0  0  0  0  0  0  0  0
    6.2188    2.2980    0.0000 O   0  0  0  0  0  0  0  0  0  0  0  0
    4.1280    3.5051    0.0000 O   0  0  0  0  0  0  0  0  0  0  0  0
    4.7672   -2.4488    0.0000 O   0  0  0  0  0  0  0  0  0  0  0  0
    3.9022   -1.3208    0.0000 O   0  0  0  0  0  0  0  0  0  0  0  0
    6.4150   -3.6655    0.0000 O   0  0  0  0  0  0  0  0  0  0  0  0
    4.2751    0.2246    0.0000 C   0  0  1  0  0  0  0  0  0  0  0  0
    2.4431   -0.0166    0.0000 C   0  0  1  0  0  0  0  0  0  0  0  0
    5.8102   -1.0186    0.0000 C   0  0  2  0  0  0  0  0  0  0  0  0
    4.0163    1.1905    0.0000 C   0  0  1  0  0  0  0  0  0  0  0  0
    5.2529    2.0391    0.0000 C   0  0  1  0  0  0  0  0  0  0  0  0
    1.4772    0.2422    0.0000 C   0  0  0  0  0  0  0  0  0  0  0  0
    4.3869    2.5391    0.0000 C   0  0  1  0  0  0  0  0  0  0  0  0
    6.7238   -0.6118    0.0000 C   0  0  1  0  0  0  0  0  0  0  0  0
    4.5339   -0.7413    0.0000 C   0  0  0  0  0  0  0  0  0  0  0  0
    5.6854   -2.0527    0.0000 C   0  0  1  0  0  0  0  0  0  0  0  0
    4.8967   -1.4253    0.0000 C   0  0  0  0  0  0  0  0  0  0  0  0
    7.5758   -1.2110    0.0000 C   0  0  0  0  0  0  0  0  0  0  0  0
    6.5234   -2.6714    0.0000 C   0  0  0  0  0  0  0  0  0  0  0  0
    7.4749   -2.2478    0.0000 C   0  0  0  0  0  0  0  0  0  0  0  0
    8.2862   -2.8324    0.0000 C   0  0  0  0  0  0  0  0  0  0  0  0
    3.7963    2.0115    0.0000 H   0  0  0  0  0  0  0  0  0  0  0  0
    5.3338    2.6538    0.0000 H   0  0  0  0  0  0  0  0  0  0  0  0
    0.8596    0.1882    0.0000 H   0  0  0  0  0  0  0  0  0  0  0  0
    1.5312    0.8599    0.0000 H   0  0  0  0  0  0  0  0  0  0  0  0
    3.7669    2.5411    0.0000 H   0  0  0  0  0  0  0  0  0  0  0  0
    7.5003   -0.2661    0.0000 H   0  0  0  0  0  0  0  0  0  0  0  0
    5.1328   -0.5809    0.0000 H   0  0  0  0  0  0  0  0  0  0  0  0
    4.6944   -1.3402    0.0000 H   0  0  0  0  0  0  0  0  0  0  0  0
    3.9350   -0.9018    0.0000 H   0  0  0  0  0  0  0  0  0  0  0  0
    5.6147   -2.6686    0.0000 H   0  0  0  0  0  0  0  0  0  0  0  0
    5.3274   -1.8713    0.0000 H   0  0  0  0  0  0  0  0  0  0  0  0
    4.7997   -0.8129    0.0000 H   0  0  0  0  0  0  0  0  0  0  0  0
    8.1393   -0.9523    0.0000 H   0  0  0  0  0  0  0  0  0  0  0  0
    6.3793    2.8968    0.0000 H   0  0  0  0  0  0  0  0  0  0  0  0
    3.5292    3.6655    0.0000 H   0  0  0  0  0  0  0  0  0  0  0  0
    4.6953   -3.0646    0.0000 H   0  0  0  0  0  0  0  0  0  0  0  0
    3.5378   -1.8224    0.0000 H   0  0  0  0  0  0  0  0  0  0  0  0
    8.6487   -2.3294    0.0000 H   0  0  0  0  0  0  0  0  0  0  0  0
    8.7892   -3.1949    0.0000 H   0  0  0  0  0  0  0  0  0  0  0  0
    7.9237   -3.3354    0.0000 H   0  0  0  0  0  0  0  0  0  0  0  0
  9  1  1  6  0  0  0
  1 13  1  0  0  0  0
  2 11  1  0  0  0  0
  2 15  1  0  0  0  0
 12  3  1  1  0  0  0
  3 36  1  0  0  0  0
 14  4  1  6  0  0  0
  4 37  1  0  0  0  0
 17  5  1  1  0  0  0
  5 38  1  0  0  0  0
  6 18  1  0  0  0  0
  6 39  1  0  0  0  0
  7 20  2  0  0  0  0
  8  9  1  0  0  0  0
  8 10  1  0  0  0  0
  8 12  1  0  0  0  0
  8 16  1  1  0  0  0
  9 11  1  0  0  0  0
  9 13  1  0  0  0  0
 10 15  1  0  0  0  0
 10 17  1  0  0  0  0
 10 18  1  1  0  0  0
 11 14  1  0  0  0  0
 11 23  1  6  0  0  0
 12 14  1  0  0  0  0
 12 24  1  0  0  0  0
 13 25  1  0  0  0  0
 13 26  1  0  0  0  0
 14 27  1  0  0  0  0
 15 19  1  0  0  0  0
 15 28  1  1  0  0  0
 16 29  1  0  0  0  0
 16 30  1  0  0  0  0
 16 31  1  0  0  0  0
 17 20  1  0  0  0  0
 17 32  1  0  0  0  0
 18 33  1  0  0  0  0
 18 34  1  0  0  0  0
 19 21  2  0  0  0  0
 19 35  1  0  0  0  0
 20 21  1  0  0  0  0
 21 22  1  0  0  0  0
 22 40  1  0  0  0  0
 22 41  1  0  0  0  0
 22 42  1  0  0  0  0
M  END
> <PUBCHEM_COMPOUND_CID>
440908

> <PUBCHEM_COMPOUND_CANONICALIZED>
1

> <PUBCHEM_CACTVS_COMPLEXITY>
588

> <PUBCHEM_CACTVS_HBOND_ACCEPTOR>
7

> <PUBCHEM_CACTVS_HBOND_DONOR>
4

> <PUBCHEM_CACTVS_ROTATABLE_BOND>
1

> <PUBCHEM_CACTVS_SUBSKEYS>
AAADceBwOAAAAAAAAAAAAAAAEgAAAYAAAAAkQAAABIAAAACAAAAAGgAACAAADlSggAICAAAABgCIAqBSAAIAAAAgAAAACAFAAEgBFBIAIQACUAAFwAALIYPK7PzPgAAAAAAAAAAAAAAAAAAAAIQADCAAAA==

> <PUBCHEM_IUPAC_INCHI>
InChI=1S/C15H20O7/c1-6-3-7-14(4-16,11(20)8(6)17)13(2)10(19)9(18)12(22-7)15(13)5-21-15/h3,7,9-12,16,18-20H,4-5H2,1-2H3/t7-,9-,10-,11-,12-,13-,14-,15-/m1/s1

> <PUBCHEM_IUPAC_INCHIKEY>
UKOTXHQERFPCBU-YQPARWETSA-N

> <PUBCHEM_XLOGP3_AA>
-1.7

> <PUBCHEM_EXACT_MASS>
312.120903

> <PUBCHEM_MOLECULAR_FORMULA>
C15H20O7

> <PUBCHEM_MOLECULAR_WEIGHT>
312.3151

> <PUBCHEM_OPENEYE_CAN_SMILES>
CC1=CC2C(C(C1=O)O)(C3(C(C(C(C34CO4)O2)O)O)C)CO

> <PUBCHEM_OPENEYE_ISO_SMILES>
CC1=C[C@@H]2[C@]([C@@H](C1=O)O)([C@]3([C@@H]([C@H]([C@H]([C@]34CO4)O2)O)O)C)CO

> <PUBCHEM_CACTVS_TPSA>
120

> <PUBCHEM_MONOISOTOPIC_WEIGHT>
312.120903

> <PUBCHEM_TOTAL_CHARGE>
0

> <PUBCHEM_HEAVY_ATOM_COUNT>
22

> <PUBCHEM_ATOM_DEF_STEREO_COUNT>
8

> <PUBCHEM_ATOM_UDEF_STEREO_COUNT>
0

> <PUBCHEM_BOND_DEF_STEREO_COUNT>
0

> <PUBCHEM_BOND_UDEF_STEREO_COUNT>
0

> <PUBCHEM_ISOTOPIC_ATOM_COUNT>
0

> <PUBCHEM_COMPONENT_COUNT>
1

> <PUBCHEM_CACTVS_TAUTO_COUNT>
8

> <PUBCHEM_COORDINATE_TYPE>
1
5
255

> <PUBCHEM_BONDANNOTATIONS>
9  1  6
10  18  5
11  23  6
15  28  5
12  3  5
14  4  6
17  5  5
8  16  5

$$$$

