19003
  -OEChem-07051213032D

 46 48  0     1  0  0  0  0  0999 V2000
    7.5593    0.5568    0.0000 S   0  0  0  0  0  0  0  0  0  0  0  0
    4.8943   -1.4649    0.0000 O   0  0  0  0  0  0  0  0  0  0  0  0
    7.1992   -2.7554    0.0000 O   0  0  0  0  0  0  0  0  0  0  0  0
    4.0131   -0.2927    0.0000 O   0  0  0  0  0  0  0  0  0  0  0  0
    8.8465   -2.2202    0.0000 O   0  0  0  0  0  0  0  0  0  0  0  0
    6.6083   -0.7522    0.0000 N   0  0  0  0  0  0  0  0  0  0  0  0
    4.8943    0.9605    0.0000 N   0  0  0  0  0  0  0  0  0  0  0  0
    2.6470    0.5942    0.0000 N   0  0  0  0  0  0  0  0  0  0  0  0
    6.6083    0.2478    0.0000 C   0  0  1  0  0  0  0  0  0  0  0  0
    5.6000    0.2519    0.0000 C   0  0  1  0  0  0  0  0  0  0  0  0
    7.5593   -1.0612    0.0000 C   0  0  2  0  0  0  0  0  0  0  0  0
    8.1471   -0.2522    0.0000 C   0  0  0  0  0  0  0  0  0  0  0  0
    5.6000   -0.7564    0.0000 C   0  0  0  0  0  0  0  0  0  0  0  0
    3.2222    1.4122    0.0000 C   0  0  0  0  0  0  0  0  0  0  0  0
    8.9561    0.3356    0.0000 C   0  0  0  0  0  0  0  0  0  0  0  0
    8.9561   -0.8400    0.0000 C   0  0  0  0  0  0  0  0  0  0  0  0
    3.9308    2.1178    0.0000 C   0  0  0  0  0  0  0  0  0  0  0  0
    2.2568    1.6730    0.0000 C   0  0  0  0  0  0  0  0  0  0  0  0
    3.9279    0.7036    0.0000 C   0  0  0  0  0  0  0  0  0  0  0  0
    7.8683   -2.0123    0.0000 C   0  0  0  0  0  0  0  0  0  0  0  0
    2.0000    2.6394    0.0000 C   0  0  0  0  0  0  0  0  0  0  0  0
    3.6740    3.0843    0.0000 C   0  0  0  0  0  0  0  0  0  0  0  0
    2.7086    3.3451    0.0000 C   0  0  0  0  0  0  0  0  0  0  0  0
    6.4770    1.0876    0.0000 H   0  0  0  0  0  0  0  0  0  0  0  0
    5.8390    0.8240    0.0000 H   0  0  0  0  0  0  0  0  0  0  0  0
    7.1209   -1.4997    0.0000 H   0  0  0  0  0  0  0  0  0  0  0  0
    5.0560    1.5590    0.0000 H   0  0  0  0  0  0  0  0  0  0  0  0
    9.3206   -0.1660    0.0000 H   0  0  0  0  0  0  0  0  0  0  0  0
    9.4577    0.7000    0.0000 H   0  0  0  0  0  0  0  0  0  0  0  0
    8.5917    0.8371    0.0000 H   0  0  0  0  0  0  0  0  0  0  0  0
    8.5917   -1.3416    0.0000 H   0  0  0  0  0  0  0  0  0  0  0  0
    9.4577   -1.2044    0.0000 H   0  0  0  0  0  0  0  0  0  0  0  0
    9.3206   -0.3384    0.0000 H   0  0  0  0  0  0  0  0  0  0  0  0
    1.6391    1.6202    0.0000 H   0  0  0  0  0  0  0  0  0  0  0  0
    2.2015    1.0555    0.0000 H   0  0  0  0  0  0  0  0  0  0  0  0
    4.2854    1.6092    0.0000 H   0  0  0  0  0  0  0  0  0  0  0  0
    4.4932    2.3787    0.0000 H   0  0  0  0  0  0  0  0  0  0  0  0
    4.2917    3.1371    0.0000 H   0  0  0  0  0  0  0  0  0  0  0  0
    3.7293    3.7018    0.0000 H   0  0  0  0  0  0  0  0  0  0  0  0
    1.6454    3.1481    0.0000 H   0  0  0  0  0  0  0  0  0  0  0  0
    1.4376    2.3786    0.0000 H   0  0  0  0  0  0  0  0  0  0  0  0
    2.9717    3.9065    0.0000 H   0  0  0  0  0  0  0  0  0  0  0  0
    2.2014    3.7018    0.0000 H   0  0  0  0  0  0  0  0  0  0  0  0
    2.0295    0.6495    0.0000 H   0  0  0  0  0  0  0  0  0  0  0  0
    2.9078    0.0318    0.0000 H   0  0  0  0  0  0  0  0  0  0  0  0
    7.3908   -3.3451    0.0000 H   0  0  0  0  0  0  0  0  0  0  0  0
  1  9  1  0  0  0  0
  1 12  1  0  0  0  0
  2 13  2  0  0  0  0
  3 20  1  0  0  0  0
  3 46  1  0  0  0  0
  4 19  2  0  0  0  0
  5 20  2  0  0  0  0
  6  9  1  0  0  0  0
  6 11  1  0  0  0  0
  6 13  1  0  0  0  0
 10  7  1  1  0  0  0
  7 19  1  0  0  0  0
  7 27  1  0  0  0  0
  8 14  1  0  0  0  0
  8 44  1  0  0  0  0
  8 45  1  0  0  0  0
  9 10  1  0  0  0  0
  9 24  1  6  0  0  0
 10 13  1  0  0  0  0
 10 25  1  0  0  0  0
 11 12  1  0  0  0  0
 11 20  1  6  0  0  0
 11 26  1  0  0  0  0
 12 15  1  0  0  0  0
 12 16  1  0  0  0  0
 14 17  1  0  0  0  0
 14 18  1  0  0  0  0
 14 19  1  0  0  0  0
 15 28  1  0  0  0  0
 15 29  1  0  0  0  0
 15 30  1  0  0  0  0
 16 31  1  0  0  0  0
 16 32  1  0  0  0  0
 16 33  1  0  0  0  0
 17 22  1  0  0  0  0
 17 36  1  0  0  0  0
 17 37  1  0  0  0  0
 18 21  1  0  0  0  0
 18 34  1  0  0  0  0
 18 35  1  0  0  0  0
 21 23  1  0  0  0  0
 21 40  1  0  0  0  0
 21 41  1  0  0  0  0
 22 23  1  0  0  0  0
 22 38  1  0  0  0  0
 22 39  1  0  0  0  0
 23 42  1  0  0  0  0
 23 43  1  0  0  0  0
M  END
> <PUBCHEM_COMPOUND_CID>
19003

> <PUBCHEM_COMPOUND_CANONICALIZED>
1

> <PUBCHEM_CACTVS_COMPLEXITY>
559

> <PUBCHEM_CACTVS_HBOND_ACCEPTOR>
6

> <PUBCHEM_CACTVS_HBOND_DONOR>
3

> <PUBCHEM_CACTVS_ROTATABLE_BOND>
3

> <PUBCHEM_CACTVS_SUBSKEYS>
AAADceBzOABAAAAAAAAAAAAAAABYAWAAAAAwAAAABYAAAAAAAAAAHgQQCAAADKjFwASCCAPAAggIAAGQGAAAAABAABAAAIGIAAACQBoggCAUQAAEFgCwAAEYiACOAAAAAAAAAAAAAAAAAAAAAAAAAAAAAA==

> <PUBCHEM_IUPAC_OPENEYE_NAME>
(2S,5R,6R)-6-[(1-aminocyclohexanecarbonyl)amino]-3,3-dimethyl-7-oxo-4-thia-1-azabicyclo[3.2.0]heptane-2-carboxylic acid

> <PUBCHEM_IUPAC_CAS_NAME>
(2S,5R,6R)-6-[[(1-aminocyclohexyl)-oxomethyl]amino]-3,3-dimethyl-7-oxo-4-thia-1-azabicyclo[3.2.0]heptane-2-carboxylic acid

> <PUBCHEM_IUPAC_NAME>
(2S,5R,6R)-6-[(1-aminocyclohexanecarbonyl)amino]-3,3-dimethyl-7-oxo-4-thia-1-azabicyclo[3.2.0]heptane-2-carboxylic acid

> <PUBCHEM_IUPAC_SYSTEMATIC_NAME>
(2S,5R,6R)-6-[(1-azanylcyclohexyl)carbonylamino]-3,3-dimethyl-7-oxidanylidene-4-thia-1-azabicyclo[3.2.0]heptane-2-carboxylic acid

> <PUBCHEM_IUPAC_TRADITIONAL_NAME>
(2S,5R,6R)-6-[(1-aminocyclohexanecarbonyl)amino]-7-keto-3,3-dimethyl-4-thia-1-azabicyclo[3.2.0]heptane-2-carboxylic acid

> <PUBCHEM_IUPAC_INCHI>
InChI=1S/C15H23N3O4S/c1-14(2)9(12(20)21)18-10(19)8(11(18)23-14)17-13(22)15(16)6-4-3-5-7-15/h8-9,11H,3-7,16H2,1-2H3,(H,17,22)(H,20,21)/t8-,9+,11-/m1/s1

> <PUBCHEM_IUPAC_INCHIKEY>
HGBLNBBNRORJKI-WCABBAIRSA-N

> <PUBCHEM_XLOGP3>
1.3

> <PUBCHEM_EXACT_MASS>
341.140927

> <PUBCHEM_MOLECULAR_FORMULA>
C15H23N3O4S

> <PUBCHEM_MOLECULAR_WEIGHT>
341.42582

> <PUBCHEM_OPENEYE_CAN_SMILES>
CC1(C(N2C(S1)C(C2=O)NC(=O)C3(CCCCC3)N)C(=O)O)C

> <PUBCHEM_OPENEYE_ISO_SMILES>
CC1([C@@H](N2[C@H](S1)[C@@H](C2=O)NC(=O)C3(CCCCC3)N)C(=O)O)C

> <PUBCHEM_CACTVS_TPSA>
138

> <PUBCHEM_MONOISOTOPIC_WEIGHT>
341.140927

> <PUBCHEM_TOTAL_CHARGE>
0

> <PUBCHEM_HEAVY_ATOM_COUNT>
23

> <PUBCHEM_ATOM_DEF_STEREO_COUNT>
3

> <PUBCHEM_ATOM_UDEF_STEREO_COUNT>
0

> <PUBCHEM_BOND_DEF_STEREO_COUNT>
0

> <PUBCHEM_BOND_UDEF_STEREO_COUNT>
0

> <PUBCHEM_ISOTOPIC_ATOM_COUNT>
0

> <PUBCHEM_COMPONENT_COUNT>
1

> <PUBCHEM_CACTVS_TAUTO_COUNT>
4

> <PUBCHEM_COORDINATE_TYPE>
1
5
255

> <PUBCHEM_BONDANNOTATIONS>
11  20  6
10  7  5
9  24  6

$$$$

