14281
  -OEChem-06241222433D

 13 13  0     0  0  0  0  0  0999 V2000
   -3.0908    0.9385    0.0000 I   0  0  0  0  0  0  0  0  0  0  0  0
    2.8603   -0.2419    0.0001 O   0  0  0  0  0  0  0  0  0  0  0  0
    0.7263   -1.0308   -0.0001 N   0  0  0  0  0  0  0  0  0  0  0  0
   -1.4452   -1.9750    0.0001 N   0  0  0  0  0  0  0  0  0  0  0  0
    1.1741    1.2992    0.0000 N   0  0  0  0  0  0  0  0  0  0  0  0
   -0.6455   -0.8627   -0.0001 C   0  0  0  0  0  0  0  0  0  0  0  0
   -1.1256    0.3963    0.0000 C   0  0  0  0  0  0  0  0  0  0  0  0
    1.6536    0.0052   -0.0001 C   0  0  0  0  0  0  0  0  0  0  0  0
   -0.1072    1.4711    0.0000 C   0  0  0  0  0  0  0  0  0  0  0  0
    1.0704   -1.9865    0.0000 H   0  0  0  0  0  0  0  0  0  0  0  0
   -0.4874    2.5059    0.0001 H   0  0  0  0  0  0  0  0  0  0  0  0
   -2.4526   -1.8760    0.0001 H   0  0  0  0  0  0  0  0  0  0  0  0
   -1.0174   -2.8920    0.0000 H   0  0  0  0  0  0  0  0  0  0  0  0
  1  7  1  0  0  0  0
  2  8  2  0  0  0  0
  3  6  1  0  0  0  0
  3  8  1  0  0  0  0
  3 10  1  0  0  0  0
  4  6  1  0  0  0  0
  4 12  1  0  0  0  0
  4 13  1  0  0  0  0
  5  8  1  0  0  0  0
  5  9  2  0  0  0  0
  6  7  2  0  0  0  0
  7  9  1  0  0  0  0
  9 11  1  0  0  0  0
M  END
> <PUBCHEM_COMPOUND_CID>
14281

> <PUBCHEM_CONFORMER_RMSD>
0.4

> <PUBCHEM_CONFORMER_DIVERSEORDER>
1

> <PUBCHEM_MMFF94_PARTIAL_CHARGES>
13
1 -0.09
10 0.37
11 0.06
12 0.4
13 0.4
2 -0.57
3 -0.54
4 -0.9
5 -0.66
6 0.21
7 0.1
8 0.84
9 0.38

> <PUBCHEM_EFFECTIVE_ROTOR_COUNT>
0

> <PUBCHEM_PHARMACOPHORE_FEATURES>
8
1 1 hydrophobe
1 2 acceptor
1 3 donor
1 4 cation
1 4 donor
1 5 acceptor
1 5 donor
6 3 5 6 7 8 9 rings

> <PUBCHEM_HEAVY_ATOM_COUNT>
9

> <PUBCHEM_ATOM_DEF_STEREO_COUNT>
0

> <PUBCHEM_ATOM_UDEF_STEREO_COUNT>
0

> <PUBCHEM_BOND_DEF_STEREO_COUNT>
0

> <PUBCHEM_BOND_UDEF_STEREO_COUNT>
0

> <PUBCHEM_ISOTOPIC_ATOM_COUNT>
0

> <PUBCHEM_COMPONENT_COUNT>
1

> <PUBCHEM_CACTVS_TAUTO_COUNT>
9

> <PUBCHEM_CONFORMER_ID>
000037C900000001

> <PUBCHEM_MMFF94_ENERGY>
22.8378

> <PUBCHEM_FEATURE_SELFOVERLAP>
40.723

> <PUBCHEM_SHAPE_FINGERPRINT>
14325111 11 18410575119450416481
15310529 11 16702024226697930556
16945 1 18410574019569387173
193761 8 18050568443595672929
21040471 1 18410575102022484549
23235685 24 18336833090456741097
23402655 69 18049176737592053845
23552423 10 18128818534386643348
2748010 2 18265332802679641124
29004967 10 18200023074937082617
5084963 1 18187087290745587153

> <PUBCHEM_SHAPE_MULTIPOLES>
176.34
3.86
1.69
0.62
0.9
0.52
0
-0.78
0
0.37
0
0.16
-0.04
0

> <PUBCHEM_SHAPE_SELFOVERLAP>
343.7

> <PUBCHEM_SHAPE_VOLUME>
109.8

> <PUBCHEM_COORDINATE_TYPE>
2
5
10

$$$$

