6442565
  -OEChem-07051213102D

 26 26  0     1  0  0  0  0  0999 V2000
    4.2320    2.6830    0.0000 Cl  0  0  0  0  0  0  0  0  0  0  0  0
    2.0000    1.8170    0.0000 Cl  0  0  0  0  0  0  0  0  0  0  0  0
    2.8660   -2.6830    0.0000 Cl  0  0  0  0  0  0  0  0  0  0  0  0
    3.7320    1.8170    0.0000 C   0  0  1  0  0  0  0  0  0  0  0  0
    2.8660    1.3170    0.0000 C   0  0  2  0  0  0  0  0  0  0  0  0
    4.5981    1.3170    0.0000 C   0  0  0  0  0  0  0  0  0  0  0  0
    2.8660    0.3170    0.0000 C   0  0  0  0  0  0  0  0  0  0  0  0
    4.5981    0.3170    0.0000 C   0  0  0  0  0  0  0  0  0  0  0  0
    3.7320   -0.1830    0.0000 C   0  0  0  0  0  0  0  0  0  0  0  0
    3.2320    2.6830    0.0000 C   0  0  0  0  0  0  0  0  0  0  0  0
    5.4641   -0.1830    0.0000 C   0  0  0  0  0  0  0  0  0  0  0  0
    3.7320   -1.1830    0.0000 C   0  0  0  0  0  0  0  0  0  0  0  0
    2.8660   -1.6830    0.0000 C   0  0  0  0  0  0  0  0  0  0  0  0
    2.8660    1.9370    0.0000 H   0  0  0  0  0  0  0  0  0  0  0  0
    5.2087    1.2093    0.0000 H   0  0  0  0  0  0  0  0  0  0  0  0
    4.8101    1.8996    0.0000 H   0  0  0  0  0  0  0  0  0  0  0  0
    2.2554    0.4246    0.0000 H   0  0  0  0  0  0  0  0  0  0  0  0
    2.6540   -0.2656    0.0000 H   0  0  0  0  0  0  0  0  0  0  0  0
    3.7690    2.9930    0.0000 H   0  0  0  0  0  0  0  0  0  0  0  0
    2.9220    3.2200    0.0000 H   0  0  0  0  0  0  0  0  0  0  0  0
    2.6951    2.3730    0.0000 H   0  0  0  0  0  0  0  0  0  0  0  0
    5.1541   -0.7199    0.0000 H   0  0  0  0  0  0  0  0  0  0  0  0
    6.0010   -0.4930    0.0000 H   0  0  0  0  0  0  0  0  0  0  0  0
    5.7741    0.3539    0.0000 H   0  0  0  0  0  0  0  0  0  0  0  0
    4.2690   -1.4930    0.0000 H   0  0  0  0  0  0  0  0  0  0  0  0
    2.3291   -1.3730    0.0000 H   0  0  0  0  0  0  0  0  0  0  0  0
  4  1  1  6  0  0  0
  5  2  1  6  0  0  0
  3 13  1  0  0  0  0
  4  5  1  0  0  0  0
  4  6  1  0  0  0  0
  4 10  1  0  0  0  0
  5  7  1  0  0  0  0
  5 14  1  0  0  0  0
  6  8  1  0  0  0  0
  6 15  1  0  0  0  0
  6 16  1  0  0  0  0
  7  9  1  0  0  0  0
  7 17  1  0  0  0  0
  7 18  1  0  0  0  0
  8  9  2  0  0  0  0
  8 11  1  0  0  0  0
  9 12  1  0  0  0  0
 10 19  1  0  0  0  0
 10 20  1  0  0  0  0
 10 21  1  0  0  0  0
 11 22  1  0  0  0  0
 11 23  1  0  0  0  0
 11 24  1  0  0  0  0
 12 13  2  0  0  0  0
 12 25  1  0  0  0  0
 13 26  1  0  0  0  0
M  END
> <PUBCHEM_COMPOUND_CID>
6442565

> <PUBCHEM_COMPOUND_CANONICALIZED>
1

> <PUBCHEM_CACTVS_COMPLEXITY>
255

> <PUBCHEM_CACTVS_HBOND_ACCEPTOR>
0

> <PUBCHEM_CACTVS_HBOND_DONOR>
0

> <PUBCHEM_CACTVS_ROTATABLE_BOND>
1

> <PUBCHEM_CACTVS_SUBSKEYS>
AAADccBwAAAGAAAAAAAAAAAAAAAAAAAAAAAgAAAAAAAAAAAAAAAAGAIAAAAADAOAAEACAAAAAACAAiBCAAAAAAAgAAAICEAAAggIAAIBAAAAAAAAgAAIgAMAgIAOAAAAAAAAAAAAAAAAAAAAAAAAAAAAAA==

> <PUBCHEM_IUPAC_OPENEYE_NAME>
(4R,5S)-4,5-dichloro-1-[(E)-2-chlorovinyl]-2,4-dimethyl-cyclohexene

> <PUBCHEM_IUPAC_CAS_NAME>
(4R,5S)-4,5-dichloro-1-[(E)-2-chloroethenyl]-2,4-dimethylcyclohexene

> <PUBCHEM_IUPAC_NAME>
(4R,5S)-4,5-dichloro-1-[(E)-2-chloroethenyl]-2,4-dimethylcyclohexene

> <PUBCHEM_IUPAC_SYSTEMATIC_NAME>
(4R,5S)-4,5-bis(chloranyl)-1-[(E)-2-chloranylethenyl]-2,4-dimethyl-cyclohexene

> <PUBCHEM_IUPAC_TRADITIONAL_NAME>
(4R,5S)-4,5-dichloro-1-[(E)-2-chlorovinyl]-2,4-dimethyl-cyclohexene

> <PUBCHEM_IUPAC_INCHI>
InChI=1S/C10H13Cl3/c1-7-6-10(2,13)9(12)5-8(7)3-4-11/h3-4,9H,5-6H2,1-2H3/b4-3+/t9-,10+/m0/s1

> <PUBCHEM_IUPAC_INCHIKEY>
LAOVFJOKZZYETK-FCVPOFOPSA-N

> <PUBCHEM_XLOGP3_AA>
3.4

> <PUBCHEM_EXACT_MASS>
238.008283

> <PUBCHEM_MOLECULAR_FORMULA>
C10H13Cl3

> <PUBCHEM_MOLECULAR_WEIGHT>
239.56922

> <PUBCHEM_OPENEYE_CAN_SMILES>
CC1=C(CC(C(C1)(C)Cl)Cl)C=CCl

> <PUBCHEM_OPENEYE_ISO_SMILES>
CC1=C(C[C@@H]([C@](C1)(C)Cl)Cl)/C=C/Cl

> <PUBCHEM_CACTVS_TPSA>
0

> <PUBCHEM_MONOISOTOPIC_WEIGHT>
238.008283

> <PUBCHEM_TOTAL_CHARGE>
0

> <PUBCHEM_HEAVY_ATOM_COUNT>
13

> <PUBCHEM_ATOM_DEF_STEREO_COUNT>
2

> <PUBCHEM_ATOM_UDEF_STEREO_COUNT>
0

> <PUBCHEM_BOND_DEF_STEREO_COUNT>
1

> <PUBCHEM_BOND_UDEF_STEREO_COUNT>
0

> <PUBCHEM_ISOTOPIC_ATOM_COUNT>
0

> <PUBCHEM_COMPONENT_COUNT>
1

> <PUBCHEM_CACTVS_TAUTO_COUNT>
1

> <PUBCHEM_COORDINATE_TYPE>
1
5
255

> <PUBCHEM_BONDANNOTATIONS>
4  1  6
5  2  6

$$$$

