9845244
  -OEChem-07051213113D

 31 32  0     1  0  0  0  0  0999 V2000
    2.1514    0.8918   -1.6970 O   0  0  0  0  0  0  0  0  0  0  0  0
    0.0367   -2.8796   -0.1410 O   0  0  0  0  0  0  0  0  0  0  0  0
   -3.8996    0.7732    0.1903 O   0  0  0  0  0  0  0  0  0  0  0  0
    2.0527    1.0428    1.8075 O   0  0  0  0  0  0  0  0  0  0  0  0
    1.6695    0.4150   -0.4614 C   0  0  1  0  0  0  0  0  0  0  0  0
    0.2019    0.7141   -0.3016 C   0  0  0  0  0  0  0  0  0  0  0  0
   -0.5111   -0.4901   -0.1650 C   0  0  0  0  0  0  0  0  0  0  0  0
    1.6782   -1.0950   -0.4098 C   0  0  0  0  0  0  0  0  0  0  0  0
    0.4401   -1.5864   -0.2355 C   0  0  0  0  0  0  0  0  0  0  0  0
    2.5026    0.9392    0.6675 C   0  0  0  0  0  0  0  0  0  0  0  0
   -0.4481    1.9369   -0.2748 C   0  0  0  0  0  0  0  0  0  0  0  0
   -1.8854   -0.4924    0.0004 C   0  0  0  0  0  0  0  0  0  0  0  0
   -2.5467    0.7382    0.0282 C   0  0  0  0  0  0  0  0  0  0  0  0
   -1.8347    1.9418   -0.1085 C   0  0  0  0  0  0  0  0  0  0  0  0
    3.9180    1.3306    0.3390 C   0  0  0  0  0  0  0  0  0  0  0  0
    1.0429   -3.7010    0.4381 C   0  0  0  0  0  0  0  0  0  0  0  0
   -4.5684   -0.4791    0.3237 C   0  0  0  0  0  0  0  0  0  0  0  0
    2.5814   -1.6797   -0.5165 H   0  0  0  0  0  0  0  0  0  0  0  0
    0.0989    2.8674   -0.3792 H   0  0  0  0  0  0  0  0  0  0  0  0
   -2.3795   -1.4513    0.1001 H   0  0  0  0  0  0  0  0  0  0  0  0
   -2.3654    2.8906   -0.0844 H   0  0  0  0  0  0  0  0  0  0  0  0
    2.9369    0.3772   -1.9495 H   0  0  0  0  0  0  0  0  0  0  0  0
    4.4416    0.4933   -0.1291 H   0  0  0  0  0  0  0  0  0  0  0  0
    3.9243    2.2044   -0.3170 H   0  0  0  0  0  0  0  0  0  0  0  0
    4.4447    1.5878    1.2628 H   0  0  0  0  0  0  0  0  0  0  0  0
    0.5916   -4.6749    0.6531 H   0  0  0  0  0  0  0  0  0  0  0  0
    1.4101   -3.2915    1.3865 H   0  0  0  0  0  0  0  0  0  0  0  0
    1.8669   -3.8719   -0.2630 H   0  0  0  0  0  0  0  0  0  0  0  0
   -4.4657   -1.0893   -0.5801 H   0  0  0  0  0  0  0  0  0  0  0  0
   -5.6354   -0.2643    0.4436 H   0  0  0  0  0  0  0  0  0  0  0  0
   -4.2478   -1.0134    1.2245 H   0  0  0  0  0  0  0  0  0  0  0  0
  1  5  1  0  0  0  0
  1 22  1  0  0  0  0
  2  9  1  0  0  0  0
  2 16  1  0  0  0  0
  3 13  1  0  0  0  0
  3 17  1  0  0  0  0
  4 10  2  0  0  0  0
  5  6  1  0  0  0  0
  5  8  1  0  0  0  0
  5 10  1  0  0  0  0
  6  7  2  0  0  0  0
  6 11  1  0  0  0  0
  7  9  1  0  0  0  0
  7 12  1  0  0  0  0
  8  9  2  0  0  0  0
  8 18  1  0  0  0  0
 10 15  1  0  0  0  0
 11 14  2  0  0  0  0
 11 19  1  0  0  0  0
 12 13  2  0  0  0  0
 12 20  1  0  0  0  0
 13 14  1  0  0  0  0
 14 21  1  0  0  0  0
 15 23  1  0  0  0  0
 15 24  1  0  0  0  0
 15 25  1  0  0  0  0
 16 26  1  0  0  0  0
 16 27  1  0  0  0  0
 16 28  1  0  0  0  0
 17 29  1  0  0  0  0
 17 30  1  0  0  0  0
 17 31  1  0  0  0  0
M  END
> <PUBCHEM_COMPOUND_CID>
9845244

> <PUBCHEM_CONFORMER_RMSD>
0.6

> <PUBCHEM_CONFORMER_DIVERSEORDER>
9
7
1
14
8
10
6
12
3
4
13
11
2
15
5

> <PUBCHEM_MMFF94_PARTIAL_CHARGES>
22
1 -0.68
10 0.45
11 -0.15
12 -0.15
13 0.08
14 -0.15
15 0.06
16 0.28
17 0.28
18 0.15
19 0.15
2 -0.36
20 0.15
21 0.15
22 0.4
3 -0.36
4 -0.57
5 0.62
6 -0.14
7 0.03
8 -0.29
9 0.05

> <PUBCHEM_EFFECTIVE_ROTOR_COUNT>
3.2

> <PUBCHEM_PHARMACOPHORE_FEATURES>
7
1 1 acceptor
1 1 donor
1 2 acceptor
1 3 acceptor
1 4 acceptor
5 5 6 7 8 9 rings
6 6 7 11 12 13 14 rings

> <PUBCHEM_HEAVY_ATOM_COUNT>
17

> <PUBCHEM_ATOM_DEF_STEREO_COUNT>
0

> <PUBCHEM_ATOM_UDEF_STEREO_COUNT>
1

> <PUBCHEM_BOND_DEF_STEREO_COUNT>
0

> <PUBCHEM_BOND_UDEF_STEREO_COUNT>
0

> <PUBCHEM_ISOTOPIC_ATOM_COUNT>
0

> <PUBCHEM_COMPONENT_COUNT>
1

> <PUBCHEM_CACTVS_TAUTO_COUNT>
2

> <PUBCHEM_CONFORMER_ID>
009639FC00000009

> <PUBCHEM_MMFF94_ENERGY>
56.2882

> <PUBCHEM_FEATURE_SELFOVERLAP>
35.604

> <PUBCHEM_SHAPE_FINGERPRINT>
10967382 1 18411134744898606303
11132069 177 18341891866568577393
11680986 33 17907871943352314485
12839892 36 18340502096397788043
13027679 85 17256255267875459094
13083527 12 18125466308281250147
13140716 1 18411418418793532347
13538477 17 17914616051535345724
14178342 30 18410289203714639153
14787075 74 17678746626864725513
15207287 21 17917430895960408185
15309172 13 18411132502867675073
15775835 57 18186803569126330244
15852999 172 17913802610367548381
16945 1 18412259528251225517
19591789 44 18410009978984741438
20028762 73 17828756241117451055
20510252 161 18333730212745759937
20511035 2 17904210569690024917
20559304 39 18193274324021011331
20645476 183 17772454712580247828
20645477 70 18115313413978766461
21501502 16 18049996989854814957
21524375 3 18259706679242904270
22224240 67 18261959535855941041
2334 1 18338793403741019999
23402539 116 18189908516959132628
23419403 2 16462258330539870872
23493267 7 17559935689088661576
23557571 272 17757819045169546108
23559900 14 18199189675187752589
2748010 2 18339345397264498287
305870 269 18338806709633689642
3250762 1 17838066157591711332
33824 294 18410855477930776571
34934 24 18335708252171536413
427121 178 18187646868817170706
43471831 8 18412829113649485762
5104073 3 18194390312114033105
53812653 166 18260267417050901800
5493415 88 17835242620390030235
568465 68 18193538005306690689
5902787 121 17621320568643302523
7364860 26 18191588768316345422
81228 2 17687209507433345242

> <PUBCHEM_SHAPE_MULTIPOLES>
326.37
5.67
2.94
0.97
4.21
3.36
0.06
-2.11
1.04
-1.11
0.24
-0.69
-0.27
0.22

> <PUBCHEM_SHAPE_SELFOVERLAP>
706.514

> <PUBCHEM_SHAPE_VOLUME>
182.9

> <PUBCHEM_COORDINATE_TYPE>
2
5
10

$$$$

