12442
  -OEChem-06261206563D

 18 18  0     0  0  0  0  0  0999 V2000
    0.6977   -3.1340    0.0485 Cl  0  0  0  0  0  0  0  0  0  0  0  0
    0.6975    3.1339   -0.0491 Cl  0  0  0  0  0  0  0  0  0  0  0  0
    3.4440   -1.5732    0.0255 Cl  0  0  0  0  0  0  0  0  0  0  0  0
    3.4439    1.5734   -0.0248 Cl  0  0  0  0  0  0  0  0  0  0  0  0
   -2.2030   -1.6785   -1.2318 O   0  0  0  0  0  0  0  0  0  0  0  0
   -2.2028    1.6787    1.2320 O   0  0  0  0  0  0  0  0  0  0  0  0
   -2.3729   -1.7399    1.0340 O   0  0  0  0  0  0  0  0  0  0  0  0
   -2.3732    1.7396   -1.0338 O   0  0  0  0  0  0  0  0  0  0  0  0
   -0.4781   -0.6973    0.0110 C   0  0  0  0  0  0  0  0  0  0  0  0
   -0.4781    0.6973   -0.0108 C   0  0  0  0  0  0  0  0  0  0  0  0
    0.7300   -1.3947    0.0217 C   0  0  0  0  0  0  0  0  0  0  0  0
    0.7299    1.3946   -0.0220 C   0  0  0  0  0  0  0  0  0  0  0  0
    1.9379   -0.6973    0.0107 C   0  0  0  0  0  0  0  0  0  0  0  0
    1.9379    0.6973   -0.0112 C   0  0  0  0  0  0  0  0  0  0  0  0
   -1.7554   -1.4107    0.0221 C   0  0  0  0  0  0  0  0  0  0  0  0
   -1.7555    1.4106   -0.0219 C   0  0  0  0  0  0  0  0  0  0  0  0
   -3.0600   -2.1557   -1.2202 H   0  0  0  0  0  0  0  0  0  0  0  0
   -3.0598    2.1559    1.2204 H   0  0  0  0  0  0  0  0  0  0  0  0
  1 11  1  0  0  0  0
  2 12  1  0  0  0  0
  3 13  1  0  0  0  0
  4 14  1  0  0  0  0
  5 15  1  0  0  0  0
  5 17  1  0  0  0  0
  6 16  1  0  0  0  0
  6 18  1  0  0  0  0
  7 15  2  0  0  0  0
  8 16  2  0  0  0  0
  9 10  2  0  0  0  0
  9 11  1  0  0  0  0
  9 15  1  0  0  0  0
 10 12  1  0  0  0  0
 10 16  1  0  0  0  0
 11 13  2  0  0  0  0
 12 14  2  0  0  0  0
 13 14  1  0  0  0  0
M  END
> <PUBCHEM_COMPOUND_CID>
12442

> <PUBCHEM_CONFORMER_RMSD>
0.6

> <PUBCHEM_CONFORMER_DIVERSEORDER>
1

> <PUBCHEM_MMFF94_PARTIAL_CHARGES>
18
1 -0.18
10 0.09
11 0.18
12 0.18
13 0.18
14 0.18
15 0.63
16 0.63
17 0.5
18 0.5
2 -0.18
3 -0.18
4 -0.18
5 -0.65
6 -0.65
7 -0.57
8 -0.57
9 0.09

> <PUBCHEM_EFFECTIVE_ROTOR_COUNT>
2

> <PUBCHEM_PHARMACOPHORE_FEATURES>
7
1 5 acceptor
1 6 acceptor
1 7 acceptor
1 8 acceptor
3 5 7 15 anion
3 6 8 16 anion
6 9 10 11 12 13 14 rings

> <PUBCHEM_HEAVY_ATOM_COUNT>
16

> <PUBCHEM_ATOM_DEF_STEREO_COUNT>
0

> <PUBCHEM_ATOM_UDEF_STEREO_COUNT>
0

> <PUBCHEM_BOND_DEF_STEREO_COUNT>
0

> <PUBCHEM_BOND_UDEF_STEREO_COUNT>
0

> <PUBCHEM_ISOTOPIC_ATOM_COUNT>
0

> <PUBCHEM_COMPONENT_COUNT>
1

> <PUBCHEM_CACTVS_TAUTO_COUNT>
1

> <PUBCHEM_CONFORMER_ID>
0000309A00000001

> <PUBCHEM_MMFF94_ENERGY>
54.2313

> <PUBCHEM_FEATURE_SELFOVERLAP>
35.636

> <PUBCHEM_SHAPE_FINGERPRINT>
10967382 1 18122626317001316132
11206711 2 18267866086207820964
11680986 33 18410296899647414233
12423570 1 16815187273546610247
12524768 44 18193555807545283238
13140716 1 18410855507858086168
13380535 21 18339067263993694908
13380535 76 18123195859482130166
14614273 12 18271814509782995373
14790565 3 17908119015636514837
16945 1 18122904502027790312
193761 8 18411136939637203590
20510252 161 18189896418421751992
20588541 1 18122623027014344782
21501502 16 18410011035588361478
2334 1 18410855430511744644
23388829 49 18119533141499786220
23402539 116 18118412743704421966
23419403 2 16319021346989903529
23493267 7 17272029574530909089
23526114 1 18411139134618706036
23559900 14 18190173676568980422
2748010 2 18410293614403322302
353137 74 18196659492705218384

> <PUBCHEM_SHAPE_MULTIPOLES>
313.27
4.31
3.56
0.85
1.69
0
0
0
0
0.19
0
-0.53
0
-0.05

> <PUBCHEM_SHAPE_SELFOVERLAP>
635.186

> <PUBCHEM_SHAPE_VOLUME>
186.3

> <PUBCHEM_COORDINATE_TYPE>
2
5
10

$$$$

