440452
  -OEChem-07051212493D

 46 47  0     1  0  0  0  0  0999 V2000
   -0.2178   -0.1260   -2.2531 S   0  0  0  0  0  0  0  0  0  0  0  0
    1.0722    2.3913    1.4364 O   0  0  0  0  0  0  0  0  0  0  0  0
   -4.6435   -0.2679   -0.6860 O   0  0  0  0  0  0  0  0  0  0  0  0
   -1.1142    0.0368    2.5625 O   0  0  0  0  0  0  0  0  0  0  0  0
    3.8712    2.3815    0.0238 O   0  0  0  0  0  0  0  0  0  0  0  0
   -2.5122    1.8287    2.3071 O   0  0  0  0  0  0  0  0  0  0  0  0
   -6.1141   -1.5744    0.5255 O   0  0  0  0  0  0  0  0  0  0  0  0
    3.8285   -2.7989   -0.7229 O   0  0  0  0  0  0  0  0  0  0  0  0
    1.4737   -3.4248   -0.0668 O   0  0  0  0  0  0  0  0  0  0  0  0
    1.4844   -1.8463    1.5985 O   0  0  0  0  0  0  0  0  0  0  0  0
   -0.4270    1.3962   -0.0878 N   0  0  0  0  0  0  0  0  0  0  0  0
    2.3928    1.1552   -1.2758 N   0  0  0  0  0  0  0  0  0  0  0  0
   -0.1571    1.5197   -1.5088 C   0  0  1  0  0  0  0  0  0  0  0  0
    1.2310    2.0439   -1.0994 C   0  0  1  0  0  0  0  0  0  0  0  0
    0.6755    2.0430    0.3488 C   0  0  0  0  0  0  0  0  0  0  0  0
   -1.5212    0.7739    0.4214 C   0  0  0  0  0  0  0  0  0  0  0  0
   -2.2956   -0.0326   -0.3428 C   0  0  0  0  0  0  0  0  0  0  0  0
   -1.9625   -0.3934   -1.7887 C   0  0  0  0  0  0  0  0  0  0  0  0
   -3.5698   -0.6930    0.1265 C   0  0  0  0  0  0  0  0  0  0  0  0
    3.6253    1.4112   -0.6878 C   0  0  0  0  0  0  0  0  0  0  0  0
   -1.7898    0.9635    1.8547 C   0  0  0  0  0  0  0  0  0  0  0  0
    4.6560    0.3560   -1.0535 C   0  0  0  0  0  0  0  0  0  0  0  0
    5.2268   -0.3919    0.1531 C   0  0  0  0  0  0  0  0  0  0  0  0
    4.1616   -1.0975    0.9951 C   0  0  0  0  0  0  0  0  0  0  0  0
   -5.8761   -0.7866   -0.3799 C   0  0  0  0  0  0  0  0  0  0  0  0
    3.4053   -2.1578    0.2273 C   0  0  0  0  0  0  0  0  0  0  0  0
   -6.9128   -0.2494   -1.3193 C   0  0  0  0  0  0  0  0  0  0  0  0
    2.0093   -2.4603    0.6920 C   0  0  0  0  0  0  0  0  0  0  0  0
   -0.7879    2.2716   -1.9979 H   0  0  0  0  0  0  0  0  0  0  0  0
    1.4419    3.0514   -1.4767 H   0  0  0  0  0  0  0  0  0  0  0  0
    2.2909    0.3212   -1.8489 H   0  0  0  0  0  0  0  0  0  0  0  0
   -2.5987    0.1845   -2.4678 H   0  0  0  0  0  0  0  0  0  0  0  0
   -2.1643   -1.4556   -1.9628 H   0  0  0  0  0  0  0  0  0  0  0  0
   -3.7951   -0.4508    1.1703 H   0  0  0  0  0  0  0  0  0  0  0  0
   -3.4575   -1.7822    0.0549 H   0  0  0  0  0  0  0  0  0  0  0  0
    4.2488   -0.3555   -1.7797 H   0  0  0  0  0  0  0  0  0  0  0  0
    5.4714    0.8775   -1.5699 H   0  0  0  0  0  0  0  0  0  0  0  0
    5.9656   -1.1212   -0.2000 H   0  0  0  0  0  0  0  0  0  0  0  0
    5.7611    0.3174    0.7970 H   0  0  0  0  0  0  0  0  0  0  0  0
    3.4601   -0.3530    1.3850 H   0  0  0  0  0  0  0  0  0  0  0  0
    4.6346   -1.5880    1.8530 H   0  0  0  0  0  0  0  0  0  0  0  0
   -1.2655    0.1268    3.5276 H   0  0  0  0  0  0  0  0  0  0  0  0
   -7.8881   -0.6745   -1.0656 H   0  0  0  0  0  0  0  0  0  0  0  0
   -6.9704    0.8376   -1.2240 H   0  0  0  0  0  0  0  0  0  0  0  0
   -6.6650   -0.5335   -2.3451 H   0  0  0  0  0  0  0  0  0  0  0  0
    0.5504   -3.6317    0.1920 H   0  0  0  0  0  0  0  0  0  0  0  0
  1 13  1  0  0  0  0
  1 18  1  0  0  0  0
  2 15  2  0  0  0  0
  3 19  1  0  0  0  0
  3 25  1  0  0  0  0
  4 21  1  0  0  0  0
  4 42  1  0  0  0  0
  5 20  2  0  0  0  0
  6 21  2  0  0  0  0
  7 25  2  0  0  0  0
  8 26  2  0  0  0  0
  9 28  1  0  0  0  0
  9 46  1  0  0  0  0
 10 28  2  0  0  0  0
 11 13  1  0  0  0  0
 11 15  1  0  0  0  0
 11 16  1  0  0  0  0
 12 14  1  0  0  0  0
 12 20  1  0  0  0  0
 12 31  1  0  0  0  0
 13 14  1  0  0  0  0
 13 29  1  0  0  0  0
 14 15  1  0  0  0  0
 14 30  1  0  0  0  0
 16 17  2  0  0  0  0
 16 21  1  0  0  0  0
 17 18  1  0  0  0  0
 17 19  1  0  0  0  0
 18 32  1  0  0  0  0
 18 33  1  0  0  0  0
 19 34  1  0  0  0  0
 19 35  1  0  0  0  0
 20 22  1  0  0  0  0
 22 23  1  0  0  0  0
 22 36  1  0  0  0  0
 22 37  1  0  0  0  0
 23 24  1  0  0  0  0
 23 38  1  0  0  0  0
 23 39  1  0  0  0  0
 24 26  1  0  0  0  0
 24 40  1  0  0  0  0
 24 41  1  0  0  0  0
 25 27  1  0  0  0  0
 26 28  1  0  0  0  0
 27 43  1  0  0  0  0
 27 44  1  0  0  0  0
 27 45  1  0  0  0  0
M  END
> <PUBCHEM_COMPOUND_CID>
440452

> <PUBCHEM_CONFORMER_RMSD>
1

> <PUBCHEM_CONFORMER_DIVERSEORDER>
1
106
90
37
68
81
138
51
124
80
40
126
136
93
101
145
41
91
73
28
118
130
87
3
92
59
125
110
15
144
99
88
89
11
84
140
102
146
17
122
131
45
52
6
117
61
16
120
22
85
38
123
27
142
98
44
137
14
113
79
139
5
95
72
105
128
143
69
9
42
147
133
25
121
65
134
53
57
78
135
26
103
19
63
71
20
86
116
100
21
129
46
83
108
36
132
30
75
67
112
55
109
66
43
115
76
148
13
8
127
107
29
104
141
70
10
119
12
77
111
23
114
56
74
4
7
35
97
96
31
24
62
94
58
48
33
34
60
2
50
32
18
49
47
54
82
39
64

> <PUBCHEM_MMFF94_PARTIAL_CHARGES>
30
1 -0.45
10 -0.57
11 -0.39
12 -0.65
13 0.44
14 0.28
15 0.58
16 0.12
17 -0.28
18 0.37
19 0.42
2 -0.57
20 0.57
21 0.71
22 0.06
24 0.06
25 0.66
26 0.51
27 0.06
28 0.72
3 -0.43
31 0.37
4 -0.65
42 0.5
46 0.5
5 -0.57
6 -0.57
7 -0.57
8 -0.57
9 -0.65

> <PUBCHEM_EFFECTIVE_ROTOR_COUNT>
11.6

> <PUBCHEM_PHARMACOPHORE_FEATURES>
13
1 10 acceptor
1 12 donor
1 2 acceptor
1 4 acceptor
1 5 acceptor
1 6 acceptor
1 7 acceptor
1 8 acceptor
1 9 acceptor
3 4 6 21 anion
3 9 10 28 anion
4 11 13 14 15 rings
6 1 11 13 16 17 18 rings

> <PUBCHEM_HEAVY_ATOM_COUNT>
28

> <PUBCHEM_ATOM_DEF_STEREO_COUNT>
2

> <PUBCHEM_ATOM_UDEF_STEREO_COUNT>
0

> <PUBCHEM_BOND_DEF_STEREO_COUNT>
0

> <PUBCHEM_BOND_UDEF_STEREO_COUNT>
0

> <PUBCHEM_ISOTOPIC_ATOM_COUNT>
0

> <PUBCHEM_COMPONENT_COUNT>
1

> <PUBCHEM_CACTVS_TAUTO_COUNT>
4

> <PUBCHEM_CONFORMER_ID>
0006B88400000001

> <PUBCHEM_MMFF94_ENERGY>
60.816

> <PUBCHEM_FEATURE_SELFOVERLAP>
66.353

> <PUBCHEM_SHAPE_FINGERPRINT>
11135609 187 18198059183993246508
11595378 159 17313384568941132765
11796584 16 18187922833947024143
12467345 10 18408604781749379219
12592029 89 18201158767253075309
12596599 1 18044650030570768158
12596602 18 17967248706720841064
12788726 201 17749100098191146785
13402501 40 17703790297441331906
13533116 47 18333731299393077820
14251757 17 17559975370629171911
14429115 67 18334572481643994150
14705955 166 14851595626521422291
15119646 104 18410852183706437995
15183329 4 18272654563043191901
15664445 248 16200152079706501684
17492 54 17988348313815529486
20567600 247 18339365146152002575
20645477 70 18131634478455611676
21033648 29 14346076494017939760
21285901 2 17346324812096371247
21421861 104 18115004391055587939
23559900 14 18130793326643668765
4340502 62 18267026059593302996
46194498 28 17274823510844347485
463206 1 18340209561954012855
6287921 2 17973149910508610022
77296 10 18339358677878513733

> <PUBCHEM_SHAPE_MULTIPOLES>
517.29
11.88
2.93
1.98
14.06
1.21
0.53
4.92
-2.26
-3.37
0.39
0.95
-0.54
-0.81

> <PUBCHEM_SHAPE_SELFOVERLAP>
1062.175

> <PUBCHEM_SHAPE_VOLUME>
296.9

> <PUBCHEM_COORDINATE_TYPE>
2
5
10

$$$$

