13356
  -OEChem-06261209183D

 14 13  0     0  0  0  0  0  0999 V2000
    0.0777   -2.0869    0.4636 N   0  0  0  0  0  0  0  0  0  0  0  0
    3.1592    0.0097   -1.1142 N   0  0  0  0  0  0  0  0  0  0  0  0
   -3.1142   -0.8521   -0.6829 N   0  0  0  0  0  0  0  0  0  0  0  0
   -0.6004    2.6905    0.1915 N   0  0  0  0  0  0  0  0  0  0  0  0
    0.1654   -0.7133    0.4815 C   0  0  0  0  0  0  0  0  0  0  0  0
    1.5225   -0.1945    0.9347 C   0  0  0  0  0  0  0  0  0  0  0  0
   -0.8440    0.1136    0.1096 C   0  0  0  0  0  0  0  0  0  0  0  0
    2.4354   -0.0812   -0.2117 C   0  0  0  0  0  0  0  0  0  0  0  0
   -2.0969   -0.4211   -0.3276 C   0  0  0  0  0  0  0  0  0  0  0  0
   -0.7046    1.5352    0.1555 C   0  0  0  0  0  0  0  0  0  0  0  0
    1.4351    0.7744    1.4391 H   0  0  0  0  0  0  0  0  0  0  0  0
    1.9497   -0.8695    1.6871 H   0  0  0  0  0  0  0  0  0  0  0  0
    0.8780   -2.6457    0.7324 H   0  0  0  0  0  0  0  0  0  0  0  0
   -0.7751   -2.5447    0.1686 H   0  0  0  0  0  0  0  0  0  0  0  0
  1  5  1  0  0  0  0
  1 13  1  0  0  0  0
  1 14  1  0  0  0  0
  2  8  3  0  0  0  0
  3  9  3  0  0  0  0
  4 10  3  0  0  0  0
  5  6  1  0  0  0  0
  5  7  2  0  0  0  0
  6  8  1  0  0  0  0
  6 11  1  0  0  0  0
  6 12  1  0  0  0  0
  7  9  1  0  0  0  0
  7 10  1  0  0  0  0
M  END
> <PUBCHEM_COMPOUND_CID>
13356

> <PUBCHEM_CONFORMER_RMSD>
0.4

> <PUBCHEM_CONFORMER_DIVERSEORDER>
2
5
3
6
4
1

> <PUBCHEM_MMFF94_PARTIAL_CHARGES>
12
1 -0.9
10 0.49
13 0.4
14 0.4
2 -0.56
3 -0.56
4 -0.56
5 -0.04
6 0.34
7 0.13
8 0.36
9 0.49

> <PUBCHEM_EFFECTIVE_ROTOR_COUNT>
1

> <PUBCHEM_PHARMACOPHORE_FEATURES>
5
1 1 cation
1 1 donor
1 2 acceptor
1 3 acceptor
1 4 acceptor

> <PUBCHEM_HEAVY_ATOM_COUNT>
10

> <PUBCHEM_ATOM_DEF_STEREO_COUNT>
0

> <PUBCHEM_ATOM_UDEF_STEREO_COUNT>
0

> <PUBCHEM_BOND_DEF_STEREO_COUNT>
0

> <PUBCHEM_BOND_UDEF_STEREO_COUNT>
0

> <PUBCHEM_ISOTOPIC_ATOM_COUNT>
0

> <PUBCHEM_COMPONENT_COUNT>
1

> <PUBCHEM_CACTVS_TAUTO_COUNT>
3

> <PUBCHEM_CONFORMER_ID>
0000342C00000002

> <PUBCHEM_MMFF94_ENERGY>
13.2353

> <PUBCHEM_FEATURE_SELFOVERLAP>
25.371

> <PUBCHEM_SHAPE_FINGERPRINT>
12897270 3 18409171029847397766
17775402 16 18201163165204913757
21040471 1 17687478170290581544
21293036 1 18271244911067225367
228727 97 18343578559959626376
23402539 116 18337121102832391614
23552423 10 18055359299178391867
2748010 2 17980204075952572091
4369600 1 18339649948968257643
449060 23 17894635812140138055
5084963 1 18186800318141938530

> <PUBCHEM_SHAPE_MULTIPOLES>
185.87
3.8
1.96
0.89
0.82
1.12
-0.05
-0.81
-1.61
-0.78
0.28
0.38
-0.09
-0.29

> <PUBCHEM_SHAPE_SELFOVERLAP>
364.511

> <PUBCHEM_SHAPE_VOLUME>
105.1

> <PUBCHEM_COORDINATE_TYPE>
2
5
10

$$$$

