440923
  -OEChem-07051212512D

 49 49  0     1  0  0  0  0  0999 V2000
    5.0420   -2.0950    0.0000 P   0  0  3  0  0  0  0  0  0  0  0  0
    4.1760   -3.5950    0.0000 P   0  0  3  0  0  0  0  0  0  0  0  0
    3.3100   -5.0950    0.0000 P   0  0  0  0  0  0  0  0  0  0  0  0
    5.0420   -1.0950    0.0000 O   0  0  0  0  0  0  0  0  0  0  0  0
    5.0420    0.9050    0.0000 O   0  0  0  0  0  0  0  0  0  0  0  0
    7.6401    0.4050    0.0000 O   0  0  0  0  0  0  0  0  0  0  0  0
    5.9081    2.4050    0.0000 O   0  0  0  0  0  0  0  0  0  0  0  0
    5.0420   -3.0950    0.0000 O   0  0  0  0  0  0  0  0  0  0  0  0
    4.0420   -2.0950    0.0000 O   0  0  0  0  0  0  0  0  0  0  0  0
    6.0420   -2.0950    0.0000 O   0  0  0  0  0  0  0  0  0  0  0  0
    3.3100   -4.0950    0.0000 O   0  0  0  0  0  0  0  0  0  0  0  0
    4.6760   -4.4610    0.0000 O   0  0  0  0  0  0  0  0  0  0  0  0
    9.3722    6.4050    0.0000 O   0  0  0  0  0  0  0  0  0  0  0  0
    3.6760   -2.7290    0.0000 O   0  0  0  0  0  0  0  0  0  0  0  0
    3.3100   -6.0950    0.0000 O   0  0  0  0  0  0  0  0  0  0  0  0
    2.3100   -5.0950    0.0000 O   0  0  0  0  0  0  0  0  0  0  0  0
    4.3100   -5.0950    0.0000 O   0  0  0  0  0  0  0  0  0  0  0  0
    7.6401    3.4050    0.0000 N   0  0  0  0  0  0  0  0  0  0  0  0
    9.3722    3.4050    0.0000 N   0  0  0  0  0  0  0  0  0  0  0  0
   10.2382    4.9050    0.0000 N   0  0  0  0  0  0  0  0  0  0  0  0
    7.6401    5.4050    0.0000 N   0  0  0  0  0  0  0  0  0  0  0  0
   11.1042    3.4050    0.0000 N   0  0  0  0  0  0  0  0  0  0  0  0
    5.9081    0.4050    0.0000 C   0  0  3  0  0  0  0  0  0  0  0  0
    6.7741    0.9050    0.0000 C   0  0  3  0  0  0  0  0  0  0  0  0
    5.9081   -0.5950    0.0000 C   0  0  0  0  0  0  0  0  0  0  0  0
    6.7741    1.9050    0.0000 C   0  0  0  0  0  0  0  0  0  0  0  0
    7.6401    2.4050    0.0000 C   0  0  0  0  0  0  0  0  0  0  0  0
    8.5062    3.9050    0.0000 C   0  0  0  0  0  0  0  0  0  0  0  0
    8.5062    4.9050    0.0000 C   0  0  0  0  0  0  0  0  0  0  0  0
   10.2382    3.9050    0.0000 C   0  0  0  0  0  0  0  0  0  0  0  0
    9.3722    5.4050    0.0000 C   0  0  0  0  0  0  0  0  0  0  0  0
    5.9081    1.2550    0.0000 H   0  0  0  0  0  0  0  0  0  0  0  0
    6.7741    0.0550    0.0000 H   0  0  0  0  0  0  0  0  0  0  0  0
    6.1201   -1.1776    0.0000 H   0  0  0  0  0  0  0  0  0  0  0  0
    6.5187   -0.4873    0.0000 H   0  0  0  0  0  0  0  0  0  0  0  0
    7.8522    1.8224    0.0000 H   0  0  0  0  0  0  0  0  0  0  0  0
    8.2507    2.5127    0.0000 H   0  0  0  0  0  0  0  0  0  0  0  0
    7.1032    3.7150    0.0000 H   0  0  0  0  0  0  0  0  0  0  0  0
    4.5051    0.5950    0.0000 H   0  0  0  0  0  0  0  0  0  0  0  0
    7.6401   -0.2150    0.0000 H   0  0  0  0  0  0  0  0  0  0  0  0
    9.3722    2.7850    0.0000 H   0  0  0  0  0  0  0  0  0  0  0  0
    3.7320   -1.5581    0.0000 H   0  0  0  0  0  0  0  0  0  0  0  0
    7.6401    6.0250    0.0000 H   0  0  0  0  0  0  0  0  0  0  0  0
    7.1032    5.0950    0.0000 H   0  0  0  0  0  0  0  0  0  0  0  0
   11.6412    3.7150    0.0000 H   0  0  0  0  0  0  0  0  0  0  0  0
   11.1042    2.7850    0.0000 H   0  0  0  0  0  0  0  0  0  0  0  0
    5.2960   -4.4610    0.0000 H   0  0  0  0  0  0  0  0  0  0  0  0
    2.7731   -6.4050    0.0000 H   0  0  0  0  0  0  0  0  0  0  0  0
    2.0000   -4.5581    0.0000 H   0  0  0  0  0  0  0  0  0  0  0  0
  1  4  1  0  0  0  0
  1  8  1  0  0  0  0
  1  9  1  0  0  0  0
  1 10  2  0  0  0  0
  2  8  1  0  0  0  0
  2 11  1  0  0  0  0
  2 12  1  0  0  0  0
  2 14  2  0  0  0  0
  3 11  1  0  0  0  0
  3 15  1  0  0  0  0
  3 16  1  0  0  0  0
  3 17  2  0  0  0  0
  4 25  1  0  0  0  0
  5 23  1  0  0  0  0
  5 39  1  0  0  0  0
  6 24  1  0  0  0  0
  6 40  1  0  0  0  0
  7 26  2  0  0  0  0
  9 42  1  0  0  0  0
 12 47  1  0  0  0  0
 13 31  2  0  0  0  0
 15 48  1  0  0  0  0
 16 49  1  0  0  0  0
 18 27  1  0  0  0  0
 18 28  1  0  0  0  0
 18 38  1  0  0  0  0
 19 28  1  0  0  0  0
 19 30  1  0  0  0  0
 19 41  1  0  0  0  0
 20 30  2  0  0  0  0
 20 31  1  0  0  0  0
 21 29  1  0  0  0  0
 21 43  1  0  0  0  0
 21 44  1  0  0  0  0
 22 30  1  0  0  0  0
 22 45  1  0  0  0  0
 22 46  1  0  0  0  0
 23 24  1  0  0  0  0
 23 25  1  0  0  0  0
 23 32  1  0  0  0  0
 24 26  1  0  0  0  0
 24 33  1  0  0  0  0
 25 34  1  0  0  0  0
 25 35  1  0  0  0  0
 26 27  1  0  0  0  0
 27 36  1  0  0  0  0
 27 37  1  0  0  0  0
 28 29  2  0  0  0  0
 29 31  1  0  0  0  0
M  END
> <PUBCHEM_COMPOUND_CID>
440923

> <PUBCHEM_COMPOUND_CANONICALIZED>
1

> <PUBCHEM_CACTVS_COMPLEXITY>
928

> <PUBCHEM_CACTVS_HBOND_ACCEPTOR>
16

> <PUBCHEM_CACTVS_HBOND_DONOR>
10

> <PUBCHEM_CACTVS_ROTATABLE_BOND>
12

> <PUBCHEM_CACTVS_SUBSKEYS>
AAADceBzvAMAAAAAAAAAAAAAAAAAAAAAAAAgAAAAAAAAAAAAAAAAHgAQCCAACBzhgAYBAALAAxCoQIVQdIKAAAEAAAABAIHIAECBUBYAgCAEQAAPIAIBAECyEAIAAAAAAAAAAAAAAAAAAAAAAAAAAAAAAA==

> <PUBCHEM_IUPAC_OPENEYE_NAME>
[[5-[(2,5-diamino-4-oxo-1H-pyrimidin-6-yl)amino]-2,3-dihydroxy-4-oxo-pentoxy]-hydroxy-phosphoryl] phosphono hydrogen phosphate

> <PUBCHEM_IUPAC_CAS_NAME>
[[5-[(2,5-diamino-4-oxo-1H-pyrimidin-6-yl)amino]-2,3-dihydroxy-4-oxopentoxy]-hydroxyphosphoryl] phosphono hydrogen phosphate

> <PUBCHEM_IUPAC_NAME>
[[5-[(2,5-diamino-4-oxo-1H-pyrimidin-6-yl)amino]-2,3-dihydroxy-4-oxopentoxy]-hydroxyphosphoryl] phosphono hydrogen phosphate

> <PUBCHEM_IUPAC_SYSTEMATIC_NAME>
[[5-[[2,5-bis(azanyl)-4-oxidanylidene-1H-pyrimidin-6-yl]amino]-2,3-bis(oxidanyl)-4-oxidanylidene-pentoxy]-oxidanyl-phosphoryl] phosphono hydrogen phosphate

> <PUBCHEM_IUPAC_TRADITIONAL_NAME>
[[5-[(2,5-diamino-4-keto-1H-pyrimidin-6-yl)amino]-2,3-dihydroxy-4-keto-pentoxy]-hydroxy-phosphoryl] phosphono hydrogen phosphate

> <PUBCHEM_IUPAC_INCHI>
InChI=1S/C9H18N5O14P3/c10-5-7(13-9(11)14-8(5)18)12-1-3(15)6(17)4(16)2-26-30(22,23)28-31(24,25)27-29(19,20)21/h4,6,16-17H,1-2,10H2,(H,22,23)(H,24,25)(H2,19,20,21)(H4,11,12,13,14,18)

> <PUBCHEM_IUPAC_INCHIKEY>
ZJYBJXKSWQPKFW-UHFFFAOYSA-N

> <PUBCHEM_XLOGP3_AA>
-6.5

> <PUBCHEM_EXACT_MASS>
513.00631

> <PUBCHEM_MOLECULAR_FORMULA>
C9H18N5O14P3

> <PUBCHEM_MOLECULAR_WEIGHT>
513.185606

> <PUBCHEM_OPENEYE_CAN_SMILES>
C(C(C(C(=O)CNC1=C(C(=O)N=C(N1)N)N)O)O)OP(=O)(O)OP(=O)(O)OP(=O)(O)O

> <PUBCHEM_OPENEYE_ISO_SMILES>
C(C(C(C(=O)CNC1=C(C(=O)N=C(N1)N)N)O)O)OP(=O)(O)OP(=O)(O)OP(=O)(O)O

> <PUBCHEM_CACTVS_TPSA>
323

> <PUBCHEM_MONOISOTOPIC_WEIGHT>
513.00631

> <PUBCHEM_TOTAL_CHARGE>
0

> <PUBCHEM_HEAVY_ATOM_COUNT>
31

> <PUBCHEM_ATOM_DEF_STEREO_COUNT>
0

> <PUBCHEM_ATOM_UDEF_STEREO_COUNT>
2

> <PUBCHEM_BOND_DEF_STEREO_COUNT>
0

> <PUBCHEM_BOND_UDEF_STEREO_COUNT>
0

> <PUBCHEM_ISOTOPIC_ATOM_COUNT>
0

> <PUBCHEM_COMPONENT_COUNT>
1

> <PUBCHEM_CACTVS_TAUTO_COUNT>
457

> <PUBCHEM_COORDINATE_TYPE>
1
5
255

> <PUBCHEM_BONDANNOTATIONS>
19  28  8
19  30  8
20  30  8
20  31  8
23  32  3
24  33  3
28  29  8
29  31  8

$$$$

