6791
  -OEChem-06261201303D

 23 24  0     0  0  0  0  0  0999 V2000
   -2.5673   -0.0811   -0.0804 S   0  0  0  0  0  0  0  0  0  0  0  0
    2.9218    2.1012    0.0362 O   0  0  0  0  0  0  0  0  0  0  0  0
   -2.8205   -0.7290    1.3959 O   0  0  0  0  0  0  0  0  0  0  0  0
   -3.4233    1.0865   -0.1916 O   0  0  0  0  0  0  0  0  0  0  0  0
   -2.6203   -1.1469   -1.0640 O   0  0  0  0  0  0  0  0  0  0  0  0
    0.1961   -0.3910   -0.0235 C   0  0  0  0  0  0  0  0  0  0  0  0
   -0.9030    0.4831   -0.0445 C   0  0  0  0  0  0  0  0  0  0  0  0
    1.5057    0.1447    0.0043 C   0  0  0  0  0  0  0  0  0  0  0  0
    1.6777    1.5386    0.0101 C   0  0  0  0  0  0  0  0  0  0  0  0
   -0.7137    1.8655   -0.0380 C   0  0  0  0  0  0  0  0  0  0  0  0
    0.0243   -1.7848   -0.0296 C   0  0  0  0  0  0  0  0  0  0  0  0
    2.6049   -0.7291    0.0251 C   0  0  0  0  0  0  0  0  0  0  0  0
    0.5743    2.3922   -0.0110 C   0  0  0  0  0  0  0  0  0  0  0  0
    1.1277   -2.6382   -0.0083 C   0  0  0  0  0  0  0  0  0  0  0  0
    2.4157   -2.1114    0.0191 C   0  0  0  0  0  0  0  0  0  0  0  0
   -1.5429    2.5661   -0.0504 H   0  0  0  0  0  0  0  0  0  0  0  0
   -0.9411   -2.2740   -0.0005 H   0  0  0  0  0  0  0  0  0  0  0  0
    3.6318   -0.3755    0.0311 H   0  0  0  0  0  0  0  0  0  0  0  0
    0.7139    3.4699   -0.0055 H   0  0  0  0  0  0  0  0  0  0  0  0
    0.9820   -3.7147   -0.0027 H   0  0  0  0  0  0  0  0  0  0  0  0
    3.2740   -2.7769    0.0344 H   0  0  0  0  0  0  0  0  0  0  0  0
    3.5523    1.5082    0.4734 H   0  0  0  0  0  0  0  0  0  0  0  0
   -2.7316   -0.1042    2.1537 H   0  0  0  0  0  0  0  0  0  0  0  0
  1  3  1  0  0  0  0
  1  4  2  0  0  0  0
  1  5  2  0  0  0  0
  1  7  1  0  0  0  0
  2  9  1  0  0  0  0
  2 22  1  0  0  0  0
  3 23  1  0  0  0  0
  6  7  1  0  0  0  0
  6  8  1  0  0  0  0
  6 11  2  0  0  0  0
  7 10  2  0  0  0  0
  8  9  1  0  0  0  0
  8 12  2  0  0  0  0
  9 13  2  0  0  0  0
 10 13  1  0  0  0  0
 10 16  1  0  0  0  0
 11 14  1  0  0  0  0
 11 17  1  0  0  0  0
 12 15  1  0  0  0  0
 12 18  1  0  0  0  0
 13 19  1  0  0  0  0
 14 15  2  0  0  0  0
 14 20  1  0  0  0  0
 15 21  1  0  0  0  0
M  END
> <PUBCHEM_COMPOUND_CID>
6791

> <PUBCHEM_CONFORMER_RMSD>
0.4

> <PUBCHEM_CONFORMER_DIVERSEORDER>
1
2
3

> <PUBCHEM_MMFF94_PARTIAL_CHARGES>
21
1 1.49
10 -0.15
11 -0.15
12 -0.15
13 -0.15
14 -0.15
15 -0.15
16 0.15
17 0.15
18 0.15
19 0.15
2 -0.53
20 0.15
21 0.15
22 0.45
23 0.5
3 -0.68
4 -0.65
5 -0.65
7 -0.01
9 0.08

> <PUBCHEM_EFFECTIVE_ROTOR_COUNT>
1

> <PUBCHEM_PHARMACOPHORE_FEATURES>
7
1 2 donor
1 3 acceptor
1 4 acceptor
1 5 acceptor
4 1 3 4 5 anion
6 6 7 8 9 10 13 rings
6 6 8 11 12 14 15 rings

> <PUBCHEM_HEAVY_ATOM_COUNT>
15

> <PUBCHEM_ATOM_DEF_STEREO_COUNT>
0

> <PUBCHEM_ATOM_UDEF_STEREO_COUNT>
0

> <PUBCHEM_BOND_DEF_STEREO_COUNT>
0

> <PUBCHEM_BOND_UDEF_STEREO_COUNT>
0

> <PUBCHEM_ISOTOPIC_ATOM_COUNT>
0

> <PUBCHEM_COMPONENT_COUNT>
1

> <PUBCHEM_CACTVS_TAUTO_COUNT>
3

> <PUBCHEM_CONFORMER_ID>
00001A8700000001

> <PUBCHEM_MMFF94_ENERGY>
41.2273

> <PUBCHEM_FEATURE_SELFOVERLAP>
35.604

> <PUBCHEM_SHAPE_FINGERPRINT>
10967382 1 18410576179895576708
11471102 20 18339648948573213165
11471102 22 18341878676402310475
13140716 1 18410576201359857552
13380535 76 18194691362913069130
14251717 144 18337682935820191199
14648413 74 18341895229211673545
15219456 202 18272083886074125449
15309172 13 18194959639128439625
16945 1 18337673130251527230
17990270 104 18413110588673500323
193761 8 18194403531216403588
19591789 44 18195515996697438550
19868273 325 17907291405586982806
20201158 50 18270120252674989011
20645477 70 18408892845380106119
20871998 184 17540825317999388766
22721475 48 18194962074263866663
2334 1 18338518534323315948
23388829 49 18336276733425617314
23526114 1 18410016511344635967
23552423 10 18410296921243329677
23559900 14 15090019594993986518
2748010 2 18412268349966325948
54173680 148 17258215701308364130
7364860 26 18335704970220501056
81228 2 17617937375701203538
8809292 202 18129372881563074331

> <PUBCHEM_SHAPE_MULTIPOLES>
289.07
4.42
2.89
0.76
2.21
0.4
-0.08
-0.6
-0.08
-1.69
0.04
0.41
-0.18
0.04

> <PUBCHEM_SHAPE_SELFOVERLAP>
622.855

> <PUBCHEM_SHAPE_VOLUME>
159.4

> <PUBCHEM_COORDINATE_TYPE>
2
5
10

$$$$

