161734
  -OEChem-07051212582D

 26 26  0     1  0  0  0  0  0999 V2000
    5.4641    0.5600    0.0000 O   0  0  0  0  0  0  0  0  0  0  0  0
    2.0000   -1.4400    0.0000 O   0  0  0  0  0  0  0  0  0  0  0  0
    3.7320    0.5600    0.0000 C   0  0  2  0  0  0  0  0  0  0  0  0
    4.5981    0.0600    0.0000 C   0  0  1  0  0  0  0  0  0  0  0  0
    2.8660    0.0600    0.0000 C   0  0  0  0  0  0  0  0  0  0  0  0
    2.8660   -0.9400    0.0000 C   0  0  2  0  0  0  0  0  0  0  0  0
    3.7320    1.5600    0.0000 C   0  0  0  0  0  0  0  0  0  0  0  0
    4.5981   -0.9400    0.0000 C   0  0  0  0  0  0  0  0  0  0  0  0
    3.7320   -1.4400    0.0000 C   0  0  0  0  0  0  0  0  0  0  0  0
    4.5981    2.0600    0.0000 C   0  0  0  0  0  0  0  0  0  0  0  0
    2.0000    0.5600    0.0000 C   0  0  0  0  0  0  0  0  0  0  0  0
    2.8660    2.0600    0.0000 C   0  0  0  0  0  0  0  0  0  0  0  0
    4.2690    0.8700    0.0000 H   0  0  0  0  0  0  0  0  0  0  0  0
    4.5981    0.6800    0.0000 H   0  0  0  0  0  0  0  0  0  0  0  0
    2.3291   -0.6300    0.0000 H   0  0  0  0  0  0  0  0  0  0  0  0
    5.1350   -1.2500    0.0000 H   0  0  0  0  0  0  0  0  0  0  0  0
    3.7320   -2.0600    0.0000 H   0  0  0  0  0  0  0  0  0  0  0  0
    4.9081    1.5231    0.0000 H   0  0  0  0  0  0  0  0  0  0  0  0
    5.1350    2.3700    0.0000 H   0  0  0  0  0  0  0  0  0  0  0  0
    4.2881    2.5969    0.0000 H   0  0  0  0  0  0  0  0  0  0  0  0
    2.0000    1.1800    0.0000 H   0  0  0  0  0  0  0  0  0  0  0  0
    1.4631    0.2500    0.0000 H   0  0  0  0  0  0  0  0  0  0  0  0
    6.0010    0.2500    0.0000 H   0  0  0  0  0  0  0  0  0  0  0  0
    2.8660    2.6800    0.0000 H   0  0  0  0  0  0  0  0  0  0  0  0
    2.3291    1.7500    0.0000 H   0  0  0  0  0  0  0  0  0  0  0  0
    2.0000   -2.0600    0.0000 H   0  0  0  0  0  0  0  0  0  0  0  0
  4  1  1  6  0  0  0
  1 23  1  0  0  0  0
  6  2  1  6  0  0  0
  2 26  1  0  0  0  0
  3  4  1  0  0  0  0
  3  5  1  0  0  0  0
  3  7  1  6  0  0  0
  3 13  1  0  0  0  0
  4  8  1  0  0  0  0
  4 14  1  0  0  0  0
  5  6  1  0  0  0  0
  5 11  2  0  0  0  0
  6  9  1  0  0  0  0
  6 15  1  0  0  0  0
  7 10  1  0  0  0  0
  7 12  2  0  0  0  0
  8  9  2  0  0  0  0
  8 16  1  0  0  0  0
  9 17  1  0  0  0  0
 10 18  1  0  0  0  0
 10 19  1  0  0  0  0
 10 20  1  0  0  0  0
 11 21  1  0  0  0  0
 11 22  1  0  0  0  0
 12 24  1  0  0  0  0
 12 25  1  0  0  0  0
M  END
> <PUBCHEM_COMPOUND_CID>
161734

> <PUBCHEM_COMPOUND_CANONICALIZED>
1

> <PUBCHEM_CACTVS_COMPLEXITY>
240

> <PUBCHEM_CACTVS_HBOND_ACCEPTOR>
2

> <PUBCHEM_CACTVS_HBOND_DONOR>
2

> <PUBCHEM_CACTVS_ROTATABLE_BOND>
1

> <PUBCHEM_CACTVS_SUBSKEYS>
AAADccBwMAAAAAAAAAAAAAAAAAAAAAAAAAAgAAAAAAAAAAAAAAAAGgAACAAADRSggAICAAAAAgCAAiBCAAAAAAAgAAAICAAAAAgAFAIAAQAAUAAEwAAIEAPAAAAOAAAAAAAAAAAAAAAAAAAAAAAAAAAAAA==

> <PUBCHEM_IUPAC_OPENEYE_NAME>
(1S,4R,5S)-5-isopropenyl-6-methylene-cyclohex-2-ene-1,4-diol

> <PUBCHEM_IUPAC_CAS_NAME>
(1R,4S,6S)-5-methylene-6-(1-methylethenyl)cyclohex-2-ene-1,4-diol

> <PUBCHEM_IUPAC_NAME>
(1R,4S,6S)-5-methylidene-6-prop-1-en-2-ylcyclohex-2-ene-1,4-diol

> <PUBCHEM_IUPAC_SYSTEMATIC_NAME>
(1R,4S,6S)-5-methylidene-6-prop-1-en-2-yl-cyclohex-2-ene-1,4-diol

> <PUBCHEM_IUPAC_TRADITIONAL_NAME>
(1S,4R,5S)-5-isopropenyl-6-methylene-cyclohex-2-ene-1,4-diol

> <PUBCHEM_IUPAC_INCHI>
InChI=1S/C10H14O2/c1-6(2)10-7(3)8(11)4-5-9(10)12/h4-5,8-12H,1,3H2,2H3/t8-,9+,10-/m0/s1

> <PUBCHEM_IUPAC_INCHIKEY>
NEMBFIOCFSUBLI-AEJSXWLSSA-N

> <PUBCHEM_XLOGP3_AA>
1.1

> <PUBCHEM_EXACT_MASS>
166.09938

> <PUBCHEM_MOLECULAR_FORMULA>
C10H14O2

> <PUBCHEM_MOLECULAR_WEIGHT>
166.21696

> <PUBCHEM_OPENEYE_CAN_SMILES>
CC(=C)C1C(C=CC(C1=C)O)O

> <PUBCHEM_OPENEYE_ISO_SMILES>
CC(=C)[C@@H]1[C@@H](C=C[C@@H](C1=C)O)O

> <PUBCHEM_CACTVS_TPSA>
40.5

> <PUBCHEM_MONOISOTOPIC_WEIGHT>
166.09938

> <PUBCHEM_TOTAL_CHARGE>
0

> <PUBCHEM_HEAVY_ATOM_COUNT>
12

> <PUBCHEM_ATOM_DEF_STEREO_COUNT>
3

> <PUBCHEM_ATOM_UDEF_STEREO_COUNT>
0

> <PUBCHEM_BOND_DEF_STEREO_COUNT>
0

> <PUBCHEM_BOND_UDEF_STEREO_COUNT>
0

> <PUBCHEM_ISOTOPIC_ATOM_COUNT>
0

> <PUBCHEM_COMPONENT_COUNT>
1

> <PUBCHEM_CACTVS_TAUTO_COUNT>
1

> <PUBCHEM_COORDINATE_TYPE>
1
5
255

> <PUBCHEM_BONDANNOTATIONS>
4  1  6
6  2  6
3  7  6

$$$$

