72815
  -OEChem-07051213063D

 55 57  0     0  0  0  0  0  0999 V2000
   -0.1501   -0.4073    0.0804 O   0  0  0  0  0  0  0  0  0  0  0  0
   -4.1036    2.3490   -0.3845 O   0  0  0  0  0  0  0  0  0  0  0  0
   -1.7371   -2.5658    0.4866 O   0  0  0  0  0  0  0  0  0  0  0  0
   -5.6470    0.1379    0.0304 O   0  0  0  0  0  0  0  0  0  0  0  0
   -4.4811   -2.3190    0.4655 O   0  0  0  0  0  0  0  0  0  0  0  0
   -1.6842    3.3092   -0.5769 O   0  0  0  0  0  0  0  0  0  0  0  0
    5.2576    2.0034    0.8465 O   0  0  0  0  0  0  0  0  0  0  0  0
    4.3731   -2.3994   -0.8177 O   0  0  0  0  0  0  0  0  0  0  0  0
    6.1752   -0.4894    0.0626 O   0  0  0  0  0  0  0  0  0  0  0  0
   -2.1002    1.0205   -0.1616 C   0  0  0  0  0  0  0  0  0  0  0  0
   -1.5093   -0.2226    0.0585 C   0  0  0  0  0  0  0  0  0  0  0  0
   -3.4909    1.1497   -0.1724 C   0  0  0  0  0  0  0  0  0  0  0  0
    0.6692    0.6908   -0.1329 C   0  0  0  0  0  0  0  0  0  0  0  0
   -2.3081   -1.3466    0.2699 C   0  0  0  0  0  0  0  0  0  0  0  0
    2.1124    0.3815   -0.0818 C   0  0  0  0  0  0  0  0  0  0  0  0
   -4.2875    0.0238    0.0391 C   0  0  0  0  0  0  0  0  0  0  0  0
   -1.2341    2.1891   -0.3799 C   0  0  0  0  0  0  0  0  0  0  0  0
   -3.6977   -1.2217    0.2598 C   0  0  0  0  0  0  0  0  0  0  0  0
    0.2209    1.9377   -0.3487 C   0  0  0  0  0  0  0  0  0  0  0  0
    2.5751   -0.8761   -0.4772 C   0  0  0  0  0  0  0  0  0  0  0  0
    3.0213    1.3450    0.3623 C   0  0  0  0  0  0  0  0  0  0  0  0
    4.3843    1.0527    0.4108 C   0  0  0  0  0  0  0  0  0  0  0  0
    3.9382   -1.1683   -0.4285 C   0  0  0  0  0  0  0  0  0  0  0  0
    4.8428   -0.2039    0.0153 C   0  0  0  0  0  0  0  0  0  0  0  0
   -4.3829    3.1452    0.7648 C   0  0  0  0  0  0  0  0  0  0  0  0
   -1.4772   -3.3713   -0.6606 C   0  0  0  0  0  0  0  0  0  0  0  0
   -6.3019   -0.0351   -1.2237 C   0  0  0  0  0  0  0  0  0  0  0  0
   -4.8412   -2.6129    1.8132 C   0  0  0  0  0  0  0  0  0  0  0  0
    5.8062    2.8788   -0.1368 C   0  0  0  0  0  0  0  0  0  0  0  0
    3.3832   -3.3270   -1.2581 C   0  0  0  0  0  0  0  0  0  0  0  0
    6.6746   -1.0479    1.2755 C   0  0  0  0  0  0  0  0  0  0  0  0
    0.8631    2.7920   -0.5279 H   0  0  0  0  0  0  0  0  0  0  0  0
    1.8383   -1.5913   -0.8270 H   0  0  0  0  0  0  0  0  0  0  0  0
    2.6947    2.3260    0.6988 H   0  0  0  0  0  0  0  0  0  0  0  0
   -5.2342    2.7267    1.3103 H   0  0  0  0  0  0  0  0  0  0  0  0
   -3.5159    3.2123    1.4299 H   0  0  0  0  0  0  0  0  0  0  0  0
   -4.6455    4.1520    0.4287 H   0  0  0  0  0  0  0  0  0  0  0  0
   -0.7786   -2.8671   -1.3359 H   0  0  0  0  0  0  0  0  0  0  0  0
   -2.4078   -3.6031   -1.1880 H   0  0  0  0  0  0  0  0  0  0  0  0
   -1.0232   -4.3078   -0.3253 H   0  0  0  0  0  0  0  0  0  0  0  0
   -6.1176   -1.0387   -1.6198 H   0  0  0  0  0  0  0  0  0  0  0  0
   -7.3773    0.0865   -1.0679 H   0  0  0  0  0  0  0  0  0  0  0  0
   -5.9656    0.7193   -1.9420 H   0  0  0  0  0  0  0  0  0  0  0  0
   -5.4643   -3.5114    1.8128 H   0  0  0  0  0  0  0  0  0  0  0  0
   -3.9492   -2.8065    2.4173 H   0  0  0  0  0  0  0  0  0  0  0  0
   -5.4165   -1.7889    2.2471 H   0  0  0  0  0  0  0  0  0  0  0  0
    5.0125    3.4557   -0.6220 H   0  0  0  0  0  0  0  0  0  0  0  0
    6.3709    2.3132   -0.8847 H   0  0  0  0  0  0  0  0  0  0  0  0
    6.4869    3.5727    0.3639 H   0  0  0  0  0  0  0  0  0  0  0  0
    2.8765   -2.9778   -2.1643 H   0  0  0  0  0  0  0  0  0  0  0  0
    2.6806   -3.5804   -0.4566 H   0  0  0  0  0  0  0  0  0  0  0  0
    3.9055   -4.2519   -1.5244 H   0  0  0  0  0  0  0  0  0  0  0  0
    7.7479   -1.2201    1.1567 H   0  0  0  0  0  0  0  0  0  0  0  0
    6.5220   -0.3560    2.1099 H   0  0  0  0  0  0  0  0  0  0  0  0
    6.1884   -2.0053    1.4880 H   0  0  0  0  0  0  0  0  0  0  0  0
  1 11  1  0  0  0  0
  1 13  1  0  0  0  0
  2 12  1  0  0  0  0
  2 25  1  0  0  0  0
  3 14  1  0  0  0  0
  3 26  1  0  0  0  0
  4 16  1  0  0  0  0
  4 27  1  0  0  0  0
  5 18  1  0  0  0  0
  5 28  1  0  0  0  0
  6 17  2  0  0  0  0
  7 22  1  0  0  0  0
  7 29  1  0  0  0  0
  8 23  1  0  0  0  0
  8 30  1  0  0  0  0
  9 24  1  0  0  0  0
  9 31  1  0  0  0  0
 10 11  2  0  0  0  0
 10 12  1  0  0  0  0
 10 17  1  0  0  0  0
 11 14  1  0  0  0  0
 12 16  2  0  0  0  0
 13 15  1  0  0  0  0
 13 19  2  0  0  0  0
 14 18  2  0  0  0  0
 15 20  2  0  0  0  0
 15 21  1  0  0  0  0
 16 18  1  0  0  0  0
 17 19  1  0  0  0  0
 19 32  1  0  0  0  0
 20 23  1  0  0  0  0
 20 33  1  0  0  0  0
 21 22  2  0  0  0  0
 21 34  1  0  0  0  0
 22 24  1  0  0  0  0
 23 24  2  0  0  0  0
 25 35  1  0  0  0  0
 25 36  1  0  0  0  0
 25 37  1  0  0  0  0
 26 38  1  0  0  0  0
 26 39  1  0  0  0  0
 26 40  1  0  0  0  0
 27 41  1  0  0  0  0
 27 42  1  0  0  0  0
 27 43  1  0  0  0  0
 28 44  1  0  0  0  0
 28 45  1  0  0  0  0
 28 46  1  0  0  0  0
 29 47  1  0  0  0  0
 29 48  1  0  0  0  0
 29 49  1  0  0  0  0
 30 50  1  0  0  0  0
 30 51  1  0  0  0  0
 30 52  1  0  0  0  0
 31 53  1  0  0  0  0
 31 54  1  0  0  0  0
 31 55  1  0  0  0  0
M  END
> <PUBCHEM_COMPOUND_CID>
72815

> <PUBCHEM_CONFORMER_RMSD>
1

> <PUBCHEM_CONFORMER_DIVERSEORDER>
1
6
2
4
5
3

> <PUBCHEM_MMFF94_PARTIAL_CHARGES>
34
1 -0.16
10 0.09
11 0.08
12 0.08
13 0.05
14 0.08
15 0.03
16 0.08
17 0.47
18 0.08
19 -0.14
2 -0.36
20 -0.15
21 -0.15
22 0.08
23 0.08
24 0.08
25 0.28
26 0.28
27 0.28
28 0.28
29 0.28
3 -0.36
30 0.28
31 0.28
32 0.15
33 0.15
34 0.15
4 -0.36
5 -0.36
6 -0.57
7 -0.36
8 -0.36
9 -0.36

> <PUBCHEM_EFFECTIVE_ROTOR_COUNT>
8

> <PUBCHEM_PHARMACOPHORE_FEATURES>
12
1 1 acceptor
1 2 acceptor
1 3 acceptor
1 4 acceptor
1 5 acceptor
1 6 acceptor
1 7 acceptor
1 8 acceptor
1 9 acceptor
6 1 10 11 13 17 19 rings
6 10 11 12 14 16 18 rings
6 15 20 21 22 23 24 rings

> <PUBCHEM_HEAVY_ATOM_COUNT>
31

> <PUBCHEM_ATOM_DEF_STEREO_COUNT>
0

> <PUBCHEM_ATOM_UDEF_STEREO_COUNT>
0

> <PUBCHEM_BOND_DEF_STEREO_COUNT>
0

> <PUBCHEM_BOND_UDEF_STEREO_COUNT>
0

> <PUBCHEM_ISOTOPIC_ATOM_COUNT>
0

> <PUBCHEM_COMPONENT_COUNT>
1

> <PUBCHEM_CACTVS_TAUTO_COUNT>
1

> <PUBCHEM_CONFORMER_ID>
00011C6F00000001

> <PUBCHEM_MMFF94_ENERGY>
166.8111

> <PUBCHEM_FEATURE_SELFOVERLAP>
60.965

> <PUBCHEM_SHAPE_FINGERPRINT>
10 15 18262533524592634120
10319926 262 18338814385399754792
10411042 1 18197213643115195379
10835480 77 18411706443500391245
11719270 70 18260835908556769590
12236239 1 17418374683672284966
13140716 1 17761767374012535155
13402501 40 18408322207039845630
13533116 47 17967814967951473138
14790565 3 17256801721239993249
15196674 1 18411700976386545616
15961568 22 18059855014042899292
17844677 252 18408878538554256232
1813 80 17274823523898021596
19958102 18 18129667529383817199
21033648 29 18040729064399497921
21236236 1 18336548308977945085
21267235 1 18342733010101458313
21279426 13 18192711378383370973
21859007 373 17702119142577504461
22122407 14 16587740940994506137
23522609 53 17915714635915176460
23559900 14 18267030461961525561
239999 70 18113892793711887158
3004659 81 18343301483736302016
335352 9 18342176653476789621
3383291 50 18272366443894941395
3633792 109 18340216267031127477
4015057 19 18261126144333321345
4073 2 18342172258770418184
4214541 1 18411138060502757840
5104073 3 18410577284282875992
5265222 85 18264762182953872558
9709674 26 18336543927747053254
9995097 60 18334013921579594218

> <PUBCHEM_SHAPE_MULTIPOLES>
585.14
15.54
3.97
1.01
8.88
0.43
-0.16
0.11
-2.11
-0.9
0.24
-0.28
0.51
1.55

> <PUBCHEM_SHAPE_SELFOVERLAP>
1263.555

> <PUBCHEM_SHAPE_VOLUME>
323.7

> <PUBCHEM_COORDINATE_TYPE>
2
5
10

$$$$

