66605
  -OEChem-07051213083D

 21 21  0     0  0  0  0  0  0999 V2000
    1.0990   -2.4420    0.0005 N   0  0  0  0  0  0  0  0  0  0  0  0
    1.1002    2.4415    0.0006 N   0  0  0  0  0  0  0  0  0  0  0  0
   -3.0911    0.0005    0.0000 N   0  0  0  0  0  0  0  0  0  0  0  0
    1.1092   -0.0003    0.0003 C   0  0  0  0  0  0  0  0  0  0  0  0
    0.4114   -1.2081    0.0002 C   0  0  0  0  0  0  0  0  0  0  0  0
    0.4120    1.2079    0.0001 C   0  0  0  0  0  0  0  0  0  0  0  0
   -1.6807    0.0004   -0.0003 C   0  0  0  0  0  0  0  0  0  0  0  0
   -0.9835   -1.2077   -0.0001 C   0  0  0  0  0  0  0  0  0  0  0  0
   -0.9829    1.2081   -0.0002 C   0  0  0  0  0  0  0  0  0  0  0  0
    2.6064   -0.0004   -0.0010 C   0  0  0  0  0  0  0  0  0  0  0  0
   -1.5290   -2.1491   -0.0001 H   0  0  0  0  0  0  0  0  0  0  0  0
   -1.5279    2.1499   -0.0003 H   0  0  0  0  0  0  0  0  0  0  0  0
    2.9828    0.0014   -1.0288 H   0  0  0  0  0  0  0  0  0  0  0  0
    3.0262    0.8584    0.5317 H   0  0  0  0  0  0  0  0  0  0  0  0
    3.0264   -0.8607    0.5288 H   0  0  0  0  0  0  0  0  0  0  0  0
    0.5644   -3.3014   -0.0068 H   0  0  0  0  0  0  0  0  0  0  0  0
    2.0949   -2.4934   -0.1554 H   0  0  0  0  0  0  0  0  0  0  0  0
    2.0963    2.4923   -0.1548 H   0  0  0  0  0  0  0  0  0  0  0  0
    0.5661    3.3012   -0.0069 H   0  0  0  0  0  0  0  0  0  0  0  0
   -3.5973    0.8760   -0.0009 H   0  0  0  0  0  0  0  0  0  0  0  0
   -3.5975   -0.8748   -0.0008 H   0  0  0  0  0  0  0  0  0  0  0  0
  1  5  1  0  0  0  0
  1 16  1  0  0  0  0
  1 17  1  0  0  0  0
  2  6  1  0  0  0  0
  2 18  1  0  0  0  0
  2 19  1  0  0  0  0
  3  7  1  0  0  0  0
  3 20  1  0  0  0  0
  3 21  1  0  0  0  0
  4  5  2  0  0  0  0
  4  6  1  0  0  0  0
  4 10  1  0  0  0  0
  5  8  1  0  0  0  0
  6  9  2  0  0  0  0
  7  8  2  0  0  0  0
  7  9  1  0  0  0  0
  8 11  1  0  0  0  0
  9 12  1  0  0  0  0
 10 13  1  0  0  0  0
 10 14  1  0  0  0  0
 10 15  1  0  0  0  0
M  END
> <PUBCHEM_COMPOUND_CID>
66605

> <PUBCHEM_CONFORMER_RMSD>
0.4

> <PUBCHEM_CONFORMER_DIVERSEORDER>
1

> <PUBCHEM_MMFF94_PARTIAL_CHARGES>
18
1 -0.9
10 0.14
11 0.15
12 0.15
16 0.4
17 0.4
18 0.4
19 0.4
2 -0.9
20 0.4
21 0.4
3 -0.9
4 -0.14
5 0.1
6 0.1
7 0.1
8 -0.15
9 -0.15

> <PUBCHEM_EFFECTIVE_ROTOR_COUNT>
0

> <PUBCHEM_PHARMACOPHORE_FEATURES>
7
1 1 cation
1 1 donor
1 2 cation
1 2 donor
1 3 cation
1 3 donor
6 4 5 6 7 8 9 rings

> <PUBCHEM_HEAVY_ATOM_COUNT>
10

> <PUBCHEM_ATOM_DEF_STEREO_COUNT>
0

> <PUBCHEM_ATOM_UDEF_STEREO_COUNT>
0

> <PUBCHEM_BOND_DEF_STEREO_COUNT>
0

> <PUBCHEM_BOND_UDEF_STEREO_COUNT>
0

> <PUBCHEM_ISOTOPIC_ATOM_COUNT>
0

> <PUBCHEM_COMPONENT_COUNT>
1

> <PUBCHEM_CACTVS_TAUTO_COUNT>
1

> <PUBCHEM_CONFORMER_ID>
0001042D00000001

> <PUBCHEM_MMFF94_ENERGY>
59.796

> <PUBCHEM_FEATURE_SELFOVERLAP>
35.52

> <PUBCHEM_SHAPE_FINGERPRINT>
12423570 1 8412140740106059359
16945 1 18410856564103548933
18185500 45 18337111266856240527
193761 8 17690279734703021028
21040471 1 17906453225312543233
23402655 69 18193575561044572029
23552423 10 17983567795560014502
241688 4 17906450278954169209
2748010 2 18123749747064593327
29004967 10 18341607157117476715
5084963 1 18114180770298100345

> <PUBCHEM_SHAPE_MULTIPOLES>
190.85
2.98
2.19
0.59
0.98
0
0
0
0
-0.86
0
-0.01
0
0

> <PUBCHEM_SHAPE_SELFOVERLAP>
397.849

> <PUBCHEM_SHAPE_VOLUME>
110.1

> <PUBCHEM_COORDINATE_TYPE>
2
5
10

$$$$

