17396134
  -OEChem-06241222543D

 60 61  0     1  0  0  0  0  0999 V2000
    6.3468   -0.1613    0.5607 S   0  0  0  0  0  0  0  0  0  0  0  0
   -0.3655   -0.0985   -1.4385 O   0  0  0  0  0  0  0  0  0  0  0  0
    6.0629   -0.9749    1.7362 O   0  0  0  0  0  0  0  0  0  0  0  0
    7.3306   -0.6434   -0.4009 O   0  0  0  0  0  0  0  0  0  0  0  0
   -5.1397    1.1578    0.0457 O   0  0  0  0  0  0  0  0  0  0  0  0
   -2.6905    0.8153    1.1091 O   0  0  0  0  0  0  0  0  0  0  0  0
   -2.3534   -1.1721   -0.0526 N   0  0  0  0  0  0  0  0  0  0  0  0
    1.2662   -0.8091    0.0906 N   0  0  0  0  0  0  0  0  0  0  0  0
    6.7980    1.4268    1.0751 N   0  0  0  0  0  0  0  0  0  0  0  0
   -0.7319   -2.9764    0.5103 C   0  0  0  0  0  0  0  0  0  0  0  0
   -1.0307   -1.4633    0.4399 C   0  0  1  0  0  0  0  0  0  0  0  0
   -0.0201   -0.7144   -0.4339 C   0  0  0  0  0  0  0  0  0  0  0  0
   -0.7131   -3.5994   -0.8891 C   0  0  0  0  0  0  0  0  0  0  0  0
   -1.7108   -3.7415    1.4070 C   0  0  0  0  0  0  0  0  0  0  0  0
    4.8415    0.1047   -0.2913 C   0  0  0  0  0  0  0  0  0  0  0  0
    2.4560   -0.2504   -0.4339 C   0  0  0  0  0  0  0  0  0  0  0  0
    3.6691   -0.4463    0.2261 C   0  0  0  0  0  0  0  0  0  0  0  0
    4.8005    0.8517   -1.4686 C   0  0  0  0  0  0  0  0  0  0  0  0
   -3.0760   -0.0492    0.3268 C   0  0  0  0  0  0  0  0  0  0  0  0
    2.4151    0.4966   -1.6110 C   0  0  0  0  0  0  0  0  0  0  0  0
    3.5873    1.0477   -2.1285 C   0  0  0  0  0  0  0  0  0  0  0  0
    6.0372    1.4552   -2.0498 C   0  0  0  0  0  0  0  0  0  0  0  0
   -4.4313    0.0011   -0.3459 C   0  0  0  0  0  0  0  0  0  0  0  0
    8.2152    1.6475    1.4604 C   0  0  0  0  0  0  0  0  0  0  0  0
    5.8600    2.1530    1.9684 C   0  0  0  0  0  0  0  0  0  0  0  0
   -6.5118    1.0747    0.0717 C   0  0  0  0  0  0  0  0  0  0  0  0
   -7.1754    0.2184   -0.8069 C   0  0  0  0  0  0  0  0  0  0  0  0
   -7.2403    1.8469    0.9764 C   0  0  0  0  0  0  0  0  0  0  0  0
   -8.5675    0.1341   -0.7806 C   0  0  0  0  0  0  0  0  0  0  0  0
   -8.6323    1.7626    1.0028 C   0  0  0  0  0  0  0  0  0  0  0  0
   -9.2960    0.9062    0.1243 C   0  0  0  0  0  0  0  0  0  0  0  0
    0.2666   -3.1240    0.9402 H   0  0  0  0  0  0  0  0  0  0  0  0
   -0.9526   -1.0425    1.4514 H   0  0  0  0  0  0  0  0  0  0  0  0
    0.0260   -3.1218   -1.5396 H   0  0  0  0  0  0  0  0  0  0  0  0
   -1.6894   -3.5440   -1.3804 H   0  0  0  0  0  0  0  0  0  0  0  0
   -0.4430   -4.6598   -0.8259 H   0  0  0  0  0  0  0  0  0  0  0  0
   -1.4150   -4.7924    1.4947 H   0  0  0  0  0  0  0  0  0  0  0  0
   -1.7255   -3.3126    2.4144 H   0  0  0  0  0  0  0  0  0  0  0  0
   -2.7306   -3.7127    1.0094 H   0  0  0  0  0  0  0  0  0  0  0  0
   -2.7502   -1.7810   -0.7619 H   0  0  0  0  0  0  0  0  0  0  0  0
    1.3861   -1.3217    0.9609 H   0  0  0  0  0  0  0  0  0  0  0  0
    3.6801   -1.0308    1.1421 H   0  0  0  0  0  0  0  0  0  0  0  0
    1.5168    0.6900   -2.1799 H   0  0  0  0  0  0  0  0  0  0  0  0
    3.5377    1.6259   -3.0475 H   0  0  0  0  0  0  0  0  0  0  0  0
    5.7968    2.0725   -2.9241 H   0  0  0  0  0  0  0  0  0  0  0  0
    6.7256    0.6836   -2.4048 H   0  0  0  0  0  0  0  0  0  0  0  0
    6.5400    2.1233   -1.3477 H   0  0  0  0  0  0  0  0  0  0  0  0
   -4.2807    0.0152   -1.4315 H   0  0  0  0  0  0  0  0  0  0  0  0
   -4.9520   -0.9200   -0.0517 H   0  0  0  0  0  0  0  0  0  0  0  0
    8.4222    2.7195    1.5344 H   0  0  0  0  0  0  0  0  0  0  0  0
    8.4258    1.1740    2.4235 H   0  0  0  0  0  0  0  0  0  0  0  0
    8.8838    1.2390    0.6977 H   0  0  0  0  0  0  0  0  0  0  0  0
    5.8614    1.7057    2.9665 H   0  0  0  0  0  0  0  0  0  0  0  0
    6.1599    3.2025    2.0511 H   0  0  0  0  0  0  0  0  0  0  0  0
    4.8451    2.1419    1.5647 H   0  0  0  0  0  0  0  0  0  0  0  0
   -6.6466   -0.3789   -1.5437 H   0  0  0  0  0  0  0  0  0  0  0  0
   -6.7286    2.5156    1.6631 H   0  0  0  0  0  0  0  0  0  0  0  0
   -9.0851   -0.5280   -1.4686 H   0  0  0  0  0  0  0  0  0  0  0  0
   -9.1995    2.3640    1.7071 H   0  0  0  0  0  0  0  0  0  0  0  0
  -10.3800    0.8417    0.1437 H   0  0  0  0  0  0  0  0  0  0  0  0
  1  3  2  0  0  0  0
  1  4  2  0  0  0  0
  1  9  1  0  0  0  0
  1 15  1  0  0  0  0
  2 12  2  0  0  0  0
  5 23  1  0  0  0  0
  5 26  1  0  0  0  0
  6 19  2  0  0  0  0
  7 11  1  0  0  0  0
  7 19  1  0  0  0  0
  7 40  1  0  0  0  0
  8 12  1  0  0  0  0
  8 16  1  0  0  0  0
  8 41  1  0  0  0  0
  9 24  1  0  0  0  0
  9 25  1  0  0  0  0
 10 11  1  0  0  0  0
 10 13  1  0  0  0  0
 10 14  1  0  0  0  0
 10 32  1  0  0  0  0
 11 12  1  0  0  0  0
 11 33  1  0  0  0  0
 13 34  1  0  0  0  0
 13 35  1  0  0  0  0
 13 36  1  0  0  0  0
 14 37  1  0  0  0  0
 14 38  1  0  0  0  0
 14 39  1  0  0  0  0
 15 17  1  0  0  0  0
 15 18  2  0  0  0  0
 16 17  2  0  0  0  0
 16 20  1  0  0  0  0
 17 42  1  0  0  0  0
 18 21  1  0  0  0  0
 18 22  1  0  0  0  0
 19 23  1  0  0  0  0
 20 21  2  0  0  0  0
 20 43  1  0  0  0  0
 21 44  1  0  0  0  0
 22 45  1  0  0  0  0
 22 46  1  0  0  0  0
 22 47  1  0  0  0  0
 23 48  1  0  0  0  0
 23 49  1  0  0  0  0
 24 50  1  0  0  0  0
 24 51  1  0  0  0  0
 24 52  1  0  0  0  0
 25 53  1  0  0  0  0
 25 54  1  0  0  0  0
 25 55  1  0  0  0  0
 26 27  2  0  0  0  0
 26 28  1  0  0  0  0
 27 29  1  0  0  0  0
 27 56  1  0  0  0  0
 28 30  2  0  0  0  0
 28 57  1  0  0  0  0
 29 31  2  0  0  0  0
 29 58  1  0  0  0  0
 30 31  1  0  0  0  0
 30 59  1  0  0  0  0
 31 60  1  0  0  0  0
M  END
> <PUBCHEM_COMPOUND_CID>
17396134

> <PUBCHEM_CONFORMER_RMSD>
1.4

> <PUBCHEM_CONFORMER_DIVERSEORDER>
2
33
29
14
4
31
32
9
54
7
22
8
42
52
73
76
28
41
78
60
40
66
51
36
75
53
67
57
65
12
74
1
23
27
43
79
45
37
18
82
62
10
55
81
80
35
25
39
5
47
71
30
49
21
64
26
3
38
11
17
16
58
69
68
6
15
61
20
46
63
72
19
70
44
50
59
77
24
56
13
34
48

> <PUBCHEM_MMFF94_PARTIAL_CHARGES>
38
1 1.45
11 0.36
12 0.57
15 -0.01
16 0.12
17 -0.15
18 -0.14
19 0.57
2 -0.57
20 -0.15
21 -0.15
22 0.14
23 0.34
24 0.36
25 0.36
26 0.08
27 -0.15
28 -0.15
29 -0.15
3 -0.65
30 -0.15
31 -0.15
4 -0.65
40 0.37
41 0.37
42 0.15
43 0.15
44 0.15
5 -0.36
56 0.15
57 0.15
58 0.15
59 0.15
6 -0.57
60 0.15
7 -0.73
8 -0.55
9 -0.85

> <PUBCHEM_EFFECTIVE_ROTOR_COUNT>
11

> <PUBCHEM_PHARMACOPHORE_FEATURES>
10
1 2 acceptor
1 3 acceptor
1 4 acceptor
1 5 acceptor
1 6 acceptor
1 7 donor
1 8 donor
3 10 13 14 hydrophobe
6 15 16 17 18 20 21 rings
6 26 27 28 29 30 31 rings

> <PUBCHEM_HEAVY_ATOM_COUNT>
31

> <PUBCHEM_ATOM_DEF_STEREO_COUNT>
0

> <PUBCHEM_ATOM_UDEF_STEREO_COUNT>
1

> <PUBCHEM_BOND_DEF_STEREO_COUNT>
0

> <PUBCHEM_BOND_UDEF_STEREO_COUNT>
0

> <PUBCHEM_ISOTOPIC_ATOM_COUNT>
0

> <PUBCHEM_COMPONENT_COUNT>
1

> <PUBCHEM_CACTVS_TAUTO_COUNT>
4

> <PUBCHEM_CONFORMER_ID>
010971A600000002

> <PUBCHEM_MMFF94_ENERGY>
84.088

> <PUBCHEM_FEATURE_SELFOVERLAP>
50.769

> <PUBCHEM_SHAPE_FINGERPRINT>
10 15 16917341533516195117
10162869 55 17846502504960087551
10533779 47 16056312947065952257
11408170 132 5039673621675305091
11443803 9 18408611349124309019
11456790 92 17632856434658282501
11475781 23 17967246490317302006
11823591 26 18413952789348935431
12107183 9 17989490736335082650
12539765 74 17968089850232766287
13540713 5 17343773799397374662
13673619 4 11887678377091837982
14190465 44 18269556052706808073
150020 25 16081367462513796829
15131766 46 15839272465340435374
15301273 46 12823297901206296527
1577012 14 17774434993014374902
15840311 113 18409731764520983760
16991971 28 9079106783122874729
16994733 274 17458620173047193001
1818759 1 9439396952842685357
18643901 69 9943530730073002137
19301679 30 15984278455788516544
2026 5 10807399424517500320
20554085 129 18259990387381433355
21362857 166 7997702986955547112
21403212 168 17775007907634969803
21424621 283 18261109703493268617
21585481 151 11672057550121802553
22224240 67 18413390951844544375
24893992 56 18410011019041527897
3711267 37 17822560704001732817
445580 126 18272368698440872069
44880168 125 12463573945774335040
44880568 143 16516232046388079913
5104073 3 17345192195578173320
5385378 56 18270680986320238931
5470011 282 15068335722423099525
5758199 1 18410009962374136187
5937810 71 16878496947855065609
6058803 2 17127315101226436590
6371009 1 18412818101791753989

> <PUBCHEM_SHAPE_MULTIPOLES>
597.53
28.66
2.81
1.72
30.71
3.28
-0.19
-21.99
5.91
1.03
0.96
-3.11
-0.62
-0.31

> <PUBCHEM_SHAPE_SELFOVERLAP>
1223.811

> <PUBCHEM_SHAPE_VOLUME>
346

> <PUBCHEM_COORDINATE_TYPE>
2
5
10

$$$$

