7847037
  -OEChem-06241222483D

 46 49  0     0  0  0  0  0  0999 V2000
    4.0986   -1.6116   -0.8471 S   0  0  0  0  0  0  0  0  0  0  0  0
    2.2321    1.9484    0.1905 O   0  0  0  0  0  0  0  0  0  0  0  0
    3.9972    3.1040   -0.7426 O   0  0  0  0  0  0  0  0  0  0  0  0
    2.7333   -0.7902    1.1810 N   0  0  0  0  0  0  0  0  0  0  0  0
    4.8992    0.3626    0.8963 C   0  0  0  0  0  0  0  0  0  0  0  0
    4.3122    1.7423    1.2480 C   0  0  0  0  0  0  0  0  0  0  0  0
    3.8567   -0.6185    0.5242 C   0  0  0  0  0  0  0  0  0  0  0  0
   -0.0212    1.9161   -0.5994 C   0  0  0  0  0  0  0  0  0  0  0  0
   -2.5822    0.9181   -0.1787 C   0  0  0  0  0  0  0  0  0  0  0  0
    1.3611    2.4542   -0.8263 C   0  0  0  0  0  0  0  0  0  0  0  0
    2.5699   -2.3574   -0.5645 C   0  0  0  0  0  0  0  0  0  0  0  0
    1.9844   -1.7845    0.5686 C   0  0  0  0  0  0  0  0  0  0  0  0
    3.5326    2.3586    0.1087 C   0  0  0  0  0  0  0  0  0  0  0  0
   -3.9149    0.3987    0.0396 C   0  0  0  0  0  0  0  0  0  0  0  0
   -0.9128    2.6229    0.1997 C   0  0  0  0  0  0  0  0  0  0  0  0
   -0.3975    0.7151   -1.1902 C   0  0  0  0  0  0  0  0  0  0  0  0
   -2.1974    2.1221    0.4107 C   0  0  0  0  0  0  0  0  0  0  0  0
   -1.6822    0.2145   -0.9792 C   0  0  0  0  0  0  0  0  0  0  0  0
    1.9347   -3.3760   -1.2928 C   0  0  0  0  0  0  0  0  0  0  0  0
    0.7181   -2.2494    0.9852 C   0  0  0  0  0  0  0  0  0  0  0  0
   -4.1640   -0.4522    1.1164 C   0  0  0  0  0  0  0  0  0  0  0  0
   -4.9508    0.7493   -0.8265 C   0  0  0  0  0  0  0  0  0  0  0  0
    0.6822   -3.8177   -0.8592 C   0  0  0  0  0  0  0  0  0  0  0  0
    0.0799   -3.2632    0.2648 C   0  0  0  0  0  0  0  0  0  0  0  0
   -5.4489   -0.9528    1.3271 C   0  0  0  0  0  0  0  0  0  0  0  0
   -6.2356    0.2488   -0.6156 C   0  0  0  0  0  0  0  0  0  0  0  0
   -6.4845   -0.6022    0.4613 C   0  0  0  0  0  0  0  0  0  0  0  0
    5.4531   -0.0165    1.7634 H   0  0  0  0  0  0  0  0  0  0  0  0
    5.6280    0.4945    0.0868 H   0  0  0  0  0  0  0  0  0  0  0  0
    5.1216    2.4338    1.5104 H   0  0  0  0  0  0  0  0  0  0  0  0
    3.6666    1.6849    2.1332 H   0  0  0  0  0  0  0  0  0  0  0  0
    1.7292    2.1486   -1.8137 H   0  0  0  0  0  0  0  0  0  0  0  0
    1.3514    3.5509   -0.7941 H   0  0  0  0  0  0  0  0  0  0  0  0
   -0.6227    3.5606    0.6654 H   0  0  0  0  0  0  0  0  0  0  0  0
    0.2963    0.1578   -1.8136 H   0  0  0  0  0  0  0  0  0  0  0  0
   -2.8864    2.6829    1.0380 H   0  0  0  0  0  0  0  0  0  0  0  0
   -1.9652   -0.7265   -1.4452 H   0  0  0  0  0  0  0  0  0  0  0  0
    2.3986   -3.8133   -2.1715 H   0  0  0  0  0  0  0  0  0  0  0  0
    0.2374   -1.8215    1.8604 H   0  0  0  0  0  0  0  0  0  0  0  0
   -3.3678   -0.7360    1.8007 H   0  0  0  0  0  0  0  0  0  0  0  0
   -4.7740    1.4117   -1.6707 H   0  0  0  0  0  0  0  0  0  0  0  0
    0.1728   -4.6047   -1.4093 H   0  0  0  0  0  0  0  0  0  0  0  0
   -0.8955   -3.6178    0.5862 H   0  0  0  0  0  0  0  0  0  0  0  0
   -5.6429   -1.6155    2.1653 H   0  0  0  0  0  0  0  0  0  0  0  0
   -7.0423    0.5217   -1.2897 H   0  0  0  0  0  0  0  0  0  0  0  0
   -7.4849   -0.9919    0.6253 H   0  0  0  0  0  0  0  0  0  0  0  0
  1  7  1  0  0  0  0
  1 11  1  0  0  0  0
  2 10  1  0  0  0  0
  2 13  1  0  0  0  0
  3 13  2  0  0  0  0
  4  7  2  0  0  0  0
  4 12  1  0  0  0  0
  5  6  1  0  0  0  0
  5  7  1  0  0  0  0
  5 28  1  0  0  0  0
  5 29  1  0  0  0  0
  6 13  1  0  0  0  0
  6 30  1  0  0  0  0
  6 31  1  0  0  0  0
  8 10  1  0  0  0  0
  8 15  2  0  0  0  0
  8 16  1  0  0  0  0
  9 14  1  0  0  0  0
  9 17  2  0  0  0  0
  9 18  1  0  0  0  0
 10 32  1  0  0  0  0
 10 33  1  0  0  0  0
 11 12  1  0  0  0  0
 11 19  2  0  0  0  0
 12 20  2  0  0  0  0
 14 21  2  0  0  0  0
 14 22  1  0  0  0  0
 15 17  1  0  0  0  0
 15 34  1  0  0  0  0
 16 18  2  0  0  0  0
 16 35  1  0  0  0  0
 17 36  1  0  0  0  0
 18 37  1  0  0  0  0
 19 23  1  0  0  0  0
 19 38  1  0  0  0  0
 20 24  1  0  0  0  0
 20 39  1  0  0  0  0
 21 25  1  0  0  0  0
 21 40  1  0  0  0  0
 22 26  2  0  0  0  0
 22 41  1  0  0  0  0
 23 24  2  0  0  0  0
 23 42  1  0  0  0  0
 24 43  1  0  0  0  0
 25 27  2  0  0  0  0
 25 44  1  0  0  0  0
 26 27  1  0  0  0  0
 26 45  1  0  0  0  0
 27 46  1  0  0  0  0
M  END
> <PUBCHEM_COMPOUND_CID>
7847037

> <PUBCHEM_CONFORMER_RMSD>
0.8

> <PUBCHEM_CONFORMER_DIVERSEORDER>
1
24
18
305
217
121
260
187
192
360
251
107
197
70
278
78
95
176
287
160
348
87
349
240
249
255
319
136
20
229
104
112
312
272
80
351
188
33
321
220
323
86
306
161
21
141
52
196
310
236
76
327
205
189
307
279
156
322
171
318
149
79
329
11
106
214
284
292
280
353
276
180
335
19
151
281
2
314
258
147
247
359
274
126
177
170
39
114
101
248
365
105
128
344
82
200
91
267
125
262
273
304
194
331
34
35
218
12
301
10
350
153
298
361
166
123
263
326
271
152
140
246
109
308
333
209
237
215
25
38
283
311
99
256
116
72
68
199
224
221
89
363
122
299
330
49
163
213
342
59
143
362
355
6
179
94
202
193
252
313
129
100
174
131
45
8
222
357
225
27
57
212
182
158
85
257
183
204
44
83
17
167
139
277
178
37
138
42
325
315
226
127
268
66
233
119
159
206
74
115
67
288
254
164
81
296
186
345
234
111
169
219
231
29
241
134
339
227
15
98
343
207
210
130
190
324
28
69
172
14
270
295
198
58
232
337
358
354
282
108
64
154
73
266
30
60
320
347
96
4
117
71
133
13
275
235
77
9
75
148
309
46
184
41
162
245
243
31
137
110
7
92
3
303
102
356
289
294
53
208
195
56
135
352
253
54
132
88
65
302
203
338
124
43
250
22
317
185
55
316
48
181
239
216
293
84
364
285
120
36
201
23
291
145
259
113
97
300
90
16
332
93
47
336
286
5
269
290
265
26
146
118
155
211
244
191
223
346
334
51
328
157
32
242
168
40
261
61
340
144
228
62
230
63
341
173
50
150
103
165
264
297
175
142
238

> <PUBCHEM_MMFF94_PARTIAL_CHARGES>
38
1 -0.08
10 0.42
11 0.04
12 0.23
13 0.66
15 -0.15
16 -0.15
17 -0.15
18 -0.15
19 -0.15
2 -0.43
20 -0.15
21 -0.15
22 -0.15
23 -0.15
24 -0.15
25 -0.15
26 -0.15
27 -0.15
3 -0.57
34 0.15
35 0.15
36 0.15
37 0.15
38 0.15
39 0.15
4 -0.57
40 0.15
41 0.15
42 0.15
43 0.15
44 0.15
45 0.15
46 0.15
5 0.18
6 0.06
7 0.2
8 -0.14

> <PUBCHEM_EFFECTIVE_ROTOR_COUNT>
7

> <PUBCHEM_PHARMACOPHORE_FEATURES>
6
1 3 acceptor
1 4 acceptor
5 1 4 7 11 12 rings
6 11 12 19 20 23 24 rings
6 14 21 22 25 26 27 rings
6 8 9 15 16 17 18 rings

> <PUBCHEM_HEAVY_ATOM_COUNT>
27

> <PUBCHEM_ATOM_DEF_STEREO_COUNT>
0

> <PUBCHEM_ATOM_UDEF_STEREO_COUNT>
0

> <PUBCHEM_BOND_DEF_STEREO_COUNT>
0

> <PUBCHEM_BOND_UDEF_STEREO_COUNT>
0

> <PUBCHEM_ISOTOPIC_ATOM_COUNT>
0

> <PUBCHEM_COMPONENT_COUNT>
1

> <PUBCHEM_CACTVS_TAUTO_COUNT>
2

> <PUBCHEM_CONFORMER_ID>
0077BC7D00000001

> <PUBCHEM_MMFF94_ENERGY>
63.2003

> <PUBCHEM_FEATURE_SELFOVERLAP>
30.517

> <PUBCHEM_SHAPE_FINGERPRINT>
10316853 100 18413101749610121798
10816530 23 17902799552827569208
10864689 126 18198059373219656063
11112241 14 17897461509794778233
11421498 54 17603863442124081344
11578080 2 17607262961302021904
12035758 1 18262537974131689274
12128747 34 18266187312995565317
12156800 1 17552606211882502670
12422481 6 18200597977562994834
12596602 18 17240766173077088003
12778500 126 17096355297682223347
131258 38 16988018145303094826
13402501 40 18343582949358343347
13533116 47 18260266348168560457
1361 2 18409451371290618739
14840074 17 18113343029044112615
14863182 85 18340760468792639260
15419008 42 17984726638409447781
15721738 202 18261106417700849907
15927050 60 17833266424586145228
17492 54 17916278650961562078
1979834 28 18408605850890372032
20028762 73 18261115183734985942
20645477 70 18342461443366769525
20737093 15 17974326234043678871
21197605 99 18196929972830103835
21304303 282 15973531463666183148
21304303 94 18266437868660558900
21344244 181 18042384912595800620
21623969 137 18341895164913608841
23559900 14 18343868827425858693
239999 70 18342457062515659578
25222932 49 17632020745438014523
338550 245 18127971914791572423
3633792 109 18339087081895906381
392239 28 18412543219246483899
394071 54 18337101376316672099
4340502 62 18337112267557539032
463206 1 18337676300475468391
5265222 85 17695609767537857692
5309563 4 18339081613210425148
563151 248 17531258240473292342
6287921 2 18260828245533240910

> <PUBCHEM_SHAPE_MULTIPOLES>
542.78
12.39
4.3
1.25
16.07
1.71
0.05
-0.97
2.3
-4.78
-0.87
-0.09
0.25
1.19

> <PUBCHEM_SHAPE_SELFOVERLAP>
1176.904

> <PUBCHEM_SHAPE_VOLUME>
296.8

> <PUBCHEM_COORDINATE_TYPE>
2
5
10

$$$$

