9921310
  -OEChem-07051213093D

 32 32  0     0  0  0  0  0  0999 V2000
   -2.3847    1.1268    0.4409 O   0  0  0  0  0  0  0  0  0  0  0  0
    2.4580    1.0316    0.4470 O   0  0  0  0  0  0  0  0  0  0  0  0
   -0.1307   -4.6601   -0.3969 O   0  0  0  0  0  0  0  0  0  0  0  0
   -3.6972    2.4812   -0.8792 O   0  0  0  0  0  0  0  0  0  0  0  0
    3.8088    2.3377   -0.8830 O   0  0  0  0  0  0  0  0  0  0  0  0
   -4.6223    1.1140    0.7215 N   0  0  0  0  0  0  0  0  0  0  0  0
    4.6949    0.9447    0.7173 N   0  0  0  0  0  0  0  0  0  0  0  0
    0.0255    0.9270    0.3718 C   0  0  0  0  0  0  0  0  0  0  0  0
   -0.0171   -0.5822    0.1641 C   0  0  0  0  0  0  0  0  0  0  0  0
   -1.2187    1.6059   -0.2201 C   0  0  0  0  0  0  0  0  0  0  0  0
    1.3053    1.5476   -0.2103 C   0  0  0  0  0  0  0  0  0  0  0  0
   -0.0455   -1.4049    1.2701 C   0  0  0  0  0  0  0  0  0  0  0  0
   -0.0249   -1.0757   -1.1232 C   0  0  0  0  0  0  0  0  0  0  0  0
   -0.0836   -2.7862    1.0797 C   0  0  0  0  0  0  0  0  0  0  0  0
   -0.0632   -2.4570   -1.3135 C   0  0  0  0  0  0  0  0  0  0  0  0
   -0.0925   -3.3122   -0.2121 C   0  0  0  0  0  0  0  0  0  0  0  0
   -3.5747    1.6491    0.0135 C   0  0  0  0  0  0  0  0  0  0  0  0
    3.6625    1.5126    0.0124 C   0  0  0  0  0  0  0  0  0  0  0  0
    0.0269    1.1139    1.4549 H   0  0  0  0  0  0  0  0  0  0  0  0
   -1.3050    1.4226   -1.2978 H   0  0  0  0  0  0  0  0  0  0  0  0
   -1.1498    2.6894   -0.0620 H   0  0  0  0  0  0  0  0  0  0  0  0
    1.3854    1.3601   -1.2879 H   0  0  0  0  0  0  0  0  0  0  0  0
    1.2787    2.6339   -0.0565 H   0  0  0  0  0  0  0  0  0  0  0  0
   -0.0389   -1.0072    2.2802 H   0  0  0  0  0  0  0  0  0  0  0  0
   -0.0021   -0.4271   -1.9930 H   0  0  0  0  0  0  0  0  0  0  0  0
   -0.1063   -3.4416    1.9462 H   0  0  0  0  0  0  0  0  0  0  0  0
   -0.0700   -2.8610   -2.3222 H   0  0  0  0  0  0  0  0  0  0  0  0
   -0.1471   -5.0971    0.4720 H   0  0  0  0  0  0  0  0  0  0  0  0
   -5.5809    1.3890    0.5357 H   0  0  0  0  0  0  0  0  0  0  0  0
   -4.4698    0.4268    1.4519 H   0  0  0  0  0  0  0  0  0  0  0  0
    5.6613    1.1869    0.5265 H   0  0  0  0  0  0  0  0  0  0  0  0
    4.5228    0.2649    1.4505 H   0  0  0  0  0  0  0  0  0  0  0  0
  1 10  1  0  0  0  0
  1 17  1  0  0  0  0
  2 11  1  0  0  0  0
  2 18  1  0  0  0  0
  3 16  1  0  0  0  0
  3 28  1  0  0  0  0
  4 17  2  0  0  0  0
  5 18  2  0  0  0  0
  6 17  1  0  0  0  0
  6 29  1  0  0  0  0
  6 30  1  0  0  0  0
  7 18  1  0  0  0  0
  7 31  1  0  0  0  0
  7 32  1  0  0  0  0
  8  9  1  0  0  0  0
  8 10  1  0  0  0  0
  8 11  1  0  0  0  0
  8 19  1  0  0  0  0
  9 12  2  0  0  0  0
  9 13  1  0  0  0  0
 10 20  1  0  0  0  0
 10 21  1  0  0  0  0
 11 22  1  0  0  0  0
 11 23  1  0  0  0  0
 12 14  1  0  0  0  0
 12 24  1  0  0  0  0
 13 15  2  0  0  0  0
 13 25  1  0  0  0  0
 14 16  2  0  0  0  0
 14 26  1  0  0  0  0
 15 16  1  0  0  0  0
 15 27  1  0  0  0  0
M  END
> <PUBCHEM_COMPOUND_CID>
9921310

> <PUBCHEM_CONFORMER_RMSD>
0.8

> <PUBCHEM_CONFORMER_DIVERSEORDER>
1
65
20
27
80
5
25
18
63
12
4
74
77
21
45
14
60
72
56
81
69
67
82
46
28
79
53
38
76
54
32
37
49
51
41
15
50
78
75
30
39
34
40
29
64
13
55
83
48
11
24
8
23
47
84
58
44
7
68
9
70
42
22
61
36
57
33
31
52
73
35
71
62
26
66
17
10
43
59
19
16
2
6
3

> <PUBCHEM_MMFF94_PARTIAL_CHARGES>
27
1 -0.43
10 0.28
11 0.28
12 -0.15
13 -0.15
14 -0.15
15 -0.15
16 0.08
17 0.78
18 0.78
2 -0.43
24 0.15
25 0.15
26 0.15
27 0.15
28 0.45
29 0.37
3 -0.53
30 0.37
31 0.37
32 0.37
4 -0.57
5 -0.57
6 -0.8
7 -0.8
8 0.14
9 -0.14

> <PUBCHEM_EFFECTIVE_ROTOR_COUNT>
7

> <PUBCHEM_PHARMACOPHORE_FEATURES>
6
1 3 donor
1 4 acceptor
1 5 acceptor
1 6 donor
1 7 donor
6 9 12 13 14 15 16 rings

> <PUBCHEM_HEAVY_ATOM_COUNT>
18

> <PUBCHEM_ATOM_DEF_STEREO_COUNT>
0

> <PUBCHEM_ATOM_UDEF_STEREO_COUNT>
0

> <PUBCHEM_BOND_DEF_STEREO_COUNT>
0

> <PUBCHEM_BOND_UDEF_STEREO_COUNT>
0

> <PUBCHEM_ISOTOPIC_ATOM_COUNT>
0

> <PUBCHEM_COMPONENT_COUNT>
1

> <PUBCHEM_CACTVS_TAUTO_COUNT>
6

> <PUBCHEM_CONFORMER_ID>
0097631E00000001

> <PUBCHEM_MMFF94_ENERGY>
38.2531

> <PUBCHEM_FEATURE_SELFOVERLAP>
30.446

> <PUBCHEM_SHAPE_FINGERPRINT>
10922049 32 18411415124479373336
12532896 13 18335703819090118756
12592029 89 18341611576633725296
12707595 3 17620749927041166179
12788726 201 17981045215417410522
13052359 8 18337677386585145103
13681431 1 17688320400587331593
15502722 9 18265613380388150933
15906896 17 18198621025749549450
17539 30 17903081036156258838
1813 80 11023821837728016080
20197701 30 18410582798503782192
20361792 2 17181649581621201230
20645477 70 18123479534352398221
20711985 344 17978243655452529026
21054139 6 18261407607221228573
21524375 3 18411421708638046281
22224240 67 18334289834879962985
23419403 2 17465610832968228479
23558518 356 17838342882830646704
23598288 3 17911781497779733724
23728640 28 18338524032451329874
298252 57 18411985749634402600
458136 41 18336254756236498825
474229 33 18340765949555816249
6138700 20 18049718826778314462
7364860 26 18121501525122351801
81228 2 17835260947031358673
81539 233 18340771558429878293

> <PUBCHEM_SHAPE_MULTIPOLES>
331.12
6.23
4.69
1.1
0.89
5.97
0.04
-8.93
-0.56
-0.63
0.8
-0.02
0.47
-0.03

> <PUBCHEM_SHAPE_SELFOVERLAP>
681.714

> <PUBCHEM_SHAPE_VOLUME>
188.9

> <PUBCHEM_COORDINATE_TYPE>
2
5
10

$$$$

