5462501
  -OEChem-07051213022D

 49 50  0     1  0  0  0  0  0999 V2000
    6.3301    1.4806    0.0000 O   0  0  0  0  0  0  0  0  0  0  0  0
    7.9673    3.9285    0.0000 O   0  0  0  0  0  0  0  0  0  0  0  0
    7.4321    2.2812    0.0000 O   0  0  0  0  0  0  0  0  0  0  0  0
    2.8660    1.4806    0.0000 O   0  0  0  0  0  0  0  0  0  0  0  0
    2.0000   -0.0194    0.0000 O   0  0  0  0  0  0  0  0  0  0  0  0
    5.4641    2.9806    0.0000 N   0  0  0  0  0  0  0  0  0  0  0  0
    4.5981    0.4806    0.0000 N   0  0  0  0  0  0  0  0  0  0  0  0
    6.2731    3.5684    0.0000 C   0  0  1  0  0  0  0  0  0  0  0  0
    5.9641    4.5194    0.0000 C   0  0  0  0  0  0  0  0  0  0  0  0
    4.9641    4.5194    0.0000 C   0  0  0  0  0  0  0  0  0  0  0  0
    4.6551    3.5684    0.0000 C   0  0  0  0  0  0  0  0  0  0  0  0
    5.4641    1.9806    0.0000 C   0  0  0  0  0  0  0  0  0  0  0  0
    4.5981    1.4806    0.0000 C   0  0  2  0  0  0  0  0  0  0  0  0
    7.2242    3.2594    0.0000 C   0  0  0  0  0  0  0  0  0  0  0  0
    3.7320   -0.0194    0.0000 C   0  0  1  0  0  0  0  0  0  0  0  0
    3.7320   -1.0194    0.0000 C   0  0  0  0  0  0  0  0  0  0  0  0
    3.7320    1.9806    0.0000 C   0  0  0  0  0  0  0  0  0  0  0  0
    2.8660   -1.5194    0.0000 C   0  0  0  0  0  0  0  0  0  0  0  0
    2.8660    0.4806    0.0000 C   0  0  0  0  0  0  0  0  0  0  0  0
    2.8660   -2.5194    0.0000 C   0  0  0  0  0  0  0  0  0  0  0  0
    2.0000   -3.0194    0.0000 C   0  0  0  0  0  0  0  0  0  0  0  0
    3.7320   -3.0194    0.0000 C   0  0  0  0  0  0  0  0  0  0  0  0
    2.0000   -4.0194    0.0000 C   0  0  0  0  0  0  0  0  0  0  0  0
    3.7320   -4.0194    0.0000 C   0  0  0  0  0  0  0  0  0  0  0  0
    2.8660   -4.5194    0.0000 C   0  0  0  0  0  0  0  0  0  0  0  0
    6.3701    2.9560    0.0000 H   0  0  0  0  0  0  0  0  0  0  0  0
    6.5706    4.6483    0.0000 H   0  0  0  0  0  0  0  0  0  0  0  0
    5.8993    5.1360    0.0000 H   0  0  0  0  0  0  0  0  0  0  0  0
    5.0289    5.1360    0.0000 H   0  0  0  0  0  0  0  0  0  0  0  0
    4.3576    4.6483    0.0000 H   0  0  0  0  0  0  0  0  0  0  0  0
    4.0887    3.8205    0.0000 H   0  0  0  0  0  0  0  0  0  0  0  0
    4.3451    3.0314    0.0000 H   0  0  0  0  0  0  0  0  0  0  0  0
    5.1350    1.1706    0.0000 H   0  0  0  0  0  0  0  0  0  0  0  0
    3.7320    0.6006    0.0000 H   0  0  0  0  0  0  0  0  0  0  0  0
    5.1350    0.1706    0.0000 H   0  0  0  0  0  0  0  0  0  0  0  0
    3.9441   -1.6020    0.0000 H   0  0  0  0  0  0  0  0  0  0  0  0
    4.3426   -0.9118    0.0000 H   0  0  0  0  0  0  0  0  0  0  0  0
    4.0420    2.5175    0.0000 H   0  0  0  0  0  0  0  0  0  0  0  0
    3.1951    2.2906    0.0000 H   0  0  0  0  0  0  0  0  0  0  0  0
    3.4220    1.4436    0.0000 H   0  0  0  0  0  0  0  0  0  0  0  0
    2.6540   -0.9368    0.0000 H   0  0  0  0  0  0  0  0  0  0  0  0
    2.2554   -1.6271    0.0000 H   0  0  0  0  0  0  0  0  0  0  0  0
    8.5570    3.7369    0.0000 H   0  0  0  0  0  0  0  0  0  0  0  0
    1.4631   -2.7094    0.0000 H   0  0  0  0  0  0  0  0  0  0  0  0
    4.2690   -2.7094    0.0000 H   0  0  0  0  0  0  0  0  0  0  0  0
    2.3291    1.7906    0.0000 H   0  0  0  0  0  0  0  0  0  0  0  0
    1.4631   -4.3294    0.0000 H   0  0  0  0  0  0  0  0  0  0  0  0
    4.2690   -4.3294    0.0000 H   0  0  0  0  0  0  0  0  0  0  0  0
    2.8660   -5.1394    0.0000 H   0  0  0  0  0  0  0  0  0  0  0  0
  1 12  2  0  0  0  0
  2 14  1  0  0  0  0
  2 43  1  0  0  0  0
  3 14  2  0  0  0  0
  4 19  1  0  0  0  0
  4 46  1  0  0  0  0
  5 19  2  0  0  0  0
  6  8  1  0  0  0  0
  6 11  1  0  0  0  0
  6 12  1  0  0  0  0
 13  7  1  1  0  0  0
 15  7  1  1  0  0  0
  7 35  1  0  0  0  0
  8  9  1  0  0  0  0
  8 14  1  1  0  0  0
  8 26  1  0  0  0  0
  9 10  1  0  0  0  0
  9 27  1  0  0  0  0
  9 28  1  0  0  0  0
 10 11  1  0  0  0  0
 10 29  1  0  0  0  0
 10 30  1  0  0  0  0
 11 31  1  0  0  0  0
 11 32  1  0  0  0  0
 12 13  1  0  0  0  0
 13 17  1  0  0  0  0
 13 33  1  0  0  0  0
 15 16  1  0  0  0  0
 15 19  1  0  0  0  0
 15 34  1  0  0  0  0
 16 18  1  0  0  0  0
 16 36  1  0  0  0  0
 16 37  1  0  0  0  0
 17 38  1  0  0  0  0
 17 39  1  0  0  0  0
 17 40  1  0  0  0  0
 18 20  1  0  0  0  0
 18 41  1  0  0  0  0
 18 42  1  0  0  0  0
 20 21  2  0  0  0  0
 20 22  1  0  0  0  0
 21 23  1  0  0  0  0
 21 44  1  0  0  0  0
 22 24  2  0  0  0  0
 22 45  1  0  0  0  0
 23 25  2  0  0  0  0
 23 47  1  0  0  0  0
 24 25  1  0  0  0  0
 24 48  1  0  0  0  0
 25 49  1  0  0  0  0
M  END
> <PUBCHEM_COMPOUND_CID>
5462501

> <PUBCHEM_COMPOUND_CANONICALIZED>
1

> <PUBCHEM_CACTVS_COMPLEXITY>
490

> <PUBCHEM_CACTVS_HBOND_ACCEPTOR>
6

> <PUBCHEM_CACTVS_HBOND_DONOR>
3

> <PUBCHEM_CACTVS_ROTATABLE_BOND>
8

> <PUBCHEM_CACTVS_SUBSKEYS>
AAADceB7OAAAAAAAAAAAAAAAAAAAAWAAAAAwAAAAAAAAAAABAAAAHgAQCAAADCjBmAQyCIPAAgCIAiHSGAACAAAgAAAIiIGIAIgKYDKAkTCUYAAklgCYiAeY2bKOAAAAAAAAAAAAAAAAAAAAAAAAAAAAAA==

> <PUBCHEM_IUPAC_OPENEYE_NAME>
(2S)-1-[(2S)-2-[[(1S)-1-carboxy-3-phenyl-propyl]amino]propanoyl]pyrrolidine-2-carboxylic acid

> <PUBCHEM_IUPAC_CAS_NAME>
(2S)-1-[(2S)-2-[[(1S)-1-carboxy-3-phenylpropyl]amino]-1-oxopropyl]-2-pyrrolidinecarboxylic acid

> <PUBCHEM_IUPAC_NAME>
(2S)-1-[(2S)-2-[[(1S)-1-carboxy-3-phenylpropyl]amino]propanoyl]pyrrolidine-2-carboxylic acid

> <PUBCHEM_IUPAC_SYSTEMATIC_NAME>
(2S)-1-[(2S)-2-[[(2S)-1-oxidanyl-1-oxidanylidene-4-phenyl-butan-2-yl]amino]propanoyl]pyrrolidine-2-carboxylic acid

> <PUBCHEM_IUPAC_TRADITIONAL_NAME>
(2S)-1-[(2S)-2-[[(1S)-1-carboxy-3-phenyl-propyl]amino]propanoyl]proline

> <PUBCHEM_IUPAC_INCHI>
InChI=1S/C18H24N2O5/c1-12(16(21)20-11-5-8-15(20)18(24)25)19-14(17(22)23)10-9-13-6-3-2-4-7-13/h2-4,6-7,12,14-15,19H,5,8-11H2,1H3,(H,22,23)(H,24,25)/t12-,14-,15-/m0/s1

> <PUBCHEM_IUPAC_INCHIKEY>
LZFZMUMEGBBDTC-QEJZJMRPSA-N

> <PUBCHEM_XLOGP3>
-0.7

> <PUBCHEM_EXACT_MASS>
348.168522

> <PUBCHEM_MOLECULAR_FORMULA>
C18H24N2O5

> <PUBCHEM_MOLECULAR_WEIGHT>
348.39356

> <PUBCHEM_OPENEYE_CAN_SMILES>
CC(C(=O)N1CCCC1C(=O)O)NC(CCC2=CC=CC=C2)C(=O)O

> <PUBCHEM_OPENEYE_ISO_SMILES>
C[C@@H](C(=O)N1CCC[C@H]1C(=O)O)N[C@@H](CCC2=CC=CC=C2)C(=O)O

> <PUBCHEM_CACTVS_TPSA>
107

> <PUBCHEM_MONOISOTOPIC_WEIGHT>
348.168522

> <PUBCHEM_TOTAL_CHARGE>
0

> <PUBCHEM_HEAVY_ATOM_COUNT>
25

> <PUBCHEM_ATOM_DEF_STEREO_COUNT>
3

> <PUBCHEM_ATOM_UDEF_STEREO_COUNT>
0

> <PUBCHEM_BOND_DEF_STEREO_COUNT>
0

> <PUBCHEM_BOND_UDEF_STEREO_COUNT>
0

> <PUBCHEM_ISOTOPIC_ATOM_COUNT>
0

> <PUBCHEM_COMPONENT_COUNT>
1

> <PUBCHEM_CACTVS_TAUTO_COUNT>
1

> <PUBCHEM_COORDINATE_TYPE>
1
5
255

> <PUBCHEM_BONDANNOTATIONS>
20  21  8
20  22  8
21  23  8
22  24  8
23  25  8
24  25  8
13  7  5
15  7  5
8  14  5

$$$$

