134049
  -OEChem-07051213093D

 36 37  0     1  0  0  0  0  0999 V2000
   -3.4399   -0.3946   -0.6551 S   0  0  0  0  0  0  0  0  0  0  0  0
   -3.5828    0.5664   -1.7383 O   0  0  0  0  0  0  0  0  0  0  0  0
   -4.0551   -1.7091   -0.7662 O   0  0  0  0  0  0  0  0  0  0  0  0
   -5.8186    1.4702   -0.3730 O   0  0  0  0  0  0  0  0  0  0  0  0
    6.2070    1.1476   -0.0728 O   0  0  0  0  0  0  0  0  0  0  0  0
    5.3596   -0.8310    0.7002 O   0  0  0  0  0  0  0  0  0  0  0  0
    1.6207    0.9864   -0.6034 N   0  0  0  0  0  0  0  0  0  0  0  0
    2.3540   -0.8924    0.3307 N   0  0  0  0  0  0  0  0  0  0  0  0
    3.9591    0.8180   -0.2212 N   0  0  0  0  0  0  0  0  0  0  0  0
   -4.0732    0.3526    0.8285 C   0  0  0  0  0  0  0  0  0  0  0  0
   -1.7312   -0.5969   -0.3409 C   0  0  0  0  0  0  0  0  0  0  0  0
   -5.5713    0.6059    0.7336 C   0  0  1  0  0  0  0  0  0  0  0  0
    0.5040    0.2150   -0.4074 C   0  0  0  0  0  0  0  0  0  0  0  0
   -0.8467    0.4314   -0.6823 C   0  0  0  0  0  0  0  0  0  0  0  0
    0.9880   -0.9524    0.1767 C   0  0  0  0  0  0  0  0  0  0  0  0
   -1.2756   -1.7797    0.2460 C   0  0  0  0  0  0  0  0  0  0  0  0
    0.0852   -1.9752    0.5129 C   0  0  0  0  0  0  0  0  0  0  0  0
   -6.0948    1.2732    1.9979 C   0  0  0  0  0  0  0  0  0  0  0  0
    2.6999    0.2822   -0.1468 C   0  0  0  0  0  0  0  0  0  0  0  0
    5.1898    0.2679    0.1863 C   0  0  0  0  0  0  0  0  0  0  0  0
    7.5218    0.7143    0.2946 C   0  0  0  0  0  0  0  0  0  0  0  0
   -3.5285    1.2949    0.9554 H   0  0  0  0  0  0  0  0  0  0  0  0
   -3.8424   -0.3154    1.6641 H   0  0  0  0  0  0  0  0  0  0  0  0
   -6.1188   -0.3275    0.5621 H   0  0  0  0  0  0  0  0  0  0  0  0
   -1.1787    1.3604   -1.1319 H   0  0  0  0  0  0  0  0  0  0  0  0
   -1.9696   -2.5720    0.5155 H   0  0  0  0  0  0  0  0  0  0  0  0
    0.4293   -2.8971    0.9709 H   0  0  0  0  0  0  0  0  0  0  0  0
   -7.1672    1.4755    1.9048 H   0  0  0  0  0  0  0  0  0  0  0  0
   -5.6067    2.2401    2.1633 H   0  0  0  0  0  0  0  0  0  0  0  0
   -5.9333    0.6421    2.8770 H   0  0  0  0  0  0  0  0  0  0  0  0
    1.6423    1.9107   -1.0128 H   0  0  0  0  0  0  0  0  0  0  0  0
   -5.7009    0.9539   -1.1880 H   0  0  0  0  0  0  0  0  0  0  0  0
    4.0131    1.7482   -0.6296 H   0  0  0  0  0  0  0  0  0  0  0  0
    7.5748    0.5394    1.3734 H   0  0  0  0  0  0  0  0  0  0  0  0
    8.2263    1.5081    0.0326 H   0  0  0  0  0  0  0  0  0  0  0  0
    7.7904   -0.1905   -0.2588 H   0  0  0  0  0  0  0  0  0  0  0  0
  1  2  2  0  0  0  0
  1  3  2  0  0  0  0
  1 10  1  0  0  0  0
  1 11  1  0  0  0  0
  4 12  1  0  0  0  0
  4 32  1  0  0  0  0
  5 20  1  0  0  0  0
  5 21  1  0  0  0  0
  6 20  2  0  0  0  0
  7 13  1  0  0  0  0
  7 19  1  0  0  0  0
  7 31  1  0  0  0  0
  8 15  1  0  0  0  0
  8 19  2  0  0  0  0
  9 19  1  0  0  0  0
  9 20  1  0  0  0  0
  9 33  1  0  0  0  0
 10 12  1  0  0  0  0
 10 22  1  0  0  0  0
 10 23  1  0  0  0  0
 11 14  2  0  0  0  0
 11 16  1  0  0  0  0
 12 18  1  0  0  0  0
 12 24  1  0  0  0  0
 13 14  1  0  0  0  0
 13 15  2  0  0  0  0
 14 25  1  0  0  0  0
 15 17  1  0  0  0  0
 16 17  2  0  0  0  0
 16 26  1  0  0  0  0
 17 27  1  0  0  0  0
 18 28  1  0  0  0  0
 18 29  1  0  0  0  0
 18 30  1  0  0  0  0
 21 34  1  0  0  0  0
 21 35  1  0  0  0  0
 21 36  1  0  0  0  0
M  END
> <PUBCHEM_COMPOUND_CID>
134049

> <PUBCHEM_CONFORMER_RMSD>
0.8

> <PUBCHEM_CONFORMER_DIVERSEORDER>
1
20
18
15
23
14
4
26
16
2
28
19
22
9
5
17
25
7
27
6
8
3
24
13
10
11
12
21

> <PUBCHEM_MMFF94_PARTIAL_CHARGES>
26
1 1.2
10 0.11
11 -0.01
12 0.28
13 -0.15
14 -0.15
15 0.23
16 -0.15
17 -0.15
19 0.25
2 -0.65
20 0.78
21 0.28
25 0.15
26 0.15
27 0.15
3 -0.65
31 0.27
32 0.4
33 0.37
4 -0.68
5 -0.43
6 -0.57
7 0.03
8 -0.57
9 -0.49

> <PUBCHEM_EFFECTIVE_ROTOR_COUNT>
6

> <PUBCHEM_PHARMACOPHORE_FEATURES>
9
1 2 acceptor
1 3 acceptor
1 4 acceptor
1 4 donor
1 6 acceptor
1 7 donor
1 9 donor
5 7 8 13 15 19 rings
6 11 13 14 15 16 17 rings

> <PUBCHEM_HEAVY_ATOM_COUNT>
21

> <PUBCHEM_ATOM_DEF_STEREO_COUNT>
0

> <PUBCHEM_ATOM_UDEF_STEREO_COUNT>
1

> <PUBCHEM_BOND_DEF_STEREO_COUNT>
0

> <PUBCHEM_BOND_UDEF_STEREO_COUNT>
0

> <PUBCHEM_ISOTOPIC_ATOM_COUNT>
0

> <PUBCHEM_COMPONENT_COUNT>
1

> <PUBCHEM_CACTVS_TAUTO_COUNT>
5

> <PUBCHEM_CONFORMER_ID>
00020BA100000001

> <PUBCHEM_MMFF94_ENERGY>
30.6013

> <PUBCHEM_FEATURE_SELFOVERLAP>
45.835

> <PUBCHEM_SHAPE_FINGERPRINT>
10 15 17775281664333896969
106641 1 18131625661140661929
10906281 52 18339065018015670358
11089746 13 17749113283245171913
11315181 36 18262241023743758215
117890 112 18040152907811719096
12091667 2 17275112716614347790
12236239 1 18186801400399967403
12616971 3 17774999059680281846
12670543 26 5617261390165311969
13533116 47 18114183094735750786
13583140 156 15338852936471015367
13914758 101 16660636406343137434
14251752 14 15719389564200040420
14251764 18 18341332214675448158
14849402 71 18267016159441147296
15048467 5 18114179748117119424
15716309 27 13398630549994640696
15778101 99 18114177532388722251
17093844 174 18260270715675287139
18222031 100 8646767768567569686
18769570 83 17458341970170930233
19489759 90 16153425038949699602
20281389 69 18410857667915854113
20621476 66 18409443687282824824
20621476 8 18408882962960882204
21150785 3 15719115747234654949
21236236 1 18341896230129347283
21637258 2 12607403256579006257
21756936 100 17967811657254335467
220451 1 18343584032312606814
22224240 67 18131910456085069739
23198884 109 16153703254536830185
23402539 116 17967535653216724892
23536379 177 17313101960372637486
23559900 14 18336553699420130800
270888 7 17533202306213211041
2838139 119 17312821580591969505
293599 30 18408602565118986555
3009799 131 5184346287367464378
397830 11 14979382942592084364
4340502 62 15841835568805340666
5104073 3 18057891251630167840
5385378 56 18340764940117624370
542803 24 18114185228764310350
7226269 152 18260829306242548201

> <PUBCHEM_SHAPE_MULTIPOLES>
391.73
16.73
1.57
1.13
14.45
0.52
-0.08
-8.83
-4.15
-0.99
-0.23
-1.76
-0.25
-1.11

> <PUBCHEM_SHAPE_SELFOVERLAP>
814.579

> <PUBCHEM_SHAPE_VOLUME>
224.6

> <PUBCHEM_COORDINATE_TYPE>
2
5
10

$$$$

