11954023
  -OEChem-07051213043D

 49 52  0     1  0  0  0  0  0999 V2000
   -6.3325    1.8187    0.3767 O   0  0  0  0  0  0  0  0  0  0  0  0
   -0.9972   -0.0385   -0.0397 C   0  0  0  0  0  0  0  0  0  0  0  0
    1.4584    0.5818    0.0304 C   0  0  1  0  0  0  0  0  0  0  0  0
    0.6687   -1.3892   -1.4549 C   0  0  1  0  0  0  0  0  0  0  0  0
    0.0158    1.1103    0.0981 C   0  0  0  0  0  0  0  0  0  0  0  0
   -0.7612   -0.8064   -1.3530 C   0  0  0  0  0  0  0  0  0  0  0  0
    1.6956   -0.2512   -1.2479 C   0  0  0  0  0  0  0  0  0  0  0  0
   -2.4277    0.4598    0.0722 C   0  0  0  0  0  0  0  0  0  0  0  0
    2.4804    1.6986    0.1625 C   0  0  0  0  0  0  0  0  0  0  0  0
    0.8580   -2.6551   -0.6201 C   0  0  0  0  0  0  0  0  0  0  0  0
   -3.2388    0.0094    1.1103 C   0  0  0  0  0  0  0  0  0  0  0  0
   -2.9208    1.3641   -0.8647 C   0  0  0  0  0  0  0  0  0  0  0  0
    3.6750    1.4684    0.8405 C   0  0  0  0  0  0  0  0  0  0  0  0
   -0.2494   -3.4171   -0.2545 C   0  0  0  0  0  0  0  0  0  0  0  0
    2.2179    2.9478   -0.3945 C   0  0  0  0  0  0  0  0  0  0  0  0
    2.1372   -3.0422   -0.2273 C   0  0  0  0  0  0  0  0  0  0  0  0
   -4.5527    0.4666    1.2123 C   0  0  0  0  0  0  0  0  0  0  0  0
   -4.2347    1.8213   -0.7626 C   0  0  0  0  0  0  0  0  0  0  0  0
    4.6130    2.4937    0.9622 C   0  0  0  0  0  0  0  0  0  0  0  0
   -0.0766   -4.5724    0.5079 C   0  0  0  0  0  0  0  0  0  0  0  0
    3.1559    3.9731   -0.2729 C   0  0  0  0  0  0  0  0  0  0  0  0
    2.3100   -4.1975    0.5350 C   0  0  0  0  0  0  0  0  0  0  0  0
   -5.0506    1.3725    0.2758 C   0  0  0  0  0  0  0  0  0  0  0  0
    4.3533    3.7460    0.4054 C   0  0  0  0  0  0  0  0  0  0  0  0
    1.2030   -4.9625    0.9026 C   0  0  0  0  0  0  0  0  0  0  0  0
   -0.8208   -0.7303    0.7950 H   0  0  0  0  0  0  0  0  0  0  0  0
    1.5899   -0.0840    0.8954 H   0  0  0  0  0  0  0  0  0  0  0  0
    0.7929   -1.7325   -2.4928 H   0  0  0  0  0  0  0  0  0  0  0  0
   -0.1461    1.6410    1.0459 H   0  0  0  0  0  0  0  0  0  0  0  0
   -0.1781    1.8310   -0.7027 H   0  0  0  0  0  0  0  0  0  0  0  0
   -0.8664   -0.0986   -2.1894 H   0  0  0  0  0  0  0  0  0  0  0  0
   -1.5509   -1.5379   -1.5457 H   0  0  0  0  0  0  0  0  0  0  0  0
    1.6094    0.4260   -2.1111 H   0  0  0  0  0  0  0  0  0  0  0  0
    2.7284   -0.6108   -1.2877 H   0  0  0  0  0  0  0  0  0  0  0  0
   -2.8655   -0.6966    1.8471 H   0  0  0  0  0  0  0  0  0  0  0  0
   -2.3055    1.7264   -1.6829 H   0  0  0  0  0  0  0  0  0  0  0  0
    3.8899    0.4964    1.2761 H   0  0  0  0  0  0  0  0  0  0  0  0
   -1.2663   -3.1837   -0.5406 H   0  0  0  0  0  0  0  0  0  0  0  0
    1.3179    3.1656   -0.9574 H   0  0  0  0  0  0  0  0  0  0  0  0
    3.0261   -2.4891   -0.5074 H   0  0  0  0  0  0  0  0  0  0  0  0
   -5.1782    0.1093    2.0259 H   0  0  0  0  0  0  0  0  0  0  0  0
   -4.6171    2.5268   -1.4952 H   0  0  0  0  0  0  0  0  0  0  0  0
    5.5459    2.3167    1.4893 H   0  0  0  0  0  0  0  0  0  0  0  0
   -0.9374   -5.1712    0.7913 H   0  0  0  0  0  0  0  0  0  0  0  0
    2.9576    4.9463   -0.7124 H   0  0  0  0  0  0  0  0  0  0  0  0
    3.3066   -4.5044    0.8387 H   0  0  0  0  0  0  0  0  0  0  0  0
    5.0844    4.5438    0.4985 H   0  0  0  0  0  0  0  0  0  0  0  0
    1.3378   -5.8631    1.4945 H   0  0  0  0  0  0  0  0  0  0  0  0
   -6.7499    1.4057    1.1522 H   0  0  0  0  0  0  0  0  0  0  0  0
  1 23  1  0  0  0  0
  1 49  1  0  0  0  0
  2  5  1  0  0  0  0
  2  6  1  0  0  0  0
  2  8  1  0  0  0  0
  2 26  1  0  0  0  0
  3  5  1  0  0  0  0
  3  7  1  0  0  0  0
  3  9  1  0  0  0  0
  3 27  1  0  0  0  0
  4  6  1  0  0  0  0
  4  7  1  0  0  0  0
  4 10  1  0  0  0  0
  4 28  1  0  0  0  0
  5 29  1  0  0  0  0
  5 30  1  0  0  0  0
  6 31  1  0  0  0  0
  6 32  1  0  0  0  0
  7 33  1  0  0  0  0
  7 34  1  0  0  0  0
  8 11  2  0  0  0  0
  8 12  1  0  0  0  0
  9 13  2  0  0  0  0
  9 15  1  0  0  0  0
 10 14  2  0  0  0  0
 10 16  1  0  0  0  0
 11 17  1  0  0  0  0
 11 35  1  0  0  0  0
 12 18  2  0  0  0  0
 12 36  1  0  0  0  0
 13 19  1  0  0  0  0
 13 37  1  0  0  0  0
 14 20  1  0  0  0  0
 14 38  1  0  0  0  0
 15 21  2  0  0  0  0
 15 39  1  0  0  0  0
 16 22  2  0  0  0  0
 16 40  1  0  0  0  0
 17 23  2  0  0  0  0
 17 41  1  0  0  0  0
 18 23  1  0  0  0  0
 18 42  1  0  0  0  0
 19 24  2  0  0  0  0
 19 43  1  0  0  0  0
 20 25  2  0  0  0  0
 20 44  1  0  0  0  0
 21 24  1  0  0  0  0
 21 45  1  0  0  0  0
 22 25  1  0  0  0  0
 22 46  1  0  0  0  0
 24 47  1  0  0  0  0
 25 48  1  0  0  0  0
M  END
> <PUBCHEM_COMPOUND_CID>
11954023

> <PUBCHEM_CONFORMER_RMSD>
0.8

> <PUBCHEM_CONFORMER_DIVERSEORDER>
2
7
12
5
9
6
3
8
4
11
1
10

> <PUBCHEM_MMFF94_PARTIAL_CHARGES>
37
1 -0.53
10 -0.14
11 -0.15
12 -0.15
13 -0.15
14 -0.15
15 -0.15
16 -0.15
17 -0.15
18 -0.15
19 -0.15
2 0.14
20 -0.15
21 -0.15
22 -0.15
23 0.08
24 -0.15
25 -0.15
3 0.14
35 0.15
36 0.15
37 0.15
38 0.15
39 0.15
4 0.14
40 0.15
41 0.15
42 0.15
43 0.15
44 0.15
45 0.15
46 0.15
47 0.15
48 0.15
49 0.45
8 -0.14
9 -0.14

> <PUBCHEM_EFFECTIVE_ROTOR_COUNT>
4.2

> <PUBCHEM_PHARMACOPHORE_FEATURES>
5
1 1 donor
6 10 14 16 20 22 25 rings
6 2 3 4 5 6 7 rings
6 8 11 12 17 18 23 rings
6 9 13 15 19 21 24 rings

> <PUBCHEM_HEAVY_ATOM_COUNT>
25

> <PUBCHEM_ATOM_DEF_STEREO_COUNT>
0

> <PUBCHEM_ATOM_UDEF_STEREO_COUNT>
2

> <PUBCHEM_BOND_DEF_STEREO_COUNT>
0

> <PUBCHEM_BOND_UDEF_STEREO_COUNT>
0

> <PUBCHEM_ISOTOPIC_ATOM_COUNT>
0

> <PUBCHEM_COMPONENT_COUNT>
1

> <PUBCHEM_CACTVS_TAUTO_COUNT>
2

> <PUBCHEM_CONFORMER_ID>
00B6676700000002

> <PUBCHEM_MMFF94_ENERGY>
80.3192

> <PUBCHEM_FEATURE_SELFOVERLAP>
25.372

> <PUBCHEM_SHAPE_FINGERPRINT>
10074138 170 17833846966398122000
10411042 1 17761492895110729871
107951 10 18263917740389963718
1100329 8 18409730686183960342
11036077 51 18122356674833813178
12107183 9 18340219484077650832
12160290 23 17612006206138055013
12293681 4 16969994147066893285
12516196 113 17907296911772655011
12549972 3 17771322430911595073
12788726 201 17686921426749817782
13134695 92 17979361089968450967
13140716 1 18410011022476918158
133893 2 17974323020136379487
13533116 47 18196924690599915729
13540713 4 17681253483839129476
13540713 5 17968394419971021687
13583140 156 18268705181658453983
138480 1 18050569839459777826
13955234 65 18339354283915350081
14856354 85 16414637043470252624
15230672 131 18342168918583626484
15878777 1 9138979365652527022
15927050 60 18336265644105688502
17138139 8 17391105576113211711
17980427 26 18336836367658999261
18785283 64 18340209694860160858
19246450 95 18051448242531135648
20369508 70 18123182670101606167
21033648 29 18263088708201764224
21049683 118 17971499336842455440
21049683 271 18127113398131777846
21120745 212 16971943001119800861
2132832 1 17681276886614629145
21796203 349 17761177271139472491
23419403 2 17769673210112807894
23558518 356 18192436268754447710
23559900 14 17916006036391612863
23845131 108 18340488859529925955
25147074 1 17822876250578468599
283562 15 17975989665406535231
3091708 16 9044634890004777326
3178227 256 18338783611573800746
3421961 26 18196089078325516027
3759504 43 18192431870565361704
376196 1 17750241322304411620
394222 165 18113893901048447715
4058900 60 18337091411186196728
4409770 3 17621335536646592279
474 4 18334011683670005105
5309563 4 17906456880461938386
5385378 56 18336543906098546233
621550 34 18342454863951814317
6679774 75 18131356319705870322
7399639 24 18342164541452801745
77188 2 17762056936048790470
79837 15 18194967327103880328
9777508 108 18194674865822697242
9841814 1 18046896358406038935
9896288 288 17761500184624643352
9981440 41 18340205181387681617
9999458 23 18409443717590033644

> <PUBCHEM_SHAPE_MULTIPOLES>
508.62
9.18
6.87
1.16
8.94
9.05
-0.12
-14.01
2.87
-6.49
1.27
0.19
0.18
0.36

> <PUBCHEM_SHAPE_SELFOVERLAP>
1108.122

> <PUBCHEM_SHAPE_VOLUME>
273.6

> <PUBCHEM_COORDINATE_TYPE>
2
5
10

$$$$

