47205283
  -OEChem-06241222583D

 37 37  0     0  0  0  0  0  0999 V2000
   -3.9163   -0.9906   -0.1777 S   0  0  0  0  0  0  0  0  0  0  0  0
   -4.8784   -1.2274   -1.2357 O   0  0  0  0  0  0  0  0  0  0  0  0
   -3.9967   -1.7071    1.0801 O   0  0  0  0  0  0  0  0  0  0  0  0
    0.6832    1.8711   -1.2537 O   0  0  0  0  0  0  0  0  0  0  0  0
    4.6282   -1.8638   -0.3276 O   0  0  0  0  0  0  0  0  0  0  0  0
   -1.4103    0.8475    0.2172 N   0  0  0  0  0  0  0  0  0  0  0  0
    2.1125    1.5049    0.5398 N   0  0  0  0  0  0  0  0  0  0  0  0
   -2.6507    1.1536    0.9505 C   0  0  0  0  0  0  0  0  0  0  0  0
   -1.2194   -0.6026    0.0424 C   0  0  0  0  0  0  0  0  0  0  0  0
   -3.8962    0.7518    0.1693 C   0  0  0  0  0  0  0  0  0  0  0  0
   -2.2883   -1.2207   -0.8511 C   0  0  0  0  0  0  0  0  0  0  0  0
   -0.2607    1.4192    0.9235 C   0  0  0  0  0  0  0  0  0  0  0  0
    0.8694    1.6171   -0.0658 C   0  0  0  0  0  0  0  0  0  0  0  0
    3.3592    1.6773   -0.1711 C   0  0  0  0  0  0  0  0  0  0  0  0
    3.8831    0.3721   -0.7552 C   0  0  0  0  0  0  0  0  0  0  0  0
    4.1274   -0.6941    0.3060 C   0  0  0  0  0  0  0  0  0  0  0  0
    4.8541   -2.9083    0.6091 C   0  0  0  0  0  0  0  0  0  0  0  0
   -2.6463    0.6680    1.9350 H   0  0  0  0  0  0  0  0  0  0  0  0
   -2.7179    2.2347    1.1248 H   0  0  0  0  0  0  0  0  0  0  0  0
   -0.2508   -0.8013   -0.4324 H   0  0  0  0  0  0  0  0  0  0  0  0
   -1.2067   -1.1102    1.0159 H   0  0  0  0  0  0  0  0  0  0  0  0
   -3.9469    1.2787   -0.7895 H   0  0  0  0  0  0  0  0  0  0  0  0
   -4.8029    0.9802    0.7378 H   0  0  0  0  0  0  0  0  0  0  0  0
   -2.1309   -2.2984   -0.9580 H   0  0  0  0  0  0  0  0  0  0  0  0
   -2.2774   -0.7686   -1.8486 H   0  0  0  0  0  0  0  0  0  0  0  0
   -0.4876    2.4239    1.3034 H   0  0  0  0  0  0  0  0  0  0  0  0
    0.0446    0.8053    1.7793 H   0  0  0  0  0  0  0  0  0  0  0  0
    2.1654    1.2992    1.5331 H   0  0  0  0  0  0  0  0  0  0  0  0
    4.0811    2.0953    0.5385 H   0  0  0  0  0  0  0  0  0  0  0  0
    3.2134    2.4085   -0.9735 H   0  0  0  0  0  0  0  0  0  0  0  0
    4.8151    0.5622   -1.3015 H   0  0  0  0  0  0  0  0  0  0  0  0
    3.1758   -0.0194   -1.4975 H   0  0  0  0  0  0  0  0  0  0  0  0
    3.1947   -0.9397    0.8264 H   0  0  0  0  0  0  0  0  0  0  0  0
    4.8581   -0.3339    1.0396 H   0  0  0  0  0  0  0  0  0  0  0  0
    5.2422   -3.7764    0.0696 H   0  0  0  0  0  0  0  0  0  0  0  0
    3.9184   -3.1925    1.1002 H   0  0  0  0  0  0  0  0  0  0  0  0
    5.5938   -2.6016    1.3550 H   0  0  0  0  0  0  0  0  0  0  0  0
  1  2  2  0  0  0  0
  1  3  2  0  0  0  0
  1 10  1  0  0  0  0
  1 11  1  0  0  0  0
  4 13  2  0  0  0  0
  5 16  1  0  0  0  0
  5 17  1  0  0  0  0
  6  8  1  0  0  0  0
  6  9  1  0  0  0  0
  6 12  1  0  0  0  0
  7 13  1  0  0  0  0
  7 14  1  0  0  0  0
  7 28  1  0  0  0  0
  8 10  1  0  0  0  0
  8 18  1  0  0  0  0
  8 19  1  0  0  0  0
  9 11  1  0  0  0  0
  9 20  1  0  0  0  0
  9 21  1  0  0  0  0
 10 22  1  0  0  0  0
 10 23  1  0  0  0  0
 11 24  1  0  0  0  0
 11 25  1  0  0  0  0
 12 13  1  0  0  0  0
 12 26  1  0  0  0  0
 12 27  1  0  0  0  0
 14 15  1  0  0  0  0
 14 29  1  0  0  0  0
 14 30  1  0  0  0  0
 15 16  1  0  0  0  0
 15 31  1  0  0  0  0
 15 32  1  0  0  0  0
 16 33  1  0  0  0  0
 16 34  1  0  0  0  0
 17 35  1  0  0  0  0
 17 36  1  0  0  0  0
 17 37  1  0  0  0  0
M  END
> <PUBCHEM_COMPOUND_CID>
47205283

> <PUBCHEM_CONFORMER_RMSD>
1

> <PUBCHEM_CONFORMER_DIVERSEORDER>
1
31
17
21
36
28
69
38
26
35
61
54
18
50
63
12
48
20
11
46
39
3
45
44
33
59
67
13
66
24
2
37
22
8
27
41
52
23
34
49
42
19
43
15
16
9
55
56
30
14
65
47
68
64
4
62
57
32
51
60
25
58
10
6
40
7
5
53
29

> <PUBCHEM_MMFF94_PARTIAL_CHARGES>
17
1 1.09
10 0.11
11 0.11
12 0.33
13 0.57
14 0.3
16 0.28
17 0.28
2 -0.65
28 0.37
3 -0.65
4 -0.57
5 -0.56
6 -0.81
7 -0.73
8 0.27
9 0.27

> <PUBCHEM_EFFECTIVE_ROTOR_COUNT>
8

> <PUBCHEM_PHARMACOPHORE_FEATURES>
7
1 2 acceptor
1 3 acceptor
1 4 acceptor
1 5 acceptor
1 6 cation
1 7 donor
6 1 6 8 9 10 11 rings

> <PUBCHEM_HEAVY_ATOM_COUNT>
17

> <PUBCHEM_ATOM_DEF_STEREO_COUNT>
0

> <PUBCHEM_ATOM_UDEF_STEREO_COUNT>
0

> <PUBCHEM_BOND_DEF_STEREO_COUNT>
0

> <PUBCHEM_BOND_UDEF_STEREO_COUNT>
0

> <PUBCHEM_ISOTOPIC_ATOM_COUNT>
0

> <PUBCHEM_COMPONENT_COUNT>
1

> <PUBCHEM_CACTVS_TAUTO_COUNT>
2

> <PUBCHEM_CONFORMER_ID>
02D04BA300000001

> <PUBCHEM_MMFF94_ENERGY>
20.6639

> <PUBCHEM_FEATURE_SELFOVERLAP>
35.537

> <PUBCHEM_SHAPE_FINGERPRINT>
10062212 137 18260546732001771919
11159736 12 18334297578088370436
12107183 9 18046899656825209520
12410352 35 18261112967505084542
12596602 18 16950281780797874714
12824470 246 18335982086253845120
12839892 36 17095243605379678487
13167823 11 18335134276330392196
13533116 47 18335141938646863979
13551218 46 18334572439074349799
1420 369 18334295387982415398
14251731 5 18339642343240663334
15342816 4 18335972117587395348
15352361 1 18339080510000071858
17857418 61 18333454239642669486
1798214 20 18410576175922401806
1813 80 17917712409539486188
18186145 218 15482663559668046476
193927 3 18409158918298287226
20281475 54 18410290346097175488
20621476 51 17604162436225523774
20621476 91 4822636748139430943
20645477 70 18202563943551287784
21250096 35 18334012783165392976
21354914 76 18410855469277324052
22620623 9 17345765229445244068
23402539 116 17530962450344716517
23559900 14 18186805747086791048
4463277 69 18411700989345021580
4990 188 17131276748784199733
5104073 3 18186514401989800425
5207 123 18340211881293887990
556388 4 18412829105592541578
559249 180 18265336277608695051
573450 72 17967810565668244561
633830 44 17132110243001782673
76465 3 18335987540498281292
88748 71 18341888649612179938
960060 61 17989200452301034620

> <PUBCHEM_SHAPE_MULTIPOLES>
320.26
11.12
2.63
1.04
4.25
0.98
0.06
7.93
0.31
2.57
-0.24
-0.43
0.01
-1.11

> <PUBCHEM_SHAPE_SELFOVERLAP>
609.222

> <PUBCHEM_SHAPE_VOLUME>
197.4

> <PUBCHEM_COORDINATE_TYPE>
2
5
10

$$$$

