25015
  -OEChem-07051213043D

 42 45  0     1  0  0  0  0  0999 V2000
    5.0546   -1.1855    0.0458 O   0  0  0  0  0  0  0  0  0  0  0  0
   -5.7903   -0.1277    0.0780 O   0  0  0  0  0  0  0  0  0  0  0  0
    1.9304    0.6846    0.3192 C   0  0  2  0  0  0  0  0  0  0  0  0
    2.6617   -0.5724   -0.2013 C   0  0  1  0  0  0  0  0  0  0  0  0
    0.5294    0.8219   -0.2843 C   0  0  1  0  0  0  0  0  0  0  0  0
    3.9936   -0.3984    0.5554 C   0  0  2  0  0  0  0  0  0  0  0  0
    2.9535    1.7983    0.1289 C   0  0  0  0  0  0  0  0  0  0  0  0
    4.2963    1.1118    0.4407 C   0  0  0  0  0  0  0  0  0  0  0  0
   -0.2982   -0.4429    0.0218 C   0  0  0  0  0  0  0  0  0  0  0  0
   -0.1734    2.0719    0.2550 C   0  0  0  0  0  0  0  0  0  0  0  0
    1.8166   -1.7576    0.1752 C   0  0  0  0  0  0  0  0  0  0  0  0
    2.8779   -0.6240   -1.7308 C   0  0  0  0  0  0  0  0  0  0  0  0
    0.4763   -1.6724    0.2655 C   0  0  0  0  0  0  0  0  0  0  0  0
   -1.6525   -0.3786    0.1191 C   0  0  0  0  0  0  0  0  0  0  0  0
   -1.5841    2.1533   -0.3081 C   0  0  0  0  0  0  0  0  0  0  0  0
   -2.3793    0.8883   -0.0876 C   0  0  0  0  0  0  0  0  0  0  0  0
   -2.5334   -1.5539    0.5119 C   0  0  0  0  0  0  0  0  0  0  0  0
   -3.7208    0.9773   -0.0963 C   0  0  0  0  0  0  0  0  0  0  0  0
   -3.8875   -1.5622   -0.1840 C   0  0  0  0  0  0  0  0  0  0  0  0
   -4.5707   -0.2319   -0.0239 C   0  0  0  0  0  0  0  0  0  0  0  0
    1.7959    0.5889    1.4123 H   0  0  0  0  0  0  0  0  0  0  0  0
    0.6098    0.9190   -1.3750 H   0  0  0  0  0  0  0  0  0  0  0  0
    3.8736   -0.6574    1.6158 H   0  0  0  0  0  0  0  0  0  0  0  0
    2.7732    2.6435    0.8007 H   0  0  0  0  0  0  0  0  0  0  0  0
    2.9463    2.1816   -0.8973 H   0  0  0  0  0  0  0  0  0  0  0  0
    5.0328    1.3240   -0.3424 H   0  0  0  0  0  0  0  0  0  0  0  0
    4.7152    1.4828    1.3828 H   0  0  0  0  0  0  0  0  0  0  0  0
    0.3791    2.9752   -0.0287 H   0  0  0  0  0  0  0  0  0  0  0  0
   -0.2113    2.0508    1.3523 H   0  0  0  0  0  0  0  0  0  0  0  0
    2.3052   -2.7123    0.3468 H   0  0  0  0  0  0  0  0  0  0  0  0
    1.9328   -0.6568   -2.2837 H   0  0  0  0  0  0  0  0  0  0  0  0
    3.4422    0.2373   -2.1017 H   0  0  0  0  0  0  0  0  0  0  0  0
    3.4387   -1.5229   -2.0149 H   0  0  0  0  0  0  0  0  0  0  0  0
   -0.0483   -2.5808    0.5379 H   0  0  0  0  0  0  0  0  0  0  0  0
   -1.5254    2.3422   -1.3883 H   0  0  0  0  0  0  0  0  0  0  0  0
   -2.0922    3.0164    0.1401 H   0  0  0  0  0  0  0  0  0  0  0  0
    4.7803   -2.1166    0.1015 H   0  0  0  0  0  0  0  0  0  0  0  0
   -2.0663   -2.5184    0.2974 H   0  0  0  0  0  0  0  0  0  0  0  0
   -2.6897   -1.5079    1.5983 H   0  0  0  0  0  0  0  0  0  0  0  0
   -4.2317    1.9263   -0.2226 H   0  0  0  0  0  0  0  0  0  0  0  0
   -4.5198   -2.3396    0.2585 H   0  0  0  0  0  0  0  0  0  0  0  0
   -3.7827   -1.7706   -1.2548 H   0  0  0  0  0  0  0  0  0  0  0  0
  1  6  1  0  0  0  0
  1 37  1  0  0  0  0
  2 20  2  0  0  0  0
  3  4  1  0  0  0  0
  3  5  1  0  0  0  0
  3  7  1  0  0  0  0
  3 21  1  0  0  0  0
  4  6  1  0  0  0  0
  4 11  1  0  0  0  0
  4 12  1  0  0  0  0
  5  9  1  0  0  0  0
  5 10  1  0  0  0  0
  5 22  1  0  0  0  0
  6  8  1  0  0  0  0
  6 23  1  0  0  0  0
  7  8  1  0  0  0  0
  7 24  1  0  0  0  0
  7 25  1  0  0  0  0
  8 26  1  0  0  0  0
  8 27  1  0  0  0  0
  9 13  1  0  0  0  0
  9 14  2  0  0  0  0
 10 15  1  0  0  0  0
 10 28  1  0  0  0  0
 10 29  1  0  0  0  0
 11 13  2  0  0  0  0
 11 30  1  0  0  0  0
 12 31  1  0  0  0  0
 12 32  1  0  0  0  0
 12 33  1  0  0  0  0
 13 34  1  0  0  0  0
 14 16  1  0  0  0  0
 14 17  1  0  0  0  0
 15 16  1  0  0  0  0
 15 35  1  0  0  0  0
 15 36  1  0  0  0  0
 16 18  2  0  0  0  0
 17 19  1  0  0  0  0
 17 38  1  0  0  0  0
 17 39  1  0  0  0  0
 18 20  1  0  0  0  0
 18 40  1  0  0  0  0
 19 20  1  0  0  0  0
 19 41  1  0  0  0  0
 19 42  1  0  0  0  0
M  END
> <PUBCHEM_COMPOUND_CID>
25015

> <PUBCHEM_CONFORMER_RMSD>
0.6

> <PUBCHEM_CONFORMER_DIVERSEORDER>
1

> <PUBCHEM_MMFF94_PARTIAL_CHARGES>
19
1 -0.68
11 -0.29
13 -0.15
14 -0.14
15 0.14
16 -0.14
17 0.14
18 -0.14
19 0.06
2 -0.57
20 0.49
30 0.15
34 0.15
37 0.4
4 0.14
40 0.15
5 0.14
6 0.28
9 -0.14

> <PUBCHEM_EFFECTIVE_ROTOR_COUNT>
1.4

> <PUBCHEM_PHARMACOPHORE_FEATURES>
7
1 1 acceptor
1 1 donor
1 2 acceptor
5 3 4 6 7 8 rings
6 14 16 17 18 19 20 rings
6 3 4 5 9 11 13 rings
6 5 9 10 14 15 16 rings

> <PUBCHEM_HEAVY_ATOM_COUNT>
20

> <PUBCHEM_ATOM_DEF_STEREO_COUNT>
4

> <PUBCHEM_ATOM_UDEF_STEREO_COUNT>
0

> <PUBCHEM_BOND_DEF_STEREO_COUNT>
0

> <PUBCHEM_BOND_UDEF_STEREO_COUNT>
0

> <PUBCHEM_ISOTOPIC_ATOM_COUNT>
0

> <PUBCHEM_COMPONENT_COUNT>
1

> <PUBCHEM_CACTVS_TAUTO_COUNT>
5

> <PUBCHEM_CONFORMER_ID>
000061B700000001

> <PUBCHEM_MMFF94_ENERGY>
55.3943

> <PUBCHEM_FEATURE_SELFOVERLAP>
35.629

> <PUBCHEM_SHAPE_FINGERPRINT>
10 15 18337125462915657960
10616163 171 18410012156469642543
10646746 165 18411982485606612356
10967382 1 18411419496734715313
11132069 177 18411419496940482641
11471102 20 18410295791593162104
12236239 1 17489868263048000770
12403259 226 18340494468963040276
12403259 415 18342185470327639084
12596599 1 17968639554454408831
128620 24 17749391468271340663
13140716 1 18340199683618623745
13224815 77 18410008836190631021
13862211 1 18411987957521814355
14115302 16 17703783700324001518
14178342 30 18121508109455143928
14223421 5 18338517568013748724
14252887 29 17894623773114445238
14787075 74 18263648376662247704
14790565 3 17403734450379571172
15196674 1 18411139108437510545
15375358 24 18411983537857886115
15536298 74 18334575732849671913
15635459 17 18260539056563106359
15788980 27 16917069962354195631
15848702 151 17749661982554958543
16945 1 18267016335528648112
17349148 13 17918277558041116778
17802600 8 18411984680208345512
1813 80 17346598573370067717
18522853 276 18409450280252595185
19141452 34 18186519874311105719
192875 21 17203603800511954156
200 152 18113059320388845947
20510252 161 18261956353169467881
20645477 70 18114178652905889846
21267235 1 18411693296963817507
21421861 104 17986961936309818259
21452121 103 18262247612355836208
221490 88 18341325578929786106
23402539 116 18335992986174116294
23557571 272 18260544571443382964
23559900 14 18337113470559546258
2748010 2 18339074882901486252
2871803 45 18341898506113198387
296302 2 18260829258971183001
3286 77 18343024419453569260
335352 9 18411702114230742775
34797466 226 16153982431352836881
34934 24 18411143524154657059
350125 39 18411700972434541144
351380 180 18411141324793674618
4214541 1 18411139173157691897
5104073 3 18410293605417840673
5374978 207 18412830178938363000
69090 78 18260552203473790935
7495541 125 16271353107521967073
8809292 202 18272649034755526763
9709674 26 18409726287504102255

> <PUBCHEM_SHAPE_MULTIPOLES>
399.85
9.64
2.11
0.83
3.7
0.4
0.25
-1.31
-0.26
-0.07
-0.09
-0.52
-0.1
0.37

> <PUBCHEM_SHAPE_SELFOVERLAP>
874.391

> <PUBCHEM_SHAPE_VOLUME>
215.9

> <PUBCHEM_COORDINATE_TYPE>
2
5
10

$$$$

