9164
  -OEChem-07051213143D

 36 40  0     0  0  0  0  0  0999 V2000
    0.2254    0.7094   -0.0001 C   0  0  0  0  0  0  0  0  0  0  0  0
    0.2254   -0.7093   -0.0002 C   0  0  0  0  0  0  0  0  0  0  0  0
   -1.0177    1.4268    0.0000 C   0  0  0  0  0  0  0  0  0  0  0  0
   -1.0175   -1.4269   -0.0002 C   0  0  0  0  0  0  0  0  0  0  0  0
   -2.2487    0.7166    0.0008 C   0  0  0  0  0  0  0  0  0  0  0  0
   -2.2486   -0.7167    0.0007 C   0  0  0  0  0  0  0  0  0  0  0  0
    1.4892    1.3684    0.0002 C   0  0  0  0  0  0  0  0  0  0  0  0
    1.4893   -1.3683   -0.0001 C   0  0  0  0  0  0  0  0  0  0  0  0
    2.7235    0.6983    0.0003 C   0  0  0  0  0  0  0  0  0  0  0  0
    2.7235   -0.6981    0.0000 C   0  0  0  0  0  0  0  0  0  0  0  0
   -1.0813    2.8500   -0.0010 C   0  0  0  0  0  0  0  0  0  0  0  0
   -1.0810   -2.8499   -0.0011 C   0  0  0  0  0  0  0  0  0  0  0  0
   -3.4507    1.4805    0.0009 C   0  0  0  0  0  0  0  0  0  0  0  0
   -3.4507   -1.4806    0.0015 C   0  0  0  0  0  0  0  0  0  0  0  0
    3.9495    1.3888    0.0006 C   0  0  0  0  0  0  0  0  0  0  0  0
    3.9495   -1.3888    0.0000 C   0  0  0  0  0  0  0  0  0  0  0  0
   -2.2789    3.5619   -0.0012 C   0  0  0  0  0  0  0  0  0  0  0  0
   -2.2787   -3.5621   -0.0013 C   0  0  0  0  0  0  0  0  0  0  0  0
   -3.4704    2.8734   -0.0003 C   0  0  0  0  0  0  0  0  0  0  0  0
   -3.4701   -2.8736    0.0004 C   0  0  0  0  0  0  0  0  0  0  0  0
    5.1595    0.6952    0.0003 C   0  0  0  0  0  0  0  0  0  0  0  0
    5.1594   -0.6951   -0.0002 C   0  0  0  0  0  0  0  0  0  0  0  0
    1.5398    2.4553    0.0005 H   0  0  0  0  0  0  0  0  0  0  0  0
    1.5400   -2.4553   -0.0002 H   0  0  0  0  0  0  0  0  0  0  0  0
   -0.1815    3.4592   -0.0019 H   0  0  0  0  0  0  0  0  0  0  0  0
   -0.1812   -3.4590   -0.0021 H   0  0  0  0  0  0  0  0  0  0  0  0
   -4.4268    1.0031    0.0014 H   0  0  0  0  0  0  0  0  0  0  0  0
   -4.4268   -1.0033    0.0026 H   0  0  0  0  0  0  0  0  0  0  0  0
    3.9700    2.4767    0.0009 H   0  0  0  0  0  0  0  0  0  0  0  0
    3.9700   -2.4767   -0.0002 H   0  0  0  0  0  0  0  0  0  0  0  0
   -2.2697    4.6474   -0.0021 H   0  0  0  0  0  0  0  0  0  0  0  0
   -2.2692   -4.6475   -0.0022 H   0  0  0  0  0  0  0  0  0  0  0  0
   -4.4156    3.4070   -0.0004 H   0  0  0  0  0  0  0  0  0  0  0  0
   -4.4153   -3.4073    0.0007 H   0  0  0  0  0  0  0  0  0  0  0  0
    6.0987    1.2403    0.0003 H   0  0  0  0  0  0  0  0  0  0  0  0
    6.0986   -1.2401   -0.0004 H   0  0  0  0  0  0  0  0  0  0  0  0
  1  2  1  0  0  0  0
  1  3  1  0  0  0  0
  1  7  2  0  0  0  0
  2  4  1  0  0  0  0
  2  8  2  0  0  0  0
  3  5  1  0  0  0  0
  3 11  2  0  0  0  0
  4  6  1  0  0  0  0
  4 12  2  0  0  0  0
  5  6  1  0  0  0  0
  5 13  2  0  0  0  0
  6 14  2  0  0  0  0
  7  9  1  0  0  0  0
  7 23  1  0  0  0  0
  8 10  1  0  0  0  0
  8 24  1  0  0  0  0
  9 10  1  0  0  0  0
  9 15  2  0  0  0  0
 10 16  2  0  0  0  0
 11 17  1  0  0  0  0
 11 25  1  0  0  0  0
 12 18  1  0  0  0  0
 12 26  1  0  0  0  0
 13 19  1  0  0  0  0
 13 27  1  0  0  0  0
 14 20  1  0  0  0  0
 14 28  1  0  0  0  0
 15 21  1  0  0  0  0
 15 29  1  0  0  0  0
 16 22  1  0  0  0  0
 16 30  1  0  0  0  0
 17 19  2  0  0  0  0
 17 31  1  0  0  0  0
 18 20  2  0  0  0  0
 18 32  1  0  0  0  0
 19 33  1  0  0  0  0
 20 34  1  0  0  0  0
 21 22  2  0  0  0  0
 21 35  1  0  0  0  0
 22 36  1  0  0  0  0
M  END
> <PUBCHEM_COMPOUND_CID>
9164

> <PUBCHEM_CONFORMER_RMSD>
0.6

> <PUBCHEM_CONFORMER_DIVERSEORDER>
1

> <PUBCHEM_MMFF94_PARTIAL_CHARGES>
28
11 -0.15
12 -0.15
13 -0.15
14 -0.15
15 -0.15
16 -0.15
17 -0.15
18 -0.15
19 -0.15
20 -0.15
21 -0.15
22 -0.15
23 0.15
24 0.15
25 0.15
26 0.15
27 0.15
28 0.15
29 0.15
30 0.15
31 0.15
32 0.15
33 0.15
34 0.15
35 0.15
36 0.15
7 -0.15
8 -0.15

> <PUBCHEM_EFFECTIVE_ROTOR_COUNT>
0

> <PUBCHEM_PHARMACOPHORE_FEATURES>
5
6 1 2 3 4 5 6 rings
6 1 2 7 8 9 10 rings
6 3 5 11 13 17 19 rings
6 4 6 12 14 18 20 rings
6 9 10 15 16 21 22 rings

> <PUBCHEM_HEAVY_ATOM_COUNT>
22

> <PUBCHEM_ATOM_DEF_STEREO_COUNT>
0

> <PUBCHEM_ATOM_UDEF_STEREO_COUNT>
0

> <PUBCHEM_BOND_DEF_STEREO_COUNT>
0

> <PUBCHEM_BOND_UDEF_STEREO_COUNT>
0

> <PUBCHEM_ISOTOPIC_ATOM_COUNT>
0

> <PUBCHEM_COMPONENT_COUNT>
1

> <PUBCHEM_CACTVS_TAUTO_COUNT>
1

> <PUBCHEM_CONFORMER_ID>
000023CC00000001

> <PUBCHEM_MMFF94_ENERGY>
89.5429

> <PUBCHEM_FEATURE_SELFOVERLAP>
25.457

> <PUBCHEM_SHAPE_FINGERPRINT>
10050765 1 18410855465615223050
10319926 262 18263666055871044218
10411042 1 18050567344132089579
10493431 412 18264199387213416729
10616163 171 18410009927534655294
10967382 1 17978228584275059079
1100329 8 17835806670034901834
11045515 52 18057049008348145647
11370993 70 18194405717122531804
11578080 2 17169569431533228713
12107183 9 17981897642325588330
12173636 292 18339082712716862885
12390115 104 18116980281637928497
12403259 226 18189901920137545584
12553582 1 18050845524947453319
12788726 201 18270968946586524410
13004483 165 18265342707048669203
13140716 1 18265889164532863353
133893 2 15911617053187647252
13583140 156 14056987322208073655
138480 1 16537358346213206883
14178342 30 18340785783862359082
14223421 5 18263649476579953552
14508225 48 18192725453429075941
14790565 3 18120648295467903209
14866123 147 18339080505183066747
15042514 8 18411975837240006779
15196674 1 18410856560293858818
15230672 131 18052811744587692254
16087824 20 18411136927838978709
16752209 62 18338248127572578035
17492 89 18411699881397225746
19591789 44 17978789339542442167
19930381 70 17546448873309517409
20510252 161 18334856125679305609
20775438 99 16529525954128395279
21033648 29 18193287501160810104
21049683 271 17408797723062937423
21065198 57 18410293640468512136
21133410 171 17473885684787355346
21236236 1 18407760334895978870
21267235 1 18267576923255818546
21307412 95 17609195099347949550
21478907 32 18338799988310883035
23227448 37 18409730698583169564
2334 1 18410575055152156801
23402539 116 18261960643947239639
23557571 272 18261103059178848636
23558518 356 18271801328707776738
23559900 14 18189335852660560774
238 59 16906408225838888725
23845131 108 17978778340875574465
25147074 1 18060419115188946980
2748010 2 17903651687207672073
3091708 16 9274024888716837513
335352 9 18194683902750211134
350125 39 18410289216404634849
352729 6 18337390573148643333
4214541 1 18410575098086109444
484989 97 18270689641739416439
5104073 3 18408889538360608298
532947 4 17543911660081655551
54173680 148 18410855434368914025
7097593 13 17913506902191381754
7164475 11 18340201878526175572
7364860 26 17329991812048152469
9709674 26 18334292106558810374
9981440 41 18051976110800974577

> <PUBCHEM_SHAPE_MULTIPOLES>
452.75
8.64
4.17
0.62
10.37
0
0
0
0
-5.71
0
0
0
0

> <PUBCHEM_SHAPE_SELFOVERLAP>
1049.581

> <PUBCHEM_SHAPE_VOLUME>
210.8

> <PUBCHEM_COORDINATE_TYPE>
2
5
10

$$$$

