362
  -OEChem-07051212513D

 22 23  0     1  0  0  0  0  0999 V2000
    1.2056   -1.6723    1.3827 O   0  0  0  0  0  0  0  0  0  0  0  0
    2.5634   -0.0282   -1.5276 O   0  0  0  0  0  0  0  0  0  0  0  0
    1.0968   -1.1234    0.0687 C   0  0  2  0  0  0  0  0  0  0  0  0
    2.2199   -0.0899   -0.1431 C   0  0  2  0  0  0  0  0  0  0  0  0
   -0.2927   -0.5406   -0.0464 C   0  0  0  0  0  0  0  0  0  0  0  0
   -0.5136    0.8292    0.1904 C   0  0  0  0  0  0  0  0  0  0  0  0
    1.8734    1.2974    0.3167 C   0  0  0  0  0  0  0  0  0  0  0  0
    0.6131    1.7163    0.4900 C   0  0  0  0  0  0  0  0  0  0  0  0
   -1.3828   -1.3755   -0.3312 C   0  0  0  0  0  0  0  0  0  0  0  0
   -1.8163    1.3409    0.1398 C   0  0  0  0  0  0  0  0  0  0  0  0
   -2.6752   -0.8548   -0.3882 C   0  0  0  0  0  0  0  0  0  0  0  0
   -2.8915    0.5008   -0.1518 C   0  0  0  0  0  0  0  0  0  0  0  0
    1.2095   -1.9475   -0.6456 H   0  0  0  0  0  0  0  0  0  0  0  0
    3.1172   -0.4127    0.3990 H   0  0  0  0  0  0  0  0  0  0  0  0
    2.6914    1.9877    0.5029 H   0  0  0  0  0  0  0  0  0  0  0  0
    0.4086    2.7312    0.8133 H   0  0  0  0  0  0  0  0  0  0  0  0
   -1.2302   -2.4379   -0.5039 H   0  0  0  0  0  0  0  0  0  0  0  0
   -2.0071    2.3960    0.3213 H   0  0  0  0  0  0  0  0  0  0  0  0
   -3.5139   -1.5078   -0.6109 H   0  0  0  0  0  0  0  0  0  0  0  0
   -3.8990    0.9046   -0.1929 H   0  0  0  0  0  0  0  0  0  0  0  0
    1.1192   -0.9471    2.0251 H   0  0  0  0  0  0  0  0  0  0  0  0
    2.8755   -0.9105   -1.7916 H   0  0  0  0  0  0  0  0  0  0  0  0
  1  3  1  0  0  0  0
  1 21  1  0  0  0  0
  2  4  1  0  0  0  0
  2 22  1  0  0  0  0
  3  4  1  0  0  0  0
  3  5  1  0  0  0  0
  3 13  1  0  0  0  0
  4  7  1  0  0  0  0
  4 14  1  0  0  0  0
  5  6  1  0  0  0  0
  5  9  2  0  0  0  0
  6  8  1  0  0  0  0
  6 10  2  0  0  0  0
  7  8  2  0  0  0  0
  7 15  1  0  0  0  0
  8 16  1  0  0  0  0
  9 11  1  0  0  0  0
  9 17  1  0  0  0  0
 10 12  1  0  0  0  0
 10 18  1  0  0  0  0
 11 12  2  0  0  0  0
 11 19  1  0  0  0  0
 12 20  1  0  0  0  0
M  END
> <PUBCHEM_COMPOUND_CID>
362

> <PUBCHEM_CONFORMER_RMSD>
0.4

> <PUBCHEM_CONFORMER_DIVERSEORDER>
1
5
4
3
6
2

> <PUBCHEM_MMFF94_PARTIAL_CHARGES>
20
1 -0.68
10 -0.15
11 -0.15
12 -0.15
15 0.15
16 0.15
17 0.15
18 0.15
19 0.15
2 -0.68
20 0.15
21 0.4
22 0.4
3 0.42
4 0.42
5 -0.14
6 0.03
7 -0.29
8 -0.18
9 -0.15

> <PUBCHEM_EFFECTIVE_ROTOR_COUNT>
0.4

> <PUBCHEM_PHARMACOPHORE_FEATURES>
6
1 1 acceptor
1 1 donor
1 2 acceptor
1 2 donor
6 3 4 5 6 7 8 rings
6 5 6 9 10 11 12 rings

> <PUBCHEM_HEAVY_ATOM_COUNT>
12

> <PUBCHEM_ATOM_DEF_STEREO_COUNT>
0

> <PUBCHEM_ATOM_UDEF_STEREO_COUNT>
2

> <PUBCHEM_BOND_DEF_STEREO_COUNT>
0

> <PUBCHEM_BOND_UDEF_STEREO_COUNT>
0

> <PUBCHEM_ISOTOPIC_ATOM_COUNT>
0

> <PUBCHEM_COMPONENT_COUNT>
1

> <PUBCHEM_CACTVS_TAUTO_COUNT>
1

> <PUBCHEM_CONFORMER_ID>
0000016A00000001

> <PUBCHEM_MMFF94_ENERGY>
28.3365

> <PUBCHEM_FEATURE_SELFOVERLAP>
30.469

> <PUBCHEM_SHAPE_FINGERPRINT>
10353120 184 18338505353174186197
11206711 2 18410294722462907933
12524768 44 18259988141345119709
12897270 3 18409167688478775629
12932764 1 18341614832503680805
13380535 76 17831870049076907128
15775835 57 18342171202208586573
161256 15 18263083223654172181
16945 1 18409731755155400753
17844478 74 18200302231016244017
18185500 45 18268436904440906610
193761 8 15813967703248294193
21040471 1 18337112379247566921
22802520 49 17606099908883628270
23552423 10 18341055103612253173
23559900 14 18333724746391037076
241688 4 18337106770052057025
2748010 2 18049164371647147069
5084963 1 17775013379106618398
528886 8 18113334236591812447
53812654 25 18191325946340234459
7364860 26 18262528094941906442
8030462 33 18343306967897881735

> <PUBCHEM_SHAPE_MULTIPOLES>
235.22
3.82
1.79
0.92
0.96
0.15
0.04
0
0.78
-0.04
-0.34
-0.54
-0.23
-0.15

> <PUBCHEM_SHAPE_SELFOVERLAP>
506.816

> <PUBCHEM_SHAPE_VOLUME>
128.2

> <PUBCHEM_COORDINATE_TYPE>
2
5
10

$$$$

