11954046
  -OEChem-07051213062D

 56 57  0     1  0  0  0  0  0999 V2000
    7.7331    2.0427    0.0000 S   0  0  0  0  0  0  0  0  0  0  0  0
    6.0010    3.0427    0.0000 O   0  0  0  0  0  0  0  0  0  0  0  0
    6.0010   -0.9573    0.0000 O   0  0  0  0  0  0  0  0  0  0  0  0
    6.8671   -1.4573    0.0000 O   0  0  0  0  0  0  0  0  0  0  0  0
   10.3312   -4.4573    0.0000 O   0  0  0  0  0  0  0  0  0  0  0  0
    8.5991   -4.4573    0.0000 O   0  0  0  0  0  0  0  0  0  0  0  0
    2.5369    0.0427    0.0000 O   0  0  0  0  0  0  0  0  0  0  0  0
    3.4030    1.5427    0.0000 O   0  0  0  0  0  0  0  0  0  0  0  0
    7.7331    0.0427    0.0000 N   0  0  0  0  0  0  0  0  0  0  0  0
    5.1350    0.5427    0.0000 N   0  0  0  0  0  0  0  0  0  0  0  0
   10.3312   -2.4573    0.0000 N   0  0  0  0  0  0  0  0  0  0  0  0
    7.7331    3.0427    0.0000 C   0  0  1  0  0  0  0  0  0  0  0  0
    6.8671    3.5427    0.0000 C   0  0  1  0  0  0  0  0  0  0  0  0
    8.5991    3.5427    0.0000 C   0  0  0  0  0  0  0  0  0  0  0  0
    6.8671    0.5427    0.0000 C   0  0  1  0  0  0  0  0  0  0  0  0
    6.8671    1.5427    0.0000 C   0  0  0  0  0  0  0  0  0  0  0  0
    8.5991    4.5427    0.0000 C   0  0  0  0  0  0  0  0  0  0  0  0
    6.8671    4.5427    0.0000 C   0  0  0  0  0  0  0  0  0  0  0  0
    7.7331    5.0427    0.0000 C   0  0  0  0  0  0  0  0  0  0  0  0
    9.4931    3.0080    0.0000 C   0  0  0  0  0  0  0  0  0  0  0  0
    9.4931    5.0773    0.0000 C   0  0  0  0  0  0  0  0  0  0  0  0
    8.5991   -1.4573    0.0000 C   0  0  0  0  0  0  0  0  0  0  0  0
    6.0010    0.0427    0.0000 C   0  0  0  0  0  0  0  0  0  0  0  0
    8.5991   -2.4573    0.0000 C   0  0  0  0  0  0  0  0  0  0  0  0
    7.7331   -0.9573    0.0000 C   0  0  0  0  0  0  0  0  0  0  0  0
   10.3991    3.5218    0.0000 C   0  0  0  0  0  0  0  0  0  0  0  0
   10.3991    4.5635    0.0000 C   0  0  0  0  0  0  0  0  0  0  0  0
    9.4651   -2.9573    0.0000 C   0  0  1  0  0  0  0  0  0  0  0  0
    4.2690    0.0427    0.0000 C   0  0  0  0  0  0  0  0  0  0  0  0
    9.4651   -3.9573    0.0000 C   0  0  0  0  0  0  0  0  0  0  0  0
    3.4030    0.5427    0.0000 C   0  0  0  0  0  0  0  0  0  0  0  0
    8.2700    2.7327    0.0000 H   0  0  0  0  0  0  0  0  0  0  0  0
    6.3301    3.8527    0.0000 H   0  0  0  0  0  0  0  0  0  0  0  0
    7.4040    0.8527    0.0000 H   0  0  0  0  0  0  0  0  0  0  0  0
    6.6550    2.1253    0.0000 H   0  0  0  0  0  0  0  0  0  0  0  0
    6.2565    1.4350    0.0000 H   0  0  0  0  0  0  0  0  0  0  0  0
    6.3301    4.8527    0.0000 H   0  0  0  0  0  0  0  0  0  0  0  0
    7.7331    5.6627    0.0000 H   0  0  0  0  0  0  0  0  0  0  0  0
    9.4859    2.3880    0.0000 H   0  0  0  0  0  0  0  0  0  0  0  0
    8.2700    0.3527    0.0000 H   0  0  0  0  0  0  0  0  0  0  0  0
    9.4859    5.6973    0.0000 H   0  0  0  0  0  0  0  0  0  0  0  0
    9.2097   -1.5650    0.0000 H   0  0  0  0  0  0  0  0  0  0  0  0
    8.8112   -0.8747    0.0000 H   0  0  0  0  0  0  0  0  0  0  0  0
    7.9885   -2.3497    0.0000 H   0  0  0  0  0  0  0  0  0  0  0  0
    8.3871   -3.0399    0.0000 H   0  0  0  0  0  0  0  0  0  0  0  0
   10.9349    3.2098    0.0000 H   0  0  0  0  0  0  0  0  0  0  0  0
    5.4641    3.3527    0.0000 H   0  0  0  0  0  0  0  0  0  0  0  0
   10.9349    4.8755    0.0000 H   0  0  0  0  0  0  0  0  0  0  0  0
   10.0021   -3.2673    0.0000 H   0  0  0  0  0  0  0  0  0  0  0  0
    5.1350    1.1627    0.0000 H   0  0  0  0  0  0  0  0  0  0  0  0
    3.8705   -0.4323    0.0000 H   0  0  0  0  0  0  0  0  0  0  0  0
    4.6675   -0.4323    0.0000 H   0  0  0  0  0  0  0  0  0  0  0  0
   10.8681   -2.7673    0.0000 H   0  0  0  0  0  0  0  0  0  0  0  0
   10.3312   -1.8373    0.0000 H   0  0  0  0  0  0  0  0  0  0  0  0
   10.3312   -5.0773    0.0000 H   0  0  0  0  0  0  0  0  0  0  0  0
    2.0000    0.3527    0.0000 H   0  0  0  0  0  0  0  0  0  0  0  0
 12  1  1  1  0  0  0
  1 16  1  0  0  0  0
 13  2  1  6  0  0  0
  2 47  1  0  0  0  0
  3 23  2  0  0  0  0
  4 25  2  0  0  0  0
  5 30  1  0  0  0  0
  5 55  1  0  0  0  0
  6 30  2  0  0  0  0
  7 31  1  0  0  0  0
  7 56  1  0  0  0  0
  8 31  2  0  0  0  0
 15  9  1  6  0  0  0
  9 25  1  0  0  0  0
  9 40  1  0  0  0  0
 10 23  1  0  0  0  0
 10 29  1  0  0  0  0
 10 50  1  0  0  0  0
 28 11  1  6  0  0  0
 11 53  1  0  0  0  0
 11 54  1  0  0  0  0
 12 13  1  0  0  0  0
 12 14  1  0  0  0  0
 12 32  1  0  0  0  0
 13 18  1  0  0  0  0
 13 33  1  0  0  0  0
 14 17  1  0  0  0  0
 14 20  2  0  0  0  0
 15 16  1  0  0  0  0
 15 23  1  0  0  0  0
 15 34  1  0  0  0  0
 16 35  1  0  0  0  0
 16 36  1  0  0  0  0
 17 19  1  0  0  0  0
 17 21  2  0  0  0  0
 18 19  2  0  0  0  0
 18 37  1  0  0  0  0
 19 38  1  0  0  0  0
 20 26  1  0  0  0  0
 20 39  1  0  0  0  0
 21 27  1  0  0  0  0
 21 41  1  0  0  0  0
 22 24  1  0  0  0  0
 22 25  1  0  0  0  0
 22 42  1  0  0  0  0
 22 43  1  0  0  0  0
 24 28  1  0  0  0  0
 24 44  1  0  0  0  0
 24 45  1  0  0  0  0
 26 27  2  0  0  0  0
 26 46  1  0  0  0  0
 27 48  1  0  0  0  0
 28 30  1  0  0  0  0
 28 49  1  0  0  0  0
 29 31  1  0  0  0  0
 29 51  1  0  0  0  0
 29 52  1  0  0  0  0
M  END
> <PUBCHEM_COMPOUND_CID>
11954046

> <PUBCHEM_COMPOUND_CANONICALIZED>
1

> <PUBCHEM_CACTVS_COMPLEXITY>
702

> <PUBCHEM_CACTVS_HBOND_ACCEPTOR>
9

> <PUBCHEM_CACTVS_HBOND_DONOR>
6

> <PUBCHEM_CACTVS_ROTATABLE_BOND>
11

> <PUBCHEM_CACTVS_SUBSKEYS>
AAADceB7OABAAAAAAAAAAAAAAAAAAAAAAAAwQAAAAAAAAACBAAAAHgQQCAAADDzl2AawCILAAgiIAiHSGAACAAAgABAIiIGIAIgKdDKgkTCUcAAk1gG4mAec16IOgAAAAAAQAAAAAAAAACAAAAAAAAAAAA==

> <PUBCHEM_IUPAC_OPENEYE_NAME>
(2S)-2-amino-5-[[(1R)-2-(carboxymethylamino)-1-[[(1R,2R)-2-hydroxy-1,2-dihydronaphthalen-1-yl]sulfanylmethyl]-2-oxo-ethyl]amino]-5-oxo-pentanoic acid

> <PUBCHEM_IUPAC_CAS_NAME>
(2S)-2-amino-5-[[(2R)-1-(carboxymethylamino)-3-[[(1R,2R)-2-hydroxy-1,2-dihydronaphthalen-1-yl]thio]-1-oxopropan-2-yl]amino]-5-oxopentanoic acid

> <PUBCHEM_IUPAC_NAME>
(2S)-2-amino-5-[[(2R)-1-(carboxymethylamino)-3-[[(1R,2R)-2-hydroxy-1,2-dihydronaphthalen-1-yl]sulfanyl]-1-oxopropan-2-yl]amino]-5-oxopentanoic acid

> <PUBCHEM_IUPAC_SYSTEMATIC_NAME>
(2S)-2-azanyl-5-[[(2R)-1-(2-hydroxy-2-oxoethylamino)-3-[[(1R,2R)-2-oxidanyl-1,2-dihydronaphthalen-1-yl]sulfanyl]-1-oxidanylidene-propan-2-yl]amino]-5-oxidanylidene-pentanoic acid

> <PUBCHEM_IUPAC_TRADITIONAL_NAME>
(2S)-2-amino-5-[[(1R)-2-(carboxymethylamino)-1-[[[(1R,2R)-2-hydroxy-1,2-dihydronaphthalen-1-yl]thio]methyl]-2-keto-ethyl]amino]-5-keto-valeric acid

> <PUBCHEM_IUPAC_INCHI>
InChI=1S/C20H25N3O7S/c21-13(20(29)30)6-8-16(25)23-14(19(28)22-9-17(26)27)10-31-18-12-4-2-1-3-11(12)5-7-15(18)24/h1-5,7,13-15,18,24H,6,8-10,21H2,(H,22,28)(H,23,25)(H,26,27)(H,29,30)/t13-,14-,15+,18+/m0/s1

> <PUBCHEM_IUPAC_INCHIKEY>
UWBZAZWPTVBBEL-OIPACUDHSA-N

> <PUBCHEM_XLOGP3_AA>
-2.9

> <PUBCHEM_EXACT_MASS>
451.141321

> <PUBCHEM_MOLECULAR_FORMULA>
C20H25N3O7S

> <PUBCHEM_MOLECULAR_WEIGHT>
451.4934

> <PUBCHEM_OPENEYE_CAN_SMILES>
C1=CC=C2C(C(C=CC2=C1)O)SCC(C(=O)NCC(=O)O)NC(=O)CCC(C(=O)O)N

> <PUBCHEM_OPENEYE_ISO_SMILES>
C1=CC=C2[C@H]([C@@H](C=CC2=C1)O)SC[C@@H](C(=O)NCC(=O)O)NC(=O)CC[C@@H](C(=O)O)N

> <PUBCHEM_CACTVS_TPSA>
204

> <PUBCHEM_MONOISOTOPIC_WEIGHT>
451.141321

> <PUBCHEM_TOTAL_CHARGE>
0

> <PUBCHEM_HEAVY_ATOM_COUNT>
31

> <PUBCHEM_ATOM_DEF_STEREO_COUNT>
4

> <PUBCHEM_ATOM_UDEF_STEREO_COUNT>
0

> <PUBCHEM_BOND_DEF_STEREO_COUNT>
0

> <PUBCHEM_BOND_UDEF_STEREO_COUNT>
0

> <PUBCHEM_ISOTOPIC_ATOM_COUNT>
0

> <PUBCHEM_COMPONENT_COUNT>
1

> <PUBCHEM_CACTVS_TAUTO_COUNT>
4

> <PUBCHEM_COORDINATE_TYPE>
1
5
255

> <PUBCHEM_BONDANNOTATIONS>
12  1  5
28  11  6
14  17  8
14  20  8
17  21  8
13  2  6
20  26  8
21  27  8
26  27  8
15  9  6

$$$$

