854069
  -OEChem-06241222473D

 27 27  0     1  0  0  0  0  0999 V2000
   -0.6998    0.2937    0.0292 O   0  0  0  0  0  0  0  0  0  0  0  0
   -2.2864   -2.2544    0.0481 O   0  0  0  0  0  0  0  0  0  0  0  0
   -2.3297    1.3189   -1.2368 O   0  0  0  0  0  0  0  0  0  0  0  0
   -4.0808    0.8750    0.8696 N   0  0  0  0  0  0  0  0  0  0  0  0
   -2.9316   -0.0159    0.7165 C   0  0  1  0  0  0  0  0  0  0  0  0
    0.3060    0.8198   -0.8423 C   0  0  0  0  0  0  0  0  0  0  0  0
    1.6544    0.3694   -0.3622 C   0  0  0  0  0  0  0  0  0  0  0  0
   -3.3984   -1.3807    0.2157 C   0  0  0  0  0  0  0  0  0  0  0  0
   -1.9880    0.6248   -0.2879 C   0  0  0  0  0  0  0  0  0  0  0  0
    2.3567    1.1497    0.5495 C   0  0  0  0  0  0  0  0  0  0  0  0
    2.1898   -0.8240   -0.8337 C   0  0  0  0  0  0  0  0  0  0  0  0
    3.6104    0.7312    0.9954 C   0  0  0  0  0  0  0  0  0  0  0  0
    3.4434   -1.2426   -0.3878 C   0  0  0  0  0  0  0  0  0  0  0  0
    4.1538   -0.4648    0.5268 C   0  0  0  0  0  0  0  0  0  0  0  0
   -2.4147   -0.1091    1.6786 H   0  0  0  0  0  0  0  0  0  0  0  0
    0.2529    1.9157   -0.8503 H   0  0  0  0  0  0  0  0  0  0  0  0
    0.1304    0.4659   -1.8660 H   0  0  0  0  0  0  0  0  0  0  0  0
   -4.0814   -1.8464    0.9338 H   0  0  0  0  0  0  0  0  0  0  0  0
   -3.9162   -1.3082   -0.7477 H   0  0  0  0  0  0  0  0  0  0  0  0
    1.9421    2.0820    0.9226 H   0  0  0  0  0  0  0  0  0  0  0  0
    1.6441   -1.4386   -1.5443 H   0  0  0  0  0  0  0  0  0  0  0  0
   -3.7763    1.7587    1.2764 H   0  0  0  0  0  0  0  0  0  0  0  0
   -4.7408    0.4705    1.5328 H   0  0  0  0  0  0  0  0  0  0  0  0
    4.1633    1.3363    1.7080 H   0  0  0  0  0  0  0  0  0  0  0  0
    3.8663   -2.1743   -0.7521 H   0  0  0  0  0  0  0  0  0  0  0  0
    5.1297   -0.7909    0.8742 H   0  0  0  0  0  0  0  0  0  0  0  0
   -1.7404   -1.9065   -0.6770 H   0  0  0  0  0  0  0  0  0  0  0  0
  1  6  1  0  0  0  0
  1  9  1  0  0  0  0
  2  8  1  0  0  0  0
  2 27  1  0  0  0  0
  3  9  2  0  0  0  0
  4  5  1  0  0  0  0
  4 22  1  0  0  0  0
  4 23  1  0  0  0  0
  5  8  1  0  0  0  0
  5  9  1  0  0  0  0
  5 15  1  0  0  0  0
  6  7  1  0  0  0  0
  6 16  1  0  0  0  0
  6 17  1  0  0  0  0
  7 10  2  0  0  0  0
  7 11  1  0  0  0  0
  8 18  1  0  0  0  0
  8 19  1  0  0  0  0
 10 12  1  0  0  0  0
 10 20  1  0  0  0  0
 11 13  2  0  0  0  0
 11 21  1  0  0  0  0
 12 14  2  0  0  0  0
 12 24  1  0  0  0  0
 13 14  1  0  0  0  0
 13 25  1  0  0  0  0
 14 26  1  0  0  0  0
M  END
> <PUBCHEM_COMPOUND_CID>
854069

> <PUBCHEM_CONFORMER_RMSD>
0.6

> <PUBCHEM_CONFORMER_DIVERSEORDER>
1
94
8
30
45
86
72
36
57
100
42
11
69
34
63
4
51
58
28
19
56
3
38
79
10
104
41
90
9
46
17
76
59
2
84
31
78
35
20
106
7
49
39
97
62
92
44
16
5
61
47
37
91
32
66
13
88
23
99
12
33
6
22
53
52
40
70
50
95
65
14
64
43
85
15
74
48
93
25
60
29
24
27
73
18
77
80
83
26
102
68
96
82
67
75
89
21
87
98
71
55
101
103
105
54
81

> <PUBCHEM_MMFF94_PARTIAL_CHARGES>
22
1 -0.43
10 -0.15
11 -0.15
12 -0.15
13 -0.15
14 -0.15
2 -0.68
20 0.15
21 0.15
22 0.36
23 0.36
24 0.15
25 0.15
26 0.15
27 0.4
3 -0.57
4 -0.99
5 0.33
6 0.42
7 -0.14
8 0.28
9 0.66

> <PUBCHEM_EFFECTIVE_ROTOR_COUNT>
5

> <PUBCHEM_PHARMACOPHORE_FEATURES>
6
1 2 acceptor
1 2 donor
1 3 acceptor
1 4 cation
1 4 donor
6 7 10 11 12 13 14 rings

> <PUBCHEM_HEAVY_ATOM_COUNT>
14

> <PUBCHEM_ATOM_DEF_STEREO_COUNT>
1

> <PUBCHEM_ATOM_UDEF_STEREO_COUNT>
0

> <PUBCHEM_BOND_DEF_STEREO_COUNT>
0

> <PUBCHEM_BOND_UDEF_STEREO_COUNT>
0

> <PUBCHEM_ISOTOPIC_ATOM_COUNT>
0

> <PUBCHEM_COMPONENT_COUNT>
1

> <PUBCHEM_CACTVS_TAUTO_COUNT>
1

> <PUBCHEM_CONFORMER_ID>
000D083500000001

> <PUBCHEM_MMFF94_ENERGY>
23.1914

> <PUBCHEM_FEATURE_SELFOVERLAP>
30.446

> <PUBCHEM_SHAPE_FINGERPRINT>
12251169 10 18334010583883622532
12346177 29 18201449077315078527
12500047 106 18199759204825512101
12932764 1 17988647410346749296
13296908 3 18343588460017603284
13764800 53 6411019793855590071
14123260 362 5472862583839766099
15239191 94 17632858628932156146
15653759 3 18413389860416487952
18186145 218 18334293201627478574
200 152 17749403537677965087
20279233 1 18411425032968711053
20281407 28 18272087236138021228
20281475 54 18343014467439344486
20300324 65 9799689286106648331
20361792 2 16773799168837719999
20645477 70 17750807721063253070
21065199 12 18187363220550045874
21501925 9 18340489962993252956
22169311 14 18187079568030223225
22169311 21 18410864282170394438
22485316 2 18202848772702128232
23402539 116 15985108561202549598
23402655 69 11671788178035240906
26918003 58 18187086182480247856
69090 78 18407763638137585047
9882013 296 18262239889598156702

> <PUBCHEM_SHAPE_MULTIPOLES>
265.52
8.3
1.59
1.02
0.74
0.65
-0.07
1.1
2.26
0.67
-0.04
-0.02
-0.21
0.62

> <PUBCHEM_SHAPE_SELFOVERLAP>
539.682

> <PUBCHEM_SHAPE_VOLUME>
153.8

> <PUBCHEM_COORDINATE_TYPE>
2
5
10

$$$$

