33112
  -OEChem-07051213122D

 35 33  0     0  0  0  0  0  0999 V2000
    4.6171    0.0000    0.0000 Cl  0  5  0  0  0  0  0  0  0  0  0  0
    6.5991    3.5369    0.0000 O   0  0  0  0  0  0  0  0  0  0  0  0
    5.7331    5.0369    0.0000 O   0  0  0  0  0  0  0  0  0  0  0  0
    1.4030    3.5369    0.0000 N   0  3  0  0  0  0  0  0  0  0  0  0
    4.8671    3.5369    0.0000 N   0  0  0  0  0  0  0  0  0  0  0  0
    2.2690    4.0369    0.0000 C   0  0  0  0  0  0  0  0  0  0  0  0
    3.1350    3.5369    0.0000 C   0  0  0  0  0  0  0  0  0  0  0  0
    4.0010    4.0369    0.0000 C   0  0  0  0  0  0  0  0  0  0  0  0
    0.5369    3.0369    0.0000 C   0  0  0  0  0  0  0  0  0  0  0  0
    0.9030    4.4030    0.0000 C   0  0  0  0  0  0  0  0  0  0  0  0
    5.7331    4.0369    0.0000 C   0  0  0  0  0  0  0  0  0  0  0  0
    7.4651    4.0369    0.0000 C   0  0  0  0  0  0  0  0  0  0  0  0
    8.3312    3.5369    0.0000 C   0  0  0  0  0  0  0  0  0  0  0  0
    9.1972    4.0369    0.0000 C   0  0  0  0  0  0  0  0  0  0  0  0
    1.7130    3.0000    0.0000 H   0  0  0  0  0  0  0  0  0  0  0  0
    2.6675    4.5119    0.0000 H   0  0  0  0  0  0  0  0  0  0  0  0
    1.8705    4.5119    0.0000 H   0  0  0  0  0  0  0  0  0  0  0  0
    2.7365    3.0620    0.0000 H   0  0  0  0  0  0  0  0  0  0  0  0
    3.5335    3.0620    0.0000 H   0  0  0  0  0  0  0  0  0  0  0  0
    4.3996    4.5119    0.0000 H   0  0  0  0  0  0  0  0  0  0  0  0
    3.6025    4.5119    0.0000 H   0  0  0  0  0  0  0  0  0  0  0  0
    0.2269    3.5739    0.0000 H   0  0  0  0  0  0  0  0  0  0  0  0
    0.0000    2.7269    0.0000 H   0  0  0  0  0  0  0  0  0  0  0  0
    0.8469    2.5000    0.0000 H   0  0  0  0  0  0  0  0  0  0  0  0
    1.4399    4.7130    0.0000 H   0  0  0  0  0  0  0  0  0  0  0  0
    0.5930    4.9399    0.0000 H   0  0  0  0  0  0  0  0  0  0  0  0
    0.3660    4.0930    0.0000 H   0  0  0  0  0  0  0  0  0  0  0  0
    4.8671    2.9169    0.0000 H   0  0  0  0  0  0  0  0  0  0  0  0
    7.8637    4.5119    0.0000 H   0  0  0  0  0  0  0  0  0  0  0  0
    7.0666    4.5119    0.0000 H   0  0  0  0  0  0  0  0  0  0  0  0
    7.9326    3.0620    0.0000 H   0  0  0  0  0  0  0  0  0  0  0  0
    8.7297    3.0620    0.0000 H   0  0  0  0  0  0  0  0  0  0  0  0
    9.5072    3.5000    0.0000 H   0  0  0  0  0  0  0  0  0  0  0  0
    9.7341    4.3469    0.0000 H   0  0  0  0  0  0  0  0  0  0  0  0
    8.8872    4.5739    0.0000 H   0  0  0  0  0  0  0  0  0  0  0  0
  2 11  1  0  0  0  0
  2 12  1  0  0  0  0
  3 11  2  0  0  0  0
  4  6  1  0  0  0  0
  4  9  1  0  0  0  0
  4 10  1  0  0  0  0
  4 15  1  0  0  0  0
  5  8  1  0  0  0  0
  5 11  1  0  0  0  0
  5 28  1  0  0  0  0
  6  7  1  0  0  0  0
  6 16  1  0  0  0  0
  6 17  1  0  0  0  0
  7  8  1  0  0  0  0
  7 18  1  0  0  0  0
  7 19  1  0  0  0  0
  8 20  1  0  0  0  0
  8 21  1  0  0  0  0
  9 22  1  0  0  0  0
  9 23  1  0  0  0  0
  9 24  1  0  0  0  0
 10 25  1  0  0  0  0
 10 26  1  0  0  0  0
 10 27  1  0  0  0  0
 12 13  1  0  0  0  0
 12 29  1  0  0  0  0
 12 30  1  0  0  0  0
 13 14  1  0  0  0  0
 13 31  1  0  0  0  0
 13 32  1  0  0  0  0
 14 33  1  0  0  0  0
 14 34  1  0  0  0  0
 14 35  1  0  0  0  0
M  CHG  2   1  -1   4   1
M  END
> <PUBCHEM_COMPOUND_CID>
33112

> <PUBCHEM_COMPOUND_CANONICALIZED>
1

> <PUBCHEM_CACTVS_COMPLEXITY>
138

> <PUBCHEM_CACTVS_HBOND_ACCEPTOR>
3

> <PUBCHEM_CACTVS_HBOND_DONOR>
2

> <PUBCHEM_CACTVS_ROTATABLE_BOND>
7

> <PUBCHEM_CACTVS_SUBSKEYS>
AAADceBzMAAEAAAAAAAAAAAAAAAAAAAAAAAAAAAAAAAAAAAAAAAAHgAQAAAACADhgAYCCAPABAAIAAAAGAAAAAAAAAAAAIAIAAEAAAAAQAAMAAAAFgAAAAAAAAAAAAAAAAAAAAAAAAAAAAAAAAAAAAAAAA==

> <PUBCHEM_IUPAC_OPENEYE_NAME>
dimethyl-[3-(propoxycarbonylamino)propyl]ammonium chloride

> <PUBCHEM_IUPAC_CAS_NAME>
dimethyl-[3-[[oxo(propoxy)methyl]amino]propyl]ammonium chloride

> <PUBCHEM_IUPAC_NAME>
dimethyl-[3-(propoxycarbonylamino)propyl]azanium chloride

> <PUBCHEM_IUPAC_SYSTEMATIC_NAME>
dimethyl-[3-(propoxycarbonylamino)propyl]azanium chloride

> <PUBCHEM_IUPAC_TRADITIONAL_NAME>
dimethyl-[3-(propoxycarbonylamino)propyl]ammonium chloride

> <PUBCHEM_IUPAC_INCHI>
InChI=1S/C9H20N2O2.ClH/c1-4-8-13-9(12)10-6-5-7-11(2)3;/h4-8H2,1-3H3,(H,10,12);1H

> <PUBCHEM_IUPAC_INCHIKEY>
MKIMSXGUTQTKJU-UHFFFAOYSA-N

> <PUBCHEM_EXACT_MASS>
224.129156

> <PUBCHEM_MOLECULAR_FORMULA>
C9H21ClN2O2

> <PUBCHEM_MOLECULAR_WEIGHT>
224.72824

> <PUBCHEM_OPENEYE_CAN_SMILES>
CCCOC(=O)NCCC[NH+](C)C.[Cl-]

> <PUBCHEM_OPENEYE_ISO_SMILES>
CCCOC(=O)NCCC[NH+](C)C.[Cl-]

> <PUBCHEM_CACTVS_TPSA>
42.8

> <PUBCHEM_MONOISOTOPIC_WEIGHT>
224.129156

> <PUBCHEM_TOTAL_CHARGE>
0

> <PUBCHEM_HEAVY_ATOM_COUNT>
14

> <PUBCHEM_ATOM_DEF_STEREO_COUNT>
0

> <PUBCHEM_ATOM_UDEF_STEREO_COUNT>
0

> <PUBCHEM_BOND_DEF_STEREO_COUNT>
0

> <PUBCHEM_BOND_UDEF_STEREO_COUNT>
0

> <PUBCHEM_ISOTOPIC_ATOM_COUNT>
0

> <PUBCHEM_COMPONENT_COUNT>
2

> <PUBCHEM_CACTVS_TAUTO_COUNT>
2

> <PUBCHEM_COORDINATE_TYPE>
1
5
255

$$$$

