92891
  -OEChem-07051212543D

 19 18  0     1  0  0  0  0  0999 V2000
   -1.1172    1.6569    0.7990 O   0  0  0  0  0  0  0  0  0  0  0  0
   -2.7403    0.8375   -0.5579 O   0  0  0  0  0  0  0  0  0  0  0  0
    2.4865   -0.9219    0.7683 O   0  0  0  0  0  0  0  0  0  0  0  0
    1.0324    0.0494   -0.7663 N   0  0  0  0  0  0  0  0  0  0  0  0
   -2.0913   -1.7055    0.2710 N   0  0  0  0  0  0  0  0  0  0  0  0
    3.0086    1.0893   -0.2078 N   0  0  0  0  0  0  0  0  0  0  0  0
   -1.0478   -0.6837    0.3212 C   0  0  1  0  0  0  0  0  0  0  0  0
    0.0127   -0.9665   -0.7439 C   0  0  0  0  0  0  0  0  0  0  0  0
   -1.7378    0.6549    0.1201 C   0  0  0  0  0  0  0  0  0  0  0  0
    2.1943   -0.0103   -0.0038 C   0  0  0  0  0  0  0  0  0  0  0  0
   -0.6004   -0.6959    1.3223 H   0  0  0  0  0  0  0  0  0  0  0  0
   -0.4343   -0.9800   -1.7448 H   0  0  0  0  0  0  0  0  0  0  0  0
    0.4841   -1.9405   -0.5691 H   0  0  0  0  0  0  0  0  0  0  0  0
    0.8919    0.8572   -1.3655 H   0  0  0  0  0  0  0  0  0  0  0  0
   -2.7407   -1.5715    1.0456 H   0  0  0  0  0  0  0  0  0  0  0  0
   -1.6759   -2.6265    0.4067 H   0  0  0  0  0  0  0  0  0  0  0  0
   -1.5680    2.5186    0.6703 H   0  0  0  0  0  0  0  0  0  0  0  0
    2.7503    1.8319   -0.8488 H   0  0  0  0  0  0  0  0  0  0  0  0
    3.8925    1.1862    0.2804 H   0  0  0  0  0  0  0  0  0  0  0  0
  1  9  1  0  0  0  0
  1 17  1  0  0  0  0
  2  9  2  0  0  0  0
  3 10  2  0  0  0  0
  4  8  1  0  0  0  0
  4 10  1  0  0  0  0
  4 14  1  0  0  0  0
  5  7  1  0  0  0  0
  5 15  1  0  0  0  0
  5 16  1  0  0  0  0
  6 10  1  0  0  0  0
  6 18  1  0  0  0  0
  6 19  1  0  0  0  0
  7  8  1  0  0  0  0
  7  9  1  0  0  0  0
  7 11  1  0  0  0  0
  8 12  1  0  0  0  0
  8 13  1  0  0  0  0
M  END
> <PUBCHEM_COMPOUND_CID>
92891

> <PUBCHEM_CONFORMER_RMSD>
0.6

> <PUBCHEM_CONFORMER_DIVERSEORDER>
1
17
9
7
10
12
16
8
2
13
3
4
6
15
5
11
14

> <PUBCHEM_MMFF94_PARTIAL_CHARGES>
16
1 -0.65
10 0.69
14 0.37
15 0.36
16 0.36
17 0.5
18 0.37
19 0.37
2 -0.57
3 -0.57
4 -0.73
5 -0.99
6 -0.8
7 0.33
8 0.3
9 0.66

> <PUBCHEM_EFFECTIVE_ROTOR_COUNT>
4

> <PUBCHEM_PHARMACOPHORE_FEATURES>
8
1 1 acceptor
1 2 acceptor
1 3 acceptor
1 4 donor
1 5 cation
1 5 donor
1 6 donor
3 1 2 9 anion

> <PUBCHEM_HEAVY_ATOM_COUNT>
10

> <PUBCHEM_ATOM_DEF_STEREO_COUNT>
1

> <PUBCHEM_ATOM_UDEF_STEREO_COUNT>
0

> <PUBCHEM_BOND_DEF_STEREO_COUNT>
0

> <PUBCHEM_BOND_UDEF_STEREO_COUNT>
0

> <PUBCHEM_ISOTOPIC_ATOM_COUNT>
0

> <PUBCHEM_COMPONENT_COUNT>
1

> <PUBCHEM_CACTVS_TAUTO_COUNT>
3

> <PUBCHEM_CONFORMER_ID>
00016ADB00000001

> <PUBCHEM_MMFF94_ENERGY>
7.2522

> <PUBCHEM_FEATURE_SELFOVERLAP>
40.704

> <PUBCHEM_SHAPE_FINGERPRINT>
10857977 72 18115305557919423475
12897270 3 7781216856273613930
12932764 1 17988636419667714310
14390081 3 18333731316736451292
15775835 57 18201996646721827612
19973954 147 18334004025711148164
20651381 17 18188786074548455303
21040471 1 18193261117033246199
23552449 1 18262235521568930951
369184 2 18202283606360985347
5084963 1 17897448512928009362

> <PUBCHEM_SHAPE_MULTIPOLES>
173.24
4.19
1.51
0.83
1.77
0.02
-0.02
0.69
0.12
-0.63
0.2
0.03
-0.02
-0.11

> <PUBCHEM_SHAPE_SELFOVERLAP>
329.711

> <PUBCHEM_SHAPE_VOLUME>
105.7

> <PUBCHEM_COORDINATE_TYPE>
2
5
10

$$$$

