6545
  -OEChem-06261201233D

 54 53  0     0  0  0  0  0  0999 V2000
    1.7905    0.2220   -0.0934 O   0  0  0  0  0  0  0  0  0  0  0  0
   -2.7716    0.3961   -0.1832 O   0  0  0  0  0  0  0  0  0  0  0  0
    3.2428    0.1743   -0.1806 O   0  0  0  0  0  0  0  0  0  0  0  0
   -2.2750   -0.8054    0.4718 O   0  0  0  0  0  0  0  0  0  0  0  0
   -0.1197    1.5431   -0.7450 C   0  0  0  0  0  0  0  0  0  0  0  0
   -0.7711    1.4580    0.6474 C   0  0  0  0  0  0  0  0  0  0  0  0
    1.4212    1.4437   -0.7362 C   0  0  0  0  0  0  0  0  0  0  0  0
   -2.3152    1.4774    0.6322 C   0  0  0  0  0  0  0  0  0  0  0  0
    1.9396    1.3921   -2.1777 C   0  0  0  0  0  0  0  0  0  0  0  0
    2.0809    2.6046    0.0118 C   0  0  0  0  0  0  0  0  0  0  0  0
   -2.9191    1.3197    2.0295 C   0  0  0  0  0  0  0  0  0  0  0  0
   -2.8050    2.7839   -0.0021 C   0  0  0  0  0  0  0  0  0  0  0  0
    3.6144   -1.0390    0.4572 C   0  0  0  0  0  0  0  0  0  0  0  0
   -2.7264   -1.8831   -0.3355 C   0  0  0  0  0  0  0  0  0  0  0  0
    2.9587   -2.2007   -0.2878 C   0  0  0  0  0  0  0  0  0  0  0  0
    5.1362   -1.1474    0.3890 C   0  0  0  0  0  0  0  0  0  0  0  0
    3.1441   -0.9887    1.9102 C   0  0  0  0  0  0  0  0  0  0  0  0
   -2.1457   -1.7158   -1.7389 C   0  0  0  0  0  0  0  0  0  0  0  0
   -2.2257   -3.1771    0.3025 C   0  0  0  0  0  0  0  0  0  0  0  0
   -4.2538   -1.8577   -0.3713 C   0  0  0  0  0  0  0  0  0  0  0  0
   -0.4036    2.4805   -1.2360 H   0  0  0  0  0  0  0  0  0  0  0  0
   -0.5134    0.7268   -1.3604 H   0  0  0  0  0  0  0  0  0  0  0  0
   -0.4202    2.2974    1.2605 H   0  0  0  0  0  0  0  0  0  0  0  0
   -0.4128    0.5509    1.1488 H   0  0  0  0  0  0  0  0  0  0  0  0
    1.5815    2.2512   -2.7557 H   0  0  0  0  0  0  0  0  0  0  0  0
    1.6048    0.4763   -2.6787 H   0  0  0  0  0  0  0  0  0  0  0  0
    3.0337    1.3971   -2.2350 H   0  0  0  0  0  0  0  0  0  0  0  0
    1.9014    2.5347    1.0902 H   0  0  0  0  0  0  0  0  0  0  0  0
    1.7011    3.5687   -0.3429 H   0  0  0  0  0  0  0  0  0  0  0  0
    3.1692    2.6171   -0.1165 H   0  0  0  0  0  0  0  0  0  0  0  0
   -4.0065    1.1945    1.9738 H   0  0  0  0  0  0  0  0  0  0  0  0
   -2.7018    2.1933    2.6535 H   0  0  0  0  0  0  0  0  0  0  0  0
   -2.5275    0.4401    2.5520 H   0  0  0  0  0  0  0  0  0  0  0  0
   -3.8982    2.8482    0.0571 H   0  0  0  0  0  0  0  0  0  0  0  0
   -2.3867    3.6623    0.4999 H   0  0  0  0  0  0  0  0  0  0  0  0
   -2.5698    2.8343   -1.0701 H   0  0  0  0  0  0  0  0  0  0  0  0
    3.1843   -2.1526   -1.3594 H   0  0  0  0  0  0  0  0  0  0  0  0
    3.3114   -3.1646    0.0951 H   0  0  0  0  0  0  0  0  0  0  0  0
    1.8667   -2.1946   -0.1973 H   0  0  0  0  0  0  0  0  0  0  0  0
    5.6100   -0.2903    0.8811 H   0  0  0  0  0  0  0  0  0  0  0  0
    5.4810   -1.1358   -0.6515 H   0  0  0  0  0  0  0  0  0  0  0  0
    5.4994   -2.0643    0.8643 H   0  0  0  0  0  0  0  0  0  0  0  0
    2.0519   -0.9801    1.9970 H   0  0  0  0  0  0  0  0  0  0  0  0
    3.5091   -1.8543    2.4737 H   0  0  0  0  0  0  0  0  0  0  0  0
    3.5044   -0.0791    2.4043 H   0  0  0  0  0  0  0  0  0  0  0  0
   -1.0541   -1.6251   -1.6996 H   0  0  0  0  0  0  0  0  0  0  0  0
   -2.3926   -2.5759   -2.3710 H   0  0  0  0  0  0  0  0  0  0  0  0
   -2.5198   -0.8206   -2.2473 H   0  0  0  0  0  0  0  0  0  0  0  0
   -2.6031   -3.2777    1.3267 H   0  0  0  0  0  0  0  0  0  0  0  0
   -1.1319   -3.1772    0.3749 H   0  0  0  0  0  0  0  0  0  0  0  0
   -2.5355   -4.0578   -0.2693 H   0  0  0  0  0  0  0  0  0  0  0  0
   -4.6461   -0.9743   -0.8870 H   0  0  0  0  0  0  0  0  0  0  0  0
   -4.6514   -2.7392   -0.8861 H   0  0  0  0  0  0  0  0  0  0  0  0
   -4.6664   -1.8366    0.6439 H   0  0  0  0  0  0  0  0  0  0  0  0
  1  3  1  0  0  0  0
  1  7  1  0  0  0  0
  2  4  1  0  0  0  0
  2  8  1  0  0  0  0
  3 13  1  0  0  0  0
  4 14  1  0  0  0  0
  5  6  1  0  0  0  0
  5  7  1  0  0  0  0
  5 21  1  0  0  0  0
  5 22  1  0  0  0  0
  6  8  1  0  0  0  0
  6 23  1  0  0  0  0
  6 24  1  0  0  0  0
  7  9  1  0  0  0  0
  7 10  1  0  0  0  0
  8 11  1  0  0  0  0
  8 12  1  0  0  0  0
  9 25  1  0  0  0  0
  9 26  1  0  0  0  0
  9 27  1  0  0  0  0
 10 28  1  0  0  0  0
 10 29  1  0  0  0  0
 10 30  1  0  0  0  0
 11 31  1  0  0  0  0
 11 32  1  0  0  0  0
 11 33  1  0  0  0  0
 12 34  1  0  0  0  0
 12 35  1  0  0  0  0
 12 36  1  0  0  0  0
 13 15  1  0  0  0  0
 13 16  1  0  0  0  0
 13 17  1  0  0  0  0
 14 18  1  0  0  0  0
 14 19  1  0  0  0  0
 14 20  1  0  0  0  0
 15 37  1  0  0  0  0
 15 38  1  0  0  0  0
 15 39  1  0  0  0  0
 16 40  1  0  0  0  0
 16 41  1  0  0  0  0
 16 42  1  0  0  0  0
 17 43  1  0  0  0  0
 17 44  1  0  0  0  0
 17 45  1  0  0  0  0
 18 46  1  0  0  0  0
 18 47  1  0  0  0  0
 18 48  1  0  0  0  0
 19 49  1  0  0  0  0
 19 50  1  0  0  0  0
 19 51  1  0  0  0  0
 20 52  1  0  0  0  0
 20 53  1  0  0  0  0
 20 54  1  0  0  0  0
M  END
> <PUBCHEM_COMPOUND_CID>
6545

> <PUBCHEM_CONFORMER_RMSD>
0.8

> <PUBCHEM_CONFORMER_DIVERSEORDER>
1
37
30
44
56
25
24
34
50
8
7
48
20
58
5
15
42
14
57
18
51
33
49
35
41
27
28
22
10
52
45
12
32
43
46
16
54
3
40
13
26
17
39
29
4
21
11
38
47
36
55
6
53
31
19
9
2
23

> <PUBCHEM_MMFF94_PARTIAL_CHARGES>
8
1 -0.28
13 0.28
14 0.28
2 -0.28
3 -0.28
4 -0.28
7 0.28
8 0.28

> <PUBCHEM_EFFECTIVE_ROTOR_COUNT>
9

> <PUBCHEM_PHARMACOPHORE_FEATURES>
4
3 7 9 10 hydrophobe
3 8 11 12 hydrophobe
4 13 15 16 17 hydrophobe
4 14 18 19 20 hydrophobe

> <PUBCHEM_HEAVY_ATOM_COUNT>
20

> <PUBCHEM_ATOM_DEF_STEREO_COUNT>
0

> <PUBCHEM_ATOM_UDEF_STEREO_COUNT>
0

> <PUBCHEM_BOND_DEF_STEREO_COUNT>
0

> <PUBCHEM_BOND_UDEF_STEREO_COUNT>
0

> <PUBCHEM_ISOTOPIC_ATOM_COUNT>
0

> <PUBCHEM_COMPONENT_COUNT>
1

> <PUBCHEM_CACTVS_TAUTO_COUNT>
1

> <PUBCHEM_CONFORMER_ID>
0000199100000001

> <PUBCHEM_MMFF94_ENERGY>
53.191

> <PUBCHEM_FEATURE_SELFOVERLAP>
20.297

> <PUBCHEM_SHAPE_FINGERPRINT>
10366900 7 17096662082975185448
10616163 171 18408039636941504454
114674 6 16392116588174269931
11552529 35 17822023011953795522
11578080 2 18269858452833555925
12346177 29 18335430113693526101
12403259 327 17459473427818162104
12422481 6 18044629071562829059
12500047 106 18190468348919673960
12553582 1 18339066116867940934
12596599 1 18411418453379773250
12633257 1 18260819440681557137
12788726 201 17970047990679914905
13004483 165 18261961726484356013
13583140 156 17604169072366512632
14178342 30 17968364762367325697
14251757 17 17415315842719841615
14787075 74 17177149297297769512
15099037 8 18411419466812622337
15415430 10 18341619222160717450
15537594 2 18058155306167050922
19141452 34 18267867374777072144
20291156 8 18340208492285408558
20442098 301 18339360876600452392
20600515 1 17896027918473567560
21421861 104 18263913354864421977
21452121 71 18411980239555293128
21634736 98 18271523083620273630
23184049 29 18335419023914056769
232386 152 18408038515901980964
23402539 116 17917429899908063410
235170 7 13685719680669644866
23557571 272 17821726139192359282
23559900 14 18335432226728148384
23598288 3 18334011666668951679
23598291 2 18201145616000190820
23622692 118 18336270058803904933
23728640 28 18337952393668155923
3004659 81 18200604592213654423
312423 11 18340754949564146927
339767 52 18340219539104895666
463206 1 17834682591083526631
532947 4 17543910565297167437
6992083 37 18341043137675377277
7097593 13 18410004455508975692
85463 6 18114476560406304447
9795274 37 17839748062463763427

> <PUBCHEM_SHAPE_MULTIPOLES>
388.11
8.27
3.56
1.58
4.63
0.44
0.03
4.29
-1.48
-2.14
0.22
0.11
-0.26
-1.78

> <PUBCHEM_SHAPE_SELFOVERLAP>
737.435

> <PUBCHEM_SHAPE_VOLUME>
245.4

> <PUBCHEM_COORDINATE_TYPE>
2
5
10

$$$$

