11276
  -OEChem-06261205282D

 61 64  0     1  0  0  0  0  0999 V2000
    2.5357   -3.2876    0.0000 O   0  0  0  0  0  0  0  0  0  0  0  0
    8.5179    1.7643    0.0000 O   0  0  0  0  0  0  0  0  0  0  0  0
   10.4749    2.1767    0.0000 O   0  0  0  0  0  0  0  0  0  0  0  0
   12.1212    1.6386    0.0000 O   0  0  0  0  0  0  0  0  0  0  0  0
    7.9288   -0.2353    0.0000 C   0  0  3  0  0  0  0  0  0  0  0  0
    7.9288   -1.2353    0.0000 C   0  0  3  0  0  0  0  0  0  0  0  0
    7.0628   -1.7353    0.0000 C   0  0  3  0  0  0  0  0  0  0  0  0
    6.1968   -1.2353    0.0000 C   0  0  3  0  0  0  0  0  0  0  0  0
    5.2868   -1.7421    0.0000 C   0  0  3  0  0  0  0  0  0  0  0  0
    8.8750    0.0695    0.0000 C   0  0  3  0  0  0  0  0  0  0  0  0
    7.0628    0.2647    0.0000 C   0  0  0  0  0  0  0  0  0  0  0  0
    6.1968   -0.2353    0.0000 C   0  0  0  0  0  0  0  0  0  0  0  0
    8.8750   -1.5400    0.0000 C   0  0  0  0  0  0  0  0  0  0  0  0
    9.4586   -0.7353    0.0000 C   0  0  0  0  0  0  0  0  0  0  0  0
    7.0789   -2.7768    0.0000 C   0  0  0  0  0  0  0  0  0  0  0  0
    5.2787   -2.7837    0.0000 C   0  0  0  0  0  0  0  0  0  0  0  0
    7.9288    0.7647    0.0000 C   0  0  0  0  0  0  0  0  0  0  0  0
    4.3599   -1.1780    0.0000 C   0  0  0  0  0  0  0  0  0  0  0  0
    6.1808   -3.3045    0.0000 C   0  0  0  0  0  0  0  0  0  0  0  0
    5.2945   -0.7422    0.0000 C   0  0  0  0  0  0  0  0  0  0  0  0
    4.3433   -3.3334    0.0000 C   0  0  0  0  0  0  0  0  0  0  0  0
    9.1857    1.0200    0.0000 C   0  0  0  0  0  0  0  0  0  0  0  0
    3.4120   -1.7060    0.0000 C   0  0  0  0  0  0  0  0  0  0  0  0
    3.4037   -2.7910    0.0000 C   0  0  3  0  0  0  0  0  0  0  0  0
   10.1642    1.2262    0.0000 C   0  0  0  0  0  0  0  0  0  0  0  0
   11.4534    2.3829    0.0000 C   0  0  0  0  0  0  0  0  0  0  0  0
   11.7640    3.3334    0.0000 C   0  0  0  0  0  0  0  0  0  0  0  0
    8.0188   -2.0805    0.0000 H   0  0  0  0  0  0  0  0  0  0  0  0
    7.8022   -2.1546    0.0000 H   0  0  0  0  0  0  0  0  0  0  0  0
    6.9329   -0.8103    0.0000 H   0  0  0  0  0  0  0  0  0  0  0  0
    9.7148    0.2013    0.0000 H   0  0  0  0  0  0  0  0  0  0  0  0
    7.4613    0.7397    0.0000 H   0  0  0  0  0  0  0  0  0  0  0  0
    6.6643    0.7397    0.0000 H   0  0  0  0  0  0  0  0  0  0  0  0
    5.9847    0.3473    0.0000 H   0  0  0  0  0  0  0  0  0  0  0  0
    5.5862   -0.3429    0.0000 H   0  0  0  0  0  0  0  0  0  0  0  0
    8.6240   -2.1069    0.0000 H   0  0  0  0  0  0  0  0  0  0  0  0
    9.4124   -1.8492    0.0000 H   0  0  0  0  0  0  0  0  0  0  0  0
    9.9195   -1.1500    0.0000 H   0  0  0  0  0  0  0  0  0  0  0  0
    9.9195   -0.3206    0.0000 H   0  0  0  0  0  0  0  0  0  0  0  0
    7.2969   -3.3572    0.0000 H   0  0  0  0  0  0  0  0  0  0  0  0
    7.6880   -2.6613    0.0000 H   0  0  0  0  0  0  0  0  0  0  0  0
    8.5488    0.7647    0.0000 H   0  0  0  0  0  0  0  0  0  0  0  0
    7.9288    1.3847    0.0000 H   0  0  0  0  0  0  0  0  0  0  0  0
    7.3088    0.7647    0.0000 H   0  0  0  0  0  0  0  0  0  0  0  0
    4.7681   -0.7114    0.0000 H   0  0  0  0  0  0  0  0  0  0  0  0
    3.9700   -0.6960    0.0000 H   0  0  0  0  0  0  0  0  0  0  0  0
    6.1832   -3.9245    0.0000 H   0  0  0  0  0  0  0  0  0  0  0  0
    5.9145   -0.7469    0.0000 H   0  0  0  0  0  0  0  0  0  0  0  0
    5.2993   -0.1222    0.0000 H   0  0  0  0  0  0  0  0  0  0  0  0
    4.6745   -0.7374    0.0000 H   0  0  0  0  0  0  0  0  0  0  0  0
    3.9460   -3.8094    0.0000 H   0  0  0  0  0  0  0  0  0  0  0  0
    4.7443   -3.8063    0.0000 H   0  0  0  0  0  0  0  0  0  0  0  0
    3.2075   -1.1207    0.0000 H   0  0  0  0  0  0  0  0  0  0  0  0
    2.8004   -1.8074    0.0000 H   0  0  0  0  0  0  0  0  0  0  0  0
    2.6700   -2.3617    0.0000 H   0  0  0  0  0  0  0  0  0  0  0  0
   10.1848    0.6065    0.0000 H   0  0  0  0  0  0  0  0  0  0  0  0
   10.7780    1.1388    0.0000 H   0  0  0  0  0  0  0  0  0  0  0  0
    2.0000   -2.9755    0.0000 H   0  0  0  0  0  0  0  0  0  0  0  0
   12.3534    3.1408    0.0000 H   0  0  0  0  0  0  0  0  0  0  0  0
   11.9567    3.9228    0.0000 H   0  0  0  0  0  0  0  0  0  0  0  0
   11.1747    3.5261    0.0000 H   0  0  0  0  0  0  0  0  0  0  0  0
  1 24  1  0  0  0  0
  1 58  1  0  0  0  0
  2 22  2  0  0  0  0
  3 25  1  0  0  0  0
  3 26  1  0  0  0  0
  4 26  2  0  0  0  0
  5  6  1  0  0  0  0
  5 10  1  0  0  0  0
  5 11  1  0  0  0  0
  5 17  1  0  0  0  0
  6  7  1  0  0  0  0
  6 13  1  0  0  0  0
  6 28  1  0  0  0  0
  7  8  1  0  0  0  0
  7 15  1  0  0  0  0
  7 29  1  0  0  0  0
  8  9  1  0  0  0  0
  8 12  1  0  0  0  0
  8 30  1  0  0  0  0
  9 16  1  0  0  0  0
  9 18  1  0  0  0  0
  9 20  1  0  0  0  0
 10 14  1  0  0  0  0
 10 22  1  0  0  0  0
 10 31  1  0  0  0  0
 11 12  1  0  0  0  0
 11 32  1  0  0  0  0
 11 33  1  0  0  0  0
 12 34  1  0  0  0  0
 12 35  1  0  0  0  0
 13 14  1  0  0  0  0
 13 36  1  0  0  0  0
 13 37  1  0  0  0  0
 14 38  1  0  0  0  0
 14 39  1  0  0  0  0
 15 19  1  0  0  0  0
 15 40  1  0  0  0  0
 15 41  1  0  0  0  0
 16 19  2  0  0  0  0
 16 21  1  0  0  0  0
 17 42  1  0  0  0  0
 17 43  1  0  0  0  0
 17 44  1  0  0  0  0
 18 23  1  0  0  0  0
 18 45  1  0  0  0  0
 18 46  1  0  0  0  0
 19 47  1  0  0  0  0
 20 48  1  0  0  0  0
 20 49  1  0  0  0  0
 20 50  1  0  0  0  0
 21 24  1  0  0  0  0
 21 51  1  0  0  0  0
 21 52  1  0  0  0  0
 22 25  1  0  0  0  0
 23 24  1  0  0  0  0
 23 53  1  0  0  0  0
 23 54  1  0  0  0  0
 24 55  1  0  0  0  0
 25 56  1  0  0  0  0
 25 57  1  0  0  0  0
 26 27  1  0  0  0  0
 27 59  1  0  0  0  0
 27 60  1  0  0  0  0
 27 61  1  0  0  0  0
M  END
> <PUBCHEM_COMPOUND_CID>
11276

> <PUBCHEM_COMPOUND_CANONICALIZED>
1

> <PUBCHEM_CACTVS_COMPLEXITY>
667

> <PUBCHEM_CACTVS_HBOND_ACCEPTOR>
4

> <PUBCHEM_CACTVS_HBOND_DONOR>
1

> <PUBCHEM_CACTVS_ROTATABLE_BOND>
4

> <PUBCHEM_CACTVS_SUBSKEYS>
AAADcfB4OAAAAAAAAAAAAAAAAAAAAYAAAAAwYIAAAAAAAGCAAAAAGgAACAAADxSggAICCAAABgCIAqDSCAIAAAAgAAAACAFAAAgAEBIAAQQCQAAEwAAIAAOIyPCPgAAAAAAAAADAAAQAACAAAQAACAAAAA==

> <PUBCHEM_IUPAC_OPENEYE_NAME>
[2-(3-hydroxy-10,13-dimethyl-2,3,4,7,8,9,11,12,14,15,16,17-dodecahydro-1H-cyclopenta[a]phenanthren-17-yl)-2-oxo-ethyl] acetate

> <PUBCHEM_IUPAC_CAS_NAME>
acetic acid [2-(3-hydroxy-10,13-dimethyl-2,3,4,7,8,9,11,12,14,15,16,17-dodecahydro-1H-cyclopenta[a]phenanthren-17-yl)-2-oxoethyl] ester

> <PUBCHEM_IUPAC_NAME>
[2-(3-hydroxy-10,13-dimethyl-2,3,4,7,8,9,11,12,14,15,16,17-dodecahydro-1H-cyclopenta[a]phenanthren-17-yl)-2-oxoethyl] acetate

> <PUBCHEM_IUPAC_SYSTEMATIC_NAME>
[2-(10,13-dimethyl-3-oxidanyl-2,3,4,7,8,9,11,12,14,15,16,17-dodecahydro-1H-cyclopenta[a]phenanthren-17-yl)-2-oxidanylidene-ethyl] ethanoate

> <PUBCHEM_IUPAC_TRADITIONAL_NAME>
acetic acid [2-(3-hydroxy-10,13-dimethyl-2,3,4,7,8,9,11,12,14,15,16,17-dodecahydro-1H-cyclopenta[a]phenanthren-17-yl)-2-keto-ethyl] ester

> <PUBCHEM_IUPAC_INCHI>
InChI=1S/C23H34O4/c1-14(24)27-13-21(26)20-7-6-18-17-5-4-15-12-16(25)8-10-22(15,2)19(17)9-11-23(18,20)3/h4,16-20,25H,5-13H2,1-3H3

> <PUBCHEM_IUPAC_INCHIKEY>
MDJRZSNPHZEMJH-UHFFFAOYSA-N

> <PUBCHEM_XLOGP3>
4.1

> <PUBCHEM_EXACT_MASS>
374.24571

> <PUBCHEM_MOLECULAR_FORMULA>
C23H34O4

> <PUBCHEM_MOLECULAR_WEIGHT>
374.51366

> <PUBCHEM_OPENEYE_CAN_SMILES>
CC(=O)OCC(=O)C1CCC2C1(CCC3C2CC=C4C3(CCC(C4)O)C)C

> <PUBCHEM_OPENEYE_ISO_SMILES>
CC(=O)OCC(=O)C1CCC2C1(CCC3C2CC=C4C3(CCC(C4)O)C)C

> <PUBCHEM_CACTVS_TPSA>
63.6

> <PUBCHEM_MONOISOTOPIC_WEIGHT>
374.24571

> <PUBCHEM_TOTAL_CHARGE>
0

> <PUBCHEM_HEAVY_ATOM_COUNT>
27

> <PUBCHEM_ATOM_DEF_STEREO_COUNT>
0

> <PUBCHEM_ATOM_UDEF_STEREO_COUNT>
7

> <PUBCHEM_BOND_DEF_STEREO_COUNT>
0

> <PUBCHEM_BOND_UDEF_STEREO_COUNT>
0

> <PUBCHEM_ISOTOPIC_ATOM_COUNT>
0

> <PUBCHEM_COMPONENT_COUNT>
1

> <PUBCHEM_CACTVS_TAUTO_COUNT>
3

> <PUBCHEM_COORDINATE_TYPE>
1
5
255

> <PUBCHEM_BONDANNOTATIONS>
10  31  3
24  55  3
5  17  3
6  28  3
7  29  3
8  30  3
9  20  3

$$$$

