443340
  -OEChem-07051213023D

 54 56  0     1  0  0  0  0  0999 V2000
   -0.5573   -0.1623    0.7145 O   0  0  0  0  0  0  0  0  0  0  0  0
    0.3667    0.2463   -1.4185 O   0  0  0  0  0  0  0  0  0  0  0  0
    3.8408    2.1864    2.0308 O   0  0  0  0  0  0  0  0  0  0  0  0
   -2.5279    0.8612   -0.0017 O   0  0  0  0  0  0  0  0  0  0  0  0
    2.7778    4.4304   -0.2179 O   0  0  0  0  0  0  0  0  0  0  0  0
   -1.9593   -2.6022    1.0140 O   0  0  0  0  0  0  0  0  0  0  0  0
   -4.8213   -2.1661    1.5613 O   0  0  0  0  0  0  0  0  0  0  0  0
    3.4248   -2.8413    0.2088 O   0  0  0  0  0  0  0  0  0  0  0  0
   -5.9601   -0.3582   -0.3855 O   0  0  0  0  0  0  0  0  0  0  0  0
    3.2578   -2.6925   -2.0953 O   0  0  0  0  0  0  0  0  0  0  0  0
   -3.5032    2.8589   -1.6185 O   0  0  0  0  0  0  0  0  0  0  0  0
    1.5726    0.9499    0.6328 C   0  0  1  0  0  0  0  0  0  0  0  0
    2.4919   -0.2937    0.5548 C   0  0  2  0  0  0  0  0  0  0  0  0
    2.4369    2.0802    0.0449 C   0  0  2  0  0  0  0  0  0  0  0  0
    3.8062    1.7888    0.6642 C   0  0  2  0  0  0  0  0  0  0  0  0
    3.9347    0.2680    0.5711 C   0  0  0  0  0  0  0  0  0  0  0  0
    0.2305    0.7319   -0.0766 C   0  0  2  0  0  0  0  0  0  0  0  0
    2.2130   -1.1066   -0.6771 C   0  0  0  0  0  0  0  0  0  0  0  0
    1.9061    3.4734    0.3577 C   0  0  0  0  0  0  0  0  0  0  0  0
   -1.8387   -0.3804    0.1250 C   0  0  2  0  0  0  0  0  0  0  0  0
    1.2521   -0.7916   -1.5529 C   0  0  0  0  0  0  0  0  0  0  0  0
   -2.6169   -1.3354    1.0301 C   0  0  1  0  0  0  0  0  0  0  0  0
   -4.0583   -1.5058    0.5502 C   0  0  2  0  0  0  0  0  0  0  0  0
   -4.7127   -0.1523    0.2724 C   0  0  1  0  0  0  0  0  0  0  0  0
    3.0181   -2.2957   -0.9655 C   0  0  0  0  0  0  0  0  0  0  0  0
   -3.8123    0.7152   -0.6102 C   0  0  1  0  0  0  0  0  0  0  0  0
   -4.3905    2.1134   -0.8049 C   0  0  0  0  0  0  0  0  0  0  0  0
    4.2285   -4.0199    0.0920 C   0  0  0  0  0  0  0  0  0  0  0  0
    1.3761    1.1606    1.6943 H   0  0  0  0  0  0  0  0  0  0  0  0
    2.3153   -0.9138    1.4428 H   0  0  0  0  0  0  0  0  0  0  0  0
    2.5246    1.9682   -1.0447 H   0  0  0  0  0  0  0  0  0  0  0  0
    4.6189    2.2995    0.1381 H   0  0  0  0  0  0  0  0  0  0  0  0
    4.4742    0.0069   -0.3473 H   0  0  0  0  0  0  0  0  0  0  0  0
    4.4957   -0.1472    1.4158 H   0  0  0  0  0  0  0  0  0  0  0  0
   -0.2888    1.6941   -0.1328 H   0  0  0  0  0  0  0  0  0  0  0  0
    1.8187    3.6668    1.4317 H   0  0  0  0  0  0  0  0  0  0  0  0
    0.9185    3.6226   -0.0880 H   0  0  0  0  0  0  0  0  0  0  0  0
   -1.7081   -0.8388   -0.8638 H   0  0  0  0  0  0  0  0  0  0  0  0
    1.0651   -1.3127   -2.4822 H   0  0  0  0  0  0  0  0  0  0  0  0
    4.7165    1.9499    2.3812 H   0  0  0  0  0  0  0  0  0  0  0  0
   -2.6010   -0.9831    2.0683 H   0  0  0  0  0  0  0  0  0  0  0  0
   -4.1067   -2.1436   -0.3410 H   0  0  0  0  0  0  0  0  0  0  0  0
   -4.9170    0.3457    1.2292 H   0  0  0  0  0  0  0  0  0  0  0  0
   -3.6805    0.2615   -1.6020 H   0  0  0  0  0  0  0  0  0  0  0  0
    3.6094    4.4158    0.2852 H   0  0  0  0  0  0  0  0  0  0  0  0
   -5.3662    2.0855   -1.2978 H   0  0  0  0  0  0  0  0  0  0  0  0
   -4.4825    2.6348    0.1537 H   0  0  0  0  0  0  0  0  0  0  0  0
   -1.9672   -2.9346    0.1002 H   0  0  0  0  0  0  0  0  0  0  0  0
   -4.3819   -3.0133    1.7488 H   0  0  0  0  0  0  0  0  0  0  0  0
   -6.4655    0.4701   -0.3313 H   0  0  0  0  0  0  0  0  0  0  0  0
   -3.8865    3.7463   -1.7234 H   0  0  0  0  0  0  0  0  0  0  0  0
    3.6671   -4.8128   -0.4113 H   0  0  0  0  0  0  0  0  0  0  0  0
    5.1520   -3.7957   -0.4503 H   0  0  0  0  0  0  0  0  0  0  0  0
    4.4860   -4.3570    1.0996 H   0  0  0  0  0  0  0  0  0  0  0  0
  1 17  1  0  0  0  0
  1 20  1  0  0  0  0
  2 17  1  0  0  0  0
  2 21  1  0  0  0  0
  3 15  1  0  0  0  0
  3 40  1  0  0  0  0
  4 20  1  0  0  0  0
  4 26  1  0  0  0  0
  5 19  1  0  0  0  0
  5 45  1  0  0  0  0
  6 22  1  0  0  0  0
  6 48  1  0  0  0  0
  7 23  1  0  0  0  0
  7 49  1  0  0  0  0
  8 25  1  0  0  0  0
  8 28  1  0  0  0  0
  9 24  1  0  0  0  0
  9 50  1  0  0  0  0
 10 25  2  0  0  0  0
 11 27  1  0  0  0  0
 11 51  1  0  0  0  0
 12 13  1  0  0  0  0
 12 14  1  0  0  0  0
 12 17  1  0  0  0  0
 12 29  1  0  0  0  0
 13 16  1  0  0  0  0
 13 18  1  0  0  0  0
 13 30  1  0  0  0  0
 14 15  1  0  0  0  0
 14 19  1  0  0  0  0
 14 31  1  0  0  0  0
 15 16  1  0  0  0  0
 15 32  1  0  0  0  0
 16 33  1  0  0  0  0
 16 34  1  0  0  0  0
 17 35  1  0  0  0  0
 18 21  2  0  0  0  0
 18 25  1  0  0  0  0
 19 36  1  0  0  0  0
 19 37  1  0  0  0  0
 20 22  1  0  0  0  0
 20 38  1  0  0  0  0
 21 39  1  0  0  0  0
 22 23  1  0  0  0  0
 22 41  1  0  0  0  0
 23 24  1  0  0  0  0
 23 42  1  0  0  0  0
 24 26  1  0  0  0  0
 24 43  1  0  0  0  0
 26 27  1  0  0  0  0
 26 44  1  0  0  0  0
 27 46  1  0  0  0  0
 27 47  1  0  0  0  0
 28 52  1  0  0  0  0
 28 53  1  0  0  0  0
 28 54  1  0  0  0  0
M  END
> <PUBCHEM_COMPOUND_CID>
443340

> <PUBCHEM_CONFORMER_RMSD>
1

> <PUBCHEM_CONFORMER_DIVERSEORDER>
1
37
69
57
70
25
19
39
45
22
26
17
20
54
62
23
24
4
32
7
48
55
66
51
68
5
16
65
53
41
11
18
12
33
76
46
49
73
43
75
8
28
38
34
6
74
59
77
71
79
50
9
52
64
40
42
2
31
58
36
3
78
67
29
14
35
10
15
44
63
60
13
56
30
47
27
61
21
72

> <PUBCHEM_MMFF94_PARTIAL_CHARGES>
32
1 -0.56
10 -0.57
11 -0.68
13 0.14
15 0.28
17 0.56
18 -0.12
19 0.28
2 -0.36
20 0.56
21 -0.07
22 0.28
23 0.28
24 0.28
25 0.71
26 0.28
27 0.28
28 0.28
3 -0.68
39 0.15
4 -0.56
40 0.4
45 0.4
48 0.4
49 0.4
5 -0.68
50 0.4
51 0.4
6 -0.68
7 -0.68
8 -0.43
9 -0.68

> <PUBCHEM_EFFECTIVE_ROTOR_COUNT>
8.2

> <PUBCHEM_PHARMACOPHORE_FEATURES>
19
1 1 acceptor
1 10 acceptor
1 11 acceptor
1 11 donor
1 2 acceptor
1 3 acceptor
1 3 donor
1 4 acceptor
1 5 acceptor
1 5 donor
1 6 acceptor
1 6 donor
1 7 acceptor
1 7 donor
1 9 acceptor
1 9 donor
5 12 13 14 15 16 rings
6 2 12 13 17 18 21 rings
6 4 20 22 23 24 26 rings

> <PUBCHEM_HEAVY_ATOM_COUNT>
28

> <PUBCHEM_ATOM_DEF_STEREO_COUNT>
10

> <PUBCHEM_ATOM_UDEF_STEREO_COUNT>
0

> <PUBCHEM_BOND_DEF_STEREO_COUNT>
0

> <PUBCHEM_BOND_UDEF_STEREO_COUNT>
0

> <PUBCHEM_ISOTOPIC_ATOM_COUNT>
0

> <PUBCHEM_COMPONENT_COUNT>
1

> <PUBCHEM_CACTVS_TAUTO_COUNT>
1

> <PUBCHEM_CONFORMER_ID>
0006C3CC00000001

> <PUBCHEM_MMFF94_ENERGY>
81.7565

> <PUBCHEM_FEATURE_SELFOVERLAP>
96.686

> <PUBCHEM_SHAPE_FINGERPRINT>
1100329 8 16178200699604468871
11405975 8 18335697308262439985
11578080 2 18201150057465854220
11796584 16 17914329336694019014
12293681 4 17904487659505262716
12403259 226 18341612663566367005
12553582 1 17975110348130435122
12633257 1 17986973885114797584
12788726 201 17619909904194615122
13140716 1 18045228128984300696
13533116 47 18408884049192358939
13544592 145 18198907100599336791
13583140 156 18408887325956792527
13757389 114 17044275482013492268
14251757 17 18412547647552613577
14251764 38 18410013234849773385
14790565 3 18051413968697445908
14866123 147 17256526851410820050
14955137 171 18336267852188071728
15961568 22 17772751576436356253
17349148 13 16443350909450240359
17492 89 18410013230417474187
20645477 70 18040997375190682582
20832881 197 18124312971838263227
21033648 144 17983595017115971757
21033650 10 16987428905279671676
21065198 57 18410856568678078145
21065201 7 18060418053683379923
21756936 100 17615127681675957524
21859007 373 17416711166373522797
23557571 272 18272933821431805221
23558518 356 18116420621951404529
23559900 14 18411701023229927939
268830 7 17749374980388017467
3004659 81 17772460438247433006
3421961 26 18336547209255210522
5104073 3 18261947535896735899
5281201 14 18410854391040287285
5895379 119 17775558754006678220
621550 34 18195801861019767641
6823239 73 18341049709312892170
7399639 24 18122907521300408145
8272917 22 18334292029101497704
9709674 26 18411700985023699631
9999458 23 18264200323632039620

> <PUBCHEM_SHAPE_MULTIPOLES>
511.66
10.83
4.47
1.39
11.2
0.98
0.22
-2.37
-0.77
-5.4
0.1
-0.23
-0.22
3.23

> <PUBCHEM_SHAPE_SELFOVERLAP>
1074.395

> <PUBCHEM_SHAPE_VOLUME>
283.5

> <PUBCHEM_COORDINATE_TYPE>
2
5
10

$$$$

