11679
  -OEChem-06261205593D

 17 16  0     0  0  0  0  0  0999 V2000
    1.1748   -0.0071    1.7449 F   0  0  0  0  0  0  0  0  0  0  0  0
   -1.1728   -1.2529    1.3880 F   0  0  0  0  0  0  0  0  0  0  0  0
   -1.2602    0.9087    1.5951 F   0  0  0  0  0  0  0  0  0  0  0  0
    0.7300    2.3786    0.5646 F   0  0  0  0  0  0  0  0  0  0  0  0
    0.4536    1.4430   -1.3781 F   0  0  0  0  0  0  0  0  0  0  0  0
    2.3828    1.3110   -0.3784 F   0  0  0  0  0  0  0  0  0  0  0  0
    0.6219   -1.3758   -1.4576 F   0  0  0  0  0  0  0  0  0  0  0  0
    2.5100   -1.0739   -0.4235 F   0  0  0  0  0  0  0  0  0  0  0  0
    0.9831   -2.3480    0.4619 F   0  0  0  0  0  0  0  0  0  0  0  0
   -3.1275   -0.1254   -0.0332 F   0  0  0  0  0  0  0  0  0  0  0  0
   -1.7443    1.1631   -1.1062 F   0  0  0  0  0  0  0  0  0  0  0  0
   -1.6270   -1.0045   -1.3373 F   0  0  0  0  0  0  0  0  0  0  0  0
    0.6057   -0.0028    0.4932 C   0  0  0  0  0  0  0  0  0  0  0  0
   -0.9095   -0.0868    0.7305 C   0  0  0  0  0  0  0  0  0  0  0  0
    1.0482    1.2937   -0.1719 C   0  0  0  0  0  0  0  0  0  0  0  0
    1.1765   -1.2097   -0.2389 C   0  0  0  0  0  0  0  0  0  0  0  0
   -1.8451   -0.0113   -0.4530 C   0  0  0  0  0  0  0  0  0  0  0  0
  1 13  1  0  0  0  0
  2 14  1  0  0  0  0
  3 14  1  0  0  0  0
  4 15  1  0  0  0  0
  5 15  1  0  0  0  0
  6 15  1  0  0  0  0
  7 16  1  0  0  0  0
  8 16  1  0  0  0  0
  9 16  1  0  0  0  0
 10 17  1  0  0  0  0
 11 17  1  0  0  0  0
 12 17  1  0  0  0  0
 13 14  1  0  0  0  0
 13 15  1  0  0  0  0
 13 16  1  0  0  0  0
 14 17  1  0  0  0  0
M  END
> <PUBCHEM_COMPOUND_CID>
11679

> <PUBCHEM_CONFORMER_RMSD>
0.6

> <PUBCHEM_CONFORMER_DIVERSEORDER>
1
2
3

> <PUBCHEM_MMFF94_PARTIAL_CHARGES>
17
1 -0.34
10 -0.34
11 -0.34
12 -0.34
13 0.34
14 0.68
15 1.02
16 1.02
17 1.02
2 -0.34
3 -0.34
4 -0.34
5 -0.34
6 -0.34
7 -0.34
8 -0.34
9 -0.34

> <PUBCHEM_EFFECTIVE_ROTOR_COUNT>
4

> <PUBCHEM_PHARMACOPHORE_FEATURES>
0

> <PUBCHEM_HEAVY_ATOM_COUNT>
17

> <PUBCHEM_ATOM_DEF_STEREO_COUNT>
0

> <PUBCHEM_ATOM_UDEF_STEREO_COUNT>
0

> <PUBCHEM_BOND_DEF_STEREO_COUNT>
0

> <PUBCHEM_BOND_UDEF_STEREO_COUNT>
0

> <PUBCHEM_ISOTOPIC_ATOM_COUNT>
0

> <PUBCHEM_COMPONENT_COUNT>
1

> <PUBCHEM_CACTVS_TAUTO_COUNT>
1

> <PUBCHEM_CONFORMER_ID>
00002D9F00000001

> <PUBCHEM_MMFF94_ENERGY>
17.6149

> <PUBCHEM_FEATURE_SELFOVERLAP>
0

> <PUBCHEM_SHAPE_FINGERPRINT>
12326174 3 18130796663084327490
12423570 1 4960266131264758016
13024252 1 16767013215157926418
144361 1 18410016532808922820
14817 1 9669869217759374887
15557651 10 17773323335272014884
15775835 57 18191021209820700845
16945 1 18265922227011779151
21922407 69 17895468129341028585
241688 4 17977389656829226275
2748010 2 17985254184335270659
5084963 1 18334581191800733846
528886 8 18411698751371576448

> <PUBCHEM_SHAPE_MULTIPOLES>
262.57
2.79
1.92
1.39
0.9
0.09
-0.16
-0.09
0.39
-0.86
0.08
0.23
-0.03
0.04

> <PUBCHEM_SHAPE_SELFOVERLAP>
561.792

> <PUBCHEM_SHAPE_VOLUME>
144.1

> <PUBCHEM_COORDINATE_TYPE>
2
5
10

$$$$

