5748526
  -OEChem-07051213123D

 35 36  0     1  0  0  0  0  0999 V2000
   -0.7066   -3.3564   -2.0317 Cl  0  0  0  0  0  0  0  0  0  0  0  0
   -0.3976   -4.1848    0.7982 F   0  0  0  0  0  0  0  0  0  0  0  0
    0.6899    3.2299   -0.2691 O   0  0  0  0  0  0  0  0  0  0  0  0
   -3.6294    1.5137   -1.5392 O   0  0  0  0  0  0  0  0  0  0  0  0
   -3.3578   -0.0214    0.0991 O   0  0  0  0  0  0  0  0  0  0  0  0
   -0.6534    1.2915    0.1048 N   0  0  0  0  0  0  0  0  0  0  0  0
   -1.9399    1.9358    0.1439 C   0  0  2  0  0  0  0  0  0  0  0  0
   -0.5847   -0.1620    0.2838 C   0  0  0  0  0  0  0  0  0  0  0  0
    0.5583    2.0180   -0.1021 C   0  0  0  0  0  0  0  0  0  0  0  0
   -2.2755    2.3595    1.5658 C   0  0  0  0  0  0  0  0  0  0  0  0
    1.8117    1.2403   -0.1388 C   0  0  0  0  0  0  0  0  0  0  0  0
   -3.0365    1.0447   -0.4151 C   0  0  0  0  0  0  0  0  0  0  0  0
   -0.6693   -0.9361   -0.8324 C   0  0  0  0  0  0  0  0  0  0  0  0
   -0.4428   -0.6307    1.5537 C   0  0  0  0  0  0  0  0  0  0  0  0
   -0.6055   -2.3189   -0.6614 C   0  0  0  0  0  0  0  0  0  0  0  0
   -0.3789   -2.0135    1.7246 C   0  0  0  0  0  0  0  0  0  0  0  0
    2.2650    0.7455   -1.3496 C   0  0  0  0  0  0  0  0  0  0  0  0
    2.5073    1.0227    1.0382 C   0  0  0  0  0  0  0  0  0  0  0  0
   -0.4601   -2.8577    0.6171 C   0  0  0  0  0  0  0  0  0  0  0  0
    3.4499    0.0104   -1.3846 C   0  0  0  0  0  0  0  0  0  0  0  0
    3.6922    0.2878    1.0031 C   0  0  0  0  0  0  0  0  0  0  0  0
    4.1636   -0.2183   -0.2083 C   0  0  0  0  0  0  0  0  0  0  0  0
   -1.8848    2.8409   -0.4736 H   0  0  0  0  0  0  0  0  0  0  0  0
   -1.4941    3.0038    1.9830 H   0  0  0  0  0  0  0  0  0  0  0  0
   -3.2198    2.9147    1.5876 H   0  0  0  0  0  0  0  0  0  0  0  0
   -2.3934    1.5011    2.2356 H   0  0  0  0  0  0  0  0  0  0  0  0
   -0.7811   -0.5036   -1.8221 H   0  0  0  0  0  0  0  0  0  0  0  0
   -0.3753    0.0239    2.4157 H   0  0  0  0  0  0  0  0  0  0  0  0
   -0.2647   -2.4330    2.7198 H   0  0  0  0  0  0  0  0  0  0  0  0
    1.7162    0.9215   -2.2705 H   0  0  0  0  0  0  0  0  0  0  0  0
    2.1483    1.4160    1.9850 H   0  0  0  0  0  0  0  0  0  0  0  0
    3.8168   -0.3837   -2.3278 H   0  0  0  0  0  0  0  0  0  0  0  0
    4.2480    0.1098    1.9190 H   0  0  0  0  0  0  0  0  0  0  0  0
    5.0862   -0.7906   -0.2354 H   0  0  0  0  0  0  0  0  0  0  0  0
   -4.3248    0.9050   -1.8679 H   0  0  0  0  0  0  0  0  0  0  0  0
  1 15  1  0  0  0  0
  2 19  1  0  0  0  0
  3  9  2  0  0  0  0
  4 12  1  0  0  0  0
  4 35  1  0  0  0  0
  5 12  2  0  0  0  0
  6  7  1  0  0  0  0
  6  8  1  0  0  0  0
  6  9  1  0  0  0  0
  7 10  1  0  0  0  0
  7 12  1  0  0  0  0
  7 23  1  0  0  0  0
  8 13  2  0  0  0  0
  8 14  1  0  0  0  0
  9 11  1  0  0  0  0
 10 24  1  0  0  0  0
 10 25  1  0  0  0  0
 10 26  1  0  0  0  0
 11 17  2  0  0  0  0
 11 18  1  0  0  0  0
 13 15  1  0  0  0  0
 13 27  1  0  0  0  0
 14 16  2  0  0  0  0
 14 28  1  0  0  0  0
 15 19  2  0  0  0  0
 16 19  1  0  0  0  0
 16 29  1  0  0  0  0
 17 20  1  0  0  0  0
 17 30  1  0  0  0  0
 18 21  2  0  0  0  0
 18 31  1  0  0  0  0
 20 22  2  0  0  0  0
 20 32  1  0  0  0  0
 21 22  1  0  0  0  0
 21 33  1  0  0  0  0
 22 34  1  0  0  0  0
M  END
> <PUBCHEM_COMPOUND_CID>
5748526

> <PUBCHEM_CONFORMER_RMSD>
0.8

> <PUBCHEM_CONFORMER_DIVERSEORDER>
1
29
22
25
28
19
18
21
10
4
23
26
13
5
27
20
17
12
3
24
9
7
14
6
11
8
16
2
15

> <PUBCHEM_MMFF94_PARTIAL_CHARGES>
30
1 -0.18
11 0.09
12 0.66
13 -0.15
14 -0.15
15 0.18
16 -0.15
17 -0.15
18 -0.15
19 0.19
2 -0.19
20 -0.15
21 -0.15
22 -0.15
27 0.15
28 0.15
29 0.15
3 -0.57
30 0.15
31 0.15
32 0.15
33 0.15
34 0.15
35 0.5
4 -0.65
5 -0.57
6 -0.48
7 0.36
8 0.12
9 0.54

> <PUBCHEM_EFFECTIVE_ROTOR_COUNT>
5

> <PUBCHEM_PHARMACOPHORE_FEATURES>
6
1 3 acceptor
1 4 acceptor
1 5 acceptor
3 4 5 12 anion
6 11 17 18 20 21 22 rings
6 8 13 14 15 16 19 rings

> <PUBCHEM_HEAVY_ATOM_COUNT>
22

> <PUBCHEM_ATOM_DEF_STEREO_COUNT>
1

> <PUBCHEM_ATOM_UDEF_STEREO_COUNT>
0

> <PUBCHEM_BOND_DEF_STEREO_COUNT>
0

> <PUBCHEM_BOND_UDEF_STEREO_COUNT>
0

> <PUBCHEM_ISOTOPIC_ATOM_COUNT>
0

> <PUBCHEM_COMPONENT_COUNT>
1

> <PUBCHEM_CACTVS_TAUTO_COUNT>
1

> <PUBCHEM_CONFORMER_ID>
0057B72E00000001

> <PUBCHEM_MMFF94_ENERGY>
90.6443

> <PUBCHEM_FEATURE_SELFOVERLAP>
30.507

> <PUBCHEM_SHAPE_FINGERPRINT>
11488393 25 18190727821264801831
11578080 2 16810108174076499121
116883 192 17974858263313952199
12035759 4 18045531782987362551
12553582 1 17255678595559958734
12592029 89 18130790122208013649
12715332 25 18261393291578142247
12788726 201 18121502358113905171
13083527 12 17252610992636256256
13140716 1 17976533918986924226
133893 2 17695345167571392433
13681431 1 17474108086466021199
15163728 17 16843020181885085757
15309172 13 18341886445792816609
16752209 62 18200600193940075787
16945 1 18340761542460389177
20028762 73 18189321408617134931
20567600 347 18339640169707604255
20645476 183 17703781505658899932
20905425 154 17689997160267378428
21524375 3 18338234984946187542
21731516 1 17906717121547241582
22907989 373 18124004885307315109
22956985 138 17841700013826479883
23184049 29 18051693239885564856
23419403 2 16751772832819109194
23557571 272 18118689807934550432
23559900 14 18409724063887325716
23728640 28 18412266142738342410
2748010 2 18265029487899725446
298252 57 18341621437809876515
3060560 45 18269296662752782909
404807 78 17701005175372010335
43471831 8 18195808698227966272
465052 167 17558802088838630161
6138700 20 18051408775949823950
7364860 26 17757834807134526061
74978 22 18270394976100461740
81228 2 18193840331938107865
9925002 15 17833032477522619482

> <PUBCHEM_SHAPE_MULTIPOLES>
424.76
5.27
4.02
1.66
3.22
3.12
0
-2.51
0.92
-2.4
0.09
-0.18
0.73
-0.02

> <PUBCHEM_SHAPE_SELFOVERLAP>
907.362

> <PUBCHEM_SHAPE_VOLUME>
235.9

> <PUBCHEM_COORDINATE_TYPE>
2
5
10

$$$$

