9185
  -OEChem-06261203293D

 42 47  0     0  0  0  0  0  0999 V2000
    0.0000    0.0654    0.0016 C   0  0  0  0  0  0  0  0  0  0  0  0
    0.0000    1.4638    0.0008 C   0  0  0  0  0  0  0  0  0  0  0  0
    2.4854    0.0447    0.0009 C   0  0  0  0  0  0  0  0  0  0  0  0
   -2.4854    0.0448    0.0009 C   0  0  0  0  0  0  0  0  0  0  0  0
    2.4522    1.4599   -0.0001 C   0  0  0  0  0  0  0  0  0  0  0  0
   -2.4522    1.4599    0.0005 C   0  0  0  0  0  0  0  0  0  0  0  0
    1.2320   -0.6192    0.0019 C   0  0  0  0  0  0  0  0  0  0  0  0
   -1.2319   -0.6192    0.0019 C   0  0  0  0  0  0  0  0  0  0  0  0
    1.2254    2.1455    0.0001 C   0  0  0  0  0  0  0  0  0  0  0  0
   -1.2253    2.1456    0.0005 C   0  0  0  0  0  0  0  0  0  0  0  0
    3.7595   -0.6284    0.0005 C   0  0  0  0  0  0  0  0  0  0  0  0
   -3.7595   -0.6284    0.0002 C   0  0  0  0  0  0  0  0  0  0  0  0
    4.9506    0.1435   -0.0011 C   0  0  0  0  0  0  0  0  0  0  0  0
   -4.9507    0.1435   -0.0003 C   0  0  0  0  0  0  0  0  0  0  0  0
    3.6462    2.1862   -0.0012 C   0  0  0  0  0  0  0  0  0  0  0  0
   -3.6462    2.1862   -0.0001 C   0  0  0  0  0  0  0  0  0  0  0  0
    4.8767    1.5380   -0.0017 C   0  0  0  0  0  0  0  0  0  0  0  0
   -4.8768    1.5382   -0.0005 C   0  0  0  0  0  0  0  0  0  0  0  0
    3.9162   -2.0374    0.0013 C   0  0  0  0  0  0  0  0  0  0  0  0
   -3.9161   -2.0374   -0.0006 C   0  0  0  0  0  0  0  0  0  0  0  0
    6.2092   -0.4819   -0.0019 C   0  0  0  0  0  0  0  0  0  0  0  0
   -6.2092   -0.4819   -0.0010 C   0  0  0  0  0  0  0  0  0  0  0  0
    5.1738   -2.6469    0.0009 C   0  0  0  0  0  0  0  0  0  0  0  0
   -5.1739   -2.6469   -0.0014 C   0  0  0  0  0  0  0  0  0  0  0  0
    6.3209   -1.8686   -0.0010 C   0  0  0  0  0  0  0  0  0  0  0  0
   -6.3209   -1.8687   -0.0014 C   0  0  0  0  0  0  0  0  0  0  0  0
    1.1969   -1.7074    0.0025 H   0  0  0  0  0  0  0  0  0  0  0  0
   -1.1969   -1.7074    0.0025 H   0  0  0  0  0  0  0  0  0  0  0  0
    1.2230    3.2362   -0.0006 H   0  0  0  0  0  0  0  0  0  0  0  0
   -1.2229    3.2362    0.0000 H   0  0  0  0  0  0  0  0  0  0  0  0
    3.6344    3.2747   -0.0018 H   0  0  0  0  0  0  0  0  0  0  0  0
   -3.6344    3.2747   -0.0004 H   0  0  0  0  0  0  0  0  0  0  0  0
    5.7816    2.1429   -0.0028 H   0  0  0  0  0  0  0  0  0  0  0  0
   -5.7817    2.1431   -0.0010 H   0  0  0  0  0  0  0  0  0  0  0  0
    3.0538   -2.6990    0.0025 H   0  0  0  0  0  0  0  0  0  0  0  0
   -3.0538   -2.6991   -0.0006 H   0  0  0  0  0  0  0  0  0  0  0  0
    7.1218    0.1116   -0.0032 H   0  0  0  0  0  0  0  0  0  0  0  0
   -7.1218    0.1115   -0.0013 H   0  0  0  0  0  0  0  0  0  0  0  0
    5.2506   -3.7302    0.0017 H   0  0  0  0  0  0  0  0  0  0  0  0
   -5.2507   -3.7304   -0.0020 H   0  0  0  0  0  0  0  0  0  0  0  0
    7.3001   -2.3373   -0.0016 H   0  0  0  0  0  0  0  0  0  0  0  0
   -7.3002   -2.3373   -0.0020 H   0  0  0  0  0  0  0  0  0  0  0  0
  1  2  2  0  0  0  0
  1  7  1  0  0  0  0
  1  8  1  0  0  0  0
  2  9  1  0  0  0  0
  2 10  1  0  0  0  0
  3  5  1  0  0  0  0
  3  7  2  0  0  0  0
  3 11  1  0  0  0  0
  4  6  1  0  0  0  0
  4  8  2  0  0  0  0
  4 12  1  0  0  0  0
  5  9  2  0  0  0  0
  5 15  1  0  0  0  0
  6 10  2  0  0  0  0
  6 16  1  0  0  0  0
  7 27  1  0  0  0  0
  8 28  1  0  0  0  0
  9 29  1  0  0  0  0
 10 30  1  0  0  0  0
 11 13  1  0  0  0  0
 11 19  2  0  0  0  0
 12 14  1  0  0  0  0
 12 20  2  0  0  0  0
 13 17  1  0  0  0  0
 13 21  2  0  0  0  0
 14 18  1  0  0  0  0
 14 22  2  0  0  0  0
 15 17  2  0  0  0  0
 15 31  1  0  0  0  0
 16 18  2  0  0  0  0
 16 32  1  0  0  0  0
 17 33  1  0  0  0  0
 18 34  1  0  0  0  0
 19 23  1  0  0  0  0
 19 35  1  0  0  0  0
 20 24  1  0  0  0  0
 20 36  1  0  0  0  0
 21 25  1  0  0  0  0
 21 37  1  0  0  0  0
 22 26  1  0  0  0  0
 22 38  1  0  0  0  0
 23 25  2  0  0  0  0
 23 39  1  0  0  0  0
 24 26  2  0  0  0  0
 24 40  1  0  0  0  0
 25 41  1  0  0  0  0
 26 42  1  0  0  0  0
M  END
> <PUBCHEM_COMPOUND_CID>
9185

> <PUBCHEM_CONFORMER_RMSD>
0.6

> <PUBCHEM_CONFORMER_DIVERSEORDER>
1

> <PUBCHEM_MMFF94_PARTIAL_CHARGES>
32
10 -0.15
15 -0.15
16 -0.15
17 -0.15
18 -0.15
19 -0.15
20 -0.15
21 -0.15
22 -0.15
23 -0.15
24 -0.15
25 -0.15
26 -0.15
27 0.15
28 0.15
29 0.15
30 0.15
31 0.15
32 0.15
33 0.15
34 0.15
35 0.15
36 0.15
37 0.15
38 0.15
39 0.15
40 0.15
41 0.15
42 0.15
7 -0.15
8 -0.15
9 -0.15

> <PUBCHEM_EFFECTIVE_ROTOR_COUNT>
0

> <PUBCHEM_PHARMACOPHORE_FEATURES>
6
6 1 2 3 5 7 9 rings
6 1 2 4 6 8 10 rings
6 11 13 19 21 23 25 rings
6 12 14 20 22 24 26 rings
6 3 5 11 13 15 17 rings
6 4 6 12 14 16 18 rings

> <PUBCHEM_HEAVY_ATOM_COUNT>
26

> <PUBCHEM_ATOM_DEF_STEREO_COUNT>
0

> <PUBCHEM_ATOM_UDEF_STEREO_COUNT>
0

> <PUBCHEM_BOND_DEF_STEREO_COUNT>
0

> <PUBCHEM_BOND_UDEF_STEREO_COUNT>
0

> <PUBCHEM_ISOTOPIC_ATOM_COUNT>
0

> <PUBCHEM_COMPONENT_COUNT>
1

> <PUBCHEM_CACTVS_TAUTO_COUNT>
1

> <PUBCHEM_CONFORMER_ID>
000023E100000001

> <PUBCHEM_MMFF94_ENERGY>
97.359

> <PUBCHEM_FEATURE_SELFOVERLAP>
30.565

> <PUBCHEM_SHAPE_FINGERPRINT>
10050765 1 18410856603207459496
10319926 262 18262249905298523761
10595046 47 18410853231182982260
10622 236 17245289409359019863
11135609 99 18408324398106318998
11443803 9 17914616048259477356
11524674 6 16732984215521707535
117089 54 17912071760661381691
11756154 67 18048310339514484854
11963148 33 18195533588652179862
11991303 11 14189565317535474001
12107183 9 17977099390154928193
12166972 35 18273492355916474180
12236239 1 18408321090158360081
12403259 226 18410860957692504356
12516196 113 18261112980542837272
12760667 363 18335140882638933519
13073987 5 18334575728629058104
13167823 11 18410577287981503142
13288520 33 18410292515192446309
13533116 47 18336546032349580440
13685833 64 18411417314870398891
13782708 43 18410857659151482310
14211702 104 18335412482689544598
14341114 176 18411978048963495753
14347332 77 18412829105043616461
14461889 52 18337961087035404352
15082195 135 17916010271208891668
15183329 4 18412825797850246371
15196674 1 18410856563935094660
15320467 1 17257652214278945570
15361156 5 18059560417170387316
15419008 42 17900263301297198565
15927050 60 17612033677313622764
17492 89 18410575067525719558
17844677 252 18410005541950935889
17857418 61 18410573985156972755
1813 80 17346881147800487940
18681886 176 18409452471176487800
19958102 18 18201445774591242783
20028762 73 18334859433058201414
21130935 74 18260829297605095306
21197605 99 18335419015815174534
21236236 1 18409448103120751531
21267235 1 18410849962570068387
21279426 13 18341054111385176221
21623969 137 17676485068637476150
21682296 61 18336259128180987519
22393880 68 18059585727417670789
23522609 53 18122309528435382433
23559900 14 18410019835776417353
23569943 247 17630615736891817058
3004659 81 18273497875354903560
335352 9 18411139160969012173
338550 245 18412543185092499790
350125 39 18409166605978224828
4073 2 18130220458920054530
4214541 1 18410574007022257793
439807 62 18412260619404884275
46194498 28 17417533506091188868
465052 167 18260264162156664750
5104073 3 18259704510099973072
559249 180 18410576223552066407
7495541 125 17821732697686366384
9709674 26 18270957951417089448
9996256 80 18411136943694807057
999808 66 17988629780461041963

> <PUBCHEM_SHAPE_MULTIPOLES>
535.07
16.89
2.97
0.62
0
0.42
0
9.52
-0.01
0
0
0
0
0

> <PUBCHEM_SHAPE_SELFOVERLAP>
1252.56

> <PUBCHEM_SHAPE_VOLUME>
243.1

> <PUBCHEM_COORDINATE_TYPE>
2
5
10

$$$$

