11954028
  -OEChem-07051213053D

 37 39  0     1  0  0  0  0  0999 V2000
    5.2577   -1.0999   -0.0613 O   0  0  0  0  0  0  0  0  0  0  0  0
    0.2766   -1.3665   -0.0184 C   0  0  1  0  0  0  0  0  0  0  0  0
   -0.6168   -0.1305   -0.0999 C   0  0  0  0  0  0  0  0  0  0  0  0
    1.6399   -0.7315   -0.0646 C   0  0  0  0  0  0  0  0  0  0  0  0
    0.0920    1.0158   -0.1972 C   0  0  0  0  0  0  0  0  0  0  0  0
    1.5134    0.6602   -0.1675 C   0  0  0  0  0  0  0  0  0  0  0  0
   -0.3780    2.4204   -0.3177 C   0  0  0  0  0  0  0  0  0  0  0  0
    0.0601   -2.1795    1.2546 C   0  0  0  0  0  0  0  0  0  0  0  0
   -2.0602   -0.2406   -0.1206 C   0  0  0  0  0  0  0  0  0  0  0  0
    2.8844   -1.3415   -0.0317 C   0  0  0  0  0  0  0  0  0  0  0  0
    2.6393    1.4683   -0.2294 C   0  0  0  0  0  0  0  0  0  0  0  0
    4.0197   -0.5321   -0.0936 C   0  0  0  0  0  0  0  0  0  0  0  0
    3.8981    0.8624   -0.1906 C   0  0  0  0  0  0  0  0  0  0  0  0
   -0.5493    3.0487    1.0523 C   0  0  0  0  0  0  0  0  0  0  0  0
   -2.7368   -0.4124   -1.3319 C   0  0  0  0  0  0  0  0  0  0  0  0
   -2.7870   -0.1777    1.0721 C   0  0  0  0  0  0  0  0  0  0  0  0
   -4.1274   -0.5206   -1.3504 C   0  0  0  0  0  0  0  0  0  0  0  0
   -4.1775   -0.2857    1.0536 C   0  0  0  0  0  0  0  0  0  0  0  0
   -4.8479   -0.4573   -0.1576 C   0  0  0  0  0  0  0  0  0  0  0  0
    0.1329   -1.9921   -0.9077 H   0  0  0  0  0  0  0  0  0  0  0  0
    0.3087    3.0185   -0.9267 H   0  0  0  0  0  0  0  0  0  0  0  0
   -1.3399    2.4528   -0.8432 H   0  0  0  0  0  0  0  0  0  0  0  0
    0.7819   -3.0009    1.3227 H   0  0  0  0  0  0  0  0  0  0  0  0
    0.1758   -1.5653    2.1555 H   0  0  0  0  0  0  0  0  0  0  0  0
   -0.9411   -2.6229    1.2738 H   0  0  0  0  0  0  0  0  0  0  0  0
    2.9677   -2.4212    0.0392 H   0  0  0  0  0  0  0  0  0  0  0  0
    2.5638    2.5478   -0.3051 H   0  0  0  0  0  0  0  0  0  0  0  0
    4.7898    1.4825   -0.2381 H   0  0  0  0  0  0  0  0  0  0  0  0
   -0.9051    4.0792    0.9502 H   0  0  0  0  0  0  0  0  0  0  0  0
    0.3976    3.0765    1.6022 H   0  0  0  0  0  0  0  0  0  0  0  0
   -1.2791    2.5042    1.6602 H   0  0  0  0  0  0  0  0  0  0  0  0
   -2.1904   -0.4645   -2.2708 H   0  0  0  0  0  0  0  0  0  0  0  0
   -2.2811   -0.0443    2.0255 H   0  0  0  0  0  0  0  0  0  0  0  0
   -4.6493   -0.6542   -2.2935 H   0  0  0  0  0  0  0  0  0  0  0  0
   -4.7385   -0.2364    1.9823 H   0  0  0  0  0  0  0  0  0  0  0  0
   -5.9306   -0.5414   -0.1720 H   0  0  0  0  0  0  0  0  0  0  0  0
    5.1597   -2.0652    0.0068 H   0  0  0  0  0  0  0  0  0  0  0  0
  1 12  1  0  0  0  0
  1 37  1  0  0  0  0
  2  3  1  0  0  0  0
  2  4  1  0  0  0  0
  2  8  1  0  0  0  0
  2 20  1  0  0  0  0
  3  5  2  0  0  0  0
  3  9  1  0  0  0  0
  4  6  2  0  0  0  0
  4 10  1  0  0  0  0
  5  6  1  0  0  0  0
  5  7  1  0  0  0  0
  6 11  1  0  0  0  0
  7 14  1  0  0  0  0
  7 21  1  0  0  0  0
  7 22  1  0  0  0  0
  8 23  1  0  0  0  0
  8 24  1  0  0  0  0
  8 25  1  0  0  0  0
  9 15  2  0  0  0  0
  9 16  1  0  0  0  0
 10 12  2  0  0  0  0
 10 26  1  0  0  0  0
 11 13  2  0  0  0  0
 11 27  1  0  0  0  0
 12 13  1  0  0  0  0
 13 28  1  0  0  0  0
 14 29  1  0  0  0  0
 14 30  1  0  0  0  0
 14 31  1  0  0  0  0
 15 17  1  0  0  0  0
 15 32  1  0  0  0  0
 16 18  2  0  0  0  0
 16 33  1  0  0  0  0
 17 19  2  0  0  0  0
 17 34  1  0  0  0  0
 18 19  1  0  0  0  0
 18 35  1  0  0  0  0
 19 36  1  0  0  0  0
M  END
> <PUBCHEM_COMPOUND_CID>
11954028

> <PUBCHEM_CONFORMER_RMSD>
0.6

> <PUBCHEM_CONFORMER_DIVERSEORDER>
1
2

> <PUBCHEM_MMFF94_PARTIAL_CHARGES>
26
1 -0.53
10 -0.15
11 -0.15
12 0.08
13 -0.15
15 -0.15
16 -0.15
17 -0.15
18 -0.15
19 -0.15
2 0.28
26 0.15
27 0.15
28 0.15
3 -0.17
32 0.15
33 0.15
34 0.15
35 0.15
36 0.15
37 0.45
4 -0.14
5 -0.17
6 0.03
7 0.14
9 0.03

> <PUBCHEM_EFFECTIVE_ROTOR_COUNT>
2.2

> <PUBCHEM_PHARMACOPHORE_FEATURES>
5
1 1 donor
1 14 hydrophobe
5 2 3 4 5 6 rings
6 4 6 10 11 12 13 rings
6 9 15 16 17 18 19 rings

> <PUBCHEM_HEAVY_ATOM_COUNT>
19

> <PUBCHEM_ATOM_DEF_STEREO_COUNT>
1

> <PUBCHEM_ATOM_UDEF_STEREO_COUNT>
0

> <PUBCHEM_BOND_DEF_STEREO_COUNT>
0

> <PUBCHEM_BOND_UDEF_STEREO_COUNT>
0

> <PUBCHEM_ISOTOPIC_ATOM_COUNT>
0

> <PUBCHEM_COMPONENT_COUNT>
1

> <PUBCHEM_CACTVS_TAUTO_COUNT>
9

> <PUBCHEM_CONFORMER_ID>
00B6676C00000001

> <PUBCHEM_MMFF94_ENERGY>
55.6682

> <PUBCHEM_FEATURE_SELFOVERLAP>
25.455

> <PUBCHEM_SHAPE_FINGERPRINT>
104564 63 18337110193373256153
10906281 52 18337372869647039652
11471102 20 18341332219270842606
11578080 2 17533248399211459361
12236239 1 17967249780800170951
13134695 92 18262239915468791525
13140716 1 18339924788837986546
13760787 5 18411134714691293684
13862211 1 18412831300152076570
13965767 371 16956992259249854641
14115302 16 17845924157290486246
14178342 30 18050013482814081632
14787075 74 18342455889762760262
15196674 1 18411135857152899484
15848700 24 18409173194663986764
15848702 151 18040427836704681782
16752209 62 18271252715392028240
16945 1 18410292523555638022
17349148 13 18342458162175012802
17357779 13 18342187669345555261
1813 80 18261659441737267868
18186145 218 18273498952874957558
200 152 18410298029276307276
20510252 161 18336546114043824912
20602899 9 14764338366803933768
20645477 70 18413112770517296126
21029758 11 18408608036970937025
21033648 29 17917445189126681853
21041028 32 18336255804324829929
21267235 1 18410003347222693198
21641784 216 18129644392421926596
221490 88 18051694339497887047
23175994 123 18273492364822497485
23184049 59 18408880707216841382
2334 1 17980194193686608410
23402539 116 18333734636550914446
23493267 7 16988851600306132505
23557571 272 17749387117643685996
23558518 356 18124300868836427912
23559900 14 16917072187348014010
26918003 58 18202844352885485698
2748010 2 17979064986681126780
283562 15 18340487884456104056
2871803 45 18343305898239931022
3286 77 17167871841720497928
34934 24 18265619780189887972
350125 39 18410569626493511824
474 4 17826806836400971993
537710 114 18341044129907696940
7164475 11 18263078971800333044
77492 1 17822287960096499487

> <PUBCHEM_SHAPE_MULTIPOLES>
385.14
8.61
2.24
1.09
0.12
1.53
0.04
-2.64
-1
0.81
0.66
-1.09
-0.09
-0.28

> <PUBCHEM_SHAPE_SELFOVERLAP>
845.903

> <PUBCHEM_SHAPE_VOLUME>
211.6

> <PUBCHEM_COORDINATE_TYPE>
2
5
10

$$$$

