854221
  -OEChem-06241222473D

 29 29  0     0  0  0  0  0  0999 V2000
   -2.8964   -0.0892   -0.4477 N   0  0  0  0  0  0  0  0  0  0  0  0
    4.9502    2.3641    0.0270 N   0  0  0  0  0  0  0  0  0  0  0  0
    4.6449   -2.0712    0.3790 N   0  0  0  0  0  0  0  0  0  0  0  0
   -4.3338    0.1360   -0.5503 C   0  0  0  0  0  0  0  0  0  0  0  0
   -4.9330    0.4337    0.8203 C   0  0  0  0  0  0  0  0  0  0  0  0
   -2.3815   -1.3774   -0.2803 C   0  0  0  0  0  0  0  0  0  0  0  0
   -1.9996    0.9823   -0.4381 C   0  0  0  0  0  0  0  0  0  0  0  0
   -6.4269    0.7211    0.7618 C   0  0  0  0  0  0  0  0  0  0  0  0
   -0.1348   -0.5166   -0.1547 C   0  0  0  0  0  0  0  0  0  0  0  0
   -1.0705   -1.6449   -0.1386 C   0  0  0  0  0  0  0  0  0  0  0  0
   -0.6683    0.8404   -0.3048 C   0  0  0  0  0  0  0  0  0  0  0  0
    1.1855   -0.7218   -0.0268 C   0  0  0  0  0  0  0  0  0  0  0  0
    2.1552    0.3527   -0.0355 C   0  0  0  0  0  0  0  0  0  0  0  0
    3.4907    0.2266    0.0870 C   0  0  0  0  0  0  0  0  0  0  0  0
    4.2945    1.4068    0.0538 C   0  0  0  0  0  0  0  0  0  0  0  0
    4.1237   -1.0425    0.2481 C   0  0  0  0  0  0  0  0  0  0  0  0
   -4.8292   -0.7382   -0.9921 H   0  0  0  0  0  0  0  0  0  0  0  0
   -4.5332    0.9711   -1.2342 H   0  0  0  0  0  0  0  0  0  0  0  0
   -4.4273    1.2960    1.2717 H   0  0  0  0  0  0  0  0  0  0  0  0
   -4.7598   -0.4152    1.4930 H   0  0  0  0  0  0  0  0  0  0  0  0
   -3.1265   -2.1649   -0.2714 H   0  0  0  0  0  0  0  0  0  0  0  0
   -2.4616    1.9571   -0.5476 H   0  0  0  0  0  0  0  0  0  0  0  0
   -6.6325    1.5923    0.1318 H   0  0  0  0  0  0  0  0  0  0  0  0
   -6.9733   -0.1352    0.3541 H   0  0  0  0  0  0  0  0  0  0  0  0
   -6.8137    0.9265    1.7647 H   0  0  0  0  0  0  0  0  0  0  0  0
   -0.7113   -2.6594   -0.0116 H   0  0  0  0  0  0  0  0  0  0  0  0
   -0.0732    1.7411   -0.3085 H   0  0  0  0  0  0  0  0  0  0  0  0
    1.5579   -1.7368    0.0871 H   0  0  0  0  0  0  0  0  0  0  0  0
    1.8059    1.3721   -0.1537 H   0  0  0  0  0  0  0  0  0  0  0  0
  1  4  1  0  0  0  0
  1  6  1  0  0  0  0
  1  7  1  0  0  0  0
  2 15  3  0  0  0  0
  3 16  3  0  0  0  0
  4  5  1  0  0  0  0
  4 17  1  0  0  0  0
  4 18  1  0  0  0  0
  5  8  1  0  0  0  0
  5 19  1  0  0  0  0
  5 20  1  0  0  0  0
  6 10  2  0  0  0  0
  6 21  1  0  0  0  0
  7 11  2  0  0  0  0
  7 22  1  0  0  0  0
  8 23  1  0  0  0  0
  8 24  1  0  0  0  0
  8 25  1  0  0  0  0
  9 10  1  0  0  0  0
  9 11  1  0  0  0  0
  9 12  2  0  0  0  0
 10 26  1  0  0  0  0
 11 27  1  0  0  0  0
 12 13  1  0  0  0  0
 12 28  1  0  0  0  0
 13 14  2  0  0  0  0
 13 29  1  0  0  0  0
 14 15  1  0  0  0  0
 14 16  1  0  0  0  0
M  END
> <PUBCHEM_COMPOUND_CID>
854221

> <PUBCHEM_CONFORMER_RMSD>
0.6

> <PUBCHEM_CONFORMER_DIVERSEORDER>
1
3
5
2
6
4

> <PUBCHEM_MMFF94_PARTIAL_CHARGES>
19
1 -0.57
10 -0.15
11 -0.15
12 -0.15
13 -0.15
14 0.13
15 0.49
16 0.49
2 -0.56
21 0.15
22 0.15
26 0.15
27 0.15
28 0.15
29 0.15
3 -0.56
4 0.37
6 -0.05
7 -0.05

> <PUBCHEM_EFFECTIVE_ROTOR_COUNT>
3.2

> <PUBCHEM_PHARMACOPHORE_FEATURES>
5
1 1 cation
1 2 acceptor
1 3 acceptor
1 8 hydrophobe
6 1 6 7 9 10 11 rings

> <PUBCHEM_HEAVY_ATOM_COUNT>
16

> <PUBCHEM_ATOM_DEF_STEREO_COUNT>
0

> <PUBCHEM_ATOM_UDEF_STEREO_COUNT>
0

> <PUBCHEM_BOND_DEF_STEREO_COUNT>
0

> <PUBCHEM_BOND_UDEF_STEREO_COUNT>
0

> <PUBCHEM_ISOTOPIC_ATOM_COUNT>
0

> <PUBCHEM_COMPONENT_COUNT>
1

> <PUBCHEM_CACTVS_TAUTO_COUNT>
1

> <PUBCHEM_CONFORMER_ID>
000D08CD00000001

> <PUBCHEM_MMFF94_ENERGY>
32.1887

> <PUBCHEM_FEATURE_SELFOVERLAP>
25.371

> <PUBCHEM_SHAPE_FINGERPRINT>
106641 1 18271800169673073817
10912923 1 18113623369648296679
12236239 1 18260830406492205637
12403259 415 18131637819481180268
12596602 18 18341325639771316537
12670543 26 7925640973300299761
12788726 201 17458614640327820000
13081056 2 18343586265162669084
13167372 99 18261107538851363681
13533116 47 18272368719731404218
13675066 3 17775004587319080615
13760787 5 18409175415182989559
13955234 65 18341619230977596834
14251764 18 18335425659923313802
14911166 2 7997963562530698039
15048467 5 18186517696583384001
15196674 1 18410858732962125047
18186145 218 17632306670206447838
19433438 28 17703793660173748109
20281389 69 18411417337120916225
20645477 56 18130514050036300364
20645477 70 18408044026799014286
21267235 1 18341326803486296506
212847 35 18113620088324885816
21637258 2 13973680573830965241
21652331 79 18341897385195773788
22079108 93 17346597439556600201
22224240 67 18343858914989148843
23402539 116 17822018627118902941
23402655 69 18187366476631128292
23559900 14 18409172087168949250
293599 30 18261107465957933201
3545911 37 18342739594497501652
5104073 3 18340211799579149298
5374978 207 18342179972911574168
77779 3 18411984646070250718
8272917 22 18334010610371169678

> <PUBCHEM_SHAPE_MULTIPOLES>
314.33
13.07
1.81
0.75
5.18
0
0.04
-3.87
3.03
-2.46
0.05
0.55
-0.03
-0.55

> <PUBCHEM_SHAPE_SELFOVERLAP>
638.152

> <PUBCHEM_SHAPE_VOLUME>
179.3

> <PUBCHEM_COORDINATE_TYPE>
2
5
10

$$$$

