11954168
  -OEChem-07051213073D

 51 54  0     1  0  0  0  0  0999 V2000
    0.7001   -0.3430   -1.8494 Cl  0  0  0  0  0  0  0  0  0  0  0  0
   -5.0456   -0.7543    0.1474 O   0  0  0  0  0  0  0  0  0  0  0  0
    0.0129   -2.6485    0.7130 O   0  0  0  0  0  0  0  0  0  0  0  0
    5.6803    0.2093   -1.0149 O   0  0  0  0  0  0  0  0  0  0  0  0
   -2.6004   -0.3680    0.1694 C   0  0  1  0  0  0  0  0  0  0  0  0
   -1.7974    0.8884   -0.2438 C   0  0  2  0  0  0  0  0  0  0  0  0
   -0.3947    0.9142    0.3840 C   0  0  1  0  0  0  0  0  0  0  0  0
    0.4485   -0.3502   -0.0406 C   0  0  2  0  0  0  0  0  0  0  0  0
   -3.9799   -0.0503   -0.4857 C   0  0  2  0  0  0  0  0  0  0  0  0
   -2.7536    2.0358    0.0720 C   0  0  0  0  0  0  0  0  0  0  0  0
    1.8668   -0.3483    0.6805 C   0  0  2  0  0  0  0  0  0  0  0  0
   -1.8588   -1.6073   -0.3401 C   0  0  0  0  0  0  0  0  0  0  0  0
   -4.1538    1.4687   -0.2255 C   0  0  0  0  0  0  0  0  0  0  0  0
    0.3554    2.2278    0.1094 C   0  0  0  0  0  0  0  0  0  0  0  0
   -0.4195   -1.6235    0.1853 C   0  0  0  0  0  0  0  0  0  0  0  0
   -2.7776   -0.5217    1.7105 C   0  0  0  0  0  0  0  0  0  0  0  0
    2.5318    1.0185    0.4230 C   0  0  0  0  0  0  0  0  0  0  0  0
    1.7213    2.2398    0.7960 C   0  0  0  0  0  0  0  0  0  0  0  0
    2.8159   -1.5241    0.2603 C   0  0  0  0  0  0  0  0  0  0  0  0
   -4.0849   -0.3536   -1.9858 C   0  0  0  0  0  0  0  0  0  0  0  0
    1.6958   -0.5033    2.2230 C   0  0  0  0  0  0  0  0  0  0  0  0
    3.7893   -1.2493   -0.8754 C   0  0  0  0  0  0  0  0  0  0  0  0
    3.7374    1.1913   -0.1413 C   0  0  0  0  0  0  0  0  0  0  0  0
    4.5108    0.0516   -0.6714 C   0  0  0  0  0  0  0  0  0  0  0  0
   -1.6701    0.9001   -1.3341 H   0  0  0  0  0  0  0  0  0  0  0  0
   -0.5441    0.8856    1.4680 H   0  0  0  0  0  0  0  0  0  0  0  0
   -2.5461    2.9186   -0.5417 H   0  0  0  0  0  0  0  0  0  0  0  0
   -2.6831    2.3423    1.1217 H   0  0  0  0  0  0  0  0  0  0  0  0
   -1.8106   -1.6474   -1.4324 H   0  0  0  0  0  0  0  0  0  0  0  0
   -2.3660   -2.5218   -0.0108 H   0  0  0  0  0  0  0  0  0  0  0  0
   -4.8227    1.6608    0.6220 H   0  0  0  0  0  0  0  0  0  0  0  0
   -4.5928    1.9787   -1.0907 H   0  0  0  0  0  0  0  0  0  0  0  0
   -0.2252    3.0786    0.4851 H   0  0  0  0  0  0  0  0  0  0  0  0
    0.4755    2.3884   -0.9687 H   0  0  0  0  0  0  0  0  0  0  0  0
   -3.3781   -1.4087    1.9443 H   0  0  0  0  0  0  0  0  0  0  0  0
   -1.8264   -0.6515    2.2350 H   0  0  0  0  0  0  0  0  0  0  0  0
   -3.2814    0.3379    2.1629 H   0  0  0  0  0  0  0  0  0  0  0  0
    1.5951    2.2820    1.8839 H   0  0  0  0  0  0  0  0  0  0  0  0
    2.2407    3.1656    0.5187 H   0  0  0  0  0  0  0  0  0  0  0  0
    2.2519   -2.4277    0.0135 H   0  0  0  0  0  0  0  0  0  0  0  0
    3.4346   -1.8056    1.1252 H   0  0  0  0  0  0  0  0  0  0  0  0
   -3.3252    0.1610   -2.5800 H   0  0  0  0  0  0  0  0  0  0  0  0
   -4.0084   -1.4298   -2.1759 H   0  0  0  0  0  0  0  0  0  0  0  0
   -5.0690   -0.0543   -2.3664 H   0  0  0  0  0  0  0  0  0  0  0  0
    1.3248   -1.4977    2.4909 H   0  0  0  0  0  0  0  0  0  0  0  0
    2.6575   -0.3729    2.7363 H   0  0  0  0  0  0  0  0  0  0  0  0
    1.0123    0.2240    2.6667 H   0  0  0  0  0  0  0  0  0  0  0  0
   -4.8843   -1.7058    0.0272 H   0  0  0  0  0  0  0  0  0  0  0  0
    3.3005   -1.2279   -1.8520 H   0  0  0  0  0  0  0  0  0  0  0  0
    4.5333   -2.0543   -0.9049 H   0  0  0  0  0  0  0  0  0  0  0  0
    4.1693    2.1767   -0.2810 H   0  0  0  0  0  0  0  0  0  0  0  0
  1  8  1  0  0  0  0
  2  9  1  0  0  0  0
  2 48  1  0  0  0  0
  3 15  2  0  0  0  0
  4 24  2  0  0  0  0
  5  6  1  0  0  0  0
  5  9  1  0  0  0  0
  5 12  1  0  0  0  0
  5 16  1  0  0  0  0
  6  7  1  0  0  0  0
  6 10  1  0  0  0  0
  6 25  1  0  0  0  0
  7  8  1  0  0  0  0
  7 14  1  0  0  0  0
  7 26  1  0  0  0  0
  8 11  1  0  0  0  0
  8 15  1  0  0  0  0
  9 13  1  0  0  0  0
  9 20  1  0  0  0  0
 10 13  1  0  0  0  0
 10 27  1  0  0  0  0
 10 28  1  0  0  0  0
 11 17  1  0  0  0  0
 11 19  1  0  0  0  0
 11 21  1  0  0  0  0
 12 15  1  0  0  0  0
 12 29  1  0  0  0  0
 12 30  1  0  0  0  0
 13 31  1  0  0  0  0
 13 32  1  0  0  0  0
 14 18  1  0  0  0  0
 14 33  1  0  0  0  0
 14 34  1  0  0  0  0
 16 35  1  0  0  0  0
 16 36  1  0  0  0  0
 16 37  1  0  0  0  0
 17 18  1  0  0  0  0
 17 23  2  0  0  0  0
 18 38  1  0  0  0  0
 18 39  1  0  0  0  0
 19 22  1  0  0  0  0
 19 40  1  0  0  0  0
 19 41  1  0  0  0  0
 20 42  1  0  0  0  0
 20 43  1  0  0  0  0
 20 44  1  0  0  0  0
 21 45  1  0  0  0  0
 21 46  1  0  0  0  0
 21 47  1  0  0  0  0
 22 24  1  0  0  0  0
 22 49  1  0  0  0  0
 22 50  1  0  0  0  0
 23 24  1  0  0  0  0
 23 51  1  0  0  0  0
M  END
> <PUBCHEM_COMPOUND_CID>
11954168

> <PUBCHEM_CONFORMER_RMSD>
0.6

> <PUBCHEM_CONFORMER_DIVERSEORDER>
1

> <PUBCHEM_MMFF94_PARTIAL_CHARGES>
16
1 -0.29
11 0.14
12 0.06
15 0.45
17 -0.28
18 0.14
2 -0.68
22 0.06
23 -0.14
24 0.49
3 -0.57
4 -0.57
48 0.4
51 0.15
8 0.35
9 0.28

> <PUBCHEM_EFFECTIVE_ROTOR_COUNT>
1.6

> <PUBCHEM_PHARMACOPHORE_FEATURES>
8
1 2 acceptor
1 2 donor
1 3 acceptor
1 4 acceptor
5 5 6 9 10 13 rings
6 11 17 19 22 23 24 rings
6 5 6 7 8 12 15 rings
6 7 8 11 14 17 18 rings

> <PUBCHEM_HEAVY_ATOM_COUNT>
24

> <PUBCHEM_ATOM_DEF_STEREO_COUNT>
6

> <PUBCHEM_ATOM_UDEF_STEREO_COUNT>
0

> <PUBCHEM_BOND_DEF_STEREO_COUNT>
0

> <PUBCHEM_BOND_UDEF_STEREO_COUNT>
0

> <PUBCHEM_ISOTOPIC_ATOM_COUNT>
0

> <PUBCHEM_COMPONENT_COUNT>
1

> <PUBCHEM_CACTVS_TAUTO_COUNT>
10

> <PUBCHEM_CONFORMER_ID>
00B667F800000001

> <PUBCHEM_MMFF94_ENERGY>
92.2429

> <PUBCHEM_FEATURE_SELFOVERLAP>
40.693

> <PUBCHEM_SHAPE_FINGERPRINT>
10366900 7 18131635564976693105
10498660 4 18271814501103246799
10759866 29 17774727570776873176
10863032 1 18343863337818928930
10948715 1 18343299254168195032
10967382 1 18410579469851133537
11578080 2 17344377598653041868
12011746 2 18412546504859301493
12236239 1 17704071806951626854
12403259 415 18342464725127985077
12553582 1 18408895026696023481
12788726 201 18044090378915100800
12969540 114 18201731634207134838
13140716 1 17907024967069489680
13224815 77 17989489632148413051
13583140 156 16630522908265940201
14223421 5 18051411768966620251
14790565 3 18266167508110026889
15163728 17 16485589813047311021
15196674 1 18410292548840145073
15209289 33 18334293180131653505
15536298 74 18259992543533942128
15848702 151 17531517775944678078
16752209 62 18338244846133135489
16945 1 18266462005574642072
17349148 13 17458062655625942463
1813 80 4895557377116348840
18186145 218 18341060652799618461
19591789 44 18338799017178645859
19862831 5 18335423473521099088
200 152 17603303751955897740
20775438 99 16959051330817004207
20871999 31 18410007749885762572
21033648 29 18272099270615746729
21267235 1 18336255782332560878
21857420 4 15077694580772723141
221357 26 18334297573957225877
22393880 68 18337968839082354933
23227448 37 18127688223849412724
23402539 116 18334012821909802100
23493267 7 17917989477383489409
23559900 14 18188779335956258288
2748010 2 18197222442954045499
296302 2 15626225727480062405
3004659 81 18270112535404969238
34934 24 18335989684014016128
350125 39 18341041931295592603
3759504 43 17704067365702560402
4280585 95 17324634978645660894
4340502 62 16415473869932513416
474 4 17274531028341314268
5104073 3 18409449219211064073
633830 44 18408893948933454485
9709674 26 18191310372799167147

> <PUBCHEM_SHAPE_MULTIPOLES>
478.17
8.93
2.16
1.46
0.81
0.34
0.08
0.19
-2.81
0.04
0.3
-0.08
-0.35
0.14

> <PUBCHEM_SHAPE_SELFOVERLAP>
1023.064

> <PUBCHEM_SHAPE_VOLUME>
265.1

> <PUBCHEM_COORDINATE_TYPE>
2
5
10

$$$$

