16824
  -OEChem-07051213133D

 19 19  0     0  0  0  0  0  0999 V2000
   -1.6442    2.5241    0.0881 Cl  0  0  0  0  0  0  0  0  0  0  0  0
    0.2374   -3.4316   -0.1862 Cl  0  0  0  0  0  0  0  0  0  0  0  0
   -3.7603    0.1141    0.1409 Cl  0  0  0  0  0  0  0  0  0  0  0  0
    2.0020   -1.0225   -0.2175 O   0  0  0  0  0  0  0  0  0  0  0  0
    1.9857    1.6199   -1.2321 O   0  0  0  0  0  0  0  0  0  0  0  0
    1.4063    2.4820    0.7897 O   0  0  0  0  0  0  0  0  0  0  0  0
    0.2373    0.5809   -0.0722 C   0  0  0  0  0  0  0  0  0  0  0  0
    0.6676   -0.7446   -0.1344 C   0  0  0  0  0  0  0  0  0  0  0  0
   -1.1251    0.8685    0.0128 C   0  0  0  0  0  0  0  0  0  0  0  0
   -0.2644   -1.7823   -0.1114 C   0  0  0  0  0  0  0  0  0  0  0  0
   -2.0569   -0.1693    0.0356 C   0  0  0  0  0  0  0  0  0  0  0  0
   -1.6265   -1.4947   -0.0264 C   0  0  0  0  0  0  0  0  0  0  0  0
    1.2376    1.6458   -0.0982 C   0  0  0  0  0  0  0  0  0  0  0  0
    2.7034   -1.1901    1.0113 C   0  0  0  0  0  0  0  0  0  0  0  0
   -2.3517   -2.3057   -0.0084 H   0  0  0  0  0  0  0  0  0  0  0  0
    3.7338   -1.4742    0.7801 H   0  0  0  0  0  0  0  0  0  0  0  0
    2.2531   -1.9810    1.6190 H   0  0  0  0  0  0  0  0  0  0  0  0
    2.7207   -0.2532    1.5765 H   0  0  0  0  0  0  0  0  0  0  0  0
    2.6566    2.3356   -1.2439 H   0  0  0  0  0  0  0  0  0  0  0  0
  1  9  1  0  0  0  0
  2 10  1  0  0  0  0
  3 11  1  0  0  0  0
  4  8  1  0  0  0  0
  4 14  1  0  0  0  0
  5 13  1  0  0  0  0
  5 19  1  0  0  0  0
  6 13  2  0  0  0  0
  7  8  2  0  0  0  0
  7  9  1  0  0  0  0
  7 13  1  0  0  0  0
  8 10  1  0  0  0  0
  9 11  2  0  0  0  0
 10 12  2  0  0  0  0
 11 12  1  0  0  0  0
 12 15  1  0  0  0  0
 14 16  1  0  0  0  0
 14 17  1  0  0  0  0
 14 18  1  0  0  0  0
M  END
> <PUBCHEM_COMPOUND_CID>
16824

> <PUBCHEM_CONFORMER_RMSD>
0.6

> <PUBCHEM_CONFORMER_DIVERSEORDER>
2
1

> <PUBCHEM_MMFF94_PARTIAL_CHARGES>
16
1 -0.18
10 0.18
11 0.18
12 -0.15
13 0.63
14 0.28
15 0.15
19 0.5
2 -0.18
3 -0.18
4 -0.36
5 -0.65
6 -0.57
7 0.09
8 0.08
9 0.18

> <PUBCHEM_EFFECTIVE_ROTOR_COUNT>
2

> <PUBCHEM_PHARMACOPHORE_FEATURES>
5
1 4 acceptor
1 5 acceptor
1 6 acceptor
3 5 6 13 anion
6 7 8 9 10 11 12 rings

> <PUBCHEM_HEAVY_ATOM_COUNT>
14

> <PUBCHEM_ATOM_DEF_STEREO_COUNT>
0

> <PUBCHEM_ATOM_UDEF_STEREO_COUNT>
0

> <PUBCHEM_BOND_DEF_STEREO_COUNT>
0

> <PUBCHEM_BOND_UDEF_STEREO_COUNT>
0

> <PUBCHEM_ISOTOPIC_ATOM_COUNT>
0

> <PUBCHEM_COMPONENT_COUNT>
1

> <PUBCHEM_CACTVS_TAUTO_COUNT>
1

> <PUBCHEM_CONFORMER_ID>
000041B800000002

> <PUBCHEM_MMFF94_ENERGY>
50.0527

> <PUBCHEM_FEATURE_SELFOVERLAP>
25.433

> <PUBCHEM_SHAPE_FINGERPRINT>
10967382 1 18410292519049654607
13140716 1 18411137992126159851
15490181 7 17906165157597716227
16945 1 18338513153067164031
193761 8 18049727321353077235
20511035 2 18200585887404168435
20559304 39 18339918333090397819
20645477 70 18341897390292451303
21501502 16 18267306434968656591
22802520 49 17684341994077332244
2334 1 18194682566778108775
23388829 49 18265348350714551135
23552423 10 18127972996980899470
23559900 14 17829040259104918534
241688 4 17546720920991204163
2748010 2 18267297638954697271
5255222 1 18266741277148902565
7364860 26 18407758144473207406
81228 2 16970264626985120611

> <PUBCHEM_SHAPE_MULTIPOLES>
276.11
3.85
3.38
0.81
1.67
0.01
-0.01
0.77
0.64
-0.78
-0.19
-0.32
-0.23
-0.08

> <PUBCHEM_SHAPE_SELFOVERLAP>
555.845

> <PUBCHEM_SHAPE_VOLUME>
165.4

> <PUBCHEM_COORDINATE_TYPE>
2
5
10

$$$$

