5282270
  -OEChem-07051213043D

 61 61  0     1  0  0  0  0  0999 V2000
    5.3467    1.5378   -0.0103 O   0  0  0  0  0  0  0  0  0  0  0  0
    4.3507   -2.9885   -0.7391 O   0  0  0  0  0  0  0  0  0  0  0  0
   -0.9873   -3.7142   -0.5528 O   0  0  0  0  0  0  0  0  0  0  0  0
   -5.5247   -1.8827    1.0566 O   0  0  0  0  0  0  0  0  0  0  0  0
   -3.9284   -1.1713    2.5066 O   0  0  0  0  0  0  0  0  0  0  0  0
    3.2643    0.2988    0.1744 C   0  0  2  0  0  0  0  0  0  0  0  0
    2.9082   -1.1777   -0.0389 C   0  0  2  0  0  0  0  0  0  0  0  0
    4.7922    0.2520    0.1965 C   0  0  1  0  0  0  0  0  0  0  0  0
    3.9531   -1.6620   -1.0595 C   0  0  1  0  0  0  0  0  0  0  0  0
    5.1411   -0.6988   -0.9470 C   0  0  0  0  0  0  0  0  0  0  0  0
    2.6767    0.8962    1.4475 C   0  0  0  0  0  0  0  0  0  0  0  0
    1.5016   -1.3826   -0.5008 C   0  0  0  0  0  0  0  0  0  0  0  0
    2.7077    2.3955    1.4134 C   0  0  0  0  0  0  0  0  0  0  0  0
    0.5974   -2.1181    0.1626 C   0  0  0  0  0  0  0  0  0  0  0  0
   -0.8161   -2.3212   -0.3043 C   0  0  2  0  0  0  0  0  0  0  0  0
    1.7297    3.1502    0.8906 C   0  0  0  0  0  0  0  0  0  0  0  0
   -1.8133   -1.8488    0.7612 C   0  0  0  0  0  0  0  0  0  0  0  0
    0.4818    2.5884    0.2741 C   0  0  0  0  0  0  0  0  0  0  0  0
   -3.2690   -2.0793    0.3456 C   0  0  0  0  0  0  0  0  0  0  0  0
   -0.6124    2.4293    1.2892 C   0  0  0  0  0  0  0  0  0  0  0  0
   -4.2371   -1.6552    1.4266 C   0  0  0  0  0  0  0  0  0  0  0  0
   -1.9187    2.5243    0.9979 C   0  0  0  0  0  0  0  0  0  0  0  0
   -2.4484    2.8014   -0.3788 C   0  0  0  0  0  0  0  0  0  0  0  0
   -3.7976    2.1778   -0.5873 C   0  0  0  0  0  0  0  0  0  0  0  0
   -4.0596    1.2693   -1.5390 C   0  0  0  0  0  0  0  0  0  0  0  0
   -3.0373    0.7632   -2.5131 C   0  0  0  0  0  0  0  0  0  0  0  0
   -3.0013    1.6160   -3.7719 C   0  0  0  0  0  0  0  0  0  0  0  0
    2.9355    0.8871   -0.6955 H   0  0  0  0  0  0  0  0  0  0  0  0
    3.0609   -1.7213    0.9055 H   0  0  0  0  0  0  0  0  0  0  0  0
    5.1652   -0.1454    1.1484 H   0  0  0  0  0  0  0  0  0  0  0  0
    3.5648   -1.6653   -2.0848 H   0  0  0  0  0  0  0  0  0  0  0  0
    5.2541   -0.1355   -1.8816 H   0  0  0  0  0  0  0  0  0  0  0  0
    6.0937   -1.2062   -0.7609 H   0  0  0  0  0  0  0  0  0  0  0  0
    1.6512    0.5437    1.6037 H   0  0  0  0  0  0  0  0  0  0  0  0
    3.2289    0.5542    2.3319 H   0  0  0  0  0  0  0  0  0  0  0  0
    1.2079   -0.8951   -1.4278 H   0  0  0  0  0  0  0  0  0  0  0  0
    6.3113    1.4323   -0.0735 H   0  0  0  0  0  0  0  0  0  0  0  0
    5.0379   -3.2485   -1.3761 H   0  0  0  0  0  0  0  0  0  0  0  0
    3.5781    2.8885    1.8379 H   0  0  0  0  0  0  0  0  0  0  0  0
    0.8873   -2.6105    1.0881 H   0  0  0  0  0  0  0  0  0  0  0  0
   -1.0083   -1.7894   -1.2436 H   0  0  0  0  0  0  0  0  0  0  0  0
    1.8313    4.2321    0.9215 H   0  0  0  0  0  0  0  0  0  0  0  0
   -1.6334   -2.3919    1.6991 H   0  0  0  0  0  0  0  0  0  0  0  0
   -1.6555   -0.7842    0.9753 H   0  0  0  0  0  0  0  0  0  0  0  0
    0.1946    3.2781   -0.5277 H   0  0  0  0  0  0  0  0  0  0  0  0
    0.6703    1.6232   -0.2057 H   0  0  0  0  0  0  0  0  0  0  0  0
   -3.4927   -1.5128   -0.5622 H   0  0  0  0  0  0  0  0  0  0  0  0
   -3.4390   -3.1437    0.1499 H   0  0  0  0  0  0  0  0  0  0  0  0
   -0.3808   -3.9636   -1.2712 H   0  0  0  0  0  0  0  0  0  0  0  0
   -0.3366    2.1990    2.3158 H   0  0  0  0  0  0  0  0  0  0  0  0
   -2.6316    2.4156    1.8123 H   0  0  0  0  0  0  0  0  0  0  0  0
   -1.7351    2.5235   -1.1554 H   0  0  0  0  0  0  0  0  0  0  0  0
   -2.5850    3.8870   -0.4697 H   0  0  0  0  0  0  0  0  0  0  0  0
   -6.1586   -1.6110    1.7542 H   0  0  0  0  0  0  0  0  0  0  0  0
   -4.6091    2.4976    0.0620 H   0  0  0  0  0  0  0  0  0  0  0  0
   -5.0718    0.8845   -1.6311 H   0  0  0  0  0  0  0  0  0  0  0  0
   -3.3135   -0.2620   -2.7893 H   0  0  0  0  0  0  0  0  0  0  0  0
   -2.0394    0.6796   -2.0714 H   0  0  0  0  0  0  0  0  0  0  0  0
   -3.9828    1.6494   -4.2570 H   0  0  0  0  0  0  0  0  0  0  0  0
   -2.2863    1.1988   -4.4884 H   0  0  0  0  0  0  0  0  0  0  0  0
   -2.6951    2.6439   -3.5510 H   0  0  0  0  0  0  0  0  0  0  0  0
  1  8  1  0  0  0  0
  1 37  1  0  0  0  0
  2  9  1  0  0  0  0
  2 38  1  0  0  0  0
  3 15  1  0  0  0  0
  3 49  1  0  0  0  0
  4 21  1  0  0  0  0
  4 54  1  0  0  0  0
  5 21  2  0  0  0  0
  6  7  1  0  0  0  0
  6  8  1  0  0  0  0
  6 11  1  0  0  0  0
  6 28  1  0  0  0  0
  7  9  1  0  0  0  0
  7 12  1  0  0  0  0
  7 29  1  0  0  0  0
  8 10  1  0  0  0  0
  8 30  1  0  0  0  0
  9 10  1  0  0  0  0
  9 31  1  0  0  0  0
 10 32  1  0  0  0  0
 10 33  1  0  0  0  0
 11 13  1  0  0  0  0
 11 34  1  0  0  0  0
 11 35  1  0  0  0  0
 12 14  2  0  0  0  0
 12 36  1  0  0  0  0
 13 16  2  0  0  0  0
 13 39  1  0  0  0  0
 14 15  1  0  0  0  0
 14 40  1  0  0  0  0
 15 17  1  0  0  0  0
 15 41  1  0  0  0  0
 16 18  1  0  0  0  0
 16 42  1  0  0  0  0
 17 19  1  0  0  0  0
 17 43  1  0  0  0  0
 17 44  1  0  0  0  0
 18 20  1  0  0  0  0
 18 45  1  0  0  0  0
 18 46  1  0  0  0  0
 19 21  1  0  0  0  0
 19 47  1  0  0  0  0
 19 48  1  0  0  0  0
 20 22  2  0  0  0  0
 20 50  1  0  0  0  0
 22 23  1  0  0  0  0
 22 51  1  0  0  0  0
 23 24  1  0  0  0  0
 23 52  1  0  0  0  0
 23 53  1  0  0  0  0
 24 25  2  0  0  0  0
 24 55  1  0  0  0  0
 25 26  1  0  0  0  0
 25 56  1  0  0  0  0
 26 27  1  0  0  0  0
 26 57  1  0  0  0  0
 26 58  1  0  0  0  0
 27 59  1  0  0  0  0
 27 60  1  0  0  0  0
 27 61  1  0  0  0  0
M  END
> <PUBCHEM_COMPOUND_CID>
5282270

> <PUBCHEM_CONFORMER_RMSD>
1.6

> <PUBCHEM_CONFORMER_DIVERSEORDER>
1
151
86
74
162
10
69
136
89
130
146
24
8
87
53
99
75
135
152
26
5
38
60
132
44
57
133
30
116
128
59
42
63
118
84
107
50
104
142
163
6
68
153
33
48
140
54
157
45
78
123
20
114
108
117
161
112
141
139
120
49
148
21
115
71
126
47
105
95
101
19
127
7
102
12
145
103
16
4
97
158
77
29
40
154
55
138
96
64
85
73
67
41
125
90
113
110
43
156
31
25
28
111
98
150
27
100
124
88
83
15
51
37
81
70
66
144
82
65
155
46
94
35
106
22
92
18
137
121
17
80
76
9
3
72
23
39
131
149
14
159
91
34
119
147
58
109
56
52
61
36
134
2
79
129
11
62
122
160
143
32
13
93

> <PUBCHEM_MMFF94_PARTIAL_CHARGES>
35
1 -0.68
11 0.14
12 -0.29
13 -0.29
14 -0.29
15 0.42
16 -0.29
18 0.28
19 0.06
2 -0.68
20 -0.29
21 0.66
22 -0.29
23 0.28
24 -0.29
25 -0.29
26 0.14
3 -0.68
36 0.15
37 0.4
38 0.4
39 0.15
4 -0.65
40 0.15
42 0.15
49 0.4
5 -0.57
50 0.15
51 0.15
54 0.5
55 0.15
56 0.15
7 0.14
8 0.28
9 0.28

> <PUBCHEM_EFFECTIVE_ROTOR_COUNT>
13

> <PUBCHEM_PHARMACOPHORE_FEATURES>
11
1 1 acceptor
1 1 donor
1 2 acceptor
1 2 donor
1 27 hydrophobe
1 3 acceptor
1 3 donor
1 4 acceptor
1 5 acceptor
3 4 5 21 anion
5 6 7 8 9 10 rings

> <PUBCHEM_HEAVY_ATOM_COUNT>
27

> <PUBCHEM_ATOM_DEF_STEREO_COUNT>
0

> <PUBCHEM_ATOM_UDEF_STEREO_COUNT>
5

> <PUBCHEM_BOND_DEF_STEREO_COUNT>
4

> <PUBCHEM_BOND_UDEF_STEREO_COUNT>
0

> <PUBCHEM_ISOTOPIC_ATOM_COUNT>
0

> <PUBCHEM_COMPONENT_COUNT>
1

> <PUBCHEM_CACTVS_TAUTO_COUNT>
1

> <PUBCHEM_CONFORMER_ID>
005099DE00000001

> <PUBCHEM_MMFF94_ENERGY>
39.8631

> <PUBCHEM_FEATURE_SELFOVERLAP>
55.876

> <PUBCHEM_SHAPE_FINGERPRINT>
10688039 33 18271516511913992729
108634 29 18261670501958315926
12156800 1 17540201740614820765
13075007 39 17697294245785682811
13402501 40 18410851054071984627
14040221 97 18129378190370045316
14251757 17 18410582781381805649
14279260 333 17757837006554356662
14931854 50 18190194540275107453
17357779 13 18187368731314969776
18603816 31 15213845152036903198
20764821 26 18336558105281103453
20775438 99 17175515569284757711
22182313 1 18409738326392365920
3052486 1 18343586244204771464
354706 132 18054776549547056204
437795 51 18339657736899552461
463206 1 18046628077453232808
469060 322 17489288794824536547
508706 21 18131362907810388957

> <PUBCHEM_SHAPE_MULTIPOLES>
526.3
10.92
4.55
2.24
3.84
0.21
1.67
2.12
1.37
-1.4
-0.79
-3.37
-0.82
3.83

> <PUBCHEM_SHAPE_SELFOVERLAP>
1036.606

> <PUBCHEM_SHAPE_VOLUME>
313.2

> <PUBCHEM_COORDINATE_TYPE>
2
5
10

$$$$

