68482
  -OEChem-07051212483D

 29 30  0     0  0  0  0  0  0999 V2000
   -0.8968    2.2676    0.1545 O   0  0  0  0  0  0  0  0  0  0  0  0
    2.9877   -2.7733    0.3722 O   0  0  0  0  0  0  0  0  0  0  0  0
    1.0342   -2.3734   -0.7188 O   0  0  0  0  0  0  0  0  0  0  0  0
    0.1124    0.1563   -0.0149 N   0  0  0  0  0  0  0  0  0  0  0  0
    1.4945    0.4664   -0.0023 C   0  0  0  0  0  0  0  0  0  0  0  0
    2.4392   -0.5436   -0.0853 C   0  0  0  0  0  0  0  0  0  0  0  0
   -2.2940    0.4107    0.0516 C   0  0  0  0  0  0  0  0  0  0  0  0
    1.8690    1.7972    0.0964 C   0  0  0  0  0  0  0  0  0  0  0  0
   -0.9795    1.0323    0.0608 C   0  0  0  0  0  0  0  0  0  0  0  0
    3.7947   -0.2144   -0.0696 C   0  0  0  0  0  0  0  0  0  0  0  0
    3.2243    2.1262    0.1120 C   0  0  0  0  0  0  0  0  0  0  0  0
    4.1872    1.1205    0.0290 C   0  0  0  0  0  0  0  0  0  0  0  0
   -3.3957    1.1161   -0.4327 C   0  0  0  0  0  0  0  0  0  0  0  0
   -2.4535   -0.8912    0.5267 C   0  0  0  0  0  0  0  0  0  0  0  0
   -4.6567    0.5198   -0.4418 C   0  0  0  0  0  0  0  0  0  0  0  0
   -3.7144   -1.4873    0.5176 C   0  0  0  0  0  0  0  0  0  0  0  0
    2.0636   -1.9481   -0.1888 C   0  0  0  0  0  0  0  0  0  0  0  0
   -4.8161   -0.7818    0.0332 C   0  0  0  0  0  0  0  0  0  0  0  0
   -0.0886   -0.8313   -0.1318 H   0  0  0  0  0  0  0  0  0  0  0  0
    1.1943    2.6363    0.1645 H   0  0  0  0  0  0  0  0  0  0  0  0
    4.5699   -0.9724   -0.1463 H   0  0  0  0  0  0  0  0  0  0  0  0
    3.5317    3.1653    0.1879 H   0  0  0  0  0  0  0  0  0  0  0  0
    5.2424    1.3775    0.0380 H   0  0  0  0  0  0  0  0  0  0  0  0
   -3.2926    2.1294   -0.8123 H   0  0  0  0  0  0  0  0  0  0  0  0
   -1.6351   -1.4661    0.9498 H   0  0  0  0  0  0  0  0  0  0  0  0
   -5.5144    1.0687   -0.8196 H   0  0  0  0  0  0  0  0  0  0  0  0
   -3.8410   -2.4976    0.8957 H   0  0  0  0  0  0  0  0  0  0  0  0
   -5.7983   -1.2454    0.0278 H   0  0  0  0  0  0  0  0  0  0  0  0
    2.7281   -3.7164    0.2980 H   0  0  0  0  0  0  0  0  0  0  0  0
  1  9  2  0  0  0  0
  2 17  1  0  0  0  0
  2 29  1  0  0  0  0
  3 17  2  0  0  0  0
  4  5  1  0  0  0  0
  4  9  1  0  0  0  0
  4 19  1  0  0  0  0
  5  6  1  0  0  0  0
  5  8  2  0  0  0  0
  6 10  2  0  0  0  0
  6 17  1  0  0  0  0
  7  9  1  0  0  0  0
  7 13  2  0  0  0  0
  7 14  1  0  0  0  0
  8 11  1  0  0  0  0
  8 20  1  0  0  0  0
 10 12  1  0  0  0  0
 10 21  1  0  0  0  0
 11 12  2  0  0  0  0
 11 22  1  0  0  0  0
 12 23  1  0  0  0  0
 13 15  1  0  0  0  0
 13 24  1  0  0  0  0
 14 16  2  0  0  0  0
 14 25  1  0  0  0  0
 15 18  2  0  0  0  0
 15 26  1  0  0  0  0
 16 18  1  0  0  0  0
 16 27  1  0  0  0  0
 18 28  1  0  0  0  0
M  END
> <PUBCHEM_COMPOUND_CID>
68482

> <PUBCHEM_CONFORMER_RMSD>
0.6

> <PUBCHEM_CONFORMER_DIVERSEORDER>
1
5
8
4
9
2
6
7
3

> <PUBCHEM_MMFF94_PARTIAL_CHARGES>
29
1 -0.57
10 -0.15
11 -0.15
12 -0.15
13 -0.15
14 -0.15
15 -0.15
16 -0.15
17 0.63
18 -0.15
19 0.37
2 -0.65
20 0.15
21 0.15
22 0.15
23 0.15
24 0.15
25 0.15
26 0.15
27 0.15
28 0.15
29 0.5
3 -0.57
4 -0.55
5 0.12
6 0.09
7 0.09
8 -0.15
9 0.54

> <PUBCHEM_EFFECTIVE_ROTOR_COUNT>
4

> <PUBCHEM_PHARMACOPHORE_FEATURES>
7
1 1 acceptor
1 2 acceptor
1 3 acceptor
1 4 donor
3 2 3 17 anion
6 5 6 8 10 11 12 rings
6 7 13 14 15 16 18 rings

> <PUBCHEM_HEAVY_ATOM_COUNT>
18

> <PUBCHEM_ATOM_DEF_STEREO_COUNT>
0

> <PUBCHEM_ATOM_UDEF_STEREO_COUNT>
0

> <PUBCHEM_BOND_DEF_STEREO_COUNT>
0

> <PUBCHEM_BOND_UDEF_STEREO_COUNT>
0

> <PUBCHEM_ISOTOPIC_ATOM_COUNT>
0

> <PUBCHEM_COMPONENT_COUNT>
1

> <PUBCHEM_CACTVS_TAUTO_COUNT>
3

> <PUBCHEM_CONFORMER_ID>
00010B8200000001

> <PUBCHEM_MMFF94_ENERGY>
63.3215

> <PUBCHEM_FEATURE_SELFOVERLAP>
35.578

> <PUBCHEM_SHAPE_FINGERPRINT>
10608611 8 18413392059497895805
10616163 171 18337670806917196511
10967382 1 18409729530457254432
11370993 70 18340771455276777611
11471102 20 18409450271641710908
11615757 297 17822004285690533521
12107183 9 17758387857584138617
12633257 1 18121494919372954003
13140716 1 18120383055819973024
14178342 30 18119255214509044936
14251717 144 18408040706245500998
14252887 29 17531237362146915604
15196674 1 18410855455843769995
15219456 202 18412544310347134885
15375358 24 18343302539786573603
15375462 189 18040439871329365969
15375462 6 18410855468734206652
15442244 35 18121215643361638952
15536298 74 18408885156850595139
15635459 17 18411694404828087515
17492 89 18338799017485192163
17834074 16 18411135827288218165
18681886 176 18268711619883443848
19107657 46 18410291398063235951
200 152 18113901546237894977
20279233 1 18343860005013932401
20645477 56 18131072667027486277
20645477 70 18334013912620505311
21267235 1 18410002230520406279
21501502 16 18263920119253660712
221490 88 18339917207883105162
23402539 116 17917720071339018852
23557571 272 17489595571316691693
23558518 356 18198050576889192145
23559900 14 18339367469079924064
239999 70 18259977163656618302
2871803 45 18411417319339244572
3060560 45 18408882915484270036
33824 294 18410293588596640738
34934 24 18409172086709993887
3545911 37 18341892983144218253
4214541 1 18412545431487021645
474229 33 18338516318647802848
4921388 177 16271633513104491323
5104073 3 18411418457642852329
5283173 99 18129112272002068845
543358 83 18336260266394585977
7364860 26 18408604794623647128
77779 3 18411981356135909857
81539 233 18342457011229116670
8272917 22 18261669367627883847
9709674 26 18413666920304117883

> <PUBCHEM_SHAPE_MULTIPOLES>
347.84
9.38
2.54
0.68
5.56
0.94
-0.01
0.09
-0.1
-1.95
0.01
0.15
0.07
0.48

> <PUBCHEM_SHAPE_SELFOVERLAP>
755.158

> <PUBCHEM_SHAPE_VOLUME>
188.3

> <PUBCHEM_COORDINATE_TYPE>
2
5
10

$$$$

