10749
  -OEChem-06261204552D

 32 32  0     0  0  0  0  0  0999 V2000
    4.5981    0.9050    0.0000 As  0  0  0  0  0  0  0  0  0  0  0  0
    5.4641    1.4050    0.0000 S   0  0  0  0  0  0  0  0  0  0  0  0
    3.7320    1.4050    0.0000 S   0  0  0  0  0  0  0  0  0  0  0  0
    5.4641   -3.5950    0.0000 O   0  0  0  0  0  0  0  0  0  0  0  0
    6.3301    3.9050    0.0000 O   0  0  0  0  0  0  0  0  0  0  0  0
    2.8660    3.9050    0.0000 O   0  0  0  0  0  0  0  0  0  0  0  0
    7.1962    2.4050    0.0000 O   0  0  0  0  0  0  0  0  0  0  0  0
    2.0000    2.4050    0.0000 O   0  0  0  0  0  0  0  0  0  0  0  0
    3.7320   -3.5950    0.0000 N   0  0  0  0  0  0  0  0  0  0  0  0
    4.5981   -0.0950    0.0000 C   0  0  0  0  0  0  0  0  0  0  0  0
    3.7320   -0.5950    0.0000 C   0  0  0  0  0  0  0  0  0  0  0  0
    5.4641   -0.5950    0.0000 C   0  0  0  0  0  0  0  0  0  0  0  0
    4.5981   -2.0950    0.0000 C   0  0  0  0  0  0  0  0  0  0  0  0
    3.7320   -1.5950    0.0000 C   0  0  0  0  0  0  0  0  0  0  0  0
    5.4641   -1.5950    0.0000 C   0  0  0  0  0  0  0  0  0  0  0  0
    4.5981   -3.0950    0.0000 C   0  0  0  0  0  0  0  0  0  0  0  0
    5.4641    2.4050    0.0000 C   0  0  0  0  0  0  0  0  0  0  0  0
    3.7320    2.4050    0.0000 C   0  0  0  0  0  0  0  0  0  0  0  0
    6.3301    2.9050    0.0000 C   0  0  0  0  0  0  0  0  0  0  0  0
    2.8660    2.9050    0.0000 C   0  0  0  0  0  0  0  0  0  0  0  0
    3.1951   -0.2850    0.0000 H   0  0  0  0  0  0  0  0  0  0  0  0
    6.0010   -0.2850    0.0000 H   0  0  0  0  0  0  0  0  0  0  0  0
    3.1951   -1.9050    0.0000 H   0  0  0  0  0  0  0  0  0  0  0  0
    6.0010   -1.9050    0.0000 H   0  0  0  0  0  0  0  0  0  0  0  0
    5.2520    2.9876    0.0000 H   0  0  0  0  0  0  0  0  0  0  0  0
    4.8535    2.2973    0.0000 H   0  0  0  0  0  0  0  0  0  0  0  0
    4.3426    2.2973    0.0000 H   0  0  0  0  0  0  0  0  0  0  0  0
    3.9441    2.9876    0.0000 H   0  0  0  0  0  0  0  0  0  0  0  0
    3.7320   -4.2150    0.0000 H   0  0  0  0  0  0  0  0  0  0  0  0
    3.1951   -3.2850    0.0000 H   0  0  0  0  0  0  0  0  0  0  0  0
    6.8671    4.2150    0.0000 H   0  0  0  0  0  0  0  0  0  0  0  0
    2.3291    4.2150    0.0000 H   0  0  0  0  0  0  0  0  0  0  0  0
  1  2  1  0  0  0  0
  1  3  1  0  0  0  0
  1 10  1  0  0  0  0
  2 17  1  0  0  0  0
  3 18  1  0  0  0  0
  4 16  2  0  0  0  0
  5 19  1  0  0  0  0
  5 31  1  0  0  0  0
  6 20  1  0  0  0  0
  6 32  1  0  0  0  0
  7 19  2  0  0  0  0
  8 20  2  0  0  0  0
  9 16  1  0  0  0  0
  9 29  1  0  0  0  0
  9 30  1  0  0  0  0
 10 11  2  0  0  0  0
 10 12  1  0  0  0  0
 11 14  1  0  0  0  0
 11 21  1  0  0  0  0
 12 15  2  0  0  0  0
 12 22  1  0  0  0  0
 13 14  2  0  0  0  0
 13 15  1  0  0  0  0
 13 16  1  0  0  0  0
 14 23  1  0  0  0  0
 15 24  1  0  0  0  0
 17 19  1  0  0  0  0
 17 25  1  0  0  0  0
 17 26  1  0  0  0  0
 18 20  1  0  0  0  0
 18 27  1  0  0  0  0
 18 28  1  0  0  0  0
M  END
> <PUBCHEM_COMPOUND_CID>
10749

> <PUBCHEM_COMPOUND_CANONICALIZED>
1

> <PUBCHEM_CACTVS_COMPLEXITY>
356

> <PUBCHEM_CACTVS_HBOND_ACCEPTOR>
7

> <PUBCHEM_CACTVS_HBOND_DONOR>
3

> <PUBCHEM_CACTVS_ROTATABLE_BOND>
8

> <PUBCHEM_CACTVS_SUBSKEYS>
AAADccByOABgAAAAQAAAAAAAAAAAAAAAAAAwAAAAAAAAAAABAAAAHgUQCAAADACF2ACwCIBAAgCIAiHSGACCAAAkAAAIjAEABMgIIDKAlRGAIQBggAAIiYcYiACOAAAAAAAAAAAAAAAAAAAAAAAAAAAAAA==

> <PUBCHEM_IUPAC_OPENEYE_NAME>
2-[(4-carbamoylphenyl)-(carboxymethylsulfanyl)arsanyl]sulfanylacetic acid

> <PUBCHEM_IUPAC_CAS_NAME>
2-[[(4-carbamoylphenyl)-(carboxymethylthio)arsino]thio]acetic acid

> <PUBCHEM_IUPAC_NAME>
2-[(4-carbamoylphenyl)-(carboxymethylsulfanyl)arsanyl]sulfanylacetic acid

> <PUBCHEM_IUPAC_SYSTEMATIC_NAME>
2-[(4-aminocarbonylphenyl)-(2-hydroxy-2-oxoethylsulfanyl)arsanyl]sulfanylethanoic acid

> <PUBCHEM_IUPAC_TRADITIONAL_NAME>
2-[[(4-carbamoylphenyl)-(carboxymethylthio)arsino]thio]acetic acid

> <PUBCHEM_IUPAC_INCHI>
InChI=1S/C11H12AsNO5S2/c13-11(18)7-1-3-8(4-2-7)12(19-5-9(14)15)20-6-10(16)17/h1-4H,5-6H2,(H2,13,18)(H,14,15)(H,16,17)

> <PUBCHEM_IUPAC_INCHIKEY>
YBQWEUNEYYXYOI-UHFFFAOYSA-N

> <PUBCHEM_EXACT_MASS>
376.937286

> <PUBCHEM_MOLECULAR_FORMULA>
C11H12AsNO5S2

> <PUBCHEM_MOLECULAR_WEIGHT>
377.26828

> <PUBCHEM_OPENEYE_CAN_SMILES>
C1=CC(=CC=C1C(=O)N)[As](SCC(=O)O)SCC(=O)O

> <PUBCHEM_OPENEYE_ISO_SMILES>
C1=CC(=CC=C1C(=O)N)[As](SCC(=O)O)SCC(=O)O

> <PUBCHEM_CACTVS_TPSA>
168

> <PUBCHEM_MONOISOTOPIC_WEIGHT>
376.937286

> <PUBCHEM_TOTAL_CHARGE>
0

> <PUBCHEM_HEAVY_ATOM_COUNT>
20

> <PUBCHEM_ATOM_DEF_STEREO_COUNT>
0

> <PUBCHEM_ATOM_UDEF_STEREO_COUNT>
0

> <PUBCHEM_BOND_DEF_STEREO_COUNT>
0

> <PUBCHEM_BOND_UDEF_STEREO_COUNT>
0

> <PUBCHEM_ISOTOPIC_ATOM_COUNT>
0

> <PUBCHEM_COMPONENT_COUNT>
1

> <PUBCHEM_CACTVS_TAUTO_COUNT>
2

> <PUBCHEM_COORDINATE_TYPE>
1
5
255

> <PUBCHEM_BONDANNOTATIONS>
10  11  8
10  12  8
11  14  8
12  15  8
13  14  8
13  15  8

$$$$

