79129
  -OEChem-07051213013D

 19 19  0     0  0  0  0  0  0999 V2000
    1.6285    0.0001    0.0814 N   0  3  0  0  0  0  0  0  0  0  0  0
    0.5985    0.0000   -0.9151 C   0  0  0  0  0  0  0  0  0  0  0  0
   -0.2469   -1.2671   -0.7841 C   0  0  0  0  0  0  0  0  0  0  0  0
   -0.2471    1.2671   -0.7841 C   0  0  0  0  0  0  0  0  0  0  0  0
   -1.1152   -1.2620    0.4735 C   0  0  0  0  0  0  0  0  0  0  0  0
   -1.1152    1.2619    0.4736 C   0  0  0  0  0  0  0  0  0  0  0  0
   -1.9676   -0.0001    0.5646 C   0  0  0  0  0  0  0  0  0  0  0  0
    2.4651    0.0000    0.8903 C   0  5  0  0  0  0  0  0  0  0  0  0
    1.0929    0.0001   -1.8944 H   0  0  0  0  0  0  0  0  0  0  0  0
    0.3972   -2.1544   -0.7757 H   0  0  0  0  0  0  0  0  0  0  0  0
   -0.8980   -1.3540   -1.6632 H   0  0  0  0  0  0  0  0  0  0  0  0
   -0.8981    1.3539   -1.6632 H   0  0  0  0  0  0  0  0  0  0  0  0
    0.3969    2.1545   -0.7757 H   0  0  0  0  0  0  0  0  0  0  0  0
   -0.4811   -1.3406    1.3645 H   0  0  0  0  0  0  0  0  0  0  0  0
   -1.7658   -2.1440    0.4716 H   0  0  0  0  0  0  0  0  0  0  0  0
   -1.7659    2.1439    0.4717 H   0  0  0  0  0  0  0  0  0  0  0  0
   -0.4811    1.3406    1.3646 H   0  0  0  0  0  0  0  0  0  0  0  0
   -2.7069   -0.0001   -0.2459 H   0  0  0  0  0  0  0  0  0  0  0  0
   -2.5272   -0.0001    1.5067 H   0  0  0  0  0  0  0  0  0  0  0  0
  1  2  1  0  0  0  0
  1  8  3  0  0  0  0
  2  3  1  0  0  0  0
  2  4  1  0  0  0  0
  2  9  1  0  0  0  0
  3  5  1  0  0  0  0
  3 10  1  0  0  0  0
  3 11  1  0  0  0  0
  4  6  1  0  0  0  0
  4 12  1  0  0  0  0
  4 13  1  0  0  0  0
  5  7  1  0  0  0  0
  5 14  1  0  0  0  0
  5 15  1  0  0  0  0
  6  7  1  0  0  0  0
  6 16  1  0  0  0  0
  6 17  1  0  0  0  0
  7 18  1  0  0  0  0
  7 19  1  0  0  0  0
M  CHG  2   1   1   8  -1
M  END
> <PUBCHEM_COMPOUND_CID>
79129

> <PUBCHEM_CONFORMER_RMSD>
0.4

> <PUBCHEM_CONFORMER_DIVERSEORDER>
1
2
3
4

> <PUBCHEM_MMFF94_PARTIAL_CHARGES>
3
1 0.1
2 0.27
8 -0.37

> <PUBCHEM_EFFECTIVE_ROTOR_COUNT>
1.2

> <PUBCHEM_PHARMACOPHORE_FEATURES>
1
6 2 3 4 5 6 7 rings

> <PUBCHEM_HEAVY_ATOM_COUNT>
8

> <PUBCHEM_ATOM_DEF_STEREO_COUNT>
0

> <PUBCHEM_ATOM_UDEF_STEREO_COUNT>
0

> <PUBCHEM_BOND_DEF_STEREO_COUNT>
0

> <PUBCHEM_BOND_UDEF_STEREO_COUNT>
0

> <PUBCHEM_ISOTOPIC_ATOM_COUNT>
0

> <PUBCHEM_COMPONENT_COUNT>
1

> <PUBCHEM_CACTVS_TAUTO_COUNT>
1

> <PUBCHEM_CONFORMER_ID>
0001351900000001

> <PUBCHEM_MMFF94_ENERGY>
0.5952

> <PUBCHEM_FEATURE_SELFOVERLAP>
5.074

> <PUBCHEM_SHAPE_FINGERPRINT>
13024252 1 16056334932454302776
18185500 45 18056470643340477594
20653085 51 4678820583870370730
21040471 1 18122602093306768933
29004967 10 14692563282723696116
369184 2 18268451112419432184
5084963 1 18264475364019564862
54338 74 18120675555392442595

> <PUBCHEM_SHAPE_MULTIPOLES>
159.66
2.53
1.43
1.07
1.27
0
-0.08
0
1.1
-0.53
-0.13
0.15
0
0

> <PUBCHEM_SHAPE_SELFOVERLAP>
306.797

> <PUBCHEM_SHAPE_VOLUME>
96.3

> <PUBCHEM_COORDINATE_TYPE>
2
5
10

$$$$

