13107
  -OEChem-06261207463D

 36 38  0     0  0  0  0  0  0999 V2000
   -0.6386    3.0536    0.0014 Br  0  0  0  0  0  0  0  0  0  0  0  0
    5.8934    0.7350   -0.0001 Cl  0  0  0  0  0  0  0  0  0  0  0  0
   -0.9056    0.1866   -0.0004 C   0  0  0  0  0  0  0  0  0  0  0  0
   -2.3478    0.3760   -0.0003 C   0  0  0  0  0  0  0  0  0  0  0  0
   -0.3149   -1.1916   -0.0001 C   0  0  0  0  0  0  0  0  0  0  0  0
   -0.0487    1.2588    0.0000 C   0  0  0  0  0  0  0  0  0  0  0  0
    1.4229    1.1296   -0.0001 C   0  0  0  0  0  0  0  0  0  0  0  0
   -3.0392    0.4671    1.2078 C   0  0  0  0  0  0  0  0  0  0  0  0
   -0.0579   -1.7918   -1.2080 C   0  0  0  0  0  0  0  0  0  0  0  0
   -3.0395    0.4671   -1.2081 C   0  0  0  0  0  0  0  0  0  0  0  0
   -0.0570   -1.7910    1.2079 C   0  0  0  0  0  0  0  0  0  0  0  0
    2.0950    1.0711   -1.2081 C   0  0  0  0  0  0  0  0  0  0  0  0
    2.0950    1.0694    1.2079 C   0  0  0  0  0  0  0  0  0  0  0  0
   -4.4222    0.6493    1.2080 C   0  0  0  0  0  0  0  0  0  0  0  0
    0.4922   -3.0736   -1.2079 C   0  0  0  0  0  0  0  0  0  0  0  0
   -4.4223    0.6494   -1.2080 C   0  0  0  0  0  0  0  0  0  0  0  0
    0.4931   -3.0729    1.2081 C   0  0  0  0  0  0  0  0  0  0  0  0
   -5.1137    0.7405    0.0002 C   0  0  0  0  0  0  0  0  0  0  0  0
    0.7677   -3.7141    0.0001 C   0  0  0  0  0  0  0  0  0  0  0  0
    3.4845    0.9483   -1.2081 C   0  0  0  0  0  0  0  0  0  0  0  0
    3.4845    0.9468    1.2078 C   0  0  0  0  0  0  0  0  0  0  0  0
    4.1792    0.8861   -0.0001 C   0  0  0  0  0  0  0  0  0  0  0  0
   -2.5157    0.3994    2.1585 H   0  0  0  0  0  0  0  0  0  0  0  0
   -0.2686   -1.3011   -2.1535 H   0  0  0  0  0  0  0  0  0  0  0  0
   -2.5163    0.3995   -2.1589 H   0  0  0  0  0  0  0  0  0  0  0  0
   -0.2670   -1.2998    2.1534 H   0  0  0  0  0  0  0  0  0  0  0  0
    1.5654    1.1189   -2.1558 H   0  0  0  0  0  0  0  0  0  0  0  0
    1.5652    1.1159    2.1556 H   0  0  0  0  0  0  0  0  0  0  0  0
   -4.9605    0.7207    2.1486 H   0  0  0  0  0  0  0  0  0  0  0  0
    0.7064   -3.5726   -2.1484 H   0  0  0  0  0  0  0  0  0  0  0  0
   -4.9608    0.7208   -2.1484 H   0  0  0  0  0  0  0  0  0  0  0  0
    0.7080   -3.5715    2.1487 H   0  0  0  0  0  0  0  0  0  0  0  0
   -6.1905    0.8826    0.0003 H   0  0  0  0  0  0  0  0  0  0  0  0
    1.1962   -4.7120    0.0003 H   0  0  0  0  0  0  0  0  0  0  0  0
    4.0126    0.9022   -2.1571 H   0  0  0  0  0  0  0  0  0  0  0  0
    4.0125    0.8994    2.1567 H   0  0  0  0  0  0  0  0  0  0  0  0
  1  6  1  0  0  0  0
  2 22  1  0  0  0  0
  3  4  1  0  0  0  0
  3  5  1  0  0  0  0
  3  6  2  0  0  0  0
  4  8  2  0  0  0  0
  4 10  1  0  0  0  0
  5  9  2  0  0  0  0
  5 11  1  0  0  0  0
  6  7  1  0  0  0  0
  7 12  2  0  0  0  0
  7 13  1  0  0  0  0
  8 14  1  0  0  0  0
  8 23  1  0  0  0  0
  9 15  1  0  0  0  0
  9 24  1  0  0  0  0
 10 16  2  0  0  0  0
 10 25  1  0  0  0  0
 11 17  2  0  0  0  0
 11 26  1  0  0  0  0
 12 20  1  0  0  0  0
 12 27  1  0  0  0  0
 13 21  2  0  0  0  0
 13 28  1  0  0  0  0
 14 18  2  0  0  0  0
 14 29  1  0  0  0  0
 15 19  2  0  0  0  0
 15 30  1  0  0  0  0
 16 18  1  0  0  0  0
 16 31  1  0  0  0  0
 17 19  1  0  0  0  0
 17 32  1  0  0  0  0
 18 33  1  0  0  0  0
 19 34  1  0  0  0  0
 20 22  2  0  0  0  0
 20 35  1  0  0  0  0
 21 22  1  0  0  0  0
 21 36  1  0  0  0  0
M  END
> <PUBCHEM_COMPOUND_CID>
13107

> <PUBCHEM_CONFORMER_RMSD>
0.6

> <PUBCHEM_CONFORMER_DIVERSEORDER>
1

> <PUBCHEM_MMFF94_PARTIAL_CHARGES>
36
1 -0.11
10 -0.15
11 -0.15
12 -0.15
13 -0.15
14 -0.15
15 -0.15
16 -0.15
17 -0.15
18 -0.15
19 -0.15
2 -0.18
20 -0.15
21 -0.15
22 0.18
23 0.15
24 0.15
25 0.15
26 0.15
27 0.15
28 0.15
29 0.15
3 -0.06
30 0.15
31 0.15
32 0.15
33 0.15
34 0.15
35 0.15
36 0.15
4 0.03
5 0.03
6 0.08
7 0.03
8 -0.15
9 -0.15

> <PUBCHEM_EFFECTIVE_ROTOR_COUNT>
3

> <PUBCHEM_PHARMACOPHORE_FEATURES>
4
1 1 hydrophobe
6 4 8 10 14 16 18 rings
6 5 9 11 15 17 19 rings
6 7 12 13 20 21 22 rings

> <PUBCHEM_HEAVY_ATOM_COUNT>
22

> <PUBCHEM_ATOM_DEF_STEREO_COUNT>
0

> <PUBCHEM_ATOM_UDEF_STEREO_COUNT>
0

> <PUBCHEM_BOND_DEF_STEREO_COUNT>
0

> <PUBCHEM_BOND_UDEF_STEREO_COUNT>
0

> <PUBCHEM_ISOTOPIC_ATOM_COUNT>
0

> <PUBCHEM_COMPONENT_COUNT>
1

> <PUBCHEM_CACTVS_TAUTO_COUNT>
1

> <PUBCHEM_CONFORMER_ID>
0000333300000001

> <PUBCHEM_MMFF94_ENERGY>
77.7277

> <PUBCHEM_FEATURE_SELFOVERLAP>
20.297

> <PUBCHEM_SHAPE_FINGERPRINT>
10006869 2 17682387393612429817
10382601 240 18190445237911345553
10764073 3 15407837541095176507
107951 10 17989197119655079738
11578080 2 17128177466076195365
11963148 33 18129949971182688291
12507560 18 17676203568064788296
12592029 89 18272933846895270795
12788726 201 17616263485122854230
12969540 114 18269852950826923140
13083527 12 18123771995201259315
13132413 78 10159433045380481839
13140716 1 18265610979855113969
13149001 5 18046063761499660233
13257819 101 17131292236594343735
133893 2 18055337300339655498
13583140 156 16128386930207859983
13681431 1 17978229692398175271
13911987 19 18342737377857008341
14178342 30 18336530652382748153
14468879 13 16013005159352380242
14790565 3 18410566275744339992
15309172 13 18412544284451035929
15849732 13 17846780694207637172
16752209 62 18124605179869863099
17980427 23 15697997427663809775
1813 80 17537997357272128167
20028762 73 17972873666881538223
20197701 30 18410016511329038898
20567600 347 18410008857697492911
20600515 1 18261662671917203388
20645476 183 17846218791814577690
20681677 155 18269557148735786856
20691752 17 17487036019700087441
20721686 146 16415210017164557311
20905425 154 18047468117142114772
21033648 29 18268169611679316304
21033650 10 17170918610249237256
21054139 6 18189348892107243543
21421861 104 18122617529435165865
21524375 3 18410012109061374599
22956985 138 17987237926598221235
23402539 116 18187087230405308404
23419403 2 17688820502221565843
23559900 14 16772101669357037239
23728640 28 18338798888994518778
266924 87 18267028447189301668
283562 15 18335700589175284456
3084891 72 18410008823601349104
3383291 50 18337390569535282034
3759504 43 18201156546887033686
38695281 34 18187929525137020447
404807 14 14640729225568245142
4340502 62 18338222826822142219
43471831 8 18339360884895163256
465052 167 17488446500145455745
474 4 18409443687583349237
6138700 20 18337668741449435950
633830 44 18040713645604268905
7364860 26 18190744326390954019
81228 2 17618795656238264147
81539 233 18343303699354052807
9953998 17 18267322954526136448

> <PUBCHEM_SHAPE_MULTIPOLES>
460.56
8.77
3.43
1.41
0.77
3.68
0
-5.55
0
1
0
-0.19
0.24
0

> <PUBCHEM_SHAPE_SELFOVERLAP>
988.379

> <PUBCHEM_SHAPE_VOLUME>
255.6

> <PUBCHEM_COORDINATE_TYPE>
2
5
10

$$$$

