5280709
  -OEChem-07051212493D

 22 21  0     0  0  0  0  0  0999 V2000
    2.6742    2.7953   -0.1703 O   0  0  0  0  0  0  0  0  0  0  0  0
    2.4195   -2.9901    0.1456 O   0  0  0  0  0  0  0  0  0  0  0  0
    2.3428    1.2378    1.4475 O   0  0  0  0  0  0  0  0  0  0  0  0
   -2.5173   -1.5909    0.4923 O   0  0  0  0  0  0  0  0  0  0  0  0
   -4.4684    0.1063    0.2454 O   0  0  0  0  0  0  0  0  0  0  0  0
   -3.0033    1.7019   -0.4691 O   0  0  0  0  0  0  0  0  0  0  0  0
    2.0487    0.6226   -0.8992 C   0  0  0  0  0  0  0  0  0  0  0  0
    1.6126   -0.7490   -0.4231 C   0  0  0  0  0  0  0  0  0  0  0  0
    0.1994   -0.9826   -0.1233 C   0  0  0  0  0  0  0  0  0  0  0  0
    2.3677    1.5438    0.2633 C   0  0  0  0  0  0  0  0  0  0  0  0
    2.5614   -1.6954   -0.2719 C   0  0  0  0  0  0  0  0  0  0  0  0
   -0.7967   -0.0919   -0.2490 C   0  0  0  0  0  0  0  0  0  0  0  0
   -2.1870   -0.4846    0.0944 C   0  0  0  0  0  0  0  0  0  0  0  0
   -3.2538    0.5768   -0.0827 C   0  0  0  0  0  0  0  0  0  0  0  0
    2.9662    0.5356   -1.4965 H   0  0  0  0  0  0  0  0  0  0  0  0
    1.3016    1.0871   -1.5498 H   0  0  0  0  0  0  0  0  0  0  0  0
   -0.0556   -1.9781    0.2290 H   0  0  0  0  0  0  0  0  0  0  0  0
   -0.6341    0.9233   -0.5870 H   0  0  0  0  0  0  0  0  0  0  0  0
    3.6087   -1.5132   -0.4819 H   0  0  0  0  0  0  0  0  0  0  0  0
    2.8727    3.4014    0.5751 H   0  0  0  0  0  0  0  0  0  0  0  0
    1.4858   -3.1736    0.3303 H   0  0  0  0  0  0  0  0  0  0  0  0
   -5.1696    0.7839    0.1381 H   0  0  0  0  0  0  0  0  0  0  0  0
  1 10  1  0  0  0  0
  1 20  1  0  0  0  0
  2 11  1  0  0  0  0
  2 21  1  0  0  0  0
  3 10  2  0  0  0  0
  4 13  2  0  0  0  0
  5 14  1  0  0  0  0
  5 22  1  0  0  0  0
  6 14  2  0  0  0  0
  7  8  1  0  0  0  0
  7 10  1  0  0  0  0
  7 15  1  0  0  0  0
  7 16  1  0  0  0  0
  8  9  1  0  0  0  0
  8 11  2  0  0  0  0
  9 12  2  0  0  0  0
  9 17  1  0  0  0  0
 11 19  1  0  0  0  0
 12 13  1  0  0  0  0
 12 18  1  0  0  0  0
 13 14  1  0  0  0  0
M  END
> <PUBCHEM_COMPOUND_CID>
5280709

> <PUBCHEM_CONFORMER_RMSD>
0.6

> <PUBCHEM_CONFORMER_DIVERSEORDER>
1
49
55
52
59
73
43
11
51
18
29
38
6
60
68
8
66
72
25
13
74
16
24
36
75
15
65
44
61
76
70
48
5
63
34
27
54
58
17
69
21
71
42
9
2
35
33
45
28
62
20
39
22
12
23
64
46
31
56
19
4
37
32
14
26
3
7
67
50
53
41
40
30
47
57
10

> <PUBCHEM_MMFF94_PARTIAL_CHARGES>
20
1 -0.65
10 0.66
11 -0.07
12 -0.14
13 0.56
14 0.72
17 0.15
18 0.15
19 0.15
2 -0.53
20 0.5
21 0.45
22 0.5
3 -0.57
4 -0.57
5 -0.65
6 -0.57
7 0.2
8 -0.14
9 -0.15

> <PUBCHEM_EFFECTIVE_ROTOR_COUNT>
5

> <PUBCHEM_PHARMACOPHORE_FEATURES>
8
1 1 acceptor
1 2 donor
1 3 acceptor
1 4 acceptor
1 5 acceptor
1 6 acceptor
3 1 3 10 anion
3 5 6 14 anion

> <PUBCHEM_HEAVY_ATOM_COUNT>
14

> <PUBCHEM_ATOM_DEF_STEREO_COUNT>
0

> <PUBCHEM_ATOM_UDEF_STEREO_COUNT>
0

> <PUBCHEM_BOND_DEF_STEREO_COUNT>
2

> <PUBCHEM_BOND_UDEF_STEREO_COUNT>
0

> <PUBCHEM_ISOTOPIC_ATOM_COUNT>
0

> <PUBCHEM_COMPONENT_COUNT>
1

> <PUBCHEM_CACTVS_TAUTO_COUNT>
4

> <PUBCHEM_CONFORMER_ID>
005093C500000001

> <PUBCHEM_MMFF94_ENERGY>
22.2267

> <PUBCHEM_FEATURE_SELFOVERLAP>
40.721

> <PUBCHEM_SHAPE_FINGERPRINT>
10608611 8 18412825798235316213
12932764 1 18334283250167479775
13922767 16 18337114582618569750
14648413 74 18411980286398928890
15442244 35 18193553595573757281
17041 49 18192145129736881874
17041 50 18262788709141063534
18186145 218 18261949743303976101
18410436 195 18117560854247976630
20559304 39 18262514909233883150
20645477 70 18259699008484327911
20671657 1 18408880737519106356
20671657 53 18117550958316428598
21524375 3 17899134915057841332
21947302 44 18408885130996258896
22096605 113 18334580101168996109
2255824 54 18409727378679055142
22854114 111 18335419053994307845
230 275 18187366489342125640
23419403 2 17103165767341751936
23559900 14 18411703205363692015
305870 269 18337116657451588650
3248919 1 17775003436510711199
449060 62 18261667087005816461
7364860 26 18408884061913665486
74978 22 18337668715115064543
8050 44 18410018702047514837

> <PUBCHEM_SHAPE_MULTIPOLES>
252.9
6.55
2.58
0.83
6.26
0.08
0.11
-1.18
0.34
-2.81
0.15
-0.38
-0.19
0.49

> <PUBCHEM_SHAPE_SELFOVERLAP>
501.909

> <PUBCHEM_SHAPE_VOLUME>
147.6

> <PUBCHEM_COORDINATE_TYPE>
2
5
10

$$$$

