656884
  -OEChem-07051213043D

 27 27  0     1  0  0  0  0  0999 V2000
    0.6418    2.4064    0.2057 O   0  0  0  0  0  0  0  0  0  0  0  0
   -1.0226    1.7291   -1.1967 O   0  0  0  0  0  0  0  0  0  0  0  0
    3.3676    0.0705   -0.5699 O   0  0  0  0  0  0  0  0  0  0  0  0
    2.4858   -0.8746    1.3035 O   0  0  0  0  0  0  0  0  0  0  0  0
   -0.0691   -0.9759   -0.0553 C   0  0  1  0  0  0  0  0  0  0  0  0
   -0.3807    0.3411    0.6808 C   0  0  2  0  0  0  0  0  0  0  0  0
   -1.2068   -1.4069   -0.9925 C   0  0  0  0  0  0  0  0  0  0  0  0
   -1.7513    0.2991    1.3658 C   0  0  0  0  0  0  0  0  0  0  0  0
   -2.5456   -1.4647   -0.2623 C   0  0  0  0  0  0  0  0  0  0  0  0
   -2.8724   -0.1449    0.4268 C   0  0  0  0  0  0  0  0  0  0  0  0
    1.2637   -0.9266   -0.8051 C   0  0  0  0  0  0  0  0  0  0  0  0
   -0.3155    1.5451   -0.2171 C   0  0  0  0  0  0  0  0  0  0  0  0
    2.4051   -0.5977    0.1162 C   0  0  0  0  0  0  0  0  0  0  0  0
    0.0151   -1.7554    0.7167 H   0  0  0  0  0  0  0  0  0  0  0  0
    0.3537    0.4870    1.4830 H   0  0  0  0  0  0  0  0  0  0  0  0
   -0.9867   -2.3988   -1.4062 H   0  0  0  0  0  0  0  0  0  0  0  0
   -1.2834   -0.7275   -1.8491 H   0  0  0  0  0  0  0  0  0  0  0  0
   -2.0017    1.2814    1.7848 H   0  0  0  0  0  0  0  0  0  0  0  0
   -1.7035   -0.4003    2.2105 H   0  0  0  0  0  0  0  0  0  0  0  0
   -2.5187   -2.2683    0.4840 H   0  0  0  0  0  0  0  0  0  0  0  0
   -3.3417   -1.7172   -0.9718 H   0  0  0  0  0  0  0  0  0  0  0  0
   -3.0760    0.6258   -0.3241 H   0  0  0  0  0  0  0  0  0  0  0  0
   -3.7980   -0.2596    1.0033 H   0  0  0  0  0  0  0  0  0  0  0  0
    1.4816   -1.8986   -1.2625 H   0  0  0  0  0  0  0  0  0  0  0  0
    1.2185   -0.1857   -1.6117 H   0  0  0  0  0  0  0  0  0  0  0  0
    0.7015    3.1987   -0.3696 H   0  0  0  0  0  0  0  0  0  0  0  0
    4.1300    0.3025    0.0022 H   0  0  0  0  0  0  0  0  0  0  0  0
  1 12  1  0  0  0  0
  1 26  1  0  0  0  0
  2 12  2  0  0  0  0
  3 13  1  0  0  0  0
  3 27  1  0  0  0  0
  4 13  2  0  0  0  0
  5  6  1  0  0  0  0
  5  7  1  0  0  0  0
  5 11  1  0  0  0  0
  5 14  1  0  0  0  0
  6  8  1  0  0  0  0
  6 12  1  0  0  0  0
  6 15  1  0  0  0  0
  7  9  1  0  0  0  0
  7 16  1  0  0  0  0
  7 17  1  0  0  0  0
  8 10  1  0  0  0  0
  8 18  1  0  0  0  0
  8 19  1  0  0  0  0
  9 10  1  0  0  0  0
  9 20  1  0  0  0  0
  9 21  1  0  0  0  0
 10 22  1  0  0  0  0
 10 23  1  0  0  0  0
 11 13  1  0  0  0  0
 11 24  1  0  0  0  0
 11 25  1  0  0  0  0
M  END
> <PUBCHEM_COMPOUND_CID>
656884

> <PUBCHEM_CONFORMER_RMSD>
0.6

> <PUBCHEM_CONFORMER_DIVERSEORDER>
1
11
10
14
15
8
12
3
13
6
4
5
7
2
9

> <PUBCHEM_MMFF94_PARTIAL_CHARGES>
10
1 -0.65
11 0.06
12 0.66
13 0.66
2 -0.57
26 0.5
27 0.5
3 -0.65
4 -0.57
6 0.06

> <PUBCHEM_EFFECTIVE_ROTOR_COUNT>
4.2

> <PUBCHEM_PHARMACOPHORE_FEATURES>
7
1 1 acceptor
1 2 acceptor
1 3 acceptor
1 4 acceptor
3 1 2 12 anion
3 3 4 13 anion
6 5 6 7 8 9 10 rings

> <PUBCHEM_HEAVY_ATOM_COUNT>
13

> <PUBCHEM_ATOM_DEF_STEREO_COUNT>
2

> <PUBCHEM_ATOM_UDEF_STEREO_COUNT>
0

> <PUBCHEM_BOND_DEF_STEREO_COUNT>
0

> <PUBCHEM_BOND_UDEF_STEREO_COUNT>
0

> <PUBCHEM_ISOTOPIC_ATOM_COUNT>
0

> <PUBCHEM_COMPONENT_COUNT>
1

> <PUBCHEM_CACTVS_TAUTO_COUNT>
1

> <PUBCHEM_CONFORMER_ID>
000A05F400000001

> <PUBCHEM_MMFF94_ENERGY>
15.694

> <PUBCHEM_FEATURE_SELFOVERLAP>
35.633

> <PUBCHEM_SHAPE_FINGERPRINT>
10857977 72 18260550030236163451
11132069 177 18333731308288837658
12138202 97 17984151627633678445
12423570 1 5174211363176959161
13024252 1 16917061209094912275
13839132 238 16155651657517763291
14128692 85 18115867391276267279
14993402 34 18334851706205489095
161256 15 18269001894514615773
16945 1 18187078451650092427
20653085 51 13326568605207732487
20653091 64 18123186797153714355
21922407 69 15765785699227810478
23419403 2 16308590237290784195
23552423 10 17977386032093242423
2748010 2 17901369414701164223
369184 2 17775282806657950226
5084963 1 18117270565718936154
528862 383 17978231556477005875
54338 74 18411141316082609043

> <PUBCHEM_SHAPE_MULTIPOLES>
244.06
3.98
1.91
1.15
1.64
0.9
0.13
-1.24
0.47
-0.27
-0.46
-0.05
0.05
-0.26

> <PUBCHEM_SHAPE_SELFOVERLAP>
490.778

> <PUBCHEM_SHAPE_VOLUME>
140.7

> <PUBCHEM_COORDINATE_TYPE>
2
5
10

$$$$

