442391
  -OEChem-07051212583D

 41 43  0     1  0  0  0  0  0999 V2000
   -0.0136    0.2563   -1.7547 O   0  0  0  0  0  0  0  0  0  0  0  0
    1.4359    0.0668   -1.8167 O   0  0  0  0  0  0  0  0  0  0  0  0
   -0.2488   -2.4105   -0.8000 O   0  0  0  0  0  0  0  0  0  0  0  0
    4.6333    0.0967    0.5487 O   0  0  0  0  0  0  0  0  0  0  0  0
   -0.1518    1.2671    0.3935 C   0  0  2  0  0  0  0  0  0  0  0  0
   -0.5165   -0.0089   -0.4159 C   0  0  1  0  0  0  0  0  0  0  0  0
   -2.0782    0.0543   -0.5869 C   0  0  2  0  0  0  0  0  0  0  0  0
   -1.2001    2.2845   -0.1080 C   0  0  0  0  0  0  0  0  0  0  0  0
   -2.4905    1.4874   -0.1931 C   0  0  0  0  0  0  0  0  0  0  0  0
    1.2699    1.7418    0.0137 C   0  0  0  0  0  0  0  0  0  0  0  0
    0.0098   -1.3664    0.1380 C   0  0  2  0  0  0  0  0  0  0  0  0
   -2.9208   -0.9525    0.1953 C   0  0  0  0  0  0  0  0  0  0  0  0
    2.0781    0.6294   -0.6621 C   0  0  1  0  0  0  0  0  0  0  0  0
   -0.2813    1.1100    1.9200 C   0  0  0  0  0  0  0  0  0  0  0  0
    1.4584   -1.4526    0.5507 C   0  0  0  0  0  0  0  0  0  0  0  0
    2.3743   -0.5225    0.2470 C   0  0  0  0  0  0  0  0  0  0  0  0
   -2.6863   -0.7961    1.6956 C   0  0  0  0  0  0  0  0  0  0  0  0
   -4.4012   -0.7857   -0.1382 C   0  0  0  0  0  0  0  0  0  0  0  0
    3.7293   -0.6991    0.7731 C   0  0  0  0  0  0  0  0  0  0  0  0
   -2.3116   -0.0805   -1.6532 H   0  0  0  0  0  0  0  0  0  0  0  0
   -0.9505    2.6631   -1.1073 H   0  0  0  0  0  0  0  0  0  0  0  0
   -1.2978    3.1527    0.5528 H   0  0  0  0  0  0  0  0  0  0  0  0
   -3.0295    1.5791    0.7509 H   0  0  0  0  0  0  0  0  0  0  0  0
   -3.1505    1.9193   -0.9551 H   0  0  0  0  0  0  0  0  0  0  0  0
    1.8155    2.1296    0.8824 H   0  0  0  0  0  0  0  0  0  0  0  0
    1.2066    2.5763   -0.6968 H   0  0  0  0  0  0  0  0  0  0  0  0
   -0.5051   -1.6809    1.0329 H   0  0  0  0  0  0  0  0  0  0  0  0
   -2.6432   -1.9703   -0.0998 H   0  0  0  0  0  0  0  0  0  0  0  0
    3.0100    1.0657   -1.0374 H   0  0  0  0  0  0  0  0  0  0  0  0
    0.2227    1.9524    2.4134 H   0  0  0  0  0  0  0  0  0  0  0  0
   -1.3041    1.1854    2.2846 H   0  0  0  0  0  0  0  0  0  0  0  0
    0.1976    0.2126    2.3149 H   0  0  0  0  0  0  0  0  0  0  0  0
    1.7279   -2.3056    1.1702 H   0  0  0  0  0  0  0  0  0  0  0  0
   -3.2271   -1.6193    2.1862 H   0  0  0  0  0  0  0  0  0  0  0  0
   -3.1598    0.0982    2.1107 H   0  0  0  0  0  0  0  0  0  0  0  0
   -1.6917   -0.8824    2.1012 H   0  0  0  0  0  0  0  0  0  0  0  0
   -4.9890   -1.5745    0.3446 H   0  0  0  0  0  0  0  0  0  0  0  0
   -4.8080    0.1722    0.2003 H   0  0  0  0  0  0  0  0  0  0  0  0
   -4.5711   -0.8653   -1.2173 H   0  0  0  0  0  0  0  0  0  0  0  0
    0.0557   -3.2497   -0.4138 H   0  0  0  0  0  0  0  0  0  0  0  0
    3.9006   -1.5921    1.3974 H   0  0  0  0  0  0  0  0  0  0  0  0
  1  2  1  0  0  0  0
  1  6  1  0  0  0  0
  2 13  1  0  0  0  0
  3 11  1  0  0  0  0
  3 40  1  0  0  0  0
  4 19  2  0  0  0  0
  5  6  1  0  0  0  0
  5  8  1  0  0  0  0
  5 10  1  0  0  0  0
  5 14  1  0  0  0  0
  6  7  1  0  0  0  0
  6 11  1  0  0  0  0
  7  9  1  0  0  0  0
  7 12  1  0  0  0  0
  7 20  1  0  0  0  0
  8  9  1  0  0  0  0
  8 21  1  0  0  0  0
  8 22  1  0  0  0  0
  9 23  1  0  0  0  0
  9 24  1  0  0  0  0
 10 13  1  0  0  0  0
 10 25  1  0  0  0  0
 10 26  1  0  0  0  0
 11 15  1  0  0  0  0
 11 27  1  0  0  0  0
 12 17  1  0  0  0  0
 12 18  1  0  0  0  0
 12 28  1  0  0  0  0
 13 16  1  0  0  0  0
 13 29  1  0  0  0  0
 14 30  1  0  0  0  0
 14 31  1  0  0  0  0
 14 32  1  0  0  0  0
 15 16  2  0  0  0  0
 15 33  1  0  0  0  0
 16 19  1  0  0  0  0
 17 34  1  0  0  0  0
 17 35  1  0  0  0  0
 17 36  1  0  0  0  0
 18 37  1  0  0  0  0
 18 38  1  0  0  0  0
 18 39  1  0  0  0  0
 19 41  1  0  0  0  0
M  END
> <PUBCHEM_COMPOUND_CID>
442391

> <PUBCHEM_CONFORMER_RMSD>
0.6

> <PUBCHEM_CONFORMER_DIVERSEORDER>
1

> <PUBCHEM_MMFF94_PARTIAL_CHARGES>
13
1 -0.28
11 0.42
13 0.42
15 -0.29
16 -0.12
19 0.5
2 -0.28
3 -0.68
33 0.15
4 -0.57
40 0.4
41 0.06
6 0.28

> <PUBCHEM_EFFECTIVE_ROTOR_COUNT>
3.4

> <PUBCHEM_PHARMACOPHORE_FEATURES>
6
1 3 acceptor
1 3 donor
1 4 acceptor
3 12 17 18 hydrophobe
5 5 6 7 8 9 rings
9 1 2 5 6 10 11 13 15 16 rings

> <PUBCHEM_HEAVY_ATOM_COUNT>
19

> <PUBCHEM_ATOM_DEF_STEREO_COUNT>
5

> <PUBCHEM_ATOM_UDEF_STEREO_COUNT>
0

> <PUBCHEM_BOND_DEF_STEREO_COUNT>
0

> <PUBCHEM_BOND_UDEF_STEREO_COUNT>
0

> <PUBCHEM_ISOTOPIC_ATOM_COUNT>
0

> <PUBCHEM_COMPONENT_COUNT>
1

> <PUBCHEM_CACTVS_TAUTO_COUNT>
1

> <PUBCHEM_CONFORMER_ID>
0006C01700000001

> <PUBCHEM_MMFF94_ENERGY>
88.4505

> <PUBCHEM_FEATURE_SELFOVERLAP>
30.481

> <PUBCHEM_SHAPE_FINGERPRINT>
108231 29 18259708882466149408
10863032 1 18194691590240361400
10948715 1 18050294957168514112
11132069 177 18113613474017396271
11680986 33 17903914801072728375
11769659 78 18060423507911933723
12011746 2 18410018736211808063
12382932 28 18267306627967625144
12423570 1 16603263012746629316
13024252 1 13470403430708493548
13132413 78 18335709363777021968
13140716 1 18193557761713471490
13172582 1 17894912888874950631
13581323 91 18408608054451142326
13705890 14 16558461990023376371
14115302 16 17774997964811962295
14223421 5 18191871334536294722
14787075 74 18189063010008484834
14943859 89 8718824305842835686
15375462 478 18273497870585539838
16945 1 18410848841594251239
19010151 120 18261108548062702281
200 152 18202287995838829803
20510252 161 18187367666089182088
21501502 16 18343296007283935889
22112679 90 17533230673427124205
231179 274 5545203804590900067
23402539 116 18114192916455213607
23419403 2 17914081761571974660
23557571 272 17894627080091595907
23559900 14 18192720166451148994
2748010 2 18119804957052934926
296302 2 17775566463646663796
3286 77 18130793338980204124
568465 68 18188478099908612155

> <PUBCHEM_SHAPE_MULTIPOLES>
367.53
5.73
1.99
1.38
1.18
0.24
0.13
-1.59
0.96
-0.48
0.02
-0.07
0.04
-0.04

> <PUBCHEM_SHAPE_SELFOVERLAP>
784.614

> <PUBCHEM_SHAPE_VOLUME>
202

> <PUBCHEM_COORDINATE_TYPE>
2
5
10

$$$$

