6117
  -OEChem-06261201073D

  9  8  0     0  0  0  0  0  0999 V2000
   -1.6282   -0.2452   -0.0001 S   0  0  0  0  0  0  0  0  0  0  0  0
    0.5465    1.2820   -0.0002 N   0  0  0  0  0  0  0  0  0  0  0  0
    0.9938   -1.1135   -0.0001 C   0  0  0  0  0  0  0  0  0  0  0  0
    0.0879    0.0767    0.0004 C   0  0  0  0  0  0  0  0  0  0  0  0
    0.7970   -1.7308    0.8815 H   0  0  0  0  0  0  0  0  0  0  0  0
    0.8192   -1.7113   -0.8998 H   0  0  0  0  0  0  0  0  0  0  0  0
    2.0439   -0.8090    0.0166 H   0  0  0  0  0  0  0  0  0  0  0  0
   -2.0341    1.0328   -0.0004 H   0  0  0  0  0  0  0  0  0  0  0  0
    1.5715    1.2830   -0.0006 H   0  0  0  0  0  0  0  0  0  0  0  0
  1  4  1  0  0  0  0
  1  8  1  0  0  0  0
  2  4  2  0  0  0  0
  2  9  1  0  0  0  0
  3  4  1  0  0  0  0
  3  5  1  0  0  0  0
  3  6  1  0  0  0  0
  3  7  1  0  0  0  0
M  END
> <PUBCHEM_COMPOUND_CID>
6117

> <PUBCHEM_CONFORMER_RMSD>
0.4

> <PUBCHEM_CONFORMER_DIVERSEORDER>
1

> <PUBCHEM_MMFF94_PARTIAL_CHARGES>
6
1 -0.32
2 -0.85
3 0.06
4 0.53
8 0.18
9 0.4

> <PUBCHEM_EFFECTIVE_ROTOR_COUNT>
0

> <PUBCHEM_PHARMACOPHORE_FEATURES>
3
1 2 acceptor
1 2 donor
3 1 2 4 anion

> <PUBCHEM_HEAVY_ATOM_COUNT>
4

> <PUBCHEM_ATOM_DEF_STEREO_COUNT>
0

> <PUBCHEM_ATOM_UDEF_STEREO_COUNT>
0

> <PUBCHEM_BOND_DEF_STEREO_COUNT>
0

> <PUBCHEM_BOND_UDEF_STEREO_COUNT>
0

> <PUBCHEM_ISOTOPIC_ATOM_COUNT>
0

> <PUBCHEM_COMPONENT_COUNT>
1

> <PUBCHEM_CACTVS_TAUTO_COUNT>
2

> <PUBCHEM_CONFORMER_ID>
000017E500000001

> <PUBCHEM_MMFF94_ENERGY>
5.0811

> <PUBCHEM_FEATURE_SELFOVERLAP>
15.223

> <PUBCHEM_SHAPE_FINGERPRINT>
139733 1 9222644710008174883
20096714 4 18120089481530219953
21015797 1 9511463299026358600
5943 1 14065642724732839422

> <PUBCHEM_SHAPE_MULTIPOLES>
81.19
1.72
1.26
0.62
0.71
0.23
0
-0.46
0
-0.4
0
0.04
-0.03
0

> <PUBCHEM_SHAPE_SELFOVERLAP>
129.642

> <PUBCHEM_SHAPE_VOLUME>
58.7

> <PUBCHEM_COORDINATE_TYPE>
2
5
10

$$$$

