9608
  -OEChem-06261203513D

 18 17  0     0  0  0  0  0  0999 V2000
   -2.2764   -0.8611   -1.0883 F   0  0  0  0  0  0  0  0  0  0  0  0
   -3.3814    0.6816   -0.0126 F   0  0  0  0  0  0  0  0  0  0  0  0
   -2.2953   -0.8592    1.0926 F   0  0  0  0  0  0  0  0  0  0  0  0
    0.1369   -0.0323    0.0018 O   0  0  0  0  0  0  0  0  0  0  0  0
    1.4879    1.8313    0.0026 O   0  0  0  0  0  0  0  0  0  0  0  0
   -1.0250    0.8039    0.0027 C   0  0  0  0  0  0  0  0  0  0  0  0
   -2.2565   -0.0642    0.0025 C   0  0  0  0  0  0  0  0  0  0  0  0
    2.4414   -0.3758   -0.0004 C   0  0  0  0  0  0  0  0  0  0  0  0
    1.3321    0.6184    0.0019 C   0  0  0  0  0  0  0  0  0  0  0  0
    2.1414   -1.8434   -0.0012 C   0  0  0  0  0  0  0  0  0  0  0  0
    3.6949    0.1008   -0.0017 C   0  0  0  0  0  0  0  0  0  0  0  0
   -1.0185    1.4379   -0.8906 H   0  0  0  0  0  0  0  0  0  0  0  0
   -1.0183    1.4371    0.8967 H   0  0  0  0  0  0  0  0  0  0  0  0
    1.5668   -2.1191    0.8891 H   0  0  0  0  0  0  0  0  0  0  0  0
    1.5648   -2.1177   -0.8907 H   0  0  0  0  0  0  0  0  0  0  0  0
    3.0550   -2.4476   -0.0027 H   0  0  0  0  0  0  0  0  0  0  0  0
    4.5462   -0.5729   -0.0035 H   0  0  0  0  0  0  0  0  0  0  0  0
    3.9180    1.1625   -0.0012 H   0  0  0  0  0  0  0  0  0  0  0  0
  1  7  1  0  0  0  0
  2  7  1  0  0  0  0
  3  7  1  0  0  0  0
  4  6  1  0  0  0  0
  4  9  1  0  0  0  0
  5  9  2  0  0  0  0
  6  7  1  0  0  0  0
  6 12  1  0  0  0  0
  6 13  1  0  0  0  0
  8  9  1  0  0  0  0
  8 10  1  0  0  0  0
  8 11  2  0  0  0  0
 10 14  1  0  0  0  0
 10 15  1  0  0  0  0
 10 16  1  0  0  0  0
 11 17  1  0  0  0  0
 11 18  1  0  0  0  0
M  END
> <PUBCHEM_COMPOUND_CID>
9608

> <PUBCHEM_CONFORMER_RMSD>
0.6

> <PUBCHEM_CONFORMER_DIVERSEORDER>
1
17
18
19
14
12
11
13
6
9
10
5
3
4
2
15
8
16
7

> <PUBCHEM_MMFF94_PARTIAL_CHARGES>
13
1 -0.34
10 0.14
11 -0.3
17 0.15
18 0.15
2 -0.34
3 -0.34
4 -0.43
5 -0.57
6 0.28
7 1.02
8 -0.12
9 0.71

> <PUBCHEM_EFFECTIVE_ROTOR_COUNT>
4

> <PUBCHEM_PHARMACOPHORE_FEATURES>
1
1 5 acceptor

> <PUBCHEM_HEAVY_ATOM_COUNT>
11

> <PUBCHEM_ATOM_DEF_STEREO_COUNT>
0

> <PUBCHEM_ATOM_UDEF_STEREO_COUNT>
0

> <PUBCHEM_BOND_DEF_STEREO_COUNT>
0

> <PUBCHEM_BOND_UDEF_STEREO_COUNT>
0

> <PUBCHEM_ISOTOPIC_ATOM_COUNT>
0

> <PUBCHEM_COMPONENT_COUNT>
1

> <PUBCHEM_CACTVS_TAUTO_COUNT>
1

> <PUBCHEM_CONFORMER_ID>
0000258800000001

> <PUBCHEM_MMFF94_ENERGY>
13.7388

> <PUBCHEM_FEATURE_SELFOVERLAP>
5.074

> <PUBCHEM_SHAPE_FINGERPRINT>
10219947 1 18187363242525938100
11062470 55 18334577962016923784
12932764 1 18040999535516819816
14144814 61 18334293209974820201
14325111 11 18410856538365523584
15775835 57 18113057138113124838
20201158 50 18343020008089795490
20279233 1 18273494584909022330
20645477 70 18264494051433313294
20871998 22 17972878339779140710
23552423 10 18337676312806443429
29004967 10 18411698811759601064
3248919 1 18131635573239527772

> <PUBCHEM_SHAPE_MULTIPOLES>
192.81
5.62
1.44
0.73
0.68
0.1
0
0.52
0
-0.67
0
0.33
0.16
0

> <PUBCHEM_SHAPE_SELFOVERLAP>
375.499

> <PUBCHEM_SHAPE_VOLUME>
117.7

> <PUBCHEM_COORDINATE_TYPE>
2
5
10

$$$$

