439780
  -OEChem-07051212473D

 29 29  0     1  0  0  0  0  0999 V2000
    0.1609    0.9627    0.2587 O   0  0  0  0  0  0  0  0  0  0  0  0
    0.6595   -2.5886   -0.4854 O   0  0  0  0  0  0  0  0  0  0  0  0
    3.2614   -1.7252    0.4312 O   0  0  0  0  0  0  0  0  0  0  0  0
    3.7600    1.0681   -0.3623 O   0  0  0  0  0  0  0  0  0  0  0  0
    1.6270    2.7737    0.3793 O   0  0  0  0  0  0  0  0  0  0  0  0
   -2.4456    0.2792   -0.2846 O   0  0  0  0  0  0  0  0  0  0  0  0
   -4.1999   -0.8734    0.6806 O   0  0  0  0  0  0  0  0  0  0  0  0
    0.9166   -1.3378    0.1475 C   0  0  1  0  0  0  0  0  0  0  0  0
    2.3238   -0.8657   -0.2190 C   0  0  1  0  0  0  0  0  0  0  0  0
   -0.1325   -0.3182   -0.3021 C   0  0  1  0  0  0  0  0  0  0  0  0
    2.5583    0.5764    0.2307 C   0  0  2  0  0  0  0  0  0  0  0  0
    1.4065    1.4863   -0.1962 C   0  0  1  0  0  0  0  0  0  0  0  0
   -1.5338   -0.7105    0.1557 C   0  0  0  0  0  0  0  0  0  0  0  0
   -3.7593    0.0762    0.0469 C   0  0  0  0  0  0  0  0  0  0  0  0
   -4.6030    1.1967   -0.4810 C   0  0  0  0  0  0  0  0  0  0  0  0
    0.8576   -1.5003    1.2307 H   0  0  0  0  0  0  0  0  0  0  0  0
    2.5050   -0.9682   -1.2960 H   0  0  0  0  0  0  0  0  0  0  0  0
   -0.1471   -0.2240   -1.3966 H   0  0  0  0  0  0  0  0  0  0  0  0
    2.7048    0.6075    1.3170 H   0  0  0  0  0  0  0  0  0  0  0  0
    1.3743    1.6263   -1.2828 H   0  0  0  0  0  0  0  0  0  0  0  0
   -1.5702   -0.7583    1.2509 H   0  0  0  0  0  0  0  0  0  0  0  0
   -1.8179   -1.6835   -0.2607 H   0  0  0  0  0  0  0  0  0  0  0  0
    0.7026   -2.4530   -1.4474 H   0  0  0  0  0  0  0  0  0  0  0  0
    3.0775   -2.6333    0.1354 H   0  0  0  0  0  0  0  0  0  0  0  0
    3.6517    1.0422   -1.3283 H   0  0  0  0  0  0  0  0  0  0  0  0
    1.9915    2.6550    1.2721 H   0  0  0  0  0  0  0  0  0  0  0  0
   -4.5274    1.2352   -1.5706 H   0  0  0  0  0  0  0  0  0  0  0  0
   -4.2806    2.1426   -0.0388 H   0  0  0  0  0  0  0  0  0  0  0  0
   -5.6483    1.0230   -0.2099 H   0  0  0  0  0  0  0  0  0  0  0  0
  1 10  1  0  0  0  0
  1 12  1  0  0  0  0
  2  8  1  0  0  0  0
  2 23  1  0  0  0  0
  3  9  1  0  0  0  0
  3 24  1  0  0  0  0
  4 11  1  0  0  0  0
  4 25  1  0  0  0  0
  5 12  1  0  0  0  0
  5 26  1  0  0  0  0
  6 13  1  0  0  0  0
  6 14  1  0  0  0  0
  7 14  2  0  0  0  0
  8  9  1  0  0  0  0
  8 10  1  0  0  0  0
  8 16  1  0  0  0  0
  9 11  1  0  0  0  0
  9 17  1  0  0  0  0
 10 13  1  0  0  0  0
 10 18  1  0  0  0  0
 11 12  1  0  0  0  0
 11 19  1  0  0  0  0
 12 20  1  0  0  0  0
 13 21  1  0  0  0  0
 13 22  1  0  0  0  0
 14 15  1  0  0  0  0
 15 27  1  0  0  0  0
 15 28  1  0  0  0  0
 15 29  1  0  0  0  0
M  END
> <PUBCHEM_COMPOUND_CID>
439780

> <PUBCHEM_CONFORMER_RMSD>
0.6

> <PUBCHEM_CONFORMER_DIVERSEORDER>
1
57
34
53
7
38
22
43
16
44
52
49
9
45
19
15
56
32
39
60
4
14
46
33
21
8
54
12
31
5
26
48
58
17
35
27
3
51
6
23
55
10
37
18
41
42
20
25
59
47
30
29
2
28
24
13
36
11
40
50

> <PUBCHEM_MMFF94_PARTIAL_CHARGES>
19
1 -0.56
10 0.28
11 0.28
12 0.56
13 0.28
14 0.66
15 0.06
2 -0.68
23 0.4
24 0.4
25 0.4
26 0.4
3 -0.68
4 -0.68
5 -0.68
6 -0.43
7 -0.57
8 0.28
9 0.28

> <PUBCHEM_EFFECTIVE_ROTOR_COUNT>
4.2

> <PUBCHEM_PHARMACOPHORE_FEATURES>
11
1 1 acceptor
1 2 acceptor
1 2 donor
1 3 acceptor
1 3 donor
1 4 acceptor
1 4 donor
1 5 acceptor
1 5 donor
1 7 acceptor
6 1 8 9 10 11 12 rings

> <PUBCHEM_HEAVY_ATOM_COUNT>
15

> <PUBCHEM_ATOM_DEF_STEREO_COUNT>
5

> <PUBCHEM_ATOM_UDEF_STEREO_COUNT>
0

> <PUBCHEM_BOND_DEF_STEREO_COUNT>
0

> <PUBCHEM_BOND_UDEF_STEREO_COUNT>
0

> <PUBCHEM_ISOTOPIC_ATOM_COUNT>
0

> <PUBCHEM_COMPONENT_COUNT>
1

> <PUBCHEM_CACTVS_TAUTO_COUNT>
1

> <PUBCHEM_CONFORMER_ID>
0006B5E400000001

> <PUBCHEM_MMFF94_ENERGY>
31.1632

> <PUBCHEM_FEATURE_SELFOVERLAP>
55.876

> <PUBCHEM_SHAPE_FINGERPRINT>
10219947 1 18408322211107803535
10608611 8 18341896281874202421
10980938 120 18409729564526985439
11471102 20 18410298038061498645
12346645 6 18408886243540527262
12654215 9 18340773740061988764
13380536 305 18336542725124360244
13922767 16 18410016550099639713
14251717 144 18408326609349500103
14325111 11 18412263913512697559
14415576 193 18412542137014620541
15219456 202 18343301470513744551
15442244 35 17975692011224288009
15501101 241 18273494593519887269
15775835 57 18337388244949353958
16945 1 18266188240454357780
18186145 218 18114174194930101337
20201158 50 18340205301515097795
20606313 2 18410013255796342214
20645477 70 18337394941257425983
20871998 22 18045780349788033366
21639500 275 18336560330158513429
21730867 7 18413670205858802909
23402655 69 18335143111473733269
25 1 18412265025455592190
2748010 2 18194114110333430318
293599 30 18338793399968337636
3060560 45 18186798093343799846
5104073 3 18413388748352093217
53812653 166 18336829676326921592

> <PUBCHEM_SHAPE_MULTIPOLES>
267.61
7.43
2.23
0.68
7.99
0.23
0
1.16
-0.02
-1.63
-0.02
0.1
-0.02
0.31

> <PUBCHEM_SHAPE_SELFOVERLAP>
534.212

> <PUBCHEM_SHAPE_VOLUME>
155.5

> <PUBCHEM_COORDINATE_TYPE>
2
5
10

$$$$

