157629
  -OEChem-07051212593D

 45 46  0     1  0  0  0  0  0999 V2000
   -2.2288   -1.2507   -0.9408 O   0  0  0  0  0  0  0  0  0  0  0  0
    0.0020    1.8128   -0.8214 O   0  0  0  0  0  0  0  0  0  0  0  0
    2.1109   -2.7444    1.4725 O   0  0  0  0  0  0  0  0  0  0  0  0
    2.4153    2.7353   -1.0097 O   0  0  0  0  0  0  0  0  0  0  0  0
    4.4698   -1.6708    1.2053 O   0  0  0  0  0  0  0  0  0  0  0  0
   -0.8831   -0.4145   -2.6220 O   0  0  0  0  0  0  0  0  0  0  0  0
   -1.7470   -0.2404   -0.0465 C   0  0  2  0  0  0  0  0  0  0  0  0
   -0.2547   -0.3349    0.1400 C   0  0  0  0  0  0  0  0  0  0  0  0
   -2.5294   -0.3784    1.2704 C   0  0  0  0  0  0  0  0  0  0  0  0
    0.5716    0.7074   -0.2592 C   0  0  0  0  0  0  0  0  0  0  0  0
    1.9543    0.5976   -0.0759 C   0  0  0  0  0  0  0  0  0  0  0  0
    2.4923   -0.5544    0.5042 C   0  0  0  0  0  0  0  0  0  0  0  0
    0.2691   -1.4830    0.7174 C   0  0  0  0  0  0  0  0  0  0  0  0
    1.6474   -1.5966    0.9016 C   0  0  0  0  0  0  0  0  0  0  0  0
   -4.0166   -0.4480    1.0594 C   0  0  0  0  0  0  0  0  0  0  0  0
    2.8351    1.7040   -0.4993 C   0  0  0  0  0  0  0  0  0  0  0  0
    3.9495   -0.6827    0.7020 C   0  0  0  0  0  0  0  0  0  0  0  0
   -4.9113    0.5563    1.1226 C   0  0  0  0  0  0  0  0  0  0  0  0
    4.2881    1.5424   -0.2869 C   0  0  0  0  0  0  0  0  0  0  0  0
    4.8015    0.4428    0.2665 C   0  0  0  0  0  0  0  0  0  0  0  0
   -1.7068   -1.2144   -2.1991 C   0  0  0  0  0  0  0  0  0  0  0  0
   -6.3906    0.4179    0.9002 C   0  0  0  0  0  0  0  0  0  0  0  0
   -4.4627    1.9550    1.4533 C   0  0  0  0  0  0  0  0  0  0  0  0
   -0.3779    2.8639    0.0628 C   0  0  0  0  0  0  0  0  0  0  0  0
   -2.2978   -2.3222   -3.0174 C   0  0  0  0  0  0  0  0  0  0  0  0
   -2.0454    0.7180   -0.4867 H   0  0  0  0  0  0  0  0  0  0  0  0
   -2.2443    0.4115    1.9735 H   0  0  0  0  0  0  0  0  0  0  0  0
   -2.2645   -1.3146    1.7788 H   0  0  0  0  0  0  0  0  0  0  0  0
   -0.3744   -2.3065    1.0154 H   0  0  0  0  0  0  0  0  0  0  0  0
   -4.3962   -1.4397    0.8154 H   0  0  0  0  0  0  0  0  0  0  0  0
    4.9333    2.3566   -0.5990 H   0  0  0  0  0  0  0  0  0  0  0  0
    5.8719    0.3462    0.4128 H   0  0  0  0  0  0  0  0  0  0  0  0
   -6.6692   -0.6180    0.6811 H   0  0  0  0  0  0  0  0  0  0  0  0
   -6.7097    1.0360    0.0549 H   0  0  0  0  0  0  0  0  0  0  0  0
   -6.9420    0.7313    1.7924 H   0  0  0  0  0  0  0  0  0  0  0  0
   -4.8611    2.6568    0.7118 H   0  0  0  0  0  0  0  0  0  0  0  0
   -3.3816    2.0974    1.4594 H   0  0  0  0  0  0  0  0  0  0  0  0
   -4.8458    2.2469    2.4369 H   0  0  0  0  0  0  0  0  0  0  0  0
    3.0760   -2.7210    1.5552 H   0  0  0  0  0  0  0  0  0  0  0  0
   -1.1465    2.5282    0.7636 H   0  0  0  0  0  0  0  0  0  0  0  0
   -0.7871    3.6824   -0.5356 H   0  0  0  0  0  0  0  0  0  0  0  0
    0.4816    3.2397    0.6261 H   0  0  0  0  0  0  0  0  0  0  0  0
   -3.3815   -2.1971   -3.0832 H   0  0  0  0  0  0  0  0  0  0  0  0
   -2.0476   -3.2873   -2.5697 H   0  0  0  0  0  0  0  0  0  0  0  0
   -1.8813   -2.2883   -4.0281 H   0  0  0  0  0  0  0  0  0  0  0  0
  1  7  1  0  0  0  0
  1 21  1  0  0  0  0
  2 10  1  0  0  0  0
  2 24  1  0  0  0  0
  3 14  1  0  0  0  0
  3 39  1  0  0  0  0
  4 16  2  0  0  0  0
  5 17  2  0  0  0  0
  6 21  2  0  0  0  0
  7  8  1  0  0  0  0
  7  9  1  0  0  0  0
  7 26  1  0  0  0  0
  8 10  1  0  0  0  0
  8 13  2  0  0  0  0
  9 15  1  0  0  0  0
  9 27  1  0  0  0  0
  9 28  1  0  0  0  0
 10 11  2  0  0  0  0
 11 12  1  0  0  0  0
 11 16  1  0  0  0  0
 12 14  2  0  0  0  0
 12 17  1  0  0  0  0
 13 14  1  0  0  0  0
 13 29  1  0  0  0  0
 15 18  2  0  0  0  0
 15 30  1  0  0  0  0
 16 19  1  0  0  0  0
 17 20  1  0  0  0  0
 18 22  1  0  0  0  0
 18 23  1  0  0  0  0
 19 20  2  0  0  0  0
 19 31  1  0  0  0  0
 20 32  1  0  0  0  0
 21 25  1  0  0  0  0
 22 33  1  0  0  0  0
 22 34  1  0  0  0  0
 22 35  1  0  0  0  0
 23 36  1  0  0  0  0
 23 37  1  0  0  0  0
 23 38  1  0  0  0  0
 24 40  1  0  0  0  0
 24 41  1  0  0  0  0
 24 42  1  0  0  0  0
 25 43  1  0  0  0  0
 25 44  1  0  0  0  0
 25 45  1  0  0  0  0
M  END
> <PUBCHEM_COMPOUND_CID>
157629

> <PUBCHEM_CONFORMER_RMSD>
0.8

> <PUBCHEM_CONFORMER_DIVERSEORDER>
1
3
26
18
12
15
21
25
11
4
27
2
19
20
28
17
32
34
13
16
31
24
8
22
14
30
10
29
33
35
5
7
9
6
23

> <PUBCHEM_MMFF94_PARTIAL_CHARGES>
30
1 -0.43
10 0.08
11 0.09
12 0.09
13 -0.15
14 0.08
15 -0.29
16 0.47
17 0.47
18 -0.28
19 -0.14
2 -0.36
20 -0.14
21 0.66
22 0.14
23 0.14
24 0.28
25 0.06
29 0.15
3 -0.53
30 0.15
31 0.15
32 0.15
39 0.45
4 -0.57
5 -0.57
6 -0.57
7 0.42
8 -0.14
9 0.14

> <PUBCHEM_EFFECTIVE_ROTOR_COUNT>
6

> <PUBCHEM_PHARMACOPHORE_FEATURES>
8
1 2 acceptor
1 3 donor
1 4 acceptor
1 5 acceptor
1 6 acceptor
3 18 22 23 hydrophobe
6 11 12 16 17 19 20 rings
6 8 10 11 12 13 14 rings

> <PUBCHEM_HEAVY_ATOM_COUNT>
25

> <PUBCHEM_ATOM_DEF_STEREO_COUNT>
1

> <PUBCHEM_ATOM_UDEF_STEREO_COUNT>
0

> <PUBCHEM_BOND_DEF_STEREO_COUNT>
0

> <PUBCHEM_BOND_UDEF_STEREO_COUNT>
0

> <PUBCHEM_ISOTOPIC_ATOM_COUNT>
0

> <PUBCHEM_COMPONENT_COUNT>
1

> <PUBCHEM_CACTVS_TAUTO_COUNT>
4

> <PUBCHEM_CONFORMER_ID>
000267BD00000001

> <PUBCHEM_MMFF94_ENERGY>
76.7341

> <PUBCHEM_FEATURE_SELFOVERLAP>
40.63

> <PUBCHEM_SHAPE_FINGERPRINT>
10411042 1 17913210051406026210
10764073 3 17696471063589527957
11578080 2 16485854803285346679
12107183 9 17765149867011505233
12236239 1 18260548913987687243
12422481 6 18117555343266644841
12553582 1 18271254888967421898
12633257 1 17775568619646563147
13140716 1 18129661873201934858
13583140 156 18341891836846554873
14294032 229 17385434446188991545
14790565 3 17985527993223483740
16752209 62 17096097883334266695
16945 1 18201170883936202330
173720 79 17822013120939388807
1813 80 15267050442115808015
20511986 3 18336555975257062313
20600515 1 14764054598720290149
20739085 24 17988914570429934868
21267235 1 18201434840068451450
21285901 2 4895283563855028976
21756936 100 18050272675279271676
21792961 116 17131564937654728314
22112679 90 18114475456615338582
23558518 356 17615968811732521053
23559900 14 15791995759059322180
23598288 3 18336275642293246197
23598291 2 18261681354876468775
238 59 17411380583219318822
2748010 2 17552918430646456880
34934 24 18261668186343403497
350125 39 18272928345807549056
5104073 3 18130214983126760225
633830 44 18267578023167743196
6786 2 11593175171208443943
8272917 22 18342165687491710187

> <PUBCHEM_SHAPE_MULTIPOLES>
479.27
10.16
2.67
1.98
6.69
0.36
1.25
2.96
-4.44
-0.09
0.89
1.01
-1.46
-3.03

> <PUBCHEM_SHAPE_SELFOVERLAP>
1021.489

> <PUBCHEM_SHAPE_VOLUME>
265.1

> <PUBCHEM_COORDINATE_TYPE>
2
5
10

$$$$

