11495
  -OEChem-06261205453D

 19 19  0     0  0  0  0  0  0999 V2000
   -3.3325    2.1034   -0.2638 Cl  0  0  0  0  0  0  0  0  0  0  0  0
   -4.3040   -0.9804   -0.4003 Cl  0  0  0  0  0  0  0  0  0  0  0  0
    1.3351    0.3418    0.6050 O   0  0  0  0  0  0  0  0  0  0  0  0
    4.5221   -0.7896   -0.5919 O   0  0  0  0  0  0  0  0  0  0  0  0
    3.7819    1.3083   -0.1037 O   0  0  0  0  0  0  0  0  0  0  0  0
    0.0262    0.0509    0.3713 C   0  0  0  0  0  0  0  0  0  0  0  0
   -0.8964    1.0815    0.1910 C   0  0  0  0  0  0  0  0  0  0  0  0
   -0.3927   -1.2783    0.3123 C   0  0  0  0  0  0  0  0  0  0  0  0
   -2.2377    0.7829   -0.0483 C   0  0  0  0  0  0  0  0  0  0  0  0
   -1.7341   -1.5769    0.0731 C   0  0  0  0  0  0  0  0  0  0  0  0
    2.3018   -0.6023    0.1468 C   0  0  0  0  0  0  0  0  0  0  0  0
   -2.6565   -0.5462   -0.1073 C   0  0  0  0  0  0  0  0  0  0  0  0
    3.5868    0.1047   -0.1842 C   0  0  0  0  0  0  0  0  0  0  0  0
   -0.5581    2.1142    0.2390 H   0  0  0  0  0  0  0  0  0  0  0  0
    0.2881   -2.1088    0.4739 H   0  0  0  0  0  0  0  0  0  0  0  0
   -2.0446   -2.6181    0.0362 H   0  0  0  0  0  0  0  0  0  0  0  0
    2.4963   -1.3283    0.9430 H   0  0  0  0  0  0  0  0  0  0  0  0
    1.9757   -1.0978   -0.7761 H   0  0  0  0  0  0  0  0  0  0  0  0
    5.3726   -0.3542   -0.8143 H   0  0  0  0  0  0  0  0  0  0  0  0
  1  9  1  0  0  0  0
  2 12  1  0  0  0  0
  3  6  1  0  0  0  0
  3 11  1  0  0  0  0
  4 13  1  0  0  0  0
  4 19  1  0  0  0  0
  5 13  2  0  0  0  0
  6  7  2  0  0  0  0
  6  8  1  0  0  0  0
  7  9  1  0  0  0  0
  7 14  1  0  0  0  0
  8 10  2  0  0  0  0
  8 15  1  0  0  0  0
  9 12  2  0  0  0  0
 10 12  1  0  0  0  0
 10 16  1  0  0  0  0
 11 13  1  0  0  0  0
 11 17  1  0  0  0  0
 11 18  1  0  0  0  0
M  END
> <PUBCHEM_COMPOUND_CID>
11495

> <PUBCHEM_CONFORMER_RMSD>
0.6

> <PUBCHEM_CONFORMER_DIVERSEORDER>
1
14
5
17
3
8
12
10
21
19
13
2
11
23
24
4
7
6
20
9
18
16
22
15

> <PUBCHEM_MMFF94_PARTIAL_CHARGES>
17
1 -0.18
10 -0.15
11 0.34
12 0.18
13 0.66
14 0.15
15 0.15
16 0.15
19 0.5
2 -0.18
3 -0.36
4 -0.65
5 -0.57
6 0.08
7 -0.15
8 -0.15
9 0.18

> <PUBCHEM_EFFECTIVE_ROTOR_COUNT>
3

> <PUBCHEM_PHARMACOPHORE_FEATURES>
5
1 3 acceptor
1 4 acceptor
1 5 acceptor
3 4 5 13 anion
6 6 7 8 9 10 12 rings

> <PUBCHEM_HEAVY_ATOM_COUNT>
13

> <PUBCHEM_ATOM_DEF_STEREO_COUNT>
0

> <PUBCHEM_ATOM_UDEF_STEREO_COUNT>
0

> <PUBCHEM_BOND_DEF_STEREO_COUNT>
0

> <PUBCHEM_BOND_UDEF_STEREO_COUNT>
0

> <PUBCHEM_ISOTOPIC_ATOM_COUNT>
0

> <PUBCHEM_COMPONENT_COUNT>
1

> <PUBCHEM_CACTVS_TAUTO_COUNT>
1

> <PUBCHEM_CONFORMER_ID>
00002CE700000001

> <PUBCHEM_MMFF94_ENERGY>
31.3853

> <PUBCHEM_FEATURE_SELFOVERLAP>
25.434

> <PUBCHEM_SHAPE_FINGERPRINT>
10608611 8 18408889507948112080
12032990 46 18337671893775998539
12186901 62 18410012160880368733
12932764 1 17531260438689659730
13024252 1 17917992763603293019
14325111 11 18411702114220251480
14911166 2 18340215102894172551
14993402 34 17918277540982553991
15775835 57 18129942402600044040
16945 1 18338814325011755683
17834072 32 18199471141823221741
18186145 218 18340208587043720932
1986462 14 18335700563330795981
200 152 17167863079945080662
20510252 161 18334857221101863417
20645477 56 18410857650688525232
20645477 70 17530957008599807158
20871999 31 18410015437887875925
21501502 16 18268439112486912259
23402539 116 18337397127290011716
23557571 272 18334566954042235172
23559900 14 18260833748061281522
2748010 2 17834690300992213667
474 4 17059207034828799316
559249 180 18268716185296503618
93112 12 18409727378889668268
9709674 26 18408315605838888910

> <PUBCHEM_SHAPE_MULTIPOLES>
253.67
8.04
1.75
0.69
6.02
0.45
0
0.34
-1.81
-1.49
-0.07
0.01
-0.02
0.07

> <PUBCHEM_SHAPE_SELFOVERLAP>
507.574

> <PUBCHEM_SHAPE_VOLUME>
151.4

> <PUBCHEM_COORDINATE_TYPE>
2
5
10

$$$$

