17396131
  -OEChem-06241222542D

 54 58  0     0  0  0  0  0  0999 V2000
    4.6783    4.9932    0.0000 S   0  0  0  0  0  0  0  0  0  0  0  0
    5.2619    2.4564    0.0000 O   0  0  0  0  0  0  0  0  0  0  0  0
    7.7619   -3.6058    0.0000 N   0  0  0  0  0  0  0  0  0  0  0  0
    6.7619    1.5904    0.0000 N   0  0  0  0  0  0  0  0  0  0  0  0
    4.6783    3.3837    0.0000 N   0  0  0  0  0  0  0  0  0  0  0  0
    7.7619    3.3224    0.0000 N   0  0  0  0  0  0  0  0  0  0  0  0
    6.7619    5.0545    0.0000 N   0  0  0  0  0  0  0  0  0  0  0  0
    8.1686   -4.5193    0.0000 C   0  0  0  0  0  0  0  0  0  0  0  0
    6.7674   -3.7103    0.0000 C   0  0  0  0  0  0  0  0  0  0  0  0
    7.4255   -5.1884    0.0000 C   0  0  0  0  0  0  0  0  0  0  0  0
    6.5594   -4.6884    0.0000 C   0  0  0  0  0  0  0  0  0  0  0  0
    8.2619   -2.7398    0.0000 C   0  0  0  0  0  0  0  0  0  0  0  0
    7.7619   -1.8737    0.0000 C   0  0  0  0  0  0  0  0  0  0  0  0
    8.2619   -1.0077    0.0000 C   0  0  0  0  0  0  0  0  0  0  0  0
    6.7619   -1.8737    0.0000 C   0  0  0  0  0  0  0  0  0  0  0  0
    6.7619   -0.1417    0.0000 C   0  0  0  0  0  0  0  0  0  0  0  0
    7.7619   -0.1417    0.0000 C   0  0  0  0  0  0  0  0  0  0  0  0
    6.2619   -1.0077    0.0000 C   0  0  0  0  0  0  0  0  0  0  0  0
    6.2619    0.7244    0.0000 C   0  0  0  0  0  0  0  0  0  0  0  0
    6.2619    2.4564    0.0000 C   0  0  0  0  0  0  0  0  0  0  0  0
    6.7619    3.3224    0.0000 C   0  0  0  0  0  0  0  0  0  0  0  0
    6.2619    4.1884    0.0000 C   0  0  0  0  0  0  0  0  0  0  0  0
    5.2619    4.1884    0.0000 C   0  0  0  0  0  0  0  0  0  0  0  0
    3.7320    4.6884    0.0000 C   0  0  0  0  0  0  0  0  0  0  0  0
    3.7320    3.6884    0.0000 C   0  0  0  0  0  0  0  0  0  0  0  0
    2.8660    5.1884    0.0000 C   0  0  0  0  0  0  0  0  0  0  0  0
    2.8660    3.1884    0.0000 C   0  0  0  0  0  0  0  0  0  0  0  0
    2.0000    4.6884    0.0000 C   0  0  0  0  0  0  0  0  0  0  0  0
    2.0000    3.6884    0.0000 C   0  0  0  0  0  0  0  0  0  0  0  0
    8.2619    4.1884    0.0000 C   0  0  0  0  0  0  0  0  0  0  0  0
    7.7619    5.0545    0.0000 C   0  0  0  0  0  0  0  0  0  0  0  0
    8.5330   -5.0209    0.0000 H   0  0  0  0  0  0  0  0  0  0  0  0
    8.7056   -4.2093    0.0000 H   0  0  0  0  0  0  0  0  0  0  0  0
    6.7674   -3.0903    0.0000 H   0  0  0  0  0  0  0  0  0  0  0  0
    6.1508   -3.6455    0.0000 H   0  0  0  0  0  0  0  0  0  0  0  0
    7.0610   -5.6900    0.0000 H   0  0  0  0  0  0  0  0  0  0  0  0
    7.8862   -5.6033    0.0000 H   0  0  0  0  0  0  0  0  0  0  0  0
    5.9698   -4.4969    0.0000 H   0  0  0  0  0  0  0  0  0  0  0  0
    6.3073   -5.2548    0.0000 H   0  0  0  0  0  0  0  0  0  0  0  0
    8.7368   -3.1383    0.0000 H   0  0  0  0  0  0  0  0  0  0  0  0
    8.7368   -2.3412    0.0000 H   0  0  0  0  0  0  0  0  0  0  0  0
    8.8819   -1.0077    0.0000 H   0  0  0  0  0  0  0  0  0  0  0  0
    6.4519   -2.4107    0.0000 H   0  0  0  0  0  0  0  0  0  0  0  0
    8.0719    0.3953    0.0000 H   0  0  0  0  0  0  0  0  0  0  0  0
    5.6419   -1.0077    0.0000 H   0  0  0  0  0  0  0  0  0  0  0  0
    5.7869    1.1229    0.0000 H   0  0  0  0  0  0  0  0  0  0  0  0
    5.7869    0.3258    0.0000 H   0  0  0  0  0  0  0  0  0  0  0  0
    7.3819    1.5904    0.0000 H   0  0  0  0  0  0  0  0  0  0  0  0
    2.8660    5.8084    0.0000 H   0  0  0  0  0  0  0  0  0  0  0  0
    2.8660    2.5684    0.0000 H   0  0  0  0  0  0  0  0  0  0  0  0
    1.4631    4.9984    0.0000 H   0  0  0  0  0  0  0  0  0  0  0  0
    1.4631    3.3784    0.0000 H   0  0  0  0  0  0  0  0  0  0  0  0
    8.8819    4.1884    0.0000 H   0  0  0  0  0  0  0  0  0  0  0  0
    8.0719    5.5914    0.0000 H   0  0  0  0  0  0  0  0  0  0  0  0
  1 23  1  0  0  0  0
  1 24  1  0  0  0  0
  2 20  2  0  0  0  0
  3  8  1  0  0  0  0
  3  9  1  0  0  0  0
  3 12  1  0  0  0  0
  4 19  1  0  0  0  0
  4 20  1  0  0  0  0
  4 48  1  0  0  0  0
  5 23  2  0  0  0  0
  5 25  1  0  0  0  0
  6 21  2  0  0  0  0
  6 30  1  0  0  0  0
  7 22  2  0  0  0  0
  7 31  1  0  0  0  0
  8 10  1  0  0  0  0
  8 32  1  0  0  0  0
  8 33  1  0  0  0  0
  9 11  1  0  0  0  0
  9 34  1  0  0  0  0
  9 35  1  0  0  0  0
 10 11  1  0  0  0  0
 10 36  1  0  0  0  0
 10 37  1  0  0  0  0
 11 38  1  0  0  0  0
 11 39  1  0  0  0  0
 12 13  1  0  0  0  0
 12 40  1  0  0  0  0
 12 41  1  0  0  0  0
 13 14  2  0  0  0  0
 13 15  1  0  0  0  0
 14 17  1  0  0  0  0
 14 42  1  0  0  0  0
 15 18  2  0  0  0  0
 15 43  1  0  0  0  0
 16 17  2  0  0  0  0
 16 18  1  0  0  0  0
 16 19  1  0  0  0  0
 17 44  1  0  0  0  0
 18 45  1  0  0  0  0
 19 46  1  0  0  0  0
 19 47  1  0  0  0  0
 20 21  1  0  0  0  0
 21 22  1  0  0  0  0
 22 23  1  0  0  0  0
 24 25  1  0  0  0  0
 24 26  2  0  0  0  0
 25 27  2  0  0  0  0
 26 28  1  0  0  0  0
 26 49  1  0  0  0  0
 27 29  1  0  0  0  0
 27 50  1  0  0  0  0
 28 29  2  0  0  0  0
 28 51  1  0  0  0  0
 29 52  1  0  0  0  0
 30 31  2  0  0  0  0
 30 53  1  0  0  0  0
 31 54  1  0  0  0  0
M  END
> <PUBCHEM_COMPOUND_CID>
17396131

> <PUBCHEM_COMPOUND_CANONICALIZED>
1

> <PUBCHEM_CACTVS_COMPLEXITY>
593

> <PUBCHEM_CACTVS_HBOND_ACCEPTOR>
6

> <PUBCHEM_CACTVS_HBOND_DONOR>
1

> <PUBCHEM_CACTVS_ROTATABLE_BOND>
6

> <PUBCHEM_CACTVS_SUBSKEYS>
AAADceB7oABAAAAAAAAAAAAAAAAAAWLAAAA8YIAAAAAAAFgB/AAAHgQQAAAADAjB3gQ8wbPIEAisAzV3VACD8KR3GjhI2L24dNgIYPrg0bGUIYhghgDoyUcUgAAOQAAAAAAAAQCAAAAAAAACAAAAAAAAAA==

> <PUBCHEM_IUPAC_OPENEYE_NAME>
3-(1,3-benzothiazol-2-yl)-N-[[4-(pyrrolidin-1-ylmethyl)phenyl]methyl]pyrazine-2-carboxamide

> <PUBCHEM_IUPAC_CAS_NAME>
3-(1,3-benzothiazol-2-yl)-N-[[4-(1-pyrrolidinylmethyl)phenyl]methyl]-2-pyrazinecarboxamide

> <PUBCHEM_IUPAC_NAME>
3-(1,3-benzothiazol-2-yl)-N-[[4-(pyrrolidin-1-ylmethyl)phenyl]methyl]pyrazine-2-carboxamide

> <PUBCHEM_IUPAC_SYSTEMATIC_NAME>
3-(1,3-benzothiazol-2-yl)-N-[[4-(pyrrolidin-1-ylmethyl)phenyl]methyl]pyrazine-2-carboxamide

> <PUBCHEM_IUPAC_TRADITIONAL_NAME>
3-(1,3-benzothiazol-2-yl)-N-[4-(pyrrolidinomethyl)benzyl]pyrazinamide

> <PUBCHEM_IUPAC_INCHI>
InChI=1S/C24H23N5OS/c30-23(27-15-17-7-9-18(10-8-17)16-29-13-3-4-14-29)21-22(26-12-11-25-21)24-28-19-5-1-2-6-20(19)31-24/h1-2,5-12H,3-4,13-16H2,(H,27,30)

> <PUBCHEM_IUPAC_INCHIKEY>
CDMKURJZQFDBRT-UHFFFAOYSA-N

> <PUBCHEM_XLOGP3_AA>
3.4

> <PUBCHEM_EXACT_MASS>
429.162331

> <PUBCHEM_MOLECULAR_FORMULA>
C24H23N5OS

> <PUBCHEM_MOLECULAR_WEIGHT>
429.53732

> <PUBCHEM_OPENEYE_CAN_SMILES>
C1CCN(C1)CC2=CC=C(C=C2)CNC(=O)C3=NC=CN=C3C4=NC5=CC=CC=C5S4

> <PUBCHEM_OPENEYE_ISO_SMILES>
C1CCN(C1)CC2=CC=C(C=C2)CNC(=O)C3=NC=CN=C3C4=NC5=CC=CC=C5S4

> <PUBCHEM_CACTVS_TPSA>
99.2

> <PUBCHEM_MONOISOTOPIC_WEIGHT>
429.162331

> <PUBCHEM_TOTAL_CHARGE>
0

> <PUBCHEM_HEAVY_ATOM_COUNT>
31

> <PUBCHEM_ATOM_DEF_STEREO_COUNT>
0

> <PUBCHEM_ATOM_UDEF_STEREO_COUNT>
0

> <PUBCHEM_BOND_DEF_STEREO_COUNT>
0

> <PUBCHEM_BOND_UDEF_STEREO_COUNT>
0

> <PUBCHEM_ISOTOPIC_ATOM_COUNT>
0

> <PUBCHEM_COMPONENT_COUNT>
1

> <PUBCHEM_CACTVS_TAUTO_COUNT>
2

> <PUBCHEM_COORDINATE_TYPE>
1
5
255

> <PUBCHEM_BONDANNOTATIONS>
1  23  8
1  24  8
13  14  8
13  15  8
14  17  8
15  18  8
16  17  8
16  18  8
21  22  8
24  25  8
24  26  8
25  27  8
26  28  8
27  29  8
28  29  8
30  31  8
5  23  8
5  25  8
6  21  8
6  30  8
7  22  8
7  31  8

$$$$

