10091038
  -OEChem-07051213092D

 39 41  0     1  0  0  0  0  0999 V2000
    2.8660   -4.4650    0.0000 S   0  0  0  0  0  0  0  0  0  0  0  0
    5.0474    3.5534    0.0000 P   0  0  0  0  0  0  0  0  0  0  0  0
    4.4026    0.1003    0.0000 O   0  0  0  0  0  0  0  0  0  0  0  0
    6.7485   -0.9916    0.0000 O   0  0  0  0  0  0  0  0  0  0  0  0
    6.7523    1.1840    0.0000 O   0  0  0  0  0  0  0  0  0  0  0  0
    5.3548    2.6018    0.0000 O   0  0  0  0  0  0  0  0  0  0  0  0
    4.7400    4.5050    0.0000 O   0  0  0  0  0  0  0  0  0  0  0  0
    5.9990    3.8608    0.0000 O   0  0  0  0  0  0  0  0  0  0  0  0
    4.0958    3.2460    0.0000 O   0  0  0  0  0  0  0  0  0  0  0  0
    4.6783   -1.6603    0.0000 N   0  0  0  0  0  0  0  0  0  0  0  0
    4.6783   -3.2698    0.0000 N   0  0  0  0  0  0  0  0  0  0  0  0
    2.8660   -1.4650    0.0000 N   0  0  0  0  0  0  0  0  0  0  0  0
    2.0000   -2.9650    0.0000 N   0  0  0  0  0  0  0  0  0  0  0  0
    5.9405   -0.4024    0.0000 C   0  0  2  0  0  0  0  0  0  0  0  0
    5.9422    0.5976    0.0000 C   0  0  1  0  0  0  0  0  0  0  0  0
    4.9889   -0.7098    0.0000 C   0  0  1  0  0  0  0  0  0  0  0  0
    4.9917    0.9082    0.0000 C   0  0  1  0  0  0  0  0  0  0  0  0
    4.6844    1.8598    0.0000 C   0  0  0  0  0  0  0  0  0  0  0  0
    3.7320   -1.9650    0.0000 C   0  0  0  0  0  0  0  0  0  0  0  0
    5.2619   -2.4650    0.0000 C   0  0  0  0  0  0  0  0  0  0  0  0
    3.7320   -2.9650    0.0000 C   0  0  0  0  0  0  0  0  0  0  0  0
    2.8660   -3.4650    0.0000 C   0  0  0  0  0  0  0  0  0  0  0  0
    2.0000   -1.9650    0.0000 C   0  0  0  0  0  0  0  0  0  0  0  0
    2.0000   -4.9650    0.0000 C   0  0  0  0  0  0  0  0  0  0  0  0
    6.4934   -0.1219    0.0000 H   0  0  0  0  0  0  0  0  0  0  0  0
    6.4942    0.3152    0.0000 H   0  0  0  0  0  0  0  0  0  0  0  0
    5.4266   -1.1490    0.0000 H   0  0  0  0  0  0  0  0  0  0  0  0
    4.3795    1.0063    0.0000 H   0  0  0  0  0  0  0  0  0  0  0  0
    4.3035    2.3491    0.0000 H   0  0  0  0  0  0  0  0  0  0  0  0
    4.1364    1.5697    0.0000 H   0  0  0  0  0  0  0  0  0  0  0  0
    7.3154   -0.7404    0.0000 H   0  0  0  0  0  0  0  0  0  0  0  0
    7.3182    0.9308    0.0000 H   0  0  0  0  0  0  0  0  0  0  0  0
    5.8819   -2.4650    0.0000 H   0  0  0  0  0  0  0  0  0  0  0  0
    1.4631   -1.6550    0.0000 H   0  0  0  0  0  0  0  0  0  0  0  0
    5.1557    4.9650    0.0000 H   0  0  0  0  0  0  0  0  0  0  0  0
    6.1290    4.4670    0.0000 H   0  0  0  0  0  0  0  0  0  0  0  0
    1.6900   -4.4281    0.0000 H   0  0  0  0  0  0  0  0  0  0  0  0
    1.4631   -5.2750    0.0000 H   0  0  0  0  0  0  0  0  0  0  0  0
    2.3100   -5.5020    0.0000 H   0  0  0  0  0  0  0  0  0  0  0  0
  1 22  1  0  0  0  0
  1 24  1  0  0  0  0
  2  6  1  0  0  0  0
  2  7  1  0  0  0  0
  2  8  1  0  0  0  0
  2  9  2  0  0  0  0
  3 16  1  0  0  0  0
  3 17  1  0  0  0  0
 14  4  1  1  0  0  0
  4 31  1  0  0  0  0
 15  5  1  1  0  0  0
  5 32  1  0  0  0  0
  6 18  1  0  0  0  0
  7 35  1  0  0  0  0
  8 36  1  0  0  0  0
 16 10  1  6  0  0  0
 10 19  1  0  0  0  0
 10 20  1  0  0  0  0
 11 20  2  0  0  0  0
 11 21  1  0  0  0  0
 12 19  1  0  0  0  0
 12 23  2  0  0  0  0
 13 22  2  0  0  0  0
 13 23  1  0  0  0  0
 14 15  1  0  0  0  0
 14 16  1  0  0  0  0
 14 25  1  0  0  0  0
 15 17  1  0  0  0  0
 15 26  1  0  0  0  0
 16 27  1  0  0  0  0
 17 18  1  6  0  0  0
 17 28  1  0  0  0  0
 18 29  1  0  0  0  0
 18 30  1  0  0  0  0
 19 21  2  0  0  0  0
 20 33  1  0  0  0  0
 21 22  1  0  0  0  0
 23 34  1  0  0  0  0
 24 37  1  0  0  0  0
 24 38  1  0  0  0  0
 24 39  1  0  0  0  0
M  END
> <PUBCHEM_COMPOUND_CID>
10091038

> <PUBCHEM_COMPOUND_CANONICALIZED>
1

> <PUBCHEM_CACTVS_COMPLEXITY>
499

> <PUBCHEM_CACTVS_HBOND_ACCEPTOR>
11

> <PUBCHEM_CACTVS_HBOND_DONOR>
4

> <PUBCHEM_CACTVS_ROTATABLE_BOND>
5

> <PUBCHEM_CACTVS_SUBSKEYS>
AAADccBzuAJAAAAAAAAAAAAAAAAAAWJAAAAsAAAAAAAAAFgB+AAAHgQACCAACBzh1waH8b8MFxigQQZhZICA0C1RGLABUDQoVBCDWAJgyEAeRAwPAALTACDwMAIAAAAAAAAAAAAAAAAAAAAAAAAAAAAAAA==

> <PUBCHEM_IUPAC_OPENEYE_NAME>
[(2R,3S,4R,5R)-3,4-dihydroxy-5-(6-methylsulfanylpurin-9-yl)tetrahydrofuran-2-yl]methyl dihydrogen phosphate

> <PUBCHEM_IUPAC_CAS_NAME>
[(2R,3S,4R,5R)-3,4-dihydroxy-5-[6-(methylthio)-9-purinyl]-2-oxolanyl]methyl dihydrogen phosphate

> <PUBCHEM_IUPAC_NAME>
[(2R,3S,4R,5R)-3,4-dihydroxy-5-(6-methylsulfanylpurin-9-yl)oxolan-2-yl]methyl dihydrogen phosphate

> <PUBCHEM_IUPAC_SYSTEMATIC_NAME>
[(2R,3S,4R,5R)-5-(6-methylsulfanylpurin-9-yl)-3,4-bis(oxidanyl)oxolan-2-yl]methyl dihydrogen phosphate

> <PUBCHEM_IUPAC_TRADITIONAL_NAME>
[(2R,3S,4R,5R)-3,4-dihydroxy-5-[6-(methylthio)purin-9-yl]tetrahydrofuran-2-yl]methyl dihydrogen phosphate

> <PUBCHEM_IUPAC_INCHI>
InChI=1S/C11H15N4O7PS/c1-24-10-6-9(12-3-13-10)15(4-14-6)11-8(17)7(16)5(22-11)2-21-23(18,19)20/h3-5,7-8,11,16-17H,2H2,1H3,(H2,18,19,20)/t5-,7-,8-,11-/m1/s1

> <PUBCHEM_IUPAC_INCHIKEY>
BMYFUCYXRGTQQL-IOSLPCCCSA-N

> <PUBCHEM_XLOGP3>
-2.3

> <PUBCHEM_EXACT_MASS>
378.039906

> <PUBCHEM_MOLECULAR_FORMULA>
C11H15N4O7PS

> <PUBCHEM_MOLECULAR_WEIGHT>
378.298162

> <PUBCHEM_OPENEYE_CAN_SMILES>
CSC1=NC=NC2=C1N=CN2C3C(C(C(O3)COP(=O)(O)O)O)O

> <PUBCHEM_OPENEYE_ISO_SMILES>
CSC1=NC=NC2=C1N=CN2[C@H]3[C@@H]([C@@H]([C@H](O3)COP(=O)(O)O)O)O

> <PUBCHEM_CACTVS_TPSA>
185

> <PUBCHEM_MONOISOTOPIC_WEIGHT>
378.039906

> <PUBCHEM_TOTAL_CHARGE>
0

> <PUBCHEM_HEAVY_ATOM_COUNT>
24

> <PUBCHEM_ATOM_DEF_STEREO_COUNT>
4

> <PUBCHEM_ATOM_UDEF_STEREO_COUNT>
0

> <PUBCHEM_BOND_DEF_STEREO_COUNT>
0

> <PUBCHEM_BOND_UDEF_STEREO_COUNT>
0

> <PUBCHEM_ISOTOPIC_ATOM_COUNT>
0

> <PUBCHEM_COMPONENT_COUNT>
1

> <PUBCHEM_CACTVS_TAUTO_COUNT>
1

> <PUBCHEM_COORDINATE_TYPE>
1
5
255

> <PUBCHEM_BONDANNOTATIONS>
16  10  6
10  19  8
10  20  8
11  20  8
11  21  8
12  19  8
12  23  8
13  22  8
13  23  8
17  18  6
19  21  8
21  22  8
14  4  5
15  5  5

$$$$

