11298145
  -OEChem-07051213103D

 23 22  0     1  0  0  0  0  0999 V2000
   -3.8468   -0.4755   -0.3746 S   0  0  0  0  0  0  0  0  0  0  0  0
    2.8120    1.6031   -0.3770 O   0  0  0  0  0  0  0  0  0  0  0  0
    3.5993   -0.2245    0.7134 O   0  0  0  0  0  0  0  0  0  0  0  0
    1.5182   -1.7378    0.0521 N   0  0  0  0  0  0  0  0  0  0  0  0
    0.1923    0.3333    0.0935 C   0  0  0  0  0  0  0  0  0  0  0  0
   -1.0946   -0.3581   -0.3781 C   0  0  0  0  0  0  0  0  0  0  0  0
    1.4549   -0.3620   -0.4368 C   0  0  1  0  0  0  0  0  0  0  0  0
   -2.3270    0.3458    0.1847 C   0  0  0  0  0  0  0  0  0  0  0  0
    2.7338    0.3086    0.0311 C   0  0  0  0  0  0  0  0  0  0  0  0
   -5.0422    0.5670    0.4918 C   0  0  0  0  0  0  0  0  0  0  0  0
    0.1821    1.3777   -0.2433 H   0  0  0  0  0  0  0  0  0  0  0  0
    0.2163    0.3673    1.1910 H   0  0  0  0  0  0  0  0  0  0  0  0
   -1.0974   -1.4059   -0.0546 H   0  0  0  0  0  0  0  0  0  0  0  0
   -1.1231   -0.3522   -1.4750 H   0  0  0  0  0  0  0  0  0  0  0  0
    1.4589   -0.3766   -1.5322 H   0  0  0  0  0  0  0  0  0  0  0  0
   -2.3471    1.3894   -0.1464 H   0  0  0  0  0  0  0  0  0  0  0  0
   -2.2990    0.3299    1.2793 H   0  0  0  0  0  0  0  0  0  0  0  0
    1.5539   -1.7492    1.0706 H   0  0  0  0  0  0  0  0  0  0  0  0
    2.3710   -2.1882   -0.2772 H   0  0  0  0  0  0  0  0  0  0  0  0
   -4.9531    1.6051    0.1612 H   0  0  0  0  0  0  0  0  0  0  0  0
   -4.8862    0.5096    1.5721 H   0  0  0  0  0  0  0  0  0  0  0  0
   -6.0536    0.2174    0.2683 H   0  0  0  0  0  0  0  0  0  0  0  0
    3.6348    2.0357   -0.0637 H   0  0  0  0  0  0  0  0  0  0  0  0
  1  8  1  0  0  0  0
  1 10  1  0  0  0  0
  2  9  1  0  0  0  0
  2 23  1  0  0  0  0
  3  9  2  0  0  0  0
  4  7  1  0  0  0  0
  4 18  1  0  0  0  0
  4 19  1  0  0  0  0
  5  6  1  0  0  0  0
  5  7  1  0  0  0  0
  5 11  1  0  0  0  0
  5 12  1  0  0  0  0
  6  8  1  0  0  0  0
  6 13  1  0  0  0  0
  6 14  1  0  0  0  0
  7  9  1  0  0  0  0
  7 15  1  0  0  0  0
  8 16  1  0  0  0  0
  8 17  1  0  0  0  0
 10 20  1  0  0  0  0
 10 21  1  0  0  0  0
 10 22  1  0  0  0  0
M  END
> <PUBCHEM_COMPOUND_CID>
11298145

> <PUBCHEM_CONFORMER_RMSD>
0.6

> <PUBCHEM_CONFORMER_DIVERSEORDER>
1
108
27
73
83
97
106
101
98
4
109
91
88
48
47
68
103
89
100
94
86
104
75
95
51
23
71
17
87
82
39
19
50
74
62
107
85
8
93
99
102
30
49
67
57
84
96
59
66
105
63
22
53
70
10
40
92
35
76
6
37
33
72
9
52
34
45
56
5
28
26
78
20
60
2
32
64
42
81
21
41
31
3
79
65
54
16
55
90
61
29
18
44
11
24
69
38
25
80
7
58
43
14
77
12
15
13
46
36

> <PUBCHEM_MMFF94_PARTIAL_CHARGES>
11
1 -0.46
10 0.23
18 0.36
19 0.36
2 -0.65
23 0.5
3 -0.57
4 -0.99
7 0.33
8 0.23
9 0.66

> <PUBCHEM_EFFECTIVE_ROTOR_COUNT>
5

> <PUBCHEM_PHARMACOPHORE_FEATURES>
7
1 10 hydrophobe
1 2 acceptor
1 3 acceptor
1 4 cation
1 4 donor
3 2 3 9 anion
4 1 5 6 8 hydrophobe

> <PUBCHEM_HEAVY_ATOM_COUNT>
10

> <PUBCHEM_ATOM_DEF_STEREO_COUNT>
0

> <PUBCHEM_ATOM_UDEF_STEREO_COUNT>
1

> <PUBCHEM_BOND_DEF_STEREO_COUNT>
0

> <PUBCHEM_BOND_UDEF_STEREO_COUNT>
0

> <PUBCHEM_ISOTOPIC_ATOM_COUNT>
0

> <PUBCHEM_COMPONENT_COUNT>
1

> <PUBCHEM_CACTVS_TAUTO_COUNT>
1

> <PUBCHEM_CONFORMER_ID>
00AC656100000001

> <PUBCHEM_MMFF94_ENERGY>
9.2246

> <PUBCHEM_FEATURE_SELFOVERLAP>
35.579

> <PUBCHEM_SHAPE_FINGERPRINT>
10219947 1 18060139821180020556
11062470 55 18187082858492019543
12932764 1 17095818680225943213
14123238 8 17989484105005505519
14325111 11 18408322198750260031
14445660 50 18335133190278393459
170605 34 18409446977238212646
17834072 33 18261960648684837783
17834076 25 18408882936700487341
190213 19 17312818269213777501
20279233 1 17846775217966130971
20645477 70 18336830913420356631
21293036 1 4895552991400844747
22485316 2 18410014347372318991
23402539 116 17632307765380650687
23402655 69 18260267460433110973
3248919 1 17418080045000620247
449060 62 18409444765287896180
522135 26 8070029964976928769

> <PUBCHEM_SHAPE_MULTIPOLES>
192.93
8.6
1.17
0.73
7.19
0.11
0
-1.5
1.12
-0.67
-0.05
0.03
-0.01
-0.46

> <PUBCHEM_SHAPE_SELFOVERLAP>
341.049

> <PUBCHEM_SHAPE_VOLUME>
127

> <PUBCHEM_COORDINATE_TYPE>
2
5
10

$$$$

