56927725
  -OEChem-07051213153D

 54 53  0     1  0  0  0  0  0999 V2000
   -4.9484    0.7340    0.7162 O   0  0  0  0  0  0  0  0  0  0  0  0
    6.5862   -0.0871    0.7109 O   0  0  0  0  0  0  0  0  0  0  0  0
    4.8057   -0.4028    2.0842 O   0  0  0  0  0  0  0  0  0  0  0  0
   -5.5348    1.2596   -0.5029 O   0  0  0  0  0  0  0  0  0  0  0  0
    0.8554    2.3109   -0.1107 C   0  0  0  0  0  0  0  0  0  0  0  0
    2.3205    2.0652   -0.4914 C   0  0  0  0  0  0  0  0  0  0  0  0
    0.0995    3.2149   -1.0870 C   0  0  0  0  0  0  0  0  0  0  0  0
    3.0925    1.1740    0.4861 C   0  0  0  0  0  0  0  0  0  0  0  0
   -1.3683    3.4363   -0.7037 C   0  0  0  0  0  0  0  0  0  0  0  0
   -0.8626   -2.7132   -0.8078 C   0  0  0  0  0  0  0  0  0  0  0  0
    0.6680   -2.7348   -0.8518 C   0  0  0  0  0  0  0  0  0  0  0  0
    4.5561    0.9739    0.0907 C   0  0  0  0  0  0  0  0  0  0  0  0
   -1.3825   -3.0679    0.5903 C   0  0  0  0  0  0  0  0  0  0  0  0
   -3.6020    0.4108    0.3664 C   0  0  2  0  0  0  0  0  0  0  0  0
   -2.1777    2.1726   -0.7057 C   0  0  0  0  0  0  0  0  0  0  0  0
   -3.0921   -0.6237    1.3782 C   0  0  0  0  0  0  0  0  0  0  0  0
    1.2371   -2.3999   -2.2320 C   0  0  0  0  0  0  0  0  0  0  0  0
   -2.7859    1.6741    0.3808 C   0  0  0  0  0  0  0  0  0  0  0  0
   -2.8758   -3.0499    0.7785 C   0  0  0  0  0  0  0  0  0  0  0  0
   -3.6381   -2.0001    1.1204 C   0  0  0  0  0  0  0  0  0  0  0  0
    2.7568   -2.4416   -2.2874 C   0  0  0  0  0  0  0  0  0  0  0  0
    5.2905    0.0949    1.0777 C   0  0  0  0  0  0  0  0  0  0  0  0
    0.3561    1.3370   -0.0419 H   0  0  0  0  0  0  0  0  0  0  0  0
    0.8174    2.7556    0.8915 H   0  0  0  0  0  0  0  0  0  0  0  0
    2.8314    3.0330   -0.5690 H   0  0  0  0  0  0  0  0  0  0  0  0
    2.3559    1.6112   -1.4897 H   0  0  0  0  0  0  0  0  0  0  0  0
    0.1529    2.7847   -2.0951 H   0  0  0  0  0  0  0  0  0  0  0  0
    0.6000    4.1898   -1.1345 H   0  0  0  0  0  0  0  0  0  0  0  0
    3.0432    1.6152    1.4897 H   0  0  0  0  0  0  0  0  0  0  0  0
    2.5947    0.1983    0.5527 H   0  0  0  0  0  0  0  0  0  0  0  0
   -1.8194    4.1316   -1.4220 H   0  0  0  0  0  0  0  0  0  0  0  0
   -1.4150    3.9277    0.2759 H   0  0  0  0  0  0  0  0  0  0  0  0
   -1.2654   -3.4227   -1.5408 H   0  0  0  0  0  0  0  0  0  0  0  0
   -1.2213   -1.7169   -1.0937 H   0  0  0  0  0  0  0  0  0  0  0  0
    1.0621   -2.0193   -0.1194 H   0  0  0  0  0  0  0  0  0  0  0  0
    1.0243   -3.7272   -0.5491 H   0  0  0  0  0  0  0  0  0  0  0  0
    5.0650    1.9432    0.0522 H   0  0  0  0  0  0  0  0  0  0  0  0
    4.6109    0.5013   -0.8960 H   0  0  0  0  0  0  0  0  0  0  0  0
   -1.0406   -4.0812    0.8419 H   0  0  0  0  0  0  0  0  0  0  0  0
   -0.9012   -2.4258    1.3374 H   0  0  0  0  0  0  0  0  0  0  0  0
   -3.5877   -0.0411   -0.6357 H   0  0  0  0  0  0  0  0  0  0  0  0
   -2.2662    1.6511   -1.6556 H   0  0  0  0  0  0  0  0  0  0  0  0
   -1.9979   -0.6196    1.3721 H   0  0  0  0  0  0  0  0  0  0  0  0
   -3.3970   -0.3354    2.3929 H   0  0  0  0  0  0  0  0  0  0  0  0
    0.8994   -1.3999   -2.5299 H   0  0  0  0  0  0  0  0  0  0  0  0
    0.8372   -3.1042   -2.9711 H   0  0  0  0  0  0  0  0  0  0  0  0
   -2.7040    2.1998    1.3291 H   0  0  0  0  0  0  0  0  0  0  0  0
   -3.3819   -3.9966    0.5987 H   0  0  0  0  0  0  0  0  0  0  0  0
   -4.7116   -2.1404    1.2150 H   0  0  0  0  0  0  0  0  0  0  0  0
    3.1291   -3.4393   -2.0345 H   0  0  0  0  0  0  0  0  0  0  0  0
    3.1918   -1.7243   -1.5844 H   0  0  0  0  0  0  0  0  0  0  0  0
    3.1081   -2.1903   -3.2929 H   0  0  0  0  0  0  0  0  0  0  0  0
    7.0691   -0.6574    1.3465 H   0  0  0  0  0  0  0  0  0  0  0  0
   -5.5052    2.1938   -0.2345 H   0  0  0  0  0  0  0  0  0  0  0  0
  1  4  1  0  0  0  0
  1 14  1  0  0  0  0
  2 22  1  0  0  0  0
  2 53  1  0  0  0  0
  3 22  2  0  0  0  0
  4 54  1  0  0  0  0
  5  6  1  0  0  0  0
  5  7  1  0  0  0  0
  5 23  1  0  0  0  0
  5 24  1  0  0  0  0
  6  8  1  0  0  0  0
  6 25  1  0  0  0  0
  6 26  1  0  0  0  0
  7  9  1  0  0  0  0
  7 27  1  0  0  0  0
  7 28  1  0  0  0  0
  8 12  1  0  0  0  0
  8 29  1  0  0  0  0
  8 30  1  0  0  0  0
  9 15  1  0  0  0  0
  9 31  1  0  0  0  0
  9 32  1  0  0  0  0
 10 11  1  0  0  0  0
 10 13  1  0  0  0  0
 10 33  1  0  0  0  0
 10 34  1  0  0  0  0
 11 17  1  0  0  0  0
 11 35  1  0  0  0  0
 11 36  1  0  0  0  0
 12 22  1  0  0  0  0
 12 37  1  0  0  0  0
 12 38  1  0  0  0  0
 13 19  1  0  0  0  0
 13 39  1  0  0  0  0
 13 40  1  0  0  0  0
 14 16  1  0  0  0  0
 14 18  1  0  0  0  0
 14 41  1  0  0  0  0
 15 18  2  0  0  0  0
 15 42  1  0  0  0  0
 16 20  1  0  0  0  0
 16 43  1  0  0  0  0
 16 44  1  0  0  0  0
 17 21  1  0  0  0  0
 17 45  1  0  0  0  0
 17 46  1  0  0  0  0
 18 47  1  0  0  0  0
 19 20  2  0  0  0  0
 19 48  1  0  0  0  0
 20 49  1  0  0  0  0
 21 50  1  0  0  0  0
 21 51  1  0  0  0  0
 21 52  1  0  0  0  0
M  END
> <PUBCHEM_COMPOUND_CID>
56927725

> <PUBCHEM_CONFORMER_RMSD>
1.4

> <PUBCHEM_CONFORMER_DIVERSEORDER>
1
7
31
40
3
74
101
55
62
33
19
53
38
57
107
99
98
81
23
41
73
94
97
100
12
43
5
72
59
71
89
35
26
67
51
110
37
17
46
80
69
36
102
18
34
66
76
79
15
108
39
52
13
95
30
68
29
88
61
90
83
48
42
44
2
112
87
85
22
70
49
92
28
106
78
96
32
103
91
104
111
27
9
10
21
63
56
60
24
25
105
47
20
93
84
86
54
50
8
58
65
113
77
64
6
82
109
45
16
75
14
11
4

> <PUBCHEM_MMFF94_PARTIAL_CHARGES>
20
1 -0.28
12 0.06
13 0.14
14 0.42
15 -0.29
16 0.14
18 -0.29
19 -0.29
2 -0.65
20 -0.29
22 0.66
3 -0.57
4 -0.4
42 0.15
47 0.15
48 0.15
49 0.15
53 0.5
54 0.4
9 0.14

> <PUBCHEM_EFFECTIVE_ROTOR_COUNT>
15

> <PUBCHEM_PHARMACOPHORE_FEATURES>
5
1 2 acceptor
1 21 hydrophobe
1 3 acceptor
3 2 3 22 anion
5 10 11 13 17 19 hydrophobe

> <PUBCHEM_HEAVY_ATOM_COUNT>
22

> <PUBCHEM_ATOM_DEF_STEREO_COUNT>
1

> <PUBCHEM_ATOM_UDEF_STEREO_COUNT>
0

> <PUBCHEM_BOND_DEF_STEREO_COUNT>
2

> <PUBCHEM_BOND_UDEF_STEREO_COUNT>
0

> <PUBCHEM_ISOTOPIC_ATOM_COUNT>
0

> <PUBCHEM_COMPONENT_COUNT>
1

> <PUBCHEM_CACTVS_TAUTO_COUNT>
1

> <PUBCHEM_CONFORMER_ID>
0364A5ED00000001

> <PUBCHEM_MMFF94_ENERGY>
4.9826

> <PUBCHEM_FEATURE_SELFOVERLAP>
25.43

> <PUBCHEM_SHAPE_FINGERPRINT>
11524674 6 18040442096201631388
12422481 6 18334294258538002498
12633257 1 18343017765958403381
12838863 1 18337686213139227167
13402501 40 18337106864541110012
13561361 72 18410852183753969422
14117953 113 18341613750230341245
14647877 51 18047750683425945598
15403338 16 17772485507491290867
16110190 28 18340768122730497608
20531524 4 18266160911419354262
20642791 35 17904758135714442653
21141583 151 17470987646744432615
21795232 338 18189346685042542896
238918 7 18260548948395060894
508706 21 18410284817893991303
532947 4 18339637954137670629
9862522 239 18187091615783188822

> <PUBCHEM_SHAPE_MULTIPOLES>
429.27
11.25
5.06
1.74
9.64
0.53
0.43
-0.9
-5.88
-2.44
2.15
1.49
1.27
1.93

> <PUBCHEM_SHAPE_SELFOVERLAP>
798.902

> <PUBCHEM_SHAPE_VOLUME>
267.8

> <PUBCHEM_COORDINATE_TYPE>
2
5
10

$$$$

