44237173
  -OEChem-07051213103D

 40 39  0     1  0  0  0  0  0999 V2000
    6.6906   -0.6945    1.1356 S   0  0  0  0  0  0  0  0  0  0  0  0
   -3.6683   -0.1809    1.8562 O   0  0  0  0  0  0  0  0  0  0  0  0
   -2.6099    2.5505   -1.2867 O   0  0  0  0  0  0  0  0  0  0  0  0
   -2.4836    2.5120    0.9847 O   0  0  0  0  0  0  0  0  0  0  0  0
   -4.6002   -1.4397   -1.3651 O   0  0  0  0  0  0  0  0  0  0  0  0
   -4.3473   -2.4882    0.6372 O   0  0  0  0  0  0  0  0  0  0  0  0
   -0.1029    0.2402   -0.5214 C   0  0  0  0  0  0  0  0  0  0  0  0
   -1.3404   -0.2501    0.2425 C   0  0  0  0  0  0  0  0  0  0  0  0
    1.1984   -0.4218   -0.0571 C   0  0  0  0  0  0  0  0  0  0  0  0
   -2.6376    0.4158   -0.2605 C   0  0  1  0  0  0  0  0  0  0  0  0
    2.4313    0.0512   -0.8322 C   0  0  0  0  0  0  0  0  0  0  0  0
    3.6984   -0.6499   -0.3352 C   0  0  0  0  0  0  0  0  0  0  0  0
   -3.8986   -0.1003    0.4570 C   0  0  1  0  0  0  0  0  0  0  0  0
    4.9803   -0.1442   -1.0087 C   0  0  0  0  0  0  0  0  0  0  0  0
   -2.5762    1.9237   -0.0830 C   0  0  0  0  0  0  0  0  0  0  0  0
    6.2759   -0.8601   -0.6250 C   0  0  0  0  0  0  0  0  0  0  0  0
   -4.3074   -1.4714   -0.0405 C   0  0  0  0  0  0  0  0  0  0  0  0
    7.2976    1.0075    1.1024 C   0  0  0  0  0  0  0  0  0  0  0  0
    0.0025    1.3254   -0.4075 H   0  0  0  0  0  0  0  0  0  0  0  0
   -0.2410    0.0447   -1.5920 H   0  0  0  0  0  0  0  0  0  0  0  0
   -1.1837   -0.0317    1.3059 H   0  0  0  0  0  0  0  0  0  0  0  0
   -1.4201   -1.3388    0.1395 H   0  0  0  0  0  0  0  0  0  0  0  0
    1.3411   -0.2176    1.0113 H   0  0  0  0  0  0  0  0  0  0  0  0
    1.1024   -1.5097   -0.1617 H   0  0  0  0  0  0  0  0  0  0  0  0
   -2.7269    0.2162   -1.3365 H   0  0  0  0  0  0  0  0  0  0  0  0
    2.5409    1.1359   -0.7151 H   0  0  0  0  0  0  0  0  0  0  0  0
    2.2963   -0.1478   -1.9020 H   0  0  0  0  0  0  0  0  0  0  0  0
    3.6042   -1.7293   -0.5073 H   0  0  0  0  0  0  0  0  0  0  0  0
    3.7743   -0.5069    0.7488 H   0  0  0  0  0  0  0  0  0  0  0  0
   -4.7502    0.5735    0.3084 H   0  0  0  0  0  0  0  0  0  0  0  0
    5.0799    0.9337   -0.8334 H   0  0  0  0  0  0  0  0  0  0  0  0
    4.8560   -0.2554   -2.0940 H   0  0  0  0  0  0  0  0  0  0  0  0
    6.1739   -1.9294   -0.8396 H   0  0  0  0  0  0  0  0  0  0  0  0
    7.1099   -0.4922   -1.2318 H   0  0  0  0  0  0  0  0  0  0  0  0
   -3.0468   -0.9080    2.0282 H   0  0  0  0  0  0  0  0  0  0  0  0
   -2.5575    3.5256   -1.1927 H   0  0  0  0  0  0  0  0  0  0  0  0
   -4.8524   -2.3244   -1.7054 H   0  0  0  0  0  0  0  0  0  0  0  0
    7.6853    1.2653    2.0918 H   0  0  0  0  0  0  0  0  0  0  0  0
    6.4917    1.7046    0.8618 H   0  0  0  0  0  0  0  0  0  0  0  0
    8.1093    1.1142    0.3780 H   0  0  0  0  0  0  0  0  0  0  0  0
  1 16  1  0  0  0  0
  1 18  1  0  0  0  0
  2 13  1  0  0  0  0
  2 35  1  0  0  0  0
  3 15  1  0  0  0  0
  3 36  1  0  0  0  0
  4 15  2  0  0  0  0
  5 17  1  0  0  0  0
  5 37  1  0  0  0  0
  6 17  2  0  0  0  0
  7  8  1  0  0  0  0
  7  9  1  0  0  0  0
  7 19  1  0  0  0  0
  7 20  1  0  0  0  0
  8 10  1  0  0  0  0
  8 21  1  0  0  0  0
  8 22  1  0  0  0  0
  9 11  1  0  0  0  0
  9 23  1  0  0  0  0
  9 24  1  0  0  0  0
 10 13  1  0  0  0  0
 10 15  1  0  0  0  0
 10 25  1  0  0  0  0
 11 12  1  0  0  0  0
 11 26  1  0  0  0  0
 11 27  1  0  0  0  0
 12 14  1  0  0  0  0
 12 28  1  0  0  0  0
 12 29  1  0  0  0  0
 13 17  1  0  0  0  0
 13 30  1  0  0  0  0
 14 16  1  0  0  0  0
 14 31  1  0  0  0  0
 14 32  1  0  0  0  0
 16 33  1  0  0  0  0
 16 34  1  0  0  0  0
 18 38  1  0  0  0  0
 18 39  1  0  0  0  0
 18 40  1  0  0  0  0
M  END
> <PUBCHEM_COMPOUND_CID>
44237173

> <PUBCHEM_CONFORMER_RMSD>
1

> <PUBCHEM_CONFORMER_DIVERSEORDER>
2
61
115
179
3
201
215
28
18
180
67
160
127
91
112
166
102
111
145
175
26
194
130
105
188
158
49
11
60
162
129
85
219
168
140
205
177
196
176
227
161
169
97
68
210
217
132
126
116
7
64
209
13
184
214
98
48
38
149
103
95
87
150
71
135
16
114
183
99
174
24
143
122
204
42
222
178
123
220
84
70
59
228
213
12
182
211
17
197
76
173
8
118
138
141
221
155
51
88
37
90
31
187
100
78
147
73
15
137
33
1
63
6
39
47
226
223
186
185
86
25
109
74
57
75
104
5
151
30
21
69
117
128
206
202
208
146
163
108
9
56
66
14
154
79
77
44
224
43
29
107
136
171
22
190
153
181
225
4
200
41
199
81
94
148
193
65
53
36
124
35
170
10
93
120
159
212
46
55
216
125
192
198
62
27
32
139
191
106
23
189
50
156
164
142
45
113
131
157
144
20
218
72
101
83
40
165
34
134
172
54
92
89
52
96
152
207
19
203
121
133
110
195
80
119
167
58
82

> <PUBCHEM_MMFF94_PARTIAL_CHARGES>
15
1 -0.46
10 0.06
13 0.34
15 0.66
16 0.23
17 0.66
18 0.23
2 -0.68
3 -0.65
35 0.4
36 0.5
37 0.5
4 -0.57
5 -0.65
6 -0.57

> <PUBCHEM_EFFECTIVE_ROTOR_COUNT>
11

> <PUBCHEM_PHARMACOPHORE_FEATURES>
9
1 18 hydrophobe
1 2 acceptor
1 2 donor
1 3 acceptor
1 4 acceptor
1 5 acceptor
1 6 acceptor
3 3 4 15 anion
3 5 6 17 anion

> <PUBCHEM_HEAVY_ATOM_COUNT>
18

> <PUBCHEM_ATOM_DEF_STEREO_COUNT>
0

> <PUBCHEM_ATOM_UDEF_STEREO_COUNT>
2

> <PUBCHEM_BOND_DEF_STEREO_COUNT>
0

> <PUBCHEM_BOND_UDEF_STEREO_COUNT>
0

> <PUBCHEM_ISOTOPIC_ATOM_COUNT>
0

> <PUBCHEM_COMPONENT_COUNT>
1

> <PUBCHEM_CACTVS_TAUTO_COUNT>
1

> <PUBCHEM_CONFORMER_ID>
02A3017500000002

> <PUBCHEM_MMFF94_ENERGY>
15.1919

> <PUBCHEM_FEATURE_SELFOVERLAP>
45.791

> <PUBCHEM_SHAPE_FINGERPRINT>
10912923 1 17846207878756417924
11287383 113 17894630349374214842
11315181 36 17988923362127262892
11858739 19 13110969734652845602
12091667 2 18272364296125825974
12596602 18 18341619235377955272
12616971 3 17560784568200891508
12670543 26 11167947965887018322
14251732 16 17968380053068220874
15183329 4 11887686073942153638
15716309 27 17676488341450054174
1768 4 16950853475911034720
17844677 252 18333724741711278796
17857418 61 17203614791934618666
18927931 339 18272357681575769591
19489759 90 18272088318517181128
21315764 119 9222962508425284536
21426921 1 18341327881544122133
22061861 79 13973969814013880738
2303208 19 17821998848942516630
23081809 10 17060331960141562366
23402539 116 18343861117405330423
23559900 14 18200035032110288181
2916195 48 18259990379656142136
328310 630 4895256136864023402
5104073 3 18264485260257549346
531348 171 14404915694916289474
542803 24 14129059227493327958

> <PUBCHEM_SHAPE_MULTIPOLES>
344.93
17.66
2.04
1.28
30.06
0.8
0.19
-3.75
3.78
-3.53
0.03
0.19
0.08
0.6

> <PUBCHEM_SHAPE_SELFOVERLAP>
640.116

> <PUBCHEM_SHAPE_VOLUME>
216.8

> <PUBCHEM_COORDINATE_TYPE>
2
5
10

$$$$

