439264
  -OEChem-07051212443D

 23 23  0     1  0  0  0  0  0999 V2000
   -0.0234    0.8912    0.5909 O   0  0  0  0  0  0  0  0  0  0  0  0
   -1.7372   -2.1142   -0.3733 O   0  0  0  0  0  0  0  0  0  0  0  0
   -2.2100    0.5224    1.4037 O   0  0  0  0  0  0  0  0  0  0  0  0
    0.6830   -1.2486   -1.3586 O   0  0  0  0  0  0  0  0  0  0  0  0
   -2.1375    2.0436   -0.8374 O   0  0  0  0  0  0  0  0  0  0  0  0
    3.3167   -0.3233    0.2572 O   0  0  0  0  0  0  0  0  0  0  0  0
    2.3158    1.5910   -0.4705 O   0  0  0  0  0  0  0  0  0  0  0  0
   -0.9193   -1.3102    0.4513 C   0  0  2  0  0  0  0  0  0  0  0  0
   -1.2656    0.1837    0.3889 C   0  0  2  0  0  0  0  0  0  0  0  0
    0.5442   -1.3392    0.0550 C   0  0  2  0  0  0  0  0  0  0  0  0
    1.0338   -0.0666    0.7241 C   0  0  1  0  0  0  0  0  0  0  0  0
   -1.8617    0.6570   -0.9339 C   0  0  0  0  0  0  0  0  0  0  0  0
    2.2613    0.5131    0.1026 C   0  0  0  0  0  0  0  0  0  0  0  0
   -1.0132   -1.6845    1.4785 H   0  0  0  0  0  0  0  0  0  0  0  0
    1.0714   -2.2364    0.3918 H   0  0  0  0  0  0  0  0  0  0  0  0
    1.2015   -0.2082    1.7981 H   0  0  0  0  0  0  0  0  0  0  0  0
   -2.8050    0.1509   -1.1622 H   0  0  0  0  0  0  0  0  0  0  0  0
   -1.1711    0.5197   -1.7699 H   0  0  0  0  0  0  0  0  0  0  0  0
   -2.6529   -2.0140   -0.0619 H   0  0  0  0  0  0  0  0  0  0  0  0
   -2.0058    0.0057    2.2005 H   0  0  0  0  0  0  0  0  0  0  0  0
    0.2351   -2.0215   -1.7426 H   0  0  0  0  0  0  0  0  0  0  0  0
   -2.7529    2.1700   -0.0952 H   0  0  0  0  0  0  0  0  0  0  0  0
    4.1339    0.0393   -0.1465 H   0  0  0  0  0  0  0  0  0  0  0  0
  1  9  1  0  0  0  0
  1 11  1  0  0  0  0
  2  8  1  0  0  0  0
  2 19  1  0  0  0  0
  3  9  1  0  0  0  0
  3 20  1  0  0  0  0
  4 10  1  0  0  0  0
  4 21  1  0  0  0  0
  5 12  1  0  0  0  0
  5 22  1  0  0  0  0
  6 13  1  0  0  0  0
  6 23  1  0  0  0  0
  7 13  2  0  0  0  0
  8  9  1  0  0  0  0
  8 10  1  0  0  0  0
  8 14  1  0  0  0  0
  9 12  1  0  0  0  0
 10 11  1  0  0  0  0
 10 15  1  0  0  0  0
 11 13  1  0  0  0  0
 11 16  1  0  0  0  0
 12 17  1  0  0  0  0
 12 18  1  0  0  0  0
M  END
> <PUBCHEM_COMPOUND_CID>
439264

> <PUBCHEM_CONFORMER_RMSD>
0.6

> <PUBCHEM_CONFORMER_DIVERSEORDER>
3
8
6
10
14
5
12
4
1
7
9
11
2
13

> <PUBCHEM_MMFF94_PARTIAL_CHARGES>
18
1 -0.56
10 0.28
11 0.34
12 0.28
13 0.66
19 0.4
2 -0.68
20 0.4
21 0.4
22 0.4
23 0.5
3 -0.68
4 -0.68
5 -0.68
6 -0.65
7 -0.57
8 0.28
9 0.56

> <PUBCHEM_EFFECTIVE_ROTOR_COUNT>
3

> <PUBCHEM_PHARMACOPHORE_FEATURES>
13
1 1 acceptor
1 2 acceptor
1 2 donor
1 3 acceptor
1 3 donor
1 4 acceptor
1 4 donor
1 5 acceptor
1 5 donor
1 6 acceptor
1 7 acceptor
3 6 7 13 anion
5 1 8 9 10 11 rings

> <PUBCHEM_HEAVY_ATOM_COUNT>
13

> <PUBCHEM_ATOM_DEF_STEREO_COUNT>
3

> <PUBCHEM_ATOM_UDEF_STEREO_COUNT>
1

> <PUBCHEM_BOND_DEF_STEREO_COUNT>
0

> <PUBCHEM_BOND_UDEF_STEREO_COUNT>
0

> <PUBCHEM_ISOTOPIC_ATOM_COUNT>
0

> <PUBCHEM_COMPONENT_COUNT>
1

> <PUBCHEM_CACTVS_TAUTO_COUNT>
1

> <PUBCHEM_CONFORMER_ID>
0006B3E000000003

> <PUBCHEM_MMFF94_ENERGY>
31.8043

> <PUBCHEM_FEATURE_SELFOVERLAP>
66.099

> <PUBCHEM_SHAPE_FINGERPRINT>
11206711 2 18263932033466280351
12138202 97 18410299145910087486
12932764 1 18272365352587482568
13024252 1 16845020008783603531
15775835 57 18269545062059668212
16945 1 18411138077856382098
20653085 51 18272654566720830960
21028194 46 18334864921677433960
21040471 1 18338251460403590977
23235685 24 18187080689006157617
23552423 10 18341896243093078266
23559900 14 18113902685242758338
241688 4 15672397897428091193
2748010 2 18261393282956468288
369184 2 17988362568215801618
5084963 1 18337678507634952034

> <PUBCHEM_SHAPE_MULTIPOLES>
226.45
3.59
1.85
1.06
1.89
0.1
0.02
-1.07
0.04
-0.74
0.46
-0.39
-0.03
0.1

> <PUBCHEM_SHAPE_SELFOVERLAP>
465.763

> <PUBCHEM_SHAPE_VOLUME>
129.6

> <PUBCHEM_COORDINATE_TYPE>
2
5
10

$$$$

