442222
  -OEChem-07051212573D

 46 50  0     1  0  0  0  0  0999 V2000
    4.7418   -1.0954    1.4507 O   0  0  0  0  0  0  0  0  0  0  0  0
    4.5373   -2.0881   -0.7350 O   0  0  0  0  0  0  0  0  0  0  0  0
   -4.3427   -1.2381   -1.2826 O   0  0  0  0  0  0  0  0  0  0  0  0
   -4.1362   -1.5758    1.4665 O   0  0  0  0  0  0  0  0  0  0  0  0
    0.3212    2.6559   -0.4622 N   0  0  1  0  0  0  0  0  0  0  0  0
    0.8866    1.9653    0.7138 C   0  0  1  0  0  0  0  0  0  0  0  0
   -0.3852    1.6754   -1.3106 C   0  0  1  0  0  0  0  0  0  0  0  0
    0.6922    0.7865   -1.9749 C   0  0  0  0  0  0  0  0  0  0  0  0
   -0.2125    1.3550    1.6143 C   0  0  0  0  0  0  0  0  0  0  0  0
    1.8707    0.8824    0.2765 C   0  0  0  0  0  0  0  0  0  0  0  0
   -1.3997    0.8237   -0.5593 C   0  0  0  0  0  0  0  0  0  0  0  0
    1.7450    0.2886   -1.0081 C   0  0  0  0  0  0  0  0  0  0  0  0
   -1.2899    0.6411    0.8319 C   0  0  0  0  0  0  0  0  0  0  0  0
   -0.4952    3.8184   -0.1271 C   0  0  0  0  0  0  0  0  0  0  0  0
    2.8735    0.4463    1.1574 C   0  0  0  0  0  0  0  0  0  0  0  0
   -2.4319    0.1813   -1.2582 C   0  0  0  0  0  0  0  0  0  0  0  0
    2.6307   -0.7225   -1.4089 C   0  0  0  0  0  0  0  0  0  0  0  0
   -2.2208   -0.1631    1.5022 C   0  0  0  0  0  0  0  0  0  0  0  0
    3.7205   -0.5555    0.7309 C   0  0  0  0  0  0  0  0  0  0  0  0
    3.6026   -1.1231   -0.5158 C   0  0  0  0  0  0  0  0  0  0  0  0
   -3.3486   -0.6236   -0.5824 C   0  0  0  0  0  0  0  0  0  0  0  0
   -3.2434   -0.7952    0.7959 C   0  0  0  0  0  0  0  0  0  0  0  0
    5.2553   -2.0656    0.5153 C   0  0  0  0  0  0  0  0  0  0  0  0
   -4.0637   -2.5382   -1.7986 C   0  0  0  0  0  0  0  0  0  0  0  0
   -5.3077   -0.9359    1.9684 C   0  0  0  0  0  0  0  0  0  0  0  0
    1.4627    2.6950    1.2988 H   0  0  0  0  0  0  0  0  0  0  0  0
   -0.9127    2.2086   -2.1133 H   0  0  0  0  0  0  0  0  0  0  0  0
    1.2119    1.3767   -2.7420 H   0  0  0  0  0  0  0  0  0  0  0  0
    0.2262   -0.0690   -2.4796 H   0  0  0  0  0  0  0  0  0  0  0  0
   -0.6963    2.1568    2.1870 H   0  0  0  0  0  0  0  0  0  0  0  0
    0.2278    0.6610    2.3412 H   0  0  0  0  0  0  0  0  0  0  0  0
    0.0762    4.5226    0.4873 H   0  0  0  0  0  0  0  0  0  0  0  0
   -1.4172    3.5683    0.4073 H   0  0  0  0  0  0  0  0  0  0  0  0
   -0.7734    4.3575   -1.0395 H   0  0  0  0  0  0  0  0  0  0  0  0
    2.9791    0.8799    2.1463 H   0  0  0  0  0  0  0  0  0  0  0  0
   -2.5187    0.3083   -2.3349 H   0  0  0  0  0  0  0  0  0  0  0  0
    2.5570   -1.1755   -2.3921 H   0  0  0  0  0  0  0  0  0  0  0  0
   -2.1477   -0.2944    2.5793 H   0  0  0  0  0  0  0  0  0  0  0  0
    5.1953   -3.0599    0.9725 H   0  0  0  0  0  0  0  0  0  0  0  0
    6.3072   -1.8345    0.3119 H   0  0  0  0  0  0  0  0  0  0  0  0
   -3.2294   -2.4990   -2.5061 H   0  0  0  0  0  0  0  0  0  0  0  0
   -4.9527   -2.8957   -2.3253 H   0  0  0  0  0  0  0  0  0  0  0  0
   -3.8349   -3.2344   -0.9856 H   0  0  0  0  0  0  0  0  0  0  0  0
   -5.0405   -0.1617    2.6947 H   0  0  0  0  0  0  0  0  0  0  0  0
   -5.9214   -1.6891    2.4698 H   0  0  0  0  0  0  0  0  0  0  0  0
   -5.8890   -0.4991    1.1502 H   0  0  0  0  0  0  0  0  0  0  0  0
  1 19  1  0  0  0  0
  1 23  1  0  0  0  0
  2 20  1  0  0  0  0
  2 23  1  0  0  0  0
  3 21  1  0  0  0  0
  3 24  1  0  0  0  0
  4 22  1  0  0  0  0
  4 25  1  0  0  0  0
  5  6  1  0  0  0  0
  5  7  1  0  0  0  0
  5 14  1  0  0  0  0
  6  9  1  0  0  0  0
  6 10  1  0  0  0  0
  6 26  1  0  0  0  0
  7  8  1  0  0  0  0
  7 11  1  0  0  0  0
  7 27  1  0  0  0  0
  8 12  1  0  0  0  0
  8 28  1  0  0  0  0
  8 29  1  0  0  0  0
  9 13  1  0  0  0  0
  9 30  1  0  0  0  0
  9 31  1  0  0  0  0
 10 12  1  0  0  0  0
 10 15  2  0  0  0  0
 11 13  1  0  0  0  0
 11 16  2  0  0  0  0
 12 17  2  0  0  0  0
 13 18  2  0  0  0  0
 14 32  1  0  0  0  0
 14 33  1  0  0  0  0
 14 34  1  0  0  0  0
 15 19  1  0  0  0  0
 15 35  1  0  0  0  0
 16 21  1  0  0  0  0
 16 36  1  0  0  0  0
 17 20  1  0  0  0  0
 17 37  1  0  0  0  0
 18 22  1  0  0  0  0
 18 38  1  0  0  0  0
 19 20  2  0  0  0  0
 21 22  2  0  0  0  0
 23 39  1  0  0  0  0
 23 40  1  0  0  0  0
 24 41  1  0  0  0  0
 24 42  1  0  0  0  0
 24 43  1  0  0  0  0
 25 44  1  0  0  0  0
 25 45  1  0  0  0  0
 25 46  1  0  0  0  0
M  END
> <PUBCHEM_COMPOUND_CID>
442222

> <PUBCHEM_CONFORMER_RMSD>
0.6

> <PUBCHEM_CONFORMER_DIVERSEORDER>
1
2

> <PUBCHEM_MMFF94_PARTIAL_CHARGES>
29
1 -0.36
10 -0.14
11 -0.14
12 -0.14
13 -0.14
14 0.27
15 -0.15
16 -0.15
17 -0.15
18 -0.15
19 0.08
2 -0.36
20 0.08
21 0.08
22 0.08
23 0.56
24 0.28
25 0.28
3 -0.36
35 0.15
36 0.15
37 0.15
38 0.15
4 -0.36
5 -0.81
6 0.41
7 0.41
8 0.14
9 0.14

> <PUBCHEM_EFFECTIVE_ROTOR_COUNT>
3.2

> <PUBCHEM_PHARMACOPHORE_FEATURES>
10
1 1 acceptor
1 2 acceptor
1 3 acceptor
1 4 acceptor
1 5 cation
5 1 2 19 20 23 rings
6 10 12 15 17 19 20 rings
6 11 13 16 18 21 22 rings
6 5 6 7 8 10 12 rings
6 5 6 7 9 11 13 rings

> <PUBCHEM_HEAVY_ATOM_COUNT>
25

> <PUBCHEM_ATOM_DEF_STEREO_COUNT>
2

> <PUBCHEM_ATOM_UDEF_STEREO_COUNT>
0

> <PUBCHEM_BOND_DEF_STEREO_COUNT>
0

> <PUBCHEM_BOND_UDEF_STEREO_COUNT>
0

> <PUBCHEM_ISOTOPIC_ATOM_COUNT>
0

> <PUBCHEM_COMPONENT_COUNT>
1

> <PUBCHEM_CACTVS_TAUTO_COUNT>
1

> <PUBCHEM_CONFORMER_ID>
0006BF6E00000001

> <PUBCHEM_MMFF94_ENERGY>
95.6733

> <PUBCHEM_FEATURE_SELFOVERLAP>
52.253

> <PUBCHEM_SHAPE_FINGERPRINT>
10042902 136 18040707044344933342
10498660 4 9799688169104200859
11578080 2 17968110719395195561
11796584 16 17846786221087001763
11961588 58 11167644440062887394
12363563 72 18413669114810515678
12553582 1 18336533954548136023
12633257 1 17385438821463057442
12892183 10 15791730801957106558
12969540 114 9079114449286109323
13103583 49 17603862303931737067
13134695 92 18269558247667471453
13544653 18 18411986853572612636
13583140 156 15574727918565676819
13911987 19 16481297087460892252
14178342 30 16515951593860920399
14251764 30 16701151120614396603
14341114 328 16732983098360555490
14713325 29 10086767417011957516
14848178 5 18411145714050369126
14950920 106 16660653998308428514
15209294 21 4750863832838900906
16752209 62 17417543521785883456
17349148 13 16443335456822488649
17357779 13 18131075943396189450
17921350 177 9576842584218860287
17980427 23 14273742854506913761
1813 80 18336253587709943101
193927 3 18272085019808542750
19862831 5 15482675688438866812
20626108 58 18189629262770787423
20775438 99 16982362037972138355
20775530 9 18055353797589614738
21033648 29 16952229127607308105
21069387 34 18264494996821567907
21421861 104 17969762138757139257
221357 26 15339113512084226403
22182313 1 16844172230043331809
22393880 68 15195291910497463358
23559900 14 17132117918704154100
2637199 183 12823302299052328209
2838139 119 11240003369070067582
3027735 51 17986114234362031907
392239 28 17895205415172389754
394222 165 17099455675433081785
427121 178 6122231999388843965
46194498 28 16199294374964550871
463206 1 18272094876722174851
7064713 232 16515397469648807647
7808743 9 7564759296680648010
7970288 3 18272079500596947587

> <PUBCHEM_SHAPE_MULTIPOLES>
486.03
9.72
2.83
1.95
0.76
1.67
0
-10.42
2.69
0.04
-0.54
-1.32
-0.4
-0.33

> <PUBCHEM_SHAPE_SELFOVERLAP>
1086.841

> <PUBCHEM_SHAPE_VOLUME>
258.8

> <PUBCHEM_COORDINATE_TYPE>
2
5
10

$$$$

