17395288
  -OEChem-06241222493D

 32 34  0     0  0  0  0  0  0999 V2000
   -0.7725   -0.3995    0.5390 O   0  0  0  0  0  0  0  0  0  0  0  0
    5.4855    0.3308    1.0054 O   0  0  0  0  0  0  0  0  0  0  0  0
    5.4868    0.1779   -1.2265 N   0  0  0  0  0  0  0  0  0  0  0  0
    6.7931    0.3539   -0.8096 N   0  0  0  0  0  0  0  0  0  0  0  0
   -6.5412    2.6550   -0.0137 N   0  0  0  0  0  0  0  0  0  0  0  0
   -1.5473   -0.5673   -0.6446 C   0  0  0  0  0  0  0  0  0  0  0  0
   -3.0078   -0.6292   -0.3488 C   0  0  0  0  0  0  0  0  0  0  0  0
    0.5797   -0.2612    0.3744 C   0  0  0  0  0  0  0  0  0  0  0  0
    3.3345    0.0225    0.0390 C   0  0  0  0  0  0  0  0  0  0  0  0
    1.4040   -0.0928    1.4869 C   0  0  0  0  0  0  0  0  0  0  0  0
    1.1327   -0.2875   -0.9060 C   0  0  0  0  0  0  0  0  0  0  0  0
    2.7813    0.0489    1.3193 C   0  0  0  0  0  0  0  0  0  0  0  0
    2.5103   -0.1457   -1.0737 C   0  0  0  0  0  0  0  0  0  0  0  0
   -3.7663    0.5413   -0.3296 C   0  0  0  0  0  0  0  0  0  0  0  0
   -3.6150   -1.8580   -0.0898 C   0  0  0  0  0  0  0  0  0  0  0  0
   -5.1320    0.4829   -0.0516 C   0  0  0  0  0  0  0  0  0  0  0  0
   -4.9806   -1.9163    0.1883 C   0  0  0  0  0  0  0  0  0  0  0  0
    4.7589    0.1704   -0.1343 C   0  0  0  0  0  0  0  0  0  0  0  0
   -5.7390   -0.7460    0.2075 C   0  0  0  0  0  0  0  0  0  0  0  0
   -5.9097    1.6815   -0.0307 C   0  0  0  0  0  0  0  0  0  0  0  0
    6.7445    0.4383    0.4993 C   0  0  0  0  0  0  0  0  0  0  0  0
   -1.2583   -1.4945   -1.1583 H   0  0  0  0  0  0  0  0  0  0  0  0
   -1.3885    0.2754   -1.3314 H   0  0  0  0  0  0  0  0  0  0  0  0
    0.9781   -0.0713    2.4863 H   0  0  0  0  0  0  0  0  0  0  0  0
    0.5582   -0.4209   -1.8158 H   0  0  0  0  0  0  0  0  0  0  0  0
    3.3913    0.1782    2.2096 H   0  0  0  0  0  0  0  0  0  0  0  0
    2.9215   -0.1704   -2.0801 H   0  0  0  0  0  0  0  0  0  0  0  0
   -3.2904    1.4994   -0.5287 H   0  0  0  0  0  0  0  0  0  0  0  0
   -3.0348   -2.7770   -0.0990 H   0  0  0  0  0  0  0  0  0  0  0  0
   -5.4531   -2.8731    0.3907 H   0  0  0  0  0  0  0  0  0  0  0  0
   -6.8024   -0.8079    0.4263 H   0  0  0  0  0  0  0  0  0  0  0  0
    7.5504    0.5777    1.2026 H   0  0  0  0  0  0  0  0  0  0  0  0
  1  6  1  0  0  0  0
  1  8  1  0  0  0  0
  2 18  1  0  0  0  0
  2 21  1  0  0  0  0
  3  4  1  0  0  0  0
  3 18  2  0  0  0  0
  4 21  2  0  0  0  0
  5 20  3  0  0  0  0
  6  7  1  0  0  0  0
  6 22  1  0  0  0  0
  6 23  1  0  0  0  0
  7 14  2  0  0  0  0
  7 15  1  0  0  0  0
  8 10  2  0  0  0  0
  8 11  1  0  0  0  0
  9 12  2  0  0  0  0
  9 13  1  0  0  0  0
  9 18  1  0  0  0  0
 10 12  1  0  0  0  0
 10 24  1  0  0  0  0
 11 13  2  0  0  0  0
 11 25  1  0  0  0  0
 12 26  1  0  0  0  0
 13 27  1  0  0  0  0
 14 16  1  0  0  0  0
 14 28  1  0  0  0  0
 15 17  2  0  0  0  0
 15 29  1  0  0  0  0
 16 19  2  0  0  0  0
 16 20  1  0  0  0  0
 17 19  1  0  0  0  0
 17 30  1  0  0  0  0
 19 31  1  0  0  0  0
 21 32  1  0  0  0  0
M  END
> <PUBCHEM_COMPOUND_CID>
17395288

> <PUBCHEM_CONFORMER_RMSD>
0.6

> <PUBCHEM_CONFORMER_DIVERSEORDER>
1
57
93
79
42
113
90
8
87
77
80
107
97
67
43
35
89
81
73
60
13
94
27
68
131
38
78
15
132
59
44
21
28
62
99
2
112
133
36
75
55
76
116
4
108
6
100
10
56
37
5
11
61
19
7
121
88
14
46
65
96
129
58
31
106
9
66
126
34
3
45
12
30
22
92
117
29
98
72
83
26
74
104
114
54
111
25
85
70
95
128
71
122
118
50
82
130
102
119
115
125
64
86
103
69
120
52
127
84
49
105
110
53
124
109
101
123
91
51
20
48
63
33
39
17
47
18
32
40
23
16
41
24

> <PUBCHEM_MMFF94_PARTIAL_CHARGES>
30
1 -0.36
10 -0.15
11 -0.15
12 -0.15
13 -0.15
14 -0.15
15 -0.15
16 0.07
17 -0.15
18 0.43
19 -0.15
2 -0.28
20 0.48
21 0.33
24 0.15
25 0.15
26 0.15
27 0.15
28 0.15
29 0.15
3 -0.34
30 0.15
31 0.15
32 0.15
4 -0.34
5 -0.56
6 0.42
7 -0.14
8 0.08
9 0.05

> <PUBCHEM_EFFECTIVE_ROTOR_COUNT>
4

> <PUBCHEM_PHARMACOPHORE_FEATURES>
5
1 1 acceptor
1 5 acceptor
5 2 3 4 18 21 rings
6 7 14 15 16 17 19 rings
6 8 9 10 11 12 13 rings

> <PUBCHEM_HEAVY_ATOM_COUNT>
21

> <PUBCHEM_ATOM_DEF_STEREO_COUNT>
0

> <PUBCHEM_ATOM_UDEF_STEREO_COUNT>
0

> <PUBCHEM_BOND_DEF_STEREO_COUNT>
0

> <PUBCHEM_BOND_UDEF_STEREO_COUNT>
0

> <PUBCHEM_ISOTOPIC_ATOM_COUNT>
0

> <PUBCHEM_COMPONENT_COUNT>
1

> <PUBCHEM_CACTVS_TAUTO_COUNT>
1

> <PUBCHEM_CONFORMER_ID>
01096E5800000001

> <PUBCHEM_MMFF94_ENERGY>
52.3177

> <PUBCHEM_FEATURE_SELFOVERLAP>
25.371

> <PUBCHEM_SHAPE_FINGERPRINT>
10411042 1 18050567336686938607
11315181 36 17917429788112176487
11545043 162 18187085001575595307
11796584 16 18333167276225957502
12091667 2 18408041788962582919
12236239 1 17917994979273563778
125118 31 18408605834407465128
12516196 113 6050445907740781618
12616971 3 16773790394573098671
12838862 33 16081380661612707866
13631057 29 17274256120607359819
13668630 136 5400797263377660501
14251752 14 18260548952394414466
14251764 18 17846499232136764603
14729087 3 18261116287277615745
14849402 71 17345461605591505836
14933364 13 18409446964564281264
15183329 4 14851606595946614404
15461852 350 18113624456992253151
155225 5 18119809364181075857
15778101 99 18410854382924930793
16079462 125 17749398065283163185
16120349 189 17985277511500758845
17093844 174 18260552203900922571
17844677 252 18336542708018493681
19489759 90 18408886214056219107
20281389 69 18410857672305643561
20681677 155 18342739615597986731
21033648 29 17749967599774773449
21267235 1 15267070281149763250
21521721 280 16200144366736625460
21641784 216 16878484766710668096
21709351 56 17095532751326046277
21792961 116 17603860144063957294
220451 1 17704356567541610322
22224240 67 15410892946501357561
2297311 6 18334292042366162371
23035841 295 17989491814155583266
23081809 10 17918280835349200538
23402539 116 18343023267832745262
23522609 53 17489005128966535084
23536379 177 18413671309860778250
23559900 14 15647347298605402371
300161 21 18335142011555981895
3014965 18 17168420567069523142
3545911 37 17967532363862723603
4073 2 18131063822956834858
4340502 62 18407762521989757894
5104073 3 16127806345441001032
542803 24 17989489610446879147
5758199 1 17274821342249768128
6327066 14 18127417959481520149

> <PUBCHEM_SHAPE_MULTIPOLES>
405.49
19.19
1.5
1.08
6.52
0.42
0.11
6.1
-0.67
-4.41
0.01
1.3
-0.02
0.2

> <PUBCHEM_SHAPE_SELFOVERLAP>
887.85

> <PUBCHEM_SHAPE_VOLUME>
218.6

> <PUBCHEM_COORDINATE_TYPE>
2
5
10

$$$$

