56928160
  -OEChem-07051213152D

 65 70  0     1  0  0  0  0  0999 V2000
    6.6720    1.3208    0.0000 O   0  0  0  0  0  0  0  0  0  0  0  0
    5.1900   -1.9501    0.0000 O   0  0  0  0  0  0  0  0  0  0  0  0
    5.0503    2.0207    0.0000 O   0  0  0  0  0  0  0  0  0  0  0  0
    8.7721    1.3607    0.0000 O   0  0  0  0  0  0  0  0  0  0  0  0
    2.5853    1.3867    0.0000 O   0  0  0  0  0  0  0  0  0  0  0  0
    2.9884   -1.7821    0.0000 N   0  0  3  0  0  0  0  0  0  0  0  0
    5.9164    0.5207    0.0000 C   0  0  1  0  0  0  0  0  0  0  0  0
    6.8598    0.8012    0.0000 C   0  0  2  0  0  0  0  0  0  0  0  0
    8.5578   -0.5295    0.0000 C   0  0  1  0  0  0  0  0  0  0  0  0
    5.0503   -0.9793    0.0000 C   0  0  2  0  0  0  0  0  0  0  0  0
    4.1843   -0.4793    0.0000 C   0  0  2  0  0  0  0  0  0  0  0  0
    5.9164   -0.4793    0.0000 C   0  0  0  0  0  0  0  0  0  0  0  0
    5.0503    1.0207    0.0000 C   0  0  1  0  0  0  0  0  0  0  0  0
    7.7723    1.3417    0.0000 C   0  0  3  0  0  0  0  0  0  0  0  0
    6.3864    1.6702    0.0000 C   0  0  0  0  0  0  0  0  0  0  0  0
    4.1843    0.5207    0.0000 C   0  0  0  0  0  0  0  0  0  0  0  0
    8.5578    0.5710    0.0000 C   0  0  0  0  0  0  0  0  0  0  0  0
    7.2378    2.1745    0.0000 C   0  0  0  0  0  0  0  0  0  0  0  0
    7.7723   -1.3002    0.0000 C   0  0  0  0  0  0  0  0  0  0  0  0
    6.6720   -1.2793    0.0000 C   0  0  0  0  0  0  0  0  0  0  0  0
    7.3381   -0.0769    0.0000 C   0  0  0  0  0  0  0  0  0  0  0  0
    6.2985   -0.1514    0.0000 C   0  0  0  0  0  0  0  0  0  0  0  0
    4.2772    1.0156    0.0000 C   0  0  0  0  0  0  0  0  0  0  0  0
    3.2737   -0.8437    0.0000 C   0  0  0  0  0  0  0  0  0  0  0  0
    5.7573    1.2452    0.0000 C   0  0  0  0  0  0  0  0  0  0  0  0
    3.5383    1.6896    0.0000 C   0  0  2  0  0  0  0  0  0  0  0  0
    4.5200   -2.6663    0.0000 C   0  0  0  0  0  0  0  0  0  0  0  0
    3.5420   -2.5917    0.0000 C   0  0  0  0  0  0  0  0  0  0  0  0
    2.0000   -1.9338    0.0000 C   0  0  0  0  0  0  0  0  0  0  0  0
    3.7526    2.6663    0.0000 C   0  0  0  0  0  0  0  0  0  0  0  0
    9.3415   -0.8585    0.0000 H   0  0  0  0  0  0  0  0  0  0  0  0
    5.5873    1.3307    0.0000 H   0  0  0  0  0  0  0  0  0  0  0  0
    6.0768    2.2074    0.0000 H   0  0  0  0  0  0  0  0  0  0  0  0
    5.8455    1.3671    0.0000 H   0  0  0  0  0  0  0  0  0  0  0  0
    3.9722    1.1033    0.0000 H   0  0  0  0  0  0  0  0  0  0  0  0
    3.5737    0.4131    0.0000 H   0  0  0  0  0  0  0  0  0  0  0  0
    9.1572    0.4124    0.0000 H   0  0  0  0  0  0  0  0  0  0  0  0
    8.8644    1.1099    0.0000 H   0  0  0  0  0  0  0  0  0  0  0  0
    7.7635    2.5031    0.0000 H   0  0  0  0  0  0  0  0  0  0  0  0
    6.9155    2.7041    0.0000 H   0  0  0  0  0  0  0  0  0  0  0  0
    7.6023   -1.8965    0.0000 H   0  0  0  0  0  0  0  0  0  0  0  0
    8.3052   -1.6170    0.0000 H   0  0  0  0  0  0  0  0  0  0  0  0
    6.4212   -1.8463    0.0000 H   0  0  0  0  0  0  0  0  0  0  0  0
    6.7937   -0.3735    0.0000 H   0  0  0  0  0  0  0  0  0  0  0  0
    7.6347   -0.6214    0.0000 H   0  0  0  0  0  0  0  0  0  0  0  0
    7.8826    0.2197    0.0000 H   0  0  0  0  0  0  0  0  0  0  0  0
    6.6032   -0.6914    0.0000 H   0  0  0  0  0  0  0  0  0  0  0  0
    6.8590    0.1136    0.0000 H   0  0  0  0  0  0  0  0  0  0  0  0
    3.1778   -0.2312    0.0000 H   0  0  0  0  0  0  0  0  0  0  0  0
    2.6552   -0.8004    0.0000 H   0  0  0  0  0  0  0  0  0  0  0  0
    6.0673    1.7821    0.0000 H   0  0  0  0  0  0  0  0  0  0  0  0
    5.5873    2.3307    0.0000 H   0  0  0  0  0  0  0  0  0  0  0  0
    3.0803    2.1074    0.0000 H   0  0  0  0  0  0  0  0  0  0  0  0
    9.0718    1.9034    0.0000 H   0  0  0  0  0  0  0  0  0  0  0  0
    4.3359   -3.2584    0.0000 H   0  0  0  0  0  0  0  0  0  0  0  0
    5.0559   -2.9780    0.0000 H   0  0  0  0  0  0  0  0  0  0  0  0
    2.9650   -2.8185    0.0000 H   0  0  0  0  0  0  0  0  0  0  0  0
    3.6342   -3.2048    0.0000 H   0  0  0  0  0  0  0  0  0  0  0  0
    1.9059   -1.3210    0.0000 H   0  0  0  0  0  0  0  0  0  0  0  0
    1.3872   -2.0279    0.0000 H   0  0  0  0  0  0  0  0  0  0  0  0
    2.0941   -2.5466    0.0000 H   0  0  0  0  0  0  0  0  0  0  0  0
    4.3582    2.5335    0.0000 H   0  0  0  0  0  0  0  0  0  0  0  0
    3.8854    3.2720    0.0000 H   0  0  0  0  0  0  0  0  0  0  0  0
    3.1470    2.7992    0.0000 H   0  0  0  0  0  0  0  0  0  0  0  0
    2.1272    1.8045    0.0000 H   0  0  0  0  0  0  0  0  0  0  0  0
  7  1  1  1  0  0  0
  1 14  1  0  0  0  0
 10  2  1  1  0  0  0
  2 27  1  0  0  0  0
 13  3  1  1  0  0  0
  3 52  1  0  0  0  0
  4 14  1  0  0  0  0
  4 54  1  0  0  0  0
 26  5  1  1  0  0  0
  5 65  1  0  0  0  0
  6 24  1  0  0  0  0
  6 28  1  0  0  0  0
  6 29  1  0  0  0  0
  7  8  1  0  0  0  0
  7 12  1  0  0  0  0
  7 13  1  0  0  0  0
  8  9  1  0  0  0  0
  8 15  1  0  0  0  0
  8 21  1  6  0  0  0
  9 17  1  0  0  0  0
  9 19  1  0  0  0  0
  9 31  1  6  0  0  0
 10 11  1  0  0  0  0
 10 12  1  0  0  0  0
 10 22  1  0  0  0  0
 11 16  1  6  0  0  0
 11 23  1  0  0  0  0
 11 24  1  0  0  0  0
 12 20  2  0  0  0  0
 13 16  1  0  0  0  0
 13 32  1  0  0  0  0
 14 17  1  0  0  0  0
 14 18  1  0  0  0  0
 15 18  1  0  0  0  0
 15 33  1  0  0  0  0
 15 34  1  0  0  0  0
 16 35  1  0  0  0  0
 16 36  1  0  0  0  0
 17 37  1  0  0  0  0
 17 38  1  0  0  0  0
 18 39  1  0  0  0  0
 18 40  1  0  0  0  0
 19 20  1  0  0  0  0
 19 41  1  0  0  0  0
 19 42  1  0  0  0  0
 20 43  1  0  0  0  0
 21 44  1  0  0  0  0
 21 45  1  0  0  0  0
 21 46  1  0  0  0  0
 22 25  1  0  0  0  0
 22 47  1  0  0  0  0
 22 48  1  0  0  0  0
 23 25  2  0  0  0  0
 23 26  1  0  0  0  0
 24 49  1  0  0  0  0
 24 50  1  0  0  0  0
 25 51  1  0  0  0  0
 26 30  1  0  0  0  0
 26 53  1  0  0  0  0
 27 28  1  0  0  0  0
 27 55  1  0  0  0  0
 27 56  1  0  0  0  0
 28 57  1  0  0  0  0
 28 58  1  0  0  0  0
 29 59  1  0  0  0  0
 29 60  1  0  0  0  0
 29 61  1  0  0  0  0
 30 62  1  0  0  0  0
 30 63  1  0  0  0  0
 30 64  1  0  0  0  0
M  END
> <PUBCHEM_COMPOUND_CID>
56928160

> <PUBCHEM_COMPOUND_CANONICALIZED>
1

> <PUBCHEM_CACTVS_COMPLEXITY>
857

> <PUBCHEM_CACTVS_HBOND_ACCEPTOR>
6

> <PUBCHEM_CACTVS_HBOND_DONOR>
3

> <PUBCHEM_CACTVS_ROTATABLE_BOND>
1

> <PUBCHEM_CACTVS_SUBSKEYS>
AAADcfB6OAAAAAAAAAAAAAAAAAAAAQAAAAA0YIEABYAQAECAAAAAHgAACAAAD1ThgAYCCAMABgCAAiBCAAAAAAAgAAAACAAIAAgTFAIAoQAHUAAHwACfMAPw8P4PgAAAAAAAAADCAAYQADCAAAAAAAAAAA==

> <PUBCHEM_IUPAC_INCHI>
InChI=1S/C24H35NO5/c1-15(26)17-6-7-23-18-5-4-16-12-22(28)9-8-20(16,2)24(18,30-22)19(27)13-21(17,23)14-25(3)10-11-29-23/h5-6,15-16,19,26-28H,4,7-14H2,1-3H3/t15-,16+,19+,20-,21-,22?,23-,24-/m0/s1

> <PUBCHEM_IUPAC_INCHIKEY>
ZKCSFQZJDZSMCH-WHYVOJEVSA-N

> <PUBCHEM_XLOGP3_AA>
-0.1

> <PUBCHEM_EXACT_MASS>
417.251523

> <PUBCHEM_MOLECULAR_FORMULA>
C24H35NO5

> <PUBCHEM_MOLECULAR_WEIGHT>
417.5384

> <PUBCHEM_OPENEYE_CAN_SMILES>
CC(C1=CCC23C1(CC(C45C2=CCC6C4(CCC(C6)(O5)O)C)O)CN(CCO3)C)O

> <PUBCHEM_OPENEYE_ISO_SMILES>
C[C@@H](C1=CC[C@@]23[C@@]1(C[C@H]([C@@]45C2=CC[C@H]6[C@@]4(CCC(C6)(O5)O)C)O)CN(CCO3)C)O

> <PUBCHEM_CACTVS_TPSA>
82.4

> <PUBCHEM_MONOISOTOPIC_WEIGHT>
417.251523

> <PUBCHEM_TOTAL_CHARGE>
0

> <PUBCHEM_HEAVY_ATOM_COUNT>
30

> <PUBCHEM_ATOM_DEF_STEREO_COUNT>
7

> <PUBCHEM_ATOM_UDEF_STEREO_COUNT>
1

> <PUBCHEM_BOND_DEF_STEREO_COUNT>
0

> <PUBCHEM_BOND_UDEF_STEREO_COUNT>
0

> <PUBCHEM_ISOTOPIC_ATOM_COUNT>
0

> <PUBCHEM_COMPONENT_COUNT>
1

> <PUBCHEM_CACTVS_TAUTO_COUNT>
1

> <PUBCHEM_COORDINATE_TYPE>
1
5
255

> <PUBCHEM_BONDANNOTATIONS>
7  1  5
11  16  6
10  2  5
13  3  5
14  4  3
26  5  5
8  21  6
9  31  6

$$$$

