5281363
  -OEChem-07051212562D

 81 84  0     1  0  0  0  0  0999 V2000
    4.6727    0.5521    0.0000 O   0  0  0  0  0  0  0  0  0  0  0  0
    3.7277    1.0136    0.0000 O   0  0  0  0  0  0  0  0  0  0  0  0
    4.4549    3.6203    0.0000 O   0  0  0  0  0  0  0  0  0  0  0  0
    5.5568    6.7083    0.0000 O   0  0  0  0  0  0  0  0  0  0  0  0
    5.6594   -0.8714    0.0000 O   0  0  0  0  0  0  0  0  0  0  0  0
    8.6500    5.3395    0.0000 O   0  0  0  0  0  0  0  0  0  0  0  0
    2.7575    2.4484    0.0000 O   0  0  0  0  0  0  0  0  0  0  0  0
    6.3507    1.7152    0.0000 C   0  0  1  0  0  0  0  0  0  0  0  0
    5.4946    1.1218    0.0000 C   0  0  1  0  0  0  0  0  0  0  0  0
    6.4368    0.6766    0.0000 C   0  0  0  0  0  0  0  0  0  0  0  0
    6.2568    2.7526    0.0000 C   0  0  1  0  0  0  0  0  0  0  0  0
    4.5561    1.5737    0.0000 C   0  0  1  0  0  0  0  0  0  0  0  0
    5.3558    3.1864    0.0000 C   0  0  1  0  0  0  0  0  0  0  0  0
    4.4863    2.6130    0.0000 C   0  0  2  0  0  0  0  0  0  0  0  0
    7.4334    0.7591    0.0000 C   0  0  0  0  0  0  0  0  0  0  0  0
    6.0099   -0.2276    0.0000 C   0  0  0  0  0  0  0  0  0  0  0  0
    5.1333    4.1614    0.0000 C   0  0  1  0  0  0  0  0  0  0  0  0
    7.1578    3.1864    0.0000 C   0  0  0  0  0  0  0  0  0  0  0  0
    5.7568    4.9432    0.0000 C   0  0  2  0  0  0  0  0  0  0  0  0
    3.4883    2.5498    0.0000 C   0  0  0  0  0  0  0  0  0  0  0  0
    7.3803    4.1614    0.0000 C   0  0  0  0  0  0  0  0  0  0  0  0
    6.7568    4.9432    0.0000 C   0  0  0  0  0  0  0  0  0  0  0  0
    4.2035    4.5131    0.0000 C   0  0  0  0  0  0  0  0  0  0  0  0
    5.2070    5.7714    0.0000 C   0  0  0  0  0  0  0  0  0  0  0  0
    4.7551   -0.4445    0.0000 C   0  0  0  0  0  0  0  0  0  0  0  0
    4.2490    5.5061    0.0000 C   0  0  0  0  0  0  0  0  0  0  0  0
    2.8284    1.4510    0.0000 C   0  0  0  0  0  0  0  0  0  0  0  0
    8.3552    4.3839    0.0000 C   0  0  0  0  0  0  0  0  0  0  0  0
    3.4672    6.1296    0.0000 C   0  0  0  0  0  0  0  0  0  0  0  0
    3.9332   -1.0142    0.0000 C   0  0  0  0  0  0  0  0  0  0  0  0
    2.0000    0.8908    0.0000 C   0  0  0  0  0  0  0  0  0  0  0  0
    4.0157   -2.0108    0.0000 C   0  0  0  0  0  0  0  0  0  0  0  0
    4.9200   -2.4377    0.0000 C   0  0  0  0  0  0  0  0  0  0  0  0
    5.0024   -3.4343    0.0000 C   0  0  0  0  0  0  0  0  0  0  0  0
    5.9066   -3.8612    0.0000 C   0  0  0  0  0  0  0  0  0  0  0  0
    5.9891   -4.8578    0.0000 C   0  0  0  0  0  0  0  0  0  0  0  0
    6.8934   -5.2847    0.0000 C   0  0  0  0  0  0  0  0  0  0  0  0
    6.9758   -6.2813    0.0000 C   0  0  0  0  0  0  0  0  0  0  0  0
    7.8801   -6.7083    0.0000 C   0  0  0  0  0  0  0  0  0  0  0  0
    7.1975    1.7886    0.0000 H   0  0  0  0  0  0  0  0  0  0  0  0
    6.9962    2.3332    0.0000 H   0  0  0  0  0  0  0  0  0  0  0  0
    3.9991    1.8460    0.0000 H   0  0  0  0  0  0  0  0  0  0  0  0
    4.2894    3.2009    0.0000 H   0  0  0  0  0  0  0  0  0  0  0  0
    7.4845    0.1412    0.0000 H   0  0  0  0  0  0  0  0  0  0  0  0
    8.0513    0.8102    0.0000 H   0  0  0  0  0  0  0  0  0  0  0  0
    7.3823    1.3769    0.0000 H   0  0  0  0  0  0  0  0  0  0  0  0
    5.4492    0.0371    0.0000 H   0  0  0  0  0  0  0  0  0  0  0  0
    5.7452   -0.7883    0.0000 H   0  0  0  0  0  0  0  0  0  0  0  0
    6.5705   -0.4923    0.0000 H   0  0  0  0  0  0  0  0  0  0  0  0
    4.4925    3.6030    0.0000 H   0  0  0  0  0  0  0  0  0  0  0  0
    7.6425    2.7999    0.0000 H   0  0  0  0  0  0  0  0  0  0  0  0
    6.1586    5.6922    0.0000 H   0  0  0  0  0  0  0  0  0  0  0  0
    3.4491    3.1686    0.0000 H   0  0  0  0  0  0  0  0  0  0  0  0
    2.8695    2.5106    0.0000 H   0  0  0  0  0  0  0  0  0  0  0  0
    3.5274    1.9311    0.0000 H   0  0  0  0  0  0  0  0  0  0  0  0
    3.8366    3.5740    0.0000 H   0  0  0  0  0  0  0  0  0  0  0  0
    7.3154    5.2122    0.0000 H   0  0  0  0  0  0  0  0  0  0  0  0
    6.6188    5.5477    0.0000 H   0  0  0  0  0  0  0  0  0  0  0  0
    3.6855    4.1724    0.0000 H   0  0  0  0  0  0  0  0  0  0  0  0
    8.3861    3.7647    0.0000 H   0  0  0  0  0  0  0  0  0  0  0  0
    8.9704    4.3068    0.0000 H   0  0  0  0  0  0  0  0  0  0  0  0
    3.8537    6.6144    0.0000 H   0  0  0  0  0  0  0  0  0  0  0  0
    2.9824    6.5162    0.0000 H   0  0  0  0  0  0  0  0  0  0  0  0
    3.0806    5.6449    0.0000 H   0  0  0  0  0  0  0  0  0  0  0  0
    3.3726   -0.7495    0.0000 H   0  0  0  0  0  0  0  0  0  0  0  0
    1.6527    1.4044    0.0000 H   0  0  0  0  0  0  0  0  0  0  0  0
    1.4864    0.5435    0.0000 H   0  0  0  0  0  0  0  0  0  0  0  0
    2.3473    0.3772    0.0000 H   0  0  0  0  0  0  0  0  0  0  0  0
    9.2544    5.4774    0.0000 H   0  0  0  0  0  0  0  0  0  0  0  0
    3.5061   -2.3640    0.0000 H   0  0  0  0  0  0  0  0  0  0  0  0
    5.4295   -2.0845    0.0000 H   0  0  0  0  0  0  0  0  0  0  0  0
    4.4928   -3.7875    0.0000 H   0  0  0  0  0  0  0  0  0  0  0  0
    6.4162   -3.5080    0.0000 H   0  0  0  0  0  0  0  0  0  0  0  0
    5.4795   -5.2110    0.0000 H   0  0  0  0  0  0  0  0  0  0  0  0
    7.5107   -5.3417    0.0000 H   0  0  0  0  0  0  0  0  0  0  0  0
    7.0567   -4.6866    0.0000 H   0  0  0  0  0  0  0  0  0  0  0  0
    6.3584   -6.2244    0.0000 H   0  0  0  0  0  0  0  0  0  0  0  0
    6.8124   -6.8794    0.0000 H   0  0  0  0  0  0  0  0  0  0  0  0
    7.6154   -7.2689    0.0000 H   0  0  0  0  0  0  0  0  0  0  0  0
    8.4407   -6.9730    0.0000 H   0  0  0  0  0  0  0  0  0  0  0  0
    8.1448   -6.1476    0.0000 H   0  0  0  0  0  0  0  0  0  0  0  0
  9  1  1  1  0  0  0
  1 25  1  0  0  0  0
 12  2  1  6  0  0  0
  2 27  1  0  0  0  0
 13  3  1  1  0  0  0
  3 56  1  0  0  0  0
  4 24  2  0  0  0  0
  5 25  2  0  0  0  0
  6 28  1  0  0  0  0
  6 69  1  0  0  0  0
  7 27  2  0  0  0  0
  8  9  1  0  0  0  0
  8 10  1  0  0  0  0
  8 11  1  0  0  0  0
  8 40  1  1  0  0  0
  9 10  1  0  0  0  0
  9 12  1  0  0  0  0
 10 15  1  0  0  0  0
 10 16  1  0  0  0  0
 11 13  1  0  0  0  0
 11 18  1  0  0  0  0
 11 41  1  6  0  0  0
 12 14  1  0  0  0  0
 12 42  1  0  0  0  0
 13 14  1  0  0  0  0
 13 17  1  0  0  0  0
 14 20  1  1  0  0  0
 14 43  1  0  0  0  0
 15 44  1  0  0  0  0
 15 45  1  0  0  0  0
 15 46  1  0  0  0  0
 16 47  1  0  0  0  0
 16 48  1  0  0  0  0
 16 49  1  0  0  0  0
 17 19  1  0  0  0  0
 17 23  1  0  0  0  0
 17 50  1  1  0  0  0
 18 21  2  0  0  0  0
 18 51  1  0  0  0  0
 19 22  1  0  0  0  0
 19 24  1  0  0  0  0
 19 52  1  6  0  0  0
 20 53  1  0  0  0  0
 20 54  1  0  0  0  0
 20 55  1  0  0  0  0
 21 22  1  0  0  0  0
 21 28  1  0  0  0  0
 22 57  1  0  0  0  0
 22 58  1  0  0  0  0
 23 26  2  0  0  0  0
 23 59  1  0  0  0  0
 24 26  1  0  0  0  0
 25 30  1  0  0  0  0
 26 29  1  0  0  0  0
 27 31  1  0  0  0  0
 28 60  1  0  0  0  0
 28 61  1  0  0  0  0
 29 62  1  0  0  0  0
 29 63  1  0  0  0  0
 29 64  1  0  0  0  0
 30 32  2  0  0  0  0
 30 65  1  0  0  0  0
 31 66  1  0  0  0  0
 31 67  1  0  0  0  0
 31 68  1  0  0  0  0
 32 33  1  0  0  0  0
 32 70  1  0  0  0  0
 33 34  2  0  0  0  0
 33 71  1  0  0  0  0
 34 35  1  0  0  0  0
 34 72  1  0  0  0  0
 35 36  2  0  0  0  0
 35 73  1  0  0  0  0
 36 37  1  0  0  0  0
 36 74  1  0  0  0  0
 37 38  1  0  0  0  0
 37 75  1  0  0  0  0
 37 76  1  0  0  0  0
 38 39  1  0  0  0  0
 38 77  1  0  0  0  0
 38 78  1  0  0  0  0
 39 79  1  0  0  0  0
 39 80  1  0  0  0  0
 39 81  1  0  0  0  0
M  END
> <PUBCHEM_COMPOUND_CID>
5281363

> <PUBCHEM_COMPOUND_CANONICALIZED>
1

> <PUBCHEM_CACTVS_COMPLEXITY>
1170

> <PUBCHEM_CACTVS_HBOND_ACCEPTOR>
7

> <PUBCHEM_CACTVS_HBOND_DONOR>
2

> <PUBCHEM_CACTVS_ROTATABLE_BOND>
10

> <PUBCHEM_CACTVS_SUBSKEYS>
AAADcfB8OAAAAAAAAAAAAAAAGAAAAQAAAAAwAAAABggAAACAAAAAGgAACAAAD1SggAICCAAABgCIAqDSCAAAAAAgAAAICAEAAEgJFBIAIQACUAAFwAAKsYPK7PyPgAAAAAAAAADCAAYQADCAAAAAAAAAAA==

> <PUBCHEM_IUPAC_INCHI>
InChI=1S/C32H42O7/c1-7-8-9-10-11-12-13-14-26(35)39-32-28(30(32,5)6)25-17-22(18-33)16-23-24(15-19(2)27(23)36)31(25,37)20(3)29(32)38-21(4)34/h9-15,17,20,23-25,28-29,33,37H,7-8,16,18H2,1-6H3/b10-9+,12-11+,14-13-/t20-,23+,24-,25+,28-,29-,31+,32-/m1/s1

> <PUBCHEM_IUPAC_INCHIKEY>
HZIPPZZEKIZPCY-PYANXVGJSA-N

> <PUBCHEM_XLOGP3_AA>
4.2

> <PUBCHEM_EXACT_MASS>
538.293054

> <PUBCHEM_MOLECULAR_FORMULA>
C32H42O7

> <PUBCHEM_MOLECULAR_WEIGHT>
538.67168

> <PUBCHEM_OPENEYE_CAN_SMILES>
CCCC=CC=CC=CC(=O)OC12C(C1(C)C)C3C=C(CC4C(C3(C(C2OC(=O)C)C)O)C=C(C4=O)C)CO

> <PUBCHEM_OPENEYE_ISO_SMILES>
CCC/C=C/C=C/C=C\C(=O)O[C@@]12[C@@H](C1(C)C)[C@@H]3C=C(C[C@H]4[C@H]([C@]3([C@@H]([C@H]2OC(=O)C)C)O)C=C(C4=O)C)CO

> <PUBCHEM_CACTVS_TPSA>
110

> <PUBCHEM_MONOISOTOPIC_WEIGHT>
538.293054

> <PUBCHEM_TOTAL_CHARGE>
0

> <PUBCHEM_HEAVY_ATOM_COUNT>
39

> <PUBCHEM_ATOM_DEF_STEREO_COUNT>
8

> <PUBCHEM_ATOM_UDEF_STEREO_COUNT>
0

> <PUBCHEM_BOND_DEF_STEREO_COUNT>
3

> <PUBCHEM_BOND_UDEF_STEREO_COUNT>
0

> <PUBCHEM_ISOTOPIC_ATOM_COUNT>
0

> <PUBCHEM_COMPONENT_COUNT>
1

> <PUBCHEM_CACTVS_TAUTO_COUNT>
7

> <PUBCHEM_COORDINATE_TYPE>
1
5
255

> <PUBCHEM_BONDANNOTATIONS>
9  1  5
11  41  6
14  20  5
17  50  5
19  52  6
12  2  6
13  3  5
8  40  5

$$$$

