8865
  -OEChem-06261203112D

 11  8  0     0  0  0  0  0  0999 V2000
    2.0000    0.2500    0.0000 Na  0  3  0  0  0  0  0  0  0  0  0  0
    7.1962    0.2500    0.0000 Na  0  3  0  0  0  0  0  0  0  0  0  0
    2.8660    0.7500    0.0000 O   0  5  0  0  0  0  0  0  0  0  0  0
    6.3301    0.7500    0.0000 O   0  5  0  0  0  0  0  0  0  0  0  0
    3.7320   -0.7500    0.0000 O   0  0  0  0  0  0  0  0  0  0  0  0
    5.4641   -0.7500    0.0000 O   0  0  0  0  0  0  0  0  0  0  0  0
    4.5981    0.7500    0.0000 C   0  0  0  0  0  0  0  0  0  0  0  0
    3.7320    0.2500    0.0000 C   0  0  0  0  0  0  0  0  0  0  0  0
    5.4641    0.2500    0.0000 C   0  0  0  0  0  0  0  0  0  0  0  0
    4.9966    1.2250    0.0000 H   0  0  0  0  0  0  0  0  0  0  0  0
    4.1996    1.2250    0.0000 H   0  0  0  0  0  0  0  0  0  0  0  0
  3  8  1  0  0  0  0
  4  9  1  0  0  0  0
  5  8  2  0  0  0  0
  6  9  2  0  0  0  0
  7  8  1  0  0  0  0
  7  9  1  0  0  0  0
  7 10  1  0  0  0  0
  7 11  1  0  0  0  0
M  CHG  4   1   1   2   1   3  -1   4  -1
M  END
> <PUBCHEM_COMPOUND_CID>
8865

> <PUBCHEM_COMPOUND_CANONICALIZED>
1

> <PUBCHEM_CACTVS_COMPLEXITY>
72.1

> <PUBCHEM_CACTVS_HBOND_ACCEPTOR>
4

> <PUBCHEM_CACTVS_HBOND_DONOR>
0

> <PUBCHEM_CACTVS_ROTATABLE_BOND>
0

> <PUBCHEM_CACTVS_SUBSKEYS>
AAADcQBAODAAAAAAAAAAAAAAAAAAAAAAAAAAAAAAAAAAAAAAAAAAGgAAAAAACACAgAAACAAAAAAIAACQCAAAAAAAAAAAAAEAAAAAAAQIAAAAAAABIAAAAAAAAAAAAAAAAAAAAAAAAAAAAAAAAAAAAAAAAA==

> <PUBCHEM_IUPAC_OPENEYE_NAME>
disodium propanedioate

> <PUBCHEM_IUPAC_CAS_NAME>
disodium propanedioate

> <PUBCHEM_IUPAC_NAME>
disodium propanedioate

> <PUBCHEM_IUPAC_SYSTEMATIC_NAME>
disodium propanedioate

> <PUBCHEM_IUPAC_TRADITIONAL_NAME>
disodium malonate

> <PUBCHEM_IUPAC_INCHI>
InChI=1S/C3H4O4.2Na/c4-2(5)1-3(6)7;;/h1H2,(H,4,5)(H,6,7);;/q;2*+1/p-2

> <PUBCHEM_IUPAC_INCHIKEY>
PRWXGRGLHYDWPS-UHFFFAOYSA-L

> <PUBCHEM_EXACT_MASS>
147.974847

> <PUBCHEM_MOLECULAR_FORMULA>
C3H2Na2O4

> <PUBCHEM_MOLECULAR_WEIGHT>
148.025119

> <PUBCHEM_OPENEYE_CAN_SMILES>
C(C(=O)[O-])C(=O)[O-].[Na+].[Na+]

> <PUBCHEM_OPENEYE_ISO_SMILES>
C(C(=O)[O-])C(=O)[O-].[Na+].[Na+]

> <PUBCHEM_CACTVS_TPSA>
80.3

> <PUBCHEM_MONOISOTOPIC_WEIGHT>
147.974847

> <PUBCHEM_TOTAL_CHARGE>
0

> <PUBCHEM_HEAVY_ATOM_COUNT>
9

> <PUBCHEM_ATOM_DEF_STEREO_COUNT>
0

> <PUBCHEM_ATOM_UDEF_STEREO_COUNT>
0

> <PUBCHEM_BOND_DEF_STEREO_COUNT>
0

> <PUBCHEM_BOND_UDEF_STEREO_COUNT>
0

> <PUBCHEM_ISOTOPIC_ATOM_COUNT>
0

> <PUBCHEM_COMPONENT_COUNT>
3

> <PUBCHEM_CACTVS_TAUTO_COUNT>
1

> <PUBCHEM_COORDINATE_TYPE>
1
5
255

$$$$

