3824
  -OEChem-06251223423D

 42 44  0     0  0  0  0  0  0999 V2000
    0.6040   -2.9679    0.2567 O   0  0  0  0  0  0  0  0  0  0  0  0
    1.6532    1.2019    2.1976 O   0  0  0  0  0  0  0  0  0  0  0  0
    5.3311   -1.0033   -0.5648 O   0  0  0  0  0  0  0  0  0  0  0  0
   -0.4881   -0.8527    0.3198 N   0  0  0  0  0  0  0  0  0  0  0  0
   -0.1183    0.4233    0.8104 N   0  0  0  0  0  0  0  0  0  0  0  0
    1.5318   -1.0904    1.4542 C   0  0  0  0  0  0  0  0  0  0  0  0
    2.9247   -1.1471    0.8535 C   0  0  0  0  0  0  0  0  0  0  0  0
    0.5276   -1.7883    0.5673 C   0  0  0  0  0  0  0  0  0  0  0  0
    1.0451    0.3330    1.5901 C   0  0  0  0  0  0  0  0  0  0  0  0
    2.9817   -0.4353   -0.4950 C   0  0  0  0  0  0  0  0  0  0  0  0
   -1.8280   -1.2386    0.0128 C   0  0  0  0  0  0  0  0  0  0  0  0
   -0.5689    1.6591    0.2543 C   0  0  0  0  0  0  0  0  0  0  0  0
    4.3735   -0.4492   -1.1023 C   0  0  0  0  0  0  0  0  0  0  0  0
   -2.0760   -2.4423   -0.6507 C   0  0  0  0  0  0  0  0  0  0  0  0
   -0.2984    2.8628    0.9094 C   0  0  0  0  0  0  0  0  0  0  0  0
   -2.8956   -0.4143    0.3753 C   0  0  0  0  0  0  0  0  0  0  0  0
   -1.2813    1.6693   -0.9472 C   0  0  0  0  0  0  0  0  0  0  0  0
    4.5286    0.2625   -2.4214 C   0  0  0  0  0  0  0  0  0  0  0  0
   -3.3849   -2.8198   -0.9505 C   0  0  0  0  0  0  0  0  0  0  0  0
   -0.7381    4.0699    0.3662 C   0  0  0  0  0  0  0  0  0  0  0  0
   -4.2045   -0.7919    0.0756 C   0  0  0  0  0  0  0  0  0  0  0  0
   -1.7209    2.8767   -1.4903 C   0  0  0  0  0  0  0  0  0  0  0  0
   -4.4491   -1.9946   -0.5873 C   0  0  0  0  0  0  0  0  0  0  0  0
   -1.4492    4.0769   -0.8336 C   0  0  0  0  0  0  0  0  0  0  0  0
    1.5046   -1.5600    2.4435 H   0  0  0  0  0  0  0  0  0  0  0  0
    3.2399   -2.1911    0.7322 H   0  0  0  0  0  0  0  0  0  0  0  0
    3.6418   -0.6814    1.5413 H   0  0  0  0  0  0  0  0  0  0  0  0
    2.3117   -0.9142   -1.2170 H   0  0  0  0  0  0  0  0  0  0  0  0
    2.6958    0.6172   -0.3972 H   0  0  0  0  0  0  0  0  0  0  0  0
   -1.2864   -3.0973   -0.9995 H   0  0  0  0  0  0  0  0  0  0  0  0
    0.2044    2.9137    1.8679 H   0  0  0  0  0  0  0  0  0  0  0  0
   -2.7708    0.4891    0.9627 H   0  0  0  0  0  0  0  0  0  0  0  0
   -1.4474    0.7789   -1.5438 H   0  0  0  0  0  0  0  0  0  0  0  0
    4.2776    1.3189   -2.2996 H   0  0  0  0  0  0  0  0  0  0  0  0
    3.8737   -0.1980   -3.1652 H   0  0  0  0  0  0  0  0  0  0  0  0
    5.5638    0.1824   -2.7645 H   0  0  0  0  0  0  0  0  0  0  0  0
   -3.5757   -3.7511   -1.4757 H   0  0  0  0  0  0  0  0  0  0  0  0
   -0.5364    5.0041    0.8823 H   0  0  0  0  0  0  0  0  0  0  0  0
   -5.0349   -0.1585    0.3739 H   0  0  0  0  0  0  0  0  0  0  0  0
   -2.2585    2.8846   -2.4341 H   0  0  0  0  0  0  0  0  0  0  0  0
   -5.4684   -2.2893   -0.8191 H   0  0  0  0  0  0  0  0  0  0  0  0
   -1.7900    5.0170   -1.2575 H   0  0  0  0  0  0  0  0  0  0  0  0
  1  8  2  0  0  0  0
  2  9  2  0  0  0  0
  3 13  2  0  0  0  0
  4  5  1  0  0  0  0
  4  8  1  0  0  0  0
  4 11  1  0  0  0  0
  5  9  1  0  0  0  0
  5 12  1  0  0  0  0
  6  7  1  0  0  0  0
  6  8  1  0  0  0  0
  6  9  1  0  0  0  0
  6 25  1  0  0  0  0
  7 10  1  0  0  0  0
  7 26  1  0  0  0  0
  7 27  1  0  0  0  0
 10 13  1  0  0  0  0
 10 28  1  0  0  0  0
 10 29  1  0  0  0  0
 11 14  2  0  0  0  0
 11 16  1  0  0  0  0
 12 15  2  0  0  0  0
 12 17  1  0  0  0  0
 13 18  1  0  0  0  0
 14 19  1  0  0  0  0
 14 30  1  0  0  0  0
 15 20  1  0  0  0  0
 15 31  1  0  0  0  0
 16 21  2  0  0  0  0
 16 32  1  0  0  0  0
 17 22  2  0  0  0  0
 17 33  1  0  0  0  0
 18 34  1  0  0  0  0
 18 35  1  0  0  0  0
 18 36  1  0  0  0  0
 19 23  2  0  0  0  0
 19 37  1  0  0  0  0
 20 24  2  0  0  0  0
 20 38  1  0  0  0  0
 21 23  1  0  0  0  0
 21 39  1  0  0  0  0
 22 24  1  0  0  0  0
 22 40  1  0  0  0  0
 23 41  1  0  0  0  0
 24 42  1  0  0  0  0
M  END
> <PUBCHEM_COMPOUND_CID>
3824

> <PUBCHEM_CONFORMER_RMSD>
0.8

> <PUBCHEM_CONFORMER_DIVERSEORDER>
1
25
5
24
10
19
13
16
11
3
21
8
20
27
4
18
7
2
6
22
31
17
15
30
28
14
26
23
9
29
12

> <PUBCHEM_MMFF94_PARTIAL_CHARGES>
33
1 -0.57
10 0.06
11 0.12
12 0.12
13 0.45
14 -0.15
15 -0.15
16 -0.15
17 -0.15
18 0.06
19 -0.15
2 -0.57
20 -0.15
21 -0.15
22 -0.15
23 -0.15
24 -0.15
3 -0.57
30 0.15
31 0.15
32 0.15
33 0.15
37 0.15
38 0.15
39 0.15
4 -0.18
40 0.15
41 0.15
42 0.15
5 -0.18
6 0.12
8 0.57
9 0.57

> <PUBCHEM_EFFECTIVE_ROTOR_COUNT>
5.6

> <PUBCHEM_PHARMACOPHORE_FEATURES>
7
1 1 acceptor
1 2 acceptor
1 3 acceptor
1 6 anion
5 4 5 6 8 9 rings
6 11 14 16 19 21 23 rings
6 12 15 17 20 22 24 rings

> <PUBCHEM_HEAVY_ATOM_COUNT>
24

> <PUBCHEM_ATOM_DEF_STEREO_COUNT>
0

> <PUBCHEM_ATOM_UDEF_STEREO_COUNT>
0

> <PUBCHEM_BOND_DEF_STEREO_COUNT>
0

> <PUBCHEM_BOND_UDEF_STEREO_COUNT>
0

> <PUBCHEM_ISOTOPIC_ATOM_COUNT>
0

> <PUBCHEM_COMPONENT_COUNT>
1

> <PUBCHEM_CACTVS_TAUTO_COUNT>
6

> <PUBCHEM_CONFORMER_ID>
00000EF000000001

> <PUBCHEM_MMFF94_ENERGY>
83.6329

> <PUBCHEM_FEATURE_SELFOVERLAP>
35.52

> <PUBCHEM_SHAPE_FINGERPRINT>
10369192 42 17171259313067326512
10759866 29 17843971578857380603
10764073 3 14061448165277477674
10871710 139 18200855362284413652
11640471 11 17843955086578589764
12035759 4 18131067155740225412
12054548 360 18411144623307426329
12553582 1 18340779165144033131
12788726 201 18343021129002465266
13009979 54 17914917536949630082
13140716 1 18194151635726505257
13149001 5 17768522798785888986
14251751 93 18269829990469361182
14251757 5 18340773744963884181
14347332 77 18337950212010165406
14363568 33 18127400156314160681
14790565 3 17975972386811528193
14910302 57 17896580955784459702
14955137 171 18195785424364756875
15210252 30 17987804003287177620
15475509 8 18115569522852610095
17980427 26 15216140708428630904
1813 80 18337395915940461475
20600515 1 18120676642035181851
20691752 17 18270408178471110571
21285901 2 17968644003961549942
21330990 113 17604693569045047215
21641784 216 18130498725418960884
22182313 1 18043557012869967904
22907989 373 18268718379607775005
23352939 185 18189323602812335680
23419403 2 17676499315065121720
23557571 272 18336839623629519448
23558518 356 17912367829208450427
23559900 14 17972889064386481127
23566358 27 17690834567654316147
23598288 3 18056198205017162723
238 59 16756360146292491869
266924 1 17988369298767522130
2748010 2 18047506428287285969
283562 15 18341891917860447242
352729 6 17544490003561479403
4017518 198 17035286979295202700
4409770 3 18122928661266562987
532947 4 17907294356029386452
6287921 2 17685504143561101643
7164475 11 18340771550219836142
7364860 26 17832714474196423497

> <PUBCHEM_SHAPE_MULTIPOLES>
466.34
7.48
4.59
1.65
5.51
5.02
-0.12
-5.79
-4.14
-3.85
-0.71
1.62
0.42
-0.21

> <PUBCHEM_SHAPE_SELFOVERLAP>
1005.366

> <PUBCHEM_SHAPE_VOLUME>
254.3

> <PUBCHEM_COORDINATE_TYPE>
2
5
10

$$$$

