7123
  -OEChem-07051213043D

 21 22  0     0  0  0  0  0  0999 V2000
   -3.7668    0.7189   -0.0001 O   0  0  0  0  0  0  0  0  0  0  0  0
   -3.3437   -1.5144   -0.0001 O   0  0  0  0  0  0  0  0  0  0  0  0
    0.8290   -0.5711    0.0001 C   0  0  0  0  0  0  0  0  0  0  0  0
    1.1783    0.8003    0.0001 C   0  0  0  0  0  0  0  0  0  0  0  0
   -0.5277   -0.9341    0.0001 C   0  0  0  0  0  0  0  0  0  0  0  0
   -1.5257    0.0409    0.0004 C   0  0  0  0  0  0  0  0  0  0  0  0
    0.1607    1.7683   -0.0001 C   0  0  0  0  0  0  0  0  0  0  0  0
    1.8467   -1.5389   -0.0001 C   0  0  0  0  0  0  0  0  0  0  0  0
    2.5349    1.1635   -0.0002 C   0  0  0  0  0  0  0  0  0  0  0  0
   -1.1822    1.3896    0.0001 C   0  0  0  0  0  0  0  0  0  0  0  0
    3.1894   -1.1601    0.0000 C   0  0  0  0  0  0  0  0  0  0  0  0
    3.5329    0.1886    0.0000 C   0  0  0  0  0  0  0  0  0  0  0  0
   -2.9260   -0.3517   -0.0003 C   0  0  0  0  0  0  0  0  0  0  0  0
   -0.7984   -1.9888    0.0000 H   0  0  0  0  0  0  0  0  0  0  0  0
    0.4069    2.8282   -0.0003 H   0  0  0  0  0  0  0  0  0  0  0  0
    1.6017   -2.5990   -0.0001 H   0  0  0  0  0  0  0  0  0  0  0  0
    2.8265    2.2118   -0.0003 H   0  0  0  0  0  0  0  0  0  0  0  0
   -1.9263    2.1811   -0.0002 H   0  0  0  0  0  0  0  0  0  0  0  0
    3.9668   -1.9186   -0.0001 H   0  0  0  0  0  0  0  0  0  0  0  0
    4.5784    0.4829   -0.0001 H   0  0  0  0  0  0  0  0  0  0  0  0
   -4.7083    0.4435    0.0000 H   0  0  0  0  0  0  0  0  0  0  0  0
  1 13  1  0  0  0  0
  1 21  1  0  0  0  0
  2 13  2  0  0  0  0
  3  4  1  0  0  0  0
  3  5  1  0  0  0  0
  3  8  2  0  0  0  0
  4  7  1  0  0  0  0
  4  9  2  0  0  0  0
  5  6  2  0  0  0  0
  5 14  1  0  0  0  0
  6 10  1  0  0  0  0
  6 13  1  0  0  0  0
  7 10  2  0  0  0  0
  7 15  1  0  0  0  0
  8 11  1  0  0  0  0
  8 16  1  0  0  0  0
  9 12  1  0  0  0  0
  9 17  1  0  0  0  0
 10 18  1  0  0  0  0
 11 12  2  0  0  0  0
 11 19  1  0  0  0  0
 12 20  1  0  0  0  0
M  END
> <PUBCHEM_COMPOUND_CID>
7123

> <PUBCHEM_CONFORMER_RMSD>
0.4

> <PUBCHEM_CONFORMER_DIVERSEORDER>
1
2

> <PUBCHEM_MMFF94_PARTIAL_CHARGES>
19
1 -0.65
10 -0.15
11 -0.15
12 -0.15
13 0.63
14 0.15
15 0.15
16 0.15
17 0.15
18 0.15
19 0.15
2 -0.57
20 0.15
21 0.5
5 -0.15
6 0.09
7 -0.15
8 -0.15
9 -0.15

> <PUBCHEM_EFFECTIVE_ROTOR_COUNT>
1

> <PUBCHEM_PHARMACOPHORE_FEATURES>
5
1 1 acceptor
1 2 acceptor
3 1 2 13 anion
6 3 4 5 6 7 10 rings
6 3 4 8 9 11 12 rings

> <PUBCHEM_HEAVY_ATOM_COUNT>
13

> <PUBCHEM_ATOM_DEF_STEREO_COUNT>
0

> <PUBCHEM_ATOM_UDEF_STEREO_COUNT>
0

> <PUBCHEM_BOND_DEF_STEREO_COUNT>
0

> <PUBCHEM_BOND_UDEF_STEREO_COUNT>
0

> <PUBCHEM_ISOTOPIC_ATOM_COUNT>
0

> <PUBCHEM_COMPONENT_COUNT>
1

> <PUBCHEM_CACTVS_TAUTO_COUNT>
1

> <PUBCHEM_CONFORMER_ID>
00001BD300000001

> <PUBCHEM_MMFF94_ENERGY>
39.7852

> <PUBCHEM_FEATURE_SELFOVERLAP>
25.456

> <PUBCHEM_SHAPE_FINGERPRINT>
10219947 1 18333167267092002246
10608611 8 18411986866252110957
10967382 1 18338799017199627878
11132069 177 18409172116489824554
11471102 20 18411142445553298597
11543360 7 15697708216828499686
11769659 78 18411986870525712858
11806522 49 18266464200566836687
12032990 46 18410568479072170318
12932764 1 17346608494844533291
13296908 3 18411418405992539023
14144814 61 18408039619449937667
14251717 144 18338240370819404487
14325111 11 18410573968008576673
14576447 43 18044669606862989719
15196674 1 18410855451585758438
15442244 35 18121216742888818146
15536298 74 18333731316989528936
16945 1 18410855434690855776
17844478 74 18060134353739523637
18186145 218 17846502547150085575
193761 8 17690280834029980518
200 152 18113628888786611285
20201158 50 18413670218495973426
20645477 70 18409171043017513287
20871998 22 18261946465975222374
21267235 1 18410283705560797215
21501502 16 18339075024973160112
21501925 9 18410583859323599250
23402539 116 18410584984979661646
23402655 69 18409733988528020861
23463225 33 18411418423151153356
23552423 10 18272085045636063444
23559900 14 18338241582675428130
2748010 2 18338521961913154532
3312278 4 18410290311415281153
5104073 3 18410856555355405258
528886 8 18409453574297280458
53812653 166 18261680276934785344
581208 293 18410015399248883904
7364860 26 18263926527582431448
8809292 202 18272645753390177451

> <PUBCHEM_SHAPE_MULTIPOLES>
255.8
5.83
1.74
0.6
1.87
0.11
0
-1.11
0
-0.14
0
-0.05
0.01
0

> <PUBCHEM_SHAPE_SELFOVERLAP>
564.341

> <PUBCHEM_SHAPE_VOLUME>
138.3

> <PUBCHEM_COORDINATE_TYPE>
2
5
10

$$$$

