6325831
  -OEChem-07051212552D

 39 40  0     1  0  0  0  0  0999 V2000
    3.1812    3.6407    0.0000 O   0  0  0  0  0  0  0  0  0  0  0  0
    6.7722    2.2408    0.0000 O   0  5  0  0  0  0  0  0  0  0  0  0
    6.2370    0.5935    0.0000 O   0  0  0  0  0  0  0  0  0  0  0  0
    2.5369   -2.7071    0.0000 O   0  0  0  0  0  0  0  0  0  0  0  0
    3.4030   -4.2071    0.0000 O   0  0  0  0  0  0  0  0  0  0  0  0
    7.7331   -2.7071    0.0000 O   0  0  0  0  0  0  0  0  0  0  0  0
    6.8671   -4.2071    0.0000 O   0  0  0  0  0  0  0  0  0  0  0  0
    4.2690    1.2929    0.0000 N   0  3  0  0  0  0  0  0  0  0  0  0
    5.1350   -3.2071    0.0000 N   0  0  0  0  0  0  0  0  0  0  0  0
    5.0780    1.8807    0.0000 C   0  0  1  0  0  0  0  0  0  0  0  0
    4.7690    2.8317    0.0000 C   0  0  0  0  0  0  0  0  0  0  0  0
    3.7690    2.8317    0.0000 C   0  0  2  0  0  0  0  0  0  0  0  0
    3.4600    1.8807    0.0000 C   0  0  0  0  0  0  0  0  0  0  0  0
    4.2690    0.2929    0.0000 C   0  0  0  0  0  0  0  0  0  0  0  0
    6.0291    1.5716    0.0000 C   0  0  0  0  0  0  0  0  0  0  0  0
    4.2690   -1.7071    0.0000 C   0  0  0  0  0  0  0  0  0  0  0  0
    5.1350   -1.2071    0.0000 C   0  0  0  0  0  0  0  0  0  0  0  0
    5.1350   -0.2071    0.0000 C   0  0  0  0  0  0  0  0  0  0  0  0
    4.2690   -2.7071    0.0000 C   0  0  1  0  0  0  0  0  0  0  0  0
    6.0010   -1.7071    0.0000 C   0  0  0  0  0  0  0  0  0  0  0  0
    6.0010   -2.7071    0.0000 C   0  0  0  0  0  0  0  0  0  0  0  0
    3.4030   -3.2071    0.0000 C   0  0  0  0  0  0  0  0  0  0  0  0
    6.8671   -3.2071    0.0000 C   0  0  0  0  0  0  0  0  0  0  0  0
    5.1750    1.2683    0.0000 H   0  0  0  0  0  0  0  0  0  0  0  0
    5.3754    2.9606    0.0000 H   0  0  0  0  0  0  0  0  0  0  0  0
    4.7042    3.4483    0.0000 H   0  0  0  0  0  0  0  0  0  0  0  0
    3.1566    2.7347    0.0000 H   0  0  0  0  0  0  0  0  0  0  0  0
    2.8936    2.1328    0.0000 H   0  0  0  0  0  0  0  0  0  0  0  0
    3.1500    1.3437    0.0000 H   0  0  0  0  0  0  0  0  0  0  0  0
    3.7320   -0.0171    0.0000 H   0  0  0  0  0  0  0  0  0  0  0  0
    4.0569   -1.1245    0.0000 H   0  0  0  0  0  0  0  0  0  0  0  0
    3.6584   -1.8148    0.0000 H   0  0  0  0  0  0  0  0  0  0  0  0
    5.6720    0.1029    0.0000 H   0  0  0  0  0  0  0  0  0  0  0  0
    4.2690   -3.3271    0.0000 H   0  0  0  0  0  0  0  0  0  0  0  0
    3.4334    4.2071    0.0000 H   0  0  0  0  0  0  0  0  0  0  0  0
    6.5380   -1.3971    0.0000 H   0  0  0  0  0  0  0  0  0  0  0  0
    5.1350   -3.8271    0.0000 H   0  0  0  0  0  0  0  0  0  0  0  0
    2.0000   -3.0171    0.0000 H   0  0  0  0  0  0  0  0  0  0  0  0
    8.2700   -3.0171    0.0000 H   0  0  0  0  0  0  0  0  0  0  0  0
 12  1  1  6  0  0  0
  1 35  1  0  0  0  0
  2 15  1  0  0  0  0
  3 15  2  0  0  0  0
  4 22  1  0  0  0  0
  4 38  1  0  0  0  0
  5 22  2  0  0  0  0
  6 23  1  0  0  0  0
  6 39  1  0  0  0  0
  7 23  2  0  0  0  0
  8 10  1  0  0  0  0
  8 13  1  0  0  0  0
  8 14  2  0  0  0  0
  9 19  1  0  0  0  0
  9 21  1  0  0  0  0
  9 37  1  0  0  0  0
 10 11  1  0  0  0  0
 10 15  1  1  0  0  0
 10 24  1  0  0  0  0
 11 12  1  0  0  0  0
 11 25  1  0  0  0  0
 11 26  1  0  0  0  0
 12 13  1  0  0  0  0
 12 27  1  0  0  0  0
 13 28  1  0  0  0  0
 13 29  1  0  0  0  0
 14 18  1  0  0  0  0
 14 30  1  0  0  0  0
 16 17  1  0  0  0  0
 16 19  1  0  0  0  0
 16 31  1  0  0  0  0
 16 32  1  0  0  0  0
 17 18  2  0  0  0  0
 17 20  1  0  0  0  0
 18 33  1  0  0  0  0
 19 22  1  6  0  0  0
 19 34  1  0  0  0  0
 20 21  2  0  0  0  0
 20 36  1  0  0  0  0
 21 23  1  0  0  0  0
M  CHG  2   2  -1   8   1
M  END
> <PUBCHEM_COMPOUND_CID>
6325831

> <PUBCHEM_COMPOUND_CANONICALIZED>
1

> <PUBCHEM_CACTVS_COMPLEXITY>
630

> <PUBCHEM_CACTVS_HBOND_ACCEPTOR>
8

> <PUBCHEM_CACTVS_HBOND_DONOR>
4

> <PUBCHEM_CACTVS_ROTATABLE_BOND>
3

> <PUBCHEM_CACTVS_SUBSKEYS>
AAADceBzOAAAAAAAAAAAAAAAAAAAAWAAAAAgAAAAAAAAAAAAAAAAHgAQCAAADDzhgAYACAPAAgCoAjTzTAAAAAAgAgAACIGYAFgKFBIAgSAEUAAGkACYkYLaEQAAAAAAAAAAAAAAAAAAAAAAAAAAAAAAAA==

> <PUBCHEM_IUPAC_OPENEYE_NAME>
(2S,4R)-1-[(2E)-2-[(2S)-2,6-dicarboxy-2,3-dihydro-1H-pyridin-4-ylidene]ethylidene]-4-hydroxy-pyrrolidin-1-ium-2-carboxylate

> <PUBCHEM_IUPAC_CAS_NAME>
(2S,4R)-1-[(2E)-2-[(2S)-2,6-dicarboxy-2,3-dihydro-1H-pyridin-4-ylidene]ethylidene]-4-hydroxy-2-pyrrolidin-1-iumcarboxylate

> <PUBCHEM_IUPAC_NAME>
(2S,4R)-1-[(2E)-2-[(2S)-2,6-dicarboxy-2,3-dihydro-1H-pyridin-4-ylidene]ethylidene]-4-hydroxypyrrolidin-1-ium-2-carboxylate

> <PUBCHEM_IUPAC_SYSTEMATIC_NAME>
(2S,4R)-1-[(2E)-2-[(2S)-2,6-dicarboxy-2,3-dihydro-1H-pyridin-4-ylidene]ethylidene]-4-oxidanyl-pyrrolidin-1-ium-2-carboxylate

> <PUBCHEM_IUPAC_TRADITIONAL_NAME>
(2S,4R)-1-[(2E)-2-[(2S)-2,6-dicarboxy-2,3-dihydro-1H-pyridin-4-ylidene]ethylidene]-4-hydroxy-pyrrolidin-1-ium-2-carboxylate

> <PUBCHEM_IUPAC_INCHI>
InChI=1S/C14H16N2O7/c17-8-5-11(14(22)23)16(6-8)2-1-7-3-9(12(18)19)15-10(4-7)13(20)21/h1-3,8,10-11,17H,4-6H2,(H3,18,19,20,21,22,23)/t8-,10+,11+/m1/s1

> <PUBCHEM_IUPAC_INCHIKEY>
GVARXLMKUDMZFN-MIMYLULJSA-N

> <PUBCHEM_XLOGP3_AA>
-0.6

> <PUBCHEM_EXACT_MASS>
324.095751

> <PUBCHEM_MOLECULAR_FORMULA>
C14H16N2O7

> <PUBCHEM_MOLECULAR_WEIGHT>
324.28604

> <PUBCHEM_OPENEYE_CAN_SMILES>
C1C(C[N+](=CC=C2CC(NC(=C2)C(=O)O)C(=O)O)C1C(=O)[O-])O

> <PUBCHEM_OPENEYE_ISO_SMILES>
C1[C@H](C[N+](=C/C=C/2\C[C@H](NC(=C2)C(=O)O)C(=O)O)[C@@H]1C(=O)[O-])O

> <PUBCHEM_CACTVS_TPSA>
150

> <PUBCHEM_MONOISOTOPIC_WEIGHT>
324.095751

> <PUBCHEM_TOTAL_CHARGE>
0

> <PUBCHEM_HEAVY_ATOM_COUNT>
23

> <PUBCHEM_ATOM_DEF_STEREO_COUNT>
3

> <PUBCHEM_ATOM_UDEF_STEREO_COUNT>
0

> <PUBCHEM_BOND_DEF_STEREO_COUNT>
1

> <PUBCHEM_BOND_UDEF_STEREO_COUNT>
0

> <PUBCHEM_ISOTOPIC_ATOM_COUNT>
0

> <PUBCHEM_COMPONENT_COUNT>
1

> <PUBCHEM_CACTVS_TAUTO_COUNT>
1

> <PUBCHEM_COORDINATE_TYPE>
1
5
255

> <PUBCHEM_BONDANNOTATIONS>
12  1  6
10  15  5
19  22  6

$$$$

