44891335
  -OEChem-07051212513D

 50 55  0     1  0  0  0  0  0999 V2000
   -0.2347   -3.0189   -0.3544 O   0  0  0  0  0  0  0  0  0  0  0  0
    3.1175    2.5954    0.4772 O   0  0  0  0  0  0  0  0  0  0  0  0
    1.3091    0.9979    0.7235 N   0  0  2  0  0  0  0  0  0  0  0  0
   -1.7402    1.6298   -0.0565 N   0  0  2  0  0  0  0  0  0  0  0  0
   -0.9115   -0.6503   -0.0849 C   0  0  1  0  0  0  0  0  0  0  0  0
    1.5253   -1.3189   -0.1287 C   0  0  2  0  0  0  0  0  0  0  0  0
    1.1258   -0.4313    1.1025 C   0  0  2  0  0  0  0  0  0  0  0  0
    0.7665    1.2033   -0.6910 C   0  0  2  0  0  0  0  0  0  0  0  0
    2.5946   -0.4237   -1.0091 C   0  0  1  0  0  0  0  0  0  0  0  0
   -0.7410    0.8193   -0.7396 C   0  0  2  0  0  0  0  0  0  0  0  0
    0.0800   -1.6899   -0.7498 C   0  0  1  0  0  0  0  0  0  0  0  0
   -0.3543   -0.6550    1.3493 C   0  0  0  0  0  0  0  0  0  0  0  0
    1.9204    0.8609   -1.6841 C   0  0  0  0  0  0  0  0  0  0  0  0
    3.6015    0.2506   -0.0333 C   0  0  1  0  0  0  0  0  0  0  0  0
    2.7743    1.2548    0.8346 C   0  0  1  0  0  0  0  0  0  0  0  0
   -2.4022   -0.6383   -0.0279 C   0  0  0  0  0  0  0  0  0  0  0  0
   -2.8253    0.7206    0.0534 C   0  0  0  0  0  0  0  0  0  0  0  0
    4.4036   -0.7527    0.7941 C   0  0  0  0  0  0  0  0  0  0  0  0
   -3.3054   -1.6822    0.0350 C   0  0  0  0  0  0  0  0  0  0  0  0
   -1.9783    3.0163   -0.3885 C   0  0  0  0  0  0  0  0  0  0  0  0
   -4.1696    1.0185    0.2165 C   0  0  0  0  0  0  0  0  0  0  0  0
    5.1877   -1.6991   -0.0938 C   0  0  0  0  0  0  0  0  0  0  0  0
   -4.6583   -1.3709    0.1808 C   0  0  0  0  0  0  0  0  0  0  0  0
   -5.0854   -0.0361    0.2746 C   0  0  0  0  0  0  0  0  0  0  0  0
    2.0285   -2.2313    0.2114 H   0  0  0  0  0  0  0  0  0  0  0  0
    1.6818   -0.6853    2.0117 H   0  0  0  0  0  0  0  0  0  0  0  0
    0.7269    2.2969   -0.7943 H   0  0  0  0  0  0  0  0  0  0  0  0
    3.0772   -1.0358   -1.7760 H   0  0  0  0  0  0  0  0  0  0  0  0
   -1.0094    0.7597   -1.8076 H   0  0  0  0  0  0  0  0  0  0  0  0
    0.0751   -1.6340   -1.8425 H   0  0  0  0  0  0  0  0  0  0  0  0
   -0.7798    0.1146    2.0053 H   0  0  0  0  0  0  0  0  0  0  0  0
   -0.5297   -1.6197    1.8430 H   0  0  0  0  0  0  0  0  0  0  0  0
    1.4811    0.5697   -2.6443 H   0  0  0  0  0  0  0  0  0  0  0  0
    2.6232    1.6800   -1.8664 H   0  0  0  0  0  0  0  0  0  0  0  0
    4.3257    0.8177   -0.6363 H   0  0  0  0  0  0  0  0  0  0  0  0
    3.0586    1.1630    1.8903 H   0  0  0  0  0  0  0  0  0  0  0  0
    3.7775   -1.3320    1.4781 H   0  0  0  0  0  0  0  0  0  0  0  0
    5.1114   -0.1997    1.4242 H   0  0  0  0  0  0  0  0  0  0  0  0
    0.4271   -3.6061   -0.7577 H   0  0  0  0  0  0  0  0  0  0  0  0
   -2.9815   -2.7156   -0.0103 H   0  0  0  0  0  0  0  0  0  0  0  0
   -2.4254    3.1132   -1.3837 H   0  0  0  0  0  0  0  0  0  0  0  0
   -2.6394    3.4892    0.3452 H   0  0  0  0  0  0  0  0  0  0  0  0
   -1.0431    3.5838   -0.3797 H   0  0  0  0  0  0  0  0  0  0  0  0
    4.0723    2.7021    0.6277 H   0  0  0  0  0  0  0  0  0  0  0  0
   -4.5254    2.0405    0.2886 H   0  0  0  0  0  0  0  0  0  0  0  0
    5.7968   -1.1537   -0.8217 H   0  0  0  0  0  0  0  0  0  0  0  0
    5.8637   -2.3072    0.5167 H   0  0  0  0  0  0  0  0  0  0  0  0
    4.5329   -2.3891   -0.6338 H   0  0  0  0  0  0  0  0  0  0  0  0
   -5.3915   -2.1715    0.2342 H   0  0  0  0  0  0  0  0  0  0  0  0
   -6.1442    0.1785    0.3950 H   0  0  0  0  0  0  0  0  0  0  0  0
  1 11  1  0  0  0  0
  1 39  1  0  0  0  0
  2 15  1  0  0  0  0
  2 44  1  0  0  0  0
  3  7  1  0  0  0  0
  3  8  1  0  0  0  0
  3 15  1  0  0  0  0
  4 10  1  0  0  0  0
  4 17  1  0  0  0  0
  4 20  1  0  0  0  0
  5 10  1  0  0  0  0
  5 11  1  0  0  0  0
  5 12  1  0  0  0  0
  5 16  1  0  0  0  0
  6  7  1  0  0  0  0
  6  9  1  0  0  0  0
  6 11  1  0  0  0  0
  6 25  1  0  0  0  0
  7 12  1  0  0  0  0
  7 26  1  0  0  0  0
  8 10  1  0  0  0  0
  8 13  1  0  0  0  0
  8 27  1  0  0  0  0
  9 13  1  0  0  0  0
  9 14  1  0  0  0  0
  9 28  1  0  0  0  0
 10 29  1  0  0  0  0
 11 30  1  0  0  0  0
 12 31  1  0  0  0  0
 12 32  1  0  0  0  0
 13 33  1  0  0  0  0
 13 34  1  0  0  0  0
 14 15  1  0  0  0  0
 14 18  1  0  0  0  0
 14 35  1  0  0  0  0
 15 36  1  0  0  0  0
 16 17  1  0  0  0  0
 16 19  2  0  0  0  0
 17 21  2  0  0  0  0
 18 22  1  0  0  0  0
 18 37  1  0  0  0  0
 18 38  1  0  0  0  0
 19 23  1  0  0  0  0
 19 40  1  0  0  0  0
 20 41  1  0  0  0  0
 20 42  1  0  0  0  0
 20 43  1  0  0  0  0
 21 24  1  0  0  0  0
 21 45  1  0  0  0  0
 22 46  1  0  0  0  0
 22 47  1  0  0  0  0
 22 48  1  0  0  0  0
 23 24  2  0  0  0  0
 23 49  1  0  0  0  0
 24 50  1  0  0  0  0
M  END
> <PUBCHEM_COMPOUND_CID>
44891335

> <PUBCHEM_CONFORMER_RMSD>
0.6

> <PUBCHEM_CONFORMER_DIVERSEORDER>
1

> <PUBCHEM_MMFF94_PARTIAL_CHARGES>
23
1 -0.68
10 0.37
11 0.28
15 0.55
16 -0.14
17 0.1
19 -0.15
2 -0.68
20 0.37
21 -0.15
23 -0.15
24 -0.15
3 -0.81
39 0.4
4 -0.84
40 0.15
44 0.4
45 0.15
49 0.15
5 0.14
50 0.15
7 0.27
8 0.27

> <PUBCHEM_EFFECTIVE_ROTOR_COUNT>
2.2

> <PUBCHEM_PHARMACOPHORE_FEATURES>
11
1 1 acceptor
1 1 donor
1 2 acceptor
1 2 donor
1 22 hydrophobe
1 3 cation
1 4 cation
10 3 5 6 7 8 9 10 11 12 13 rings
5 4 5 10 16 17 rings
6 16 17 19 21 23 24 rings
8 3 6 7 8 9 13 14 15 rings

> <PUBCHEM_HEAVY_ATOM_COUNT>
24

> <PUBCHEM_ATOM_DEF_STEREO_COUNT>
7

> <PUBCHEM_ATOM_UDEF_STEREO_COUNT>
2

> <PUBCHEM_BOND_DEF_STEREO_COUNT>
0

> <PUBCHEM_BOND_UDEF_STEREO_COUNT>
0

> <PUBCHEM_ISOTOPIC_ATOM_COUNT>
0

> <PUBCHEM_COMPONENT_COUNT>
1

> <PUBCHEM_CACTVS_TAUTO_COUNT>
1

> <PUBCHEM_CONFORMER_ID>
02ACFCC700000001

> <PUBCHEM_MMFF94_ENERGY>
142.6219

> <PUBCHEM_FEATURE_SELFOVERLAP>
57.824

> <PUBCHEM_SHAPE_FINGERPRINT>
10062212 137 18342458123573242991
10498660 4 18411984654897731141
10646746 165 18408886252072692753
10863032 1 18190463766268345896
10948715 1 18116716201410206416
10967382 1 18266458702834436061
11132069 177 18341895165182659953
11578080 2 16880491268019805218
12011746 2 18342460386683248671
12236239 1 17846777416377242341
12403259 226 18409735070891622552
12403259 415 18260837016083280328
12403260 363 18408044021823194432
12592029 89 18336826497903897362
12633257 1 18260540164902019705
13140716 1 18411131407967259409
13224815 77 18413388718250443405
13288520 33 18410291458298325038
14178342 30 18267862980941392253
14223421 5 18339081600636824461
14341114 176 18409447003192665408
15196674 1 18410856529896882337
15209289 33 18131350842830659378
15238133 3 16660351610982258801
15536298 74 18410011000944007393
15788980 27 18411980264976937427
16945 1 18338807821835001557
17349148 13 17775565338370611099
17804303 29 18410572907483944582
17862501 102 18272089417606861130
1813 80 17346322626596281614
18186145 218 17749935709400013499
19591789 44 18409732863146498618
20028762 73 18186809049748109839
20905425 154 18195243557820209559
21033648 29 17532677782688011098
21267235 1 18342730819831940555
21421861 104 17986109845395923243
21682296 61 17896312709143944758
22182313 1 18043528519814430542
23402539 116 18342742931222886455
23419403 2 16396947897968579614
23557571 272 18262234533615825933
23559900 14 18408608088489094816
2748010 2 18338513037287377661
296302 2 18041839497923183744
3286 77 18411983568096763012
335352 9 18410575127860711119
350125 39 18411134766294405900
4340502 62 14923939029642904479
465052 167 17989196028337357875
474 4 17344904118656805084
5104073 3 18409726232001486811
69090 78 18335424530061935415
7097593 13 17555191490063266803
7364860 26 18191585461318264575
9981440 41 17193184575188510496

> <PUBCHEM_SHAPE_MULTIPOLES>
472.21
8.76
2.5
1.07
1.12
0.54
0.06
-1.82
-1.06
0.24
0.21
-0.61
0.08
0.22

> <PUBCHEM_SHAPE_SELFOVERLAP>
1054.952

> <PUBCHEM_SHAPE_VOLUME>
248.2

> <PUBCHEM_COORDINATE_TYPE>
2
5
10

$$$$

