44374
  -OEChem-07051213143D

 34 38  0     0  0  0  0  0  0999 V2000
   -3.4265   -2.3336   -0.0012 O   0  5  0  0  0  0  0  0  0  0  0  0
   -1.5060   -3.3970   -0.0007 O   0  0  0  0  0  0  0  0  0  0  0  0
   -2.1795   -2.3475   -0.0004 N   0  3  0  0  0  0  0  0  0  0  0  0
    0.6107    0.1380    0.0000 C   0  0  0  0  0  0  0  0  0  0  0  0
    2.0341    0.1192    0.0000 C   0  0  0  0  0  0  0  0  0  0  0  0
   -0.1047    1.3652   -0.0002 C   0  0  0  0  0  0  0  0  0  0  0  0
   -0.0863   -1.0896    0.0003 C   0  0  0  0  0  0  0  0  0  0  0  0
   -1.5429    1.3467    0.0000 C   0  0  0  0  0  0  0  0  0  0  0  0
    2.7604    1.3295   -0.0003 C   0  0  0  0  0  0  0  0  0  0  0  0
   -2.2168    0.1002    0.0001 C   0  0  0  0  0  0  0  0  0  0  0  0
    2.7369   -1.1104    0.0003 C   0  0  0  0  0  0  0  0  0  0  0  0
   -1.4839   -1.0911    0.0003 C   0  0  0  0  0  0  0  0  0  0  0  0
    0.6648    2.5511   -0.0003 C   0  0  0  0  0  0  0  0  0  0  0  0
    0.6243   -2.2975    0.0008 C   0  0  0  0  0  0  0  0  0  0  0  0
    2.0620    2.5364   -0.0004 C   0  0  0  0  0  0  0  0  0  0  0  0
    2.0177   -2.3088    0.0006 C   0  0  0  0  0  0  0  0  0  0  0  0
    4.1632    1.3020   -0.0003 C   0  0  0  0  0  0  0  0  0  0  0  0
    4.1395   -1.1100    0.0002 C   0  0  0  0  0  0  0  0  0  0  0  0
   -2.3558    2.5089    0.0001 C   0  0  0  0  0  0  0  0  0  0  0  0
   -3.6218    0.0468    0.0004 C   0  0  0  0  0  0  0  0  0  0  0  0
    4.8473    0.0893   -0.0001 C   0  0  0  0  0  0  0  0  0  0  0  0
   -3.7517    2.4423    0.0004 C   0  0  0  0  0  0  0  0  0  0  0  0
   -4.3851    1.2099    0.0005 C   0  0  0  0  0  0  0  0  0  0  0  0
    0.1908    3.5294   -0.0004 H   0  0  0  0  0  0  0  0  0  0  0  0
    0.3376   -3.3318    0.0025 H   0  0  0  0  0  0  0  0  0  0  0  0
    2.5936    3.4858   -0.0006 H   0  0  0  0  0  0  0  0  0  0  0  0
    2.5417   -3.2633    0.0012 H   0  0  0  0  0  0  0  0  0  0  0  0
    4.7359    2.2271   -0.0005 H   0  0  0  0  0  0  0  0  0  0  0  0
    4.6946   -2.0458    0.0005 H   0  0  0  0  0  0  0  0  0  0  0  0
   -1.9160    3.5029    0.0000 H   0  0  0  0  0  0  0  0  0  0  0  0
   -4.3443   -0.7460    0.0019 H   0  0  0  0  0  0  0  0  0  0  0  0
    5.9334    0.0786   -0.0001 H   0  0  0  0  0  0  0  0  0  0  0  0
   -4.3378    3.3567    0.0006 H   0  0  0  0  0  0  0  0  0  0  0  0
   -5.4706    1.1607    0.0010 H   0  0  0  0  0  0  0  0  0  0  0  0
  1  3  1  0  0  0  0
  2  3  2  0  0  0  0
  3 12  1  0  0  0  0
  4  5  1  0  0  0  0
  4  6  2  0  0  0  0
  4  7  1  0  0  0  0
  5  9  2  0  0  0  0
  5 11  1  0  0  0  0
  6  8  1  0  0  0  0
  6 13  1  0  0  0  0
  7 12  2  0  0  0  0
  7 14  1  0  0  0  0
  8 10  1  0  0  0  0
  8 19  2  0  0  0  0
  9 15  1  0  0  0  0
  9 17  1  0  0  0  0
 10 12  1  0  0  0  0
 10 20  2  0  0  0  0
 11 16  1  0  0  0  0
 11 18  2  0  0  0  0
 13 15  2  0  0  0  0
 13 24  1  0  0  0  0
 14 16  2  0  0  0  0
 14 25  1  0  0  0  0
 15 26  1  0  0  0  0
 16 27  1  0  0  0  0
 17 21  2  0  0  0  0
 17 28  1  0  0  0  0
 18 21  1  0  0  0  0
 18 29  1  0  0  0  0
 19 22  1  0  0  0  0
 19 30  1  0  0  0  0
 20 23  1  0  0  0  0
 20 31  1  0  0  0  0
 21 32  1  0  0  0  0
 22 23  2  0  0  0  0
 22 33  1  0  0  0  0
 23 34  1  0  0  0  0
M  CHG  2   1  -1   3   1
M  END
> <PUBCHEM_COMPOUND_CID>
44374

> <PUBCHEM_CONFORMER_RMSD>
0.6

> <PUBCHEM_CONFORMER_DIVERSEORDER>
1

> <PUBCHEM_MMFF94_PARTIAL_CHARGES>
26
1 -0.52
12 0.13
13 -0.15
14 -0.15
15 -0.15
16 -0.15
17 -0.15
18 -0.15
19 -0.15
2 -0.52
20 -0.15
21 -0.15
22 -0.15
23 -0.15
24 0.15
25 0.15
26 0.15
27 0.15
28 0.15
29 0.15
3 0.91
30 0.15
31 0.15
32 0.15
33 0.15
34 0.15

> <PUBCHEM_EFFECTIVE_ROTOR_COUNT>
1

> <PUBCHEM_PHARMACOPHORE_FEATURES>
8
1 1 acceptor
1 1 anion
1 2 acceptor
6 4 5 6 9 13 15 rings
6 4 5 7 11 14 16 rings
6 4 6 7 8 10 12 rings
6 5 9 11 17 18 21 rings
6 8 10 19 20 22 23 rings

> <PUBCHEM_HEAVY_ATOM_COUNT>
23

> <PUBCHEM_ATOM_DEF_STEREO_COUNT>
0

> <PUBCHEM_ATOM_UDEF_STEREO_COUNT>
0

> <PUBCHEM_BOND_DEF_STEREO_COUNT>
0

> <PUBCHEM_BOND_UDEF_STEREO_COUNT>
0

> <PUBCHEM_ISOTOPIC_ATOM_COUNT>
0

> <PUBCHEM_COMPONENT_COUNT>
1

> <PUBCHEM_CACTVS_TAUTO_COUNT>
1

> <PUBCHEM_CONFORMER_ID>
0000AD5600000001

> <PUBCHEM_MMFF94_ENERGY>
137.4759

> <PUBCHEM_FEATURE_SELFOVERLAP>
40.829

> <PUBCHEM_SHAPE_FINGERPRINT>
10319926 262 18190766175817926792
10411042 1 17689997830320238958
10493431 412 18336541733034777601
10616163 171 18410291367734720734
10693767 8 17538867058385049343
10863032 1 18409449185046529568
10967382 1 18266741461869049188
1100329 8 18339364196620897194
11112241 14 16590306007496758920
11370993 70 18338521940327509077
11578080 2 4966792471526224360
12011746 2 18338517555107871484
12403259 226 18119532037540197544
12403814 3 17704072936269732189
12838862 33 18267041585657692712
13140716 1 18265889155879839641
138480 1 17257934222105238435
14178342 30 18339096890725556440
14223421 5 18265614286288328458
14790565 3 18193549206102233536
15196674 1 18410855439196689732
15442244 35 18411420596478406154
15536298 74 18262519307364829260
1601671 61 18410574032892184460
16728300 4 16766781244296420178
16945 1 18410575076141800549
17492 89 18339360769132214354
19591789 44 18123188162778935740
19930381 70 17978792642462132451
20028762 73 18187651314910727647
20510252 161 18046061562444639569
20739085 24 17763153123330162385
20775438 99 16455498043780000375
20905425 154 18047462336089656622
21267235 1 18338227262542072802
21421861 104 17771913989488862906
221490 88 18340199675018003008
23227448 37 18408886247904176943
2334 1 17978228257720420525
23558518 356 18128254476310703712
23559900 14 18262237832994734622
238 59 17265857212864054605
2748010 2 18050009883167211549
335352 9 18338799043370300254
34934 24 18411705425888021474
350125 39 18410851028312762625
3680242 22 18197780114355821682
5104073 3 18410858741968616472
7832392 63 18410295826190205834
9709674 26 18335135414401871382

> <PUBCHEM_SHAPE_MULTIPOLES>
456.61
7.9
3.54
0.6
1.07
1.11
0
-1.8
0
-1.36
0
0.03
-0.03
0

> <PUBCHEM_SHAPE_SELFOVERLAP>
1077.714

> <PUBCHEM_SHAPE_VOLUME>
230.1

> <PUBCHEM_COORDINATE_TYPE>
2
5
10

$$$$

