24941628
  -OEChem-07051213152D

 34 36  0     1  0  0  0  0  0999 V2000
    5.1946   -2.1309    0.0000 O   0  0  0  0  0  0  0  0  0  0  0  0
    4.3435   -1.9202    0.0000 O   0  0  0  0  0  0  0  0  0  0  0  0
    2.5859    2.5839    0.0000 O   0  0  0  0  0  0  0  0  0  0  0  0
    5.1840    0.0839    0.0000 N   0  0  0  0  0  0  0  0  0  0  0  0
    2.7149   -0.5832    0.0000 N   0  0  0  0  0  0  0  0  0  0  0  0
    4.1087   -1.3879    0.0000 N   0  0  0  0  0  0  0  0  0  0  0  0
    4.3179    1.5839    0.0000 N   0  0  0  0  0  0  0  0  0  0  0  0
    6.0500    1.5839    0.0000 N   0  0  0  0  0  0  0  0  0  0  0  0
    2.6200   -2.3570    0.0000 N   0  0  0  0  0  0  0  0  0  0  0  0
    4.3179   -0.4161    0.0000 C   0  0  1  0  0  0  0  0  0  0  0  0
    3.4519    0.0839    0.0000 C   0  0  2  0  0  0  0  0  0  0  0  0
    4.9850   -1.1531    0.0000 C   0  0  0  0  0  0  0  0  0  0  0  0
    6.0758   -0.9310    0.0000 C   0  0  0  0  0  0  0  0  0  0  0  0
    6.1558   -0.1253    0.0000 C   0  0  0  0  0  0  0  0  0  0  0  0
    3.4519    1.0839    0.0000 C   0  0  2  0  0  0  0  0  0  0  0  0
    5.1840    1.0839    0.0000 C   0  0  0  0  0  0  0  0  0  0  0  0
    3.1200   -1.4910    0.0000 C   0  0  0  0  0  0  0  0  0  0  0  0
    2.5859    1.5839    0.0000 C   0  0  0  0  0  0  0  0  0  0  0  0
    2.6749    0.4286    0.0000 H   0  0  0  0  0  0  0  0  0  0  0  0
    6.1383   -1.5478    0.0000 H   0  0  0  0  0  0  0  0  0  0  0  0
    6.6958   -0.9304    0.0000 H   0  0  0  0  0  0  0  0  0  0  0  0
    6.7700   -0.2097    0.0000 H   0  0  0  0  0  0  0  0  0  0  0  0
    6.2633    0.4853    0.0000 H   0  0  0  0  0  0  0  0  0  0  0  0
    3.4519    1.7039    0.0000 H   0  0  0  0  0  0  0  0  0  0  0  0
    2.1082   -0.4553    0.0000 H   0  0  0  0  0  0  0  0  0  0  0  0
    1.9753    1.6916    0.0000 H   0  0  0  0  0  0  0  0  0  0  0  0
    2.3738    1.0013    0.0000 H   0  0  0  0  0  0  0  0  0  0  0  0
    5.7846   -2.3215    0.0000 H   0  0  0  0  0  0  0  0  0  0  0  0
    4.5566   -2.5025    0.0000 H   0  0  0  0  0  0  0  0  0  0  0  0
    6.0500    2.2039    0.0000 H   0  0  0  0  0  0  0  0  0  0  0  0
    6.5869    1.2739    0.0000 H   0  0  0  0  0  0  0  0  0  0  0  0
    2.0000   -2.3570    0.0000 H   0  0  0  0  0  0  0  0  0  0  0  0
    2.9300   -2.8939    0.0000 H   0  0  0  0  0  0  0  0  0  0  0  0
    2.0489    2.8939    0.0000 H   0  0  0  0  0  0  0  0  0  0  0  0
  1 12  1  0  0  0  0
  1 28  1  0  0  0  0
  2 12  1  0  0  0  0
  2 29  1  0  0  0  0
  3 18  1  0  0  0  0
  3 34  1  0  0  0  0
  4 10  1  0  0  0  0
  4 14  1  0  0  0  0
  4 16  1  0  0  0  0
  5 11  1  0  0  0  0
  5 17  1  0  0  0  0
  5 25  1  0  0  0  0
 10  6  1  1  0  0  0
  6 17  2  0  0  0  0
  7 15  1  0  0  0  0
  7 16  2  0  0  0  0
  8 16  1  0  0  0  0
  8 30  1  0  0  0  0
  8 31  1  0  0  0  0
  9 17  1  0  0  0  0
  9 32  1  0  0  0  0
  9 33  1  0  0  0  0
 10 11  1  0  0  0  0
 10 12  1  0  0  0  0
 11 15  1  0  0  0  0
 11 19  1  6  0  0  0
 12 13  1  0  0  0  0
 13 14  1  0  0  0  0
 13 20  1  0  0  0  0
 13 21  1  0  0  0  0
 14 22  1  0  0  0  0
 14 23  1  0  0  0  0
 15 18  1  6  0  0  0
 15 24  1  0  0  0  0
 18 26  1  0  0  0  0
 18 27  1  0  0  0  0
M  END
> <PUBCHEM_COMPOUND_CID>
24941628

> <PUBCHEM_COMPOUND_CANONICALIZED>
1

> <PUBCHEM_CACTVS_COMPLEXITY>
450

> <PUBCHEM_CACTVS_HBOND_ACCEPTOR>
5

> <PUBCHEM_CACTVS_HBOND_DONOR>
6

> <PUBCHEM_CACTVS_ROTATABLE_BOND>
1

> <PUBCHEM_CACTVS_SUBSKEYS>
AAADceBzsAAAAAAAAAAAAAAAAAAAAWIAAAAgAAAAAAAAAEAAAAAAHgAQCAAACCzhgAYBCAPAAgAgAAAAJAAAAAEAAAABAIAIAACCUAIAyAAUQAAGEAKQAAGw4CQAAAAAAAAAAAAAAAAAAAAAAAAAAAAAAA==

> <PUBCHEM_IUPAC_OPENEYE_NAME>
(3aS,4R,10aS)-2,6-diamino-4-(hydroxymethyl)-3a,4,8,9-tetrahydro-3H-pyrrolo[1,2-c]purine-10,10-diol

> <PUBCHEM_IUPAC_CAS_NAME>
(3aS,4R,10aS)-2,6-diamino-4-(hydroxymethyl)-3a,4,8,9-tetrahydro-3H-pyrrolo[1,2-c]purine-10,10-diol

> <PUBCHEM_IUPAC_NAME>
(3aS,4R,10aS)-2,6-diamino-4-(hydroxymethyl)-3a,4,8,9-tetrahydro-3H-pyrrolo[1,2-c]purine-10,10-diol

> <PUBCHEM_IUPAC_SYSTEMATIC_NAME>
(3aS,4R,10aS)-2,6-bis(azanyl)-4-(hydroxymethyl)-3a,4,8,9-tetrahydro-3H-pyrrolo[1,2-c]purine-10,10-diol

> <PUBCHEM_IUPAC_TRADITIONAL_NAME>
(3aS,4R,10aS)-2,6-diamino-4-methylol-3a,4,8,9-tetrahydro-3H-pyrrolo[1,2-c]purine-10,10-diol

> <PUBCHEM_IUPAC_INCHI>
InChI=1S/C9H16N6O3/c10-6-13-5-4(3-16)12-7(11)15-2-1-8(17,18)9(5,15)14-6/h4-5,16-18H,1-3H2,(H2,11,12)(H3,10,13,14)/t4-,5-,9-/m0/s1

> <PUBCHEM_IUPAC_INCHIKEY>
VRRIYZJUSNMZMP-PJPYAQQDSA-N

> <PUBCHEM_XLOGP3_AA>
-4.6

> <PUBCHEM_EXACT_MASS>
256.128388

> <PUBCHEM_MOLECULAR_FORMULA>
C9H16N6O3

> <PUBCHEM_MOLECULAR_WEIGHT>
256.26174

> <PUBCHEM_OPENEYE_CAN_SMILES>
C1CN2C(=NC(C3C2(C1(O)O)N=C(N3)N)CO)N

> <PUBCHEM_OPENEYE_ISO_SMILES>
C1CN2C(=N[C@H]([C@H]3[C@]2(C1(O)O)N=C(N3)N)CO)N

> <PUBCHEM_CACTVS_TPSA>
153

> <PUBCHEM_MONOISOTOPIC_WEIGHT>
256.128388

> <PUBCHEM_TOTAL_CHARGE>
0

> <PUBCHEM_HEAVY_ATOM_COUNT>
18

> <PUBCHEM_ATOM_DEF_STEREO_COUNT>
3

> <PUBCHEM_ATOM_UDEF_STEREO_COUNT>
0

> <PUBCHEM_BOND_DEF_STEREO_COUNT>
0

> <PUBCHEM_BOND_UDEF_STEREO_COUNT>
0

> <PUBCHEM_ISOTOPIC_ATOM_COUNT>
0

> <PUBCHEM_COMPONENT_COUNT>
1

> <PUBCHEM_CACTVS_TAUTO_COUNT>
6

> <PUBCHEM_COORDINATE_TYPE>
1
5
255

> <PUBCHEM_BONDANNOTATIONS>
11  19  6
15  18  6
10  6  5

$$$$

