45480638
  -OEChem-07051213132D

 73 75  0     1  0  0  0  0  0999 V2000
    5.4641    0.6123    0.0000 P   0  0  3  0  0  0  0  0  0  0  0  0
    6.3301   -3.8877    0.0000 O   0  0  0  0  0  0  0  0  0  0  0  0
    8.0622   -1.8877    0.0000 O   0  0  0  0  0  0  0  0  0  0  0  0
    5.4641   -2.3877    0.0000 O   0  0  0  0  0  0  0  0  0  0  0  0
    5.4641   -0.3877    0.0000 O   0  0  0  0  0  0  0  0  0  0  0  0
    5.4641    1.6123    0.0000 O   0  0  0  0  0  0  0  0  0  0  0  0
    9.8106   -7.9223    0.0000 O   0  0  0  0  0  0  0  0  0  0  0  0
   11.5923   -4.8636    0.0000 O   0  0  0  0  0  0  0  0  0  0  0  0
    4.5320   -4.8636    0.0000 O   0  0  0  0  0  0  0  0  0  0  0  0
    4.4641    0.6123    0.0000 O   0  0  0  0  0  0  0  0  0  0  0  0
    6.4641    0.6123    0.0000 O   0  0  0  0  0  0  0  0  0  0  0  0
    5.4641    3.6123    0.0000 O   0  0  0  0  0  0  0  0  0  0  0  0
    2.8660    6.1123    0.0000 O   0  0  0  0  0  0  0  0  0  0  0  0
    2.0000    4.6123    0.0000 O   0  0  0  0  0  0  0  0  0  0  0  0
    5.4641    7.6123    0.0000 O   0  0  0  0  0  0  0  0  0  0  0  0
    6.3301    6.1123    0.0000 O   0  0  0  0  0  0  0  0  0  0  0  0
    8.0622   -4.8877    0.0000 N   0  0  0  0  0  0  0  0  0  0  0  0
    9.8222   -4.8530    0.0000 N   0  0  0  0  0  0  0  0  0  0  0  0
   10.7282   -6.4085    0.0000 N   0  0  0  0  0  0  0  0  0  0  0  0
    3.7320    3.6123    0.0000 N   0  0  0  0  0  0  0  0  0  0  0  0
    7.1962   -3.3877    0.0000 C   0  0  1  0  0  0  0  0  0  0  0  0
    8.0622   -3.8877    0.0000 C   0  0  0  0  0  0  0  0  0  0  0  0
    7.1962   -2.3877    0.0000 C   0  0  1  0  0  0  0  0  0  0  0  0
    6.3301   -1.8877    0.0000 C   0  0  1  0  0  0  0  0  0  0  0  0
    8.9282   -5.3877    0.0000 C   0  0  0  0  0  0  0  0  0  0  0  0
    7.1962   -5.3877    0.0000 C   0  0  0  0  0  0  0  0  0  0  0  0
    8.9282   -6.3877    0.0000 C   0  0  0  0  0  0  0  0  0  0  0  0
    7.1962   -6.3877    0.0000 C   0  0  0  0  0  0  0  0  0  0  0  0
    6.3301   -0.8877    0.0000 C   0  0  0  0  0  0  0  0  0  0  0  0
    8.0622   -6.8877    0.0000 C   0  0  0  0  0  0  0  0  0  0  0  0
    6.3022   -4.8530    0.0000 C   0  0  0  0  0  0  0  0  0  0  0  0
    9.8222   -6.9224    0.0000 C   0  0  0  0  0  0  0  0  0  0  0  0
    6.3022   -6.9224    0.0000 C   0  0  0  0  0  0  0  0  0  0  0  0
   10.7282   -5.3669    0.0000 C   0  0  0  0  0  0  0  0  0  0  0  0
    5.3961   -5.3669    0.0000 C   0  0  0  0  0  0  0  0  0  0  0  0
    5.3961   -6.4085    0.0000 C   0  0  0  0  0  0  0  0  0  0  0  0
    4.5981    2.1123    0.0000 C   0  0  2  0  0  0  0  0  0  0  0  0
    3.7320    4.6123    0.0000 C   0  0  1  0  0  0  0  0  0  0  0  0
    4.5981    5.1123    0.0000 C   0  0  0  0  0  0  0  0  0  0  0  0
    4.5981    3.1123    0.0000 C   0  0  0  0  0  0  0  0  0  0  0  0
    4.5981    6.1123    0.0000 C   0  0  0  0  0  0  0  0  0  0  0  0
    3.7320    1.6123    0.0000 C   0  0  0  0  0  0  0  0  0  0  0  0
    2.8660    5.1123    0.0000 C   0  0  0  0  0  0  0  0  0  0  0  0
    5.4641    6.6123    0.0000 C   0  0  0  0  0  0  0  0  0  0  0  0
    6.6592   -3.0777    0.0000 H   0  0  0  0  0  0  0  0  0  0  0  0
    8.6728   -3.9954    0.0000 H   0  0  0  0  0  0  0  0  0  0  0  0
    8.2742   -3.3051    0.0000 H   0  0  0  0  0  0  0  0  0  0  0  0
    7.1962   -1.7677    0.0000 H   0  0  0  0  0  0  0  0  0  0  0  0
    6.3301   -2.5077    0.0000 H   0  0  0  0  0  0  0  0  0  0  0  0
    6.9407   -0.9954    0.0000 H   0  0  0  0  0  0  0  0  0  0  0  0
    6.5422   -0.3051    0.0000 H   0  0  0  0  0  0  0  0  0  0  0  0
    8.0622   -7.5077    0.0000 H   0  0  0  0  0  0  0  0  0  0  0  0
    9.8150   -4.2331    0.0000 H   0  0  0  0  0  0  0  0  0  0  0  0
    6.3094   -4.2331    0.0000 H   0  0  0  0  0  0  0  0  0  0  0  0
    5.7932   -3.5777    0.0000 H   0  0  0  0  0  0  0  0  0  0  0  0
    8.0622   -1.2677    0.0000 H   0  0  0  0  0  0  0  0  0  0  0  0
    6.3094   -7.5423    0.0000 H   0  0  0  0  0  0  0  0  0  0  0  0
    4.9272   -2.0777    0.0000 H   0  0  0  0  0  0  0  0  0  0  0  0
   11.2639   -6.7206    0.0000 H   0  0  0  0  0  0  0  0  0  0  0  0
    4.8604   -6.7206    0.0000 H   0  0  0  0  0  0  0  0  0  0  0  0
    4.2690    4.3023    0.0000 H   0  0  0  0  0  0  0  0  0  0  0  0
    5.1350    2.4223    0.0000 H   0  0  0  0  0  0  0  0  0  0  0  0
    4.8101    4.5297    0.0000 H   0  0  0  0  0  0  0  0  0  0  0  0
    5.2087    5.2200    0.0000 H   0  0  0  0  0  0  0  0  0  0  0  0
    3.1951    3.3023    0.0000 H   0  0  0  0  0  0  0  0  0  0  0  0
    4.3860    6.6949    0.0000 H   0  0  0  0  0  0  0  0  0  0  0  0
    3.9875    6.0046    0.0000 H   0  0  0  0  0  0  0  0  0  0  0  0
    3.4220    2.1492    0.0000 H   0  0  0  0  0  0  0  0  0  0  0  0
    3.1951    1.3023    0.0000 H   0  0  0  0  0  0  0  0  0  0  0  0
    4.0420    1.0754    0.0000 H   0  0  0  0  0  0  0  0  0  0  0  0
    4.1541    0.0754    0.0000 H   0  0  0  0  0  0  0  0  0  0  0  0
    2.3291    6.4223    0.0000 H   0  0  0  0  0  0  0  0  0  0  0  0
    6.0010    7.9223    0.0000 H   0  0  0  0  0  0  0  0  0  0  0  0
  1  5  1  0  0  0  0
  1  6  1  0  0  0  0
  1 10  1  0  0  0  0
  1 11  2  0  0  0  0
 21  2  1  6  0  0  0
  2 55  1  0  0  0  0
 23  3  1  1  0  0  0
  3 56  1  0  0  0  0
 24  4  1  6  0  0  0
  4 58  1  0  0  0  0
  5 29  1  0  0  0  0
 37  6  1  1  0  0  0
  7 32  2  0  0  0  0
  8 34  2  0  0  0  0
  9 35  2  0  0  0  0
 10 71  1  0  0  0  0
 12 40  2  0  0  0  0
 13 43  1  0  0  0  0
 13 72  1  0  0  0  0
 14 43  2  0  0  0  0
 15 44  1  0  0  0  0
 15 73  1  0  0  0  0
 16 44  2  0  0  0  0
 17 22  1  0  0  0  0
 17 25  1  0  0  0  0
 17 26  1  0  0  0  0
 18 25  1  0  0  0  0
 18 34  1  0  0  0  0
 18 53  1  0  0  0  0
 19 32  1  0  0  0  0
 19 34  1  0  0  0  0
 19 59  1  0  0  0  0
 38 20  1  6  0  0  0
 20 40  1  0  0  0  0
 20 65  1  0  0  0  0
 21 22  1  0  0  0  0
 21 23  1  0  0  0  0
 21 45  1  0  0  0  0
 22 46  1  0  0  0  0
 22 47  1  0  0  0  0
 23 24  1  0  0  0  0
 23 48  1  0  0  0  0
 24 29  1  0  0  0  0
 24 49  1  0  0  0  0
 25 27  2  0  0  0  0
 26 28  1  0  0  0  0
 26 31  2  0  0  0  0
 27 30  1  0  0  0  0
 27 32  1  0  0  0  0
 28 30  2  0  0  0  0
 28 33  1  0  0  0  0
 29 50  1  0  0  0  0
 29 51  1  0  0  0  0
 30 52  1  0  0  0  0
 31 35  1  0  0  0  0
 31 54  1  0  0  0  0
 33 36  2  0  0  0  0
 33 57  1  0  0  0  0
 35 36  1  0  0  0  0
 36 60  1  0  0  0  0
 37 40  1  0  0  0  0
 37 42  1  0  0  0  0
 37 62  1  0  0  0  0
 38 39  1  0  0  0  0
 38 43  1  0  0  0  0
 38 61  1  0  0  0  0
 39 41  1  0  0  0  0
 39 63  1  0  0  0  0
 39 64  1  0  0  0  0
 41 44  1  0  0  0  0
 41 66  1  0  0  0  0
 41 67  1  0  0  0  0
 42 68  1  0  0  0  0
 42 69  1  0  0  0  0
 42 70  1  0  0  0  0
M  END
> <PUBCHEM_COMPOUND_CID>
45480638

> <PUBCHEM_COMPOUND_CANONICALIZED>
1

> <PUBCHEM_CACTVS_COMPLEXITY>
1420

> <PUBCHEM_CACTVS_HBOND_ACCEPTOR>
16

> <PUBCHEM_CACTVS_HBOND_DONOR>
9

> <PUBCHEM_CACTVS_ROTATABLE_BOND>
15

> <PUBCHEM_CACTVS_SUBSKEYS>
AAADceB7vAIAAAAAAAAAAAAAAAAAAAAAAAAgQIAAAAAAAACAAAAAHgAQCCAADDzhgAYDCAPAAxCIQqXSWIKAAAAgAgAICIHIAEiLEBIAgSAEQAAPFyKZgcL8NgIAAAAAAAAAAAAAAAAAAAAAAAAAAAAAAA==

> <PUBCHEM_IUPAC_OPENEYE_NAME>
(2S)-2-[[(2S)-2-[hydroxy-[(2R,3S,4S)-2,3,4-trihydroxy-5-(2,4,8-trioxo-1H-pyrimido[4,5-b]quinolin-10-yl)pentoxy]phosphoryl]oxypropanoyl]amino]pentanedioic acid

> <PUBCHEM_IUPAC_CAS_NAME>
(2S)-2-[[(2S)-2-[hydroxy-[(2R,3S,4S)-2,3,4-trihydroxy-5-(2,4,8-trioxo-1H-pyrimido[4,5-b]quinolin-10-yl)pentoxy]phosphoryl]oxy-1-oxopropyl]amino]pentanedioic acid

> <PUBCHEM_IUPAC_NAME>
(2S)-2-[[(2S)-2-[hydroxy-[(2R,3S,4S)-2,3,4-trihydroxy-5-(2,4,8-trioxo-1H-pyrimido[4,5-b]quinolin-10-yl)pentoxy]phosphoryl]oxypropanoyl]amino]pentanedioic acid

> <PUBCHEM_IUPAC_SYSTEMATIC_NAME>
(2S)-2-[[(2S)-2-[oxidanyl-[(2R,3S,4S)-2,3,4-tris(oxidanyl)-5-[2,4,8-tris(oxidanylidene)-1H-pyrimido[4,5-b]quinolin-10-yl]pentoxy]phosphoryl]oxypropanoyl]amino]pentanedioic acid

> <PUBCHEM_IUPAC_TRADITIONAL_NAME>
(2S)-2-[[(2S)-2-[hydroxy-[(2R,3S,4S)-2,3,4-trihydroxy-5-(2,4,8-triketo-1H-pyrimido[4,5-b]quinolin-10-yl)pentoxy]phosphoryl]oxypropanoyl]amino]glutaric acid

> <PUBCHEM_IUPAC_INCHI>
InChI=1S/C24H29N4O15P/c1-10(21(35)25-14(23(37)38)4-5-18(32)33)43-44(40,41)42-9-17(31)19(34)16(30)8-28-15-7-12(29)3-2-11(15)6-13-20(28)26-24(39)27-22(13)36/h2-3,6-7,10,14,16-17,19,30-31,34H,4-5,8-9H2,1H3,(H,25,35)(H,32,33)(H,37,38)(H,40,41)(H2,26,27,36,39)/t10-,14-,16-,17+,19-/m0/s1

> <PUBCHEM_IUPAC_INCHIKEY>
RSZBQCOVWYZBFJ-LADHFWMSSA-N

> <PUBCHEM_XLOGP3_AA>
-4.3

> <PUBCHEM_EXACT_MASS>
644.136703

> <PUBCHEM_MOLECULAR_FORMULA>
C24H29N4O15P

> <PUBCHEM_MOLECULAR_WEIGHT>
644.478622

> <PUBCHEM_OPENEYE_CAN_SMILES>
CC(C(=O)NC(CCC(=O)O)C(=O)O)OP(=O)(O)OCC(C(C(CN1C2=CC(=O)C=CC2=CC3=C1NC(=O)NC3=O)O)O)O

> <PUBCHEM_OPENEYE_ISO_SMILES>
C[C@@H](C(=O)N[C@@H](CCC(=O)O)C(=O)O)OP(=O)(O)OC[C@H]([C@H]([C@H](CN1C2=CC(=O)C=CC2=CC3=C1NC(=O)NC3=O)O)O)O

> <PUBCHEM_CACTVS_TPSA>
299

> <PUBCHEM_MONOISOTOPIC_WEIGHT>
644.136703

> <PUBCHEM_TOTAL_CHARGE>
0

> <PUBCHEM_HEAVY_ATOM_COUNT>
44

> <PUBCHEM_ATOM_DEF_STEREO_COUNT>
5

> <PUBCHEM_ATOM_UDEF_STEREO_COUNT>
0

> <PUBCHEM_BOND_DEF_STEREO_COUNT>
0

> <PUBCHEM_BOND_UDEF_STEREO_COUNT>
0

> <PUBCHEM_ISOTOPIC_ATOM_COUNT>
0

> <PUBCHEM_COMPONENT_COUNT>
1

> <PUBCHEM_CACTVS_TAUTO_COUNT>
42

> <PUBCHEM_COORDINATE_TYPE>
1
5
255

> <PUBCHEM_BONDANNOTATIONS>
17  25  8
17  26  8
18  25  8
18  34  8
19  32  8
19  34  8
21  2  6
38  20  6
25  27  8
26  31  8
27  30  8
27  32  8
28  30  8
28  33  8
23  3  5
31  35  8
33  36  8
35  36  8
24  4  6
37  6  5

$$$$

