240337
  -OEChem-07051213072D

 44 47  0     1  0  0  0  0  0999 V2000
   10.4586    0.5491    0.0000 O   0  0  0  0  0  0  0  0  0  0  0  0
    2.5357   -2.0032    0.0000 O   0  0  0  0  0  0  0  0  0  0  0  0
    7.9288    1.0491    0.0000 C   0  0  2  0  0  0  0  0  0  0  0  0
    7.9288    0.0491    0.0000 C   0  0  2  0  0  0  0  0  0  0  0  0
    7.0628   -0.4509    0.0000 C   0  0  1  0  0  0  0  0  0  0  0  0
    6.1968    0.0491    0.0000 C   0  0  2  0  0  0  0  0  0  0  0  0
    7.0628    1.5491    0.0000 C   0  0  0  0  0  0  0  0  0  0  0  0
    8.8750    1.3538    0.0000 C   0  0  0  0  0  0  0  0  0  0  0  0
    8.8750   -0.2556    0.0000 C   0  0  0  0  0  0  0  0  0  0  0  0
    6.1968    1.0491    0.0000 C   0  0  0  0  0  0  0  0  0  0  0  0
    9.4586    0.5491    0.0000 C   0  0  2  0  0  0  0  0  0  0  0  0
    7.0789   -1.4924    0.0000 C   0  0  0  0  0  0  0  0  0  0  0  0
    7.9288    2.0491    0.0000 C   0  0  0  0  0  0  0  0  0  0  0  0
    5.2868   -0.4578    0.0000 C   0  0  0  0  0  0  0  0  0  0  0  0
    6.1808   -2.0202    0.0000 C   0  0  0  0  0  0  0  0  0  0  0  0
    5.2787   -1.4994    0.0000 C   0  0  0  0  0  0  0  0  0  0  0  0
    4.3599    0.1063    0.0000 C   0  0  0  0  0  0  0  0  0  0  0  0
    4.3433   -2.0491    0.0000 C   0  0  0  0  0  0  0  0  0  0  0  0
    3.4120   -0.4216    0.0000 C   0  0  0  0  0  0  0  0  0  0  0  0
    3.4037   -1.5066    0.0000 C   0  0  0  0  0  0  0  0  0  0  0  0
    8.0188   -0.7961    0.0000 H   0  0  0  0  0  0  0  0  0  0  0  0
    7.8022   -0.8702    0.0000 H   0  0  0  0  0  0  0  0  0  0  0  0
    6.9329    0.4741    0.0000 H   0  0  0  0  0  0  0  0  0  0  0  0
    7.4613    2.0240    0.0000 H   0  0  0  0  0  0  0  0  0  0  0  0
    6.6643    2.0240    0.0000 H   0  0  0  0  0  0  0  0  0  0  0  0
    9.4124    1.6630    0.0000 H   0  0  0  0  0  0  0  0  0  0  0  0
    8.6240    1.9207    0.0000 H   0  0  0  0  0  0  0  0  0  0  0  0
    8.6240   -0.8226    0.0000 H   0  0  0  0  0  0  0  0  0  0  0  0
    9.4124   -0.5649    0.0000 H   0  0  0  0  0  0  0  0  0  0  0  0
    5.9847    1.6317    0.0000 H   0  0  0  0  0  0  0  0  0  0  0  0
    5.5862    0.9414    0.0000 H   0  0  0  0  0  0  0  0  0  0  0  0
    9.7404   -0.0032    0.0000 H   0  0  0  0  0  0  0  0  0  0  0  0
    7.2969   -2.0728    0.0000 H   0  0  0  0  0  0  0  0  0  0  0  0
    7.6880   -1.3769    0.0000 H   0  0  0  0  0  0  0  0  0  0  0  0
    8.5488    2.0491    0.0000 H   0  0  0  0  0  0  0  0  0  0  0  0
    7.9288    2.6691    0.0000 H   0  0  0  0  0  0  0  0  0  0  0  0
    7.3088    2.0491    0.0000 H   0  0  0  0  0  0  0  0  0  0  0  0
    5.7835   -2.4962    0.0000 H   0  0  0  0  0  0  0  0  0  0  0  0
    6.5818   -2.4931    0.0000 H   0  0  0  0  0  0  0  0  0  0  0  0
   10.7687    0.0121    0.0000 H   0  0  0  0  0  0  0  0  0  0  0  0
    4.3719    0.7262    0.0000 H   0  0  0  0  0  0  0  0  0  0  0  0
    4.3457   -2.6691    0.0000 H   0  0  0  0  0  0  0  0  0  0  0  0
    2.8787   -0.1054    0.0000 H   0  0  0  0  0  0  0  0  0  0  0  0
    2.0000   -1.6912    0.0000 H   0  0  0  0  0  0  0  0  0  0  0  0
 11  1  1  1  0  0  0
  1 40  1  0  0  0  0
  2 20  1  0  0  0  0
  2 44  1  0  0  0  0
  3  4  1  0  0  0  0
  3  7  1  0  0  0  0
  3  8  1  0  0  0  0
  3 13  1  1  0  0  0
  4  5  1  0  0  0  0
  4  9  1  0  0  0  0
  4 21  1  6  0  0  0
  5  6  1  0  0  0  0
  5 12  1  0  0  0  0
  5 22  1  1  0  0  0
  6 10  1  0  0  0  0
  6 14  1  0  0  0  0
  6 23  1  6  0  0  0
  7 10  1  0  0  0  0
  7 24  1  0  0  0  0
  7 25  1  0  0  0  0
  8 11  1  0  0  0  0
  8 26  1  0  0  0  0
  8 27  1  0  0  0  0
  9 11  1  0  0  0  0
  9 28  1  0  0  0  0
  9 29  1  0  0  0  0
 10 30  1  0  0  0  0
 10 31  1  0  0  0  0
 11 32  1  0  0  0  0
 12 15  1  0  0  0  0
 12 33  1  0  0  0  0
 12 34  1  0  0  0  0
 13 35  1  0  0  0  0
 13 36  1  0  0  0  0
 13 37  1  0  0  0  0
 14 16  2  0  0  0  0
 14 17  1  0  0  0  0
 15 16  1  0  0  0  0
 15 38  1  0  0  0  0
 15 39  1  0  0  0  0
 16 18  1  0  0  0  0
 17 19  2  0  0  0  0
 17 41  1  0  0  0  0
 18 20  2  0  0  0  0
 18 42  1  0  0  0  0
 19 20  1  0  0  0  0
 19 43  1  0  0  0  0
M  END
> <PUBCHEM_COMPOUND_CID>
240337

> <PUBCHEM_COMPOUND_CANONICALIZED>
1

> <PUBCHEM_CACTVS_COMPLEXITY>
382

> <PUBCHEM_CACTVS_HBOND_ACCEPTOR>
2

> <PUBCHEM_CACTVS_HBOND_DONOR>
2

> <PUBCHEM_CACTVS_ROTATABLE_BOND>
0

> <PUBCHEM_CACTVS_SUBSKEYS>
AAADceB4MAAAAAAAAAAAAAAAAAAAAYAAAAAwYMAAAAAAAGDBAAAAGgAACAAADxSgmAIyBoAAAgCAAiBCAAACAAAgIAAIiAAGCIgINiKCERKAcAAkwBEImAeAwPAPoAABAAAQAADAAAYAACAAAIAACAAAAA==

> <PUBCHEM_IUPAC_OPENEYE_NAME>
(8S,9S,13R,14S,16S)-13-methyl-6,7,8,9,11,12,14,15,16,17-decahydrocyclopenta[a]phenanthrene-3,16-diol

> <PUBCHEM_IUPAC_CAS_NAME>
(8S,9S,13R,14S,16S)-13-methyl-6,7,8,9,11,12,14,15,16,17-decahydrocyclopenta[a]phenanthrene-3,16-diol

> <PUBCHEM_IUPAC_NAME>
(8S,9S,13R,14S,16S)-13-methyl-6,7,8,9,11,12,14,15,16,17-decahydrocyclopenta[a]phenanthrene-3,16-diol

> <PUBCHEM_IUPAC_SYSTEMATIC_NAME>
(8S,9S,13R,14S,16S)-13-methyl-6,7,8,9,11,12,14,15,16,17-decahydrocyclopenta[a]phenanthrene-3,16-diol

> <PUBCHEM_IUPAC_TRADITIONAL_NAME>
(8S,9S,13R,14S,16S)-13-methyl-6,7,8,9,11,12,14,15,16,17-decahydrocyclopenta[a]phenanthrene-3,16-diol

> <PUBCHEM_IUPAC_INCHI>
InChI=1S/C18H24O2/c1-18-7-6-15-14-5-3-12(19)8-11(14)2-4-16(15)17(18)9-13(20)10-18/h3,5,8,13,15-17,19-20H,2,4,6-7,9-10H2,1H3/t13-,15+,16+,17-,18+/m0/s1

> <PUBCHEM_IUPAC_INCHIKEY>
DVMAUGGKVWJBDV-IREHDKGXSA-N

> <PUBCHEM_XLOGP3>
3.6

> <PUBCHEM_EXACT_MASS>
272.17763

> <PUBCHEM_MOLECULAR_FORMULA>
C18H24O2

> <PUBCHEM_MOLECULAR_WEIGHT>
272.38196

> <PUBCHEM_OPENEYE_CAN_SMILES>
CC12CCC3C(C1CC(C2)O)CCC4=C3C=CC(=C4)O

> <PUBCHEM_OPENEYE_ISO_SMILES>
C[C@]12CC[C@H]3[C@H]([C@@H]1C[C@@H](C2)O)CCC4=C3C=CC(=C4)O

> <PUBCHEM_CACTVS_TPSA>
40.5

> <PUBCHEM_MONOISOTOPIC_WEIGHT>
272.17763

> <PUBCHEM_TOTAL_CHARGE>
0

> <PUBCHEM_HEAVY_ATOM_COUNT>
20

> <PUBCHEM_ATOM_DEF_STEREO_COUNT>
5

> <PUBCHEM_ATOM_UDEF_STEREO_COUNT>
0

> <PUBCHEM_BOND_DEF_STEREO_COUNT>
0

> <PUBCHEM_BOND_UDEF_STEREO_COUNT>
0

> <PUBCHEM_ISOTOPIC_ATOM_COUNT>
0

> <PUBCHEM_COMPONENT_COUNT>
1

> <PUBCHEM_CACTVS_TAUTO_COUNT>
9

> <PUBCHEM_COORDINATE_TYPE>
1
5
255

> <PUBCHEM_BONDANNOTATIONS>
11  1  5
14  16  8
14  17  8
16  18  8
17  19  8
18  20  8
19  20  8
3  13  5
4  21  6
5  22  5
6  23  6

$$$$

