12601
  -OEChem-06261207082D

 18 17  0     0  0  0  0  0  0999 V2000
    6.3301   -2.5000    0.0000 Na  0  3  0  0  0  0  0  0  0  0  0  0
    4.5981    2.5000    0.0000 F   0  0  0  0  0  0  0  0  0  0  0  0
    5.5981    1.5000    0.0000 F   0  0  0  0  0  0  0  0  0  0  0  0
    3.5981    1.5000    0.0000 F   0  0  0  0  0  0  0  0  0  0  0  0
    6.3301   -1.5000    0.0000 O   0  5  0  0  0  0  0  0  0  0  0  0
    2.0000    0.0000    0.0000 O   0  5  0  0  0  0  0  0  0  0  0  0
    2.8660    1.5000    0.0000 O   0  0  0  0  0  0  0  0  0  0  0  0
    2.8660    0.5000    0.0000 N   0  3  0  0  0  0  0  0  0  0  0  0
    4.5981    0.5000    0.0000 C   0  0  0  0  0  0  0  0  0  0  0  0
    3.7320    0.0000    0.0000 C   0  0  0  0  0  0  0  0  0  0  0  0
    5.4641    0.0000    0.0000 C   0  0  0  0  0  0  0  0  0  0  0  0
    4.5981    1.5000    0.0000 C   0  0  0  0  0  0  0  0  0  0  0  0
    3.7320   -1.0000    0.0000 C   0  0  0  0  0  0  0  0  0  0  0  0
    5.4641   -1.0000    0.0000 C   0  0  0  0  0  0  0  0  0  0  0  0
    4.5981   -1.5000    0.0000 C   0  0  0  0  0  0  0  0  0  0  0  0
    6.0010    0.3100    0.0000 H   0  0  0  0  0  0  0  0  0  0  0  0
    3.1951   -1.3100    0.0000 H   0  0  0  0  0  0  0  0  0  0  0  0
    4.5981   -2.1200    0.0000 H   0  0  0  0  0  0  0  0  0  0  0  0
  2 12  1  0  0  0  0
  3 12  1  0  0  0  0
  4 12  1  0  0  0  0
  5 14  1  0  0  0  0
  6  8  1  0  0  0  0
  7  8  2  0  0  0  0
  8 10  1  0  0  0  0
  9 10  2  0  0  0  0
  9 11  1  0  0  0  0
  9 12  1  0  0  0  0
 10 13  1  0  0  0  0
 11 14  2  0  0  0  0
 11 16  1  0  0  0  0
 13 15  2  0  0  0  0
 13 17  1  0  0  0  0
 14 15  1  0  0  0  0
 15 18  1  0  0  0  0
M  CHG  4   1   1   5  -1   6  -1   8   1
M  END
> <PUBCHEM_COMPOUND_CID>
12601

> <PUBCHEM_COMPOUND_CANONICALIZED>
1

> <PUBCHEM_CACTVS_COMPLEXITY>
225

> <PUBCHEM_CACTVS_HBOND_ACCEPTOR>
6

> <PUBCHEM_CACTVS_HBOND_DONOR>
0

> <PUBCHEM_CACTVS_ROTATABLE_BOND>
0

> <PUBCHEM_CACTVS_SUBSKEYS>
AAADcQBiMaAAAAAAAAAAAAAAAAAAAAAAAAAwAAAAAAAAAAABAAAAHwAEAAAADAyBmBAwxoAQQACBAiRCQwCCAAAgIgAoiAAGbIoIJiKAkZOAMABkwBEIyAewwBAOAEABAAACAAAAgAIAAAQAAAAAAAAAAA==

> <PUBCHEM_IUPAC_OPENEYE_NAME>
sodium 4-nitro-3-(trifluoromethyl)phenolate

> <PUBCHEM_IUPAC_CAS_NAME>
sodium 4-nitro-3-(trifluoromethyl)phenolate

> <PUBCHEM_IUPAC_NAME>
sodium 4-nitro-3-(trifluoromethyl)phenolate

> <PUBCHEM_IUPAC_SYSTEMATIC_NAME>
sodium 4-nitro-3-(trifluoromethyl)phenolate

> <PUBCHEM_IUPAC_TRADITIONAL_NAME>
sodium 4-nitro-3-(trifluoromethyl)phenolate

> <PUBCHEM_IUPAC_INCHI>
InChI=1S/C7H4F3NO3.Na/c8-7(9,10)5-3-4(12)1-2-6(5)11(13)14;/h1-3,12H;/q;+1/p-1

> <PUBCHEM_IUPAC_INCHIKEY>
GZMCWLUYRYIQGJ-UHFFFAOYSA-M

> <PUBCHEM_EXACT_MASS>
228.996272

> <PUBCHEM_MOLECULAR_FORMULA>
C7H3F3NNaO3

> <PUBCHEM_MOLECULAR_WEIGHT>
229.088599

> <PUBCHEM_OPENEYE_CAN_SMILES>
C1=CC(=C(C=C1[O-])C(F)(F)F)[N+](=O)[O-].[Na+]

> <PUBCHEM_OPENEYE_ISO_SMILES>
C1=CC(=C(C=C1[O-])C(F)(F)F)[N+](=O)[O-].[Na+]

> <PUBCHEM_CACTVS_TPSA>
68.9

> <PUBCHEM_MONOISOTOPIC_WEIGHT>
228.996272

> <PUBCHEM_TOTAL_CHARGE>
0

> <PUBCHEM_HEAVY_ATOM_COUNT>
15

> <PUBCHEM_ATOM_DEF_STEREO_COUNT>
0

> <PUBCHEM_ATOM_UDEF_STEREO_COUNT>
0

> <PUBCHEM_BOND_DEF_STEREO_COUNT>
0

> <PUBCHEM_BOND_UDEF_STEREO_COUNT>
0

> <PUBCHEM_ISOTOPIC_ATOM_COUNT>
0

> <PUBCHEM_COMPONENT_COUNT>
2

> <PUBCHEM_CACTVS_TAUTO_COUNT>
1

> <PUBCHEM_COORDINATE_TYPE>
1
5
255

> <PUBCHEM_BONDANNOTATIONS>
10  13  8
11  14  8
13  15  8
14  15  8
9  10  8
9  11  8

$$$$

