47205702
  -OEChem-06241222593D

 31 32  0     0  0  0  0  0  0999 V2000
   -2.1138    1.5556    0.0005 O   0  0  0  0  0  0  0  0  0  0  0  0
    1.2261   -2.2824   -0.0158 O   0  0  0  0  0  0  0  0  0  0  0  0
    0.0139   -0.2679    0.0282 N   0  0  0  0  0  0  0  0  0  0  0  0
   -3.6714   -0.1520   -0.0145 N   0  0  0  0  0  0  0  0  0  0  0  0
    2.3454    1.0402    0.0127 N   0  0  0  0  0  0  0  0  0  0  0  0
   -1.3149   -0.6916    0.0132 C   0  0  0  0  0  0  0  0  0  0  0  0
   -2.3684    0.2083   -0.0009 C   0  0  0  0  0  0  0  0  0  0  0  0
   -1.6181   -2.0486    0.0134 C   0  0  0  0  0  0  0  0  0  0  0  0
    1.1717   -1.0575    0.0134 C   0  0  0  0  0  0  0  0  0  0  0  0
   -3.2437    2.4195   -0.0147 C   0  0  0  0  0  0  0  0  0  0  0  0
    2.4549   -0.3072    0.0068 C   0  0  0  0  0  0  0  0  0  0  0  0
   -2.9468   -2.4584   -0.0004 C   0  0  0  0  0  0  0  0  0  0  0  0
   -3.9273   -1.4795   -0.0139 C   0  0  0  0  0  0  0  0  0  0  0  0
    3.6621   -0.9873   -0.0079 C   0  0  0  0  0  0  0  0  0  0  0  0
   -2.7664    3.8559    0.0044 C   0  0  0  0  0  0  0  0  0  0  0  0
    4.8322   -0.2362   -0.0168 C   0  0  0  0  0  0  0  0  0  0  0  0
    4.7604    1.1524   -0.0110 C   0  0  0  0  0  0  0  0  0  0  0  0
    3.5041    1.7368    0.0036 C   0  0  0  0  0  0  0  0  0  0  0  0
    0.1456    0.7415    0.0378 H   0  0  0  0  0  0  0  0  0  0  0  0
   -0.8819   -2.8398    0.0291 H   0  0  0  0  0  0  0  0  0  0  0  0
   -3.8354    2.2525   -0.9228 H   0  0  0  0  0  0  0  0  0  0  0  0
   -3.8689    2.2422    0.8688 H   0  0  0  0  0  0  0  0  0  0  0  0
   -3.2080   -3.5106    0.0006 H   0  0  0  0  0  0  0  0  0  0  0  0
   -4.9788   -1.7468   -0.0246 H   0  0  0  0  0  0  0  0  0  0  0  0
    3.7211   -2.0703   -0.0126 H   0  0  0  0  0  0  0  0  0  0  0  0
   -2.1620    4.0497    0.8968 H   0  0  0  0  0  0  0  0  0  0  0  0
   -2.1289    4.0619   -0.8619 H   0  0  0  0  0  0  0  0  0  0  0  0
   -3.6117    4.5496   -0.0067 H   0  0  0  0  0  0  0  0  0  0  0  0
    5.7983   -0.7317   -0.0284 H   0  0  0  0  0  0  0  0  0  0  0  0
    5.6593    1.7581   -0.0178 H   0  0  0  0  0  0  0  0  0  0  0  0
    3.3936    2.8161    0.0086 H   0  0  0  0  0  0  0  0  0  0  0  0
  1  7  1  0  0  0  0
  1 10  1  0  0  0  0
  2  9  2  0  0  0  0
  3  6  1  0  0  0  0
  3  9  1  0  0  0  0
  3 19  1  0  0  0  0
  4  7  1  0  0  0  0
  4 13  2  0  0  0  0
  5 11  1  0  0  0  0
  5 18  2  0  0  0  0
  6  7  2  0  0  0  0
  6  8  1  0  0  0  0
  8 12  2  0  0  0  0
  8 20  1  0  0  0  0
  9 11  1  0  0  0  0
 10 15  1  0  0  0  0
 10 21  1  0  0  0  0
 10 22  1  0  0  0  0
 11 14  2  0  0  0  0
 12 13  1  0  0  0  0
 12 23  1  0  0  0  0
 13 24  1  0  0  0  0
 14 16  1  0  0  0  0
 14 25  1  0  0  0  0
 15 26  1  0  0  0  0
 15 27  1  0  0  0  0
 15 28  1  0  0  0  0
 16 17  2  0  0  0  0
 16 29  1  0  0  0  0
 17 18  1  0  0  0  0
 17 30  1  0  0  0  0
 18 31  1  0  0  0  0
M  END
> <PUBCHEM_COMPOUND_CID>
47205702

> <PUBCHEM_CONFORMER_RMSD>
0.6

> <PUBCHEM_CONFORMER_DIVERSEORDER>
1
19
42
49
56
55
53
59
47
38
54
63
35
60
25
23
29
52
9
11
48
37
31
15
45
57
39
26
58
61
10
24
41
27
43
28
50
30
8
21
16
44
33
36
7
4
22
51
3
20
34
18
17
40
46
13
32
6
14
62
5
12
2

> <PUBCHEM_MMFF94_PARTIAL_CHARGES>
25
1 -0.36
10 0.28
11 0.4
12 -0.15
13 0.16
14 -0.15
16 -0.15
17 -0.15
18 0.16
19 0.37
2 -0.57
20 0.15
23 0.15
24 0.15
25 0.15
29 0.15
3 -0.55
30 0.15
31 0.15
4 -0.62
5 -0.62
6 0.12
7 0.39
8 -0.15
9 0.54

> <PUBCHEM_EFFECTIVE_ROTOR_COUNT>
5

> <PUBCHEM_PHARMACOPHORE_FEATURES>
7
1 1 acceptor
1 2 acceptor
1 3 donor
1 4 acceptor
1 5 acceptor
6 4 6 7 8 12 13 rings
6 5 11 14 16 17 18 rings

> <PUBCHEM_HEAVY_ATOM_COUNT>
18

> <PUBCHEM_ATOM_DEF_STEREO_COUNT>
0

> <PUBCHEM_ATOM_UDEF_STEREO_COUNT>
0

> <PUBCHEM_BOND_DEF_STEREO_COUNT>
0

> <PUBCHEM_BOND_UDEF_STEREO_COUNT>
0

> <PUBCHEM_ISOTOPIC_ATOM_COUNT>
0

> <PUBCHEM_COMPONENT_COUNT>
1

> <PUBCHEM_CACTVS_TAUTO_COUNT>
2

> <PUBCHEM_CONFORMER_ID>
02D04D4600000001

> <PUBCHEM_MMFF94_ENERGY>
52.0831

> <PUBCHEM_FEATURE_SELFOVERLAP>
35.569

> <PUBCHEM_SHAPE_FINGERPRINT>
10498660 4 18412268306926852269
10608611 8 18409167727101865102
10616163 171 18410291406473880878
10646746 165 18410292527892712476
10670039 82 18271229540213223748
12107183 9 17910121540275149362
12173636 292 18410296917001383007
12390115 104 18116979178242666665
12403259 226 18189620440744405408
12403260 363 18341338812156580514
138480 1 16105013915852464705
14123255 52 18195527227815494897
15196674 1 18410573963708269668
15442244 35 18268433602033308938
1741750 31 18263925608400946713
17492 89 18411419518563993138
17802600 8 18335704892921535440
17834072 32 18193837269874897569
18186145 218 18114167636889703658
19930381 70 17762341305876059505
20510252 161 18407757045436314139
20621476 13 16613084997531972205
20645477 56 18339354288136600381
20645477 70 16878213264805884302
21065198 57 18410575115223962574
21267235 1 18339351981444192010
21652331 79 18338234856044213186
221357 26 18333448720841783292
22182937 141 18263357143836553241
2306618 200 18187638103158106915
23402539 116 18336553716104335855
23557571 272 18260821601044650332
23558518 356 18272080647684991707
23559900 14 18044377360398560950
23845131 108 17908973654890122057
245318 6 16552827925462162180
335352 9 18122626325776140310
4028521 119 18343592828030952951
4214541 1 18410573998379302852
474 4 17632292320641233486
5104073 3 18411420630970235106
5281201 14 18114170948288273294
77779 3 18410572860302874070
9709674 26 18408598171521092854

> <PUBCHEM_SHAPE_MULTIPOLES>
343.75
9.57
3.38
0.59
7.25
2.74
0
1.97
-0.06
-4.23
0
0.01
0
0

> <PUBCHEM_SHAPE_SELFOVERLAP>
729.806

> <PUBCHEM_SHAPE_VOLUME>
189.4

> <PUBCHEM_COORDINATE_TYPE>
2
5
10

$$$$

