5281457
  -OEChem-07051212572D

 57 58  0     1  0  0  0  0  0999 V2000
    8.7992    1.0721    0.0000 O   0  0  0  0  0  0  0  0  0  0  0  0
    5.4641    0.9050    0.0000 O   0  0  0  0  0  0  0  0  0  0  0  0
    8.0622   -3.5950    0.0000 O   0  0  0  0  0  0  0  0  0  0  0  0
    8.8941    2.8459    0.0000 O   0  0  0  0  0  0  0  0  0  0  0  0
    4.5981   -0.5950    0.0000 O   0  0  0  0  0  0  0  0  0  0  0  0
    2.8660    2.4050    0.0000 O   0  0  0  0  0  0  0  0  0  0  0  0
    3.7320    3.9050    0.0000 O   0  0  0  0  0  0  0  0  0  0  0  0
    7.1962    0.9050    0.0000 C   0  0  2  0  0  0  0  0  0  0  0  0
    6.3301    0.4050    0.0000 C   0  0  1  0  0  0  0  0  0  0  0  0
    8.0622    0.4050    0.0000 C   0  0  1  0  0  0  0  0  0  0  0  0
    6.3301   -0.5950    0.0000 C   0  0  0  0  0  0  0  0  0  0  0  0
    7.4054    1.8768    0.0000 C   0  0  0  0  0  0  0  0  0  0  0  0
    8.0622   -0.5950    0.0000 C   0  0  0  0  0  0  0  0  0  0  0  0
    7.1962   -1.0950    0.0000 C   0  0  0  0  0  0  0  0  0  0  0  0
    8.3941    1.9799    0.0000 C   0  0  0  0  0  0  0  0  0  0  0  0
    8.9282   -1.0950    0.0000 C   0  0  0  0  0  0  0  0  0  0  0  0
    8.9282   -2.0950    0.0000 C   0  0  0  0  0  0  0  0  0  0  0  0
    8.0622   -2.5950    0.0000 C   0  0  1  0  0  0  0  0  0  0  0  0
    7.1962   -2.0950    0.0000 C   0  0  0  0  0  0  0  0  0  0  0  0
    6.7375    2.6211    0.0000 C   0  0  0  0  0  0  0  0  0  0  0  0
    8.3835   -0.0987    0.0000 C   0  0  0  0  0  0  0  0  0  0  0  0
    9.7942   -0.5950    0.0000 C   0  0  0  0  0  0  0  0  0  0  0  0
    4.5981    0.4050    0.0000 C   0  0  0  0  0  0  0  0  0  0  0  0
    3.7320    0.9050    0.0000 C   0  0  0  0  0  0  0  0  0  0  0  0
    3.7320    1.9050    0.0000 C   0  0  0  0  0  0  0  0  0  0  0  0
    2.8660    0.4050    0.0000 C   0  0  0  0  0  0  0  0  0  0  0  0
    2.8660   -0.5950    0.0000 C   0  0  0  0  0  0  0  0  0  0  0  0
    2.8660    3.4050    0.0000 C   0  0  0  0  0  0  0  0  0  0  0  0
    2.0000    3.9050    0.0000 C   0  0  0  0  0  0  0  0  0  0  0  0
    6.5091    1.4055    0.0000 H   0  0  0  0  0  0  0  0  0  0  0  0
    5.7932    0.0950    0.0000 H   0  0  0  0  0  0  0  0  0  0  0  0
    8.8391    0.0603    0.0000 H   0  0  0  0  0  0  0  0  0  0  0  0
    5.7196   -0.4873    0.0000 H   0  0  0  0  0  0  0  0  0  0  0  0
    6.1181   -1.1776    0.0000 H   0  0  0  0  0  0  0  0  0  0  0  0
    7.8501   -1.1776    0.0000 H   0  0  0  0  0  0  0  0  0  0  0  0
    9.1403   -2.6776    0.0000 H   0  0  0  0  0  0  0  0  0  0  0  0
    9.5388   -1.9873    0.0000 H   0  0  0  0  0  0  0  0  0  0  0  0
    7.5252   -2.9050    0.0000 H   0  0  0  0  0  0  0  0  0  0  0  0
    6.6592   -2.4050    0.0000 H   0  0  0  0  0  0  0  0  0  0  0  0
    6.9301    3.2104    0.0000 H   0  0  0  0  0  0  0  0  0  0  0  0
    6.1308    2.4933    0.0000 H   0  0  0  0  0  0  0  0  0  0  0  0
    8.7820   -0.5736    0.0000 H   0  0  0  0  0  0  0  0  0  0  0  0
    8.8585    0.2998    0.0000 H   0  0  0  0  0  0  0  0  0  0  0  0
    7.9850    0.3763    0.0000 H   0  0  0  0  0  0  0  0  0  0  0  0
   10.1042   -1.1319    0.0000 H   0  0  0  0  0  0  0  0  0  0  0  0
   10.3312   -0.2850    0.0000 H   0  0  0  0  0  0  0  0  0  0  0  0
    9.4842   -0.0581    0.0000 H   0  0  0  0  0  0  0  0  0  0  0  0
    8.5991   -3.9050    0.0000 H   0  0  0  0  0  0  0  0  0  0  0  0
    4.3426    1.7973    0.0000 H   0  0  0  0  0  0  0  0  0  0  0  0
    3.9441    2.4876    0.0000 H   0  0  0  0  0  0  0  0  0  0  0  0
    2.3291    0.7150    0.0000 H   0  0  0  0  0  0  0  0  0  0  0  0
    2.2460   -0.5950    0.0000 H   0  0  0  0  0  0  0  0  0  0  0  0
    2.8660   -1.2150    0.0000 H   0  0  0  0  0  0  0  0  0  0  0  0
    3.4860   -0.5950    0.0000 H   0  0  0  0  0  0  0  0  0  0  0  0
    2.3100    4.4419    0.0000 H   0  0  0  0  0  0  0  0  0  0  0  0
    1.4631    4.2150    0.0000 H   0  0  0  0  0  0  0  0  0  0  0  0
    1.6900    3.3681    0.0000 H   0  0  0  0  0  0  0  0  0  0  0  0
  1 10  1  0  0  0  0
  1 15  1  0  0  0  0
  9  2  1  1  0  0  0
  2 23  1  0  0  0  0
 18  3  1  6  0  0  0
  3 48  1  0  0  0  0
  4 15  2  0  0  0  0
  5 23  2  0  0  0  0
  6 25  1  0  0  0  0
  6 28  1  0  0  0  0
  7 28  2  0  0  0  0
  8  9  1  0  0  0  0
  8 10  1  0  0  0  0
  8 12  1  0  0  0  0
  8 30  1  6  0  0  0
  9 11  1  0  0  0  0
  9 31  1  0  0  0  0
 10 13  1  0  0  0  0
 10 32  1  1  0  0  0
 11 14  1  0  0  0  0
 11 33  1  0  0  0  0
 11 34  1  0  0  0  0
 12 15  1  0  0  0  0
 12 20  2  0  0  0  0
 13 16  2  0  0  0  0
 13 35  1  0  0  0  0
 14 19  2  0  0  0  0
 14 21  1  0  0  0  0
 16 17  1  0  0  0  0
 16 22  1  0  0  0  0
 17 18  1  0  0  0  0
 17 36  1  0  0  0  0
 17 37  1  0  0  0  0
 18 19  1  0  0  0  0
 18 38  1  0  0  0  0
 19 39  1  0  0  0  0
 20 40  1  0  0  0  0
 20 41  1  0  0  0  0
 21 42  1  0  0  0  0
 21 43  1  0  0  0  0
 21 44  1  0  0  0  0
 22 45  1  0  0  0  0
 22 46  1  0  0  0  0
 22 47  1  0  0  0  0
 23 24  1  0  0  0  0
 24 25  1  0  0  0  0
 24 26  2  0  0  0  0
 25 49  1  0  0  0  0
 25 50  1  0  0  0  0
 26 27  1  0  0  0  0
 26 51  1  0  0  0  0
 27 52  1  0  0  0  0
 27 53  1  0  0  0  0
 27 54  1  0  0  0  0
 28 29  1  0  0  0  0
 29 55  1  0  0  0  0
 29 56  1  0  0  0  0
 29 57  1  0  0  0  0
M  END
> <PUBCHEM_COMPOUND_CID>
5281457

> <PUBCHEM_COMPOUND_CANONICALIZED>
1

> <PUBCHEM_CACTVS_COMPLEXITY>
787

> <PUBCHEM_CACTVS_HBOND_ACCEPTOR>
7

> <PUBCHEM_CACTVS_HBOND_DONOR>
1

> <PUBCHEM_CACTVS_ROTATABLE_BOND>
6

> <PUBCHEM_CACTVS_SUBSKEYS>
AAADceB4OAAAAAAAAAAAAAAAAAAAASAAAAAAAAAAAAAAAACAAAAAGgAACAAADRSggAICCAAABgCIAiDSCAAAAAAgAAAACAEAAEgAFBYAIQACUAAF4AAIMYPKyCCOAAAAAAAAAAAAAAAAAAAAAAAAAAAAAA==

> <PUBCHEM_IUPAC_OPENEYE_NAME>
[(3aR,4R,6E,8S,10E,11aR)-8-hydroxy-6,10-dimethyl-3-methylene-2-oxo-3a,4,5,8,9,11a-hexahydrocyclodeca[b]furan-4-yl] (Z)-2-(acetoxymethyl)but-2-enoate

> <PUBCHEM_IUPAC_CAS_NAME>
(Z)-2-(acetyloxymethyl)-2-butenoic acid [(3aR,4R,6E,8S,10E,11aR)-8-hydroxy-6,10-dimethyl-3-methylene-2-oxo-3a,4,5,8,9,11a-hexahydrocyclodeca[b]furan-4-yl] ester

> <PUBCHEM_IUPAC_NAME>
[(3aR,4R,6E,8S,10E,11aR)-8-hydroxy-6,10-dimethyl-3-methylidene-2-oxo-3a,4,5,8,9,11a-hexahydrocyclodeca[b]furan-4-yl] (Z)-2-(acetyloxymethyl)but-2-enoate

> <PUBCHEM_IUPAC_SYSTEMATIC_NAME>
[(3aR,4R,6E,8S,10E,11aR)-6,10-dimethyl-3-methylidene-8-oxidanyl-2-oxidanylidene-3a,4,5,8,9,11a-hexahydrocyclodeca[b]furan-4-yl] (Z)-2-(acetyloxymethyl)but-2-enoate

> <PUBCHEM_IUPAC_TRADITIONAL_NAME>
(Z)-2-(acetoxymethyl)but-2-enoic acid [(3aR,4R,6E,8S,10E,11aR)-8-hydroxy-2-keto-6,10-dimethyl-3-methylene-3a,4,5,8,9,11a-hexahydrocyclodeca[b]furan-4-yl] ester

> <PUBCHEM_IUPAC_INCHI>
InChI=1S/C22H28O7/c1-6-16(11-27-15(5)23)22(26)29-19-10-13(3)8-17(24)7-12(2)9-18-20(19)14(4)21(25)28-18/h6,8-9,17-20,24H,4,7,10-11H2,1-3,5H3/b12-9+,13-8+,16-6-/t17-,18+,19+,20-/m0/s1

> <PUBCHEM_IUPAC_INCHIKEY>
WTROTTYFRJDSKY-QKGVNLGISA-N

> <PUBCHEM_XLOGP3_AA>
1.8

> <PUBCHEM_EXACT_MASS>
404.183503

> <PUBCHEM_MOLECULAR_FORMULA>
C22H28O7

> <PUBCHEM_MOLECULAR_WEIGHT>
404.45352

> <PUBCHEM_OPENEYE_CAN_SMILES>
CC=C(COC(=O)C)C(=O)OC1CC(=CC(CC(=CC2C1C(=C)C(=O)O2)C)O)C

> <PUBCHEM_OPENEYE_ISO_SMILES>
C/C=C(/COC(=O)C)\C(=O)O[C@@H]1C/C(=C/[C@H](C/C(=C/[C@@H]2[C@@H]1C(=C)C(=O)O2)/C)O)/C

> <PUBCHEM_CACTVS_TPSA>
99.1

> <PUBCHEM_MONOISOTOPIC_WEIGHT>
404.183503

> <PUBCHEM_TOTAL_CHARGE>
0

> <PUBCHEM_HEAVY_ATOM_COUNT>
29

> <PUBCHEM_ATOM_DEF_STEREO_COUNT>
4

> <PUBCHEM_ATOM_UDEF_STEREO_COUNT>
0

> <PUBCHEM_BOND_DEF_STEREO_COUNT>
3

> <PUBCHEM_BOND_UDEF_STEREO_COUNT>
0

> <PUBCHEM_ISOTOPIC_ATOM_COUNT>
0

> <PUBCHEM_COMPONENT_COUNT>
1

> <PUBCHEM_CACTVS_TAUTO_COUNT>
1

> <PUBCHEM_COORDINATE_TYPE>
1
5
255

> <PUBCHEM_BONDANNOTATIONS>
10  32  5
9  2  5
18  3  6
8  30  6

$$$$

