582729
  -OEChem-06241222432D

 31 33  0     1  0  0  0  0  0999 V2000
    4.3791    3.1345    0.0000 Cl  0  0  0  0  0  0  0  0  0  0  0  0
    4.4909    0.8200    0.0000 N   0  0  0  0  0  0  0  0  0  0  0  0
    4.2320   -0.1460    0.0000 C   0  0  0  0  0  0  0  0  0  0  0  0
    3.2543    1.6686    0.0000 C   0  0  0  0  0  0  0  0  0  0  0  0
    2.5000   -1.1460    0.0000 C   0  0  0  0  0  0  0  0  0  0  0  0
    6.0640   -0.9048    0.0000 C   0  0  0  0  0  0  0  0  0  0  0  0
    4.1203    2.1686    0.0000 C   0  0  3  0  0  0  0  0  0  0  0  0
    2.0000   -0.2799    0.0000 C   0  0  0  0  0  0  0  0  0  0  0  0
    6.3228    0.0612    0.0000 C   0  0  0  0  0  0  0  0  0  0  0  0
    4.3193   -1.1422    0.0000 C   0  0  0  0  0  0  0  0  0  0  0  0
    3.5000   -1.7157    0.0000 C   0  0  0  0  0  0  0  0  0  0  0  0
    5.2255   -1.5648    0.0000 C   0  0  0  0  0  0  0  0  0  0  0  0
    3.5872   -2.7119    0.0000 C   0  0  0  0  0  0  0  0  0  0  0  0
    5.3127   -2.5610    0.0000 C   0  0  0  0  0  0  0  0  0  0  0  0
    4.4936   -3.1345    0.0000 C   0  0  0  0  0  0  0  0  0  0  0  0
    2.9495    2.2085    0.0000 H   0  0  0  0  0  0  0  0  0  0  0  0
    2.7114    1.3692    0.0000 H   0  0  0  0  0  0  0  0  0  0  0  0
    1.9631   -1.4560    0.0000 H   0  0  0  0  0  0  0  0  0  0  0  0
    2.8100   -1.6829    0.0000 H   0  0  0  0  0  0  0  0  0  0  0  0
    5.8520   -1.4874    0.0000 H   0  0  0  0  0  0  0  0  0  0  0  0
    6.6553   -1.0912    0.0000 H   0  0  0  0  0  0  0  0  0  0  0  0
    3.4459    2.6861    0.0000 H   0  0  0  0  0  0  0  0  0  0  0  0
    1.7294    0.2779    0.0000 H   0  0  0  0  0  0  0  0  0  0  0  0
    1.4523   -0.5704    0.0000 H   0  0  0  0  0  0  0  0  0  0  0  0
    6.9141   -0.1253    0.0000 H   0  0  0  0  0  0  0  0  0  0  0  0
    6.5349    0.6438    0.0000 H   0  0  0  0  0  0  0  0  0  0  0  0
    2.9381   -1.4537    0.0000 H   0  0  0  0  0  0  0  0  0  0  0  0
    5.7334   -1.2092    0.0000 H   0  0  0  0  0  0  0  0  0  0  0  0
    3.0794   -3.0676    0.0000 H   0  0  0  0  0  0  0  0  0  0  0  0
    5.8746   -2.8230    0.0000 H   0  0  0  0  0  0  0  0  0  0  0  0
    4.5476   -3.7522    0.0000 H   0  0  0  0  0  0  0  0  0  0  0  0
  1  7  1  0  0  0  0
  2  7  1  0  0  0  0
  2  8  1  0  0  0  0
  2  9  1  0  0  0  0
  3  4  1  0  0  0  0
  3  5  1  0  0  0  0
  3  6  1  0  0  0  0
  3 10  1  0  0  0  0
  4  7  1  0  0  0  0
  4 16  1  0  0  0  0
  4 17  1  0  0  0  0
  5  8  1  0  0  0  0
  5 18  1  0  0  0  0
  5 19  1  0  0  0  0
  6  9  1  0  0  0  0
  6 20  1  0  0  0  0
  6 21  1  0  0  0  0
  7 22  1  0  0  0  0
  8 23  1  0  0  0  0
  8 24  1  0  0  0  0
  9 25  1  0  0  0  0
  9 26  1  0  0  0  0
 10 11  2  0  0  0  0
 10 12  1  0  0  0  0
 11 13  1  0  0  0  0
 11 27  1  0  0  0  0
 12 14  2  0  0  0  0
 12 28  1  0  0  0  0
 13 15  2  0  0  0  0
 13 29  1  0  0  0  0
 14 15  1  0  0  0  0
 14 30  1  0  0  0  0
 15 31  1  0  0  0  0
M  END
> <PUBCHEM_COMPOUND_CID>
582729

> <PUBCHEM_COMPOUND_CANONICALIZED>
1

> <PUBCHEM_CACTVS_COMPLEXITY>
227

> <PUBCHEM_CACTVS_HBOND_ACCEPTOR>
1

> <PUBCHEM_CACTVS_HBOND_DONOR>
0

> <PUBCHEM_CACTVS_ROTATABLE_BOND>
1

> <PUBCHEM_CACTVS_SUBSKEYS>
AAADceByAAAEAAAAAAAAAAAAAAAAAAAAAAA8WLEAAAAAAAABAAAAHAIAAAAADgPBGEQwAIMAAACAAiBCAAACAAAgAAAIiAAIAogIICKBkRCEIAAggACIiAcQgMAPgAAAAAAAAAAAAAAAAAAAAAAAAAAAAA==

> <PUBCHEM_IUPAC_OPENEYE_NAME>
2-chloro-4-phenyl-quinuclidine

> <PUBCHEM_IUPAC_CAS_NAME>
2-chloro-4-phenyl-1-azabicyclo[2.2.2]octane

> <PUBCHEM_IUPAC_NAME>
2-chloro-4-phenyl-1-azabicyclo[2.2.2]octane

> <PUBCHEM_IUPAC_SYSTEMATIC_NAME>
2-chloranyl-4-phenyl-1-azabicyclo[2.2.2]octane

> <PUBCHEM_IUPAC_TRADITIONAL_NAME>
2-chloro-4-phenyl-quinuclidine

> <PUBCHEM_IUPAC_INCHI>
InChI=1S/C13H16ClN/c14-12-10-13(6-8-15(12)9-7-13)11-4-2-1-3-5-11/h1-5,12H,6-10H2

> <PUBCHEM_IUPAC_INCHIKEY>
NLLKUNTTXKUARA-UHFFFAOYSA-N

> <PUBCHEM_XLOGP3_AA>
3.4

> <PUBCHEM_EXACT_MASS>
221.097127

> <PUBCHEM_MOLECULAR_FORMULA>
C13H16ClN

> <PUBCHEM_MOLECULAR_WEIGHT>
221.72584

> <PUBCHEM_OPENEYE_CAN_SMILES>
C1CN2CCC1(CC2Cl)C3=CC=CC=C3

> <PUBCHEM_OPENEYE_ISO_SMILES>
C1CN2CCC1(CC2Cl)C3=CC=CC=C3

> <PUBCHEM_CACTVS_TPSA>
3.2

> <PUBCHEM_MONOISOTOPIC_WEIGHT>
221.097127

> <PUBCHEM_TOTAL_CHARGE>
0

> <PUBCHEM_HEAVY_ATOM_COUNT>
15

> <PUBCHEM_ATOM_DEF_STEREO_COUNT>
0

> <PUBCHEM_ATOM_UDEF_STEREO_COUNT>
1

> <PUBCHEM_BOND_DEF_STEREO_COUNT>
0

> <PUBCHEM_BOND_UDEF_STEREO_COUNT>
0

> <PUBCHEM_ISOTOPIC_ATOM_COUNT>
0

> <PUBCHEM_COMPONENT_COUNT>
1

> <PUBCHEM_CACTVS_TAUTO_COUNT>
1

> <PUBCHEM_COORDINATE_TYPE>
1
5
255

> <PUBCHEM_BONDANNOTATIONS>
10  11  8
10  12  8
11  13  8
12  14  8
13  15  8
14  15  8
7  22  3

$$$$

