5282104
  -OEChem-07051213033D

 26 27  0     0  0  0  0  0  0999 V2000
    3.0276   -1.8369    0.0370 O   0  0  0  0  0  0  0  0  0  0  0  0
    3.6208    0.4624   -0.3744 O   0  0  0  0  0  0  0  0  0  0  0  0
   -0.6642    3.0422   -0.6694 O   0  0  0  0  0  0  0  0  0  0  0  0
   -3.8971   -1.5004    0.0761 O   0  0  0  0  0  0  0  0  0  0  0  0
   -2.0077    2.0113    0.8469 O   0  0  0  0  0  0  0  0  0  0  0  0
    1.9515   -1.0063    0.1000 C   0  0  0  0  0  0  0  0  0  0  0  0
    2.2901    0.3067   -0.1347 C   0  0  0  0  0  0  0  0  0  0  0  0
   -0.3234   -0.3840    0.3856 C   0  0  0  0  0  0  0  0  0  0  0  0
    0.0225    0.9575    0.1457 C   0  0  0  0  0  0  0  0  0  0  0  0
    0.6512   -1.3846    0.3637 C   0  0  0  0  0  0  0  0  0  0  0  0
    1.3471    1.3138   -0.1187 C   0  0  0  0  0  0  0  0  0  0  0  0
    4.0817   -0.8998   -0.2634 C   0  0  0  0  0  0  0  0  0  0  0  0
   -1.7021   -0.7690    0.6634 C   0  0  0  0  0  0  0  0  0  0  0  0
   -0.9810    2.0160    0.1644 C   0  0  0  0  0  0  0  0  0  0  0  0
   -2.6168   -1.1412   -0.2506 C   0  0  0  0  0  0  0  0  0  0  0  0
   -4.8001   -1.1878   -0.9716 C   0  0  0  0  0  0  0  0  0  0  0  0
    0.4059   -2.4261    0.5467 H   0  0  0  0  0  0  0  0  0  0  0  0
    1.6541    2.3392   -0.2958 H   0  0  0  0  0  0  0  0  0  0  0  0
    4.8346   -0.9517    0.5314 H   0  0  0  0  0  0  0  0  0  0  0  0
    4.5499   -1.1900   -1.2111 H   0  0  0  0  0  0  0  0  0  0  0  0
   -1.9835   -0.7473    1.7139 H   0  0  0  0  0  0  0  0  0  0  0  0
   -2.3953   -1.1928   -1.3086 H   0  0  0  0  0  0  0  0  0  0  0  0
   -1.3428    3.7504   -0.6513 H   0  0  0  0  0  0  0  0  0  0  0  0
   -5.8122   -1.4277   -0.6323 H   0  0  0  0  0  0  0  0  0  0  0  0
   -4.5903   -1.7892   -1.8631 H   0  0  0  0  0  0  0  0  0  0  0  0
   -4.7672   -0.1202   -1.2165 H   0  0  0  0  0  0  0  0  0  0  0  0
  1  6  1  0  0  0  0
  1 12  1  0  0  0  0
  2  7  1  0  0  0  0
  2 12  1  0  0  0  0
  3 14  1  0  0  0  0
  3 23  1  0  0  0  0
  4 15  1  0  0  0  0
  4 16  1  0  0  0  0
  5 14  2  0  0  0  0
  6  7  2  0  0  0  0
  6 10  1  0  0  0  0
  7 11  1  0  0  0  0
  8  9  1  0  0  0  0
  8 10  2  0  0  0  0
  8 13  1  0  0  0  0
  9 11  2  0  0  0  0
  9 14  1  0  0  0  0
 10 17  1  0  0  0  0
 11 18  1  0  0  0  0
 12 19  1  0  0  0  0
 12 20  1  0  0  0  0
 13 15  2  0  0  0  0
 13 21  1  0  0  0  0
 15 22  1  0  0  0  0
 16 24  1  0  0  0  0
 16 25  1  0  0  0  0
 16 26  1  0  0  0  0
M  END
> <PUBCHEM_COMPOUND_CID>
5282104

> <PUBCHEM_CONFORMER_RMSD>
0.6

> <PUBCHEM_CONFORMER_DIVERSEORDER>
1
2
5
3
4

> <PUBCHEM_MMFF94_PARTIAL_CHARGES>
21
1 -0.36
10 -0.15
11 -0.15
12 0.56
13 -0.18
14 0.63
15 -0.07
16 0.28
17 0.15
18 0.15
2 -0.36
21 0.15
22 0.15
23 0.5
3 -0.65
4 -0.36
5 -0.57
6 0.08
7 0.08
8 0.03
9 0.09

> <PUBCHEM_EFFECTIVE_ROTOR_COUNT>
3.6

> <PUBCHEM_PHARMACOPHORE_FEATURES>
8
1 1 acceptor
1 2 acceptor
1 3 acceptor
1 4 acceptor
1 5 acceptor
3 3 5 14 anion
5 1 2 6 7 12 rings
6 6 7 8 9 10 11 rings

> <PUBCHEM_HEAVY_ATOM_COUNT>
16

> <PUBCHEM_ATOM_DEF_STEREO_COUNT>
0

> <PUBCHEM_ATOM_UDEF_STEREO_COUNT>
0

> <PUBCHEM_BOND_DEF_STEREO_COUNT>
1

> <PUBCHEM_BOND_UDEF_STEREO_COUNT>
0

> <PUBCHEM_ISOTOPIC_ATOM_COUNT>
0

> <PUBCHEM_COMPONENT_COUNT>
1

> <PUBCHEM_CACTVS_TAUTO_COUNT>
1

> <PUBCHEM_CONFORMER_ID>
0050993800000001

> <PUBCHEM_MMFF94_ENERGY>
53.5584

> <PUBCHEM_FEATURE_SELFOVERLAP>
40.808

> <PUBCHEM_SHAPE_FINGERPRINT>
10967382 1 18267580196162699360
11206711 2 18341885325132899796
11471102 20 18340772533192165175
11578080 2 17604732022256624489
116883 192 18335980982030499031
13134695 92 17969228828779306521
13583140 156 14563090411101543474
14508225 48 18413673521552885740
14576447 43 18117284661849321623
15490181 7 17695340769377077865
15848700 24 18336555914947827327
16945 1 18268976627675336834
17357779 13 18338812147331364133
200 152 18409171004056670351
20261772 1 18264751324780747825
20645477 70 18337110060171416807
20871998 184 18114461266011724679
21296965 67 18335986389351950957
21501502 16 18339917233800179810
221357 26 18341630187639460215
221490 88 17836644128765404451
2334 1 18340480153741571096
23402539 116 18408609166600077031
23419403 2 17605584126482890233
23557571 272 18113892797537089166
23559900 14 17902514028514401006
23622692 118 18267594687583550210
25147074 1 18270954769521569146
2748010 2 18411982438256769384
2871803 45 18412827988526381190
3071541 158 18057042406930813397
3286 77 17313104129225614210
69090 78 18123466347895457657
81228 2 18341043103289077169

> <PUBCHEM_SHAPE_MULTIPOLES>
299.93
6.89
2.48
0.78
2.93
1.79
0.01
-4.43
1.83
0.82
0.12
0.37
0.03
-0.42

> <PUBCHEM_SHAPE_SELFOVERLAP>
648.61

> <PUBCHEM_SHAPE_VOLUME>
165.3

> <PUBCHEM_COORDINATE_TYPE>
2
5
10

$$$$

