439464
  -OEChem-07051212453D

 18 18  0     0  0  0  0  0  0999 V2000
    2.1946   -1.8895    0.0001 O   0  0  0  0  0  0  0  0  0  0  0  0
   -3.0233    1.0284    0.0009 O   0  0  0  0  0  0  0  0  0  0  0  0
   -2.9212   -1.2423    0.0001 O   0  0  0  0  0  0  0  0  0  0  0  0
    0.9818    1.5560   -0.0004 N   0  0  0  0  0  0  0  0  0  0  0  0
    1.7929    0.4743   -0.0002 C   0  0  0  0  0  0  0  0  0  0  0  0
    1.3398   -0.8350    0.0000 C   0  0  0  0  0  0  0  0  0  0  0  0
   -0.9011    0.0393   -0.0004 C   0  0  0  0  0  0  0  0  0  0  0  0
   -0.0344   -1.0481   -0.0003 C   0  0  0  0  0  0  0  0  0  0  0  0
   -0.3475    1.3097   -0.0006 C   0  0  0  0  0  0  0  0  0  0  0  0
    3.2593    0.7578    0.0008 C   0  0  0  0  0  0  0  0  0  0  0  0
   -2.3410   -0.1504   -0.0002 C   0  0  0  0  0  0  0  0  0  0  0  0
   -0.4175   -2.0655   -0.0002 H   0  0  0  0  0  0  0  0  0  0  0  0
   -0.9495    2.2127   -0.0007 H   0  0  0  0  0  0  0  0  0  0  0  0
    3.7351    0.3438   -0.8940 H   0  0  0  0  0  0  0  0  0  0  0  0
    3.4456    1.8375    0.0009 H   0  0  0  0  0  0  0  0  0  0  0  0
    3.7340    0.3438    0.8962 H   0  0  0  0  0  0  0  0  0  0  0  0
    3.1172   -1.5901   -0.0001 H   0  0  0  0  0  0  0  0  0  0  0  0
   -3.9942    0.8878    0.0017 H   0  0  0  0  0  0  0  0  0  0  0  0
  1  6  1  0  0  0  0
  1 17  1  0  0  0  0
  2 11  1  0  0  0  0
  2 18  1  0  0  0  0
  3 11  2  0  0  0  0
  4  5  1  0  0  0  0
  4  9  2  0  0  0  0
  5  6  2  0  0  0  0
  5 10  1  0  0  0  0
  6  8  1  0  0  0  0
  7  8  2  0  0  0  0
  7  9  1  0  0  0  0
  7 11  1  0  0  0  0
  8 12  1  0  0  0  0
  9 13  1  0  0  0  0
 10 14  1  0  0  0  0
 10 15  1  0  0  0  0
 10 16  1  0  0  0  0
M  END
> <PUBCHEM_COMPOUND_CID>
439464

> <PUBCHEM_CONFORMER_RMSD>
0.4

> <PUBCHEM_CONFORMER_DIVERSEORDER>
1
2

> <PUBCHEM_MMFF94_PARTIAL_CHARGES>
15
1 -0.53
10 0.14
11 0.63
12 0.15
13 0.15
17 0.45
18 0.5
2 -0.65
3 -0.57
4 -0.62
5 0.17
6 0.08
7 0.09
8 -0.15
9 0.16

> <PUBCHEM_EFFECTIVE_ROTOR_COUNT>
1

> <PUBCHEM_PHARMACOPHORE_FEATURES>
6
1 1 donor
1 2 acceptor
1 3 acceptor
1 4 acceptor
3 2 3 11 anion
6 4 5 6 7 8 9 rings

> <PUBCHEM_HEAVY_ATOM_COUNT>
11

> <PUBCHEM_ATOM_DEF_STEREO_COUNT>
0

> <PUBCHEM_ATOM_UDEF_STEREO_COUNT>
0

> <PUBCHEM_BOND_DEF_STEREO_COUNT>
0

> <PUBCHEM_BOND_UDEF_STEREO_COUNT>
0

> <PUBCHEM_ISOTOPIC_ATOM_COUNT>
0

> <PUBCHEM_COMPONENT_COUNT>
1

> <PUBCHEM_CACTVS_TAUTO_COUNT>
3

> <PUBCHEM_CONFORMER_ID>
0006B4A800000001

> <PUBCHEM_MMFF94_ENERGY>
30.1927

> <PUBCHEM_FEATURE_SELFOVERLAP>
30.504

> <PUBCHEM_SHAPE_FINGERPRINT>
12032990 46 18409721842545091334
12897270 3 18410292501590184684
12932764 1 17458633284980804323
14325111 11 18410856542523379808
16945 1 18338797797376064357
193761 8 17906453582127079716
20201158 50 18342177734922428507
20645477 70 18337677507308940567
21040471 1 18266741281527966980
23235685 24 18340493270413671240
23402655 69 18336280032620319485
23552423 10 18272085041040604182
2748010 2 18339080496450096614
29004967 10 18413105052328696057
5084963 1 18115865200710980177
528886 8 18410017628025693793
53812653 166 18333736788540760384

> <PUBCHEM_SHAPE_MULTIPOLES>
203.79
4.5
1.65
0.58
0.91
0.23
0
-0.07
0
-0.37
0
-0.03
-0.01
0

> <PUBCHEM_SHAPE_SELFOVERLAP>
429.155

> <PUBCHEM_SHAPE_VOLUME>
114.5

> <PUBCHEM_COORDINATE_TYPE>
2
5
10

$$$$

