13152
  -OEChem-06261207493D

 28 27  0     0  0  0  0  0  0999 V2000
    0.0054   -1.8497   -0.0232 O   0  0  0  0  0  0  0  0  0  0  0  0
   -1.3723    0.1279   -0.0371 C   0  0  0  0  0  0  0  0  0  0  0  0
    1.3593    0.1442   -0.0108 C   0  0  0  0  0  0  0  0  0  0  0  0
   -0.0021   -0.6096   -0.0238 C   0  0  0  0  0  0  0  0  0  0  0  0
   -1.3418    1.4896   -0.7359 C   0  0  0  0  0  0  0  0  0  0  0  0
   -2.4546   -0.7722   -0.6491 C   0  0  0  0  0  0  0  0  0  0  0  0
   -1.7782    0.3971    1.4346 C   0  0  0  0  0  0  0  0  0  0  0  0
    1.4634    1.0317    1.2373 C   0  0  0  0  0  0  0  0  0  0  0  0
    2.4857   -0.9165    0.0858 C   0  0  0  0  0  0  0  0  0  0  0  0
    1.6353    0.9576   -1.2779 C   0  0  0  0  0  0  0  0  0  0  0  0
   -1.0116    1.3905   -1.7748 H   0  0  0  0  0  0  0  0  0  0  0  0
   -2.3491    1.9238   -0.7709 H   0  0  0  0  0  0  0  0  0  0  0  0
   -0.7159    2.2269   -0.2313 H   0  0  0  0  0  0  0  0  0  0  0  0
   -2.1991   -1.0349   -1.6820 H   0  0  0  0  0  0  0  0  0  0  0  0
   -2.5681   -1.7089   -0.0914 H   0  0  0  0  0  0  0  0  0  0  0  0
   -3.4312   -0.2754   -0.6627 H   0  0  0  0  0  0  0  0  0  0  0  0
   -2.8081    0.7679    1.4977 H   0  0  0  0  0  0  0  0  0  0  0  0
   -1.1409    1.1409    1.9189 H   0  0  0  0  0  0  0  0  0  0  0  0
   -1.7172   -0.5206    2.0312 H   0  0  0  0  0  0  0  0  0  0  0  0
    0.8262    1.9165    1.1838 H   0  0  0  0  0  0  0  0  0  0  0  0
    1.1931    0.4759    2.1423 H   0  0  0  0  0  0  0  0  0  0  0  0
    2.4882    1.3985    1.3714 H   0  0  0  0  0  0  0  0  0  0  0  0
    2.4834   -1.5794   -0.7877 H   0  0  0  0  0  0  0  0  0  0  0  0
    3.4754   -0.4485    0.1438 H   0  0  0  0  0  0  0  0  0  0  0  0
    2.3687   -1.5430    0.9782 H   0  0  0  0  0  0  0  0  0  0  0  0
    2.7085    1.1414   -1.4094 H   0  0  0  0  0  0  0  0  0  0  0  0
    1.1706    1.9459   -1.2606 H   0  0  0  0  0  0  0  0  0  0  0  0
    1.2796    0.4302   -2.1699 H   0  0  0  0  0  0  0  0  0  0  0  0
  1  4  2  0  0  0  0
  2  4  1  0  0  0  0
  2  5  1  0  0  0  0
  2  6  1  0  0  0  0
  2  7  1  0  0  0  0
  3  4  1  0  0  0  0
  3  8  1  0  0  0  0
  3  9  1  0  0  0  0
  3 10  1  0  0  0  0
  5 11  1  0  0  0  0
  5 12  1  0  0  0  0
  5 13  1  0  0  0  0
  6 14  1  0  0  0  0
  6 15  1  0  0  0  0
  6 16  1  0  0  0  0
  7 17  1  0  0  0  0
  7 18  1  0  0  0  0
  7 19  1  0  0  0  0
  8 20  1  0  0  0  0
  8 21  1  0  0  0  0
  8 22  1  0  0  0  0
  9 23  1  0  0  0  0
  9 24  1  0  0  0  0
  9 25  1  0  0  0  0
 10 26  1  0  0  0  0
 10 27  1  0  0  0  0
 10 28  1  0  0  0  0
M  END
> <PUBCHEM_COMPOUND_CID>
13152

> <PUBCHEM_CONFORMER_RMSD>
0.4

> <PUBCHEM_CONFORMER_DIVERSEORDER>
1

> <PUBCHEM_MMFF94_PARTIAL_CHARGES>
4
1 -0.57
2 0.06
3 0.06
4 0.45

> <PUBCHEM_EFFECTIVE_ROTOR_COUNT>
2

> <PUBCHEM_PHARMACOPHORE_FEATURES>
3
1 1 acceptor
4 2 5 6 7 hydrophobe
4 3 8 9 10 hydrophobe

> <PUBCHEM_HEAVY_ATOM_COUNT>
10

> <PUBCHEM_ATOM_DEF_STEREO_COUNT>
0

> <PUBCHEM_ATOM_UDEF_STEREO_COUNT>
0

> <PUBCHEM_BOND_DEF_STEREO_COUNT>
0

> <PUBCHEM_BOND_UDEF_STEREO_COUNT>
0

> <PUBCHEM_ISOTOPIC_ATOM_COUNT>
0

> <PUBCHEM_COMPONENT_COUNT>
1

> <PUBCHEM_CACTVS_TAUTO_COUNT>
1

> <PUBCHEM_CONFORMER_ID>
0000336000000001

> <PUBCHEM_MMFF94_ENERGY>
35.2499

> <PUBCHEM_FEATURE_SELFOVERLAP>
15.223

> <PUBCHEM_SHAPE_FINGERPRINT>
12423570 1 7828652098609465664
12897270 3 18339657693163531719
15775835 57 18334855030320304457
16945 1 18060410331189724330
18185500 45 17970345038564468979
21040471 1 18339364067460563806
21922407 69 16772398309567345160
23235687 12 16226052149872087549
23552423 10 18272936032965312239
241688 4 18410015437650421121
24536 1 17704071810861595693
29004967 10 17632005455475330586
369184 2 17967822642994662633
5084963 1 18410577287981418743

> <PUBCHEM_SHAPE_MULTIPOLES>
199.93
3.25
1.49
1.24
0
0.16
0.22
0.24
-0.11
-0.05
-0.17
0.05
-0.44
-0.11

> <PUBCHEM_SHAPE_SELFOVERLAP>
376.753

> <PUBCHEM_SHAPE_VOLUME>
126.5

> <PUBCHEM_COORDINATE_TYPE>
2
5
10

$$$$

