441789
  -OEChem-07051212562D

 90 95  0     1  0  0  0  0  0999 V2000
   10.8178    1.4166    0.0000 O   0  0  0  0  0  0  0  0  0  0  0  0
   11.4456   -1.4302    0.0000 O   0  0  0  0  0  0  0  0  0  0  0  0
    8.7992    2.1202    0.0000 O   0  0  0  0  0  0  0  0  0  0  0  0
   10.5312    3.1202    0.0000 O   0  0  0  0  0  0  0  0  0  0  0  0
   13.1591    0.6557    0.0000 O   0  0  0  0  0  0  0  0  0  0  0  0
   12.8973    2.4862    0.0000 O   0  0  0  0  0  0  0  0  0  0  0  0
   11.3973    3.3523    0.0000 O   0  0  0  0  0  0  0  0  0  0  0  0
   13.2071   -1.3828    0.0000 O   0  0  0  0  0  0  0  0  0  0  0  0
    6.0203    0.6595    0.0000 O   0  0  0  0  0  0  0  0  0  0  0  0
    6.0042   -1.4321    0.0000 O   0  0  0  0  0  0  0  0  0  0  0  0
   14.0659   -0.8200    0.0000 O   0  0  0  0  0  0  0  0  0  0  0  0
    5.1370   -0.8304    0.0000 O   0  0  0  0  0  0  0  0  0  0  0  0
    4.2999    1.6794    0.0000 O   0  0  0  0  0  0  0  0  0  0  0  0
    2.5564    0.6995    0.0000 O   0  0  0  0  0  0  0  0  0  0  0  0
    2.5333   -1.3003    0.0000 O   0  0  0  0  0  0  0  0  0  0  0  0
    3.3819   -2.8102    0.0000 O   0  0  0  0  0  0  0  0  0  0  0  0
   10.5312    0.1202    0.0000 C   0  0  2  0  0  0  0  0  0  0  0  0
    9.6652    0.6202    0.0000 C   0  0  1  0  0  0  0  0  0  0  0  0
   11.3973    0.6202    0.0000 C   0  0  2  0  0  0  0  0  0  0  0  0
    8.7552    0.1134    0.0000 C   0  0  1  0  0  0  0  0  0  0  0  0
   10.5473   -0.9213    0.0000 C   0  0  1  0  0  0  0  0  0  0  0  0
   11.3973    1.6202    0.0000 C   0  0  1  0  0  0  0  0  0  0  0  0
    8.7472   -0.9282    0.0000 C   0  0  1  0  0  0  0  0  0  0  0  0
    9.6652    1.6202    0.0000 C   0  0  2  0  0  0  0  0  0  0  0  0
   10.4178    0.7238    0.0000 C   0  0  0  0  0  0  0  0  0  0  0  0
   10.5312    2.1202    0.0000 C   0  0  2  0  0  0  0  0  0  0  0  0
    9.6493   -1.4491    0.0000 C   0  0  0  0  0  0  0  0  0  0  0  0
   12.3071    0.1322    0.0000 C   0  0  2  0  0  0  0  0  0  0  0  0
    7.8118   -1.4780    0.0000 C   0  0  1  0  0  0  0  0  0  0  0  0
    8.4204    1.0557    0.0000 C   0  0  0  0  0  0  0  0  0  0  0  0
    7.8284    0.6774    0.0000 C   0  0  0  0  0  0  0  0  0  0  0  0
   11.8973    2.4862    0.0000 C   0  0  0  0  0  0  0  0  0  0  0  0
   12.3314   -0.8999    0.0000 C   0  0  0  0  0  0  0  0  0  0  0  0
    6.8721   -0.9355    0.0000 C   0  0  0  0  0  0  0  0  0  0  0  0
    6.8805    0.1495    0.0000 C   0  0  0  0  0  0  0  0  0  0  0  0
    7.8156   -2.4780    0.0000 C   0  0  0  0  0  0  0  0  0  0  0  0
   14.0385    0.1796    0.0000 C   0  0  0  0  0  0  0  0  0  0  0  0
   13.3973    3.3523    0.0000 C   0  0  0  0  0  0  0  0  0  0  0  0
    5.1486    0.1695    0.0000 C   0  0  2  0  0  0  0  0  0  0  0  0
   14.8905    0.7032    0.0000 C   0  0  0  0  0  0  0  0  0  0  0  0
    4.2884    0.6795    0.0000 C   0  0  1  0  0  0  0  0  0  0  0  0
    3.4166    0.1896    0.0000 C   0  0  2  0  0  0  0  0  0  0  0  0
    4.2652   -1.3204    0.0000 C   0  0  1  0  0  0  0  0  0  0  0  0
    3.4051   -0.8104    0.0000 C   0  0  1  0  0  0  0  0  0  0  0  0
   15.7699    0.2271    0.0000 C   0  0  0  0  0  0  0  0  0  0  0  0
    4.2537   -2.3203    0.0000 C   0  0  0  0  0  0  0  0  0  0  0  0
   16.6219    0.7506    0.0000 C   0  0  0  0  0  0  0  0  0  0  0  0
   15.7973   -0.7725    0.0000 C   0  0  0  0  0  0  0  0  0  0  0  0
    8.9291    1.0452    0.0000 H   0  0  0  0  0  0  0  0  0  0  0  0
   11.8223   -0.1159    0.0000 H   0  0  0  0  0  0  0  0  0  0  0  0
   10.5540   -1.7713    0.0000 H   0  0  0  0  0  0  0  0  0  0  0  0
    8.7505   -1.7782    0.0000 H   0  0  0  0  0  0  0  0  0  0  0  0
    9.1283    1.3102    0.0000 H   0  0  0  0  0  0  0  0  0  0  0  0
    9.9907    1.1732    0.0000 H   0  0  0  0  0  0  0  0  0  0  0  0
    9.8659    0.4414    0.0000 H   0  0  0  0  0  0  0  0  0  0  0  0
   11.0682    2.4302    0.0000 H   0  0  0  0  0  0  0  0  0  0  0  0
    9.2520   -1.9250    0.0000 H   0  0  0  0  0  0  0  0  0  0  0  0
   10.0502   -1.9220    0.0000 H   0  0  0  0  0  0  0  0  0  0  0  0
   12.2889    0.7519    0.0000 H   0  0  0  0  0  0  0  0  0  0  0  0
    8.3505   -1.7848    0.0000 H   0  0  0  0  0  0  0  0  0  0  0  0
    9.0047    1.2632    0.0000 H   0  0  0  0  0  0  0  0  0  0  0  0
    8.2129    1.6399    0.0000 H   0  0  0  0  0  0  0  0  0  0  0  0
    7.8362    0.8481    0.0000 H   0  0  0  0  0  0  0  0  0  0  0  0
    7.8403    1.2973    0.0000 H   0  0  0  0  0  0  0  0  0  0  0  0
    8.7992    2.7402    0.0000 H   0  0  0  0  0  0  0  0  0  0  0  0
    9.9943    3.4302    0.0000 H   0  0  0  0  0  0  0  0  0  0  0  0
    7.1956   -2.4804    0.0000 H   0  0  0  0  0  0  0  0  0  0  0  0
    7.8180   -3.0980    0.0000 H   0  0  0  0  0  0  0  0  0  0  0  0
    8.4356   -2.4756    0.0000 H   0  0  0  0  0  0  0  0  0  0  0  0
   13.9342    3.0423    0.0000 H   0  0  0  0  0  0  0  0  0  0  0  0
   13.7073    3.8892    0.0000 H   0  0  0  0  0  0  0  0  0  0  0  0
   12.8603    3.6623    0.0000 H   0  0  0  0  0  0  0  0  0  0  0  0
    5.1557    0.7895    0.0000 H   0  0  0  0  0  0  0  0  0  0  0  0
   14.8735    1.3230    0.0000 H   0  0  0  0  0  0  0  0  0  0  0  0
    3.7551    0.9957    0.0000 H   0  0  0  0  0  0  0  0  0  0  0  0
    3.4238    0.8095    0.0000 H   0  0  0  0  0  0  0  0  0  0  0  0
    4.7986   -1.6366    0.0000 H   0  0  0  0  0  0  0  0  0  0  0  0
    2.8718   -0.4942    0.0000 H   0  0  0  0  0  0  0  0  0  0  0  0
    3.7666    1.9956    0.0000 H   0  0  0  0  0  0  0  0  0  0  0  0
    4.4590   -2.9053    0.0000 H   0  0  0  0  0  0  0  0  0  0  0  0
    4.8655   -2.2197    0.0000 H   0  0  0  0  0  0  0  0  0  0  0  0
   16.9465    0.2224    0.0000 H   0  0  0  0  0  0  0  0  0  0  0  0
   17.1501    1.0752    0.0000 H   0  0  0  0  0  0  0  0  0  0  0  0
   16.2973    1.2789    0.0000 H   0  0  0  0  0  0  0  0  0  0  0  0
   15.1775   -0.7895    0.0000 H   0  0  0  0  0  0  0  0  0  0  0  0
   15.8142   -1.3923    0.0000 H   0  0  0  0  0  0  0  0  0  0  0  0
   16.4170   -0.7555    0.0000 H   0  0  0  0  0  0  0  0  0  0  0  0
    2.0160    0.3958    0.0000 H   0  0  0  0  0  0  0  0  0  0  0  0
    2.0000   -0.9841    0.0000 H   0  0  0  0  0  0  0  0  0  0  0  0
    3.3748   -3.4302    0.0000 H   0  0  0  0  0  0  0  0  0  0  0  0
  1 22  1  0  0  0  0
  1 25  1  0  0  0  0
  2 21  1  0  0  0  0
  2 33  1  0  0  0  0
 24  3  1  1  0  0  0
  3 65  1  0  0  0  0
 26  4  1  6  0  0  0
  4 66  1  0  0  0  0
 28  5  1  1  0  0  0
  5 37  1  0  0  0  0
  6 32  1  0  0  0  0
  6 38  1  0  0  0  0
  7 32  2  0  0  0  0
  8 33  2  0  0  0  0
  9 35  1  0  0  0  0
 39  9  1  6  0  0  0
 10 34  2  0  0  0  0
 11 37  2  0  0  0  0
 12 39  1  0  0  0  0
 12 43  1  0  0  0  0
 41 13  1  1  0  0  0
 13 79  1  0  0  0  0
 42 14  1  6  0  0  0
 14 88  1  0  0  0  0
 44 15  1  1  0  0  0
 15 89  1  0  0  0  0
 16 46  1  0  0  0  0
 16 90  1  0  0  0  0
 17 18  1  0  0  0  0
 17 19  1  0  0  0  0
 17 21  1  0  0  0  0
 17 25  1  1  0  0  0
 18 20  1  0  0  0  0
 18 24  1  0  0  0  0
 18 49  1  6  0  0  0
 19 22  1  0  0  0  0
 19 28  1  0  0  0  0
 19 50  1  1  0  0  0
 20 23  1  0  0  0  0
 20 30  1  1  0  0  0
 20 31  1  0  0  0  0
 21 27  1  0  0  0  0
 21 51  1  1  0  0  0
 22 26  1  0  0  0  0
 22 32  1  1  0  0  0
 23 27  1  0  0  0  0
 23 29  1  0  0  0  0
 23 52  1  6  0  0  0
 24 26  1  0  0  0  0
 24 53  1  0  0  0  0
 25 54  1  0  0  0  0
 25 55  1  0  0  0  0
 26 56  1  0  0  0  0
 27 57  1  0  0  0  0
 27 58  1  0  0  0  0
 28 33  1  0  0  0  0
 28 59  1  0  0  0  0
 29 34  1  0  0  0  0
 29 36  1  6  0  0  0
 29 60  1  0  0  0  0
 30 61  1  0  0  0  0
 30 62  1  0  0  0  0
 30 63  1  0  0  0  0
 31 35  2  0  0  0  0
 31 64  1  0  0  0  0
 34 35  1  0  0  0  0
 36 67  1  0  0  0  0
 36 68  1  0  0  0  0
 36 69  1  0  0  0  0
 37 40  1  0  0  0  0
 38 70  1  0  0  0  0
 38 71  1  0  0  0  0
 38 72  1  0  0  0  0
 39 41  1  0  0  0  0
 39 73  1  0  0  0  0
 40 45  2  0  0  0  0
 40 74  1  0  0  0  0
 41 42  1  0  0  0  0
 41 75  1  0  0  0  0
 42 44  1  0  0  0  0
 42 76  1  0  0  0  0
 43 44  1  0  0  0  0
 43 46  1  6  0  0  0
 43 77  1  0  0  0  0
 44 78  1  0  0  0  0
 45 47  1  0  0  0  0
 45 48  1  0  0  0  0
 46 80  1  0  0  0  0
 46 81  1  0  0  0  0
 47 82  1  0  0  0  0
 47 83  1  0  0  0  0
 47 84  1  0  0  0  0
 48 85  1  0  0  0  0
 48 86  1  0  0  0  0
 48 87  1  0  0  0  0
M  END
> <PUBCHEM_COMPOUND_CID>
441789

> <PUBCHEM_COMPOUND_CANONICALIZED>
1

> <PUBCHEM_CACTVS_COMPLEXITY>
1440

> <PUBCHEM_CACTVS_HBOND_ACCEPTOR>
16

> <PUBCHEM_CACTVS_HBOND_DONOR>
6

> <PUBCHEM_CACTVS_ROTATABLE_BOND>
8

> <PUBCHEM_CACTVS_SUBSKEYS>
AAADcfB8PgAAAAAAAAAAAAAAAAAAASAAAAA0aIECBIAAAEjQAAAAGgAACAAAD1SwgAMCCAAABgCIAqDSCAIACAAgIAAACAFAAEgRFBYAIQQiUAAFoAAPIYPK7vzPgAAAAAAAAADAAAYQADCAAAAAAAAAAA==

> <PUBCHEM_IUPAC_INCHI>
InChI=1S/C32H42O16/c1-11(2)6-17(34)48-23-25-31-10-44-32(25,29(42)43-5)26(40)22(39)24(31)30(4)8-14(18(35)12(3)13(30)7-16(31)47-27(23)41)45-28-21(38)20(37)19(36)15(9-33)46-28/h6,8,12-13,15-16,19-26,28,33,36-40H,7,9-10H2,1-5H3/t12-,13-,15+,16+,19+,20-,21+,22+,23+,24+,25+,26-,28+,30-,31+,32-/m0/s1

> <PUBCHEM_IUPAC_INCHIKEY>
AKSGLPBROCFVSE-TUHDNREHSA-N

> <PUBCHEM_XLOGP3_AA>
0.1

> <PUBCHEM_EXACT_MASS>
682.247285

> <PUBCHEM_MOLECULAR_FORMULA>
C32H42O16

> <PUBCHEM_MOLECULAR_WEIGHT>
682.66628

> <PUBCHEM_OPENEYE_CAN_SMILES>
CC1C2CC3C45COC(C4C(C(=O)O3)OC(=O)C=C(C)C)(C(C(C5C2(C=C(C1=O)OC6C(C(C(C(O6)CO)O)O)O)C)O)O)C(=O)OC

> <PUBCHEM_OPENEYE_ISO_SMILES>
C[C@H]1[C@@H]2C[C@@H]3[C@@]45CO[C@@]([C@@H]4[C@H](C(=O)O3)OC(=O)C=C(C)C)([C@H]([C@@H]([C@@H]5[C@]2(C=C(C1=O)O[C@H]6[C@@H]([C@H]([C@@H]([C@H](O6)CO)O)O)O)C)O)O)C(=O)OC

> <PUBCHEM_CACTVS_TPSA>
245

> <PUBCHEM_MONOISOTOPIC_WEIGHT>
682.247285

> <PUBCHEM_TOTAL_CHARGE>
0

> <PUBCHEM_HEAVY_ATOM_COUNT>
48

> <PUBCHEM_ATOM_DEF_STEREO_COUNT>
16

> <PUBCHEM_ATOM_UDEF_STEREO_COUNT>
0

> <PUBCHEM_BOND_DEF_STEREO_COUNT>
0

> <PUBCHEM_BOND_UDEF_STEREO_COUNT>
0

> <PUBCHEM_ISOTOPIC_ATOM_COUNT>
0

> <PUBCHEM_COMPONENT_COUNT>
1

> <PUBCHEM_CACTVS_TAUTO_COUNT>
4

> <PUBCHEM_COORDINATE_TYPE>
1
5
255

> <PUBCHEM_BONDANNOTATIONS>
41  13  5
42  14  6
44  15  5
17  25  5
18  49  6
19  50  5
20  30  5
21  51  5
22  32  5
23  52  6
29  36  6
24  3  5
26  4  6
43  46  6
28  5  5
39  9  6

$$$$

