4248
  -OEChem-06251223592D

 77 81  0     1  0  0  0  0  0999 V2000
   13.3244    2.6135    0.0000 Cl  0  0  0  0  0  0  0  0  0  0  0  0
    4.5981   -0.3623    0.0000 S   0  0  0  0  0  0  0  0  0  0  0  0
    2.8660   -4.3623    0.0000 O   0  0  0  0  0  0  0  0  0  0  0  0
    2.0000   -2.8623    0.0000 O   0  0  0  0  0  0  0  0  0  0  0  0
    9.0622   -0.3623    0.0000 O   0  0  0  0  0  0  0  0  0  0  0  0
    9.7942    2.6377    0.0000 N   0  0  0  0  0  0  0  0  0  0  0  0
    3.7320   -1.8623    0.0000 C   0  0  0  0  0  0  0  0  0  0  0  0
    2.7320   -1.8623    0.0000 C   0  0  0  0  0  0  0  0  0  0  0  0
    3.2320   -0.9963    0.0000 C   0  0  0  0  0  0  0  0  0  0  0  0
    4.5981   -1.3623    0.0000 C   0  0  0  0  0  0  0  0  0  0  0  0
    3.7320   -2.8623    0.0000 C   0  0  0  0  0  0  0  0  0  0  0  0
    2.8660   -3.3623    0.0000 C   0  0  0  0  0  0  0  0  0  0  0  0
    5.4641    0.1377    0.0000 C   0  0  3  0  0  0  0  0  0  0  0  0
    6.3301   -0.3623    0.0000 C   0  0  0  0  0  0  0  0  0  0  0  0
    5.4641    1.1377    0.0000 C   0  0  0  0  0  0  0  0  0  0  0  0
    6.3301   -1.3623    0.0000 C   0  0  0  0  0  0  0  0  0  0  0  0
    6.3301    1.6377    0.0000 C   0  0  0  0  0  0  0  0  0  0  0  0
    4.5981    1.6377    0.0000 C   0  0  0  0  0  0  0  0  0  0  0  0
    7.1962   -1.8623    0.0000 C   0  0  0  0  0  0  0  0  0  0  0  0
    8.0622   -1.3623    0.0000 C   0  0  0  0  0  0  0  0  0  0  0  0
    6.3301    2.6377    0.0000 C   0  0  0  0  0  0  0  0  0  0  0  0
    4.5981    2.6377    0.0000 C   0  0  0  0  0  0  0  0  0  0  0  0
    8.0622   -0.3623    0.0000 C   0  0  0  0  0  0  0  0  0  0  0  0
    7.1962   -2.8623    0.0000 C   0  0  0  0  0  0  0  0  0  0  0  0
    5.4641    3.1377    0.0000 C   0  0  0  0  0  0  0  0  0  0  0  0
    8.9282   -1.8623    0.0000 C   0  0  0  0  0  0  0  0  0  0  0  0
    8.0622   -3.3623    0.0000 C   0  0  0  0  0  0  0  0  0  0  0  0
    7.1962    3.1377    0.0000 C   0  0  0  0  0  0  0  0  0  0  0  0
    8.0622    0.6377    0.0000 C   0  0  0  0  0  0  0  0  0  0  0  0
    7.0622   -0.3623    0.0000 C   0  0  0  0  0  0  0  0  0  0  0  0
    8.9282   -2.8623    0.0000 C   0  0  0  0  0  0  0  0  0  0  0  0
    8.0622    2.6377    0.0000 C   0  0  0  0  0  0  0  0  0  0  0  0
    8.9282    3.1377    0.0000 C   0  0  0  0  0  0  0  0  0  0  0  0
    8.9282    4.1377    0.0000 C   0  0  0  0  0  0  0  0  0  0  0  0
   10.6603    3.1377    0.0000 C   0  0  0  0  0  0  0  0  0  0  0  0
    9.7942    4.6377    0.0000 C   0  0  0  0  0  0  0  0  0  0  0  0
   10.6603    4.1377    0.0000 C   0  0  0  0  0  0  0  0  0  0  0  0
   11.5542    2.6030    0.0000 C   0  0  0  0  0  0  0  0  0  0  0  0
   11.5542    4.6723    0.0000 C   0  0  0  0  0  0  0  0  0  0  0  0
   12.4603    3.1168    0.0000 C   0  0  0  0  0  0  0  0  0  0  0  0
   12.4603    4.1585    0.0000 C   0  0  0  0  0  0  0  0  0  0  0  0
    2.1494   -1.6503    0.0000 H   0  0  0  0  0  0  0  0  0  0  0  0
    2.6244   -2.4729    0.0000 H   0  0  0  0  0  0  0  0  0  0  0  0
    3.7070   -0.5978    0.0000 H   0  0  0  0  0  0  0  0  0  0  0  0
    2.7571   -0.5978    0.0000 H   0  0  0  0  0  0  0  0  0  0  0  0
    4.8101   -1.9449    0.0000 H   0  0  0  0  0  0  0  0  0  0  0  0
    5.2087   -1.2547    0.0000 H   0  0  0  0  0  0  0  0  0  0  0  0
    3.9441   -3.4449    0.0000 H   0  0  0  0  0  0  0  0  0  0  0  0
    4.3426   -2.7547    0.0000 H   0  0  0  0  0  0  0  0  0  0  0  0
    5.4641   -0.4823    0.0000 H   0  0  0  0  0  0  0  0  0  0  0  0
    6.9407   -0.4700    0.0000 H   0  0  0  0  0  0  0  0  0  0  0  0
    6.5422    0.2203    0.0000 H   0  0  0  0  0  0  0  0  0  0  0  0
    2.3291   -4.6723    0.0000 H   0  0  0  0  0  0  0  0  0  0  0  0
    5.7196   -1.2547    0.0000 H   0  0  0  0  0  0  0  0  0  0  0  0
    6.1181   -1.9449    0.0000 H   0  0  0  0  0  0  0  0  0  0  0  0
    6.8671    1.3277    0.0000 H   0  0  0  0  0  0  0  0  0  0  0  0
    4.0611    1.3277    0.0000 H   0  0  0  0  0  0  0  0  0  0  0  0
    4.0611    2.9477    0.0000 H   0  0  0  0  0  0  0  0  0  0  0  0
    6.6592   -3.1723    0.0000 H   0  0  0  0  0  0  0  0  0  0  0  0
    5.4641    3.7577    0.0000 H   0  0  0  0  0  0  0  0  0  0  0  0
    9.4651   -1.5523    0.0000 H   0  0  0  0  0  0  0  0  0  0  0  0
    8.0622   -3.9823    0.0000 H   0  0  0  0  0  0  0  0  0  0  0  0
    8.6822    0.6377    0.0000 H   0  0  0  0  0  0  0  0  0  0  0  0
    8.0622    1.2577    0.0000 H   0  0  0  0  0  0  0  0  0  0  0  0
    7.4422    0.6377    0.0000 H   0  0  0  0  0  0  0  0  0  0  0  0
    7.0622    0.2577    0.0000 H   0  0  0  0  0  0  0  0  0  0  0  0
    6.4422   -0.3623    0.0000 H   0  0  0  0  0  0  0  0  0  0  0  0
    7.0622   -0.9823    0.0000 H   0  0  0  0  0  0  0  0  0  0  0  0
    7.1962    3.7577    0.0000 H   0  0  0  0  0  0  0  0  0  0  0  0
    9.4651   -3.1723    0.0000 H   0  0  0  0  0  0  0  0  0  0  0  0
    9.3722    0.1746    0.0000 H   0  0  0  0  0  0  0  0  0  0  0  0
    8.0622    2.0177    0.0000 H   0  0  0  0  0  0  0  0  0  0  0  0
    8.3913    4.4477    0.0000 H   0  0  0  0  0  0  0  0  0  0  0  0
    9.7942    5.2577    0.0000 H   0  0  0  0  0  0  0  0  0  0  0  0
   11.5470    1.9830    0.0000 H   0  0  0  0  0  0  0  0  0  0  0  0
   11.5470    5.2923    0.0000 H   0  0  0  0  0  0  0  0  0  0  0  0
   12.9960    4.4706    0.0000 H   0  0  0  0  0  0  0  0  0  0  0  0
  1 40  1  0  0  0  0
  2 10  1  0  0  0  0
  2 13  1  0  0  0  0
  3 12  1  0  0  0  0
  3 53  1  0  0  0  0
  4 12  2  0  0  0  0
  5 23  1  0  0  0  0
  5 71  1  0  0  0  0
  6 33  2  0  0  0  0
  6 35  1  0  0  0  0
  7  8  1  0  0  0  0
  7  9  1  0  0  0  0
  7 10  1  0  0  0  0
  7 11  1  0  0  0  0
  8  9  1  0  0  0  0
  8 42  1  0  0  0  0
  8 43  1  0  0  0  0
  9 44  1  0  0  0  0
  9 45  1  0  0  0  0
 10 46  1  0  0  0  0
 10 47  1  0  0  0  0
 11 12  1  0  0  0  0
 11 48  1  0  0  0  0
 11 49  1  0  0  0  0
 13 14  1  0  0  0  0
 13 15  1  0  0  0  0
 13 50  1  0  0  0  0
 14 16  1  0  0  0  0
 14 51  1  0  0  0  0
 14 52  1  0  0  0  0
 15 17  1  0  0  0  0
 15 18  2  0  0  0  0
 16 19  1  0  0  0  0
 16 54  1  0  0  0  0
 16 55  1  0  0  0  0
 17 21  2  0  0  0  0
 17 56  1  0  0  0  0
 18 22  1  0  0  0  0
 18 57  1  0  0  0  0
 19 20  1  0  0  0  0
 19 24  2  0  0  0  0
 20 23  1  0  0  0  0
 20 26  2  0  0  0  0
 21 25  1  0  0  0  0
 21 28  1  0  0  0  0
 22 25  2  0  0  0  0
 22 58  1  0  0  0  0
 23 29  1  0  0  0  0
 23 30  1  0  0  0  0
 24 27  1  0  0  0  0
 24 59  1  0  0  0  0
 25 60  1  0  0  0  0
 26 31  1  0  0  0  0
 26 61  1  0  0  0  0
 27 31  2  0  0  0  0
 27 62  1  0  0  0  0
 28 32  2  3  0  0  0
 28 69  1  0  0  0  0
 29 63  1  0  0  0  0
 29 64  1  0  0  0  0
 29 65  1  0  0  0  0
 30 66  1  0  0  0  0
 30 67  1  0  0  0  0
 30 68  1  0  0  0  0
 31 70  1  0  0  0  0
 32 33  1  0  0  0  0
 32 72  1  0  0  0  0
 33 34  1  0  0  0  0
 34 36  2  0  0  0  0
 34 73  1  0  0  0  0
 35 37  2  0  0  0  0
 35 38  1  0  0  0  0
 36 37  1  0  0  0  0
 36 74  1  0  0  0  0
 37 39  1  0  0  0  0
 38 40  2  0  0  0  0
 38 75  1  0  0  0  0
 39 41  2  0  0  0  0
 39 76  1  0  0  0  0
 40 41  1  0  0  0  0
 41 77  1  0  0  0  0
M  END
> <PUBCHEM_COMPOUND_CID>
4248

> <PUBCHEM_COMPOUND_CANONICALIZED>
1

> <PUBCHEM_CACTVS_COMPLEXITY>
891

> <PUBCHEM_CACTVS_HBOND_ACCEPTOR>
5

> <PUBCHEM_CACTVS_HBOND_DONOR>
2

> <PUBCHEM_CACTVS_ROTATABLE_BOND>
12

> <PUBCHEM_CACTVS_SUBSKEYS>
AAADcfB+MABEAAAAAAAAAAAAGAAAAAAAAAA8YMEAAAAAAACx9AAAHgYACAAADk6F3iCyyPIIEgioAyTyTACCgCAhBzAImCEwbpgIJvLhk5GEcAhkwAHo2AeYwOAPhAACAAISAAAIAAQABCQAAAAAAAAAAA==

> <PUBCHEM_IUPAC_OPENEYE_NAME>
2-[1-[[1-[3-[2-(7-chloro-2-quinolyl)vinyl]phenyl]-3-[2-(1-hydroxy-1-methyl-ethyl)phenyl]propyl]sulfanylmethyl]cyclopropyl]acetic acid

> <PUBCHEM_IUPAC_CAS_NAME>
2-[1-[[[1-[3-[2-(7-chloro-2-quinolinyl)ethenyl]phenyl]-3-[2-(2-hydroxypropan-2-yl)phenyl]propyl]thio]methyl]cyclopropyl]acetic acid

> <PUBCHEM_IUPAC_NAME>
2-[1-[[1-[3-[2-(7-chloroquinolin-2-yl)ethenyl]phenyl]-3-[2-(2-hydroxypropan-2-yl)phenyl]propyl]sulfanylmethyl]cyclopropyl]acetic acid

> <PUBCHEM_IUPAC_SYSTEMATIC_NAME>
2-[1-[[1-[3-[2-(7-chloranylquinolin-2-yl)ethenyl]phenyl]-3-[2-(2-oxidanylpropan-2-yl)phenyl]propyl]sulfanylmethyl]cyclopropyl]ethanoic acid

> <PUBCHEM_IUPAC_TRADITIONAL_NAME>
2-[1-[[[1-[3-[2-(7-chloro-2-quinolyl)vinyl]phenyl]-3-[2-(1-hydroxy-1-methyl-ethyl)phenyl]propyl]thio]methyl]cyclopropyl]acetic acid

> <PUBCHEM_IUPAC_INCHI>
InChI=1S/C35H36ClNO3S/c1-34(2,40)30-9-4-3-7-25(30)13-17-32(41-23-35(18-19-35)22-33(38)39)27-8-5-6-24(20-27)10-15-29-16-12-26-11-14-28(36)21-31(26)37-29/h3-12,14-16,20-21,32,40H,13,17-19,22-23H2,1-2H3,(H,38,39)

> <PUBCHEM_IUPAC_INCHIKEY>
UCHDWCPVSPXUMX-UHFFFAOYSA-N

> <PUBCHEM_XLOGP3_AA>
7.7

> <PUBCHEM_EXACT_MASS>
585.210443

> <PUBCHEM_MOLECULAR_FORMULA>
C35H36ClNO3S

> <PUBCHEM_MOLECULAR_WEIGHT>
586.18324

> <PUBCHEM_OPENEYE_CAN_SMILES>
CC(C)(C1=CC=CC=C1CCC(C2=CC=CC(=C2)C=CC3=NC4=C(C=CC(=C4)Cl)C=C3)SCC5(CC5)CC(=O)O)O

> <PUBCHEM_OPENEYE_ISO_SMILES>
CC(C)(C1=CC=CC=C1CCC(C2=CC=CC(=C2)C=CC3=NC4=C(C=CC(=C4)Cl)C=C3)SCC5(CC5)CC(=O)O)O

> <PUBCHEM_CACTVS_TPSA>
95.7

> <PUBCHEM_MONOISOTOPIC_WEIGHT>
585.210443

> <PUBCHEM_TOTAL_CHARGE>
0

> <PUBCHEM_HEAVY_ATOM_COUNT>
41

> <PUBCHEM_ATOM_DEF_STEREO_COUNT>
0

> <PUBCHEM_ATOM_UDEF_STEREO_COUNT>
1

> <PUBCHEM_BOND_DEF_STEREO_COUNT>
0

> <PUBCHEM_BOND_UDEF_STEREO_COUNT>
1

> <PUBCHEM_ISOTOPIC_ATOM_COUNT>
0

> <PUBCHEM_COMPONENT_COUNT>
1

> <PUBCHEM_CACTVS_TAUTO_COUNT>
1

> <PUBCHEM_COORDINATE_TYPE>
1
5
255

> <PUBCHEM_BONDANNOTATIONS>
13  14  3
15  17  8
15  18  8
17  21  8
18  22  8
19  20  8
19  24  8
20  26  8
21  25  8
22  25  8
24  27  8
26  31  8
27  31  8
28  32  1
33  34  8
34  36  8
35  37  8
35  38  8
36  37  8
37  39  8
38  40  8
39  41  8
40  41  8
6  33  8
6  35  8

$$$$

