44237165
  -OEChem-07051213103D

 31 30  0     1  0  0  0  0  0999 V2000
   -5.2824   -1.1336    0.1155 S   0  0  0  0  0  0  0  0  0  0  0  0
    2.4461   -0.0672   -1.7816 O   0  0  0  0  0  0  0  0  0  0  0  0
    1.7578    2.5261    1.2394 O   0  0  0  0  0  0  0  0  0  0  0  0
    0.7163    2.5978   -0.7828 O   0  0  0  0  0  0  0  0  0  0  0  0
    3.0604   -1.5233    1.4559 O   0  0  0  0  0  0  0  0  0  0  0  0
    2.9910   -2.4433   -0.6170 O   0  0  0  0  0  0  0  0  0  0  0  0
    1.2107    0.4410    0.2533 C   0  0  1  0  0  0  0  0  0  0  0  0
   -0.0906   -0.1199   -0.3576 C   0  0  0  0  0  0  0  0  0  0  0  0
   -1.2994   -0.0063    0.5751 C   0  0  0  0  0  0  0  0  0  0  0  0
    2.5286   -0.0674   -0.3650 C   0  0  1  0  0  0  0  0  0  0  0  0
   -2.5940   -0.5555   -0.0377 C   0  0  0  0  0  0  0  0  0  0  0  0
    1.1927    1.9573    0.1435 C   0  0  0  0  0  0  0  0  0  0  0  0
   -3.7903   -0.4618    0.9064 C   0  0  0  0  0  0  0  0  0  0  0  0
    2.8914   -1.4632    0.1098 C   0  0  0  0  0  0  0  0  0  0  0  0
   -5.7384    0.3194   -0.8573 C   0  0  0  0  0  0  0  0  0  0  0  0
    1.2017    0.1993    1.3246 H   0  0  0  0  0  0  0  0  0  0  0  0
    0.0544   -1.1854   -0.5770 H   0  0  0  0  0  0  0  0  0  0  0  0
   -0.3189    0.3651   -1.3145 H   0  0  0  0  0  0  0  0  0  0  0  0
   -1.0884   -0.5463    1.5066 H   0  0  0  0  0  0  0  0  0  0  0  0
   -1.4540    1.0450    0.8463 H   0  0  0  0  0  0  0  0  0  0  0  0
    3.3678    0.5860   -0.0992 H   0  0  0  0  0  0  0  0  0  0  0  0
   -2.7946   -0.0014   -0.9624 H   0  0  0  0  0  0  0  0  0  0  0  0
   -2.4289   -1.6028   -0.3220 H   0  0  0  0  0  0  0  0  0  0  0  0
   -3.9664    0.5694    1.2294 H   0  0  0  0  0  0  0  0  0  0  0  0
   -3.5950   -1.0558    1.8055 H   0  0  0  0  0  0  0  0  0  0  0  0
    1.7615   -0.7019   -2.0514 H   0  0  0  0  0  0  0  0  0  0  0  0
    1.7430    3.5057    1.1914 H   0  0  0  0  0  0  0  0  0  0  0  0
    3.2764   -2.4315    1.7571 H   0  0  0  0  0  0  0  0  0  0  0  0
   -6.6777    0.1170   -1.3792 H   0  0  0  0  0  0  0  0  0  0  0  0
   -4.9753    0.5453   -1.6058 H   0  0  0  0  0  0  0  0  0  0  0  0
   -5.8875    1.1860   -0.2079 H   0  0  0  0  0  0  0  0  0  0  0  0
  1 13  1  0  0  0  0
  1 15  1  0  0  0  0
  2 10  1  0  0  0  0
  2 26  1  0  0  0  0
  3 12  1  0  0  0  0
  3 27  1  0  0  0  0
  4 12  2  0  0  0  0
  5 14  1  0  0  0  0
  5 28  1  0  0  0  0
  6 14  2  0  0  0  0
  7  8  1  0  0  0  0
  7 10  1  0  0  0  0
  7 12  1  0  0  0  0
  7 16  1  0  0  0  0
  8  9  1  0  0  0  0
  8 17  1  0  0  0  0
  8 18  1  0  0  0  0
  9 11  1  0  0  0  0
  9 19  1  0  0  0  0
  9 20  1  0  0  0  0
 10 14  1  0  0  0  0
 10 21  1  0  0  0  0
 11 13  1  0  0  0  0
 11 22  1  0  0  0  0
 11 23  1  0  0  0  0
 13 24  1  0  0  0  0
 13 25  1  0  0  0  0
 15 29  1  0  0  0  0
 15 30  1  0  0  0  0
 15 31  1  0  0  0  0
M  END
> <PUBCHEM_COMPOUND_CID>
44237165

> <PUBCHEM_CONFORMER_RMSD>
1

> <PUBCHEM_CONFORMER_DIVERSEORDER>
1
68
11
36
41
97
19
53
78
100
28
22
29
57
44
23
56
91
85
9
40
58
87
42
45
86
50
21
8
99
52
88
38
43
90
39
2
4
98
74
31
26
64
66
47
24
93
6
72
12
82
35
101
13
55
20
46
15
79
62
94
48
102
49
83
34
63
92
61
33
37
71
81
69
95
67
96
59
54
80
10
75
30
84
32
5
16
17
3
76
27
18
51
25
14
7
73
65
60
77
89
70

> <PUBCHEM_MMFF94_PARTIAL_CHARGES>
15
1 -0.46
10 0.34
12 0.66
13 0.23
14 0.66
15 0.23
2 -0.68
26 0.4
27 0.5
28 0.5
3 -0.65
4 -0.57
5 -0.65
6 -0.57
7 0.06

> <PUBCHEM_EFFECTIVE_ROTOR_COUNT>
8

> <PUBCHEM_PHARMACOPHORE_FEATURES>
11
1 15 hydrophobe
1 2 acceptor
1 2 donor
1 3 acceptor
1 4 acceptor
1 5 acceptor
1 6 acceptor
3 1 11 13 hydrophobe
3 3 4 12 anion
3 5 6 14 anion
3 7 8 9 hydrophobe

> <PUBCHEM_HEAVY_ATOM_COUNT>
15

> <PUBCHEM_ATOM_DEF_STEREO_COUNT>
0

> <PUBCHEM_ATOM_UDEF_STEREO_COUNT>
2

> <PUBCHEM_BOND_DEF_STEREO_COUNT>
0

> <PUBCHEM_BOND_UDEF_STEREO_COUNT>
0

> <PUBCHEM_ISOTOPIC_ATOM_COUNT>
0

> <PUBCHEM_COMPONENT_COUNT>
1

> <PUBCHEM_CACTVS_TAUTO_COUNT>
1

> <PUBCHEM_CONFORMER_ID>
02A3016D00000001

> <PUBCHEM_MMFF94_ENERGY>
15.4993

> <PUBCHEM_FEATURE_SELFOVERLAP>
55.968

> <PUBCHEM_SHAPE_FINGERPRINT>
11405975 8 18410007720469792795
13237642 15 6916254157643176671
14252887 29 18334574672436297018
15848700 24 18336264642855367327
18186145 218 18339916027251992915
20369508 70 18410294705103651339
20559304 39 18259978262741055808
20645477 70 18410854331037429899
20671657 53 18409442613920542641
20871998 22 18336546126881013450
2255824 54 18266449919436314300
22943178 12 18129658579067552595
23532345 12 17822283622153157185
23559900 14 18340770347486074995
3060560 45 18188198832429118678
32948 21 18131636716439248589
522135 26 18343861096130927703
5281201 14 18271806783854183093
7364860 26 18262234413536038016
7615 1 17749935709953941089
81539 233 18194399983547075784
9971528 1 18113899394184934147

> <PUBCHEM_SHAPE_MULTIPOLES>
283.2
9.69
2.3
1.16
17.17
0.92
0.06
-3.78
0.92
-2.83
-0.17
-0.49
0.05
0.44

> <PUBCHEM_SHAPE_SELFOVERLAP>
525.544

> <PUBCHEM_SHAPE_VOLUME>
179

> <PUBCHEM_COORDINATE_TYPE>
2
5
10

$$$$

