6857439
  -OEChem-07051213153D

 73 78  0     1  0  0  0  0  0999 V2000
   -3.0908   -0.8519   -0.2877 O   0  0  0  0  0  0  0  0  0  0  0  0
   -4.5289    0.3701    1.1519 O   0  0  0  0  0  0  0  0  0  0  0  0
   -0.1843    0.8969   -0.1308 C   0  0  1  0  0  0  0  0  0  0  0  0
    0.4110   -0.4581    0.3275 C   0  0  2  0  0  0  0  0  0  0  0  0
   -1.5915    0.8149    0.5328 C   0  0  2  0  0  0  0  0  0  0  0  0
    1.8207   -0.7122   -0.2160 C   0  0  1  0  0  0  0  0  0  0  0  0
    2.7588    0.4332    0.2894 C   0  0  1  0  0  0  0  0  0  0  0  0
   -1.9329   -0.6906    0.5257 C   0  0  2  0  0  0  0  0  0  0  0  0
    4.2455    0.2251   -0.1842 C   0  0  2  0  0  0  0  0  0  0  0  0
   -0.7071   -1.4443    0.0076 C   0  0  0  0  0  0  0  0  0  0  0  0
    0.7133    2.0086    0.4333 C   0  0  0  0  0  0  0  0  0  0  0  0
    2.1788    1.8412   -0.0109 C   0  0  0  0  0  0  0  0  0  0  0  0
   -2.7953    1.4675   -0.1562 C   0  0  1  0  0  0  0  0  0  0  0  0
    4.7006   -1.1841    0.3159 C   0  0  1  0  0  0  0  0  0  0  0  0
    2.3488   -2.0901    0.2085 C   0  0  0  0  0  0  0  0  0  0  0  0
   -3.8668    0.3585   -0.1214 C   0  0  1  0  0  0  0  0  0  0  0  0
    3.8017   -2.3101   -0.2073 C   0  0  0  0  0  0  0  0  0  0  0  0
   -0.2616    1.0385   -1.6727 C   0  0  0  0  0  0  0  0  0  0  0  0
    5.1822    1.2810    0.4686 C   0  0  0  0  0  0  0  0  0  0  0  0
    6.1813   -1.4711    0.0311 C   0  0  0  0  0  0  0  0  0  0  0  0
    4.3555    0.3600   -1.7247 C   0  0  0  0  0  0  0  0  0  0  0  0
   -3.1999    2.7830    0.4983 C   0  0  0  0  0  0  0  0  0  0  0  0
   -4.8584    0.4716   -1.2819 C   0  0  0  0  0  0  0  0  0  0  0  0
    6.6714    1.0080    0.2375 C   0  0  0  0  0  0  0  0  0  0  0  0
    7.0755   -0.4015    0.6525 C   0  0  0  0  0  0  0  0  0  0  0  0
   -5.8683   -0.6790   -1.2713 C   0  0  0  0  0  0  0  0  0  0  0  0
   -5.8773   -0.0975    1.1679 C   0  0  0  0  0  0  0  0  0  0  0  0
   -6.1352   -1.2021    0.1464 C   0  0  1  0  0  0  0  0  0  0  0  0
   -7.5469   -1.7655    0.2705 C   0  0  0  0  0  0  0  0  0  0  0  0
    0.5011   -0.4426    1.4274 H   0  0  0  0  0  0  0  0  0  0  0  0
   -1.5170    1.1382    1.5802 H   0  0  0  0  0  0  0  0  0  0  0  0
    1.7862   -0.7096   -1.3094 H   0  0  0  0  0  0  0  0  0  0  0  0
    2.7726    0.3575    1.3887 H   0  0  0  0  0  0  0  0  0  0  0  0
   -2.1771   -1.0259    1.5420 H   0  0  0  0  0  0  0  0  0  0  0  0
   -0.7820   -1.6714   -1.0607 H   0  0  0  0  0  0  0  0  0  0  0  0
   -0.5812   -2.3946    0.5365 H   0  0  0  0  0  0  0  0  0  0  0  0
    0.6810    1.9989    1.5305 H   0  0  0  0  0  0  0  0  0  0  0  0
    0.3452    2.9940    0.1232 H   0  0  0  0  0  0  0  0  0  0  0  0
    2.2568    2.0682   -1.0784 H   0  0  0  0  0  0  0  0  0  0  0  0
    2.7693    2.6042    0.5085 H   0  0  0  0  0  0  0  0  0  0  0  0
   -2.5735    1.6835   -1.2038 H   0  0  0  0  0  0  0  0  0  0  0  0
    4.5966   -1.1904    1.4126 H   0  0  0  0  0  0  0  0  0  0  0  0
    1.7325   -2.8817   -0.2332 H   0  0  0  0  0  0  0  0  0  0  0  0
    2.2680   -2.1991    1.2977 H   0  0  0  0  0  0  0  0  0  0  0  0
    4.1394   -3.2729    0.1954 H   0  0  0  0  0  0  0  0  0  0  0  0
    3.8717   -2.3899   -1.2980 H   0  0  0  0  0  0  0  0  0  0  0  0
    0.7018    0.8902   -2.1665 H   0  0  0  0  0  0  0  0  0  0  0  0
   -0.9578    0.3237   -2.1228 H   0  0  0  0  0  0  0  0  0  0  0  0
   -0.5903    2.0461   -1.9528 H   0  0  0  0  0  0  0  0  0  0  0  0
    4.9996    1.3101    1.5510 H   0  0  0  0  0  0  0  0  0  0  0  0
    4.9576    2.2843    0.0880 H   0  0  0  0  0  0  0  0  0  0  0  0
    6.3677   -1.5373   -1.0465 H   0  0  0  0  0  0  0  0  0  0  0  0
    6.4573   -2.4465    0.4507 H   0  0  0  0  0  0  0  0  0  0  0  0
    5.3611    0.1376   -2.0922 H   0  0  0  0  0  0  0  0  0  0  0  0
    3.6767   -0.3102   -2.2575 H   0  0  0  0  0  0  0  0  0  0  0  0
    4.1277    1.3802   -2.0505 H   0  0  0  0  0  0  0  0  0  0  0  0
   -4.0929    3.1973    0.0197 H   0  0  0  0  0  0  0  0  0  0  0  0
   -3.4126    2.6621    1.5655 H   0  0  0  0  0  0  0  0  0  0  0  0
   -2.3947    3.5190    0.4022 H   0  0  0  0  0  0  0  0  0  0  0  0
   -4.3408    0.4724   -2.2484 H   0  0  0  0  0  0  0  0  0  0  0  0
   -5.4087    1.4175   -1.2026 H   0  0  0  0  0  0  0  0  0  0  0  0
    7.2637    1.7360    0.8044 H   0  0  0  0  0  0  0  0  0  0  0  0
    6.9223    1.1657   -0.8176 H   0  0  0  0  0  0  0  0  0  0  0  0
    8.1191   -0.5844    0.3723 H   0  0  0  0  0  0  0  0  0  0  0  0
    7.0244   -0.4815    1.7457 H   0  0  0  0  0  0  0  0  0  0  0  0
   -6.7932   -0.3356   -1.7510 H   0  0  0  0  0  0  0  0  0  0  0  0
   -5.4952   -1.5062   -1.8883 H   0  0  0  0  0  0  0  0  0  0  0  0
   -6.5374    0.7609    0.9941 H   0  0  0  0  0  0  0  0  0  0  0  0
   -6.0812   -0.4553    2.1827 H   0  0  0  0  0  0  0  0  0  0  0  0
   -5.4268   -2.0180    0.3420 H   0  0  0  0  0  0  0  0  0  0  0  0
   -7.7098   -2.1868    1.2681 H   0  0  0  0  0  0  0  0  0  0  0  0
   -8.3018   -0.9893    0.1049 H   0  0  0  0  0  0  0  0  0  0  0  0
   -7.7121   -2.5625   -0.4620 H   0  0  0  0  0  0  0  0  0  0  0  0
  1  8  1  0  0  0  0
  1 16  1  0  0  0  0
  2 16  1  0  0  0  0
  2 27  1  0  0  0  0
  3  4  1  0  0  0  0
  3  5  1  0  0  0  0
  3 11  1  0  0  0  0
  3 18  1  0  0  0  0
  4  6  1  0  0  0  0
  4 10  1  0  0  0  0
  4 30  1  0  0  0  0
  5  8  1  0  0  0  0
  5 13  1  0  0  0  0
  5 31  1  0  0  0  0
  6  7  1  0  0  0  0
  6 15  1  0  0  0  0
  6 32  1  0  0  0  0
  7  9  1  0  0  0  0
  7 12  1  0  0  0  0
  7 33  1  0  0  0  0
  8 10  1  0  0  0  0
  8 34  1  0  0  0  0
  9 14  1  0  0  0  0
  9 19  1  0  0  0  0
  9 21  1  0  0  0  0
 10 35  1  0  0  0  0
 10 36  1  0  0  0  0
 11 12  1  0  0  0  0
 11 37  1  0  0  0  0
 11 38  1  0  0  0  0
 12 39  1  0  0  0  0
 12 40  1  0  0  0  0
 13 16  1  0  0  0  0
 13 22  1  0  0  0  0
 13 41  1  0  0  0  0
 14 17  1  0  0  0  0
 14 20  1  0  0  0  0
 14 42  1  0  0  0  0
 15 17  1  0  0  0  0
 15 43  1  0  0  0  0
 15 44  1  0  0  0  0
 16 23  1  0  0  0  0
 17 45  1  0  0  0  0
 17 46  1  0  0  0  0
 18 47  1  0  0  0  0
 18 48  1  0  0  0  0
 18 49  1  0  0  0  0
 19 24  1  0  0  0  0
 19 50  1  0  0  0  0
 19 51  1  0  0  0  0
 20 25  1  0  0  0  0
 20 52  1  0  0  0  0
 20 53  1  0  0  0  0
 21 54  1  0  0  0  0
 21 55  1  0  0  0  0
 21 56  1  0  0  0  0
 22 57  1  0  0  0  0
 22 58  1  0  0  0  0
 22 59  1  0  0  0  0
 23 26  1  0  0  0  0
 23 60  1  0  0  0  0
 23 61  1  0  0  0  0
 24 25  1  0  0  0  0
 24 62  1  0  0  0  0
 24 63  1  0  0  0  0
 25 64  1  0  0  0  0
 25 65  1  0  0  0  0
 26 28  1  0  0  0  0
 26 66  1  0  0  0  0
 26 67  1  0  0  0  0
 27 28  1  0  0  0  0
 27 68  1  0  0  0  0
 27 69  1  0  0  0  0
 28 29  1  0  0  0  0
 28 70  1  0  0  0  0
 29 71  1  0  0  0  0
 29 72  1  0  0  0  0
 29 73  1  0  0  0  0
M  END
> <PUBCHEM_COMPOUND_CID>
6857439

> <PUBCHEM_CONFORMER_RMSD>
0.8

> <PUBCHEM_CONFORMER_DIVERSEORDER>
1

> <PUBCHEM_MMFF94_PARTIAL_CHARGES>
5
1 -0.56
16 0.56
2 -0.56
27 0.28
8 0.28

> <PUBCHEM_EFFECTIVE_ROTOR_COUNT>
3.2

> <PUBCHEM_PHARMACOPHORE_FEATURES>
8
1 1 acceptor
1 2 acceptor
5 1 5 8 13 16 rings
5 3 4 5 8 10 rings
6 2 16 23 26 27 28 rings
6 3 4 6 7 11 12 rings
6 6 7 9 14 15 17 rings
6 9 14 19 20 24 25 rings

> <PUBCHEM_HEAVY_ATOM_COUNT>
29

> <PUBCHEM_ATOM_DEF_STEREO_COUNT>
9

> <PUBCHEM_ATOM_UDEF_STEREO_COUNT>
2

> <PUBCHEM_BOND_DEF_STEREO_COUNT>
0

> <PUBCHEM_BOND_UDEF_STEREO_COUNT>
0

> <PUBCHEM_ISOTOPIC_ATOM_COUNT>
0

> <PUBCHEM_COMPONENT_COUNT>
1

> <PUBCHEM_CACTVS_TAUTO_COUNT>
1

> <PUBCHEM_CONFORMER_ID>
0068A2DF00000001

> <PUBCHEM_MMFF94_ENERGY>
110.0814

> <PUBCHEM_FEATURE_SELFOVERLAP>
41.01

> <PUBCHEM_SHAPE_FINGERPRINT>
10 15 18200881686993558576
10299344 5 17967532359330476947
10595046 47 18408886269310298522
11646440 116 18187079542566466040
11719270 70 18343306972509892978
11963148 33 18341901765968282354
12107183 9 17543065036228066490
12166972 35 17988640762259965893
12236239 1 17676487254485276272
12516196 113 18187365428437704944
12596602 18 17603863429307815938
13073987 5 18335702788350793136
13533116 47 18334858273179219416
13685833 64 18411418401591888451
13782708 43 18058451079100672866
13862211 1 18410855464428410369
13914758 101 15554176946778323141
14170010 4 18412264999738691744
14251764 18 18187364307245304272
14347332 77 18410293636015685637
14394314 77 18261385685329030409
14849402 71 17895476899707225472
14856354 85 15502661464727823781
15183329 4 18334298668836087774
15196674 1 18337953506006792976
15788980 27 16630804426429570508
15849732 13 17989490697279554727
15927050 60 17612316247596787908
17349148 13 18333726927416992329
17492 89 18122064475598571242
17844677 252 18334572464506764544
17857418 61 18408042913927210965
1813 80 17346592006555008708
18335252 114 10303819756508501194
18608769 82 18338518534582318243
19319366 153 18343588438854685194
19377110 9 18040431113801333627
19489759 90 15267344037484751989
20028762 73 18333169453732334615
21033648 29 18130803247807704021
21130935 74 18260545666660602354
21150785 3 17132116814654679895
21236236 1 18337391642643518537
21267235 1 18408317809293832822
21521721 280 18113901512168132008
21623969 137 18411979169770923794
22149856 69 18261661662472496467
22224240 67 18409735028595609906
23522609 53 18120340290699829201
23559900 14 18338243643711344601
23569917 315 18343578560372278866
23569943 247 18051126197103734890
24771750 20 17912070656158051652
3004659 81 18131070459397964874
335352 9 18410855421515784374
3383291 50 18343019969504272955
34797466 226 17313097532614880564
350125 39 18408040728074155345
3545911 37 18411138021858374378
3633792 109 18271536372512968437
4073 2 18273208716259811611
4093350 32 16226046653374674328
4325135 7 18407762533935214823
4340502 62 18408040706788975918
46194498 28 17703512107988106980
465052 167 18260545619272991726
5104073 3 18267862963740086960
542803 24 16732985331648324360
6086070 43 16950863478605725249
9996256 80 18334575750029651698

> <PUBCHEM_SHAPE_MULTIPOLES>
585.07
18.32
2.21
1.09
3.86
0.21
0.35
-5.87
-1.36
-0.11
-0.2
0.53
0.17
-0.05

> <PUBCHEM_SHAPE_SELFOVERLAP>
1254.115

> <PUBCHEM_SHAPE_VOLUME>
322.7

> <PUBCHEM_COORDINATE_TYPE>
2
5
10

$$$$

