5281323
  -OEChem-07051212563D

 88 91  0     1  0  0  0  0  0999 V2000
   -2.0075   -0.8740    2.4785 O   0  0  0  0  0  0  0  0  0  0  0  0
    2.5089   -1.5050   -2.8996 O   0  0  0  0  0  0  0  0  0  0  0  0
   -2.3343   -3.2504   -0.5563 O   0  0  0  0  0  0  0  0  0  0  0  0
    4.8031    2.5984   -2.7590 O   0  0  0  0  0  0  0  0  0  0  0  0
    3.6499    3.2192   -0.3983 O   0  0  0  0  0  0  0  0  0  0  0  0
   -4.5815   -2.2852    0.3791 O   0  0  0  0  0  0  0  0  0  0  0  0
   -6.9329    2.0073    0.1873 O   0  0  0  0  0  0  0  0  0  0  0  0
   -5.9215    1.4299   -1.8078 O   0  0  0  0  0  0  0  0  0  0  0  0
    1.0098   -1.2061    0.9844 C   0  0  2  0  0  0  0  0  0  0  0  0
    0.1656   -1.6375   -0.2696 C   0  0  1  0  0  0  0  0  0  0  0  0
    2.4748   -1.7144    0.8000 C   0  0  1  0  0  0  0  0  0  0  0  0
    3.1554   -1.2643   -0.5542 C   0  0  2  0  0  0  0  0  0  0  0  0
   -1.2634   -1.2738    0.2008 C   0  0  2  0  0  0  0  0  0  0  0  0
    0.1995   -1.8830    2.1203 C   0  0  0  0  0  0  0  0  0  0  0  0
    0.6879   -0.8915   -1.4938 C   0  0  0  0  0  0  0  0  0  0  0  0
   -1.2799   -1.7839    1.6659 C   0  0  1  0  0  0  0  0  0  0  0  0
    3.7722    0.1859   -0.4765 C   0  0  1  0  0  0  0  0  0  0  0  0
    2.1440   -1.2719   -1.7432 C   0  0  0  0  0  0  0  0  0  0  0  0
    3.3969   -1.4701    2.0094 C   0  0  0  0  0  0  0  0  0  0  0  0
    0.9684    0.3200    1.3074 C   0  0  0  0  0  0  0  0  0  0  0  0
    0.2136   -3.1669   -0.6032 C   0  0  0  0  0  0  0  0  0  0  0  0
   -2.4267   -1.8271   -0.6176 C   0  0  1  0  0  0  0  0  0  0  0  0
    4.3751    0.5630    0.8758 C   0  0  0  0  0  0  0  0  0  0  0  0
    4.2496   -2.3222   -0.8725 C   0  0  0  0  0  0  0  0  0  0  0  0
    4.8110    0.4689   -1.5895 C   0  0  0  0  0  0  0  0  0  0  0  0
    4.2066   -0.2171    1.9590 C   0  0  0  0  0  0  0  0  0  0  0  0
    5.1791    1.8805    0.9540 C   0  0  0  0  0  0  0  0  0  0  0  0
    5.3121    1.9208   -1.6120 C   0  0  2  0  0  0  0  0  0  0  0  0
    4.9907    2.7197   -0.3430 C   0  0  1  0  0  0  0  0  0  0  0  0
   -2.3328   -1.4084   -2.0831 C   0  0  0  0  0  0  0  0  0  0  0  0
   -3.7751   -1.4353    0.0018 C   0  0  0  0  0  0  0  0  0  0  0  0
    6.6783    1.5536    1.1385 C   0  0  0  0  0  0  0  0  0  0  0  0
    4.7240    2.7411    2.1590 C   0  0  0  0  0  0  0  0  0  0  0  0
   -4.0776    0.0231    0.1337 C   0  0  0  0  0  0  0  0  0  0  0  0
   -5.2357    0.4365    0.6689 C   0  0  0  0  0  0  0  0  0  0  0  0
   -5.6793    1.8700    0.8676 C   0  0  0  0  0  0  0  0  0  0  0  0
   -5.9216    2.1234    2.3596 C   0  0  0  0  0  0  0  0  0  0  0  0
   -4.7311    2.9354    0.3059 C   0  0  0  0  0  0  0  0  0  0  0  0
   -6.9017    1.7551   -1.1515 C   0  0  0  0  0  0  0  0  0  0  0  0
   -8.2740    1.9362   -1.7259 C   0  0  0  0  0  0  0  0  0  0  0  0
    2.3902   -2.8090    0.7751 H   0  0  0  0  0  0  0  0  0  0  0  0
   -1.3604   -0.1822    0.1922 H   0  0  0  0  0  0  0  0  0  0  0  0
    0.4842   -2.9378    2.2119 H   0  0  0  0  0  0  0  0  0  0  0  0
    0.3654   -1.4177    3.0981 H   0  0  0  0  0  0  0  0  0  0  0  0
    0.1543   -1.1573   -2.4066 H   0  0  0  0  0  0  0  0  0  0  0  0
    0.6188    0.1952   -1.3962 H   0  0  0  0  0  0  0  0  0  0  0  0
   -1.7457   -2.7620    1.8025 H   0  0  0  0  0  0  0  0  0  0  0  0
    2.9544    0.8848   -0.6728 H   0  0  0  0  0  0  0  0  0  0  0  0
    2.8144   -1.4796    2.9374 H   0  0  0  0  0  0  0  0  0  0  0  0
    4.1021   -2.3071    2.0978 H   0  0  0  0  0  0  0  0  0  0  0  0
   -0.0318    0.7112    1.4944 H   0  0  0  0  0  0  0  0  0  0  0  0
    1.3633    0.9408    0.5078 H   0  0  0  0  0  0  0  0  0  0  0  0
    1.5367    0.5444    2.2159 H   0  0  0  0  0  0  0  0  0  0  0  0
    1.2365   -3.5152   -0.7775 H   0  0  0  0  0  0  0  0  0  0  0  0
   -0.2929   -3.4072   -1.5426 H   0  0  0  0  0  0  0  0  0  0  0  0
   -0.1689   -3.8042    0.1992 H   0  0  0  0  0  0  0  0  0  0  0  0
    3.8260   -3.3335   -0.8785 H   0  0  0  0  0  0  0  0  0  0  0  0
    4.6956   -2.1813   -1.8628 H   0  0  0  0  0  0  0  0  0  0  0  0
    5.0617   -2.3029   -0.1387 H   0  0  0  0  0  0  0  0  0  0  0  0
    5.6865   -0.1734   -1.4291 H   0  0  0  0  0  0  0  0  0  0  0  0
    4.4044    0.2092   -2.5727 H   0  0  0  0  0  0  0  0  0  0  0  0
    4.6762    0.0580    2.8996 H   0  0  0  0  0  0  0  0  0  0  0  0
    6.4006    1.8852   -1.7448 H   0  0  0  0  0  0  0  0  0  0  0  0
    5.6327    3.6094   -0.3138 H   0  0  0  0  0  0  0  0  0  0  0  0
   -1.5301   -0.0319    2.5279 H   0  0  0  0  0  0  0  0  0  0  0  0
   -2.0471   -0.3584   -2.2011 H   0  0  0  0  0  0  0  0  0  0  0  0
   -1.6768   -2.0548   -2.6707 H   0  0  0  0  0  0  0  0  0  0  0  0
   -3.3169   -1.5123   -2.5590 H   0  0  0  0  0  0  0  0  0  0  0  0
    6.8680    1.0614    2.0996 H   0  0  0  0  0  0  0  0  0  0  0  0
    7.0558    0.8867    0.3564 H   0  0  0  0  0  0  0  0  0  0  0  0
    7.2834    2.4674    1.1176 H   0  0  0  0  0  0  0  0  0  0  0  0
    3.6374    2.8853    2.1663 H   0  0  0  0  0  0  0  0  0  0  0  0
    5.1928    3.7318    2.1294 H   0  0  0  0  0  0  0  0  0  0  0  0
    5.0015    2.2893    3.1177 H   0  0  0  0  0  0  0  0  0  0  0  0
   -2.7248   -3.5651    0.2752 H   0  0  0  0  0  0  0  0  0  0  0  0
    5.1951    3.4884   -2.7705 H   0  0  0  0  0  0  0  0  0  0  0  0
    3.5590    3.7209   -1.2261 H   0  0  0  0  0  0  0  0  0  0  0  0
   -3.3365    0.7238   -0.2283 H   0  0  0  0  0  0  0  0  0  0  0  0
   -5.9504   -0.3107    1.0127 H   0  0  0  0  0  0  0  0  0  0  0  0
   -6.3213    3.1313    2.5212 H   0  0  0  0  0  0  0  0  0  0  0  0
   -5.0015    2.0177    2.9447 H   0  0  0  0  0  0  0  0  0  0  0  0
   -6.6701    1.4306    2.7626 H   0  0  0  0  0  0  0  0  0  0  0  0
   -5.2080    3.9229    0.3341 H   0  0  0  0  0  0  0  0  0  0  0  0
   -4.4186    2.7800   -0.7297 H   0  0  0  0  0  0  0  0  0  0  0  0
   -3.8139    2.9938    0.9044 H   0  0  0  0  0  0  0  0  0  0  0  0
   -8.6064    2.9661   -1.5744 H   0  0  0  0  0  0  0  0  0  0  0  0
   -8.9677    1.2339   -1.2570 H   0  0  0  0  0  0  0  0  0  0  0  0
   -8.2467    1.7337   -2.8005 H   0  0  0  0  0  0  0  0  0  0  0  0
  1 16  1  0  0  0  0
  1 65  1  0  0  0  0
  2 18  2  0  0  0  0
  3 22  1  0  0  0  0
  3 75  1  0  0  0  0
  4 28  1  0  0  0  0
  4 76  1  0  0  0  0
  5 29  1  0  0  0  0
  5 77  1  0  0  0  0
  6 31  2  0  0  0  0
  7 36  1  0  0  0  0
  7 39  1  0  0  0  0
  8 39  2  0  0  0  0
  9 10  1  0  0  0  0
  9 11  1  0  0  0  0
  9 14  1  0  0  0  0
  9 20  1  0  0  0  0
 10 13  1  0  0  0  0
 10 15  1  0  0  0  0
 10 21  1  0  0  0  0
 11 12  1  0  0  0  0
 11 19  1  0  0  0  0
 11 41  1  0  0  0  0
 12 17  1  0  0  0  0
 12 18  1  0  0  0  0
 12 24  1  0  0  0  0
 13 16  1  0  0  0  0
 13 22  1  0  0  0  0
 13 42  1  0  0  0  0
 14 16  1  0  0  0  0
 14 43  1  0  0  0  0
 14 44  1  0  0  0  0
 15 18  1  0  0  0  0
 15 45  1  0  0  0  0
 15 46  1  0  0  0  0
 16 47  1  0  0  0  0
 17 23  1  0  0  0  0
 17 25  1  0  0  0  0
 17 48  1  0  0  0  0
 19 26  1  0  0  0  0
 19 49  1  0  0  0  0
 19 50  1  0  0  0  0
 20 51  1  0  0  0  0
 20 52  1  0  0  0  0
 20 53  1  0  0  0  0
 21 54  1  0  0  0  0
 21 55  1  0  0  0  0
 21 56  1  0  0  0  0
 22 30  1  0  0  0  0
 22 31  1  0  0  0  0
 23 26  2  0  0  0  0
 23 27  1  0  0  0  0
 24 57  1  0  0  0  0
 24 58  1  0  0  0  0
 24 59  1  0  0  0  0
 25 28  1  0  0  0  0
 25 60  1  0  0  0  0
 25 61  1  0  0  0  0
 26 62  1  0  0  0  0
 27 29  1  0  0  0  0
 27 32  1  0  0  0  0
 27 33  1  0  0  0  0
 28 29  1  0  0  0  0
 28 63  1  0  0  0  0
 29 64  1  0  0  0  0
 30 66  1  0  0  0  0
 30 67  1  0  0  0  0
 30 68  1  0  0  0  0
 31 34  1  0  0  0  0
 32 69  1  0  0  0  0
 32 70  1  0  0  0  0
 32 71  1  0  0  0  0
 33 72  1  0  0  0  0
 33 73  1  0  0  0  0
 33 74  1  0  0  0  0
 34 35  2  0  0  0  0
 34 78  1  0  0  0  0
 35 36  1  0  0  0  0
 35 79  1  0  0  0  0
 36 37  1  0  0  0  0
 36 38  1  0  0  0  0
 37 80  1  0  0  0  0
 37 81  1  0  0  0  0
 37 82  1  0  0  0  0
 38 83  1  0  0  0  0
 38 84  1  0  0  0  0
 38 85  1  0  0  0  0
 39 40  1  0  0  0  0
 40 86  1  0  0  0  0
 40 87  1  0  0  0  0
 40 88  1  0  0  0  0
M  END
> <PUBCHEM_COMPOUND_CID>
5281323

> <PUBCHEM_CONFORMER_RMSD>
1

> <PUBCHEM_CONFORMER_DIVERSEORDER>
1
4
32
37
30
10
27
20
19
3
38
35
13
23
34
16
12
9
22
6
28
33
14
5
18
11
15
24
29
26
21
31
36
25
17
2
8
7

> <PUBCHEM_MMFF94_PARTIAL_CHARGES>
33
1 -0.68
12 0.06
15 0.06
16 0.28
17 0.14
18 0.45
19 0.14
2 -0.57
22 0.34
23 -0.28
26 -0.29
27 0.14
28 0.28
29 0.28
3 -0.68
31 0.49
34 -0.14
35 -0.29
36 0.42
39 0.66
4 -0.68
40 0.06
5 -0.68
6 -0.57
62 0.15
65 0.4
7 -0.43
75 0.4
76 0.4
77 0.4
78 0.15
79 0.15
8 -0.57

> <PUBCHEM_EFFECTIVE_ROTOR_COUNT>
7.8

> <PUBCHEM_PHARMACOPHORE_FEATURES>
17
1 1 acceptor
1 1 donor
1 2 acceptor
1 3 acceptor
1 3 donor
1 4 acceptor
1 4 donor
1 5 acceptor
1 5 donor
1 6 acceptor
1 8 acceptor
3 27 32 33 hydrophobe
3 36 37 38 hydrophobe
5 9 10 13 14 16 rings
6 11 12 17 19 23 26 rings
6 17 23 25 27 28 29 rings
6 9 10 11 12 15 18 rings

> <PUBCHEM_HEAVY_ATOM_COUNT>
40

> <PUBCHEM_ATOM_DEF_STEREO_COUNT>
10

> <PUBCHEM_ATOM_UDEF_STEREO_COUNT>
0

> <PUBCHEM_BOND_DEF_STEREO_COUNT>
1

> <PUBCHEM_BOND_UDEF_STEREO_COUNT>
0

> <PUBCHEM_ISOTOPIC_ATOM_COUNT>
0

> <PUBCHEM_COMPONENT_COUNT>
1

> <PUBCHEM_CACTVS_TAUTO_COUNT>
2

> <PUBCHEM_CONFORMER_ID>
0050962B00000001

> <PUBCHEM_MMFF94_ENERGY>
172.7129

> <PUBCHEM_FEATURE_SELFOVERLAP>
86.399

> <PUBCHEM_SHAPE_FINGERPRINT>
10319926 262 12895086140660292807
10554248 39 17385997433731781127
10556698 54 17604438504382175985
10675989 125 18188764092916923202
11578080 2 18334283267231336958
11796584 16 10087104949959675634
12047536 79 14620522241473851679
12422481 6 15770059449491110035
12633257 1 17130442185831929562
12975358 362 18124860503814952521
13690498 29 16589443973227151983
13782708 43 9871750178800694337
14211702 104 9079118847464508477
14950920 106 14045734929194545765
15082195 135 17240490203689125555
15163728 17 18335696135209321491
15183329 4 16443350905513721929
15238133 3 18271246020044513432
15320291 9 17548985906497861277
15475509 35 10952050065489914148
15840311 113 17988087798126248991
15968369 153 18261674745159709657
16096371 109 17631172073048685203
16112460 7 18410577327100861293
16989378 47 6916260745326592721
19303781 99 4748392139522601532
20691028 202 18335694005723421881
20715895 44 18333450954377758042
20775530 9 9151179723047640385
21033648 29 18272651221352939734
21599406 157 14923947842905804637
22122407 14 18199464368495928144
23559900 14 17968368065493426886
23569914 152 15940598246797476492
23569914 2 17903400066486261617
249057 3 18262516013478789718
27425 322 18341338833331353955
2748736 6 18335424603709655065
2838139 119 18188496744582936624
3472631 163 18410015437856162327
3918712 181 18261404364336868657
392239 28 17203060594707594082
4144715 1 18339354171840817522
4258327 124 18342459240987114893
439807 62 8358258176971733457
50677037 204 18409166610838617113
5104073 3 16128371519691297835
513532 50 15574722412945143488
6036956 94 17406267733591213780
9849439 229 18410013247676503711

> <PUBCHEM_SHAPE_MULTIPOLES>
776.23
18.2
3.87
2.53
23.9
0.88
0.24
19.52
2.92
-0.21
0.27
-1.01
0.33
0.11

> <PUBCHEM_SHAPE_SELFOVERLAP>
1649.38

> <PUBCHEM_SHAPE_VOLUME>
428.7

> <PUBCHEM_COORDINATE_TYPE>
2
5
10

$$$$

