5093
  -OEChem-06261200302D

140140  0     1  0  0  0  0  0999 V2000
   14.1244    8.0000    0.0000 O   0  0  0  0  0  0  0  0  0  0  0  0
   11.5263    9.5000    0.0000 O   0  0  0  0  0  0  0  0  0  0  0  0
   11.5263    7.5000    0.0000 O   0  0  0  0  0  0  0  0  0  0  0  0
   14.9904    9.5000    0.0000 O   0  0  0  0  0  0  0  0  0  0  0  0
   14.1244    6.0000    0.0000 O   0  0  0  0  0  0  0  0  0  0  0  0
   14.9904   10.5000    0.0000 O   0  0  0  0  0  0  0  0  0  0  0  0
    9.7942   10.5000    0.0000 O   0  0  0  0  0  0  0  0  0  0  0  0
    7.1962    8.0000    0.0000 O   0  0  0  0  0  0  0  0  0  0  0  0
    5.4641    0.0000    0.0000 O   0  0  0  0  0  0  0  0  0  0  0  0
    4.5981   10.5000    0.0000 O   0  0  0  0  0  0  0  0  0  0  0  0
    5.4641    6.0000    0.0000 O   0  0  0  0  0  0  0  0  0  0  0  0
    2.8660    3.5000    0.0000 O   0  0  0  0  0  0  0  0  0  0  0  0
    2.0000    5.0000    0.0000 O   0  0  0  0  0  0  0  0  0  0  0  0
   13.2583   10.5000    0.0000 N   0  0  0  0  0  0  0  0  0  0  0  0
    8.9282    9.0000    0.0000 N   0  0  0  0  0  0  0  0  0  0  0  0
    6.3301    9.5000    0.0000 N   0  0  0  0  0  0  0  0  0  0  0  0
    6.3301    1.5000    0.0000 N   0  0  0  0  0  0  0  0  0  0  0  0
    3.7320    6.0000    0.0000 N   0  0  0  0  0  0  0  0  0  0  0  0
    3.7320    9.0000    0.0000 N   0  0  0  0  0  0  0  0  0  0  0  0
   12.3923    9.0000    0.0000 C   0  0  3  0  0  0  0  0  0  0  0  0
   13.2583    9.5000    0.0000 C   0  0  3  0  0  0  0  0  0  0  0  0
   12.3923    8.0000    0.0000 C   0  0  3  0  0  0  0  0  0  0  0  0
   13.2583    7.5000    0.0000 C   0  0  3  0  0  0  0  0  0  0  0  0
   14.1244    9.0000    0.0000 C   0  0  3  0  0  0  0  0  0  0  0  0
   13.2583    6.5000    0.0000 C   0  0  0  0  0  0  0  0  0  0  0  0
   10.6603    9.0000    0.0000 C   0  0  3  0  0  0  0  0  0  0  0  0
   14.1244   11.0000    0.0000 C   0  0  0  0  0  0  0  0  0  0  0  0
   10.6603    8.0000    0.0000 C   0  0  0  0  0  0  0  0  0  0  0  0
    9.7942    9.5000    0.0000 C   0  0  0  0  0  0  0  0  0  0  0  0
   14.1244   12.0000    0.0000 C   0  0  0  0  0  0  0  0  0  0  0  0
    8.0622    9.5000    0.0000 C   0  0  3  0  0  0  0  0  0  0  0  0
    9.7942   -5.5000    0.0000 C   0  0  0  0  0  0  0  0  0  0  0  0
   10.6603   -6.0000    0.0000 C   0  0  0  0  0  0  0  0  0  0  0  0
    9.7942   -4.5000    0.0000 C   0  0  0  0  0  0  0  0  0  0  0  0
   10.6603   -7.0000    0.0000 C   0  0  0  0  0  0  0  0  0  0  0  0
    8.9282   -4.0000    0.0000 C   0  0  0  0  0  0  0  0  0  0  0  0
   11.5263   -7.5000    0.0000 C   0  0  0  0  0  0  0  0  0  0  0  0
    8.9282   -3.0000    0.0000 C   0  0  0  0  0  0  0  0  0  0  0  0
   11.5263   -8.5000    0.0000 C   0  0  0  0  0  0  0  0  0  0  0  0
    8.0622   -2.5000    0.0000 C   0  0  0  0  0  0  0  0  0  0  0  0
   12.3923   -9.0000    0.0000 C   0  0  0  0  0  0  0  0  0  0  0  0
    8.0622   -1.5000    0.0000 C   0  0  0  0  0  0  0  0  0  0  0  0
    7.1962    9.0000    0.0000 C   0  0  0  0  0  0  0  0  0  0  0  0
    8.0622   10.5000    0.0000 C   0  0  0  0  0  0  0  0  0  0  0  0
   12.3923  -10.0000    0.0000 C   0  0  0  0  0  0  0  0  0  0  0  0
    7.1962   -1.0000    0.0000 C   0  0  0  0  0  0  0  0  0  0  0  0
   13.2583  -10.5000    0.0000 C   0  0  0  0  0  0  0  0  0  0  0  0
    5.4641    9.0000    0.0000 C   0  0  3  0  0  0  0  0  0  0  0  0
    7.1962    0.0000    0.0000 C   0  0  0  0  0  0  0  0  0  0  0  0
    5.4641    8.0000    0.0000 C   0  0  0  0  0  0  0  0  0  0  0  0
   13.2583  -11.5000    0.0000 C   0  0  0  0  0  0  0  0  0  0  0  0
    4.5981    3.5000    0.0000 C   0  0  0  0  0  0  0  0  0  0  0  0
    4.5981    4.5000    0.0000 C   0  0  0  0  0  0  0  0  0  0  0  0
    5.4641    3.0000    0.0000 C   0  0  0  0  0  0  0  0  0  0  0  0
    4.5981    7.5000    0.0000 C   0  0  0  0  0  0  0  0  0  0  0  0
    3.7320    5.0000    0.0000 C   0  0  3  0  0  0  0  0  0  0  0  0
    6.3301    0.5000    0.0000 C   0  0  0  0  0  0  0  0  0  0  0  0
    5.4641    2.0000    0.0000 C   0  0  0  0  0  0  0  0  0  0  0  0
    4.5981    9.5000    0.0000 C   0  0  0  0  0  0  0  0  0  0  0  0
    4.5981    6.5000    0.0000 C   0  0  0  0  0  0  0  0  0  0  0  0
   14.1244  -12.0000    0.0000 C   0  0  0  0  0  0  0  0  0  0  0  0
    2.8660    4.5000    0.0000 C   0  0  0  0  0  0  0  0  0  0  0  0
   11.8554    8.6900    0.0000 H   0  0  0  0  0  0  0  0  0  0  0  0
   13.7953    9.8100    0.0000 H   0  0  0  0  0  0  0  0  0  0  0  0
   11.8554    8.3100    0.0000 H   0  0  0  0  0  0  0  0  0  0  0  0
   13.7953    7.1900    0.0000 H   0  0  0  0  0  0  0  0  0  0  0  0
   14.1244    9.6200    0.0000 H   0  0  0  0  0  0  0  0  0  0  0  0
   12.6477    6.6077    0.0000 H   0  0  0  0  0  0  0  0  0  0  0  0
   13.0463    5.9174    0.0000 H   0  0  0  0  0  0  0  0  0  0  0  0
   12.7214   10.8100    0.0000 H   0  0  0  0  0  0  0  0  0  0  0  0
   11.1972    8.6900    0.0000 H   0  0  0  0  0  0  0  0  0  0  0  0
   11.5263    6.8800    0.0000 H   0  0  0  0  0  0  0  0  0  0  0  0
   15.5273    9.1900    0.0000 H   0  0  0  0  0  0  0  0  0  0  0  0
   10.0403    8.0000    0.0000 H   0  0  0  0  0  0  0  0  0  0  0  0
   10.6603    7.3800    0.0000 H   0  0  0  0  0  0  0  0  0  0  0  0
   11.2803    8.0000    0.0000 H   0  0  0  0  0  0  0  0  0  0  0  0
   14.1244    5.3800    0.0000 H   0  0  0  0  0  0  0  0  0  0  0  0
   14.7444   12.0000    0.0000 H   0  0  0  0  0  0  0  0  0  0  0  0
   14.1244   12.6200    0.0000 H   0  0  0  0  0  0  0  0  0  0  0  0
   13.5044   12.0000    0.0000 H   0  0  0  0  0  0  0  0  0  0  0  0
    8.9282    8.3800    0.0000 H   0  0  0  0  0  0  0  0  0  0  0  0
    8.0622    8.8800    0.0000 H   0  0  0  0  0  0  0  0  0  0  0  0
    9.1836   -5.3923    0.0000 H   0  0  0  0  0  0  0  0  0  0  0  0
    9.5822   -6.0826    0.0000 H   0  0  0  0  0  0  0  0  0  0  0  0
   11.2708   -6.1077    0.0000 H   0  0  0  0  0  0  0  0  0  0  0  0
   10.8723   -5.4174    0.0000 H   0  0  0  0  0  0  0  0  0  0  0  0
   10.4048   -4.6077    0.0000 H   0  0  0  0  0  0  0  0  0  0  0  0
   10.0063   -3.9174    0.0000 H   0  0  0  0  0  0  0  0  0  0  0  0
   10.0497   -6.8923    0.0000 H   0  0  0  0  0  0  0  0  0  0  0  0
   10.4482   -7.5826    0.0000 H   0  0  0  0  0  0  0  0  0  0  0  0
    8.3176   -3.8923    0.0000 H   0  0  0  0  0  0  0  0  0  0  0  0
    8.7162   -4.5826    0.0000 H   0  0  0  0  0  0  0  0  0  0  0  0
   12.1369   -7.6077    0.0000 H   0  0  0  0  0  0  0  0  0  0  0  0
   11.7383   -6.9174    0.0000 H   0  0  0  0  0  0  0  0  0  0  0  0
    9.5388   -3.1077    0.0000 H   0  0  0  0  0  0  0  0  0  0  0  0
    9.1403   -2.4174    0.0000 H   0  0  0  0  0  0  0  0  0  0  0  0
   10.9157   -8.3923    0.0000 H   0  0  0  0  0  0  0  0  0  0  0  0
   11.3142   -9.0826    0.0000 H   0  0  0  0  0  0  0  0  0  0  0  0
    7.4516   -2.3923    0.0000 H   0  0  0  0  0  0  0  0  0  0  0  0
    7.8501   -3.0826    0.0000 H   0  0  0  0  0  0  0  0  0  0  0  0
   13.0029   -9.1077    0.0000 H   0  0  0  0  0  0  0  0  0  0  0  0
   12.6044   -8.4174    0.0000 H   0  0  0  0  0  0  0  0  0  0  0  0
    8.6728   -1.6077    0.0000 H   0  0  0  0  0  0  0  0  0  0  0  0
    8.2742   -0.9174    0.0000 H   0  0  0  0  0  0  0  0  0  0  0  0
    8.6822   10.5000    0.0000 H   0  0  0  0  0  0  0  0  0  0  0  0
    8.0622   11.1200    0.0000 H   0  0  0  0  0  0  0  0  0  0  0  0
    7.4422   10.5000    0.0000 H   0  0  0  0  0  0  0  0  0  0  0  0
   11.7817   -9.8923    0.0000 H   0  0  0  0  0  0  0  0  0  0  0  0
   12.1803  -10.5826    0.0000 H   0  0  0  0  0  0  0  0  0  0  0  0
    6.5856   -0.8923    0.0000 H   0  0  0  0  0  0  0  0  0  0  0  0
    6.9841   -1.5826    0.0000 H   0  0  0  0  0  0  0  0  0  0  0  0
   13.8689  -10.6077    0.0000 H   0  0  0  0  0  0  0  0  0  0  0  0
   13.4704   -9.9174    0.0000 H   0  0  0  0  0  0  0  0  0  0  0  0
    5.4641    9.6200    0.0000 H   0  0  0  0  0  0  0  0  0  0  0  0
    6.3301   10.1200    0.0000 H   0  0  0  0  0  0  0  0  0  0  0  0
    7.8067   -0.1077    0.0000 H   0  0  0  0  0  0  0  0  0  0  0  0
    7.4082    0.5826    0.0000 H   0  0  0  0  0  0  0  0  0  0  0  0
    5.6762    7.4174    0.0000 H   0  0  0  0  0  0  0  0  0  0  0  0
    6.0747    8.1077    0.0000 H   0  0  0  0  0  0  0  0  0  0  0  0
   12.6477  -11.3923    0.0000 H   0  0  0  0  0  0  0  0  0  0  0  0
   13.0463  -12.0826    0.0000 H   0  0  0  0  0  0  0  0  0  0  0  0
    3.9875    3.6077    0.0000 H   0  0  0  0  0  0  0  0  0  0  0  0
    4.3860    2.9174    0.0000 H   0  0  0  0  0  0  0  0  0  0  0  0
    5.2087    4.3923    0.0000 H   0  0  0  0  0  0  0  0  0  0  0  0
    4.8101    5.0826    0.0000 H   0  0  0  0  0  0  0  0  0  0  0  0
    6.0747    2.8923    0.0000 H   0  0  0  0  0  0  0  0  0  0  0  0
    5.6762    3.5826    0.0000 H   0  0  0  0  0  0  0  0  0  0  0  0
    4.2690    5.3100    0.0000 H   0  0  0  0  0  0  0  0  0  0  0  0
    4.3860    8.0826    0.0000 H   0  0  0  0  0  0  0  0  0  0  0  0
    3.9875    7.3923    0.0000 H   0  0  0  0  0  0  0  0  0  0  0  0
    4.8535    2.1077    0.0000 H   0  0  0  0  0  0  0  0  0  0  0  0
    5.2520    1.4174    0.0000 H   0  0  0  0  0  0  0  0  0  0  0  0
    6.8671    1.8100    0.0000 H   0  0  0  0  0  0  0  0  0  0  0  0
    3.1951    6.3100    0.0000 H   0  0  0  0  0  0  0  0  0  0  0  0
   13.8144  -12.5369    0.0000 H   0  0  0  0  0  0  0  0  0  0  0  0
   14.6613  -12.3100    0.0000 H   0  0  0  0  0  0  0  0  0  0  0  0
   14.4344  -11.4631    0.0000 H   0  0  0  0  0  0  0  0  0  0  0  0
    3.1951    9.3100    0.0000 H   0  0  0  0  0  0  0  0  0  0  0  0
    3.7320    8.3800    0.0000 H   0  0  0  0  0  0  0  0  0  0  0  0
    2.3291    3.1900    0.0000 H   0  0  0  0  0  0  0  0  0  0  0  0
  1 23  1  0  0  0  0
  1 24  1  0  0  0  0
  2 20  1  0  0  0  0
  2 26  1  0  0  0  0
  3 22  1  0  0  0  0
  3 72  1  0  0  0  0
  4 24  1  0  0  0  0
  4 73  1  0  0  0  0
  5 25  1  0  0  0  0
  5 77  1  0  0  0  0
  6 27  2  0  0  0  0
  7 29  2  0  0  0  0
  8 43  2  0  0  0  0
  9 57  2  0  0  0  0
 10 59  2  0  0  0  0
 11 60  2  0  0  0  0
 12 62  1  0  0  0  0
 12140  1  0  0  0  0
 13 62  2  0  0  0  0
 14 21  1  0  0  0  0
 14 27  1  0  0  0  0
 14 70  1  0  0  0  0
 15 29  1  0  0  0  0
 15 31  1  0  0  0  0
 15 81  1  0  0  0  0
 16 43  1  0  0  0  0
 16 48  1  0  0  0  0
 16115  1  0  0  0  0
 17 57  1  0  0  0  0
 17 58  1  0  0  0  0
 17133  1  0  0  0  0
 18 56  1  0  0  0  0
 18 60  1  0  0  0  0
 18134  1  0  0  0  0
 19 59  1  0  0  0  0
 19138  1  0  0  0  0
 19139  1  0  0  0  0
 20 21  1  0  0  0  0
 20 22  1  0  0  0  0
 20 63  1  0  0  0  0
 21 24  1  0  0  0  0
 21 64  1  0  0  0  0
 22 23  1  0  0  0  0
 22 65  1  0  0  0  0
 23 25  1  0  0  0  0
 23 66  1  0  0  0  0
 24 67  1  0  0  0  0
 25 68  1  0  0  0  0
 25 69  1  0  0  0  0
 26 28  1  0  0  0  0
 26 29  1  0  0  0  0
 26 71  1  0  0  0  0
 27 30  1  0  0  0  0
 28 74  1  0  0  0  0
 28 75  1  0  0  0  0
 28 76  1  0  0  0  0
 30 78  1  0  0  0  0
 30 79  1  0  0  0  0
 30 80  1  0  0  0  0
 31 43  1  0  0  0  0
 31 44  1  0  0  0  0
 31 82  1  0  0  0  0
 32 33  1  0  0  0  0
 32 34  1  0  0  0  0
 32 83  1  0  0  0  0
 32 84  1  0  0  0  0
 33 35  1  0  0  0  0
 33 85  1  0  0  0  0
 33 86  1  0  0  0  0
 34 36  1  0  0  0  0
 34 87  1  0  0  0  0
 34 88  1  0  0  0  0
 35 37  1  0  0  0  0
 35 89  1  0  0  0  0
 35 90  1  0  0  0  0
 36 38  1  0  0  0  0
 36 91  1  0  0  0  0
 36 92  1  0  0  0  0
 37 39  1  0  0  0  0
 37 93  1  0  0  0  0
 37 94  1  0  0  0  0
 38 40  1  0  0  0  0
 38 95  1  0  0  0  0
 38 96  1  0  0  0  0
 39 41  1  0  0  0  0
 39 97  1  0  0  0  0
 39 98  1  0  0  0  0
 40 42  1  0  0  0  0
 40 99  1  0  0  0  0
 40100  1  0  0  0  0
 41 45  1  0  0  0  0
 41101  1  0  0  0  0
 41102  1  0  0  0  0
 42 46  1  0  0  0  0
 42103  1  0  0  0  0
 42104  1  0  0  0  0
 44105  1  0  0  0  0
 44106  1  0  0  0  0
 44107  1  0  0  0  0
 45 47  1  0  0  0  0
 45108  1  0  0  0  0
 45109  1  0  0  0  0
 46 49  1  0  0  0  0
 46110  1  0  0  0  0
 46111  1  0  0  0  0
 47 51  1  0  0  0  0
 47112  1  0  0  0  0
 47113  1  0  0  0  0
 48 50  1  0  0  0  0
 48 59  1  0  0  0  0
 48114  1  0  0  0  0
 49 57  1  0  0  0  0
 49116  1  0  0  0  0
 49117  1  0  0  0  0
 50 55  1  0  0  0  0
 50118  1  0  0  0  0
 50119  1  0  0  0  0
 51 61  1  0  0  0  0
 51120  1  0  0  0  0
 51121  1  0  0  0  0
 52 53  1  0  0  0  0
 52 54  1  0  0  0  0
 52122  1  0  0  0  0
 52123  1  0  0  0  0
 53 56  1  0  0  0  0
 53124  1  0  0  0  0
 53125  1  0  0  0  0
 54 58  1  0  0  0  0
 54126  1  0  0  0  0
 54127  1  0  0  0  0
 55 60  1  0  0  0  0
 55129  1  0  0  0  0
 55130  1  0  0  0  0
 56 62  1  0  0  0  0
 56128  1  0  0  0  0
 58131  1  0  0  0  0
 58132  1  0  0  0  0
 61135  1  0  0  0  0
 61136  1  0  0  0  0
 61137  1  0  0  0  0
M  END
> <PUBCHEM_COMPOUND_CID>
5093

> <PUBCHEM_COMPOUND_CANONICALIZED>
1

> <PUBCHEM_CACTVS_COMPLEXITY>
1360

> <PUBCHEM_CACTVS_HBOND_ACCEPTOR>
13

> <PUBCHEM_CACTVS_HBOND_DONOR>
10

> <PUBCHEM_CACTVS_ROTATABLE_BOND>
35

> <PUBCHEM_CACTVS_SUBSKEYS>
AAADcfB/vAAAAAAAAAAAAAAAAAAAAAAAAAAkAAAAAAAAAAAAAAAAHgAQCAAACDzxgAcCCALABgAIAAGQGAIAAAAAAAAAAIHIAAATUBIAgCQXQAAHFgCXAAH8+4eAAAAAAAAAAAAAAAAAAAAAAAAAAAAAAA==

> <PUBCHEM_IUPAC_OPENEYE_NAME>
2-[[4-[2-[2-[3-acetamido-2,5-dihydroxy-6-(hydroxymethyl)tetrahydropyran-4-yl]oxypropanoylamino]propanoylamino]-5-amino-5-oxo-pentanoyl]amino]-6-(octadecanoylamino)hexanoic acid

> <PUBCHEM_IUPAC_CAS_NAME>
2-[[4-[[2-[[2-[[3-acetamido-2,5-dihydroxy-6-(hydroxymethyl)-4-oxanyl]oxy]-1-oxopropyl]amino]-1-oxopropyl]amino]-5-amino-1,5-dioxopentyl]amino]-6-(1-oxooctadecylamino)hexanoic acid

> <PUBCHEM_IUPAC_NAME>
2-[[4-[2-[2-[3-acetamido-2,5-dihydroxy-6-(hydroxymethyl)oxan-4-yl]oxypropanoylamino]propanoylamino]-5-amino-5-oxopentanoyl]amino]-6-(octadecanoylamino)hexanoic acid

> <PUBCHEM_IUPAC_SYSTEMATIC_NAME>
2-[[4-[2-[2-[5-acetamido-2-(hydroxymethyl)-3,6-bis(oxidanyl)oxan-4-yl]oxypropanoylamino]propanoylamino]-5-azanyl-5-oxidanylidene-pentanoyl]amino]-6-(octadecanoylamino)hexanoic acid

> <PUBCHEM_IUPAC_TRADITIONAL_NAME>
2-[[4-[2-[2-(3-acetamido-2,5-dihydroxy-6-methylol-tetrahydropyran-4-yl)oxypropanoylamino]propanoylamino]-5-amino-5-keto-pentanoyl]amino]-6-stearamido-hexanoic acid

> <PUBCHEM_IUPAC_INCHI>
InChI=1S/C43H78N6O13/c1-5-6-7-8-9-10-11-12-13-14-15-16-17-18-19-23-34(52)45-26-21-20-22-32(42(58)59)48-35(53)25-24-31(39(44)55)49-40(56)28(2)46-41(57)29(3)61-38-36(47-30(4)51)43(60)62-33(27-50)37(38)54/h28-29,31-33,36-38,43,50,54,60H,5-27H2,1-4H3,(H2,44,55)(H,45,52)(H,46,57)(H,47,51)(H,48,53)(H,49,56)(H,58,59)

> <PUBCHEM_IUPAC_INCHIKEY>
FKHUGQZRBPETJR-UHFFFAOYSA-N

> <PUBCHEM_XLOGP3_AA>
4.4

> <PUBCHEM_EXACT_MASS>
886.562687

> <PUBCHEM_MOLECULAR_FORMULA>
C43H78N6O13

> <PUBCHEM_MOLECULAR_WEIGHT>
887.11182

> <PUBCHEM_OPENEYE_CAN_SMILES>
CCCCCCCCCCCCCCCCCC(=O)NCCCCC(C(=O)O)NC(=O)CCC(C(=O)N)NC(=O)C(C)NC(=O)C(C)OC1C(C(OC(C1O)CO)O)NC(=O)C

> <PUBCHEM_OPENEYE_ISO_SMILES>
CCCCCCCCCCCCCCCCCC(=O)NCCCCC(C(=O)O)NC(=O)CCC(C(=O)N)NC(=O)C(C)NC(=O)C(C)OC1C(C(OC(C1O)CO)O)NC(=O)C

> <PUBCHEM_CACTVS_TPSA>
305

> <PUBCHEM_MONOISOTOPIC_WEIGHT>
886.562687

> <PUBCHEM_TOTAL_CHARGE>
0

> <PUBCHEM_HEAVY_ATOM_COUNT>
62

> <PUBCHEM_ATOM_DEF_STEREO_COUNT>
0

> <PUBCHEM_ATOM_UDEF_STEREO_COUNT>
9

> <PUBCHEM_BOND_DEF_STEREO_COUNT>
0

> <PUBCHEM_BOND_UDEF_STEREO_COUNT>
0

> <PUBCHEM_ISOTOPIC_ATOM_COUNT>
0

> <PUBCHEM_COMPONENT_COUNT>
1

> <PUBCHEM_CACTVS_TAUTO_COUNT>
96

> <PUBCHEM_COORDINATE_TYPE>
1
5
255

> <PUBCHEM_BONDANNOTATIONS>
21  14  3
20  2  3
23  25  3
26  28  3
22  3  3
31  44  3
24  4  3
48  59  3
56  62  3

$$$$

