656501
  -OEChem-07051212483D

 73 75  0     1  0  0  0  0  0999 V2000
   -3.0637   -2.2092   -0.4856 P   0  0  2  0  0  0  0  0  0  0  0  0
   -2.6380    0.9827   -0.3032 O   0  0  0  0  0  0  0  0  0  0  0  0
   -2.6416   -1.1762    0.6851 O   0  0  0  0  0  0  0  0  0  0  0  0
    1.8070   -3.2928   -0.7366 O   0  0  0  0  0  0  0  0  0  0  0  0
   -1.6803    1.9904    3.5894 O   0  0  0  0  0  0  0  0  0  0  0  0
   -1.5372    3.3882   -1.2118 O   0  0  0  0  0  0  0  0  0  0  0  0
   -1.8116   -3.2282   -0.6157 O   0  0  0  0  0  0  0  0  0  0  0  0
    1.1740   -4.6615    1.8548 O   0  0  0  0  0  0  0  0  0  0  0  0
    2.3183   -2.3269    2.6788 O   0  0  0  0  0  0  0  0  0  0  0  0
   -0.3831    0.2125   -2.6200 O   0  0  0  0  0  0  0  0  0  0  0  0
   -5.2645   -0.8256    1.2056 O   0  0  0  0  0  0  0  0  0  0  0  0
   -5.1382    0.4452   -0.6825 O   0  0  0  0  0  0  0  0  0  0  0  0
   -2.9659   -1.3341   -1.8438 O   0  0  0  0  0  0  0  0  0  0  0  0
   -0.7994    1.5008   -5.0189 O   0  0  0  0  0  0  0  0  0  0  0  0
   -4.3935   -2.8765   -0.2810 O   0  0  0  0  0  0  0  0  0  0  0  0
    0.2311    4.5912    1.6089 O   0  0  0  0  0  0  0  0  0  0  0  0
    2.8723    4.8117    2.0801 O   0  0  0  0  0  0  0  0  0  0  0  0
    5.1212   -1.6384    1.0220 O   0  0  0  0  0  0  0  0  0  0  0  0
    0.3474    2.2711    1.4952 N   0  0  0  0  0  0  0  0  0  0  0  0
    3.2183   -1.4873   -0.2748 N   0  0  0  0  0  0  0  0  0  0  0  0
    5.0241    0.1060   -0.4268 N   0  0  0  0  0  0  0  0  0  0  0  0
    4.9177    1.8924   -1.9120 N   0  0  0  0  0  0  0  0  0  0  0  0
   -1.0544    2.0204    1.2452 C   0  0  1  0  0  0  0  0  0  0  0  0
   -1.2558    1.2977   -0.0971 C   0  0  2  0  0  0  0  0  0  0  0  0
   -1.6578    1.2076    2.3979 C   0  0  2  0  0  0  0  0  0  0  0  0
   -3.0929    0.7951    2.0762 C   0  0  0  0  0  0  0  0  0  0  0  0
   -3.1837    0.1363    0.7019 C   0  0  1  0  0  0  0  0  0  0  0  0
   -0.8229    2.1571   -1.2823 C   0  0  1  0  0  0  0  0  0  0  0  0
    0.5116   -3.6190   -0.1871 C   0  0  1  0  0  0  0  0  0  0  0  0
    0.6426   -3.4494    1.3203 C   0  0  2  0  0  0  0  0  0  0  0  0
   -1.0642    1.4724   -2.6334 C   0  0  1  0  0  0  0  0  0  0  0  0
    1.6637   -2.3365    1.4267 C   0  0  2  0  0  0  0  0  0  0  0  0
    2.6037   -2.6604    0.2783 C   0  0  1  0  0  0  0  0  0  0  0  0
   -4.6160   -0.0437    0.3082 C   0  0  0  0  0  0  0  0  0  0  0  0
   -0.5171   -2.6853   -0.8109 C   0  0  0  0  0  0  0  0  0  0  0  0
   -0.5421    2.2540   -3.8368 C   0  0  0  0  0  0  0  0  0  0  0  0
    0.8705    3.5439    1.6562 C   0  0  0  0  0  0  0  0  0  0  0  0
    2.3632    3.5066    1.9058 C   0  0  0  0  0  0  0  0  0  0  0  0
    2.5398   -0.7796   -1.2551 C   0  0  0  0  0  0  0  0  0  0  0  0
    4.4923   -1.0338    0.1516 C   0  0  0  0  0  0  0  0  0  0  0  0
    3.0335    0.3192   -1.8226 C   0  0  0  0  0  0  0  0  0  0  0  0
    4.3713    0.7617   -1.3503 C   0  0  0  0  0  0  0  0  0  0  0  0
   -1.5824    2.9825    1.2296 H   0  0  0  0  0  0  0  0  0  0  0  0
   -0.6730    0.3729   -0.0980 H   0  0  0  0  0  0  0  0  0  0  0  0
   -1.0456    0.3181    2.5937 H   0  0  0  0  0  0  0  0  0  0  0  0
   -3.7334    1.6873    2.1129 H   0  0  0  0  0  0  0  0  0  0  0  0
   -3.4546    0.1239    2.8654 H   0  0  0  0  0  0  0  0  0  0  0  0
    0.2462    2.3822   -1.1827 H   0  0  0  0  0  0  0  0  0  0  0  0
    0.2887   -4.6572   -0.4585 H   0  0  0  0  0  0  0  0  0  0  0  0
   -0.2935   -3.2317    1.8425 H   0  0  0  0  0  0  0  0  0  0  0  0
    0.9699    1.4697    1.5524 H   0  0  0  0  0  0  0  0  0  0  0  0
   -2.1312    1.2713   -2.7848 H   0  0  0  0  0  0  0  0  0  0  0  0
    1.1717   -1.3662    1.2881 H   0  0  0  0  0  0  0  0  0  0  0  0
    3.3831   -3.3664    0.5895 H   0  0  0  0  0  0  0  0  0  0  0  0
   -0.3491   -2.6022   -1.8899 H   0  0  0  0  0  0  0  0  0  0  0  0
   -0.4419   -1.6837   -0.3915 H   0  0  0  0  0  0  0  0  0  0  0  0
   -2.0548    1.4378    4.2965 H   0  0  0  0  0  0  0  0  0  0  0  0
    0.5403    2.4024   -3.7666 H   0  0  0  0  0  0  0  0  0  0  0  0
   -1.0381    3.2241   -3.9314 H   0  0  0  0  0  0  0  0  0  0  0  0
   -1.1345    4.0016   -1.8490 H   0  0  0  0  0  0  0  0  0  0  0  0
    0.4996   -5.3520    1.7357 H   0  0  0  0  0  0  0  0  0  0  0  0
    3.0116   -1.6462    2.6402 H   0  0  0  0  0  0  0  0  0  0  0  0
   -0.5628   -0.2257   -3.4694 H   0  0  0  0  0  0  0  0  0  0  0  0
    2.8598    3.0413    1.0485 H   0  0  0  0  0  0  0  0  0  0  0  0
    2.5642    2.9220    2.8090 H   0  0  0  0  0  0  0  0  0  0  0  0
    1.5689   -1.1342   -1.5632 H   0  0  0  0  0  0  0  0  0  0  0  0
   -6.2064   -0.9562    0.9645 H   0  0  0  0  0  0  0  0  0  0  0  0
   -3.3136   -1.7135   -2.6787 H   0  0  0  0  0  0  0  0  0  0  0  0
   -0.4530    2.0177   -5.7661 H   0  0  0  0  0  0  0  0  0  0  0  0
    2.5096    0.8786   -2.5857 H   0  0  0  0  0  0  0  0  0  0  0  0
    3.8296    4.7295    2.2293 H   0  0  0  0  0  0  0  0  0  0  0  0
    4.4353    2.4233   -2.6297 H   0  0  0  0  0  0  0  0  0  0  0  0
    5.8279    2.2311   -1.6196 H   0  0  0  0  0  0  0  0  0  0  0  0
  1  3  1  0  0  0  0
  1  7  1  0  0  0  0
  1 13  1  0  0  0  0
  1 15  2  0  0  0  0
  2 24  1  0  0  0  0
  2 27  1  0  0  0  0
  3 27  1  0  0  0  0
  4 29  1  0  0  0  0
  4 33  1  0  0  0  0
  5 25  1  0  0  0  0
  5 57  1  0  0  0  0
  6 28  1  0  0  0  0
  6 60  1  0  0  0  0
  7 35  1  0  0  0  0
  8 30  1  0  0  0  0
  8 61  1  0  0  0  0
  9 32  1  0  0  0  0
  9 62  1  0  0  0  0
 10 31  1  0  0  0  0
 10 63  1  0  0  0  0
 11 34  1  0  0  0  0
 11 67  1  0  0  0  0
 12 34  2  0  0  0  0
 13 68  1  0  0  0  0
 14 36  1  0  0  0  0
 14 69  1  0  0  0  0
 16 37  2  0  0  0  0
 17 38  1  0  0  0  0
 17 71  1  0  0  0  0
 18 40  2  0  0  0  0
 19 23  1  0  0  0  0
 19 37  1  0  0  0  0
 19 51  1  0  0  0  0
 20 33  1  0  0  0  0
 20 39  1  0  0  0  0
 20 40  1  0  0  0  0
 21 40  1  0  0  0  0
 21 42  2  0  0  0  0
 22 42  1  0  0  0  0
 22 72  1  0  0  0  0
 22 73  1  0  0  0  0
 23 24  1  0  0  0  0
 23 25  1  0  0  0  0
 23 43  1  0  0  0  0
 24 28  1  0  0  0  0
 24 44  1  0  0  0  0
 25 26  1  0  0  0  0
 25 45  1  0  0  0  0
 26 27  1  0  0  0  0
 26 46  1  0  0  0  0
 26 47  1  0  0  0  0
 27 34  1  0  0  0  0
 28 31  1  0  0  0  0
 28 48  1  0  0  0  0
 29 30  1  0  0  0  0
 29 35  1  0  0  0  0
 29 49  1  0  0  0  0
 30 32  1  0  0  0  0
 30 50  1  0  0  0  0
 31 36  1  0  0  0  0
 31 52  1  0  0  0  0
 32 33  1  0  0  0  0
 32 53  1  0  0  0  0
 33 54  1  0  0  0  0
 35 55  1  0  0  0  0
 35 56  1  0  0  0  0
 36 58  1  0  0  0  0
 36 59  1  0  0  0  0
 37 38  1  0  0  0  0
 38 64  1  0  0  0  0
 38 65  1  0  0  0  0
 39 41  2  0  0  0  0
 39 66  1  0  0  0  0
 41 42  1  0  0  0  0
 41 70  1  0  0  0  0
M  END
> <PUBCHEM_COMPOUND_CID>
656501

> <PUBCHEM_CONFORMER_RMSD>
1.4

> <PUBCHEM_CONFORMER_DIVERSEORDER>
1
15
4
33
7
51
17
35
25
23
52
26
8
24
47
31
19
29
41
6
44
11
3
46
2
50
10
22
39
21
38
49
36
9
32
28
43
48
27
42
20
12
14
45
37
18
13
40
30
16
5
34

> <PUBCHEM_MMFF94_PARTIAL_CHARGES>
55
1 1.51
10 -0.68
11 -0.65
12 -0.57
13 -0.77
14 -0.68
15 -0.7
16 -0.57
17 -0.68
18 -0.57
19 -0.73
2 -0.56
20 -0.47
21 -0.66
22 -0.85
23 0.3
24 0.28
25 0.28
27 0.62
28 0.28
29 0.28
3 -0.55
30 0.28
31 0.28
32 0.28
33 0.58
34 0.66
35 0.28
36 0.28
37 0.57
38 0.34
39 -0.04
4 -0.56
40 0.84
41 -0.14
42 0.49
5 -0.68
51 0.37
57 0.4
6 -0.68
60 0.4
61 0.4
62 0.4
63 0.4
66 0.15
67 0.5
68 0.5
69 0.4
7 -0.55
70 0.15
71 0.4
72 0.4
73 0.4
8 -0.68
9 -0.68

> <PUBCHEM_EFFECTIVE_ROTOR_COUNT>
15.2

> <PUBCHEM_PHARMACOPHORE_FEATURES>
29
1 10 acceptor
1 10 donor
1 11 acceptor
1 12 acceptor
1 13 acceptor
1 14 acceptor
1 14 donor
1 15 acceptor
1 16 acceptor
1 17 acceptor
1 17 donor
1 18 acceptor
1 19 donor
1 2 acceptor
1 21 donor
1 22 donor
1 4 acceptor
1 5 acceptor
1 5 donor
1 6 acceptor
1 6 donor
1 8 acceptor
1 8 donor
1 9 acceptor
1 9 donor
3 11 12 34 anion
5 4 29 30 32 33 rings
6 2 23 24 25 26 27 rings
6 20 21 39 40 41 42 rings

> <PUBCHEM_HEAVY_ATOM_COUNT>
42

> <PUBCHEM_ATOM_DEF_STEREO_COUNT>
10

> <PUBCHEM_ATOM_UDEF_STEREO_COUNT>
0

> <PUBCHEM_BOND_DEF_STEREO_COUNT>
0

> <PUBCHEM_BOND_UDEF_STEREO_COUNT>
0

> <PUBCHEM_ISOTOPIC_ATOM_COUNT>
0

> <PUBCHEM_COMPONENT_COUNT>
1

> <PUBCHEM_CACTVS_TAUTO_COUNT>
6

> <PUBCHEM_CONFORMER_ID>
000A047500000001

> <PUBCHEM_MMFF94_ENERGY>
91.8894

> <PUBCHEM_FEATURE_SELFOVERLAP>
147.337

> <PUBCHEM_SHAPE_FINGERPRINT>
10032420 55 18130238158654250938
12156800 1 16410423585393248674
14279260 333 18042673075105766038
14840074 17 18058709360752390654
14856354 85 17970053638662643086
15840311 113 17690825080504303713
15975801 100 17916885534267958940
19319366 153 18342735234483931858
20764821 26 18262243222951682560
238918 7 16816866795218260928
25265897 201 17244667166732704126
35225 105 16955362842545411203
463206 1 18410569595716227539
469060 322 17989486299127658886
56638632 33 18264759961849638620

> <PUBCHEM_SHAPE_MULTIPOLES>
748.49
8.38
5.96
3.58
1.68
0.55
-2.59
-1.98
0.02
2.58
3.2
-0.4
3.35
-0.54

> <PUBCHEM_SHAPE_SELFOVERLAP>
1556.016

> <PUBCHEM_SHAPE_VOLUME>
425.1

> <PUBCHEM_COORDINATE_TYPE>
2
5
10

$$$$

