3418
  -OEChem-06251223243D

 21 21  0     0  0  0  0  0  0999 V2000
    2.5193   -0.1264   -0.1238 P   0  0  0  0  0  0  0  0  0  0  0  0
    0.9651   -0.5719   -0.0659 O   0  0  0  0  0  0  0  0  0  0  0  0
    2.7950    0.5363    1.3257 O   0  0  0  0  0  0  0  0  0  0  0  0
    3.2989   -1.5413   -0.0290 O   0  0  0  0  0  0  0  0  0  0  0  0
   -2.8667   -1.9221   -0.5533 O   0  0  0  0  0  0  0  0  0  0  0  0
    2.9018    0.7145   -1.3071 O   0  0  0  0  0  0  0  0  0  0  0  0
   -0.9436   -2.5078    0.4877 O   0  0  0  0  0  0  0  0  0  0  0  0
   -0.0951    0.2832   -0.0147 C   0  0  0  0  0  0  0  0  0  0  0  0
   -1.4028   -0.1999    0.0343 C   0  0  0  0  0  0  0  0  0  0  0  0
    0.1412    1.6580   -0.0100 C   0  0  0  0  0  0  0  0  0  0  0  0
   -2.4741    0.6920    0.0880 C   0  0  0  0  0  0  0  0  0  0  0  0
   -0.9300    2.5497    0.0437 C   0  0  0  0  0  0  0  0  0  0  0  0
   -2.2376    2.0667    0.0927 C   0  0  0  0  0  0  0  0  0  0  0  0
   -1.6716   -1.6311    0.0317 C   0  0  0  0  0  0  0  0  0  0  0  0
    1.1369    2.0847   -0.0417 H   0  0  0  0  0  0  0  0  0  0  0  0
   -3.5037    0.3478    0.1409 H   0  0  0  0  0  0  0  0  0  0  0  0
   -0.7467    3.6203    0.0494 H   0  0  0  0  0  0  0  0  0  0  0  0
   -3.0713    2.7613    0.1380 H   0  0  0  0  0  0  0  0  0  0  0  0
    3.6709    0.9402    1.5036 H   0  0  0  0  0  0  0  0  0  0  0  0
    4.2728   -1.5544   -0.1451 H   0  0  0  0  0  0  0  0  0  0  0  0
   -3.0470   -2.8865   -0.5542 H   0  0  0  0  0  0  0  0  0  0  0  0
  1  2  1  0  0  0  0
  1  3  1  0  0  0  0
  1  4  1  0  0  0  0
  1  6  2  0  0  0  0
  2  8  1  0  0  0  0
  3 19  1  0  0  0  0
  4 20  1  0  0  0  0
  5 14  1  0  0  0  0
  5 21  1  0  0  0  0
  7 14  2  0  0  0  0
  8  9  1  0  0  0  0
  8 10  2  0  0  0  0
  9 11  2  0  0  0  0
  9 14  1  0  0  0  0
 10 12  1  0  0  0  0
 10 15  1  0  0  0  0
 11 13  1  0  0  0  0
 11 16  1  0  0  0  0
 12 13  2  0  0  0  0
 12 17  1  0  0  0  0
 13 18  1  0  0  0  0
M  END
> <PUBCHEM_COMPOUND_CID>
3418

> <PUBCHEM_CONFORMER_RMSD>
0.6

> <PUBCHEM_CONFORMER_DIVERSEORDER>
1
4
5
3
6
2

> <PUBCHEM_MMFF94_PARTIAL_CHARGES>
21
1 1.51
10 -0.15
11 -0.15
12 -0.15
13 -0.15
14 0.63
15 0.15
16 0.15
17 0.15
18 0.15
19 0.5
2 -0.35
20 0.5
21 0.5
3 -0.77
4 -0.77
5 -0.65
6 -0.7
7 -0.57
8 0.08
9 0.09

> <PUBCHEM_EFFECTIVE_ROTOR_COUNT>
3

> <PUBCHEM_PHARMACOPHORE_FEATURES>
8
1 3 acceptor
1 4 acceptor
1 5 acceptor
1 6 acceptor
1 7 acceptor
3 5 7 14 anion
4 1 3 4 6 anion
6 8 9 10 11 12 13 rings

> <PUBCHEM_HEAVY_ATOM_COUNT>
14

> <PUBCHEM_ATOM_DEF_STEREO_COUNT>
0

> <PUBCHEM_ATOM_UDEF_STEREO_COUNT>
0

> <PUBCHEM_BOND_DEF_STEREO_COUNT>
0

> <PUBCHEM_BOND_UDEF_STEREO_COUNT>
0

> <PUBCHEM_ISOTOPIC_ATOM_COUNT>
0

> <PUBCHEM_COMPONENT_COUNT>
1

> <PUBCHEM_CACTVS_TAUTO_COUNT>
1

> <PUBCHEM_CONFORMER_ID>
00000D5A00000001

> <PUBCHEM_MMFF94_ENERGY>
4.7213

> <PUBCHEM_FEATURE_SELFOVERLAP>
40.692

> <PUBCHEM_SHAPE_FINGERPRINT>
1 1 17618505823276216477
12553582 1 18122337982688202831
12716758 59 18337112374973581816
13538477 17 18272366494769266820
15669948 3 18411694404959605668
16945 1 18410011039709638721
193761 8 18194399979489511337
20510252 161 18261394506801154121
20645476 183 17772442763817738926
20711985 365 18411980286478050182
20871998 184 18259982669572771439
21501502 16 18410290320158125004
21524375 3 18049722116216477521
22802520 49 18187078498741693470
2334 1 18411135831419889011
23388829 49 17612607621850480757
23402539 116 18262531410688171333
23526114 1 17258212965207994198
23552423 10 18055063255688437477
23557571 272 18260541191763219276
23559900 14 18044095885901735870
2748010 2 18121224177714772613
6333449 129 18335707190570991009
6338986 31 18118977888164871247
7364860 26 17542784209907669313
81228 2 18411420583567286729

> <PUBCHEM_SHAPE_MULTIPOLES>
256.75
4.66
2.68
0.81
3.44
0.4
-0.01
0.58
0.24
-1.89
-0.06
0.49
-0.1
-0.2

> <PUBCHEM_SHAPE_SELFOVERLAP>
524.395

> <PUBCHEM_SHAPE_VOLUME>
148.7

> <PUBCHEM_COORDINATE_TYPE>
2
5
10

$$$$

