165368
  -OEChem-07051213003D

 29 31  0     0  0  0  0  0  0999 V2000
   -2.4557   -2.2657   -0.1844 O   0  0  0  0  0  0  0  0  0  0  0  0
   -1.9275    2.2405    0.4844 O   0  0  0  0  0  0  0  0  0  0  0  0
    2.6739   -1.7685   -0.4622 O   0  0  0  0  0  0  0  0  0  0  0  0
    4.1503    0.5093   -0.2085 O   0  0  0  0  0  0  0  0  0  0  0  0
   -0.2092   -1.5104   -0.2217 N   0  0  0  0  0  0  0  0  0  0  0  0
    0.1080    0.9214    0.1368 C   0  0  0  0  0  0  0  0  0  0  0  0
    0.6919   -0.4451   -0.1172 C   0  0  0  0  0  0  0  0  0  0  0  0
   -2.1084   -0.0622    0.1365 C   0  0  0  0  0  0  0  0  0  0  0  0
   -1.2428    1.0689    0.2535 C   0  0  0  0  0  0  0  0  0  0  0  0
   -1.5296   -1.2851   -0.0949 C   0  0  0  0  0  0  0  0  0  0  0  0
    2.0330   -0.5688   -0.2299 C   0  0  0  0  0  0  0  0  0  0  0  0
    0.9931    2.0697    0.2551 C   0  0  0  0  0  0  0  0  0  0  0  0
   -3.4960   -0.2864    0.1980 C   0  0  0  0  0  0  0  0  0  0  0  0
    2.9316    0.6181   -0.1071 C   0  0  0  0  0  0  0  0  0  0  0  0
    2.3186    1.9434    0.1432 C   0  0  0  0  0  0  0  0  0  0  0  0
   -3.6596   -1.6446   -0.0039 C   0  0  0  0  0  0  0  0  0  0  0  0
   -2.2693    2.8744   -0.7342 C   0  0  0  0  0  0  0  0  0  0  0  0
    2.9975   -2.4088    0.7565 C   0  0  0  0  0  0  0  0  0  0  0  0
    0.1805   -2.4306   -0.3954 H   0  0  0  0  0  0  0  0  0  0  0  0
    0.5704    3.0513    0.4441 H   0  0  0  0  0  0  0  0  0  0  0  0
   -4.2868    0.4307    0.3661 H   0  0  0  0  0  0  0  0  0  0  0  0
    2.9768    2.7999    0.2339 H   0  0  0  0  0  0  0  0  0  0  0  0
   -4.5237   -2.2917   -0.0451 H   0  0  0  0  0  0  0  0  0  0  0  0
   -2.7877    3.8081   -0.4954 H   0  0  0  0  0  0  0  0  0  0  0  0
   -2.9490    2.2607   -1.3352 H   0  0  0  0  0  0  0  0  0  0  0  0
   -1.3797    3.1277   -1.3212 H   0  0  0  0  0  0  0  0  0  0  0  0
    3.6742   -1.7977    1.3638 H   0  0  0  0  0  0  0  0  0  0  0  0
    3.5115   -3.3460    0.5222 H   0  0  0  0  0  0  0  0  0  0  0  0
    2.0981   -2.6545    1.3317 H   0  0  0  0  0  0  0  0  0  0  0  0
  1 10  1  0  0  0  0
  1 16  1  0  0  0  0
  2  9  1  0  0  0  0
  2 17  1  0  0  0  0
  3 11  1  0  0  0  0
  3 18  1  0  0  0  0
  4 14  2  0  0  0  0
  5  7  1  0  0  0  0
  5 10  1  0  0  0  0
  5 19  1  0  0  0  0
  6  7  1  0  0  0  0
  6  9  2  0  0  0  0
  6 12  1  0  0  0  0
  7 11  2  0  0  0  0
  8  9  1  0  0  0  0
  8 10  2  0  0  0  0
  8 13  1  0  0  0  0
 11 14  1  0  0  0  0
 12 15  2  0  0  0  0
 12 20  1  0  0  0  0
 13 16  2  0  0  0  0
 13 21  1  0  0  0  0
 14 15  1  0  0  0  0
 15 22  1  0  0  0  0
 16 23  1  0  0  0  0
 17 24  1  0  0  0  0
 17 25  1  0  0  0  0
 17 26  1  0  0  0  0
 18 27  1  0  0  0  0
 18 28  1  0  0  0  0
 18 29  1  0  0  0  0
M  END
> <PUBCHEM_COMPOUND_CID>
165368

> <PUBCHEM_CONFORMER_RMSD>
0.6

> <PUBCHEM_CONFORMER_DIVERSEORDER>
2
1

> <PUBCHEM_MMFF94_PARTIAL_CHARGES>
22
1 -0.28
10 0.22
11 0.09
12 -0.15
13 -0.15
14 0.54
15 -0.14
16 -0.01
17 0.28
18 0.28
19 0.4
2 -0.36
20 0.15
21 0.15
22 0.15
23 0.15
3 -0.36
4 -0.57
5 -0.58
7 0.1
8 -0.05
9 0.12

> <PUBCHEM_EFFECTIVE_ROTOR_COUNT>
2

> <PUBCHEM_PHARMACOPHORE_FEATURES>
9
1 1 acceptor
1 2 acceptor
1 3 acceptor
1 4 acceptor
1 5 cation
1 5 donor
5 1 8 10 13 16 rings
6 5 6 7 8 9 10 rings
6 6 7 11 12 14 15 rings

> <PUBCHEM_HEAVY_ATOM_COUNT>
18

> <PUBCHEM_ATOM_DEF_STEREO_COUNT>
0

> <PUBCHEM_ATOM_UDEF_STEREO_COUNT>
0

> <PUBCHEM_BOND_DEF_STEREO_COUNT>
0

> <PUBCHEM_BOND_UDEF_STEREO_COUNT>
0

> <PUBCHEM_ISOTOPIC_ATOM_COUNT>
0

> <PUBCHEM_COMPONENT_COUNT>
1

> <PUBCHEM_CACTVS_TAUTO_COUNT>
4

> <PUBCHEM_CONFORMER_ID>
000285F800000002

> <PUBCHEM_MMFF94_ENERGY>
58.9604

> <PUBCHEM_FEATURE_SELFOVERLAP>
45.811

> <PUBCHEM_SHAPE_FINGERPRINT>
10608611 8 18409451383859002900
10616163 171 18408880711538448806
10967382 1 18193556657896008299
1100329 8 17978513362007793672
11132069 177 18188493449757568496
11471102 20 18264774250814773093
11578080 2 17488199251773611748
12553582 1 18337676304216775059
13140716 1 17977105652280386640
13221675 6 18335135345835199846
14178342 30 18338811090854143200
14223421 5 18410013225768559320
15196674 1 18264204712339431984
15375462 6 18339079280990240997
15442244 35 18338799043185820026
15536298 74 18043244648266898256
16945 1 18337958887268459928
193761 8 18410012177780831769
19591789 44 16316943652239219870
20510252 161 18261390083047720401
20559304 39 18410576163148386650
20645477 70 18262236608396604471
20905425 154 18407755937113218590
21267235 1 18264758874848145295
21421861 104 18272937136872089306
21501502 16 18410571829172976528
21524375 3 17697031810182638341
23184049 29 18410294739342115762
2334 1 18409448128384244008
23366157 5 18131066057019491694
23402539 116 18261961721762263943
23463225 33 18336825295143716479
23558518 356 18271801371625612825
23559900 14 17973726072113840830
238 59 16763418946307529789
2748010 2 18263924495941132996
2871803 45 18338518538797663934
335352 9 18265331901153091269
34934 24 18263933146100400983
350125 39 18410287034160503641
352729 6 18047751786920972817
5104073 3 18335980861502351066
7364860 26 18334011658137149450
74978 22 18267869569457705716
81228 2 18272367551595388105
8809292 202 18198902509242536610
9709674 26 18410005520602992326

> <PUBCHEM_SHAPE_MULTIPOLES>
341.97
6.13
3.05
0.7
0.88
0.61
0.01
-1.77
-0.04
-0.49
-0.02
0.03
0.03
-0.04

> <PUBCHEM_SHAPE_SELFOVERLAP>
760.472

> <PUBCHEM_SHAPE_VOLUME>
182.4

> <PUBCHEM_COORDINATE_TYPE>
2
5
10

$$$$

