5859
  -OEChem-07051213122D

 35 35  0     0  0  0  0  0  0999 V2000
    3.7320    2.2500    0.0000 S   0  0  0  0  0  0  0  0  0  0  0  0
    2.3660   -1.3840    0.0000 S   0  0  0  0  0  0  0  0  0  0  0  0
    2.8660   -2.2500    0.0000 P   0  0  0  0  0  0  0  0  0  0  0  0
    3.7320   -1.7500    0.0000 O   0  0  0  0  0  0  0  0  0  0  0  0
    4.7320    2.2500    0.0000 O   0  0  0  0  0  0  0  0  0  0  0  0
    2.7320    2.2500    0.0000 O   0  0  0  0  0  0  0  0  0  0  0  0
    2.0000   -2.7500    0.0000 O   0  0  0  0  0  0  0  0  0  0  0  0
    3.3660   -3.1160    0.0000 O   0  0  0  0  0  0  0  0  0  0  0  0
    3.7320    3.2500    0.0000 N   0  0  0  0  0  0  0  0  0  0  0  0
    3.7320    1.2500    0.0000 C   0  0  0  0  0  0  0  0  0  0  0  0
    2.8660    0.7500    0.0000 C   0  0  0  0  0  0  0  0  0  0  0  0
    4.5981    0.7500    0.0000 C   0  0  0  0  0  0  0  0  0  0  0  0
    3.7320   -0.7500    0.0000 C   0  0  0  0  0  0  0  0  0  0  0  0
    2.8660   -0.2500    0.0000 C   0  0  0  0  0  0  0  0  0  0  0  0
    4.5981   -0.2500    0.0000 C   0  0  0  0  0  0  0  0  0  0  0  0
    4.5981    3.7500    0.0000 C   0  0  0  0  0  0  0  0  0  0  0  0
    2.8660    3.7500    0.0000 C   0  0  0  0  0  0  0  0  0  0  0  0
    2.0000   -3.7500    0.0000 C   0  0  0  0  0  0  0  0  0  0  0  0
    4.3660   -3.1160    0.0000 C   0  0  0  0  0  0  0  0  0  0  0  0
    2.3291    1.0600    0.0000 H   0  0  0  0  0  0  0  0  0  0  0  0
    5.1350    1.0600    0.0000 H   0  0  0  0  0  0  0  0  0  0  0  0
    2.3291   -0.5600    0.0000 H   0  0  0  0  0  0  0  0  0  0  0  0
    5.1350   -0.5600    0.0000 H   0  0  0  0  0  0  0  0  0  0  0  0
    3.1760    4.2869    0.0000 H   0  0  0  0  0  0  0  0  0  0  0  0
    2.3291    4.0600    0.0000 H   0  0  0  0  0  0  0  0  0  0  0  0
    2.5560    3.2131    0.0000 H   0  0  0  0  0  0  0  0  0  0  0  0
    4.9081    3.2131    0.0000 H   0  0  0  0  0  0  0  0  0  0  0  0
    5.1350    4.0600    0.0000 H   0  0  0  0  0  0  0  0  0  0  0  0
    4.2881    4.2869    0.0000 H   0  0  0  0  0  0  0  0  0  0  0  0
    1.3800   -3.7500    0.0000 H   0  0  0  0  0  0  0  0  0  0  0  0
    2.0000   -4.3700    0.0000 H   0  0  0  0  0  0  0  0  0  0  0  0
    2.6200   -3.7500    0.0000 H   0  0  0  0  0  0  0  0  0  0  0  0
    4.3660   -3.7360    0.0000 H   0  0  0  0  0  0  0  0  0  0  0  0
    4.9860   -3.1160    0.0000 H   0  0  0  0  0  0  0  0  0  0  0  0
    4.3660   -2.4960    0.0000 H   0  0  0  0  0  0  0  0  0  0  0  0
  1  5  2  0  0  0  0
  1  6  2  0  0  0  0
  1  9  1  0  0  0  0
  1 10  1  0  0  0  0
  2  3  2  0  0  0  0
  3  4  1  0  0  0  0
  3  7  1  0  0  0  0
  3  8  1  0  0  0  0
  4 13  1  0  0  0  0
  7 18  1  0  0  0  0
  8 19  1  0  0  0  0
  9 16  1  0  0  0  0
  9 17  1  0  0  0  0
 10 11  2  0  0  0  0
 10 12  1  0  0  0  0
 11 14  1  0  0  0  0
 11 20  1  0  0  0  0
 12 15  2  0  0  0  0
 12 21  1  0  0  0  0
 13 14  2  0  0  0  0
 13 15  1  0  0  0  0
 14 22  1  0  0  0  0
 15 23  1  0  0  0  0
 16 27  1  0  0  0  0
 16 28  1  0  0  0  0
 16 29  1  0  0  0  0
 17 24  1  0  0  0  0
 17 25  1  0  0  0  0
 17 26  1  0  0  0  0
 18 30  1  0  0  0  0
 18 31  1  0  0  0  0
 18 32  1  0  0  0  0
 19 33  1  0  0  0  0
 19 34  1  0  0  0  0
 19 35  1  0  0  0  0
M  END
> <PUBCHEM_COMPOUND_CID>
5859

> <PUBCHEM_COMPOUND_CANONICALIZED>
1

> <PUBCHEM_CACTVS_COMPLEXITY>
418

> <PUBCHEM_CACTVS_HBOND_ACCEPTOR>
7

> <PUBCHEM_CACTVS_HBOND_DONOR>
0

> <PUBCHEM_CACTVS_ROTATABLE_BOND>
6

> <PUBCHEM_CACTVS_SUBSKEYS>
AAADceByOAJgAAAAAAAAAAAAAAAAAAAAAAAwAAAAAAAAAAABAAAAHgQAQCAACASA0AYyB4IAARKAACBCAHBCABAgIAAIiBgOCIgIJiKAERKAMAAkwBEIiAeAQAAAAIAAAAAAAAABAAAAAAAAAAAAAAAAAA==

> <PUBCHEM_IUPAC_OPENEYE_NAME>
4-dimethoxyphosphinothioyloxy-N,N-dimethyl-benzenesulfonamide

> <PUBCHEM_IUPAC_CAS_NAME>
4-dimethoxyphosphinothioyloxy-N,N-dimethylbenzenesulfonamide

> <PUBCHEM_IUPAC_NAME>
4-dimethoxyphosphinothioyloxy-N,N-dimethylbenzenesulfonamide

> <PUBCHEM_IUPAC_SYSTEMATIC_NAME>
4-dimethoxyphosphinothioyloxy-N,N-dimethyl-benzenesulfonamide

> <PUBCHEM_IUPAC_TRADITIONAL_NAME>
4-dimethoxythiophosphoryloxy-N,N-dimethyl-benzenesulfonamide

> <PUBCHEM_IUPAC_INCHI>
InChI=1S/C10H16NO5PS2/c1-11(2)19(12,13)10-7-5-9(6-8-10)16-17(18,14-3)15-4/h5-8H,1-4H3

> <PUBCHEM_IUPAC_INCHIKEY>
JISACBWYRJHSMG-UHFFFAOYSA-N

> <PUBCHEM_XLOGP3>
2.2

> <PUBCHEM_EXACT_MASS>
325.020751

> <PUBCHEM_MOLECULAR_FORMULA>
C10H16NO5PS2

> <PUBCHEM_MOLECULAR_WEIGHT>
325.341502

> <PUBCHEM_OPENEYE_CAN_SMILES>
CN(C)S(=O)(=O)C1=CC=C(C=C1)OP(=S)(OC)OC

> <PUBCHEM_OPENEYE_ISO_SMILES>
CN(C)S(=O)(=O)C1=CC=C(C=C1)OP(=S)(OC)OC

> <PUBCHEM_CACTVS_TPSA>
106

> <PUBCHEM_MONOISOTOPIC_WEIGHT>
325.020751

> <PUBCHEM_TOTAL_CHARGE>
0

> <PUBCHEM_HEAVY_ATOM_COUNT>
19

> <PUBCHEM_ATOM_DEF_STEREO_COUNT>
0

> <PUBCHEM_ATOM_UDEF_STEREO_COUNT>
0

> <PUBCHEM_BOND_DEF_STEREO_COUNT>
0

> <PUBCHEM_BOND_UDEF_STEREO_COUNT>
0

> <PUBCHEM_ISOTOPIC_ATOM_COUNT>
0

> <PUBCHEM_COMPONENT_COUNT>
1

> <PUBCHEM_CACTVS_TAUTO_COUNT>
1

> <PUBCHEM_COORDINATE_TYPE>
1
5
255

> <PUBCHEM_BONDANNOTATIONS>
10  11  8
10  12  8
11  14  8
12  15  8
13  14  8
13  15  8

$$$$

