101211
  -OEChem-07051212593D

 24 25  0     0  0  0  0  0  0999 V2000
    1.0304    2.4798   -0.0010 O   0  0  0  0  0  0  0  0  0  0  0  0
    1.1154   -2.8642    0.0000 O   0  0  0  0  0  0  0  0  0  0  0  0
   -0.2205    0.4872   -0.0001 C   0  0  0  0  0  0  0  0  0  0  0  0
   -0.2057   -0.9085   -0.0003 C   0  0  0  0  0  0  0  0  0  0  0  0
    1.0418    1.2539   -0.0003 C   0  0  0  0  0  0  0  0  0  0  0  0
    2.3213    0.4933    0.0003 C   0  0  0  0  0  0  0  0  0  0  0  0
   -1.4427    1.1702    0.0005 C   0  0  0  0  0  0  0  0  0  0  0  0
   -2.6413    0.4558    0.0008 C   0  0  0  0  0  0  0  0  0  0  0  0
    1.0731   -1.6400   -0.0007 C   0  0  0  0  0  0  0  0  0  0  0  0
   -1.4094   -1.6227   -0.0001 C   0  0  0  0  0  0  0  0  0  0  0  0
    2.3176   -0.8446    0.0001 C   0  0  0  0  0  0  0  0  0  0  0  0
   -2.6248   -0.9377    0.0003 C   0  0  0  0  0  0  0  0  0  0  0  0
    3.5882    1.2931    0.0008 C   0  0  0  0  0  0  0  0  0  0  0  0
   -3.9433    1.1844   -0.0003 C   0  0  0  0  0  0  0  0  0  0  0  0
   -1.4704    2.2573    0.0024 H   0  0  0  0  0  0  0  0  0  0  0  0
   -1.4212   -2.7092    0.0001 H   0  0  0  0  0  0  0  0  0  0  0  0
    3.2467   -1.4062    0.0004 H   0  0  0  0  0  0  0  0  0  0  0  0
   -3.5527   -1.5036    0.0021 H   0  0  0  0  0  0  0  0  0  0  0  0
    4.4774    0.6537    0.0012 H   0  0  0  0  0  0  0  0  0  0  0  0
    3.6380    1.9303    0.8899 H   0  0  0  0  0  0  0  0  0  0  0  0
    3.6387    1.9303   -0.8883 H   0  0  0  0  0  0  0  0  0  0  0  0
   -4.2391    1.4260    1.0253 H   0  0  0  0  0  0  0  0  0  0  0  0
   -3.8727    2.1141   -0.5753 H   0  0  0  0  0  0  0  0  0  0  0  0
   -4.7352    0.5834   -0.4600 H   0  0  0  0  0  0  0  0  0  0  0  0
  1  5  2  0  0  0  0
  2  9  2  0  0  0  0
  3  4  2  0  0  0  0
  3  5  1  0  0  0  0
  3  7  1  0  0  0  0
  4  9  1  0  0  0  0
  4 10  1  0  0  0  0
  5  6  1  0  0  0  0
  6 11  2  0  0  0  0
  6 13  1  0  0  0  0
  7  8  2  0  0  0  0
  7 15  1  0  0  0  0
  8 12  1  0  0  0  0
  8 14  1  0  0  0  0
  9 11  1  0  0  0  0
 10 12  2  0  0  0  0
 10 16  1  0  0  0  0
 11 17  1  0  0  0  0
 12 18  1  0  0  0  0
 13 19  1  0  0  0  0
 13 20  1  0  0  0  0
 13 21  1  0  0  0  0
 14 22  1  0  0  0  0
 14 23  1  0  0  0  0
 14 24  1  0  0  0  0
M  END
> <PUBCHEM_COMPOUND_CID>
101211

> <PUBCHEM_CONFORMER_RMSD>
0.4

> <PUBCHEM_CONFORMER_DIVERSEORDER>
1

> <PUBCHEM_MMFF94_PARTIAL_CHARGES>
18
1 -0.57
10 -0.15
11 -0.14
12 -0.15
13 0.14
14 0.14
15 0.15
16 0.15
17 0.15
18 0.15
2 -0.57
3 0.09
4 0.09
5 0.47
6 -0.12
7 -0.15
8 -0.14
9 0.47

> <PUBCHEM_EFFECTIVE_ROTOR_COUNT>
0

> <PUBCHEM_PHARMACOPHORE_FEATURES>
4
1 1 acceptor
1 2 acceptor
6 3 4 5 6 9 11 rings
6 3 4 7 8 10 12 rings

> <PUBCHEM_HEAVY_ATOM_COUNT>
14

> <PUBCHEM_ATOM_DEF_STEREO_COUNT>
0

> <PUBCHEM_ATOM_UDEF_STEREO_COUNT>
0

> <PUBCHEM_BOND_DEF_STEREO_COUNT>
0

> <PUBCHEM_BOND_UDEF_STEREO_COUNT>
0

> <PUBCHEM_ISOTOPIC_ATOM_COUNT>
0

> <PUBCHEM_COMPONENT_COUNT>
1

> <PUBCHEM_CACTVS_TAUTO_COUNT>
3

> <PUBCHEM_CONFORMER_ID>
00018B5B00000001

> <PUBCHEM_MMFF94_ENERGY>
34.8584

> <PUBCHEM_FEATURE_SELFOVERLAP>
20.319

> <PUBCHEM_SHAPE_FINGERPRINT>
10608611 8 18413110588932177461
10967382 1 18338799017162587685
10980938 120 18411699928192654569
11132069 177 18411424998878095328
11471102 20 18410860992436552749
12382932 28 18410013251417018097
12423570 1 11207861826448724206
12524768 44 18265611168279552927
13140716 1 18338517413495516897
13380535 21 18411971477668853115
13380535 76 18412830170338002115
13897977 150 18411422808486907349
14325111 11 18410856533886037409
14897335 6 18409453591746103429
15196674 1 18410573976593217030
15219456 202 18341607131627293211
15442244 35 17976257160148171865
15536298 74 18261111910990524318
15775835 57 18411978048652337429
16945 1 18410573998242081349
193761 8 16681192050596096291
20201158 50 18411983602176880947
20510252 161 17973157340221446041
20588541 1 18341891917665151301
20645476 183 17844230840674543774
20645477 70 18262804098283029263
21501502 16 18411143536781135087
2334 1 18050567339789045381
23402539 116 18261118435483710076
23402655 69 18335150825541043157
23463225 33 18342463659827973842
23552423 10 18411700963390653143
23559900 14 18261385608652238004
25 1 18413390951163913045
2748010 2 18195526982817437461
528886 8 18410016515623824448
53812653 166 18335704927112722192
54173680 148 17764025766606586690
7364860 26 18263082278809106230
7832392 63 18335703888015245629

> <PUBCHEM_SHAPE_MULTIPOLES>
276.37
5.15
2.44
0.6
1.5
0.72
0
-2.06
0
-0.75
0
0.01
0
0

> <PUBCHEM_SHAPE_SELFOVERLAP>
603.436

> <PUBCHEM_SHAPE_VOLUME>
150.6

> <PUBCHEM_COORDINATE_TYPE>
2
5
10

$$$$

