47205243
  -OEChem-06241222582D

 35 37  0     0  0  0  0  0  0999 V2000
    8.2619    1.3934    0.0000 O   0  0  0  0  0  0  0  0  0  0  0  0
    4.6783    2.1981    0.0000 N   0  0  0  0  0  0  0  0  0  0  0  0
    4.6783    0.5886    0.0000 N   0  0  0  0  0  0  0  0  0  0  0  0
    8.2619   -0.3387    0.0000 N   0  0  0  0  0  0  0  0  0  0  0  0
   10.7564   -1.3093    0.0000 N   0  0  0  0  0  0  0  0  0  0  0  0
   10.9643   -2.2874    0.0000 N   0  0  0  0  0  0  0  0  0  0  0  0
    6.2619    1.3934    0.0000 C   0  0  0  0  0  0  0  0  0  0  0  0
    5.2619    1.3934    0.0000 C   0  0  0  0  0  0  0  0  0  0  0  0
    6.7619    0.5273    0.0000 C   0  0  0  0  0  0  0  0  0  0  0  0
    3.7320    1.8934    0.0000 C   0  0  0  0  0  0  0  0  0  0  0  0
    3.7320    0.8933    0.0000 C   0  0  0  0  0  0  0  0  0  0  0  0
    7.7619    0.5273    0.0000 C   0  0  0  0  0  0  0  0  0  0  0  0
    9.2619   -0.3387    0.0000 C   0  0  0  0  0  0  0  0  0  0  0  0
    2.8660    2.3934    0.0000 C   0  0  0  0  0  0  0  0  0  0  0  0
    2.8660    0.3933    0.0000 C   0  0  0  0  0  0  0  0  0  0  0  0
    9.7619   -1.2047    0.0000 C   0  0  0  0  0  0  0  0  0  0  0  0
    2.0000    1.8934    0.0000 C   0  0  0  0  0  0  0  0  0  0  0  0
    2.0000    0.8933    0.0000 C   0  0  0  0  0  0  0  0  0  0  0  0
    9.3551   -2.1183    0.0000 C   0  0  0  0  0  0  0  0  0  0  0  0
   10.0983   -2.7874    0.0000 C   0  0  0  0  0  0  0  0  0  0  0  0
    6.8445    1.6054    0.0000 H   0  0  0  0  0  0  0  0  0  0  0  0
    6.1542    2.0039    0.0000 H   0  0  0  0  0  0  0  0  0  0  0  0
    6.1793    0.3153    0.0000 H   0  0  0  0  0  0  0  0  0  0  0  0
    6.8695   -0.0833    0.0000 H   0  0  0  0  0  0  0  0  0  0  0  0
    4.8709    2.7874    0.0000 H   0  0  0  0  0  0  0  0  0  0  0  0
    9.8445   -0.1267    0.0000 H   0  0  0  0  0  0  0  0  0  0  0  0
    9.1542    0.2719    0.0000 H   0  0  0  0  0  0  0  0  0  0  0  0
    7.9519   -0.8756    0.0000 H   0  0  0  0  0  0  0  0  0  0  0  0
    2.8660    3.0134    0.0000 H   0  0  0  0  0  0  0  0  0  0  0  0
    2.8660   -0.2267    0.0000 H   0  0  0  0  0  0  0  0  0  0  0  0
    1.4631    2.2034    0.0000 H   0  0  0  0  0  0  0  0  0  0  0  0
    1.4631    0.5833    0.0000 H   0  0  0  0  0  0  0  0  0  0  0  0
    8.7487   -2.2472    0.0000 H   0  0  0  0  0  0  0  0  0  0  0  0
   11.1713   -0.8485    0.0000 H   0  0  0  0  0  0  0  0  0  0  0  0
   10.0335   -3.4040    0.0000 H   0  0  0  0  0  0  0  0  0  0  0  0
  1 12  2  0  0  0  0
  2  8  1  0  0  0  0
  2 10  1  0  0  0  0
  2 25  1  0  0  0  0
  3  8  2  0  0  0  0
  3 11  1  0  0  0  0
  4 12  1  0  0  0  0
  4 13  1  0  0  0  0
  4 28  1  0  0  0  0
  5  6  1  0  0  0  0
  5 16  1  0  0  0  0
  5 34  1  0  0  0  0
  6 20  2  0  0  0  0
  7  8  1  0  0  0  0
  7  9  1  0  0  0  0
  7 21  1  0  0  0  0
  7 22  1  0  0  0  0
  9 12  1  0  0  0  0
  9 23  1  0  0  0  0
  9 24  1  0  0  0  0
 10 11  1  0  0  0  0
 10 14  2  0  0  0  0
 11 15  2  0  0  0  0
 13 16  1  0  0  0  0
 13 26  1  0  0  0  0
 13 27  1  0  0  0  0
 14 17  1  0  0  0  0
 14 29  1  0  0  0  0
 15 18  1  0  0  0  0
 15 30  1  0  0  0  0
 16 19  2  0  0  0  0
 17 18  2  0  0  0  0
 17 31  1  0  0  0  0
 18 32  1  0  0  0  0
 19 20  1  0  0  0  0
 19 33  1  0  0  0  0
 20 35  1  0  0  0  0
M  END
> <PUBCHEM_COMPOUND_CID>
47205243

> <PUBCHEM_COMPOUND_CANONICALIZED>
1

> <PUBCHEM_CACTVS_COMPLEXITY>
338

> <PUBCHEM_CACTVS_HBOND_ACCEPTOR>
3

> <PUBCHEM_CACTVS_HBOND_DONOR>
3

> <PUBCHEM_CACTVS_ROTATABLE_BOND>
5

> <PUBCHEM_CACTVS_SUBSKEYS>
AAADccBzoAAAAAAAAAAAAAAAAAAAAWLAAAAwAAAAAAAAAFgB/AAAHgAYAAAACAjBlwQ90LbrkACqATd3dACShC2hkqAZuaE4dJiIaLLA2dGUpAhongLIyCcUAAAAAAAAAAAAACAAAAAAAAAAQAAAAAAAAA==

> <PUBCHEM_IUPAC_OPENEYE_NAME>
3-(1H-benzimidazol-2-yl)-N-(1H-pyrazol-5-ylmethyl)propanamide

> <PUBCHEM_IUPAC_CAS_NAME>
3-(1H-benzimidazol-2-yl)-N-(1H-pyrazol-5-ylmethyl)propanamide

> <PUBCHEM_IUPAC_NAME>
3-(1H-benzimidazol-2-yl)-N-(1H-pyrazol-5-ylmethyl)propanamide

> <PUBCHEM_IUPAC_SYSTEMATIC_NAME>
3-(1H-benzimidazol-2-yl)-N-(1H-pyrazol-5-ylmethyl)propanamide

> <PUBCHEM_IUPAC_TRADITIONAL_NAME>
3-(1H-benzimidazol-2-yl)-N-(1H-pyrazol-5-ylmethyl)propionamide

> <PUBCHEM_IUPAC_INCHI>
InChI=1S/C14H15N5O/c20-14(15-9-10-7-8-16-19-10)6-5-13-17-11-3-1-2-4-12(11)18-13/h1-4,7-8H,5-6,9H2,(H,15,20)(H,16,19)(H,17,18)

> <PUBCHEM_IUPAC_INCHIKEY>
LIZDJHLQCDRZLA-UHFFFAOYSA-N

> <PUBCHEM_XLOGP3_AA>
0.9

> <PUBCHEM_EXACT_MASS>
269.12766

> <PUBCHEM_MOLECULAR_FORMULA>
C14H15N5O

> <PUBCHEM_MOLECULAR_WEIGHT>
269.3018

> <PUBCHEM_OPENEYE_CAN_SMILES>
C1=CC=C2C(=C1)NC(=N2)CCC(=O)NCC3=CC=NN3

> <PUBCHEM_OPENEYE_ISO_SMILES>
C1=CC=C2C(=C1)NC(=N2)CCC(=O)NCC3=CC=NN3

> <PUBCHEM_CACTVS_TPSA>
86.5

> <PUBCHEM_MONOISOTOPIC_WEIGHT>
269.12766

> <PUBCHEM_TOTAL_CHARGE>
0

> <PUBCHEM_HEAVY_ATOM_COUNT>
20

> <PUBCHEM_ATOM_DEF_STEREO_COUNT>
0

> <PUBCHEM_ATOM_UDEF_STEREO_COUNT>
0

> <PUBCHEM_BOND_DEF_STEREO_COUNT>
0

> <PUBCHEM_BOND_UDEF_STEREO_COUNT>
0

> <PUBCHEM_ISOTOPIC_ATOM_COUNT>
0

> <PUBCHEM_COMPONENT_COUNT>
1

> <PUBCHEM_CACTVS_TAUTO_COUNT>
8

> <PUBCHEM_COORDINATE_TYPE>
1
5
255

> <PUBCHEM_BONDANNOTATIONS>
10  11  8
10  14  8
11  15  8
14  17  8
15  18  8
16  19  8
17  18  8
19  20  8
2  10  8
2  8  8
3  11  8
3  8  8
5  16  8
5  6  8
6  20  8

$$$$

