12803
  -OEChem-06261207233D

 28 28  0     0  0  0  0  0  0999 V2000
    1.0014    1.4145    0.1642 N   0  0  0  0  0  0  0  0  0  0  0  0
    1.0023   -1.4139   -0.1644 N   0  0  0  0  0  0  0  0  0  0  0  0
   -0.2102    0.6926    0.0796 C   0  0  0  0  0  0  0  0  0  0  0  0
   -0.2099   -0.6927   -0.0824 C   0  0  0  0  0  0  0  0  0  0  0  0
   -1.4184    1.3850    0.1617 C   0  0  0  0  0  0  0  0  0  0  0  0
   -1.4177   -1.3858   -0.1623 C   0  0  0  0  0  0  0  0  0  0  0  0
   -2.6262    0.6918    0.0817 C   0  0  0  0  0  0  0  0  0  0  0  0
   -2.6259   -0.6936   -0.0804 C   0  0  0  0  0  0  0  0  0  0  0  0
    1.3068    2.4472   -0.8040 C   0  0  0  0  0  0  0  0  0  0  0  0
    1.9442    1.1388    1.2284 C   0  0  0  0  0  0  0  0  0  0  0  0
    1.3084   -2.4431    0.8072 C   0  0  0  0  0  0  0  0  0  0  0  0
    1.9451   -1.1409   -1.2293 C   0  0  0  0  0  0  0  0  0  0  0  0
   -1.4376    2.4636    0.2944 H   0  0  0  0  0  0  0  0  0  0  0  0
   -1.4362   -2.4645   -0.2941 H   0  0  0  0  0  0  0  0  0  0  0  0
    2.3753    2.6890   -0.7981 H   0  0  0  0  0  0  0  0  0  0  0  0
    0.7550    3.3651   -0.5767 H   0  0  0  0  0  0  0  0  0  0  0  0
    1.0490    2.1259   -1.8190 H   0  0  0  0  0  0  0  0  0  0  0  0
    1.5473    0.4426    1.9752 H   0  0  0  0  0  0  0  0  0  0  0  0
    2.1831    2.0680    1.7580 H   0  0  0  0  0  0  0  0  0  0  0  0
    2.8814    0.7359    0.8351 H   0  0  0  0  0  0  0  0  0  0  0  0
    1.0507   -2.1186    1.8212 H   0  0  0  0  0  0  0  0  0  0  0  0
    2.3770   -2.6846    0.8018 H   0  0  0  0  0  0  0  0  0  0  0  0
    0.7569   -3.3620    0.5831 H   0  0  0  0  0  0  0  0  0  0  0  0
    2.8857   -0.7456   -0.8361 H   0  0  0  0  0  0  0  0  0  0  0  0
    1.5520   -0.4393   -1.9729 H   0  0  0  0  0  0  0  0  0  0  0  0
    2.1767   -2.0700   -1.7624 H   0  0  0  0  0  0  0  0  0  0  0  0
   -3.5670    1.2306    0.1468 H   0  0  0  0  0  0  0  0  0  0  0  0
   -3.5665   -1.2330   -0.1437 H   0  0  0  0  0  0  0  0  0  0  0  0
  1  3  1  0  0  0  0
  1  9  1  0  0  0  0
  1 10  1  0  0  0  0
  2  4  1  0  0  0  0
  2 11  1  0  0  0  0
  2 12  1  0  0  0  0
  3  4  1  0  0  0  0
  3  5  2  0  0  0  0
  4  6  2  0  0  0  0
  5  7  1  0  0  0  0
  5 13  1  0  0  0  0
  6  8  1  0  0  0  0
  6 14  1  0  0  0  0
  7  8  2  0  0  0  0
  7 27  1  0  0  0  0
  8 28  1  0  0  0  0
  9 15  1  0  0  0  0
  9 16  1  0  0  0  0
  9 17  1  0  0  0  0
 10 18  1  0  0  0  0
 10 19  1  0  0  0  0
 10 20  1  0  0  0  0
 11 21  1  0  0  0  0
 11 22  1  0  0  0  0
 11 23  1  0  0  0  0
 12 24  1  0  0  0  0
 12 25  1  0  0  0  0
 12 26  1  0  0  0  0
M  END
> <PUBCHEM_COMPOUND_CID>
12803

> <PUBCHEM_CONFORMER_RMSD>
0.6

> <PUBCHEM_CONFORMER_DIVERSEORDER>
2
1

> <PUBCHEM_MMFF94_PARTIAL_CHARGES>
16
1 -0.84
10 0.37
11 0.37
12 0.37
13 0.15
14 0.15
2 -0.84
27 0.15
28 0.15
3 0.1
4 0.1
5 -0.15
6 -0.15
7 -0.15
8 -0.15
9 0.37

> <PUBCHEM_EFFECTIVE_ROTOR_COUNT>
2

> <PUBCHEM_PHARMACOPHORE_FEATURES>
3
1 1 cation
1 2 cation
6 3 4 5 6 7 8 rings

> <PUBCHEM_HEAVY_ATOM_COUNT>
12

> <PUBCHEM_ATOM_DEF_STEREO_COUNT>
0

> <PUBCHEM_ATOM_UDEF_STEREO_COUNT>
0

> <PUBCHEM_BOND_DEF_STEREO_COUNT>
0

> <PUBCHEM_BOND_UDEF_STEREO_COUNT>
0

> <PUBCHEM_ISOTOPIC_ATOM_COUNT>
0

> <PUBCHEM_COMPONENT_COUNT>
1

> <PUBCHEM_CACTVS_TAUTO_COUNT>
1

> <PUBCHEM_CONFORMER_ID>
0000320300000002

> <PUBCHEM_MMFF94_ENERGY>
72.6285

> <PUBCHEM_FEATURE_SELFOVERLAP>
15.226

> <PUBCHEM_SHAPE_FINGERPRINT>
12423570 1 7342631722255968550
12524768 44 18189056571668112527
12696612 119 18411706482143891360
14128692 85 18187635955336835383
14817 1 14784311201643471938
15076042 46 17764318240730389248
15490181 8 18122903127300710453
161256 15 18408036316878536829
16945 1 18341895190656889221
20511035 2 18261677068678416141
20645476 183 17339849569077260708
20871998 184 17037532172756946948
21040471 1 17976541602593927504
22344851 341 18408319964855719338
23419403 2 16673380913876208905
23552423 10 18412260614867070519
241688 4 18124316270372951753
2748010 2 18266466592715726109
5084963 1 18116705223199471848
66348 1 18265333004685353355
7364860 26 18113617889021951107

> <PUBCHEM_SHAPE_MULTIPOLES>
236.99
3.24
2.63
0.99
1.55
0.01
0
0
0
-1.42
0
-0.65
0
-0.02

> <PUBCHEM_SHAPE_SELFOVERLAP>
478.233

> <PUBCHEM_SHAPE_VOLUME>
141.4

> <PUBCHEM_COORDINATE_TYPE>
2
5
10

$$$$

