5281862
  -OEChem-07051213003D

 55 55  0     0  0  0  0  0  0999 V2000
   -4.5975    0.5830    1.9035 O   0  0  0  0  0  0  0  0  0  0  0  0
   -7.2349    0.4703    1.0762 O   0  0  0  0  0  0  0  0  0  0  0  0
    0.3682    2.1715   -0.2344 C   0  0  0  0  0  0  0  0  0  0  0  0
   -0.3204    0.8939    0.2489 C   0  0  0  0  0  0  0  0  0  0  0  0
    1.8507    2.1811    0.1442 C   0  0  0  0  0  0  0  0  0  0  0  0
   -1.7946    0.8685   -0.1586 C   0  0  0  0  0  0  0  0  0  0  0  0
    2.5463    3.4457   -0.3696 C   0  0  0  0  0  0  0  0  0  0  0  0
   -2.4736   -0.4250    0.2970 C   0  0  0  0  0  0  0  0  0  0  0  0
    4.0292    3.5114    0.0099 C   0  0  0  0  0  0  0  0  0  0  0  0
   -3.9182   -0.4759   -0.1303 C   0  0  0  0  0  0  0  0  0  0  0  0
    4.8149    2.3455   -0.5155 C   0  0  0  0  0  0  0  0  0  0  0  0
   -4.9109    0.0318    0.6960 C   0  0  0  0  0  0  0  0  0  0  0  0
   -4.2302   -1.0370   -1.3609 C   0  0  0  0  0  0  0  0  0  0  0  0
    5.5351    1.5207    0.2594 C   0  0  0  0  0  0  0  0  0  0  0  0
   -6.2423   -0.0226    0.2836 C   0  0  0  0  0  0  0  0  0  0  0  0
   -5.5616   -1.0917   -1.7733 C   0  0  0  0  0  0  0  0  0  0  0  0
    6.3050    0.3477   -0.2703 C   0  0  0  0  0  0  0  0  0  0  0  0
   -6.5677   -0.5845   -0.9510 C   0  0  0  0  0  0  0  0  0  0  0  0
    5.8387   -0.9397    0.3441 C   0  0  0  0  0  0  0  0  0  0  0  0
    4.8680   -3.2941    0.3141 C   0  0  0  0  0  0  0  0  0  0  0  0
    5.3351   -2.0054   -0.2978 C   0  0  0  0  0  0  0  0  0  0  0  0
    3.4148   -3.5887   -0.0561 C   0  0  0  0  0  0  0  0  0  0  0  0
    2.9458   -4.9065    0.5409 C   0  0  0  0  0  0  0  0  0  0  0  0
   -0.1296    3.0460    0.2018 H   0  0  0  0  0  0  0  0  0  0  0  0
    0.2682    2.2519   -1.3238 H   0  0  0  0  0  0  0  0  0  0  0  0
   -0.2386    0.8217    1.3402 H   0  0  0  0  0  0  0  0  0  0  0  0
    0.1912    0.0200   -0.1727 H   0  0  0  0  0  0  0  0  0  0  0  0
    2.3281    1.2879   -0.2751 H   0  0  0  0  0  0  0  0  0  0  0  0
    1.9529    2.1229    1.2346 H   0  0  0  0  0  0  0  0  0  0  0  0
   -2.3082    1.7374    0.2711 H   0  0  0  0  0  0  0  0  0  0  0  0
   -1.8733    0.9651   -1.2490 H   0  0  0  0  0  0  0  0  0  0  0  0
    2.0419    4.3315    0.0357 H   0  0  0  0  0  0  0  0  0  0  0  0
    2.4470    3.4979   -1.4614 H   0  0  0  0  0  0  0  0  0  0  0  0
   -2.3695   -0.5719    1.3786 H   0  0  0  0  0  0  0  0  0  0  0  0
   -1.9457   -1.2819   -0.1441 H   0  0  0  0  0  0  0  0  0  0  0  0
    4.1193    3.5827    1.1008 H   0  0  0  0  0  0  0  0  0  0  0  0
    4.4590    4.4321   -0.4020 H   0  0  0  0  0  0  0  0  0  0  0  0
    4.7836    2.1785   -1.5895 H   0  0  0  0  0  0  0  0  0  0  0  0
   -3.4552   -1.4329   -2.0113 H   0  0  0  0  0  0  0  0  0  0  0  0
    5.5761    1.6978    1.3318 H   0  0  0  0  0  0  0  0  0  0  0  0
   -5.8149   -1.5283   -2.7349 H   0  0  0  0  0  0  0  0  0  0  0  0
    7.3650    0.4868   -0.0272 H   0  0  0  0  0  0  0  0  0  0  0  0
    6.2387    0.2953   -1.3638 H   0  0  0  0  0  0  0  0  0  0  0  0
   -7.6028   -0.6296   -1.2783 H   0  0  0  0  0  0  0  0  0  0  0  0
    5.9333   -1.0040    1.4274 H   0  0  0  0  0  0  0  0  0  0  0  0
    5.5138   -4.1033   -0.0470 H   0  0  0  0  0  0  0  0  0  0  0  0
    4.9740   -3.2605    1.4051 H   0  0  0  0  0  0  0  0  0  0  0  0
   -3.6636    0.8412    1.9352 H   0  0  0  0  0  0  0  0  0  0  0  0
    5.2564   -1.9497   -1.3825 H   0  0  0  0  0  0  0  0  0  0  0  0
    3.3036   -3.6315   -1.1465 H   0  0  0  0  0  0  0  0  0  0  0  0
    2.7650   -2.7807    0.3017 H   0  0  0  0  0  0  0  0  0  0  0  0
   -6.8311    0.8203    1.8895 H   0  0  0  0  0  0  0  0  0  0  0  0
    1.9042   -5.0982    0.2647 H   0  0  0  0  0  0  0  0  0  0  0  0
    3.0094   -4.8868    1.6335 H   0  0  0  0  0  0  0  0  0  0  0  0
    3.5533   -5.7408    0.1758 H   0  0  0  0  0  0  0  0  0  0  0  0
  1 12  1  0  0  0  0
  1 48  1  0  0  0  0
  2 15  1  0  0  0  0
  2 52  1  0  0  0  0
  3  4  1  0  0  0  0
  3  5  1  0  0  0  0
  3 24  1  0  0  0  0
  3 25  1  0  0  0  0
  4  6  1  0  0  0  0
  4 26  1  0  0  0  0
  4 27  1  0  0  0  0
  5  7  1  0  0  0  0
  5 28  1  0  0  0  0
  5 29  1  0  0  0  0
  6  8  1  0  0  0  0
  6 30  1  0  0  0  0
  6 31  1  0  0  0  0
  7  9  1  0  0  0  0
  7 32  1  0  0  0  0
  7 33  1  0  0  0  0
  8 10  1  0  0  0  0
  8 34  1  0  0  0  0
  8 35  1  0  0  0  0
  9 11  1  0  0  0  0
  9 36  1  0  0  0  0
  9 37  1  0  0  0  0
 10 12  2  0  0  0  0
 10 13  1  0  0  0  0
 11 14  2  0  0  0  0
 11 38  1  0  0  0  0
 12 15  1  0  0  0  0
 13 16  2  0  0  0  0
 13 39  1  0  0  0  0
 14 17  1  0  0  0  0
 14 40  1  0  0  0  0
 15 18  2  0  0  0  0
 16 18  1  0  0  0  0
 16 41  1  0  0  0  0
 17 19  1  0  0  0  0
 17 42  1  0  0  0  0
 17 43  1  0  0  0  0
 18 44  1  0  0  0  0
 19 21  2  0  0  0  0
 19 45  1  0  0  0  0
 20 21  1  0  0  0  0
 20 22  1  0  0  0  0
 20 46  1  0  0  0  0
 20 47  1  0  0  0  0
 21 49  1  0  0  0  0
 22 23  1  0  0  0  0
 22 50  1  0  0  0  0
 22 51  1  0  0  0  0
 23 53  1  0  0  0  0
 23 54  1  0  0  0  0
 23 55  1  0  0  0  0
M  END
> <PUBCHEM_COMPOUND_CID>
5281862

> <PUBCHEM_CONFORMER_RMSD>
1.2

> <PUBCHEM_CONFORMER_DIVERSEORDER>
1
104
2
26
150
10
8
94
56
80
86
61
122
25
207
127
167
75
12
66
105
63
74
31
36
121
97
18
113
192
182
33
146
37
129
125
51
159
42
64
118
95
98
106
30
168
195
199
201
174
46
23
20
48
141
211
27
28
147
210
50
131
55
153
19
83
155
69
54
184
90
21
206
47
4
70
212
58
15
68
9
107
71
11
78
196
99
81
13
126
137
200
178
32
193
161
154
38
91
59
151
181
149
133
49
185
24
158
179
44
111
176
134
157
142
109
40
120
45
102
67
22
163
62
189
169
76
116
188
100
35
187
6
117
173
60
213
34
190
183
112
7
108
191
115
93
29
17
43
180
143
135
164
14
87
152
96
110
88
170
160
172
123
144
52
114
5
72
16
57
145
89
138
202
84
203
65
166
132
156
162
130
119
165
171
103
3
85
209
186
41
198
194
124
140
77
197
39
139
82
148
177
92
205
53
73
175
79
101
136
204
128
208

> <PUBCHEM_MMFF94_PARTIAL_CHARGES>
25
1 -0.53
10 -0.14
11 -0.29
12 0.08
13 -0.15
14 -0.29
15 0.08
16 -0.15
17 0.28
18 -0.15
19 -0.29
2 -0.53
20 0.14
21 -0.29
38 0.15
39 0.15
40 0.15
41 0.15
44 0.15
45 0.15
48 0.45
49 0.15
52 0.45
8 0.14
9 0.14

> <PUBCHEM_EFFECTIVE_ROTOR_COUNT>
12

> <PUBCHEM_PHARMACOPHORE_FEATURES>
4
1 1 donor
1 2 donor
1 23 hydrophobe
6 10 12 13 15 16 18 rings

> <PUBCHEM_HEAVY_ATOM_COUNT>
23

> <PUBCHEM_ATOM_DEF_STEREO_COUNT>
0

> <PUBCHEM_ATOM_UDEF_STEREO_COUNT>
0

> <PUBCHEM_BOND_DEF_STEREO_COUNT>
2

> <PUBCHEM_BOND_UDEF_STEREO_COUNT>
0

> <PUBCHEM_ISOTOPIC_ATOM_COUNT>
0

> <PUBCHEM_COMPONENT_COUNT>
1

> <PUBCHEM_CACTVS_TAUTO_COUNT>
36

> <PUBCHEM_CONFORMER_ID>
0050984600000001

> <PUBCHEM_MMFF94_ENERGY>
23.5534

> <PUBCHEM_FEATURE_SELFOVERLAP>
20.302

> <PUBCHEM_SHAPE_FINGERPRINT>
11374522 175 18341619264899958923
12107183 9 18046055223685029017
13533116 47 18334857186979943392
1361 2 18410857655642784706
14347332 77 18409169930294286549
14784336 7 17968946262369083385
15110567 62 18411698782174832274
15119646 104 18334857216484973580
15183329 4 18411137991762357580
17852330 134 18195550262532050829
17857418 61 18114178601303251261
21781055 127 16733252539946763355
23569914 152 17549300306829779949
3014965 18 18412547591428440236
34797466 226 16415194521112904828
394071 54 18335411392137161994
4073 2 18122060901647450992
5283384 97 18409736153618617534
5309563 4 18266178508548991142
531348 171 18335707126943287901
6299153 45 18335129947436459817

> <PUBCHEM_SHAPE_MULTIPOLES>
461.59
21.04
5.03
1.11
16.39
4
-0.03
4.4
-0.37
-13.08
0.22
2.14
0.15
-1.83

> <PUBCHEM_SHAPE_SELFOVERLAP>
905.665

> <PUBCHEM_SHAPE_VOLUME>
276.1

> <PUBCHEM_COORDINATE_TYPE>
2
5
10

$$$$

