146460
  -OEChem-07051213053D

 38 40  0     1  0  0  0  0  0999 V2000
    5.5457   -1.1843    0.0792 O   0  0  0  0  0  0  0  0  0  0  0  0
   -5.9042   -0.4173    0.1334 O   0  0  0  0  0  0  0  0  0  0  0  0
    0.5605   -1.3520    0.0072 C   0  0  2  0  0  0  0  0  0  0  0  0
   -0.3084   -0.0989    0.0880 C   0  0  0  0  0  0  0  0  0  0  0  0
    1.9360   -0.7443    0.0636 C   0  0  0  0  0  0  0  0  0  0  0  0
    0.4223    1.0326    0.1937 C   0  0  0  0  0  0  0  0  0  0  0  0
    1.8363    0.6493    0.1708 C   0  0  0  0  0  0  0  0  0  0  0  0
   -0.0205    2.4459    0.3166 C   0  0  0  0  0  0  0  0  0  0  0  0
    0.3359   -2.1552   -1.2707 C   0  0  0  0  0  0  0  0  0  0  0  0
   -1.7539   -0.1803    0.0999 C   0  0  0  0  0  0  0  0  0  0  0  0
    3.1683   -1.3788    0.0357 C   0  0  0  0  0  0  0  0  0  0  0  0
    2.9777    1.4346    0.2415 C   0  0  0  0  0  0  0  0  0  0  0  0
    4.3190   -0.5921    0.1062 C   0  0  0  0  0  0  0  0  0  0  0  0
    4.2245    0.8041    0.2071 C   0  0  0  0  0  0  0  0  0  0  0  0
   -0.1819    3.1165   -1.0392 C   0  0  0  0  0  0  0  0  0  0  0  0
   -2.4735   -0.0967   -1.0960 C   0  0  0  0  0  0  0  0  0  0  0  0
   -2.4399   -0.3441    1.3071 C   0  0  0  0  0  0  0  0  0  0  0  0
   -3.8660   -0.1760   -1.0848 C   0  0  0  0  0  0  0  0  0  0  0  0
   -3.8324   -0.4237    1.3183 C   0  0  0  0  0  0  0  0  0  0  0  0
   -4.5455   -0.3393    0.1224 C   0  0  0  0  0  0  0  0  0  0  0  0
    0.3992   -1.9782    0.8930 H   0  0  0  0  0  0  0  0  0  0  0  0
   -0.9825    2.4906    0.8418 H   0  0  0  0  0  0  0  0  0  0  0  0
    0.6738    3.0225    0.9382 H   0  0  0  0  0  0  0  0  0  0  0  0
    0.4696   -1.5396   -2.1682 H   0  0  0  0  0  0  0  0  0  0  0  0
    1.0416   -2.9906   -1.3380 H   0  0  0  0  0  0  0  0  0  0  0  0
   -0.6737   -2.5784   -1.2981 H   0  0  0  0  0  0  0  0  0  0  0  0
    3.2306   -2.4597   -0.0383 H   0  0  0  0  0  0  0  0  0  0  0  0
    2.9231    2.5152    0.3206 H   0  0  0  0  0  0  0  0  0  0  0  0
    5.1281    1.4063    0.2613 H   0  0  0  0  0  0  0  0  0  0  0  0
   -0.5191    4.1501   -0.9096 H   0  0  0  0  0  0  0  0  0  0  0  0
   -0.9210    2.5984   -1.6587 H   0  0  0  0  0  0  0  0  0  0  0  0
    0.7660    3.1390   -1.5874 H   0  0  0  0  0  0  0  0  0  0  0  0
   -1.9599    0.0313   -2.0460 H   0  0  0  0  0  0  0  0  0  0  0  0
   -1.8992   -0.4119    2.2483 H   0  0  0  0  0  0  0  0  0  0  0  0
   -4.4098   -0.1090   -2.0232 H   0  0  0  0  0  0  0  0  0  0  0  0
   -4.3561   -0.5513    2.2617 H   0  0  0  0  0  0  0  0  0  0  0  0
    5.4289   -2.1472    0.0074 H   0  0  0  0  0  0  0  0  0  0  0  0
   -6.2316   -0.3410   -0.7793 H   0  0  0  0  0  0  0  0  0  0  0  0
  1 13  1  0  0  0  0
  1 37  1  0  0  0  0
  2 20  1  0  0  0  0
  2 38  1  0  0  0  0
  3  4  1  0  0  0  0
  3  5  1  0  0  0  0
  3  9  1  0  0  0  0
  3 21  1  0  0  0  0
  4  6  2  0  0  0  0
  4 10  1  0  0  0  0
  5  7  2  0  0  0  0
  5 11  1  0  0  0  0
  6  7  1  0  0  0  0
  6  8  1  0  0  0  0
  7 12  1  0  0  0  0
  8 15  1  0  0  0  0
  8 22  1  0  0  0  0
  8 23  1  0  0  0  0
  9 24  1  0  0  0  0
  9 25  1  0  0  0  0
  9 26  1  0  0  0  0
 10 16  2  0  0  0  0
 10 17  1  0  0  0  0
 11 13  2  0  0  0  0
 11 27  1  0  0  0  0
 12 14  2  0  0  0  0
 12 28  1  0  0  0  0
 13 14  1  0  0  0  0
 14 29  1  0  0  0  0
 15 30  1  0  0  0  0
 15 31  1  0  0  0  0
 15 32  1  0  0  0  0
 16 18  1  0  0  0  0
 16 33  1  0  0  0  0
 17 19  2  0  0  0  0
 17 34  1  0  0  0  0
 18 20  2  0  0  0  0
 18 35  1  0  0  0  0
 19 20  1  0  0  0  0
 19 36  1  0  0  0  0
M  END
> <PUBCHEM_COMPOUND_CID>
146460

> <PUBCHEM_CONFORMER_RMSD>
0.6

> <PUBCHEM_CONFORMER_DIVERSEORDER>
1
2

> <PUBCHEM_MMFF94_PARTIAL_CHARGES>
27
1 -0.53
10 0.03
11 -0.15
12 -0.15
13 0.08
14 -0.15
16 -0.15
17 -0.15
18 -0.15
19 -0.15
2 -0.53
20 0.08
27 0.15
28 0.15
29 0.15
3 0.28
33 0.15
34 0.15
35 0.15
36 0.15
37 0.45
38 0.45
4 -0.17
5 -0.14
6 -0.17
7 0.03
8 0.14

> <PUBCHEM_EFFECTIVE_ROTOR_COUNT>
2.2

> <PUBCHEM_PHARMACOPHORE_FEATURES>
6
1 1 donor
1 15 hydrophobe
1 2 donor
5 3 4 5 6 7 rings
6 10 16 17 18 19 20 rings
6 5 7 11 12 13 14 rings

> <PUBCHEM_HEAVY_ATOM_COUNT>
20

> <PUBCHEM_ATOM_DEF_STEREO_COUNT>
1

> <PUBCHEM_ATOM_UDEF_STEREO_COUNT>
0

> <PUBCHEM_BOND_DEF_STEREO_COUNT>
0

> <PUBCHEM_BOND_UDEF_STEREO_COUNT>
0

> <PUBCHEM_ISOTOPIC_ATOM_COUNT>
0

> <PUBCHEM_COMPONENT_COUNT>
1

> <PUBCHEM_CACTVS_TAUTO_COUNT>
18

> <PUBCHEM_CONFORMER_ID>
00023C1C00000001

> <PUBCHEM_MMFF94_ENERGY>
57.6313

> <PUBCHEM_FEATURE_SELFOVERLAP>
30.529

> <PUBCHEM_SHAPE_FINGERPRINT>
104564 63 18338237188254211573
10688039 33 18131070458665333333
10906281 52 18268407157850972257
11471102 20 18410575063594437424
11578080 2 12965465720998487831
11796584 16 16845292756423991610
12236239 1 17603586314065775459
13134695 92 18411702041380419989
13140716 1 18263932038484174538
13760787 5 18408042892468237820
13862211 1 18408608080321646998
14170010 4 18411139091959449793
14386348 63 18060136535714798371
15196674 1 18410293639867658136
15848702 151 17458616873958499390
16945 1 18411419531695918338
17357779 13 18341625827382997877
1813 80 18262502775824795348
18785283 64 17771617949999093245
200 152 18260833717089136161
20600515 1 17631714054871351703
20645477 70 18410294735115993150
20739085 24 18338217328262105552
21033648 29 18129961017067666677
21267235 1 18408315605595860294
21421861 104 17769936002098039851
21641784 216 18059276760703985332
22182313 1 17971474259198547446
23175994 123 18201998820175810925
23184049 59 18334854987475996584
23402539 116 18409171034295345775
23493267 7 17774731959948859824
23557571 272 17417812889376381151
23559900 14 17418375813781778314
26918003 58 18131913762750964650
2748010 2 17973727179982755454
2871803 45 18272089431019257946
3286 77 17095253501126453864
34797466 226 16630233758341167662
34934 24 18266465313242668400
350125 39 18336264626467263192
4340502 62 14201396084209426044
465052 167 18411132537407060250
5104073 3 18265341775652378320
7495541 125 17917139490993000091
77492 1 17530682087426399179
81228 2 18054773251012236809

> <PUBCHEM_SHAPE_MULTIPOLES>
399.85
9.65
2.19
1.06
2.29
1.56
0.06
-2.96
-1.12
-1.21
0.65
0.91
-0.06
0.26

> <PUBCHEM_SHAPE_SELFOVERLAP>
879.223

> <PUBCHEM_SHAPE_VOLUME>
219.8

> <PUBCHEM_COORDINATE_TYPE>
2
5
10

$$$$

