17396549
  -OEChem-06241222572D

 49 51  0     1  0  0  0  0  0999 V2000
    7.0255   -0.0580    0.0000 O   0  0  0  0  0  0  0  0  0  0  0  0
    8.7576    0.9420    0.0000 O   0  0  0  0  0  0  0  0  0  0  0  0
    7.8916    1.4420    0.0000 O   0  0  0  0  0  0  0  0  0  0  0  0
    2.9945    2.4829    0.0000 O   0  0  0  0  0  0  0  0  0  0  0  0
    3.1756    0.7603    0.0000 O   0  0  0  0  0  0  0  0  0  0  0  0
    9.6236   -0.5580    0.0000 N   0  0  0  0  0  0  0  0  0  0  0  0
    6.0550    2.4365    0.0000 N   0  0  0  0  0  0  0  0  0  0  0  0
   10.4896   -0.0580    0.0000 C   0  0  0  0  0  0  0  0  0  0  0  0
   10.9896    0.8080    0.0000 C   0  0  0  0  0  0  0  0  0  0  0  0
   11.4896   -0.0580    0.0000 C   0  0  0  0  0  0  0  0  0  0  0  0
    8.7576   -0.0580    0.0000 C   0  0  0  0  0  0  0  0  0  0  0  0
    7.8916   -0.5580    0.0000 C   0  0  3  0  0  0  0  0  0  0  0  0
    7.8916   -1.5580    0.0000 C   0  0  0  0  0  0  0  0  0  0  0  0
    6.1595    1.4420    0.0000 C   0  0  0  0  0  0  0  0  0  0  0  0
    7.0255    0.9420    0.0000 C   0  0  0  0  0  0  0  0  0  0  0  0
    5.2460    1.0353    0.0000 C   0  0  0  0  0  0  0  0  0  0  0  0
    7.0255   -2.0580    0.0000 C   0  0  0  0  0  0  0  0  0  0  0  0
    8.7576   -2.0580    0.0000 C   0  0  0  0  0  0  0  0  0  0  0  0
    4.5768    1.7784    0.0000 C   0  0  0  0  0  0  0  0  0  0  0  0
    5.0768    2.6444    0.0000 C   0  0  0  0  0  0  0  0  0  0  0  0
    5.0380    0.0571    0.0000 C   0  0  0  0  0  0  0  0  0  0  0  0
    7.0255   -3.0580    0.0000 C   0  0  0  0  0  0  0  0  0  0  0  0
    8.7576   -3.0580    0.0000 C   0  0  0  0  0  0  0  0  0  0  0  0
    4.6701    3.5580    0.0000 C   0  0  0  0  0  0  0  0  0  0  0  0
    3.5823    1.6739    0.0000 C   0  0  0  0  0  0  0  0  0  0  0  0
    7.8916   -3.5580    0.0000 C   0  0  0  0  0  0  0  0  0  0  0  0
    2.0000    2.3784    0.0000 C   0  0  0  0  0  0  0  0  0  0  0  0
   10.0512    0.3804    0.0000 H   0  0  0  0  0  0  0  0  0  0  0  0
   11.4646    1.2066    0.0000 H   0  0  0  0  0  0  0  0  0  0  0  0
   10.5147    1.2066    0.0000 H   0  0  0  0  0  0  0  0  0  0  0  0
   11.5973   -0.6686    0.0000 H   0  0  0  0  0  0  0  0  0  0  0  0
   12.0722    0.1541    0.0000 H   0  0  0  0  0  0  0  0  0  0  0  0
    9.6236   -1.1780    0.0000 H   0  0  0  0  0  0  0  0  0  0  0  0
    7.8916    0.0620    0.0000 H   0  0  0  0  0  0  0  0  0  0  0  0
    6.4886   -1.7480    0.0000 H   0  0  0  0  0  0  0  0  0  0  0  0
    9.2945   -1.7480    0.0000 H   0  0  0  0  0  0  0  0  0  0  0  0
    6.5157    2.8514    0.0000 H   0  0  0  0  0  0  0  0  0  0  0  0
    4.4316    0.1860    0.0000 H   0  0  0  0  0  0  0  0  0  0  0  0
    4.9091   -0.5493    0.0000 H   0  0  0  0  0  0  0  0  0  0  0  0
    5.6445   -0.0718    0.0000 H   0  0  0  0  0  0  0  0  0  0  0  0
    5.2365    3.8102    0.0000 H   0  0  0  0  0  0  0  0  0  0  0  0
    4.4179    4.1244    0.0000 H   0  0  0  0  0  0  0  0  0  0  0  0
    4.1037    3.3058    0.0000 H   0  0  0  0  0  0  0  0  0  0  0  0
    6.4886   -3.3680    0.0000 H   0  0  0  0  0  0  0  0  0  0  0  0
    9.2945   -3.3680    0.0000 H   0  0  0  0  0  0  0  0  0  0  0  0
    7.8916   -4.1780    0.0000 H   0  0  0  0  0  0  0  0  0  0  0  0
    1.9352    2.9950    0.0000 H   0  0  0  0  0  0  0  0  0  0  0  0
    1.3834    2.3136    0.0000 H   0  0  0  0  0  0  0  0  0  0  0  0
    2.0648    1.7618    0.0000 H   0  0  0  0  0  0  0  0  0  0  0  0
  1 12  1  0  0  0  0
  1 15  1  0  0  0  0
  2 11  2  0  0  0  0
  3 15  2  0  0  0  0
  4 25  1  0  0  0  0
  4 27  1  0  0  0  0
  5 25  2  0  0  0  0
  6  8  1  0  0  0  0
  6 11  1  0  0  0  0
  6 33  1  0  0  0  0
  7 14  1  0  0  0  0
  7 20  1  0  0  0  0
  7 37  1  0  0  0  0
  8  9  1  0  0  0  0
  8 10  1  0  0  0  0
  8 28  1  0  0  0  0
  9 10  1  0  0  0  0
  9 29  1  0  0  0  0
  9 30  1  0  0  0  0
 10 31  1  0  0  0  0
 10 32  1  0  0  0  0
 11 12  1  0  0  0  0
 12 13  1  0  0  0  0
 12 34  1  0  0  0  0
 13 17  2  0  0  0  0
 13 18  1  0  0  0  0
 14 15  1  0  0  0  0
 14 16  2  0  0  0  0
 16 19  1  0  0  0  0
 16 21  1  0  0  0  0
 17 22  1  0  0  0  0
 17 35  1  0  0  0  0
 18 23  2  0  0  0  0
 18 36  1  0  0  0  0
 19 20  2  0  0  0  0
 19 25  1  0  0  0  0
 20 24  1  0  0  0  0
 21 38  1  0  0  0  0
 21 39  1  0  0  0  0
 21 40  1  0  0  0  0
 22 26  2  0  0  0  0
 22 44  1  0  0  0  0
 23 26  1  0  0  0  0
 23 45  1  0  0  0  0
 24 41  1  0  0  0  0
 24 42  1  0  0  0  0
 24 43  1  0  0  0  0
 26 46  1  0  0  0  0
 27 47  1  0  0  0  0
 27 48  1  0  0  0  0
 27 49  1  0  0  0  0
M  END
> <PUBCHEM_COMPOUND_CID>
17396549

> <PUBCHEM_COMPOUND_CANONICALIZED>
1

> <PUBCHEM_CACTVS_COMPLEXITY>
571

> <PUBCHEM_CACTVS_HBOND_ACCEPTOR>
5

> <PUBCHEM_CACTVS_HBOND_DONOR>
2

> <PUBCHEM_CACTVS_ROTATABLE_BOND>
8

> <PUBCHEM_CACTVS_SUBSKEYS>
AAADceB7OAAAAAAAAAAAAAAAGAAAAWAAAAAwAAAAAAAAAAABwAAAHgAQAAAADDzhngYyiJLJlACoAyXyXAaCgCAnACAImaH4TNgKJnrAtb2HMYhm1gHY6Ue8/6megAAAAAAAAAAAAAAAAAAAAAAAAAAAAA==

> <PUBCHEM_IUPAC_OPENEYE_NAME>
O2-[2-(cyclopropylamino)-2-oxo-1-phenyl-ethyl] O4-methyl 3,5-dimethyl-1H-pyrrole-2,4-dicarboxylate

> <PUBCHEM_IUPAC_CAS_NAME>
3,5-dimethyl-1H-pyrrole-2,4-dicarboxylic acid O2-[2-(cyclopropylamino)-2-oxo-1-phenylethyl] ester O4-methyl ester

> <PUBCHEM_IUPAC_NAME>
2-O-[2-(cyclopropylamino)-2-oxo-1-phenylethyl] 4-O-methyl 3,5-dimethyl-1H-pyrrole-2,4-dicarboxylate

> <PUBCHEM_IUPAC_SYSTEMATIC_NAME>
O2-[2-(cyclopropylamino)-2-oxidanylidene-1-phenyl-ethyl] O4-methyl 3,5-dimethyl-1H-pyrrole-2,4-dicarboxylate

> <PUBCHEM_IUPAC_TRADITIONAL_NAME>
3,5-dimethyl-1H-pyrrole-2,4-dicarboxylic acid O2-[2-(cyclopropylamino)-2-keto-1-phenyl-ethyl] ester O4-methyl ester

> <PUBCHEM_IUPAC_INCHI>
InChI=1S/C20H22N2O5/c1-11-15(19(24)26-3)12(2)21-16(11)20(25)27-17(13-7-5-4-6-8-13)18(23)22-14-9-10-14/h4-8,14,17,21H,9-10H2,1-3H3,(H,22,23)

> <PUBCHEM_IUPAC_INCHIKEY>
SRICSLZKLATBTG-UHFFFAOYSA-N

> <PUBCHEM_XLOGP3_AA>
3.1

> <PUBCHEM_EXACT_MASS>
370.152872

> <PUBCHEM_MOLECULAR_FORMULA>
C20H22N2O5

> <PUBCHEM_MOLECULAR_WEIGHT>
370.39908

> <PUBCHEM_OPENEYE_CAN_SMILES>
CC1=C(NC(=C1C(=O)OC)C)C(=O)OC(C2=CC=CC=C2)C(=O)NC3CC3

> <PUBCHEM_OPENEYE_ISO_SMILES>
CC1=C(NC(=C1C(=O)OC)C)C(=O)OC(C2=CC=CC=C2)C(=O)NC3CC3

> <PUBCHEM_CACTVS_TPSA>
97.5

> <PUBCHEM_MONOISOTOPIC_WEIGHT>
370.152872

> <PUBCHEM_TOTAL_CHARGE>
0

> <PUBCHEM_HEAVY_ATOM_COUNT>
27

> <PUBCHEM_ATOM_DEF_STEREO_COUNT>
0

> <PUBCHEM_ATOM_UDEF_STEREO_COUNT>
1

> <PUBCHEM_BOND_DEF_STEREO_COUNT>
0

> <PUBCHEM_BOND_UDEF_STEREO_COUNT>
0

> <PUBCHEM_ISOTOPIC_ATOM_COUNT>
0

> <PUBCHEM_COMPONENT_COUNT>
1

> <PUBCHEM_CACTVS_TAUTO_COUNT>
20

> <PUBCHEM_COORDINATE_TYPE>
1
5
255

> <PUBCHEM_BONDANNOTATIONS>
12  11  3
13  17  8
13  18  8
14  16  8
16  19  8
17  22  8
18  23  8
19  20  8
22  26  8
23  26  8
7  14  8
7  20  8

$$$$

