98511
  -OEChem-07051213082D

 27 29  0     1  0  0  0  0  0999 V2000
    2.3660    0.9330    0.0000 O   0  0  0  0  0  0  0  0  0  0  0  0
    2.8660    0.0670    0.0000 C   0  0  2  0  0  0  0  0  0  0  0  0
    3.3660    0.9330    0.0000 C   0  0  1  0  0  0  0  0  0  0  0  0
    2.8660   -0.9330    0.0000 C   0  0  0  0  0  0  0  0  0  0  0  0
    4.2320    1.4330    0.0000 C   0  0  0  0  0  0  0  0  0  0  0  0
    2.0000   -1.4330    0.0000 C   0  0  0  0  0  0  0  0  0  0  0  0
    3.7320   -1.4330    0.0000 C   0  0  0  0  0  0  0  0  0  0  0  0
    5.0981    0.9330    0.0000 C   0  0  0  0  0  0  0  0  0  0  0  0
    4.2320    2.4330    0.0000 C   0  0  0  0  0  0  0  0  0  0  0  0
    2.0000   -2.4330    0.0000 C   0  0  0  0  0  0  0  0  0  0  0  0
    3.7320   -2.4330    0.0000 C   0  0  0  0  0  0  0  0  0  0  0  0
    5.9641    1.4330    0.0000 C   0  0  0  0  0  0  0  0  0  0  0  0
    5.0981    2.9330    0.0000 C   0  0  0  0  0  0  0  0  0  0  0  0
    2.8660   -2.9330    0.0000 C   0  0  0  0  0  0  0  0  0  0  0  0
    5.9641    2.4330    0.0000 C   0  0  0  0  0  0  0  0  0  0  0  0
    3.4649   -0.0935    0.0000 H   0  0  0  0  0  0  0  0  0  0  0  0
    3.2056    1.5319    0.0000 H   0  0  0  0  0  0  0  0  0  0  0  0
    1.4631   -1.1230    0.0000 H   0  0  0  0  0  0  0  0  0  0  0  0
    4.2690   -1.1230    0.0000 H   0  0  0  0  0  0  0  0  0  0  0  0
    5.0981    0.3130    0.0000 H   0  0  0  0  0  0  0  0  0  0  0  0
    3.6951    2.7430    0.0000 H   0  0  0  0  0  0  0  0  0  0  0  0
    1.4631   -2.7430    0.0000 H   0  0  0  0  0  0  0  0  0  0  0  0
    4.2690   -2.7430    0.0000 H   0  0  0  0  0  0  0  0  0  0  0  0
    6.5010    1.1230    0.0000 H   0  0  0  0  0  0  0  0  0  0  0  0
    5.0981    3.5530    0.0000 H   0  0  0  0  0  0  0  0  0  0  0  0
    2.8660   -3.5530    0.0000 H   0  0  0  0  0  0  0  0  0  0  0  0
    6.5010    2.7430    0.0000 H   0  0  0  0  0  0  0  0  0  0  0  0
  2  1  1  1  0  0  0
  3  1  1  6  0  0  0
  2  3  1  0  0  0  0
  2  4  1  0  0  0  0
  2 16  1  0  0  0  0
  3  5  1  0  0  0  0
  3 17  1  0  0  0  0
  4  6  2  0  0  0  0
  4  7  1  0  0  0  0
  5  8  2  0  0  0  0
  5  9  1  0  0  0  0
  6 10  1  0  0  0  0
  6 18  1  0  0  0  0
  7 11  2  0  0  0  0
  7 19  1  0  0  0  0
  8 12  1  0  0  0  0
  8 20  1  0  0  0  0
  9 13  2  0  0  0  0
  9 21  1  0  0  0  0
 10 14  2  0  0  0  0
 10 22  1  0  0  0  0
 11 14  1  0  0  0  0
 11 23  1  0  0  0  0
 12 15  2  0  0  0  0
 12 24  1  0  0  0  0
 13 15  1  0  0  0  0
 13 25  1  0  0  0  0
 14 26  1  0  0  0  0
 15 27  1  0  0  0  0
M  END
> <PUBCHEM_COMPOUND_CID>
98511

> <PUBCHEM_COMPOUND_CANONICALIZED>
1

> <PUBCHEM_CACTVS_COMPLEXITY>
179

> <PUBCHEM_CACTVS_HBOND_ACCEPTOR>
1

> <PUBCHEM_CACTVS_HBOND_DONOR>
0

> <PUBCHEM_CACTVS_ROTATABLE_BOND>
2

> <PUBCHEM_CACTVS_SUBSKEYS>
AAADccBwIAAAAAAAAAAAAAAAEgAAAAAAAAAwYAAAAAAAAAABQAAAGgAAAAAADBSgmAIwAIAABACAAiBCAAACAAAgAAAIiAAACIgIJiKAMRiCMAAkwAEIqAeAwOAOAAAAAAAAAAAAAAAAAAAAAAAAAAAAAA==

> <PUBCHEM_IUPAC_OPENEYE_NAME>
(2R,3S)-2,3-diphenyloxirane

> <PUBCHEM_IUPAC_CAS_NAME>
(2R,3S)-2,3-diphenyloxirane

> <PUBCHEM_IUPAC_NAME>
(2R,3S)-2,3-diphenyloxirane

> <PUBCHEM_IUPAC_SYSTEMATIC_NAME>
(2R,3S)-2,3-diphenyloxirane

> <PUBCHEM_IUPAC_TRADITIONAL_NAME>
(2R,3S)-2,3-diphenyloxirane

> <PUBCHEM_IUPAC_INCHI>
InChI=1S/C14H12O/c1-3-7-11(8-4-1)13-14(15-13)12-9-5-2-6-10-12/h1-10,13-14H/t13-,14+

> <PUBCHEM_IUPAC_INCHIKEY>
ARCJQKUWGAZPFX-OKILXGFUSA-N

> <PUBCHEM_XLOGP3_AA>
2.9

> <PUBCHEM_EXACT_MASS>
196.088815

> <PUBCHEM_MOLECULAR_FORMULA>
C14H12O

> <PUBCHEM_MOLECULAR_WEIGHT>
196.24448

> <PUBCHEM_OPENEYE_CAN_SMILES>
C1=CC=C(C=C1)C2C(O2)C3=CC=CC=C3

> <PUBCHEM_OPENEYE_ISO_SMILES>
C1=CC=C(C=C1)[C@H]2[C@H](O2)C3=CC=CC=C3

> <PUBCHEM_CACTVS_TPSA>
12.5

> <PUBCHEM_MONOISOTOPIC_WEIGHT>
196.088815

> <PUBCHEM_TOTAL_CHARGE>
0

> <PUBCHEM_HEAVY_ATOM_COUNT>
15

> <PUBCHEM_ATOM_DEF_STEREO_COUNT>
2

> <PUBCHEM_ATOM_UDEF_STEREO_COUNT>
0

> <PUBCHEM_BOND_DEF_STEREO_COUNT>
0

> <PUBCHEM_BOND_UDEF_STEREO_COUNT>
0

> <PUBCHEM_ISOTOPIC_ATOM_COUNT>
0

> <PUBCHEM_COMPONENT_COUNT>
1

> <PUBCHEM_CACTVS_TAUTO_COUNT>
1

> <PUBCHEM_COORDINATE_TYPE>
1
5
255

> <PUBCHEM_BONDANNOTATIONS>
2  1  5
3  1  6
10  14  8
11  14  8
12  15  8
13  15  8
4  6  8
4  7  8
5  8  8
5  9  8
6  10  8
7  11  8
8  12  8
9  13  8

$$$$

