442078
  -OEChem-07051212562D

 50 55  0     1  0  0  0  0  0999 V2000
    2.6177   -0.8576    0.0000 O   0  0  0  0  0  0  0  0  0  0  0  0
    6.1666    2.1635    0.0000 O   0  0  0  0  0  0  0  0  0  0  0  0
    2.0000    1.9212    0.0000 O   0  0  0  0  0  0  0  0  0  0  0  0
    4.3659   -1.9264    0.0000 O   0  0  0  0  0  0  0  0  0  0  0  0
    4.3621    4.2121    0.0000 O   0  0  0  0  0  0  0  0  0  0  0  0
    2.0186    3.6787    0.0000 O   0  0  0  0  0  0  0  0  0  0  0  0
    3.8182   -2.7688    0.0000 O   0  0  0  0  0  0  0  0  0  0  0  0
    6.1360   -1.9023    0.0000 O   0  0  0  0  0  0  0  0  0  0  0  0
    2.9379   -3.9908    0.0000 O   0  0  0  0  0  0  0  0  0  0  0  0
    4.3500    1.1428    0.0000 C   0  0  2  0  0  0  0  0  0  0  0  0
    3.4840    1.6428    0.0000 C   0  0  1  0  0  0  0  0  0  0  0  0
    3.4840   -0.3572    0.0000 C   0  0  2  0  0  0  0  0  0  0  0  0
    2.6179    0.1428    0.0000 C   0  0  1  0  0  0  0  0  0  0  0  0
    5.2600    1.6497    0.0000 C   0  0  2  0  0  0  0  0  0  0  0  0
    2.6179    1.1428    0.0000 C   0  0  1  0  0  0  0  0  0  0  0  0
    3.4679    2.6843    0.0000 C   0  0  2  0  0  0  0  0  0  0  0  0
    5.2680    2.6913    0.0000 C   0  0  2  0  0  0  0  0  0  0  0  0
    4.3500    0.1428    0.0000 C   0  0  0  0  0  0  0  0  0  0  0  0
    4.3659    3.2121    0.0000 C   0  0  2  0  0  0  0  0  0  0  0  0
    3.4679   -1.3987    0.0000 C   0  0  1  0  0  0  0  0  0  0  0  0
    5.2160    0.6428    0.0000 C   0  0  0  0  0  0  0  0  0  0  0  0
    2.4799    2.7915    0.0000 C   0  0  0  0  0  0  0  0  0  0  0  0
    2.9579    3.5445    0.0000 C   0  0  0  0  0  0  0  0  0  0  0  0
    5.2600   -0.3640    0.0000 C   0  0  0  0  0  0  0  0  0  0  0  0
    2.9579   -2.2589    0.0000 C   0  0  1  0  0  0  0  0  0  0  0  0
    5.2680   -1.4056    0.0000 C   0  0  0  0  0  0  0  0  0  0  0  0
    2.4479   -3.1190    0.0000 C   0  0  0  0  0  0  0  0  0  0  0  0
    2.0977   -1.7489    0.0000 C   0  0  0  0  0  0  0  0  0  0  0  0
    4.2201    2.0678    0.0000 H   0  0  0  0  0  0  0  0  0  0  0  0
    1.7679    0.1429    0.0000 H   0  0  0  0  0  0  0  0  0  0  0  0
    5.5637    1.1091    0.0000 H   0  0  0  0  0  0  0  0  0  0  0  0
    1.8153    0.8630    0.0000 H   0  0  0  0  0  0  0  0  0  0  0  0
    5.5800    3.2270    0.0000 H   0  0  0  0  0  0  0  0  0  0  0  0
    4.9023    3.5231    0.0000 H   0  0  0  0  0  0  0  0  0  0  0  0
    3.6800   -2.2218    0.0000 H   0  0  0  0  0  0  0  0  0  0  0  0
    4.9060    0.1059    0.0000 H   0  0  0  0  0  0  0  0  0  0  0  0
    5.7529    0.3328    0.0000 H   0  0  0  0  0  0  0  0  0  0  0  0
    5.5260    1.1798    0.0000 H   0  0  0  0  0  0  0  0  0  0  0  0
    3.4912    3.8607    0.0000 H   0  0  0  0  0  0  0  0  0  0  0  0
    2.6417    4.0778    0.0000 H   0  0  0  0  0  0  0  0  0  0  0  0
    2.4246    3.2283    0.0000 H   0  0  0  0  0  0  0  0  0  0  0  0
    5.7933   -0.0478    0.0000 H   0  0  0  0  0  0  0  0  0  0  0  0
    4.8978    4.5241    0.0000 H   0  0  0  0  0  0  0  0  0  0  0  0
    1.9776   -2.7151    0.0000 H   0  0  0  0  0  0  0  0  0  0  0  0
    1.9684   -3.5121    0.0000 H   0  0  0  0  0  0  0  0  0  0  0  0
    2.4139   -1.2156    0.0000 H   0  0  0  0  0  0  0  0  0  0  0  0
    1.5644   -1.4327    0.0000 H   0  0  0  0  0  0  0  0  0  0  0  0
    1.7815   -2.2822    0.0000 H   0  0  0  0  0  0  0  0  0  0  0  0
    3.8110   -3.3888    0.0000 H   0  0  0  0  0  0  0  0  0  0  0  0
    2.6217   -4.5241    0.0000 H   0  0  0  0  0  0  0  0  0  0  0  0
 12  1  1  6  0  0  0
  1 13  1  0  0  0  0
 14  2  1  6  0  0  0
 17  2  1  6  0  0  0
  3 15  1  0  0  0  0
  3 22  1  0  0  0  0
  4 20  1  0  0  0  0
  4 26  1  0  0  0  0
 19  5  1  1  0  0  0
  5 43  1  0  0  0  0
  6 22  2  0  0  0  0
 25  7  1  1  0  0  0
  7 49  1  0  0  0  0
  8 26  2  0  0  0  0
  9 27  1  0  0  0  0
  9 50  1  0  0  0  0
 10 11  1  0  0  0  0
 10 14  1  0  0  0  0
 10 18  1  0  0  0  0
 10 21  1  1  0  0  0
 11 15  1  0  0  0  0
 11 16  1  0  0  0  0
 11 29  1  6  0  0  0
 12 13  1  0  0  0  0
 12 18  1  0  0  0  0
 12 20  1  0  0  0  0
 13 15  1  0  0  0  0
 13 30  1  1  0  0  0
 14 17  1  0  0  0  0
 14 31  1  0  0  0  0
 15 32  1  6  0  0  0
 16 19  1  0  0  0  0
 16 22  1  0  0  0  0
 16 23  1  6  0  0  0
 17 19  1  0  0  0  0
 17 33  1  0  0  0  0
 18 24  2  0  0  0  0
 19 34  1  0  0  0  0
 20 25  1  0  0  0  0
 20 35  1  1  0  0  0
 21 36  1  0  0  0  0
 21 37  1  0  0  0  0
 21 38  1  0  0  0  0
 23 39  1  0  0  0  0
 23 40  1  0  0  0  0
 23 41  1  0  0  0  0
 24 26  1  0  0  0  0
 24 42  1  0  0  0  0
 25 27  1  0  0  0  0
 25 28  1  0  0  0  0
 27 44  1  0  0  0  0
 27 45  1  0  0  0  0
 28 46  1  0  0  0  0
 28 47  1  0  0  0  0
 28 48  1  0  0  0  0
M  END
> <PUBCHEM_COMPOUND_CID>
442078

> <PUBCHEM_COMPOUND_CANONICALIZED>
1

> <PUBCHEM_CACTVS_COMPLEXITY>
870

> <PUBCHEM_CACTVS_HBOND_ACCEPTOR>
9

> <PUBCHEM_CACTVS_HBOND_DONOR>
3

> <PUBCHEM_CACTVS_ROTATABLE_BOND>
2

> <PUBCHEM_CACTVS_SUBSKEYS>
AAADceB4PAAAAAAAAAAAAAAAEiQAASAAAAAwYIAABIkAAEjAAAAAGgAACAAAD1SggAICCAAABgCIAiDSCAAAAAAgAAAACAEAAEgBFBYAIAACUAAF4AALIQPK7PzPgAAAAAAAAADAAAYQADCAAAAAAAAAAA==

> <PUBCHEM_IUPAC_INCHI>
InChI=1S/C19H22O9/c1-16(24,5-20)14-19-6(4-7(21)25-14)17(2)10-8(13(19)28-19)27-15(23)18(10,3)11(22)9-12(17)26-9/h4,8-14,20,22,24H,5H2,1-3H3/t8-,9-,10+,11-,12-,13+,14+,16+,17+,18+,19-/m0/s1

> <PUBCHEM_IUPAC_INCHIKEY>
LCHSSOYHOCFOEO-AXEBLSJMSA-N

> <PUBCHEM_XLOGP3_AA>
-2.1

> <PUBCHEM_EXACT_MASS>
394.126382

> <PUBCHEM_MOLECULAR_FORMULA>
C19H22O9

> <PUBCHEM_MOLECULAR_WEIGHT>
394.37258

> <PUBCHEM_OPENEYE_CAN_SMILES>
CC12C3C(C4C5(O4)C(OC(=O)C=C5C3(C6C(C1O)O6)C)C(C)(CO)O)OC2=O

> <PUBCHEM_OPENEYE_ISO_SMILES>
C[C@@]12[C@@H]3[C@@H]([C@@H]4[C@]5(O4)[C@H](OC(=O)C=C5[C@]3([C@@H]6[C@H]([C@@H]1O)O6)C)[C@@](C)(CO)O)OC2=O

> <PUBCHEM_CACTVS_TPSA>
138

> <PUBCHEM_MONOISOTOPIC_WEIGHT>
394.126382

> <PUBCHEM_TOTAL_CHARGE>
0

> <PUBCHEM_HEAVY_ATOM_COUNT>
28

> <PUBCHEM_ATOM_DEF_STEREO_COUNT>
11

> <PUBCHEM_ATOM_UDEF_STEREO_COUNT>
0

> <PUBCHEM_BOND_DEF_STEREO_COUNT>
0

> <PUBCHEM_BOND_UDEF_STEREO_COUNT>
0

> <PUBCHEM_ISOTOPIC_ATOM_COUNT>
0

> <PUBCHEM_COMPONENT_COUNT>
1

> <PUBCHEM_CACTVS_TAUTO_COUNT>
1

> <PUBCHEM_COORDINATE_TYPE>
1
5
255

> <PUBCHEM_BONDANNOTATIONS>
12  1  6
10  21  5
11  29  6
13  30  5
15  32  6
16  23  6
14  2  6
17  2  6
20  35  5
19  5  5
25  7  5

$$$$

