442957
  -OEChem-07051213002D

 40 43  0     1  0  0  0  0  0999 V2000
    9.2150   -2.6967    0.0000 O   0  0  0  0  0  0  0  0  0  0  0  0
    3.7923   -0.0882    0.0000 N   0  0  3  0  0  0  0  0  0  0  0  0
    8.7229    0.3329    0.0000 N   0  0  3  0  0  0  0  0  0  0  0  0
    6.4998    1.7141    0.0000 C   0  0  1  0  0  0  0  0  0  0  0  0
    6.2410    0.7482    0.0000 C   0  0  1  0  0  0  0  0  0  0  0  0
    3.8968    0.9063    0.0000 C   0  0  2  0  0  0  0  0  0  0  0  0
    5.7632    2.6967    0.0000 C   0  0  0  0  0  0  0  0  0  0  0  0
    7.9457   -0.2965    0.0000 C   0  0  1  0  0  0  0  0  0  0  0  0
    4.7059   -0.4950    0.0000 C   0  0  0  0  0  0  0  0  0  0  0  0
    8.3645    1.2664    0.0000 C   0  0  0  0  0  0  0  0  0  0  0  0
    3.0637    1.5315    0.0000 C   0  0  0  0  0  0  0  0  0  0  0  0
    2.8474   -0.5265    0.0000 C   0  0  0  0  0  0  0  0  0  0  0  0
    2.1089    1.1151    0.0000 C   0  0  0  0  0  0  0  0  0  0  0  0
    8.0928   -1.3277    0.0000 C   0  0  0  0  0  0  0  0  0  0  0  0
    2.0000    0.0792    0.0000 C   0  0  0  0  0  0  0  0  0  0  0  0
    9.7010   -0.0254    0.0000 C   0  0  0  0  0  0  0  0  0  0  0  0
    9.0623   -1.7084    0.0000 C   0  0  0  0  0  0  0  0  0  0  0  0
    9.8718   -1.0529    0.0000 C   0  0  0  0  0  0  0  0  0  0  0  0
    6.7198    2.5351    0.0000 H   0  0  0  0  0  0  0  0  0  0  0  0
    6.0210   -0.0729    0.0000 H   0  0  0  0  0  0  0  0  0  0  0  0
    3.9857    1.7516    0.0000 H   0  0  0  0  0  0  0  0  0  0  0  0
    6.0810    3.2291    0.0000 H   0  0  0  0  0  0  0  0  0  0  0  0
    5.1501    2.7887    0.0000 H   0  0  0  0  0  0  0  0  0  0  0  0
    7.2852   -0.8314    0.0000 H   0  0  0  0  0  0  0  0  0  0  0  0
    4.3682   -1.0149    0.0000 H   0  0  0  0  0  0  0  0  0  0  0  0
    5.1666   -0.9098    0.0000 H   0  0  0  0  0  0  0  0  0  0  0  0
    8.9760    1.3688    0.0000 H   0  0  0  0  0  0  0  0  0  0  0  0
    8.3861    1.8861    0.0000 H   0  0  0  0  0  0  0  0  0  0  0  0
    3.5152    1.9564    0.0000 H   0  0  0  0  0  0  0  0  0  0  0  0
    2.7223    2.0490    0.0000 H   0  0  0  0  0  0  0  0  0  0  0  0
    2.4058   -0.9618    0.0000 H   0  0  0  0  0  0  0  0  0  0  0  0
    3.2007   -1.0360    0.0000 H   0  0  0  0  0  0  0  0  0  0  0  0
    1.9620    1.7175    0.0000 H   0  0  0  0  0  0  0  0  0  0  0  0
    1.4903    1.0735    0.0000 H   0  0  0  0  0  0  0  0  0  0  0  0
    7.4731   -1.3089    0.0000 H   0  0  0  0  0  0  0  0  0  0  0  0
    7.9682   -1.9350    0.0000 H   0  0  0  0  0  0  0  0  0  0  0  0
    1.4036    0.2486    0.0000 H   0  0  0  0  0  0  0  0  0  0  0  0
    1.7311   -0.4794    0.0000 H   0  0  0  0  0  0  0  0  0  0  0  0
   10.1782    0.3703    0.0000 H   0  0  0  0  0  0  0  0  0  0  0  0
   10.4515   -1.2729    0.0000 H   0  0  0  0  0  0  0  0  0  0  0  0
  1 17  2  0  0  0  0
  2  6  1  0  0  0  0
  2  9  1  0  0  0  0
  2 12  1  0  0  0  0
  3  8  1  0  0  0  0
  3 10  1  0  0  0  0
  3 16  1  0  0  0  0
  4  6  1  0  0  0  0
  4  7  1  0  0  0  0
  4 10  1  0  0  0  0
  4 19  1  6  0  0  0
  5  7  1  0  0  0  0
  5  8  1  0  0  0  0
  5  9  1  0  0  0  0
  5 20  1  6  0  0  0
  6 11  1  0  0  0  0
  6 21  1  6  0  0  0
  7 22  1  0  0  0  0
  7 23  1  0  0  0  0
  8 14  1  0  0  0  0
  8 24  1  1  0  0  0
  9 25  1  0  0  0  0
  9 26  1  0  0  0  0
 10 27  1  0  0  0  0
 10 28  1  0  0  0  0
 11 13  1  0  0  0  0
 11 29  1  0  0  0  0
 11 30  1  0  0  0  0
 12 15  1  0  0  0  0
 12 31  1  0  0  0  0
 12 32  1  0  0  0  0
 13 15  1  0  0  0  0
 13 33  1  0  0  0  0
 13 34  1  0  0  0  0
 14 17  1  0  0  0  0
 14 35  1  0  0  0  0
 14 36  1  0  0  0  0
 15 37  1  0  0  0  0
 15 38  1  0  0  0  0
 16 18  2  0  0  0  0
 16 39  1  0  0  0  0
 17 18  1  0  0  0  0
 18 40  1  0  0  0  0
M  END
> <PUBCHEM_COMPOUND_CID>
442957

> <PUBCHEM_COMPOUND_CANONICALIZED>
1

> <PUBCHEM_CACTVS_COMPLEXITY>
392

> <PUBCHEM_CACTVS_HBOND_ACCEPTOR>
3

> <PUBCHEM_CACTVS_HBOND_DONOR>
0

> <PUBCHEM_CACTVS_ROTATABLE_BOND>
0

> <PUBCHEM_CACTVS_SUBSKEYS>
AAADceBzIAAAAAAAAAAAAAAAAAAAAAAAAAAsWLEAAAAWAACwAAAAHgAAAAAADSzBgAQAAAMAAACIAKBWQAAAAAAgAgAIAAEIAEgAABoAwAAEAAAAgACAAMEYicCOAAAAAAAAAAAAAAAAAAAAAAAAAAAAAA==

> <PUBCHEM_IUPAC_INCHI>
InChI=1S/C15H22N2O/c18-13-4-6-17-9-11-7-12(15(17)8-13)10-16-5-2-1-3-14(11)16/h4,6,11-12,14-15H,1-3,5,7-10H2/t11-,12+,14-,15+/m0/s1

> <PUBCHEM_IUPAC_INCHIKEY>
HQSKZPOVBDNEGN-MYZSUADSSA-N

> <PUBCHEM_XLOGP3_AA>
1.5

> <PUBCHEM_EXACT_MASS>
246.173213

> <PUBCHEM_MOLECULAR_FORMULA>
C15H22N2O

> <PUBCHEM_MOLECULAR_WEIGHT>
246.34798

> <PUBCHEM_OPENEYE_CAN_SMILES>
C1CCN2CC3CC(C2C1)CN4C3CC(=O)C=C4

> <PUBCHEM_OPENEYE_ISO_SMILES>
C1CCN2C[C@H]3C[C@H]([C@@H]2C1)CN4[C@@H]3CC(=O)C=C4

> <PUBCHEM_CACTVS_TPSA>
23.6

> <PUBCHEM_MONOISOTOPIC_WEIGHT>
246.173213

> <PUBCHEM_TOTAL_CHARGE>
0

> <PUBCHEM_HEAVY_ATOM_COUNT>
18

> <PUBCHEM_ATOM_DEF_STEREO_COUNT>
4

> <PUBCHEM_ATOM_UDEF_STEREO_COUNT>
0

> <PUBCHEM_BOND_DEF_STEREO_COUNT>
0

> <PUBCHEM_BOND_UDEF_STEREO_COUNT>
0

> <PUBCHEM_ISOTOPIC_ATOM_COUNT>
0

> <PUBCHEM_COMPONENT_COUNT>
1

> <PUBCHEM_CACTVS_TAUTO_COUNT>
2

> <PUBCHEM_COORDINATE_TYPE>
1
5
255

> <PUBCHEM_BONDANNOTATIONS>
4  19  6
5  20  6
6  21  6
8  24  5

$$$$

