440939
  -OEChem-07051212512D

 20 20  0     1  0  0  0  0  0999 V2000
    4.0984   -0.8888    0.0000 P   0  0  3  0  0  0  0  0  0  0  0  0
    2.9749    0.5200    0.0000 P   0  0  3  0  0  0  0  0  0  0  0  0
    4.9994   -0.4549    0.0000 O   0  0  0  0  0  0  0  0  0  0  0  0
    3.5984    1.3019    0.0000 O   0  0  0  0  0  0  0  0  0  0  0  0
    3.1974   -0.4549    0.0000 O   0  0  0  0  0  0  0  0  0  0  0  0
    3.6645   -1.7898    0.0000 O   0  0  0  0  0  0  0  0  0  0  0  0
    2.1931    1.1435    0.0000 O   0  0  0  0  0  0  0  0  0  0  0  0
    4.5323   -1.7898    0.0000 O   0  0  0  0  0  0  0  0  0  0  0  0
    2.0000    0.2975    0.0000 O   0  0  0  0  0  0  0  0  0  0  0  0
    6.4916    1.6981    0.0000 O   0  0  0  0  0  0  0  0  0  0  0  0
    6.8770    0.0095    0.0000 O   0  0  0  0  0  0  0  0  0  0  0  0
    5.2219    0.5200    0.0000 C   0  0  3  0  0  0  0  0  0  0  0  0
    4.5984    1.3019    0.0000 C   0  0  0  0  0  0  0  0  0  0  0  0
    6.1968    0.7425    0.0000 C   0  0  0  0  0  0  0  0  0  0  0  0
    5.8229   -0.0810    0.0000 H   0  0  0  0  0  0  0  0  0  0  0  0
    5.1570    1.5709    0.0000 H   0  0  0  0  0  0  0  0  0  0  0  0
    4.4604    1.9063    0.0000 H   0  0  0  0  0  0  0  0  0  0  0  0
    3.0463   -1.8361    0.0000 H   0  0  0  0  0  0  0  0  0  0  0  0
    2.2855    1.7566    0.0000 H   0  0  0  0  0  0  0  0  0  0  0  0
    7.0960    1.8361    0.0000 H   0  0  0  0  0  0  0  0  0  0  0  0
  1  3  1  0  0  0  0
  1  5  1  0  0  0  0
  1  6  1  0  0  0  0
  1  8  2  0  0  0  0
  2  4  1  0  0  0  0
  2  5  1  0  0  0  0
  2  7  1  0  0  0  0
  2  9  2  0  0  0  0
  3 12  1  0  0  0  0
  4 13  1  0  0  0  0
  6 18  1  0  0  0  0
  7 19  1  0  0  0  0
 10 14  1  0  0  0  0
 10 20  1  0  0  0  0
 11 14  2  0  0  0  0
 12 13  1  0  0  0  0
 12 14  1  0  0  0  0
 12 15  1  0  0  0  0
 13 16  1  0  0  0  0
 13 17  1  0  0  0  0
M  END
> <PUBCHEM_COMPOUND_CID>
440939

> <PUBCHEM_COMPOUND_CANONICALIZED>
1

> <PUBCHEM_CACTVS_COMPLEXITY>
335

> <PUBCHEM_CACTVS_HBOND_ACCEPTOR>
9

> <PUBCHEM_CACTVS_HBOND_DONOR>
3

> <PUBCHEM_CACTVS_ROTATABLE_BOND>
1

> <PUBCHEM_CACTVS_SUBSKEYS>
AAADcYBAPAMAAAAAAAAAAAAAAAAAAAAAAAAAAAAABIAAAAAAAAAAGgAACCAACBSggAIACAAAAxAIQACQCIIAAAAAAAAAAAFAAAABAAQAAAAAQAABIAABAAAAAAAAAAAAAAAAAAAAAAAAAAAAAAAAAAAAAA==

> <PUBCHEM_IUPAC_OPENEYE_NAME>
2,4-dihydroxy-2,4-dioxo-1,3,5,2$l^{5},4$l^{5}-trioxadiphosphepane-6-carboxylic acid

> <PUBCHEM_IUPAC_CAS_NAME>
2,4-dihydroxy-2,4-dioxo-1,3,5,2$l^{5},4$l^{5}-trioxadiphosphepane-6-carboxylic acid

> <PUBCHEM_IUPAC_NAME>
2,4-dihydroxy-2,4-dioxo-1,3,5,2$l^{5},4$l^{5}-trioxadiphosphepane-6-carboxylic acid

> <PUBCHEM_IUPAC_SYSTEMATIC_NAME>
2,4-bis(oxidanyl)-2,4-bis(oxidanylidene)-1,3,5,2$l^{5},4$l^{5}-trioxadiphosphepane-6-carboxylic acid

> <PUBCHEM_IUPAC_TRADITIONAL_NAME>
2,4-dihydroxy-2,4-diketo-1,3,5,2$l^{5},4$l^{5}-trioxadiphosphepane-6-carboxylic acid

> <PUBCHEM_IUPAC_INCHI>
InChI=1S/C3H6O9P2/c4-3(5)2-1-10-13(6,7)12-14(8,9)11-2/h2H,1H2,(H,4,5)(H,6,7)(H,8,9)

> <PUBCHEM_IUPAC_INCHIKEY>
PZJOIILIPTVGFU-UHFFFAOYSA-N

> <PUBCHEM_XLOGP3_AA>
-2.7

> <PUBCHEM_EXACT_MASS>
247.948705

> <PUBCHEM_MOLECULAR_FORMULA>
C3H6O9P2

> <PUBCHEM_MOLECULAR_WEIGHT>
248.021864

> <PUBCHEM_OPENEYE_CAN_SMILES>
C1C(OP(=O)(OP(=O)(O1)O)O)C(=O)O

> <PUBCHEM_OPENEYE_ISO_SMILES>
C1C(OP(=O)(OP(=O)(O1)O)O)C(=O)O

> <PUBCHEM_CACTVS_TPSA>
140

> <PUBCHEM_MONOISOTOPIC_WEIGHT>
247.948705

> <PUBCHEM_TOTAL_CHARGE>
0

> <PUBCHEM_HEAVY_ATOM_COUNT>
14

> <PUBCHEM_ATOM_DEF_STEREO_COUNT>
0

> <PUBCHEM_ATOM_UDEF_STEREO_COUNT>
1

> <PUBCHEM_BOND_DEF_STEREO_COUNT>
0

> <PUBCHEM_BOND_UDEF_STEREO_COUNT>
0

> <PUBCHEM_ISOTOPIC_ATOM_COUNT>
0

> <PUBCHEM_COMPONENT_COUNT>
1

> <PUBCHEM_CACTVS_TAUTO_COUNT>
1

> <PUBCHEM_COORDINATE_TYPE>
1
5
255

> <PUBCHEM_BONDANNOTATIONS>
12  15  3

$$$$

