92803
  -OEChem-07051213152D

 66 69  0     1  0  0  0  0  0999 V2000
   10.3604    3.2695    0.0000 O   0  0  0  0  0  0  0  0  0  0  0  0
   10.7175    1.5747    0.0000 O   0  0  0  0  0  0  0  0  0  0  0  0
    6.5251   -0.2992    0.0000 C   0  0  1  0  0  0  0  0  0  0  0  0
    6.5251   -1.2992    0.0000 C   0  0  2  0  0  0  0  0  0  0  0  0
    5.6591   -1.7992    0.0000 C   0  0  1  0  0  0  0  0  0  0  0  0
    4.7931   -1.2992    0.0000 C   0  0  1  0  0  0  0  0  0  0  0  0
    3.8831   -1.8060    0.0000 C   0  0  2  0  0  0  0  0  0  0  0  0
    7.4714    0.0055    0.0000 C   0  0  2  0  0  0  0  0  0  0  0  0
    5.6591    0.2008    0.0000 C   0  0  0  0  0  0  0  0  0  0  0  0
    4.7931   -0.2992    0.0000 C   0  0  0  0  0  0  0  0  0  0  0  0
    3.8751   -2.8476    0.0000 C   0  0  2  0  0  0  0  0  0  0  0  0
    7.4714   -1.6039    0.0000 C   0  0  0  0  0  0  0  0  0  0  0  0
    5.6752   -2.8407    0.0000 C   0  0  0  0  0  0  0  0  0  0  0  0
    8.0550   -0.7992    0.0000 C   0  0  0  0  0  0  0  0  0  0  0  0
    4.7771   -3.3685    0.0000 C   0  0  0  0  0  0  0  0  0  0  0  0
    2.9562   -1.2420    0.0000 C   0  0  0  0  0  0  0  0  0  0  0  0
    6.5251    0.7008    0.0000 C   0  0  0  0  0  0  0  0  0  0  0  0
    7.7820    0.9560    0.0000 C   0  0  1  0  0  0  0  0  0  0  0  0
    2.9396   -3.3974    0.0000 C   0  0  0  0  0  0  0  0  0  0  0  0
    3.8908   -0.8061    0.0000 C   0  0  0  0  0  0  0  0  0  0  0  0
    2.0084   -1.7699    0.0000 C   0  0  0  0  0  0  0  0  0  0  0  0
    2.0000   -2.8549    0.0000 C   0  0  0  0  0  0  0  0  0  0  0  0
    8.7605    1.1623    0.0000 C   0  0  0  0  0  0  0  0  0  0  0  0
    7.1142    1.7004    0.0000 C   0  0  0  0  0  0  0  0  0  0  0  0
    9.0712    2.1128    0.0000 C   0  0  0  0  0  0  0  0  0  0  0  0
   10.0497    2.3190    0.0000 C   0  0  0  0  0  0  0  0  0  0  0  0
    6.6151   -2.1444    0.0000 H   0  0  0  0  0  0  0  0  0  0  0  0
    6.3985   -2.2185    0.0000 H   0  0  0  0  0  0  0  0  0  0  0  0
    5.5292   -0.8742    0.0000 H   0  0  0  0  0  0  0  0  0  0  0  0
    8.3111    0.1374    0.0000 H   0  0  0  0  0  0  0  0  0  0  0  0
    6.0576    0.6757    0.0000 H   0  0  0  0  0  0  0  0  0  0  0  0
    5.2606    0.6757    0.0000 H   0  0  0  0  0  0  0  0  0  0  0  0
    4.5810    0.2834    0.0000 H   0  0  0  0  0  0  0  0  0  0  0  0
    4.1825   -0.4069    0.0000 H   0  0  0  0  0  0  0  0  0  0  0  0
    3.8783   -3.6976    0.0000 H   0  0  0  0  0  0  0  0  0  0  0  0
    7.2203   -2.1708    0.0000 H   0  0  0  0  0  0  0  0  0  0  0  0
    8.0087   -1.9132    0.0000 H   0  0  0  0  0  0  0  0  0  0  0  0
    5.8932   -3.4211    0.0000 H   0  0  0  0  0  0  0  0  0  0  0  0
    6.2843   -2.7252    0.0000 H   0  0  0  0  0  0  0  0  0  0  0  0
    8.5158   -1.2139    0.0000 H   0  0  0  0  0  0  0  0  0  0  0  0
    8.5158   -0.3845    0.0000 H   0  0  0  0  0  0  0  0  0  0  0  0
    4.3798   -3.8444    0.0000 H   0  0  0  0  0  0  0  0  0  0  0  0
    5.1781   -3.8414    0.0000 H   0  0  0  0  0  0  0  0  0  0  0  0
    3.3645   -0.7753    0.0000 H   0  0  0  0  0  0  0  0  0  0  0  0
    2.5663   -0.7599    0.0000 H   0  0  0  0  0  0  0  0  0  0  0  0
    7.1451    0.7008    0.0000 H   0  0  0  0  0  0  0  0  0  0  0  0
    6.5251    1.3208    0.0000 H   0  0  0  0  0  0  0  0  0  0  0  0
    5.9051    0.7008    0.0000 H   0  0  0  0  0  0  0  0  0  0  0  0
    7.9746    1.5454    0.0000 H   0  0  0  0  0  0  0  0  0  0  0  0
    2.5423   -3.8734    0.0000 H   0  0  0  0  0  0  0  0  0  0  0  0
    3.3406   -3.8703    0.0000 H   0  0  0  0  0  0  0  0  0  0  0  0
    4.5108   -0.8109    0.0000 H   0  0  0  0  0  0  0  0  0  0  0  0
    3.8956   -0.1861    0.0000 H   0  0  0  0  0  0  0  0  0  0  0  0
    3.2708   -0.8013    0.0000 H   0  0  0  0  0  0  0  0  0  0  0  0
    1.8038   -1.1846    0.0000 H   0  0  0  0  0  0  0  0  0  0  0  0
    1.3967   -1.8713    0.0000 H   0  0  0  0  0  0  0  0  0  0  0  0
    1.3900   -2.7441    0.0000 H   0  0  0  0  0  0  0  0  0  0  0  0
    1.7864   -3.4369    0.0000 H   0  0  0  0  0  0  0  0  0  0  0  0
    8.7811    0.5426    0.0000 H   0  0  0  0  0  0  0  0  0  0  0  0
    9.3743    1.0749    0.0000 H   0  0  0  0  0  0  0  0  0  0  0  0
    7.5756    2.1144    0.0000 H   0  0  0  0  0  0  0  0  0  0  0  0
    6.7001    2.1618    0.0000 H   0  0  0  0  0  0  0  0  0  0  0  0
    6.6527    1.2863    0.0000 H   0  0  0  0  0  0  0  0  0  0  0  0
    9.0506    2.7324    0.0000 H   0  0  0  0  0  0  0  0  0  0  0  0
    8.4574    2.2001    0.0000 H   0  0  0  0  0  0  0  0  0  0  0  0
   10.9670    3.3974    0.0000 H   0  0  0  0  0  0  0  0  0  0  0  0
  1 26  1  0  0  0  0
  1 66  1  0  0  0  0
  2 26  2  0  0  0  0
  3  4  1  0  0  0  0
  3  8  1  0  0  0  0
  3  9  1  0  0  0  0
  3 17  1  1  0  0  0
  4  5  1  0  0  0  0
  4 12  1  0  0  0  0
  4 27  1  6  0  0  0
  5  6  1  0  0  0  0
  5 13  1  0  0  0  0
  5 28  1  1  0  0  0
  6  7  1  0  0  0  0
  6 10  1  0  0  0  0
  6 29  1  6  0  0  0
  7 11  1  0  0  0  0
  7 16  1  0  0  0  0
  7 20  1  1  0  0  0
  8 14  1  0  0  0  0
  8 18  1  0  0  0  0
  8 30  1  6  0  0  0
  9 10  1  0  0  0  0
  9 31  1  0  0  0  0
  9 32  1  0  0  0  0
 10 33  1  0  0  0  0
 10 34  1  0  0  0  0
 11 15  1  0  0  0  0
 11 19  1  0  0  0  0
 11 35  1  1  0  0  0
 12 14  1  0  0  0  0
 12 36  1  0  0  0  0
 12 37  1  0  0  0  0
 13 15  1  0  0  0  0
 13 38  1  0  0  0  0
 13 39  1  0  0  0  0
 14 40  1  0  0  0  0
 14 41  1  0  0  0  0
 15 42  1  0  0  0  0
 15 43  1  0  0  0  0
 16 21  1  0  0  0  0
 16 44  1  0  0  0  0
 16 45  1  0  0  0  0
 17 46  1  0  0  0  0
 17 47  1  0  0  0  0
 17 48  1  0  0  0  0
 18 23  1  0  0  0  0
 18 24  1  6  0  0  0
 18 49  1  0  0  0  0
 19 22  1  0  0  0  0
 19 50  1  0  0  0  0
 19 51  1  0  0  0  0
 20 52  1  0  0  0  0
 20 53  1  0  0  0  0
 20 54  1  0  0  0  0
 21 22  1  0  0  0  0
 21 55  1  0  0  0  0
 21 56  1  0  0  0  0
 22 57  1  0  0  0  0
 22 58  1  0  0  0  0
 23 25  1  0  0  0  0
 23 59  1  0  0  0  0
 23 60  1  0  0  0  0
 24 61  1  0  0  0  0
 24 62  1  0  0  0  0
 24 63  1  0  0  0  0
 25 26  1  0  0  0  0
 25 64  1  0  0  0  0
 25 65  1  0  0  0  0
M  END
> <PUBCHEM_COMPOUND_CID>
92803

> <PUBCHEM_COMPOUND_CANONICALIZED>
1

> <PUBCHEM_CACTVS_COMPLEXITY>
542

> <PUBCHEM_CACTVS_HBOND_ACCEPTOR>
2

> <PUBCHEM_CACTVS_HBOND_DONOR>
1

> <PUBCHEM_CACTVS_ROTATABLE_BOND>
4

> <PUBCHEM_CACTVS_SUBSKEYS>
AAADcfB4MAAAAAAAAAAAAAAAAAAAAYAAAAAwYMAAAAAAAGDAAAAAGgAACAAADwCAgAACCAAAAgAIAACQCAAAAAAAAAAAAAEAAAAAABIAAAAAQAAEAAAAAAGIyPCPgAAAAAAAAACAAAQAACAAAQAACAAAAA==

> <PUBCHEM_IUPAC_OPENEYE_NAME>
(4R)-4-[(5S,8R,9S,10S,13R,14S,17R)-10,13-dimethyl-2,3,4,5,6,7,8,9,11,12,14,15,16,17-tetradecahydro-1H-cyclopenta[a]phenanthren-17-yl]pentanoic acid

> <PUBCHEM_IUPAC_CAS_NAME>
(4R)-4-[(5S,8R,9S,10S,13R,14S,17R)-10,13-dimethyl-2,3,4,5,6,7,8,9,11,12,14,15,16,17-tetradecahydro-1H-cyclopenta[a]phenanthren-17-yl]pentanoic acid

> <PUBCHEM_IUPAC_NAME>
(4R)-4-[(5S,8R,9S,10S,13R,14S,17R)-10,13-dimethyl-2,3,4,5,6,7,8,9,11,12,14,15,16,17-tetradecahydro-1H-cyclopenta[a]phenanthren-17-yl]pentanoic acid

> <PUBCHEM_IUPAC_SYSTEMATIC_NAME>
(4R)-4-[(5S,8R,9S,10S,13R,14S,17R)-10,13-dimethyl-2,3,4,5,6,7,8,9,11,12,14,15,16,17-tetradecahydro-1H-cyclopenta[a]phenanthren-17-yl]pentanoic acid

> <PUBCHEM_IUPAC_TRADITIONAL_NAME>
(4R)-4-[(5S,8R,9S,10S,13R,14S,17R)-10,13-dimethyl-2,3,4,5,6,7,8,9,11,12,14,15,16,17-tetradecahydro-1H-cyclopenta[a]phenanthren-17-yl]valeric acid

> <PUBCHEM_IUPAC_INCHI>
InChI=1S/C24H40O2/c1-16(7-12-22(25)26)19-10-11-20-18-9-8-17-6-4-5-14-23(17,2)21(18)13-15-24(19,20)3/h16-21H,4-15H2,1-3H3,(H,25,26)/t16-,17+,18+,19-,20+,21+,23+,24-/m1/s1

> <PUBCHEM_IUPAC_INCHIKEY>
RPKLZQLYODPWTM-LVVAJZGHSA-N

> <PUBCHEM_XLOGP3_AA>
8

> <PUBCHEM_EXACT_MASS>
360.302831

> <PUBCHEM_MOLECULAR_FORMULA>
C24H40O2

> <PUBCHEM_MOLECULAR_WEIGHT>
360.5732

> <PUBCHEM_OPENEYE_CAN_SMILES>
CC(CCC(=O)O)C1CCC2C1(CCC3C2CCC4C3(CCCC4)C)C

> <PUBCHEM_OPENEYE_ISO_SMILES>
C[C@H](CCC(=O)O)[C@H]1CC[C@@H]2[C@@]1(CC[C@H]3[C@H]2CC[C@H]4[C@@]3(CCCC4)C)C

> <PUBCHEM_CACTVS_TPSA>
37.3

> <PUBCHEM_MONOISOTOPIC_WEIGHT>
360.302831

> <PUBCHEM_TOTAL_CHARGE>
0

> <PUBCHEM_HEAVY_ATOM_COUNT>
26

> <PUBCHEM_ATOM_DEF_STEREO_COUNT>
8

> <PUBCHEM_ATOM_UDEF_STEREO_COUNT>
0

> <PUBCHEM_BOND_DEF_STEREO_COUNT>
0

> <PUBCHEM_BOND_UDEF_STEREO_COUNT>
0

> <PUBCHEM_ISOTOPIC_ATOM_COUNT>
0

> <PUBCHEM_COMPONENT_COUNT>
1

> <PUBCHEM_CACTVS_TAUTO_COUNT>
1

> <PUBCHEM_COORDINATE_TYPE>
1
5
255

> <PUBCHEM_BONDANNOTATIONS>
11  35  5
18  24  6
3  17  5
4  27  6
5  28  5
6  29  6
7  20  5
8  30  6

$$$$

