854219
  -OEChem-06241222473D

 41 43  0     1  0  0  0  0  0999 V2000
    1.1696   -2.0688    0.9202 O   0  0  0  0  0  0  0  0  0  0  0  0
    3.7192    0.8145   -0.6225 O   0  0  0  0  0  0  0  0  0  0  0  0
   -2.9582   -0.9032    0.1167 O   0  0  0  0  0  0  0  0  0  0  0  0
    2.0156    1.7702   -1.7695 O   0  0  0  0  0  0  0  0  0  0  0  0
   -2.3864   -2.0312   -1.8223 O   0  0  0  0  0  0  0  0  0  0  0  0
   -0.7439   -3.3592    0.9819 N   0  0  0  0  0  0  0  0  0  0  0  0
   -0.0055   -0.0443   -0.7587 C   0  0  1  0  0  0  0  0  0  0  0  0
    1.4686   -0.1024   -0.4187 C   0  0  0  0  0  0  0  0  0  0  0  0
   -0.7349   -1.2946   -0.2903 C   0  0  0  0  0  0  0  0  0  0  0  0
   -0.6321    1.1797   -0.1581 C   0  0  0  0  0  0  0  0  0  0  0  0
    1.9514   -1.0667    0.3781 C   0  0  0  0  0  0  0  0  0  0  0  0
   -0.1574   -2.2210    0.5060 C   0  0  0  0  0  0  0  0  0  0  0  0
    2.4032    0.9009   -0.9954 C   0  0  0  0  0  0  0  0  0  0  0  0
    3.3378   -1.1260    0.7363 C   0  0  0  0  0  0  0  0  0  0  0  0
   -1.6666    1.8232   -0.8283 C   0  0  0  0  0  0  0  0  0  0  0  0
   -0.1725    1.6598    1.0631 C   0  0  0  0  0  0  0  0  0  0  0  0
   -2.1147   -1.4672   -0.7800 C   0  0  0  0  0  0  0  0  0  0  0  0
    4.1748   -0.2051    0.2460 C   0  0  0  0  0  0  0  0  0  0  0  0
   -2.2488    2.9613   -0.2702 C   0  0  0  0  0  0  0  0  0  0  0  0
   -0.7547    2.7978    1.6213 C   0  0  0  0  0  0  0  0  0  0  0  0
   -1.7929    3.4486    0.9546 C   0  0  0  0  0  0  0  0  0  0  0  0
    5.6359   -0.1531    0.5446 C   0  0  0  0  0  0  0  0  0  0  0  0
   -4.3463   -0.9907   -0.2208 C   0  0  0  0  0  0  0  0  0  0  0  0
   -5.1612   -0.3224    0.8659 C   0  0  0  0  0  0  0  0  0  0  0  0
   -0.0794   -0.0021   -1.8549 H   0  0  0  0  0  0  0  0  0  0  0  0
    3.6805   -1.9118    1.4001 H   0  0  0  0  0  0  0  0  0  0  0  0
   -2.0296    1.4564   -1.7845 H   0  0  0  0  0  0  0  0  0  0  0  0
    0.6136    1.1720    1.6306 H   0  0  0  0  0  0  0  0  0  0  0  0
   -3.0574    3.4676   -0.7891 H   0  0  0  0  0  0  0  0  0  0  0  0
   -0.4043    3.1741    2.5781 H   0  0  0  0  0  0  0  0  0  0  0  0
   -0.2046   -3.9793    1.5724 H   0  0  0  0  0  0  0  0  0  0  0  0
   -1.7043   -3.5787    0.7510 H   0  0  0  0  0  0  0  0  0  0  0  0
   -2.2474    4.3337    1.3900 H   0  0  0  0  0  0  0  0  0  0  0  0
    6.2143   -0.2426   -0.3803 H   0  0  0  0  0  0  0  0  0  0  0  0
    5.9463   -0.9602    1.2162 H   0  0  0  0  0  0  0  0  0  0  0  0
    5.8906    0.7990    1.0208 H   0  0  0  0  0  0  0  0  0  0  0  0
   -4.5218   -0.4864   -1.1778 H   0  0  0  0  0  0  0  0  0  0  0  0
   -4.6360   -2.0441   -0.3061 H   0  0  0  0  0  0  0  0  0  0  0  0
   -6.2300   -0.3704    0.6393 H   0  0  0  0  0  0  0  0  0  0  0  0
   -4.9823   -0.8040    1.8328 H   0  0  0  0  0  0  0  0  0  0  0  0
   -4.8694    0.7274    0.9753 H   0  0  0  0  0  0  0  0  0  0  0  0
  1 11  1  0  0  0  0
  1 12  1  0  0  0  0
  2 13  1  0  0  0  0
  2 18  1  0  0  0  0
  3 17  1  0  0  0  0
  3 23  1  0  0  0  0
  4 13  2  0  0  0  0
  5 17  2  0  0  0  0
  6 12  1  0  0  0  0
  6 31  1  0  0  0  0
  6 32  1  0  0  0  0
  7  8  1  0  0  0  0
  7  9  1  0  0  0  0
  7 10  1  0  0  0  0
  7 25  1  0  0  0  0
  8 11  2  0  0  0  0
  8 13  1  0  0  0  0
  9 12  2  0  0  0  0
  9 17  1  0  0  0  0
 10 15  2  0  0  0  0
 10 16  1  0  0  0  0
 11 14  1  0  0  0  0
 14 18  2  0  0  0  0
 14 26  1  0  0  0  0
 15 19  1  0  0  0  0
 15 27  1  0  0  0  0
 16 20  2  0  0  0  0
 16 28  1  0  0  0  0
 18 22  1  0  0  0  0
 19 21  2  0  0  0  0
 19 29  1  0  0  0  0
 20 21  1  0  0  0  0
 20 30  1  0  0  0  0
 21 33  1  0  0  0  0
 22 34  1  0  0  0  0
 22 35  1  0  0  0  0
 22 36  1  0  0  0  0
 23 24  1  0  0  0  0
 23 37  1  0  0  0  0
 23 38  1  0  0  0  0
 24 39  1  0  0  0  0
 24 40  1  0  0  0  0
 24 41  1  0  0  0  0
M  END
> <PUBCHEM_COMPOUND_CID>
854219

> <PUBCHEM_CONFORMER_RMSD>
0.8

> <PUBCHEM_CONFORMER_DIVERSEORDER>
1
4
5
2
3

> <PUBCHEM_MMFF94_PARTIAL_CHARGES>
31
1 -0.15
10 -0.14
11 0.08
12 0.18
13 0.71
14 -0.15
15 -0.15
16 -0.15
17 0.71
18 -0.06
19 -0.15
2 -0.23
20 -0.15
21 -0.15
22 0.14
23 0.28
26 0.15
27 0.15
28 0.15
29 0.15
3 -0.43
30 0.15
31 0.4
32 0.4
33 0.15
4 -0.57
5 -0.57
6 -0.9
7 0.42
8 -0.12
9 -0.12

> <PUBCHEM_EFFECTIVE_ROTOR_COUNT>
4.4

> <PUBCHEM_PHARMACOPHORE_FEATURES>
8
1 1 acceptor
1 4 acceptor
1 5 acceptor
1 6 cation
1 6 donor
6 1 7 8 9 11 12 rings
6 10 15 16 19 20 21 rings
6 2 8 11 13 14 18 rings

> <PUBCHEM_HEAVY_ATOM_COUNT>
24

> <PUBCHEM_ATOM_DEF_STEREO_COUNT>
1

> <PUBCHEM_ATOM_UDEF_STEREO_COUNT>
0

> <PUBCHEM_BOND_DEF_STEREO_COUNT>
0

> <PUBCHEM_BOND_UDEF_STEREO_COUNT>
0

> <PUBCHEM_ISOTOPIC_ATOM_COUNT>
0

> <PUBCHEM_COMPONENT_COUNT>
1

> <PUBCHEM_CACTVS_TAUTO_COUNT>
3

> <PUBCHEM_CONFORMER_ID>
000D08CB00000001

> <PUBCHEM_MMFF94_ENERGY>
64.5495

> <PUBCHEM_FEATURE_SELFOVERLAP>
40.62

> <PUBCHEM_SHAPE_FINGERPRINT>
10162869 55 18114730575029161099
104564 63 18408885178731477077
1100329 8 18268426845780395739
11640471 11 17538290922476112968
11680986 33 17833271196252515495
12390115 104 18264479745477232400
12553582 1 18335432218327805911
12788726 201 18336530647534366876
13140716 1 18126847093090787322
14142880 1 18270972369875860476
14178342 30 18124320660072030376
14787075 74 18409452457547748241
14790565 3 18410284801247164097
14955137 171 18189319192213491523
1601671 61 18114169848966458387
16752209 62 18410852183168354934
16945 1 18058742290520005630
19784866 9 18272650147616312331
20510252 161 18336267924357996682
20600515 1 18268705017827029308
20642791 105 18341339997204154969
20691752 17 18195547903914216897
20775438 99 16606356484549656550
23402539 116 18335709303753183062
23419403 2 17042678102113389524
23557571 272 18113335327977664388
23558518 356 18266447896459459431
23559900 14 17969511592646898802
23598288 3 18117296928149188511
283562 15 18411706508045979739
3084891 72 18410291380757214335
350125 39 18413669123680453924
392239 28 18261397758070233576
4340502 62 17975406134260293345
469060 322 18272076228184691561
5845 1 16953065688030106424
7164475 11 18408601500283569606
7226269 152 18409172086509579256
81228 2 18189593021604797608

> <PUBCHEM_SHAPE_MULTIPOLES>
459.58
7.73
3.58
1.32
3.87
1.18
-0.15
-1.19
0.96
-2.94
0.89
-0.13
0.26
-1.05

> <PUBCHEM_SHAPE_SELFOVERLAP>
1000.549

> <PUBCHEM_SHAPE_VOLUME>
248.1

> <PUBCHEM_COORDINATE_TYPE>
2
5
10

$$$$

