25010753
  -OEChem-07051213103D

 28 27  0     0  0  0  0  0  0999 V2000
   -5.1684   -0.5389   -0.1437 S   0  0  0  0  0  0  0  0  0  0  0  0
    5.8472    0.8364   -0.0575 O   0  0  0  0  0  0  0  0  0  0  0  0
    4.8175    0.0106   -0.5152 N   0  0  0  0  0  0  0  0  0  0  0  0
    0.1045   -0.6509    0.0017 C   0  0  0  0  0  0  0  0  0  0  0  0
   -1.1142    0.2704    0.0741 C   0  0  0  0  0  0  0  0  0  0  0  0
    1.4051    0.1320    0.1819 C   0  0  0  0  0  0  0  0  0  0  0  0
   -2.4187   -0.5176   -0.0733 C   0  0  0  0  0  0  0  0  0  0  0  0
    2.6189   -0.7908    0.1432 C   0  0  0  0  0  0  0  0  0  0  0  0
   -3.6285    0.4054    0.0362 C   0  0  0  0  0  0  0  0  0  0  0  0
    3.8724    0.0089    0.3639 C   0  0  0  0  0  0  0  0  0  0  0  0
   -6.3359    0.8345   -0.0113 C   0  0  0  0  0  0  0  0  0  0  0  0
   -1.1146    0.8022    1.0334 H   0  0  0  0  0  0  0  0  0  0  0  0
   -1.0503    1.0285   -0.7160 H   0  0  0  0  0  0  0  0  0  0  0  0
    0.1175   -1.1697   -0.9646 H   0  0  0  0  0  0  0  0  0  0  0  0
    0.0293   -1.4196    0.7806 H   0  0  0  0  0  0  0  0  0  0  0  0
    1.4943    0.8918   -0.6047 H   0  0  0  0  0  0  0  0  0  0  0  0
    1.3824    0.6727    1.1365 H   0  0  0  0  0  0  0  0  0  0  0  0
   -2.4635   -1.2889    0.7060 H   0  0  0  0  0  0  0  0  0  0  0  0
   -2.4208   -1.0311   -1.0431 H   0  0  0  0  0  0  0  0  0  0  0  0
    2.6784   -1.3187   -0.8144 H   0  0  0  0  0  0  0  0  0  0  0  0
    2.5555   -1.5339    0.9454 H   0  0  0  0  0  0  0  0  0  0  0  0
   -3.6327    0.9066    1.0099 H   0  0  0  0  0  0  0  0  0  0  0  0
   -3.5879    1.1697   -0.7470 H   0  0  0  0  0  0  0  0  0  0  0  0
    3.9480    0.5777    1.3082 H   0  0  0  0  0  0  0  0  0  0  0  0
   -7.3556    0.4498   -0.0966 H   0  0  0  0  0  0  0  0  0  0  0  0
   -6.1690    1.5560   -0.8154 H   0  0  0  0  0  0  0  0  0  0  0  0
   -6.2322    1.3312    0.9569 H   0  0  0  0  0  0  0  0  0  0  0  0
    6.4914    0.7650   -0.7819 H   0  0  0  0  0  0  0  0  0  0  0  0
  1  9  1  0  0  0  0
  1 11  1  0  0  0  0
  2  3  1  0  0  0  0
  2 28  1  0  0  0  0
  3 10  2  0  0  0  0
  4  5  1  0  0  0  0
  4  6  1  0  0  0  0
  4 14  1  0  0  0  0
  4 15  1  0  0  0  0
  5  7  1  0  0  0  0
  5 12  1  0  0  0  0
  5 13  1  0  0  0  0
  6  8  1  0  0  0  0
  6 16  1  0  0  0  0
  6 17  1  0  0  0  0
  7  9  1  0  0  0  0
  7 18  1  0  0  0  0
  7 19  1  0  0  0  0
  8 10  1  0  0  0  0
  8 20  1  0  0  0  0
  8 21  1  0  0  0  0
  9 22  1  0  0  0  0
  9 23  1  0  0  0  0
 10 24  1  0  0  0  0
 11 25  1  0  0  0  0
 11 26  1  0  0  0  0
 11 27  1  0  0  0  0
M  END
> <PUBCHEM_COMPOUND_CID>
25010753

> <PUBCHEM_CONFORMER_RMSD>
0.8

> <PUBCHEM_CONFORMER_DIVERSEORDER>
1
56
27
20
87
111
15
59
61
110
4
63
6
24
5
12
13
72
91
50
16
116
86
53
99
48
76
22
39
17
93
25
30
92
38
11
83
46
45
33
75
88
2
114
113
26
10
34
115
94
69
58
52
68
43
7
49
8
112
101
42
65
19
32
51
31
103
29
89
97
73
18
3
81
77
62
96
44
90
117
85
70
79
28
9
82
95
23
84
35
36
80
21
37
54
71
104
107
105
41
102
98
106
14
74
78
60
47
57
108
55
100
66
109
64
40
67

> <PUBCHEM_MMFF94_PARTIAL_CHARGES>
9
1 -0.46
10 0.33
11 0.23
2 -0.34
24 0.06
28 0.4
3 -0.51
8 0.06
9 0.23

> <PUBCHEM_EFFECTIVE_ROTOR_COUNT>
7

> <PUBCHEM_PHARMACOPHORE_FEATURES>
3
1 11 hydrophobe
1 2 anion
1 3 acceptor

> <PUBCHEM_HEAVY_ATOM_COUNT>
11

> <PUBCHEM_ATOM_DEF_STEREO_COUNT>
0

> <PUBCHEM_ATOM_UDEF_STEREO_COUNT>
0

> <PUBCHEM_BOND_DEF_STEREO_COUNT>
1

> <PUBCHEM_BOND_UDEF_STEREO_COUNT>
0

> <PUBCHEM_ISOTOPIC_ATOM_COUNT>
0

> <PUBCHEM_COMPONENT_COUNT>
1

> <PUBCHEM_CACTVS_TAUTO_COUNT>
2

> <PUBCHEM_CONFORMER_ID>
017DA24100000001

> <PUBCHEM_MMFF94_ENERGY>
7.2242

> <PUBCHEM_FEATURE_SELFOVERLAP>
15.223

> <PUBCHEM_SHAPE_FINGERPRINT>
114248 4 18409449180514113995
12091667 2 18334857208654655059
12714333 28 18411138034616513232
12815109 37 18202283606477062413
13533116 47 16773809129584389040
14123238 8 18272934925132541263
14251718 22 18410293592865351135
15048467 5 18413671309454609325
15242439 84 16298390149629961763
15501527 16 18341613750594058269
17834072 33 18260832561864239773
17834076 25 18411138038911480522
187816 3 15936408940271298155
20605781 2 18413108359738343946
20645477 70 18115586084025353838
20767249 13 10087640403458328787
20767249 213 18272932713050310541
21130983 4 18060133236816061037
23218964 4 7781520308677092955
23402539 116 18260835895344404615
42788 4 18410856564340958259
4463277 17 18409729560522311369
8209 1 18260267451399843716

> <PUBCHEM_SHAPE_MULTIPOLES>
219.37
15.3
0.9
0.65
1.14
0.01
0
-3.63
-0.94
0.26
0
-0.03
0.01
-0.12

> <PUBCHEM_SHAPE_SELFOVERLAP>
379.312

> <PUBCHEM_SHAPE_VOLUME>
146.7

> <PUBCHEM_COORDINATE_TYPE>
2
5
10

$$$$

