23724663
  -OEChem-07051213083D

 61 64  0     1  0  0  0  0  0999 V2000
    3.8073    0.1196   -0.0231 O   0  0  0  0  0  0  0  0  0  0  0  0
    6.8188    0.8200    1.9400 O   0  0  0  0  0  0  0  0  0  0  0  0
    7.5748   -1.4721    0.3493 O   0  0  0  0  0  0  0  0  0  0  0  0
    3.0159   -1.8093   -1.0706 O   0  0  0  0  0  0  0  0  0  0  0  0
    5.2547   -3.2345   -0.0886 O   0  0  0  0  0  0  0  0  0  0  0  0
    2.9991    2.4656    1.1599 O   0  0  0  0  0  0  0  0  0  0  0  0
   -1.1727   -1.8073    1.1693 O   0  0  0  0  0  0  0  0  0  0  0  0
    2.6882    2.3742   -1.1226 O   0  0  0  0  0  0  0  0  0  0  0  0
   -2.9280    0.3045   -1.8486 O   0  0  0  0  0  0  0  0  0  0  0  0
   -1.3899    3.2259   -0.3322 O   0  0  0  0  0  0  0  0  0  0  0  0
    0.1274    2.8240   -1.9774 O   0  0  0  0  0  0  0  0  0  0  0  0
   -8.6690    0.2766    0.8505 O   0  0  0  0  0  0  0  0  0  0  0  0
    6.0632    0.3172    0.8410 C   0  0  1  0  0  0  0  0  0  0  0  0
    6.2346   -1.1998    0.7618 C   0  0  1  0  0  0  0  0  0  0  0  0
    4.5902    0.6884    1.0279 C   0  0  1  0  0  0  0  0  0  0  0  0
    5.2585   -1.8153   -0.2410 C   0  0  2  0  0  0  0  0  0  0  0  0
    3.8349   -1.3057   -0.0157 C   0  0  1  0  0  0  0  0  0  0  0  0
    4.3796    2.1988    0.9926 C   0  0  0  0  0  0  0  0  0  0  0  0
    1.7001   -1.4530   -1.0447 C   0  0  0  0  0  0  0  0  0  0  0  0
    0.9054   -1.8022    0.0473 C   0  0  0  0  0  0  0  0  0  0  0  0
    1.1503   -0.7407   -2.1111 C   0  0  0  0  0  0  0  0  0  0  0  0
    2.2515    2.5289    0.0090 C   0  0  0  0  0  0  0  0  0  0  0  0
   -0.4410   -1.4373    0.0700 C   0  0  0  0  0  0  0  0  0  0  0  0
   -0.9903   -0.7251   -0.9955 C   0  0  0  0  0  0  0  0  0  0  0  0
   -0.1961   -0.3740   -2.0903 C   0  0  0  0  0  0  0  0  0  0  0  0
    0.8153    2.8281    0.3637 C   0  0  0  0  0  0  0  0  0  0  0  0
   -2.4146   -0.3463   -0.9477 C   0  0  0  0  0  0  0  0  0  0  0  0
   -3.1765   -0.7850    0.2540 C   0  0  0  0  0  0  0  0  0  0  0  0
   -2.5035   -1.4670    1.1929 C   0  0  0  0  0  0  0  0  0  0  0  0
   -4.6136   -0.5068    0.4096 C   0  0  0  0  0  0  0  0  0  0  0  0
   -0.1412    2.9520   -0.7930 C   0  0  0  0  0  0  0  0  0  0  0  0
   -5.0364    0.6610    1.0482 C   0  0  0  0  0  0  0  0  0  0  0  0
   -5.5591   -1.4103   -0.0803 C   0  0  0  0  0  0  0  0  0  0  0  0
   -6.3982    0.9240    1.1962 C   0  0  0  0  0  0  0  0  0  0  0  0
   -6.9209   -1.1471    0.0675 C   0  0  0  0  0  0  0  0  0  0  0  0
   -7.3406    0.0199    0.7058 C   0  0  0  0  0  0  0  0  0  0  0  0
   -9.5783   -0.6898    0.3259 C   0  0  0  0  0  0  0  0  0  0  0  0
    6.4652    0.7677   -0.0759 H   0  0  0  0  0  0  0  0  0  0  0  0
    6.1133   -1.6613    1.7495 H   0  0  0  0  0  0  0  0  0  0  0  0
    4.2104    0.3149    1.9887 H   0  0  0  0  0  0  0  0  0  0  0  0
    5.5905   -1.6029   -1.2649 H   0  0  0  0  0  0  0  0  0  0  0  0
    3.4617   -1.6835    0.9453 H   0  0  0  0  0  0  0  0  0  0  0  0
    4.7596    2.6414    0.0636 H   0  0  0  0  0  0  0  0  0  0  0  0
    4.9039    2.6865    1.8203 H   0  0  0  0  0  0  0  0  0  0  0  0
    6.8965    1.7827    1.8319 H   0  0  0  0  0  0  0  0  0  0  0  0
    8.1690   -1.0568    0.9976 H   0  0  0  0  0  0  0  0  0  0  0  0
    4.6152   -3.5941   -0.7270 H   0  0  0  0  0  0  0  0  0  0  0  0
    1.3181   -2.3720    0.8755 H   0  0  0  0  0  0  0  0  0  0  0  0
    1.7679   -0.4665   -2.9622 H   0  0  0  0  0  0  0  0  0  0  0  0
   -0.6055    0.1777   -2.9317 H   0  0  0  0  0  0  0  0  0  0  0  0
    0.7999    3.7775    0.9100 H   0  0  0  0  0  0  0  0  0  0  0  0
    0.4575    2.0143    1.0041 H   0  0  0  0  0  0  0  0  0  0  0  0
   -2.9541   -1.8391    2.1049 H   0  0  0  0  0  0  0  0  0  0  0  0
   -4.3141    1.3763    1.4347 H   0  0  0  0  0  0  0  0  0  0  0  0
   -5.2468   -2.3240   -0.5809 H   0  0  0  0  0  0  0  0  0  0  0  0
   -6.7192    1.8349    1.6941 H   0  0  0  0  0  0  0  0  0  0  0  0
   -7.5984   -1.8914   -0.3368 H   0  0  0  0  0  0  0  0  0  0  0  0
   -2.0399    3.3036   -1.0628 H   0  0  0  0  0  0  0  0  0  0  0  0
   -9.4784   -1.6544    0.8352 H   0  0  0  0  0  0  0  0  0  0  0  0
   -9.4838   -0.7827   -0.7614 H   0  0  0  0  0  0  0  0  0  0  0  0
  -10.5905   -0.3247    0.5286 H   0  0  0  0  0  0  0  0  0  0  0  0
  1 15  1  0  0  0  0
  1 17  1  0  0  0  0
  2 13  1  0  0  0  0
  2 45  1  0  0  0  0
  3 14  1  0  0  0  0
  3 46  1  0  0  0  0
  4 17  1  0  0  0  0
  4 19  1  0  0  0  0
  5 16  1  0  0  0  0
  5 47  1  0  0  0  0
  6 18  1  0  0  0  0
  6 22  1  0  0  0  0
  7 23  1  0  0  0  0
  7 29  1  0  0  0  0
  8 22  2  0  0  0  0
  9 27  2  0  0  0  0
 10 31  1  0  0  0  0
 10 58  1  0  0  0  0
 11 31  2  0  0  0  0
 12 36  1  0  0  0  0
 12 37  1  0  0  0  0
 13 14  1  0  0  0  0
 13 15  1  0  0  0  0
 13 38  1  0  0  0  0
 14 16  1  0  0  0  0
 14 39  1  0  0  0  0
 15 18  1  0  0  0  0
 15 40  1  0  0  0  0
 16 17  1  0  0  0  0
 16 41  1  0  0  0  0
 17 42  1  0  0  0  0
 18 43  1  0  0  0  0
 18 44  1  0  0  0  0
 19 20  2  0  0  0  0
 19 21  1  0  0  0  0
 20 23  1  0  0  0  0
 20 48  1  0  0  0  0
 21 25  2  0  0  0  0
 21 49  1  0  0  0  0
 22 26  1  0  0  0  0
 23 24  2  0  0  0  0
 24 25  1  0  0  0  0
 24 27  1  0  0  0  0
 25 50  1  0  0  0  0
 26 31  1  0  0  0  0
 26 51  1  0  0  0  0
 26 52  1  0  0  0  0
 27 28  1  0  0  0  0
 28 29  2  0  0  0  0
 28 30  1  0  0  0  0
 29 53  1  0  0  0  0
 30 32  2  0  0  0  0
 30 33  1  0  0  0  0
 32 34  1  0  0  0  0
 32 54  1  0  0  0  0
 33 35  2  0  0  0  0
 33 55  1  0  0  0  0
 34 36  2  0  0  0  0
 34 56  1  0  0  0  0
 35 36  1  0  0  0  0
 35 57  1  0  0  0  0
 37 59  1  0  0  0  0
 37 60  1  0  0  0  0
 37 61  1  0  0  0  0
M  END
> <PUBCHEM_COMPOUND_CID>
23724663

> <PUBCHEM_CONFORMER_RMSD>
1

> <PUBCHEM_CONFORMER_DIVERSEORDER>
1
54
16
40
25
34
60
48
57
59
61
39
21
42
41
12
22
31
58
49
28
53
67
3
37
65
14
17
56
51
52
45
10
19
18
44
15
7
35
30
20
47
26
27
9
36
38
33
23
4
2
32
62
11
63
5
24
46
66
13
29
8
43
6
50
55
64

> <PUBCHEM_MMFF94_PARTIAL_CHARGES>
49
1 -0.56
10 -0.65
11 -0.57
12 -0.36
13 0.28
14 0.28
15 0.28
16 0.28
17 0.56
18 0.28
19 0.08
2 -0.68
20 -0.15
21 -0.15
22 0.66
23 0.08
24 0.09
25 -0.15
26 0.12
27 0.47
28 -0.01
29 -0.07
3 -0.68
30 0.03
31 0.66
32 -0.15
33 -0.15
34 -0.15
35 -0.15
36 0.08
37 0.28
4 -0.36
45 0.4
46 0.4
47 0.4
48 0.15
49 0.15
5 -0.68
50 0.15
53 0.15
54 0.15
55 0.15
56 0.15
57 0.15
58 0.5
6 -0.43
7 -0.16
8 -0.57
9 -0.57

> <PUBCHEM_EFFECTIVE_ROTOR_COUNT>
10.2

> <PUBCHEM_PHARMACOPHORE_FEATURES>
20
1 1 acceptor
1 10 acceptor
1 11 acceptor
1 12 acceptor
1 2 acceptor
1 2 donor
1 26 anion
1 3 acceptor
1 3 donor
1 4 acceptor
1 5 acceptor
1 5 donor
1 7 acceptor
1 8 acceptor
1 9 acceptor
3 10 11 31 anion
6 1 13 14 15 16 17 rings
6 19 20 21 23 24 25 rings
6 30 32 33 34 35 36 rings
6 7 23 24 27 28 29 rings

> <PUBCHEM_HEAVY_ATOM_COUNT>
37

> <PUBCHEM_ATOM_DEF_STEREO_COUNT>
5

> <PUBCHEM_ATOM_UDEF_STEREO_COUNT>
0

> <PUBCHEM_BOND_DEF_STEREO_COUNT>
0

> <PUBCHEM_BOND_UDEF_STEREO_COUNT>
0

> <PUBCHEM_ISOTOPIC_ATOM_COUNT>
0

> <PUBCHEM_COMPONENT_COUNT>
1

> <PUBCHEM_CACTVS_TAUTO_COUNT>
1

> <PUBCHEM_CONFORMER_ID>
016A027700000001

> <PUBCHEM_MMFF94_ENERGY>
116.7574

> <PUBCHEM_FEATURE_SELFOVERLAP>
101.91

> <PUBCHEM_SHAPE_FINGERPRINT>
10 15 17458345251990622111
10162869 55 18186809054817828799
10299344 5 12175620681524288883
10688039 33 18201441402309176204
11135609 12 18272093807591666476
11456790 92 18413107285827806803
11534866 41 17775281660593344947
11828532 37 17845641544316351651
12107698 1 18335701671511414833
12166972 35 17632287999445380223
12422481 6 18260829327617196649
12633257 1 17987244334741225216
13402501 40 18411143558435248192
13692114 37 17916859103192610355
13811026 1 18339931509918401173
14295345 954 18410005521088724163
14400156 96 18198906907347395261
14725015 67 18342179989706432096
14849402 71 18337668616146453797
15064986 96 17676478433208351094
15131766 46 17314810507533196088
15419008 145 18262241143939903400
15419008 47 17846224371235961685
15840311 113 17676204671422905393
15968369 153 18040437719435511844
20812841 46 18410291424228575035
21304304 249 18343862212748701681
21792934 111 18342175588319755165
22122407 14 17968367974939683994
22223350 30 17416385581692369971
23559900 14 17346025663477307079
24893992 56 17988639663354759315
249057 3 18408601453588146583
392239 28 18342739632619223475
4112364 45 16877949299936013977
4144715 1 18335689577195330139
4149490 64 18268702815791207851
469060 322 17345750944832163380
513532 50 17603851283441249620
9555976 147 17604136057401223363

> <PUBCHEM_SHAPE_MULTIPOLES>
691.01
21.09
3.19
1.57
27.15
2.23
0.57
-5.69
-10.36
-3.9
0.37
-0.47
0.3
0.55

> <PUBCHEM_SHAPE_SELFOVERLAP>
1497.287

> <PUBCHEM_SHAPE_VOLUME>
373.3

> <PUBCHEM_COORDINATE_TYPE>
2
5
10

$$$$

