33743
  -OEChem-07051213133D

 28 32  0     0  0  0  0  0  0999 V2000
   -0.2186   -0.5347    0.0002 C   0  0  0  0  0  0  0  0  0  0  0  0
   -1.3127    0.3190    0.0002 C   0  0  0  0  0  0  0  0  0  0  0  0
    1.0565    0.0499    0.0002 C   0  0  0  0  0  0  0  0  0  0  0  0
   -1.2357    1.6825    0.0002 C   0  0  0  0  0  0  0  0  0  0  0  0
   -0.4567   -1.9152    0.0001 C   0  0  0  0  0  0  0  0  0  0  0  0
   -2.6162   -0.0874   -0.0001 C   0  0  0  0  0  0  0  0  0  0  0  0
    1.1791    1.4721    0.0000 C   0  0  0  0  0  0  0  0  0  0  0  0
    2.1764   -0.8015    0.0001 C   0  0  0  0  0  0  0  0  0  0  0  0
    0.0127    2.2858    0.0001 C   0  0  0  0  0  0  0  0  0  0  0  0
   -2.6052    2.1812    0.0000 C   0  0  0  0  0  0  0  0  0  0  0  0
   -3.4338    1.1186   -0.0002 C   0  0  0  0  0  0  0  0  0  0  0  0
   -1.8117   -2.3561   -0.0001 C   0  0  0  0  0  0  0  0  0  0  0  0
   -2.8916   -1.4434   -0.0002 C   0  0  0  0  0  0  0  0  0  0  0  0
    0.6740   -2.7480    0.0000 C   0  0  0  0  0  0  0  0  0  0  0  0
    1.9687   -2.1987    0.0000 C   0  0  0  0  0  0  0  0  0  0  0  0
    2.4714    2.0127   -0.0002 C   0  0  0  0  0  0  0  0  0  0  0  0
    3.4500   -0.2141   -0.0001 C   0  0  0  0  0  0  0  0  0  0  0  0
    3.5933    1.1773   -0.0002 C   0  0  0  0  0  0  0  0  0  0  0  0
    0.0952    3.3696    0.0000 H   0  0  0  0  0  0  0  0  0  0  0  0
   -2.8811    3.2226   -0.0001 H   0  0  0  0  0  0  0  0  0  0  0  0
   -4.5109    1.1324   -0.0005 H   0  0  0  0  0  0  0  0  0  0  0  0
   -2.0303   -3.4225   -0.0003 H   0  0  0  0  0  0  0  0  0  0  0  0
   -3.9131   -1.8099   -0.0004 H   0  0  0  0  0  0  0  0  0  0  0  0
    0.5593   -3.8296   -0.0001 H   0  0  0  0  0  0  0  0  0  0  0  0
    2.8209   -2.8760    0.0000 H   0  0  0  0  0  0  0  0  0  0  0  0
    2.6195    3.0904   -0.0005 H   0  0  0  0  0  0  0  0  0  0  0  0
    4.3434   -0.8347   -0.0001 H   0  0  0  0  0  0  0  0  0  0  0  0
    4.5882    1.6145   -0.0004 H   0  0  0  0  0  0  0  0  0  0  0  0
  1  2  1  0  0  0  0
  1  3  1  0  0  0  0
  1  5  2  0  0  0  0
  2  4  1  0  0  0  0
  2  6  2  0  0  0  0
  3  7  1  0  0  0  0
  3  8  2  0  0  0  0
  4  9  2  0  0  0  0
  4 10  1  0  0  0  0
  5 12  1  0  0  0  0
  5 14  1  0  0  0  0
  6 11  1  0  0  0  0
  6 13  1  0  0  0  0
  7  9  1  0  0  0  0
  7 16  2  0  0  0  0
  8 15  1  0  0  0  0
  8 17  1  0  0  0  0
  9 19  1  0  0  0  0
 10 11  2  0  0  0  0
 10 20  1  0  0  0  0
 11 21  1  0  0  0  0
 12 13  2  0  0  0  0
 12 22  1  0  0  0  0
 13 23  1  0  0  0  0
 14 15  2  0  0  0  0
 14 24  1  0  0  0  0
 15 25  1  0  0  0  0
 16 18  1  0  0  0  0
 16 26  1  0  0  0  0
 17 18  2  0  0  0  0
 17 27  1  0  0  0  0
 18 28  1  0  0  0  0
M  END
> <PUBCHEM_COMPOUND_CID>
33743

> <PUBCHEM_CONFORMER_RMSD>
0.4

> <PUBCHEM_CONFORMER_DIVERSEORDER>
1

> <PUBCHEM_MMFF94_PARTIAL_CHARGES>
22
10 -0.18
11 -0.18
12 -0.15
13 -0.15
14 -0.15
15 -0.15
16 -0.15
17 -0.15
18 -0.15
19 0.15
20 0.15
21 0.15
22 0.15
23 0.15
24 0.15
25 0.15
26 0.15
27 0.15
28 0.15
4 0.03
6 0.03
9 -0.15

> <PUBCHEM_EFFECTIVE_ROTOR_COUNT>
0

> <PUBCHEM_PHARMACOPHORE_FEATURES>
5
5 2 4 6 10 11 rings
6 1 2 3 4 7 9 rings
6 1 2 5 6 12 13 rings
6 1 3 5 8 14 15 rings
6 3 7 8 16 17 18 rings

> <PUBCHEM_HEAVY_ATOM_COUNT>
18

> <PUBCHEM_ATOM_DEF_STEREO_COUNT>
0

> <PUBCHEM_ATOM_UDEF_STEREO_COUNT>
0

> <PUBCHEM_BOND_DEF_STEREO_COUNT>
0

> <PUBCHEM_BOND_UDEF_STEREO_COUNT>
0

> <PUBCHEM_ISOTOPIC_ATOM_COUNT>
0

> <PUBCHEM_COMPONENT_COUNT>
1

> <PUBCHEM_CACTVS_TAUTO_COUNT>
1

> <PUBCHEM_CONFORMER_ID>
000083CF00000001

> <PUBCHEM_MMFF94_ENERGY>
75.3783

> <PUBCHEM_FEATURE_SELFOVERLAP>
25.704

> <PUBCHEM_SHAPE_FINGERPRINT>
10319926 262 18046086878248167736
10411042 1 16897645685549718818
10608611 8 18409450258672393488
10616163 171 18410853222587500078
10863032 1 18409449201941386720
10967382 1 18338799047222103493
1100329 8 18051977218744176987
11132069 177 18410580582511556720
11680986 33 18339355378657535875
12382932 28 18409730685539693706
12730499 353 17697609045656749013
13140716 1 18410856581162125248
13380535 76 18410579508484811458
13583140 156 16916795110096126033
138480 1 17546165663166006115
13897977 150 18339082695600082469
14178342 30 18410304617904112032
14223421 5 18411134753288048243
14790565 3 17476617799625500449
15196674 1 18410855443280686436
15442244 35 18339082712954206914
15536298 74 18261674882492511702
16945 1 18266740366562698437
193761 8 18410575123391851975
19591789 44 18410288073658516830
20510252 161 18189612731188704768
20905425 154 18335698334322105150
21267235 1 18339071610200041506
21501502 16 18411141346057540394
2334 1 18338516335289517344
23463225 33 18341897393985785056
23559900 14 18333728036293956476
238 59 17337069278101893533
2748010 2 18410854326256802270
335352 9 18194402414482280286
34934 24 18411145765615798233
350125 39 18339356349341334704
43471831 8 18341618092167847162
5104073 3 18410856547145408712
7364860 26 18263925621349197494
8809292 202 18342171172280959082
9709674 26 18408318886956305366

> <PUBCHEM_SHAPE_MULTIPOLES>
370.43
5.23
3.2
0.62
0.73
0.76
0
-1.32
0
-0.24
0
0
0
0

> <PUBCHEM_SHAPE_SELFOVERLAP>
891.976

> <PUBCHEM_SHAPE_VOLUME>
167.9

> <PUBCHEM_COORDINATE_TYPE>
2
5
10

$$$$

