5284419
  -OEChem-07051213103D

 80 84  0     1  0  0  0  0  0999 V2000
    3.4584   -0.4502    0.7078 O   0  0  0  0  0  0  0  0  0  0  0  0
    1.5652   -2.4494    0.5261 O   0  0  0  0  0  0  0  0  0  0  0  0
    0.6248   -4.6039    0.2021 O   0  0  0  0  0  0  0  0  0  0  0  0
    5.5270   -3.0330   -0.8619 O   0  0  0  0  0  0  0  0  0  0  0  0
    3.7174    1.8567    0.9423 O   0  0  0  0  0  0  0  0  0  0  0  0
    7.4169   -0.9251   -0.2779 O   0  0  0  0  0  0  0  0  0  0  0  0
    6.1300    1.7132   -0.5299 O   0  0  0  0  0  0  0  0  0  0  0  0
   -1.2566   -3.9325    2.2684 O   0  0  0  0  0  0  0  0  0  0  0  0
   -2.7545   -2.2404    0.6443 O   0  0  0  0  0  0  0  0  0  0  0  0
   -2.1337   -3.3632   -1.9053 O   0  0  0  0  0  0  0  0  0  0  0  0
   -0.9855    1.8245    0.2949 O   0  0  0  0  0  0  0  0  0  0  0  0
    1.6022    5.8551   -0.5163 O   0  0  0  0  0  0  0  0  0  0  0  0
   -0.9643    5.7361   -0.9421 O   0  0  0  0  0  0  0  0  0  0  0  0
   -5.1420   -0.4787   -1.8160 O   0  0  0  0  0  0  0  0  0  0  0  0
   -6.7449   -0.6526    0.4485 O   0  0  0  0  0  0  0  0  0  0  0  0
    3.7436   -1.6264   -0.0512 C   0  0  1  0  0  0  0  0  0  0  0  0
    5.2481   -1.9073   -0.0334 C   0  0  2  0  0  0  0  0  0  0  0  0
    6.0319   -0.6978   -0.5432 C   0  0  1  0  0  0  0  0  0  0  0  0
    5.5839    0.5862    0.1550 C   0  0  2  0  0  0  0  0  0  0  0  0
   -0.5952   -2.9355    1.4879 C   0  0  1  0  0  0  0  0  0  0  0  0
    0.7713   -3.4887    1.0879 C   0  0  2  0  0  0  0  0  0  0  0  0
   -1.4320   -2.6007    0.2519 C   0  0  1  0  0  0  0  0  0  0  0  0
   -1.4974   -3.7924   -0.7040 C   0  0  2  0  0  0  0  0  0  0  0  0
    4.0609    0.7173    0.1542 C   0  0  1  0  0  0  0  0  0  0  0  0
    2.9476   -2.7740    0.5622 C   0  0  0  0  0  0  0  0  0  0  0  0
   -0.0823   -4.3049   -1.0057 C   0  0  2  0  0  0  0  0  0  0  0  0
   -0.1026   -5.5836   -1.8387 C   0  0  0  0  0  0  0  0  0  0  0  0
    2.5756    2.5230    0.5903 C   0  0  0  0  0  0  0  0  0  0  0  0
    1.3494    1.8576    0.6031 C   0  0  0  0  0  0  0  0  0  0  0  0
    0.1832    2.5404    0.2553 C   0  0  0  0  0  0  0  0  0  0  0  0
    2.6396    3.8668    0.2203 C   0  0  0  0  0  0  0  0  0  0  0  0
    0.2529    3.8806   -0.1359 C   0  0  0  0  0  0  0  0  0  0  0  0
   -2.1444    2.6551    0.4676 C   0  0  1  0  0  0  0  0  0  0  0  0
   -2.2239    3.7190   -0.6256 C   0  0  0  0  0  0  0  0  0  0  0  0
    1.4796    4.5493   -0.1481 C   0  0  0  0  0  0  0  0  0  0  0  0
   -0.9787    4.5658   -0.5793 C   0  0  0  0  0  0  0  0  0  0  0  0
   -3.3732    1.7704    0.4590 C   0  0  0  0  0  0  0  0  0  0  0  0
   -3.7008    1.0427   -0.6850 C   0  0  0  0  0  0  0  0  0  0  0  0
   -4.1775    1.6831    1.5951 C   0  0  0  0  0  0  0  0  0  0  0  0
   -4.8325    0.2274   -0.6928 C   0  0  0  0  0  0  0  0  0  0  0  0
   -5.3095    0.8680    1.5873 C   0  0  0  0  0  0  0  0  0  0  0  0
   -5.6370    0.1401    0.4435 C   0  0  0  0  0  0  0  0  0  0  0  0
   -4.2682   -0.3338   -2.9338 C   0  0  0  0  0  0  0  0  0  0  0  0
   -6.5729   -2.0040    0.8710 C   0  0  0  0  0  0  0  0  0  0  0  0
    3.3820   -1.4753   -1.0775 H   0  0  0  0  0  0  0  0  0  0  0  0
    5.5783   -2.1588    0.9820 H   0  0  0  0  0  0  0  0  0  0  0  0
    5.9411   -0.6040   -1.6317 H   0  0  0  0  0  0  0  0  0  0  0  0
    5.9712    0.6211    1.1802 H   0  0  0  0  0  0  0  0  0  0  0  0
   -0.4957   -2.0401    2.1122 H   0  0  0  0  0  0  0  0  0  0  0  0
    1.2604   -3.8752    1.9912 H   0  0  0  0  0  0  0  0  0  0  0  0
   -1.0078   -1.7322   -0.2676 H   0  0  0  0  0  0  0  0  0  0  0  0
   -2.1179   -4.5849   -0.2694 H   0  0  0  0  0  0  0  0  0  0  0  0
    3.7012    0.8648   -0.8751 H   0  0  0  0  0  0  0  0  0  0  0  0
    3.2497   -2.9137    1.6074 H   0  0  0  0  0  0  0  0  0  0  0  0
    3.1240   -3.7035    0.0096 H   0  0  0  0  0  0  0  0  0  0  0  0
    0.4821   -3.5536   -1.5734 H   0  0  0  0  0  0  0  0  0  0  0  0
   -0.6221   -6.3880   -1.3064 H   0  0  0  0  0  0  0  0  0  0  0  0
   -0.5932   -5.4270   -2.8038 H   0  0  0  0  0  0  0  0  0  0  0  0
    0.9187   -5.9357   -2.0208 H   0  0  0  0  0  0  0  0  0  0  0  0
    5.2242   -2.8256   -1.7624 H   0  0  0  0  0  0  0  0  0  0  0  0
    7.5330   -0.9956    0.6850 H   0  0  0  0  0  0  0  0  0  0  0  0
    5.7945    1.7032   -1.4425 H   0  0  0  0  0  0  0  0  0  0  0  0
   -0.7276   -4.0760    3.0716 H   0  0  0  0  0  0  0  0  0  0  0  0
   -2.6839   -1.4822    1.2491 H   0  0  0  0  0  0  0  0  0  0  0  0
   -1.5765   -2.6786   -2.3134 H   0  0  0  0  0  0  0  0  0  0  0  0
    1.2821    0.8169    0.9070 H   0  0  0  0  0  0  0  0  0  0  0  0
    3.5987    4.3793    0.2119 H   0  0  0  0  0  0  0  0  0  0  0  0
   -2.0623    3.1411    1.4511 H   0  0  0  0  0  0  0  0  0  0  0  0
   -2.2766    3.2910   -1.6328 H   0  0  0  0  0  0  0  0  0  0  0  0
   -3.0964    4.3628   -0.4680 H   0  0  0  0  0  0  0  0  0  0  0  0
   -3.0345    1.1323   -1.5354 H   0  0  0  0  0  0  0  0  0  0  0  0
   -3.9357    2.2436    2.4940 H   0  0  0  0  0  0  0  0  0  0  0  0
    0.7305    6.2439   -0.6853 H   0  0  0  0  0  0  0  0  0  0  0  0
   -5.9318    0.8052    2.4758 H   0  0  0  0  0  0  0  0  0  0  0  0
   -4.2637    0.6942   -3.3123 H   0  0  0  0  0  0  0  0  0  0  0  0
   -3.2608   -0.7007   -2.7098 H   0  0  0  0  0  0  0  0  0  0  0  0
   -4.6640   -0.9656   -3.7358 H   0  0  0  0  0  0  0  0  0  0  0  0
   -5.8808   -2.5300    0.2056 H   0  0  0  0  0  0  0  0  0  0  0  0
   -6.2045   -2.0406    1.9011 H   0  0  0  0  0  0  0  0  0  0  0  0
   -7.5451   -2.5026    0.8290 H   0  0  0  0  0  0  0  0  0  0  0  0
  1 16  1  0  0  0  0
  1 24  1  0  0  0  0
  2 21  1  0  0  0  0
  2 25  1  0  0  0  0
  3 21  1  0  0  0  0
  3 26  1  0  0  0  0
  4 17  1  0  0  0  0
  4 60  1  0  0  0  0
  5 24  1  0  0  0  0
  5 28  1  0  0  0  0
  6 18  1  0  0  0  0
  6 61  1  0  0  0  0
  7 19  1  0  0  0  0
  7 62  1  0  0  0  0
  8 20  1  0  0  0  0
  8 63  1  0  0  0  0
  9 22  1  0  0  0  0
  9 64  1  0  0  0  0
 10 23  1  0  0  0  0
 10 65  1  0  0  0  0
 11 30  1  0  0  0  0
 11 33  1  0  0  0  0
 12 35  1  0  0  0  0
 12 73  1  0  0  0  0
 13 36  2  0  0  0  0
 14 40  1  0  0  0  0
 14 43  1  0  0  0  0
 15 42  1  0  0  0  0
 15 44  1  0  0  0  0
 16 17  1  0  0  0  0
 16 25  1  0  0  0  0
 16 45  1  0  0  0  0
 17 18  1  0  0  0  0
 17 46  1  0  0  0  0
 18 19  1  0  0  0  0
 18 47  1  0  0  0  0
 19 24  1  0  0  0  0
 19 48  1  0  0  0  0
 20 21  1  0  0  0  0
 20 22  1  0  0  0  0
 20 49  1  0  0  0  0
 21 50  1  0  0  0  0
 22 23  1  0  0  0  0
 22 51  1  0  0  0  0
 23 26  1  0  0  0  0
 23 52  1  0  0  0  0
 24 53  1  0  0  0  0
 25 54  1  0  0  0  0
 25 55  1  0  0  0  0
 26 27  1  0  0  0  0
 26 56  1  0  0  0  0
 27 57  1  0  0  0  0
 27 58  1  0  0  0  0
 27 59  1  0  0  0  0
 28 29  1  0  0  0  0
 28 31  2  0  0  0  0
 29 30  2  0  0  0  0
 29 66  1  0  0  0  0
 30 32  1  0  0  0  0
 31 35  1  0  0  0  0
 31 67  1  0  0  0  0
 32 35  2  0  0  0  0
 32 36  1  0  0  0  0
 33 34  1  0  0  0  0
 33 37  1  0  0  0  0
 33 68  1  0  0  0  0
 34 36  1  0  0  0  0
 34 69  1  0  0  0  0
 34 70  1  0  0  0  0
 37 38  2  0  0  0  0
 37 39  1  0  0  0  0
 38 40  1  0  0  0  0
 38 71  1  0  0  0  0
 39 41  2  0  0  0  0
 39 72  1  0  0  0  0
 40 42  2  0  0  0  0
 41 42  1  0  0  0  0
 41 74  1  0  0  0  0
 43 75  1  0  0  0  0
 43 76  1  0  0  0  0
 43 77  1  0  0  0  0
 44 78  1  0  0  0  0
 44 79  1  0  0  0  0
 44 80  1  0  0  0  0
M  END
> <PUBCHEM_COMPOUND_CID>
5284419

> <PUBCHEM_CONFORMER_RMSD>
1.2

> <PUBCHEM_CONFORMER_DIVERSEORDER>
1
168
239
22
224
45
65
109
244
129
54
44
64
125
181
99
63
184
97
126
265
142
278
210
110
162
41
250
178
252
50
154
61
227
262
188
135
131
251
258
33
30
275
241
211
196
59
150
186
248
172
253
47
214
217
180
230
240
115
264
105
219
103
117
128
233
119
157
164
197
259
198
76
88
222
272
55
225
226
146
243
177
90
263
274
112
149
116
205
77
74
71
49
72
52
175
276
206
46
255
144
273
87
212
229
114
48
127
98
94
89
11
158
37
58
122
106
121
268
277
261
95
145
57
199
245
12
136
155
91
124
213
152
62
220
148
40
254
36
231
85
207
108
215
104
246
107
147
235
35
195
216
120
234
190
208
43
256
160
20
111
28
81
183
137
201
156
84
221
2
18
203
189
200
60
269
159
247
151
123
279
79
23
96
113
171
138
232
193
173
66
75
191
39
163
82
16
69
267
161
67
187
24
101
118
14
56
223
26
130
242
182
260
204
249
270
68
53
141
266
228
179
4
42
134
257
192
143
5
139
132
236
34
102
31
51
176
21
209
38
166
83
80
280
8
237
32
93
29
165
185
78
238
153
92
140
73
169
13
70
170
218
7
9
25
15
6
10
133
167
174
271
194
3
17
100
86
19
202
27

> <PUBCHEM_MMFF94_PARTIAL_CHARGES>
55
1 -0.56
10 -0.68
11 -0.36
12 -0.53
13 -0.57
14 -0.36
15 -0.36
16 0.28
17 0.28
18 0.28
19 0.28
2 -0.56
20 0.28
21 0.56
22 0.28
23 0.28
24 0.56
25 0.28
26 0.28
28 0.08
29 -0.15
3 -0.56
30 0.08
31 -0.15
32 0.09
33 0.42
34 0.06
35 0.08
36 0.42
37 -0.14
38 -0.15
39 -0.15
4 -0.68
40 0.08
41 -0.15
42 0.08
43 0.28
44 0.28
5 -0.36
6 -0.68
60 0.4
61 0.4
62 0.4
63 0.4
64 0.4
65 0.4
66 0.15
67 0.15
7 -0.68
71 0.15
72 0.15
73 0.45
74 0.15
8 -0.68
9 -0.68

> <PUBCHEM_EFFECTIVE_ROTOR_COUNT>
11

> <PUBCHEM_PHARMACOPHORE_FEATURES>
26
1 1 acceptor
1 10 acceptor
1 10 donor
1 11 acceptor
1 12 donor
1 13 acceptor
1 14 acceptor
1 15 acceptor
1 2 acceptor
1 3 acceptor
1 4 acceptor
1 4 donor
1 5 acceptor
1 6 acceptor
1 6 donor
1 7 acceptor
1 7 donor
1 8 acceptor
1 8 donor
1 9 acceptor
1 9 donor
6 1 16 17 18 19 24 rings
6 11 30 32 33 34 36 rings
6 28 29 30 31 32 35 rings
6 3 20 21 22 23 26 rings
6 37 38 39 40 41 42 rings

> <PUBCHEM_HEAVY_ATOM_COUNT>
44

> <PUBCHEM_ATOM_DEF_STEREO_COUNT>
11

> <PUBCHEM_ATOM_UDEF_STEREO_COUNT>
0

> <PUBCHEM_BOND_DEF_STEREO_COUNT>
0

> <PUBCHEM_BOND_UDEF_STEREO_COUNT>
0

> <PUBCHEM_ISOTOPIC_ATOM_COUNT>
0

> <PUBCHEM_COMPONENT_COUNT>
1

> <PUBCHEM_CACTVS_TAUTO_COUNT>
9

> <PUBCHEM_CONFORMER_ID>
0050A24300000001

> <PUBCHEM_MMFF94_ENERGY>
156.4346

> <PUBCHEM_FEATURE_SELFOVERLAP>
132.086

> <PUBCHEM_SHAPE_FINGERPRINT>
10305334 12 18186798089644762501
10622 236 17679606458069389445
11227688 84 18194414500309800389
11513181 2 17902798796691765766
13383661 66 17824810377236406206
1361 2 18411697673240223577
14143925 63 18338507629754910006
14394314 77 18339072821703066329
15320291 9 17761787160731533008
15320467 1 18411417284942654522
15538507 32 18410846634846679220
15961568 22 18338510975867307403
15968369 153 18261965054572593786
16112460 7 18335133189566445392
16628084 112 18268430303482744126
19311894 1 18264499398810190479
19319366 153 17846498145373285730
19611394 137 18129643233086861203
20764821 26 18339647711274374654
21133410 62 18059306439017456335
21792965 11 17480577587277634287
463206 1 18411133615628519744
50677037 204 18262253139519575966
5309563 4 18340767147709552961
6036956 94 18055631965224943933
6608658 132 18337122266473792503

> <PUBCHEM_SHAPE_MULTIPOLES>
817.46
13.87
8.95
1.55
3.96
1.75
-0.51
-3.1
-0.11
1.68
-2.05
-2.11
-1.27
0.11

> <PUBCHEM_SHAPE_SELFOVERLAP>
1757.463

> <PUBCHEM_SHAPE_VOLUME>
446.2

> <PUBCHEM_COORDINATE_TYPE>
2
5
10

$$$$

