195786
  -OEChem-07051213123D

 36 38  0     0  0  0  0  0  0999 V2000
   -0.2679   -2.1231   -0.3899 O   0  0  0  0  0  0  0  0  0  0  0  0
    1.0205    3.0196    0.2795 O   0  0  0  0  0  0  0  0  0  0  0  0
   -4.0130    2.9806   -0.0179 O   0  0  0  0  0  0  0  0  0  0  0  0
    2.1837   -2.8391   -0.3297 O   0  0  0  0  0  0  0  0  0  0  0  0
    5.4255    0.5648    0.2503 O   0  0  0  0  0  0  0  0  0  0  0  0
   -1.0300    0.0929   -0.1796 C   0  0  0  0  0  0  0  0  0  0  0  0
   -2.3746   -0.2782   -0.2996 C   0  0  0  0  0  0  0  0  0  0  0  0
   -0.6912    1.4364   -0.0052 C   0  0  0  0  0  0  0  0  0  0  0  0
   -2.8430   -1.6863   -0.4892 C   0  0  0  0  0  0  0  0  0  0  0  0
    1.4357   -0.5381   -0.1096 C   0  0  0  0  0  0  0  0  0  0  0  0
    0.0210   -0.9434   -0.2381 C   0  0  0  0  0  0  0  0  0  0  0  0
    1.7745    0.8054    0.0650 C   0  0  0  0  0  0  0  0  0  0  0  0
    0.7234    1.8417    0.1238 C   0  0  0  0  0  0  0  0  0  0  0  0
   -3.1048   -2.3919    0.8468 C   0  0  0  0  0  0  0  0  0  0  0  0
   -3.3737    0.6940   -0.2449 C   0  0  0  0  0  0  0  0  0  0  0  0
   -1.6970    2.4086    0.0491 C   0  0  0  0  0  0  0  0  0  0  0  0
   -3.0356    2.0345   -0.0711 C   0  0  0  0  0  0  0  0  0  0  0  0
    2.4413   -1.5106   -0.1631 C   0  0  0  0  0  0  0  0  0  0  0  0
    3.1190    1.1762    0.1863 C   0  0  0  0  0  0  0  0  0  0  0  0
   -3.6119   -3.8112    0.6461 C   0  0  0  0  0  0  0  0  0  0  0  0
    4.1181    0.2038    0.1328 C   0  0  0  0  0  0  0  0  0  0  0  0
    3.7800   -1.1367   -0.0418 C   0  0  0  0  0  0  0  0  0  0  0  0
   -3.8027   -1.6546   -1.0285 H   0  0  0  0  0  0  0  0  0  0  0  0
   -2.2320   -2.2721   -1.1798 H   0  0  0  0  0  0  0  0  0  0  0  0
   -2.1891   -2.4229    1.4488 H   0  0  0  0  0  0  0  0  0  0  0  0
   -3.8442   -1.8301    1.4310 H   0  0  0  0  0  0  0  0  0  0  0  0
   -4.4231    0.4215   -0.3322 H   0  0  0  0  0  0  0  0  0  0  0  0
   -1.4458    3.4578    0.1848 H   0  0  0  0  0  0  0  0  0  0  0  0
    3.3955    2.2189    0.3226 H   0  0  0  0  0  0  0  0  0  0  0  0
   -4.5512   -3.8163    0.0840 H   0  0  0  0  0  0  0  0  0  0  0  0
   -2.8800   -4.4141    0.0992 H   0  0  0  0  0  0  0  0  0  0  0  0
   -3.7920   -4.2902    1.6135 H   0  0  0  0  0  0  0  0  0  0  0  0
    4.5697   -1.8834   -0.0816 H   0  0  0  0  0  0  0  0  0  0  0  0
   -3.6020    3.8533    0.1064 H   0  0  0  0  0  0  0  0  0  0  0  0
    3.0193   -3.3363   -0.3382 H   0  0  0  0  0  0  0  0  0  0  0  0
    5.4780    1.5293    0.3647 H   0  0  0  0  0  0  0  0  0  0  0  0
  1 11  2  0  0  0  0
  2 13  2  0  0  0  0
  3 17  1  0  0  0  0
  3 34  1  0  0  0  0
  4 18  1  0  0  0  0
  4 35  1  0  0  0  0
  5 21  1  0  0  0  0
  5 36  1  0  0  0  0
  6  7  2  0  0  0  0
  6  8  1  0  0  0  0
  6 11  1  0  0  0  0
  7  9  1  0  0  0  0
  7 15  1  0  0  0  0
  8 13  1  0  0  0  0
  8 16  2  0  0  0  0
  9 14  1  0  0  0  0
  9 23  1  0  0  0  0
  9 24  1  0  0  0  0
 10 11  1  0  0  0  0
 10 12  2  0  0  0  0
 10 18  1  0  0  0  0
 12 13  1  0  0  0  0
 12 19  1  0  0  0  0
 14 20  1  0  0  0  0
 14 25  1  0  0  0  0
 14 26  1  0  0  0  0
 15 17  2  0  0  0  0
 15 27  1  0  0  0  0
 16 17  1  0  0  0  0
 16 28  1  0  0  0  0
 18 22  2  0  0  0  0
 19 21  2  0  0  0  0
 19 29  1  0  0  0  0
 20 30  1  0  0  0  0
 20 31  1  0  0  0  0
 20 32  1  0  0  0  0
 21 22  1  0  0  0  0
 22 33  1  0  0  0  0
M  END
> <PUBCHEM_COMPOUND_CID>
195786

> <PUBCHEM_CONFORMER_RMSD>
0.6

> <PUBCHEM_CONFORMER_DIVERSEORDER>
2
1

> <PUBCHEM_MMFF94_PARTIAL_CHARGES>
27
1 -0.57
10 0.09
11 0.4
12 0.09
13 0.4
15 -0.15
16 -0.15
17 0.08
18 0.08
19 -0.15
2 -0.57
21 0.08
22 -0.15
27 0.15
28 0.15
29 0.15
3 -0.53
33 0.15
34 0.45
35 0.45
36 0.45
4 -0.53
5 -0.53
6 0.09
7 -0.14
8 0.09
9 0.14

> <PUBCHEM_EFFECTIVE_ROTOR_COUNT>
2

> <PUBCHEM_PHARMACOPHORE_FEATURES>
9
1 1 acceptor
1 2 acceptor
1 20 hydrophobe
1 3 donor
1 4 donor
1 5 donor
6 10 12 18 19 21 22 rings
6 6 7 8 15 16 17 rings
6 6 8 10 11 12 13 rings

> <PUBCHEM_HEAVY_ATOM_COUNT>
22

> <PUBCHEM_ATOM_DEF_STEREO_COUNT>
0

> <PUBCHEM_ATOM_UDEF_STEREO_COUNT>
0

> <PUBCHEM_BOND_DEF_STEREO_COUNT>
0

> <PUBCHEM_BOND_UDEF_STEREO_COUNT>
0

> <PUBCHEM_ISOTOPIC_ATOM_COUNT>
0

> <PUBCHEM_COMPONENT_COUNT>
1

> <PUBCHEM_CACTVS_TAUTO_COUNT>
135

> <PUBCHEM_CONFORMER_ID>
0002FCCA00000002

> <PUBCHEM_MMFF94_ENERGY>
65.9357

> <PUBCHEM_FEATURE_SELFOVERLAP>
45.711

> <PUBCHEM_SHAPE_FINGERPRINT>
10319926 262 18264510467868743082
10411042 1 18122907521348309463
10493431 412 18263639735742228625
10616163 171 18410011026787670790
10863032 1 18336267945896285884
10906281 52 18261100924786194629
10967382 1 18192714668323181004
1100329 8 17980767360908830523
11578080 2 5038852281683114792
12403259 226 18265054626269358456
13140716 1 18338523061588390618
133893 2 15911618148304087463
138480 1 16537642024703416659
14178342 30 18340218431108562320
14223421 5 18337954476453013571
14787075 74 17914330174196369426
14790565 3 16611938671261530653
15196674 1 18336549433721027212
15536298 74 18188776192292969820
16945 1 18264212404641651036
17492 89 18412263926403829234
19591789 44 18049720720051237622
20028762 73 17682113279592713326
20642791 178 18271235033112612228
20739085 24 17908967821859634481
21041028 32 18195523688994408655
21267235 1 18409442587902955478
221490 88 18338796689527833064
22182313 1 18113885079291234070
2334 1 18408605880986635518
23402539 116 18261967309910211964
23557571 272 18261385672190075942
23558518 356 18201434714754926265
23559900 14 18337684009303987481
2748010 2 18334576875500870478
335352 9 18120657100297552932
34934 24 18337679731706003404
350125 39 18266454296055825360
5104073 3 18408891745973902370
5309563 4 18051128095304842131
54173680 148 18411417306644227201
8809292 202 18413107273159194811
9709674 26 18335700593490876518

> <PUBCHEM_SHAPE_MULTIPOLES>
423.4
7.93
3.89
0.69
4.41
0.79
-0.03
1.46
-0.73
-4.2
-0.46
-0.2
0.17
0.82

> <PUBCHEM_SHAPE_SELFOVERLAP>
945.229

> <PUBCHEM_SHAPE_VOLUME>
224

> <PUBCHEM_COORDINATE_TYPE>
2
5
10

$$$$

