12109
  -OEChem-06261206323D

 27 28  0     0  0  0  0  0  0999 V2000
    0.4372   -1.1060   -0.0081 N   0  0  0  0  0  0  0  0  0  0  0  0
   -0.8850   -0.6148   -0.0252 C   0  0  0  0  0  0  0  0  0  0  0  0
    1.6917   -0.4669    0.0241 C   0  0  0  0  0  0  0  0  0  0  0  0
   -3.4997    0.3571   -0.0575 C   0  0  0  0  0  0  0  0  0  0  0  0
   -1.1640    0.6168   -0.6175 C   0  0  0  0  0  0  0  0  0  0  0  0
   -1.9133   -1.3604    0.5511 C   0  0  0  0  0  0  0  0  0  0  0  0
   -2.4714    1.1029   -0.6336 C   0  0  0  0  0  0  0  0  0  0  0  0
   -3.2208   -0.8745    0.5349 C   0  0  0  0  0  0  0  0  0  0  0  0
    2.8010   -1.0736   -0.5676 C   0  0  0  0  0  0  0  0  0  0  0  0
    1.8287    0.7747    0.6470 C   0  0  0  0  0  0  0  0  0  0  0  0
   -4.8975    0.8768   -0.0750 C   0  0  0  0  0  0  0  0  0  0  0  0
    4.0435   -0.4404   -0.5367 C   0  0  0  0  0  0  0  0  0  0  0  0
    3.0711    1.4080    0.6779 C   0  0  0  0  0  0  0  0  0  0  0  0
    4.1786    0.8003    0.0861 C   0  0  0  0  0  0  0  0  0  0  0  0
    0.4952   -2.1205   -0.0210 H   0  0  0  0  0  0  0  0  0  0  0  0
   -0.3870    1.2085   -1.0936 H   0  0  0  0  0  0  0  0  0  0  0  0
   -1.7083   -2.3213    1.0163 H   0  0  0  0  0  0  0  0  0  0  0  0
   -2.6774    2.0608   -1.1038 H   0  0  0  0  0  0  0  0  0  0  0  0
   -4.0136   -1.4655    0.9857 H   0  0  0  0  0  0  0  0  0  0  0  0
    2.7086   -2.0398   -1.0570 H   0  0  0  0  0  0  0  0  0  0  0  0
    0.9889    1.2615    1.1354 H   0  0  0  0  0  0  0  0  0  0  0  0
   -5.4596    0.5288    0.7984 H   0  0  0  0  0  0  0  0  0  0  0  0
   -4.9123    1.9717   -0.0495 H   0  0  0  0  0  0  0  0  0  0  0  0
   -5.4122    0.5398   -0.9803 H   0  0  0  0  0  0  0  0  0  0  0  0
    4.9059   -0.9134   -0.9974 H   0  0  0  0  0  0  0  0  0  0  0  0
    3.1778    2.3717    1.1671 H   0  0  0  0  0  0  0  0  0  0  0  0
    5.1462    1.2928    0.1113 H   0  0  0  0  0  0  0  0  0  0  0  0
  1  2  1  0  0  0  0
  1  3  1  0  0  0  0
  1 15  1  0  0  0  0
  2  5  2  0  0  0  0
  2  6  1  0  0  0  0
  3  9  2  0  0  0  0
  3 10  1  0  0  0  0
  4  7  2  0  0  0  0
  4  8  1  0  0  0  0
  4 11  1  0  0  0  0
  5  7  1  0  0  0  0
  5 16  1  0  0  0  0
  6  8  2  0  0  0  0
  6 17  1  0  0  0  0
  7 18  1  0  0  0  0
  8 19  1  0  0  0  0
  9 12  1  0  0  0  0
  9 20  1  0  0  0  0
 10 13  2  0  0  0  0
 10 21  1  0  0  0  0
 11 22  1  0  0  0  0
 11 23  1  0  0  0  0
 11 24  1  0  0  0  0
 12 14  2  0  0  0  0
 12 25  1  0  0  0  0
 13 14  1  0  0  0  0
 13 26  1  0  0  0  0
 14 27  1  0  0  0  0
M  END
> <PUBCHEM_COMPOUND_CID>
12109

> <PUBCHEM_CONFORMER_RMSD>
0.6

> <PUBCHEM_CONFORMER_DIVERSEORDER>
1
3
2

> <PUBCHEM_MMFF94_PARTIAL_CHARGES>
24
1 -0.6
10 -0.15
11 0.14
12 -0.15
13 -0.15
14 -0.15
15 0.4
16 0.15
17 0.15
18 0.15
19 0.15
2 0.1
20 0.15
21 0.15
25 0.15
26 0.15
27 0.15
3 0.1
4 -0.14
5 -0.15
6 -0.15
7 -0.15
8 -0.15
9 -0.15

> <PUBCHEM_EFFECTIVE_ROTOR_COUNT>
2

> <PUBCHEM_PHARMACOPHORE_FEATURES>
4
1 1 cation
1 1 donor
6 2 4 5 6 7 8 rings
6 3 9 10 12 13 14 rings

> <PUBCHEM_HEAVY_ATOM_COUNT>
14

> <PUBCHEM_ATOM_DEF_STEREO_COUNT>
0

> <PUBCHEM_ATOM_UDEF_STEREO_COUNT>
0

> <PUBCHEM_BOND_DEF_STEREO_COUNT>
0

> <PUBCHEM_BOND_UDEF_STEREO_COUNT>
0

> <PUBCHEM_ISOTOPIC_ATOM_COUNT>
0

> <PUBCHEM_COMPONENT_COUNT>
1

> <PUBCHEM_CACTVS_TAUTO_COUNT>
1

> <PUBCHEM_CONFORMER_ID>
00002F4D00000001

> <PUBCHEM_MMFF94_ENERGY>
52.863

> <PUBCHEM_FEATURE_SELFOVERLAP>
20.297

> <PUBCHEM_SHAPE_FINGERPRINT>
10608611 8 18410296895484309120
11132069 177 18202563969136384269
11471102 20 18113899364531431208
11543360 7 17313116224111858967
11615757 297 17603581911228451011
12500047 106 18341895177598381803
13081056 2 18410012147726694709
13214271 11 18341333306040214191
14993402 34 15574716889363914905
15219456 202 18408321073073267442
15242439 84 18410006663179947950
15375358 24 18410577275096406383
15653759 3 18272087180139896634
15775835 57 18059859479932290306
17834072 33 17822016385029910421
18175812 5 18410572872823668943
18186145 218 18408324410146655976
200 152 17385727997632361439
20279233 1 18410290311267743870
20528008 55 18412546513712856519
20645477 56 18343300370854358831
20645477 70 17967530220426357534
21119208 17 16081089285544324965
212847 35 18341894117084013196
22854114 59 18409730651222166185
23402539 116 18411708668408995070
23402655 69 17967813847075882564
23557571 272 18337380540079036551
23559900 14 18342737442566048358
4028521 119 18341620351594847517
4047638 21 18409729573570405760
5104073 3 18412545400910262811
69090 78 18335144180746614063
7364860 26 18198067078153673354
74978 22 15647345078254632626
77779 3 18409165502171694702
8272917 22 17458897266587633759

> <PUBCHEM_SHAPE_MULTIPOLES>
283.13
9.04
1.42
0.82
1.05
0.01
0.01
-2.11
-0.2
-0.05
0.1
-0.09
-0.04
0.89

> <PUBCHEM_SHAPE_SELFOVERLAP>
604.385

> <PUBCHEM_SHAPE_VOLUME>
157

> <PUBCHEM_COORDINATE_TYPE>
2
5
10

$$$$

