440351
  -OEChem-07051212492D

 28 30  0     1  0  0  0  0  0999 V2000
    4.3198    1.2673    0.0000 O   0  0  0  0  0  0  0  0  0  0  0  0
    2.5381    0.2568    0.0000 O   0  0  0  0  0  0  0  0  0  0  0  0
    4.3083    0.2674    0.0000 C   0  0  2  0  0  0  0  0  0  0  0  0
    5.2022   -0.2673    0.0000 C   0  0  0  0  0  0  0  0  0  0  0  0
    3.4022   -0.2465    0.0000 C   0  0  2  0  0  0  0  0  0  0  0  0
    5.2022   -1.2673    0.0000 C   0  0  0  0  0  0  0  0  0  0  0  0
    6.0682    0.2327    0.0000 C   0  0  0  0  0  0  0  0  0  0  0  0
    6.9343   -0.2673    0.0000 C   0  0  0  0  0  0  0  0  0  0  0  0
    3.4022   -1.2881    0.0000 C   0  0  0  0  0  0  0  0  0  0  0  0
    4.3083   -1.8020    0.0000 C   0  0  0  0  0  0  0  0  0  0  0  0
    6.0682   -1.7673    0.0000 C   0  0  0  0  0  0  0  0  0  0  0  0
    6.9343   -1.2673    0.0000 C   0  0  0  0  0  0  0  0  0  0  0  0
    6.0522    1.2742    0.0000 C   0  0  0  0  0  0  0  0  0  0  0  0
    7.8443    0.2395    0.0000 C   0  0  0  0  0  0  0  0  0  0  0  0
    6.9502    1.8020    0.0000 C   0  0  0  0  0  0  0  0  0  0  0  0
    7.8523    1.2812    0.0000 C   0  0  0  0  0  0  0  0  0  0  0  0
    3.7744    0.5825    0.0000 H   0  0  0  0  0  0  0  0  0  0  0  0
    2.8647   -0.5554    0.0000 H   0  0  0  0  0  0  0  0  0  0  0  0
    2.8665   -1.6002    0.0000 H   0  0  0  0  0  0  0  0  0  0  0  0
    4.3154   -2.4219    0.0000 H   0  0  0  0  0  0  0  0  0  0  0  0
    6.0682   -2.3873    0.0000 H   0  0  0  0  0  0  0  0  0  0  0  0
    7.4712   -1.5773    0.0000 H   0  0  0  0  0  0  0  0  0  0  0  0
    5.5117    1.5780    0.0000 H   0  0  0  0  0  0  0  0  0  0  0  0
    8.3776   -0.0766    0.0000 H   0  0  0  0  0  0  0  0  0  0  0  0
    3.7865    1.5835    0.0000 H   0  0  0  0  0  0  0  0  0  0  0  0
    6.9478    2.4220    0.0000 H   0  0  0  0  0  0  0  0  0  0  0  0
    2.0000   -0.0511    0.0000 H   0  0  0  0  0  0  0  0  0  0  0  0
    8.3904    1.5891    0.0000 H   0  0  0  0  0  0  0  0  0  0  0  0
  3  1  1  6  0  0  0
  1 25  1  0  0  0  0
  5  2  1  6  0  0  0
  2 27  1  0  0  0  0
  3  4  1  0  0  0  0
  3  5  1  0  0  0  0
  3 17  1  0  0  0  0
  4  6  2  0  0  0  0
  4  7  1  0  0  0  0
  5  9  1  0  0  0  0
  5 18  1  0  0  0  0
  6 10  1  0  0  0  0
  6 11  1  0  0  0  0
  7  8  1  0  0  0  0
  7 13  2  0  0  0  0
  8 12  1  0  0  0  0
  8 14  2  0  0  0  0
  9 10  2  0  0  0  0
  9 19  1  0  0  0  0
 10 20  1  0  0  0  0
 11 12  2  0  0  0  0
 11 21  1  0  0  0  0
 12 22  1  0  0  0  0
 13 15  1  0  0  0  0
 13 23  1  0  0  0  0
 14 16  1  0  0  0  0
 14 24  1  0  0  0  0
 15 16  2  0  0  0  0
 15 26  1  0  0  0  0
 16 28  1  0  0  0  0
M  END
> <PUBCHEM_COMPOUND_CID>
440351

> <PUBCHEM_COMPOUND_CANONICALIZED>
1

> <PUBCHEM_CACTVS_COMPLEXITY>
287

> <PUBCHEM_CACTVS_HBOND_ACCEPTOR>
2

> <PUBCHEM_CACTVS_HBOND_DONOR>
2

> <PUBCHEM_CACTVS_ROTATABLE_BOND>
0

> <PUBCHEM_CACTVS_SUBSKEYS>
AAADccBwMAAAAAAAAAAAAAAAAAAAAAAAAAAwYIAAAAAAAADBUAAAGgAACAAADBSgmAIwAMAAAgCAAiBCAAACAAAgAAAIiAAACIgJNiKAERCAcAAkwAEJmAeAwPAOwAACAAAQAACAAAQAACAAAAAAAAAAAA==

> <PUBCHEM_IUPAC_OPENEYE_NAME>
(3S,4R)-3,4-dihydrophenanthrene-3,4-diol

> <PUBCHEM_IUPAC_CAS_NAME>
(3S,4R)-3,4-dihydrophenanthrene-3,4-diol

> <PUBCHEM_IUPAC_NAME>
(3S,4R)-3,4-dihydrophenanthrene-3,4-diol

> <PUBCHEM_IUPAC_SYSTEMATIC_NAME>
(3S,4R)-3,4-dihydrophenanthrene-3,4-diol

> <PUBCHEM_IUPAC_TRADITIONAL_NAME>
(3S,4R)-3,4-dihydrophenanthrene-3,4-diol

> <PUBCHEM_IUPAC_INCHI>
InChI=1S/C14H12O2/c15-12-8-7-10-6-5-9-3-1-2-4-11(9)13(10)14(12)16/h1-8,12,14-16H/t12-,14-/m0/s1

> <PUBCHEM_IUPAC_INCHIKEY>
FOTICWSJABVKPW-JSGCOSHPSA-N

> <PUBCHEM_XLOGP3_AA>
2

> <PUBCHEM_EXACT_MASS>
212.08373

> <PUBCHEM_MOLECULAR_FORMULA>
C14H12O2

> <PUBCHEM_MOLECULAR_WEIGHT>
212.24388

> <PUBCHEM_OPENEYE_CAN_SMILES>
C1=CC=C2C(=C1)C=CC3=C2C(C(C=C3)O)O

> <PUBCHEM_OPENEYE_ISO_SMILES>
C1=CC=C2C(=C1)C=CC3=C2[C@H]([C@H](C=C3)O)O

> <PUBCHEM_CACTVS_TPSA>
40.5

> <PUBCHEM_MONOISOTOPIC_WEIGHT>
212.08373

> <PUBCHEM_TOTAL_CHARGE>
0

> <PUBCHEM_HEAVY_ATOM_COUNT>
16

> <PUBCHEM_ATOM_DEF_STEREO_COUNT>
2

> <PUBCHEM_ATOM_UDEF_STEREO_COUNT>
0

> <PUBCHEM_BOND_DEF_STEREO_COUNT>
0

> <PUBCHEM_BOND_UDEF_STEREO_COUNT>
0

> <PUBCHEM_ISOTOPIC_ATOM_COUNT>
0

> <PUBCHEM_COMPONENT_COUNT>
1

> <PUBCHEM_CACTVS_TAUTO_COUNT>
1

> <PUBCHEM_COORDINATE_TYPE>
1
5
255

> <PUBCHEM_BONDANNOTATIONS>
3  1  6
11  12  8
13  15  8
14  16  8
15  16  8
5  2  6
4  6  8
4  7  8
6  11  8
7  13  8
7  8  8
8  12  8
8  14  8

$$$$

