47205669
  -OEChem-06241222593D

 37 38  0     0  0  0  0  0  0999 V2000
    3.6748   -2.0673    0.3162 S   0  0  0  0  0  0  0  0  0  0  0  0
   -4.1103    0.2584   -1.3972 O   0  0  0  0  0  0  0  0  0  0  0  0
   -1.1831   -0.3846    0.6986 O   0  0  0  0  0  0  0  0  0  0  0  0
   -0.0756    1.6091    0.1350 N   0  0  0  0  0  0  0  0  0  0  0  0
   -3.5845    0.8345    0.7893 N   0  0  0  0  0  0  0  0  0  0  0  0
    5.2375   -0.1123   -0.3063 N   0  0  0  0  0  0  0  0  0  0  0  0
   -5.4748   -0.6021    0.4082 C   0  0  0  0  0  0  0  0  0  0  0  0
    1.2748    1.2025    0.0174 C   0  0  0  0  0  0  0  0  0  0  0  0
   -6.3093   -1.3115   -0.6542 C   0  0  0  0  0  0  0  0  0  0  0  0
    2.9583   -0.5125    0.1111 C   0  0  0  0  0  0  0  0  0  0  0  0
    3.9552    0.4101   -0.2206 C   0  0  0  0  0  0  0  0  0  0  0  0
    1.6113   -0.1360    0.2349 C   0  0  0  0  0  0  0  0  0  0  0  0
   -2.4404    1.6565    0.4739 C   0  0  0  0  0  0  0  0  0  0  0  0
   -4.3314    0.1971   -0.1906 C   0  0  0  0  0  0  0  0  0  0  0  0
    2.2490    2.1382   -0.3133 C   0  0  0  0  0  0  0  0  0  0  0  0
    3.5881    1.7565   -0.4350 C   0  0  0  0  0  0  0  0  0  0  0  0
   -1.1754    0.8176    0.4553 C   0  0  0  0  0  0  0  0  0  0  0  0
   -7.4665   -2.0776   -0.0346 C   0  0  0  0  0  0  0  0  0  0  0  0
    5.2069   -1.3981   -0.0440 C   0  0  0  0  0  0  0  0  0  0  0  0
    6.3954   -2.2786   -0.0440 C   0  0  0  0  0  0  0  0  0  0  0  0
   -6.1066    0.0851    0.9837 H   0  0  0  0  0  0  0  0  0  0  0  0
   -5.0530   -1.3362    1.1050 H   0  0  0  0  0  0  0  0  0  0  0  0
   -5.6784   -2.0045   -1.2234 H   0  0  0  0  0  0  0  0  0  0  0  0
   -6.7034   -0.5807   -1.3705 H   0  0  0  0  0  0  0  0  0  0  0  0
   -2.3569    2.4250    1.2485 H   0  0  0  0  0  0  0  0  0  0  0  0
   -2.5807    2.1322   -0.5021 H   0  0  0  0  0  0  0  0  0  0  0  0
    0.9040   -0.9090    0.4936 H   0  0  0  0  0  0  0  0  0  0  0  0
    1.9828    3.1791   -0.4818 H   0  0  0  0  0  0  0  0  0  0  0  0
   -0.2448    2.5979   -0.0374 H   0  0  0  0  0  0  0  0  0  0  0  0
   -3.8312    0.7113    1.7671 H   0  0  0  0  0  0  0  0  0  0  0  0
    4.3411    2.4956   -0.6940 H   0  0  0  0  0  0  0  0  0  0  0  0
   -8.1358   -1.4043    0.5105 H   0  0  0  0  0  0  0  0  0  0  0  0
   -8.0497   -2.5788   -0.8134 H   0  0  0  0  0  0  0  0  0  0  0  0
   -7.1038   -2.8402    0.6620 H   0  0  0  0  0  0  0  0  0  0  0  0
    6.5485   -2.7326    0.9404 H   0  0  0  0  0  0  0  0  0  0  0  0
    6.2935   -3.0768   -0.7863 H   0  0  0  0  0  0  0  0  0  0  0  0
    7.2965   -1.7076   -0.2910 H   0  0  0  0  0  0  0  0  0  0  0  0
  1 10  1  0  0  0  0
  1 19  1  0  0  0  0
  2 14  2  0  0  0  0
  3 17  2  0  0  0  0
  4  8  1  0  0  0  0
  4 17  1  0  0  0  0
  4 29  1  0  0  0  0
  5 13  1  0  0  0  0
  5 14  1  0  0  0  0
  5 30  1  0  0  0  0
  6 11  1  0  0  0  0
  6 19  2  0  0  0  0
  7  9  1  0  0  0  0
  7 14  1  0  0  0  0
  7 21  1  0  0  0  0
  7 22  1  0  0  0  0
  8 12  2  0  0  0  0
  8 15  1  0  0  0  0
  9 18  1  0  0  0  0
  9 23  1  0  0  0  0
  9 24  1  0  0  0  0
 10 11  2  0  0  0  0
 10 12  1  0  0  0  0
 11 16  1  0  0  0  0
 12 27  1  0  0  0  0
 13 17  1  0  0  0  0
 13 25  1  0  0  0  0
 13 26  1  0  0  0  0
 15 16  2  0  0  0  0
 15 28  1  0  0  0  0
 16 31  1  0  0  0  0
 18 32  1  0  0  0  0
 18 33  1  0  0  0  0
 18 34  1  0  0  0  0
 19 20  1  0  0  0  0
 20 35  1  0  0  0  0
 20 36  1  0  0  0  0
 20 37  1  0  0  0  0
M  END
> <PUBCHEM_COMPOUND_CID>
47205669

> <PUBCHEM_CONFORMER_RMSD>
0.8

> <PUBCHEM_CONFORMER_DIVERSEORDER>
1
79
61
117
87
62
26
71
52
97
119
8
43
13
85
37
54
46
105
15
94
120
29
7
106
2
11
56
114
60
30
64
18
110
66
40
47
101
115
67
113
4
90
17
35
21
25
32
76
96
80
109
59
42
44
73
6
27
104
57
63
93
36
81
65
19
70
98
92
16
75
20
83
103
107
99
48
23
55
10
53
89
91
9
34
38
50
12
74
86
102
41
39
95
100
5
111
108
58
22
33
28
78
72
88
14
68
3
51
116
84
118
45
77
112
31
69
24
49
82

> <PUBCHEM_MMFF94_PARTIAL_CHARGES>
23
1 -0.08
10 0.04
11 0.23
12 -0.15
13 0.36
14 0.57
15 -0.15
16 -0.15
17 0.57
19 0.2
2 -0.57
20 0.18
27 0.15
28 0.15
29 0.37
3 -0.57
30 0.37
31 0.15
4 -0.55
5 -0.73
6 -0.57
7 0.06
8 0.12

> <PUBCHEM_EFFECTIVE_ROTOR_COUNT>
7

> <PUBCHEM_PHARMACOPHORE_FEATURES>
8
1 18 hydrophobe
1 2 acceptor
1 3 acceptor
1 4 donor
1 5 donor
1 6 acceptor
5 1 6 10 11 19 rings
6 8 10 11 12 15 16 rings

> <PUBCHEM_HEAVY_ATOM_COUNT>
20

> <PUBCHEM_ATOM_DEF_STEREO_COUNT>
0

> <PUBCHEM_ATOM_UDEF_STEREO_COUNT>
0

> <PUBCHEM_BOND_DEF_STEREO_COUNT>
0

> <PUBCHEM_BOND_UDEF_STEREO_COUNT>
0

> <PUBCHEM_ISOTOPIC_ATOM_COUNT>
0

> <PUBCHEM_COMPONENT_COUNT>
1

> <PUBCHEM_CACTVS_TAUTO_COUNT>
4

> <PUBCHEM_CONFORMER_ID>
02D04D2500000001

> <PUBCHEM_MMFF94_ENERGY>
36.7025

> <PUBCHEM_FEATURE_SELFOVERLAP>
40.666

> <PUBCHEM_SHAPE_FINGERPRINT>
10595046 47 18409443670335421537
106641 1 17967821540137679186
10670039 82 14907907123211826567
10693767 8 18200880703077354514
10740516 88 17170375563527850814
11089746 13 12175618451908604943
11135609 99 18408886205297882558
117890 112 9799693696979967483
12166972 35 18273211980672723069
12236239 1 18259701211575638625
12555020 224 18201999940998745171
12596602 18 17531247292253592914
12616971 3 16443351944680062337
13073987 5 18260266330667237017
13167823 11 18334575763094018409
13533116 47 18335983077721572128
13668630 136 18411138051955066855
13685833 64 18410011035493604459
13862211 1 18341894156039600850
13955234 65 18116157657993673872
14251740 57 17750224962942754326
14347332 77 18411984689173053813
14350574 20 18343021077932147997
14576447 43 18412544344912640608
15048467 5 10015864280075854927
15348495 7 5617247156960347271
15519825 34 14201977662248329039
17134984 74 17775289335288270459
17492 89 18190175870078586319
17857418 61 18335138696030893099
18222031 100 18341334491725384144
200 152 18334294287953927065
20028762 73 18334013921390567326
20526848 3 10231756699741605903
20567600 247 18335424547769630659
20645477 70 18343863316644857080
21130935 74 18116997891869083506
21150785 3 17561360656200405542
21267235 1 18335697265144195638
21637258 2 17749395820027902709
221357 26 18202569475390251717
22393880 68 17988936608091415597
22956985 138 17243275391297276446
23402539 116 18337109085039630688
23522609 53 18120619583432350321
23559900 14 18272087149859302688
270888 7 9871744693700247851
2871803 45 17988923414141708520
29717793 49 18410290328394989189
3004659 81 18273217499388732315
312425 54 14129057006915985511
314194 84 18341322401086581994
33532 11 18336828573232976599
34797466 226 16916782930064513141
351380 3 18259706700796881575
439807 62 18410855439566253679
46194498 28 17560804269052361365
465052 167 18260264148833809062
5104073 3 17821728342637235377
559249 180 18261393378084026153
5718773 13 18341054133335272994
602551 16 15792026544978679428
6025842 7 18270394984980689972
7495541 125 17603589612120819288
999808 66 18058439925782924787

> <PUBCHEM_SHAPE_MULTIPOLES>
388.76
17.84
2.41
0.81
20.3
0.37
-0.07
14.55
-2.17
-1.52
-0.03
0.54
-0.03
-0.73

> <PUBCHEM_SHAPE_SELFOVERLAP>
797.799

> <PUBCHEM_SHAPE_VOLUME>
225.5

> <PUBCHEM_COORDINATE_TYPE>
2
5
10

$$$$

