11697
  -OEChem-06261206002D

 35 34  0     1  0  0  0  0  0999 V2000
    4.5981    0.1340    0.0000 P   0  0  3  0  0  0  0  0  0  0  0  0
    6.3301    0.1340    0.0000 P   0  0  0  0  0  0  0  0  0  0  0  0
    5.4641    0.6340    0.0000 O   0  0  0  0  0  0  0  0  0  0  0  0
    4.0981    1.0000    0.0000 O   0  0  0  0  0  0  0  0  0  0  0  0
    5.0981   -0.7321    0.0000 O   0  0  0  0  0  0  0  0  0  0  0  0
    7.1962   -0.3660    0.0000 O   0  0  0  0  0  0  0  0  0  0  0  0
    6.8301    1.0000    0.0000 O   0  0  0  0  0  0  0  0  0  0  0  0
    5.8301   -0.7321    0.0000 O   0  0  0  0  0  0  0  0  0  0  0  0
    3.7320   -0.3660    0.0000 N   0  0  0  0  0  0  0  0  0  0  0  0
    2.8660    0.1340    0.0000 C   0  0  0  0  0  0  0  0  0  0  0  0
    3.7320   -1.3660    0.0000 C   0  0  0  0  0  0  0  0  0  0  0  0
    2.0000   -0.3660    0.0000 C   0  0  0  0  0  0  0  0  0  0  0  0
    2.8660   -1.8660    0.0000 C   0  0  0  0  0  0  0  0  0  0  0  0
    4.5981    1.8660    0.0000 C   0  0  0  0  0  0  0  0  0  0  0  0
    8.0622    0.1340    0.0000 C   0  0  0  0  0  0  0  0  0  0  0  0
    6.3301    1.8660    0.0000 C   0  0  0  0  0  0  0  0  0  0  0  0
    3.2646    0.6089    0.0000 H   0  0  0  0  0  0  0  0  0  0  0  0
    2.4675    0.6089    0.0000 H   0  0  0  0  0  0  0  0  0  0  0  0
    3.9441   -1.9486    0.0000 H   0  0  0  0  0  0  0  0  0  0  0  0
    4.3426   -1.2584    0.0000 H   0  0  0  0  0  0  0  0  0  0  0  0
    2.5560   -1.3291    0.0000 H   0  0  0  0  0  0  0  0  0  0  0  0
    2.3291   -2.1760    0.0000 H   0  0  0  0  0  0  0  0  0  0  0  0
    3.1760   -2.4030    0.0000 H   0  0  0  0  0  0  0  0  0  0  0  0
    1.6900    0.1709    0.0000 H   0  0  0  0  0  0  0  0  0  0  0  0
    1.4631   -0.6760    0.0000 H   0  0  0  0  0  0  0  0  0  0  0  0
    2.3100   -0.9030    0.0000 H   0  0  0  0  0  0  0  0  0  0  0  0
    5.1350    1.5560    0.0000 H   0  0  0  0  0  0  0  0  0  0  0  0
    4.9081    2.4030    0.0000 H   0  0  0  0  0  0  0  0  0  0  0  0
    4.0611    2.1760    0.0000 H   0  0  0  0  0  0  0  0  0  0  0  0
    6.8671    2.1760    0.0000 H   0  0  0  0  0  0  0  0  0  0  0  0
    6.0201    2.4030    0.0000 H   0  0  0  0  0  0  0  0  0  0  0  0
    5.7932    1.5560    0.0000 H   0  0  0  0  0  0  0  0  0  0  0  0
    8.3722   -0.4030    0.0000 H   0  0  0  0  0  0  0  0  0  0  0  0
    8.5991    0.4440    0.0000 H   0  0  0  0  0  0  0  0  0  0  0  0
    7.7522    0.6709    0.0000 H   0  0  0  0  0  0  0  0  0  0  0  0
  1  3  1  0  0  0  0
  1  4  1  0  0  0  0
  1  5  2  0  0  0  0
  1  9  1  0  0  0  0
  2  3  1  0  0  0  0
  2  6  1  0  0  0  0
  2  7  1  0  0  0  0
  2  8  2  0  0  0  0
  4 14  1  0  0  0  0
  6 15  1  0  0  0  0
  7 16  1  0  0  0  0
  9 10  1  0  0  0  0
  9 11  1  0  0  0  0
 10 12  1  0  0  0  0
 10 17  1  0  0  0  0
 10 18  1  0  0  0  0
 11 13  1  0  0  0  0
 11 19  1  0  0  0  0
 11 20  1  0  0  0  0
 12 24  1  0  0  0  0
 12 25  1  0  0  0  0
 12 26  1  0  0  0  0
 13 21  1  0  0  0  0
 13 22  1  0  0  0  0
 13 23  1  0  0  0  0
 14 27  1  0  0  0  0
 14 28  1  0  0  0  0
 14 29  1  0  0  0  0
 15 33  1  0  0  0  0
 15 34  1  0  0  0  0
 15 35  1  0  0  0  0
 16 30  1  0  0  0  0
 16 31  1  0  0  0  0
 16 32  1  0  0  0  0
M  END
> <PUBCHEM_COMPOUND_CID>
11697

> <PUBCHEM_COMPOUND_CANONICALIZED>
1

> <PUBCHEM_CACTVS_COMPLEXITY>
285

> <PUBCHEM_CACTVS_HBOND_ACCEPTOR>
7

> <PUBCHEM_CACTVS_HBOND_DONOR>
0

> <PUBCHEM_CACTVS_ROTATABLE_BOND>
8

> <PUBCHEM_CACTVS_SUBSKEYS>
AAADceBiOAMAAAAAAAAAAAAAAAAAAAAAAAAAAAAAAAAAAAAAAAAAHgAAgCAAAADBAAYCAAIAARAAQAAAAIAAAAAAAAAAAAAIAAAAAAAAAAAAAAAAAACAAAAAAAAAAAAAAAAAAAAAAAAAAAAAAAAAAAAAAA==

> <PUBCHEM_IUPAC_OPENEYE_NAME>
[diethylamino(methoxy)phosphoryl] dimethyl phosphate

> <PUBCHEM_IUPAC_CAS_NAME>
phosphoric acid [diethylamino(methoxy)phosphoryl] dimethyl ester

> <PUBCHEM_IUPAC_NAME>
[diethylamino(methoxy)phosphoryl] dimethyl phosphate

> <PUBCHEM_IUPAC_SYSTEMATIC_NAME>
[diethylamino(methoxy)phosphoryl] dimethyl phosphate

> <PUBCHEM_IUPAC_TRADITIONAL_NAME>
phosphoric acid [diethylamino(methoxy)phosphoryl] dimethyl ester

> <PUBCHEM_IUPAC_INCHI>
InChI=1S/C7H19NO6P2/c1-6-8(7-2)15(9,11-3)14-16(10,12-4)13-5/h6-7H2,1-5H3

> <PUBCHEM_IUPAC_INCHIKEY>
KWNADQGGXNRKNB-UHFFFAOYSA-N

> <PUBCHEM_XLOGP3_AA>
-0.1

> <PUBCHEM_EXACT_MASS>
275.068761

> <PUBCHEM_MOLECULAR_FORMULA>
C7H19NO6P2

> <PUBCHEM_MOLECULAR_WEIGHT>
275.176384

> <PUBCHEM_OPENEYE_CAN_SMILES>
CCN(CC)P(=O)(OC)OP(=O)(OC)OC

> <PUBCHEM_OPENEYE_ISO_SMILES>
CCN(CC)P(=O)(OC)OP(=O)(OC)OC

> <PUBCHEM_CACTVS_TPSA>
74.3

> <PUBCHEM_MONOISOTOPIC_WEIGHT>
275.068761

> <PUBCHEM_TOTAL_CHARGE>
0

> <PUBCHEM_HEAVY_ATOM_COUNT>
16

> <PUBCHEM_ATOM_DEF_STEREO_COUNT>
0

> <PUBCHEM_ATOM_UDEF_STEREO_COUNT>
1

> <PUBCHEM_BOND_DEF_STEREO_COUNT>
0

> <PUBCHEM_BOND_UDEF_STEREO_COUNT>
0

> <PUBCHEM_ISOTOPIC_ATOM_COUNT>
0

> <PUBCHEM_COMPONENT_COUNT>
1

> <PUBCHEM_CACTVS_TAUTO_COUNT>
1

> <PUBCHEM_COORDINATE_TYPE>
1
5
255

> <PUBCHEM_BONDANNOTATIONS>
1  3  3

$$$$

