23724599
  -OEChem-07051213083D

 97 97  0     0  0  0  0  0  0999 V2000
   16.8752   -0.7794   -0.5854 O   0  0  0  0  0  0  0  0  0  0  0  0
  -12.1044   -2.1488   -0.0997 C   0  0  0  0  0  0  0  0  0  0  0  0
  -13.5188   -2.7683    0.0685 C   0  0  0  0  0  0  0  0  0  0  0  0
  -14.5927   -1.9443   -0.6190 C   0  0  0  0  0  0  0  0  0  0  0  0
  -12.1212   -0.6197    0.1333 C   0  0  0  0  0  0  0  0  0  0  0  0
  -14.6345   -0.5440   -0.0260 C   0  0  0  0  0  0  0  0  0  0  0  0
  -13.2756    0.0909    0.1907 C   0  0  0  0  0  0  0  0  0  0  0  0
  -11.1940   -2.8830    0.9150 C   0  0  0  0  0  0  0  0  0  0  0  0
  -11.5908   -2.4484   -1.5269 C   0  0  0  0  0  0  0  0  0  0  0  0
  -10.8177    0.0113    0.2607 C   0  0  0  0  0  0  0  0  0  0  0  0
  -13.3873    1.5726    0.4667 C   0  0  0  0  0  0  0  0  0  0  0  0
  -10.5126    1.1920   -0.2980 C   0  0  0  0  0  0  0  0  0  0  0  0
   -9.2263    1.8578   -0.1576 C   0  0  0  0  0  0  0  0  0  0  0  0
   -9.3337    3.3508    0.0064 C   0  0  0  0  0  0  0  0  0  0  0  0
   -8.0227    1.2515   -0.1782 C   0  0  0  0  0  0  0  0  0  0  0  0
   -6.7230    1.8819   -0.0416 C   0  0  0  0  0  0  0  0  0  0  0  0
   -5.5738    1.1863   -0.0755 C   0  0  0  0  0  0  0  0  0  0  0  0
   16.3399    0.5463   -0.5524 C   0  0  0  0  0  0  0  0  0  0  0  0
   15.3350    0.6648    0.6145 C   0  0  0  0  0  0  0  0  0  0  0  0
   17.5095    1.5114   -0.3297 C   0  0  0  0  0  0  0  0  0  0  0  0
   15.6970    0.8211   -1.9137 C   0  0  0  0  0  0  0  0  0  0  0  0
   -4.2158    1.7306    0.0298 C   0  0  0  0  0  0  0  0  0  0  0  0
   14.1739   -0.2906    0.5194 C   0  0  0  0  0  0  0  0  0  0  0  0
   -4.0849    3.2255    0.1829 C   0  0  0  0  0  0  0  0  0  0  0  0
   12.8886    0.1006    0.5174 C   0  0  0  0  0  0  0  0  0  0  0  0
   -3.1774    0.8677   -0.0259 C   0  0  0  0  0  0  0  0  0  0  0  0
   11.7098   -0.7647    0.4140 C   0  0  0  0  0  0  0  0  0  0  0  0
   -1.7645    1.1811    0.0689 C   0  0  0  0  0  0  0  0  0  0  0  0
   11.9581   -2.2463    0.2919 C   0  0  0  0  0  0  0  0  0  0  0  0
   10.4870   -0.1919    0.4287 C   0  0  0  0  0  0  0  0  0  0  0  0
    9.2008   -0.8514    0.3118 C   0  0  0  0  0  0  0  0  0  0  0  0
   -0.7285    0.3259    0.0140 C   0  0  0  0  0  0  0  0  0  0  0  0
    8.0358   -0.1818    0.3390 C   0  0  0  0  0  0  0  0  0  0  0  0
    0.6839    0.6390    0.1087 C   0  0  0  0  0  0  0  0  0  0  0  0
    6.7157   -0.7905    0.1980 C   0  0  0  0  0  0  0  0  0  0  0  0
    1.7136   -0.2311    0.0519 C   0  0  0  0  0  0  0  0  0  0  0  0
    5.5900   -0.0493    0.2360 C   0  0  0  0  0  0  0  0  0  0  0  0
    6.7605   -2.2734   -0.0615 C   0  0  0  0  0  0  0  0  0  0  0  0
    3.0973    0.2254    0.1627 C   0  0  0  0  0  0  0  0  0  0  0  0
    4.2220   -0.5094    0.1254 C   0  0  0  0  0  0  0  0  0  0  0  0
    1.6065   -1.7179   -0.1650 C   0  0  0  0  0  0  0  0  0  0  0  0
  -13.5385   -3.7925   -0.3252 H   0  0  0  0  0  0  0  0  0  0  0  0
  -13.7697   -2.8459    1.1358 H   0  0  0  0  0  0  0  0  0  0  0  0
  -14.4056   -1.8913   -1.6977 H   0  0  0  0  0  0  0  0  0  0  0  0
  -15.5704   -2.4242   -0.4955 H   0  0  0  0  0  0  0  0  0  0  0  0
  -15.2365    0.0886   -0.6902 H   0  0  0  0  0  0  0  0  0  0  0  0
  -15.1549   -0.5775    0.9400 H   0  0  0  0  0  0  0  0  0  0  0  0
  -11.3193   -3.9699    0.8369 H   0  0  0  0  0  0  0  0  0  0  0  0
  -11.4324   -2.5954    1.9455 H   0  0  0  0  0  0  0  0  0  0  0  0
  -10.1313   -2.6815    0.7418 H   0  0  0  0  0  0  0  0  0  0  0  0
  -12.1779   -1.9260   -2.2899 H   0  0  0  0  0  0  0  0  0  0  0  0
  -10.5470   -2.1370   -1.6508 H   0  0  0  0  0  0  0  0  0  0  0  0
  -11.6360   -3.5214   -1.7464 H   0  0  0  0  0  0  0  0  0  0  0  0
  -10.0860   -0.4867    0.8888 H   0  0  0  0  0  0  0  0  0  0  0  0
  -13.4776    2.1341   -0.4683 H   0  0  0  0  0  0  0  0  0  0  0  0
  -14.2872    1.7745    1.0606 H   0  0  0  0  0  0  0  0  0  0  0  0
  -12.5621    1.9697    1.0629 H   0  0  0  0  0  0  0  0  0  0  0  0
  -11.2141    1.7092   -0.9471 H   0  0  0  0  0  0  0  0  0  0  0  0
   -9.1625    3.8539   -0.9512 H   0  0  0  0  0  0  0  0  0  0  0  0
   -8.6296    3.7413    0.7480 H   0  0  0  0  0  0  0  0  0  0  0  0
  -10.3285    3.6452    0.3624 H   0  0  0  0  0  0  0  0  0  0  0  0
   -7.9953    0.1706   -0.3143 H   0  0  0  0  0  0  0  0  0  0  0  0
   -6.7006    2.9599    0.0708 H   0  0  0  0  0  0  0  0  0  0  0  0
   -5.6354    0.1046   -0.1972 H   0  0  0  0  0  0  0  0  0  0  0  0
   15.8522    0.4366    1.5558 H   0  0  0  0  0  0  0  0  0  0  0  0
   14.9778    1.6997    0.6896 H   0  0  0  0  0  0  0  0  0  0  0  0
   17.1749    2.5536   -0.3094 H   0  0  0  0  0  0  0  0  0  0  0  0
   18.0207    1.2913    0.6145 H   0  0  0  0  0  0  0  0  0  0  0  0
   18.2617    1.4024   -1.1195 H   0  0  0  0  0  0  0  0  0  0  0  0
   15.2552    1.8222   -1.9531 H   0  0  0  0  0  0  0  0  0  0  0  0
   14.9175    0.0885   -2.1496 H   0  0  0  0  0  0  0  0  0  0  0  0
   16.4393    0.7400   -2.7164 H   0  0  0  0  0  0  0  0  0  0  0  0
   14.4278   -1.3454    0.4724 H   0  0  0  0  0  0  0  0  0  0  0  0
   16.1871   -1.3842   -0.9095 H   0  0  0  0  0  0  0  0  0  0  0  0
   -4.5384    3.7397   -0.6722 H   0  0  0  0  0  0  0  0  0  0  0  0
   -3.0537    3.5784    0.2424 H   0  0  0  0  0  0  0  0  0  0  0  0
   -4.5825    3.5615    1.0996 H   0  0  0  0  0  0  0  0  0  0  0  0
   12.6884    1.1694    0.5833 H   0  0  0  0  0  0  0  0  0  0  0  0
   -3.3828   -0.1963   -0.1460 H   0  0  0  0  0  0  0  0  0  0  0  0
   12.5451   -2.4640   -0.6075 H   0  0  0  0  0  0  0  0  0  0  0  0
   12.5048   -2.6167    1.1666 H   0  0  0  0  0  0  0  0  0  0  0  0
   11.0494   -2.8468    0.2216 H   0  0  0  0  0  0  0  0  0  0  0  0
   -1.5105    2.2293    0.2002 H   0  0  0  0  0  0  0  0  0  0  0  0
   10.4250    0.8927    0.5258 H   0  0  0  0  0  0  0  0  0  0  0  0
    9.2197   -1.9261    0.1904 H   0  0  0  0  0  0  0  0  0  0  0  0
   -0.9812   -0.7232   -0.1149 H   0  0  0  0  0  0  0  0  0  0  0  0
    8.0494    0.8996    0.4674 H   0  0  0  0  0  0  0  0  0  0  0  0
    0.9009    1.6973    0.2517 H   0  0  0  0  0  0  0  0  0  0  0  0
    5.6846    1.0251    0.3941 H   0  0  0  0  0  0  0  0  0  0  0  0
    7.1918   -2.8079    0.7929 H   0  0  0  0  0  0  0  0  0  0  0  0
    7.3407   -2.5009   -0.9635 H   0  0  0  0  0  0  0  0  0  0  0  0
    5.7781   -2.7202   -0.2283 H   0  0  0  0  0  0  0  0  0  0  0  0
    3.2138    1.3021    0.2906 H   0  0  0  0  0  0  0  0  0  0  0  0
    4.1186   -1.5817    0.0062 H   0  0  0  0  0  0  0  0  0  0  0  0
    2.1272   -2.0226   -1.0803 H   0  0  0  0  0  0  0  0  0  0  0  0
    0.5770   -2.0651   -0.2785 H   0  0  0  0  0  0  0  0  0  0  0  0
    2.0189   -2.2700    0.6874 H   0  0  0  0  0  0  0  0  0  0  0  0
  1 18  1  0  0  0  0
  1 74  1  0  0  0  0
  2  3  1  0  0  0  0
  2  5  1  0  0  0  0
  2  8  1  0  0  0  0
  2  9  1  0  0  0  0
  3  4  1  0  0  0  0
  3 42  1  0  0  0  0
  3 43  1  0  0  0  0
  4  6  1  0  0  0  0
  4 44  1  0  0  0  0
  4 45  1  0  0  0  0
  5  7  2  0  0  0  0
  5 10  1  0  0  0  0
  6  7  1  0  0  0  0
  6 46  1  0  0  0  0
  6 47  1  0  0  0  0
  7 11  1  0  0  0  0
  8 48  1  0  0  0  0
  8 49  1  0  0  0  0
  8 50  1  0  0  0  0
  9 51  1  0  0  0  0
  9 52  1  0  0  0  0
  9 53  1  0  0  0  0
 10 12  2  0  0  0  0
 10 54  1  0  0  0  0
 11 55  1  0  0  0  0
 11 56  1  0  0  0  0
 11 57  1  0  0  0  0
 12 13  1  0  0  0  0
 12 58  1  0  0  0  0
 13 14  1  0  0  0  0
 13 15  2  0  0  0  0
 14 59  1  0  0  0  0
 14 60  1  0  0  0  0
 14 61  1  0  0  0  0
 15 16  1  0  0  0  0
 15 62  1  0  0  0  0
 16 17  2  0  0  0  0
 16 63  1  0  0  0  0
 17 22  1  0  0  0  0
 17 64  1  0  0  0  0
 18 19  1  0  0  0  0
 18 20  1  0  0  0  0
 18 21  1  0  0  0  0
 19 23  1  0  0  0  0
 19 65  1  0  0  0  0
 19 66  1  0  0  0  0
 20 67  1  0  0  0  0
 20 68  1  0  0  0  0
 20 69  1  0  0  0  0
 21 70  1  0  0  0  0
 21 71  1  0  0  0  0
 21 72  1  0  0  0  0
 22 24  1  0  0  0  0
 22 26  2  0  0  0  0
 23 25  2  0  0  0  0
 23 73  1  0  0  0  0
 24 75  1  0  0  0  0
 24 76  1  0  0  0  0
 24 77  1  0  0  0  0
 25 27  1  0  0  0  0
 25 78  1  0  0  0  0
 26 28  1  0  0  0  0
 26 79  1  0  0  0  0
 27 29  1  0  0  0  0
 27 30  2  0  0  0  0
 28 32  2  0  0  0  0
 28 83  1  0  0  0  0
 29 80  1  0  0  0  0
 29 81  1  0  0  0  0
 29 82  1  0  0  0  0
 30 31  1  0  0  0  0
 30 84  1  0  0  0  0
 31 33  2  0  0  0  0
 31 85  1  0  0  0  0
 32 34  1  0  0  0  0
 32 86  1  0  0  0  0
 33 35  1  0  0  0  0
 33 87  1  0  0  0  0
 34 36  2  0  0  0  0
 34 88  1  0  0  0  0
 35 37  2  0  0  0  0
 35 38  1  0  0  0  0
 36 39  1  0  0  0  0
 36 41  1  0  0  0  0
 37 40  1  0  0  0  0
 37 89  1  0  0  0  0
 38 90  1  0  0  0  0
 38 91  1  0  0  0  0
 38 92  1  0  0  0  0
 39 40  2  0  0  0  0
 39 93  1  0  0  0  0
 40 94  1  0  0  0  0
 41 95  1  0  0  0  0
 41 96  1  0  0  0  0
 41 97  1  0  0  0  0
M  END
> <PUBCHEM_COMPOUND_CID>
23724599

> <PUBCHEM_CONFORMER_RMSD>
1.2

> <PUBCHEM_CONFORMER_DIVERSEORDER>
2
61
19
179
214
250
88
84
133
194
210
106
11
258
82
129
229
143
101
5
168
13
218
187
1
166
232
211
246
135
57
127
112
260
150
70
44
131
30
107
25
18
227
147
79
86
100
256
233
178
63
137
174
209
22
20
255
37
138
219
253
64
91
126
114
66
121
154
98
146
212
81
171
4
55
122
231
124
197
144
162
72
248
77
153
208
31
145
128
151
109
17
117
172
239
104
3
78
90
159
173
92
10
226
167
113
192
204
220
223
249
230
254
38
42
93
97
33
149
177
123
83
111
99
23
251
26
189
158
206
43
262
221
76
27
193
215
14
200
263
155
29
96
224
71
59
94
62
245
202
217
110
48
6
244
191
139
24
163
41
74
120
40
236
142
21
160
89
195
170
52
115
190
28
240
225
75
12
176
241
102
207
95
45
181
261
67
47
180
73
130
39
132
7
65
49
9
32
205
199
141
58
68
34
85
36
238
140
105
134
56
242
119
259
125
243
213
201
35
50
164
80
186
161
46
103
175
196
53
188
228
16
184
8
247
252
222
156
51
136
54
87
157
69
165
183
148
116
15
234
108
235
257
198
118
152
216
203
182
237
169
185
60

> <PUBCHEM_MMFF94_PARTIAL_CHARGES>
53
1 -0.68
10 -0.15
11 0.14
12 -0.15
13 -0.14
14 0.14
15 -0.15
16 -0.15
17 -0.15
18 0.28
19 0.14
2 0.14
22 -0.14
23 -0.29
24 0.14
25 -0.15
26 -0.15
27 -0.14
28 -0.15
29 0.14
30 -0.15
31 -0.15
32 -0.15
33 -0.15
34 -0.15
35 -0.14
36 -0.14
37 -0.15
38 0.14
39 -0.15
40 -0.15
41 0.14
5 -0.14
54 0.15
58 0.15
6 0.14
62 0.15
63 0.15
64 0.15
7 -0.28
73 0.15
74 0.4
78 0.15
79 0.15
83 0.15
84 0.15
85 0.15
86 0.15
87 0.15
88 0.15
89 0.15
93 0.15
94 0.15

> <PUBCHEM_EFFECTIVE_ROTOR_COUNT>
13.8

> <PUBCHEM_PHARMACOPHORE_FEATURES>
10
1 1 acceptor
1 1 donor
1 14 hydrophobe
1 24 hydrophobe
1 29 hydrophobe
1 38 hydrophobe
1 41 hydrophobe
3 18 20 21 hydrophobe
3 2 8 9 hydrophobe
6 2 3 4 5 6 7 rings

> <PUBCHEM_HEAVY_ATOM_COUNT>
41

> <PUBCHEM_ATOM_DEF_STEREO_COUNT>
0

> <PUBCHEM_ATOM_UDEF_STEREO_COUNT>
0

> <PUBCHEM_BOND_DEF_STEREO_COUNT>
11

> <PUBCHEM_BOND_UDEF_STEREO_COUNT>
0

> <PUBCHEM_ISOTOPIC_ATOM_COUNT>
0

> <PUBCHEM_COMPONENT_COUNT>
1

> <PUBCHEM_CACTVS_TAUTO_COUNT>
1

> <PUBCHEM_CONFORMER_ID>
016A023700000002

> <PUBCHEM_MMFF94_ENERGY>
101.1876

> <PUBCHEM_FEATURE_SELFOVERLAP>
50.744

> <PUBCHEM_SHAPE_FINGERPRINT>
12013929 2 11384110860458748172
12013929 94 18335701663929029241
14251920 1 18409167731280989432
14251920 17 18411419528071065408
15274700 256 18409450285286079785
15343295 20 18410856559639789576
15343295 29 9151174242742840777
21057603 130 18059858364301025325
232437 2 18411138052935910825
23528940 14 18187368694095555607
3092352 35 18343585170769045394
3991529 128 17894349991252485972
9663363 56 13901905617877716188

> <PUBCHEM_SHAPE_MULTIPOLES>
837.89
109.35
2.87
0.86
213.48
0.05
0.24
22.09
10.77
-11.62
0.06
1.01
0.13
-1.9

> <PUBCHEM_SHAPE_SELFOVERLAP>
1671.595

> <PUBCHEM_SHAPE_VOLUME>
495.1

> <PUBCHEM_COORDINATE_TYPE>
2
5
10

$$$$

