441723
  -OEChem-07051212552D

105111  0     1  0  0  0  0  0999 V2000
    3.5466    1.7093    0.0000 O   0  0  0  0  0  0  0  0  0  0  0  0
    3.1053    2.5474    0.0000 O   0  0  0  0  0  0  0  0  0  0  0  0
    4.6229    1.3785    0.0000 O   0  0  0  0  0  0  0  0  0  0  0  0
    6.4456    5.1404    0.0000 O   0  0  0  0  0  0  0  0  0  0  0  0
    2.7287    4.7145    0.0000 O   0  0  0  0  0  0  0  0  0  0  0  0
    2.3279    5.5983    0.0000 O   0  0  0  0  0  0  0  0  0  0  0  0
    7.3116    0.9052    0.0000 O   0  0  0  0  0  0  0  0  0  0  0  0
    6.4455   -0.5948    0.0000 O   0  0  0  0  0  0  0  0  0  0  0  0
    8.1776   -3.5948    0.0000 O   0  0  0  0  0  0  0  0  0  0  0  0
    5.5795   -6.0948    0.0000 O   0  0  0  0  0  0  0  0  0  0  0  0
    4.7135   -4.5948    0.0000 O   0  0  0  0  0  0  0  0  0  0  0  0
    7.6409    3.3113    0.0000 N   0  0  3  0  0  0  0  0  0  0  0  0
    7.3116   -2.0948    0.0000 N   0  0  0  0  0  0  0  0  0  0  0  0
    5.6942    3.7066    0.0000 C   0  0  2  0  0  0  0  0  0  0  0  0
    5.6942    2.8390    0.0000 C   0  0  2  0  0  0  0  0  0  0  0  0
    6.6962    3.6005    0.0000 C   0  0  3  0  0  0  0  0  0  0  0  0
    5.0159    4.2475    0.0000 C   0  0  1  0  0  0  0  0  0  0  0  0
    4.1701    2.4911    0.0000 C   0  0  2  0  0  0  0  0  0  0  0  0
    4.1701    4.0544    0.0000 C   0  0  1  0  0  0  0  0  0  0  0  0
    3.7936    3.2728    0.0000 C   0  0  1  0  0  0  0  0  0  0  0  0
    5.0159    2.2981    0.0000 C   0  0  1  0  0  0  0  0  0  0  0  0
    6.4455    2.4052    0.0000 C   0  0  2  0  0  0  0  0  0  0  0  0
    6.4455    4.1404    0.0000 C   0  0  2  0  0  0  0  0  0  0  0  0
    5.0937    5.1116    0.0000 C   0  0  0  0  0  0  0  0  0  0  0  0
    4.2959    5.4526    0.0000 C   0  0  1  0  0  0  0  0  0  0  0  0
    3.7251    4.7992    0.0000 C   0  0  2  0  0  0  0  0  0  0  0  0
    3.1488    3.5427    0.0000 C   0  0  0  0  0  0  0  0  0  0  0  0
    7.6409    2.5594    0.0000 C   0  0  0  0  0  0  0  0  0  0  0  0
    7.1969    2.8390    0.0000 C   0  0  0  0  0  0  0  0  0  0  0  0
    3.1488    5.0272    0.0000 C   0  0  2  0  0  0  0  0  0  0  0  0
    7.1969    3.7066    0.0000 C   0  0  0  0  0  0  0  0  0  0  0  0
    6.4455    1.4052    0.0000 C   0  0  0  0  0  0  0  0  0  0  0  0
    8.4448    3.9060    0.0000 C   0  0  0  0  0  0  0  0  0  0  0  0
    5.2227    0.5784    0.0000 C   0  0  0  0  0  0  0  0  0  0  0  0
    9.3618    3.5071    0.0000 C   0  0  0  0  0  0  0  0  0  0  0  0
    7.3116    5.6404    0.0000 C   0  0  0  0  0  0  0  0  0  0  0  0
    2.3038    3.8093    0.0000 C   0  0  0  0  0  0  0  0  0  0  0  0
    2.4120    6.5948    0.0000 C   0  0  0  0  0  0  0  0  0  0  0  0
    7.3116   -0.0948    0.0000 C   0  0  0  0  0  0  0  0  0  0  0  0
    8.1776   -0.5948    0.0000 C   0  0  0  0  0  0  0  0  0  0  0  0
    8.1776   -1.5948    0.0000 C   0  0  0  0  0  0  0  0  0  0  0  0
    9.0436   -0.0948    0.0000 C   0  0  0  0  0  0  0  0  0  0  0  0
    9.0436   -2.0948    0.0000 C   0  0  0  0  0  0  0  0  0  0  0  0
    9.9096   -0.5948    0.0000 C   0  0  0  0  0  0  0  0  0  0  0  0
    9.9096   -1.5948    0.0000 C   0  0  0  0  0  0  0  0  0  0  0  0
    7.3116   -3.0948    0.0000 C   0  0  0  0  0  0  0  0  0  0  0  0
    6.4455   -3.5948    0.0000 C   0  0  3  0  0  0  0  0  0  0  0  0
    6.4455   -4.5948    0.0000 C   0  0  0  0  0  0  0  0  0  0  0  0
    5.5795   -3.0948    0.0000 C   0  0  0  0  0  0  0  0  0  0  0  0
    5.5795   -5.0948    0.0000 C   0  0  0  0  0  0  0  0  0  0  0  0
    4.7135   -6.5948    0.0000 C   0  0  0  0  0  0  0  0  0  0  0  0
    5.7577    1.9914    0.0000 H   0  0  0  0  0  0  0  0  0  0  0  0
    6.8201    4.2080    0.0000 H   0  0  0  0  0  0  0  0  0  0  0  0
    5.7975    4.5816    0.0000 H   0  0  0  0  0  0  0  0  0  0  0  0
    3.3209    4.0163    0.0000 H   0  0  0  0  0  0  0  0  0  0  0  0
    5.2163    1.7114    0.0000 H   0  0  0  0  0  0  0  0  0  0  0  0
    5.9086    4.4504    0.0000 H   0  0  0  0  0  0  0  0  0  0  0  0
    5.2764    5.7040    0.0000 H   0  0  0  0  0  0  0  0  0  0  0  0
    5.7020    4.9918    0.0000 H   0  0  0  0  0  0  0  0  0  0  0  0
    4.3167    6.3023    0.0000 H   0  0  0  0  0  0  0  0  0  0  0  0
    3.4450    5.3523    0.0000 H   0  0  0  0  0  0  0  0  0  0  0  0
    2.9868    2.9442    0.0000 H   0  0  0  0  0  0  0  0  0  0  0  0
    2.5342    3.6244    0.0000 H   0  0  0  0  0  0  0  0  0  0  0  0
    8.2603    2.5860    0.0000 H   0  0  0  0  0  0  0  0  0  0  0  0
    7.6938    1.9417    0.0000 H   0  0  0  0  0  0  0  0  0  0  0  0
    7.8075    2.9466    0.0000 H   0  0  0  0  0  0  0  0  0  0  0  0
    7.4089    2.2564    0.0000 H   0  0  0  0  0  0  0  0  0  0  0  0
    3.2269    5.6423    0.0000 H   0  0  0  0  0  0  0  0  0  0  0  0
    7.4089    4.2892    0.0000 H   0  0  0  0  0  0  0  0  0  0  0  0
    7.8075    3.5989    0.0000 H   0  0  0  0  0  0  0  0  0  0  0  0
    6.2335    0.8226    0.0000 H   0  0  0  0  0  0  0  0  0  0  0  0
    5.8350    1.5129    0.0000 H   0  0  0  0  0  0  0  0  0  0  0  0
    3.7731    1.1322    0.0000 H   0  0  0  0  0  0  0  0  0  0  0  0
    2.5024    2.6921    0.0000 H   0  0  0  0  0  0  0  0  0  0  0  0
    7.9952    4.3329    0.0000 H   0  0  0  0  0  0  0  0  0  0  0  0
    8.7871    4.4230    0.0000 H   0  0  0  0  0  0  0  0  0  0  0  0
    5.7188    0.9503    0.0000 H   0  0  0  0  0  0  0  0  0  0  0  0
    5.5946    0.0823    0.0000 H   0  0  0  0  0  0  0  0  0  0  0  0
    4.7266    0.2065    0.0000 H   0  0  0  0  0  0  0  0  0  0  0  0
    9.6092    4.0756    0.0000 H   0  0  0  0  0  0  0  0  0  0  0  0
    9.9304    3.2598    0.0000 H   0  0  0  0  0  0  0  0  0  0  0  0
    9.1145    2.9386    0.0000 H   0  0  0  0  0  0  0  0  0  0  0  0
    7.0016    6.1773    0.0000 H   0  0  0  0  0  0  0  0  0  0  0  0
    7.8485    5.9504    0.0000 H   0  0  0  0  0  0  0  0  0  0  0  0
    7.6216    5.1034    0.0000 H   0  0  0  0  0  0  0  0  0  0  0  0
    2.8651    3.5459    0.0000 H   0  0  0  0  0  0  0  0  0  0  0  0
    2.0404    3.2480    0.0000 H   0  0  0  0  0  0  0  0  0  0  0  0
    1.7426    4.0727    0.0000 H   0  0  0  0  0  0  0  0  0  0  0  0
    1.7942    6.6470    0.0000 H   0  0  0  0  0  0  0  0  0  0  0  0
    2.4642    7.2126    0.0000 H   0  0  0  0  0  0  0  0  0  0  0  0
    3.0298    6.5426    0.0000 H   0  0  0  0  0  0  0  0  0  0  0  0
    9.0436    0.5252    0.0000 H   0  0  0  0  0  0  0  0  0  0  0  0
    9.0436   -2.7148    0.0000 H   0  0  0  0  0  0  0  0  0  0  0  0
   10.4466   -0.2848    0.0000 H   0  0  0  0  0  0  0  0  0  0  0  0
    6.7746   -1.7848    0.0000 H   0  0  0  0  0  0  0  0  0  0  0  0
   10.4466   -1.9048    0.0000 H   0  0  0  0  0  0  0  0  0  0  0  0
    5.9086   -3.9048    0.0000 H   0  0  0  0  0  0  0  0  0  0  0  0
    7.0561   -4.4871    0.0000 H   0  0  0  0  0  0  0  0  0  0  0  0
    6.6576   -5.1774    0.0000 H   0  0  0  0  0  0  0  0  0  0  0  0
    5.2695   -3.6317    0.0000 H   0  0  0  0  0  0  0  0  0  0  0  0
    5.0426   -2.7848    0.0000 H   0  0  0  0  0  0  0  0  0  0  0  0
    5.8895   -2.5578    0.0000 H   0  0  0  0  0  0  0  0  0  0  0  0
    5.0235   -7.1317    0.0000 H   0  0  0  0  0  0  0  0  0  0  0  0
    4.1766   -6.9048    0.0000 H   0  0  0  0  0  0  0  0  0  0  0  0
    4.4035   -6.0578    0.0000 H   0  0  0  0  0  0  0  0  0  0  0  0
 18  1  1  1  0  0  0
  1 73  1  0  0  0  0
 20  2  1  6  0  0  0
  2 74  1  0  0  0  0
 21  3  1  6  0  0  0
  3 34  1  0  0  0  0
 23  4  1  1  0  0  0
  4 36  1  0  0  0  0
 26  5  1  1  0  0  0
  5 37  1  0  0  0  0
 30  6  1  6  0  0  0
  6 38  1  0  0  0  0
  7 32  1  0  0  0  0
  7 39  1  0  0  0  0
  8 39  2  0  0  0  0
  9 46  2  0  0  0  0
 10 50  1  0  0  0  0
 10 51  1  0  0  0  0
 11 50  2  0  0  0  0
 12 16  1  0  0  0  0
 12 28  1  0  0  0  0
 12 33  1  0  0  0  0
 13 41  1  0  0  0  0
 13 46  1  0  0  0  0
 13 95  1  0  0  0  0
 14 15  1  0  0  0  0
 14 16  1  0  0  0  0
 14 17  1  0  0  0  0
 14 23  1  6  0  0  0
 15 21  1  0  0  0  0
 15 22  1  0  0  0  0
 15 52  1  6  0  0  0
 16 18  1  0  0  0  0
 16 53  1  0  0  0  0
 17 19  1  0  0  0  0
 17 24  1  0  0  0  0
 17 54  1  6  0  0  0
 18 20  1  0  0  0  0
 18 21  1  0  0  0  0
 19 20  1  0  0  0  0
 19 26  1  0  0  0  0
 19 55  1  6  0  0  0
 20 27  1  0  0  0  0
 21 56  1  0  0  0  0
 22 28  1  0  0  0  0
 22 29  1  0  0  0  0
 22 32  1  6  0  0  0
 23 31  1  0  0  0  0
 23 57  1  0  0  0  0
 24 25  1  0  0  0  0
 24 58  1  0  0  0  0
 24 59  1  0  0  0  0
 25 26  1  0  0  0  0
 25 30  1  0  0  0  0
 25 60  1  6  0  0  0
 26 61  1  0  0  0  0
 27 30  1  0  0  0  0
 27 62  1  0  0  0  0
 27 63  1  0  0  0  0
 28 64  1  0  0  0  0
 28 65  1  0  0  0  0
 29 31  1  0  0  0  0
 29 66  1  0  0  0  0
 29 67  1  0  0  0  0
 30 68  1  0  0  0  0
 31 69  1  0  0  0  0
 31 70  1  0  0  0  0
 32 71  1  0  0  0  0
 32 72  1  0  0  0  0
 33 35  1  0  0  0  0
 33 75  1  0  0  0  0
 33 76  1  0  0  0  0
 34 77  1  0  0  0  0
 34 78  1  0  0  0  0
 34 79  1  0  0  0  0
 35 80  1  0  0  0  0
 35 81  1  0  0  0  0
 35 82  1  0  0  0  0
 36 83  1  0  0  0  0
 36 84  1  0  0  0  0
 36 85  1  0  0  0  0
 37 86  1  0  0  0  0
 37 87  1  0  0  0  0
 37 88  1  0  0  0  0
 38 89  1  0  0  0  0
 38 90  1  0  0  0  0
 38 91  1  0  0  0  0
 39 40  1  0  0  0  0
 40 41  1  0  0  0  0
 40 42  2  0  0  0  0
 41 43  2  0  0  0  0
 42 44  1  0  0  0  0
 42 92  1  0  0  0  0
 43 45  1  0  0  0  0
 43 93  1  0  0  0  0
 44 45  2  0  0  0  0
 44 94  1  0  0  0  0
 45 96  1  0  0  0  0
 46 47  1  0  0  0  0
 47 48  1  0  0  0  0
 47 49  1  0  0  0  0
 47 97  1  0  0  0  0
 48 50  1  0  0  0  0
 48 98  1  0  0  0  0
 48 99  1  0  0  0  0
 49100  1  0  0  0  0
 49101  1  0  0  0  0
 49102  1  0  0  0  0
 51103  1  0  0  0  0
 51104  1  0  0  0  0
 51105  1  0  0  0  0
M  END
> <PUBCHEM_COMPOUND_CID>
441723

> <PUBCHEM_COMPOUND_CANONICALIZED>
1

> <PUBCHEM_CACTVS_COMPLEXITY>
1370

> <PUBCHEM_CACTVS_HBOND_ACCEPTOR>
12

> <PUBCHEM_CACTVS_HBOND_DONOR>
3

> <PUBCHEM_CACTVS_ROTATABLE_BOND>
14

> <PUBCHEM_CACTVS_SUBSKEYS>
AAADcfB/PAAAAAAAAAAAAAAAAAAAAYMAAAA8YMGCB4gWAGABAAAAHgAQCAAAD3zhmAYyyIPABgCIAiXSWACCAAAlAgAIiAEIbMgLJjrAtZmGcYhn1AHb6cf/+P+PgAAAAAACAADQAAaUADSgAaEADSgAAA==

> <PUBCHEM_IUPAC_INCHI>
InChI=1S/C38H54N2O11/c1-8-40-18-35(19-51-33(43)21-11-9-10-12-24(21)39-32(42)20(2)15-27(41)48-5)14-13-26(47-4)37-23-16-22-25(46-3)17-36(44,28(23)29(22)49-6)38(45,34(37)40)31(50-7)30(35)37/h9-12,20,22-23,25-26,28-31,34,44-45H,8,13-19H2,1-7H3,(H,39,42)/t20?,22-,23-,25+,26+,28-,29+,30-,31+,34?,35+,36-,37+,38-/m1/s1

> <PUBCHEM_IUPAC_INCHIKEY>
JCUPDVBWNHFOAD-LVBPXUMQSA-N

> <PUBCHEM_XLOGP3_AA>
1.7

> <PUBCHEM_EXACT_MASS>
714.372761

> <PUBCHEM_MOLECULAR_FORMULA>
C38H54N2O11

> <PUBCHEM_MOLECULAR_WEIGHT>
714.84216

> <PUBCHEM_OPENEYE_CAN_SMILES>
CCN1CC2(CCC(C34C2C(C(C31)(C5(CC(C6CC4C5C6OC)OC)O)O)OC)OC)COC(=O)C7=CC=CC=C7NC(=O)C(C)CC(=O)OC

> <PUBCHEM_OPENEYE_ISO_SMILES>
CCN1C[C@@]2(CC[C@@H]([C@@]34[C@@H]2[C@@H]([C@@](C31)([C@]5(C[C@@H]([C@H]6C[C@@H]4[C@@H]5[C@H]6OC)OC)O)O)OC)OC)COC(=O)C7=CC=CC=C7NC(=O)C(C)CC(=O)OC

> <PUBCHEM_CACTVS_TPSA>
162

> <PUBCHEM_MONOISOTOPIC_WEIGHT>
714.372761

> <PUBCHEM_TOTAL_CHARGE>
0

> <PUBCHEM_HEAVY_ATOM_COUNT>
51

> <PUBCHEM_ATOM_DEF_STEREO_COUNT>
12

> <PUBCHEM_ATOM_UDEF_STEREO_COUNT>
2

> <PUBCHEM_BOND_DEF_STEREO_COUNT>
0

> <PUBCHEM_BOND_UDEF_STEREO_COUNT>
0

> <PUBCHEM_ISOTOPIC_ATOM_COUNT>
0

> <PUBCHEM_COMPONENT_COUNT>
1

> <PUBCHEM_CACTVS_TAUTO_COUNT>
9

> <PUBCHEM_COORDINATE_TYPE>
1
5
255

> <PUBCHEM_BONDANNOTATIONS>
18  1  5
16  12  3
14  23  6
15  52  6
17  54  6
19  55  6
20  2  6
22  32  6
25  60  6
21  3  6
23  4  5
40  41  8
40  42  8
41  43  8
42  44  8
43  45  8
44  45  8
47  49  3
26  5  5
30  6  6

$$$$

