17396014
  -OEChem-06241222532D

 40 41  0     0  0  0  0  0  0999 V2000
    2.8660   -0.7673    0.0000 O   0  0  0  0  0  0  0  0  0  0  0  0
    6.3301    0.2327    0.0000 O   0  0  0  0  0  0  0  0  0  0  0  0
    4.5981   -0.7673    0.0000 N   0  0  0  0  0  0  0  0  0  0  0  0
    4.5981    0.2327    0.0000 N   0  0  0  0  0  0  0  0  0  0  0  0
    5.4641    3.7327    0.0000 N   0  0  0  0  0  0  0  0  0  0  0  0
    2.8660   -2.7673    0.0000 C   0  0  0  0  0  0  0  0  0  0  0  0
    3.7320   -2.2673    0.0000 C   0  0  0  0  0  0  0  0  0  0  0  0
    2.8660   -3.7673    0.0000 C   0  0  0  0  0  0  0  0  0  0  0  0
    2.0000   -2.2673    0.0000 C   0  0  0  0  0  0  0  0  0  0  0  0
    3.7320   -1.2673    0.0000 C   0  0  0  0  0  0  0  0  0  0  0  0
    6.3301    2.2327    0.0000 C   0  0  0  0  0  0  0  0  0  0  0  0
    5.4641    1.7327    0.0000 C   0  0  0  0  0  0  0  0  0  0  0  0
    6.3301    3.2327    0.0000 C   0  0  0  0  0  0  0  0  0  0  0  0
    4.5981    2.2327    0.0000 C   0  0  0  0  0  0  0  0  0  0  0  0
    5.4641    0.7327    0.0000 C   0  0  0  0  0  0  0  0  0  0  0  0
    4.5981    3.2327    0.0000 C   0  0  0  0  0  0  0  0  0  0  0  0
    7.2241    1.6980    0.0000 C   0  0  0  0  0  0  0  0  0  0  0  0
    7.2241    3.7673    0.0000 C   0  0  0  0  0  0  0  0  0  0  0  0
    8.1301    2.2118    0.0000 C   0  0  0  0  0  0  0  0  0  0  0  0
    8.1301    3.2535    0.0000 C   0  0  0  0  0  0  0  0  0  0  0  0
    3.7320    3.7327    0.0000 C   0  0  0  0  0  0  0  0  0  0  0  0
    2.8660   -2.1473    0.0000 H   0  0  0  0  0  0  0  0  0  0  0  0
    3.9441   -2.8499    0.0000 H   0  0  0  0  0  0  0  0  0  0  0  0
    4.3426   -2.1597    0.0000 H   0  0  0  0  0  0  0  0  0  0  0  0
    2.2460   -3.7673    0.0000 H   0  0  0  0  0  0  0  0  0  0  0  0
    2.8660   -4.3873    0.0000 H   0  0  0  0  0  0  0  0  0  0  0  0
    3.4860   -3.7673    0.0000 H   0  0  0  0  0  0  0  0  0  0  0  0
    2.3100   -1.7304    0.0000 H   0  0  0  0  0  0  0  0  0  0  0  0
    1.4631   -1.9573    0.0000 H   0  0  0  0  0  0  0  0  0  0  0  0
    1.6900   -2.8043    0.0000 H   0  0  0  0  0  0  0  0  0  0  0  0
    4.0611    1.9227    0.0000 H   0  0  0  0  0  0  0  0  0  0  0  0
    5.1350   -1.0773    0.0000 H   0  0  0  0  0  0  0  0  0  0  0  0
    7.2169    1.0780    0.0000 H   0  0  0  0  0  0  0  0  0  0  0  0
    4.0611    0.5427    0.0000 H   0  0  0  0  0  0  0  0  0  0  0  0
    7.2169    4.3873    0.0000 H   0  0  0  0  0  0  0  0  0  0  0  0
    8.6659    1.8998    0.0000 H   0  0  0  0  0  0  0  0  0  0  0  0
    8.6659    3.5656    0.0000 H   0  0  0  0  0  0  0  0  0  0  0  0
    4.0420    4.2696    0.0000 H   0  0  0  0  0  0  0  0  0  0  0  0
    3.1951    4.0427    0.0000 H   0  0  0  0  0  0  0  0  0  0  0  0
    3.4220    3.1957    0.0000 H   0  0  0  0  0  0  0  0  0  0  0  0
  1 10  2  0  0  0  0
  2 15  2  0  0  0  0
  3  4  1  0  0  0  0
  3 10  1  0  0  0  0
  3 32  1  0  0  0  0
  4 15  1  0  0  0  0
  4 34  1  0  0  0  0
  5 13  1  0  0  0  0
  5 16  2  0  0  0  0
  6  7  1  0  0  0  0
  6  8  1  0  0  0  0
  6  9  1  0  0  0  0
  6 22  1  0  0  0  0
  7 10  1  0  0  0  0
  7 23  1  0  0  0  0
  7 24  1  0  0  0  0
  8 25  1  0  0  0  0
  8 26  1  0  0  0  0
  8 27  1  0  0  0  0
  9 28  1  0  0  0  0
  9 29  1  0  0  0  0
  9 30  1  0  0  0  0
 11 12  1  0  0  0  0
 11 13  1  0  0  0  0
 11 17  2  0  0  0  0
 12 14  2  0  0  0  0
 12 15  1  0  0  0  0
 13 18  2  0  0  0  0
 14 16  1  0  0  0  0
 14 31  1  0  0  0  0
 16 21  1  0  0  0  0
 17 19  1  0  0  0  0
 17 33  1  0  0  0  0
 18 20  1  0  0  0  0
 18 35  1  0  0  0  0
 19 20  2  0  0  0  0
 19 36  1  0  0  0  0
 20 37  1  0  0  0  0
 21 38  1  0  0  0  0
 21 39  1  0  0  0  0
 21 40  1  0  0  0  0
M  END
> <PUBCHEM_COMPOUND_CID>
17396014

> <PUBCHEM_COMPOUND_CANONICALIZED>
1

> <PUBCHEM_CACTVS_COMPLEXITY>
384

> <PUBCHEM_CACTVS_HBOND_ACCEPTOR>
3

> <PUBCHEM_CACTVS_HBOND_DONOR>
2

> <PUBCHEM_CACTVS_ROTATABLE_BOND>
3

> <PUBCHEM_CACTVS_SUBSKEYS>
AAADceB7MAAAAAAAAAAAAAAAAAAAAAAAAAA8QAAAAAAAAACx8AAAHgAYAAAADQiBngAywPJqEACoAyVyVACCgCAlAiIauCEwZNgIIPLAlZGEIQhgkADIyYcciMCOgAAAAAACAAAAAAAAAAQAAAAAAAAAAA==

> <PUBCHEM_IUPAC_OPENEYE_NAME>
2-methyl-N'-(3-methylbutanoyl)quinoline-4-carbohydrazide

> <PUBCHEM_IUPAC_CAS_NAME>
2-methyl-N'-(3-methyl-1-oxobutyl)-4-quinolinecarbohydrazide

> <PUBCHEM_IUPAC_NAME>
2-methyl-N'-(3-methylbutanoyl)quinoline-4-carbohydrazide

> <PUBCHEM_IUPAC_SYSTEMATIC_NAME>
2-methyl-N'-(3-methylbutanoyl)quinoline-4-carbohydrazide

> <PUBCHEM_IUPAC_TRADITIONAL_NAME>
N'-isovaleryl-2-methyl-cinchoninohydrazide

> <PUBCHEM_IUPAC_INCHI>
InChI=1S/C16H19N3O2/c1-10(2)8-15(20)18-19-16(21)13-9-11(3)17-14-7-5-4-6-12(13)14/h4-7,9-10H,8H2,1-3H3,(H,18,20)(H,19,21)

> <PUBCHEM_IUPAC_INCHIKEY>
JWJYLAUWJZYWEW-UHFFFAOYSA-N

> <PUBCHEM_XLOGP3_AA>
2.6

> <PUBCHEM_EXACT_MASS>
285.147727

> <PUBCHEM_MOLECULAR_FORMULA>
C16H19N3O2

> <PUBCHEM_MOLECULAR_WEIGHT>
285.34096

> <PUBCHEM_OPENEYE_CAN_SMILES>
CC1=NC2=CC=CC=C2C(=C1)C(=O)NNC(=O)CC(C)C

> <PUBCHEM_OPENEYE_ISO_SMILES>
CC1=NC2=CC=CC=C2C(=C1)C(=O)NNC(=O)CC(C)C

> <PUBCHEM_CACTVS_TPSA>
71.1

> <PUBCHEM_MONOISOTOPIC_WEIGHT>
285.147727

> <PUBCHEM_TOTAL_CHARGE>
0

> <PUBCHEM_HEAVY_ATOM_COUNT>
21

> <PUBCHEM_ATOM_DEF_STEREO_COUNT>
0

> <PUBCHEM_ATOM_UDEF_STEREO_COUNT>
0

> <PUBCHEM_BOND_DEF_STEREO_COUNT>
0

> <PUBCHEM_BOND_UDEF_STEREO_COUNT>
0

> <PUBCHEM_ISOTOPIC_ATOM_COUNT>
0

> <PUBCHEM_COMPONENT_COUNT>
1

> <PUBCHEM_CACTVS_TAUTO_COUNT>
14

> <PUBCHEM_COORDINATE_TYPE>
1
5
255

> <PUBCHEM_BONDANNOTATIONS>
11  12  8
11  13  8
11  17  8
12  14  8
13  18  8
14  16  8
17  19  8
18  20  8
19  20  8
5  13  8
5  16  8

$$$$

