5462453
  -OEChem-07051213003D

 79 85  0     1  0  0  0  0  0999 V2000
    3.5532    3.0663    1.1575 O   0  0  0  0  0  0  0  0  0  0  0  0
    0.4454    2.3510   -0.7788 O   0  0  0  0  0  0  0  0  0  0  0  0
   -0.3692   -0.7526    2.7161 O   0  0  0  0  0  0  0  0  0  0  0  0
    5.9085    0.3063   -1.7973 O   0  0  0  0  0  0  0  0  0  0  0  0
    5.0776   -2.0917   -2.1668 O   0  0  0  0  0  0  0  0  0  0  0  0
   -2.5123   -2.0969    2.6078 O   0  0  0  0  0  0  0  0  0  0  0  0
    1.9873   -1.5291    0.3748 N   0  0  0  0  0  0  0  0  0  0  0  0
   -3.6920   -0.2452   -0.7931 N   0  0  0  0  0  0  0  0  0  0  0  0
    1.3852    1.1277    1.5936 C   0  0  2  0  0  0  0  0  0  0  0  0
    1.3264    2.6076    2.0126 C   0  0  0  0  0  0  0  0  0  0  0  0
    2.7128    3.1794    2.3164 C   0  0  0  0  0  0  0  0  0  0  0  0
    2.6096    0.8365    0.7306 C   0  0  0  0  0  0  0  0  0  0  0  0
    0.0425    0.7741    0.9596 C   0  0  0  0  0  0  0  0  0  0  0  0
    3.5753    1.8426    0.5378 C   0  0  0  0  0  0  0  0  0  0  0  0
    2.8362   -0.4326    0.1405 C   0  0  0  0  0  0  0  0  0  0  0  0
    3.3889    2.5246    3.5304 C   0  0  0  0  0  0  0  0  0  0  0  0
    2.5815    4.6854    2.5919 C   0  0  0  0  0  0  0  0  0  0  0  0
   -0.3610    1.4046   -0.2113 C   0  0  0  0  0  0  0  0  0  0  0  0
   -0.7878   -0.1690    1.5546 C   0  0  0  0  0  0  0  0  0  0  0  0
    3.9336   -0.6064   -0.7303 C   0  0  0  0  0  0  0  0  0  0  0  0
   -1.5911    1.0850   -0.7968 C   0  0  0  0  0  0  0  0  0  0  0  0
   -2.0215   -0.4827    0.9662 C   0  0  0  0  0  0  0  0  0  0  0  0
    4.6611    1.6473   -0.3212 C   0  0  0  0  0  0  0  0  0  0  0  0
   -2.4475    0.1217   -0.2326 C   0  0  0  0  0  0  0  0  0  0  0  0
    4.8349    0.4306   -0.9687 C   0  0  0  0  0  0  0  0  0  0  0  0
    4.1388   -1.9192   -1.4001 C   0  0  0  0  0  0  0  0  0  0  0  0
   -1.9682    1.9191   -1.9862 C   0  0  0  0  0  0  0  0  0  0  0  0
    2.1346   -2.7868   -0.2237 C   0  0  0  0  0  0  0  0  0  0  0  0
   -2.9020   -1.4674    1.6328 C   0  0  0  0  0  0  0  0  0  0  0  0
    3.1826   -3.0185   -1.1245 C   0  0  0  0  0  0  0  0  0  0  0  0
   -4.6425   -1.0249   -0.0954 C   0  0  0  0  0  0  0  0  0  0  0  0
   -4.2718   -1.6586    1.1067 C   0  0  0  0  0  0  0  0  0  0  0  0
   -4.0314    0.2436   -2.1326 C   0  0  0  0  0  0  0  0  0  0  0  0
   -2.6438    3.2078   -1.5991 C   0  0  0  0  0  0  0  0  0  0  0  0
    1.2244   -3.8171    0.0373 C   0  0  0  0  0  0  0  0  0  0  0  0
    3.3305   -4.2618   -1.7462 C   0  0  0  0  0  0  0  0  0  0  0  0
   -5.9711   -1.2029   -0.5230 C   0  0  0  0  0  0  0  0  0  0  0  0
   -5.1695   -2.4589    1.8278 C   0  0  0  0  0  0  0  0  0  0  0  0
    1.3686   -5.0597   -0.5821 C   0  0  0  0  0  0  0  0  0  0  0  0
    2.4200   -5.2813   -1.4709 C   0  0  0  0  0  0  0  0  0  0  0  0
   -6.8718   -1.9969    0.1955 C   0  0  0  0  0  0  0  0  0  0  0  0
   -6.4698   -2.6287    1.3661 C   0  0  0  0  0  0  0  0  0  0  0  0
   -3.1270    4.1669   -2.4116 C   0  0  0  0  0  0  0  0  0  0  0  0
   -3.7930    5.4347   -1.9572 C   0  0  0  0  0  0  0  0  0  0  0  0
   -3.0152    4.0262   -3.9066 C   0  0  0  0  0  0  0  0  0  0  0  0
    1.5411    0.5479    2.5119 H   0  0  0  0  0  0  0  0  0  0  0  0
    0.8717    3.2474    1.2507 H   0  0  0  0  0  0  0  0  0  0  0  0
    0.6737    2.7043    2.8917 H   0  0  0  0  0  0  0  0  0  0  0  0
    2.7787    2.6342    4.4330 H   0  0  0  0  0  0  0  0  0  0  0  0
    3.5808    1.4581    3.3772 H   0  0  0  0  0  0  0  0  0  0  0  0
    4.3682    2.9807    3.7176 H   0  0  0  0  0  0  0  0  0  0  0  0
    1.9445    4.8839    3.4601 H   0  0  0  0  0  0  0  0  0  0  0  0
    3.5644    5.1363    2.7720 H   0  0  0  0  0  0  0  0  0  0  0  0
    2.1604    5.2078    1.7250 H   0  0  0  0  0  0  0  0  0  0  0  0
    5.3756    2.4546   -0.4685 H   0  0  0  0  0  0  0  0  0  0  0  0
    1.3103   -1.4607    1.1199 H   0  0  0  0  0  0  0  0  0  0  0  0
   -1.0213    2.2498   -2.4433 H   0  0  0  0  0  0  0  0  0  0  0  0
   -2.3528    1.4465   -2.8779 H   0  0  0  0  0  0  0  0  0  0  0  0
    1.2872    1.9258   -1.0094 H   0  0  0  0  0  0  0  0  0  0  0  0
   -1.0805   -1.2690    3.1222 H   0  0  0  0  0  0  0  0  0  0  0  0
   -4.8944   -0.2727   -2.5647 H   0  0  0  0  0  0  0  0  0  0  0  0
   -3.2770   -0.0817   -2.8555 H   0  0  0  0  0  0  0  0  0  0  0  0
   -4.3298    1.2924   -2.1447 H   0  0  0  0  0  0  0  0  0  0  0  0
   -2.7527    3.3861   -0.5290 H   0  0  0  0  0  0  0  0  0  0  0  0
    0.3959   -3.6590    0.7238 H   0  0  0  0  0  0  0  0  0  0  0  0
    4.1416   -4.4529   -2.4431 H   0  0  0  0  0  0  0  0  0  0  0  0
    6.4036    1.1430   -1.8181 H   0  0  0  0  0  0  0  0  0  0  0  0
   -6.3753   -0.7127   -1.4024 H   0  0  0  0  0  0  0  0  0  0  0  0
   -4.8744   -2.9477    2.7523 H   0  0  0  0  0  0  0  0  0  0  0  0
    0.6591   -5.8550   -0.3725 H   0  0  0  0  0  0  0  0  0  0  0  0
    2.5285   -6.2495   -1.9511 H   0  0  0  0  0  0  0  0  0  0  0  0
   -7.8920   -2.1126   -0.1596 H   0  0  0  0  0  0  0  0  0  0  0  0
   -7.1708   -3.2432    1.9229 H   0  0  0  0  0  0  0  0  0  0  0  0
   -3.8542    5.4888   -0.8653 H   0  0  0  0  0  0  0  0  0  0  0  0
   -3.2312    6.3076   -2.3045 H   0  0  0  0  0  0  0  0  0  0  0  0
   -4.8121    5.4929   -2.3527 H   0  0  0  0  0  0  0  0  0  0  0  0
   -2.4370    3.1605   -4.2371 H   0  0  0  0  0  0  0  0  0  0  0  0
   -4.0140    3.9464   -4.3490 H   0  0  0  0  0  0  0  0  0  0  0  0
   -2.5252    4.9109   -4.3281 H   0  0  0  0  0  0  0  0  0  0  0  0
  1 11  1  0  0  0  0
  1 14  1  0  0  0  0
  2 18  1  0  0  0  0
  2 59  1  0  0  0  0
  3 19  1  0  0  0  0
  3 60  1  0  0  0  0
  4 25  1  0  0  0  0
  4 67  1  0  0  0  0
  5 26  2  0  0  0  0
  6 29  2  0  0  0  0
  7 15  1  0  0  0  0
  7 28  1  0  0  0  0
  7 56  1  0  0  0  0
  8 24  1  0  0  0  0
  8 31  1  0  0  0  0
  8 33  1  0  0  0  0
  9 10  1  0  0  0  0
  9 12  1  0  0  0  0
  9 13  1  0  0  0  0
  9 46  1  0  0  0  0
 10 11  1  0  0  0  0
 10 47  1  0  0  0  0
 10 48  1  0  0  0  0
 11 16  1  0  0  0  0
 11 17  1  0  0  0  0
 12 14  2  0  0  0  0
 12 15  1  0  0  0  0
 13 18  2  0  0  0  0
 13 19  1  0  0  0  0
 14 23  1  0  0  0  0
 15 20  2  0  0  0  0
 16 49  1  0  0  0  0
 16 50  1  0  0  0  0
 16 51  1  0  0  0  0
 17 52  1  0  0  0  0
 17 53  1  0  0  0  0
 17 54  1  0  0  0  0
 18 21  1  0  0  0  0
 19 22  2  0  0  0  0
 20 25  1  0  0  0  0
 20 26  1  0  0  0  0
 21 24  2  0  0  0  0
 21 27  1  0  0  0  0
 22 24  1  0  0  0  0
 22 29  1  0  0  0  0
 23 25  2  0  0  0  0
 23 55  1  0  0  0  0
 26 30  1  0  0  0  0
 27 34  1  0  0  0  0
 27 57  1  0  0  0  0
 27 58  1  0  0  0  0
 28 30  1  0  0  0  0
 28 35  2  0  0  0  0
 29 32  1  0  0  0  0
 30 36  2  0  0  0  0
 31 32  1  0  0  0  0
 31 37  2  0  0  0  0
 32 38  2  0  0  0  0
 33 61  1  0  0  0  0
 33 62  1  0  0  0  0
 33 63  1  0  0  0  0
 34 43  2  0  0  0  0
 34 64  1  0  0  0  0
 35 39  1  0  0  0  0
 35 65  1  0  0  0  0
 36 40  1  0  0  0  0
 36 66  1  0  0  0  0
 37 41  1  0  0  0  0
 37 68  1  0  0  0  0
 38 42  1  0  0  0  0
 38 69  1  0  0  0  0
 39 40  2  0  0  0  0
 39 70  1  0  0  0  0
 40 71  1  0  0  0  0
 41 42  2  0  0  0  0
 41 72  1  0  0  0  0
 42 73  1  0  0  0  0
 43 44  1  0  0  0  0
 43 45  1  0  0  0  0
 44 74  1  0  0  0  0
 44 75  1  0  0  0  0
 44 76  1  0  0  0  0
 45 77  1  0  0  0  0
 45 78  1  0  0  0  0
 45 79  1  0  0  0  0
M  END
> <PUBCHEM_COMPOUND_CID>
5462453

> <PUBCHEM_CONFORMER_RMSD>
1

> <PUBCHEM_CONFORMER_DIVERSEORDER>
2
7
8
4
5
6
9
1
3

> <PUBCHEM_MMFF94_PARTIAL_CHARGES>
56
1 -0.36
11 0.28
12 -0.14
13 -0.14
14 0.08
15 0.1
18 0.08
19 0.08
2 -0.53
20 0.09
21 -0.14
22 0.09
23 -0.15
24 0.1
25 0.08
26 0.4
27 0.28
28 0.1
29 0.4
3 -0.53
30 0.09
31 0.1
32 0.09
33 0.37
34 -0.29
35 -0.15
36 -0.15
37 -0.15
38 -0.15
39 -0.15
4 -0.53
40 -0.15
41 -0.15
42 -0.15
43 -0.28
44 0.14
45 0.14
5 -0.57
55 0.15
56 0.4
59 0.45
6 -0.57
60 0.45
64 0.15
65 0.15
66 0.15
67 0.45
68 0.15
69 0.15
7 -0.6
70 0.15
71 0.15
72 0.15
73 0.15
8 -0.57
9 0.29

> <PUBCHEM_EFFECTIVE_ROTOR_COUNT>
3.8

> <PUBCHEM_PHARMACOPHORE_FEATURES>
18
1 1 acceptor
1 2 donor
1 3 donor
1 4 donor
1 5 acceptor
1 6 acceptor
1 7 cation
1 7 donor
1 8 cation
3 11 16 17 hydrophobe
3 43 44 45 hydrophobe
6 1 9 10 11 12 14 rings
6 12 14 15 20 23 25 rings
6 13 18 19 21 22 24 rings
6 28 30 35 36 39 40 rings
6 31 32 37 38 41 42 rings
6 7 15 20 26 28 30 rings
6 8 22 24 29 31 32 rings

> <PUBCHEM_HEAVY_ATOM_COUNT>
45

> <PUBCHEM_ATOM_DEF_STEREO_COUNT>
0

> <PUBCHEM_ATOM_UDEF_STEREO_COUNT>
1

> <PUBCHEM_BOND_DEF_STEREO_COUNT>
0

> <PUBCHEM_BOND_UDEF_STEREO_COUNT>
0

> <PUBCHEM_ISOTOPIC_ATOM_COUNT>
0

> <PUBCHEM_COMPONENT_COUNT>
1

> <PUBCHEM_CACTVS_TAUTO_COUNT>
264

> <PUBCHEM_CONFORMER_ID>
005359B500000002

> <PUBCHEM_MMFF94_ENERGY>
202.5295

> <PUBCHEM_FEATURE_SELFOVERLAP>
91.455

> <PUBCHEM_SHAPE_FINGERPRINT>
11115154 58 17031660170590363388
11227688 84 17970613307229271510
11377469 6 16950832713132004594
11399939 17 17184741395718831707
12128747 34 18336825394587639781
12633046 712 18116713117687349021
12788726 201 17417822703619888537
1361 2 18263922129456753659
13911987 19 18191844805224849708
14068700 686 18341898463369851941
14415360 78 17609212360721304376
15131766 46 16808998801626980513
15324884 4 17909817748342387762
15420108 30 17043451934771932761
15444296 8 16884943508270098670
15775530 1 18269850859546939529
15968369 26 17981075168281799958
18365409 1 17178559962659047879
19319366 153 17459753605477327227
20511986 3 15864632748127157001
20775438 99 17908170976012764277
21033650 10 17275095171678244073
22440779 20 17911202270053235025
2260408 40 18122592052354220595
244849 19 18262537968829373537
354706 132 17558251379415694510
3882209 13 17978798140411636218
46194498 28 18341329998989697884
613672 6 17683823372603315822
7399639 24 18267318546713225417
86090 222 18337658725206159666

> <PUBCHEM_SHAPE_MULTIPOLES>
880.9
12.59
7.27
3.18
10.09
0.38
-0.16
-5.1
2.02
-1.25
2.99
0.37
3.18
9.49

> <PUBCHEM_SHAPE_SELFOVERLAP>
1986.063

> <PUBCHEM_SHAPE_VOLUME>
459.6

> <PUBCHEM_COORDINATE_TYPE>
2
5
10

$$$$

