15558498
  -OEChem-07051213092D

 36 40  0     1  0  0  0  0  0999 V2000
    3.5229   -1.5894    0.0000 O   0  0  0  0  0  0  0  0  0  0  0  0
    2.0000   -0.4776    0.0000 O   0  0  0  0  0  0  0  0  0  0  0  0
    4.1100    0.8296    0.0000 O   0  0  0  0  0  0  0  0  0  0  0  0
    5.3191    1.2569    0.0000 O   0  0  0  0  0  0  0  0  0  0  0  0
    7.0672   -1.7846    0.0000 O   0  0  0  0  0  0  0  0  0  0  0  0
    8.4252    2.5217    0.0000 O   0  0  0  0  0  0  0  0  0  0  0  0
    6.2133    2.7846    0.0000 O   0  0  0  0  0  0  0  0  0  0  0  0
    3.5229    0.0201    0.0000 C   0  0  2  0  0  0  0  0  0  0  0  0
    4.4691   -0.2846    0.0000 C   0  0  0  0  0  0  0  0  0  0  0  0
    2.9393   -0.7846    0.0000 C   0  0  1  0  0  0  0  0  0  0  0  0
    5.3351    0.2154    0.0000 C   0  0  0  0  0  0  0  0  0  0  0  0
    4.4691   -1.2846    0.0000 C   0  0  0  0  0  0  0  0  0  0  0  0
    6.2012   -0.2846    0.0000 C   0  0  0  0  0  0  0  0  0  0  0  0
    7.1112    0.2222    0.0000 C   0  0  0  0  0  0  0  0  0  0  0  0
    2.9393    0.8176    0.0000 C   0  0  0  0  0  0  0  0  0  0  0  0
    8.0943   -0.1028    0.0000 C   0  0  0  0  0  0  0  0  0  0  0  0
    7.1192    1.2638    0.0000 C   0  0  0  0  0  0  0  0  0  0  0  0
    6.2012   -1.2846    0.0000 C   0  0  0  0  0  0  0  0  0  0  0  0
    5.3351   -1.7846    0.0000 C   0  0  0  0  0  0  0  0  0  0  0  0
    8.7087    0.7307    0.0000 C   0  0  0  0  0  0  0  0  0  0  0  0
    2.0000    0.5106    0.0000 C   0  0  0  0  0  0  0  0  0  0  0  0
    8.1072    1.5736    0.0000 C   0  0  0  0  0  0  0  0  0  0  0  0
    6.2171    1.7846    0.0000 C   0  0  0  0  0  0  0  0  0  0  0  0
    7.0672   -2.7846    0.0000 C   0  0  0  0  0  0  0  0  0  0  0  0
    2.4388   -1.4716    0.0000 H   0  0  0  0  0  0  0  0  0  0  0  0
    3.1294    1.4077    0.0000 H   0  0  0  0  0  0  0  0  0  0  0  0
    7.8389   -0.6677    0.0000 H   0  0  0  0  0  0  0  0  0  0  0  0
    8.6293   -0.4161    0.0000 H   0  0  0  0  0  0  0  0  0  0  0  0
    5.3351   -2.4046    0.0000 H   0  0  0  0  0  0  0  0  0  0  0  0
    9.1663    0.3125    0.0000 H   0  0  0  0  0  0  0  0  0  0  0  0
    9.1727    1.1419    0.0000 H   0  0  0  0  0  0  0  0  0  0  0  0
    1.4981    0.8746    0.0000 H   0  0  0  0  0  0  0  0  0  0  0  0
    3.8573    1.3958    0.0000 H   0  0  0  0  0  0  0  0  0  0  0  0
    6.4472   -2.7846    0.0000 H   0  0  0  0  0  0  0  0  0  0  0  0
    7.0672   -3.4046    0.0000 H   0  0  0  0  0  0  0  0  0  0  0  0
    7.6872   -2.7846    0.0000 H   0  0  0  0  0  0  0  0  0  0  0  0
  1 10  1  0  0  0  0
  1 12  1  0  0  0  0
  2 10  1  0  0  0  0
  2 21  1  0  0  0  0
  8  3  1  6  0  0  0
  3 33  1  0  0  0  0
  4 11  1  0  0  0  0
  4 23  1  0  0  0  0
  5 18  1  0  0  0  0
  5 24  1  0  0  0  0
  6 22  2  0  0  0  0
  7 23  2  0  0  0  0
  8  9  1  0  0  0  0
  8 10  1  0  0  0  0
  8 15  1  0  0  0  0
  9 11  2  0  0  0  0
  9 12  1  0  0  0  0
 10 25  1  6  0  0  0
 11 13  1  0  0  0  0
 12 19  2  0  0  0  0
 13 14  1  0  0  0  0
 13 18  2  0  0  0  0
 14 16  1  0  0  0  0
 14 17  2  0  0  0  0
 15 21  2  0  0  0  0
 15 26  1  0  0  0  0
 16 20  1  0  0  0  0
 16 27  1  0  0  0  0
 16 28  1  0  0  0  0
 17 22  1  0  0  0  0
 17 23  1  0  0  0  0
 18 19  1  0  0  0  0
 19 29  1  0  0  0  0
 20 22  1  0  0  0  0
 20 30  1  0  0  0  0
 20 31  1  0  0  0  0
 21 32  1  0  0  0  0
 24 34  1  0  0  0  0
 24 35  1  0  0  0  0
 24 36  1  0  0  0  0
M  END
> <PUBCHEM_COMPOUND_CID>
15558498

> <PUBCHEM_COMPOUND_CANONICALIZED>
1

> <PUBCHEM_CACTVS_COMPLEXITY>
695

> <PUBCHEM_CACTVS_HBOND_ACCEPTOR>
7

> <PUBCHEM_CACTVS_HBOND_DONOR>
1

> <PUBCHEM_CACTVS_ROTATABLE_BOND>
1

> <PUBCHEM_CACTVS_SUBSKEYS>
AAADccB4OAAAAAAAAAAAAAAAAAAAASIEAAAwQAAAAAAQAEiBAAAAGgAACAAADESwmAMyDoAABgCIAqDSCAACCAAgIAAIiAEGCMgdJzaMMBqieiCl4BUPuQfI6PyOoAACCAAIAABAAAQQABAAAAAAAAAAAA==

> <PUBCHEM_IUPAC_INCHI>
InChI=1S/C17H12O7/c1-21-9-6-10-13(17(20)4-5-22-16(17)23-10)14-12(9)7-2-3-8(18)11(7)15(19)24-14/h4-6,16,20H,2-3H2,1H3/t16-,17-/m1/s1

> <PUBCHEM_IUPAC_INCHIKEY>
MJBWDEQAUQTVKK-IAGOWNOFSA-N

> <PUBCHEM_XLOGP3_AA>
0.5

> <PUBCHEM_EXACT_MASS>
328.058303

> <PUBCHEM_MOLECULAR_FORMULA>
C17H12O7

> <PUBCHEM_MOLECULAR_WEIGHT>
328.27298

> <PUBCHEM_OPENEYE_CAN_SMILES>
COC1=C2C3=C(C(=O)CC3)C(=O)OC2=C4C(=C1)OC5C4(C=CO5)O

> <PUBCHEM_OPENEYE_ISO_SMILES>
COC1=C2C3=C(C(=O)CC3)C(=O)OC2=C4C(=C1)O[C@@H]5[C@]4(C=CO5)O

> <PUBCHEM_CACTVS_TPSA>
91.3

> <PUBCHEM_MONOISOTOPIC_WEIGHT>
328.058303

> <PUBCHEM_TOTAL_CHARGE>
0

> <PUBCHEM_HEAVY_ATOM_COUNT>
24

> <PUBCHEM_ATOM_DEF_STEREO_COUNT>
2

> <PUBCHEM_ATOM_UDEF_STEREO_COUNT>
0

> <PUBCHEM_BOND_DEF_STEREO_COUNT>
0

> <PUBCHEM_BOND_UDEF_STEREO_COUNT>
0

> <PUBCHEM_ISOTOPIC_ATOM_COUNT>
0

> <PUBCHEM_COMPONENT_COUNT>
1

> <PUBCHEM_CACTVS_TAUTO_COUNT>
10

> <PUBCHEM_COORDINATE_TYPE>
1
5
255

> <PUBCHEM_BONDANNOTATIONS>
10  25  6
11  13  8
12  19  8
13  14  8
13  18  8
14  17  8
17  23  8
18  19  8
8  3  6
4  11  8
4  23  8
9  11  8
9  12  8

$$$$

