5270
  -OEChem-06261200362D

 26 28  0     1  0  0  0  0  0999 V2000
    4.4026    2.0336    0.0000 O   0  0  0  0  0  0  0  0  0  0  0  0
    4.6783    0.2731    0.0000 N   0  0  0  0  0  0  0  0  0  0  0  0
    4.6783   -1.3364    0.0000 N   0  0  0  0  0  0  0  0  0  0  0  0
    2.8660    0.4684    0.0000 N   0  0  0  0  0  0  0  0  0  0  0  0
    2.0000   -1.0316    0.0000 N   0  0  0  0  0  0  0  0  0  0  0  0
    2.8660   -2.5316    0.0000 N   0  0  0  0  0  0  0  0  0  0  0  0
    4.9889    1.2236    0.0000 C   0  0  3  0  0  0  0  0  0  0  0  0
    5.9405    1.5310    0.0000 C   0  0  0  0  0  0  0  0  0  0  0  0
    5.9422    2.5310    0.0000 C   0  0  0  0  0  0  0  0  0  0  0  0
    4.9917    2.8416    0.0000 C   0  0  0  0  0  0  0  0  0  0  0  0
    3.7320   -0.0316    0.0000 C   0  0  0  0  0  0  0  0  0  0  0  0
    5.2619   -0.5316    0.0000 C   0  0  0  0  0  0  0  0  0  0  0  0
    3.7320   -1.0316    0.0000 C   0  0  0  0  0  0  0  0  0  0  0  0
    2.8660   -1.5316    0.0000 C   0  0  0  0  0  0  0  0  0  0  0  0
    2.0000   -0.0316    0.0000 C   0  0  0  0  0  0  0  0  0  0  0  0
    5.4266    0.7844    0.0000 H   0  0  0  0  0  0  0  0  0  0  0  0
    6.0684    0.9243    0.0000 H   0  0  0  0  0  0  0  0  0  0  0  0
    6.5572    1.5947    0.0000 H   0  0  0  0  0  0  0  0  0  0  0  0
    6.5587    2.4651    0.0000 H   0  0  0  0  0  0  0  0  0  0  0  0
    6.0722    3.1372    0.0000 H   0  0  0  0  0  0  0  0  0  0  0  0
    5.2449    3.4076    0.0000 H   0  0  0  0  0  0  0  0  0  0  0  0
    4.4553    3.1526    0.0000 H   0  0  0  0  0  0  0  0  0  0  0  0
    5.8819   -0.5316    0.0000 H   0  0  0  0  0  0  0  0  0  0  0  0
    1.4631    0.2784    0.0000 H   0  0  0  0  0  0  0  0  0  0  0  0
    2.3291   -2.8416    0.0000 H   0  0  0  0  0  0  0  0  0  0  0  0
    3.4030   -2.8416    0.0000 H   0  0  0  0  0  0  0  0  0  0  0  0
  1  7  1  0  0  0  0
  1 10  1  0  0  0  0
  2  7  1  0  0  0  0
  2 11  1  0  0  0  0
  2 12  1  0  0  0  0
  3 12  2  0  0  0  0
  3 13  1  0  0  0  0
  4 11  2  0  0  0  0
  4 15  1  0  0  0  0
  5 14  1  0  0  0  0
  5 15  2  0  0  0  0
  6 14  1  0  0  0  0
  6 25  1  0  0  0  0
  6 26  1  0  0  0  0
  7  8  1  0  0  0  0
  7 16  1  0  0  0  0
  8  9  1  0  0  0  0
  8 17  1  0  0  0  0
  8 18  1  0  0  0  0
  9 10  1  0  0  0  0
  9 19  1  0  0  0  0
  9 20  1  0  0  0  0
 10 21  1  0  0  0  0
 10 22  1  0  0  0  0
 11 13  1  0  0  0  0
 12 23  1  0  0  0  0
 13 14  2  0  0  0  0
 15 24  1  0  0  0  0
M  END
> <PUBCHEM_COMPOUND_CID>
5270

> <PUBCHEM_COMPOUND_CANONICALIZED>
1

> <PUBCHEM_CACTVS_COMPLEXITY>
239

> <PUBCHEM_CACTVS_HBOND_ACCEPTOR>
5

> <PUBCHEM_CACTVS_HBOND_DONOR>
1

> <PUBCHEM_CACTVS_ROTATABLE_BOND>
1

> <PUBCHEM_CACTVS_SUBSKEYS>
AAADccBzoAAAAAAAAAAAAAAAAAAAAWJAAAAsAAAAAAAAAFgB+AAAHgAQAAAACAjhlwYF8L9MFACgAQZhZACAgC0REKABUCAoVBCASABAyEAeBAgMAALAACAgAAAAAAAAAAAAAAAAAAAAAAAAAAAAAAAAAA==

> <PUBCHEM_IUPAC_OPENEYE_NAME>
9-tetrahydrofuran-2-ylpurin-6-amine

> <PUBCHEM_IUPAC_CAS_NAME>
9-(2-oxolanyl)-6-purinamine

> <PUBCHEM_IUPAC_NAME>
9-(oxolan-2-yl)purin-6-amine

> <PUBCHEM_IUPAC_SYSTEMATIC_NAME>
9-(oxolan-2-yl)purin-6-amine

> <PUBCHEM_IUPAC_TRADITIONAL_NAME>
[9-(tetrahydrofuryl)purin-6-yl]amine

> <PUBCHEM_IUPAC_INCHI>
InChI=1S/C9H11N5O/c10-8-7-9(12-4-11-8)14(5-13-7)6-2-1-3-15-6/h4-6H,1-3H2,(H2,10,11,12)

> <PUBCHEM_IUPAC_INCHIKEY>
UKHMZCMKHPHFOT-UHFFFAOYSA-N

> <PUBCHEM_XLOGP3>
0.4

> <PUBCHEM_EXACT_MASS>
205.09636

> <PUBCHEM_MOLECULAR_FORMULA>
C9H11N5O

> <PUBCHEM_MOLECULAR_WEIGHT>
205.21654

> <PUBCHEM_OPENEYE_CAN_SMILES>
C1CC(OC1)N2C=NC3=C2N=CN=C3N

> <PUBCHEM_OPENEYE_ISO_SMILES>
C1CC(OC1)N2C=NC3=C2N=CN=C3N

> <PUBCHEM_CACTVS_TPSA>
78.8

> <PUBCHEM_MONOISOTOPIC_WEIGHT>
205.09636

> <PUBCHEM_TOTAL_CHARGE>
0

> <PUBCHEM_HEAVY_ATOM_COUNT>
15

> <PUBCHEM_ATOM_DEF_STEREO_COUNT>
0

> <PUBCHEM_ATOM_UDEF_STEREO_COUNT>
1

> <PUBCHEM_BOND_DEF_STEREO_COUNT>
0

> <PUBCHEM_BOND_UDEF_STEREO_COUNT>
0

> <PUBCHEM_ISOTOPIC_ATOM_COUNT>
0

> <PUBCHEM_COMPONENT_COUNT>
1

> <PUBCHEM_CACTVS_TAUTO_COUNT>
3

> <PUBCHEM_COORDINATE_TYPE>
1
5
255

> <PUBCHEM_BONDANNOTATIONS>
11  13  8
13  14  8
2  11  8
2  12  8
7  2  3
3  12  8
3  13  8
4  11  8
4  15  8
5  14  8
5  15  8

$$$$

