3524
  -OEChem-06251223282D

 35 38  0     1  0  0  0  0  0999 V2000
    9.6822    0.1424    0.0000 S   0  0  0  0  0  0  0  0  0  0  0  0
    8.8742    0.7316    0.0000 P   0  0  3  0  0  0  0  0  0  0  0  0
    5.8055    0.7369    0.0000 O   0  0  0  0  0  0  0  0  0  0  0  0
    8.2892   -0.0722    0.0000 O   0  0  0  0  0  0  0  0  0  0  0  0
    8.2920    1.5373    0.0000 O   0  0  0  0  0  0  0  0  0  0  0  0
    9.6842    1.3179    0.0000 O   0  0  0  0  0  0  0  0  0  0  0  0
    6.7577    3.2384    0.0000 O   0  0  0  0  0  0  0  0  0  0  0  0
    4.2690   -3.8284    0.0000 O   0  0  0  0  0  0  0  0  0  0  0  0
    6.0812   -1.0237    0.0000 N   0  0  0  0  0  0  0  0  0  0  0  0
    4.2690   -0.8284    0.0000 N   0  0  0  0  0  0  0  0  0  0  0  0
    6.0812   -2.6332    0.0000 N   0  0  0  0  0  0  0  0  0  0  0  0
    3.4030   -2.3284    0.0000 N   0  0  0  0  0  0  0  0  0  0  0  0
    2.5369   -0.8284    0.0000 N   0  0  0  0  0  0  0  0  0  0  0  0
    7.3435    0.2342    0.0000 C   0  0  3  0  0  0  0  0  0  0  0  0
    7.3452    1.2342    0.0000 C   0  0  3  0  0  0  0  0  0  0  0  0
    6.3919   -0.0732    0.0000 C   0  0  3  0  0  0  0  0  0  0  0  0
    6.3947    1.5449    0.0000 C   0  0  3  0  0  0  0  0  0  0  0  0
    6.0873    2.4964    0.0000 C   0  0  0  0  0  0  0  0  0  0  0  0
    5.1350   -1.3284    0.0000 C   0  0  0  0  0  0  0  0  0  0  0  0
    6.6648   -1.8284    0.0000 C   0  0  0  0  0  0  0  0  0  0  0  0
    5.1350   -2.3284    0.0000 C   0  0  0  0  0  0  0  0  0  0  0  0
    4.2690   -2.8284    0.0000 C   0  0  0  0  0  0  0  0  0  0  0  0
    3.4030   -1.3284    0.0000 C   0  0  0  0  0  0  0  0  0  0  0  0
    7.3432   -0.3858    0.0000 H   0  0  0  0  0  0  0  0  0  0  0  0
    7.3471    1.8542    0.0000 H   0  0  0  0  0  0  0  0  0  0  0  0
    5.7794   -0.1691    0.0000 H   0  0  0  0  0  0  0  0  0  0  0  0
    5.7825    1.6429    0.0000 H   0  0  0  0  0  0  0  0  0  0  0  0
    5.7065    2.9857    0.0000 H   0  0  0  0  0  0  0  0  0  0  0  0
    5.5394    2.2063    0.0000 H   0  0  0  0  0  0  0  0  0  0  0  0
    7.2848   -1.8284    0.0000 H   0  0  0  0  0  0  0  0  0  0  0  0
    4.2690   -0.2084    0.0000 H   0  0  0  0  0  0  0  0  0  0  0  0
   10.2502    1.0648    0.0000 H   0  0  0  0  0  0  0  0  0  0  0  0
    6.5672    3.8284    0.0000 H   0  0  0  0  0  0  0  0  0  0  0  0
    2.0000   -1.1384    0.0000 H   0  0  0  0  0  0  0  0  0  0  0  0
    2.5369   -0.2084    0.0000 H   0  0  0  0  0  0  0  0  0  0  0  0
  1  2  2  0  0  0  0
  2  4  1  0  0  0  0
  2  5  1  0  0  0  0
  2  6  1  0  0  0  0
  3 16  1  0  0  0  0
  3 17  1  0  0  0  0
  4 14  1  0  0  0  0
  5 15  1  0  0  0  0
  6 32  1  0  0  0  0
  7 18  1  0  0  0  0
  7 33  1  0  0  0  0
  8 22  2  0  0  0  0
  9 16  1  0  0  0  0
  9 19  1  0  0  0  0
  9 20  1  0  0  0  0
 10 19  1  0  0  0  0
 10 23  1  0  0  0  0
 10 31  1  0  0  0  0
 11 20  2  0  0  0  0
 11 21  1  0  0  0  0
 12 22  1  0  0  0  0
 12 23  2  0  0  0  0
 13 23  1  0  0  0  0
 13 34  1  0  0  0  0
 13 35  1  0  0  0  0
 14 15  1  0  0  0  0
 14 16  1  0  0  0  0
 14 24  1  0  0  0  0
 15 17  1  0  0  0  0
 15 25  1  0  0  0  0
 16 26  1  0  0  0  0
 17 18  1  0  0  0  0
 17 27  1  0  0  0  0
 18 28  1  0  0  0  0
 18 29  1  0  0  0  0
 19 21  2  0  0  0  0
 20 30  1  0  0  0  0
 21 22  1  0  0  0  0
M  END
> <PUBCHEM_COMPOUND_CID>
3524

> <PUBCHEM_COMPOUND_CANONICALIZED>
1

> <PUBCHEM_CACTVS_COMPLEXITY>
621

> <PUBCHEM_CACTVS_HBOND_ACCEPTOR>
8

> <PUBCHEM_CACTVS_HBOND_DONOR>
4

> <PUBCHEM_CACTVS_ROTATABLE_BOND>
2

> <PUBCHEM_CACTVS_SUBSKEYS>
AAADccBzuAJAAAAAAAAAAAAAAAAAAWJEgAAgAAAAAAASAEABgAAAHgAQCCAACBzhlgYFsBfMFxCoAQdxdACAgC0XEKABUAGoVECDWApAyCAeQIAPAALTAGDwMAIAAAAAAAAAAAAAAAAAAAAAAAAAAAAAAA==

> <PUBCHEM_IUPAC_OPENEYE_NAME>
2-amino-9-[2-hydroxy-6-(hydroxymethyl)-2-thioxo-3a,4,6,6a-tetrahydrofuro[3,4-d][1,3,2]dioxaphosphol-4-yl]-3H-purin-6-one

> <PUBCHEM_IUPAC_CAS_NAME>
2-amino-9-[2-hydroxy-6-(hydroxymethyl)-2-sulfanylidene-3a,4,6,6a-tetrahydrofuro[3,4-d][1,3,2]dioxaphosphol-4-yl]-3H-purin-6-one

> <PUBCHEM_IUPAC_NAME>
2-amino-9-[2-hydroxy-6-(hydroxymethyl)-2-sulfanylidene-3a,4,6,6a-tetrahydrofuro[3,4-d][1,3,2]dioxaphosphol-4-yl]-3H-purin-6-one

> <PUBCHEM_IUPAC_SYSTEMATIC_NAME>
2-azanyl-9-[6-(hydroxymethyl)-2-oxidanyl-2-sulfanylidene-3a,4,6,6a-tetrahydrofuro[3,4-d][1,3,2]dioxaphosphol-4-yl]-3H-purin-6-one

> <PUBCHEM_IUPAC_TRADITIONAL_NAME>
2-amino-9-(2-hydroxy-6-methylol-2-thioxo-3a,4,6,6a-tetrahydrofuro[3,4-d][1,3,2]dioxaphosphol-4-yl)-3H-purin-6-one

> <PUBCHEM_IUPAC_INCHI>
InChI=1S/C10H12N5O6PS/c11-10-13-7-4(8(17)14-10)12-2-15(7)9-6-5(3(1-16)19-9)20-22(18,23)21-6/h2-3,5-6,9,16H,1H2,(H,18,23)(H3,11,13,14,17)

> <PUBCHEM_IUPAC_INCHIKEY>
QZEROIIFJLCOOE-UHFFFAOYSA-N

> <PUBCHEM_XLOGP3_AA>
-1.7

> <PUBCHEM_EXACT_MASS>
361.024591

> <PUBCHEM_MOLECULAR_FORMULA>
C10H12N5O6PS

> <PUBCHEM_MOLECULAR_WEIGHT>
361.270942

> <PUBCHEM_OPENEYE_CAN_SMILES>
C1=NC2=C(N1C3C4C(C(O3)CO)OP(=S)(O4)O)NC(=NC2=O)N

> <PUBCHEM_OPENEYE_ISO_SMILES>
C1=NC2=C(N1C3C4C(C(O3)CO)OP(=S)(O4)O)NC(=NC2=O)N

> <PUBCHEM_CACTVS_TPSA>
186

> <PUBCHEM_MONOISOTOPIC_WEIGHT>
361.024591

> <PUBCHEM_TOTAL_CHARGE>
0

> <PUBCHEM_HEAVY_ATOM_COUNT>
23

> <PUBCHEM_ATOM_DEF_STEREO_COUNT>
0

> <PUBCHEM_ATOM_UDEF_STEREO_COUNT>
4

> <PUBCHEM_BOND_DEF_STEREO_COUNT>
0

> <PUBCHEM_BOND_UDEF_STEREO_COUNT>
0

> <PUBCHEM_ISOTOPIC_ATOM_COUNT>
0

> <PUBCHEM_COMPONENT_COUNT>
1

> <PUBCHEM_CACTVS_TAUTO_COUNT>
18

> <PUBCHEM_COORDINATE_TYPE>
1
5
255

> <PUBCHEM_BONDANNOTATIONS>
10  19  8
10  23  8
11  20  8
11  21  8
12  22  8
12  23  8
17  18  3
19  21  8
21  22  8
14  4  3
15  5  3
16  9  3
9  19  8
9  20  8

$$$$

