11796
  -OEChem-06261206073D

 25 27  0     0  0  0  0  0  0999 V2000
   -0.0735   -2.6061    0.0010 O   0  0  0  0  0  0  0  0  0  0  0  0
   -0.5114    2.7205    0.0005 O   0  0  0  0  0  0  0  0  0  0  0  0
    4.6771   -0.9149   -0.0015 O   0  0  0  0  0  0  0  0  0  0  0  0
    1.0338   -0.5343    0.0003 C   0  0  0  0  0  0  0  0  0  0  0  0
    0.9192    0.8575    0.0005 C   0  0  0  0  0  0  0  0  0  0  0  0
   -1.5038   -0.7430    0.0004 C   0  0  0  0  0  0  0  0  0  0  0  0
   -1.6183    0.6486    0.0000 C   0  0  0  0  0  0  0  0  0  0  0  0
   -0.1736   -1.3853    0.0009 C   0  0  0  0  0  0  0  0  0  0  0  0
   -0.4109    1.4998    0.0007 C   0  0  0  0  0  0  0  0  0  0  0  0
    2.3003   -1.1307   -0.0003 C   0  0  0  0  0  0  0  0  0  0  0  0
    2.0714    1.6528    0.0003 C   0  0  0  0  0  0  0  0  0  0  0  0
   -2.6559   -1.5385    0.0001 C   0  0  0  0  0  0  0  0  0  0  0  0
   -2.8850    1.2450   -0.0006 C   0  0  0  0  0  0  0  0  0  0  0  0
    3.4459   -0.3343   -0.0005 C   0  0  0  0  0  0  0  0  0  0  0  0
    3.3317    1.0544    0.0000 C   0  0  0  0  0  0  0  0  0  0  0  0
   -3.9163   -0.9401   -0.0007 C   0  0  0  0  0  0  0  0  0  0  0  0
   -4.0306    0.4486   -0.0012 C   0  0  0  0  0  0  0  0  0  0  0  0
    2.4024   -2.2131   -0.0006 H   0  0  0  0  0  0  0  0  0  0  0  0
    2.0090    2.7377    0.0005 H   0  0  0  0  0  0  0  0  0  0  0  0
   -2.5937   -2.6234    0.0005 H   0  0  0  0  0  0  0  0  0  0  0  0
   -3.0010    2.3255   -0.0008 H   0  0  0  0  0  0  0  0  0  0  0  0
    4.2219    1.6778   -0.0003 H   0  0  0  0  0  0  0  0  0  0  0  0
   -4.8097   -1.5578   -0.0010 H   0  0  0  0  0  0  0  0  0  0  0  0
   -5.0130    0.9119   -0.0018 H   0  0  0  0  0  0  0  0  0  0  0  0
    4.5708   -1.8817   -0.0018 H   0  0  0  0  0  0  0  0  0  0  0  0
  1  8  2  0  0  0  0
  2  9  2  0  0  0  0
  3 14  1  0  0  0  0
  3 25  1  0  0  0  0
  4  5  2  0  0  0  0
  4  8  1  0  0  0  0
  4 10  1  0  0  0  0
  5  9  1  0  0  0  0
  5 11  1  0  0  0  0
  6  7  1  0  0  0  0
  6  8  1  0  0  0  0
  6 12  2  0  0  0  0
  7  9  1  0  0  0  0
  7 13  2  0  0  0  0
 10 14  2  0  0  0  0
 10 18  1  0  0  0  0
 11 15  2  0  0  0  0
 11 19  1  0  0  0  0
 12 16  1  0  0  0  0
 12 20  1  0  0  0  0
 13 17  1  0  0  0  0
 13 21  1  0  0  0  0
 14 15  1  0  0  0  0
 15 22  1  0  0  0  0
 16 17  2  0  0  0  0
 16 23  1  0  0  0  0
 17 24  1  0  0  0  0
M  END
> <PUBCHEM_COMPOUND_CID>
11796

> <PUBCHEM_CONFORMER_RMSD>
0.4

> <PUBCHEM_CONFORMER_DIVERSEORDER>
1

> <PUBCHEM_MMFF94_PARTIAL_CHARGES>
25
1 -0.57
10 -0.15
11 -0.15
12 -0.15
13 -0.15
14 0.08
15 -0.15
16 -0.15
17 -0.15
18 0.15
19 0.15
2 -0.57
20 0.15
21 0.15
22 0.15
23 0.15
24 0.15
25 0.45
3 -0.53
4 0.09
5 0.09
6 0.09
7 0.09
8 0.4
9 0.4

> <PUBCHEM_EFFECTIVE_ROTOR_COUNT>
0

> <PUBCHEM_PHARMACOPHORE_FEATURES>
6
1 1 acceptor
1 2 acceptor
1 3 donor
6 4 5 10 11 14 15 rings
6 4 5 6 7 8 9 rings
6 6 7 12 13 16 17 rings

> <PUBCHEM_HEAVY_ATOM_COUNT>
17

> <PUBCHEM_ATOM_DEF_STEREO_COUNT>
0

> <PUBCHEM_ATOM_UDEF_STEREO_COUNT>
0

> <PUBCHEM_BOND_DEF_STEREO_COUNT>
0

> <PUBCHEM_BOND_UDEF_STEREO_COUNT>
0

> <PUBCHEM_ISOTOPIC_ATOM_COUNT>
0

> <PUBCHEM_COMPONENT_COUNT>
1

> <PUBCHEM_CACTVS_TAUTO_COUNT>
5

> <PUBCHEM_CONFORMER_ID>
00002E1400000001

> <PUBCHEM_MMFF94_ENERGY>
49.8507

> <PUBCHEM_FEATURE_SELFOVERLAP>
30.488

> <PUBCHEM_SHAPE_FINGERPRINT>
10062212 137 18410301310832132139
10411042 1 15312378509504320840
10608611 8 18410296882520383385
108231 29 18333732386014737137
10967382 1 18410574002363079271
11132069 177 18408328782423402456
11458722 379 18412259575390357606
11471102 20 18411142411209332500
11680986 33 18123469371678657897
12032990 46 18411415085898286795
13140716 1 18410289207550768009
13221675 6 18411138051833435594
13288520 33 18408882975487204862
13380535 76 18410292527444709215
13862211 1 18410862065793683462
14115302 16 18060127726673583838
15196674 1 18410856538180842309
15309172 13 18409158913971613131
15442244 35 18410293584148699072
15536298 74 18334576806945047272
16945 1 18194682794157933985
17804303 29 18408601474571833268
18186145 218 18342742918110981901
193761 8 17834677475723774599
19591789 44 18411136905156737107
200 152 18040724649578922197
20028762 73 18043249046694276911
20510252 161 18261111889363025760
20645476 183 17844227550291933590
21029758 11 18334863779622490505
21249577 43 18410856551223947797
21267235 1 18410846659904079371
21501502 16 18337952264354939148
221490 88 18197772215541711738
2334 1 18338516335463649125
23402539 116 18333741212204016518
23463225 33 18412545405205099221
23493267 7 17703796959072764801
23559900 14 18334859411988799664
238 59 15685087283910568661
2748010 2 18410576154315748493
3286 77 17313110721778750472
335352 9 18338517576598415317
43471831 8 18270121347791884138
474 4 16915371097063253956
5104073 3 18410292484431369912
528886 8 18410016532935549459
537710 114 18339918234163946221
54173680 148 18196370308257553915
69090 78 18334017159510389703
7364860 26 18191866940479289623
84936 31 16009865215872946662
8809292 202 18271803505966097611
9709674 26 18409161087183185102

> <PUBCHEM_SHAPE_MULTIPOLES>
332.24
6.94
2.28
0.6
1.12
0.2
0
-0.86
0
-0.14
0
-0.02
0.01
0

> <PUBCHEM_SHAPE_SELFOVERLAP>
754.438

> <PUBCHEM_SHAPE_VOLUME>
172.2

> <PUBCHEM_COORDINATE_TYPE>
2
5
10

$$$$

