441710
  -OEChem-07051212553D

100106  0     1  0  0  0  0  0999 V2000
   -2.1981   -1.1008   -2.5934 O   0  0  0  0  0  0  0  0  0  0  0  0
   -2.3756    1.5954   -1.8737 O   0  0  0  0  0  0  0  0  0  0  0  0
    0.3980   -0.5877   -2.5229 O   0  0  0  0  0  0  0  0  0  0  0  0
   -1.8363   -2.7388    2.6845 O   0  0  0  0  0  0  0  0  0  0  0  0
   -3.7085    2.9505    0.4392 O   0  0  0  0  0  0  0  0  0  0  0  0
   -6.0360    0.9088    0.4982 O   0  0  0  0  0  0  0  0  0  0  0  0
    3.1922   -1.4309   -0.3847 O   0  0  0  0  0  0  0  0  0  0  0  0
    4.8276   -1.5691   -1.9991 O   0  0  0  0  0  0  0  0  0  0  0  0
    3.5261    3.5837    0.9540 O   0  0  0  0  0  0  0  0  0  0  0  0
   -0.6247    3.8462   -1.9077 O   0  0  0  0  0  0  0  0  0  0  0  0
   -1.3820   -3.1767   -0.6725 N   0  0  2  0  0  0  0  0  0  0  0  0
    3.6133    1.4663   -0.0670 N   0  0  0  0  0  0  0  0  0  0  0  0
   -1.1493    5.2082   -0.1319 N   0  0  0  0  0  0  0  0  0  0  0  0
   -0.9645   -1.2768    0.8570 C   0  0  2  0  0  0  0  0  0  0  0  0
    0.3203   -1.0152   -0.0349 C   0  0  2  0  0  0  0  0  0  0  0  0
   -1.8714   -1.8410   -0.2683 C   0  0  1  0  0  0  0  0  0  0  0  0
   -1.6169    0.0476    1.4371 C   0  0  1  0  0  0  0  0  0  0  0  0
   -1.7508   -0.6780   -1.3147 C   0  0  2  0  0  0  0  0  0  0  0  0
   -2.0070    1.1579    0.4382 C   0  0  1  0  0  0  0  0  0  0  0  0
   -2.5824    0.5727   -0.8724 C   0  0  1  0  0  0  0  0  0  0  0  0
   -0.2423   -0.2926   -1.2991 C   0  0  2  0  0  0  0  0  0  0  0  0
    1.0007   -2.3825   -0.3791 C   0  0  2  0  0  0  0  0  0  0  0  0
   -0.6567   -2.2238    2.0718 C   0  0  2  0  0  0  0  0  0  0  0  0
   -2.9275   -0.1449    2.2517 C   0  0  0  0  0  0  0  0  0  0  0  0
   -3.9439    0.8719    1.7091 C   0  0  1  0  0  0  0  0  0  0  0  0
   -3.0346    1.9844    1.2169 C   0  0  2  0  0  0  0  0  0  0  0  0
   -4.1144    0.3285   -0.8313 C   0  0  0  0  0  0  0  0  0  0  0  0
   -0.0107   -3.2402   -1.1971 C   0  0  0  0  0  0  0  0  0  0  0  0
    1.4080   -3.0896    0.9352 C   0  0  0  0  0  0  0  0  0  0  0  0
   -4.7641    0.2524    0.5611 C   0  0  2  0  0  0  0  0  0  0  0  0
    0.2376   -3.4277    1.8221 C   0  0  0  0  0  0  0  0  0  0  0  0
    2.3232   -2.2203   -1.1645 C   0  0  0  0  0  0  0  0  0  0  0  0
   -2.3194   -3.9314   -1.4927 C   0  0  0  0  0  0  0  0  0  0  0  0
    0.1497    0.4125   -3.5064 C   0  0  0  0  0  0  0  0  0  0  0  0
   -1.9319   -5.3989   -1.5601 C   0  0  0  0  0  0  0  0  0  0  0  0
   -1.6370   -2.9797    4.0693 C   0  0  0  0  0  0  0  0  0  0  0  0
   -4.4163    3.8852    1.2488 C   0  0  0  0  0  0  0  0  0  0  0  0
   -7.0196    0.0627   -0.0717 C   0  0  0  0  0  0  0  0  0  0  0  0
    4.4253   -1.1738   -0.9159 C   0  0  0  0  0  0  0  0  0  0  0  0
    5.2414   -0.3375    0.0001 C   0  0  0  0  0  0  0  0  0  0  0  0
    4.8219    0.9341    0.3913 C   0  0  0  0  0  0  0  0  0  0  0  0
    6.4507   -0.8485    0.4713 C   0  0  0  0  0  0  0  0  0  0  0  0
    5.6118    1.6943    1.2539 C   0  0  0  0  0  0  0  0  0  0  0  0
    7.2405   -0.0882    1.3338 C   0  0  0  0  0  0  0  0  0  0  0  0
    6.8212    1.1833    1.7249 C   0  0  0  0  0  0  0  0  0  0  0  0
    3.0502    2.7166    0.2288 C   0  0  0  0  0  0  0  0  0  0  0  0
    1.7149    2.8982   -0.4841 C   0  0  0  0  0  0  0  0  0  0  0  0
    1.0542    4.2433   -0.1989 C   0  0  0  0  0  0  0  0  0  0  0  0
   -0.3070    4.3899   -0.8542 C   0  0  0  0  0  0  0  0  0  0  0  0
    1.0205   -0.3633    0.5007 H   0  0  0  0  0  0  0  0  0  0  0  0
   -2.9000   -1.9554    0.0852 H   0  0  0  0  0  0  0  0  0  0  0  0
   -0.8768    0.4869    2.1231 H   0  0  0  0  0  0  0  0  0  0  0  0
   -1.1549    1.8139    0.2456 H   0  0  0  0  0  0  0  0  0  0  0  0
   -0.0779    0.7645   -1.1232 H   0  0  0  0  0  0  0  0  0  0  0  0
   -0.1213   -1.5909    2.7958 H   0  0  0  0  0  0  0  0  0  0  0  0
   -3.3506   -1.1478    2.2049 H   0  0  0  0  0  0  0  0  0  0  0  0
   -2.7203    0.0683    3.3080 H   0  0  0  0  0  0  0  0  0  0  0  0
   -4.6160    1.2099    2.5054 H   0  0  0  0  0  0  0  0  0  0  0  0
   -2.5263    2.4755    2.0594 H   0  0  0  0  0  0  0  0  0  0  0  0
   -4.6085    1.1276   -1.4036 H   0  0  0  0  0  0  0  0  0  0  0  0
   -4.3913   -0.5789   -1.3775 H   0  0  0  0  0  0  0  0  0  0  0  0
   -0.0019   -2.9448   -2.2525 H   0  0  0  0  0  0  0  0  0  0  0  0
    0.3585   -4.2723   -1.1754 H   0  0  0  0  0  0  0  0  0  0  0  0
    2.0948   -2.4577    1.5137 H   0  0  0  0  0  0  0  0  0  0  0  0
    1.9542   -4.0167    0.7170 H   0  0  0  0  0  0  0  0  0  0  0  0
   -4.9446   -0.8016    0.8103 H   0  0  0  0  0  0  0  0  0  0  0  0
   -0.3352   -4.2685    1.4132 H   0  0  0  0  0  0  0  0  0  0  0  0
    0.6343   -3.8104    2.7705 H   0  0  0  0  0  0  0  0  0  0  0  0
    2.7794   -3.2076   -1.3196 H   0  0  0  0  0  0  0  0  0  0  0  0
    2.2043   -1.7800   -2.1544 H   0  0  0  0  0  0  0  0  0  0  0  0
   -3.0755   -1.5045   -2.5045 H   0  0  0  0  0  0  0  0  0  0  0  0
   -1.4818    1.9626   -1.8004 H   0  0  0  0  0  0  0  0  0  0  0  0
   -3.3232   -3.8753   -1.0546 H   0  0  0  0  0  0  0  0  0  0  0  0
   -2.3874   -3.5453   -2.5141 H   0  0  0  0  0  0  0  0  0  0  0  0
    0.5336    1.3824   -3.1769 H   0  0  0  0  0  0  0  0  0  0  0  0
   -0.9051    0.4959   -3.7718 H   0  0  0  0  0  0  0  0  0  0  0  0
    0.6967    0.1287   -4.4103 H   0  0  0  0  0  0  0  0  0  0  0  0
   -2.7527   -5.9753   -2.0014 H   0  0  0  0  0  0  0  0  0  0  0  0
   -1.7406   -5.8124   -0.5639 H   0  0  0  0  0  0  0  0  0  0  0  0
   -1.0533   -5.5703   -2.1894 H   0  0  0  0  0  0  0  0  0  0  0  0
   -2.5997   -3.2748    4.4973 H   0  0  0  0  0  0  0  0  0  0  0  0
   -1.3059   -2.0733    4.5862 H   0  0  0  0  0  0  0  0  0  0  0  0
   -0.9351   -3.7987    4.2436 H   0  0  0  0  0  0  0  0  0  0  0  0
   -5.1906    3.3888    1.8400 H   0  0  0  0  0  0  0  0  0  0  0  0
   -3.7269    4.4265    1.9041 H   0  0  0  0  0  0  0  0  0  0  0  0
   -4.9003    4.6078    0.5860 H   0  0  0  0  0  0  0  0  0  0  0  0
   -7.1671   -0.8316    0.5420 H   0  0  0  0  0  0  0  0  0  0  0  0
   -7.9646    0.6127   -0.0997 H   0  0  0  0  0  0  0  0  0  0  0  0
   -6.7628   -0.2198   -1.0966 H   0  0  0  0  0  0  0  0  0  0  0  0
    6.7882   -1.8384    0.1753 H   0  0  0  0  0  0  0  0  0  0  0  0
    5.3634    2.6846    1.6062 H   0  0  0  0  0  0  0  0  0  0  0  0
    8.1819   -0.4863    1.7012 H   0  0  0  0  0  0  0  0  0  0  0  0
    3.0763    0.8699   -0.6919 H   0  0  0  0  0  0  0  0  0  0  0  0
    7.4372    1.7740    2.3967 H   0  0  0  0  0  0  0  0  0  0  0  0
    1.0638    2.1057   -0.1146 H   0  0  0  0  0  0  0  0  0  0  0  0
    1.8622    2.7574   -1.5602 H   0  0  0  0  0  0  0  0  0  0  0  0
    0.9547    4.3768    0.8854 H   0  0  0  0  0  0  0  0  0  0  0  0
    1.6873    5.0599   -0.5658 H   0  0  0  0  0  0  0  0  0  0  0  0
   -2.0942    5.3934   -0.4520 H   0  0  0  0  0  0  0  0  0  0  0  0
   -0.8680    5.6561    0.7343 H   0  0  0  0  0  0  0  0  0  0  0  0
  1 18  1  0  0  0  0
  1 71  1  0  0  0  0
  2 20  1  0  0  0  0
  2 72  1  0  0  0  0
  3 21  1  0  0  0  0
  3 34  1  0  0  0  0
  4 23  1  0  0  0  0
  4 36  1  0  0  0  0
  5 26  1  0  0  0  0
  5 37  1  0  0  0  0
  6 30  1  0  0  0  0
  6 38  1  0  0  0  0
  7 32  1  0  0  0  0
  7 39  1  0  0  0  0
  8 39  2  0  0  0  0
  9 46  2  0  0  0  0
 10 49  2  0  0  0  0
 11 16  1  0  0  0  0
 11 28  1  0  0  0  0
 11 33  1  0  0  0  0
 12 41  1  0  0  0  0
 12 46  1  0  0  0  0
 12 93  1  0  0  0  0
 13 49  1  0  0  0  0
 13 99  1  0  0  0  0
 13100  1  0  0  0  0
 14 15  1  0  0  0  0
 14 16  1  0  0  0  0
 14 17  1  0  0  0  0
 14 23  1  0  0  0  0
 15 21  1  0  0  0  0
 15 22  1  0  0  0  0
 15 50  1  0  0  0  0
 16 18  1  0  0  0  0
 16 51  1  0  0  0  0
 17 19  1  0  0  0  0
 17 24  1  0  0  0  0
 17 52  1  0  0  0  0
 18 20  1  0  0  0  0
 18 21  1  0  0  0  0
 19 20  1  0  0  0  0
 19 26  1  0  0  0  0
 19 53  1  0  0  0  0
 20 27  1  0  0  0  0
 21 54  1  0  0  0  0
 22 28  1  0  0  0  0
 22 29  1  0  0  0  0
 22 32  1  0  0  0  0
 23 31  1  0  0  0  0
 23 55  1  0  0  0  0
 24 25  1  0  0  0  0
 24 56  1  0  0  0  0
 24 57  1  0  0  0  0
 25 26  1  0  0  0  0
 25 30  1  0  0  0  0
 25 58  1  0  0  0  0
 26 59  1  0  0  0  0
 27 30  1  0  0  0  0
 27 60  1  0  0  0  0
 27 61  1  0  0  0  0
 28 62  1  0  0  0  0
 28 63  1  0  0  0  0
 29 31  1  0  0  0  0
 29 64  1  0  0  0  0
 29 65  1  0  0  0  0
 30 66  1  0  0  0  0
 31 67  1  0  0  0  0
 31 68  1  0  0  0  0
 32 69  1  0  0  0  0
 32 70  1  0  0  0  0
 33 35  1  0  0  0  0
 33 73  1  0  0  0  0
 33 74  1  0  0  0  0
 34 75  1  0  0  0  0
 34 76  1  0  0  0  0
 34 77  1  0  0  0  0
 35 78  1  0  0  0  0
 35 79  1  0  0  0  0
 35 80  1  0  0  0  0
 36 81  1  0  0  0  0
 36 82  1  0  0  0  0
 36 83  1  0  0  0  0
 37 84  1  0  0  0  0
 37 85  1  0  0  0  0
 37 86  1  0  0  0  0
 38 87  1  0  0  0  0
 38 88  1  0  0  0  0
 38 89  1  0  0  0  0
 39 40  1  0  0  0  0
 40 41  1  0  0  0  0
 40 42  2  0  0  0  0
 41 43  2  0  0  0  0
 42 44  1  0  0  0  0
 42 90  1  0  0  0  0
 43 45  1  0  0  0  0
 43 91  1  0  0  0  0
 44 45  2  0  0  0  0
 44 92  1  0  0  0  0
 45 94  1  0  0  0  0
 46 47  1  0  0  0  0
 47 48  1  0  0  0  0
 47 95  1  0  0  0  0
 47 96  1  0  0  0  0
 48 49  1  0  0  0  0
 48 97  1  0  0  0  0
 48 98  1  0  0  0  0
M  END
> <PUBCHEM_COMPOUND_CID>
441710

> <PUBCHEM_CONFORMER_RMSD>
1.4

> <PUBCHEM_CONFORMER_DIVERSEORDER>
1
9
2
7
10
5
8
6
3
12
4
11
13

> <PUBCHEM_MMFF94_PARTIAL_CHARGES>
47
1 -0.68
10 -0.57
100 0.37
11 -0.81
12 -0.55
13 -0.8
16 0.27
18 0.28
2 -0.68
20 0.28
21 0.28
23 0.28
26 0.28
28 0.27
3 -0.56
30 0.28
32 0.28
33 0.27
34 0.28
36 0.28
37 0.28
38 0.28
39 0.63
4 -0.56
40 0.09
41 0.12
42 -0.15
43 -0.15
44 -0.15
45 -0.15
46 0.57
47 0.06
48 0.06
49 0.57
5 -0.56
6 -0.56
7 -0.43
71 0.4
72 0.4
8 -0.57
9 -0.57
90 0.15
91 0.15
92 0.15
93 0.37
94 0.15
99 0.37

> <PUBCHEM_EFFECTIVE_ROTOR_COUNT>
16

> <PUBCHEM_PHARMACOPHORE_FEATURES>
19
1 1 acceptor
1 1 donor
1 10 acceptor
1 11 cation
1 12 donor
1 13 donor
1 2 acceptor
1 2 donor
1 3 acceptor
1 4 acceptor
1 5 acceptor
1 6 acceptor
1 8 acceptor
1 9 acceptor
6 14 15 22 23 29 31 rings
6 40 41 42 43 44 45 rings
8 11 14 15 16 18 21 22 28 rings
8 14 15 16 17 18 19 20 21 rings
8 17 19 20 24 25 26 27 30 rings

> <PUBCHEM_HEAVY_ATOM_COUNT>
49

> <PUBCHEM_ATOM_DEF_STEREO_COUNT>
12

> <PUBCHEM_ATOM_UDEF_STEREO_COUNT>
1

> <PUBCHEM_BOND_DEF_STEREO_COUNT>
0

> <PUBCHEM_BOND_UDEF_STEREO_COUNT>
0

> <PUBCHEM_ISOTOPIC_ATOM_COUNT>
0

> <PUBCHEM_COMPONENT_COUNT>
1

> <PUBCHEM_CACTVS_TAUTO_COUNT>
6

> <PUBCHEM_CONFORMER_ID>
0006BD6E00000001

> <PUBCHEM_MMFF94_ENERGY>
241.3049

> <PUBCHEM_FEATURE_SELFOVERLAP>
97.923

> <PUBCHEM_SHAPE_FINGERPRINT>
10930396 42 17988658367294021312
11115154 58 17903375710365348479
12633046 712 17559675036772947610
13560911 43 17691141340135476530
14020679 6 18201997716453307178
14068700 675 17976267828841881550
14295345 954 18046638810491817368
14725015 67 18271252715455786848
15274700 34 18122052105897885467
15361156 5 18341890759126248782
16112460 7 18335422340505074760
17974551 9 18264767654178270456
18393751 57 18335977644925650179
20764821 26 18269276773091447252
21033648 29 17988638665846140876
25019877 29 17676486146747848183
25265897 201 17533466080663694212
3383291 50 18334296465539003091
3493558 16 18115305545039777127
392239 28 18343293795001102441
469060 322 17540813889112370563
9961470 85 18116728304401875672

> <PUBCHEM_SHAPE_MULTIPOLES>
934.76
12.27
6.26
2.72
14.75
1.94
0.48
4.91
4.73
-2.69
-0.66
-1.17
-1.87
0.26

> <PUBCHEM_SHAPE_SELFOVERLAP>
2028.818

> <PUBCHEM_SHAPE_VOLUME>
501.5

> <PUBCHEM_COORDINATE_TYPE>
2
5
10

$$$$

