439829
  -OEChem-07051212473D

 37 36  0     1  0  0  0  0  0999 V2000
    0.5660   -0.5404   -0.1897 O   0  0  0  0  0  0  0  0  0  0  0  0
    1.7401    0.4784    1.5152 O   0  0  0  0  0  0  0  0  0  0  0  0
   -1.7426    3.5177   -0.9665 O   0  5  0  0  0  0  0  0  0  0  0  0
   -2.2933    2.3791    0.9341 O   0  0  0  0  0  0  0  0  0  0  0  0
   -1.9617   -1.9131   -0.0898 N   0  3  0  0  0  0  0  0  0  0  0  0
   -1.7886   -0.4953   -0.6149 C   0  0  0  0  0  0  0  0  0  0  0  0
   -0.6211    0.2073    0.0759 C   0  0  2  0  0  0  0  0  0  0  0  0
   -2.2560   -1.8692    1.4027 C   0  0  0  0  0  0  0  0  0  0  0  0
   -0.6834   -2.7030   -0.3317 C   0  0  0  0  0  0  0  0  0  0  0  0
   -3.1184   -2.5853   -0.8154 C   0  0  0  0  0  0  0  0  0  0  0  0
   -0.4295    1.6585   -0.3684 C   0  0  0  0  0  0  0  0  0  0  0  0
    1.6980   -0.0945    0.4351 C   0  0  0  0  0  0  0  0  0  0  0  0
   -1.6075    2.6058   -0.0997 C   0  0  0  0  0  0  0  0  0  0  0  0
    2.8967   -0.4225   -0.4255 C   0  0  0  0  0  0  0  0  0  0  0  0
    4.2001    0.0701    0.1983 C   0  0  0  0  0  0  0  0  0  0  0  0
    5.4011   -0.2935   -0.6596 C   0  0  0  0  0  0  0  0  0  0  0  0
   -2.7362    0.0301   -0.4539 H   0  0  0  0  0  0  0  0  0  0  0  0
   -1.6109   -0.5763   -1.6945 H   0  0  0  0  0  0  0  0  0  0  0  0
   -0.7862    0.2255    1.1582 H   0  0  0  0  0  0  0  0  0  0  0  0
   -1.3618   -1.5803    1.9599 H   0  0  0  0  0  0  0  0  0  0  0  0
   -3.0771   -1.1679    1.5781 H   0  0  0  0  0  0  0  0  0  0  0  0
   -2.5520   -2.8753    1.7170 H   0  0  0  0  0  0  0  0  0  0  0  0
    0.0287   -2.5556    0.4836 H   0  0  0  0  0  0  0  0  0  0  0  0
   -0.9503   -3.7664   -0.3066 H   0  0  0  0  0  0  0  0  0  0  0  0
   -0.2894   -2.4788   -1.3275 H   0  0  0  0  0  0  0  0  0  0  0  0
   -2.8810   -2.6224   -1.8826 H   0  0  0  0  0  0  0  0  0  0  0  0
   -3.2444   -3.5965   -0.4169 H   0  0  0  0  0  0  0  0  0  0  0  0
   -4.0234   -1.9950   -0.6434 H   0  0  0  0  0  0  0  0  0  0  0  0
   -0.1960    1.6706   -1.4416 H   0  0  0  0  0  0  0  0  0  0  0  0
    0.4371    2.1177    0.1208 H   0  0  0  0  0  0  0  0  0  0  0  0
    2.7547    0.0487   -1.4045 H   0  0  0  0  0  0  0  0  0  0  0  0
    2.9347   -1.5101   -0.5543 H   0  0  0  0  0  0  0  0  0  0  0  0
    4.3254   -0.3650    1.1970 H   0  0  0  0  0  0  0  0  0  0  0  0
    4.1634    1.1582    0.3297 H   0  0  0  0  0  0  0  0  0  0  0  0
    6.3229    0.0698   -0.1948 H   0  0  0  0  0  0  0  0  0  0  0  0
    5.4849   -1.3786   -0.7774 H   0  0  0  0  0  0  0  0  0  0  0  0
    5.3224    0.1556   -1.6548 H   0  0  0  0  0  0  0  0  0  0  0  0
  1  7  1  0  0  0  0
  1 12  1  0  0  0  0
  2 12  2  0  0  0  0
  3 13  1  0  0  0  0
  4 13  2  0  0  0  0
  5  6  1  0  0  0  0
  5  8  1  0  0  0  0
  5  9  1  0  0  0  0
  5 10  1  0  0  0  0
  6  7  1  0  0  0  0
  6 17  1  0  0  0  0
  6 18  1  0  0  0  0
  7 11  1  0  0  0  0
  7 19  1  0  0  0  0
  8 20  1  0  0  0  0
  8 21  1  0  0  0  0
  8 22  1  0  0  0  0
  9 23  1  0  0  0  0
  9 24  1  0  0  0  0
  9 25  1  0  0  0  0
 10 26  1  0  0  0  0
 10 27  1  0  0  0  0
 10 28  1  0  0  0  0
 11 13  1  0  0  0  0
 11 29  1  0  0  0  0
 11 30  1  0  0  0  0
 12 14  1  0  0  0  0
 14 15  1  0  0  0  0
 14 31  1  0  0  0  0
 14 32  1  0  0  0  0
 15 16  1  0  0  0  0
 15 33  1  0  0  0  0
 15 34  1  0  0  0  0
 16 35  1  0  0  0  0
 16 36  1  0  0  0  0
 16 37  1  0  0  0  0
M  CHG  2   3  -1   5   1
M  END
> <PUBCHEM_COMPOUND_CID>
439829

> <PUBCHEM_CONFORMER_RMSD>
0.8

> <PUBCHEM_CONFORMER_DIVERSEORDER>
1
91
72
12
41
31
79
84
10
88
64
65
14
32
47
8
87
69
36
77
26
52
82
83
81
85
71
76
3
23
11
50
58
54
48
6
75
86
33
20
45
89
60
28
5
53
43
67
30
2
73
25
4
37
90
18
9
63
62
21
51
56
35
68
78
13
44
38
16
55
57
22
29
61
49
34
42
27
7
70
80
59
17
74
24
15
66
19
46
39
40

> <PUBCHEM_MMFF94_PARTIAL_CHARGES>
14
1 -0.43
10 0.5
11 -0.11
12 0.66
13 0.91
14 0.06
2 -0.57
3 -0.9
4 -0.9
5 -1.01
6 0.5
7 0.28
8 0.5
9 0.5

> <PUBCHEM_EFFECTIVE_ROTOR_COUNT>
8

> <PUBCHEM_PHARMACOPHORE_FEATURES>
6
1 16 hydrophobe
1 2 acceptor
1 3 acceptor
1 4 acceptor
1 5 cation
3 3 4 13 anion

> <PUBCHEM_HEAVY_ATOM_COUNT>
16

> <PUBCHEM_ATOM_DEF_STEREO_COUNT>
0

> <PUBCHEM_ATOM_UDEF_STEREO_COUNT>
1

> <PUBCHEM_BOND_DEF_STEREO_COUNT>
0

> <PUBCHEM_BOND_UDEF_STEREO_COUNT>
0

> <PUBCHEM_ISOTOPIC_ATOM_COUNT>
0

> <PUBCHEM_COMPONENT_COUNT>
1

> <PUBCHEM_CACTVS_TAUTO_COUNT>
1

> <PUBCHEM_CONFORMER_ID>
0006B61500000001

> <PUBCHEM_MMFF94_ENERGY>
43.4757

> <PUBCHEM_FEATURE_SELFOVERLAP>
30.501

> <PUBCHEM_SHAPE_FINGERPRINT>
11357001 24 18343577451741980747
13681431 1 17836373644387821465
14508225 48 18337401421988438637
14817 1 13677035368386998897
17357779 13 18115888320567297165
1741750 31 18264773349362420272
17539 30 18336559252063576693
18785283 64 17187275210947100297
20645476 183 18197782313321262196
20645477 56 18337103583703281268
20671657 53 18048315548707901703
20711985 344 18340781385151274475
20871998 184 18339911718946322129
20871999 31 18271818882086213031
21041028 32 18126548043102204419
21202864 24 18263065743248249113
21339142 126 18409162199342162406
21426921 1 18410855473614509060
21524375 3 17981053229673442841
22094290 60 18410571761023218526
22112679 90 18196348373901465949
2306618 200 18113894970421438626
23402539 116 18335144150418254943
23419403 2 17169576033425625985
23526113 38 17677053585058169838
23557571 272 18260820515145918292
23559900 14 17969786487818497902
23598294 1 18340774818452143346
2748010 2 18121519967706626621
3286 77 16733544880178019138
4175511 71 18124025729005161059
458136 41 17758672639517192849
559249 180 18196376047193775834
6049 1 17968386658648846808
68521 5 18411703157891984335
7364860 26 17328589423442366311
81228 2 18412271618525972681
88987 49 18267607851705181456

> <PUBCHEM_SHAPE_MULTIPOLES>
300.81
6.81
3.56
1.07
11.84
2.35
0.28
-2.66
-0.9
-4.97
-0.66
-0.28
-0.06
0.12

> <PUBCHEM_SHAPE_SELFOVERLAP>
571.039

> <PUBCHEM_SHAPE_VOLUME>
186.5

> <PUBCHEM_COORDINATE_TYPE>
2
5
10

$$$$

