47205770
  -OEChem-06241223003D

 38 38  0     0  0  0  0  0  0999 V2000
    1.8181    0.3220    0.5029 O   0  0  0  0  0  0  0  0  0  0  0  0
   -0.9674    1.9486    1.3006 O   0  0  0  0  0  0  0  0  0  0  0  0
    0.2306   -2.0861    1.4177 O   0  0  0  0  0  0  0  0  0  0  0  0
   -1.1527   -0.1114    0.1662 N   0  0  0  0  0  0  0  0  0  0  0  0
    0.8308   -3.1128   -0.5499 N   0  0  0  0  0  0  0  0  0  0  0  0
   -2.5132   -0.3886    0.5357 C   0  0  0  0  0  0  0  0  0  0  0  0
   -3.5148    0.1744   -0.4671 C   0  0  0  0  0  0  0  0  0  0  0  0
   -4.9661   -0.0948   -0.0630 C   0  0  0  0  0  0  0  0  0  0  0  0
   -0.4872   -1.1091   -0.6786 C   0  0  0  0  0  0  0  0  0  0  0  0
   -0.4904    1.0611    0.5941 C   0  0  0  0  0  0  0  0  0  0  0  0
    0.8986    1.2582    0.1502 C   0  0  0  0  0  0  0  0  0  0  0  0
   -5.9418    0.5293   -1.0486 C   0  0  0  0  0  0  0  0  0  0  0  0
    3.0053    0.7265   -0.0206 C   0  0  0  0  0  0  0  0  0  0  0  0
    1.4857    2.2562   -0.5928 C   0  0  0  0  0  0  0  0  0  0  0  0
    4.1604   -0.1445    0.2385 C   0  0  0  0  0  0  0  0  0  0  0  0
    0.1989   -2.1373    0.1912 C   0  0  0  0  0  0  0  0  0  0  0  0
    2.8537    1.9108   -0.7038 C   0  0  0  0  0  0  0  0  0  0  0  0
    4.5515   -1.0026   -0.9726 C   0  0  0  0  0  0  0  0  0  0  0  0
   -2.6459   -1.4701    0.6561 H   0  0  0  0  0  0  0  0  0  0  0  0
   -2.7027    0.0661    1.5156 H   0  0  0  0  0  0  0  0  0  0  0  0
   -3.3591    1.2563   -0.5671 H   0  0  0  0  0  0  0  0  0  0  0  0
   -3.3274   -0.2564   -1.4585 H   0  0  0  0  0  0  0  0  0  0  0  0
   -5.1554    0.3138    0.9364 H   0  0  0  0  0  0  0  0  0  0  0  0
   -5.1422   -1.1753   -0.0117 H   0  0  0  0  0  0  0  0  0  0  0  0
   -1.2356   -1.6058   -1.3065 H   0  0  0  0  0  0  0  0  0  0  0  0
    0.2429   -0.6428   -1.3459 H   0  0  0  0  0  0  0  0  0  0  0  0
   -5.7976    0.1217   -2.0543 H   0  0  0  0  0  0  0  0  0  0  0  0
   -6.9724    0.3236   -0.7431 H   0  0  0  0  0  0  0  0  0  0  0  0
   -5.8117    1.6152   -1.0956 H   0  0  0  0  0  0  0  0  0  0  0  0
    0.9920    3.1248   -1.0048 H   0  0  0  0  0  0  0  0  0  0  0  0
    5.0213    0.4691    0.5293 H   0  0  0  0  0  0  0  0  0  0  0  0
    3.9505   -0.8076    1.0863 H   0  0  0  0  0  0  0  0  0  0  0  0
    3.6304    2.4584   -1.2182 H   0  0  0  0  0  0  0  0  0  0  0  0
    3.7219   -1.6498   -1.2764 H   0  0  0  0  0  0  0  0  0  0  0  0
    5.4099   -1.6351   -0.7263 H   0  0  0  0  0  0  0  0  0  0  0  0
    4.8215   -0.3747   -1.8284 H   0  0  0  0  0  0  0  0  0  0  0  0
    1.3459   -3.8605   -0.0972 H   0  0  0  0  0  0  0  0  0  0  0  0
    0.8047   -3.1256   -1.5645 H   0  0  0  0  0  0  0  0  0  0  0  0
  1 11  1  0  0  0  0
  1 13  1  0  0  0  0
  2 10  2  0  0  0  0
  3 16  2  0  0  0  0
  4  6  1  0  0  0  0
  4  9  1  0  0  0  0
  4 10  1  0  0  0  0
  5 16  1  0  0  0  0
  5 37  1  0  0  0  0
  5 38  1  0  0  0  0
  6  7  1  0  0  0  0
  6 19  1  0  0  0  0
  6 20  1  0  0  0  0
  7  8  1  0  0  0  0
  7 21  1  0  0  0  0
  7 22  1  0  0  0  0
  8 12  1  0  0  0  0
  8 23  1  0  0  0  0
  8 24  1  0  0  0  0
  9 16  1  0  0  0  0
  9 25  1  0  0  0  0
  9 26  1  0  0  0  0
 10 11  1  0  0  0  0
 11 14  2  0  0  0  0
 12 27  1  0  0  0  0
 12 28  1  0  0  0  0
 12 29  1  0  0  0  0
 13 15  1  0  0  0  0
 13 17  2  0  0  0  0
 14 17  1  0  0  0  0
 14 30  1  0  0  0  0
 15 18  1  0  0  0  0
 15 31  1  0  0  0  0
 15 32  1  0  0  0  0
 17 33  1  0  0  0  0
 18 34  1  0  0  0  0
 18 35  1  0  0  0  0
 18 36  1  0  0  0  0
M  END
> <PUBCHEM_COMPOUND_CID>
47205770

> <PUBCHEM_CONFORMER_RMSD>
1

> <PUBCHEM_CONFORMER_DIVERSEORDER>
1
22
28
103
64
37
52
104
69
97
76
34
100
93
45
62
75
90
39
40
98
73
31
101
8
59
16
70
12
11
56
109
49
61
36
88
38
42
79
81
10
27
18
47
46
26
53
68
110
86
82
19
23
60
58
111
21
33
94
83
55
106
51
57
108
3
92
95
30
17
87
65
112
77
32
35
107
25
66
96
50
20
67
89
74
102
78
44
105
72
15
29
5
9
4
85
71
63
99
48
7
43
91
2
14
41
24
54
80
84
6
13

> <PUBCHEM_MMFF94_PARTIAL_CHARGES>
18
1 -0.28
10 0.71
11 0.05
13 -0.04
14 -0.15
15 0.18
16 0.57
17 -0.15
2 -0.57
3 -0.57
30 0.15
33 0.15
37 0.37
38 0.37
4 -0.66
5 -0.8
6 0.3
9 0.36

> <PUBCHEM_EFFECTIVE_ROTOR_COUNT>
8

> <PUBCHEM_PHARMACOPHORE_FEATURES>
7
1 1 acceptor
1 12 hydrophobe
1 18 hydrophobe
1 2 acceptor
1 3 acceptor
1 5 donor
5 1 11 13 14 17 rings

> <PUBCHEM_HEAVY_ATOM_COUNT>
18

> <PUBCHEM_ATOM_DEF_STEREO_COUNT>
0

> <PUBCHEM_ATOM_UDEF_STEREO_COUNT>
0

> <PUBCHEM_BOND_DEF_STEREO_COUNT>
0

> <PUBCHEM_BOND_UDEF_STEREO_COUNT>
0

> <PUBCHEM_ISOTOPIC_ATOM_COUNT>
0

> <PUBCHEM_COMPONENT_COUNT>
1

> <PUBCHEM_CACTVS_TAUTO_COUNT>
6

> <PUBCHEM_CONFORMER_ID>
02D04D8A00000001

> <PUBCHEM_MMFF94_ENERGY>
24.4345

> <PUBCHEM_FEATURE_SELFOVERLAP>
35.521

> <PUBCHEM_SHAPE_FINGERPRINT>
10062212 137 18260836947184559423
10693767 8 18115314495715433247
10922049 32 18131069295055775819
12011746 2 18411409636149427430
12592029 89 18060144257754656611
12670545 2 18201725063455518506
13464514 151 18200595920922337257
13571099 22 18409163273215790212
13836976 161 18412830170480258263
14115302 16 18339357453506593492
14252887 29 10591774219945673217
15048467 5 14189570832347158620
15099037 51 18341894082391855156
15420108 30 17107324205769720376
16752209 62 18334852844308811376
16945 1 18262500555384413336
17834072 8 18411698785552045053
18186145 218 18200604604834455021
19784866 9 18411140247131338825
20645476 183 17983563122630146756
20645477 70 18413106143271540085
20691752 17 17983552359737508190
22713019 99 18334852831608246318
23402539 116 18186809045362659180
23559900 14 18115589223962867264
23566358 2 18122348140659923973
2748010 2 18122049919473759634
3060560 45 18341899584192233438
3286 77 16877942758821972440
34934 24 18198346157055304920
4072396 5 18270418172838694995
465052 167 18060698390172023555
6138700 20 18339921640669344742
633830 44 18200883868187896943
81228 2 17188987722224971779
81539 233 18343305860033754687
8272917 22 18412546548299441743
9981440 41 16960159582281234297
9999458 23 18060139816721601023

> <PUBCHEM_SHAPE_MULTIPOLES>
342.86
9.11
2.54
1.03
9.73
1.1
0.07
-1.08
-3.3
-1.64
-0.05
0.12
0.02
0.11

> <PUBCHEM_SHAPE_SELFOVERLAP>
688.156

> <PUBCHEM_SHAPE_VOLUME>
202.4

> <PUBCHEM_COORDINATE_TYPE>
2
5
10

$$$$

