15071718
  -OEChem-07051212492D

 92 93  0     1  0  0  0  0  0999 V2000
   20.1865   -0.5000    0.0000 O   0  0  0  0  0  0  0  0  0  0  0  0
   18.4545   -0.5000    0.0000 O   0  0  0  0  0  0  0  0  0  0  0  0
   19.3205    1.0000    0.0000 O   0  0  0  0  0  0  0  0  0  0  0  0
   20.1865   -2.5000    0.0000 O   0  0  0  0  0  0  0  0  0  0  0  0
   18.4545   -3.5000    0.0000 O   0  0  0  0  0  0  0  0  0  0  0  0
   16.7224   -2.5000    0.0000 O   0  0  0  0  0  0  0  0  0  0  0  0
   21.9186    0.5000    0.0000 O   0  0  0  0  0  0  0  0  0  0  0  0
   21.9186    2.5000    0.0000 O   0  0  0  0  0  0  0  0  0  0  0  0
   20.1865    3.5000    0.0000 O   0  0  0  0  0  0  0  0  0  0  0  0
   15.8564   -1.0000    0.0000 O   0  0  0  0  0  0  0  0  0  0  0  0
   18.4545    3.5000    0.0000 O   0  0  0  0  0  0  0  0  0  0  0  0
   14.9904    0.5000    0.0000 O   0  0  0  0  0  0  0  0  0  0  0  0
   19.3205   -1.0000    0.0000 C   0  0  1  0  0  0  0  0  0  0  0  0
   19.3205   -2.0000    0.0000 C   0  0  1  0  0  0  0  0  0  0  0  0
   18.4545   -2.5000    0.0000 C   0  0  2  0  0  0  0  0  0  0  0  0
   17.5885   -2.0000    0.0000 C   0  0  1  0  0  0  0  0  0  0  0  0
   20.1865    0.5000    0.0000 C   0  0  1  0  0  0  0  0  0  0  0  0
   21.0526    1.0000    0.0000 C   0  0  1  0  0  0  0  0  0  0  0  0
   17.5885   -1.0000    0.0000 C   0  0  1  0  0  0  0  0  0  0  0  0
   21.0526    2.0000    0.0000 C   0  0  2  0  0  0  0  0  0  0  0  0
   20.1865    2.5000    0.0000 C   0  0  1  0  0  0  0  0  0  0  0  0
   19.3205    2.0000    0.0000 C   0  0  1  0  0  0  0  0  0  0  0  0
   16.7224   -0.5000    0.0000 C   0  0  0  0  0  0  0  0  0  0  0  0
   18.4545    2.5000    0.0000 C   0  0  0  0  0  0  0  0  0  0  0  0
    9.7942   -0.5000    0.0000 C   0  0  0  0  0  0  0  0  0  0  0  0
   10.6603   -1.0000    0.0000 C   0  0  0  0  0  0  0  0  0  0  0  0
    8.9282   -1.0000    0.0000 C   0  0  0  0  0  0  0  0  0  0  0  0
   11.5263   -0.5000    0.0000 C   0  0  0  0  0  0  0  0  0  0  0  0
   14.9904   -0.5000    0.0000 C   0  0  0  0  0  0  0  0  0  0  0  0
   12.3923   -1.0000    0.0000 C   0  0  0  0  0  0  0  0  0  0  0  0
    8.0622   -0.5000    0.0000 C   0  0  0  0  0  0  0  0  0  0  0  0
   14.1244   -1.0000    0.0000 C   0  0  0  0  0  0  0  0  0  0  0  0
   13.2583   -0.5000    0.0000 C   0  0  0  0  0  0  0  0  0  0  0  0
    7.1962   -1.0000    0.0000 C   0  0  0  0  0  0  0  0  0  0  0  0
    6.3301   -0.5000    0.0000 C   0  0  0  0  0  0  0  0  0  0  0  0
    5.4641   -1.0000    0.0000 C   0  0  0  0  0  0  0  0  0  0  0  0
    4.5981   -0.5000    0.0000 C   0  0  0  0  0  0  0  0  0  0  0  0
    3.7320   -1.0000    0.0000 C   0  0  0  0  0  0  0  0  0  0  0  0
    2.8660   -0.5000    0.0000 C   0  0  0  0  0  0  0  0  0  0  0  0
    2.0000   -1.0000    0.0000 C   0  0  0  0  0  0  0  0  0  0  0  0
   19.8574   -1.3100    0.0000 H   0  0  0  0  0  0  0  0  0  0  0  0
   19.8574   -1.6900    0.0000 H   0  0  0  0  0  0  0  0  0  0  0  0
   18.9914   -2.8100    0.0000 H   0  0  0  0  0  0  0  0  0  0  0  0
   17.5885   -2.6200    0.0000 H   0  0  0  0  0  0  0  0  0  0  0  0
   19.6496    0.1900    0.0000 H   0  0  0  0  0  0  0  0  0  0  0  0
   21.0526    0.3800    0.0000 H   0  0  0  0  0  0  0  0  0  0  0  0
   17.5885   -0.3800    0.0000 H   0  0  0  0  0  0  0  0  0  0  0  0
   21.0526    2.6200    0.0000 H   0  0  0  0  0  0  0  0  0  0  0  0
   19.6496    2.8100    0.0000 H   0  0  0  0  0  0  0  0  0  0  0  0
   18.7836    1.6900    0.0000 H   0  0  0  0  0  0  0  0  0  0  0  0
   17.1210   -0.0251    0.0000 H   0  0  0  0  0  0  0  0  0  0  0  0
   16.3239   -0.0251    0.0000 H   0  0  0  0  0  0  0  0  0  0  0  0
   17.8439    2.6077    0.0000 H   0  0  0  0  0  0  0  0  0  0  0  0
   18.2424    1.9174    0.0000 H   0  0  0  0  0  0  0  0  0  0  0  0
   20.1865   -3.1200    0.0000 H   0  0  0  0  0  0  0  0  0  0  0  0
   17.9175   -3.8100    0.0000 H   0  0  0  0  0  0  0  0  0  0  0  0
   16.7224   -3.1200    0.0000 H   0  0  0  0  0  0  0  0  0  0  0  0
   22.4555    0.8100    0.0000 H   0  0  0  0  0  0  0  0  0  0  0  0
   21.9186    3.1200    0.0000 H   0  0  0  0  0  0  0  0  0  0  0  0
   20.7235    3.8100    0.0000 H   0  0  0  0  0  0  0  0  0  0  0  0
   17.9175    3.8100    0.0000 H   0  0  0  0  0  0  0  0  0  0  0  0
   10.1928   -0.0251    0.0000 H   0  0  0  0  0  0  0  0  0  0  0  0
    9.3957   -0.0251    0.0000 H   0  0  0  0  0  0  0  0  0  0  0  0
   10.2617   -1.4750    0.0000 H   0  0  0  0  0  0  0  0  0  0  0  0
   11.0588   -1.4750    0.0000 H   0  0  0  0  0  0  0  0  0  0  0  0
    8.5297   -1.4750    0.0000 H   0  0  0  0  0  0  0  0  0  0  0  0
    9.3267   -1.4750    0.0000 H   0  0  0  0  0  0  0  0  0  0  0  0
   11.9248   -0.0251    0.0000 H   0  0  0  0  0  0  0  0  0  0  0  0
   11.1278   -0.0251    0.0000 H   0  0  0  0  0  0  0  0  0  0  0  0
   11.9938   -1.4750    0.0000 H   0  0  0  0  0  0  0  0  0  0  0  0
   12.7908   -1.4750    0.0000 H   0  0  0  0  0  0  0  0  0  0  0  0
    8.4607   -0.0251    0.0000 H   0  0  0  0  0  0  0  0  0  0  0  0
    7.6636   -0.0251    0.0000 H   0  0  0  0  0  0  0  0  0  0  0  0
   13.6569   -0.0251    0.0000 H   0  0  0  0  0  0  0  0  0  0  0  0
   12.8598   -0.0251    0.0000 H   0  0  0  0  0  0  0  0  0  0  0  0
   13.7258   -1.4750    0.0000 H   0  0  0  0  0  0  0  0  0  0  0  0
   14.5229   -1.4750    0.0000 H   0  0  0  0  0  0  0  0  0  0  0  0
    6.7976   -1.4750    0.0000 H   0  0  0  0  0  0  0  0  0  0  0  0
    7.5947   -1.4750    0.0000 H   0  0  0  0  0  0  0  0  0  0  0  0
    6.7287   -0.0251    0.0000 H   0  0  0  0  0  0  0  0  0  0  0  0
    5.9316   -0.0251    0.0000 H   0  0  0  0  0  0  0  0  0  0  0  0
    5.0656   -1.4750    0.0000 H   0  0  0  0  0  0  0  0  0  0  0  0
    5.8626   -1.4750    0.0000 H   0  0  0  0  0  0  0  0  0  0  0  0
    4.9966   -0.0251    0.0000 H   0  0  0  0  0  0  0  0  0  0  0  0
    4.1996   -0.0251    0.0000 H   0  0  0  0  0  0  0  0  0  0  0  0
    3.3335   -1.4750    0.0000 H   0  0  0  0  0  0  0  0  0  0  0  0
    4.1306   -1.4750    0.0000 H   0  0  0  0  0  0  0  0  0  0  0  0
    3.2646   -0.0251    0.0000 H   0  0  0  0  0  0  0  0  0  0  0  0
    2.4675   -0.0251    0.0000 H   0  0  0  0  0  0  0  0  0  0  0  0
    1.6900   -0.4631    0.0000 H   0  0  0  0  0  0  0  0  0  0  0  0
    1.4631   -1.3100    0.0000 H   0  0  0  0  0  0  0  0  0  0  0  0
    2.3100   -1.5369    0.0000 H   0  0  0  0  0  0  0  0  0  0  0  0
 13  1  1  6  0  0  0
 17  1  1  1  0  0  0
  2 13  1  0  0  0  0
  2 19  1  0  0  0  0
  3 17  1  0  0  0  0
  3 22  1  0  0  0  0
 14  4  1  6  0  0  0
  4 55  1  0  0  0  0
 15  5  1  1  0  0  0
  5 56  1  0  0  0  0
 16  6  1  6  0  0  0
  6 57  1  0  0  0  0
 18  7  1  1  0  0  0
  7 58  1  0  0  0  0
 20  8  1  6  0  0  0
  8 59  1  0  0  0  0
 21  9  1  1  0  0  0
  9 60  1  0  0  0  0
 10 23  1  0  0  0  0
 10 29  1  0  0  0  0
 11 24  1  0  0  0  0
 11 61  1  0  0  0  0
 12 29  2  0  0  0  0
 13 14  1  0  0  0  0
 13 41  1  0  0  0  0
 14 15  1  0  0  0  0
 14 42  1  0  0  0  0
 15 16  1  0  0  0  0
 15 43  1  0  0  0  0
 16 19  1  0  0  0  0
 16 44  1  0  0  0  0
 17 18  1  0  0  0  0
 17 45  1  0  0  0  0
 18 20  1  0  0  0  0
 18 46  1  0  0  0  0
 19 23  1  1  0  0  0
 19 47  1  0  0  0  0
 20 21  1  0  0  0  0
 20 48  1  0  0  0  0
 21 22  1  0  0  0  0
 21 49  1  0  0  0  0
 22 24  1  6  0  0  0
 22 50  1  0  0  0  0
 23 51  1  0  0  0  0
 23 52  1  0  0  0  0
 24 53  1  0  0  0  0
 24 54  1  0  0  0  0
 25 26  1  0  0  0  0
 25 27  1  0  0  0  0
 25 62  1  0  0  0  0
 25 63  1  0  0  0  0
 26 28  1  0  0  0  0
 26 64  1  0  0  0  0
 26 65  1  0  0  0  0
 27 31  1  0  0  0  0
 27 66  1  0  0  0  0
 27 67  1  0  0  0  0
 28 30  1  0  0  0  0
 28 68  1  0  0  0  0
 28 69  1  0  0  0  0
 29 32  1  0  0  0  0
 30 33  1  0  0  0  0
 30 70  1  0  0  0  0
 30 71  1  0  0  0  0
 31 34  1  0  0  0  0
 31 72  1  0  0  0  0
 31 73  1  0  0  0  0
 32 33  1  0  0  0  0
 32 76  1  0  0  0  0
 32 77  1  0  0  0  0
 33 74  1  0  0  0  0
 33 75  1  0  0  0  0
 34 35  1  0  0  0  0
 34 78  1  0  0  0  0
 34 79  1  0  0  0  0
 35 36  1  0  0  0  0
 35 80  1  0  0  0  0
 35 81  1  0  0  0  0
 36 37  1  0  0  0  0
 36 82  1  0  0  0  0
 36 83  1  0  0  0  0
 37 38  1  0  0  0  0
 37 84  1  0  0  0  0
 37 85  1  0  0  0  0
 38 39  1  0  0  0  0
 38 86  1  0  0  0  0
 38 87  1  0  0  0  0
 39 40  1  0  0  0  0
 39 88  1  0  0  0  0
 39 89  1  0  0  0  0
 40 90  1  0  0  0  0
 40 91  1  0  0  0  0
 40 92  1  0  0  0  0
M  END
> <PUBCHEM_COMPOUND_CID>
15071718

> <PUBCHEM_COMPOUND_CANONICALIZED>
1

> <PUBCHEM_CACTVS_COMPLEXITY>
682

> <PUBCHEM_CACTVS_HBOND_ACCEPTOR>
12

> <PUBCHEM_CACTVS_HBOND_DONOR>
7

> <PUBCHEM_CACTVS_ROTATABLE_BOND>
20

> <PUBCHEM_CACTVS_SUBSKEYS>
AAADcfB4PAAAAAAAAAAAAAAAAAAAAAAAAAAkSAAAAAAAAAAAAAAAGgAACAAACBSwgAMCCAAABgAIAACQCAAAAAAAAAAAAAEAAAAREBIAAAAiQAAFAAAHAAHI6KyAAAAAAAAAAAAAAAAAAAAAAAAAAAAAAA==

> <PUBCHEM_IUPAC_OPENEYE_NAME>
[(2R,3S,4S,5R,6R)-3,4,5-trihydroxy-6-[(2R,3R,4S,5S,6R)-3,4,5-trihydroxy-6-(hydroxymethyl)tetrahydropyran-2-yl]oxy-tetrahydropyran-2-yl]methyl hexadecanoate

> <PUBCHEM_IUPAC_CAS_NAME>
hexadecanoic acid [(2R,3S,4S,5R,6R)-3,4,5-trihydroxy-6-[[(2R,3R,4S,5S,6R)-3,4,5-trihydroxy-6-(hydroxymethyl)-2-oxanyl]oxy]-2-oxanyl]methyl ester

> <PUBCHEM_IUPAC_NAME>
[(2R,3S,4S,5R,6R)-3,4,5-trihydroxy-6-[(2R,3R,4S,5S,6R)-3,4,5-trihydroxy-6-(hydroxymethyl)oxan-2-yl]oxyoxan-2-yl]methyl hexadecanoate

> <PUBCHEM_IUPAC_SYSTEMATIC_NAME>
[(2R,3S,4S,5R,6R)-6-[(2R,3R,4S,5S,6R)-6-(hydroxymethyl)-3,4,5-tris(oxidanyl)oxan-2-yl]oxy-3,4,5-tris(oxidanyl)oxan-2-yl]methyl hexadecanoate

> <PUBCHEM_IUPAC_TRADITIONAL_NAME>
palmitic acid [(2R,3S,4S,5R,6R)-3,4,5-trihydroxy-6-[(2R,3R,4S,5S,6R)-3,4,5-trihydroxy-6-methylol-tetrahydropyran-2-yl]oxy-tetrahydropyran-2-yl]methyl ester

> <PUBCHEM_IUPAC_INCHI>
InChI=1S/C28H52O12/c1-2-3-4-5-6-7-8-9-10-11-12-13-14-15-20(30)37-17-19-22(32)24(34)26(36)28(39-19)40-27-25(35)23(33)21(31)18(16-29)38-27/h18-19,21-29,31-36H,2-17H2,1H3/t18-,19-,21-,22-,23+,24+,25-,26-,27-,28-/m1/s1

> <PUBCHEM_IUPAC_INCHIKEY>
VNHFMAKRYDWMAF-FJUFGMPQSA-N

> <PUBCHEM_XLOGP3_AA>
3.2

> <PUBCHEM_EXACT_MASS>
580.345877

> <PUBCHEM_MOLECULAR_FORMULA>
C28H52O12

> <PUBCHEM_MOLECULAR_WEIGHT>
580.70528

> <PUBCHEM_OPENEYE_CAN_SMILES>
CCCCCCCCCCCCCCCC(=O)OCC1C(C(C(C(O1)OC2C(C(C(C(O2)CO)O)O)O)O)O)O

> <PUBCHEM_OPENEYE_ISO_SMILES>
CCCCCCCCCCCCCCCC(=O)OC[C@@H]1[C@H]([C@@H]([C@H]([C@H](O1)O[C@@H]2[C@@H]([C@H]([C@@H]([C@H](O2)CO)O)O)O)O)O)O

> <PUBCHEM_CACTVS_TPSA>
196

> <PUBCHEM_MONOISOTOPIC_WEIGHT>
580.345877

> <PUBCHEM_TOTAL_CHARGE>
0

> <PUBCHEM_HEAVY_ATOM_COUNT>
40

> <PUBCHEM_ATOM_DEF_STEREO_COUNT>
10

> <PUBCHEM_ATOM_UDEF_STEREO_COUNT>
0

> <PUBCHEM_BOND_DEF_STEREO_COUNT>
0

> <PUBCHEM_BOND_UDEF_STEREO_COUNT>
0

> <PUBCHEM_ISOTOPIC_ATOM_COUNT>
0

> <PUBCHEM_COMPONENT_COUNT>
1

> <PUBCHEM_CACTVS_TAUTO_COUNT>
1

> <PUBCHEM_COORDINATE_TYPE>
1
5
255

> <PUBCHEM_BONDANNOTATIONS>
13  1  6
17  1  5
19  23  5
22  24  6
14  4  6
15  5  5
16  6  6
18  7  5
20  8  6
21  9  5

$$$$

