10915
  -OEChem-06261205072D

 19 16  0     0  0  0  0  0  0999 V2000
    3.7320    0.0000    0.0000 U   0  0  0  0  0  0  0  0  0  0  0  0
    3.7320    1.0000    0.0000 O   0  0  0  0  0  0  0  0  0  0  0  0
    3.7320   -1.0000    0.0000 O   0  0  0  0  0  0  0  0  0  0  0  0
    4.5981   -0.5000    0.0000 O   0  0  0  0  0  0  0  0  0  0  0  0
    4.5981    0.5000    0.0000 O   0  0  0  0  0  0  0  0  0  0  0  0
    2.0000    1.0000    0.0000 O   0  0  0  0  0  0  0  0  0  0  0  0
    2.0000   -1.0000    0.0000 O   0  0  0  0  0  0  0  0  0  0  0  0
    2.8660    1.5000    0.0000 C   0  0  0  0  0  0  0  0  0  0  0  0
    2.8660   -1.5000    0.0000 C   0  0  0  0  0  0  0  0  0  0  0  0
    2.8660    2.5000    0.0000 C   0  0  0  0  0  0  0  0  0  0  0  0
    2.8660   -2.5000    0.0000 C   0  0  0  0  0  0  0  0  0  0  0  0
    4.2690    1.3100    0.0000 H   0  0  0  0  0  0  0  0  0  0  0  0
    4.2690   -1.3100    0.0000 H   0  0  0  0  0  0  0  0  0  0  0  0
    2.2460   -2.5000    0.0000 H   0  0  0  0  0  0  0  0  0  0  0  0
    2.8660   -3.1200    0.0000 H   0  0  0  0  0  0  0  0  0  0  0  0
    3.4860   -2.5000    0.0000 H   0  0  0  0  0  0  0  0  0  0  0  0
    3.4860    2.5000    0.0000 H   0  0  0  0  0  0  0  0  0  0  0  0
    2.8660    3.1200    0.0000 H   0  0  0  0  0  0  0  0  0  0  0  0
    2.2460    2.5000    0.0000 H   0  0  0  0  0  0  0  0  0  0  0  0
  1  4  2  0  0  0  0
  1  5  2  0  0  0  0
  2  8  1  0  0  0  0
  2 12  1  0  0  0  0
  3  9  1  0  0  0  0
  3 13  1  0  0  0  0
  6  8  2  0  0  0  0
  7  9  2  0  0  0  0
  8 10  1  0  0  0  0
  9 11  1  0  0  0  0
 10 17  1  0  0  0  0
 10 18  1  0  0  0  0
 10 19  1  0  0  0  0
 11 14  1  0  0  0  0
 11 15  1  0  0  0  0
 11 16  1  0  0  0  0
M  END
> <PUBCHEM_COMPOUND_CID>
10915

> <PUBCHEM_COMPOUND_CANONICALIZED>
1

> <PUBCHEM_CACTVS_COMPLEXITY>
129

> <PUBCHEM_CACTVS_HBOND_ACCEPTOR>
6

> <PUBCHEM_CACTVS_HBOND_DONOR>
2

> <PUBCHEM_CACTVS_ROTATABLE_BOND>
0

> <PUBCHEM_CACTVS_SUBSKEYS>
AAADccBgOAAAAAAAAAAAAAAAIAAAAAAAAAAAAAAAAAAAAAAAAAAAGgAACAAAAACAgAACCAAAAgAIAACQCAAAAAAAAAAAAAAAAAAAAAAAAAAAAAAAAAAAAAAAAAAAAAAAAAAAAAAAAAAAAAAAAAAAAAAAAA==

> <PUBCHEM_IUPAC_OPENEYE_NAME>
acetic acid; dioxouranium

> <PUBCHEM_IUPAC_CAS_NAME>
acetic acid; dioxouranium

> <PUBCHEM_IUPAC_NAME>
acetic acid; dioxouranium

> <PUBCHEM_IUPAC_SYSTEMATIC_NAME>
bis(oxidanylidene)uranium; ethanoic acid

> <PUBCHEM_IUPAC_TRADITIONAL_NAME>
acetic acid; diketouranium

> <PUBCHEM_IUPAC_INCHI>
InChI=1S/2C2H4O2.2O.U/c2*1-2(3)4;;;/h2*1H3,(H,3,4);;;

> <PUBCHEM_IUPAC_INCHIKEY>
IXSMFXMQHOBORU-UHFFFAOYSA-N

> <PUBCHEM_EXACT_MASS>
390.082876

> <PUBCHEM_MOLECULAR_FORMULA>
C4H8O6U

> <PUBCHEM_MOLECULAR_WEIGHT>
390.13163

> <PUBCHEM_OPENEYE_CAN_SMILES>
CC(=O)O.CC(=O)O.O=[U]=O

> <PUBCHEM_OPENEYE_ISO_SMILES>
CC(=O)O.CC(=O)O.O=[U]=O

> <PUBCHEM_CACTVS_TPSA>
109

> <PUBCHEM_MONOISOTOPIC_WEIGHT>
390.082876

> <PUBCHEM_TOTAL_CHARGE>
0

> <PUBCHEM_HEAVY_ATOM_COUNT>
11

> <PUBCHEM_ATOM_DEF_STEREO_COUNT>
0

> <PUBCHEM_ATOM_UDEF_STEREO_COUNT>
0

> <PUBCHEM_BOND_DEF_STEREO_COUNT>
0

> <PUBCHEM_BOND_UDEF_STEREO_COUNT>
0

> <PUBCHEM_ISOTOPIC_ATOM_COUNT>
0

> <PUBCHEM_COMPONENT_COUNT>
3

> <PUBCHEM_CACTVS_TAUTO_COUNT>
3

> <PUBCHEM_NONSTANDARDBOND>
1  2  6
1  3  6

> <PUBCHEM_COORDINATE_TYPE>
1
5
255

$$$$

