1076
  -OEChem-07051212453D

 34 33  0     1  0  0  0  0  0999 V2000
    1.7932    1.1579   -0.6475 S   0  0  0  0  0  0  0  0  0  0  0  0
    3.9157   -3.2954   -0.3659 S   0  0  0  0  0  0  0  0  0  0  0  0
   -5.1186   -1.1795   -0.2684 O   0  0  0  0  0  0  0  0  0  0  0  0
    3.6831    1.7169    1.1200 O   0  0  0  0  0  0  0  0  0  0  0  0
   -6.0485    0.9246   -0.2051 N   0  0  0  0  0  0  0  0  0  0  0  0
   -0.0198   -0.6684    0.4145 C   0  0  0  0  0  0  0  0  0  0  0  0
    1.3768   -0.0605    0.6562 C   0  0  1  0  0  0  0  0  0  0  0  0
   -1.1476    0.3701    0.3422 C   0  0  0  0  0  0  0  0  0  0  0  0
    2.4363   -1.1820    0.7181 C   0  0  0  0  0  0  0  0  0  0  0  0
   -2.5045   -0.3044    0.1120 C   0  0  0  0  0  0  0  0  0  0  0  0
   -3.6536    0.7012    0.0583 C   0  0  0  0  0  0  0  0  0  0  0  0
    2.6338   -2.0215   -0.5489 C   0  0  0  0  0  0  0  0  0  0  0  0
   -4.9975    0.0377   -0.1534 C   0  0  0  0  0  0  0  0  0  0  0  0
    3.3643    1.6894   -0.0625 C   0  0  0  0  0  0  0  0  0  0  0  0
    4.2869    2.1138   -1.1697 C   0  0  0  0  0  0  0  0  0  0  0  0
   -0.2418   -1.3775    1.2225 H   0  0  0  0  0  0  0  0  0  0  0  0
   -0.0318   -1.2453   -0.5179 H   0  0  0  0  0  0  0  0  0  0  0  0
    1.3614    0.4664    1.6176 H   0  0  0  0  0  0  0  0  0  0  0  0
   -1.1756    0.9439    1.2763 H   0  0  0  0  0  0  0  0  0  0  0  0
   -0.9814    1.0814   -0.4731 H   0  0  0  0  0  0  0  0  0  0  0  0
    2.1484   -1.8591    1.5351 H   0  0  0  0  0  0  0  0  0  0  0  0
    3.4028   -0.7672    1.0271 H   0  0  0  0  0  0  0  0  0  0  0  0
   -2.4744   -0.8756   -0.8246 H   0  0  0  0  0  0  0  0  0  0  0  0
   -2.6913   -1.0289    0.9148 H   0  0  0  0  0  0  0  0  0  0  0  0
   -3.4903    1.4129   -0.7596 H   0  0  0  0  0  0  0  0  0  0  0  0
   -3.6971    1.2697    0.9948 H   0  0  0  0  0  0  0  0  0  0  0  0
    2.9259   -1.3962   -1.3967 H   0  0  0  0  0  0  0  0  0  0  0  0
    1.7104   -2.5404   -0.8188 H   0  0  0  0  0  0  0  0  0  0  0  0
    4.9357   -2.4559   -0.1350 H   0  0  0  0  0  0  0  0  0  0  0  0
    3.8599    2.9575   -1.7188 H   0  0  0  0  0  0  0  0  0  0  0  0
    4.4767    1.2765   -1.8472 H   0  0  0  0  0  0  0  0  0  0  0  0
    5.2422    2.4312   -0.7406 H   0  0  0  0  0  0  0  0  0  0  0  0
   -5.9166    1.9262   -0.1073 H   0  0  0  0  0  0  0  0  0  0  0  0
   -6.9997    0.6004   -0.3438 H   0  0  0  0  0  0  0  0  0  0  0  0
  1  7  1  0  0  0  0
  1 14  1  0  0  0  0
  2 12  1  0  0  0  0
  2 29  1  0  0  0  0
  3 13  2  0  0  0  0
  4 14  2  0  0  0  0
  5 13  1  0  0  0  0
  5 33  1  0  0  0  0
  5 34  1  0  0  0  0
  6  7  1  0  0  0  0
  6  8  1  0  0  0  0
  6 16  1  0  0  0  0
  6 17  1  0  0  0  0
  7  9  1  0  0  0  0
  7 18  1  0  0  0  0
  8 10  1  0  0  0  0
  8 19  1  0  0  0  0
  8 20  1  0  0  0  0
  9 12  1  0  0  0  0
  9 21  1  0  0  0  0
  9 22  1  0  0  0  0
 10 11  1  0  0  0  0
 10 23  1  0  0  0  0
 10 24  1  0  0  0  0
 11 13  1  0  0  0  0
 11 25  1  0  0  0  0
 11 26  1  0  0  0  0
 12 27  1  0  0  0  0
 12 28  1  0  0  0  0
 14 15  1  0  0  0  0
 15 30  1  0  0  0  0
 15 31  1  0  0  0  0
 15 32  1  0  0  0  0
M  END
> <PUBCHEM_COMPOUND_CID>
1076

> <PUBCHEM_CONFORMER_RMSD>
1

> <PUBCHEM_CONFORMER_DIVERSEORDER>
1
177
881
104
832
722
90
987
984
23
757
48
187
843
541
859
925
788
110
1004
19
874
159
1003
710
393
218
3
935
783
13
625
5
1001
239
16
709
680
70
844
474
21
913
616
74
999
118
986
178
342
704
18
79
300
864
957
456
185
546
442
905
768
296
392
8
4
53
894
71
477
694
945
270
67
593
2
45
256
528
358
736
868
989
41
250
303
761
138
643
221
120
839
972
35
165
779
524
166
729
17
32
335
911
581
463
352
686
865
340
895
129
106
695
126
897
954
28
75
86
31
735
454
141
398
158
49
676
30
869
426
299
62
728
439
235
234
836
280
85
651
805
724
117
9
194
188
52
130
112
47
812
331
176
322
580
217
29
63
365
586
588
960
72
620
259
399
592
57
14
784
705
553
672
145
858
696
754
835
204
34
621
931
856
44
509
826
94
254
996
537
381
164
571
131
24
87
33
949
636
493
123
156
742
215
95
46
107
179
169
879
550
139
973
7
604
281
408
233
20
89
113
227
838
252
559
441
136
202
111
697
518
42
231
685
237
830
469
135
626
6
313
297
223
292
334
124
149
244
671
162
428
10
534
266

> <PUBCHEM_MMFF94_PARTIAL_CHARGES>
14
1 -0.37
11 0.06
12 0.23
13 0.57
14 0.65
15 0.06
2 -0.41
29 0.18
3 -0.57
33 0.37
34 0.37
4 -0.57
5 -0.8
7 0.23

> <PUBCHEM_EFFECTIVE_ROTOR_COUNT>
9

> <PUBCHEM_PHARMACOPHORE_FEATURES>
4
1 3 acceptor
1 5 donor
3 8 10 11 hydrophobe
4 1 6 7 9 hydrophobe

> <PUBCHEM_HEAVY_ATOM_COUNT>
15

> <PUBCHEM_ATOM_DEF_STEREO_COUNT>
0

> <PUBCHEM_ATOM_UDEF_STEREO_COUNT>
1

> <PUBCHEM_BOND_DEF_STEREO_COUNT>
0

> <PUBCHEM_BOND_UDEF_STEREO_COUNT>
0

> <PUBCHEM_ISOTOPIC_ATOM_COUNT>
0

> <PUBCHEM_COMPONENT_COUNT>
1

> <PUBCHEM_CACTVS_TAUTO_COUNT>
2

> <PUBCHEM_CONFORMER_ID>
0000043400000001

> <PUBCHEM_MMFF94_ENERGY>
21.2022

> <PUBCHEM_FEATURE_SELFOVERLAP>
20.297

> <PUBCHEM_SHAPE_FINGERPRINT>
10912923 1 17748825224774335763
12616999 72 18336266764690498536
12730499 353 18337943494105638842
12916754 54 18337109072713378401
13533116 47 18334857242713739227
13955234 65 18334577936606018114
14178000 15 18261956370507280760
14178000 29 18118960532582141542
15477762 27 18336263565357042394
17834072 33 18408041793067477255
17844677 252 18339918333612669793
18186145 218 17917996109377554819
20369508 70 18130230487911699482
20388580 30 18190173667330036574
20612939 158 18411412946888457367
20645477 70 18412545435296659859
23081809 10 17967255317524594933
23402655 69 18410012118046909053
23532345 1 18341889671423629392
23557571 272 17703795842106968053
23559900 14 18336272335311041523
23598291 2 18116418426869084048
29717793 49 18261400004986455687
3071541 37 18410569566231438318
312423 11 18114732845489306505
3545911 37 18341327808365933177
42630746 31 18343305863838033586
5104073 3 18411698803496753859
5281201 14 18341896350118906301
6025842 7 18409165515236237270
633830 44 18201163230336291715
7364860 26 18335701663491341650
77779 3 18410293627567844491
81539 233 18271240526512030708
90127 26 17988638645025445089

> <PUBCHEM_SHAPE_MULTIPOLES>
299.67
12.16
2.81
0.92
19.7
1.41
0.02
-0.52
-2.08
-6.09
-0.62
-0.81
-0.2
-0.03

> <PUBCHEM_SHAPE_SELFOVERLAP>
537.696

> <PUBCHEM_SHAPE_VOLUME>
193.9

> <PUBCHEM_COORDINATE_TYPE>
2
5
10

$$$$

