6070
  -OEChem-07051213002D

 69 73  0     1  0  0  0  0  0999 V2000
   12.9636   -1.7755    0.0000 O   0  0  0  0  0  0  0  0  0  0  0  0
    5.2996    1.3095    0.0000 O   0  0  0  0  0  0  0  0  0  0  0  0
    3.0407   -0.0681    0.0000 N   0  0  0  0  0  0  0  0  0  0  0  0
    8.9858   -0.9176    0.0000 C   0  0  2  0  0  0  0  0  0  0  0  0
    9.9639   -1.1255    0.0000 C   0  0  2  0  0  0  0  0  0  0  0  0
    8.6768    0.0335    0.0000 C   0  0  1  0  0  0  0  0  0  0  0  0
    8.1800   -1.4998    0.0000 C   0  0  0  0  0  0  0  0  0  0  0  0
   10.6330   -0.3823    0.0000 C   0  0  0  0  0  0  0  0  0  0  0  0
   10.2705   -2.1210    0.0000 C   0  0  0  0  0  0  0  0  0  0  0  0
    9.3459    0.7766    0.0000 C   0  0  0  0  0  0  0  0  0  0  0  0
    7.6827    0.0309    0.0000 C   0  0  0  0  0  0  0  0  0  0  0  0
    7.3763   -0.9148    0.0000 C   0  0  0  0  0  0  0  0  0  0  0  0
    9.2948   -1.8686    0.0000 C   0  0  0  0  0  0  0  0  0  0  0  0
   11.6551   -0.5832    0.0000 C   0  0  0  0  0  0  0  0  0  0  0  0
   11.2877   -2.3454    0.0000 C   0  0  0  0  0  0  0  0  0  0  0  0
   10.3240    0.5687    0.0000 C   0  0  0  0  0  0  0  0  0  0  0  0
   11.9846   -1.5713    0.0000 C   0  0  2  0  0  0  0  0  0  0  0  0
    6.3671   -1.1466    0.0000 C   0  0  0  0  0  0  0  0  0  0  0  0
    7.0011    0.8104    0.0000 C   0  0  0  0  0  0  0  0  0  0  0  0
    5.6677   -0.3830    0.0000 C   0  0  0  0  0  0  0  0  0  0  0  0
    4.6905   -0.5955    0.0000 C   0  0  1  0  0  0  0  0  0  0  0  0
    4.0179    0.1444    0.0000 C   0  0  1  0  0  0  0  0  0  0  0  0
    5.9868    0.6020    0.0000 C   0  0  0  0  0  0  0  0  0  0  0  0
    6.0699   -2.1014    0.0000 C   0  0  0  0  0  0  0  0  0  0  0  0
    4.3224    1.0969    0.0000 C   0  0  1  0  0  0  0  0  0  0  0  0
    3.6498    1.8369    0.0000 C   0  0  0  0  0  0  0  0  0  0  0  0
    2.6726    1.6244    0.0000 C   0  0  1  0  0  0  0  0  0  0  0  0
    4.3860   -1.5480    0.0000 C   0  0  0  0  0  0  0  0  0  0  0  0
    2.3681    0.6719    0.0000 C   0  0  0  0  0  0  0  0  0  0  0  0
    2.0000    2.3644    0.0000 C   0  0  0  0  0  0  0  0  0  0  0  0
    9.1614   -1.7492    0.0000 H   0  0  0  0  0  0  0  0  0  0  0  0
    8.3300    0.8095    0.0000 H   0  0  0  0  0  0  0  0  0  0  0  0
    7.7645   -1.9600    0.0000 H   0  0  0  0  0  0  0  0  0  0  0  0
    8.5940   -1.9614    0.0000 H   0  0  0  0  0  0  0  0  0  0  0  0
    9.6555   -2.1994    0.0000 H   0  0  0  0  0  0  0  0  0  0  0  0
   10.2425   -2.7404    0.0000 H   0  0  0  0  0  0  0  0  0  0  0  0
    9.5781    1.3515    0.0000 H   0  0  0  0  0  0  0  0  0  0  0  0
    8.8201    1.1052    0.0000 H   0  0  0  0  0  0  0  0  0  0  0  0
    8.8340   -1.4538    0.0000 H   0  0  0  0  0  0  0  0  0  0  0  0
    8.8799   -2.3294    0.0000 H   0  0  0  0  0  0  0  0  0  0  0  0
    9.7555   -2.2835    0.0000 H   0  0  0  0  0  0  0  0  0  0  0  0
   12.2682   -0.4906    0.0000 H   0  0  0  0  0  0  0  0  0  0  0  0
   11.6688    0.0367    0.0000 H   0  0  0  0  0  0  0  0  0  0  0  0
   11.0524   -2.9191    0.0000 H   0  0  0  0  0  0  0  0  0  0  0  0
   11.8126   -2.6753    0.0000 H   0  0  0  0  0  0  0  0  0  0  0  0
   10.7389    1.0295    0.0000 H   0  0  0  0  0  0  0  0  0  0  0  0
   12.1774   -2.1606    0.0000 H   0  0  0  0  0  0  0  0  0  0  0  0
    7.1990    1.3980    0.0000 H   0  0  0  0  0  0  0  0  0  0  0  0
    4.0847   -0.7273    0.0000 H   0  0  0  0  0  0  0  0  0  0  0  0
    3.7590   -0.6652    0.0000 H   0  0  0  0  0  0  0  0  0  0  0  0
    5.5733    1.0640    0.0000 H   0  0  0  0  0  0  0  0  0  0  0  0
    4.7394    0.6382    0.0000 H   0  0  0  0  0  0  0  0  0  0  0  0
    5.4780   -1.9171    0.0000 H   0  0  0  0  0  0  0  0  0  0  0  0
    5.8857   -2.6934    0.0000 H   0  0  0  0  0  0  0  0  0  0  0  0
    6.6619   -2.2856    0.0000 H   0  0  0  0  0  0  0  0  0  0  0  0
   13.1574   -2.3644    0.0000 H   0  0  0  0  0  0  0  0  0  0  0  0
    4.1740    2.1680    0.0000 H   0  0  0  0  0  0  0  0  0  0  0  0
    3.4148    2.4107    0.0000 H   0  0  0  0  0  0  0  0  0  0  0  0
    2.0668    1.4926    0.0000 H   0  0  0  0  0  0  0  0  0  0  0  0
    2.8519   -0.6586    0.0000 H   0  0  0  0  0  0  0  0  0  0  0  0
    3.7954   -1.3592    0.0000 H   0  0  0  0  0  0  0  0  0  0  0  0
    4.1972   -2.1386    0.0000 H   0  0  0  0  0  0  0  0  0  0  0  0
    4.9765   -1.7368    0.0000 H   0  0  0  0  0  0  0  0  0  0  0  0
    1.8193    0.9604    0.0000 H   0  0  0  0  0  0  0  0  0  0  0  0
    1.9887    0.1815    0.0000 H   0  0  0  0  0  0  0  0  0  0  0  0
    2.4588    2.7814    0.0000 H   0  0  0  0  0  0  0  0  0  0  0  0
    1.5830    2.8232    0.0000 H   0  0  0  0  0  0  0  0  0  0  0  0
    1.5412    1.9473    0.0000 H   0  0  0  0  0  0  0  0  0  0  0  0
    5.4884    1.9000    0.0000 H   0  0  0  0  0  0  0  0  0  0  0  0
 17  1  1  1  0  0  0
  1 56  1  0  0  0  0
 25  2  1  1  0  0  0
  2 69  1  0  0  0  0
  3 22  1  0  0  0  0
  3 29  1  0  0  0  0
  3 60  1  0  0  0  0
  4  5  1  0  0  0  0
  4  6  1  0  0  0  0
  4  7  1  0  0  0  0
  4 31  1  6  0  0  0
  5  8  1  0  0  0  0
  5  9  1  0  0  0  0
  5 13  1  1  0  0  0
  6 10  1  0  0  0  0
  6 11  1  0  0  0  0
  6 32  1  1  0  0  0
  7 12  1  0  0  0  0
  7 33  1  0  0  0  0
  7 34  1  0  0  0  0
  8 14  1  0  0  0  0
  8 16  2  0  0  0  0
  9 15  1  0  0  0  0
  9 35  1  0  0  0  0
  9 36  1  0  0  0  0
 10 16  1  0  0  0  0
 10 37  1  0  0  0  0
 10 38  1  0  0  0  0
 11 12  2  0  0  0  0
 11 19  1  0  0  0  0
 12 18  1  0  0  0  0
 13 39  1  0  0  0  0
 13 40  1  0  0  0  0
 13 41  1  0  0  0  0
 14 17  1  0  0  0  0
 14 42  1  0  0  0  0
 14 43  1  0  0  0  0
 15 17  1  0  0  0  0
 15 44  1  0  0  0  0
 15 45  1  0  0  0  0
 16 46  1  0  0  0  0
 17 47  1  0  0  0  0
 18 20  2  0  0  0  0
 18 24  1  0  0  0  0
 19 23  2  0  0  0  0
 19 48  1  0  0  0  0
 20 21  1  0  0  0  0
 20 23  1  0  0  0  0
 21 22  1  0  0  0  0
 21 28  1  6  0  0  0
 21 49  1  0  0  0  0
 22 25  1  0  0  0  0
 22 50  1  1  0  0  0
 23 51  1  0  0  0  0
 24 53  1  0  0  0  0
 24 54  1  0  0  0  0
 24 55  1  0  0  0  0
 25 26  1  0  0  0  0
 25 52  1  0  0  0  0
 26 27  1  0  0  0  0
 26 57  1  0  0  0  0
 26 58  1  0  0  0  0
 27 29  1  0  0  0  0
 27 30  1  1  0  0  0
 27 59  1  0  0  0  0
 28 61  1  0  0  0  0
 28 62  1  0  0  0  0
 28 63  1  0  0  0  0
 29 64  1  0  0  0  0
 29 65  1  0  0  0  0
 30 66  1  0  0  0  0
 30 67  1  0  0  0  0
 30 68  1  0  0  0  0
M  END
> <PUBCHEM_COMPOUND_CID>
6070

> <PUBCHEM_COMPOUND_CANONICALIZED>
1

> <PUBCHEM_CACTVS_COMPLEXITY>
676

> <PUBCHEM_CACTVS_HBOND_ACCEPTOR>
3

> <PUBCHEM_CACTVS_HBOND_DONOR>
3

> <PUBCHEM_CACTVS_ROTATABLE_BOND>
2

> <PUBCHEM_CACTVS_SUBSKEYS>
AAADcfB6MAAAAAAAAAAAAAAAAAAAAYAAAAA8YIEAAAAAAGCBAAAAHgAQCAAADzzhmAYyAILAAgCAAiBCAAACAAAgAAAIiIAIAIgKMCKAkRGEYAAk0ACYiAewwPAPwAACAAAQAADAAAQAACAAAQAACAAAAA==

> <PUBCHEM_IUPAC_OPENEYE_NAME>
(2S,3R,5S)-2-[(1S)-1-[(3S,6aR,11aS,11bR)-3-hydroxy-10,11b-dimethyl-1,2,3,4,6,6a,11,11a-octahydrobenzo[a]fluoren-9-yl]ethyl]-5-methyl-piperidin-3-ol

> <PUBCHEM_IUPAC_CAS_NAME>
(2S,3R,5S)-2-[(1S)-1-[(3S,6aR,11aS,11bR)-3-hydroxy-10,11b-dimethyl-1,2,3,4,6,6a,11,11a-octahydrobenzo[a]fluoren-9-yl]ethyl]-5-methyl-3-piperidinol

> <PUBCHEM_IUPAC_NAME>
(2S,3R,5S)-2-[(1S)-1-[(3S,6aR,11aS,11bR)-3-hydroxy-10,11b-dimethyl-1,2,3,4,6,6a,11,11a-octahydrobenzo[a]fluoren-9-yl]ethyl]-5-methylpiperidin-3-ol

> <PUBCHEM_IUPAC_SYSTEMATIC_NAME>
(2S,3R,5S)-2-[(1S)-1-[(3S,6aR,11aS,11bR)-10,11b-dimethyl-3-oxidanyl-1,2,3,4,6,6a,11,11a-octahydrobenzo[a]fluoren-9-yl]ethyl]-5-methyl-piperidin-3-ol

> <PUBCHEM_IUPAC_TRADITIONAL_NAME>
(2S,3R,5S)-2-[(1S)-1-[(3S,6aR,11aS,11bR)-3-hydroxy-10,11b-dimethyl-1,2,3,4,6,6a,11,11a-octahydrobenzo[a]fluoren-9-yl]ethyl]-5-methyl-piperidin-3-ol

> <PUBCHEM_IUPAC_INCHI>
InChI=1S/C27H39NO2/c1-15-11-25(30)26(28-14-15)17(3)20-7-8-21-22-6-5-18-12-19(29)9-10-27(18,4)24(22)13-23(21)16(20)2/h5,7-8,15,17,19,22,24-26,28-30H,6,9-14H2,1-4H3/t15-,17-,19-,22-,24-,25+,26-,27-/m0/s1

> <PUBCHEM_IUPAC_INCHIKEY>
MALFODICFSIXPO-KFKQDBFTSA-N

> <PUBCHEM_XLOGP3_AA>
4.3

> <PUBCHEM_EXACT_MASS>
409.298079

> <PUBCHEM_MOLECULAR_FORMULA>
C27H39NO2

> <PUBCHEM_MOLECULAR_WEIGHT>
409.60406

> <PUBCHEM_OPENEYE_CAN_SMILES>
CC1CC(C(NC1)C(C)C2=C(C3=C(C=C2)C4CC=C5CC(CCC5(C4C3)C)O)C)O

> <PUBCHEM_OPENEYE_ISO_SMILES>
C[C@H]1C[C@H]([C@@H](NC1)[C@@H](C)C2=C(C3=C(C=C2)[C@@H]4CC=C5C[C@H](CC[C@@]5([C@H]4C3)C)O)C)O

> <PUBCHEM_CACTVS_TPSA>
52.5

> <PUBCHEM_MONOISOTOPIC_WEIGHT>
409.298079

> <PUBCHEM_TOTAL_CHARGE>
0

> <PUBCHEM_HEAVY_ATOM_COUNT>
30

> <PUBCHEM_ATOM_DEF_STEREO_COUNT>
8

> <PUBCHEM_ATOM_UDEF_STEREO_COUNT>
0

> <PUBCHEM_BOND_DEF_STEREO_COUNT>
0

> <PUBCHEM_BOND_UDEF_STEREO_COUNT>
0

> <PUBCHEM_ISOTOPIC_ATOM_COUNT>
0

> <PUBCHEM_COMPONENT_COUNT>
1

> <PUBCHEM_CACTVS_TAUTO_COUNT>
1

> <PUBCHEM_COORDINATE_TYPE>
1
5
255

> <PUBCHEM_BONDANNOTATIONS>
17  1  5
11  12  8
11  19  8
12  18  8
18  20  8
19  23  8
25  2  5
20  23  8
21  28  6
22  50  5
27  30  5
4  31  6
5  13  5
6  32  5

$$$$

