3708
  -OEChem-06251223363D

 34 37  0     0  0  0  0  0  0999 V2000
    3.9738    2.0979   -0.1189 S   0  0  0  0  0  0  0  0  0  0  0  0
   -1.0157   -3.6195    0.2838 O   0  0  0  0  0  0  0  0  0  0  0  0
   -2.9639   -1.9895   -1.0244 O   0  0  0  0  0  0  0  0  0  0  0  0
    4.1478    2.3782   -1.7197 O   0  0  0  0  0  0  0  0  0  0  0  0
    3.0204    3.0758    0.3831 O   0  0  0  0  0  0  0  0  0  0  0  0
    5.2995    1.9839    0.4673 O   0  0  0  0  0  0  0  0  0  0  0  0
    1.2597   -3.0913    0.2398 N   0  0  0  0  0  0  0  0  0  0  0  0
   -1.3691    0.6643    0.5555 N   0  0  0  0  0  0  0  0  0  0  0  0
    1.2471   -0.8653    0.0910 C   0  0  0  0  0  0  0  0  0  0  0  0
   -0.0951   -1.3366    0.1276 C   0  0  0  0  0  0  0  0  0  0  0  0
    2.0772   -1.9862    0.1627 C   0  0  0  0  0  0  0  0  0  0  0  0
   -1.3163   -0.5524    0.0804 C   0  0  0  0  0  0  0  0  0  0  0  0
   -0.0547   -2.7088    0.2191 C   0  0  0  0  0  0  0  0  0  0  0  0
    1.8374    0.4111    0.0035 C   0  0  0  0  0  0  0  0  0  0  0  0
    3.2328    0.5187   -0.0091 C   0  0  0  0  0  0  0  0  0  0  0  0
    3.4735   -1.8939    0.1512 C   0  0  0  0  0  0  0  0  0  0  0  0
   -2.6736   -0.9512   -0.4872 C   0  0  0  0  0  0  0  0  0  0  0  0
   -3.5170    0.2068   -0.2563 C   0  0  0  0  0  0  0  0  0  0  0  0
   -2.6839    1.1321    0.3625 C   0  0  0  0  0  0  0  0  0  0  0  0
    4.0363   -0.6174    0.0637 C   0  0  0  0  0  0  0  0  0  0  0  0
   -4.8434    0.4405   -0.5485 C   0  0  0  0  0  0  0  0  0  0  0  0
   -3.1880    2.3701    0.7203 C   0  0  0  0  0  0  0  0  0  0  0  0
   -5.3522    1.6879   -0.1882 C   0  0  0  0  0  0  0  0  0  0  0  0
   -4.5325    2.6449    0.4407 C   0  0  0  0  0  0  0  0  0  0  0  0
    1.5830   -4.0466    0.3025 H   0  0  0  0  0  0  0  0  0  0  0  0
    1.2111    1.2950   -0.0657 H   0  0  0  0  0  0  0  0  0  0  0  0
    4.0996   -2.7782    0.2059 H   0  0  0  0  0  0  0  0  0  0  0  0
    5.1205   -0.5380    0.0454 H   0  0  0  0  0  0  0  0  0  0  0  0
   -5.4655   -0.3018   -1.0334 H   0  0  0  0  0  0  0  0  0  0  0  0
   -2.5641    3.1134    1.2049 H   0  0  0  0  0  0  0  0  0  0  0  0
   -1.8686   -3.1577    0.3320 H   0  0  0  0  0  0  0  0  0  0  0  0
   -6.3921    1.9269   -0.3942 H   0  0  0  0  0  0  0  0  0  0  0  0
   -4.9508    3.6107    0.7123 H   0  0  0  0  0  0  0  0  0  0  0  0
    3.3089    2.4097   -2.2372 H   0  0  0  0  0  0  0  0  0  0  0  0
  1  4  1  0  0  0  0
  1  5  2  0  0  0  0
  1  6  2  0  0  0  0
  1 15  1  0  0  0  0
  2 13  1  0  0  0  0
  2 31  1  0  0  0  0
  3 17  2  0  0  0  0
  4 34  1  0  0  0  0
  7 11  1  0  0  0  0
  7 13  1  0  0  0  0
  7 25  1  0  0  0  0
  8 12  2  0  0  0  0
  8 19  1  0  0  0  0
  9 10  1  0  0  0  0
  9 11  2  0  0  0  0
  9 14  1  0  0  0  0
 10 12  1  0  0  0  0
 10 13  2  0  0  0  0
 11 16  1  0  0  0  0
 12 17  1  0  0  0  0
 14 15  2  0  0  0  0
 14 26  1  0  0  0  0
 15 20  1  0  0  0  0
 16 20  2  0  0  0  0
 16 27  1  0  0  0  0
 17 18  1  0  0  0  0
 18 19  1  0  0  0  0
 18 21  2  0  0  0  0
 19 22  2  0  0  0  0
 20 28  1  0  0  0  0
 21 23  1  0  0  0  0
 21 29  1  0  0  0  0
 22 24  1  0  0  0  0
 22 30  1  0  0  0  0
 23 24  2  0  0  0  0
 23 32  1  0  0  0  0
 24 33  1  0  0  0  0
M  END
> <PUBCHEM_COMPOUND_CID>
3708

> <PUBCHEM_CONFORMER_RMSD>
0.6

> <PUBCHEM_CONFORMER_DIVERSEORDER>
1
4
6
2
5
3

> <PUBCHEM_MMFF94_PARTIAL_CHARGES>
33
1 1.49
10 -0.09
11 -0.15
12 0.54
13 -0.09
14 -0.15
15 -0.01
16 -0.15
17 0.48
18 0.09
19 0.18
2 -0.51
20 -0.15
21 -0.15
22 -0.15
23 -0.15
24 -0.15
25 0.27
26 0.15
27 0.15
28 0.15
29 0.15
3 -0.57
30 0.15
31 0.45
32 0.15
33 0.15
34 0.5
4 -0.68
5 -0.65
6 -0.65
7 0.03
8 -0.63

> <PUBCHEM_EFFECTIVE_ROTOR_COUNT>
2

> <PUBCHEM_PHARMACOPHORE_FEATURES>
13
1 2 donor
1 3 acceptor
1 4 acceptor
1 5 acceptor
1 6 acceptor
1 7 cation
1 7 donor
1 8 acceptor
4 1 4 5 6 anion
5 7 9 10 11 13 rings
5 8 12 17 18 19 rings
6 18 19 21 22 23 24 rings
6 9 11 14 15 16 20 rings

> <PUBCHEM_HEAVY_ATOM_COUNT>
24

> <PUBCHEM_ATOM_DEF_STEREO_COUNT>
0

> <PUBCHEM_ATOM_UDEF_STEREO_COUNT>
0

> <PUBCHEM_BOND_DEF_STEREO_COUNT>
0

> <PUBCHEM_BOND_UDEF_STEREO_COUNT>
0

> <PUBCHEM_ISOTOPIC_ATOM_COUNT>
0

> <PUBCHEM_COMPONENT_COUNT>
1

> <PUBCHEM_CACTVS_TAUTO_COUNT>
24

> <PUBCHEM_CONFORMER_ID>
00000E7C00000001

> <PUBCHEM_MMFF94_ENERGY>
52.5724

> <PUBCHEM_FEATURE_SELFOVERLAP>
66.256

> <PUBCHEM_SHAPE_FINGERPRINT>
10411042 1 17474672127368457874
1100329 8 18338519750279544170
12173636 292 18266179418417835582
12403259 327 15769771330105384856
12403260 363 18338813246674693162
12633257 1 18270691968825304162
12769317 202 18337685211889497065
12788726 201 17911528588272339402
13140716 1 18341894138121253466
13583140 156 16916519042519813794
13590594 115 17545592813502885042
13617811 41 18337689524954832873
138480 1 17834394905446442778
13878862 14 17984441886320208941
13965767 371 18130243562156034472
14251764 75 18335969935343757825
14528608 73 18409731798316167957
14767858 380 18263941955700681607
14790565 3 18263076764451075449
14840074 17 17202753805189042780
14848178 96 18411984667223600156
15196674 1 18409731768003431331
15342168 16 18273210880933969253
15475509 8 18118674659933492230
17980427 23 18045251386253749138
18681886 176 18189626106012568866
19427546 62 18340767169490324915
20739085 24 18059287772867853620
21033648 144 18201727266362252599
21033648 29 16845297197815515341
21033650 10 14851871608435077147
21709351 56 18193565686175825231
21860390 5 18189611808197653662
21864079 5 18410575089063794730
22393880 68 18260824865631336500
2255824 54 18194682794195357579
23227448 37 18407762534357104133
23558518 356 18129095628571260434
23559900 14 18187650270700839758
245318 6 17916287373428970708
335352 9 18411136974767478342
3380486 145 17694203483929652995
345986 75 17055013776854037042
350125 39 18341050838931410820
394222 165 18271531991024094643
474 4 18341895229111245459
5048184 11 18410852144498221072
5104073 3 18343864437383486715
6034566 193 17843946066562186996
6328613 192 18199464382320008356
633830 44 18408608092752862278
7288768 16 18059576840982681698
7808743 9 18268148661081397912
84936 182 18334580152619167152
9981440 41 18340211769625271434

> <PUBCHEM_SHAPE_MULTIPOLES>
458.45
10.78
3.94
0.82
3.21
0.61
-0.18
-9.07
-0.87
-1.98
0.19
-0.09
-0.26
-1.14

> <PUBCHEM_SHAPE_SELFOVERLAP>
1029.349

> <PUBCHEM_SHAPE_VOLUME>
243.9

> <PUBCHEM_COORDINATE_TYPE>
2
5
10

$$$$

