442077
  -OEChem-07051212563D

 45 47  0     1  0  0  0  0  0999 V2000
    4.6443   -1.0740    0.3349 O   0  0  0  0  0  0  0  0  0  0  0  0
   -4.0370   -0.2771    0.7639 O   0  0  0  0  0  0  0  0  0  0  0  0
   -4.2155    0.5637   -1.3964 O   0  0  0  0  0  0  0  0  0  0  0  0
    2.9976    0.4708   -0.1770 N   0  0  0  0  0  0  0  0  0  0  0  0
    1.3183   -1.3049   -0.1917 N   0  0  2  0  0  0  0  0  0  0  0  0
    5.2534    0.9161   -0.6502 N   0  0  0  0  0  0  0  0  0  0  0  0
   -6.0402    0.5705    0.0363 N   0  0  0  0  0  0  0  0  0  0  0  0
    0.8121    0.8835    0.7085 C   0  0  1  0  0  0  0  0  0  0  0  0
    1.9258   -0.1956    0.5610 C   0  0  2  0  0  0  0  0  0  0  0  0
    1.0537    1.8059   -0.4989 C   0  0  0  0  0  0  0  0  0  0  0  0
   -0.4230    0.0484    0.5324 C   0  0  0  0  0  0  0  0  0  0  0  0
    2.5578    1.7558   -0.7170 C   0  0  0  0  0  0  0  0  0  0  0  0
   -0.0621   -1.2002    0.0032 C   0  0  0  0  0  0  0  0  0  0  0  0
    0.8951    1.6191    2.0434 C   0  0  0  0  0  0  0  0  0  0  0  0
   -1.7448    0.3810    0.7887 C   0  0  0  0  0  0  0  0  0  0  0  0
    1.9630   -2.5829   -0.3833 C   0  0  0  0  0  0  0  0  0  0  0  0
    4.3217    0.0218   -0.1320 C   0  0  0  0  0  0  0  0  0  0  0  0
   -1.0476   -2.1373   -0.2762 C   0  0  0  0  0  0  0  0  0  0  0  0
   -2.7297   -0.5664    0.5141 C   0  0  0  0  0  0  0  0  0  0  0  0
   -2.3835   -1.8168   -0.0149 C   0  0  0  0  0  0  0  0  0  0  0  0
    6.6691    0.6283   -0.6804 C   0  0  0  0  0  0  0  0  0  0  0  0
   -4.7293    0.3151   -0.3096 C   0  0  0  0  0  0  0  0  0  0  0  0
   -6.9991    1.1752   -0.8588 C   0  0  0  0  0  0  0  0  0  0  0  0
    2.2998   -0.5596    1.5271 H   0  0  0  0  0  0  0  0  0  0  0  0
    0.6940    2.8283   -0.3419 H   0  0  0  0  0  0  0  0  0  0  0  0
    0.5522    1.4277   -1.3997 H   0  0  0  0  0  0  0  0  0  0  0  0
    2.8338    1.8385   -1.7725 H   0  0  0  0  0  0  0  0  0  0  0  0
    3.0574    2.5524   -0.1543 H   0  0  0  0  0  0  0  0  0  0  0  0
    1.8650    2.1123    2.1689 H   0  0  0  0  0  0  0  0  0  0  0  0
    0.1187    2.3884    2.1209 H   0  0  0  0  0  0  0  0  0  0  0  0
    0.7599    0.9308    2.8857 H   0  0  0  0  0  0  0  0  0  0  0  0
   -2.0081    1.3544    1.1894 H   0  0  0  0  0  0  0  0  0  0  0  0
    2.9771   -2.4582   -0.7681 H   0  0  0  0  0  0  0  0  0  0  0  0
    1.4364   -3.1930   -1.1247 H   0  0  0  0  0  0  0  0  0  0  0  0
    2.0128   -3.1395    0.5581 H   0  0  0  0  0  0  0  0  0  0  0  0
   -0.8085   -3.1109   -0.6910 H   0  0  0  0  0  0  0  0  0  0  0  0
   -3.1579   -2.5497   -0.2282 H   0  0  0  0  0  0  0  0  0  0  0  0
    4.9555    1.8207   -0.9961 H   0  0  0  0  0  0  0  0  0  0  0  0
    7.1578    1.3426   -1.3468 H   0  0  0  0  0  0  0  0  0  0  0  0
    6.8325   -0.3920   -1.0372 H   0  0  0  0  0  0  0  0  0  0  0  0
    7.0674    0.7290    0.3324 H   0  0  0  0  0  0  0  0  0  0  0  0
   -6.3475    0.3209    0.9712 H   0  0  0  0  0  0  0  0  0  0  0  0
   -7.8435    0.4903   -0.9673 H   0  0  0  0  0  0  0  0  0  0  0  0
   -6.5581    1.3786   -1.8375 H   0  0  0  0  0  0  0  0  0  0  0  0
   -7.3459    2.1078   -0.4072 H   0  0  0  0  0  0  0  0  0  0  0  0
  1 17  2  0  0  0  0
  2 19  1  0  0  0  0
  2 22  1  0  0  0  0
  3 22  2  0  0  0  0
  4  9  1  0  0  0  0
  4 12  1  0  0  0  0
  4 17  1  0  0  0  0
  5  9  1  0  0  0  0
  5 13  1  0  0  0  0
  5 16  1  0  0  0  0
  6 17  1  0  0  0  0
  6 21  1  0  0  0  0
  6 38  1  0  0  0  0
  7 22  1  0  0  0  0
  7 23  1  0  0  0  0
  7 42  1  0  0  0  0
  8  9  1  0  0  0  0
  8 10  1  0  0  0  0
  8 11  1  0  0  0  0
  8 14  1  0  0  0  0
  9 24  1  0  0  0  0
 10 12  1  0  0  0  0
 10 25  1  0  0  0  0
 10 26  1  0  0  0  0
 11 13  2  0  0  0  0
 11 15  1  0  0  0  0
 12 27  1  0  0  0  0
 12 28  1  0  0  0  0
 13 18  1  0  0  0  0
 14 29  1  0  0  0  0
 14 30  1  0  0  0  0
 14 31  1  0  0  0  0
 15 19  2  0  0  0  0
 15 32  1  0  0  0  0
 16 33  1  0  0  0  0
 16 34  1  0  0  0  0
 16 35  1  0  0  0  0
 18 20  2  0  0  0  0
 18 36  1  0  0  0  0
 19 20  1  0  0  0  0
 20 37  1  0  0  0  0
 21 39  1  0  0  0  0
 21 40  1  0  0  0  0
 21 41  1  0  0  0  0
 23 43  1  0  0  0  0
 23 44  1  0  0  0  0
 23 45  1  0  0  0  0
M  END
> <PUBCHEM_COMPOUND_CID>
442077

> <PUBCHEM_CONFORMER_RMSD>
0.8

> <PUBCHEM_CONFORMER_DIVERSEORDER>
3
32
9
22
21
34
8
25
12
18
23
5
4
16
30
13
19
17
24
1
29
28
15
33
10
20
31
27
2
35
14
7
26
11
6

> <PUBCHEM_MMFF94_PARTIAL_CHARGES>
26
1 -0.57
11 -0.14
12 0.3
13 0.1
15 -0.15
16 0.37
17 0.69
18 -0.15
19 0.08
2 -0.23
20 -0.15
21 0.3
22 0.78
23 0.3
3 -0.57
32 0.15
36 0.15
37 0.15
38 0.37
4 -0.66
42 0.37
5 -0.84
6 -0.73
7 -0.73
8 0.14
9 0.67

> <PUBCHEM_EFFECTIVE_ROTOR_COUNT>
5.8

> <PUBCHEM_PHARMACOPHORE_FEATURES>
8
1 1 acceptor
1 3 acceptor
1 5 cation
1 6 donor
1 7 donor
5 4 8 9 10 12 rings
5 5 8 9 11 13 rings
6 11 13 15 18 19 20 rings

> <PUBCHEM_HEAVY_ATOM_COUNT>
23

> <PUBCHEM_ATOM_DEF_STEREO_COUNT>
2

> <PUBCHEM_ATOM_UDEF_STEREO_COUNT>
0

> <PUBCHEM_BOND_DEF_STEREO_COUNT>
0

> <PUBCHEM_BOND_UDEF_STEREO_COUNT>
0

> <PUBCHEM_ISOTOPIC_ATOM_COUNT>
0

> <PUBCHEM_COMPONENT_COUNT>
1

> <PUBCHEM_CACTVS_TAUTO_COUNT>
4

> <PUBCHEM_CONFORMER_ID>
0006BEDD00000003

> <PUBCHEM_MMFF94_ENERGY>
76.1471

> <PUBCHEM_FEATURE_SELFOVERLAP>
41.122

> <PUBCHEM_SHAPE_FINGERPRINT>
10165383 225 18413388744283978573
106641 1 12535337992141191141
10693767 8 17531246226743631246
11578080 2 18045230340566079616
12011746 2 18187363237703514981
12236239 1 18272930480448051442
12403259 415 18263085431641753249
12838862 33 18336277781993859960
12916748 109 10807942565890652400
13140716 1 18043803182809369018
13540713 4 17752776722997754227
14911166 2 18113617872037247953
15048467 5 18131631175409255692
15099037 51 18410292493016041823
15183329 4 18411981385926452297
15196674 1 18337669694283023666
1601671 61 18412265034340925812
16945 1 18336809949383784618
17834072 8 18407755924302254116
18222031 100 16298382457728643800
19784866 9 18411698785810839178
200 152 17821446863533893987
21267235 1 18264194825420155946
21285901 2 18268992153470441973
21503847 285 16773515482042912469
21637258 2 14129055954395880764
21709351 56 18340770330026845519
22079108 93 7853567986020591420
221357 26 18261682570975056213
22289505 5 18337397144665170029
22393880 68 17968950690744167927
23402539 116 16877935049118396560
23402655 69 18187650236809930647
23493267 7 17988646246832599387
23559900 14 17968373421860515672
25147074 1 17896873459814920211
2838139 119 18060426802785197445
3004659 81 18341891922862406438
3009799 131 17748547030583173808
335352 9 18410573981236350862
34934 24 18410857663636860418
350125 39 18410011074396658737
3545911 37 18410853248858405379
4072396 5 18337682987676478882
4340502 62 16773792627834935907
633830 44 16844729703549473340

> <PUBCHEM_SHAPE_MULTIPOLES>
435.8
13.11
2.08
1.09
6.89
0.9
0.26
-4.89
-4.84
-0.53
-0.15
0.17
-0.49
0.23

> <PUBCHEM_SHAPE_SELFOVERLAP>
931.668

> <PUBCHEM_SHAPE_VOLUME>
244.7

> <PUBCHEM_COORDINATE_TYPE>
2
5
10

$$$$

