440566
  -OEChem-07051212503D

 43 42  0     1  0  0  0  0  0999 V2000
   -0.5242   -1.4178    1.9184 S   0  0  0  0  0  0  0  0  0  0  0  0
    2.4676    0.2027   -0.2238 S   0  0  0  0  0  0  0  0  0  0  0  0
    4.5286   -1.3514    0.3247 O   0  0  0  0  0  0  0  0  0  0  0  0
   -7.2163   -0.1853   -0.9761 O   0  0  0  0  0  0  0  0  0  0  0  0
   -7.8558    1.6019    0.3250 N   0  0  0  0  0  0  0  0  0  0  0  0
   -2.1432   -0.8999   -0.2851 C   0  0  0  0  0  0  0  0  0  0  0  0
   -0.6936   -0.7511    0.2200 C   0  0  2  0  0  0  0  0  0  0  0  0
   -3.1144    0.1380    0.2940 C   0  0  0  0  0  0  0  0  0  0  0  0
    0.2778   -1.4580   -0.7500 C   0  0  0  0  0  0  0  0  0  0  0  0
   -4.5345   -0.0764   -0.2417 C   0  0  0  0  0  0  0  0  0  0  0  0
    1.7612   -1.4648   -0.3649 C   0  0  0  0  0  0  0  0  0  0  0  0
   -5.5323    0.9271    0.3341 C   0  0  0  0  0  0  0  0  0  0  0  0
    6.4743    0.7868    0.0572 C   0  0  0  0  0  0  0  0  0  0  0  0
    5.0000    1.0283    0.4211 C   0  0  0  0  0  0  0  0  0  0  0  0
    4.1278   -0.1986    0.2244 C   0  0  0  0  0  0  0  0  0  0  0  0
    6.5914    0.3766   -1.4121 C   0  0  0  0  0  0  0  0  0  0  0  0
    7.3249    2.0331    0.3152 C   0  0  0  0  0  0  0  0  0  0  0  0
   -6.9390    0.7089   -0.1805 C   0  0  0  0  0  0  0  0  0  0  0  0
   -2.1498   -0.7741   -1.3763 H   0  0  0  0  0  0  0  0  0  0  0  0
   -2.5152   -1.9154   -0.0961 H   0  0  0  0  0  0  0  0  0  0  0  0
   -0.4453    0.3147    0.2643 H   0  0  0  0  0  0  0  0  0  0  0  0
   -3.1292    0.0709    1.3876 H   0  0  0  0  0  0  0  0  0  0  0  0
   -2.7723    1.1471    0.0350 H   0  0  0  0  0  0  0  0  0  0  0  0
    0.1779   -1.0002   -1.7438 H   0  0  0  0  0  0  0  0  0  0  0  0
   -0.0394   -2.5026   -0.8753 H   0  0  0  0  0  0  0  0  0  0  0  0
   -4.5275    0.0010   -1.3362 H   0  0  0  0  0  0  0  0  0  0  0  0
   -4.8634   -1.0956   -0.0020 H   0  0  0  0  0  0  0  0  0  0  0  0
    2.3151   -1.9996   -1.1451 H   0  0  0  0  0  0  0  0  0  0  0  0
    1.9230   -2.0108    0.5692 H   0  0  0  0  0  0  0  0  0  0  0  0
   -5.2272    1.9480    0.0759 H   0  0  0  0  0  0  0  0  0  0  0  0
   -5.5530    0.8488    1.4276 H   0  0  0  0  0  0  0  0  0  0  0  0
    6.8682   -0.0308    0.6740 H   0  0  0  0  0  0  0  0  0  0  0  0
    4.6183    1.8634   -0.1791 H   0  0  0  0  0  0  0  0  0  0  0  0
    4.9204    1.3173    1.4762 H   0  0  0  0  0  0  0  0  0  0  0  0
   -0.8476   -2.6851    1.6217 H   0  0  0  0  0  0  0  0  0  0  0  0
    6.1652    1.1396   -2.0729 H   0  0  0  0  0  0  0  0  0  0  0  0
    6.0841   -0.5704   -1.6175 H   0  0  0  0  0  0  0  0  0  0  0  0
    7.6427    0.2438   -1.6908 H   0  0  0  0  0  0  0  0  0  0  0  0
    6.9859    2.8789   -0.2925 H   0  0  0  0  0  0  0  0  0  0  0  0
    7.2672    2.3278    1.3682 H   0  0  0  0  0  0  0  0  0  0  0  0
    8.3768    1.8432    0.0772 H   0  0  0  0  0  0  0  0  0  0  0  0
   -8.8326    1.5578    0.0541 H   0  0  0  0  0  0  0  0  0  0  0  0
   -7.5959    2.3313    0.9813 H   0  0  0  0  0  0  0  0  0  0  0  0
  1  7  1  0  0  0  0
  1 35  1  0  0  0  0
  2 11  1  0  0  0  0
  2 15  1  0  0  0  0
  3 15  2  0  0  0  0
  4 18  2  0  0  0  0
  5 18  1  0  0  0  0
  5 42  1  0  0  0  0
  5 43  1  0  0  0  0
  6  7  1  0  0  0  0
  6  8  1  0  0  0  0
  6 19  1  0  0  0  0
  6 20  1  0  0  0  0
  7  9  1  0  0  0  0
  7 21  1  0  0  0  0
  8 10  1  0  0  0  0
  8 22  1  0  0  0  0
  8 23  1  0  0  0  0
  9 11  1  0  0  0  0
  9 24  1  0  0  0  0
  9 25  1  0  0  0  0
 10 12  1  0  0  0  0
 10 26  1  0  0  0  0
 10 27  1  0  0  0  0
 11 28  1  0  0  0  0
 11 29  1  0  0  0  0
 12 18  1  0  0  0  0
 12 30  1  0  0  0  0
 12 31  1  0  0  0  0
 13 14  1  0  0  0  0
 13 16  1  0  0  0  0
 13 17  1  0  0  0  0
 13 32  1  0  0  0  0
 14 15  1  0  0  0  0
 14 33  1  0  0  0  0
 14 34  1  0  0  0  0
 16 36  1  0  0  0  0
 16 37  1  0  0  0  0
 16 38  1  0  0  0  0
 17 39  1  0  0  0  0
 17 40  1  0  0  0  0
 17 41  1  0  0  0  0
M  END
> <PUBCHEM_COMPOUND_CID>
440566

> <PUBCHEM_CONFORMER_RMSD>
1.4

> <PUBCHEM_CONFORMER_DIVERSEORDER>
1
4
35
7
13
3
21
16
38
19
36
2
10
29
20
33
32
8
9
18
25
23
41
31
27
15
30
5
37
6
34
12
42
22
43
39
26
11
28
14
24
17
40

> <PUBCHEM_MMFF94_PARTIAL_CHARGES>
14
1 -0.41
11 0.23
12 0.06
14 0.06
15 0.65
18 0.57
2 -0.37
3 -0.57
35 0.18
4 -0.57
42 0.37
43 0.37
5 -0.8
7 0.23

> <PUBCHEM_EFFECTIVE_ROTOR_COUNT>
11

> <PUBCHEM_PHARMACOPHORE_FEATURES>
4
1 4 acceptor
1 5 donor
3 13 16 17 hydrophobe
4 6 8 10 12 hydrophobe

> <PUBCHEM_HEAVY_ATOM_COUNT>
18

> <PUBCHEM_ATOM_DEF_STEREO_COUNT>
0

> <PUBCHEM_ATOM_UDEF_STEREO_COUNT>
1

> <PUBCHEM_BOND_DEF_STEREO_COUNT>
0

> <PUBCHEM_BOND_UDEF_STEREO_COUNT>
0

> <PUBCHEM_ISOTOPIC_ATOM_COUNT>
0

> <PUBCHEM_COMPONENT_COUNT>
1

> <PUBCHEM_CACTVS_TAUTO_COUNT>
2

> <PUBCHEM_CONFORMER_ID>
0006B8F600000001

> <PUBCHEM_MMFF94_ENERGY>
21.8718

> <PUBCHEM_FEATURE_SELFOVERLAP>
20.297

> <PUBCHEM_SHAPE_FINGERPRINT>
10 15 15697996327603256670
10066227 49 15936678367932978742
10299344 5 9799690419830191349
106641 1 14117512126018202396
117890 112 18343301457602559930
13533116 47 17988084516655678034
13668630 136 8214147347723291008
13673619 4 7853575703407396706
13685833 64 9655576309574920526
14123256 10 16153427250762775065
14251752 14 4678819424171366645
14251757 52 18411140233961918768
14251764 18 13830126183170396043
14251764 46 16515402971585887582
15048467 5 18260550035000369143
15183329 4 17676204684444983817
15716309 27 11959731564187195945
1768 124 12751241406390522520
17834072 8 16877663448186895450
18006028 8 10807934864539848911
18335252 114 18040438806314983964
20157964 124 18335982047351479014
20281389 69 18272655662132767812
20526848 3 18408039606575864497
20621476 66 18341891857862708852
20735858 18 15841549687186922147
21130983 4 18341893000197233533
21150785 3 16805322184391253541
21267235 1 10519993677558303304
21637258 2 8862943853300200842
22224240 67 16702302352064400515
23035841 295 7853571310177637469
246663 6 6916261853913204773
33532 11 9727637202285388416
4073 2 18341610408751468659
445580 37 16877938378340524089
465052 167 11239992373673831867
5104073 3 15553585310659249393
5207 217 18186520995091692083
5758199 1 18131068251594961851
6438161 24 6771865143642255108

> <PUBCHEM_SHAPE_MULTIPOLES>
361.41
23.62
1.68
1.1
13.23
0.03
-0.21
16.6
2.43
-0.83
-0.31
-0.32
-0.33
0.12

> <PUBCHEM_SHAPE_SELFOVERLAP>
654.22

> <PUBCHEM_SHAPE_VOLUME>
232.4

> <PUBCHEM_COORDINATE_TYPE>
2
5
10

$$$$

