17395773
  -OEChem-06241222523D

 42 43  0     1  0  0  0  0  0999 V2000
    4.1786    0.9203   -1.0744 S   0  0  0  0  0  0  0  0  0  0  0  0
   -7.2181   -1.7591   -0.1152 F   0  0  0  0  0  0  0  0  0  0  0  0
   -5.1153   -2.0861   -0.5911 F   0  0  0  0  0  0  0  0  0  0  0  0
   -5.7469   -1.8692    1.4902 F   0  0  0  0  0  0  0  0  0  0  0  0
   -0.7787    0.9376   -1.6717 O   0  0  0  0  0  0  0  0  0  0  0  0
   -3.5138    0.2922   -1.6239 O   0  0  0  0  0  0  0  0  0  0  0  0
    1.0981    2.3501   -0.2076 N   0  0  1  0  0  0  0  0  0  0  0  0
    3.0411   -0.0081    1.0461 N   0  0  0  0  0  0  0  0  0  0  0  0
   -2.1874    0.9307    0.1862 N   0  0  0  0  0  0  0  0  0  0  0  0
   -4.4196    0.4538    0.5062 N   0  0  0  0  0  0  0  0  0  0  0  0
    2.3791    2.3455    0.5029 C   0  0  2  0  0  0  0  0  0  0  0  0
    3.1324    1.0485    0.2727 C   0  0  0  0  0  0  0  0  0  0  0  0
    0.1145    1.5432    0.4993 C   0  0  0  0  0  0  0  0  0  0  0  0
    2.1429    2.6040    1.9920 C   0  0  0  0  0  0  0  0  0  0  0  0
    0.6178    3.7239   -0.3746 C   0  0  0  0  0  0  0  0  0  0  0  0
    4.5647   -0.6942   -0.6083 C   0  0  0  0  0  0  0  0  0  0  0  0
    3.8570   -1.0163    0.5537 C   0  0  0  0  0  0  0  0  0  0  0  0
   -0.9655    1.1064   -0.4696 C   0  0  0  0  0  0  0  0  0  0  0  0
    5.4315   -1.6098   -1.2265 C   0  0  0  0  0  0  0  0  0  0  0  0
    4.0246   -2.3008    1.1149 C   0  0  0  0  0  0  0  0  0  0  0  0
    5.5791   -2.8742   -0.6507 C   0  0  0  0  0  0  0  0  0  0  0  0
    4.8858   -3.2173    0.5047 C   0  0  0  0  0  0  0  0  0  0  0  0
   -3.3860    0.5357   -0.4250 C   0  0  0  0  0  0  0  0  0  0  0  0
   -5.7601    0.0677    0.1368 C   0  0  0  0  0  0  0  0  0  0  0  0
   -5.9558   -1.4245    0.2328 C   0  0  0  0  0  0  0  0  0  0  0  0
    3.0152    3.1584    0.1244 H   0  0  0  0  0  0  0  0  0  0  0  0
   -0.3348    2.0750    1.3477 H   0  0  0  0  0  0  0  0  0  0  0  0
    0.5259    0.5987    0.8746 H   0  0  0  0  0  0  0  0  0  0  0  0
    3.1142    2.7155    2.4921 H   0  0  0  0  0  0  0  0  0  0  0  0
    1.5975    3.5316    2.1890 H   0  0  0  0  0  0  0  0  0  0  0  0
    1.6405    1.7846    2.5180 H   0  0  0  0  0  0  0  0  0  0  0  0
    1.3609    4.3333   -0.9017 H   0  0  0  0  0  0  0  0  0  0  0  0
    0.3671    4.2244    0.5661 H   0  0  0  0  0  0  0  0  0  0  0  0
   -0.2803    3.7397   -1.0028 H   0  0  0  0  0  0  0  0  0  0  0  0
    5.9760   -1.3489   -2.1287 H   0  0  0  0  0  0  0  0  0  0  0  0
    3.4877   -2.5793    2.0173 H   0  0  0  0  0  0  0  0  0  0  0  0
   -2.2228    1.0914    1.1892 H   0  0  0  0  0  0  0  0  0  0  0  0
    6.2451   -3.5979   -1.1134 H   0  0  0  0  0  0  0  0  0  0  0  0
    5.0133   -4.2055    0.9383 H   0  0  0  0  0  0  0  0  0  0  0  0
   -4.2243    0.6618    1.4805 H   0  0  0  0  0  0  0  0  0  0  0  0
   -5.9696    0.4103   -0.8818 H   0  0  0  0  0  0  0  0  0  0  0  0
   -6.4456    0.5823    0.8171 H   0  0  0  0  0  0  0  0  0  0  0  0
  1 12  1  0  0  0  0
  1 16  1  0  0  0  0
  2 25  1  0  0  0  0
  3 25  1  0  0  0  0
  4 25  1  0  0  0  0
  5 18  2  0  0  0  0
  6 23  2  0  0  0  0
  7 11  1  0  0  0  0
  7 13  1  0  0  0  0
  7 15  1  0  0  0  0
  8 12  2  0  0  0  0
  8 17  1  0  0  0  0
  9 18  1  0  0  0  0
  9 23  1  0  0  0  0
  9 37  1  0  0  0  0
 10 23  1  0  0  0  0
 10 24  1  0  0  0  0
 10 40  1  0  0  0  0
 11 12  1  0  0  0  0
 11 14  1  0  0  0  0
 11 26  1  0  0  0  0
 13 18  1  0  0  0  0
 13 27  1  0  0  0  0
 13 28  1  0  0  0  0
 14 29  1  0  0  0  0
 14 30  1  0  0  0  0
 14 31  1  0  0  0  0
 15 32  1  0  0  0  0
 15 33  1  0  0  0  0
 15 34  1  0  0  0  0
 16 17  1  0  0  0  0
 16 19  2  0  0  0  0
 17 20  2  0  0  0  0
 19 21  1  0  0  0  0
 19 35  1  0  0  0  0
 20 22  1  0  0  0  0
 20 36  1  0  0  0  0
 21 22  2  0  0  0  0
 21 38  1  0  0  0  0
 22 39  1  0  0  0  0
 24 25  1  0  0  0  0
 24 41  1  0  0  0  0
 24 42  1  0  0  0  0
M  END
> <PUBCHEM_COMPOUND_CID>
17395773

> <PUBCHEM_CONFORMER_RMSD>
1.4

> <PUBCHEM_CONFORMER_DIVERSEORDER>
1
6
52
2
45
8
20
34
39
12
49
51
28
5
56
46
24
48
37
42
33
11
13
15
61
57
25
58
19
50
40
47
38
53
35
29
44
32
14
4
59
41
7
21
62
60
22
31
26
18
43
54
3
30
23
27
63
17
16
10
55
9
36

> <PUBCHEM_MMFF94_PARTIAL_CHARGES>
30
1 -0.08
10 -0.73
11 0.45
12 0.2
13 0.33
15 0.27
16 0.04
17 0.23
18 0.57
19 -0.15
2 -0.34
20 -0.15
21 -0.15
22 -0.15
23 0.69
24 0.3
25 1.02
3 -0.34
35 0.15
36 0.15
37 0.37
38 0.15
39 0.15
4 -0.34
40 0.37
5 -0.57
6 -0.57
7 -0.81
8 -0.57
9 -0.49

> <PUBCHEM_EFFECTIVE_ROTOR_COUNT>
9

> <PUBCHEM_PHARMACOPHORE_FEATURES>
8
1 10 donor
1 5 acceptor
1 6 acceptor
1 7 cation
1 8 acceptor
1 9 donor
5 1 8 12 16 17 rings
6 16 17 19 20 21 22 rings

> <PUBCHEM_HEAVY_ATOM_COUNT>
25

> <PUBCHEM_ATOM_DEF_STEREO_COUNT>
0

> <PUBCHEM_ATOM_UDEF_STEREO_COUNT>
1

> <PUBCHEM_BOND_DEF_STEREO_COUNT>
0

> <PUBCHEM_BOND_UDEF_STEREO_COUNT>
0

> <PUBCHEM_ISOTOPIC_ATOM_COUNT>
0

> <PUBCHEM_COMPONENT_COUNT>
1

> <PUBCHEM_CACTVS_TAUTO_COUNT>
5

> <PUBCHEM_CONFORMER_ID>
0109703D00000001

> <PUBCHEM_MMFF94_ENERGY>
47.0549

> <PUBCHEM_FEATURE_SELFOVERLAP>
40.719

> <PUBCHEM_SHAPE_FINGERPRINT>
10498660 4 11887086883160209932
10928967 22 18339658805196805006
117089 54 18118393175808197742
11796584 16 18124034795918565020
11954058 11 18341047437074589725
11991303 11 17627231504837657581
12107183 9 18262790908644763449
12403259 118 7348015863657667332
12422481 6 17168143485448633109
12633257 1 15141546717459677632
13103583 49 18114732854111266489
13383661 66 17533766372552693646
13533116 47 18261393291578298553
13911852 28 18410857693706334631
13955234 65 18189901903026949952
13965767 371 6771855248259443376
14123256 34 18261669376487233686
14251740 57 18408890615759154032
14251764 30 18340485655151702086
14420673 8 18265048210057748975
14866123 147 18048597324369402433
15019793 15 18194120711873517255
15238133 3 6410999973146053706
15475509 35 18335140860435882640
1979834 28 16732697281308968350
20165401 70 18262241006881368287
20505436 4 17243578573038979332
20567600 247 18413387626848845331
20775438 99 18196947573500730842
21641784 216 14907910396425130597
21682296 61 18408881850369465887
22950370 63 18411978104555750372
23522609 53 18122589921349327453
23559900 14 18341055134152135225
270888 7 9655277238713582846
2748736 6 9222941539535517667
2838139 119 9151170935111562104
2916195 48 7276834584966848333
3089732 80 18272365352530012643
3421961 26 18408046199767616400
345986 75 17676205796973785264
34797466 226 16558465301633306485
439807 62 18201999971021460831
44062 13 18268998767905226509
4435113 14 18129926915449947187
46194498 28 17489024851498562692
465052 167 18260544532899363028
474 4 10087636022745239356
5104073 3 17821725035881779937
54039377 194 18335977684197801198
543368 44 10735878366356754927
56633871 153 17894918480849095902
6327066 14 10231453221900599978
7918774 8 18341331171014057063
7970288 3 18265335195488712486
8863177 126 18411136909541219283

> <PUBCHEM_SHAPE_MULTIPOLES>
464.85
16.66
3.88
1.35
24.23
0.5
-0.09
-18.58
0.48
-3.18
-0.67
-0.57
0.21
0.76

> <PUBCHEM_SHAPE_SELFOVERLAP>
962.037

> <PUBCHEM_SHAPE_VOLUME>
269.7

> <PUBCHEM_COORDINATE_TYPE>
2
5
10

$$$$

