6440871
  -OEChem-07051213082D

 66 67  0     1  0  0  0  0  0999 V2000
    5.0073    1.2637    0.0000 O   0  0  0  0  0  0  0  0  0  0  0  0
    2.4092   -0.2363    0.0000 O   0  0  0  0  0  0  0  0  0  0  0  0
    5.8733   -0.2363    0.0000 O   0  0  0  0  0  0  0  0  0  0  0  0
    5.0073    4.2637    0.0000 O   0  0  0  0  0  0  0  0  0  0  0  0
    4.6406   -3.1729    0.0000 O   0  0  0  0  0  0  0  0  0  0  0  0
    2.0000   -3.3374    0.0000 O   0  0  0  0  0  0  0  0  0  0  0  0
    9.0889   -1.4270    0.0000 O   0  0  0  0  0  0  0  0  0  0  0  0
    3.4275   -1.9367    0.0000 N   0  0  0  0  0  0  0  0  0  0  0  0
    4.1413   -0.2363    0.0000 C   0  0  2  0  0  0  0  0  0  0  0  0
    3.2753    1.2637    0.0000 C   0  0  2  0  0  0  0  0  0  0  0  0
    4.1413    1.7637    0.0000 C   0  0  1  0  0  0  0  0  0  0  0  0
    3.2753    0.2637    0.0000 C   0  0  0  0  0  0  0  0  0  0  0  0
    4.1413   -1.2363    0.0000 C   0  0  1  0  0  0  0  0  0  0  0  0
    5.0073    0.2637    0.0000 C   0  0  0  0  0  0  0  0  0  0  0  0
    4.1413    2.7637    0.0000 C   0  0  0  0  0  0  0  0  0  0  0  0
    3.2753   -0.7363    0.0000 C   0  0  0  0  0  0  0  0  0  0  0  0
    2.4092    1.7637    0.0000 C   0  0  0  0  0  0  0  0  0  0  0  0
    5.0073    3.2637    0.0000 C   0  0  1  0  0  0  0  0  0  0  0  0
    5.0499   -1.3447    0.0000 C   0  0  0  0  0  0  0  0  0  0  0  0
    5.7570   -2.0518    0.0000 C   0  0  0  0  0  0  0  0  0  0  0  0
    5.8733    2.7637    0.0000 C   0  0  0  0  0  0  0  0  0  0  0  0
    3.6772   -2.9050    0.0000 C   0  0  0  0  0  0  0  0  0  0  0  0
    5.3743   -2.9757    0.0000 C   0  0  0  0  0  0  0  0  0  0  0  0
    6.7570   -2.0518    0.0000 C   0  0  0  0  0  0  0  0  0  0  0  0
    5.8733    1.7637    0.0000 C   0  0  0  0  0  0  0  0  0  0  0  0
    2.9634   -3.6054    0.0000 C   0  0  0  0  0  0  0  0  0  0  0  0
    7.2570   -1.1858    0.0000 C   0  0  0  0  0  0  0  0  0  0  0  0
    6.7394    1.2637    0.0000 C   0  0  0  0  0  0  0  0  0  0  0  0
    8.2229   -0.9270    0.0000 C   0  0  2  0  0  0  0  0  0  0  0  0
    7.9641    0.0390    0.0000 C   0  0  0  0  0  0  0  0  0  0  0  0
    6.9982    0.2978    0.0000 C   0  0  0  0  0  0  0  0  0  0  0  0
    3.2131   -4.5737    0.0000 C   0  0  0  0  0  0  0  0  0  0  0  0
    7.5327    1.8725    0.0000 C   0  0  0  0  0  0  0  0  0  0  0  0
    3.2753    1.8837    0.0000 H   0  0  0  0  0  0  0  0  0  0  0  0
    3.4052    2.1887    0.0000 H   0  0  0  0  0  0  0  0  0  0  0  0
    3.5696   -0.9963    0.0000 H   0  0  0  0  0  0  0  0  0  0  0  0
    3.9292    3.3463    0.0000 H   0  0  0  0  0  0  0  0  0  0  0  0
    3.5307    2.6561    0.0000 H   0  0  0  0  0  0  0  0  0  0  0  0
    2.9652   -0.1993    0.0000 H   0  0  0  0  0  0  0  0  0  0  0  0
    2.7383   -1.0463    0.0000 H   0  0  0  0  0  0  0  0  0  0  0  0
    3.5852   -1.2732    0.0000 H   0  0  0  0  0  0  0  0  0  0  0  0
    2.7192    2.3007    0.0000 H   0  0  0  0  0  0  0  0  0  0  0  0
    1.8723    2.0737    0.0000 H   0  0  0  0  0  0  0  0  0  0  0  0
    2.0992    1.2268    0.0000 H   0  0  0  0  0  0  0  0  0  0  0  0
    5.5442    3.5737    0.0000 H   0  0  0  0  0  0  0  0  0  0  0  0
    5.2476   -0.7571    0.0000 H   0  0  0  0  0  0  0  0  0  0  0  0
    2.8302   -1.7706    0.0000 H   0  0  0  0  0  0  0  0  0  0  0  0
    6.4103    3.0737    0.0000 H   0  0  0  0  0  0  0  0  0  0  0  0
    4.4704    4.5737    0.0000 H   0  0  0  0  0  0  0  0  0  0  0  0
    4.8015   -2.7384    0.0000 H   0  0  0  0  0  0  0  0  0  0  0  0
    5.1370   -3.5485    0.0000 H   0  0  0  0  0  0  0  0  0  0  0  0
    5.9471   -3.2129    0.0000 H   0  0  0  0  0  0  0  0  0  0  0  0
    7.0670   -2.5887    0.0000 H   0  0  0  0  0  0  0  0  0  0  0  0
    5.2628    1.8716    0.0000 H   0  0  0  0  0  0  0  0  0  0  0  0
    6.8796   -0.6939    0.0000 H   0  0  0  0  0  0  0  0  0  0  0  0
    8.1420   -1.5416    0.0000 H   0  0  0  0  0  0  0  0  0  0  0  0
    8.5817    0.0930    0.0000 H   0  0  0  0  0  0  0  0  0  0  0  0
    8.0181    0.6566    0.0000 H   0  0  0  0  0  0  0  0  0  0  0  0
    6.5598   -0.1406    0.0000 H   0  0  0  0  0  0  0  0  0  0  0  0
    2.6128   -4.7285    0.0000 H   0  0  0  0  0  0  0  0  0  0  0  0
    3.3679   -5.1741    0.0000 H   0  0  0  0  0  0  0  0  0  0  0  0
    3.8135   -4.4189    0.0000 H   0  0  0  0  0  0  0  0  0  0  0  0
    7.9101    1.3806    0.0000 H   0  0  0  0  0  0  0  0  0  0  0  0
    8.0246    2.2499    0.0000 H   0  0  0  0  0  0  0  0  0  0  0  0
    7.1553    2.3644    0.0000 H   0  0  0  0  0  0  0  0  0  0  0  0
    9.6259   -1.1170    0.0000 H   0  0  0  0  0  0  0  0  0  0  0  0
  1 11  1  0  0  0  0
  1 14  1  0  0  0  0
  2 12  2  0  0  0  0
  3 14  2  0  0  0  0
 18  4  1  6  0  0  0
  4 49  1  0  0  0  0
  5 22  2  0  0  0  0
  6 26  2  0  0  0  0
 29  7  1  6  0  0  0
  7 66  1  0  0  0  0
 13  8  1  1  0  0  0
  8 22  1  0  0  0  0
  8 47  1  0  0  0  0
  9 12  1  0  0  0  0
  9 13  1  0  0  0  0
  9 14  1  0  0  0  0
  9 16  1  6  0  0  0
 10 11  1  0  0  0  0
 10 12  1  0  0  0  0
 10 17  1  6  0  0  0
 10 34  1  0  0  0  0
 11 15  1  0  0  0  0
 11 35  1  6  0  0  0
 13 19  1  0  0  0  0
 13 36  1  0  0  0  0
 15 18  1  0  0  0  0
 15 37  1  0  0  0  0
 15 38  1  0  0  0  0
 16 39  1  0  0  0  0
 16 40  1  0  0  0  0
 16 41  1  0  0  0  0
 17 42  1  0  0  0  0
 17 43  1  0  0  0  0
 17 44  1  0  0  0  0
 18 21  1  0  0  0  0
 18 45  1  0  0  0  0
 19 20  2  0  0  0  0
 19 46  1  0  0  0  0
 20 23  1  0  0  0  0
 20 24  1  0  0  0  0
 21 25  2  0  0  0  0
 21 48  1  0  0  0  0
 22 26  1  0  0  0  0
 23 50  1  0  0  0  0
 23 51  1  0  0  0  0
 23 52  1  0  0  0  0
 24 27  2  0  0  0  0
 24 53  1  0  0  0  0
 25 28  1  0  0  0  0
 25 54  1  0  0  0  0
 26 32  1  0  0  0  0
 27 29  1  0  0  0  0
 27 55  1  0  0  0  0
 28 31  2  0  0  0  0
 28 33  1  0  0  0  0
 29 30  1  0  0  0  0
 29 56  1  0  0  0  0
 30 31  1  0  0  0  0
 30 57  1  0  0  0  0
 30 58  1  0  0  0  0
 31 59  1  0  0  0  0
 32 60  1  0  0  0  0
 32 61  1  0  0  0  0
 32 62  1  0  0  0  0
 33 63  1  0  0  0  0
 33 64  1  0  0  0  0
 33 65  1  0  0  0  0
M  END
> <PUBCHEM_COMPOUND_CID>
6440871

> <PUBCHEM_COMPOUND_CANONICALIZED>
1

> <PUBCHEM_CACTVS_COMPLEXITY>
929

> <PUBCHEM_CACTVS_HBOND_ACCEPTOR>
7

> <PUBCHEM_CACTVS_HBOND_DONOR>
3

> <PUBCHEM_CACTVS_ROTATABLE_BOND>
2

> <PUBCHEM_CACTVS_SUBSKEYS>
AAADcfB6OAAAAAAAAAAAAAAAAAAAAAAAAAAkAAAAAAAAAAAAAAAAHgAQCAAADzzhgAYCCALABgCIAqHSGACAAAAgAAAICIGIAAgIFB4IgSAGUAAH9gCIkAOY3OPPAAAAAAAAAAAAAAAAAAAAAAAAAAAAAA==

> <PUBCHEM_IUPAC_OPENEYE_NAME>
N-[(1R,3S,4E,6E,9S,10E,12E,14R,15S,18R)-3,9-dihydroxy-6,12,15,18-tetramethyl-16,19-dioxo-17-oxabicyclo[13.2.2]nonadeca-4,6,10,12-tetraen-14-yl]-2-oxo-propanamide

> <PUBCHEM_IUPAC_CAS_NAME>
N-[(1R,3S,4E,6E,9S,10E,12E,14R,15S,18R)-3,9-dihydroxy-6,12,15,18-tetramethyl-16,19-dioxo-17-oxabicyclo[13.2.2]nonadeca-4,6,10,12-tetraen-14-yl]-2-oxopropanamide

> <PUBCHEM_IUPAC_NAME>
N-[(1R,3S,4E,6E,9S,10E,12E,14R,15S,18R)-3,9-dihydroxy-6,12,15,18-tetramethyl-16,19-dioxo-17-oxabicyclo[13.2.2]nonadeca-4,6,10,12-tetraen-14-yl]-2-oxopropanamide

> <PUBCHEM_IUPAC_SYSTEMATIC_NAME>
2-oxidanylidene-N-[(1R,3S,4E,6E,9S,10E,12E,14R,15S,18R)-6,12,15,18-tetramethyl-3,9-bis(oxidanyl)-16,19-bis(oxidanylidene)-17-oxabicyclo[13.2.2]nonadeca-4,6,10,12-tetraen-14-yl]propanamide

> <PUBCHEM_IUPAC_TRADITIONAL_NAME>
N-[(1R,3S,4E,6E,9S,10E,12E,14R,15S,18R)-3,9-dihydroxy-16,19-diketo-6,12,15,18-tetramethyl-17-oxabicyclo[13.2.2]nonadeca-4,6,10,12-tetraen-14-yl]-2-keto-propionamide

> <PUBCHEM_IUPAC_INCHI>
InChI=1S/C25H33NO7/c1-14-6-9-18(28)10-8-15(2)12-21(26-23(31)17(4)27)25(5)22(30)16(3)20(33-24(25)32)13-19(29)11-7-14/h6-8,10-12,16,18-21,28-29H,9,13H2,1-5H3,(H,26,31)/b10-8+,11-7+,14-6+,15-12+/t16-,18+,19-,20-,21-,25+/m1/s1

> <PUBCHEM_IUPAC_INCHIKEY>
ATDILMLBOZKFGI-JUTMVFGESA-N

> <PUBCHEM_XLOGP3_AA>
1.6

> <PUBCHEM_EXACT_MASS>
459.225702

> <PUBCHEM_MOLECULAR_FORMULA>
C25H33NO7

> <PUBCHEM_MOLECULAR_WEIGHT>
459.53202

> <PUBCHEM_OPENEYE_CAN_SMILES>
CC1C2CC(C=CC(=CCC(C=CC(=CC(C(C1=O)(C(=O)O2)C)NC(=O)C(=O)C)C)O)C)O

> <PUBCHEM_OPENEYE_ISO_SMILES>
C[C@@H]1[C@H]2C[C@@H](/C=C/C(=C/C[C@@H](/C=C/C(=C/[C@H]([C@@](C1=O)(C(=O)O2)C)NC(=O)C(=O)C)/C)O)/C)O

> <PUBCHEM_CACTVS_TPSA>
130

> <PUBCHEM_MONOISOTOPIC_WEIGHT>
459.225702

> <PUBCHEM_TOTAL_CHARGE>
0

> <PUBCHEM_HEAVY_ATOM_COUNT>
33

> <PUBCHEM_ATOM_DEF_STEREO_COUNT>
6

> <PUBCHEM_ATOM_UDEF_STEREO_COUNT>
0

> <PUBCHEM_BOND_DEF_STEREO_COUNT>
4

> <PUBCHEM_BOND_UDEF_STEREO_COUNT>
0

> <PUBCHEM_ISOTOPIC_ATOM_COUNT>
0

> <PUBCHEM_COMPONENT_COUNT>
1

> <PUBCHEM_CACTVS_TAUTO_COUNT>
8

> <PUBCHEM_COORDINATE_TYPE>
1
5
255

> <PUBCHEM_BONDANNOTATIONS>
10  17  6
11  35  6
18  4  6
29  7  6
13  8  5
9  16  6

$$$$

