62432
  -OEChem-07051213143D

 30 32  0     0  0  0  0  0  0999 V2000
   -1.5812   -0.3283   -2.1202 S   0  0  0  0  0  0  0  0  0  0  0  0
   -0.8444   -0.0554   -0.3209 P   0  0  0  0  0  0  0  0  0  0  0  0
    3.5842   -0.1704    0.3300 O   0  0  0  0  0  0  0  0  0  0  0  0
   -1.1291   -1.3079    0.7464 N   0  0  0  0  0  0  0  0  0  0  0  0
   -1.4449    1.2795    0.4827 N   0  0  0  0  0  0  0  0  0  0  0  0
    0.8016    0.1525   -0.2566 N   0  0  0  0  0  0  0  0  0  0  0  0
   -2.5181   -1.5383    1.1043 C   0  0  0  0  0  0  0  0  0  0  0  0
   -1.7846   -2.4826    0.1975 C   0  0  0  0  0  0  0  0  0  0  0  0
   -1.3345    2.5485   -0.2161 C   0  0  0  0  0  0  0  0  0  0  0  0
   -2.6602    1.8626   -0.0596 C   0  0  0  0  0  0  0  0  0  0  0  0
    1.3700    0.4977    1.0533 C   0  0  0  0  0  0  0  0  0  0  0  0
    1.6211   -0.8853   -0.8967 C   0  0  0  0  0  0  0  0  0  0  0  0
    2.8378    0.8874    0.9296 C   0  0  0  0  0  0  0  0  0  0  0  0
    3.0824   -0.4601   -0.9738 C   0  0  0  0  0  0  0  0  0  0  0  0
   -3.2842   -0.9116    0.6704 H   0  0  0  0  0  0  0  0  0  0  0  0
   -2.6942   -1.8501    2.1250 H   0  0  0  0  0  0  0  0  0  0  0  0
   -1.4598   -3.4274    0.6187 H   0  0  0  0  0  0  0  0  0  0  0  0
   -2.1355   -2.5681   -0.8168 H   0  0  0  0  0  0  0  0  0  0  0  0
   -0.8626    2.5630   -1.1881 H   0  0  0  0  0  0  0  0  0  0  0  0
   -1.1335    3.4096    0.4072 H   0  0  0  0  0  0  0  0  0  0  0  0
   -3.3451    2.2647    0.6784 H   0  0  0  0  0  0  0  0  0  0  0  0
   -3.1561    1.4829   -0.9365 H   0  0  0  0  0  0  0  0  0  0  0  0
    1.2790   -0.3588    1.7325 H   0  0  0  0  0  0  0  0  0  0  0  0
    0.8441    1.3398    1.5120 H   0  0  0  0  0  0  0  0  0  0  0  0
    1.2771   -1.0864   -1.9151 H   0  0  0  0  0  0  0  0  0  0  0  0
    1.5385   -1.8196   -0.3280 H   0  0  0  0  0  0  0  0  0  0  0  0
    2.9638    1.8048    0.3416 H   0  0  0  0  0  0  0  0  0  0  0  0
    3.2604    1.0709    1.9227 H   0  0  0  0  0  0  0  0  0  0  0  0
    3.6861   -1.2732   -1.3896 H   0  0  0  0  0  0  0  0  0  0  0  0
    3.2149    0.4154   -1.6212 H   0  0  0  0  0  0  0  0  0  0  0  0
  1  2  2  0  0  0  0
  2  4  1  0  0  0  0
  2  5  1  0  0  0  0
  2  6  1  0  0  0  0
  3 13  1  0  0  0  0
  3 14  1  0  0  0  0
  4  7  1  0  0  0  0
  4  8  1  0  0  0  0
  5  9  1  0  0  0  0
  5 10  1  0  0  0  0
  6 11  1  0  0  0  0
  6 12  1  0  0  0  0
  7  8  1  0  0  0  0
  7 15  1  0  0  0  0
  7 16  1  0  0  0  0
  8 17  1  0  0  0  0
  8 18  1  0  0  0  0
  9 10  1  0  0  0  0
  9 19  1  0  0  0  0
  9 20  1  0  0  0  0
 10 21  1  0  0  0  0
 10 22  1  0  0  0  0
 11 13  1  0  0  0  0
 11 23  1  0  0  0  0
 11 24  1  0  0  0  0
 12 14  1  0  0  0  0
 12 25  1  0  0  0  0
 12 26  1  0  0  0  0
 13 27  1  0  0  0  0
 13 28  1  0  0  0  0
 14 29  1  0  0  0  0
 14 30  1  0  0  0  0
M  END
> <PUBCHEM_COMPOUND_CID>
62432

> <PUBCHEM_CONFORMER_RMSD>
0.6

> <PUBCHEM_CONFORMER_DIVERSEORDER>
1
4
8
7
2
3
6
5

> <PUBCHEM_MMFF94_PARTIAL_CHARGES>
22
1 -0.68
10 -0.04
11 0.27
12 0.27
13 0.28
14 0.28
15 0.1
16 0.1
17 0.1
18 0.1
19 0.1
2 1.48
20 0.1
21 0.1
22 0.1
3 -0.56
4 -0.58
5 -0.58
6 -0.81
7 -0.04
8 -0.04
9 -0.04

> <PUBCHEM_EFFECTIVE_ROTOR_COUNT>
5.4

> <PUBCHEM_PHARMACOPHORE_FEATURES>
2
1 3 acceptor
6 3 6 11 12 13 14 rings

> <PUBCHEM_HEAVY_ATOM_COUNT>
14

> <PUBCHEM_ATOM_DEF_STEREO_COUNT>
0

> <PUBCHEM_ATOM_UDEF_STEREO_COUNT>
0

> <PUBCHEM_BOND_DEF_STEREO_COUNT>
0

> <PUBCHEM_BOND_UDEF_STEREO_COUNT>
0

> <PUBCHEM_ISOTOPIC_ATOM_COUNT>
0

> <PUBCHEM_COMPONENT_COUNT>
1

> <PUBCHEM_CACTVS_TAUTO_COUNT>
1

> <PUBCHEM_CONFORMER_ID>
0000F3E000000001

> <PUBCHEM_MMFF94_ENERGY>
38.3276

> <PUBCHEM_FEATURE_SELFOVERLAP>
10.148

> <PUBCHEM_SHAPE_FINGERPRINT>
1 1 17621036894806281821
12138202 97 18339641247369699756
12423570 1 11404879917821225633
124424 183 18042689584305929630
12532896 13 18265904737968506621
12716758 59 18338793541263940746
12932764 1 17603865577192279646
13024252 1 12679464205271137989
13294875 104 17398980630167386160
13380536 127 18201712912776753624
13538477 17 18060413638182731908
13764800 53 18412822508021290113
15775835 57 18046068425992282397
16945 1 18341038688167983661
17844478 74 18261665966024438714
18380122 1 18115588115443917306
18534176 82 18410294722209660908
19049666 15 18189606323282011078
19837323 101 18338521940443404299
20082192 1 17489592289745288942
20645476 183 18056749047558204348
20653085 51 17604435226909846541
20711985 344 18342459222900072859
20871998 184 18336256882107971751
21524375 3 17902515122791804973
21930827 45 18340201994073521960
22802520 49 18261386788876310796
23402539 116 18337408083772533495
23419403 2 17407994018696574893
23526113 38 17681261480239728158
23557571 272 18340760434796780604
23559900 14 18190737734592250358
25 1 17755013442933589556
25610 171 18338532845138704216
2748010 2 18040438780777126288
298252 57 17243593176048331869
305870 269 17767411544669786481
3248919 1 18342186561496732396
598444 67 18119224384933197847
6049 1 18186790371224547124
6333449 129 18410570712571040001
7364860 26 17186443984836278753
81228 2 18341605989134259689
8809292 202 18262795297799931384

> <PUBCHEM_SHAPE_MULTIPOLES>
275
4.83
2.34
1.44
3.96
0.41
-0.59
-0.06
0.37
-2.38
0.35
-0.31
-0.33
0.83

> <PUBCHEM_SHAPE_SELFOVERLAP>
526.639

> <PUBCHEM_SHAPE_VOLUME>
171.9

> <PUBCHEM_COORDINATE_TYPE>
2
5
10

$$$$

