47205715
  -OEChem-06241223002D

 35 35  0     0  0  0  0  0  0999 V2000
    3.2601   -2.9244    0.0000 O   0  0  0  0  0  0  0  0  0  0  0  0
    2.8940    0.1144    0.0000 O   0  0  0  0  0  0  0  0  0  0  0  0
    6.3582    1.1144    0.0000 O   0  0  0  0  0  0  0  0  0  0  0  0
    4.6261    0.1144    0.0000 N   0  0  0  0  0  0  0  0  0  0  0  0
    5.4921    2.6144    0.0000 N   0  0  0  0  0  0  0  0  0  0  0  0
    5.4921   -0.3856    0.0000 C   0  0  0  0  0  0  0  0  0  0  0  0
    6.3582    0.1144    0.0000 C   0  0  0  0  0  0  0  0  0  0  0  0
    7.2242   -0.3856    0.0000 C   0  0  0  0  0  0  0  0  0  0  0  0
    4.6261    1.1144    0.0000 C   0  0  0  0  0  0  0  0  0  0  0  0
    3.7601   -0.3856    0.0000 C   0  0  0  0  0  0  0  0  0  0  0  0
    3.7601   -1.3856    0.0000 C   0  0  0  0  0  0  0  0  0  0  0  0
    8.0902    0.1144    0.0000 C   0  0  0  0  0  0  0  0  0  0  0  0
    2.9511   -1.9734    0.0000 C   0  0  0  0  0  0  0  0  0  0  0  0
    5.4921    1.6144    0.0000 C   0  0  0  0  0  0  0  0  0  0  0  0
    4.5691   -1.9734    0.0000 C   0  0  0  0  0  0  0  0  0  0  0  0
    2.0000   -1.6644    0.0000 C   0  0  0  0  0  0  0  0  0  0  0  0
    4.2601   -2.9244    0.0000 C   0  0  0  0  0  0  0  0  0  0  0  0
    5.0936   -0.8605    0.0000 H   0  0  0  0  0  0  0  0  0  0  0  0
    5.8906   -0.8605    0.0000 H   0  0  0  0  0  0  0  0  0  0  0  0
    6.7567    0.5894    0.0000 H   0  0  0  0  0  0  0  0  0  0  0  0
    5.9596    0.5894    0.0000 H   0  0  0  0  0  0  0  0  0  0  0  0
    6.8256   -0.8605    0.0000 H   0  0  0  0  0  0  0  0  0  0  0  0
    7.6227   -0.8605    0.0000 H   0  0  0  0  0  0  0  0  0  0  0  0
    4.4140    1.6970    0.0000 H   0  0  0  0  0  0  0  0  0  0  0  0
    4.0155    1.0068    0.0000 H   0  0  0  0  0  0  0  0  0  0  0  0
    8.4002   -0.4225    0.0000 H   0  0  0  0  0  0  0  0  0  0  0  0
    8.6271    0.4244    0.0000 H   0  0  0  0  0  0  0  0  0  0  0  0
    7.7802    0.6514    0.0000 H   0  0  0  0  0  0  0  0  0  0  0  0
    5.1588   -1.7818    0.0000 H   0  0  0  0  0  0  0  0  0  0  0  0
    2.1916   -1.0747    0.0000 H   0  0  0  0  0  0  0  0  0  0  0  0
    1.4103   -1.4728    0.0000 H   0  0  0  0  0  0  0  0  0  0  0  0
    1.8084   -2.2540    0.0000 H   0  0  0  0  0  0  0  0  0  0  0  0
    4.6245   -3.4260    0.0000 H   0  0  0  0  0  0  0  0  0  0  0  0
    6.0291    2.9244    0.0000 H   0  0  0  0  0  0  0  0  0  0  0  0
    4.9552    2.9244    0.0000 H   0  0  0  0  0  0  0  0  0  0  0  0
  1 13  1  0  0  0  0
  1 17  1  0  0  0  0
  2 10  2  0  0  0  0
  3 14  2  0  0  0  0
  4  6  1  0  0  0  0
  4  9  1  0  0  0  0
  4 10  1  0  0  0  0
  5 14  1  0  0  0  0
  5 34  1  0  0  0  0
  5 35  1  0  0  0  0
  6  7  1  0  0  0  0
  6 18  1  0  0  0  0
  6 19  1  0  0  0  0
  7  8  1  0  0  0  0
  7 20  1  0  0  0  0
  7 21  1  0  0  0  0
  8 12  1  0  0  0  0
  8 22  1  0  0  0  0
  8 23  1  0  0  0  0
  9 14  1  0  0  0  0
  9 24  1  0  0  0  0
  9 25  1  0  0  0  0
 10 11  1  0  0  0  0
 11 13  2  0  0  0  0
 11 15  1  0  0  0  0
 12 26  1  0  0  0  0
 12 27  1  0  0  0  0
 12 28  1  0  0  0  0
 13 16  1  0  0  0  0
 15 17  2  0  0  0  0
 15 29  1  0  0  0  0
 16 30  1  0  0  0  0
 16 31  1  0  0  0  0
 16 32  1  0  0  0  0
 17 33  1  0  0  0  0
M  END
> <PUBCHEM_COMPOUND_CID>
47205715

> <PUBCHEM_COMPOUND_CANONICALIZED>
1

> <PUBCHEM_CACTVS_COMPLEXITY>
281

> <PUBCHEM_CACTVS_HBOND_ACCEPTOR>
3

> <PUBCHEM_CACTVS_HBOND_DONOR>
1

> <PUBCHEM_CACTVS_ROTATABLE_BOND>
6

> <PUBCHEM_CACTVS_SUBSKEYS>
AAADceBzMAAAAAAAAAAAAAAAAAAAASAAAAAAAAAAAAAAAAABgAAAHgAQAAAADAThmAYyBINABECIAqlSkACCCAAkIAAIiAGODMgMZj6MtDuWGWjm9hGIqYavAAAKAAAAAAAAAAAAAAAAAAAAAAAAAAAAAA==

> <PUBCHEM_IUPAC_OPENEYE_NAME>
N-(2-amino-2-oxo-ethyl)-N-butyl-2-methyl-furan-3-carboxamide

> <PUBCHEM_IUPAC_CAS_NAME>
N-(2-amino-2-oxoethyl)-N-butyl-2-methyl-3-furancarboxamide

> <PUBCHEM_IUPAC_NAME>
N-(2-amino-2-oxoethyl)-N-butyl-2-methylfuran-3-carboxamide

> <PUBCHEM_IUPAC_SYSTEMATIC_NAME>
N-(2-azanyl-2-oxidanylidene-ethyl)-N-butyl-2-methyl-furan-3-carboxamide

> <PUBCHEM_IUPAC_TRADITIONAL_NAME>
N-(2-amino-2-keto-ethyl)-N-butyl-2-methyl-3-furamide

> <PUBCHEM_IUPAC_INCHI>
InChI=1S/C12H18N2O3/c1-3-4-6-14(8-11(13)15)12(16)10-5-7-17-9(10)2/h5,7H,3-4,6,8H2,1-2H3,(H2,13,15)

> <PUBCHEM_IUPAC_INCHIKEY>
UFKIXEPPKLJKMY-UHFFFAOYSA-N

> <PUBCHEM_XLOGP3_AA>
1

> <PUBCHEM_EXACT_MASS>
238.131742

> <PUBCHEM_MOLECULAR_FORMULA>
C12H18N2O3

> <PUBCHEM_MOLECULAR_WEIGHT>
238.28292

> <PUBCHEM_OPENEYE_CAN_SMILES>
CCCCN(CC(=O)N)C(=O)C1=C(OC=C1)C

> <PUBCHEM_OPENEYE_ISO_SMILES>
CCCCN(CC(=O)N)C(=O)C1=C(OC=C1)C

> <PUBCHEM_CACTVS_TPSA>
76.5

> <PUBCHEM_MONOISOTOPIC_WEIGHT>
238.131742

> <PUBCHEM_TOTAL_CHARGE>
0

> <PUBCHEM_HEAVY_ATOM_COUNT>
17

> <PUBCHEM_ATOM_DEF_STEREO_COUNT>
0

> <PUBCHEM_ATOM_UDEF_STEREO_COUNT>
0

> <PUBCHEM_BOND_DEF_STEREO_COUNT>
0

> <PUBCHEM_BOND_UDEF_STEREO_COUNT>
0

> <PUBCHEM_ISOTOPIC_ATOM_COUNT>
0

> <PUBCHEM_COMPONENT_COUNT>
1

> <PUBCHEM_CACTVS_TAUTO_COUNT>
3

> <PUBCHEM_COORDINATE_TYPE>
1
5
255

> <PUBCHEM_BONDANNOTATIONS>
1  13  8
1  17  8
11  13  8
11  15  8
15  17  8

$$$$

