11954197
  -OEChem-07051213072D

 76 79  0     1  0  0  0  0  0999 V2000
    7.9506   -3.5293    0.0000 O   0  0  0  0  0  0  0  0  0  0  0  0
    2.5357   -3.5502    0.0000 O   0  0  0  0  0  0  0  0  0  0  0  0
   12.0747    4.0214    0.0000 O   0  0  0  0  0  0  0  0  0  0  0  0
    7.9288   -0.4978    0.0000 C   0  0  1  0  0  0  0  0  0  0  0  0
    7.9288   -1.4978    0.0000 C   0  0  2  0  0  0  0  0  0  0  0  0
    7.0628   -1.9978    0.0000 C   0  0  1  0  0  0  0  0  0  0  0  0
    6.1968   -1.4978    0.0000 C   0  0  1  0  0  0  0  0  0  0  0  0
    8.8750   -0.1931    0.0000 C   0  0  2  0  0  0  0  0  0  0  0  0
    7.0628    0.0022    0.0000 C   0  0  0  0  0  0  0  0  0  0  0  0
    5.2868   -2.0047    0.0000 C   0  0  2  0  0  0  0  0  0  0  0  0
    8.8750   -1.8026    0.0000 C   0  0  0  0  0  0  0  0  0  0  0  0
    6.1968   -0.4978    0.0000 C   0  0  0  0  0  0  0  0  0  0  0  0
    9.4586   -0.9978    0.0000 C   0  0  0  0  0  0  0  0  0  0  0  0
    7.0789   -3.0394    0.0000 C   0  0  1  0  0  0  0  0  0  0  0  0
    9.1857    0.7574    0.0000 C   0  0  1  0  0  0  0  0  0  0  0  0
    7.9288    0.5022    0.0000 C   0  0  0  0  0  0  0  0  0  0  0  0
    5.2787   -3.0463    0.0000 C   0  0  0  0  0  0  0  0  0  0  0  0
    4.3599   -1.4406    0.0000 C   0  0  0  0  0  0  0  0  0  0  0  0
    6.1808   -3.5671    0.0000 C   0  0  0  0  0  0  0  0  0  0  0  0
    5.2945   -1.0047    0.0000 C   0  0  0  0  0  0  0  0  0  0  0  0
    4.3433   -3.5960    0.0000 C   0  0  0  0  0  0  0  0  0  0  0  0
    3.4120   -1.9686    0.0000 C   0  0  0  0  0  0  0  0  0  0  0  0
   10.1642    0.9636    0.0000 C   0  0  0  0  0  0  0  0  0  0  0  0
    3.4037   -3.0535    0.0000 C   0  0  2  0  0  0  0  0  0  0  0  0
    8.5179    1.5017    0.0000 C   0  0  0  0  0  0  0  0  0  0  0  0
   10.4749    1.9142    0.0000 C   0  0  0  0  0  0  0  0  0  0  0  0
   11.4534    2.1204    0.0000 C   0  0  0  0  0  0  0  0  0  0  0  0
   11.7640    3.0709    0.0000 C   0  0  0  0  0  0  0  0  0  0  0  0
   12.7146    2.7602    0.0000 C   0  0  0  0  0  0  0  0  0  0  0  0
   10.8135    3.3816    0.0000 C   0  0  0  0  0  0  0  0  0  0  0  0
    8.0188   -2.3431    0.0000 H   0  0  0  0  0  0  0  0  0  0  0  0
    7.8022   -2.4172    0.0000 H   0  0  0  0  0  0  0  0  0  0  0  0
    6.9329   -1.0728    0.0000 H   0  0  0  0  0  0  0  0  0  0  0  0
    9.7148   -0.0612    0.0000 H   0  0  0  0  0  0  0  0  0  0  0  0
    7.4613    0.4771    0.0000 H   0  0  0  0  0  0  0  0  0  0  0  0
    6.6643    0.4771    0.0000 H   0  0  0  0  0  0  0  0  0  0  0  0
    8.6240   -2.3695    0.0000 H   0  0  0  0  0  0  0  0  0  0  0  0
    9.4124   -2.1118    0.0000 H   0  0  0  0  0  0  0  0  0  0  0  0
    5.9847    0.0848    0.0000 H   0  0  0  0  0  0  0  0  0  0  0  0
    5.5862   -0.6055    0.0000 H   0  0  0  0  0  0  0  0  0  0  0  0
    9.9195   -1.4126    0.0000 H   0  0  0  0  0  0  0  0  0  0  0  0
    9.9195   -0.5831    0.0000 H   0  0  0  0  0  0  0  0  0  0  0  0
    7.6116   -2.7221    0.0000 H   0  0  0  0  0  0  0  0  0  0  0  0
    9.3783    1.3467    0.0000 H   0  0  0  0  0  0  0  0  0  0  0  0
    8.5488    0.5022    0.0000 H   0  0  0  0  0  0  0  0  0  0  0  0
    7.9288    1.1222    0.0000 H   0  0  0  0  0  0  0  0  0  0  0  0
    7.3088    0.5022    0.0000 H   0  0  0  0  0  0  0  0  0  0  0  0
    4.7681   -0.9740    0.0000 H   0  0  0  0  0  0  0  0  0  0  0  0
    3.9700   -0.9586    0.0000 H   0  0  0  0  0  0  0  0  0  0  0  0
    6.1832   -4.1871    0.0000 H   0  0  0  0  0  0  0  0  0  0  0  0
    5.9145   -1.0095    0.0000 H   0  0  0  0  0  0  0  0  0  0  0  0
    5.2993   -0.3847    0.0000 H   0  0  0  0  0  0  0  0  0  0  0  0
    4.6745   -0.9999    0.0000 H   0  0  0  0  0  0  0  0  0  0  0  0
    3.9460   -4.0720    0.0000 H   0  0  0  0  0  0  0  0  0  0  0  0
    4.7443   -4.0689    0.0000 H   0  0  0  0  0  0  0  0  0  0  0  0
    3.2075   -1.3833    0.0000 H   0  0  0  0  0  0  0  0  0  0  0  0
    2.8004   -2.0699    0.0000 H   0  0  0  0  0  0  0  0  0  0  0  0
   10.1848    0.3440    0.0000 H   0  0  0  0  0  0  0  0  0  0  0  0
   10.7780    0.8763    0.0000 H   0  0  0  0  0  0  0  0  0  0  0  0
    3.4025   -3.6735    0.0000 H   0  0  0  0  0  0  0  0  0  0  0  0
    8.9793    1.9158    0.0000 H   0  0  0  0  0  0  0  0  0  0  0  0
    8.1038    1.9632    0.0000 H   0  0  0  0  0  0  0  0  0  0  0  0
    8.0564    1.0876    0.0000 H   0  0  0  0  0  0  0  0  0  0  0  0
    7.9578   -4.1493    0.0000 H   0  0  0  0  0  0  0  0  0  0  0  0
   10.4543    2.5338    0.0000 H   0  0  0  0  0  0  0  0  0  0  0  0
    9.8611    2.0015    0.0000 H   0  0  0  0  0  0  0  0  0  0  0  0
    2.0000   -3.2381    0.0000 H   0  0  0  0  0  0  0  0  0  0  0  0
   11.4739    1.5007    0.0000 H   0  0  0  0  0  0  0  0  0  0  0  0
   12.0672    2.0330    0.0000 H   0  0  0  0  0  0  0  0  0  0  0  0
   12.5219    2.1709    0.0000 H   0  0  0  0  0  0  0  0  0  0  0  0
   11.0061    3.9709    0.0000 H   0  0  0  0  0  0  0  0  0  0  0  0
   10.2242    3.5742    0.0000 H   0  0  0  0  0  0  0  0  0  0  0  0
   10.6209    2.7922    0.0000 H   0  0  0  0  0  0  0  0  0  0  0  0
   13.3039    2.5676    0.0000 H   0  0  0  0  0  0  0  0  0  0  0  0
   12.9072    3.3496    0.0000 H   0  0  0  0  0  0  0  0  0  0  0  0
   12.6814    4.1493    0.0000 H   0  0  0  0  0  0  0  0  0  0  0  0
 14  1  1  6  0  0  0
  1 64  1  0  0  0  0
 24  2  1  1  0  0  0
  2 67  1  0  0  0  0
  3 28  1  0  0  0  0
  3 76  1  0  0  0  0
  4  5  1  0  0  0  0
  4  8  1  0  0  0  0
  4  9  1  0  0  0  0
  4 16  1  1  0  0  0
  5  6  1  0  0  0  0
  5 11  1  0  0  0  0
  5 31  1  6  0  0  0
  6  7  1  0  0  0  0
  6 14  1  0  0  0  0
  6 32  1  1  0  0  0
  7 10  1  0  0  0  0
  7 12  1  0  0  0  0
  7 33  1  6  0  0  0
  8 13  1  0  0  0  0
  8 15  1  0  0  0  0
  8 34  1  6  0  0  0
  9 12  1  0  0  0  0
  9 35  1  0  0  0  0
  9 36  1  0  0  0  0
 10 17  1  0  0  0  0
 10 18  1  0  0  0  0
 10 20  1  1  0  0  0
 11 13  1  0  0  0  0
 11 37  1  0  0  0  0
 11 38  1  0  0  0  0
 12 39  1  0  0  0  0
 12 40  1  0  0  0  0
 13 41  1  0  0  0  0
 13 42  1  0  0  0  0
 14 19  1  0  0  0  0
 14 43  1  0  0  0  0
 15 23  1  0  0  0  0
 15 25  1  6  0  0  0
 15 44  1  0  0  0  0
 16 45  1  0  0  0  0
 16 46  1  0  0  0  0
 16 47  1  0  0  0  0
 17 19  2  0  0  0  0
 17 21  1  0  0  0  0
 18 22  1  0  0  0  0
 18 48  1  0  0  0  0
 18 49  1  0  0  0  0
 19 50  1  0  0  0  0
 20 51  1  0  0  0  0
 20 52  1  0  0  0  0
 20 53  1  0  0  0  0
 21 24  1  0  0  0  0
 21 54  1  0  0  0  0
 21 55  1  0  0  0  0
 22 24  1  0  0  0  0
 22 56  1  0  0  0  0
 22 57  1  0  0  0  0
 23 26  1  0  0  0  0
 23 58  1  0  0  0  0
 23 59  1  0  0  0  0
 24 60  1  0  0  0  0
 25 61  1  0  0  0  0
 25 62  1  0  0  0  0
 25 63  1  0  0  0  0
 26 27  1  0  0  0  0
 26 65  1  0  0  0  0
 26 66  1  0  0  0  0
 27 28  1  0  0  0  0
 27 68  1  0  0  0  0
 27 69  1  0  0  0  0
 28 29  1  0  0  0  0
 28 30  1  0  0  0  0
 29 70  1  0  0  0  0
 29 74  1  0  0  0  0
 29 75  1  0  0  0  0
 30 71  1  0  0  0  0
 30 72  1  0  0  0  0
 30 73  1  0  0  0  0
M  END
> <PUBCHEM_COMPOUND_CID>
11954197

> <PUBCHEM_COMPOUND_CANONICALIZED>
1

> <PUBCHEM_CACTVS_COMPLEXITY>
669

> <PUBCHEM_CACTVS_HBOND_ACCEPTOR>
3

> <PUBCHEM_CACTVS_HBOND_DONOR>
3

> <PUBCHEM_CACTVS_ROTATABLE_BOND>
5

> <PUBCHEM_CACTVS_SUBSKEYS>
AAADcfB4MAAAAAAAAAAAAAAAAAAAAYAAAAAwYIAAAAAAAGCAAAAAGgAACAAAD1SggAICAAAAAgCAAiBCAAAAAAAgAAAACAAAAAgAFAIAAQAAUAAEwAAIEAOAwPAPgAAAAAAAAADAAAQAACAAAQAACAAAAA==

> <PUBCHEM_IUPAC_OPENEYE_NAME>
(3S,7S,8S,9S,10R,13R,14S,17R)-17-[(1R)-5-hydroxy-1,5-dimethyl-hexyl]-10,13-dimethyl-2,3,4,7,8,9,11,12,14,15,16,17-dodecahydro-1H-cyclopenta[a]phenanthrene-3,7-diol

> <PUBCHEM_IUPAC_CAS_NAME>
(3S,7S,8S,9S,10R,13R,14S,17R)-17-[(2R)-6-hydroxy-6-methylheptan-2-yl]-10,13-dimethyl-2,3,4,7,8,9,11,12,14,15,16,17-dodecahydro-1H-cyclopenta[a]phenanthrene-3,7-diol

> <PUBCHEM_IUPAC_NAME>
(3S,7S,8S,9S,10R,13R,14S,17R)-17-[(2R)-6-hydroxy-6-methylheptan-2-yl]-10,13-dimethyl-2,3,4,7,8,9,11,12,14,15,16,17-dodecahydro-1H-cyclopenta[a]phenanthrene-3,7-diol

> <PUBCHEM_IUPAC_SYSTEMATIC_NAME>
(3S,7S,8S,9S,10R,13R,14S,17R)-10,13-dimethyl-17-[(2R)-6-methyl-6-oxidanyl-heptan-2-yl]-2,3,4,7,8,9,11,12,14,15,16,17-dodecahydro-1H-cyclopenta[a]phenanthrene-3,7-diol

> <PUBCHEM_IUPAC_TRADITIONAL_NAME>
(3S,7S,8S,9S,10R,13R,14S,17R)-17-[(1R)-5-hydroxy-1,5-dimethyl-hexyl]-10,13-dimethyl-2,3,4,7,8,9,11,12,14,15,16,17-dodecahydro-1H-cyclopenta[a]phenanthrene-3,7-diol

> <PUBCHEM_IUPAC_INCHI>
InChI=1S/C27H46O3/c1-17(7-6-12-25(2,3)30)20-8-9-21-24-22(11-14-27(20,21)5)26(4)13-10-19(28)15-18(26)16-23(24)29/h16-17,19-24,28-30H,6-15H2,1-5H3/t17-,19+,20-,21+,22+,23-,24+,26+,27-/m1/s1

> <PUBCHEM_IUPAC_INCHIKEY>
BQMSKLCEWBSPPY-IKVTXIKFSA-N

> <PUBCHEM_XLOGP3_AA>
5.7

> <PUBCHEM_EXACT_MASS>
418.344695

> <PUBCHEM_MOLECULAR_FORMULA>
C27H46O3

> <PUBCHEM_MOLECULAR_WEIGHT>
418.65234

> <PUBCHEM_OPENEYE_CAN_SMILES>
CC(CCCC(C)(C)O)C1CCC2C1(CCC3C2C(C=C4C3(CCC(C4)O)C)O)C

> <PUBCHEM_OPENEYE_ISO_SMILES>
C[C@H](CCCC(C)(C)O)[C@H]1CC[C@@H]2[C@@]1(CC[C@H]3[C@H]2[C@@H](C=C4[C@@]3(CC[C@@H](C4)O)C)O)C

> <PUBCHEM_CACTVS_TPSA>
60.7

> <PUBCHEM_MONOISOTOPIC_WEIGHT>
418.344695

> <PUBCHEM_TOTAL_CHARGE>
0

> <PUBCHEM_HEAVY_ATOM_COUNT>
30

> <PUBCHEM_ATOM_DEF_STEREO_COUNT>
9

> <PUBCHEM_ATOM_UDEF_STEREO_COUNT>
0

> <PUBCHEM_BOND_DEF_STEREO_COUNT>
0

> <PUBCHEM_BOND_UDEF_STEREO_COUNT>
0

> <PUBCHEM_ISOTOPIC_ATOM_COUNT>
0

> <PUBCHEM_COMPONENT_COUNT>
1

> <PUBCHEM_CACTVS_TAUTO_COUNT>
1

> <PUBCHEM_COORDINATE_TYPE>
1
5
255

> <PUBCHEM_BONDANNOTATIONS>
14  1  6
10  20  5
15  25  6
24  2  5
4  16  5
5  31  6
6  32  5
7  33  6
8  34  6

$$$$

