442472
  -OEChem-07051212582D

 45 48  0     1  0  0  0  0  0999 V2000
    2.9176    1.2673    0.0000 O   0  0  0  0  0  0  0  0  0  0  0  0
    5.5321   -0.2673    0.0000 N   0  0  3  0  0  0  0  0  0  0  0  0
    3.8000   -0.2673    0.0000 N   0  0  0  0  0  0  0  0  0  0  0  0
    5.5321   -1.2673    0.0000 C   0  0  1  0  0  0  0  0  0  0  0  0
    4.6660    0.2327    0.0000 C   0  0  1  0  0  0  0  0  0  0  0  0
    6.4421    0.2395    0.0000 C   0  0  2  0  0  0  0  0  0  0  0  0
    3.8000   -1.2673    0.0000 C   0  0  2  0  0  0  0  0  0  0  0  0
    4.6660   -1.7673    0.0000 C   0  0  0  0  0  0  0  0  0  0  0  0
    6.3903   -1.7642    0.0000 C   0  0  0  0  0  0  0  0  0  0  0  0
    7.2814   -0.2887    0.0000 C   0  0  0  0  0  0  0  0  0  0  0  0
    7.2558   -1.2801    0.0000 C   0  0  2  0  0  0  0  0  0  0  0  0
    4.6500    1.2742    0.0000 C   0  0  0  0  0  0  0  0  0  0  0  0
    6.4501    1.2812    0.0000 C   0  0  0  0  0  0  0  0  0  0  0  0
    5.5480    1.8020    0.0000 C   0  0  0  0  0  0  0  0  0  0  0  0
    2.9061   -1.8020    0.0000 C   0  0  0  0  0  0  0  0  0  0  0  0
    2.9061    0.2674    0.0000 C   0  0  0  0  0  0  0  0  0  0  0  0
    2.0000   -1.2881    0.0000 C   0  0  0  0  0  0  0  0  0  0  0  0
    8.1118   -1.7970    0.0000 C   0  0  0  0  0  0  0  0  0  0  0  0
    2.0000   -0.2465    0.0000 C   0  0  0  0  0  0  0  0  0  0  0  0
    5.5315   -2.1173    0.0000 H   0  0  0  0  0  0  0  0  0  0  0  0
    5.3989    0.6634    0.0000 H   0  0  0  0  0  0  0  0  0  0  0  0
    7.1877    0.6476    0.0000 H   0  0  0  0  0  0  0  0  0  0  0  0
    3.8066   -2.1173    0.0000 H   0  0  0  0  0  0  0  0  0  0  0  0
    4.2675   -2.2422    0.0000 H   0  0  0  0  0  0  0  0  0  0  0  0
    5.0646   -2.2422    0.0000 H   0  0  0  0  0  0  0  0  0  0  0  0
    5.9892   -2.2370    0.0000 H   0  0  0  0  0  0  0  0  0  0  0  0
    6.7843   -2.2429    0.0000 H   0  0  0  0  0  0  0  0  0  0  0  0
    7.8885   -0.4146    0.0000 H   0  0  0  0  0  0  0  0  0  0  0  0
    7.5131    0.2864    0.0000 H   0  0  0  0  0  0  0  0  0  0  0  0
    7.2454   -1.9000    0.0000 H   0  0  0  0  0  0  0  0  0  0  0  0
    4.4319    1.8546    0.0000 H   0  0  0  0  0  0  0  0  0  0  0  0
    4.0408    1.1587    0.0000 H   0  0  0  0  0  0  0  0  0  0  0  0
    7.0601    1.1704    0.0000 H   0  0  0  0  0  0  0  0  0  0  0  0
    6.6636    1.8632    0.0000 H   0  0  0  0  0  0  0  0  0  0  0  0
    5.9453    2.2779    0.0000 H   0  0  0  0  0  0  0  0  0  0  0  0
    5.1470    2.2748    0.0000 H   0  0  0  0  0  0  0  0  0  0  0  0
    2.5124   -2.2810    0.0000 H   0  0  0  0  0  0  0  0  0  0  0  0
    3.3107   -2.2718    0.0000 H   0  0  0  0  0  0  0  0  0  0  0  0
    1.3891   -1.1820    0.0000 H   0  0  0  0  0  0  0  0  0  0  0  0
    1.7909   -1.8718    0.0000 H   0  0  0  0  0  0  0  0  0  0  0  0
    7.7913   -2.3277    0.0000 H   0  0  0  0  0  0  0  0  0  0  0  0
    8.6425   -2.1175    0.0000 H   0  0  0  0  0  0  0  0  0  0  0  0
    8.4323   -1.2663    0.0000 H   0  0  0  0  0  0  0  0  0  0  0  0
    1.7909    0.3372    0.0000 H   0  0  0  0  0  0  0  0  0  0  0  0
    1.3891   -0.3526    0.0000 H   0  0  0  0  0  0  0  0  0  0  0  0
  1 16  2  0  0  0  0
  2  4  1  0  0  0  0
  2  5  1  0  0  0  0
  2  6  1  0  0  0  0
  3  5  1  0  0  0  0
  3  7  1  0  0  0  0
  3 16  1  0  0  0  0
  4  8  1  0  0  0  0
  4  9  1  0  0  0  0
  4 20  1  1  0  0  0
  5 12  1  0  0  0  0
  5 21  1  6  0  0  0
  6 10  1  0  0  0  0
  6 13  1  0  0  0  0
  6 22  1  6  0  0  0
  7  8  1  0  0  0  0
  7 15  1  0  0  0  0
  7 23  1  1  0  0  0
  8 24  1  0  0  0  0
  8 25  1  0  0  0  0
  9 11  1  0  0  0  0
  9 26  1  0  0  0  0
  9 27  1  0  0  0  0
 10 11  1  0  0  0  0
 10 28  1  0  0  0  0
 10 29  1  0  0  0  0
 11 18  1  6  0  0  0
 11 30  1  0  0  0  0
 12 14  1  0  0  0  0
 12 31  1  0  0  0  0
 12 32  1  0  0  0  0
 13 14  1  0  0  0  0
 13 33  1  0  0  0  0
 13 34  1  0  0  0  0
 14 35  1  0  0  0  0
 14 36  1  0  0  0  0
 15 17  1  0  0  0  0
 15 37  1  0  0  0  0
 15 38  1  0  0  0  0
 16 19  1  0  0  0  0
 17 19  1  0  0  0  0
 17 39  1  0  0  0  0
 17 40  1  0  0  0  0
 18 41  1  0  0  0  0
 18 42  1  0  0  0  0
 18 43  1  0  0  0  0
 19 44  1  0  0  0  0
 19 45  1  0  0  0  0
M  END
> <PUBCHEM_COMPOUND_CID>
442472

> <PUBCHEM_COMPOUND_CANONICALIZED>
1

> <PUBCHEM_CACTVS_COMPLEXITY>
383

> <PUBCHEM_CACTVS_HBOND_ACCEPTOR>
2

> <PUBCHEM_CACTVS_HBOND_DONOR>
0

> <PUBCHEM_CACTVS_ROTATABLE_BOND>
0

> <PUBCHEM_CACTVS_SUBSKEYS>
AAADceB7IAAAAAAAAAAAAAAAAAAAAAAAAAAsWLFgAAAAAACwAAAAHgAAAAAADSjBgAQDAAMAAAAIAAEQEAAAAAAAAAAAAAEIAACAABIAwAAEAAAIBwKAAAEYicCeAAAAAAAAAAAAAAAAAAAAAAAAAAAAAA==

> <PUBCHEM_IUPAC_INCHI>
InChI=1S/C16H26N2O/c1-11-8-12-4-2-6-15-17(12)14(9-11)10-13-5-3-7-16(19)18(13)15/h11-15H,2-10H2,1H3/t11-,12-,13-,14+,15-/m0/s1

> <PUBCHEM_IUPAC_INCHIKEY>
IWSJXTCXZSUCNS-LXFSFDBISA-N

> <PUBCHEM_XLOGP3_AA>
2.8

> <PUBCHEM_EXACT_MASS>
262.204513

> <PUBCHEM_MOLECULAR_FORMULA>
C16H26N2O

> <PUBCHEM_MOLECULAR_WEIGHT>
262.39044

> <PUBCHEM_OPENEYE_CAN_SMILES>
CC1CC2CCCC3N2C(C1)CC4N3C(=O)CCC4

> <PUBCHEM_OPENEYE_ISO_SMILES>
C[C@H]1C[C@@H]2CCC[C@H]3N2[C@H](C1)C[C@H]4N3C(=O)CCC4

> <PUBCHEM_CACTVS_TPSA>
23.6

> <PUBCHEM_MONOISOTOPIC_WEIGHT>
262.204513

> <PUBCHEM_TOTAL_CHARGE>
0

> <PUBCHEM_HEAVY_ATOM_COUNT>
19

> <PUBCHEM_ATOM_DEF_STEREO_COUNT>
5

> <PUBCHEM_ATOM_UDEF_STEREO_COUNT>
0

> <PUBCHEM_BOND_DEF_STEREO_COUNT>
0

> <PUBCHEM_BOND_UDEF_STEREO_COUNT>
0

> <PUBCHEM_ISOTOPIC_ATOM_COUNT>
0

> <PUBCHEM_COMPONENT_COUNT>
1

> <PUBCHEM_CACTVS_TAUTO_COUNT>
2

> <PUBCHEM_COORDINATE_TYPE>
1
5
255

> <PUBCHEM_BONDANNOTATIONS>
11  18  6
4  20  5
5  21  6
6  22  6
7  23  5

$$$$

