51090901
  -OEChem-06241223003D

 46 46  0     0  0  0  0  0  0999 V2000
    4.1879   -0.2667    0.0573 S   0  0  0  0  0  0  0  0  0  0  0  0
    4.8077   -0.4672   -1.2335 O   0  0  0  0  0  0  0  0  0  0  0  0
    4.7093   -0.8822    1.2572 O   0  0  0  0  0  0  0  0  0  0  0  0
   -1.6361   -2.4737   -0.9878 O   0  0  0  0  0  0  0  0  0  0  0  0
   -3.1923    1.3810   -1.3087 O   0  0  0  0  0  0  0  0  0  0  0  0
    2.5197   -0.6391   -0.0707 N   0  0  0  0  0  0  0  0  0  0  0  0
   -2.7929   -0.8314    0.1816 N   0  0  0  0  0  0  0  0  0  0  0  0
   -3.0393    2.8049    0.5218 N   0  0  0  0  0  0  0  0  0  0  0  0
   -0.3793   -0.6154   -0.2564 C   0  0  0  0  0  0  0  0  0  0  0  0
    0.5067   -0.8747   -1.4759 C   0  0  0  0  0  0  0  0  0  0  0  0
    0.3456   -1.0116    1.0305 C   0  0  0  0  0  0  0  0  0  0  0  0
    1.7011   -0.3201    1.1358 C   0  0  0  0  0  0  0  0  0  0  0  0
    1.8607   -0.1874   -1.3313 C   0  0  0  0  0  0  0  0  0  0  0  0
   -1.6513   -1.3939   -0.3907 C   0  0  0  0  0  0  0  0  0  0  0  0
    4.0658    1.4797    0.3434 C   0  0  0  0  0  0  0  0  0  0  0  0
   -4.0985   -1.4837    0.1237 C   0  0  0  0  0  0  0  0  0  0  0  0
   -2.7656    0.4482    0.8787 C   0  0  0  0  0  0  0  0  0  0  0  0
    5.4301    2.1123    0.5027 C   0  0  0  0  0  0  0  0  0  0  0  0
   -4.3152   -2.3970    1.3125 C   0  0  0  0  0  0  0  0  0  0  0  0
   -3.0385    1.5667   -0.1042 C   0  0  0  0  0  0  0  0  0  0  0  0
   -3.2256    4.0513   -0.1860 C   0  0  0  0  0  0  0  0  0  0  0  0
   -0.5679    0.4617   -0.2585 H   0  0  0  0  0  0  0  0  0  0  0  0
    0.6795   -1.9513   -1.6074 H   0  0  0  0  0  0  0  0  0  0  0  0
    0.0092   -0.5225   -2.3879 H   0  0  0  0  0  0  0  0  0  0  0  0
   -0.2532   -0.7783    1.9172 H   0  0  0  0  0  0  0  0  0  0  0  0
    0.4955   -2.0999    1.0464 H   0  0  0  0  0  0  0  0  0  0  0  0
    1.7258    0.8993   -1.3230 H   0  0  0  0  0  0  0  0  0  0  0  0
    2.4741   -0.4539   -2.1977 H   0  0  0  0  0  0  0  0  0  0  0  0
    2.2067   -0.6734    2.0400 H   0  0  0  0  0  0  0  0  0  0  0  0
    1.5413    0.7596    1.2199 H   0  0  0  0  0  0  0  0  0  0  0  0
    3.5019    1.6505    1.2624 H   0  0  0  0  0  0  0  0  0  0  0  0
    3.5490    1.9404   -0.5014 H   0  0  0  0  0  0  0  0  0  0  0  0
   -4.1453   -2.0820   -0.7932 H   0  0  0  0  0  0  0  0  0  0  0  0
   -4.8867   -0.7257    0.0603 H   0  0  0  0  0  0  0  0  0  0  0  0
   -1.8199    0.6325    1.3894 H   0  0  0  0  0  0  0  0  0  0  0  0
   -3.5460    0.4543    1.6489 H   0  0  0  0  0  0  0  0  0  0  0  0
    5.9738    1.6750    1.3464 H   0  0  0  0  0  0  0  0  0  0  0  0
    6.0394    1.9701   -0.3957 H   0  0  0  0  0  0  0  0  0  0  0  0
    5.3337    3.1878    0.6811 H   0  0  0  0  0  0  0  0  0  0  0  0
   -3.5418   -3.1707    1.3617 H   0  0  0  0  0  0  0  0  0  0  0  0
   -4.2854   -1.8381    2.2534 H   0  0  0  0  0  0  0  0  0  0  0  0
   -5.2887   -2.8917    1.2409 H   0  0  0  0  0  0  0  0  0  0  0  0
   -2.8724    2.8539    1.5226 H   0  0  0  0  0  0  0  0  0  0  0  0
   -3.6353    3.8798   -1.1842 H   0  0  0  0  0  0  0  0  0  0  0  0
   -3.9071    4.6772    0.3949 H   0  0  0  0  0  0  0  0  0  0  0  0
   -2.2548    4.5465   -0.2654 H   0  0  0  0  0  0  0  0  0  0  0  0
  1  2  2  0  0  0  0
  1  3  2  0  0  0  0
  1  6  1  0  0  0  0
  1 15  1  0  0  0  0
  4 14  2  0  0  0  0
  5 20  2  0  0  0  0
  6 12  1  0  0  0  0
  6 13  1  0  0  0  0
  7 14  1  0  0  0  0
  7 16  1  0  0  0  0
  7 17  1  0  0  0  0
  8 20  1  0  0  0  0
  8 21  1  0  0  0  0
  8 43  1  0  0  0  0
  9 10  1  0  0  0  0
  9 11  1  0  0  0  0
  9 14  1  0  0  0  0
  9 22  1  0  0  0  0
 10 13  1  0  0  0  0
 10 23  1  0  0  0  0
 10 24  1  0  0  0  0
 11 12  1  0  0  0  0
 11 25  1  0  0  0  0
 11 26  1  0  0  0  0
 12 29  1  0  0  0  0
 12 30  1  0  0  0  0
 13 27  1  0  0  0  0
 13 28  1  0  0  0  0
 15 18  1  0  0  0  0
 15 31  1  0  0  0  0
 15 32  1  0  0  0  0
 16 19  1  0  0  0  0
 16 33  1  0  0  0  0
 16 34  1  0  0  0  0
 17 20  1  0  0  0  0
 17 35  1  0  0  0  0
 17 36  1  0  0  0  0
 18 37  1  0  0  0  0
 18 38  1  0  0  0  0
 18 39  1  0  0  0  0
 19 40  1  0  0  0  0
 19 41  1  0  0  0  0
 19 42  1  0  0  0  0
 21 44  1  0  0  0  0
 21 45  1  0  0  0  0
 21 46  1  0  0  0  0
M  END
> <PUBCHEM_COMPOUND_CID>
51090901

> <PUBCHEM_CONFORMER_RMSD>
1

> <PUBCHEM_CONFORMER_DIVERSEORDER>
2
84
184
48
124
108
159
161
163
128
168
14
75
38
145
182
58
175
167
18
56
119
166
77
95
19
71
177
63
65
155
91
164
47
69
109
44
147
190
187
94
74
80
35
40
188
122
93
116
134
142
102
96
110
123
39
13
82
106
191
149
137
27
132
26
150
117
59
42
4
7
120
97
151
64
157
37
36
105
45
61
173
89
83
186
12
176
100
92
101
180
140
32
22
129
139
121
49
10
23
113
29
28
88
133
90
52
160
9
118
98
189
21
158
50
31
20
43
136
103
54
57
178
85
79
68
53
138
179
33
78
181
41
169
87
81
25
55
154
73
62
60
152
11
66
143
15
34
171
127
107
86
76
148
170
17
172
104
156
130
111
67
131
174
115
183
1
162
112
70
135
126
185
114
46
16
30
6
3
99
8
141
144
165
125
24
51
146
72
5
153

> <PUBCHEM_MMFF94_PARTIAL_CHARGES>
18
1 1.33
12 0.36
13 0.36
14 0.57
15 0.11
16 0.3
17 0.36
2 -0.65
20 0.57
21 0.3
3 -0.65
4 -0.57
43 0.37
5 -0.57
6 -0.85
7 -0.66
8 -0.73
9 0.06

> <PUBCHEM_EFFECTIVE_ROTOR_COUNT>
9.2

> <PUBCHEM_PHARMACOPHORE_FEATURES>
6
1 2 acceptor
1 3 acceptor
1 4 acceptor
1 5 acceptor
1 8 donor
6 6 9 10 11 12 13 rings

> <PUBCHEM_HEAVY_ATOM_COUNT>
21

> <PUBCHEM_ATOM_DEF_STEREO_COUNT>
0

> <PUBCHEM_ATOM_UDEF_STEREO_COUNT>
0

> <PUBCHEM_BOND_DEF_STEREO_COUNT>
0

> <PUBCHEM_BOND_UDEF_STEREO_COUNT>
0

> <PUBCHEM_ISOTOPIC_ATOM_COUNT>
0

> <PUBCHEM_COMPONENT_COUNT>
1

> <PUBCHEM_CACTVS_TAUTO_COUNT>
2

> <PUBCHEM_CONFORMER_ID>
030B95D500000002

> <PUBCHEM_MMFF94_ENERGY>
31.0909

> <PUBCHEM_FEATURE_SELFOVERLAP>
30.463

> <PUBCHEM_SHAPE_MULTIPOLES>
397.6
10.87
3.24
1.3
9.72
3.74
-0.15
2.49
2.03
-4.78
0.13
0.22
-0.4
0.94

> <PUBCHEM_SHAPE_SELFOVERLAP>
770.109

> <PUBCHEM_SHAPE_VOLUME>
242.5

> <PUBCHEM_COORDINATE_TYPE>
2
5
10

$$$$

