1034
  -OEChem-07051212472D

 16 15  0     0  0  0  0  0  0999 V2000
    3.4030   -0.2015    0.0000 P   0  0  0  0  0  0  0  0  0  0  0  0
    4.2690    0.2985    0.0000 O   0  0  0  0  0  0  0  0  0  0  0  0
    2.5369   -0.7015    0.0000 O   0  0  0  0  0  0  0  0  0  0  0  0
    2.9030    0.6645    0.0000 O   0  0  0  0  0  0  0  0  0  0  0  0
    5.1350   -1.2015    0.0000 O   0  0  0  0  0  0  0  0  0  0  0  0
    3.9030   -1.0675    0.0000 O   0  0  0  0  0  0  0  0  0  0  0  0
    6.0010    0.2985    0.0000 C   0  0  0  0  0  0  0  0  0  0  0  0
    5.1350   -0.2015    0.0000 C   0  0  0  0  0  0  0  0  0  0  0  0
    6.8671   -0.2015    0.0000 C   0  0  0  0  0  0  0  0  0  0  0  0
    6.3996    0.7735    0.0000 H   0  0  0  0  0  0  0  0  0  0  0  0
    5.6025    0.7735    0.0000 H   0  0  0  0  0  0  0  0  0  0  0  0
    6.5571   -0.7384    0.0000 H   0  0  0  0  0  0  0  0  0  0  0  0
    7.4040   -0.5115    0.0000 H   0  0  0  0  0  0  0  0  0  0  0  0
    7.1771    0.3355    0.0000 H   0  0  0  0  0  0  0  0  0  0  0  0
    2.0000   -0.3915    0.0000 H   0  0  0  0  0  0  0  0  0  0  0  0
    3.2130    1.2015    0.0000 H   0  0  0  0  0  0  0  0  0  0  0  0
  1  2  1  0  0  0  0
  1  3  1  0  0  0  0
  1  4  1  0  0  0  0
  1  6  2  0  0  0  0
  2  8  1  0  0  0  0
  3 15  1  0  0  0  0
  4 16  1  0  0  0  0
  5  8  2  0  0  0  0
  7  8  1  0  0  0  0
  7  9  1  0  0  0  0
  7 10  1  0  0  0  0
  7 11  1  0  0  0  0
  9 12  1  0  0  0  0
  9 13  1  0  0  0  0
  9 14  1  0  0  0  0
M  END
> <PUBCHEM_COMPOUND_CID>
1034

> <PUBCHEM_COMPOUND_CANONICALIZED>
1

> <PUBCHEM_CACTVS_COMPLEXITY>
146

> <PUBCHEM_CACTVS_HBOND_ACCEPTOR>
5

> <PUBCHEM_CACTVS_HBOND_DONOR>
2

> <PUBCHEM_CACTVS_ROTATABLE_BOND>
3

> <PUBCHEM_CACTVS_SUBSKEYS>
AAADcYBAOAIAAAAAAAAAAAAAAAAAAAAAAAAAAAAAAAAAAAAAAAAAGgAACCAACACAgAACCAAAARAIQACQCIAAAAAAAAAAAAEAAAAAAAAAAAAAAAAAAAAAAAAAAAAAAAAAAAAAAAAAAAAAAAAAAAAAAAAAAA==

> <PUBCHEM_IUPAC_OPENEYE_NAME>
phosphono propanoate

> <PUBCHEM_IUPAC_CAS_NAME>
propanoic acid phosphono ester

> <PUBCHEM_IUPAC_NAME>
phosphono propanoate

> <PUBCHEM_IUPAC_SYSTEMATIC_NAME>
phosphono propanoate

> <PUBCHEM_IUPAC_TRADITIONAL_NAME>
propionic acid phosphono ester

> <PUBCHEM_IUPAC_INCHI>
InChI=1S/C3H7O5P/c1-2-3(4)8-9(5,6)7/h2H2,1H3,(H2,5,6,7)

> <PUBCHEM_IUPAC_INCHIKEY>
FMNMEQSRDWIBFO-UHFFFAOYSA-N

> <PUBCHEM_XLOGP3_AA>
-1

> <PUBCHEM_EXACT_MASS>
154.00311

> <PUBCHEM_MOLECULAR_FORMULA>
C3H7O5P

> <PUBCHEM_MOLECULAR_WEIGHT>
154.058442

> <PUBCHEM_OPENEYE_CAN_SMILES>
CCC(=O)OP(=O)(O)O

> <PUBCHEM_OPENEYE_ISO_SMILES>
CCC(=O)OP(=O)(O)O

> <PUBCHEM_CACTVS_TPSA>
83.8

> <PUBCHEM_MONOISOTOPIC_WEIGHT>
154.00311

> <PUBCHEM_TOTAL_CHARGE>
0

> <PUBCHEM_HEAVY_ATOM_COUNT>
9

> <PUBCHEM_ATOM_DEF_STEREO_COUNT>
0

> <PUBCHEM_ATOM_UDEF_STEREO_COUNT>
0

> <PUBCHEM_BOND_DEF_STEREO_COUNT>
0

> <PUBCHEM_BOND_UDEF_STEREO_COUNT>
0

> <PUBCHEM_ISOTOPIC_ATOM_COUNT>
0

> <PUBCHEM_COMPONENT_COUNT>
1

> <PUBCHEM_CACTVS_TAUTO_COUNT>
1

> <PUBCHEM_COORDINATE_TYPE>
1
5
255

$$$$

