4262
  -OEChem-06261200003D

 47 47  0     1  0  0  0  0  0999 V2000
   -1.1366   -1.9964   -0.9331 O   0  0  0  0  0  0  0  0  0  0  0  0
   -1.7959    1.9961    0.8566 O   0  0  0  0  0  0  0  0  0  0  0  0
   -5.0876    1.0851   -1.5183 O   0  0  0  0  0  0  0  0  0  0  0  0
   -1.2493   -0.2887    0.6717 N   0  0  0  0  0  0  0  0  0  0  0  0
   -1.9104   -1.4766    0.1417 C   0  0  1  0  0  0  0  0  0  0  0  0
    0.0604   -0.3099    1.2622 C   0  0  0  0  0  0  0  0  0  0  0  0
   -3.2009   -0.8904   -0.3856 C   0  0  0  0  0  0  0  0  0  0  0  0
    1.1686   -0.1090    0.2327 C   0  0  0  0  0  0  0  0  0  0  0  0
    2.5640   -0.1080    0.8650 C   0  0  0  0  0  0  0  0  0  0  0  0
   -3.2861    0.4307   -0.1641 C   0  0  0  0  0  0  0  0  0  0  0  0
   -2.0411    0.8497    0.5178 C   0  0  0  0  0  0  0  0  0  0  0  0
    3.6891    0.1512   -0.1425 C   0  0  0  0  0  0  0  0  0  0  0  0
   -2.1231   -2.5456    1.2120 C   0  0  0  0  0  0  0  0  0  0  0  0
    5.1150    0.0820    0.4126 C   0  0  0  0  0  0  0  0  0  0  0  0
   -4.1976   -1.7692   -1.0706 C   0  0  0  0  0  0  0  0  0  0  0  0
    6.1947    0.2855   -0.6520 C   0  0  0  0  0  0  0  0  0  0  0  0
   -4.3818    1.3180   -0.5288 C   0  0  0  0  0  0  0  0  0  0  0  0
    7.5911    0.2985   -0.0290 C   0  0  0  0  0  0  0  0  0  0  0  0
   -4.6434    2.5293    0.3375 C   0  0  0  0  0  0  0  0  0  0  0  0
    8.6709    0.4675   -1.0859 C   0  0  0  0  0  0  0  0  0  0  0  0
    0.1103    0.5073    1.9918 H   0  0  0  0  0  0  0  0  0  0  0  0
    0.2061   -1.2423    1.8144 H   0  0  0  0  0  0  0  0  0  0  0  0
    1.1291   -0.8985   -0.5256 H   0  0  0  0  0  0  0  0  0  0  0  0
    1.0075    0.8384   -0.2969 H   0  0  0  0  0  0  0  0  0  0  0  0
    2.6086    0.6569    1.6500 H   0  0  0  0  0  0  0  0  0  0  0  0
    2.7364   -1.0745    1.3542 H   0  0  0  0  0  0  0  0  0  0  0  0
    3.5344    1.1384   -0.5962 H   0  0  0  0  0  0  0  0  0  0  0  0
    3.5999   -0.5792   -0.9570 H   0  0  0  0  0  0  0  0  0  0  0  0
   -2.6642   -3.4079    0.8066 H   0  0  0  0  0  0  0  0  0  0  0  0
   -2.6797   -2.1579    2.0721 H   0  0  0  0  0  0  0  0  0  0  0  0
   -1.1688   -2.9434    1.5732 H   0  0  0  0  0  0  0  0  0  0  0  0
    5.2643   -0.8913    0.8961 H   0  0  0  0  0  0  0  0  0  0  0  0
    5.2243    0.8434    1.1949 H   0  0  0  0  0  0  0  0  0  0  0  0
   -4.4751   -2.6087   -0.4257 H   0  0  0  0  0  0  0  0  0  0  0  0
   -5.1283   -1.2607   -1.3272 H   0  0  0  0  0  0  0  0  0  0  0  0
   -3.7718   -2.1734   -1.9943 H   0  0  0  0  0  0  0  0  0  0  0  0
    6.0191    1.2326   -1.1765 H   0  0  0  0  0  0  0  0  0  0  0  0
    6.1268   -0.5150   -1.3985 H   0  0  0  0  0  0  0  0  0  0  0  0
   -0.9749   -1.2679   -1.5566 H   0  0  0  0  0  0  0  0  0  0  0  0
    7.7650   -0.6374    0.5147 H   0  0  0  0  0  0  0  0  0  0  0  0
    7.6674    1.1153    0.6981 H   0  0  0  0  0  0  0  0  0  0  0  0
   -4.4378    2.3072    1.3882 H   0  0  0  0  0  0  0  0  0  0  0  0
   -5.7005    2.8013    0.2603 H   0  0  0  0  0  0  0  0  0  0  0  0
   -4.0294    3.3662   -0.0035 H   0  0  0  0  0  0  0  0  0  0  0  0
    9.6607    0.4749   -0.6189 H   0  0  0  0  0  0  0  0  0  0  0  0
    8.6431   -0.3530   -1.8100 H   0  0  0  0  0  0  0  0  0  0  0  0
    8.5442    1.4097   -1.6287 H   0  0  0  0  0  0  0  0  0  0  0  0
  1  5  1  0  0  0  0
  1 39  1  0  0  0  0
  2 11  2  0  0  0  0
  3 17  2  0  0  0  0
  4  5  1  0  0  0  0
  4  6  1  0  0  0  0
  4 11  1  0  0  0  0
  5  7  1  0  0  0  0
  5 13  1  0  0  0  0
  6  8  1  0  0  0  0
  6 21  1  0  0  0  0
  6 22  1  0  0  0  0
  7 10  2  0  0  0  0
  7 15  1  0  0  0  0
  8  9  1  0  0  0  0
  8 23  1  0  0  0  0
  8 24  1  0  0  0  0
  9 12  1  0  0  0  0
  9 25  1  0  0  0  0
  9 26  1  0  0  0  0
 10 11  1  0  0  0  0
 10 17  1  0  0  0  0
 12 14  1  0  0  0  0
 12 27  1  0  0  0  0
 12 28  1  0  0  0  0
 13 29  1  0  0  0  0
 13 30  1  0  0  0  0
 13 31  1  0  0  0  0
 14 16  1  0  0  0  0
 14 32  1  0  0  0  0
 14 33  1  0  0  0  0
 15 34  1  0  0  0  0
 15 35  1  0  0  0  0
 15 36  1  0  0  0  0
 16 18  1  0  0  0  0
 16 37  1  0  0  0  0
 16 38  1  0  0  0  0
 17 19  1  0  0  0  0
 18 20  1  0  0  0  0
 18 40  1  0  0  0  0
 18 41  1  0  0  0  0
 19 42  1  0  0  0  0
 19 43  1  0  0  0  0
 19 44  1  0  0  0  0
 20 45  1  0  0  0  0
 20 46  1  0  0  0  0
 20 47  1  0  0  0  0
M  END
> <PUBCHEM_COMPOUND_CID>
4262

> <PUBCHEM_CONFORMER_RMSD>
0.8

> <PUBCHEM_CONFORMER_DIVERSEORDER>
10
239
207
363
404
424
244
93
282
144
246
178
368
74
401
55
3
311
288
370
267
351
120
298
68
28
16
265
350
42
227
19
146
139
138
329
379
433
154
398
232
364
291
332
183
191
366
36
365
53
417
160
163
107
413
336
310
236
44
215
399
392
307
122
2
345
378
296
301
375
84
150
189
164
276
119
402
223
12
185
409
243
52
15
271
352
405
319
427
323
225
412
200
172
237
403
257
377
381
439
102
1
226
371
199
408
335
99
87
121
383
440
389
134
22
315
31
362
169
98
56
245
449
188
94
250
75
376
396
387
177
129
204
353
17
318
96
242
425
428
174
435
343
135
142
261
438
380
211
206
340
410
241
170
45
446
388
175
295
156
281
442
391
394
187
50
272
81
148
217
34
393
312
54
429
59
280
222
111
357
127
426
385
248
69
51
277
73
197
348
367
151
290
205
447
82
26
20
240
258
133
194
147
333
198
186
334
224
101
355
181
168
173
266
63
23
313
208
420
203
321
103
216
303
229
259
268
252
14
436
448
264
6
128
7
92
317
221
328
112
299
253
38
190
414
106
158
233
279
346
66
140
176
60
275
80
166
421
294
195
57
349
344
105
273
5
234
40
192
397
30
314
369
76
88
269
167
374
196
109
21
444
441
9
325
110
306
260
285
125
27
238
104
124
331
35
278
117
91
254
270
162
24
46
143
302
90
65
360
411
37
47
300
77
309
11
262
141
286
305
356
157
152
358
422
155
231
297
32
293
316
339
62
145
255
64
308
218
180
209
137
18
263
337
58
153
415
213
78
235
114
400
131
201
171
29
320
79
41
434
359
161
49
25
395
97
100
210
386
418
202
182
287
4
249
445
416
342
214
284
382
132
361
71
283
220
48
430
193
219
354
437
43
322
95
130
118
149
123
108
443
347
136
423
13
432
256
85
113
251
390
179
115
89
70
407
341
384
159
230
327
72
184
289
324
304
330
247
33
419
326
373
8
431
338
228
406
126
116
39
83
274
67
86
372
61
165
212
292

> <PUBCHEM_MMFF94_PARTIAL_CHARGES>
13
1 -0.68
10 0.03
11 0.62
15 0.14
17 0.49
19 0.06
2 -0.57
3 -0.57
39 0.4
4 -0.66
5 0.72
6 0.3
7 -0.28

> <PUBCHEM_EFFECTIVE_ROTOR_COUNT>
8.4

> <PUBCHEM_PHARMACOPHORE_FEATURES>
9
1 1 acceptor
1 1 donor
1 10 anion
1 2 acceptor
1 20 hydrophobe
1 3 acceptor
3 14 16 18 hydrophobe
3 8 9 12 hydrophobe
5 4 5 7 10 11 rings

> <PUBCHEM_HEAVY_ATOM_COUNT>
20

> <PUBCHEM_ATOM_DEF_STEREO_COUNT>
0

> <PUBCHEM_ATOM_UDEF_STEREO_COUNT>
1

> <PUBCHEM_BOND_DEF_STEREO_COUNT>
0

> <PUBCHEM_BOND_UDEF_STEREO_COUNT>
0

> <PUBCHEM_ISOTOPIC_ATOM_COUNT>
0

> <PUBCHEM_COMPONENT_COUNT>
1

> <PUBCHEM_CACTVS_TAUTO_COUNT>
7

> <PUBCHEM_CONFORMER_ID>
000010A60000000A

> <PUBCHEM_MMFF94_ENERGY>
21.9271

> <PUBCHEM_FEATURE_SELFOVERLAP>
45.681

> <PUBCHEM_SHAPE_FINGERPRINT>
10 15 11600001042957630166
10411042 1 18050285861282888667
11315181 36 17821725018854481832
12091667 2 18413385419773595554
12236239 1 18131636690674830042
13288520 33 18040434356449011067
13631057 29 17059488505072914315
13668630 136 14996284726129827068
15183329 4 18335985350486784640
15716309 27 5761656984504238078
167882 2 18117840125463970238
17093844 174 18201720618417535928
17780758 139 9583516520787650756
17870717 6 17894629249071263958
19489759 90 18334012787792520216
19784866 240 14057010394751061441
200 152 14129063612222336075
20871999 31 18408893923247962115
21267235 1 18336544907078802315
21756936 100 17561360690660559241
2297311 6 18186518774393016698
23081809 10 18060145340919910386
23198884 109 18272936011791071630
23402539 116 18408329886240618452
23559900 14 18113626659909867448
2748010 2 17903110784117862281
300161 21 18272092704121986650
328310 630 17060044905991966908
3663271 9 8574437509274355252
559249 180 18410859871587433362
9953998 17 10087642606512866478

> <PUBCHEM_SHAPE_MULTIPOLES>
389
18.23
2.12
1.17
50.13
0.19
0.07
-6.37
7.13
-4.59
-0.2
-0.42
0.17
-0.4

> <PUBCHEM_SHAPE_SELFOVERLAP>
769.701

> <PUBCHEM_SHAPE_VOLUME>
234.9

> <PUBCHEM_COORDINATE_TYPE>
2
5
10

$$$$

