72965
  -OEChem-07051212563D

 51 55  0     1  0  0  0  0  0999 V2000
   -1.3019    1.6866   -1.8204 O   0  0  0  0  0  0  0  0  0  0  0  0
   -0.7327   -2.7384    0.1611 O   0  0  0  0  0  0  0  0  0  0  0  0
   -0.3528    3.0193   -0.1308 O   0  0  0  0  0  0  0  0  0  0  0  0
   -2.2754    2.0703    1.6982 O   0  0  0  0  0  0  0  0  0  0  0  0
    1.8215    2.4533    1.1261 O   0  0  0  0  0  0  0  0  0  0  0  0
   -1.9113   -3.6063    1.8648 O   0  0  0  0  0  0  0  0  0  0  0  0
    4.3430    1.6549    1.3661 O   0  0  0  0  0  0  0  0  0  0  0  0
   -1.1812   -0.4645   -0.7888 C   0  0  1  0  0  0  0  0  0  0  0  0
   -0.3088    0.5403    0.0090 C   0  0  1  0  0  0  0  0  0  0  0  0
    1.2651    0.4515   -0.2363 C   0  0  2  0  0  0  0  0  0  0  0  0
   -1.0708    1.8293   -0.4009 C   0  0  2  0  0  0  0  0  0  0  0  0
   -0.5969   -1.8591   -0.9906 C   0  0  1  0  0  0  0  0  0  0  0  0
   -2.5822   -0.6319   -0.1242 C   0  0  2  0  0  0  0  0  0  0  0  0
    1.6848   -1.0676   -0.2556 C   0  0  1  0  0  0  0  0  0  0  0  0
   -1.3722    0.2828   -2.1229 C   0  0  0  0  0  0  0  0  0  0  0  0
    0.8963   -1.8467   -1.3257 C   0  0  0  0  0  0  0  0  0  0  0  0
   -2.4590    1.9234    0.2887 C   0  0  1  0  0  0  0  0  0  0  0  0
    2.0314    1.0608    0.9865 C   0  0  1  0  0  0  0  0  0  0  0  0
   -3.3065    0.6911    0.0662 C   0  0  0  0  0  0  0  0  0  0  0  0
   -2.4844   -1.3978    1.1885 C   0  0  0  0  0  0  0  0  0  0  0  0
    1.7226    1.1830   -1.5288 C   0  0  0  0  0  0  0  0  0  0  0  0
    3.1977   -1.2705   -0.2946 C   0  0  0  0  0  0  0  0  0  0  0  0
   -1.7173   -2.6812    1.0791 C   0  0  0  0  0  0  0  0  0  0  0  0
    3.5373    0.8525    0.8962 C   0  0  0  0  0  0  0  0  0  0  0  0
    4.0429   -0.3793    0.2474 C   0  0  0  0  0  0  0  0  0  0  0  0
   -4.6392    0.7828   -0.0726 C   0  0  0  0  0  0  0  0  0  0  0  0
    3.7499   -2.5386   -0.8856 C   0  0  0  0  0  0  0  0  0  0  0  0
   -0.4297    0.3767    1.0858 H   0  0  0  0  0  0  0  0  0  0  0  0
   -1.1241   -2.3701   -1.8064 H   0  0  0  0  0  0  0  0  0  0  0  0
   -3.1856   -1.2501   -0.8080 H   0  0  0  0  0  0  0  0  0  0  0  0
    1.3896   -1.4988    0.7144 H   0  0  0  0  0  0  0  0  0  0  0  0
   -0.6058    0.0561   -2.8667 H   0  0  0  0  0  0  0  0  0  0  0  0
   -2.3363    0.0734   -2.5994 H   0  0  0  0  0  0  0  0  0  0  0  0
    1.0742   -1.4412   -2.3261 H   0  0  0  0  0  0  0  0  0  0  0  0
    1.2312   -2.8906   -1.3518 H   0  0  0  0  0  0  0  0  0  0  0  0
   -2.9887    2.8161   -0.0676 H   0  0  0  0  0  0  0  0  0  0  0  0
    1.7017    0.5880    1.9195 H   0  0  0  0  0  0  0  0  0  0  0  0
   -3.4969   -1.6521    1.5279 H   0  0  0  0  0  0  0  0  0  0  0  0
   -2.0200   -0.8020    1.9814 H   0  0  0  0  0  0  0  0  0  0  0  0
    1.3294    0.7207   -2.4340 H   0  0  0  0  0  0  0  0  0  0  0  0
    1.4244    2.2331   -1.5516 H   0  0  0  0  0  0  0  0  0  0  0  0
    2.8105    1.1794   -1.6485 H   0  0  0  0  0  0  0  0  0  0  0  0
   -0.9769    3.7639   -0.1247 H   0  0  0  0  0  0  0  0  0  0  0  0
    5.1177   -0.5260    0.2417 H   0  0  0  0  0  0  0  0  0  0  0  0
   -5.1517    1.7344    0.0199 H   0  0  0  0  0  0  0  0  0  0  0  0
   -5.2460   -0.0932   -0.2761 H   0  0  0  0  0  0  0  0  0  0  0  0
   -1.7012    2.8423    1.8388 H   0  0  0  0  0  0  0  0  0  0  0  0
    2.1869    2.9041    0.3470 H   0  0  0  0  0  0  0  0  0  0  0  0
    3.3175   -3.4121   -0.3869 H   0  0  0  0  0  0  0  0  0  0  0  0
    4.8376   -2.6084   -0.7738 H   0  0  0  0  0  0  0  0  0  0  0  0
    3.5313   -2.5921   -1.9567 H   0  0  0  0  0  0  0  0  0  0  0  0
  1 11  1  0  0  0  0
  1 15  1  0  0  0  0
  2 12  1  0  0  0  0
  2 23  1  0  0  0  0
  3 11  1  0  0  0  0
  3 43  1  0  0  0  0
  4 17  1  0  0  0  0
  4 47  1  0  0  0  0
  5 18  1  0  0  0  0
  5 48  1  0  0  0  0
  6 23  2  0  0  0  0
  7 24  2  0  0  0  0
  8  9  1  0  0  0  0
  8 12  1  0  0  0  0
  8 13  1  0  0  0  0
  8 15  1  0  0  0  0
  9 10  1  0  0  0  0
  9 11  1  0  0  0  0
  9 28  1  0  0  0  0
 10 14  1  0  0  0  0
 10 18  1  0  0  0  0
 10 21  1  0  0  0  0
 11 17  1  0  0  0  0
 12 16  1  0  0  0  0
 12 29  1  0  0  0  0
 13 19  1  0  0  0  0
 13 20  1  0  0  0  0
 13 30  1  0  0  0  0
 14 16  1  0  0  0  0
 14 22  1  0  0  0  0
 14 31  1  0  0  0  0
 15 32  1  0  0  0  0
 15 33  1  0  0  0  0
 16 34  1  0  0  0  0
 16 35  1  0  0  0  0
 17 19  1  0  0  0  0
 17 36  1  0  0  0  0
 18 24  1  0  0  0  0
 18 37  1  0  0  0  0
 19 26  2  0  0  0  0
 20 23  1  0  0  0  0
 20 38  1  0  0  0  0
 20 39  1  0  0  0  0
 21 40  1  0  0  0  0
 21 41  1  0  0  0  0
 21 42  1  0  0  0  0
 22 25  2  0  0  0  0
 22 27  1  0  0  0  0
 24 25  1  0  0  0  0
 25 44  1  0  0  0  0
 26 45  1  0  0  0  0
 26 46  1  0  0  0  0
 27 49  1  0  0  0  0
 27 50  1  0  0  0  0
 27 51  1  0  0  0  0
M  END
> <PUBCHEM_COMPOUND_CID>
72965

> <PUBCHEM_CONFORMER_RMSD>
0.6

> <PUBCHEM_CONFORMER_DIVERSEORDER>
1

> <PUBCHEM_MMFF94_PARTIAL_CHARGES>
28
1 -0.56
11 0.56
12 0.28
13 0.14
14 0.14
15 0.28
17 0.42
18 0.34
19 -0.28
2 -0.43
20 0.06
22 -0.28
23 0.66
24 0.49
25 -0.14
26 -0.3
27 0.14
3 -0.68
4 -0.68
43 0.4
44 0.15
45 0.15
46 0.15
47 0.4
48 0.4
5 -0.68
6 -0.57
7 -0.57

> <PUBCHEM_EFFECTIVE_ROTOR_COUNT>
1.4

> <PUBCHEM_PHARMACOPHORE_FEATURES>
13
1 1 acceptor
1 3 acceptor
1 3 donor
1 4 acceptor
1 4 donor
1 5 acceptor
1 5 donor
1 6 acceptor
1 7 acceptor
6 10 14 18 22 24 25 rings
6 2 8 12 13 20 23 rings
6 8 9 10 12 14 16 rings
8 1 8 9 11 13 15 17 19 rings

> <PUBCHEM_HEAVY_ATOM_COUNT>
27

> <PUBCHEM_ATOM_DEF_STEREO_COUNT>
9

> <PUBCHEM_ATOM_UDEF_STEREO_COUNT>
0

> <PUBCHEM_BOND_DEF_STEREO_COUNT>
0

> <PUBCHEM_BOND_UDEF_STEREO_COUNT>
0

> <PUBCHEM_ISOTOPIC_ATOM_COUNT>
0

> <PUBCHEM_COMPONENT_COUNT>
1

> <PUBCHEM_CACTVS_TAUTO_COUNT>
13

> <PUBCHEM_CONFORMER_ID>
00011D0500000001

> <PUBCHEM_MMFF94_ENERGY>
105.4816

> <PUBCHEM_FEATURE_SELFOVERLAP>
66.202

> <PUBCHEM_SHAPE_FINGERPRINT>
10165383 225 17335889566365377556
10366900 7 18334294262452804188
10863032 1 18186804685833521559
10948715 1 18114466763812631797
10967382 1 18261117395737646868
11370993 70 18409171042927504665
11578080 2 16300102020325327723
11640471 11 15574709209741083846
11680986 33 18409162186456896718
12011746 2 18339919445518608863
12035758 1 18342735183571168979
12156800 1 15299344322446500062
12422481 6 18053629579332642667
12553582 1 17692517923597306734
12592029 89 17095804442103655879
12633257 1 18337949120449545466
13140716 1 18269277872186122306
13224815 77 18413389813425003572
14223421 5 18264486187579763504
14787075 74 18260558814050847621
15209289 33 18192427700083363726
15295992 7 18187639253877266426
16945 1 17979629040172221927
19049666 15 18337393841803813694
19591789 44 18118404179286568958
19930381 70 17970070143583534335
20600515 1 17917150494488326695
20691752 17 18342462590243993149
20905425 154 17615968150354959191
21033648 29 18129392646781388348
2334 1 18261967344106510836
23419403 2 16195681655060964019
23558518 356 18262791977859329225
23559900 14 18341603850346424734
238 59 17690312672680952117
2748010 2 18336256847542739254
350125 39 18263076785382397956
35225 105 17703795842033095635
392239 28 18337378453088778795
4340502 62 18411698825056108977
598444 67 18269555099197727135
81228 2 18272650108502904551
9709674 26 18408042892421141734
9981440 41 17391396989575543416

> <PUBCHEM_SHAPE_MULTIPOLES>
514.56
6.54
3.4
1.59
2.63
1.32
0.16
-0.62
-1.42
-0.4
-1.11
-0.2
0.08
1.56

> <PUBCHEM_SHAPE_SELFOVERLAP>
1140.828

> <PUBCHEM_SHAPE_VOLUME>
267.6

> <PUBCHEM_COORDINATE_TYPE>
2
5
10

$$$$

