44237182
  -OEChem-07051213103D

 31 30  0     1  0  0  0  0  0999 V2000
   -5.6372   -0.0876    0.4664 S   0  0  0  0  0  0  0  0  0  0  0  0
    1.0356    0.3811   -1.5102 O   0  0  0  0  0  0  0  0  0  0  0  0
    1.3601   -1.6594    1.4355 O   0  0  0  0  0  0  0  0  0  0  0  0
    1.5292   -2.1659   -0.7732 O   0  0  0  0  0  0  0  0  0  0  0  0
    4.3690    1.7069    0.6172 O   0  0  0  0  0  0  0  0  0  0  0  0
    3.8699   -0.0055   -0.7941 O   0  0  0  0  0  0  0  0  0  0  0  0
    1.0480    0.1335   -0.1067 C   0  0  2  0  0  0  0  0  0  0  0  0
   -0.3503    0.4985    0.4392 C   0  0  0  0  0  0  0  0  0  0  0  0
   -1.5012   -0.2817   -0.2164 C   0  0  0  0  0  0  0  0  0  0  0  0
   -2.8520    0.1209    0.3883 C   0  0  0  0  0  0  0  0  0  0  0  0
    2.1126    1.0332    0.5509 C   0  0  0  0  0  0  0  0  0  0  0  0
    1.3395   -1.3465    0.1153 C   0  0  0  0  0  0  0  0  0  0  0  0
   -4.0421   -0.6179   -0.2238 C   0  0  0  0  0  0  0  0  0  0  0  0
    3.5214    0.8165    0.0397 C   0  0  0  0  0  0  0  0  0  0  0  0
   -5.8026    1.4737   -0.4283 C   0  0  0  0  0  0  0  0  0  0  0  0
   -0.5311    1.5677    0.2653 H   0  0  0  0  0  0  0  0  0  0  0  0
   -0.3817    0.3418    1.5250 H   0  0  0  0  0  0  0  0  0  0  0  0
   -1.3570   -1.3590   -0.0770 H   0  0  0  0  0  0  0  0  0  0  0  0
   -1.5176   -0.0916   -1.2958 H   0  0  0  0  0  0  0  0  0  0  0  0
   -2.9752    1.2022    0.2559 H   0  0  0  0  0  0  0  0  0  0  0  0
   -2.8269   -0.0661    1.4696 H   0  0  0  0  0  0  0  0  0  0  0  0
    2.1256    0.8800    1.6363 H   0  0  0  0  0  0  0  0  0  0  0  0
    1.8679    2.0830    0.3441 H   0  0  0  0  0  0  0  0  0  0  0  0
   -3.9405   -1.6901   -0.0239 H   0  0  0  0  0  0  0  0  0  0  0  0
   -4.0594   -0.4979   -1.3123 H   0  0  0  0  0  0  0  0  0  0  0  0
    1.9163    0.1761   -1.8665 H   0  0  0  0  0  0  0  0  0  0  0  0
    1.5445   -2.6115    1.5830 H   0  0  0  0  0  0  0  0  0  0  0  0
   -6.7784    1.9115   -0.2001 H   0  0  0  0  0  0  0  0  0  0  0  0
   -5.7457    1.3084   -1.5073 H   0  0  0  0  0  0  0  0  0  0  0  0
   -5.0323    2.1849   -0.1213 H   0  0  0  0  0  0  0  0  0  0  0  0
    5.2881    1.6007    0.2914 H   0  0  0  0  0  0  0  0  0  0  0  0
  1 13  1  0  0  0  0
  1 15  1  0  0  0  0
  2  7  1  0  0  0  0
  2 26  1  0  0  0  0
  3 12  1  0  0  0  0
  3 27  1  0  0  0  0
  4 12  2  0  0  0  0
  5 14  1  0  0  0  0
  5 31  1  0  0  0  0
  6 14  2  0  0  0  0
  7  8  1  0  0  0  0
  7 11  1  0  0  0  0
  7 12  1  0  0  0  0
  8  9  1  0  0  0  0
  8 16  1  0  0  0  0
  8 17  1  0  0  0  0
  9 10  1  0  0  0  0
  9 18  1  0  0  0  0
  9 19  1  0  0  0  0
 10 13  1  0  0  0  0
 10 20  1  0  0  0  0
 10 21  1  0  0  0  0
 11 14  1  0  0  0  0
 11 22  1  0  0  0  0
 11 23  1  0  0  0  0
 13 24  1  0  0  0  0
 13 25  1  0  0  0  0
 15 28  1  0  0  0  0
 15 29  1  0  0  0  0
 15 30  1  0  0  0  0
M  END
> <PUBCHEM_COMPOUND_CID>
44237182

> <PUBCHEM_CONFORMER_RMSD>
0.8

> <PUBCHEM_CONFORMER_DIVERSEORDER>
2
178
228
173
60
166
211
42
213
22
53
202
209
70
176
54
129
32
73
177
88
151
5
21
48
93
64
231
52
11
121
219
184
196
58
78
84
193
144
107
194
109
126
157
80
160
85
174
43
49
136
46
135
105
237
20
131
125
103
17
25
216
172
227
76
118
159
181
6
137
55
200
171
119
169
220
218
195
117
145
116
232
230
63
1
104
114
82
190
179
62
198
59
29
165
18
203
77
241
100
15
69
33
170
197
142
148
10
188
127
163
102
224
167
124
9
239
75
130
185
122
87
67
51
156
7
128
221
187
16
208
45
95
162
101
205
39
92
27
47
66
81
236
183
214
191
61
40
147
8
164
26
97
111
229
96
233
13
28
189
222
138
106
207
12
225
120
152
215
83
226
30
50
99
37
34
94
199
44
206
201
155
235
36
123
74
57
91
180
79
240
175
192
41
139
24
110
65
113
212
158
186
112
168
31
90
23
115
217
210
150
89
38
238
146
182
19
141
72
140
56
161
71
149
223
86
3
133
204
108
68
14
132
153
35
154
4
134
234
143
98

> <PUBCHEM_MMFF94_PARTIAL_CHARGES>
15
1 -0.46
11 0.06
12 0.66
13 0.23
14 0.66
15 0.23
2 -0.68
26 0.4
27 0.5
3 -0.65
31 0.5
4 -0.57
5 -0.65
6 -0.57
7 0.34

> <PUBCHEM_EFFECTIVE_ROTOR_COUNT>
8

> <PUBCHEM_PHARMACOPHORE_FEATURES>
10
1 15 hydrophobe
1 2 acceptor
1 2 donor
1 3 acceptor
1 4 acceptor
1 5 acceptor
1 6 acceptor
3 3 4 12 anion
3 5 6 14 anion
5 1 8 9 10 13 hydrophobe

> <PUBCHEM_HEAVY_ATOM_COUNT>
15

> <PUBCHEM_ATOM_DEF_STEREO_COUNT>
0

> <PUBCHEM_ATOM_UDEF_STEREO_COUNT>
1

> <PUBCHEM_BOND_DEF_STEREO_COUNT>
0

> <PUBCHEM_BOND_UDEF_STEREO_COUNT>
0

> <PUBCHEM_ISOTOPIC_ATOM_COUNT>
0

> <PUBCHEM_COMPONENT_COUNT>
1

> <PUBCHEM_CACTVS_TAUTO_COUNT>
1

> <PUBCHEM_CONFORMER_ID>
02A3017E00000002

> <PUBCHEM_MMFF94_ENERGY>
18.6333

> <PUBCHEM_FEATURE_SELFOVERLAP>
50.868

> <PUBCHEM_SHAPE_FINGERPRINT>
10219947 1 17704072867750500756
12500047 106 18409452449680753347
14123238 8 17346881135521889521
14251718 22 17968098586839434143
14252887 29 18060132163506578323
15375358 24 18060697278239542051
17834072 33 18187085053283754343
17834076 25 18202282494249402729
20279233 1 17274814758207315395
20645477 56 18343866620039229589
20645477 70 18335139856004853247
22485316 2 18409449194148043655
231179 274 18335139782568090989
23402539 116 16630254610734086191
23402655 69 18187085066158054693
23557571 272 17703790374782236469
300161 21 18410862066710990157
3060560 45 18113898256145097614
3545911 37 18410570687418434105
366044 4 18335421210753699218
4047638 21 18409164390059923768
4072396 5 18341626918483629936
449060 50 18411135823330906461
5104073 3 18272367629320998833
542803 24 17561362868599354989
81539 233 18413671296780704078

> <PUBCHEM_SHAPE_MULTIPOLES>
283.2
11.1
1.61
0.99
14.56
0.4
-0.04
-4.43
0.02
-0.94
0.08
-0.34
0.12
0.48

> <PUBCHEM_SHAPE_SELFOVERLAP>
529.708

> <PUBCHEM_SHAPE_VOLUME>
178.1

> <PUBCHEM_COORDINATE_TYPE>
2
5
10

$$$$

