11096
  -OEChem-07051213002D

 26 27  0     1  0  0  0  0  0999 V2000
    2.0000   -2.0755    0.0000 O   0  0  0  0  0  0  0  0  0  0  0  0
    4.8369    1.2095    0.0000 N   0  0  0  0  0  0  0  0  0  0  0  0
    5.3147   -0.7391    0.0000 C   0  0  3  0  0  0  0  0  0  0  0  0
    5.5736    0.2268    0.0000 C   0  0  3  0  0  0  0  0  0  0  0  0
    7.0194   -1.7837    0.0000 C   0  0  0  0  0  0  0  0  0  0  0  0
    7.4382   -0.2208    0.0000 C   0  0  0  0  0  0  0  0  0  0  0  0
    7.7966   -1.1544    0.0000 C   0  0  0  0  0  0  0  0  0  0  0  0
    3.7796   -1.9822    0.0000 C   0  0  0  0  0  0  0  0  0  0  0  0
    2.9705   -0.5810    0.0000 C   0  0  0  0  0  0  0  0  0  0  0  0
    2.8660   -1.5755    0.0000 C   0  0  0  0  0  0  0  0  0  0  0  0
    4.3369    2.0755    0.0000 C   0  0  0  0  0  0  0  0  0  0  0  0
    6.0012   -0.2378    0.0000 H   0  0  0  0  0  0  0  0  0  0  0  0
    6.0405    0.9371    0.0000 H   0  0  0  0  0  0  0  0  0  0  0  0
    8.0497   -0.1185    0.0000 H   0  0  0  0  0  0  0  0  0  0  0  0
    7.4598    0.3988    0.0000 H   0  0  0  0  0  0  0  0  0  0  0  0
    6.6377   -2.2723    0.0000 H   0  0  0  0  0  0  0  0  0  0  0  0
    7.4616   -2.2183    0.0000 H   0  0  0  0  0  0  0  0  0  0  0  0
    8.1342   -1.6744    0.0000 H   0  0  0  0  0  0  0  0  0  0  0  0
    8.3490   -0.8729    0.0000 H   0  0  0  0  0  0  0  0  0  0  0  0
    3.4419   -2.5022    0.0000 H   0  0  0  0  0  0  0  0  0  0  0  0
    4.2403   -2.3971    0.0000 H   0  0  0  0  0  0  0  0  0  0  0  0
    2.8683    0.0305    0.0000 H   0  0  0  0  0  0  0  0  0  0  0  0
    2.3508   -0.5999    0.0000 H   0  0  0  0  0  0  0  0  0  0  0  0
    4.8739    2.3855    0.0000 H   0  0  0  0  0  0  0  0  0  0  0  0
    4.0269    2.6124    0.0000 H   0  0  0  0  0  0  0  0  0  0  0  0
    3.8000    1.7655    0.0000 H   0  0  0  0  0  0  0  0  0  0  0  0
  1 10  2  0  0  0  0
  2  3  1  0  0  0  0
  2  4  1  0  0  0  0
  2 11  1  0  0  0  0
  3  5  1  0  0  0  0
  3  8  1  0  0  0  0
  3 12  1  0  0  0  0
  4  6  1  0  0  0  0
  4  9  1  0  0  0  0
  4 13  1  0  0  0  0
  5  7  1  0  0  0  0
  5 16  1  0  0  0  0
  5 17  1  0  0  0  0
  6  7  1  0  0  0  0
  6 14  1  0  0  0  0
  6 15  1  0  0  0  0
  7 18  1  0  0  0  0
  7 19  1  0  0  0  0
  8 10  1  0  0  0  0
  8 20  1  0  0  0  0
  8 21  1  0  0  0  0
  9 10  1  0  0  0  0
  9 22  1  0  0  0  0
  9 23  1  0  0  0  0
 11 24  1  0  0  0  0
 11 25  1  0  0  0  0
 11 26  1  0  0  0  0
M  END
> <PUBCHEM_COMPOUND_CID>
11096

> <PUBCHEM_COMPOUND_CANONICALIZED>
1

> <PUBCHEM_CACTVS_COMPLEXITY>
162

> <PUBCHEM_CACTVS_HBOND_ACCEPTOR>
2

> <PUBCHEM_CACTVS_HBOND_DONOR>
0

> <PUBCHEM_CACTVS_ROTATABLE_BOND>
0

> <PUBCHEM_CACTVS_SUBSKEYS>
AAADccByIAAAAAAAAAAAAAAAAAAAAAAAAAAsWAAAAAAYAAAAAAAAHgAAAAAACCzBgAQCAAMAAAAIAIAQAAAAAAAAAAAAAAEIAAAAABoAgAAEAAAAAACAAAEYiICAAAAAAAAAAAAAAAAAAAAAAAAAAAAAAA==

> <PUBCHEM_IUPAC_OPENEYE_NAME>
9-methyl-9-azabicyclo[3.3.1]nonan-3-one

> <PUBCHEM_IUPAC_CAS_NAME>
9-methyl-9-azabicyclo[3.3.1]nonan-3-one

> <PUBCHEM_IUPAC_NAME>
9-methyl-9-azabicyclo[3.3.1]nonan-3-one

> <PUBCHEM_IUPAC_SYSTEMATIC_NAME>
9-methyl-9-azabicyclo[3.3.1]nonan-3-one

> <PUBCHEM_IUPAC_TRADITIONAL_NAME>
9-methyl-9-azabicyclo[3.3.1]nonan-3-one

> <PUBCHEM_IUPAC_INCHI>
InChI=1S/C9H15NO/c1-10-7-3-2-4-8(10)6-9(11)5-7/h7-8H,2-6H2,1H3

> <PUBCHEM_IUPAC_INCHIKEY>
RHWSKVCZXBAWLZ-UHFFFAOYSA-N

> <PUBCHEM_XLOGP3_AA>
0.7

> <PUBCHEM_EXACT_MASS>
153.115364

> <PUBCHEM_MOLECULAR_FORMULA>
C9H15NO

> <PUBCHEM_MOLECULAR_WEIGHT>
153.2215

> <PUBCHEM_OPENEYE_CAN_SMILES>
CN1C2CCCC1CC(=O)C2

> <PUBCHEM_OPENEYE_ISO_SMILES>
CN1C2CCCC1CC(=O)C2

> <PUBCHEM_CACTVS_TPSA>
20.3

> <PUBCHEM_MONOISOTOPIC_WEIGHT>
153.115364

> <PUBCHEM_TOTAL_CHARGE>
0

> <PUBCHEM_HEAVY_ATOM_COUNT>
11

> <PUBCHEM_ATOM_DEF_STEREO_COUNT>
0

> <PUBCHEM_ATOM_UDEF_STEREO_COUNT>
2

> <PUBCHEM_BOND_DEF_STEREO_COUNT>
0

> <PUBCHEM_BOND_UDEF_STEREO_COUNT>
0

> <PUBCHEM_ISOTOPIC_ATOM_COUNT>
0

> <PUBCHEM_COMPONENT_COUNT>
1

> <PUBCHEM_CACTVS_TAUTO_COUNT>
2

> <PUBCHEM_COORDINATE_TYPE>
1
5
255

> <PUBCHEM_BONDANNOTATIONS>
3  12  3
4  13  3

$$$$

