16686
  -OEChem-07051213123D

 20 21  0     0  0  0  0  0  0999 V2000
    0.7377    2.3863    1.3911 Cl  0  0  0  0  0  0  0  0  0  0  0  0
   -0.7375    2.3864   -1.3910 Cl  0  0  0  0  0  0  0  0  0  0  0  0
   -0.4278   -0.6773    2.5116 Cl  0  0  0  0  0  0  0  0  0  0  0  0
    2.3212    1.8156   -1.6371 Cl  0  0  0  0  0  0  0  0  0  0  0  0
    0.4278   -0.6772   -2.5116 Cl  0  0  0  0  0  0  0  0  0  0  0  0
   -2.3212    1.8155    1.6372 Cl  0  0  0  0  0  0  0  0  0  0  0  0
    2.3633   -2.4553    1.8107 Cl  0  0  0  0  0  0  0  0  0  0  0  0
    4.0213   -0.9518   -0.6914 Cl  0  0  0  0  0  0  0  0  0  0  0  0
   -2.3633   -2.4552   -1.8108 Cl  0  0  0  0  0  0  0  0  0  0  0  0
   -4.0213   -0.9517    0.6914 Cl  0  0  0  0  0  0  0  0  0  0  0  0
    0.6376    0.8856    0.4225 C   0  0  0  0  0  0  0  0  0  0  0  0
   -0.6376    0.8857   -0.4225 C   0  0  0  0  0  0  0  0  0  0  0  0
    0.7439   -0.3219    1.3293 C   0  0  0  0  0  0  0  0  0  0  0  0
    1.8940    0.7211   -0.4056 C   0  0  0  0  0  0  0  0  0  0  0  0
   -0.7439   -0.3218   -1.3293 C   0  0  0  0  0  0  0  0  0  0  0  0
   -1.8940    0.7211    0.4056 C   0  0  0  0  0  0  0  0  0  0  0  0
    1.8494   -1.0247    1.0467 C   0  0  0  0  0  0  0  0  0  0  0  0
    2.5629   -0.3777   -0.0298 C   0  0  0  0  0  0  0  0  0  0  0  0
   -1.8494   -1.0247   -1.0468 C   0  0  0  0  0  0  0  0  0  0  0  0
   -2.5629   -0.3777    0.0298 C   0  0  0  0  0  0  0  0  0  0  0  0
  1 11  1  0  0  0  0
  2 12  1  0  0  0  0
  3 13  1  0  0  0  0
  4 14  1  0  0  0  0
  5 15  1  0  0  0  0
  6 16  1  0  0  0  0
  7 17  1  0  0  0  0
  8 18  1  0  0  0  0
  9 19  1  0  0  0  0
 10 20  1  0  0  0  0
 11 12  1  0  0  0  0
 11 13  1  0  0  0  0
 11 14  1  0  0  0  0
 12 15  1  0  0  0  0
 12 16  1  0  0  0  0
 13 17  2  0  0  0  0
 14 18  2  0  0  0  0
 15 19  2  0  0  0  0
 16 20  2  0  0  0  0
 17 18  1  0  0  0  0
 19 20  1  0  0  0  0
M  END
> <PUBCHEM_COMPOUND_CID>
16686

> <PUBCHEM_CONFORMER_RMSD>
0.6

> <PUBCHEM_CONFORMER_DIVERSEORDER>
1
2

> <PUBCHEM_MMFF94_PARTIAL_CHARGES>
16
1 -0.29
10 -0.14
11 0.57
12 0.57
17 0.14
18 0.14
19 0.14
2 -0.29
20 0.14
3 -0.14
4 -0.14
5 -0.14
6 -0.14
7 -0.14
8 -0.14
9 -0.14

> <PUBCHEM_EFFECTIVE_ROTOR_COUNT>
1.4

> <PUBCHEM_PHARMACOPHORE_FEATURES>
2
5 11 13 14 17 18 rings
5 12 15 16 19 20 rings

> <PUBCHEM_HEAVY_ATOM_COUNT>
20

> <PUBCHEM_ATOM_DEF_STEREO_COUNT>
0

> <PUBCHEM_ATOM_UDEF_STEREO_COUNT>
0

> <PUBCHEM_BOND_DEF_STEREO_COUNT>
0

> <PUBCHEM_BOND_UDEF_STEREO_COUNT>
0

> <PUBCHEM_ISOTOPIC_ATOM_COUNT>
0

> <PUBCHEM_COMPONENT_COUNT>
1

> <PUBCHEM_CACTVS_TAUTO_COUNT>
1

> <PUBCHEM_CONFORMER_ID>
0000412E00000001

> <PUBCHEM_MMFF94_ENERGY>
69.6704

> <PUBCHEM_FEATURE_SELFOVERLAP>
10.149

> <PUBCHEM_SHAPE_FINGERPRINT>
10863032 1 18117832420254977178
11578080 2 18194712369124302121
12423570 1 9222690842257345169
12716301 132 17459467930228205715
13140716 1 17241608317168575887
13299463 15 15841002198609448603
13464513 79 15338260244116853131
14787075 74 16316424021557918375
14817 1 11905664604536220367
15852999 172 17463438322403149205
16752209 62 18114187475322356541
16945 1 17749102275507457085
17349148 13 17560243660700180386
17357779 13 16626005951475370339
17492 54 14547871920332638519
19422 9 18338783576734228453
20600515 1 17313096445355262585
21731516 1 18338819860618250374
22802520 49 15337435833296639082
2334 1 17127298647369755200
23419403 2 15741033063840175320
23493267 7 17822568446940744250
23598291 2 18269533061752309780
238 59 17130733611404496063
465052 167 18115577155120518035
568465 68 15864065451619228854
5845 1 5726724893703048581
84936 31 17130687427673442191
90525 40 17838347628331171414

> <PUBCHEM_SHAPE_MULTIPOLES>
430.29
4.93
2.59
2.47
0
0.36
0
-2.18
0
0
0
0
-0.5
-1.47

> <PUBCHEM_SHAPE_SELFOVERLAP>
853.957

> <PUBCHEM_SHAPE_VOLUME>
256.5

> <PUBCHEM_COORDINATE_TYPE>
2
5
10

$$$$

