440106
  -OEChem-07051212483D

 54 57  0     1  0  0  0  0  0999 V2000
   -4.1472   -2.1550    1.1890 O   0  0  0  0  0  0  0  0  0  0  0  0
   -4.4566    2.1507    0.0169 O   0  0  0  0  0  0  0  0  0  0  0  0
    6.2516   -0.1638    1.0983 O   0  0  0  0  0  0  0  0  0  0  0  0
   -1.2999   -0.8172    0.1224 C   0  0  2  0  0  0  0  0  0  0  0  0
   -2.1002    0.4862   -0.0913 C   0  0  1  0  0  0  0  0  0  0  0  0
    0.1049   -0.7633   -0.4880 C   0  0  1  0  0  0  0  0  0  0  0  0
    0.8954    0.4121    0.1677 C   0  0  1  0  0  0  0  0  0  0  0  0
   -3.4292    0.0708    0.5763 C   0  0  2  0  0  0  0  0  0  0  0  0
    2.3751    0.5283   -0.3668 C   0  0  2  0  0  0  0  0  0  0  0  0
   -1.3474    1.6178    0.6210 C   0  0  0  0  0  0  0  0  0  0  0  0
    0.0999    1.7451    0.1133 C   0  0  0  0  0  0  0  0  0  0  0  0
   -2.2638   -1.9103   -0.3365 C   0  0  0  0  0  0  0  0  0  0  0  0
   -3.6453   -1.3849    0.1036 C   0  0  1  0  0  0  0  0  0  0  0  0
    0.8577   -2.0835   -0.2798 C   0  0  0  0  0  0  0  0  0  0  0  0
   -2.3158    0.8537   -1.5830 C   0  0  0  0  0  0  0  0  0  0  0  0
    3.0502   -0.8480   -0.3085 C   0  0  0  0  0  0  0  0  0  0  0  0
    2.2639   -2.0133   -0.8611 C   0  0  0  0  0  0  0  0  0  0  0  0
    3.1434    1.5364    0.5367 C   0  0  0  0  0  0  0  0  0  0  0  0
    2.4242    1.0281   -1.8285 C   0  0  0  0  0  0  0  0  0  0  0  0
   -4.5964    0.9491    0.2394 C   0  0  0  0  0  0  0  0  0  0  0  0
    4.6543    1.4678    0.3791 C   0  0  0  0  0  0  0  0  0  0  0  0
    4.2850   -1.0590    0.1773 C   0  0  0  0  0  0  0  0  0  0  0  0
    5.1431    0.0642    0.6182 C   0  0  0  0  0  0  0  0  0  0  0  0
   -5.9470    0.2879    0.1842 C   0  0  0  0  0  0  0  0  0  0  0  0
   -1.1662   -0.9675    1.2072 H   0  0  0  0  0  0  0  0  0  0  0  0
    0.0249   -0.5999   -1.5677 H   0  0  0  0  0  0  0  0  0  0  0  0
    0.9717    0.1603    1.2383 H   0  0  0  0  0  0  0  0  0  0  0  0
   -3.3360    0.0998    1.6710 H   0  0  0  0  0  0  0  0  0  0  0  0
   -1.3217    1.4306    1.7024 H   0  0  0  0  0  0  0  0  0  0  0  0
   -1.8620    2.5762    0.4873 H   0  0  0  0  0  0  0  0  0  0  0  0
    0.0824    2.1342   -0.9097 H   0  0  0  0  0  0  0  0  0  0  0  0
    0.5994    2.5047    0.7245 H   0  0  0  0  0  0  0  0  0  0  0  0
   -2.2274   -2.0158   -1.4267 H   0  0  0  0  0  0  0  0  0  0  0  0
   -2.0221   -2.8811    0.1079 H   0  0  0  0  0  0  0  0  0  0  0  0
   -4.3393   -1.4964   -0.7333 H   0  0  0  0  0  0  0  0  0  0  0  0
    0.3191   -2.9065   -0.7638 H   0  0  0  0  0  0  0  0  0  0  0  0
    0.9113   -2.3239    0.7899 H   0  0  0  0  0  0  0  0  0  0  0  0
   -1.3794    0.8859   -2.1461 H   0  0  0  0  0  0  0  0  0  0  0  0
   -2.9696    0.1431   -2.0988 H   0  0  0  0  0  0  0  0  0  0  0  0
   -2.7630    1.8467   -1.6945 H   0  0  0  0  0  0  0  0  0  0  0  0
    2.2053   -1.9168   -1.9523 H   0  0  0  0  0  0  0  0  0  0  0  0
    2.7718   -2.9656   -0.6649 H   0  0  0  0  0  0  0  0  0  0  0  0
    2.9038    1.3385    1.5909 H   0  0  0  0  0  0  0  0  0  0  0  0
    2.8203    2.5643    0.3331 H   0  0  0  0  0  0  0  0  0  0  0  0
    3.4401    0.9766   -2.2374 H   0  0  0  0  0  0  0  0  0  0  0  0
    1.7863    0.4357   -2.4917 H   0  0  0  0  0  0  0  0  0  0  0  0
    2.1018    2.0716   -1.9090 H   0  0  0  0  0  0  0  0  0  0  0  0
    5.1223    2.1293    1.1165 H   0  0  0  0  0  0  0  0  0  0  0  0
    4.9753    1.7877   -0.6171 H   0  0  0  0  0  0  0  0  0  0  0  0
    4.7246   -2.0502    0.2141 H   0  0  0  0  0  0  0  0  0  0  0  0
   -3.4815   -2.1478    1.8978 H   0  0  0  0  0  0  0  0  0  0  0  0
   -6.0826   -0.2423   -0.7601 H   0  0  0  0  0  0  0  0  0  0  0  0
   -6.0887   -0.3783    1.0380 H   0  0  0  0  0  0  0  0  0  0  0  0
   -6.7177    1.0632    0.2495 H   0  0  0  0  0  0  0  0  0  0  0  0
  1 13  1  0  0  0  0
  1 51  1  0  0  0  0
  2 20  2  0  0  0  0
  3 23  2  0  0  0  0
  4  5  1  0  0  0  0
  4  6  1  0  0  0  0
  4 12  1  0  0  0  0
  4 25  1  0  0  0  0
  5  8  1  0  0  0  0
  5 10  1  0  0  0  0
  5 15  1  0  0  0  0
  6  7  1  0  0  0  0
  6 14  1  0  0  0  0
  6 26  1  0  0  0  0
  7  9  1  0  0  0  0
  7 11  1  0  0  0  0
  7 27  1  0  0  0  0
  8 13  1  0  0  0  0
  8 20  1  0  0  0  0
  8 28  1  0  0  0  0
  9 16  1  0  0  0  0
  9 18  1  0  0  0  0
  9 19  1  0  0  0  0
 10 11  1  0  0  0  0
 10 29  1  0  0  0  0
 10 30  1  0  0  0  0
 11 31  1  0  0  0  0
 11 32  1  0  0  0  0
 12 13  1  0  0  0  0
 12 33  1  0  0  0  0
 12 34  1  0  0  0  0
 13 35  1  0  0  0  0
 14 17  1  0  0  0  0
 14 36  1  0  0  0  0
 14 37  1  0  0  0  0
 15 38  1  0  0  0  0
 15 39  1  0  0  0  0
 15 40  1  0  0  0  0
 16 17  1  0  0  0  0
 16 22  2  0  0  0  0
 17 41  1  0  0  0  0
 17 42  1  0  0  0  0
 18 21  1  0  0  0  0
 18 43  1  0  0  0  0
 18 44  1  0  0  0  0
 19 45  1  0  0  0  0
 19 46  1  0  0  0  0
 19 47  1  0  0  0  0
 20 24  1  0  0  0  0
 21 23  1  0  0  0  0
 21 48  1  0  0  0  0
 21 49  1  0  0  0  0
 22 23  1  0  0  0  0
 22 50  1  0  0  0  0
 24 52  1  0  0  0  0
 24 53  1  0  0  0  0
 24 54  1  0  0  0  0
M  END
> <PUBCHEM_COMPOUND_CID>
440106

> <PUBCHEM_CONFORMER_RMSD>
0.6

> <PUBCHEM_CONFORMER_DIVERSEORDER>
3
4
2
1

> <PUBCHEM_MMFF94_PARTIAL_CHARGES>
15
1 -0.68
13 0.28
16 -0.28
17 0.14
2 -0.57
20 0.45
21 0.06
22 -0.14
23 0.49
24 0.06
3 -0.57
50 0.15
51 0.4
8 0.06
9 0.14

> <PUBCHEM_EFFECTIVE_ROTOR_COUNT>
2.8

> <PUBCHEM_PHARMACOPHORE_FEATURES>
8
1 1 acceptor
1 1 donor
1 2 acceptor
1 3 acceptor
5 4 5 8 12 13 rings
6 4 5 6 7 10 11 rings
6 6 7 9 14 16 17 rings
6 9 16 18 21 22 23 rings

> <PUBCHEM_HEAVY_ATOM_COUNT>
24

> <PUBCHEM_ATOM_DEF_STEREO_COUNT>
6

> <PUBCHEM_ATOM_UDEF_STEREO_COUNT>
1

> <PUBCHEM_BOND_DEF_STEREO_COUNT>
0

> <PUBCHEM_BOND_UDEF_STEREO_COUNT>
0

> <PUBCHEM_ISOTOPIC_ATOM_COUNT>
0

> <PUBCHEM_COMPONENT_COUNT>
1

> <PUBCHEM_CACTVS_TAUTO_COUNT>
15

> <PUBCHEM_CONFORMER_ID>
0006B72A00000003

> <PUBCHEM_MMFF94_ENERGY>
76.151

> <PUBCHEM_FEATURE_SELFOVERLAP>
40.691

> <PUBCHEM_SHAPE_FINGERPRINT>
10 15 18410017602931149688
10062212 137 18412830153163459575
10366900 7 6771857476624465285
11132069 177 18411975867004032447
11578080 2 16986043568163536438
12236239 1 18131350787549965608
12403259 415 18187365372988278000
12403814 3 17917993880321209525
12507557 5 18334858307380293112
12633257 1 17346597456641452030
12788726 201 16805880813855755569
13140716 1 18336267816962936104
13214271 11 18334014986673435543
13224815 77 18334008384934213582
13583140 156 17967817119946275329
13675066 3 18411415102977981122
14178342 30 18410003368871661416
14341114 176 18340203085348863962
14790565 3 17905884782734916524
15196674 1 18408884018694798194
15375358 24 18261109690381565167
15788980 27 16845577508534179005
17349148 13 18201718427662389784
17980427 23 18341898433579062908
1813 80 17131826590455002500
19141452 34 18411418393413514415
19784866 9 18408605881118588930
200 152 17967537878400063847
20645477 70 17749104538612285607
20715895 44 18197219359194563389
21033648 29 18041857129417945314
21267235 1 18409156727617078855
21279426 13 18191866944726238701
21421861 104 18057893630889400306
21452121 103 18261393394683893514
21859007 373 17558279988229600773
22182313 1 18127977609733642924
23402539 116 18187092732331799852
23559900 14 18191020299625640310
26918003 58 18410576188527865368
296302 2 17748829617972010966
3004659 81 18272081704325723636
335352 9 18408602595241728340
34797466 226 14996285777626668176
34934 24 18334017219903675911
350125 39 18410012118332089936
3545911 37 18408601482802993788
3680242 22 18268146629287320434
4073 2 18130501951403740594
4214541 1 18411419509746451649
4340502 62 18408880759183794719
5104073 3 18410571786207519130
542803 24 18272931613839454076
9709674 26 18261668293780896143

> <PUBCHEM_SHAPE_MULTIPOLES>
476.3
11.76
2.22
1.07
0.85
0.45
0.34
-1.34
-3.25
-0.61
-0.02
0.29
-0.1
0.5

> <PUBCHEM_SHAPE_SELFOVERLAP>
1022.103

> <PUBCHEM_SHAPE_VOLUME>
261.5

> <PUBCHEM_COORDINATE_TYPE>
2
5
10

$$$$

