447865
  -OEChem-07051213022D

 75 76  0     1  0  0  0  0  0999 V2000
    6.6272    3.9514    0.0000 S   0  0  0  0  0  0  0  0  0  0  0  0
    5.7130   -2.2690    0.0000 O   0  0  0  0  0  0  0  0  0  0  0  0
    2.4384   -1.8122    0.0000 O   0  0  0  0  0  0  0  0  0  0  0  0
    3.2454   -3.7604    0.0000 O   0  0  0  0  0  0  0  0  0  0  0  0
    5.3952   -0.5874    0.0000 O   0  0  0  0  0  0  0  0  0  0  0  0
    4.5292    0.9126    0.0000 O   0  0  0  0  0  0  0  0  0  0  0  0
    7.9363    3.0004    0.0000 N   0  0  0  0  0  0  0  0  0  0  0  0
    4.1114   -2.2604    0.0000 C   0  0  0  0  0  0  0  0  0  0  0  0
    4.9775   -3.7604    0.0000 C   0  0  2  0  0  0  0  0  0  0  0  0
    5.8435   -3.2604    0.0000 C   0  0  2  0  0  0  0  0  0  0  0  0
    6.8094   -3.5193    0.0000 C   0  0  2  0  0  0  0  0  0  0  0  0
    4.1114   -3.2604    0.0000 C   0  0  0  0  0  0  0  0  0  0  0  0
    3.4043   -1.5533    0.0000 C   0  0  2  0  0  0  0  0  0  0  0  0
    7.5165   -2.8122    0.0000 C   0  0  0  0  0  0  0  0  0  0  0  0
    5.0353   -2.6431    0.0000 C   0  0  0  0  0  0  0  0  0  0  0  0
    4.9048   -1.6517    0.0000 C   0  0  0  0  0  0  0  0  0  0  0  0
    4.9775   -4.7604    0.0000 C   0  0  0  0  0  0  0  0  0  0  0  0
    8.4824   -2.5533    0.0000 C   0  0  0  0  0  0  0  0  0  0  0  0
    7.0682   -4.4852    0.0000 C   0  0  0  0  0  0  0  0  0  0  0  0
    3.6632   -0.5874    0.0000 C   0  0  0  0  0  0  0  0  0  0  0  0
    8.8593   -1.5874    0.0000 C   0  0  0  0  0  0  0  0  0  0  0  0
    4.5292   -0.0874    0.0000 C   0  0  0  0  0  0  0  0  0  0  0  0
    8.8593   -0.5874    0.0000 C   0  0  0  0  0  0  0  0  0  0  0  0
    6.2612   -0.0874    0.0000 C   0  0  1  0  0  0  0  0  0  0  0  0
    7.1272   -0.5874    0.0000 C   0  0  0  0  0  0  0  0  0  0  0  0
    7.9933   -0.0874    0.0000 C   0  0  0  0  0  0  0  0  0  0  0  0
    9.7253   -0.0874    0.0000 C   0  0  0  0  0  0  0  0  0  0  0  0
    6.2612    0.9126    0.0000 C   0  0  0  0  0  0  0  0  0  0  0  0
    5.3952    1.4126    0.0000 C   0  0  0  0  0  0  0  0  0  0  0  0
    7.1272    1.4126    0.0000 C   0  0  0  0  0  0  0  0  0  0  0  0
    7.1272    2.4126    0.0000 C   0  0  0  0  0  0  0  0  0  0  0  0
    6.3182    3.0004    0.0000 C   0  0  0  0  0  0  0  0  0  0  0  0
    7.6272    3.9514    0.0000 C   0  0  0  0  0  0  0  0  0  0  0  0
    8.2150    4.7604    0.0000 C   0  0  0  0  0  0  0  0  0  0  0  0
    5.5144   -4.0704    0.0000 H   0  0  0  0  0  0  0  0  0  0  0  0
    5.2874   -2.9862    0.0000 H   0  0  0  0  0  0  0  0  0  0  0  0
    6.3710   -3.9577    0.0000 H   0  0  0  0  0  0  0  0  0  0  0  0
    2.9659   -1.1149    0.0000 H   0  0  0  0  0  0  0  0  0  0  0  0
    7.5706   -2.1945    0.0000 H   0  0  0  0  0  0  0  0  0  0  0  0
    7.8265   -3.3491    0.0000 H   0  0  0  0  0  0  0  0  0  0  0  0
    4.7980   -3.2159    0.0000 H   0  0  0  0  0  0  0  0  0  0  0  0
    5.6081   -2.8804    0.0000 H   0  0  0  0  0  0  0  0  0  0  0  0
    5.2726   -2.0703    0.0000 H   0  0  0  0  0  0  0  0  0  0  0  0
    5.2822   -2.1436    0.0000 H   0  0  0  0  0  0  0  0  0  0  0  0
    5.3967   -1.2743    0.0000 H   0  0  0  0  0  0  0  0  0  0  0  0
    4.5274   -1.1598    0.0000 H   0  0  0  0  0  0  0  0  0  0  0  0
    4.3575   -4.7604    0.0000 H   0  0  0  0  0  0  0  0  0  0  0  0
    4.9775   -5.3804    0.0000 H   0  0  0  0  0  0  0  0  0  0  0  0
    5.5975   -4.7604    0.0000 H   0  0  0  0  0  0  0  0  0  0  0  0
    8.5138   -3.1726    0.0000 H   0  0  0  0  0  0  0  0  0  0  0  0
    9.0945   -2.6526    0.0000 H   0  0  0  0  0  0  0  0  0  0  0  0
    6.4694   -4.6457    0.0000 H   0  0  0  0  0  0  0  0  0  0  0  0
    7.2287   -5.0841    0.0000 H   0  0  0  0  0  0  0  0  0  0  0  0
    7.6671   -4.3247    0.0000 H   0  0  0  0  0  0  0  0  0  0  0  0
    3.5027    0.0115    0.0000 H   0  0  0  0  0  0  0  0  0  0  0  0
    3.0431   -0.5874    0.0000 H   0  0  0  0  0  0  0  0  0  0  0  0
    9.3037   -2.0197    0.0000 H   0  0  0  0  0  0  0  0  0  0  0  0
    8.2500   -1.4728    0.0000 H   0  0  0  0  0  0  0  0  0  0  0  0
    6.2048   -1.8916    0.0000 H   0  0  0  0  0  0  0  0  0  0  0  0
    2.0000   -1.3738    0.0000 H   0  0  0  0  0  0  0  0  0  0  0  0
    5.7243    0.2226    0.0000 H   0  0  0  0  0  0  0  0  0  0  0  0
    6.7287   -1.0624    0.0000 H   0  0  0  0  0  0  0  0  0  0  0  0
    7.5258   -1.0624    0.0000 H   0  0  0  0  0  0  0  0  0  0  0  0
    7.9933    0.5326    0.0000 H   0  0  0  0  0  0  0  0  0  0  0  0
   10.0353   -0.6243    0.0000 H   0  0  0  0  0  0  0  0  0  0  0  0
   10.2623    0.2226    0.0000 H   0  0  0  0  0  0  0  0  0  0  0  0
    9.4153    0.4495    0.0000 H   0  0  0  0  0  0  0  0  0  0  0  0
    5.7052    1.9495    0.0000 H   0  0  0  0  0  0  0  0  0  0  0  0
    4.8583    1.7226    0.0000 H   0  0  0  0  0  0  0  0  0  0  0  0
    5.0852    0.8757    0.0000 H   0  0  0  0  0  0  0  0  0  0  0  0
    7.6642    1.1026    0.0000 H   0  0  0  0  0  0  0  0  0  0  0  0
    5.7286    2.8088    0.0000 H   0  0  0  0  0  0  0  0  0  0  0  0
    8.7166    4.3960    0.0000 H   0  0  0  0  0  0  0  0  0  0  0  0
    8.5795    5.2620    0.0000 H   0  0  0  0  0  0  0  0  0  0  0  0
    7.7134    5.1249    0.0000 H   0  0  0  0  0  0  0  0  0  0  0  0
  1 32  1  0  0  0  0
  1 33  1  0  0  0  0
 10  2  1  1  0  0  0
  2 59  1  0  0  0  0
 13  3  1  1  0  0  0
  3 60  1  0  0  0  0
  4 12  2  0  0  0  0
  5 22  1  0  0  0  0
  5 24  1  0  0  0  0
  6 22  2  0  0  0  0
  7 31  1  0  0  0  0
  7 33  2  0  0  0  0
  8 12  1  0  0  0  0
  8 13  1  0  0  0  0
  8 15  1  0  0  0  0
  8 16  1  0  0  0  0
  9 10  1  0  0  0  0
  9 12  1  0  0  0  0
  9 17  1  1  0  0  0
  9 35  1  0  0  0  0
 10 11  1  0  0  0  0
 10 36  1  0  0  0  0
 11 14  1  0  0  0  0
 11 19  1  6  0  0  0
 11 37  1  0  0  0  0
 13 20  1  0  0  0  0
 13 38  1  0  0  0  0
 14 18  1  0  0  0  0
 14 39  1  0  0  0  0
 14 40  1  0  0  0  0
 15 41  1  0  0  0  0
 15 42  1  0  0  0  0
 15 43  1  0  0  0  0
 16 44  1  0  0  0  0
 16 45  1  0  0  0  0
 16 46  1  0  0  0  0
 17 47  1  0  0  0  0
 17 48  1  0  0  0  0
 17 49  1  0  0  0  0
 18 21  1  0  0  0  0
 18 50  1  0  0  0  0
 18 51  1  0  0  0  0
 19 52  1  0  0  0  0
 19 53  1  0  0  0  0
 19 54  1  0  0  0  0
 20 22  1  0  0  0  0
 20 55  1  0  0  0  0
 20 56  1  0  0  0  0
 21 23  1  0  0  0  0
 21 57  1  0  0  0  0
 21 58  1  0  0  0  0
 23 26  2  0  0  0  0
 23 27  1  0  0  0  0
 24 25  1  0  0  0  0
 24 28  1  6  0  0  0
 24 61  1  0  0  0  0
 25 26  1  0  0  0  0
 25 62  1  0  0  0  0
 25 63  1  0  0  0  0
 26 64  1  0  0  0  0
 27 65  1  0  0  0  0
 27 66  1  0  0  0  0
 27 67  1  0  0  0  0
 28 29  1  0  0  0  0
 28 30  2  0  0  0  0
 29 68  1  0  0  0  0
 29 69  1  0  0  0  0
 29 70  1  0  0  0  0
 30 31  1  0  0  0  0
 30 71  1  0  0  0  0
 31 32  2  0  0  0  0
 32 72  1  0  0  0  0
 33 34  1  0  0  0  0
 34 73  1  0  0  0  0
 34 74  1  0  0  0  0
 34 75  1  0  0  0  0
M  END
> <PUBCHEM_COMPOUND_CID>
447865

> <PUBCHEM_COMPOUND_CANONICALIZED>
1

> <PUBCHEM_CACTVS_COMPLEXITY>
777

> <PUBCHEM_CACTVS_HBOND_ACCEPTOR>
7

> <PUBCHEM_CACTVS_HBOND_DONOR>
2

> <PUBCHEM_CACTVS_ROTATABLE_BOND>
2

> <PUBCHEM_CACTVS_SUBSKEYS>
AAADcfB6OABAAAAAAAAAAAAAAAAAAWAAAAAAAAAAAAAAAAABgAAAHgQACAAADxyl1gKiiRIIFgisA6TyTACC8KBhCjgAiBUQIBgIFBagIQACUAAF4ACooAeI7uSvAAAAAAAAAAAAAAAAAAAAAAAAAAAAAA==

> <PUBCHEM_IUPAC_OPENEYE_NAME>
(4S,7R,8S,9S,13Z,16S)-4,8-dihydroxy-5,5,7,9,13-pentamethyl-16-[(E)-1-methyl-2-(2-methylthiazol-4-yl)vinyl]-1-oxacyclohexadec-13-ene-2,6-dione

> <PUBCHEM_IUPAC_CAS_NAME>
(4S,7R,8S,9S,13Z,16S)-4,8-dihydroxy-5,5,7,9,13-pentamethyl-16-[(E)-1-(2-methyl-4-thiazolyl)prop-1-en-2-yl]-1-oxacyclohexadec-13-ene-2,6-dione

> <PUBCHEM_IUPAC_NAME>
(4S,7R,8S,9S,13Z,16S)-4,8-dihydroxy-5,5,7,9,13-pentamethyl-16-[(E)-1-(2-methyl-1,3-thiazol-4-yl)prop-1-en-2-yl]-1-oxacyclohexadec-13-ene-2,6-dione

> <PUBCHEM_IUPAC_SYSTEMATIC_NAME>
(4S,7R,8S,9S,13Z,16S)-5,5,7,9,13-pentamethyl-16-[(E)-1-(2-methyl-1,3-thiazol-4-yl)prop-1-en-2-yl]-4,8-bis(oxidanyl)-1-oxacyclohexadec-13-ene-2,6-dione

> <PUBCHEM_IUPAC_TRADITIONAL_NAME>
(4S,7R,8S,9S,13Z,16S)-4,8-dihydroxy-5,5,7,9,13-pentamethyl-16-[(E)-1-methyl-2-(2-methylthiazol-4-yl)vinyl]-1-oxacyclohexadec-13-ene-2,6-quinone

> <PUBCHEM_IUPAC_INCHI>
InChI=1S/C27H41NO5S/c1-16-9-8-10-17(2)25(31)19(4)26(32)27(6,7)23(29)14-24(30)33-22(12-11-16)18(3)13-21-15-34-20(5)28-21/h11,13,15,17,19,22-23,25,29,31H,8-10,12,14H2,1-7H3/b16-11-,18-13+/t17-,19+,22-,23-,25-/m0/s1

> <PUBCHEM_IUPAC_INCHIKEY>
XOZIUKBZLSUILX-GIQCAXHBSA-N

> <PUBCHEM_XLOGP3_AA>
5

> <PUBCHEM_EXACT_MASS>
491.270544

> <PUBCHEM_MOLECULAR_FORMULA>
C27H41NO5S

> <PUBCHEM_MOLECULAR_WEIGHT>
491.68314

> <PUBCHEM_OPENEYE_CAN_SMILES>
CC1CCCC(=CCC(OC(=O)CC(C(C(=O)C(C1O)C)(C)C)O)C(=CC2=CSC(=N2)C)C)C

> <PUBCHEM_OPENEYE_ISO_SMILES>
C[C@H]1CCC/C(=C\C[C@H](OC(=O)C[C@@H](C(C(=O)[C@@H]([C@H]1O)C)(C)C)O)/C(=C/C2=CSC(=N2)C)/C)/C

> <PUBCHEM_CACTVS_TPSA>
125

> <PUBCHEM_MONOISOTOPIC_WEIGHT>
491.270544

> <PUBCHEM_TOTAL_CHARGE>
0

> <PUBCHEM_HEAVY_ATOM_COUNT>
34

> <PUBCHEM_ATOM_DEF_STEREO_COUNT>
5

> <PUBCHEM_ATOM_UDEF_STEREO_COUNT>
0

> <PUBCHEM_BOND_DEF_STEREO_COUNT>
2

> <PUBCHEM_BOND_UDEF_STEREO_COUNT>
0

> <PUBCHEM_ISOTOPIC_ATOM_COUNT>
0

> <PUBCHEM_COMPONENT_COUNT>
1

> <PUBCHEM_CACTVS_TAUTO_COUNT>
4

> <PUBCHEM_COORDINATE_TYPE>
1
5
255

> <PUBCHEM_BONDANNOTATIONS>
1  32  8
1  33  8
11  19  6
10  2  5
24  28  6
13  3  5
31  32  8
7  31  8
7  33  8
9  17  5

$$$$

