11715
  -OEChem-06261206013D

 10  9  0     0  0  0  0  0  0999 V2000
   -2.2894    0.0434    0.0139 Br  0  0  0  0  0  0  0  0  0  0  0  0
    0.4116    1.3042   -0.0067 O   0  0  0  0  0  0  0  0  0  0  0  0
    0.5487    0.0821   -0.0035 C   0  0  0  0  0  0  0  0  0  0  0  0
   -0.5978   -0.9000   -0.0174 C   0  0  0  0  0  0  0  0  0  0  0  0
    1.9269   -0.5297    0.0136 C   0  0  0  0  0  0  0  0  0  0  0  0
   -0.5653   -1.5342    0.8708 H   0  0  0  0  0  0  0  0  0  0  0  0
   -0.5747   -1.4974   -0.9309 H   0  0  0  0  0  0  0  0  0  0  0  0
    2.0460   -1.1388    0.9131 H   0  0  0  0  0  0  0  0  0  0  0  0
    2.6826    0.2608    0.0197 H   0  0  0  0  0  0  0  0  0  0  0  0
    2.0659   -1.1438   -0.8795 H   0  0  0  0  0  0  0  0  0  0  0  0
  1  4  1  0  0  0  0
  2  3  2  0  0  0  0
  3  4  1  0  0  0  0
  3  5  1  0  0  0  0
  4  6  1  0  0  0  0
  4  7  1  0  0  0  0
  5  8  1  0  0  0  0
  5  9  1  0  0  0  0
  5 10  1  0  0  0  0
M  END
> <PUBCHEM_COMPOUND_CID>
11715

> <PUBCHEM_CONFORMER_RMSD>
0.4

> <PUBCHEM_CONFORMER_DIVERSEORDER>
1
4
5
6
3
2

> <PUBCHEM_MMFF94_PARTIAL_CHARGES>
5
1 -0.23
2 -0.57
3 0.45
4 0.29
5 0.06

> <PUBCHEM_EFFECTIVE_ROTOR_COUNT>
1

> <PUBCHEM_PHARMACOPHORE_FEATURES>
2
1 1 hydrophobe
1 2 acceptor

> <PUBCHEM_HEAVY_ATOM_COUNT>
5

> <PUBCHEM_ATOM_DEF_STEREO_COUNT>
0

> <PUBCHEM_ATOM_UDEF_STEREO_COUNT>
0

> <PUBCHEM_BOND_DEF_STEREO_COUNT>
0

> <PUBCHEM_BOND_UDEF_STEREO_COUNT>
0

> <PUBCHEM_ISOTOPIC_ATOM_COUNT>
0

> <PUBCHEM_COMPONENT_COUNT>
1

> <PUBCHEM_CACTVS_TAUTO_COUNT>
3

> <PUBCHEM_CONFORMER_ID>
00002DC300000001

> <PUBCHEM_MMFF94_ENERGY>
4.3539

> <PUBCHEM_FEATURE_SELFOVERLAP>
10.148

> <PUBCHEM_SHAPE_FINGERPRINT>
139733 1 9223226351680230978
16714656 1 18338231673526298414
20096714 4 18338515223188354315
21015797 1 9004758897447203042
21040471 1 18266458711239585351
24536 1 18124891061735765691
29004967 10 18341609330270831610
5460574 1 9295289439044692483
5943 1 11922138355574828848

> <PUBCHEM_SHAPE_MULTIPOLES>
102.97
2.85
1.08
0.63
0.82
0.19
0
-0.26
-0.02
-0.09
0
0.07
-0.02
-0.01

> <PUBCHEM_SHAPE_SELFOVERLAP>
168.097

> <PUBCHEM_SHAPE_VOLUME>
73.2

> <PUBCHEM_COORDINATE_TYPE>
2
5
10

$$$$

