251527
  -OEChem-07051213063D

 36 38  0     1  0  0  0  0  0999 V2000
    5.2808   -0.3128   -1.0035 O   0  0  0  0  0  0  0  0  0  0  0  0
   -5.2051   -1.3088   -1.0697 O   0  0  0  0  0  0  0  0  0  0  0  0
    1.4229   -0.4641    0.5455 C   0  0  1  0  0  0  0  0  0  0  0  0
   -0.5738    1.0998    1.1533 C   0  0  1  0  0  0  0  0  0  0  0  0
    0.5413    0.1550    1.6554 C   0  0  0  0  0  0  0  0  0  0  0  0
    1.8768    0.5686   -0.4654 C   0  0  0  0  0  0  0  0  0  0  0  0
    0.0644    2.1587    0.2268 C   0  0  0  0  0  0  0  0  0  0  0  0
    0.8189    1.5304   -0.9419 C   0  0  0  0  0  0  0  0  0  0  0  0
    2.6061   -1.1947    1.2050 C   0  0  0  0  0  0  0  0  0  0  0  0
    3.6535   -1.6107    0.1869 C   0  0  0  0  0  0  0  0  0  0  0  0
   -1.8199    0.4517    0.5548 C   0  0  0  0  0  0  0  0  0  0  0  0
    3.1254    0.6259   -0.9548 C   0  0  0  0  0  0  0  0  0  0  0  0
    4.1248   -0.4103   -0.5974 C   0  0  0  0  0  0  0  0  0  0  0  0
   -2.8838    1.2480    0.1373 C   0  0  0  0  0  0  0  0  0  0  0  0
   -1.8886   -0.9340    0.4291 C   0  0  0  0  0  0  0  0  0  0  0  0
   -4.0225    0.6555   -0.4087 C   0  0  0  0  0  0  0  0  0  0  0  0
   -3.0271   -1.5265   -0.1171 C   0  0  0  0  0  0  0  0  0  0  0  0
   -4.0941   -0.7317   -0.5358 C   0  0  0  0  0  0  0  0  0  0  0  0
    0.8470   -1.2091   -0.0148 H   0  0  0  0  0  0  0  0  0  0  0  0
   -0.9410    1.6302    2.0447 H   0  0  0  0  0  0  0  0  0  0  0  0
    1.1912    0.7532    2.3118 H   0  0  0  0  0  0  0  0  0  0  0  0
    0.1324   -0.6310    2.3023 H   0  0  0  0  0  0  0  0  0  0  0  0
    0.7668    2.7638    0.8166 H   0  0  0  0  0  0  0  0  0  0  0  0
   -0.6817    2.8604   -0.1613 H   0  0  0  0  0  0  0  0  0  0  0  0
    1.2582    2.3311   -1.5493 H   0  0  0  0  0  0  0  0  0  0  0  0
    0.1189    0.9927   -1.5930 H   0  0  0  0  0  0  0  0  0  0  0  0
    2.2437   -2.0778    1.7449 H   0  0  0  0  0  0  0  0  0  0  0  0
    3.0812   -0.5417    1.9498 H   0  0  0  0  0  0  0  0  0  0  0  0
    3.2555   -2.3519   -0.5144 H   0  0  0  0  0  0  0  0  0  0  0  0
    4.5117   -2.0506    0.7062 H   0  0  0  0  0  0  0  0  0  0  0  0
    3.4307    1.3812   -1.6705 H   0  0  0  0  0  0  0  0  0  0  0  0
   -2.8549    2.3286    0.2438 H   0  0  0  0  0  0  0  0  0  0  0  0
   -1.1056   -1.6023    0.7635 H   0  0  0  0  0  0  0  0  0  0  0  0
   -4.8521    1.2796   -0.7298 H   0  0  0  0  0  0  0  0  0  0  0  0
   -3.0739   -2.6087   -0.2054 H   0  0  0  0  0  0  0  0  0  0  0  0
   -5.0836   -2.2737   -1.0826 H   0  0  0  0  0  0  0  0  0  0  0  0
  1 13  2  0  0  0  0
  2 18  1  0  0  0  0
  2 36  1  0  0  0  0
  3  5  1  0  0  0  0
  3  6  1  0  0  0  0
  3  9  1  0  0  0  0
  3 19  1  0  0  0  0
  4  5  1  0  0  0  0
  4  7  1  0  0  0  0
  4 11  1  0  0  0  0
  4 20  1  0  0  0  0
  5 21  1  0  0  0  0
  5 22  1  0  0  0  0
  6  8  1  0  0  0  0
  6 12  2  0  0  0  0
  7  8  1  0  0  0  0
  7 23  1  0  0  0  0
  7 24  1  0  0  0  0
  8 25  1  0  0  0  0
  8 26  1  0  0  0  0
  9 10  1  0  0  0  0
  9 27  1  0  0  0  0
  9 28  1  0  0  0  0
 10 13  1  0  0  0  0
 10 29  1  0  0  0  0
 10 30  1  0  0  0  0
 11 14  2  0  0  0  0
 11 15  1  0  0  0  0
 12 13  1  0  0  0  0
 12 31  1  0  0  0  0
 14 16  1  0  0  0  0
 14 32  1  0  0  0  0
 15 17  2  0  0  0  0
 15 33  1  0  0  0  0
 16 18  2  0  0  0  0
 16 34  1  0  0  0  0
 17 18  1  0  0  0  0
 17 35  1  0  0  0  0
M  END
> <PUBCHEM_COMPOUND_CID>
251527

> <PUBCHEM_CONFORMER_RMSD>
0.6

> <PUBCHEM_CONFORMER_DIVERSEORDER>
1
10
13
12
8
14
11
3
4
9
7
5
2
6

> <PUBCHEM_MMFF94_PARTIAL_CHARGES>
21
1 -0.57
10 0.06
11 -0.14
12 -0.14
13 0.49
14 -0.15
15 -0.15
16 -0.15
17 -0.15
18 0.08
2 -0.53
3 0.14
31 0.15
32 0.15
33 0.15
34 0.15
35 0.15
36 0.45
4 0.14
6 -0.28
8 0.14

> <PUBCHEM_EFFECTIVE_ROTOR_COUNT>
2.2

> <PUBCHEM_PHARMACOPHORE_FEATURES>
5
1 1 acceptor
1 2 donor
6 11 14 15 16 17 18 rings
6 3 4 5 6 7 8 rings
6 3 6 9 10 12 13 rings

> <PUBCHEM_HEAVY_ATOM_COUNT>
18

> <PUBCHEM_ATOM_DEF_STEREO_COUNT>
0

> <PUBCHEM_ATOM_UDEF_STEREO_COUNT>
2

> <PUBCHEM_BOND_DEF_STEREO_COUNT>
0

> <PUBCHEM_BOND_UDEF_STEREO_COUNT>
0

> <PUBCHEM_ISOTOPIC_ATOM_COUNT>
0

> <PUBCHEM_COMPONENT_COUNT>
1

> <PUBCHEM_CACTVS_TAUTO_COUNT>
16

> <PUBCHEM_CONFORMER_ID>
0003D68700000001

> <PUBCHEM_MMFF94_ENERGY>
38.4132

> <PUBCHEM_FEATURE_SELFOVERLAP>
25.393

> <PUBCHEM_SHAPE_FINGERPRINT>
10062212 137 18335986441292608591
10465860 228 9655310244978050928
10465860 71 18410573981062348761
11046707 91 18113053856742071951
11578080 2 18198368279947121532
11796584 16 17967248723879598383
12236239 1 18342734152109117384
12363563 72 17240199915639925139
12553582 1 18411136939737430841
12633257 1 4751154133577922367
12644460 14 14996295673748049370
12670546 177 18131632283273545294
12892183 10 5978117820561710983
13288520 33 18041273357220375324
14386348 63 16877941650467215319
14576447 43 18412827975662480814
14943859 89 12823291295325231144
15210252 30 15195295251971114111
15342816 4 18335137609377942998
16752209 62 18336276712372930131
17804303 29 17967819344897590361
17844478 74 14851884820049729048
1798214 20 18411703183661976382
1813 80 14346064322735017056
18186145 218 16343697750855510448
18915474 69 18411699898149170870
19784866 240 17822005377171421695
19784866 9 9439413418902688572
19862831 5 18060135435849593195
200 152 18343295994435755880
20281475 54 18188208818059055674
20671657 53 18333446521702866433
20871999 31 18342177786704486177
21250096 35 18334859419745115531
21267235 1 18411688885747600299
21524375 3 9799685991539905601
21634736 98 18341329989913965956
221490 88 18126838305228672219
22646028 28 18333730221466984879
22854114 59 5978388300474696388
231179 274 14476962285342794396
23402539 116 18341327881485807364
23402655 69 17917711356881984972
23559900 14 18259709990768535600
23598291 2 17986678266652057787
25 1 16559030510327997224
26918003 58 14273455873286923559
2838139 119 14116651148717291766
2916195 48 13254788002295467694
3082319 5 18202001027598759211
4028521 119 15698004045886314983
4921388 177 16486681477537897387
7364860 26 18190186672148234729
76465 3 18334581264952236998
9981440 41 17192340145789467900

> <PUBCHEM_SHAPE_MULTIPOLES>
358.69
9.23
1.79
1.22
0.78
0.22
-0.23
-3.84
4.02
0.34
0
-0.32
0.02
-0.86

> <PUBCHEM_SHAPE_SELFOVERLAP>
770.522

> <PUBCHEM_SHAPE_VOLUME>
195.2

> <PUBCHEM_COORDINATE_TYPE>
2
5
10

$$$$

