47205203
  -OEChem-06241222583D

 36 37  0     0  0  0  0  0  0999 V2000
    1.0799    0.6319   -1.2634 O   0  0  0  0  0  0  0  0  0  0  0  0
   -0.8128   -0.6370    1.5349 O   0  0  0  0  0  0  0  0  0  0  0  0
    2.7551    1.6796   -0.0394 N   0  0  0  0  0  0  0  0  0  0  0  0
   -0.8407    1.4114    0.4452 N   0  0  0  0  0  0  0  0  0  0  0  0
    5.2307   -0.1766    0.6283 N   0  0  0  0  0  0  0  0  0  0  0  0
    5.6548   -1.4365    0.8253 N   0  0  0  0  0  0  0  0  0  0  0  0
    3.8714    1.3027   -0.8766 C   0  0  0  0  0  0  0  0  0  0  0  0
    4.4488   -0.0250   -0.4791 C   0  0  0  0  0  0  0  0  0  0  0  0
    0.4998    1.7996    0.7705 C   0  0  0  0  0  0  0  0  0  0  0  0
   -2.7921   -0.0609    0.4173 C   0  0  0  0  0  0  0  0  0  0  0  0
    1.4448    1.3095   -0.3059 C   0  0  0  0  0  0  0  0  0  0  0  0
   -1.3991    0.2051    0.8598 C   0  0  0  0  0  0  0  0  0  0  0  0
   -5.4074   -0.5603   -0.4150 C   0  0  0  0  0  0  0  0  0  0  0  0
   -3.2388   -1.3743    0.2715 C   0  0  0  0  0  0  0  0  0  0  0  0
   -3.6531    1.0027    0.1471 C   0  0  0  0  0  0  0  0  0  0  0  0
    4.3552   -1.2726   -1.0461 C   0  0  0  0  0  0  0  0  0  0  0  0
   -4.5465   -1.6241   -0.1447 C   0  0  0  0  0  0  0  0  0  0  0  0
   -4.9608    0.7530   -0.2691 C   0  0  0  0  0  0  0  0  0  0  0  0
   -6.8059   -0.8269   -0.8600 C   0  0  0  0  0  0  0  0  0  0  0  0
    5.1168   -2.1015   -0.2006 C   0  0  0  0  0  0  0  0  0  0  0  0
    3.5404    1.2688   -1.9206 H   0  0  0  0  0  0  0  0  0  0  0  0
    4.6303    2.0873   -0.7874 H   0  0  0  0  0  0  0  0  0  0  0  0
    0.7933    1.3762    1.7363 H   0  0  0  0  0  0  0  0  0  0  0  0
    0.5355    2.8920    0.8205 H   0  0  0  0  0  0  0  0  0  0  0  0
    2.9549    2.2215    0.7965 H   0  0  0  0  0  0  0  0  0  0  0  0
   -1.3539    2.0269   -0.1767 H   0  0  0  0  0  0  0  0  0  0  0  0
   -2.5819   -2.2163    0.4731 H   0  0  0  0  0  0  0  0  0  0  0  0
   -3.3548    2.0387    0.2775 H   0  0  0  0  0  0  0  0  0  0  0  0
    3.8137   -1.5441   -1.9404 H   0  0  0  0  0  0  0  0  0  0  0  0
   -4.8832   -2.6516   -0.2540 H   0  0  0  0  0  0  0  0  0  0  0  0
   -5.6252    1.5897   -0.4686 H   0  0  0  0  0  0  0  0  0  0  0  0
    5.5136    0.5331    1.2927 H   0  0  0  0  0  0  0  0  0  0  0  0
   -7.4697   -0.8943    0.0076 H   0  0  0  0  0  0  0  0  0  0  0  0
   -7.1692   -0.0312   -1.5192 H   0  0  0  0  0  0  0  0  0  0  0  0
   -6.8693   -1.7637   -1.4241 H   0  0  0  0  0  0  0  0  0  0  0  0
    5.3018   -3.1623   -0.2894 H   0  0  0  0  0  0  0  0  0  0  0  0
  1 11  2  0  0  0  0
  2 12  2  0  0  0  0
  3  7  1  0  0  0  0
  3 11  1  0  0  0  0
  3 25  1  0  0  0  0
  4  9  1  0  0  0  0
  4 12  1  0  0  0  0
  4 26  1  0  0  0  0
  5  6  1  0  0  0  0
  5  8  1  0  0  0  0
  5 32  1  0  0  0  0
  6 20  2  0  0  0  0
  7  8  1  0  0  0  0
  7 21  1  0  0  0  0
  7 22  1  0  0  0  0
  8 16  2  0  0  0  0
  9 11  1  0  0  0  0
  9 23  1  0  0  0  0
  9 24  1  0  0  0  0
 10 12  1  0  0  0  0
 10 14  2  0  0  0  0
 10 15  1  0  0  0  0
 13 17  2  0  0  0  0
 13 18  1  0  0  0  0
 13 19  1  0  0  0  0
 14 17  1  0  0  0  0
 14 27  1  0  0  0  0
 15 18  2  0  0  0  0
 15 28  1  0  0  0  0
 16 20  1  0  0  0  0
 16 29  1  0  0  0  0
 17 30  1  0  0  0  0
 18 31  1  0  0  0  0
 19 33  1  0  0  0  0
 19 34  1  0  0  0  0
 19 35  1  0  0  0  0
 20 36  1  0  0  0  0
M  END
> <PUBCHEM_COMPOUND_CID>
47205203

> <PUBCHEM_CONFORMER_RMSD>
0.8

> <PUBCHEM_CONFORMER_DIVERSEORDER>
1
63
60
37
150
74
92
10
182
101
141
128
173
96
142
21
34
6
88
61
166
12
83
44
64
123
177
7
111
93
69
13
78
103
91
120
22
70
75
23
129
82
189
146
2
104
45
112
28
188
160
149
24
124
113
58
26
107
98
86
17
148
35
94
139
169
9
183
95
72
31
105
33
68
138
156
114
8
59
126
147
110
157
140
158
180
57
36
175
16
48
152
11
30
54
46
127
90
153
163
43
56
76
178
5
71
89
42
144
3
187
52
84
51
65
106
159
181
4
25
85
186
20
29
100
117
47
77
164
81
145
121
161
18
49
118
40
171
135
87
14
67
109
116
165
130
102
168
97
119
122
66
53
136
15
143
137
184
55
134
80
73
172
125
115
176
154
38
155
99
62
132
151
162
27
170
41
39
179
108
185
174
19
79
167
50
131
133
32

> <PUBCHEM_MMFF94_PARTIAL_CHARGES>
29
1 -0.57
10 0.09
11 0.57
12 0.54
13 -0.14
14 -0.15
15 -0.15
16 -0.15
17 -0.15
18 -0.15
19 0.14
2 -0.57
20 0.14
25 0.37
26 0.37
27 0.15
28 0.15
29 0.15
3 -0.73
30 0.15
31 0.15
32 0.27
36 0.15
4 -0.73
5 0.3
6 -0.71
7 0.48
8 -0.33
9 0.36

> <PUBCHEM_EFFECTIVE_ROTOR_COUNT>
7

> <PUBCHEM_PHARMACOPHORE_FEATURES>
8
1 1 acceptor
1 2 acceptor
1 3 donor
1 4 donor
1 5 donor
1 6 acceptor
5 5 6 8 16 20 rings
6 10 13 14 15 17 18 rings

> <PUBCHEM_HEAVY_ATOM_COUNT>
20

> <PUBCHEM_ATOM_DEF_STEREO_COUNT>
0

> <PUBCHEM_ATOM_UDEF_STEREO_COUNT>
0

> <PUBCHEM_BOND_DEF_STEREO_COUNT>
0

> <PUBCHEM_BOND_UDEF_STEREO_COUNT>
0

> <PUBCHEM_ISOTOPIC_ATOM_COUNT>
0

> <PUBCHEM_COMPONENT_COUNT>
1

> <PUBCHEM_CACTVS_TAUTO_COUNT>
20

> <PUBCHEM_CONFORMER_ID>
02D04B5300000001

> <PUBCHEM_MMFF94_ENERGY>
35.2105

> <PUBCHEM_FEATURE_SELFOVERLAP>
40.595

> <PUBCHEM_SHAPE_FINGERPRINT>
10447042 23 18334859407472150204
10613725 11 18131914866620693967
106641 1 17168151118343859400
10670039 82 13901637376006715414
11796584 16 18202284667086350922
11858739 19 18409730664064863700
12555020 224 18202280307889730675
12596602 18 16008745823084468162
12670543 26 18273501169758551365
12895836 83 12535046613133133866
13533116 47 18335138683330763504
1420 369 18187640327998690422
14251740 57 17386557085646048734
14251751 18 17967819310221860431
14341114 328 5906045937468068268
14347332 77 18335423469869852917
14429115 67 17895467133172613662
14848160 23 17967534592481121990
14848178 5 18333730247479518158
15183329 4 17917713517213338509
15188451 53 18187369874029536538
15342168 16 10159700179176347008
15419008 42 17972884945180120213
16760501 71 8646478639816823031
17349148 13 17676475138419613341
17834072 8 17632859719848515913
17857418 61 18335138687150840590
18222031 100 17385712587411503524
190975 80 4678524824238615661
200 152 18113334211033226113
20028762 73 18260267490772981566
20369508 70 18113615651919535720
20374829 77 18412263947482331689
20567600 247 18113905922983974431
20621476 78 18411420643791982002
20621476 91 15213312906419200967
20645477 70 18342172259382419076
21250096 35 18261107482868679776
21521239 73 18342745083365738923
21637258 2 17386012733053752437
22061861 79 18131353003056745495
22079108 93 6122501302428263500
2215653 11 17988922275495372446
23253445 4 5400803868999892721
23272321 79 9295285036914236721
23402539 116 18335420188472881189
23559900 14 18340765923696861384
29717793 49 18343585131222861069
3004659 81 18343298167857960916
328311 84 17846212246833135987
439807 62 18190463758481090239
465052 167 18040711468282164476
5104073 3 17822283549096781953
5207 123 18343299301602681084
559249 180 18336829788117215057
6438161 24 18341905081813987707
76465 3 18335417984895844632
8988823 20 17676775288452360024
960060 61 17774992489018537788
9971528 1 17845935139174053572

> <PUBCHEM_SHAPE_MULTIPOLES>
379.93
16.23
1.98
1.05
1.33
0.16
0.04
8.22
-2.91
-1.44
0.01
-0.32
0.05
-0.5

> <PUBCHEM_SHAPE_SELFOVERLAP>
799.287

> <PUBCHEM_SHAPE_VOLUME>
212.8

> <PUBCHEM_COORDINATE_TYPE>
2
5
10

$$$$

