6788
  -OEChem-07051213052D

 78 78  0     0  0  0  0  0  0999 V2000
   10.6603   -4.0000    0.0000 O   0  0  0  0  0  0  0  0  0  0  0  0
   14.1244   -2.0000    0.0000 O   0  0  0  0  0  0  0  0  0  0  0  0
   11.5263   -2.5000    0.0000 O   0  0  0  0  0  0  0  0  0  0  0  0
   12.3923   -2.0000    0.0000 O   0  0  0  0  0  0  0  0  0  0  0  0
   15.8564    2.0000    0.0000 C   0  0  0  0  0  0  0  0  0  0  0  0
    6.3301   -3.5000    0.0000 C   0  0  0  0  0  0  0  0  0  0  0  0
   16.7224    2.5000    0.0000 C   0  0  0  0  0  0  0  0  0  0  0  0
    5.4641   -4.0000    0.0000 C   0  0  0  0  0  0  0  0  0  0  0  0
   15.8564    1.0000    0.0000 C   0  0  0  0  0  0  0  0  0  0  0  0
    7.1962   -4.0000    0.0000 C   0  0  0  0  0  0  0  0  0  0  0  0
   16.7224    3.5000    0.0000 C   0  0  0  0  0  0  0  0  0  0  0  0
    4.5981   -3.5000    0.0000 C   0  0  0  0  0  0  0  0  0  0  0  0
   14.9904    0.5000    0.0000 C   0  0  0  0  0  0  0  0  0  0  0  0
    8.0622   -3.5000    0.0000 C   0  0  0  0  0  0  0  0  0  0  0  0
   17.5885    4.0000    0.0000 C   0  0  0  0  0  0  0  0  0  0  0  0
    3.7320   -4.0000    0.0000 C   0  0  0  0  0  0  0  0  0  0  0  0
    8.9282   -4.0000    0.0000 C   0  0  0  0  0  0  0  0  0  0  0  0
   14.9904   -0.5000    0.0000 C   0  0  0  0  0  0  0  0  0  0  0  0
    2.8660   -3.5000    0.0000 C   0  0  0  0  0  0  0  0  0  0  0  0
   17.5885    5.0000    0.0000 C   0  0  0  0  0  0  0  0  0  0  0  0
    9.7942   -3.5000    0.0000 C   0  0  0  0  0  0  0  0  0  0  0  0
   14.1244   -1.0000    0.0000 C   0  0  0  0  0  0  0  0  0  0  0  0
    2.0000   -4.0000    0.0000 C   0  0  0  0  0  0  0  0  0  0  0  0
   18.4545    5.5000    0.0000 C   0  0  0  0  0  0  0  0  0  0  0  0
   13.2583   -2.5000    0.0000 C   0  0  0  0  0  0  0  0  0  0  0  0
   11.5263   -3.5000    0.0000 C   0  0  0  0  0  0  0  0  0  0  0  0
   13.2583   -3.5000    0.0000 C   0  0  0  0  0  0  0  0  0  0  0  0
   12.3923   -4.0000    0.0000 C   0  0  0  0  0  0  0  0  0  0  0  0
   12.3923   -5.0000    0.0000 C   0  0  0  0  0  0  0  0  0  0  0  0
   14.1244   -4.0000    0.0000 C   0  0  0  0  0  0  0  0  0  0  0  0
   13.2583   -5.5000    0.0000 C   0  0  0  0  0  0  0  0  0  0  0  0
   14.1244   -5.0000    0.0000 C   0  0  0  0  0  0  0  0  0  0  0  0
    6.7287   -3.0250    0.0000 H   0  0  0  0  0  0  0  0  0  0  0  0
    5.9316   -3.0250    0.0000 H   0  0  0  0  0  0  0  0  0  0  0  0
   15.6444    2.5826    0.0000 H   0  0  0  0  0  0  0  0  0  0  0  0
   15.2458    1.8923    0.0000 H   0  0  0  0  0  0  0  0  0  0  0  0
    5.0656   -4.4750    0.0000 H   0  0  0  0  0  0  0  0  0  0  0  0
    5.8626   -4.4750    0.0000 H   0  0  0  0  0  0  0  0  0  0  0  0
   16.9345    1.9174    0.0000 H   0  0  0  0  0  0  0  0  0  0  0  0
   17.3330    2.6077    0.0000 H   0  0  0  0  0  0  0  0  0  0  0  0
   16.0685    0.4174    0.0000 H   0  0  0  0  0  0  0  0  0  0  0  0
   16.4670    1.1077    0.0000 H   0  0  0  0  0  0  0  0  0  0  0  0
    6.7976   -4.4750    0.0000 H   0  0  0  0  0  0  0  0  0  0  0  0
    7.5947   -4.4750    0.0000 H   0  0  0  0  0  0  0  0  0  0  0  0
    4.9966   -3.0250    0.0000 H   0  0  0  0  0  0  0  0  0  0  0  0
    4.1996   -3.0250    0.0000 H   0  0  0  0  0  0  0  0  0  0  0  0
   16.5104    4.0826    0.0000 H   0  0  0  0  0  0  0  0  0  0  0  0
   16.1119    3.3923    0.0000 H   0  0  0  0  0  0  0  0  0  0  0  0
    8.4607   -3.0250    0.0000 H   0  0  0  0  0  0  0  0  0  0  0  0
    7.6636   -3.0250    0.0000 H   0  0  0  0  0  0  0  0  0  0  0  0
   14.7783    1.0826    0.0000 H   0  0  0  0  0  0  0  0  0  0  0  0
   14.3798    0.3923    0.0000 H   0  0  0  0  0  0  0  0  0  0  0  0
   17.8005    3.4174    0.0000 H   0  0  0  0  0  0  0  0  0  0  0  0
   18.1990    4.1077    0.0000 H   0  0  0  0  0  0  0  0  0  0  0  0
    3.3335   -4.4750    0.0000 H   0  0  0  0  0  0  0  0  0  0  0  0
    4.1306   -4.4750    0.0000 H   0  0  0  0  0  0  0  0  0  0  0  0
   15.2024   -1.0826    0.0000 H   0  0  0  0  0  0  0  0  0  0  0  0
   15.6010   -0.3923    0.0000 H   0  0  0  0  0  0  0  0  0  0  0  0
    8.5297   -4.4750    0.0000 H   0  0  0  0  0  0  0  0  0  0  0  0
    9.3267   -4.4750    0.0000 H   0  0  0  0  0  0  0  0  0  0  0  0
    3.2646   -3.0250    0.0000 H   0  0  0  0  0  0  0  0  0  0  0  0
    2.4675   -3.0250    0.0000 H   0  0  0  0  0  0  0  0  0  0  0  0
   17.3764    5.5826    0.0000 H   0  0  0  0  0  0  0  0  0  0  0  0
   16.9779    4.8923    0.0000 H   0  0  0  0  0  0  0  0  0  0  0  0
   10.1928   -3.0250    0.0000 H   0  0  0  0  0  0  0  0  0  0  0  0
    9.3957   -3.0250    0.0000 H   0  0  0  0  0  0  0  0  0  0  0  0
   13.9123   -0.4174    0.0000 H   0  0  0  0  0  0  0  0  0  0  0  0
   13.5138   -1.1077    0.0000 H   0  0  0  0  0  0  0  0  0  0  0  0
    1.6900   -3.4631    0.0000 H   0  0  0  0  0  0  0  0  0  0  0  0
   18.7645    4.9631    0.0000 H   0  0  0  0  0  0  0  0  0  0  0  0
   18.9914    5.8100    0.0000 H   0  0  0  0  0  0  0  0  0  0  0  0
   18.1445    6.0369    0.0000 H   0  0  0  0  0  0  0  0  0  0  0  0
    1.4631   -4.3100    0.0000 H   0  0  0  0  0  0  0  0  0  0  0  0
    2.3100   -4.5369    0.0000 H   0  0  0  0  0  0  0  0  0  0  0  0
   11.8554   -5.3100    0.0000 H   0  0  0  0  0  0  0  0  0  0  0  0
   14.6613   -3.6900    0.0000 H   0  0  0  0  0  0  0  0  0  0  0  0
   13.2583   -6.1200    0.0000 H   0  0  0  0  0  0  0  0  0  0  0  0
   14.6613   -5.3100    0.0000 H   0  0  0  0  0  0  0  0  0  0  0  0
  1 21  1  0  0  0  0
  1 26  1  0  0  0  0
  2 22  1  0  0  0  0
  2 25  1  0  0  0  0
  3 26  2  0  0  0  0
  4 25  2  0  0  0  0
  5  7  1  0  0  0  0
  5  9  1  0  0  0  0
  5 35  1  0  0  0  0
  5 36  1  0  0  0  0
  6  8  1  0  0  0  0
  6 10  1  0  0  0  0
  6 33  1  0  0  0  0
  6 34  1  0  0  0  0
  7 11  1  0  0  0  0
  7 39  1  0  0  0  0
  7 40  1  0  0  0  0
  8 12  1  0  0  0  0
  8 37  1  0  0  0  0
  8 38  1  0  0  0  0
  9 13  1  0  0  0  0
  9 41  1  0  0  0  0
  9 42  1  0  0  0  0
 10 14  1  0  0  0  0
 10 43  1  0  0  0  0
 10 44  1  0  0  0  0
 11 15  1  0  0  0  0
 11 47  1  0  0  0  0
 11 48  1  0  0  0  0
 12 16  1  0  0  0  0
 12 45  1  0  0  0  0
 12 46  1  0  0  0  0
 13 18  1  0  0  0  0
 13 51  1  0  0  0  0
 13 52  1  0  0  0  0
 14 17  1  0  0  0  0
 14 49  1  0  0  0  0
 14 50  1  0  0  0  0
 15 20  1  0  0  0  0
 15 53  1  0  0  0  0
 15 54  1  0  0  0  0
 16 19  1  0  0  0  0
 16 55  1  0  0  0  0
 16 56  1  0  0  0  0
 17 21  1  0  0  0  0
 17 59  1  0  0  0  0
 17 60  1  0  0  0  0
 18 22  1  0  0  0  0
 18 57  1  0  0  0  0
 18 58  1  0  0  0  0
 19 23  1  0  0  0  0
 19 61  1  0  0  0  0
 19 62  1  0  0  0  0
 20 24  1  0  0  0  0
 20 63  1  0  0  0  0
 20 64  1  0  0  0  0
 21 65  1  0  0  0  0
 21 66  1  0  0  0  0
 22 67  1  0  0  0  0
 22 68  1  0  0  0  0
 23 69  1  0  0  0  0
 23 73  1  0  0  0  0
 23 74  1  0  0  0  0
 24 70  1  0  0  0  0
 24 71  1  0  0  0  0
 24 72  1  0  0  0  0
 25 27  1  0  0  0  0
 26 28  1  0  0  0  0
 27 28  1  0  0  0  0
 27 30  2  0  0  0  0
 28 29  2  0  0  0  0
 29 31  1  0  0  0  0
 29 75  1  0  0  0  0
 30 32  1  0  0  0  0
 30 76  1  0  0  0  0
 31 32  2  0  0  0  0
 31 77  1  0  0  0  0
 32 78  1  0  0  0  0
M  END
> <PUBCHEM_COMPOUND_CID>
6788

> <PUBCHEM_COMPOUND_CANONICALIZED>
1

> <PUBCHEM_CACTVS_COMPLEXITY>
420

> <PUBCHEM_CACTVS_HBOND_ACCEPTOR>
4

> <PUBCHEM_CACTVS_HBOND_DONOR>
0

> <PUBCHEM_CACTVS_ROTATABLE_BOND>
22

> <PUBCHEM_CACTVS_SUBSKEYS>
AAADcfB4OAAAAAAAAAAAAAAAAAAAAAAAAAAwAAAAAAAAAAABAAAAGgAAAAAADACgmAIyCIAABACIAiDSCAACAAAkAAAIiAEACMgIJjKANRiCMQAkwAEIqYfLyKCOgAAAAAAQAAAAAAAAACAAAAAAAAAAAA==

> <PUBCHEM_IUPAC_OPENEYE_NAME>
didecyl benzene-1,2-dicarboxylate

> <PUBCHEM_IUPAC_CAS_NAME>
benzene-1,2-dicarboxylic acid didecyl ester

> <PUBCHEM_IUPAC_NAME>
didecyl benzene-1,2-dicarboxylate

> <PUBCHEM_IUPAC_SYSTEMATIC_NAME>
didecyl benzene-1,2-dicarboxylate

> <PUBCHEM_IUPAC_TRADITIONAL_NAME>
benzene-1,2-dicarboxylic acid didecyl ester

> <PUBCHEM_IUPAC_INCHI>
InChI=1S/C28H46O4/c1-3-5-7-9-11-13-15-19-23-31-27(29)25-21-17-18-22-26(25)28(30)32-24-20-16-14-12-10-8-6-4-2/h17-18,21-22H,3-16,19-20,23-24H2,1-2H3

> <PUBCHEM_IUPAC_INCHIKEY>
PGIBJVOPLXHHGS-UHFFFAOYSA-N

> <PUBCHEM_XLOGP3>
11.2

> <PUBCHEM_EXACT_MASS>
446.33961

> <PUBCHEM_MOLECULAR_FORMULA>
C28H46O4

> <PUBCHEM_MOLECULAR_WEIGHT>
446.66244

> <PUBCHEM_OPENEYE_CAN_SMILES>
CCCCCCCCCCOC(=O)C1=CC=CC=C1C(=O)OCCCCCCCCCC

> <PUBCHEM_OPENEYE_ISO_SMILES>
CCCCCCCCCCOC(=O)C1=CC=CC=C1C(=O)OCCCCCCCCCC

> <PUBCHEM_CACTVS_TPSA>
52.6

> <PUBCHEM_MONOISOTOPIC_WEIGHT>
446.33961

> <PUBCHEM_TOTAL_CHARGE>
0

> <PUBCHEM_HEAVY_ATOM_COUNT>
32

> <PUBCHEM_ATOM_DEF_STEREO_COUNT>
0

> <PUBCHEM_ATOM_UDEF_STEREO_COUNT>
0

> <PUBCHEM_BOND_DEF_STEREO_COUNT>
0

> <PUBCHEM_BOND_UDEF_STEREO_COUNT>
0

> <PUBCHEM_ISOTOPIC_ATOM_COUNT>
0

> <PUBCHEM_COMPONENT_COUNT>
1

> <PUBCHEM_CACTVS_TAUTO_COUNT>
1

> <PUBCHEM_COORDINATE_TYPE>
1
5
255

> <PUBCHEM_BONDANNOTATIONS>
27  28  8
27  30  8
28  29  8
29  31  8
30  32  8
31  32  8

$$$$

