439810
  -OEChem-07051212473D

 50 53  0     1  0  0  0  0  0999 V2000
    4.7861   -0.3977   -1.4131 O   0  0  0  0  0  0  0  0  0  0  0  0
   -0.8267    0.7983    0.0721 C   0  0  2  0  0  0  0  0  0  0  0  0
    0.1374   -0.4126    0.2200 C   0  0  1  0  0  0  0  0  0  0  0  0
   -2.0658    0.4509   -0.8073 C   0  0  1  0  0  0  0  0  0  0  0  0
    1.4373   -0.0576    1.0363 C   0  0  2  0  0  0  0  0  0  0  0  0
   -2.7696   -0.8750   -0.4300 C   0  0  1  0  0  0  0  0  0  0  0  0
    2.1442    1.1754    0.3857 C   0  0  2  0  0  0  0  0  0  0  0  0
   -0.6330   -1.6146    0.7923 C   0  0  0  0  0  0  0  0  0  0  0  0
   -1.7924   -2.0143   -0.1123 C   0  0  0  0  0  0  0  0  0  0  0  0
   -0.0896    2.0220   -0.5097 C   0  0  0  0  0  0  0  0  0  0  0  0
   -3.1916    1.4889   -0.6361 C   0  0  0  0  0  0  0  0  0  0  0  0
   -3.6266   -0.4641    0.7807 C   0  0  0  0  0  0  0  0  0  0  0  0
    1.1893    2.3684    0.2459 C   0  0  0  0  0  0  0  0  0  0  0  0
    2.4643   -1.2291    1.0814 C   0  0  0  0  0  0  0  0  0  0  0  0
   -4.0829    0.9658    0.4917 C   0  0  0  0  0  0  0  0  0  0  0  0
    1.0976    0.2647    2.5161 C   0  0  0  0  0  0  0  0  0  0  0  0
   -3.6956   -1.3589   -1.5707 C   0  0  0  0  0  0  0  0  0  0  0  0
    2.7912    0.8544   -0.9751 C   0  0  0  0  0  0  0  0  0  0  0  0
    3.0572   -1.5948   -0.2699 C   0  0  0  0  0  0  0  0  0  0  0  0
    3.6694   -0.3701   -0.8983 C   0  0  0  0  0  0  0  0  0  0  0  0
   -1.1894    1.0756    1.0700 H   0  0  0  0  0  0  0  0  0  0  0  0
    0.4462   -0.6937   -0.7956 H   0  0  0  0  0  0  0  0  0  0  0  0
   -1.7443    0.4211   -1.8565 H   0  0  0  0  0  0  0  0  0  0  0  0
    2.9614    1.4875    1.0526 H   0  0  0  0  0  0  0  0  0  0  0  0
   -1.0082   -1.3945    1.7969 H   0  0  0  0  0  0  0  0  0  0  0  0
    0.0229   -2.4854    0.8865 H   0  0  0  0  0  0  0  0  0  0  0  0
   -1.3681   -2.4004   -1.0491 H   0  0  0  0  0  0  0  0  0  0  0  0
   -2.3317   -2.8521    0.3479 H   0  0  0  0  0  0  0  0  0  0  0  0
   -0.7377    2.9045   -0.4906 H   0  0  0  0  0  0  0  0  0  0  0  0
    0.1447    1.8447   -1.5661 H   0  0  0  0  0  0  0  0  0  0  0  0
   -3.7770    1.5563   -1.5612 H   0  0  0  0  0  0  0  0  0  0  0  0
   -2.8414    2.5012   -0.4209 H   0  0  0  0  0  0  0  0  0  0  0  0
   -3.0444   -0.4673    1.7086 H   0  0  0  0  0  0  0  0  0  0  0  0
   -4.4799   -1.1322    0.9411 H   0  0  0  0  0  0  0  0  0  0  0  0
    1.6972    3.1952   -0.2660 H   0  0  0  0  0  0  0  0  0  0  0  0
    0.9259    2.7508    1.2391 H   0  0  0  0  0  0  0  0  0  0  0  0
    2.0263   -2.1228    1.5384 H   0  0  0  0  0  0  0  0  0  0  0  0
    3.2939   -0.9405    1.7433 H   0  0  0  0  0  0  0  0  0  0  0  0
   -3.9886    1.5855    1.3901 H   0  0  0  0  0  0  0  0  0  0  0  0
   -5.1350    0.9906    0.1876 H   0  0  0  0  0  0  0  0  0  0  0  0
    0.3389    1.0440    2.6207 H   0  0  0  0  0  0  0  0  0  0  0  0
    0.7332   -0.6221    3.0455 H   0  0  0  0  0  0  0  0  0  0  0  0
    1.9883    0.6110    3.0540 H   0  0  0  0  0  0  0  0  0  0  0  0
   -3.1224   -1.5464   -2.4858 H   0  0  0  0  0  0  0  0  0  0  0  0
   -4.1965   -2.2938   -1.2938 H   0  0  0  0  0  0  0  0  0  0  0  0
   -4.4792   -0.6354   -1.8165 H   0  0  0  0  0  0  0  0  0  0  0  0
    3.4083    1.7017   -1.2966 H   0  0  0  0  0  0  0  0  0  0  0  0
    2.0514    0.6721   -1.7603 H   0  0  0  0  0  0  0  0  0  0  0  0
    2.3066   -2.0061   -0.9509 H   0  0  0  0  0  0  0  0  0  0  0  0
    3.8383   -2.3510   -0.1360 H   0  0  0  0  0  0  0  0  0  0  0  0
  1 20  2  0  0  0  0
  2  3  1  0  0  0  0
  2  4  1  0  0  0  0
  2 10  1  0  0  0  0
  2 21  1  0  0  0  0
  3  5  1  0  0  0  0
  3  8  1  0  0  0  0
  3 22  1  0  0  0  0
  4  6  1  0  0  0  0
  4 11  1  0  0  0  0
  4 23  1  0  0  0  0
  5  7  1  0  0  0  0
  5 14  1  0  0  0  0
  5 16  1  0  0  0  0
  6  9  1  0  0  0  0
  6 12  1  0  0  0  0
  6 17  1  0  0  0  0
  7 13  1  0  0  0  0
  7 18  1  0  0  0  0
  7 24  1  0  0  0  0
  8  9  1  0  0  0  0
  8 25  1  0  0  0  0
  8 26  1  0  0  0  0
  9 27  1  0  0  0  0
  9 28  1  0  0  0  0
 10 13  1  0  0  0  0
 10 29  1  0  0  0  0
 10 30  1  0  0  0  0
 11 15  1  0  0  0  0
 11 31  1  0  0  0  0
 11 32  1  0  0  0  0
 12 15  1  0  0  0  0
 12 33  1  0  0  0  0
 12 34  1  0  0  0  0
 13 35  1  0  0  0  0
 13 36  1  0  0  0  0
 14 19  1  0  0  0  0
 14 37  1  0  0  0  0
 14 38  1  0  0  0  0
 15 39  1  0  0  0  0
 15 40  1  0  0  0  0
 16 41  1  0  0  0  0
 16 42  1  0  0  0  0
 16 43  1  0  0  0  0
 17 44  1  0  0  0  0
 17 45  1  0  0  0  0
 17 46  1  0  0  0  0
 18 20  1  0  0  0  0
 18 47  1  0  0  0  0
 18 48  1  0  0  0  0
 19 20  1  0  0  0  0
 19 49  1  0  0  0  0
 19 50  1  0  0  0  0
M  END
> <PUBCHEM_COMPOUND_CID>
439810

> <PUBCHEM_CONFORMER_RMSD>
0.6

> <PUBCHEM_CONFORMER_DIVERSEORDER>
1
45
41
6
38
8
43
9
7
42
34
21
29
44
5
12
10
19
33
22
27
26
48
30
28
17
20
37
16
11
47
14
46
15
31
13
24
3
23
25
2
40
4
32
39
18
36
35

> <PUBCHEM_MMFF94_PARTIAL_CHARGES>
4
1 -0.57
18 0.06
19 0.06
20 0.45

> <PUBCHEM_EFFECTIVE_ROTOR_COUNT>
2

> <PUBCHEM_PHARMACOPHORE_FEATURES>
5
1 1 acceptor
5 4 6 11 12 15 rings
6 2 3 4 6 8 9 rings
6 2 3 5 7 10 13 rings
6 5 7 14 18 19 20 rings

> <PUBCHEM_HEAVY_ATOM_COUNT>
20

> <PUBCHEM_ATOM_DEF_STEREO_COUNT>
1

> <PUBCHEM_ATOM_UDEF_STEREO_COUNT>
5

> <PUBCHEM_BOND_DEF_STEREO_COUNT>
0

> <PUBCHEM_BOND_UDEF_STEREO_COUNT>
0

> <PUBCHEM_ISOTOPIC_ATOM_COUNT>
0

> <PUBCHEM_COMPONENT_COUNT>
1

> <PUBCHEM_CACTVS_TAUTO_COUNT>
3

> <PUBCHEM_CONFORMER_ID>
0006B60200000001

> <PUBCHEM_MMFF94_ENERGY>
64.937

> <PUBCHEM_FEATURE_SELFOVERLAP>
25.599

> <PUBCHEM_SHAPE_FINGERPRINT>
10498660 4 16988854851701799671
10948715 1 13038900006757429820
11578080 2 17677065597697186352
12011746 2 18201997733997088135
12119455 92 13470682629711168632
12553582 1 18412549820457872773
12654903 92 18409733941225189106
12788726 201 18118392072080048008
13134695 92 14924234823713324728
13140716 1 18270132313059279073
13221675 6 18272934907926285425
13224815 77 17489314066042769449
13296908 3 16660650617862522611
13583140 156 15213602064807794643
14144814 61 18342468001976600089
14289901 80 16082231588179132451
14386348 128 18131639971507656485
14713325 29 15475313118510016884
14787075 74 16557604341036581411
14790565 3 18050558839954529189
15536298 74 18334861567255377688
16752209 62 18195826273661857589
16945 1 18200039417303318665
17804303 29 17967533484558816697
17834072 14 7420947530637135651
1813 80 14635134743219263104
18186145 218 18334301967613642225
19765921 60 16988841674968904112
19862831 5 18341895194646057477
20691752 17 18130519564652936921
20871999 31 18413103957196646134
21069387 34 15213310724338463591
21524375 3 11527656463051674636
21634736 98 18413665812192103532
22802520 49 18339355245545120394
23175994 123 16950555614684705048
2334 1 18271255945191623537
23402539 116 18343301496468190942
23419403 2 14072175589265925128
23493267 7 17631732806651274953
23557571 272 17969238758084091554
23559900 14 17968386666743051753
25 1 17346874555378765114
2637199 183 18131624603856319130
2748010 2 17407960985870966425
2838139 119 15625365807225897086
296302 2 15068628179730795328
3286 77 16950573129619379895
3323516 105 18342450413906265672
474 4 16701725048303694500
5161694 15 17603867805879502875
633830 44 17775279443709302053
7364860 26 18190465952370166192
74978 22 18337677421092570043
7832392 63 18411138009031611641
9709674 26 18192436272864401911

> <PUBCHEM_SHAPE_MULTIPOLES>
405.72
7.32
2.13
1.5
0.17
0.34
-0.49
-1.17
2.54
0.23
0.14
-0.56
-0.16
-0.19

> <PUBCHEM_SHAPE_SELFOVERLAP>
862.355

> <PUBCHEM_SHAPE_VOLUME>
224.7

> <PUBCHEM_COORDINATE_TYPE>
2
5
10

$$$$

