5492231
  -OEChem-07051213082D

 74 78  0     1  0  0  0  0  0999 V2000
    7.7331   -1.1550    0.0000 O   0  0  0  0  0  0  0  0  0  0  0  0
    6.0010   -2.1550    0.0000 O   0  0  0  0  0  0  0  0  0  0  0  0
    5.1350   -3.6550    0.0000 O   0  0  0  0  0  0  0  0  0  0  0  0
    8.5991   -3.6550    0.0000 O   0  0  0  0  0  0  0  0  0  0  0  0
   10.3312   -2.6550    0.0000 O   0  0  0  0  0  0  0  0  0  0  0  0
    8.5991    0.3450    0.0000 O   0  0  0  0  0  0  0  0  0  0  0  0
   10.3312   -0.6550    0.0000 O   0  0  0  0  0  0  0  0  0  0  0  0
    4.2690   -1.1550    0.0000 O   0  0  0  0  0  0  0  0  0  0  0  0
    2.5369   -2.1550    0.0000 O   0  0  0  0  0  0  0  0  0  0  0  0
    2.5369   -4.1550    0.0000 O   0  0  0  0  0  0  0  0  0  0  0  0
   10.3312    2.3450    0.0000 O   0  3  0  0  0  0  0  0  0  0  0  0
   12.0796   -0.6896    0.0000 O   0  0  0  0  0  0  0  0  0  0  0  0
   13.8613    2.3692    0.0000 O   0  0  0  0  0  0  0  0  0  0  0  0
    6.0010    1.8450    0.0000 O   0  0  0  0  0  0  0  0  0  0  0  0
    7.7331    4.8450    0.0000 O   0  0  0  0  0  0  0  0  0  0  0  0
    6.0010    3.8450    0.0000 O   0  0  0  0  0  0  0  0  0  0  0  0
    7.7331   -2.1550    0.0000 C   0  0  1  0  0  0  0  0  0  0  0  0
    8.5991   -2.6550    0.0000 C   0  0  2  0  0  0  0  0  0  0  0  0
    9.4651   -2.1550    0.0000 C   0  0  1  0  0  0  0  0  0  0  0  0
    9.4651   -1.1550    0.0000 C   0  0  2  0  0  0  0  0  0  0  0  0
    4.2690   -2.1550    0.0000 C   0  0  1  0  0  0  0  0  0  0  0  0
    5.1350   -2.6550    0.0000 C   0  0  2  0  0  0  0  0  0  0  0  0
    3.4030   -2.6550    0.0000 C   0  0  1  0  0  0  0  0  0  0  0  0
    3.4030   -3.6550    0.0000 C   0  0  2  0  0  0  0  0  0  0  0  0
    8.5991   -0.6550    0.0000 C   0  0  1  0  0  0  0  0  0  0  0  0
    6.8671   -2.6550    0.0000 C   0  0  0  0  0  0  0  0  0  0  0  0
    4.2690   -4.1550    0.0000 C   0  0  2  0  0  0  0  0  0  0  0  0
    4.2690   -5.1550    0.0000 C   0  0  0  0  0  0  0  0  0  0  0  0
    9.4651    0.8450    0.0000 C   0  0  0  0  0  0  0  0  0  0  0  0
    9.4651    1.8450    0.0000 C   0  0  0  0  0  0  0  0  0  0  0  0
   10.3312    0.3450    0.0000 C   0  0  0  0  0  0  0  0  0  0  0  0
   11.1972    0.8450    0.0000 C   0  0  0  0  0  0  0  0  0  0  0  0
    8.5991    2.3450    0.0000 C   0  0  0  0  0  0  0  0  0  0  0  0
   11.1972    1.8450    0.0000 C   0  0  0  0  0  0  0  0  0  0  0  0
   12.0911    0.3103    0.0000 C   0  0  0  0  0  0  0  0  0  0  0  0
   12.0911    2.3797    0.0000 C   0  0  0  0  0  0  0  0  0  0  0  0
    8.5991    3.3450    0.0000 C   0  0  0  0  0  0  0  0  0  0  0  0
    7.7331    1.8450    0.0000 C   0  0  0  0  0  0  0  0  0  0  0  0
   12.9972    0.8242    0.0000 C   0  0  0  0  0  0  0  0  0  0  0  0
   12.9972    1.8658    0.0000 C   0  0  0  0  0  0  0  0  0  0  0  0
    6.8671    2.3450    0.0000 C   0  0  0  0  0  0  0  0  0  0  0  0
    7.7331    3.8450    0.0000 C   0  0  0  0  0  0  0  0  0  0  0  0
    6.8671    3.3450    0.0000 C   0  0  0  0  0  0  0  0  0  0  0  0
    7.1962   -1.8450    0.0000 H   0  0  0  0  0  0  0  0  0  0  0  0
    8.0622   -2.9650    0.0000 H   0  0  0  0  0  0  0  0  0  0  0  0
   10.0021   -1.8450    0.0000 H   0  0  0  0  0  0  0  0  0  0  0  0
   10.0021   -1.4650    0.0000 H   0  0  0  0  0  0  0  0  0  0  0  0
    4.8059   -1.8450    0.0000 H   0  0  0  0  0  0  0  0  0  0  0  0
    5.1350   -2.0350    0.0000 H   0  0  0  0  0  0  0  0  0  0  0  0
    3.4030   -2.0350    0.0000 H   0  0  0  0  0  0  0  0  0  0  0  0
    2.8660   -3.3450    0.0000 H   0  0  0  0  0  0  0  0  0  0  0  0
    8.0622   -0.3450    0.0000 H   0  0  0  0  0  0  0  0  0  0  0  0
    6.4685   -3.1300    0.0000 H   0  0  0  0  0  0  0  0  0  0  0  0
    7.2656   -3.1300    0.0000 H   0  0  0  0  0  0  0  0  0  0  0  0
    4.8059   -4.4650    0.0000 H   0  0  0  0  0  0  0  0  0  0  0  0
    3.6490   -5.1550    0.0000 H   0  0  0  0  0  0  0  0  0  0  0  0
    4.2690   -5.7750    0.0000 H   0  0  0  0  0  0  0  0  0  0  0  0
    4.8890   -5.1550    0.0000 H   0  0  0  0  0  0  0  0  0  0  0  0
    8.0622   -3.9650    0.0000 H   0  0  0  0  0  0  0  0  0  0  0  0
   10.3312   -3.2750    0.0000 H   0  0  0  0  0  0  0  0  0  0  0  0
   10.8681   -0.9650    0.0000 H   0  0  0  0  0  0  0  0  0  0  0  0
    3.7320   -0.8450    0.0000 H   0  0  0  0  0  0  0  0  0  0  0  0
    2.0000   -2.4650    0.0000 H   0  0  0  0  0  0  0  0  0  0  0  0
    2.5369   -4.7750    0.0000 H   0  0  0  0  0  0  0  0  0  0  0  0
   10.3312   -0.2750    0.0000 H   0  0  0  0  0  0  0  0  0  0  0  0
   12.0840    2.9996    0.0000 H   0  0  0  0  0  0  0  0  0  0  0  0
    9.1360    3.6550    0.0000 H   0  0  0  0  0  0  0  0  0  0  0  0
    7.7331    1.2250    0.0000 H   0  0  0  0  0  0  0  0  0  0  0  0
   13.5329    0.5121    0.0000 H   0  0  0  0  0  0  0  0  0  0  0  0
   12.6129   -1.0058    0.0000 H   0  0  0  0  0  0  0  0  0  0  0  0
   14.3994    2.0612    0.0000 H   0  0  0  0  0  0  0  0  0  0  0  0
    5.4641    2.1550    0.0000 H   0  0  0  0  0  0  0  0  0  0  0  0
    8.2700    5.1550    0.0000 H   0  0  0  0  0  0  0  0  0  0  0  0
    6.0010    4.4650    0.0000 H   0  0  0  0  0  0  0  0  0  0  0  0
  1 17  1  0  0  0  0
  1 25  1  0  0  0  0
 22  2  1  6  0  0  0
  2 26  1  0  0  0  0
  3 22  1  0  0  0  0
  3 27  1  0  0  0  0
 18  4  1  6  0  0  0
  4 59  1  0  0  0  0
 19  5  1  1  0  0  0
  5 60  1  0  0  0  0
 25  6  1  1  0  0  0
  6 29  1  0  0  0  0
 20  7  1  6  0  0  0
  7 61  1  0  0  0  0
 21  8  1  1  0  0  0
  8 62  1  0  0  0  0
 23  9  1  1  0  0  0
  9 63  1  0  0  0  0
 24 10  1  6  0  0  0
 10 64  1  0  0  0  0
 11 30  2  0  0  0  0
 11 34  1  0  0  0  0
 12 35  1  0  0  0  0
 12 70  1  0  0  0  0
 13 40  1  0  0  0  0
 13 71  1  0  0  0  0
 14 41  1  0  0  0  0
 14 72  1  0  0  0  0
 15 42  1  0  0  0  0
 15 73  1  0  0  0  0
 16 43  1  0  0  0  0
 16 74  1  0  0  0  0
 17 18  1  0  0  0  0
 17 26  1  1  0  0  0
 17 44  1  0  0  0  0
 18 19  1  0  0  0  0
 18 45  1  0  0  0  0
 19 20  1  0  0  0  0
 19 46  1  0  0  0  0
 20 25  1  0  0  0  0
 20 47  1  0  0  0  0
 21 22  1  0  0  0  0
 21 23  1  0  0  0  0
 21 48  1  0  0  0  0
 22 49  1  0  0  0  0
 23 24  1  0  0  0  0
 23 50  1  0  0  0  0
 24 27  1  0  0  0  0
 24 51  1  0  0  0  0
 25 52  1  0  0  0  0
 26 53  1  0  0  0  0
 26 54  1  0  0  0  0
 27 28  1  1  0  0  0
 27 55  1  0  0  0  0
 28 56  1  0  0  0  0
 28 57  1  0  0  0  0
 28 58  1  0  0  0  0
 29 30  1  0  0  0  0
 29 31  2  0  0  0  0
 30 33  1  0  0  0  0
 31 32  1  0  0  0  0
 31 65  1  0  0  0  0
 32 34  1  0  0  0  0
 32 35  2  0  0  0  0
 33 37  2  0  0  0  0
 33 38  1  0  0  0  0
 34 36  2  0  0  0  0
 35 39  1  0  0  0  0
 36 40  1  0  0  0  0
 36 66  1  0  0  0  0
 37 42  1  0  0  0  0
 37 67  1  0  0  0  0
 38 41  2  0  0  0  0
 38 68  1  0  0  0  0
 39 40  2  0  0  0  0
 39 69  1  0  0  0  0
 41 43  1  0  0  0  0
 42 43  2  0  0  0  0
M  CHG  1  11   1
M  END
> <PUBCHEM_COMPOUND_CID>
5492231

> <PUBCHEM_COMPOUND_CANONICALIZED>
1

> <PUBCHEM_CACTVS_COMPLEXITY>
902

> <PUBCHEM_CACTVS_HBOND_ACCEPTOR>
15

> <PUBCHEM_CACTVS_HBOND_DONOR>
11

> <PUBCHEM_CACTVS_ROTATABLE_BOND>
6

> <PUBCHEM_CACTVS_SUBSKEYS>
AAADceB4PgAAAAAAAAAAAAAAAAAAAAAAAAA0aJECAAAAAACR9AAAGgAACAAADBSwmAMyDsAABkCIAqBSAAICCAAkIAAAiAFGiMgdNzaGNR6ieWOl4BUPuYfK7PzOIAABCAAIQABAAAIQABCAAAAAAAAAAA==

> <PUBCHEM_IUPAC_OPENEYE_NAME>
(2R,3R,4R,5R,6S)-2-[[(2R,3S,4S,5R,6S)-6-[5,7-dihydroxy-2-(3,4,5-trihydroxyphenyl)chromenylium-3-yl]oxy-3,4,5-trihydroxy-tetrahydropyran-2-yl]methoxy]-6-methyl-tetrahydropyran-3,4,5-triol

> <PUBCHEM_IUPAC_CAS_NAME>
(2R,3R,4R,5R,6S)-2-[[(2R,3S,4S,5R,6S)-6-[[5,7-dihydroxy-2-(3,4,5-trihydroxyphenyl)-1-benzopyrylium-3-yl]oxy]-3,4,5-trihydroxy-2-oxanyl]methoxy]-6-methyloxane-3,4,5-triol

> <PUBCHEM_IUPAC_NAME>
(2R,3R,4R,5R,6S)-2-[[(2R,3S,4S,5R,6S)-6-[5,7-dihydroxy-2-(3,4,5-trihydroxyphenyl)chromenylium-3-yl]oxy-3,4,5-trihydroxyoxan-2-yl]methoxy]-6-methyloxane-3,4,5-triol

> <PUBCHEM_IUPAC_SYSTEMATIC_NAME>
(2R,3R,4R,5R,6S)-2-[[(2R,3S,4S,5R,6S)-6-[5,7-bis(oxidanyl)-2-[3,4,5-tris(oxidanyl)phenyl]chromenylium-3-yl]oxy-3,4,5-tris(oxidanyl)oxan-2-yl]methoxy]-6-methyl-oxane-3,4,5-triol

> <PUBCHEM_IUPAC_TRADITIONAL_NAME>
(2R,3R,4R,5R,6S)-2-[[(2R,3S,4S,5R,6S)-6-[[5,7-dihydroxy-2-(3,4,5-trihydroxyphenyl)-1-benzopyrylium-3-yl]oxy]-3,4,5-trihydroxy-tetrahydropyran-2-yl]methoxy]-6-methyl-tetrahydropyran-3,4,5-triol

> <PUBCHEM_IUPAC_INCHI>
InChI=1S/C27H30O16/c1-8-18(32)21(35)23(37)26(40-8)39-7-17-20(34)22(36)24(38)27(43-17)42-16-6-11-12(29)4-10(28)5-15(11)41-25(16)9-2-13(30)19(33)14(31)3-9/h2-6,8,17-18,20-24,26-27,32,34-38H,7H2,1H3,(H4-,28,29,30,31,33)/p+1/t8-,17+,18-,20+,21+,22-,23+,24+,26+,27+/m0/s1

> <PUBCHEM_IUPAC_INCHIKEY>
PLKUTZNSKRWCCA-LTSKFBHWSA-O

> <PUBCHEM_EXACT_MASS>
611.16121

> <PUBCHEM_MOLECULAR_FORMULA>
C27H31O16+

> <PUBCHEM_MOLECULAR_WEIGHT>
611.52544

> <PUBCHEM_OPENEYE_CAN_SMILES>
CC1C(C(C(C(O1)OCC2C(C(C(C(O2)OC3=C([O+]=C4C=C(C=C(C4=C3)O)O)C5=CC(=C(C(=C5)O)O)O)O)O)O)O)O)O

> <PUBCHEM_OPENEYE_ISO_SMILES>
C[C@H]1[C@@H]([C@H]([C@H]([C@@H](O1)OC[C@@H]2[C@H]([C@@H]([C@H]([C@@H](O2)OC3=C([O+]=C4C=C(C=C(C4=C3)O)O)C5=CC(=C(C(=C5)O)O)O)O)O)O)O)O)O

> <PUBCHEM_CACTVS_TPSA>
260

> <PUBCHEM_MONOISOTOPIC_WEIGHT>
611.16121

> <PUBCHEM_TOTAL_CHARGE>
1

> <PUBCHEM_HEAVY_ATOM_COUNT>
43

> <PUBCHEM_ATOM_DEF_STEREO_COUNT>
10

> <PUBCHEM_ATOM_UDEF_STEREO_COUNT>
0

> <PUBCHEM_BOND_DEF_STEREO_COUNT>
0

> <PUBCHEM_BOND_UDEF_STEREO_COUNT>
0

> <PUBCHEM_ISOTOPIC_ATOM_COUNT>
0

> <PUBCHEM_COMPONENT_COUNT>
1

> <PUBCHEM_CACTVS_TAUTO_COUNT>
217

> <PUBCHEM_COORDINATE_TYPE>
1
5
255

> <PUBCHEM_BONDANNOTATIONS>
24  10  6
11  30  8
11  34  8
17  26  5
22  2  6
27  28  5
29  30  8
29  31  8
31  32  8
32  34  8
32  35  8
33  37  8
33  38  8
34  36  8
35  39  8
36  40  8
37  42  8
38  41  8
39  40  8
18  4  6
41  43  8
42  43  8
19  5  5
25  6  5
20  7  6
21  8  5
23  9  5

$$$$

