441466
  -OEChem-07051212553D

 38 39  0     1  0  0  0  0  0999 V2000
    0.8175    0.7101   -0.1657 O   0  0  0  0  0  0  0  0  0  0  0  0
   -0.7327   -0.8726   -0.8976 O   0  0  0  0  0  0  0  0  0  0  0  0
    1.1150   -2.9293   -0.2938 O   0  0  0  0  0  0  0  0  0  0  0  0
    3.9017   -1.9864   -0.4551 O   0  0  0  0  0  0  0  0  0  0  0  0
    4.2444    0.4288    1.0957 O   0  0  0  0  0  0  0  0  0  0  0  0
   -1.9413   -1.7136    1.2675 O   0  0  0  0  0  0  0  0  0  0  0  0
   -4.2870    0.9789    1.2972 O   0  0  0  0  0  0  0  0  0  0  0  0
    2.5027    2.8258   -0.7769 O   0  0  0  0  0  0  0  0  0  0  0  0
   -1.1169    2.4871   -0.7294 N   0  0  0  0  0  0  0  0  0  0  0  0
    1.5222   -1.5835   -0.5401 C   0  0  2  0  0  0  0  0  0  0  0  0
    2.8304   -1.3057    0.2002 C   0  0  2  0  0  0  0  0  0  0  0  0
    0.4067   -0.6516   -0.0669 C   0  0  1  0  0  0  0  0  0  0  0  0
    3.1548    0.1883    0.2091 C   0  0  1  0  0  0  0  0  0  0  0  0
    1.9426    1.0045    0.6640 C   0  0  1  0  0  0  0  0  0  0  0  0
   -1.8173   -0.0388   -0.5185 C   0  0  2  0  0  0  0  0  0  0  0  0
   -2.3121   -0.3821    0.9054 C   0  0  1  0  0  0  0  0  0  0  0  0
   -3.8465   -0.2919    0.8456 C   0  0  2  0  0  0  0  0  0  0  0  0
    2.2039    2.5044    0.5693 C   0  0  0  0  0  0  0  0  0  0  0  0
   -3.0285   -0.3090   -1.3583 C   0  0  0  0  0  0  0  0  0  0  0  0
   -4.1334   -0.4360   -0.6153 C   0  0  0  0  0  0  0  0  0  0  0  0
   -1.4260    1.3726   -0.6364 C   0  0  0  0  0  0  0  0  0  0  0  0
    1.6710   -1.4900   -1.6224 H   0  0  0  0  0  0  0  0  0  0  0  0
    2.7885   -1.7050    1.2211 H   0  0  0  0  0  0  0  0  0  0  0  0
    0.1817   -0.8801    0.9797 H   0  0  0  0  0  0  0  0  0  0  0  0
    3.4805    0.4758   -0.7970 H   0  0  0  0  0  0  0  0  0  0  0  0
    1.6912    0.7770    1.7084 H   0  0  0  0  0  0  0  0  0  0  0  0
   -1.8949    0.2928    1.6632 H   0  0  0  0  0  0  0  0  0  0  0  0
   -4.3395   -1.0752    1.4290 H   0  0  0  0  0  0  0  0  0  0  0  0
    3.0281    2.8270    1.2133 H   0  0  0  0  0  0  0  0  0  0  0  0
    1.3080    3.0668    0.8492 H   0  0  0  0  0  0  0  0  0  0  0  0
   -3.0178   -0.3648   -2.4382 H   0  0  0  0  0  0  0  0  0  0  0  0
   -5.1213   -0.6027   -1.0200 H   0  0  0  0  0  0  0  0  0  0  0  0
    0.9774   -3.0327    0.6633 H   0  0  0  0  0  0  0  0  0  0  0  0
    4.7185   -1.7795    0.0307 H   0  0  0  0  0  0  0  0  0  0  0  0
    3.9676    0.1659    1.9901 H   0  0  0  0  0  0  0  0  0  0  0  0
   -2.2845   -1.8776    2.1625 H   0  0  0  0  0  0  0  0  0  0  0  0
   -3.8584    1.6675    0.7613 H   0  0  0  0  0  0  0  0  0  0  0  0
    3.4448    2.6384   -0.9257 H   0  0  0  0  0  0  0  0  0  0  0  0
  1 12  1  0  0  0  0
  1 14  1  0  0  0  0
  2 12  1  0  0  0  0
  2 15  1  0  0  0  0
  3 10  1  0  0  0  0
  3 33  1  0  0  0  0
  4 11  1  0  0  0  0
  4 34  1  0  0  0  0
  5 13  1  0  0  0  0
  5 35  1  0  0  0  0
  6 16  1  0  0  0  0
  6 36  1  0  0  0  0
  7 17  1  0  0  0  0
  7 37  1  0  0  0  0
  8 18  1  0  0  0  0
  8 38  1  0  0  0  0
  9 21  3  0  0  0  0
 10 11  1  0  0  0  0
 10 12  1  0  0  0  0
 10 22  1  0  0  0  0
 11 13  1  0  0  0  0
 11 23  1  0  0  0  0
 12 24  1  0  0  0  0
 13 14  1  0  0  0  0
 13 25  1  0  0  0  0
 14 18  1  0  0  0  0
 14 26  1  0  0  0  0
 15 16  1  0  0  0  0
 15 19  1  0  0  0  0
 15 21  1  0  0  0  0
 16 17  1  0  0  0  0
 16 27  1  0  0  0  0
 17 20  1  0  0  0  0
 17 28  1  0  0  0  0
 18 29  1  0  0  0  0
 18 30  1  0  0  0  0
 19 20  2  0  0  0  0
 19 31  1  0  0  0  0
 20 32  1  0  0  0  0
M  END
> <PUBCHEM_COMPOUND_CID>
441466

> <PUBCHEM_CONFORMER_RMSD>
0.8

> <PUBCHEM_CONFORMER_DIVERSEORDER>
1
5
4
8
3
7
6
9
2

> <PUBCHEM_MMFF94_PARTIAL_CHARGES>
29
1 -0.56
10 0.28
11 0.28
12 0.56
13 0.28
14 0.28
15 0.62
16 0.28
17 0.42
18 0.28
19 -0.29
2 -0.56
20 -0.29
21 0.36
3 -0.68
31 0.15
32 0.15
33 0.4
34 0.4
35 0.4
36 0.4
37 0.4
38 0.4
4 -0.68
5 -0.68
6 -0.68
7 -0.68
8 -0.68
9 -0.56

> <PUBCHEM_EFFECTIVE_ROTOR_COUNT>
4.8

> <PUBCHEM_PHARMACOPHORE_FEATURES>
17
1 1 acceptor
1 2 acceptor
1 3 acceptor
1 3 donor
1 4 acceptor
1 4 donor
1 5 acceptor
1 5 donor
1 6 acceptor
1 6 donor
1 7 acceptor
1 7 donor
1 8 acceptor
1 8 donor
1 9 acceptor
5 15 16 17 19 20 rings
6 1 10 11 12 13 14 rings

> <PUBCHEM_HEAVY_ATOM_COUNT>
21

> <PUBCHEM_ATOM_DEF_STEREO_COUNT>
8

> <PUBCHEM_ATOM_UDEF_STEREO_COUNT>
0

> <PUBCHEM_BOND_DEF_STEREO_COUNT>
0

> <PUBCHEM_BOND_UDEF_STEREO_COUNT>
0

> <PUBCHEM_ISOTOPIC_ATOM_COUNT>
0

> <PUBCHEM_COMPONENT_COUNT>
1

> <PUBCHEM_CACTVS_TAUTO_COUNT>
1

> <PUBCHEM_CONFORMER_ID>
0006BC7A00000001

> <PUBCHEM_MMFF94_ENERGY>
67.8113

> <PUBCHEM_FEATURE_SELFOVERLAP>
86.343

> <PUBCHEM_SHAPE_FINGERPRINT>
10366900 7 18272646874302872843
10967382 1 18337680724017392308
11471102 20 18408327695918125694
11578080 2 13038084100062692830
11640471 11 17385991871938549587
12236239 1 17530689801367218959
12251169 10 18187641461933398963
12553582 1 18339644571801409594
12596599 1 17530954787363386159
12633257 1 18273501160487953456
12670545 47 18201999902169972319
13140716 1 18267870484328061482
13224815 77 18341894030831135709
13296908 3 17346322557465562241
13583140 156 16915688941310836316
14223421 5 18342458144705071149
14790565 3 18266168432113694236
15219456 202 18339648935519473629
15309172 13 18336832978718824831
15375358 24 18273223001558440487
15775835 57 17822295647555176850
15848702 151 18040713709901976775
16752209 62 15626228992335826203
16945 1 18411984675792130550
1813 80 17824526686082899670
18186145 218 18260548926582542686
19049666 15 18127133210615667943
200 152 17968392199082597527
20645477 70 18342190933509767301
20739085 24 18336259150288372154
21041028 32 18189047762822219728
22182313 1 18265067992967290884
2255824 54 18407758127647026158
22854114 111 18333733515696325354
23184049 59 18334857216611613031
2334 1 17979079284210640838
23419403 2 14756539603889814251
23559900 14 18060703904973380334
2748010 2 18197494026236256862
3286 77 17458922456612795073
474 4 18335706005091335251
5104073 3 18261115196466790531
6049 1 18131072653424906309
633830 44 18115014208675924908
7364860 26 18335986385347400484
77492 1 17458347412020983655
81228 2 17915737776834612861
9709674 26 18413394228334976479

> <PUBCHEM_SHAPE_MULTIPOLES>
380.23
7.48
2.6
1.14
1.46
0.6
-0.1
-0.24
-1.36
-2.34
0.36
0.76
0.06
0.29

> <PUBCHEM_SHAPE_SELFOVERLAP>
800.994

> <PUBCHEM_SHAPE_VOLUME>
210.6

> <PUBCHEM_COORDINATE_TYPE>
2
5
10

$$$$

