5281545
  -OEChem-07051212582D

 35 38  0     1  0  0  0  0  0999 V2000
    7.5110    1.3878    0.0000 O   0  0  0  0  0  0  0  0  0  0  0  0
    7.3206   -1.0957    0.0000 O   0  0  0  0  0  0  0  0  0  0  0  0
    5.6648    1.9038    0.0000 O   0  0  0  0  0  0  0  0  0  0  0  0
    8.9025   -1.9038    0.0000 O   0  0  0  0  0  0  0  0  0  0  0  0
    2.9327    0.7592    0.0000 O   0  0  0  0  0  0  0  0  0  0  0  0
    3.5572   -0.8564    0.0000 O   0  0  0  0  0  0  0  0  0  0  0  0
    6.2020    0.4367    0.0000 C   0  0  2  0  0  0  0  0  0  0  0  0
    7.0110   -0.1510    0.0000 C   0  0  1  0  0  0  0  0  0  0  0  0
    7.8200    0.4367    0.0000 C   0  0  2  0  0  0  0  0  0  0  0  0
    5.3992   -0.1496    0.0000 C   0  0  2  0  0  0  0  0  0  0  0  0
    6.5110    1.3878    0.0000 C   0  0  1  0  0  0  0  0  0  0  0  0
    6.7013   -1.0957    0.0000 C   0  0  0  0  0  0  0  0  0  0  0  0
    5.7073   -1.0948    0.0000 C   0  0  0  0  0  0  0  0  0  0  0  0
    8.6227   -0.1496    0.0000 C   0  0  0  0  0  0  0  0  0  0  0  0
    4.6441    0.4922    0.0000 C   0  0  0  0  0  0  0  0  0  0  0  0
    8.3147   -1.0948    0.0000 C   0  0  0  0  0  0  0  0  0  0  0  0
    4.7712    1.4752    0.0000 C   0  0  0  0  0  0  0  0  0  0  0  0
    9.5743    0.1577    0.0000 C   0  0  0  0  0  0  0  0  0  0  0  0
    3.7114    0.1317    0.0000 C   0  0  0  0  0  0  0  0  0  0  0  0
    9.7839    1.1355    0.0000 C   0  0  0  0  0  0  0  0  0  0  0  0
    2.0000    0.3987    0.0000 C   0  0  0  0  0  0  0  0  0  0  0  0
    5.9393   -0.3717    0.0000 H   0  0  0  0  0  0  0  0  0  0  0  0
    8.5083    0.9355    0.0000 H   0  0  0  0  0  0  0  0  0  0  0  0
    4.6933   -0.6230    0.0000 H   0  0  0  0  0  0  0  0  0  0  0  0
    6.7408    2.2061    0.0000 H   0  0  0  0  0  0  0  0  0  0  0  0
    7.0649   -1.5979    0.0000 H   0  0  0  0  0  0  0  0  0  0  0  0
    5.3428   -1.5964    0.0000 H   0  0  0  0  0  0  0  0  0  0  0  0
    4.2688    1.8384    0.0000 H   0  0  0  0  0  0  0  0  0  0  0  0
   10.0343   -0.2579    0.0000 H   0  0  0  0  0  0  0  0  0  0  0  0
   10.3901    1.0056    0.0000 H   0  0  0  0  0  0  0  0  0  0  0  0
    9.9138    1.7417    0.0000 H   0  0  0  0  0  0  0  0  0  0  0  0
    9.1777    1.2655    0.0000 H   0  0  0  0  0  0  0  0  0  0  0  0
    1.7765    0.9770    0.0000 H   0  0  0  0  0  0  0  0  0  0  0  0
    1.4217    0.1751    0.0000 H   0  0  0  0  0  0  0  0  0  0  0  0
    2.2235   -0.1796    0.0000 H   0  0  0  0  0  0  0  0  0  0  0  0
  1  9  1  0  0  0  0
  1 11  1  0  0  0  0
  8  2  1  1  0  0  0
  2 16  1  0  0  0  0
  3 11  1  0  0  0  0
  3 17  1  0  0  0  0
  4 16  2  0  0  0  0
  5 19  1  0  0  0  0
  5 21  1  0  0  0  0
  6 19  2  0  0  0  0
  7  8  1  0  0  0  0
  7 10  1  0  0  0  0
  7 11  1  0  0  0  0
  7 22  1  1  0  0  0
  8  9  1  0  0  0  0
  8 12  1  0  0  0  0
  9 14  1  0  0  0  0
  9 23  1  6  0  0  0
 10 13  1  0  0  0  0
 10 15  1  0  0  0  0
 10 24  1  1  0  0  0
 11 25  1  1  0  0  0
 12 13  2  0  0  0  0
 12 26  1  0  0  0  0
 13 27  1  0  0  0  0
 14 16  1  0  0  0  0
 14 18  2  0  0  0  0
 15 17  2  0  0  0  0
 15 19  1  0  0  0  0
 17 28  1  0  0  0  0
 18 20  1  0  0  0  0
 18 29  1  0  0  0  0
 20 30  1  0  0  0  0
 20 31  1  0  0  0  0
 20 32  1  0  0  0  0
 21 33  1  0  0  0  0
 21 34  1  0  0  0  0
 21 35  1  0  0  0  0
M  END
> <PUBCHEM_COMPOUND_CID>
5281545

> <PUBCHEM_COMPOUND_CANONICALIZED>
1

> <PUBCHEM_CACTVS_COMPLEXITY>
630

> <PUBCHEM_CACTVS_HBOND_ACCEPTOR>
6

> <PUBCHEM_CACTVS_HBOND_DONOR>
0

> <PUBCHEM_CACTVS_ROTATABLE_BOND>
2

> <PUBCHEM_CACTVS_SUBSKEYS>
AAADccBwOAAAAAAAAAAAAAAAAAAAASJEAAAgAAAAAAASIEAAAAAAGgAAAAAADVSwgAMCCAAABACIAiDSCAAACAAgIAAICAEAAEgRBBYAIQAiEAAF4AAOIYPK7PzOgAAAAAAAAAAAAAAAAAAAAAAAAAAAAA==

> <PUBCHEM_IUPAC_INCHI>
InChI=1S/C15H14O6/c1-3-7-11-15(21-13(7)17)5-4-8-9(12(16)18-2)6-19-14(20-11)10(8)15/h3-6,8,10-11,14H,1-2H3/b7-3+/t8-,10-,11+,14-,15+/m1/s1

> <PUBCHEM_IUPAC_INCHIKEY>
VFXXNAVZODKBIW-JKXVGBJFSA-N

> <PUBCHEM_XLOGP3_AA>
0.8

> <PUBCHEM_EXACT_MASS>
290.079038

> <PUBCHEM_MOLECULAR_FORMULA>
C15H14O6

> <PUBCHEM_MOLECULAR_WEIGHT>
290.26806

> <PUBCHEM_OPENEYE_CAN_SMILES>
CC=C1C2C3(C=CC4C3C(O2)OC=C4C(=O)OC)OC1=O

> <PUBCHEM_OPENEYE_ISO_SMILES>
C/C=C/1\[C@H]2[C@@]3(C=C[C@H]4[C@@H]3[C@@H](O2)OC=C4C(=O)OC)OC1=O

> <PUBCHEM_CACTVS_TPSA>
71.1

> <PUBCHEM_MONOISOTOPIC_WEIGHT>
290.079038

> <PUBCHEM_TOTAL_CHARGE>
0

> <PUBCHEM_HEAVY_ATOM_COUNT>
21

> <PUBCHEM_ATOM_DEF_STEREO_COUNT>
5

> <PUBCHEM_ATOM_UDEF_STEREO_COUNT>
0

> <PUBCHEM_BOND_DEF_STEREO_COUNT>
1

> <PUBCHEM_BOND_UDEF_STEREO_COUNT>
0

> <PUBCHEM_ISOTOPIC_ATOM_COUNT>
0

> <PUBCHEM_COMPONENT_COUNT>
1

> <PUBCHEM_CACTVS_TAUTO_COUNT>
1

> <PUBCHEM_COORDINATE_TYPE>
1
5
255

> <PUBCHEM_BONDANNOTATIONS>
10  24  5
11  25  5
8  2  5
7  22  5
9  23  6

$$$$

