3917
  -OEChem-07051213113D

 26 26  0     1  0  0  0  0  0999 V2000
    1.9802    0.1708   -1.8562 O   0  0  0  0  0  0  0  0  0  0  0  0
   -2.3992    2.0718    0.0931 O   0  0  0  0  0  0  0  0  0  0  0  0
   -3.8065   -0.3119    0.3464 O   0  0  0  0  0  0  0  0  0  0  0  0
    4.0029    0.3448    0.1505 N   0  0  0  0  0  0  0  0  0  0  0  0
    1.7628   -0.3935   -0.5600 C   0  0  1  0  0  0  0  0  0  0  0  0
    2.5770    0.3840    0.4986 C   0  0  1  0  0  0  0  0  0  0  0  0
    0.2688   -0.3679   -0.3176 C   0  0  0  0  0  0  0  0  0  0  0  0
    2.4183   -0.1971    1.9049 C   0  0  0  0  0  0  0  0  0  0  0  0
   -0.3792    0.8512   -0.2236 C   0  0  0  0  0  0  0  0  0  0  0  0
   -0.4155   -1.5644   -0.1944 C   0  0  0  0  0  0  0  0  0  0  0  0
   -1.7556    0.8746    0.0008 C   0  0  0  0  0  0  0  0  0  0  0  0
   -1.7919   -1.5410    0.0300 C   0  0  0  0  0  0  0  0  0  0  0  0
   -2.4620   -0.3215    0.1276 C   0  0  0  0  0  0  0  0  0  0  0  0
    2.1162   -1.4311   -0.6088 H   0  0  0  0  0  0  0  0  0  0  0  0
    2.2880    1.4408    0.5169 H   0  0  0  0  0  0  0  0  0  0  0  0
    3.0555    0.3337    2.6215 H   0  0  0  0  0  0  0  0  0  0  0  0
    1.3870   -0.1022    2.2596 H   0  0  0  0  0  0  0  0  0  0  0  0
    2.6900   -1.2584    1.9345 H   0  0  0  0  0  0  0  0  0  0  0  0
    0.1649    1.7850   -0.3321 H   0  0  0  0  0  0  0  0  0  0  0  0
    0.0953   -2.5199   -0.2677 H   0  0  0  0  0  0  0  0  0  0  0  0
    4.1336    0.7017   -0.7953 H   0  0  0  0  0  0  0  0  0  0  0  0
    4.3260   -0.6221    0.1323 H   0  0  0  0  0  0  0  0  0  0  0  0
   -2.3365   -2.4762    0.1280 H   0  0  0  0  0  0  0  0  0  0  0  0
    2.1841    1.1157   -1.7537 H   0  0  0  0  0  0  0  0  0  0  0  0
   -1.7523    2.7894   -0.0184 H   0  0  0  0  0  0  0  0  0  0  0  0
   -4.1033    0.6139    0.3859 H   0  0  0  0  0  0  0  0  0  0  0  0
  1  5  1  0  0  0  0
  1 24  1  0  0  0  0
  2 11  1  0  0  0  0
  2 25  1  0  0  0  0
  3 13  1  0  0  0  0
  3 26  1  0  0  0  0
  4  6  1  0  0  0  0
  4 21  1  0  0  0  0
  4 22  1  0  0  0  0
  5  6  1  0  0  0  0
  5  7  1  0  0  0  0
  5 14  1  0  0  0  0
  6  8  1  0  0  0  0
  6 15  1  0  0  0  0
  7  9  2  0  0  0  0
  7 10  1  0  0  0  0
  8 16  1  0  0  0  0
  8 17  1  0  0  0  0
  8 18  1  0  0  0  0
  9 11  1  0  0  0  0
  9 19  1  0  0  0  0
 10 12  2  0  0  0  0
 10 20  1  0  0  0  0
 11 13  2  0  0  0  0
 12 13  1  0  0  0  0
 12 23  1  0  0  0  0
M  END
> <PUBCHEM_COMPOUND_CID>
3917

> <PUBCHEM_CONFORMER_RMSD>
0.6

> <PUBCHEM_CONFORMER_DIVERSEORDER>
1
17
9
15
13
4
19
6
11
8
3
14
2
5
10
18
16
12
7

> <PUBCHEM_MMFF94_PARTIAL_CHARGES>
20
1 -0.68
10 -0.15
11 0.08
12 -0.15
13 0.08
19 0.15
2 -0.53
20 0.15
21 0.36
22 0.36
23 0.15
24 0.4
25 0.45
26 0.45
3 -0.53
4 -0.99
5 0.42
6 0.27
7 -0.14
9 -0.15

> <PUBCHEM_EFFECTIVE_ROTOR_COUNT>
2

> <PUBCHEM_PHARMACOPHORE_FEATURES>
7
1 1 acceptor
1 1 donor
1 2 donor
1 3 donor
1 4 cation
1 4 donor
6 7 9 10 11 12 13 rings

> <PUBCHEM_HEAVY_ATOM_COUNT>
13

> <PUBCHEM_ATOM_DEF_STEREO_COUNT>
0

> <PUBCHEM_ATOM_UDEF_STEREO_COUNT>
2

> <PUBCHEM_BOND_DEF_STEREO_COUNT>
0

> <PUBCHEM_BOND_UDEF_STEREO_COUNT>
0

> <PUBCHEM_ISOTOPIC_ATOM_COUNT>
0

> <PUBCHEM_COMPONENT_COUNT>
1

> <PUBCHEM_CACTVS_TAUTO_COUNT>
10

> <PUBCHEM_CONFORMER_ID>
00000F4D00000001

> <PUBCHEM_MMFF94_ENERGY>
26.4299

> <PUBCHEM_FEATURE_SELFOVERLAP>
35.527

> <PUBCHEM_SHAPE_FINGERPRINT>
10857977 72 18334859381301374011
11031198 65 16443058379338420708
12251169 10 18341621386571014096
124424 183 17822017549034788066
12932764 1 17530972388270947830
13538477 17 17916860205969822214
13581323 91 18413394224045147594
13839132 238 18187927343124607732
15219456 202 17895188952356437774
15310529 11 14562521903787111799
15775835 57 18271809055211459192
16945 1 18410848846290138639
17846911 113 18335143094167023041
18175812 5 17531530867231894718
18186145 218 17677040364927189153
20201158 50 17530679901066648814
20510252 161 18333729147804503385
20645464 45 17894630352888434415
20871998 184 18188206481802977711
21040471 1 18338790247034606759
22445834 79 17775015604131819146
23402539 116 18334870389555859055
2748010 2 18122895688950233991
369184 2 18412272722095138723
5084963 1 18115291367315647063
53812653 166 18187644760204583921
6333449 129 18040721333521564151
7364860 26 18044655544823720038
77492 1 17703789206572093982

> <PUBCHEM_SHAPE_MULTIPOLES>
244.94
5.44
1.44
1.17
1.13
0.14
0.08
0.69
1.06
-1.17
-0.01
1.16
-0.03
-0.01

> <PUBCHEM_SHAPE_SELFOVERLAP>
505.487

> <PUBCHEM_SHAPE_VOLUME>
141.6

> <PUBCHEM_COORDINATE_TYPE>
2
5
10

$$$$

