73949
  -OEChem-07051212522D

 11 11  0     0  0  0  0  0  0999 V2000
    3.3090    1.0794    0.0000 O   0  0  0  0  0  0  0  0  0  0  0  0
    4.5691   -0.1807    0.0000 O   0  0  0  0  0  0  0  0  0  0  0  0
    2.8090   -0.4594    0.0000 N   0  0  0  0  0  0  0  0  0  0  0  0
    2.0000    0.1284    0.0000 C   0  0  0  0  0  0  0  0  0  0  0  0
    2.3090    1.0794    0.0000 C   0  0  0  0  0  0  0  0  0  0  0  0
    3.6180    0.1284    0.0000 C   0  0  0  0  0  0  0  0  0  0  0  0
    1.4336    0.3805    0.0000 H   0  0  0  0  0  0  0  0  0  0  0  0
    1.6900   -0.4086    0.0000 H   0  0  0  0  0  0  0  0  0  0  0  0
    2.3738    1.6960    0.0000 H   0  0  0  0  0  0  0  0  0  0  0  0
    1.7026    1.2083    0.0000 H   0  0  0  0  0  0  0  0  0  0  0  0
    2.8090   -1.0794    0.0000 H   0  0  0  0  0  0  0  0  0  0  0  0
  1  5  1  0  0  0  0
  1  6  1  0  0  0  0
  2  6  2  0  0  0  0
  3  4  1  0  0  0  0
  3  6  1  0  0  0  0
  3 11  1  0  0  0  0
  4  5  1  0  0  0  0
  4  7  1  0  0  0  0
  4  8  1  0  0  0  0
  5  9  1  0  0  0  0
  5 10  1  0  0  0  0
M  END
> <PUBCHEM_COMPOUND_CID>
73949

> <PUBCHEM_COMPOUND_CANONICALIZED>
1

> <PUBCHEM_CACTVS_COMPLEXITY>
71.2

> <PUBCHEM_CACTVS_HBOND_ACCEPTOR>
2

> <PUBCHEM_CACTVS_HBOND_DONOR>
1

> <PUBCHEM_CACTVS_ROTATABLE_BOND>
0

> <PUBCHEM_CACTVS_SUBSKEYS>
AAADcYBCMAAAAAAAAAAAAAAAAAAAAWAAAAAAAAAAAAAAAAAAAAAAHgAQAAAAAADhgAYACALABAAIAAAAGAAAAAAAAAAAAIAIAAECAAAAAAAJAAAAFgAQAAAAAAAAAAAAAAAAAAAAAAAAAAAAAAAAAAAAAA==

> <PUBCHEM_IUPAC_OPENEYE_NAME>
oxazolidin-2-one

> <PUBCHEM_IUPAC_CAS_NAME>
2-oxazolidinone

> <PUBCHEM_IUPAC_NAME>
1,3-oxazolidin-2-one

> <PUBCHEM_IUPAC_SYSTEMATIC_NAME>
1,3-oxazolidin-2-one

> <PUBCHEM_IUPAC_TRADITIONAL_NAME>
oxazolidin-2-one

> <PUBCHEM_IUPAC_INCHI>
InChI=1S/C3H5NO2/c5-3-4-1-2-6-3/h1-2H2,(H,4,5)

> <PUBCHEM_IUPAC_INCHIKEY>
IZXIZTKNFFYFOF-UHFFFAOYSA-N

> <PUBCHEM_XLOGP3_AA>
-0.3

> <PUBCHEM_EXACT_MASS>
87.032028

> <PUBCHEM_MOLECULAR_FORMULA>
C3H5NO2

> <PUBCHEM_MOLECULAR_WEIGHT>
87.0773

> <PUBCHEM_OPENEYE_CAN_SMILES>
C1COC(=O)N1

> <PUBCHEM_OPENEYE_ISO_SMILES>
C1COC(=O)N1

> <PUBCHEM_CACTVS_TPSA>
38.3

> <PUBCHEM_MONOISOTOPIC_WEIGHT>
87.032028

> <PUBCHEM_TOTAL_CHARGE>
0

> <PUBCHEM_HEAVY_ATOM_COUNT>
6

> <PUBCHEM_ATOM_DEF_STEREO_COUNT>
0

> <PUBCHEM_ATOM_UDEF_STEREO_COUNT>
0

> <PUBCHEM_BOND_DEF_STEREO_COUNT>
0

> <PUBCHEM_BOND_UDEF_STEREO_COUNT>
0

> <PUBCHEM_ISOTOPIC_ATOM_COUNT>
0

> <PUBCHEM_COMPONENT_COUNT>
1

> <PUBCHEM_CACTVS_TAUTO_COUNT>
2

> <PUBCHEM_COORDINATE_TYPE>
1
5
255

$$$$

