161496
  -OEChem-07051212562D

 62 66  0     1  0  0  0  0  0999 V2000
    7.3494    0.9405    0.0000 O   0  0  0  0  0  0  0  0  0  0  0  0
    7.9771   -1.9063    0.0000 O   0  0  0  0  0  0  0  0  0  0  0  0
    5.3307    1.6441    0.0000 O   0  0  0  0  0  0  0  0  0  0  0  0
    7.0628    2.6441    0.0000 O   0  0  0  0  0  0  0  0  0  0  0  0
    9.6906    0.1796    0.0000 O   0  0  0  0  0  0  0  0  0  0  0  0
    9.4288    2.0101    0.0000 O   0  0  0  0  0  0  0  0  0  0  0  0
    7.9288    2.8761    0.0000 O   0  0  0  0  0  0  0  0  0  0  0  0
    9.7386   -1.8589    0.0000 O   0  0  0  0  0  0  0  0  0  0  0  0
    2.5357   -1.9082    0.0000 O   0  0  0  0  0  0  0  0  0  0  0  0
    2.5519    0.1834    0.0000 O   0  0  0  0  0  0  0  0  0  0  0  0
   10.5974   -1.2961    0.0000 O   0  0  0  0  0  0  0  0  0  0  0  0
    7.0628   -0.3559    0.0000 C   0  0  2  0  0  0  0  0  0  0  0  0
    6.1968    0.1441    0.0000 C   0  0  1  0  0  0  0  0  0  0  0  0
    7.9288    0.1441    0.0000 C   0  0  2  0  0  0  0  0  0  0  0  0
    5.2868   -0.3628    0.0000 C   0  0  2  0  0  0  0  0  0  0  0  0
    7.9288    1.1441    0.0000 C   0  0  1  0  0  0  0  0  0  0  0  0
    7.0789   -1.3974    0.0000 C   0  0  1  0  0  0  0  0  0  0  0  0
    6.1968    1.1441    0.0000 C   0  0  2  0  0  0  0  0  0  0  0  0
    5.2787   -1.4044    0.0000 C   0  0  1  0  0  0  0  0  0  0  0  0
    6.9494    0.2477    0.0000 C   0  0  0  0  0  0  0  0  0  0  0  0
    7.0628    1.6441    0.0000 C   0  0  2  0  0  0  0  0  0  0  0  0
    6.1808   -1.9252    0.0000 C   0  0  0  0  0  0  0  0  0  0  0  0
    8.8386   -0.3439    0.0000 C   0  0  2  0  0  0  0  0  0  0  0  0
    4.3599    0.2013    0.0000 C   0  0  0  0  0  0  0  0  0  0  0  0
    4.9520    0.5795    0.0000 C   0  0  0  0  0  0  0  0  0  0  0  0
    4.3433   -1.9541    0.0000 C   0  0  0  0  0  0  0  0  0  0  0  0
    8.4288    2.0101    0.0000 C   0  0  0  0  0  0  0  0  0  0  0  0
    8.8629   -1.3760    0.0000 C   0  0  0  0  0  0  0  0  0  0  0  0
    3.4120   -0.3266    0.0000 C   0  0  0  0  0  0  0  0  0  0  0  0
    3.4037   -1.4116    0.0000 C   0  0  0  0  0  0  0  0  0  0  0  0
    4.3472   -2.9541    0.0000 C   0  0  0  0  0  0  0  0  0  0  0  0
   10.5700   -0.2965    0.0000 C   0  0  0  0  0  0  0  0  0  0  0  0
    9.9288    2.8761    0.0000 C   0  0  0  0  0  0  0  0  0  0  0  0
   11.4220    0.2271    0.0000 C   0  0  0  0  0  0  0  0  0  0  0  0
    5.4606    0.5691    0.0000 H   0  0  0  0  0  0  0  0  0  0  0  0
    8.3538   -0.5920    0.0000 H   0  0  0  0  0  0  0  0  0  0  0  0
    7.0856   -2.2474    0.0000 H   0  0  0  0  0  0  0  0  0  0  0  0
    6.1968    1.7641    0.0000 H   0  0  0  0  0  0  0  0  0  0  0  0
    5.2820   -2.2544    0.0000 H   0  0  0  0  0  0  0  0  0  0  0  0
    6.5222    0.6971    0.0000 H   0  0  0  0  0  0  0  0  0  0  0  0
    6.3974   -0.0347    0.0000 H   0  0  0  0  0  0  0  0  0  0  0  0
    7.5997    1.9541    0.0000 H   0  0  0  0  0  0  0  0  0  0  0  0
    5.7835   -2.4012    0.0000 H   0  0  0  0  0  0  0  0  0  0  0  0
    6.5818   -2.3981    0.0000 H   0  0  0  0  0  0  0  0  0  0  0  0
    9.3833   -0.6402    0.0000 H   0  0  0  0  0  0  0  0  0  0  0  0
    4.7681    0.6680    0.0000 H   0  0  0  0  0  0  0  0  0  0  0  0
    3.9700    0.6834    0.0000 H   0  0  0  0  0  0  0  0  0  0  0  0
    5.5362    0.7871    0.0000 H   0  0  0  0  0  0  0  0  0  0  0  0
    4.7444    1.1638    0.0000 H   0  0  0  0  0  0  0  0  0  0  0  0
    4.3678    0.3720    0.0000 H   0  0  0  0  0  0  0  0  0  0  0  0
    5.3307    2.2641    0.0000 H   0  0  0  0  0  0  0  0  0  0  0  0
    6.5259    2.9541    0.0000 H   0  0  0  0  0  0  0  0  0  0  0  0
    3.7272   -2.9565    0.0000 H   0  0  0  0  0  0  0  0  0  0  0  0
    4.3496   -3.5741    0.0000 H   0  0  0  0  0  0  0  0  0  0  0  0
    4.9672   -2.9517    0.0000 H   0  0  0  0  0  0  0  0  0  0  0  0
    2.0000   -1.5962    0.0000 H   0  0  0  0  0  0  0  0  0  0  0  0
   10.4658    2.5661    0.0000 H   0  0  0  0  0  0  0  0  0  0  0  0
   10.2388    3.4131    0.0000 H   0  0  0  0  0  0  0  0  0  0  0  0
    9.3919    3.1861    0.0000 H   0  0  0  0  0  0  0  0  0  0  0  0
   11.7466   -0.3012    0.0000 H   0  0  0  0  0  0  0  0  0  0  0  0
   11.9502    0.5517    0.0000 H   0  0  0  0  0  0  0  0  0  0  0  0
   11.0974    0.7553    0.0000 H   0  0  0  0  0  0  0  0  0  0  0  0
  1 16  1  0  0  0  0
  1 20  1  0  0  0  0
  2 17  1  0  0  0  0
  2 28  1  0  0  0  0
 18  3  1  1  0  0  0
  3 51  1  0  0  0  0
 21  4  1  6  0  0  0
  4 52  1  0  0  0  0
 23  5  1  1  0  0  0
  5 32  1  0  0  0  0
  6 27  1  0  0  0  0
  6 33  1  0  0  0  0
  7 27  2  0  0  0  0
  8 28  2  0  0  0  0
  9 30  1  0  0  0  0
  9 56  1  0  0  0  0
 10 29  2  0  0  0  0
 11 32  2  0  0  0  0
 12 13  1  0  0  0  0
 12 14  1  0  0  0  0
 12 17  1  0  0  0  0
 12 20  1  1  0  0  0
 13 15  1  0  0  0  0
 13 18  1  0  0  0  0
 13 35  1  6  0  0  0
 14 16  1  0  0  0  0
 14 23  1  0  0  0  0
 14 36  1  1  0  0  0
 15 19  1  0  0  0  0
 15 24  1  0  0  0  0
 15 25  1  1  0  0  0
 16 21  1  0  0  0  0
 16 27  1  1  0  0  0
 17 22  1  0  0  0  0
 17 37  1  1  0  0  0
 18 21  1  0  0  0  0
 18 38  1  0  0  0  0
 19 22  1  0  0  0  0
 19 26  1  0  0  0  0
 19 39  1  6  0  0  0
 20 40  1  0  0  0  0
 20 41  1  0  0  0  0
 21 42  1  0  0  0  0
 22 43  1  0  0  0  0
 22 44  1  0  0  0  0
 23 28  1  0  0  0  0
 23 45  1  0  0  0  0
 24 29  1  0  0  0  0
 24 46  1  0  0  0  0
 24 47  1  0  0  0  0
 25 48  1  0  0  0  0
 25 49  1  0  0  0  0
 25 50  1  0  0  0  0
 26 30  2  0  0  0  0
 26 31  1  0  0  0  0
 29 30  1  0  0  0  0
 31 53  1  0  0  0  0
 31 54  1  0  0  0  0
 31 55  1  0  0  0  0
 32 34  1  0  0  0  0
 33 57  1  0  0  0  0
 33 58  1  0  0  0  0
 33 59  1  0  0  0  0
 34 60  1  0  0  0  0
 34 61  1  0  0  0  0
 34 62  1  0  0  0  0
M  END
> <PUBCHEM_COMPOUND_CID>
161496

> <PUBCHEM_COMPOUND_CANONICALIZED>
1

> <PUBCHEM_CACTVS_COMPLEXITY>
1030

> <PUBCHEM_CACTVS_HBOND_ACCEPTOR>
11

> <PUBCHEM_CACTVS_HBOND_DONOR>
3

> <PUBCHEM_CACTVS_ROTATABLE_BOND>
4

> <PUBCHEM_CACTVS_SUBSKEYS>
AAADceB4PAAAAAAAAAAAAAAAAAAAASAAAAA0YIEABIAAAEjQAAAAGgAACAAAD1SggAICCAAABgCIAoDQCAIAAAAgIAAACAFAAEgBEBYAAAQCQAAFoAALAQPK7vzPgAAAAAAAAADAAAYQADCAAAAAAAAAAA==

> <PUBCHEM_IUPAC_INCHI>
InChI=1S/C23H28O11/c1-8-10-5-12-22-7-32-23(20(30)31-4,17(22)15(19(29)34-12)33-9(2)24)18(28)14(27)16(22)21(10,3)6-11(25)13(8)26/h10,12,14-18,26-28H,5-7H2,1-4H3/t10-,12+,14+,15+,16+,17+,18-,21-,22+,23-/m0/s1

> <PUBCHEM_IUPAC_INCHIKEY>
YDWODLQEUPYKGJ-LZFWDZGBSA-N

> <PUBCHEM_XLOGP3>
-0.5

> <PUBCHEM_EXACT_MASS>
480.163162

> <PUBCHEM_MOLECULAR_FORMULA>
C23H28O11

> <PUBCHEM_MOLECULAR_WEIGHT>
480.46182

> <PUBCHEM_OPENEYE_CAN_SMILES>
CC1=C(C(=O)CC2(C1CC3C45C2C(C(C(C4C(C(=O)O3)OC(=O)C)(OC5)C(=O)OC)O)O)C)O

> <PUBCHEM_OPENEYE_ISO_SMILES>
CC1=C(C(=O)C[C@]2([C@H]1C[C@@H]3[C@]45[C@@H]2[C@H]([C@@H]([C@]([C@@H]4[C@H](C(=O)O3)OC(=O)C)(OC5)C(=O)OC)O)O)C)O

> <PUBCHEM_CACTVS_TPSA>
166

> <PUBCHEM_MONOISOTOPIC_WEIGHT>
480.163162

> <PUBCHEM_TOTAL_CHARGE>
0

> <PUBCHEM_HEAVY_ATOM_COUNT>
34

> <PUBCHEM_ATOM_DEF_STEREO_COUNT>
10

> <PUBCHEM_ATOM_UDEF_STEREO_COUNT>
0

> <PUBCHEM_BOND_DEF_STEREO_COUNT>
0

> <PUBCHEM_BOND_UDEF_STEREO_COUNT>
0

> <PUBCHEM_ISOTOPIC_ATOM_COUNT>
0

> <PUBCHEM_COMPONENT_COUNT>
1

> <PUBCHEM_CACTVS_TAUTO_COUNT>
34

> <PUBCHEM_COORDINATE_TYPE>
1
5
255

> <PUBCHEM_BONDANNOTATIONS>
12  20  5
13  35  6
14  36  5
15  25  5
16  27  5
17  37  5
19  39  6
18  3  5
21  4  6
23  5  5

$$$$

