5282223
  -OEChem-07051213033D

 41 42  0     1  0  0  0  0  0999 V2000
    0.9674    0.3479   -1.5399 O   0  0  0  0  0  0  0  0  0  0  0  0
    4.1763    0.1089    1.0570 O   0  0  0  0  0  0  0  0  0  0  0  0
   -4.2480    0.2706   -1.7226 O   0  0  0  0  0  0  0  0  0  0  0  0
   -4.1242   -1.7599   -0.6971 O   0  0  0  0  0  0  0  0  0  0  0  0
    0.9622    0.0947   -0.1316 C   0  0  2  0  0  0  0  0  0  0  0  0
    1.8366    1.1651   -0.7337 C   0  0  1  0  0  0  0  0  0  0  0  0
    1.5388   -1.2339    0.2984 C   0  0  0  0  0  0  0  0  0  0  0  0
    3.2856    0.9440   -1.0323 C   0  0  0  0  0  0  0  0  0  0  0  0
    2.9463   -1.4716   -0.3139 C   0  0  0  0  0  0  0  0  0  0  0  0
    3.8746   -0.2526   -0.2855 C   0  0  2  0  0  0  0  0  0  0  0  0
    1.3979    2.5932   -0.7331 C   0  0  0  0  0  0  0  0  0  0  0  0
   -0.2024    0.5648    0.6433 C   0  0  0  0  0  0  0  0  0  0  0  0
    1.5920   -1.2739    1.8395 C   0  0  0  0  0  0  0  0  0  0  0  0
    0.6041   -2.3693   -0.1649 C   0  0  0  0  0  0  0  0  0  0  0  0
   -1.4732    0.2732    0.3217 C   0  0  0  0  0  0  0  0  0  0  0  0
   -2.6827    0.7014    1.0317 C   0  0  0  0  0  0  0  0  0  0  0  0
   -2.4941    1.5407    2.2692 C   0  0  0  0  0  0  0  0  0  0  0  0
   -3.8746    0.2999    0.5459 C   0  0  0  0  0  0  0  0  0  0  0  0
   -4.0827   -0.5434   -0.6523 C   0  0  0  0  0  0  0  0  0  0  0  0
    3.8602    1.8408   -0.7693 H   0  0  0  0  0  0  0  0  0  0  0  0
    3.4039    0.7924   -2.1126 H   0  0  0  0  0  0  0  0  0  0  0  0
    2.8365   -1.7775   -1.3635 H   0  0  0  0  0  0  0  0  0  0  0  0
    3.4288   -2.3108    0.2036 H   0  0  0  0  0  0  0  0  0  0  0  0
    4.8293   -0.5155   -0.7561 H   0  0  0  0  0  0  0  0  0  0  0  0
    1.8704    3.1409   -1.5563 H   0  0  0  0  0  0  0  0  0  0  0  0
    0.3165    2.7149   -0.8567 H   0  0  0  0  0  0  0  0  0  0  0  0
    1.6913    3.0772    0.2043 H   0  0  0  0  0  0  0  0  0  0  0  0
    0.0197    1.1751    1.5143 H   0  0  0  0  0  0  0  0  0  0  0  0
    0.5953   -1.3518    2.2898 H   0  0  0  0  0  0  0  0  0  0  0  0
    2.1565   -2.1472    2.1866 H   0  0  0  0  0  0  0  0  0  0  0  0
    2.0649   -0.3820    2.2628 H   0  0  0  0  0  0  0  0  0  0  0  0
    1.0369   -3.3484    0.0719 H   0  0  0  0  0  0  0  0  0  0  0  0
   -0.3774   -2.3289    0.3184 H   0  0  0  0  0  0  0  0  0  0  0  0
    0.4381   -2.3334   -1.2477 H   0  0  0  0  0  0  0  0  0  0  0  0
    4.5731   -0.6672    1.4882 H   0  0  0  0  0  0  0  0  0  0  0  0
   -1.6124   -0.3365   -0.5685 H   0  0  0  0  0  0  0  0  0  0  0  0
   -3.4586    1.7921    2.7241 H   0  0  0  0  0  0  0  0  0  0  0  0
   -1.9927    2.4845    2.0301 H   0  0  0  0  0  0  0  0  0  0  0  0
   -1.9100    1.0030    3.0236 H   0  0  0  0  0  0  0  0  0  0  0  0
   -4.7897    0.5943    1.0529 H   0  0  0  0  0  0  0  0  0  0  0  0
   -4.3980   -0.2361   -2.5491 H   0  0  0  0  0  0  0  0  0  0  0  0
  1  5  1  0  0  0  0
  1  6  1  0  0  0  0
  2 10  1  0  0  0  0
  2 35  1  0  0  0  0
  3 19  1  0  0  0  0
  3 41  1  0  0  0  0
  4 19  2  0  0  0  0
  5  6  1  0  0  0  0
  5  7  1  0  0  0  0
  5 12  1  0  0  0  0
  6  8  1  0  0  0  0
  6 11  1  0  0  0  0
  7  9  1  0  0  0  0
  7 13  1  0  0  0  0
  7 14  1  0  0  0  0
  8 10  1  0  0  0  0
  8 20  1  0  0  0  0
  8 21  1  0  0  0  0
  9 10  1  0  0  0  0
  9 22  1  0  0  0  0
  9 23  1  0  0  0  0
 10 24  1  0  0  0  0
 11 25  1  0  0  0  0
 11 26  1  0  0  0  0
 11 27  1  0  0  0  0
 12 15  2  0  0  0  0
 12 28  1  0  0  0  0
 13 29  1  0  0  0  0
 13 30  1  0  0  0  0
 13 31  1  0  0  0  0
 14 32  1  0  0  0  0
 14 33  1  0  0  0  0
 14 34  1  0  0  0  0
 15 16  1  0  0  0  0
 15 36  1  0  0  0  0
 16 17  1  0  0  0  0
 16 18  2  0  0  0  0
 17 37  1  0  0  0  0
 17 38  1  0  0  0  0
 17 39  1  0  0  0  0
 18 19  1  0  0  0  0
 18 40  1  0  0  0  0
M  END
> <PUBCHEM_COMPOUND_CID>
5282223

> <PUBCHEM_CONFORMER_RMSD>
0.6

> <PUBCHEM_CONFORMER_DIVERSEORDER>
1
18
13
6
9
10
15
5
11
3
12
16
7
14
17
8
4
2

> <PUBCHEM_MMFF94_PARTIAL_CHARGES>
21
1 -0.3
10 0.28
11 0.09
12 -0.19
15 -0.15
16 -0.14
17 0.14
18 -0.14
19 0.71
2 -0.68
28 0.15
3 -0.65
35 0.4
36 0.15
4 -0.57
40 0.15
41 0.5
5 0.09
6 -0.04
7 0.09
8 0.09

> <PUBCHEM_EFFECTIVE_ROTOR_COUNT>
4

> <PUBCHEM_PHARMACOPHORE_FEATURES>
9
1 1 acceptor
1 17 hydrophobe
1 2 acceptor
1 2 donor
1 3 acceptor
1 4 acceptor
3 3 4 19 anion
3 7 13 14 hydrophobe
7 1 5 6 7 8 9 10 rings

> <PUBCHEM_HEAVY_ATOM_COUNT>
19

> <PUBCHEM_ATOM_DEF_STEREO_COUNT>
3

> <PUBCHEM_ATOM_UDEF_STEREO_COUNT>
0

> <PUBCHEM_BOND_DEF_STEREO_COUNT>
2

> <PUBCHEM_BOND_UDEF_STEREO_COUNT>
0

> <PUBCHEM_ISOTOPIC_ATOM_COUNT>
0

> <PUBCHEM_COMPONENT_COUNT>
1

> <PUBCHEM_CACTVS_TAUTO_COUNT>
1

> <PUBCHEM_CONFORMER_ID>
005099AF00000001

> <PUBCHEM_MMFF94_ENERGY>
55.4271

> <PUBCHEM_FEATURE_SELFOVERLAP>
45.725

> <PUBCHEM_SHAPE_FINGERPRINT>
11578080 2 18117019833955237209
11806522 49 18333453127246061970
12236239 1 18261104205813875137
124424 183 16559031592733569608
12654215 9 17203324537654208632
128620 24 18260546706300448979
13134695 92 17775846817816570476
13583140 156 16558177212137804664
14251717 144 18343300370680415462
14844126 61 16256458418100401571
15375358 24 16702302347326230097
15653759 3 15285637733232725403
16752209 62 17676213506972369807
16945 1 17917136291289778866
17349148 13 18411980256270828666
17862501 102 18334858337803779730
18186145 218 17560785645931344209
192875 21 18411697673224437793
200 152 18410013239038628613
20279233 1 16630234875132443129
20645477 70 17917423259002374314
21634736 98 18189050889442061503
21639500 275 18272359828880056389
22892500 29 17489593341801033012
23402539 116 18186516626798774084
23402655 69 18273215330720554301
23419403 2 15739746833010115702
23557571 272 16805877502436060945
23559900 14 16082478059288639868
602551 16 16008755679807221903
633830 44 17986645217000196444
7615 1 18334283288922568153
77492 1 18261098716661126033

> <PUBCHEM_SHAPE_MULTIPOLES>
367.53
7.97
2.05
1.61
5.38
0.03
0.5
0.66
-1.28
-0.64
-0.15
0.91
-0.3
-1.41

> <PUBCHEM_SHAPE_SELFOVERLAP>
760.145

> <PUBCHEM_SHAPE_VOLUME>
211.4

> <PUBCHEM_COORDINATE_TYPE>
2
5
10

$$$$

