440044
  -OEChem-07051212482D

 13 13  0     1  0  0  0  0  0999 V2000
    4.7690    1.1830    0.0000 O   0  0  0  0  0  0  0  0  0  0  0  0
    7.0010    0.3170    0.0000 O   0  0  0  0  0  0  0  0  0  0  0  0
    2.5369    0.3170    0.0000 O   0  0  0  0  0  0  0  0  0  0  0  0
    6.1350   -1.1830    0.0000 O   0  0  0  0  0  0  0  0  0  0  0  0
    3.4030   -1.1830    0.0000 O   0  0  0  0  0  0  0  0  0  0  0  0
    5.2690    0.3170    0.0000 C   0  0  2  0  0  0  0  0  0  0  0  0
    4.2690    0.3170    0.0000 C   0  0  2  0  0  0  0  0  0  0  0  0
    6.1350   -0.1830    0.0000 C   0  0  0  0  0  0  0  0  0  0  0  0
    3.4030   -0.1830    0.0000 C   0  0  0  0  0  0  0  0  0  0  0  0
    5.7074    0.7554    0.0000 H   0  0  0  0  0  0  0  0  0  0  0  0
    3.8306    0.7554    0.0000 H   0  0  0  0  0  0  0  0  0  0  0  0
    7.5380    0.0070    0.0000 H   0  0  0  0  0  0  0  0  0  0  0  0
    2.0000    0.0070    0.0000 H   0  0  0  0  0  0  0  0  0  0  0  0
  1  6  1  0  0  0  0
  1  7  1  0  0  0  0
  2  8  1  0  0  0  0
  2 12  1  0  0  0  0
  3  9  1  0  0  0  0
  3 13  1  0  0  0  0
  4  8  2  0  0  0  0
  5  9  2  0  0  0  0
  6  7  1  0  0  0  0
  6  8  1  1  0  0  0
  6 10  1  0  0  0  0
  7  9  1  6  0  0  0
  7 11  1  0  0  0  0
M  END
> <PUBCHEM_COMPOUND_CID>
440044

> <PUBCHEM_COMPOUND_CANONICALIZED>
1

> <PUBCHEM_CACTVS_COMPLEXITY>
144

> <PUBCHEM_CACTVS_HBOND_ACCEPTOR>
5

> <PUBCHEM_CACTVS_HBOND_DONOR>
2

> <PUBCHEM_CACTVS_ROTATABLE_BOND>
2

> <PUBCHEM_CACTVS_SUBSKEYS>
AAADcYBgOAAAAAAAAAAAAAAAEgAAAAAAAAAAAAAAAAAAAAAAAAAAGgAACAAACBSggAIACAAABgAIAACQCAIAAAAAAAAAAAFAAAABABQAAAQCQAAFIAADAABDAAAAAAAAAAAAAAAAAAAAAAAAAAAAAAAAAA==

> <PUBCHEM_IUPAC_OPENEYE_NAME>
(2R,3R)-oxirane-2,3-dicarboxylic acid

> <PUBCHEM_IUPAC_CAS_NAME>
(2R,3R)-oxirane-2,3-dicarboxylic acid

> <PUBCHEM_IUPAC_NAME>
(2R,3R)-oxirane-2,3-dicarboxylic acid

> <PUBCHEM_IUPAC_SYSTEMATIC_NAME>
(2R,3R)-oxirane-2,3-dicarboxylic acid

> <PUBCHEM_IUPAC_TRADITIONAL_NAME>
(2R,3R)-oxirane-2,3-dicarboxylic acid

> <PUBCHEM_IUPAC_INCHI>
InChI=1S/C4H4O5/c5-3(6)1-2(9-1)4(7)8/h1-2H,(H,5,6)(H,7,8)/t1-,2-/m1/s1

> <PUBCHEM_IUPAC_INCHIKEY>
DCEMCPAKSGRHCN-JCYAYHJZSA-N

> <PUBCHEM_XLOGP3_AA>
-0.9

> <PUBCHEM_EXACT_MASS>
132.005873

> <PUBCHEM_MOLECULAR_FORMULA>
C4H4O5

> <PUBCHEM_MOLECULAR_WEIGHT>
132.07156

> <PUBCHEM_OPENEYE_CAN_SMILES>
C1(C(O1)C(=O)O)C(=O)O

> <PUBCHEM_OPENEYE_ISO_SMILES>
[C@@H]1([C@@H](O1)C(=O)O)C(=O)O

> <PUBCHEM_CACTVS_TPSA>
87.1

> <PUBCHEM_MONOISOTOPIC_WEIGHT>
132.005873

> <PUBCHEM_TOTAL_CHARGE>
0

> <PUBCHEM_HEAVY_ATOM_COUNT>
9

> <PUBCHEM_ATOM_DEF_STEREO_COUNT>
2

> <PUBCHEM_ATOM_UDEF_STEREO_COUNT>
0

> <PUBCHEM_BOND_DEF_STEREO_COUNT>
0

> <PUBCHEM_BOND_UDEF_STEREO_COUNT>
0

> <PUBCHEM_ISOTOPIC_ATOM_COUNT>
0

> <PUBCHEM_COMPONENT_COUNT>
1

> <PUBCHEM_CACTVS_TAUTO_COUNT>
1

> <PUBCHEM_COORDINATE_TYPE>
1
5
255

> <PUBCHEM_BONDANNOTATIONS>
6  8  5
7  9  6

$$$$

