51090972
  -OEChem-06241223013D

 44 46  0     0  0  0  0  0  0999 V2000
    1.0895   -0.0954    0.5903 O   0  0  0  0  0  0  0  0  0  0  0  0
   -3.6973    2.3603   -0.1871 O   0  0  0  0  0  0  0  0  0  0  0  0
   -1.4509    1.7210    1.7172 O   0  0  0  0  0  0  0  0  0  0  0  0
   -1.8724    0.1448    0.0434 N   0  0  0  0  0  0  0  0  0  0  0  0
   -1.4251   -2.4158    0.6794 N   0  0  0  0  0  0  0  0  0  0  0  0
    0.3745    1.0554    0.4896 C   0  0  0  0  0  0  0  0  0  0  0  0
    1.1811    2.0975    0.0943 C   0  0  0  0  0  0  0  0  0  0  0  0
   -3.3099    0.0394    0.2840 C   0  0  0  0  0  0  0  0  0  0  0  0
   -1.3498   -0.6904   -1.0291 C   0  0  0  0  0  0  0  0  0  0  0  0
    2.4852    1.5576   -0.0605 C   0  0  0  0  0  0  0  0  0  0  0  0
   -1.0156    0.9974    0.7924 C   0  0  0  0  0  0  0  0  0  0  0  0
    2.3755    0.2074    0.2559 C   0  0  0  0  0  0  0  0  0  0  0  0
   -4.0894    1.0421   -0.5472 C   0  0  0  0  0  0  0  0  0  0  0  0
   -0.9665   -2.0574   -0.5407 C   0  0  0  0  0  0  0  0  0  0  0  0
    0.7725    3.4987   -0.1246 C   0  0  0  0  0  0  0  0  0  0  0  0
    3.7444    2.0599   -0.4329 C   0  0  0  0  0  0  0  0  0  0  0  0
    3.4409   -0.6906    0.2289 C   0  0  0  0  0  0  0  0  0  0  0  0
    4.8353    1.1807   -0.4691 C   0  0  0  0  0  0  0  0  0  0  0  0
    4.6837   -0.1696   -0.1435 C   0  0  0  0  0  0  0  0  0  0  0  0
   -0.1807   -2.8689   -1.3432 C   0  0  0  0  0  0  0  0  0  0  0  0
    0.1557   -4.1295   -0.8624 C   0  0  0  0  0  0  0  0  0  0  0  0
   -1.0777   -3.6482    1.1134 C   0  0  0  0  0  0  0  0  0  0  0  0
   -0.2974   -4.5342    0.3883 C   0  0  0  0  0  0  0  0  0  0  0  0
   -4.4056    3.3379   -0.9367 C   0  0  0  0  0  0  0  0  0  0  0  0
   -3.4821    0.2459    1.3466 H   0  0  0  0  0  0  0  0  0  0  0  0
   -3.6511   -0.9805    0.0790 H   0  0  0  0  0  0  0  0  0  0  0  0
   -0.4890   -0.2051   -1.5001 H   0  0  0  0  0  0  0  0  0  0  0  0
   -2.1161   -0.7887   -1.8073 H   0  0  0  0  0  0  0  0  0  0  0  0
   -5.1614    0.9163   -0.3568 H   0  0  0  0  0  0  0  0  0  0  0  0
   -3.9017    0.8844   -1.6156 H   0  0  0  0  0  0  0  0  0  0  0  0
    1.4030    3.9853   -0.8757 H   0  0  0  0  0  0  0  0  0  0  0  0
    0.8514    4.0675    0.8074 H   0  0  0  0  0  0  0  0  0  0  0  0
   -0.2625    3.5617   -0.4768 H   0  0  0  0  0  0  0  0  0  0  0  0
    3.8804    3.1065   -0.6885 H   0  0  0  0  0  0  0  0  0  0  0  0
    3.3148   -1.7366    0.4819 H   0  0  0  0  0  0  0  0  0  0  0  0
    5.8144    1.5565   -0.7551 H   0  0  0  0  0  0  0  0  0  0  0  0
    5.5479   -0.8282   -0.1806 H   0  0  0  0  0  0  0  0  0  0  0  0
    0.1670   -2.5424   -2.3174 H   0  0  0  0  0  0  0  0  0  0  0  0
    0.7701   -4.7951   -1.4612 H   0  0  0  0  0  0  0  0  0  0  0  0
   -1.4560   -3.9154    2.0945 H   0  0  0  0  0  0  0  0  0  0  0  0
   -0.0474   -5.5122    0.7831 H   0  0  0  0  0  0  0  0  0  0  0  0
   -4.1994    3.2253   -2.0055 H   0  0  0  0  0  0  0  0  0  0  0  0
   -5.4809    3.2607   -0.7493 H   0  0  0  0  0  0  0  0  0  0  0  0
   -4.0661    4.3273   -0.6187 H   0  0  0  0  0  0  0  0  0  0  0  0
  1  6  1  0  0  0  0
  1 12  1  0  0  0  0
  2 13  1  0  0  0  0
  2 24  1  0  0  0  0
  3 11  2  0  0  0  0
  4  8  1  0  0  0  0
  4  9  1  0  0  0  0
  4 11  1  0  0  0  0
  5 14  1  0  0  0  0
  5 22  2  0  0  0  0
  6  7  2  0  0  0  0
  6 11  1  0  0  0  0
  7 10  1  0  0  0  0
  7 15  1  0  0  0  0
  8 13  1  0  0  0  0
  8 25  1  0  0  0  0
  8 26  1  0  0  0  0
  9 14  1  0  0  0  0
  9 27  1  0  0  0  0
  9 28  1  0  0  0  0
 10 12  1  0  0  0  0
 10 16  2  0  0  0  0
 12 17  2  0  0  0  0
 13 29  1  0  0  0  0
 13 30  1  0  0  0  0
 14 20  2  0  0  0  0
 15 31  1  0  0  0  0
 15 32  1  0  0  0  0
 15 33  1  0  0  0  0
 16 18  1  0  0  0  0
 16 34  1  0  0  0  0
 17 19  1  0  0  0  0
 17 35  1  0  0  0  0
 18 19  2  0  0  0  0
 18 36  1  0  0  0  0
 19 37  1  0  0  0  0
 20 21  1  0  0  0  0
 20 38  1  0  0  0  0
 21 23  2  0  0  0  0
 21 39  1  0  0  0  0
 22 23  1  0  0  0  0
 22 40  1  0  0  0  0
 23 41  1  0  0  0  0
 24 42  1  0  0  0  0
 24 43  1  0  0  0  0
 24 44  1  0  0  0  0
M  END
> <PUBCHEM_COMPOUND_CID>
51090972

> <PUBCHEM_CONFORMER_RMSD>
1.2

> <PUBCHEM_CONFORMER_DIVERSEORDER>
1
39
35
25
42
49
58
12
67
31
51
45
34
61
50
81
70
60
52
68
16
28
14
64
40
19
59
6
79
53
80
73
15
27
74
29
47
18
21
11
55
62
22
8
26
65
36
23
43
48
9
78
37
24
54
76
13
17
32
20
33
71
63
77
56
75
7
46
72
57
30
69
3
38
41
66
10
2
4
44
5

> <PUBCHEM_MMFF94_PARTIAL_CHARGES>
31
1 -0.28
11 0.71
12 0.14
13 0.28
14 0.17
15 0.18
16 -0.15
17 -0.15
18 -0.15
19 -0.15
2 -0.56
20 -0.15
21 -0.15
22 0.16
23 -0.15
24 0.28
3 -0.57
34 0.15
35 0.15
36 0.15
37 0.15
38 0.15
39 0.15
4 -0.66
40 0.15
41 0.15
5 -0.62
6 0.05
7 -0.18
8 0.3
9 0.44

> <PUBCHEM_EFFECTIVE_ROTOR_COUNT>
7

> <PUBCHEM_PHARMACOPHORE_FEATURES>
7
1 1 acceptor
1 2 acceptor
1 3 acceptor
1 5 acceptor
5 1 6 7 10 12 rings
6 10 12 16 17 18 19 rings
6 5 14 20 21 22 23 rings

> <PUBCHEM_HEAVY_ATOM_COUNT>
24

> <PUBCHEM_ATOM_DEF_STEREO_COUNT>
0

> <PUBCHEM_ATOM_UDEF_STEREO_COUNT>
0

> <PUBCHEM_BOND_DEF_STEREO_COUNT>
0

> <PUBCHEM_BOND_UDEF_STEREO_COUNT>
0

> <PUBCHEM_ISOTOPIC_ATOM_COUNT>
0

> <PUBCHEM_COMPONENT_COUNT>
1

> <PUBCHEM_CACTVS_TAUTO_COUNT>
1

> <PUBCHEM_CONFORMER_ID>
030B961C00000001

> <PUBCHEM_MMFF94_ENERGY>
57.6299

> <PUBCHEM_FEATURE_SELFOVERLAP>
35.624

> <PUBCHEM_SHAPE_FINGERPRINT>
10675989 125 18120093037837780072
107951 10 18411129230145203214
11578080 2 16981238792385862447
12173636 292 18339932519446550165
12553582 1 17112131841979028658
12592029 89 18338516473229598617
12788726 201 18124329206883577771
13140716 1 18119232111674120872
133893 2 17757259758453495577
138480 1 17546165663113349566
14178342 30 18050306773119275096
14251757 5 18266165159216090260
14790565 3 18339640139469467972
15664445 248 17180806776062889495
16752209 62 18262813864606370571
167882 2 18123191474515180239
19591789 44 18411421742986773839
20101258 96 17693081981762599096
20645476 183 18411140195037810837
20691752 17 18046880926467108332
20775438 99 16890089918857479047
20905425 154 17541099109300666958
21033648 29 18335431148797261785
221490 88 17762613993903024776
23366157 5 17836639004652343347
23559900 14 18041278756601551672
244849 19 17482519265231858129
3084891 72 18336269032560000072
3298306 158 18338516468602419407
34934 24 18341899576240881656
3759504 43 18413671296733114415
4058900 60 18198891703051883852
532947 4 18192990645673460527
5385378 56 18120370110852554449
6138700 20 18192430998966874558
7097593 13 16676105087009951339
81228 2 17614583436299173107
9709674 26 17975419018575683396
9953998 17 18190768417975374298

> <PUBCHEM_SHAPE_MULTIPOLES>
466.34
7.38
5.62
1.07
4
4.96
-0.05
-6.49
1.41
-4.13
0.49
-0.47
0.29
0.53

> <PUBCHEM_SHAPE_SELFOVERLAP>
1003.923

> <PUBCHEM_SHAPE_VOLUME>
257.8

> <PUBCHEM_COORDINATE_TYPE>
2
5
10

$$$$

