17396202
  -OEChem-06241222552D

 38 40  0     0  0  0  0  0  0999 V2000
    2.0000    0.5818    0.0000 Cl  0  0  0  0  0  0  0  0  0  0  0  0
    3.7320    1.5818    0.0000 S   0  0  0  0  0  0  0  0  0  0  0  0
    6.4347   -3.9127    0.0000 S   0  0  0  0  0  0  0  0  0  0  0  0
    4.7320    1.5818    0.0000 O   0  0  0  0  0  0  0  0  0  0  0  0
    2.7320    1.5818    0.0000 O   0  0  0  0  0  0  0  0  0  0  0  0
    4.5981   -2.9182    0.0000 O   0  0  0  0  0  0  0  0  0  0  0  0
    3.7320    2.5818    0.0000 N   0  0  0  0  0  0  0  0  0  0  0  0
    5.4641   -1.4182    0.0000 N   0  0  0  0  0  0  0  0  0  0  0  0
    4.5411    3.1696    0.0000 C   0  0  0  0  0  0  0  0  0  0  0  0
    2.9230    3.1696    0.0000 C   0  0  0  0  0  0  0  0  0  0  0  0
    4.2320    4.1206    0.0000 C   0  0  0  0  0  0  0  0  0  0  0  0
    3.2320    4.1206    0.0000 C   0  0  0  0  0  0  0  0  0  0  0  0
    3.7320    0.5818    0.0000 C   0  0  0  0  0  0  0  0  0  0  0  0
    4.5981    0.0818    0.0000 C   0  0  0  0  0  0  0  0  0  0  0  0
    2.8660    0.0818    0.0000 C   0  0  0  0  0  0  0  0  0  0  0  0
    4.5981   -0.9182    0.0000 C   0  0  0  0  0  0  0  0  0  0  0  0
    2.8660   -0.9182    0.0000 C   0  0  0  0  0  0  0  0  0  0  0  0
    3.7320   -1.4182    0.0000 C   0  0  0  0  0  0  0  0  0  0  0  0
    5.4641   -2.4182    0.0000 C   0  0  0  0  0  0  0  0  0  0  0  0
    6.3301   -2.9182    0.0000 C   0  0  0  0  0  0  0  0  0  0  0  0
    7.2437   -2.5115    0.0000 C   0  0  0  0  0  0  0  0  0  0  0  0
    7.9128   -3.2546    0.0000 C   0  0  0  0  0  0  0  0  0  0  0  0
    7.4128   -4.1206    0.0000 C   0  0  0  0  0  0  0  0  0  0  0  0
    4.8511    2.6326    0.0000 H   0  0  0  0  0  0  0  0  0  0  0  0
    5.1075    3.4218    0.0000 H   0  0  0  0  0  0  0  0  0  0  0  0
    2.3566    3.4218    0.0000 H   0  0  0  0  0  0  0  0  0  0  0  0
    2.6130    2.6326    0.0000 H   0  0  0  0  0  0  0  0  0  0  0  0
    4.8385    4.2495    0.0000 H   0  0  0  0  0  0  0  0  0  0  0  0
    4.1672    4.7372    0.0000 H   0  0  0  0  0  0  0  0  0  0  0  0
    3.2969    4.7372    0.0000 H   0  0  0  0  0  0  0  0  0  0  0  0
    2.6256    4.2495    0.0000 H   0  0  0  0  0  0  0  0  0  0  0  0
    5.1350    0.3918    0.0000 H   0  0  0  0  0  0  0  0  0  0  0  0
    2.3291   -1.2282    0.0000 H   0  0  0  0  0  0  0  0  0  0  0  0
    3.7320   -2.0382    0.0000 H   0  0  0  0  0  0  0  0  0  0  0  0
    6.0010   -1.1082    0.0000 H   0  0  0  0  0  0  0  0  0  0  0  0
    7.3726   -1.9050    0.0000 H   0  0  0  0  0  0  0  0  0  0  0  0
    8.5294   -3.1898    0.0000 H   0  0  0  0  0  0  0  0  0  0  0  0
    7.6650   -4.6870    0.0000 H   0  0  0  0  0  0  0  0  0  0  0  0
  1 15  1  0  0  0  0
  2  4  2  0  0  0  0
  2  5  2  0  0  0  0
  2  7  1  0  0  0  0
  2 13  1  0  0  0  0
  3 20  1  0  0  0  0
  3 23  1  0  0  0  0
  6 19  2  0  0  0  0
  7  9  1  0  0  0  0
  7 10  1  0  0  0  0
  8 16  1  0  0  0  0
  8 19  1  0  0  0  0
  8 35  1  0  0  0  0
  9 11  1  0  0  0  0
  9 24  1  0  0  0  0
  9 25  1  0  0  0  0
 10 12  1  0  0  0  0
 10 26  1  0  0  0  0
 10 27  1  0  0  0  0
 11 12  1  0  0  0  0
 11 28  1  0  0  0  0
 11 29  1  0  0  0  0
 12 30  1  0  0  0  0
 12 31  1  0  0  0  0
 13 14  1  0  0  0  0
 13 15  2  0  0  0  0
 14 16  2  0  0  0  0
 14 32  1  0  0  0  0
 15 17  1  0  0  0  0
 16 18  1  0  0  0  0
 17 18  2  0  0  0  0
 17 33  1  0  0  0  0
 18 34  1  0  0  0  0
 19 20  1  0  0  0  0
 20 21  2  0  0  0  0
 21 22  1  0  0  0  0
 21 36  1  0  0  0  0
 22 23  2  0  0  0  0
 22 37  1  0  0  0  0
 23 38  1  0  0  0  0
M  END
> <PUBCHEM_COMPOUND_CID>
17396202

> <PUBCHEM_COMPOUND_CANONICALIZED>
1

> <PUBCHEM_CACTVS_COMPLEXITY>
531

> <PUBCHEM_CACTVS_HBOND_ACCEPTOR>
5

> <PUBCHEM_CACTVS_HBOND_DONOR>
1

> <PUBCHEM_CACTVS_ROTATABLE_BOND>
4

> <PUBCHEM_CACTVS_SUBSKEYS>
AAADccBzMABkAAAAAAAAAAAAAAAAAWJAAAAwAAAAAAAAAAABwAAAHgYQQAAACArF0CSwwYLAAAqMACVSUHDDAJAlDxBIiBkIZsgIIDLhl5GEIQxglADoyYcYAAAAAABAACAAAIAAAIAAQAABAAAAAAAAAA==

> <PUBCHEM_IUPAC_OPENEYE_NAME>
N-(4-chloro-3-pyrrolidin-1-ylsulfonyl-phenyl)thiophene-2-carboxamide

> <PUBCHEM_IUPAC_CAS_NAME>
N-[4-chloro-3-(1-pyrrolidinylsulfonyl)phenyl]-2-thiophenecarboxamide

> <PUBCHEM_IUPAC_NAME>
N-(4-chloro-3-pyrrolidin-1-ylsulfonylphenyl)thiophene-2-carboxamide

> <PUBCHEM_IUPAC_SYSTEMATIC_NAME>
N-(4-chloranyl-3-pyrrolidin-1-ylsulfonyl-phenyl)thiophene-2-carboxamide

> <PUBCHEM_IUPAC_TRADITIONAL_NAME>
N-(4-chloro-3-pyrrolidinosulfonyl-phenyl)thiophene-2-carboxamide

> <PUBCHEM_IUPAC_INCHI>
InChI=1S/C15H15ClN2O3S2/c16-12-6-5-11(17-15(19)13-4-3-9-22-13)10-14(12)23(20,21)18-7-1-2-8-18/h3-6,9-10H,1-2,7-8H2,(H,17,19)

> <PUBCHEM_IUPAC_INCHIKEY>
ATDYHRMBQBCKJA-UHFFFAOYSA-N

> <PUBCHEM_XLOGP3_AA>
3

> <PUBCHEM_EXACT_MASS>
370.021262

> <PUBCHEM_MOLECULAR_FORMULA>
C15H15ClN2O3S2

> <PUBCHEM_MOLECULAR_WEIGHT>
370.8742

> <PUBCHEM_OPENEYE_CAN_SMILES>
C1CCN(C1)S(=O)(=O)C2=C(C=CC(=C2)NC(=O)C3=CC=CS3)Cl

> <PUBCHEM_OPENEYE_ISO_SMILES>
C1CCN(C1)S(=O)(=O)C2=C(C=CC(=C2)NC(=O)C3=CC=CS3)Cl

> <PUBCHEM_CACTVS_TPSA>
103

> <PUBCHEM_MONOISOTOPIC_WEIGHT>
370.021262

> <PUBCHEM_TOTAL_CHARGE>
0

> <PUBCHEM_HEAVY_ATOM_COUNT>
23

> <PUBCHEM_ATOM_DEF_STEREO_COUNT>
0

> <PUBCHEM_ATOM_UDEF_STEREO_COUNT>
0

> <PUBCHEM_BOND_DEF_STEREO_COUNT>
0

> <PUBCHEM_BOND_UDEF_STEREO_COUNT>
0

> <PUBCHEM_ISOTOPIC_ATOM_COUNT>
0

> <PUBCHEM_COMPONENT_COUNT>
1

> <PUBCHEM_CACTVS_TAUTO_COUNT>
2

> <PUBCHEM_COORDINATE_TYPE>
1
5
255

> <PUBCHEM_BONDANNOTATIONS>
13  14  8
13  15  8
14  16  8
15  17  8
16  18  8
17  18  8
20  21  8
21  22  8
22  23  8
3  20  8
3  23  8

$$$$

