62896
  -OEChem-07051213142D

 23 22  0     0  0  0  0  0  0999 V2000
    4.5981   -1.5000    0.0000 Cl  0  0  0  0  0  0  0  0  0  0  0  0
    8.9282    1.0000    0.0000 Cl  0  0  0  0  0  0  0  0  0  0  0  0
    2.0000    1.0000    0.0000 Cl  0  0  0  0  0  0  0  0  0  0  0  0
    5.4641    0.0000    0.0000 O   0  0  0  0  0  0  0  0  0  0  0  0
    7.1962    1.0000    0.0000 O   0  0  0  0  0  0  0  0  0  0  0  0
    3.7320    1.0000    0.0000 O   0  0  0  0  0  0  0  0  0  0  0  0
    5.4641    1.0000    0.0000 C   0  0  0  0  0  0  0  0  0  0  0  0
    6.3301    1.5000    0.0000 C   0  0  0  0  0  0  0  0  0  0  0  0
    4.5981    1.5000    0.0000 C   0  0  0  0  0  0  0  0  0  0  0  0
    4.5981   -0.5000    0.0000 C   0  0  0  0  0  0  0  0  0  0  0  0
    8.0622    1.5000    0.0000 C   0  0  0  0  0  0  0  0  0  0  0  0
    2.8660    1.5000    0.0000 C   0  0  0  0  0  0  0  0  0  0  0  0
    6.0010    0.6900    0.0000 H   0  0  0  0  0  0  0  0  0  0  0  0
    4.9966    1.9750    0.0000 H   0  0  0  0  0  0  0  0  0  0  0  0
    4.1996    1.9750    0.0000 H   0  0  0  0  0  0  0  0  0  0  0  0
    6.7287    1.9750    0.0000 H   0  0  0  0  0  0  0  0  0  0  0  0
    5.9316    1.9750    0.0000 H   0  0  0  0  0  0  0  0  0  0  0  0
    4.3860    0.0826    0.0000 H   0  0  0  0  0  0  0  0  0  0  0  0
    3.9875   -0.6077    0.0000 H   0  0  0  0  0  0  0  0  0  0  0  0
    3.2646    1.9750    0.0000 H   0  0  0  0  0  0  0  0  0  0  0  0
    2.4675    1.9750    0.0000 H   0  0  0  0  0  0  0  0  0  0  0  0
    8.4607    1.9750    0.0000 H   0  0  0  0  0  0  0  0  0  0  0  0
    7.6636    1.9750    0.0000 H   0  0  0  0  0  0  0  0  0  0  0  0
  1 10  1  0  0  0  0
  2 11  1  0  0  0  0
  3 12  1  0  0  0  0
  4  7  1  0  0  0  0
  4 10  1  0  0  0  0
  5  8  1  0  0  0  0
  5 11  1  0  0  0  0
  6  9  1  0  0  0  0
  6 12  1  0  0  0  0
  7  8  1  0  0  0  0
  7  9  1  0  0  0  0
  7 13  1  0  0  0  0
  8 16  1  0  0  0  0
  8 17  1  0  0  0  0
  9 14  1  0  0  0  0
  9 15  1  0  0  0  0
 10 18  1  0  0  0  0
 10 19  1  0  0  0  0
 11 22  1  0  0  0  0
 11 23  1  0  0  0  0
 12 20  1  0  0  0  0
 12 21  1  0  0  0  0
M  END
> <PUBCHEM_COMPOUND_CID>
62896

> <PUBCHEM_COMPOUND_CANONICALIZED>
1

> <PUBCHEM_CACTVS_COMPLEXITY>
86.1

> <PUBCHEM_CACTVS_HBOND_ACCEPTOR>
3

> <PUBCHEM_CACTVS_HBOND_DONOR>
0

> <PUBCHEM_CACTVS_ROTATABLE_BOND>
8

> <PUBCHEM_CACTVS_SUBSKEYS>
AAADccBgMAAGAAAAAAAAAAAAAAAAAAAAAAAAAAAAAAAAAAAAAAAAGgIAAAAACBSggEIAAAAABAAAAAAAAAAAAAAAAAAAAAAAAAABAAAAAAAAAAABAAACAAAAAAAAAAAAAAAAAAAAAAAAAAAAAAAAAAAAAA==

> <PUBCHEM_IUPAC_OPENEYE_NAME>
1,2,3-tris(chloromethoxy)propane

> <PUBCHEM_IUPAC_CAS_NAME>
1,2,3-tris(chloromethoxy)propane

> <PUBCHEM_IUPAC_NAME>
1,2,3-tris(chloromethoxy)propane

> <PUBCHEM_IUPAC_SYSTEMATIC_NAME>
1,2,3-tris(chloromethyloxy)propane

> <PUBCHEM_IUPAC_TRADITIONAL_NAME>
1,2,3-tris(chloromethoxy)propane

> <PUBCHEM_IUPAC_INCHI>
InChI=1S/C6H11Cl3O3/c7-3-10-1-6(12-5-9)2-11-4-8/h6H,1-5H2

> <PUBCHEM_IUPAC_INCHIKEY>
SWXSJBPKOPJPJL-UHFFFAOYSA-N

> <PUBCHEM_XLOGP3_AA>
1.9

> <PUBCHEM_EXACT_MASS>
235.977377

> <PUBCHEM_MOLECULAR_FORMULA>
C6H11Cl3O3

> <PUBCHEM_MOLECULAR_WEIGHT>
237.50874

> <PUBCHEM_OPENEYE_CAN_SMILES>
C(C(COCCl)OCCl)OCCl

> <PUBCHEM_OPENEYE_ISO_SMILES>
C(C(COCCl)OCCl)OCCl

> <PUBCHEM_CACTVS_TPSA>
27.7

> <PUBCHEM_MONOISOTOPIC_WEIGHT>
235.977377

> <PUBCHEM_TOTAL_CHARGE>
0

> <PUBCHEM_HEAVY_ATOM_COUNT>
12

> <PUBCHEM_ATOM_DEF_STEREO_COUNT>
0

> <PUBCHEM_ATOM_UDEF_STEREO_COUNT>
0

> <PUBCHEM_BOND_DEF_STEREO_COUNT>
0

> <PUBCHEM_BOND_UDEF_STEREO_COUNT>
0

> <PUBCHEM_ISOTOPIC_ATOM_COUNT>
0

> <PUBCHEM_COMPONENT_COUNT>
1

> <PUBCHEM_CACTVS_TAUTO_COUNT>
1

> <PUBCHEM_COORDINATE_TYPE>
1
5
255

$$$$

