9893571
  -OEChem-07051213073D

 58 61  0     0  0  0  0  0  0999 V2000
    5.3664   -1.4601   -2.8803 Cl  0  0  0  0  0  0  0  0  0  0  0  0
    4.4018   -1.5594    2.5159 Cl  0  0  0  0  0  0  0  0  0  0  0  0
   -2.5166    0.3130    2.9468 Cl  0  0  0  0  0  0  0  0  0  0  0  0
    6.2844    1.6150    0.1259 O   0  0  0  0  0  0  0  0  0  0  0  0
    2.0033    0.7413    0.6930 O   0  0  0  0  0  0  0  0  0  0  0  0
   -9.8293   -1.6092   -0.1667 O   0  0  0  0  0  0  0  0  0  0  0  0
   -7.9476   -2.6017    0.6339 O   0  0  0  0  0  0  0  0  0  0  0  0
    6.3810    0.2287    0.1165 N   0  0  0  0  0  0  0  0  0  0  0  0
    4.7156    3.4179   -0.1179 C   0  0  0  0  0  0  0  0  0  0  0  0
    4.9946    1.9759   -0.0960 C   0  0  0  0  0  0  0  0  0  0  0  0
    4.2230    0.8553   -0.2544 C   0  0  0  0  0  0  0  0  0  0  0  0
    5.1382   -0.1983   -0.1121 C   0  0  0  0  0  0  0  0  0  0  0  0
    2.7743    0.7902   -0.5122 C   0  0  0  0  0  0  0  0  0  0  0  0
    5.0126    4.1241    1.2300 C   0  0  0  0  0  0  0  0  0  0  0  0
    5.4532    4.1714   -1.2544 C   0  0  0  0  0  0  0  0  0  0  0  0
    4.8605   -1.6134   -0.1883 C   0  0  0  0  0  0  0  0  0  0  0  0
    4.9371   -2.2746   -1.4141 C   0  0  0  0  0  0  0  0  0  0  0  0
    4.5135   -2.3187    0.9641 C   0  0  0  0  0  0  0  0  0  0  0  0
    0.6538    0.5895    0.5455 C   0  0  0  0  0  0  0  0  0  0  0  0
    4.6668   -3.6411   -1.4877 C   0  0  0  0  0  0  0  0  0  0  0  0
    4.2431   -3.6852    0.8904 C   0  0  0  0  0  0  0  0  0  0  0  0
   -0.1643    0.5330    1.6708 C   0  0  0  0  0  0  0  0  0  0  0  0
    0.1035    0.4918   -0.7300 C   0  0  0  0  0  0  0  0  0  0  0  0
    4.3199   -4.3464   -0.3354 C   0  0  0  0  0  0  0  0  0  0  0  0
   -2.0973    0.2798    0.2435 C   0  0  0  0  0  0  0  0  0  0  0  0
   -1.5424    0.3778    1.5197 C   0  0  0  0  0  0  0  0  0  0  0  0
   -1.2743    0.3367   -0.8812 C   0  0  0  0  0  0  0  0  0  0  0  0
   -3.5305    0.1161    0.0295 C   0  0  0  0  0  0  0  0  0  0  0  0
   -5.8539    0.9619   -0.3890 C   0  0  0  0  0  0  0  0  0  0  0  0
   -4.4087    1.1275   -0.1533 C   0  0  0  0  0  0  0  0  0  0  0  0
   -6.4686   -0.2267   -0.0303 C   0  0  0  0  0  0  0  0  0  0  0  0
   -6.5699    1.9989   -0.9649 C   0  0  0  0  0  0  0  0  0  0  0  0
   -7.8367   -0.3827   -0.2536 C   0  0  0  0  0  0  0  0  0  0  0  0
   -7.9377    1.8430   -1.1882 C   0  0  0  0  0  0  0  0  0  0  0  0
   -8.5712    0.6523   -0.8324 C   0  0  0  0  0  0  0  0  0  0  0  0
   -8.4979   -1.6238    0.1171 C   0  0  0  0  0  0  0  0  0  0  0  0
    3.6426    3.5576   -0.3034 H   0  0  0  0  0  0  0  0  0  0  0  0
    2.4822    1.6684   -1.1027 H   0  0  0  0  0  0  0  0  0  0  0  0
    2.5924   -0.1133   -1.1090 H   0  0  0  0  0  0  0  0  0  0  0  0
    4.4583    3.6456    2.0448 H   0  0  0  0  0  0  0  0  0  0  0  0
    4.7180    5.1779    1.1895 H   0  0  0  0  0  0  0  0  0  0  0  0
    6.0792    4.0744    1.4755 H   0  0  0  0  0  0  0  0  0  0  0  0
    6.5394    4.1235   -1.1202 H   0  0  0  0  0  0  0  0  0  0  0  0
    5.1560    5.2249   -1.2785 H   0  0  0  0  0  0  0  0  0  0  0  0
    5.2155    3.7273   -2.2272 H   0  0  0  0  0  0  0  0  0  0  0  0
    4.7223   -4.1726   -2.4344 H   0  0  0  0  0  0  0  0  0  0  0  0
    3.9713   -4.2507    1.7782 H   0  0  0  0  0  0  0  0  0  0  0  0
    0.2802    0.6103    2.6602 H   0  0  0  0  0  0  0  0  0  0  0  0
    0.6735    0.5362   -1.6510 H   0  0  0  0  0  0  0  0  0  0  0  0
    4.1096   -5.4103   -0.3926 H   0  0  0  0  0  0  0  0  0  0  0  0
   -1.6900    0.2629   -1.8837 H   0  0  0  0  0  0  0  0  0  0  0  0
   -3.8411   -0.9242   -0.0020 H   0  0  0  0  0  0  0  0  0  0  0  0
   -4.0431    2.1525   -0.1433 H   0  0  0  0  0  0  0  0  0  0  0  0
   -5.9227   -1.0371    0.4432 H   0  0  0  0  0  0  0  0  0  0  0  0
   -6.0903    2.9319   -1.2486 H   0  0  0  0  0  0  0  0  0  0  0  0
   -8.5093    2.6489   -1.6393 H   0  0  0  0  0  0  0  0  0  0  0  0
   -9.6377    0.5737   -1.0241 H   0  0  0  0  0  0  0  0  0  0  0  0
  -10.2658   -2.4502    0.0875 H   0  0  0  0  0  0  0  0  0  0  0  0
  1 17  1  0  0  0  0
  2 18  1  0  0  0  0
  3 26  1  0  0  0  0
  4  8  1  0  0  0  0
  4 10  1  0  0  0  0
  5 13  1  0  0  0  0
  5 19  1  0  0  0  0
  6 36  1  0  0  0  0
  6 58  1  0  0  0  0
  7 36  2  0  0  0  0
  8 12  2  0  0  0  0
  9 10  1  0  0  0  0
  9 14  1  0  0  0  0
  9 15  1  0  0  0  0
  9 37  1  0  0  0  0
 10 11  2  0  0  0  0
 11 12  1  0  0  0  0
 11 13  1  0  0  0  0
 12 16  1  0  0  0  0
 13 38  1  0  0  0  0
 13 39  1  0  0  0  0
 14 40  1  0  0  0  0
 14 41  1  0  0  0  0
 14 42  1  0  0  0  0
 15 43  1  0  0  0  0
 15 44  1  0  0  0  0
 15 45  1  0  0  0  0
 16 17  2  0  0  0  0
 16 18  1  0  0  0  0
 17 20  1  0  0  0  0
 18 21  2  0  0  0  0
 19 22  2  0  0  0  0
 19 23  1  0  0  0  0
 20 24  2  0  0  0  0
 20 46  1  0  0  0  0
 21 24  1  0  0  0  0
 21 47  1  0  0  0  0
 22 26  1  0  0  0  0
 22 48  1  0  0  0  0
 23 27  2  0  0  0  0
 23 49  1  0  0  0  0
 24 50  1  0  0  0  0
 25 26  2  0  0  0  0
 25 27  1  0  0  0  0
 25 28  1  0  0  0  0
 27 51  1  0  0  0  0
 28 30  2  0  0  0  0
 28 52  1  0  0  0  0
 29 30  1  0  0  0  0
 29 31  2  0  0  0  0
 29 32  1  0  0  0  0
 30 53  1  0  0  0  0
 31 33  1  0  0  0  0
 31 54  1  0  0  0  0
 32 34  2  0  0  0  0
 32 55  1  0  0  0  0
 33 35  2  0  0  0  0
 33 36  1  0  0  0  0
 34 35  1  0  0  0  0
 34 56  1  0  0  0  0
 35 57  1  0  0  0  0
M  END
> <PUBCHEM_COMPOUND_CID>
9893571

> <PUBCHEM_CONFORMER_RMSD>
1

> <PUBCHEM_CONFORMER_DIVERSEORDER>
7
22
105
191
163
9
165
53
151
125
179
37
110
140
161
134
136
123
181
147
139
166
16
84
90
159
44
41
113
87
4
177
42
164
38
120
99
149
170
188
25
61
158
2
27
185
77
109
182
48
5
107
144
55
141
28
97
133
160
45
195
40
36
112
197
143
98
157
119
46
17
131
83
117
150
88
12
29
196
176
145
174
62
50
108
94
11
162
26
86
180
115
124
130
193
19
52
198
153
23
183
126
93
85
1
13
169
51
146
79
142
80
76
138
101
68
100
59
167
18
104
128
82
64
66
168
190
32
121
8
175
54
172
194
35
70
189
137
49
154
106
47
135
132
34
75
71
6
20
118
72
148
186
155
95
111
96
56
152
33
63
15
114
184
58
92
43
91
187
74
89
116
3
178
103
122
65
57
10
102
129
156
81
31
173
78
21
192
171
127
67
69
24
39
73
60
30
14

> <PUBCHEM_MMFF94_PARTIAL_CHARGES>
47
1 -0.18
10 -0.04
11 -0.18
12 0.23
13 0.46
16 0.05
17 0.18
18 0.18
19 0.08
2 -0.18
20 -0.15
21 -0.15
22 -0.15
23 -0.15
24 -0.15
25 0.03
26 0.18
27 -0.15
28 -0.18
29 0.03
3 -0.18
30 -0.18
31 -0.15
32 -0.15
33 0.09
34 -0.15
35 -0.15
36 0.63
4 -0.02
46 0.15
47 0.15
48 0.15
49 0.15
5 -0.36
50 0.15
51 0.15
52 0.15
53 0.15
54 0.15
55 0.15
56 0.15
57 0.15
58 0.5
6 -0.65
7 -0.57
8 -0.41
9 0.18

> <PUBCHEM_EFFECTIVE_ROTOR_COUNT>
8

> <PUBCHEM_PHARMACOPHORE_FEATURES>
10
1 5 acceptor
1 6 acceptor
1 7 acceptor
1 8 acceptor
3 6 7 36 anion
3 9 14 15 hydrophobe
5 4 8 10 11 12 rings
6 16 17 18 20 21 24 rings
6 19 22 23 25 26 27 rings
6 29 31 32 33 34 35 rings

> <PUBCHEM_HEAVY_ATOM_COUNT>
36

> <PUBCHEM_ATOM_DEF_STEREO_COUNT>
0

> <PUBCHEM_ATOM_UDEF_STEREO_COUNT>
0

> <PUBCHEM_BOND_DEF_STEREO_COUNT>
1

> <PUBCHEM_BOND_UDEF_STEREO_COUNT>
0

> <PUBCHEM_ISOTOPIC_ATOM_COUNT>
0

> <PUBCHEM_COMPONENT_COUNT>
1

> <PUBCHEM_CACTVS_TAUTO_COUNT>
1

> <PUBCHEM_CONFORMER_ID>
0096F6C300000007

> <PUBCHEM_MMFF94_ENERGY>
103.5862

> <PUBCHEM_FEATURE_SELFOVERLAP>
50.801

> <PUBCHEM_SHAPE_FINGERPRINT>
10951579 204 17202764946407704365
11007060 377 17917989478470108147
11181472 205 18336539521264224833
11607047 191 17388563527496720272
11719270 70 17603872255856324335
12082328 90 18410015443116675965
12144600 37 18412826902564144335
12440610 7 17917419870489507690
13533116 47 18114184176592443954
1361 4 18337955593804627559
13782708 43 18261679263765407191
14118638 360 18040995180879372640
15183329 4 18341331205727353433
15328684 2 16950830514446827291
15890870 6 18266457599936326028
17134984 74 18409447007735987526
19841028 212 18264490761810650434
20157964 124 18410292506439299700
21344244 78 18042700558264064728
22149856 69 16443334425729813371
23569943 247 17912929675708743955
255183 451 18043805614758066142
3044373 193 18411699885238207420
335507 130 18336270063336216695
4073 2 18058447616997758387
4093350 32 18411987940394926648
4149490 64 18411423899519851466
44880568 143 18343863347106021045
45270241 37 18410007715304835781
4874694 18 18411989026594176834
6441014 3 17038663033315626678
9831232 110 18339366395533896095
9962374 69 18334866034543826086

> <PUBCHEM_SHAPE_MULTIPOLES>
718.01
27.74
4.57
1.92
67.07
0.1
0.57
4.45
-7.28
-11.49
-0.59
-1.92
0.49
1.77

> <PUBCHEM_SHAPE_SELFOVERLAP>
1537.416

> <PUBCHEM_SHAPE_VOLUME>
400.9

> <PUBCHEM_COORDINATE_TYPE>
2
5
10

$$$$

