441165
  -OEChem-07051212522D

128132  0     1  0  0  0  0  0999 V2000
    6.7600   -2.0741    0.0000 O   0  0  0  0  0  0  0  0  0  0  0  0
   11.8426   -0.9938    0.0000 O   0  0  0  0  0  0  0  0  0  0  0  0
    8.3657    2.8677    0.0000 O   0  0  0  0  0  0  0  0  0  0  0  0
    3.3842    1.8144    0.0000 O   0  0  0  0  0  0  0  0  0  0  0  0
    9.6131   -3.0012    0.0000 O   0  0  0  0  0  0  0  0  0  0  0  0
    3.9068   -1.1471    0.0000 O   0  0  0  0  0  0  0  0  0  0  0  0
   11.2188    1.9406    0.0000 O   0  0  0  0  0  0  0  0  0  0  0  0
    5.5125    3.7948    0.0000 O   0  0  0  0  0  0  0  0  0  0  0  0
    9.0779   -4.6485    0.0000 O   0  0  0  0  0  0  0  0  0  0  0  0
   12.9130    2.3008    0.0000 O   0  0  0  0  0  0  0  0  0  0  0  0
    4.4828    0.4519    0.0000 O   0  0  0  0  0  0  0  0  0  0  0  0
    7.2067    4.1549    0.0000 O   0  0  0  0  0  0  0  0  0  0  0  0
    6.5521   -1.0960    0.0000 C   0  0  2  0  0  0  0  0  0  0  0  0
   11.0994   -1.6629    0.0000 C   0  0  1  0  0  0  0  0  0  0  0  0
    9.3167    2.5587    0.0000 C   0  0  2  0  0  0  0  0  0  0  0  0
    3.0752    2.7655    0.0000 C   0  0  1  0  0  0  0  0  0  0  0  0
    7.7110   -2.3832    0.0000 C   0  0  1  0  0  0  0  0  0  0  0  0
   11.6347   -0.0157    0.0000 C   0  0  2  0  0  0  0  0  0  0  0  0
    7.6225    2.1986    0.0000 C   0  0  1  0  0  0  0  0  0  0  0  0
    2.5752    1.2267    0.0000 C   0  0  2  0  0  0  0  0  0  0  0  0
    7.4878   -0.7468    0.0000 C   0  0  0  0  0  0  0  0  0  0  0  0
   10.3292   -1.0271    0.0000 C   0  0  0  0  0  0  0  0  0  0  0  0
    9.1512    1.5737    0.0000 C   0  0  0  0  0  0  0  0  0  0  0  0
    2.0752    2.7655    0.0000 C   0  0  0  0  0  0  0  0  0  0  0  0
    8.1561   -1.4890    0.0000 C   0  0  0  0  0  0  0  0  0  0  0  0
   10.6378   -0.0773    0.0000 C   0  0  0  0  0  0  0  0  0  0  0  0
    8.1743    1.3661    0.0000 C   0  0  0  0  0  0  0  0  0  0  0  0
    1.7661    1.8144    0.0000 C   0  0  0  0  0  0  0  0  0  0  0  0
    5.6010   -0.7870    0.0000 C   0  0  0  0  0  0  0  0  0  0  0  0
   11.3073   -2.6411    0.0000 C   0  0  0  0  0  0  0  0  0  0  0  0
   10.0599    3.2278    0.0000 C   0  0  0  0  0  0  0  0  0  0  0  0
    3.8183    3.4346    0.0000 C   0  0  0  0  0  0  0  0  0  0  0  0
    7.9189   -3.3613    0.0000 C   0  0  1  0  0  0  0  0  0  0  0  0
   12.3778    0.6535    0.0000 C   0  0  2  0  0  0  0  0  0  0  0  0
    2.7831    0.2485    0.0000 C   0  0  2  0  0  0  0  0  0  0  0  0
    6.6715    2.5076    0.0000 C   0  0  1  0  0  0  0  0  0  0  0  0
    4.8578   -1.4561    0.0000 C   0  0  1  0  0  0  0  0  0  0  0  0
   10.5642   -3.3102    0.0000 C   0  0  2  0  0  0  0  0  0  0  0  0
   11.0109    2.9188    0.0000 C   0  0  1  0  0  0  0  0  0  0  0  0
    4.7694    3.1256    0.0000 C   0  0  2  0  0  0  0  0  0  0  0  0
    8.8700   -3.6703    0.0000 C   0  0  0  0  0  0  0  0  0  0  0  0
   12.1699    1.6316    0.0000 C   0  0  0  0  0  0  0  0  0  0  0  0
    3.6989   -0.1689    0.0000 C   0  0  0  0  0  0  0  0  0  0  0  0
    6.4636    3.4857    0.0000 C   0  0  0  0  0  0  0  0  0  0  0  0
    7.8666   -4.3599    0.0000 C   0  0  0  0  0  0  0  0  0  0  0  0
   13.2688    1.1076    0.0000 C   0  0  0  0  0  0  0  0  0  0  0  0
    2.4971   -0.7097    0.0000 C   0  0  0  0  0  0  0  0  0  0  0  0
    5.7804    2.0536    0.0000 C   0  0  0  0  0  0  0  0  0  0  0  0
    4.4671   -2.3766    0.0000 C   0  0  0  0  0  0  0  0  0  0  0  0
   11.0182   -4.2012    0.0000 C   0  0  0  0  0  0  0  0  0  0  0  0
   11.5556    3.7575    0.0000 C   0  0  0  0  0  0  0  0  0  0  0  0
    4.7170    2.1270    0.0000 C   0  0  0  0  0  0  0  0  0  0  0  0
    3.4746   -2.4985    0.0000 C   0  0  0  0  0  0  0  0  0  0  0  0
   12.0168   -4.2536    0.0000 C   0  0  0  0  0  0  0  0  0  0  0  0
   11.1016    4.6485    0.0000 C   0  0  0  0  0  0  0  0  0  0  0  0
    5.1710    1.2360    0.0000 C   0  0  0  0  0  0  0  0  0  0  0  0
    6.3753   -0.2646    0.0000 H   0  0  0  0  0  0  0  0  0  0  0  0
   11.7550   -2.2040    0.0000 H   0  0  0  0  0  0  0  0  0  0  0  0
    9.4576    3.3969    0.0000 H   0  0  0  0  0  0  0  0  0  0  0  0
    2.8125    3.5739    0.0000 H   0  0  0  0  0  0  0  0  0  0  0  0
    7.3322   -3.1441    0.0000 H   0  0  0  0  0  0  0  0  0  0  0  0
   12.4431   -0.2783    0.0000 H   0  0  0  0  0  0  0  0  0  0  0  0
    6.9908    1.6298    0.0000 H   0  0  0  0  0  0  0  0  0  0  0  0
    1.8623    0.7637    0.0000 H   0  0  0  0  0  0  0  0  0  0  0  0
    7.2001   -0.1976    0.0000 H   0  0  0  0  0  0  0  0  0  0  0  0
    7.9968   -0.3928    0.0000 H   0  0  0  0  0  0  0  0  0  0  0  0
    9.9973   -1.5509    0.0000 H   0  0  0  0  0  0  0  0  0  0  0  0
    9.7681   -0.7634    0.0000 H   0  0  0  0  0  0  0  0  0  0  0  0
    9.7707    1.5482    0.0000 H   0  0  0  0  0  0  0  0  0  0  0  0
    9.2034    0.9559    0.0000 H   0  0  0  0  0  0  0  0  0  0  0  0
    1.4687    2.8944    0.0000 H   0  0  0  0  0  0  0  0  0  0  0  0
    2.1399    3.3821    0.0000 H   0  0  0  0  0  0  0  0  0  0  0  0
    8.5614   -1.0199    0.0000 H   0  0  0  0  0  0  0  0  0  0  0  0
    8.6722   -1.8325    0.0000 H   0  0  0  0  0  0  0  0  0  0  0  0
   10.0288    0.0391    0.0000 H   0  0  0  0  0  0  0  0  0  0  0  0
   10.6772    0.5415    0.0000 H   0  0  0  0  0  0  0  0  0  0  0  0
    8.3780    0.7805    0.0000 H   0  0  0  0  0  0  0  0  0  0  0  0
    7.6188    1.0908    0.0000 H   0  0  0  0  0  0  0  0  0  0  0  0
    1.4561    1.2775    0.0000 H   0  0  0  0  0  0  0  0  0  0  0  0
    1.1997    2.0666    0.0000 H   0  0  0  0  0  0  0  0  0  0  0  0
    5.1124   -0.4053    0.0000 H   0  0  0  0  0  0  0  0  0  0  0  0
    5.8921   -0.2395    0.0000 H   0  0  0  0  0  0  0  0  0  0  0  0
   11.8822   -2.4088    0.0000 H   0  0  0  0  0  0  0  0  0  0  0  0
   11.6359   -3.1669    0.0000 H   0  0  0  0  0  0  0  0  0  0  0  0
    9.5713    3.6095    0.0000 H   0  0  0  0  0  0  0  0  0  0  0  0
   10.3509    3.7752    0.0000 H   0  0  0  0  0  0  0  0  0  0  0  0
    3.3297    3.8163    0.0000 H   0  0  0  0  0  0  0  0  0  0  0  0
    4.1094    3.9821    0.0000 H   0  0  0  0  0  0  0  0  0  0  0  0
    7.3665   -3.6428    0.0000 H   0  0  0  0  0  0  0  0  0  0  0  0
   12.8978    0.3158    0.0000 H   0  0  0  0  0  0  0  0  0  0  0  0
    2.2140    0.0025    0.0000 H   0  0  0  0  0  0  0  0  0  0  0  0
    6.4292    1.9369    0.0000 H   0  0  0  0  0  0  0  0  0  0  0  0
    5.1393   -2.0085    0.0000 H   0  0  0  0  0  0  0  0  0  0  0  0
   10.2265   -3.8302    0.0000 H   0  0  0  0  0  0  0  0  0  0  0  0
   11.6301    2.8863    0.0000 H   0  0  0  0  0  0  0  0  0  0  0  0
    5.2893    2.7879    0.0000 H   0  0  0  0  0  0  0  0  0  0  0  0
    8.4858   -4.3924    0.0000 H   0  0  0  0  0  0  0  0  0  0  0  0
    7.8342   -4.9791    0.0000 H   0  0  0  0  0  0  0  0  0  0  0  0
    7.2474   -4.3275    0.0000 H   0  0  0  0  0  0  0  0  0  0  0  0
   12.9872    1.6600    0.0000 H   0  0  0  0  0  0  0  0  0  0  0  0
   13.8212    1.3891    0.0000 H   0  0  0  0  0  0  0  0  0  0  0  0
   13.5503    0.5552    0.0000 H   0  0  0  0  0  0  0  0  0  0  0  0
    3.0912   -0.8870    0.0000 H   0  0  0  0  0  0  0  0  0  0  0  0
    2.3197   -1.3038    0.0000 H   0  0  0  0  0  0  0  0  0  0  0  0
    1.9030   -0.5324    0.0000 H   0  0  0  0  0  0  0  0  0  0  0  0
    6.0619    1.5012    0.0000 H   0  0  0  0  0  0  0  0  0  0  0  0
    5.2280    1.7721    0.0000 H   0  0  0  0  0  0  0  0  0  0  0  0
    5.4990    2.6060    0.0000 H   0  0  0  0  0  0  0  0  0  0  0  0
    5.0712   -2.5161    0.0000 H   0  0  0  0  0  0  0  0  0  0  0  0
    4.4347   -2.9958    0.0000 H   0  0  0  0  0  0  0  0  0  0  0  0
   11.0937   -4.8166    0.0000 H   0  0  0  0  0  0  0  0  0  0  0  0
   10.4253   -4.3825    0.0000 H   0  0  0  0  0  0  0  0  0  0  0  0
   12.0507    4.1306    0.0000 H   0  0  0  0  0  0  0  0  0  0  0  0
   12.0090    3.3346    0.0000 H   0  0  0  0  0  0  0  0  0  0  0  0
    4.2942    1.6736    0.0000 H   0  0  0  0  0  0  0  0  0  0  0  0
    5.3235    2.2559    0.0000 H   0  0  0  0  0  0  0  0  0  0  0  0
    3.5501   -3.1139    0.0000 H   0  0  0  0  0  0  0  0  0  0  0  0
    2.8592   -2.5740    0.0000 H   0  0  0  0  0  0  0  0  0  0  0  0
    3.3990   -1.8831    0.0000 H   0  0  0  0  0  0  0  0  0  0  0  0
   12.0493   -3.6344    0.0000 H   0  0  0  0  0  0  0  0  0  0  0  0
   12.6360   -4.2860    0.0000 H   0  0  0  0  0  0  0  0  0  0  0  0
   11.9844   -4.8727    0.0000 H   0  0  0  0  0  0  0  0  0  0  0  0
   10.5491    4.3670    0.0000 H   0  0  0  0  0  0  0  0  0  0  0  0
   10.8201    5.2009    0.0000 H   0  0  0  0  0  0  0  0  0  0  0  0
   11.6540    4.9299    0.0000 H   0  0  0  0  0  0  0  0  0  0  0  0
    5.7234    1.5174    0.0000 H   0  0  0  0  0  0  0  0  0  0  0  0
    5.4525    0.6836    0.0000 H   0  0  0  0  0  0  0  0  0  0  0  0
    4.6186    0.9545    0.0000 H   0  0  0  0  0  0  0  0  0  0  0  0
  1 13  1  0  0  0  0
  1 17  1  0  0  0  0
  2 14  1  0  0  0  0
  2 18  1  0  0  0  0
  3 15  1  0  0  0  0
  3 19  1  0  0  0  0
  4 16  1  0  0  0  0
  4 20  1  0  0  0  0
  5 38  1  0  0  0  0
  5 41  1  0  0  0  0
  6 37  1  0  0  0  0
  6 43  1  0  0  0  0
  7 39  1  0  0  0  0
  7 42  1  0  0  0  0
  8 40  1  0  0  0  0
  8 44  1  0  0  0  0
  9 41  2  0  0  0  0
 10 42  2  0  0  0  0
 11 43  2  0  0  0  0
 12 44  2  0  0  0  0
 13 21  1  0  0  0  0
 13 29  1  0  0  0  0
 13 57  1  6  0  0  0
 14 22  1  0  0  0  0
 14 30  1  0  0  0  0
 14 58  1  1  0  0  0
 15 23  1  0  0  0  0
 15 31  1  0  0  0  0
 15 59  1  6  0  0  0
 16 24  1  0  0  0  0
 16 32  1  0  0  0  0
 16 60  1  6  0  0  0
 17 25  1  0  0  0  0
 17 33  1  0  0  0  0
 17 61  1  6  0  0  0
 18 26  1  0  0  0  0
 18 34  1  0  0  0  0
 18 62  1  1  0  0  0
 19 27  1  0  0  0  0
 19 36  1  0  0  0  0
 19 63  1  6  0  0  0
 20 28  1  0  0  0  0
 20 35  1  0  0  0  0
 20 64  1  6  0  0  0
 21 25  1  0  0  0  0
 21 65  1  0  0  0  0
 21 66  1  0  0  0  0
 22 26  1  0  0  0  0
 22 67  1  0  0  0  0
 22 68  1  0  0  0  0
 23 27  1  0  0  0  0
 23 69  1  0  0  0  0
 23 70  1  0  0  0  0
 24 28  1  0  0  0  0
 24 71  1  0  0  0  0
 24 72  1  0  0  0  0
 25 73  1  0  0  0  0
 25 74  1  0  0  0  0
 26 75  1  0  0  0  0
 26 76  1  0  0  0  0
 27 77  1  0  0  0  0
 27 78  1  0  0  0  0
 28 79  1  0  0  0  0
 28 80  1  0  0  0  0
 29 37  1  0  0  0  0
 29 81  1  0  0  0  0
 29 82  1  0  0  0  0
 30 38  1  0  0  0  0
 30 83  1  0  0  0  0
 30 84  1  0  0  0  0
 31 39  1  0  0  0  0
 31 85  1  0  0  0  0
 31 86  1  0  0  0  0
 32 40  1  0  0  0  0
 32 87  1  0  0  0  0
 32 88  1  0  0  0  0
 33 41  1  0  0  0  0
 33 45  1  1  0  0  0
 33 89  1  0  0  0  0
 34 42  1  0  0  0  0
 34 46  1  6  0  0  0
 34 90  1  0  0  0  0
 35 43  1  0  0  0  0
 35 47  1  6  0  0  0
 35 91  1  0  0  0  0
 36 44  1  0  0  0  0
 36 48  1  6  0  0  0
 36 92  1  0  0  0  0
 37 49  1  1  0  0  0
 37 93  1  0  0  0  0
 38 50  1  6  0  0  0
 38 94  1  0  0  0  0
 39 51  1  1  0  0  0
 39 95  1  0  0  0  0
 40 52  1  1  0  0  0
 40 96  1  0  0  0  0
 45 97  1  0  0  0  0
 45 98  1  0  0  0  0
 45 99  1  0  0  0  0
 46100  1  0  0  0  0
 46101  1  0  0  0  0
 46102  1  0  0  0  0
 47103  1  0  0  0  0
 47104  1  0  0  0  0
 47105  1  0  0  0  0
 48106  1  0  0  0  0
 48107  1  0  0  0  0
 48108  1  0  0  0  0
 49 53  1  0  0  0  0
 49109  1  0  0  0  0
 49110  1  0  0  0  0
 50 54  1  0  0  0  0
 50111  1  0  0  0  0
 50112  1  0  0  0  0
 51 55  1  0  0  0  0
 51113  1  0  0  0  0
 51114  1  0  0  0  0
 52 56  1  0  0  0  0
 52115  1  0  0  0  0
 52116  1  0  0  0  0
 53117  1  0  0  0  0
 53118  1  0  0  0  0
 53119  1  0  0  0  0
 54120  1  0  0  0  0
 54121  1  0  0  0  0
 54122  1  0  0  0  0
 55123  1  0  0  0  0
 55124  1  0  0  0  0
 55125  1  0  0  0  0
 56126  1  0  0  0  0
 56127  1  0  0  0  0
 56128  1  0  0  0  0
M  END
> <PUBCHEM_COMPOUND_CID>
441165

> <PUBCHEM_COMPOUND_CANONICALIZED>
1

> <PUBCHEM_CACTVS_COMPLEXITY>
1100

> <PUBCHEM_CACTVS_HBOND_ACCEPTOR>
12

> <PUBCHEM_CACTVS_HBOND_DONOR>
0

> <PUBCHEM_CACTVS_ROTATABLE_BOND>
4

> <PUBCHEM_CACTVS_SUBSKEYS>
AAADcfB8PAAAAAAAAAAAAAAAAAAAASJEiQAAAAAAAAAAAAAAAAAAGgAAAAAADRSggAICCAAABAAIAACQCAAAAAAAAAAAAAEAAAAAABYAAAACAAAFIAAAAAGIyPCMAAAAAAAAAAAAAAAAAAAAAAAAAAAAAA==

> <PUBCHEM_IUPAC_INCHI>
InChI=1S/C44H72O12/c1-9-29-21-33-13-17-38(49-33)26(6)42(46)54-31(11-3)23-35-15-19-40(51-35)28(8)44(48)56-32(12-4)24-36-16-20-39(52-36)27(7)43(47)55-30(10-2)22-34-14-18-37(50-34)25(5)41(45)53-29/h25-40H,9-24H2,1-8H3/t25-,26+,27+,28-,29-,30+,31+,32-,33-,34+,35+,36-,37-,38+,39+,40-

> <PUBCHEM_IUPAC_INCHIKEY>
NKNPHSJWQZXWIX-DCVDGXQQSA-N

> <PUBCHEM_XLOGP3_AA>
8.7

> <PUBCHEM_EXACT_MASS>
792.502378

> <PUBCHEM_MOLECULAR_FORMULA>
C44H72O12

> <PUBCHEM_MOLECULAR_WEIGHT>
793.03528

> <PUBCHEM_OPENEYE_CAN_SMILES>
CCC1CC2CCC(O2)C(C(=O)OC(CC3CCC(O3)C(C(=O)OC(CC4CCC(O4)C(C(=O)OC(CC5CCC(O5)C(C(=O)O1)C)CC)C)CC)C)CC)C

> <PUBCHEM_OPENEYE_ISO_SMILES>
CC[C@H]1C[C@@H]2CC[C@@H](O2)[C@H](C(=O)O[C@@H](C[C@H]3CC[C@H](O3)[C@@H](C(=O)O[C@H](C[C@@H]4CC[C@@H](O4)[C@H](C(=O)O[C@@H](C[C@H]5CC[C@H](O5)[C@@H](C(=O)O1)C)CC)C)CC)C)CC)C

> <PUBCHEM_CACTVS_TPSA>
142

> <PUBCHEM_MONOISOTOPIC_WEIGHT>
792.502378

> <PUBCHEM_TOTAL_CHARGE>
0

> <PUBCHEM_HEAVY_ATOM_COUNT>
56

> <PUBCHEM_ATOM_DEF_STEREO_COUNT>
16

> <PUBCHEM_ATOM_UDEF_STEREO_COUNT>
0

> <PUBCHEM_BOND_DEF_STEREO_COUNT>
0

> <PUBCHEM_BOND_UDEF_STEREO_COUNT>
0

> <PUBCHEM_ISOTOPIC_ATOM_COUNT>
0

> <PUBCHEM_COMPONENT_COUNT>
1

> <PUBCHEM_CACTVS_TAUTO_COUNT>
1

> <PUBCHEM_COORDINATE_TYPE>
1
5
255

> <PUBCHEM_BONDANNOTATIONS>
13  57  6
14  58  5
15  59  6
16  60  6
17  61  6
18  62  5
19  63  6
20  64  6
33  45  5
34  46  6
35  47  6
36  48  6
37  49  5
38  50  6
39  51  5
40  52  5

$$$$

