12160163
  -OEChem-07051213122D

 52 56  0     1  0  0  0  0  0999 V2000
    6.9889    1.4021    0.0000 O   0  0  0  0  0  0  0  0  0  0  0  0
    8.5726    0.5974    0.0000 O   0  0  0  0  0  0  0  0  0  0  0  0
    5.8444   -2.2027    0.0000 O   0  0  0  0  0  0  0  0  0  0  0  0
    2.5405    1.0943    0.0000 O   0  0  0  0  0  0  0  0  0  0  0  0
    2.5405    0.1005    0.0000 O   0  0  0  0  0  0  0  0  0  0  0  0
    5.1832   -3.5467    0.0000 O   0  0  0  0  0  0  0  0  0  0  0  0
    6.0427    0.0974    0.0000 N   0  0  3  0  0  0  0  0  0  0  0  0
    6.9889   -0.2073    0.0000 C   0  0  1  0  0  0  0  0  0  0  0  0
    6.0427    1.0974    0.0000 C   0  0  2  0  0  0  0  0  0  0  0  0
    7.6060   -0.9943    0.0000 C   0  0  2  0  0  0  0  0  0  0  0  0
    5.1767   -0.4026    0.0000 C   0  0  0  0  0  0  0  0  0  0  0  0
    5.1767    1.5974    0.0000 C   0  0  0  0  0  0  0  0  0  0  0  0
    7.5726    0.5974    0.0000 C   0  0  0  0  0  0  0  0  0  0  0  0
    4.3107    0.0974    0.0000 C   0  0  0  0  0  0  0  0  0  0  0  0
    4.3107    1.0974    0.0000 C   0  0  0  0  0  0  0  0  0  0  0  0
    8.5960   -0.8534    0.0000 C   0  0  0  0  0  0  0  0  0  0  0  0
    7.2330   -1.9221    0.0000 C   0  0  0  0  0  0  0  0  0  0  0  0
    5.1928   -1.4441    0.0000 C   0  0  0  0  0  0  0  0  0  0  0  0
    5.1928    2.6389    0.0000 C   0  0  0  0  0  0  0  0  0  0  0  0
    3.4007   -0.4095    0.0000 C   0  0  0  0  0  0  0  0  0  0  0  0
    3.4007    1.6042    0.0000 C   0  0  0  0  0  0  0  0  0  0  0  0
    4.2947   -1.9719    0.0000 C   0  0  0  0  0  0  0  0  0  0  0  0
    3.3926   -1.4510    0.0000 C   0  0  0  0  0  0  0  0  0  0  0  0
    9.2130   -1.6403    0.0000 C   0  0  0  0  0  0  0  0  0  0  0  0
    4.2947    3.1667    0.0000 C   0  0  0  0  0  0  0  0  0  0  0  0
    3.3926    2.6458    0.0000 C   0  0  0  0  0  0  0  0  0  0  0  0
    4.3114   -3.0567    0.0000 C   0  0  0  0  0  0  0  0  0  0  0  0
    2.4448   -1.9790    0.0000 C   0  0  0  0  0  0  0  0  0  0  0  0
    4.2986    4.1666    0.0000 C   0  0  0  0  0  0  0  0  0  0  0  0
    3.3760   -3.6065    0.0000 C   0  0  0  0  0  0  0  0  0  0  0  0
    2.4364   -3.0640    0.0000 C   0  0  0  0  0  0  0  0  0  0  0  0
    7.8388   -0.1914    0.0000 H   0  0  0  0  0  0  0  0  0  0  0  0
    6.1327    1.9426    0.0000 H   0  0  0  0  0  0  0  0  0  0  0  0
    6.9922   -1.0816    0.0000 H   0  0  0  0  0  0  0  0  0  0  0  0
    9.1429   -0.5614    0.0000 H   0  0  0  0  0  0  0  0  0  0  0  0
    8.4034   -0.2641    0.0000 H   0  0  0  0  0  0  0  0  0  0  0  0
    6.6578   -1.6909    0.0000 H   0  0  0  0  0  0  0  0  0  0  0  0
    7.0018   -2.4974    0.0000 H   0  0  0  0  0  0  0  0  0  0  0  0
    7.8083   -2.1533    0.0000 H   0  0  0  0  0  0  0  0  0  0  0  0
    5.7332    2.9427    0.0000 H   0  0  0  0  0  0  0  0  0  0  0  0
    8.7251   -2.0229    0.0000 H   0  0  0  0  0  0  0  0  0  0  0  0
    9.5956   -2.1282    0.0000 H   0  0  0  0  0  0  0  0  0  0  0  0
    9.7009   -1.2578    0.0000 H   0  0  0  0  0  0  0  0  0  0  0  0
    2.8545    2.9538    0.0000 H   0  0  0  0  0  0  0  0  0  0  0  0
    1.9114   -1.6628    0.0000 H   0  0  0  0  0  0  0  0  0  0  0  0
    4.9186    4.1643    0.0000 H   0  0  0  0  0  0  0  0  0  0  0  0
    4.3010    4.7866    0.0000 H   0  0  0  0  0  0  0  0  0  0  0  0
    3.6786    4.1690    0.0000 H   0  0  0  0  0  0  0  0  0  0  0  0
    2.0000    1.3980    0.0000 H   0  0  0  0  0  0  0  0  0  0  0  0
    3.3784   -4.2265    0.0000 H   0  0  0  0  0  0  0  0  0  0  0  0
    1.8983   -3.3719    0.0000 H   0  0  0  0  0  0  0  0  0  0  0  0
    5.1904   -4.1666    0.0000 H   0  0  0  0  0  0  0  0  0  0  0  0
  1  9  1  0  0  0  0
  1 13  1  0  0  0  0
  2 13  2  0  0  0  0
  3 18  2  0  0  0  0
  4 21  1  0  0  0  0
  4 49  1  0  0  0  0
  5 20  2  0  0  0  0
  6 27  1  0  0  0  0
  6 52  1  0  0  0  0
  7  8  1  0  0  0  0
  7  9  1  0  0  0  0
  7 11  1  0  0  0  0
  8 10  1  0  0  0  0
  8 13  1  0  0  0  0
  8 32  1  1  0  0  0
  9 12  1  0  0  0  0
  9 33  1  1  0  0  0
 10 16  1  0  0  0  0
 10 17  1  6  0  0  0
 10 34  1  0  0  0  0
 11 14  2  0  0  0  0
 11 18  1  0  0  0  0
 12 15  2  0  0  0  0
 12 19  1  0  0  0  0
 14 15  1  0  0  0  0
 14 20  1  0  0  0  0
 15 21  1  0  0  0  0
 16 24  1  0  0  0  0
 16 35  1  0  0  0  0
 16 36  1  0  0  0  0
 17 37  1  0  0  0  0
 17 38  1  0  0  0  0
 17 39  1  0  0  0  0
 18 22  1  0  0  0  0
 19 25  2  0  0  0  0
 19 40  1  0  0  0  0
 20 23  1  0  0  0  0
 21 26  2  0  0  0  0
 22 23  2  0  0  0  0
 22 27  1  0  0  0  0
 23 28  1  0  0  0  0
 24 41  1  0  0  0  0
 24 42  1  0  0  0  0
 24 43  1  0  0  0  0
 25 26  1  0  0  0  0
 25 29  1  0  0  0  0
 26 44  1  0  0  0  0
 27 30  2  0  0  0  0
 28 31  2  0  0  0  0
 28 45  1  0  0  0  0
 29 46  1  0  0  0  0
 29 47  1  0  0  0  0
 29 48  1  0  0  0  0
 30 31  1  0  0  0  0
 30 50  1  0  0  0  0
 31 51  1  0  0  0  0
M  END
> <PUBCHEM_COMPOUND_CID>
12160163

> <PUBCHEM_COMPOUND_CANONICALIZED>
1

> <PUBCHEM_CACTVS_COMPLEXITY>
851

> <PUBCHEM_CACTVS_HBOND_ACCEPTOR>
7

> <PUBCHEM_CACTVS_HBOND_DONOR>
2

> <PUBCHEM_CACTVS_ROTATABLE_BOND>
2

> <PUBCHEM_CACTVS_SUBSKEYS>
AAADceB6OAAAAAAAAAAAAAAAAAAAAWAAAAAwYIEAAAAAAECxQAAAHgAACAAADSzhmAYyDoMABgCIAqTSSACCAAAkIAAIiAGODMgKJjaCtTuPcUhk4BGYucf7zfCOwAADAAAYAACAAAYAADAAAAAAAAAAAA==

> <PUBCHEM_IUPAC_INCHI>
InChI=1S/C24H21NO6/c1-4-11(3)19-24(30)31-23-13-8-10(2)9-15(27)16(13)18-20(25(19)23)22(29)17-12(21(18)28)6-5-7-14(17)26/h5-9,11,19,23,26-27H,4H2,1-3H3/t11-,19-,23-/m0/s1

> <PUBCHEM_IUPAC_INCHIKEY>
AVMSKCRHMKXYOO-JNVIWZAMSA-N

> <PUBCHEM_XLOGP3_AA>
4.7

> <PUBCHEM_EXACT_MASS>
419.136887

> <PUBCHEM_MOLECULAR_FORMULA>
C24H21NO6

> <PUBCHEM_MOLECULAR_WEIGHT>
419.42664

> <PUBCHEM_OPENEYE_CAN_SMILES>
CCC(C)C1C(=O)OC2N1C3=C(C4=C(C=C(C=C24)C)O)C(=O)C5=C(C3=O)C(=CC=C5)O

> <PUBCHEM_OPENEYE_ISO_SMILES>
CC[C@H](C)[C@H]1C(=O)O[C@@H]2N1C3=C(C4=C(C=C(C=C24)C)O)C(=O)C5=C(C3=O)C(=CC=C5)O

> <PUBCHEM_CACTVS_TPSA>
104

> <PUBCHEM_MONOISOTOPIC_WEIGHT>
419.136887

> <PUBCHEM_TOTAL_CHARGE>
0

> <PUBCHEM_HEAVY_ATOM_COUNT>
31

> <PUBCHEM_ATOM_DEF_STEREO_COUNT>
3

> <PUBCHEM_ATOM_UDEF_STEREO_COUNT>
0

> <PUBCHEM_BOND_DEF_STEREO_COUNT>
0

> <PUBCHEM_BOND_UDEF_STEREO_COUNT>
0

> <PUBCHEM_ISOTOPIC_ATOM_COUNT>
0

> <PUBCHEM_COMPONENT_COUNT>
1

> <PUBCHEM_CACTVS_TAUTO_COUNT>
144

> <PUBCHEM_COORDINATE_TYPE>
1
5
255

> <PUBCHEM_BONDANNOTATIONS>
10  17  6
12  15  8
12  19  8
15  21  8
19  25  8
21  26  8
22  23  8
22  27  8
23  28  8
25  26  8
27  30  8
28  31  8
30  31  8
8  32  5
9  33  5

$$$$

