441796
  -OEChem-07051212563D

 69 73  0     1  0  0  0  0  0999 V2000
   -0.9657   -2.2996   -1.8454 O   0  0  0  0  0  0  0  0  0  0  0  0
    0.1857    2.1222   -0.1769 O   0  0  0  0  0  0  0  0  0  0  0  0
   -2.1438   -3.1059    0.0320 O   0  0  0  0  0  0  0  0  0  0  0  0
    0.1902   -2.6775    1.6246 O   0  0  0  0  0  0  0  0  0  0  0  0
    2.9177    0.2807    1.0582 O   0  0  0  0  0  0  0  0  0  0  0  0
   -3.8017   -1.7367    1.4740 O   0  0  0  0  0  0  0  0  0  0  0  0
    1.7975    2.6417    1.2876 O   0  0  0  0  0  0  0  0  0  0  0  0
   -5.8748   -0.0971    1.7928 O   0  0  0  0  0  0  0  0  0  0  0  0
    3.3671    1.3360   -0.9391 O   0  0  0  0  0  0  0  0  0  0  0  0
    5.2797   -0.3897    1.4322 O   0  0  0  0  0  0  0  0  0  0  0  0
   -0.2264   -0.1930   -1.0078 C   0  0  2  0  0  0  0  0  0  0  0  0
   -1.3034   -0.7767   -0.0545 C   0  0  1  0  0  0  0  0  0  0  0  0
   -2.7722   -0.1572   -0.1780 C   0  0  2  0  0  0  0  0  0  0  0  0
    1.2233   -0.5070   -0.4876 C   0  0  2  0  0  0  0  0  0  0  0  0
   -1.0883   -2.2703   -0.4067 C   0  0  2  0  0  0  0  0  0  0  0  0
   -0.3196    1.3061   -1.2663 C   0  0  1  0  0  0  0  0  0  0  0  0
   -2.6520    1.4075   -0.3116 C   0  0  1  0  0  0  0  0  0  0  0  0
    1.4677   -2.0478   -0.3513 C   0  0  2  0  0  0  0  0  0  0  0  0
   -0.4714   -1.0204   -2.2813 C   0  0  0  0  0  0  0  0  0  0  0  0
    0.2365   -2.7898    0.2030 C   0  0  1  0  0  0  0  0  0  0  0  0
   -1.7518    1.7943   -1.5007 C   0  0  0  0  0  0  0  0  0  0  0  0
    1.5233    0.3172    0.7662 C   0  0  2  0  0  0  0  0  0  0  0  0
   -3.5601   -0.3798    1.1581 C   0  0  1  0  0  0  0  0  0  0  0  0
   -3.5899   -0.7535   -1.3598 C   0  0  0  0  0  0  0  0  0  0  0  0
   -4.0019    2.1177   -0.2608 C   0  0  0  0  0  0  0  0  0  0  0  0
    2.7494   -2.4557    0.3782 C   0  0  0  0  0  0  0  0  0  0  0  0
    1.2096    1.7854    0.6297 C   0  0  0  0  0  0  0  0  0  0  0  0
   -4.9044    0.3369    1.1730 C   0  0  0  0  0  0  0  0  0  0  0  0
   -5.0335    1.6167    0.4377 C   0  0  0  0  0  0  0  0  0  0  0  0
   -4.1549    3.4479   -0.9452 C   0  0  0  0  0  0  0  0  0  0  0  0
    3.7403    0.8297    0.1122 C   0  0  0  0  0  0  0  0  0  0  0  0
    5.2007    0.7242    0.5446 C   0  0  2  0  0  0  0  0  0  0  0  0
    6.1024    0.4716   -0.6766 C   0  0  0  0  0  0  0  0  0  0  0  0
    5.5967    1.9652    1.3421 C   0  0  0  0  0  0  0  0  0  0  0  0
    5.8280   -0.8433   -1.3965 C   0  0  0  0  0  0  0  0  0  0  0  0
   -1.0187   -0.5974    0.9879 H   0  0  0  0  0  0  0  0  0  0  0  0
    1.8904   -0.2164   -1.3045 H   0  0  0  0  0  0  0  0  0  0  0  0
    0.2828    1.5753   -2.1431 H   0  0  0  0  0  0  0  0  0  0  0  0
   -2.1366    1.7718    0.5913 H   0  0  0  0  0  0  0  0  0  0  0  0
    1.6055   -2.4226   -1.3762 H   0  0  0  0  0  0  0  0  0  0  0  0
   -1.2076   -0.5836   -2.9578 H   0  0  0  0  0  0  0  0  0  0  0  0
    0.4328   -1.1722   -2.8807 H   0  0  0  0  0  0  0  0  0  0  0  0
    0.3405   -3.8582   -0.0280 H   0  0  0  0  0  0  0  0  0  0  0  0
   -2.1523    1.4195   -2.4469 H   0  0  0  0  0  0  0  0  0  0  0  0
   -1.7096    2.8862   -1.5954 H   0  0  0  0  0  0  0  0  0  0  0  0
    0.9910   -0.0592    1.6438 H   0  0  0  0  0  0  0  0  0  0  0  0
   -2.9871    0.0351    1.9972 H   0  0  0  0  0  0  0  0  0  0  0  0
   -4.6185   -0.3803   -1.3849 H   0  0  0  0  0  0  0  0  0  0  0  0
   -3.1693   -0.5078   -2.3340 H   0  0  0  0  0  0  0  0  0  0  0  0
   -3.6740   -1.8409   -1.3085 H   0  0  0  0  0  0  0  0  0  0  0  0
    2.8672   -3.5451    0.3522 H   0  0  0  0  0  0  0  0  0  0  0  0
    3.6245   -2.0328   -0.1147 H   0  0  0  0  0  0  0  0  0  0  0  0
    2.7542   -2.1574    1.4301 H   0  0  0  0  0  0  0  0  0  0  0  0
   -1.8188   -4.0199    0.0817 H   0  0  0  0  0  0  0  0  0  0  0  0
    0.8782   -3.2572    1.9921 H   0  0  0  0  0  0  0  0  0  0  0  0
   -5.9903    2.1242    0.4980 H   0  0  0  0  0  0  0  0  0  0  0  0
   -4.3398   -2.1262    0.7652 H   0  0  0  0  0  0  0  0  0  0  0  0
   -5.1400    3.8937   -0.7684 H   0  0  0  0  0  0  0  0  0  0  0  0
   -4.0391    3.3400   -2.0283 H   0  0  0  0  0  0  0  0  0  0  0  0
   -3.4082    4.1569   -0.5733 H   0  0  0  0  0  0  0  0  0  0  0  0
    6.0147    1.2984   -1.3919 H   0  0  0  0  0  0  0  0  0  0  0  0
    7.1479    0.4478   -0.3435 H   0  0  0  0  0  0  0  0  0  0  0  0
    4.9273    2.1194    2.1965 H   0  0  0  0  0  0  0  0  0  0  0  0
    5.5576    2.8656    0.7201 H   0  0  0  0  0  0  0  0  0  0  0  0
    6.6094    1.8621    1.7472 H   0  0  0  0  0  0  0  0  0  0  0  0
    4.7535   -0.1885    2.2249 H   0  0  0  0  0  0  0  0  0  0  0  0
    6.5309   -0.9634   -2.2277 H   0  0  0  0  0  0  0  0  0  0  0  0
    4.8182   -0.8713   -1.8154 H   0  0  0  0  0  0  0  0  0  0  0  0
    5.9580   -1.7006   -0.7294 H   0  0  0  0  0  0  0  0  0  0  0  0
  1 15  1  0  0  0  0
  1 19  1  0  0  0  0
  2 16  1  0  0  0  0
  2 27  1  0  0  0  0
  3 15  1  0  0  0  0
  3 54  1  0  0  0  0
  4 20  1  0  0  0  0
  4 55  1  0  0  0  0
  5 22  1  0  0  0  0
  5 31  1  0  0  0  0
  6 23  1  0  0  0  0
  6 57  1  0  0  0  0
  7 27  2  0  0  0  0
  8 28  2  0  0  0  0
  9 31  2  0  0  0  0
 10 32  1  0  0  0  0
 10 66  1  0  0  0  0
 11 12  1  0  0  0  0
 11 14  1  0  0  0  0
 11 16  1  0  0  0  0
 11 19  1  0  0  0  0
 12 13  1  0  0  0  0
 12 15  1  0  0  0  0
 12 36  1  0  0  0  0
 13 17  1  0  0  0  0
 13 23  1  0  0  0  0
 13 24  1  0  0  0  0
 14 18  1  0  0  0  0
 14 22  1  0  0  0  0
 14 37  1  0  0  0  0
 15 20  1  0  0  0  0
 16 21  1  0  0  0  0
 16 38  1  0  0  0  0
 17 21  1  0  0  0  0
 17 25  1  0  0  0  0
 17 39  1  0  0  0  0
 18 20  1  0  0  0  0
 18 26  1  0  0  0  0
 18 40  1  0  0  0  0
 19 41  1  0  0  0  0
 19 42  1  0  0  0  0
 20 43  1  0  0  0  0
 21 44  1  0  0  0  0
 21 45  1  0  0  0  0
 22 27  1  0  0  0  0
 22 46  1  0  0  0  0
 23 28  1  0  0  0  0
 23 47  1  0  0  0  0
 24 48  1  0  0  0  0
 24 49  1  0  0  0  0
 24 50  1  0  0  0  0
 25 29  2  0  0  0  0
 25 30  1  0  0  0  0
 26 51  1  0  0  0  0
 26 52  1  0  0  0  0
 26 53  1  0  0  0  0
 28 29  1  0  0  0  0
 29 56  1  0  0  0  0
 30 58  1  0  0  0  0
 30 59  1  0  0  0  0
 30 60  1  0  0  0  0
 31 32  1  0  0  0  0
 32 33  1  0  0  0  0
 32 34  1  0  0  0  0
 33 35  1  0  0  0  0
 33 61  1  0  0  0  0
 33 62  1  0  0  0  0
 34 63  1  0  0  0  0
 34 64  1  0  0  0  0
 34 65  1  0  0  0  0
 35 67  1  0  0  0  0
 35 68  1  0  0  0  0
 35 69  1  0  0  0  0
M  END
> <PUBCHEM_COMPOUND_CID>
441796

> <PUBCHEM_CONFORMER_RMSD>
0.8

> <PUBCHEM_CONFORMER_DIVERSEORDER>
2
3
7
4
5
6
1

> <PUBCHEM_MMFF94_PARTIAL_CHARGES>
29
1 -0.56
10 -0.68
15 0.56
16 0.28
17 0.14
19 0.28
2 -0.43
20 0.28
22 0.34
23 0.34
25 -0.28
27 0.66
28 0.49
29 -0.14
3 -0.68
30 0.14
31 0.66
32 0.34
4 -0.68
5 -0.43
54 0.4
55 0.4
56 0.15
57 0.4
6 -0.68
66 0.4
7 -0.57
8 -0.57
9 -0.57

> <PUBCHEM_EFFECTIVE_ROTOR_COUNT>
5.6

> <PUBCHEM_PHARMACOPHORE_FEATURES>
17
1 1 acceptor
1 10 acceptor
1 10 donor
1 3 acceptor
1 3 donor
1 35 hydrophobe
1 4 acceptor
1 4 donor
1 6 acceptor
1 6 donor
1 7 acceptor
1 8 acceptor
1 9 acceptor
6 11 12 13 16 17 21 rings
6 13 17 23 25 28 29 rings
6 2 11 14 16 22 27 rings
8 1 11 12 14 15 18 19 20 rings

> <PUBCHEM_HEAVY_ATOM_COUNT>
35

> <PUBCHEM_ATOM_DEF_STEREO_COUNT>
12

> <PUBCHEM_ATOM_UDEF_STEREO_COUNT>
0

> <PUBCHEM_BOND_DEF_STEREO_COUNT>
0

> <PUBCHEM_BOND_UDEF_STEREO_COUNT>
0

> <PUBCHEM_ISOTOPIC_ATOM_COUNT>
0

> <PUBCHEM_COMPONENT_COUNT>
1

> <PUBCHEM_CACTVS_TAUTO_COUNT>
13

> <PUBCHEM_CONFORMER_ID>
0006BDC400000002

> <PUBCHEM_MMFF94_ENERGY>
137.7253

> <PUBCHEM_FEATURE_SELFOVERLAP>
86.497

> <PUBCHEM_SHAPE_FINGERPRINT>
10165383 225 18334850619758280329
10675989 125 17188424192341144325
11007060 377 18262811652793334264
11112241 14 16951712189733409488
11488393 25 17827064414432946310
11578080 2 17129311019920805493
12011746 2 18411990143601847341
12166972 35 5905751302463948481
12422481 6 18268728241327323266
12633257 1 18335701594270757185
13140716 1 18123468276477879897
13544653 18 12319739176191861798
14341114 328 17203605999661926752
14790565 3 18337675338065411264
14856354 85 17489012799651342482
14955137 171 18341601599625533132
15183329 4 16805317816984533012
15209289 33 18339648823982257626
15420108 30 18187646955439274335
1601671 61 18408042931223495080
16945 1 18337112259341949719
17349148 13 8430325683662123448
1813 80 16056589988908139935
21033648 29 18334307473567206425
21279426 13 18262514913971767614
21403212 168 18260267469044014721
21756936 100 18408893905989101438
22182313 1 18337098085696477229
23402539 116 8790893990187432008
23559900 14 17771054188217407111
23569943 247 16806720896843165358
2838139 119 15864066602538491777
3298306 158 18337396040568444132
3411729 13 18266458904956543649
350125 39 18335425608599750167
392239 28 18271799095641235851
404807 14 14784844400611479980
4058900 60 18124591152617522049
4093350 32 17241319330272757997
4340502 62 18410569613011971928
508706 21 18410294692060565607
5104073 3 18200034091311802616
5265222 85 18268418059163622780
56638632 33 16338083855206997027
6086070 43 17749973135882609609
7226269 152 18040718065352437864

> <PUBCHEM_SHAPE_MULTIPOLES>
661.59
11.9
3.34
1.66
8.17
0.53
0.18
-5.47
-3.06
-1.28
-0.02
-0.34
0.2
1.26

> <PUBCHEM_SHAPE_SELFOVERLAP>
1443.33

> <PUBCHEM_SHAPE_VOLUME>
350.6

> <PUBCHEM_COORDINATE_TYPE>
2
5
10

$$$$

