119034
  -OEChem-07051212553D

 83 87  0     1  0  0  0  0  0999 V2000
    5.9341    0.3986   -1.6542 O   0  0  0  0  0  0  0  0  0  0  0  0
    4.2119    2.6314    0.6209 O   0  0  0  0  0  0  0  0  0  0  0  0
    6.7760   -0.1310    1.9478 O   0  0  0  0  0  0  0  0  0  0  0  0
   -4.4589   -3.1136   -0.4097 O   0  0  0  0  0  0  0  0  0  0  0  0
   -3.2797   -1.9016   -1.9383 O   0  0  0  0  0  0  0  0  0  0  0  0
    0.3245   -0.8893    0.2063 C   0  0  2  0  0  0  0  0  0  0  0  0
    1.0558    0.2594   -0.5877 C   0  0  1  0  0  0  0  0  0  0  0  0
    2.6274    0.1228   -0.8439 C   0  0  2  0  0  0  0  0  0  0  0  0
   -1.1375   -0.3228    0.6930 C   0  0  1  0  0  0  0  0  0  0  0  0
    3.3097   -0.3080    0.4980 C   0  0  1  0  0  0  0  0  0  0  0  0
    1.1940   -1.3354    1.4118 C   0  0  0  0  0  0  0  0  0  0  0  0
   -1.8917    0.3053   -0.5027 C   0  0  0  0  0  0  0  0  0  0  0  0
    2.6619   -1.5858    1.0696 C   0  0  0  0  0  0  0  0  0  0  0  0
    4.8895   -0.3304    0.4926 C   0  0  1  0  0  0  0  0  0  0  0  0
   -3.4241    0.4520   -0.4656 C   0  0  1  0  0  0  0  0  0  0  0  0
    0.2392    0.6316   -1.8442 C   0  0  0  0  0  0  0  0  0  0  0  0
    3.1741    1.5331   -1.2782 C   0  0  0  0  0  0  0  0  0  0  0  0
   -1.9655   -1.4707    1.3502 C   0  0  0  0  0  0  0  0  0  0  0  0
   -4.0865   -0.8340    0.0942 C   0  0  1  0  0  0  0  0  0  0  0  0
    0.1198   -2.1439   -0.7006 C   0  0  0  0  0  0  0  0  0  0  0  0
   -3.4726   -1.2119    1.4542 C   0  0  0  0  0  0  0  0  0  0  0  0
    5.4753    0.8366   -0.3767 C   0  0  2  0  0  0  0  0  0  0  0  0
   -1.2399    0.7012   -1.6153 C   0  0  0  0  0  0  0  0  0  0  0  0
    4.4872    1.9784   -0.6168 C   0  0  2  0  0  0  0  0  0  0  0  0
    2.9604   -0.8580   -1.9956 C   0  0  0  0  0  0  0  0  0  0  0  0
   -0.9897    0.7940    1.7688 C   0  0  0  0  0  0  0  0  0  0  0  0
   -3.9317    1.7620    0.2326 C   0  0  2  0  0  0  0  0  0  0  0  0
   -5.6171   -0.6897    0.1935 C   0  0  0  0  0  0  0  0  0  0  0  0
   -5.4835    1.8282    0.2254 C   0  0  1  0  0  0  0  0  0  0  0  0
    5.3698   -0.0992    1.9567 C   0  0  0  0  0  0  0  0  0  0  0  0
    5.4765   -1.6981    0.0759 C   0  0  0  0  0  0  0  0  0  0  0  0
   -6.0704    0.5803    0.8943 C   0  0  0  0  0  0  0  0  0  0  0  0
   -3.8806   -1.9802   -0.8771 C   0  0  0  0  0  0  0  0  0  0  0  0
   -3.3197    3.0176   -0.4098 C   0  0  0  0  0  0  0  0  0  0  0  0
   -6.0379    3.0713    0.9311 C   0  0  0  0  0  0  0  0  0  0  0  0
    0.9954    1.1362    0.0710 H   0  0  0  0  0  0  0  0  0  0  0  0
    3.0388    0.4819    1.2164 H   0  0  0  0  0  0  0  0  0  0  0  0
    0.7766   -2.2403    1.8700 H   0  0  0  0  0  0  0  0  0  0  0  0
    1.1954   -0.5761    2.1972 H   0  0  0  0  0  0  0  0  0  0  0  0
    3.1646   -1.8851    1.9956 H   0  0  0  0  0  0  0  0  0  0  0  0
    2.7576   -2.4343    0.3864 H   0  0  0  0  0  0  0  0  0  0  0  0
   -3.7674    0.5453   -1.5091 H   0  0  0  0  0  0  0  0  0  0  0  0
    0.3938   -0.0915   -2.6499 H   0  0  0  0  0  0  0  0  0  0  0  0
    0.5686    1.6041   -2.2263 H   0  0  0  0  0  0  0  0  0  0  0  0
    2.4265    2.3092   -1.0733 H   0  0  0  0  0  0  0  0  0  0  0  0
    3.3122    1.5455   -2.3677 H   0  0  0  0  0  0  0  0  0  0  0  0
   -1.5782   -1.6803    2.3557 H   0  0  0  0  0  0  0  0  0  0  0  0
   -1.8556   -2.4075    0.8005 H   0  0  0  0  0  0  0  0  0  0  0  0
    1.0195   -2.4285   -1.2387 H   0  0  0  0  0  0  0  0  0  0  0  0
   -0.1477   -3.0296   -0.1149 H   0  0  0  0  0  0  0  0  0  0  0  0
   -0.6595   -2.0028   -1.4528 H   0  0  0  0  0  0  0  0  0  0  0  0
   -3.9482   -2.1126    1.8634 H   0  0  0  0  0  0  0  0  0  0  0  0
   -3.6554   -0.4246    2.1935 H   0  0  0  0  0  0  0  0  0  0  0  0
    6.3579    1.2618    0.1143 H   0  0  0  0  0  0  0  0  0  0  0  0
   -1.8095    1.1128   -2.4460 H   0  0  0  0  0  0  0  0  0  0  0  0
    4.9511    2.7316   -1.2659 H   0  0  0  0  0  0  0  0  0  0  0  0
    3.9843   -0.7364   -2.3529 H   0  0  0  0  0  0  0  0  0  0  0  0
    2.8702   -1.9059   -1.7133 H   0  0  0  0  0  0  0  0  0  0  0  0
    2.3384   -0.6932   -2.8782 H   0  0  0  0  0  0  0  0  0  0  0  0
   -1.9529    1.1017    2.1782 H   0  0  0  0  0  0  0  0  0  0  0  0
   -0.4241    0.4638    2.6429 H   0  0  0  0  0  0  0  0  0  0  0  0
   -0.5156    1.6992    1.3785 H   0  0  0  0  0  0  0  0  0  0  0  0
   -3.6251    1.7604    1.2815 H   0  0  0  0  0  0  0  0  0  0  0  0
   -6.0585   -1.5461    0.7202 H   0  0  0  0  0  0  0  0  0  0  0  0
   -6.0572   -0.7000   -0.8141 H   0  0  0  0  0  0  0  0  0  0  0  0
   -5.8297    1.8576   -0.8168 H   0  0  0  0  0  0  0  0  0  0  0  0
    5.0131   -0.8802    2.6348 H   0  0  0  0  0  0  0  0  0  0  0  0
    5.0415    0.8692    2.3468 H   0  0  0  0  0  0  0  0  0  0  0  0
    6.5689   -1.6609   -0.0085 H   0  0  0  0  0  0  0  0  0  0  0  0
    5.2385   -2.4824    0.8030 H   0  0  0  0  0  0  0  0  0  0  0  0
    5.1012   -2.0329   -0.8931 H   0  0  0  0  0  0  0  0  0  0  0  0
   -7.1664    0.6234    0.8661 H   0  0  0  0  0  0  0  0  0  0  0  0
   -5.7883    0.5480    1.9536 H   0  0  0  0  0  0  0  0  0  0  0  0
   -2.2273    3.0067   -0.3558 H   0  0  0  0  0  0  0  0  0  0  0  0
   -3.6130    3.1060   -1.4610 H   0  0  0  0  0  0  0  0  0  0  0  0
   -3.6315    3.9285    0.1090 H   0  0  0  0  0  0  0  0  0  0  0  0
    6.3445    1.1582   -2.1014 H   0  0  0  0  0  0  0  0  0  0  0  0
    3.6397    3.3945    0.4323 H   0  0  0  0  0  0  0  0  0  0  0  0
   -7.1295    3.0204    1.0095 H   0  0  0  0  0  0  0  0  0  0  0  0
   -5.6311    3.1681    1.9433 H   0  0  0  0  0  0  0  0  0  0  0  0
   -5.8048    3.9848    0.3762 H   0  0  0  0  0  0  0  0  0  0  0  0
    7.0751    0.0155    2.8612 H   0  0  0  0  0  0  0  0  0  0  0  0
   -4.3361   -3.8677   -1.0249 H   0  0  0  0  0  0  0  0  0  0  0  0
  1 22  1  0  0  0  0
  1 77  1  0  0  0  0
  2 24  1  0  0  0  0
  2 78  1  0  0  0  0
  3 30  1  0  0  0  0
  3 82  1  0  0  0  0
  4 33  1  0  0  0  0
  4 83  1  0  0  0  0
  5 33  2  0  0  0  0
  6  7  1  0  0  0  0
  6  9  1  0  0  0  0
  6 11  1  0  0  0  0
  6 20  1  0  0  0  0
  7  8  1  0  0  0  0
  7 16  1  0  0  0  0
  7 36  1  0  0  0  0
  8 10  1  0  0  0  0
  8 17  1  0  0  0  0
  8 25  1  0  0  0  0
  9 12  1  0  0  0  0
  9 18  1  0  0  0  0
  9 26  1  0  0  0  0
 10 13  1  0  0  0  0
 10 14  1  0  0  0  0
 10 37  1  0  0  0  0
 11 13  1  0  0  0  0
 11 38  1  0  0  0  0
 11 39  1  0  0  0  0
 12 15  1  0  0  0  0
 12 23  2  0  0  0  0
 13 40  1  0  0  0  0
 13 41  1  0  0  0  0
 14 22  1  0  0  0  0
 14 30  1  0  0  0  0
 14 31  1  0  0  0  0
 15 19  1  0  0  0  0
 15 27  1  0  0  0  0
 15 42  1  0  0  0  0
 16 23  1  0  0  0  0
 16 43  1  0  0  0  0
 16 44  1  0  0  0  0
 17 24  1  0  0  0  0
 17 45  1  0  0  0  0
 17 46  1  0  0  0  0
 18 21  1  0  0  0  0
 18 47  1  0  0  0  0
 18 48  1  0  0  0  0
 19 21  1  0  0  0  0
 19 28  1  0  0  0  0
 19 33  1  0  0  0  0
 20 49  1  0  0  0  0
 20 50  1  0  0  0  0
 20 51  1  0  0  0  0
 21 52  1  0  0  0  0
 21 53  1  0  0  0  0
 22 24  1  0  0  0  0
 22 54  1  0  0  0  0
 23 55  1  0  0  0  0
 24 56  1  0  0  0  0
 25 57  1  0  0  0  0
 25 58  1  0  0  0  0
 25 59  1  0  0  0  0
 26 60  1  0  0  0  0
 26 61  1  0  0  0  0
 26 62  1  0  0  0  0
 27 29  1  0  0  0  0
 27 34  1  0  0  0  0
 27 63  1  0  0  0  0
 28 32  1  0  0  0  0
 28 64  1  0  0  0  0
 28 65  1  0  0  0  0
 29 32  1  0  0  0  0
 29 35  1  0  0  0  0
 29 66  1  0  0  0  0
 30 67  1  0  0  0  0
 30 68  1  0  0  0  0
 31 69  1  0  0  0  0
 31 70  1  0  0  0  0
 31 71  1  0  0  0  0
 32 72  1  0  0  0  0
 32 73  1  0  0  0  0
 34 74  1  0  0  0  0
 34 75  1  0  0  0  0
 34 76  1  0  0  0  0
 35 79  1  0  0  0  0
 35 80  1  0  0  0  0
 35 81  1  0  0  0  0
M  END
> <PUBCHEM_COMPOUND_CID>
119034

> <PUBCHEM_CONFORMER_RMSD>
0.8

> <PUBCHEM_CONFORMER_DIVERSEORDER>
2
1

> <PUBCHEM_MMFF94_PARTIAL_CHARGES>
20
1 -0.68
12 -0.28
15 0.14
16 0.14
19 0.06
2 -0.68
22 0.28
23 -0.29
24 0.28
3 -0.68
30 0.28
33 0.66
4 -0.65
5 -0.57
55 0.15
77 0.4
78 0.4
82 0.4
83 0.5
9 0.14

> <PUBCHEM_EFFECTIVE_ROTOR_COUNT>
4.6

> <PUBCHEM_PHARMACOPHORE_FEATURES>
14
1 1 acceptor
1 1 donor
1 2 acceptor
1 2 donor
1 3 acceptor
1 3 donor
1 4 acceptor
1 5 acceptor
3 4 5 33 anion
6 15 19 27 28 29 32 rings
6 6 7 8 10 11 13 rings
6 6 7 9 12 16 23 rings
6 8 10 14 17 22 24 rings
6 9 12 15 18 19 21 rings

> <PUBCHEM_HEAVY_ATOM_COUNT>
35

> <PUBCHEM_ATOM_DEF_STEREO_COUNT>
12

> <PUBCHEM_ATOM_UDEF_STEREO_COUNT>
0

> <PUBCHEM_BOND_DEF_STEREO_COUNT>
0

> <PUBCHEM_BOND_UDEF_STEREO_COUNT>
0

> <PUBCHEM_ISOTOPIC_ATOM_COUNT>
0

> <PUBCHEM_COMPONENT_COUNT>
1

> <PUBCHEM_CACTVS_TAUTO_COUNT>
1

> <PUBCHEM_CONFORMER_ID>
0001D0FA00000002

> <PUBCHEM_MMFF94_ENERGY>
161.0122

> <PUBCHEM_FEATURE_SELFOVERLAP>
71.18

> <PUBCHEM_SHAPE_FINGERPRINT>
10906281 52 17488724753490726394
12107183 9 17838906180164099266
12166972 35 16702301235051052860
12236239 1 18413669119169000915
12422481 6 17703793668842778085
12616971 3 18202845448070536567
12633257 1 17561084734938239872
13224815 77 17632576045832797054
13583140 156 17313393322211225719
13690498 29 17822858546824020775
13782708 43 17604429591860507455
14068700 675 17971489399264539639
14341114 328 18413669119021398876
14840074 17 17203604882685457015
14849402 71 18200593597583160580
14856354 85 18408603626572365407
15131766 46 15408324415047025383
15183329 4 18131632283252322548
15788980 27 18409446981549088546
15840311 113 18126558158362577209
17349148 13 16917069949311077382
17980427 23 18201995521725051429
18393751 57 16166401183904184969
19377110 9 18202568384257211323
20511986 3 18272943725821289073
21033648 144 17203046262217267454
21033648 29 18115606910568964808
23522609 53 17845348055868111076
23559900 14 18041829744205702278
23569914 2 17318215810355596937
23569943 247 16772688773947732130
24771293 8 18200596896302394156
32027 91 17606104328632505382
34797466 226 17895463748368995773
350125 39 18131911576755061500
3504750 166 18339938076839338590
3633792 109 17846230968785522543
3680242 22 17489585684101489608
392239 28 18202288021656457088
4073 2 17917138412956345586
5104073 3 17918272022102767792
513202 73 15984270758531960212
6086070 43 18409738334919204357

> <PUBCHEM_SHAPE_MULTIPOLES>
690.94
15.5
2.72
1.78
4.55
0.67
-0.07
4.13
3.6
-2.88
-0.09
1.15
-0.22
-1.46

> <PUBCHEM_SHAPE_SELFOVERLAP>
1469.381

> <PUBCHEM_SHAPE_VOLUME>
378.8

> <PUBCHEM_COORDINATE_TYPE>
2
5
10

$$$$

