5282078
  -OEChem-07051213022D

 75 76  0     1  0  0  0  0  0999 V2000
    7.1962    0.2723    0.0000 O   0  0  0  0  0  0  0  0  0  0  0  0
    6.3301    1.7723    0.0000 O   0  0  0  0  0  0  0  0  0  0  0  0
    8.9282   -2.7277    0.0000 O   0  0  0  0  0  0  0  0  0  0  0  0
    8.9282   -5.7277    0.0000 O   0  0  0  0  0  0  0  0  0  0  0  0
   10.6766   -5.7623    0.0000 O   0  0  0  0  0  0  0  0  0  0  0  0
   12.4583   -2.7036    0.0000 O   0  0  0  0  0  0  0  0  0  0  0  0
    6.3301   -0.2277    0.0000 C   0  0  1  0  0  0  0  0  0  0  0  0
    6.3301   -1.2277    0.0000 C   0  0  2  0  0  0  0  0  0  0  0  0
    5.4641    0.2723    0.0000 C   0  0  1  0  0  0  0  0  0  0  0  0
    7.1962   -1.7277    0.0000 C   0  0  0  0  0  0  0  0  0  0  0  0
    5.4641    1.2723    0.0000 C   0  0  2  0  0  0  0  0  0  0  0  0
    5.4641   -1.7277    0.0000 C   0  0  0  0  0  0  0  0  0  0  0  0
    4.5981   -0.2277    0.0000 C   0  0  0  0  0  0  0  0  0  0  0  0
    7.1962   -2.7277    0.0000 C   0  0  0  0  0  0  0  0  0  0  0  0
    8.0622   -3.2277    0.0000 C   0  0  0  0  0  0  0  0  0  0  0  0
    4.5981    1.7723    0.0000 C   0  0  0  0  0  0  0  0  0  0  0  0
    7.1962    1.2723    0.0000 C   0  0  0  0  0  0  0  0  0  0  0  0
    8.0622   -4.2277    0.0000 C   0  0  0  0  0  0  0  0  0  0  0  0
    4.5981    2.7723    0.0000 C   0  0  0  0  0  0  0  0  0  0  0  0
    6.3301    2.7723    0.0000 C   0  0  0  0  0  0  0  0  0  0  0  0
    8.9282   -4.7277    0.0000 C   0  0  0  0  0  0  0  0  0  0  0  0
    9.7942   -3.2277    0.0000 C   0  0  0  0  0  0  0  0  0  0  0  0
    9.7942   -4.2277    0.0000 C   0  0  0  0  0  0  0  0  0  0  0  0
    7.1962   -4.7277    0.0000 C   0  0  0  0  0  0  0  0  0  0  0  0
   10.6882   -4.7624    0.0000 C   0  0  0  0  0  0  0  0  0  0  0  0
    3.7320    3.2723    0.0000 C   0  0  0  0  0  0  0  0  0  0  0  0
   10.6882   -2.6930    0.0000 C   0  0  0  0  0  0  0  0  0  0  0  0
   11.5942   -3.2069    0.0000 C   0  0  0  0  0  0  0  0  0  0  0  0
   11.5942   -4.2485    0.0000 C   0  0  0  0  0  0  0  0  0  0  0  0
    3.7320    4.2723    0.0000 C   0  0  0  0  0  0  0  0  0  0  0  0
    2.8660    4.7723    0.0000 C   0  0  0  0  0  0  0  0  0  0  0  0
   11.5368   -6.2723    0.0000 C   0  0  0  0  0  0  0  0  0  0  0  0
    2.0000    4.2723    0.0000 C   0  0  0  0  0  0  0  0  0  0  0  0
    2.8660    5.7723    0.0000 C   0  0  0  0  0  0  0  0  0  0  0  0
    2.0000    6.2723    0.0000 C   0  0  0  0  0  0  0  0  0  0  0  0
    6.8671   -0.5377    0.0000 H   0  0  0  0  0  0  0  0  0  0  0  0
    5.7932   -0.9177    0.0000 H   0  0  0  0  0  0  0  0  0  0  0  0
    5.4641   -0.3477    0.0000 H   0  0  0  0  0  0  0  0  0  0  0  0
    7.8067   -1.8354    0.0000 H   0  0  0  0  0  0  0  0  0  0  0  0
    7.4082   -1.1451    0.0000 H   0  0  0  0  0  0  0  0  0  0  0  0
    5.4641    1.8923    0.0000 H   0  0  0  0  0  0  0  0  0  0  0  0
    5.1541   -1.1908    0.0000 H   0  0  0  0  0  0  0  0  0  0  0  0
    4.9272   -2.0377    0.0000 H   0  0  0  0  0  0  0  0  0  0  0  0
    5.7741   -2.2646    0.0000 H   0  0  0  0  0  0  0  0  0  0  0  0
    4.2881    0.3092    0.0000 H   0  0  0  0  0  0  0  0  0  0  0  0
    4.0611   -0.5377    0.0000 H   0  0  0  0  0  0  0  0  0  0  0  0
    4.9081   -0.7646    0.0000 H   0  0  0  0  0  0  0  0  0  0  0  0
    6.5856   -2.6200    0.0000 H   0  0  0  0  0  0  0  0  0  0  0  0
    6.9841   -3.3103    0.0000 H   0  0  0  0  0  0  0  0  0  0  0  0
    4.0611    1.4623    0.0000 H   0  0  0  0  0  0  0  0  0  0  0  0
    7.8162    1.2723    0.0000 H   0  0  0  0  0  0  0  0  0  0  0  0
    7.1962    1.8923    0.0000 H   0  0  0  0  0  0  0  0  0  0  0  0
    6.5762    1.2723    0.0000 H   0  0  0  0  0  0  0  0  0  0  0  0
    5.1350    3.0823    0.0000 H   0  0  0  0  0  0  0  0  0  0  0  0
    6.9501    2.7723    0.0000 H   0  0  0  0  0  0  0  0  0  0  0  0
    6.3301    3.3923    0.0000 H   0  0  0  0  0  0  0  0  0  0  0  0
    5.7101    2.7723    0.0000 H   0  0  0  0  0  0  0  0  0  0  0  0
    6.8862   -4.1908    0.0000 H   0  0  0  0  0  0  0  0  0  0  0  0
    6.6592   -5.0377    0.0000 H   0  0  0  0  0  0  0  0  0  0  0  0
    7.5062   -5.2646    0.0000 H   0  0  0  0  0  0  0  0  0  0  0  0
    3.1951    2.9623    0.0000 H   0  0  0  0  0  0  0  0  0  0  0  0
   10.6810   -2.0731    0.0000 H   0  0  0  0  0  0  0  0  0  0  0  0
   12.1300   -4.5606    0.0000 H   0  0  0  0  0  0  0  0  0  0  0  0
    4.2690    4.5823    0.0000 H   0  0  0  0  0  0  0  0  0  0  0  0
   12.9965   -3.0115    0.0000 H   0  0  0  0  0  0  0  0  0  0  0  0
   11.2206   -6.8056    0.0000 H   0  0  0  0  0  0  0  0  0  0  0  0
   12.0701   -6.5885    0.0000 H   0  0  0  0  0  0  0  0  0  0  0  0
   11.8530   -5.7390    0.0000 H   0  0  0  0  0  0  0  0  0  0  0  0
    1.6900    4.8092    0.0000 H   0  0  0  0  0  0  0  0  0  0  0  0
    1.4631    3.9623    0.0000 H   0  0  0  0  0  0  0  0  0  0  0  0
    2.3100    3.7354    0.0000 H   0  0  0  0  0  0  0  0  0  0  0  0
    3.4030    6.0823    0.0000 H   0  0  0  0  0  0  0  0  0  0  0  0
    2.3100    6.8092    0.0000 H   0  0  0  0  0  0  0  0  0  0  0  0
    1.4631    6.5823    0.0000 H   0  0  0  0  0  0  0  0  0  0  0  0
    1.6900    5.7354    0.0000 H   0  0  0  0  0  0  0  0  0  0  0  0
  7  1  1  1  0  0  0
  1 17  1  0  0  0  0
 11  2  1  6  0  0  0
  2 20  1  0  0  0  0
  3 15  1  0  0  0  0
  3 22  1  0  0  0  0
  4 21  2  0  0  0  0
  5 25  1  0  0  0  0
  5 32  1  0  0  0  0
  6 28  1  0  0  0  0
  6 65  1  0  0  0  0
  7  8  1  0  0  0  0
  7  9  1  0  0  0  0
  7 36  1  0  0  0  0
  8 10  1  0  0  0  0
  8 12  1  6  0  0  0
  8 37  1  0  0  0  0
  9 11  1  0  0  0  0
  9 13  1  6  0  0  0
  9 38  1  0  0  0  0
 10 14  1  0  0  0  0
 10 39  1  0  0  0  0
 10 40  1  0  0  0  0
 11 16  1  0  0  0  0
 11 41  1  0  0  0  0
 12 42  1  0  0  0  0
 12 43  1  0  0  0  0
 12 44  1  0  0  0  0
 13 45  1  0  0  0  0
 13 46  1  0  0  0  0
 13 47  1  0  0  0  0
 14 15  1  0  0  0  0
 14 48  1  0  0  0  0
 14 49  1  0  0  0  0
 15 18  2  0  0  0  0
 16 19  2  0  0  0  0
 16 50  1  0  0  0  0
 17 51  1  0  0  0  0
 17 52  1  0  0  0  0
 17 53  1  0  0  0  0
 18 21  1  0  0  0  0
 18 24  1  0  0  0  0
 19 26  1  0  0  0  0
 19 54  1  0  0  0  0
 20 55  1  0  0  0  0
 20 56  1  0  0  0  0
 20 57  1  0  0  0  0
 21 23  1  0  0  0  0
 22 23  1  0  0  0  0
 22 27  2  0  0  0  0
 23 25  2  0  0  0  0
 24 58  1  0  0  0  0
 24 59  1  0  0  0  0
 24 60  1  0  0  0  0
 25 29  1  0  0  0  0
 26 30  2  0  0  0  0
 26 61  1  0  0  0  0
 27 28  1  0  0  0  0
 27 62  1  0  0  0  0
 28 29  2  0  0  0  0
 29 63  1  0  0  0  0
 30 31  1  0  0  0  0
 30 64  1  0  0  0  0
 31 33  1  0  0  0  0
 31 34  2  0  0  0  0
 32 66  1  0  0  0  0
 32 67  1  0  0  0  0
 32 68  1  0  0  0  0
 33 69  1  0  0  0  0
 33 70  1  0  0  0  0
 33 71  1  0  0  0  0
 34 35  1  0  0  0  0
 34 72  1  0  0  0  0
 35 73  1  0  0  0  0
 35 74  1  0  0  0  0
 35 75  1  0  0  0  0
M  END
> <PUBCHEM_COMPOUND_CID>
5282078

> <PUBCHEM_COMPOUND_CANONICALIZED>
1

> <PUBCHEM_CACTVS_COMPLEXITY>
810

> <PUBCHEM_CACTVS_HBOND_ACCEPTOR>
6

> <PUBCHEM_CACTVS_HBOND_DONOR>
1

> <PUBCHEM_CACTVS_ROTATABLE_BOND>
12

> <PUBCHEM_CACTVS_SUBSKEYS>
AAADcfB4OAAAAAAAAAAAAAAAAAAAAAAAAAAwQAAAAAAAAACBAAAAGgAACAAADRSgmAIyBoAABgCIAqBSAAACCAAkIAAIiAEGCMgMJzaGNRqCeWCl4BUIuQeI7OzOIAAACAAIAABAAAAQABAAAAAAAAAAAA==

> <PUBCHEM_IUPAC_OPENEYE_NAME>
2-[(3S,4S,5S,6S,7E,9E,11E)-4,6-dimethoxy-3,5,11-trimethyl-trideca-7,9,11-trienyl]-7-hydroxy-5-methoxy-3-methyl-chromen-4-one

> <PUBCHEM_IUPAC_CAS_NAME>
2-[(3S,4S,5S,6S,7E,9E,11E)-4,6-dimethoxy-3,5,11-trimethyltrideca-7,9,11-trienyl]-7-hydroxy-5-methoxy-3-methyl-1-benzopyran-4-one

> <PUBCHEM_IUPAC_NAME>
2-[(3S,4S,5S,6S,7E,9E,11E)-4,6-dimethoxy-3,5,11-trimethyltrideca-7,9,11-trienyl]-7-hydroxy-5-methoxy-3-methylchromen-4-one

> <PUBCHEM_IUPAC_SYSTEMATIC_NAME>
2-[(3S,4S,5S,6S,7E,9E,11E)-4,6-dimethoxy-3,5,11-trimethyl-trideca-7,9,11-trienyl]-5-methoxy-3-methyl-7-oxidanyl-chromen-4-one

> <PUBCHEM_IUPAC_TRADITIONAL_NAME>
2-[(3S,4S,5S,6S,7E,9E,11E)-4,6-dimethoxy-3,5,11-trimethyl-trideca-7,9,11-trienyl]-7-hydroxy-5-methoxy-3-methyl-chromone

> <PUBCHEM_IUPAC_INCHI>
InChI=1S/C29H40O6/c1-9-18(2)12-10-11-13-23(32-6)21(5)29(34-8)19(3)14-15-24-20(4)28(31)27-25(33-7)16-22(30)17-26(27)35-24/h9-13,16-17,19,21,23,29-30H,14-15H2,1-8H3/b12-10+,13-11+,18-9+/t19-,21+,23-,29-/m0/s1

> <PUBCHEM_IUPAC_INCHIKEY>
BXPDHYNAAYOQOQ-XBBODHJJSA-N

> <PUBCHEM_XLOGP3_AA>
6.3

> <PUBCHEM_EXACT_MASS>
484.282489

> <PUBCHEM_MOLECULAR_FORMULA>
C29H40O6

> <PUBCHEM_MOLECULAR_WEIGHT>
484.6243

> <PUBCHEM_OPENEYE_CAN_SMILES>
CC=C(C)C=CC=CC(C(C)C(C(C)CCC1=C(C(=O)C2=C(C=C(C=C2O1)O)OC)C)OC)OC

> <PUBCHEM_OPENEYE_ISO_SMILES>
C/C=C(\C)/C=C/C=C/[C@@H]([C@@H](C)[C@H]([C@@H](C)CCC1=C(C(=O)C2=C(C=C(C=C2O1)O)OC)C)OC)OC

> <PUBCHEM_CACTVS_TPSA>
74.2

> <PUBCHEM_MONOISOTOPIC_WEIGHT>
484.282489

> <PUBCHEM_TOTAL_CHARGE>
0

> <PUBCHEM_HEAVY_ATOM_COUNT>
35

> <PUBCHEM_ATOM_DEF_STEREO_COUNT>
4

> <PUBCHEM_ATOM_UDEF_STEREO_COUNT>
0

> <PUBCHEM_BOND_DEF_STEREO_COUNT>
3

> <PUBCHEM_BOND_UDEF_STEREO_COUNT>
0

> <PUBCHEM_ISOTOPIC_ATOM_COUNT>
0

> <PUBCHEM_COMPONENT_COUNT>
1

> <PUBCHEM_CACTVS_TAUTO_COUNT>
14

> <PUBCHEM_COORDINATE_TYPE>
1
5
255

> <PUBCHEM_BONDANNOTATIONS>
7  1  5
15  18  8
18  21  8
11  2  6
21  23  8
22  23  8
22  27  8
23  25  8
25  29  8
27  28  8
28  29  8
3  15  8
3  22  8
8  12  6
9  13  6

$$$$

