442681
  -OEChem-07051212592D

 49 54  0     0  0  0  0  0  0999 V2000
    2.4579   -1.4269    0.0000 O   0  0  0  0  0  0  0  0  0  0  0  0
    5.8370    0.7470    0.0000 O   0  0  0  0  0  0  0  0  0  0  0  0
    4.0449    1.7816    0.0000 O   0  0  0  0  0  0  0  0  0  0  0  0
    5.7930   -1.2599    0.0000 O   0  0  0  0  0  0  0  0  0  0  0  0
    7.6531    1.8066    0.0000 O   0  0  0  0  0  0  0  0  0  0  0  0
    5.4659   -2.9453    0.0000 O   0  0  0  0  0  0  0  0  0  0  0  0
    2.6169   -5.0282    0.0000 O   0  0  0  0  0  0  0  0  0  0  0  0
    4.0545    3.8842    0.0000 O   0  0  0  0  0  0  0  0  0  0  0  0
    7.6692    3.8982    0.0000 O   0  0  0  0  0  0  0  0  0  0  0  0
    9.4197    4.7863    0.0000 O   0  0  0  0  0  0  0  0  0  0  0  0
   11.1170    1.7665    0.0000 O   0  0  0  0  0  0  0  0  0  0  0  0
    4.0610   -1.2599    0.0000 C   0  0  0  0  0  0  0  0  0  0  0  0
    3.8518   -2.2317    0.0000 C   0  0  0  0  0  0  0  0  0  0  0  0
    3.1949   -0.7599    0.0000 C   0  0  0  0  0  0  0  0  0  0  0  0
    4.9270   -0.7599    0.0000 C   0  0  0  0  0  0  0  0  0  0  0  0
    4.9270    0.2401    0.0000 C   0  0  0  0  0  0  0  0  0  0  0  0
    4.0610    0.7401    0.0000 C   0  0  0  0  0  0  0  0  0  0  0  0
    2.8630   -2.3347    0.0000 C   0  0  0  0  0  0  0  0  0  0  0  0
    3.1949    0.2401    0.0000 C   0  0  0  0  0  0  0  0  0  0  0  0
    5.8450    1.7886    0.0000 C   0  0  0  0  0  0  0  0  0  0  0  0
    4.4725   -3.0604    0.0000 C   0  0  0  0  0  0  0  0  0  0  0  0
    4.9429    2.3094    0.0000 C   0  0  0  0  0  0  0  0  0  0  0  0
    2.4265   -3.2737    0.0000 C   0  0  0  0  0  0  0  0  0  0  0  0
    6.7929    2.3165    0.0000 C   0  0  0  0  0  0  0  0  0  0  0  0
    4.0578   -4.0092    0.0000 C   0  0  0  0  0  0  0  0  0  0  0  0
    3.0280   -4.1166    0.0000 C   0  0  0  0  0  0  0  0  0  0  0  0
    4.9262    3.3943    0.0000 C   0  0  0  0  0  0  0  0  0  0  0  0
    6.8013    3.4015    0.0000 C   0  0  0  0  0  0  0  0  0  0  0  0
    5.8616    3.9440    0.0000 C   0  0  0  0  0  0  0  0  0  0  0  0
    8.5248    2.2965    0.0000 C   0  0  0  0  0  0  0  0  0  0  0  0
    9.3850    1.7865    0.0000 C   0  0  0  0  0  0  0  0  0  0  0  0
    8.5364    3.2964    0.0000 C   0  0  0  0  0  0  0  0  0  0  0  0
    9.4081    3.7864    0.0000 C   0  0  0  0  0  0  0  0  0  0  0  0
   10.2568    2.2765    0.0000 C   0  0  0  0  0  0  0  0  0  0  0  0
   10.2683    3.2764    0.0000 C   0  0  0  0  0  0  0  0  0  0  0  0
    2.6580    0.5501    0.0000 H   0  0  0  0  0  0  0  0  0  0  0  0
    1.8092   -3.3308    0.0000 H   0  0  0  0  0  0  0  0  0  0  0  0
    4.4238   -4.5097    0.0000 H   0  0  0  0  0  0  0  0  0  0  0  0
    5.8592    4.5640    0.0000 H   0  0  0  0  0  0  0  0  0  0  0  0
    6.3299   -0.9499    0.0000 H   0  0  0  0  0  0  0  0  0  0  0  0
    5.8356   -3.4429    0.0000 H   0  0  0  0  0  0  0  0  0  0  0  0
    4.0473    4.5042    0.0000 H   0  0  0  0  0  0  0  0  0  0  0  0
    2.0000   -5.0901    0.0000 H   0  0  0  0  0  0  0  0  0  0  0  0
    7.6716    4.5182    0.0000 H   0  0  0  0  0  0  0  0  0  0  0  0
    9.3778    1.1666    0.0000 H   0  0  0  0  0  0  0  0  0  0  0  0
    8.0031    3.6126    0.0000 H   0  0  0  0  0  0  0  0  0  0  0  0
   10.8088    3.5802    0.0000 H   0  0  0  0  0  0  0  0  0  0  0  0
    9.9602    5.0901    0.0000 H   0  0  0  0  0  0  0  0  0  0  0  0
   11.6574    2.0703    0.0000 H   0  0  0  0  0  0  0  0  0  0  0  0
  1 14  1  0  0  0  0
  1 18  1  0  0  0  0
  2 16  1  0  0  0  0
  2 20  1  0  0  0  0
  3 17  1  0  0  0  0
  3 22  1  0  0  0  0
  4 15  1  0  0  0  0
  4 40  1  0  0  0  0
  5 24  1  0  0  0  0
  5 30  1  0  0  0  0
  6 21  1  0  0  0  0
  6 41  1  0  0  0  0
  7 26  1  0  0  0  0
  7 43  1  0  0  0  0
  8 27  1  0  0  0  0
  8 42  1  0  0  0  0
  9 28  1  0  0  0  0
  9 44  1  0  0  0  0
 10 33  1  0  0  0  0
 10 48  1  0  0  0  0
 11 34  1  0  0  0  0
 11 49  1  0  0  0  0
 12 13  1  0  0  0  0
 12 14  1  0  0  0  0
 12 15  2  0  0  0  0
 13 18  1  0  0  0  0
 13 21  2  0  0  0  0
 14 19  2  0  0  0  0
 15 16  1  0  0  0  0
 16 17  2  0  0  0  0
 17 19  1  0  0  0  0
 18 23  2  0  0  0  0
 19 36  1  0  0  0  0
 20 22  2  0  0  0  0
 20 24  1  0  0  0  0
 21 25  1  0  0  0  0
 22 27  1  0  0  0  0
 23 26  1  0  0  0  0
 23 37  1  0  0  0  0
 24 28  2  0  0  0  0
 25 26  2  0  0  0  0
 25 38  1  0  0  0  0
 27 29  2  0  0  0  0
 28 29  1  0  0  0  0
 29 39  1  0  0  0  0
 30 31  2  0  0  0  0
 30 32  1  0  0  0  0
 31 34  1  0  0  0  0
 31 45  1  0  0  0  0
 32 33  2  0  0  0  0
 32 46  1  0  0  0  0
 33 35  1  0  0  0  0
 34 35  2  0  0  0  0
 35 47  1  0  0  0  0
M  END
> <PUBCHEM_COMPOUND_CID>
442681

> <PUBCHEM_COMPOUND_CANONICALIZED>
1

> <PUBCHEM_CACTVS_COMPLEXITY>
760

> <PUBCHEM_CACTVS_HBOND_ACCEPTOR>
11

> <PUBCHEM_CACTVS_HBOND_DONOR>
7

> <PUBCHEM_CACTVS_ROTATABLE_BOND>
2

> <PUBCHEM_CACTVS_SUBSKEYS>
AAADccB4PAAAAAAAAAAAAAAAAAAAASAAAAA0YMGCAAAAAEiR/AAAGgAACAAADASAmAAwBsAABkCIAqBSAAACCAAkIAAAiAEGiMgNJzaGNRqCeWOl4BULuQfK7PzOoQABCAAIQABCAAIQABCAAAAAAAAAAA==

> <PUBCHEM_IUPAC_INCHI>
InChI=1S/C24H14O11/c25-8-1-9(26)3-11(2-8)32-21-13(29)6-14(30)22-24(21)35-23-17(34-22)7-16-19(20(23)31)18-12(28)4-10(27)5-15(18)33-16/h1-7,25-31H

> <PUBCHEM_IUPAC_INCHIKEY>
RGNBIKVVGUORSW-UHFFFAOYSA-N

> <PUBCHEM_XLOGP3_AA>
3.8

> <PUBCHEM_EXACT_MASS>
478.053611

> <PUBCHEM_MOLECULAR_FORMULA>
C24H14O11

> <PUBCHEM_MOLECULAR_WEIGHT>
478.36136

> <PUBCHEM_OPENEYE_CAN_SMILES>
C1=C(C=C(C=C1O)OC2=C(C=C(C3=C2OC4=C(O3)C=C5C(=C4O)C6=C(C=C(C=C6O5)O)O)O)O)O

> <PUBCHEM_OPENEYE_ISO_SMILES>
C1=C(C=C(C=C1O)OC2=C(C=C(C3=C2OC4=C(O3)C=C5C(=C4O)C6=C(C=C(C=C6O5)O)O)O)O)O

> <PUBCHEM_CACTVS_TPSA>
182

> <PUBCHEM_MONOISOTOPIC_WEIGHT>
478.053611

> <PUBCHEM_TOTAL_CHARGE>
0

> <PUBCHEM_HEAVY_ATOM_COUNT>
35

> <PUBCHEM_ATOM_DEF_STEREO_COUNT>
0

> <PUBCHEM_ATOM_UDEF_STEREO_COUNT>
0

> <PUBCHEM_BOND_DEF_STEREO_COUNT>
0

> <PUBCHEM_BOND_UDEF_STEREO_COUNT>
0

> <PUBCHEM_ISOTOPIC_ATOM_COUNT>
0

> <PUBCHEM_COMPONENT_COUNT>
1

> <PUBCHEM_CACTVS_TAUTO_COUNT>
405

> <PUBCHEM_COORDINATE_TYPE>
1
5
255

> <PUBCHEM_BONDANNOTATIONS>
1  14  8
1  18  8
12  13  8
12  14  8
12  15  8
13  18  8
13  21  8
14  19  8
15  16  8
16  17  8
17  19  8
18  23  8
20  22  8
20  24  8
21  25  8
22  27  8
23  26  8
24  28  8
25  26  8
27  29  8
28  29  8
30  31  8
30  32  8
31  34  8
32  33  8
33  35  8
34  35  8

$$$$

