3570
  -OEChem-06251223313D

 42 47  0     0  0  0  0  0  0999 V2000
   -1.9952   -3.6539   -0.1002 O   0  0  0  0  0  0  0  0  0  0  0  0
    2.6092   -3.3423   -0.1183 O   0  0  0  0  0  0  0  0  0  0  0  0
   -1.4468    1.8160    0.1445 N   0  0  0  0  0  0  0  0  0  0  0  0
    1.3305    2.0039    0.1347 N   0  0  0  0  0  0  0  0  0  0  0  0
    0.3333   -3.8872   -0.1267 N   0  0  0  0  0  0  0  0  0  0  0  0
   -0.6783    0.7048    0.0894 C   0  0  0  0  0  0  0  0  0  0  0  0
   -1.2313   -0.6184    0.0333 C   0  0  0  0  0  0  0  0  0  0  0  0
    0.7183    0.7994    0.0843 C   0  0  0  0  0  0  0  0  0  0  0  0
    1.4441   -0.4372    0.0230 C   0  0  0  0  0  0  0  0  0  0  0  0
   -0.5035   -1.8035   -0.0252 C   0  0  0  0  0  0  0  0  0  0  0  0
    0.8823   -1.7097   -0.0308 C   0  0  0  0  0  0  0  0  0  0  0  0
   -2.6324   -0.1749    0.0627 C   0  0  0  0  0  0  0  0  0  0  0  0
   -2.7159    1.2568    0.1276 C   0  0  0  0  0  0  0  0  0  0  0  0
    2.7729    0.1911    0.0420 C   0  0  0  0  0  0  0  0  0  0  0  0
    2.6631    1.6210    0.1078 C   0  0  0  0  0  0  0  0  0  0  0  0
   -1.1741    3.2293    0.2065 C   0  0  0  0  0  0  0  0  0  0  0  0
   -0.8649   -3.2089   -0.0871 C   0  0  0  0  0  0  0  0  0  0  0  0
    1.4293   -3.0537   -0.0965 C   0  0  0  0  0  0  0  0  0  0  0  0
   -3.8525   -0.8926    0.0385 C   0  0  0  0  0  0  0  0  0  0  0  0
   -3.9499    1.9237    0.1652 C   0  0  0  0  0  0  0  0  0  0  0  0
    4.0783   -0.3556    0.0079 C   0  0  0  0  0  0  0  0  0  0  0  0
    3.7964    2.4481    0.1371 C   0  0  0  0  0  0  0  0  0  0  0  0
   -1.0743    3.8566   -1.1734 C   0  0  0  0  0  0  0  0  0  0  0  0
   -5.0774   -0.2177    0.0766 C   0  0  0  0  0  0  0  0  0  0  0  0
   -5.1232    1.1687    0.1389 C   0  0  0  0  0  0  0  0  0  0  0  0
    5.2015    0.4781    0.0375 C   0  0  0  0  0  0  0  0  0  0  0  0
    5.0605    1.8582    0.1009 C   0  0  0  0  0  0  0  0  0  0  0  0
    1.0205    2.9521    0.0721 H   0  0  0  0  0  0  0  0  0  0  0  0
   -2.0382    3.6969    0.6957 H   0  0  0  0  0  0  0  0  0  0  0  0
   -0.3919    3.4719    0.9251 H   0  0  0  0  0  0  0  0  0  0  0  0
   -3.8570   -1.9768   -0.0102 H   0  0  0  0  0  0  0  0  0  0  0  0
   -4.0195    3.0059    0.2048 H   0  0  0  0  0  0  0  0  0  0  0  0
    0.4014   -4.8978   -0.1737 H   0  0  0  0  0  0  0  0  0  0  0  0
    4.2285   -1.4293   -0.0419 H   0  0  0  0  0  0  0  0  0  0  0  0
    3.6965    3.5283    0.1868 H   0  0  0  0  0  0  0  0  0  0  0  0
   -0.2545    3.4288   -1.7585 H   0  0  0  0  0  0  0  0  0  0  0  0
   -0.9033    4.9341   -1.0858 H   0  0  0  0  0  0  0  0  0  0  0  0
   -1.9974    3.7088   -1.7445 H   0  0  0  0  0  0  0  0  0  0  0  0
   -6.0028   -0.7873    0.0565 H   0  0  0  0  0  0  0  0  0  0  0  0
   -6.0850    1.6741    0.1655 H   0  0  0  0  0  0  0  0  0  0  0  0
    6.1949    0.0384    0.0103 H   0  0  0  0  0  0  0  0  0  0  0  0
    5.9455    2.4888    0.1229 H   0  0  0  0  0  0  0  0  0  0  0  0
  1 17  2  0  0  0  0
  2 18  2  0  0  0  0
  3  6  1  0  0  0  0
  3 13  1  0  0  0  0
  3 16  1  0  0  0  0
  4  8  1  0  0  0  0
  4 15  1  0  0  0  0
  4 28  1  0  0  0  0
  5 17  1  0  0  0  0
  5 18  1  0  0  0  0
  5 33  1  0  0  0  0
  6  7  1  0  0  0  0
  6  8  2  0  0  0  0
  7 10  2  0  0  0  0
  7 12  1  0  0  0  0
  8  9  1  0  0  0  0
  9 11  2  0  0  0  0
  9 14  1  0  0  0  0
 10 11  1  0  0  0  0
 10 17  1  0  0  0  0
 11 18  1  0  0  0  0
 12 13  1  0  0  0  0
 12 19  2  0  0  0  0
 13 20  2  0  0  0  0
 14 15  1  0  0  0  0
 14 21  2  0  0  0  0
 15 22  2  0  0  0  0
 16 23  1  0  0  0  0
 16 29  1  0  0  0  0
 16 30  1  0  0  0  0
 19 24  1  0  0  0  0
 19 31  1  0  0  0  0
 20 25  1  0  0  0  0
 20 32  1  0  0  0  0
 21 26  1  0  0  0  0
 21 34  1  0  0  0  0
 22 27  1  0  0  0  0
 22 35  1  0  0  0  0
 23 36  1  0  0  0  0
 23 37  1  0  0  0  0
 23 38  1  0  0  0  0
 24 25  2  0  0  0  0
 24 39  1  0  0  0  0
 25 40  1  0  0  0  0
 26 27  2  0  0  0  0
 26 41  1  0  0  0  0
 27 42  1  0  0  0  0
M  END
> <PUBCHEM_COMPOUND_CID>
3570

> <PUBCHEM_CONFORMER_RMSD>
0.6

> <PUBCHEM_CONFORMER_DIVERSEORDER>
1

> <PUBCHEM_MMFF94_PARTIAL_CHARGES>
34
1 -0.57
10 0.09
11 0.09
13 -0.15
15 -0.15
16 0.26
17 0.54
18 0.54
19 -0.15
2 -0.57
20 -0.15
21 -0.15
22 -0.15
24 -0.15
25 -0.15
26 -0.15
27 -0.15
28 0.27
3 -0.04
31 0.15
32 0.15
33 0.37
34 0.15
35 0.15
39 0.15
4 -0.05
40 0.15
41 0.15
42 0.15
5 -0.49
6 -0.05
7 -0.01
8 -0.05
9 -0.01

> <PUBCHEM_EFFECTIVE_ROTOR_COUNT>
1.2

> <PUBCHEM_PHARMACOPHORE_FEATURES>
12
1 1 acceptor
1 2 acceptor
1 3 cation
1 4 cation
1 4 donor
1 5 donor
5 3 6 7 12 13 rings
5 4 8 9 14 15 rings
5 5 10 11 17 18 rings
6 12 13 19 20 24 25 rings
6 14 15 21 22 26 27 rings
6 6 7 8 9 10 11 rings

> <PUBCHEM_HEAVY_ATOM_COUNT>
27

> <PUBCHEM_ATOM_DEF_STEREO_COUNT>
0

> <PUBCHEM_ATOM_UDEF_STEREO_COUNT>
0

> <PUBCHEM_BOND_DEF_STEREO_COUNT>
0

> <PUBCHEM_BOND_UDEF_STEREO_COUNT>
0

> <PUBCHEM_ISOTOPIC_ATOM_COUNT>
0

> <PUBCHEM_COMPONENT_COUNT>
1

> <PUBCHEM_CACTVS_TAUTO_COUNT>
12

> <PUBCHEM_CONFORMER_ID>
00000DF200000001

> <PUBCHEM_MMFF94_ENERGY>
112.5351

> <PUBCHEM_FEATURE_SELFOVERLAP>
61.36

> <PUBCHEM_SHAPE_FINGERPRINT>
10319926 262 17973183746888820440
10411042 1 17257090368469554078
10675989 125 17766572622479374085
10906281 52 18199730544894179401
10967382 1 18410011039661977595
1100329 8 18122060901705440713
12788726 201 17693665818564033050
12838862 33 18337973215348379417
13140716 1 18266184937466329842
138480 1 17761491791404212066
13911987 19 18342183224112647301
14223421 5 18196091268621966237
14787075 74 18113903715096250049
14790565 3 18410005516266132337
15042514 8 18339924788589852146
15196674 1 18410011026624263857
15927050 60 18408322172464362222
16728300 4 17556890184209801170
18681886 176 18340771451404206416
19591789 44 18337953389799874963
19930381 70 18339080522251769633
20028762 73 18187652383518645390
20739085 24 18124566890995912385
20775438 99 15445276565152223255
20905425 154 18191864749982054716
21033648 29 18261399884216370601
21267235 1 18410847742235786041
21421861 104 18055915643672137313
21796203 349 17256486113630765555
22113638 7 18269273461070528493
22182313 1 18265589049135149151
23227448 37 18335701581343585822
2334 1 17977666407484602178
23366157 5 17985540302430292562
23402539 116 18334582295681273165
23559900 14 18050012391459663585
266924 87 18267594683262079501
3178227 256 18196358240285318659
335352 9 18410011036042191926
350125 39 18267020746692033228
352729 6 18337948996159211306
484989 97 17836373649263726383
5104073 3 18411979208462410753
5265222 85 18194951964971454236
5486654 2 18409726235922459140
6138700 20 18265327482080630070
7364860 26 18193275414837138058
9709674 26 18268424814498351995

> <PUBCHEM_SHAPE_MULTIPOLES>
528.97
9.04
4.77
0.66
1.02
2.49
0.06
-4.36
-0.61
0.06
0.69
-0.06
-0.23
0.19

> <PUBCHEM_SHAPE_SELFOVERLAP>
1236.416

> <PUBCHEM_SHAPE_VOLUME>
269.7

> <PUBCHEM_COORDINATE_TYPE>
2
5
10

$$$$

