12867
  -OEChem-06261207283D

 36 36  0     0  0  0  0  0  0999 V2000
   -0.0001    1.8323   -0.0033 O   0  0  0  0  0  0  0  0  0  0  0  0
    0.0000   -3.4925   -0.0017 O   0  0  0  0  0  0  0  0  0  0  0  0
   -2.5493    0.6264   -0.0005 C   0  0  0  0  0  0  0  0  0  0  0  0
    2.5493    0.6265    0.0013 C   0  0  0  0  0  0  0  0  0  0  0  0
   -1.2764   -0.1634   -0.0001 C   0  0  0  0  0  0  0  0  0  0  0  0
    1.2765   -0.1635    0.0008 C   0  0  0  0  0  0  0  0  0  0  0  0
   -0.0001    0.6042   -0.0010 C   0  0  0  0  0  0  0  0  0  0  0  0
   -2.5999    1.5098   -1.2569 C   0  0  0  0  0  0  0  0  0  0  0  0
   -2.6115    1.5167    1.2520 C   0  0  0  0  0  0  0  0  0  0  0  0
   -3.7555   -0.3274    0.0016 C   0  0  0  0  0  0  0  0  0  0  0  0
    2.5983    1.5121    1.2564 C   0  0  0  0  0  0  0  0  0  0  0  0
    2.6129    1.5146   -1.2525 C   0  0  0  0  0  0  0  0  0  0  0  0
    3.7555   -0.3274    0.0025 C   0  0  0  0  0  0  0  0  0  0  0  0
   -1.2604   -1.5011    0.0004 C   0  0  0  0  0  0  0  0  0  0  0  0
    1.2605   -1.5011    0.0011 C   0  0  0  0  0  0  0  0  0  0  0  0
    0.0000   -2.2663    0.0000 C   0  0  0  0  0  0  0  0  0  0  0  0
   -1.8946    2.3451   -1.2447 H   0  0  0  0  0  0  0  0  0  0  0  0
   -3.5948    1.9592   -1.3661 H   0  0  0  0  0  0  0  0  0  0  0  0
   -2.4117    0.9246   -2.1652 H   0  0  0  0  0  0  0  0  0  0  0  0
   -3.6043    1.9741    1.3462 H   0  0  0  0  0  0  0  0  0  0  0  0
   -2.4382    0.9335    2.1645 H   0  0  0  0  0  0  0  0  0  0  0  0
   -1.8985    2.3455    1.2451 H   0  0  0  0  0  0  0  0  0  0  0  0
   -4.6901    0.2489    0.0005 H   0  0  0  0  0  0  0  0  0  0  0  0
   -3.7940   -0.9603   -0.8934 H   0  0  0  0  0  0  0  0  0  0  0  0
   -3.7936   -0.9575    0.8985 H   0  0  0  0  0  0  0  0  0  0  0  0
    1.8922    2.3466    1.2424 H   0  0  0  0  0  0  0  0  0  0  0  0
    3.5928    1.9626    1.3655 H   0  0  0  0  0  0  0  0  0  0  0  0
    2.4100    0.9282    2.1655 H   0  0  0  0  0  0  0  0  0  0  0  0
    3.6061    1.9710   -1.3468 H   0  0  0  0  0  0  0  0  0  0  0  0
    2.4398    0.9300   -2.1642 H   0  0  0  0  0  0  0  0  0  0  0  0
    1.9007    2.3440   -1.2475 H   0  0  0  0  0  0  0  0  0  0  0  0
    4.6901    0.2489    0.0043 H   0  0  0  0  0  0  0  0  0  0  0  0
    3.7926   -0.9591    0.8983 H   0  0  0  0  0  0  0  0  0  0  0  0
    3.7949   -0.9587   -0.8936 H   0  0  0  0  0  0  0  0  0  0  0  0
   -2.1424   -2.1288    0.0008 H   0  0  0  0  0  0  0  0  0  0  0  0
    2.1425   -2.1288    0.0019 H   0  0  0  0  0  0  0  0  0  0  0  0
  1  7  2  0  0  0  0
  2 16  2  0  0  0  0
  3  5  1  0  0  0  0
  3  8  1  0  0  0  0
  3  9  1  0  0  0  0
  3 10  1  0  0  0  0
  4  6  1  0  0  0  0
  4 11  1  0  0  0  0
  4 12  1  0  0  0  0
  4 13  1  0  0  0  0
  5  7  1  0  0  0  0
  5 14  2  0  0  0  0
  6  7  1  0  0  0  0
  6 15  2  0  0  0  0
  8 17  1  0  0  0  0
  8 18  1  0  0  0  0
  8 19  1  0  0  0  0
  9 20  1  0  0  0  0
  9 21  1  0  0  0  0
  9 22  1  0  0  0  0
 10 23  1  0  0  0  0
 10 24  1  0  0  0  0
 10 25  1  0  0  0  0
 11 26  1  0  0  0  0
 11 27  1  0  0  0  0
 11 28  1  0  0  0  0
 12 29  1  0  0  0  0
 12 30  1  0  0  0  0
 12 31  1  0  0  0  0
 13 32  1  0  0  0  0
 13 33  1  0  0  0  0
 13 34  1  0  0  0  0
 14 16  1  0  0  0  0
 14 35  1  0  0  0  0
 15 16  1  0  0  0  0
 15 36  1  0  0  0  0
M  END
> <PUBCHEM_COMPOUND_CID>
12867

> <PUBCHEM_CONFORMER_RMSD>
0.6

> <PUBCHEM_CONFORMER_DIVERSEORDER>
1

> <PUBCHEM_MMFF94_PARTIAL_CHARGES>
12
1 -0.57
14 -0.14
15 -0.14
16 0.54
2 -0.57
3 0.14
35 0.15
36 0.15
4 0.14
5 -0.12
6 -0.12
7 0.54

> <PUBCHEM_EFFECTIVE_ROTOR_COUNT>
2

> <PUBCHEM_PHARMACOPHORE_FEATURES>
5
1 1 acceptor
1 2 acceptor
4 3 8 9 10 hydrophobe
4 4 11 12 13 hydrophobe
6 5 6 7 14 15 16 rings

> <PUBCHEM_HEAVY_ATOM_COUNT>
16

> <PUBCHEM_ATOM_DEF_STEREO_COUNT>
0

> <PUBCHEM_ATOM_UDEF_STEREO_COUNT>
0

> <PUBCHEM_BOND_DEF_STEREO_COUNT>
0

> <PUBCHEM_BOND_UDEF_STEREO_COUNT>
0

> <PUBCHEM_ISOTOPIC_ATOM_COUNT>
0

> <PUBCHEM_COMPONENT_COUNT>
1

> <PUBCHEM_CACTVS_TAUTO_COUNT>
1

> <PUBCHEM_CONFORMER_ID>
0000324300000001

> <PUBCHEM_MMFF94_ENERGY>
51.6861

> <PUBCHEM_FEATURE_SELFOVERLAP>
25.371

> <PUBCHEM_SHAPE_FINGERPRINT>
1 1 18338520853627066774
10967382 1 18410855490293451974
11132069 177 18339928117104922051
12491281 212 18335972129807489944
12500047 106 18337962182072826416
12553582 1 17186997597499695706
13140716 1 18410575131908102907
13172582 1 18342740684738738648
13380535 76 18410855464428904043
13538477 17 18057326076651519454
14614273 12 18343588468886918029
15219456 202 18056761151129323037
15279308 132 18335423452441700346
15309172 13 18412254034945667505
15775835 57 18410852161593408384
15852999 172 18130799992016323459
16945 1 18410575093253227880
18186145 218 18334573568371056948
18219364 16 18340761645655726801
19591789 44 18410851062082371750
200 152 18187376428276140021
20510252 161 18117839902087974675
20511035 2 18189619350329140366
20645476 183 18058437730109779982
21028194 46 18412827988293954249
21041028 32 17325194620866550074
21524375 3 18410855460128674987
2334 1 18410856529575343334
23402539 116 18188219722917606221
23419403 2 16101703165770319881
23463225 33 18343022220082225418
23493267 7 17560798895958537680
23557571 272 17756701941139057876
25 1 18337388369513948374
257057 1 17110453995751156558
2748010 2 18411412912539638863
3071541 236 18196949772259715882
352729 6 18338513028154773542
43471831 8 18339926020950352851
458136 41 18266997605186813363
528886 8 18410578396135631330
53812653 166 18334859402628498120
633830 44 18040432213334586253
69090 78 18335990765691763879
7364860 26 18046628077236707991
74978 22 18266173942392503156
81228 2 17906739102630920923

> <PUBCHEM_SHAPE_MULTIPOLES>
317.53
5.45
2.64
1.01
0
2.1
0
-2.11
0
0
0
0
-0.61
0

> <PUBCHEM_SHAPE_SELFOVERLAP>
659.187

> <PUBCHEM_SHAPE_VOLUME>
183

> <PUBCHEM_COORDINATE_TYPE>
2
5
10

$$$$

