17395787
  -OEChem-06241222523D

 42 45  0     1  0  0  0  0  0999 V2000
    5.5111    0.0766    0.2708 S   0  0  0  0  0  0  0  0  0  0  0  0
   -2.6224    1.2265   -1.5831 O   0  0  0  0  0  0  0  0  0  0  0  0
    0.5535   -0.6888    0.2867 N   0  0  0  0  0  0  0  0  0  0  0  0
   -1.6675   -2.7488   -0.7188 N   0  0  0  0  0  0  0  0  0  0  0  0
   -2.3910   -1.8786    1.1921 N   0  0  0  0  0  0  0  0  0  0  0  0
    1.4574    0.9577   -1.1740 N   0  0  0  0  0  0  0  0  0  0  0  0
    3.8316    1.4351   -1.2888 N   0  0  0  0  0  0  0  0  0  0  0  0
   -0.7914   -0.4496   -0.1414 C   0  0  1  0  0  0  0  0  0  0  0  0
   -1.6295   -1.6843    0.1383 C   0  0  0  0  0  0  0  0  0  0  0  0
   -1.4050    0.8120    0.4396 C   0  0  0  0  0  0  0  0  0  0  0  0
   -2.2890    1.5861   -0.3119 C   0  0  0  0  0  0  0  0  0  0  0  0
    1.6589    0.0128   -0.2308 C   0  0  0  0  0  0  0  0  0  0  0  0
   -1.0754    1.1943    1.7400 C   0  0  0  0  0  0  0  0  0  0  0  0
    2.9523   -0.2626    0.2247 C   0  0  0  0  0  0  0  0  0  0  0  0
   -2.5066   -3.6813   -0.1769 C   0  0  0  0  0  0  0  0  0  0  0  0
   -0.9582   -2.8809   -1.9693 C   0  0  0  0  0  0  0  0  0  0  0  0
   -2.9402   -3.1219    1.0021 C   0  0  0  0  0  0  0  0  0  0  0  0
   -2.8431    2.7426    0.2367 C   0  0  0  0  0  0  0  0  0  0  0  0
   -1.6295    2.3507    2.2888 C   0  0  0  0  0  0  0  0  0  0  0  0
   -2.5134    3.1249    1.5371 C   0  0  0  0  0  0  0  0  0  0  0  0
    3.9755    0.4828   -0.3467 C   0  0  0  0  0  0  0  0  0  0  0  0
    3.4702   -1.1823    1.1902 C   0  0  0  0  0  0  0  0  0  0  0  0
    4.8402   -1.1020    1.3134 C   0  0  0  0  0  0  0  0  0  0  0  0
    2.5442    1.6035   -1.6399 C   0  0  0  0  0  0  0  0  0  0  0  0
   -3.5328    2.0755   -2.2789 C   0  0  0  0  0  0  0  0  0  0  0  0
   -0.7728   -0.3258   -1.2320 H   0  0  0  0  0  0  0  0  0  0  0  0
    0.7282   -1.3533    1.0325 H   0  0  0  0  0  0  0  0  0  0  0  0
   -0.4000    0.6031    2.3524 H   0  0  0  0  0  0  0  0  0  0  0  0
   -2.7175   -4.6276   -0.6553 H   0  0  0  0  0  0  0  0  0  0  0  0
   -1.1226   -3.8826   -2.3751 H   0  0  0  0  0  0  0  0  0  0  0  0
   -1.3438   -2.1343   -2.6679 H   0  0  0  0  0  0  0  0  0  0  0  0
    0.1090   -2.7334   -1.7878 H   0  0  0  0  0  0  0  0  0  0  0  0
   -3.6204   -3.5508    1.7234 H   0  0  0  0  0  0  0  0  0  0  0  0
   -3.5360    3.3928   -0.2860 H   0  0  0  0  0  0  0  0  0  0  0  0
   -1.3754    2.6468    3.3023 H   0  0  0  0  0  0  0  0  0  0  0  0
   -2.9449    4.0247    1.9658 H   0  0  0  0  0  0  0  0  0  0  0  0
    2.8719   -1.8731    1.7707 H   0  0  0  0  0  0  0  0  0  0  0  0
    5.4781   -1.6805    1.9667 H   0  0  0  0  0  0  0  0  0  0  0  0
    2.3554    2.3574   -2.3962 H   0  0  0  0  0  0  0  0  0  0  0  0
   -3.6845    1.6392   -3.2717 H   0  0  0  0  0  0  0  0  0  0  0  0
   -3.1147    3.0762   -2.4329 H   0  0  0  0  0  0  0  0  0  0  0  0
   -4.5133    2.1025   -1.7913 H   0  0  0  0  0  0  0  0  0  0  0  0
  1 21  1  0  0  0  0
  1 23  1  0  0  0  0
  2 11  1  0  0  0  0
  2 25  1  0  0  0  0
  3  8  1  0  0  0  0
  3 12  1  0  0  0  0
  3 27  1  0  0  0  0
  4  9  1  0  0  0  0
  4 15  1  0  0  0  0
  4 16  1  0  0  0  0
  5  9  2  0  0  0  0
  5 17  1  0  0  0  0
  6 12  1  0  0  0  0
  6 24  2  0  0  0  0
  7 21  2  0  0  0  0
  7 24  1  0  0  0  0
  8  9  1  0  0  0  0
  8 10  1  0  0  0  0
  8 26  1  0  0  0  0
 10 11  1  0  0  0  0
 10 13  2  0  0  0  0
 11 18  2  0  0  0  0
 12 14  2  0  0  0  0
 13 19  1  0  0  0  0
 13 28  1  0  0  0  0
 14 21  1  0  0  0  0
 14 22  1  0  0  0  0
 15 17  2  0  0  0  0
 15 29  1  0  0  0  0
 16 30  1  0  0  0  0
 16 31  1  0  0  0  0
 16 32  1  0  0  0  0
 17 33  1  0  0  0  0
 18 20  1  0  0  0  0
 18 34  1  0  0  0  0
 19 20  2  0  0  0  0
 19 35  1  0  0  0  0
 20 36  1  0  0  0  0
 22 23  2  0  0  0  0
 22 37  1  0  0  0  0
 23 38  1  0  0  0  0
 24 39  1  0  0  0  0
 25 40  1  0  0  0  0
 25 41  1  0  0  0  0
 25 42  1  0  0  0  0
M  END
> <PUBCHEM_COMPOUND_CID>
17395787

> <PUBCHEM_CONFORMER_RMSD>
0.8

> <PUBCHEM_CONFORMER_DIVERSEORDER>
1
104
139
28
62
131
83
66
31
57
119
140
64
143
159
144
86
120
132
151
105
59
162
156
115
126
149
35
148
72
145
117
4
93
89
79
133
135
127
107
15
116
41
109
19
136
142
56
106
160
67
84
121
124
125
102
146
68
11
76
114
96
155
87
52
122
94
123
20
153
81
23
108
152
103
32
141
65
111
90
98
112
22
100
13
63
97
85
138
9
70
134
39
36
26
113
95
2
99
154
38
92
130
3
157
77
47
8
118
30
49
34
74
42
69
110
29
61
54
91
46
6
43
53
18
82
58
40
137
161
88
147
5
78
25
27
51
60
128
14
16
33
37
21
12
75
44
150
55
73
158
48
17
7
129
10
50
24
71
80
45
101

> <PUBCHEM_MMFF94_PARTIAL_CHARGES>
34
1 -0.08
10 -0.14
11 0.08
12 0.41
13 -0.15
15 -0.3
16 0.26
17 0.08
18 -0.15
19 -0.15
2 -0.36
20 -0.15
21 0.3
22 -0.15
23 -0.11
24 0.47
25 0.28
27 0.4
28 0.15
29 0.15
3 -0.87
33 0.15
34 0.15
35 0.15
36 0.15
37 0.15
38 0.15
39 0.15
4 0.05
5 -0.57
6 -0.62
7 -0.57
8 0.69
9 0.01

> <PUBCHEM_EFFECTIVE_ROTOR_COUNT>
5

> <PUBCHEM_PHARMACOPHORE_FEATURES>
10
1 2 acceptor
1 3 cation
1 3 donor
1 7 acceptor
3 4 5 9 cation
3 6 7 24 cation
5 1 14 21 22 23 rings
5 4 5 9 15 17 rings
6 10 11 13 18 19 20 rings
6 6 7 12 14 21 24 rings

> <PUBCHEM_HEAVY_ATOM_COUNT>
25

> <PUBCHEM_ATOM_DEF_STEREO_COUNT>
0

> <PUBCHEM_ATOM_UDEF_STEREO_COUNT>
1

> <PUBCHEM_BOND_DEF_STEREO_COUNT>
0

> <PUBCHEM_BOND_UDEF_STEREO_COUNT>
0

> <PUBCHEM_ISOTOPIC_ATOM_COUNT>
0

> <PUBCHEM_COMPONENT_COUNT>
1

> <PUBCHEM_CACTVS_TAUTO_COUNT>
4

> <PUBCHEM_CONFORMER_ID>
0109704B00000001

> <PUBCHEM_MMFF94_ENERGY>
66.3286

> <PUBCHEM_FEATURE_SELFOVERLAP>
50.827

> <PUBCHEM_SHAPE_FINGERPRINT>
10764073 3 15075868532561771339
11578080 2 18193292796612515849
11582403 64 16269980002256419541
121448 382 18115598182910932873
12160290 23 18187915188551633447
12173636 292 18117261748151168657
12422481 6 18054194826787098867
12553582 1 17972310712105382014
12643181 29 18119519093701907694
12714826 92 18261955128787140722
12788726 201 18266445525801204874
13004483 165 18192426381728922539
13149001 5 18044404676295468573
133893 2 17472993173470383641
13583140 156 17346306146168892216
14178342 30 18410571821163661090
14955137 171 15441539948109535659
15842332 3 18129925803147557140
16752209 62 18336840709765985310
17349148 13 18261398905047787132
17492 89 18343300328206308434
1813 80 17682947808917434599
18603816 31 17462030927005648150
19765921 60 17753612648404118985
20600515 1 17171778281843219427
21033648 29 18050301546244919992
21033650 10 17314498430561657920
22907989 373 18335413530772107509
23419403 2 17753340772790051905
23557571 272 18114178618894031370
23559900 14 18115019827563714614
23598288 3 18409446955805827630
25147074 1 18130494250738199668
312423 11 18058714815941163214
352729 6 18335699476841337079
4340502 62 18049143756506370481
4409770 3 18336273370714618855
469060 322 17628341676204580485
474 4 17831016093566391937
6992083 37 18201152252072686108
7164475 11 18270964535955635302
7615 1 18202278062033031372
90316 7 18043522824592992979
9981440 41 17604724398557797758

> <PUBCHEM_SHAPE_MULTIPOLES>
487.56
8.48
4.14
1.98
12.67
2.56
0.29
-1.24
-0.32
-6.31
-0.26
-1.04
-0.91
-0.94

> <PUBCHEM_SHAPE_SELFOVERLAP>
1061.326

> <PUBCHEM_SHAPE_VOLUME>
268.7

> <PUBCHEM_COORDINATE_TYPE>
2
5
10

$$$$

