156228
  -OEChem-07051213073D

 32 33  0     1  0  0  0  0  0999 V2000
   -4.1482   -2.8763    0.0080 Cl  0  0  0  0  0  0  0  0  0  0  0  0
   -5.1489    2.4197   -0.2775 Cl  0  0  0  0  0  0  0  0  0  0  0  0
    5.2553    0.6473   -0.9216 O   0  0  0  0  0  0  0  0  0  0  0  0
    0.5814   -1.5472    0.3562 O   0  0  0  0  0  0  0  0  0  0  0  0
    4.8785   -0.4834    1.0215 O   0  0  0  0  0  0  0  0  0  0  0  0
   -0.3919    0.5942    0.1975 N   0  0  0  0  0  0  0  0  0  0  0  0
    1.9973    0.3676    0.4094 C   0  0  2  0  0  0  0  0  0  0  0  0
    3.0752   -0.0816   -0.5131 C   0  0  2  0  0  0  0  0  0  0  0  0
    2.3713    1.2221   -0.7510 C   0  0  0  0  0  0  0  0  0  0  0  0
    2.3527    0.8564    1.7679 C   0  0  0  0  0  0  0  0  0  0  0  0
    2.7832   -1.1794   -1.4901 C   0  0  0  0  0  0  0  0  0  0  0  0
    0.6597   -0.3235    0.3209 C   0  0  0  0  0  0  0  0  0  0  0  0
    4.4749   -0.0136   -0.0319 C   0  0  0  0  0  0  0  0  0  0  0  0
   -1.7579    0.3300    0.0909 C   0  0  0  0  0  0  0  0  0  0  0  0
   -2.6643    1.3834   -0.0263 C   0  0  0  0  0  0  0  0  0  0  0  0
   -2.2167   -0.9872    0.1010 C   0  0  0  0  0  0  0  0  0  0  0  0
   -3.5824   -1.2510   -0.0057 C   0  0  0  0  0  0  0  0  0  0  0  0
   -4.0300    1.1199   -0.1332 C   0  0  0  0  0  0  0  0  0  0  0  0
   -4.4891   -0.1974   -0.1229 C   0  0  0  0  0  0  0  0  0  0  0  0
    1.6983    1.2982   -1.5986 H   0  0  0  0  0  0  0  0  0  0  0  0
    2.9043    2.1484   -0.5635 H   0  0  0  0  0  0  0  0  0  0  0  0
    1.5275    1.4365    2.1967 H   0  0  0  0  0  0  0  0  0  0  0  0
    2.5463    0.0147    2.4415 H   0  0  0  0  0  0  0  0  0  0  0  0
    3.2297    1.5128    1.7796 H   0  0  0  0  0  0  0  0  0  0  0  0
    2.8438   -2.1562   -0.9985 H   0  0  0  0  0  0  0  0  0  0  0  0
    1.8014   -1.0917   -1.9678 H   0  0  0  0  0  0  0  0  0  0  0  0
    3.5240   -1.1715   -2.2979 H   0  0  0  0  0  0  0  0  0  0  0  0
   -0.1416    1.5808    0.1883 H   0  0  0  0  0  0  0  0  0  0  0  0
    6.1870    0.7044   -0.6200 H   0  0  0  0  0  0  0  0  0  0  0  0
   -2.3062    2.4107   -0.0344 H   0  0  0  0  0  0  0  0  0  0  0  0
   -1.5632   -1.8443    0.1894 H   0  0  0  0  0  0  0  0  0  0  0  0
   -5.5541   -0.4030   -0.2060 H   0  0  0  0  0  0  0  0  0  0  0  0
  1 17  1  0  0  0  0
  2 18  1  0  0  0  0
  3 13  1  0  0  0  0
  3 29  1  0  0  0  0
  4 12  2  0  0  0  0
  5 13  2  0  0  0  0
  6 12  1  0  0  0  0
  6 14  1  0  0  0  0
  6 28  1  0  0  0  0
  7  8  1  0  0  0  0
  7  9  1  0  0  0  0
  7 10  1  0  0  0  0
  7 12  1  0  0  0  0
  8  9  1  0  0  0  0
  8 11  1  0  0  0  0
  8 13  1  0  0  0  0
  9 20  1  0  0  0  0
  9 21  1  0  0  0  0
 10 22  1  0  0  0  0
 10 23  1  0  0  0  0
 10 24  1  0  0  0  0
 11 25  1  0  0  0  0
 11 26  1  0  0  0  0
 11 27  1  0  0  0  0
 14 15  2  0  0  0  0
 14 16  1  0  0  0  0
 15 18  1  0  0  0  0
 15 30  1  0  0  0  0
 16 17  2  0  0  0  0
 16 31  1  0  0  0  0
 17 19  1  0  0  0  0
 18 19  2  0  0  0  0
 19 32  1  0  0  0  0
M  END
> <PUBCHEM_COMPOUND_CID>
156228

> <PUBCHEM_CONFORMER_RMSD>
0.6

> <PUBCHEM_CONFORMER_DIVERSEORDER>
6
17
3
18
13
20
4
25
2
5
21
24
29
11
26
14
28
22
7
12
15
16
10
1
9
19
8
23
27

> <PUBCHEM_MMFF94_PARTIAL_CHARGES>
26
1 -0.18
10 0.09
11 0.09
12 0.63
13 0.72
14 0.12
15 -0.15
16 -0.15
17 0.18
18 0.18
19 -0.15
2 -0.18
20 0.1
21 0.1
28 0.37
29 0.5
3 -0.65
30 0.15
31 0.15
32 0.15
4 -0.57
5 -0.57
6 -0.55
7 -0.09
8 -0.09
9 -0.2

> <PUBCHEM_EFFECTIVE_ROTOR_COUNT>
4.6

> <PUBCHEM_PHARMACOPHORE_FEATURES>
6
1 3 acceptor
1 4 acceptor
1 5 acceptor
1 6 donor
3 3 5 13 anion
6 14 15 16 17 18 19 rings

> <PUBCHEM_HEAVY_ATOM_COUNT>
19

> <PUBCHEM_ATOM_DEF_STEREO_COUNT>
0

> <PUBCHEM_ATOM_UDEF_STEREO_COUNT>
2

> <PUBCHEM_BOND_DEF_STEREO_COUNT>
0

> <PUBCHEM_BOND_UDEF_STEREO_COUNT>
0

> <PUBCHEM_ISOTOPIC_ATOM_COUNT>
0

> <PUBCHEM_COMPONENT_COUNT>
1

> <PUBCHEM_CACTVS_TAUTO_COUNT>
2

> <PUBCHEM_CONFORMER_ID>
0002624400000006

> <PUBCHEM_MMFF94_ENERGY>
51.2117

> <PUBCHEM_FEATURE_SELFOVERLAP>
30.502

> <PUBCHEM_SHAPE_FINGERPRINT>
10498660 4 18341614845299321333
10595046 47 18200591389415199108
10616163 171 18411136914163487527
10680689 15 18412539886784053827
10912923 1 17846501413542314216
11405975 8 18334858311944422369
11796584 16 18336828692874810994
12236239 1 17561365088881032713
12403259 415 18114184090381868368
12500047 106 18409171038996371549
12616971 3 17275381014647296525
13167823 11 18273498961581144738
13583140 156 17748831799978849863
13675066 3 18041000613611626838
13760787 19 18272936046187623059
13760787 5 16630526237108031628
14252887 29 15792001286587033100
14386348 63 17967530177270494533
14508225 48 18267034856429858005
15196674 1 18340768156646916252
15242439 84 18040719190417409241
15375358 24 17967816071594499030
15788980 27 18059855077632977314
16988056 13 15247384976379083725
17844677 252 18338511945923014593
18186145 218 17894347757088679787
200 152 15719395053247443897
20279233 1 17748826319268238061
20645477 56 18410292545368298969
20645477 70 16878503556711831790
20681677 155 18341893021914871257
20871999 31 18412263913549620919
21065201 7 18410018727621717851
21267235 1 18341604885612741307
21426921 1 18411699860148430535
21709351 56 18342179946746144949
23402539 116 18341617010020406092
23402655 69 18341893017092376661
23557571 272 18334855009404585325
23559900 14 18262235633364856750
3545911 37 18335982047393397681
4214541 1 18411136939785111077
4990 188 18334290976681548998
5104073 3 18408886200453782952
542803 24 17561362898131376061
559249 180 18342463685281669331
573450 72 18272661150826522867
633830 44 17060048259511968370
7495541 125 18115026299483265952
77779 3 18411135822734781613
9709674 26 18333726931717566063

> <PUBCHEM_SHAPE_MULTIPOLES>
372.16
11.72
2.13
1.05
1.16
0.65
-0.11
-1.35
1.14
-3.93
0.14
1.24
-0.06
0.49

> <PUBCHEM_SHAPE_SELFOVERLAP>
774.191

> <PUBCHEM_SHAPE_VOLUME>
215.1

> <PUBCHEM_COORDINATE_TYPE>
2
5
10

$$$$

