439897
  -OEChem-07051212483D

 20 19  0     1  0  0  0  0  0999 V2000
   -0.2928   -0.6530   -1.5721 O   0  0  0  0  0  0  0  0  0  0  0  0
    2.4848    0.5727   -1.3961 O   0  0  0  0  0  0  0  0  0  0  0  0
   -2.9608    1.4456    0.2827 O   0  0  0  0  0  0  0  0  0  0  0  0
    2.2117    1.3873    0.7009 O   0  0  0  0  0  0  0  0  0  0  0  0
   -3.0251   -0.7654   -0.2281 O   0  0  0  0  0  0  0  0  0  0  0  0
    1.5893   -1.2035    1.5735 N   0  0  0  0  0  0  0  0  0  0  0  0
   -0.1237   -0.8439   -0.1647 C   0  0  1  0  0  0  0  0  0  0  0  0
    1.3825   -0.8503    0.1687 C   0  0  1  0  0  0  0  0  0  0  0  0
   -0.9435    0.2249    0.5731 C   0  0  0  0  0  0  0  0  0  0  0  0
    2.0806    0.4740   -0.1022 C   0  0  0  0  0  0  0  0  0  0  0  0
   -2.4030    0.2115    0.1645 C   0  0  0  0  0  0  0  0  0  0  0  0
   -0.5454   -1.8312    0.0642 H   0  0  0  0  0  0  0  0  0  0  0  0
    1.8861   -1.6117   -0.4398 H   0  0  0  0  0  0  0  0  0  0  0  0
   -0.5508    1.2170    0.3208 H   0  0  0  0  0  0  0  0  0  0  0  0
   -0.8998    0.0917    1.6580 H   0  0  0  0  0  0  0  0  0  0  0  0
    1.2176   -0.4737    2.1797 H   0  0  0  0  0  0  0  0  0  0  0  0
    2.5878   -1.2579    1.7712 H   0  0  0  0  0  0  0  0  0  0  0  0
    0.1925   -1.3638   -2.0248 H   0  0  0  0  0  0  0  0  0  0  0  0
    2.9018    1.4407   -1.5833 H   0  0  0  0  0  0  0  0  0  0  0  0
   -3.9054    1.4462    0.0183 H   0  0  0  0  0  0  0  0  0  0  0  0
  1  7  1  0  0  0  0
  1 18  1  0  0  0  0
  2 10  1  0  0  0  0
  2 19  1  0  0  0  0
  3 11  1  0  0  0  0
  3 20  1  0  0  0  0
  4 10  2  0  0  0  0
  5 11  2  0  0  0  0
  6  8  1  0  0  0  0
  6 16  1  0  0  0  0
  6 17  1  0  0  0  0
  7  8  1  0  0  0  0
  7  9  1  0  0  0  0
  7 12  1  0  0  0  0
  8 10  1  0  0  0  0
  8 13  1  0  0  0  0
  9 11  1  0  0  0  0
  9 14  1  0  0  0  0
  9 15  1  0  0  0  0
M  END
> <PUBCHEM_COMPOUND_CID>
439897

> <PUBCHEM_CONFORMER_RMSD>
0.6

> <PUBCHEM_CONFORMER_DIVERSEORDER>
2
31
29
7
38
37
28
6
36
24
30
26
32
3
33
16
14
34
21
18
12
1
9
13
20
8
15
35
11
22
4
25
23
17
19
10
5
27

> <PUBCHEM_MMFF94_PARTIAL_CHARGES>
16
1 -0.68
10 0.66
11 0.66
16 0.36
17 0.36
18 0.4
19 0.5
2 -0.65
20 0.5
3 -0.65
4 -0.57
5 -0.57
6 -0.99
7 0.28
8 0.33
9 0.06

> <PUBCHEM_EFFECTIVE_ROTOR_COUNT>
4

> <PUBCHEM_PHARMACOPHORE_FEATURES>
10
1 1 acceptor
1 1 donor
1 2 acceptor
1 3 acceptor
1 4 acceptor
1 5 acceptor
1 6 cation
1 6 donor
3 2 4 10 anion
3 3 5 11 anion

> <PUBCHEM_HEAVY_ATOM_COUNT>
11

> <PUBCHEM_ATOM_DEF_STEREO_COUNT>
1

> <PUBCHEM_ATOM_UDEF_STEREO_COUNT>
1

> <PUBCHEM_BOND_DEF_STEREO_COUNT>
0

> <PUBCHEM_BOND_UDEF_STEREO_COUNT>
0

> <PUBCHEM_ISOTOPIC_ATOM_COUNT>
0

> <PUBCHEM_COMPONENT_COUNT>
1

> <PUBCHEM_CACTVS_TAUTO_COUNT>
1

> <PUBCHEM_CONFORMER_ID>
0006B65900000002

> <PUBCHEM_MMFF94_ENERGY>
11.1006

> <PUBCHEM_FEATURE_SELFOVERLAP>
50.863

> <PUBCHEM_SHAPE_FINGERPRINT>
10857977 72 14117509944090354791
12897270 3 17676198104639546765
12932764 1 18341609343498468833
14390081 3 18408603651983225801
15775835 57 18410288125018795833
170605 34 18262802852573799000
20653085 51 18115571657034533632
21061003 4 17342123698668784250
29004967 10 15123503726904513183
3248919 1 17489590047793212489
5084963 1 17240758505916866579

> <PUBCHEM_SHAPE_MULTIPOLES>
192.05
4.38
1.28
1.19
2.23
0.13
0.19
1.25
-0.06
-0.16
-0.25
-0.6
-0.17
-0.47

> <PUBCHEM_SHAPE_SELFOVERLAP>
369.634

> <PUBCHEM_SHAPE_VOLUME>
116.2

> <PUBCHEM_COORDINATE_TYPE>
2
5
10

$$$$

