447545
  -OEChem-07051213022D

 81 87  0     1  0  0  0  0  0999 V2000
   12.7041    2.0309    0.0000 O   0  0  0  0  0  0  0  0  0  0  0  0
    9.8411   -2.3434    0.0000 O   0  0  0  0  0  0  0  0  0  0  0  0
    8.4781   -1.2746    0.0000 O   0  0  0  0  0  0  0  0  0  0  0  0
   11.6104    3.8102    0.0000 O   0  0  0  0  0  0  0  0  0  0  0  0
    7.9900   -4.7042    0.0000 O   0  0  0  0  0  0  0  0  0  0  0  0
    9.9701   -4.9860    0.0000 O   0  0  0  0  0  0  0  0  0  0  0  0
   10.0012    3.9793    0.0000 O   0  0  0  0  0  0  0  0  0  0  0  0
    6.9197    0.2329    0.0000 O   0  0  0  0  0  0  0  0  0  0  0  0
   10.9718    5.4739    0.0000 O   0  0  0  0  0  0  0  0  0  0  0  0
    6.6189    1.9386    0.0000 O   0  0  0  0  0  0  0  0  0  0  0  0
    5.5929   -0.8804    0.0000 O   0  0  0  0  0  0  0  0  0  0  0  0
    4.7029    4.3060    0.0000 O   0  0  0  0  0  0  0  0  0  0  0  0
    7.2441   -2.8486    0.0000 N   0  0  0  0  0  0  0  0  0  0  0  0
   11.7037    2.0306    0.0000 C   0  0  1  0  0  0  0  0  0  0  0  0
   12.2037    1.1646    0.0000 C   0  0  1  0  0  0  0  0  0  0  0  0
    8.2341   -2.9894    0.0000 C   0  0  2  0  0  0  0  0  0  0  0  0
    8.6071   -3.9172    0.0000 C   0  0  2  0  0  0  0  0  0  0  0  0
   11.2037    2.8967    0.0000 C   0  0  1  0  0  0  0  0  0  0  0  0
    8.8511   -2.2025    0.0000 C   0  0  2  0  0  0  0  0  0  0  0  0
    9.5971   -4.0581    0.0000 C   0  0  2  0  0  0  0  0  0  0  0  0
   10.2141   -3.2712    0.0000 C   0  0  1  0  0  0  0  0  0  0  0  0
    8.6190   -0.2846    0.0000 C   0  0  1  0  0  0  0  0  0  0  0  0
    7.9045    0.4066    0.0000 C   0  0  1  0  0  0  0  0  0  0  0  0
   10.2091    3.0012    0.0000 C   0  0  0  0  0  0  0  0  0  0  0  0
    9.4979    0.1798    0.0000 C   0  0  0  0  0  0  0  0  0  0  0  0
   10.7640    2.3727    0.0000 C   0  0  0  0  0  0  0  0  0  0  0  0
    9.3243    1.1646    0.0000 C   0  0  0  0  0  0  0  0  0  0  0  0
    8.3395    1.3004    0.0000 C   0  0  0  0  0  0  0  0  0  0  0  0
   11.2042   -3.4121    0.0000 C   0  0  0  0  0  0  0  0  0  0  0  0
   12.0300    0.1798    0.0000 C   0  0  0  0  0  0  0  0  0  0  0  0
    9.8243    2.0306    0.0000 C   0  0  0  0  0  0  0  0  0  0  0  0
   10.2640   -0.4630    0.0000 C   0  0  0  0  0  0  0  0  0  0  0  0
   10.8672    4.4793    0.0000 C   0  0  0  0  0  0  0  0  0  0  0  0
    6.6271   -3.6355    0.0000 C   0  0  0  0  0  0  0  0  0  0  0  0
   11.2640   -0.4630    0.0000 C   0  0  0  0  0  0  0  0  0  0  0  0
    6.2769    0.9990    0.0000 C   0  0  0  0  0  0  0  0  0  0  0  0
    5.2921    0.8253    0.0000 C   0  0  0  0  0  0  0  0  0  0  0  0
    4.6493    1.5914    0.0000 C   0  0  0  0  0  0  0  0  0  0  0  0
    4.9501   -0.1144    0.0000 C   0  0  0  0  0  0  0  0  0  0  0  0
    3.6645    1.4177    0.0000 C   0  0  0  0  0  0  0  0  0  0  0  0
    5.0206    2.5646    0.0000 C   0  0  0  0  0  0  0  0  0  0  0  0
    3.9653   -0.2880    0.0000 C   0  0  0  0  0  0  0  0  0  0  0  0
    2.9827    2.2052    0.0000 C   0  0  0  0  0  0  0  0  0  0  0  0
    3.3225    0.4780    0.0000 C   0  0  0  0  0  0  0  0  0  0  0  0
    4.3572    3.3676    0.0000 C   0  0  0  0  0  0  0  0  0  0  0  0
    3.3314    3.1868    0.0000 C   0  0  0  0  0  0  0  0  0  0  0  0
    2.0000    2.0202    0.0000 C   0  0  0  0  0  0  0  0  0  0  0  0
    4.0630    5.0745    0.0000 C   0  0  0  0  0  0  0  0  0  0  0  0
   13.0024    0.8738    0.0000 H   0  0  0  0  0  0  0  0  0  0  0  0
    8.0028   -2.4142    0.0000 H   0  0  0  0  0  0  0  0  0  0  0  0
    7.9933   -3.8299    0.0000 H   0  0  0  0  0  0  0  0  0  0  0  0
   12.0525    2.9412    0.0000 H   0  0  0  0  0  0  0  0  0  0  0  0
    8.2373   -2.1151    0.0000 H   0  0  0  0  0  0  0  0  0  0  0  0
   10.2109   -4.1455    0.0000 H   0  0  0  0  0  0  0  0  0  0  0  0
   10.5967   -2.7833    0.0000 H   0  0  0  0  0  0  0  0  0  0  0  0
    8.0325   -0.4857    0.0000 H   0  0  0  0  0  0  0  0  0  0  0  0
    7.5312    0.9015    0.0000 H   0  0  0  0  0  0  0  0  0  0  0  0
    9.5925    2.9364    0.0000 H   0  0  0  0  0  0  0  0  0  0  0  0
   10.2091    2.3812    0.0000 H   0  0  0  0  0  0  0  0  0  0  0  0
    7.0128   -2.2733    0.0000 H   0  0  0  0  0  0  0  0  0  0  0  0
    8.0475    1.8473    0.0000 H   0  0  0  0  0  0  0  0  0  0  0  0
   11.1168   -4.0259    0.0000 H   0  0  0  0  0  0  0  0  0  0  0  0
   11.8180   -3.4994    0.0000 H   0  0  0  0  0  0  0  0  0  0  0  0
   11.2915   -2.7982    0.0000 H   0  0  0  0  0  0  0  0  0  0  0  0
    8.2213   -5.2794    0.0000 H   0  0  0  0  0  0  0  0  0  0  0  0
   10.3717   -1.0736    0.0000 H   0  0  0  0  0  0  0  0  0  0  0  0
    9.5876   -5.4739    0.0000 H   0  0  0  0  0  0  0  0  0  0  0  0
    6.1392   -3.2530    0.0000 H   0  0  0  0  0  0  0  0  0  0  0  0
    6.2445   -4.1234    0.0000 H   0  0  0  0  0  0  0  0  0  0  0  0
    7.1150   -4.0181    0.0000 H   0  0  0  0  0  0  0  0  0  0  0  0
    5.6324    2.6652    0.0000 H   0  0  0  0  0  0  0  0  0  0  0  0
    3.7532   -0.8706    0.0000 H   0  0  0  0  0  0  0  0  0  0  0  0
    2.7119    0.3703    0.0000 H   0  0  0  0  0  0  0  0  0  0  0  0
    2.9311    3.6602    0.0000 H   0  0  0  0  0  0  0  0  0  0  0  0
    1.8853    2.6295    0.0000 H   0  0  0  0  0  0  0  0  0  0  0  0
    1.3907    1.9055    0.0000 H   0  0  0  0  0  0  0  0  0  0  0  0
    2.1147    1.4109    0.0000 H   0  0  0  0  0  0  0  0  0  0  0  0
    5.3808   -1.4630    0.0000 H   0  0  0  0  0  0  0  0  0  0  0  0
    4.5395    5.4712    0.0000 H   0  0  0  0  0  0  0  0  0  0  0  0
    3.6664    5.5510    0.0000 H   0  0  0  0  0  0  0  0  0  0  0  0
    3.5866    4.6778    0.0000 H   0  0  0  0  0  0  0  0  0  0  0  0
 14  1  1  6  0  0  0
  1 15  1  0  0  0  0
  2 19  1  0  0  0  0
  2 21  1  0  0  0  0
 19  3  1  1  0  0  0
 22  3  1  1  0  0  0
  4 18  1  0  0  0  0
  4 33  1  0  0  0  0
 17  5  1  6  0  0  0
  5 65  1  0  0  0  0
 20  6  1  6  0  0  0
  6 67  1  0  0  0  0
  7 24  1  0  0  0  0
  7 33  1  0  0  0  0
 23  8  1  6  0  0  0
  8 36  1  0  0  0  0
  9 33  2  0  0  0  0
 10 36  2  0  0  0  0
 11 39  1  0  0  0  0
 11 78  1  0  0  0  0
 12 45  1  0  0  0  0
 12 48  1  0  0  0  0
 16 13  1  1  0  0  0
 13 34  1  0  0  0  0
 13 60  1  0  0  0  0
 14 15  1  0  0  0  0
 14 18  1  0  0  0  0
 14 26  1  0  0  0  0
 15 30  1  0  0  0  0
 15 49  1  1  0  0  0
 16 17  1  0  0  0  0
 16 19  1  0  0  0  0
 16 50  1  0  0  0  0
 17 20  1  0  0  0  0
 17 51  1  0  0  0  0
 18 24  1  0  0  0  0
 18 52  1  6  0  0  0
 19 53  1  0  0  0  0
 20 21  1  0  0  0  0
 20 54  1  0  0  0  0
 21 29  1  6  0  0  0
 21 55  1  0  0  0  0
 22 23  1  0  0  0  0
 22 25  1  0  0  0  0
 22 56  1  0  0  0  0
 23 28  1  0  0  0  0
 23 57  1  0  0  0  0
 24 58  1  0  0  0  0
 24 59  1  0  0  0  0
 25 27  1  0  0  0  0
 25 32  2  0  0  0  0
 26 31  3  0  0  0  0
 27 28  2  0  0  0  0
 27 31  1  0  0  0  0
 28 61  1  0  0  0  0
 29 62  1  0  0  0  0
 29 63  1  0  0  0  0
 29 64  1  0  0  0  0
 30 35  3  0  0  0  0
 32 35  1  0  0  0  0
 32 66  1  0  0  0  0
 34 68  1  0  0  0  0
 34 69  1  0  0  0  0
 34 70  1  0  0  0  0
 36 37  1  0  0  0  0
 37 38  1  0  0  0  0
 37 39  2  0  0  0  0
 38 40  2  0  0  0  0
 38 41  1  0  0  0  0
 39 42  1  0  0  0  0
 40 43  1  0  0  0  0
 40 44  1  0  0  0  0
 41 45  2  0  0  0  0
 41 71  1  0  0  0  0
 42 44  2  0  0  0  0
 42 72  1  0  0  0  0
 43 46  2  0  0  0  0
 43 47  1  0  0  0  0
 44 73  1  0  0  0  0
 45 46  1  0  0  0  0
 46 74  1  0  0  0  0
 47 75  1  0  0  0  0
 47 76  1  0  0  0  0
 47 77  1  0  0  0  0
 48 79  1  0  0  0  0
 48 80  1  0  0  0  0
 48 81  1  0  0  0  0
M  END
> <PUBCHEM_COMPOUND_CID>
447545

> <PUBCHEM_COMPOUND_CANONICALIZED>
1

> <PUBCHEM_CACTVS_COMPLEXITY>
1520

> <PUBCHEM_CACTVS_HBOND_ACCEPTOR>
13

> <PUBCHEM_CACTVS_HBOND_DONOR>
4

> <PUBCHEM_CACTVS_ROTATABLE_BOND>
8

> <PUBCHEM_CACTVS_SUBSKEYS>
AAADcfB+PAAAAAAAAAAAAAAAEgAAASIAAAA0YIAAAAAAAEDBUAAAHgAQCAAADHzxmAcyDsLABgDIEiDSCAgCCAAkIAAIiIEOCMgfNzaGtRqncWAn8BEfuQf47PzOoAADAAAYAABAAAYAADAAAAAAAAAAAA==

> <PUBCHEM_IUPAC_INCHI>
InChI=1S/C35H33NO12/c1-16-12-19(42-4)14-22-20(16)8-9-23(37)27(22)32(40)45-24-13-18-10-11-35(26-15-43-34(41)46-26)25(48-35)7-5-6-21(18)31(24)47-33-28(36-3)30(39)29(38)17(2)44-33/h6,8-9,12-14,17,24-26,28-31,33,36-39H,15H2,1-4H3/b21-6+/t17-,24-,25-,26-,28-,29+,30-,31-,33-,35+/m1/s1

> <PUBCHEM_IUPAC_INCHIKEY>
QZGIWPZCWHMVQL-UIYAJPBUSA-N

> <PUBCHEM_XLOGP3_AA>
2

> <PUBCHEM_EXACT_MASS>
659.200275

> <PUBCHEM_MOLECULAR_FORMULA>
C35H33NO12

> <PUBCHEM_MOLECULAR_WEIGHT>
659.63602

> <PUBCHEM_OPENEYE_CAN_SMILES>
CC1C(C(C(C(O1)OC2C(C=C3C2=CC#CC4C(O4)(C#C3)C5COC(=O)O5)OC(=O)C6=C(C=CC7=C(C=C(C=C76)OC)C)O)NC)O)O

> <PUBCHEM_OPENEYE_ISO_SMILES>
C[C@@H]1[C@@H]([C@@H]([C@H]([C@H](O1)O[C@H]\2[C@@H](C=C3/C2=C\C#C[C@@H]4[C@@](O4)(C#C3)[C@H]5COC(=O)O5)OC(=O)C6=C(C=CC7=C(C=C(C=C76)OC)C)O)NC)O)O

> <PUBCHEM_CACTVS_TPSA>
175

> <PUBCHEM_MONOISOTOPIC_WEIGHT>
659.200275

> <PUBCHEM_TOTAL_CHARGE>
0

> <PUBCHEM_HEAVY_ATOM_COUNT>
48

> <PUBCHEM_ATOM_DEF_STEREO_COUNT>
10

> <PUBCHEM_ATOM_UDEF_STEREO_COUNT>
0

> <PUBCHEM_BOND_DEF_STEREO_COUNT>
1

> <PUBCHEM_BOND_UDEF_STEREO_COUNT>
0

> <PUBCHEM_ISOTOPIC_ATOM_COUNT>
0

> <PUBCHEM_COMPONENT_COUNT>
1

> <PUBCHEM_CACTVS_TAUTO_COUNT>
4

> <PUBCHEM_COORDINATE_TYPE>
1
5
255

> <PUBCHEM_BONDANNOTATIONS>
14  1  6
16  13  5
15  49  5
18  52  6
21  29  6
19  3  5
22  3  5
37  38  8
37  39  8
38  40  8
38  41  8
39  42  8
40  43  8
40  44  8
41  45  8
42  44  8
43  46  8
45  46  8
17  5  6
20  6  6
23  8  6

$$$$

