3077
  -OEChem-07051213113D

 25 24  0     0  0  0  0  0  0999 V2000
    1.9252    0.7007   -0.7066 S   0  0  0  0  0  0  0  0  0  0  0  0
   -3.2031   -0.0630   -0.2302 N   0  0  0  0  0  0  0  0  0  0  0  0
    4.1237    0.8109    0.7434 N   0  0  0  0  0  0  0  0  0  0  0  0
    3.5902   -1.3059   -0.1580 N   0  0  0  0  0  0  0  0  0  0  0  0
   -1.9085   -0.5468    0.2350 C   0  0  0  0  0  0  0  0  0  0  0  0
   -0.7777    0.2554   -0.4099 C   0  0  0  0  0  0  0  0  0  0  0  0
    0.5835   -0.2578    0.0541 C   0  0  0  0  0  0  0  0  0  0  0  0
   -3.3947    1.3388    0.1457 C   0  0  0  0  0  0  0  0  0  0  0  0
   -4.2859   -0.8863    0.3112 C   0  0  0  0  0  0  0  0  0  0  0  0
    3.3474   -0.0461    0.0152 C   0  0  0  0  0  0  0  0  0  0  0  0
   -1.8318   -0.4937    1.3291 H   0  0  0  0  0  0  0  0  0  0  0  0
   -1.7884   -1.6008   -0.0463 H   0  0  0  0  0  0  0  0  0  0  0  0
   -0.8539    0.1878   -1.5030 H   0  0  0  0  0  0  0  0  0  0  0  0
   -0.8379    1.3142   -0.1354 H   0  0  0  0  0  0  0  0  0  0  0  0
    0.6958   -1.3123   -0.2176 H   0  0  0  0  0  0  0  0  0  0  0  0
    0.6692   -0.1769    1.1431 H   0  0  0  0  0  0  0  0  0  0  0  0
   -3.2069    1.5176    1.2106 H   0  0  0  0  0  0  0  0  0  0  0  0
   -4.4247    1.6521   -0.0656 H   0  0  0  0  0  0  0  0  0  0  0  0
   -2.7709    2.0117   -0.4502 H   0  0  0  0  0  0  0  0  0  0  0  0
   -5.2543   -0.5579   -0.0828 H   0  0  0  0  0  0  0  0  0  0  0  0
   -4.3266   -0.8477    1.4058 H   0  0  0  0  0  0  0  0  0  0  0  0
   -4.1641   -1.9318    0.0067 H   0  0  0  0  0  0  0  0  0  0  0  0
    4.9679    0.4927    1.2066 H   0  0  0  0  0  0  0  0  0  0  0  0
    3.8773    1.7897    0.8430 H   0  0  0  0  0  0  0  0  0  0  0  0
    2.8582   -1.7102   -0.7513 H   0  0  0  0  0  0  0  0  0  0  0  0
  1  7  1  0  0  0  0
  1 10  1  0  0  0  0
  2  5  1  0  0  0  0
  2  8  1  0  0  0  0
  2  9  1  0  0  0  0
  3 10  1  0  0  0  0
  3 23  1  0  0  0  0
  3 24  1  0  0  0  0
  4 10  2  0  0  0  0
  4 25  1  0  0  0  0
  5  6  1  0  0  0  0
  5 11  1  0  0  0  0
  5 12  1  0  0  0  0
  6  7  1  0  0  0  0
  6 13  1  0  0  0  0
  6 14  1  0  0  0  0
  7 15  1  0  0  0  0
  7 16  1  0  0  0  0
  8 17  1  0  0  0  0
  8 18  1  0  0  0  0
  8 19  1  0  0  0  0
  9 20  1  0  0  0  0
  9 21  1  0  0  0  0
  9 22  1  0  0  0  0
M  END
> <PUBCHEM_COMPOUND_CID>
3077

> <PUBCHEM_CONFORMER_RMSD>
0.6

> <PUBCHEM_CONFORMER_DIVERSEORDER>
1
10
9
12
40
17
19
35
23
16
20
13
8
32
39
26
27
24
5
34
30
22
38
21
18
14
7
33
15
36
11
31
3
4
37
25
29
28
6
2

> <PUBCHEM_MMFF94_PARTIAL_CHARGES>
12
1 -0.37
10 0.64
2 -0.81
23 0.4
24 0.4
25 0.4
3 -0.85
4 -0.85
5 0.27
7 0.23
8 0.27
9 0.27

> <PUBCHEM_EFFECTIVE_ROTOR_COUNT>
5

> <PUBCHEM_PHARMACOPHORE_FEATURES>
4
1 2 cation
1 3 donor
1 4 donor
3 3 4 10 cation

> <PUBCHEM_HEAVY_ATOM_COUNT>
10

> <PUBCHEM_ATOM_DEF_STEREO_COUNT>
0

> <PUBCHEM_ATOM_UDEF_STEREO_COUNT>
0

> <PUBCHEM_BOND_DEF_STEREO_COUNT>
0

> <PUBCHEM_BOND_UDEF_STEREO_COUNT>
0

> <PUBCHEM_ISOTOPIC_ATOM_COUNT>
0

> <PUBCHEM_COMPONENT_COUNT>
1

> <PUBCHEM_CACTVS_TAUTO_COUNT>
1

> <PUBCHEM_CONFORMER_ID>
00000C0500000001

> <PUBCHEM_MMFF94_ENERGY>
16.1128

> <PUBCHEM_FEATURE_SELFOVERLAP>
20.335

> <PUBCHEM_SHAPE_FINGERPRINT>
11062470 55 17022620866585933628
12932764 1 17386014956965765565
14123238 8 18410573950796994036
14252887 29 18272931631219673090
14325111 11 18410854364927351662
177051 138 18413103965860297110
190213 19 18273496771147407829
1986462 14 18271804648796403607
20645477 70 18187926226855468062
20711985 327 17203602683920456815
21119208 17 9727640505035552640
22485316 2 18334580135291520111
23402539 116 18408891716035711863
42 15 18411417323502414438
449060 50 18260832549369903304

> <PUBCHEM_SHAPE_MULTIPOLES>
194.7
9.11
1.17
0.75
0.18
0.06
-0.01
-0.64
1.33
-0.23
0.02
0.27
0.09
0.17

> <PUBCHEM_SHAPE_SELFOVERLAP>
340.849

> <PUBCHEM_SHAPE_VOLUME>
130

> <PUBCHEM_COORDINATE_TYPE>
2
5
10

$$$$

