440997
  -OEChem-07051212443D

 30 30  0     1  0  0  0  0  0999 V2000
   -3.7205    0.2143   -0.0283 P   0  0  0  0  0  0  0  0  0  0  0  0
    0.4658    0.9879    0.1831 O   0  0  0  0  0  0  0  0  0  0  0  0
    0.9483   -2.6093   -0.3692 O   0  0  0  0  0  0  0  0  0  0  0  0
    3.5375   -1.7120    0.5235 O   0  0  0  0  0  0  0  0  0  0  0  0
    1.9426    2.7877    0.2275 O   0  0  0  0  0  0  0  0  0  0  0  0
   -2.1425    0.3372   -0.3711 O   0  0  0  0  0  0  0  0  0  0  0  0
   -3.7545    0.0924    1.5839 O   0  0  0  0  0  0  0  0  0  0  0  0
   -4.0829   -1.2823   -0.5222 O   0  0  0  0  0  0  0  0  0  0  0  0
   -4.5810    1.2988   -0.6081 O   0  0  0  0  0  0  0  0  0  0  0  0
    4.1245    1.0127   -0.3638 N   0  0  0  0  0  0  0  0  0  0  0  0
    1.1837   -1.3235    0.1987 C   0  0  1  0  0  0  0  0  0  0  0  0
    2.6022   -0.8910   -0.1789 C   0  0  1  0  0  0  0  0  0  0  0  0
    2.8618    0.5721    0.1922 C   0  0  2  0  0  0  0  0  0  0  0  0
    0.1555   -0.3137   -0.3177 C   0  0  1  0  0  0  0  0  0  0  0  0
    1.7209    1.4757   -0.2881 C   0  0  1  0  0  0  0  0  0  0  0  0
   -1.2613   -0.6471    0.1385 C   0  0  0  0  0  0  0  0  0  0  0  0
    1.1156   -1.4221    1.2897 H   0  0  0  0  0  0  0  0  0  0  0  0
    2.7673   -1.0640   -1.2500 H   0  0  0  0  0  0  0  0  0  0  0  0
    0.1589   -0.2786   -1.4157 H   0  0  0  0  0  0  0  0  0  0  0  0
    2.9420    0.6562    1.2841 H   0  0  0  0  0  0  0  0  0  0  0  0
    1.6965    1.5401   -1.3839 H   0  0  0  0  0  0  0  0  0  0  0  0
   -1.3178   -0.6358    1.2320 H   0  0  0  0  0  0  0  0  0  0  0  0
   -1.5685   -1.6307   -0.2273 H   0  0  0  0  0  0  0  0  0  0  0  0
    4.0959    0.9666   -1.3818 H   0  0  0  0  0  0  0  0  0  0  0  0
    4.8701    0.3803   -0.0750 H   0  0  0  0  0  0  0  0  0  0  0  0
    0.1386   -2.9673    0.0317 H   0  0  0  0  0  0  0  0  0  0  0  0
    3.3983   -1.5811    1.4769 H   0  0  0  0  0  0  0  0  0  0  0  0
    1.4812    3.4074   -0.3628 H   0  0  0  0  0  0  0  0  0  0  0  0
   -4.6225    0.0754    2.0403 H   0  0  0  0  0  0  0  0  0  0  0  0
   -5.0193   -1.5738   -0.5056 H   0  0  0  0  0  0  0  0  0  0  0  0
  1  6  1  0  0  0  0
  1  7  1  0  0  0  0
  1  8  1  0  0  0  0
  1  9  2  0  0  0  0
  2 14  1  0  0  0  0
  2 15  1  0  0  0  0
  3 11  1  0  0  0  0
  3 26  1  0  0  0  0
  4 12  1  0  0  0  0
  4 27  1  0  0  0  0
  5 15  1  0  0  0  0
  5 28  1  0  0  0  0
  6 16  1  0  0  0  0
  7 29  1  0  0  0  0
  8 30  1  0  0  0  0
 10 13  1  0  0  0  0
 10 24  1  0  0  0  0
 10 25  1  0  0  0  0
 11 12  1  0  0  0  0
 11 14  1  0  0  0  0
 11 17  1  0  0  0  0
 12 13  1  0  0  0  0
 12 18  1  0  0  0  0
 13 15  1  0  0  0  0
 13 20  1  0  0  0  0
 14 16  1  0  0  0  0
 14 19  1  0  0  0  0
 15 21  1  0  0  0  0
 16 22  1  0  0  0  0
 16 23  1  0  0  0  0
M  END
> <PUBCHEM_COMPOUND_CID>
440997

> <PUBCHEM_CONFORMER_RMSD>
0.6

> <PUBCHEM_CONFORMER_DIVERSEORDER>
1
49
44
43
33
16
53
30
48
6
51
27
3
24
13
50
38
12
29
45
54
47
5
15
37
11
52
39
20
26
46
21
34
36
8
41
42
14
23
10
17
31
9
19
28
40
32
4
22
7
35
25
18
2

> <PUBCHEM_MMFF94_PARTIAL_CHARGES>
23
1 1.51
10 -0.99
11 0.28
12 0.28
13 0.27
14 0.28
15 0.56
16 0.28
2 -0.56
24 0.36
25 0.36
26 0.4
27 0.4
28 0.4
29 0.5
3 -0.68
30 0.5
4 -0.68
5 -0.68
6 -0.55
7 -0.77
8 -0.77
9 -0.7

> <PUBCHEM_EFFECTIVE_ROTOR_COUNT>
4.2

> <PUBCHEM_PHARMACOPHORE_FEATURES>
14
1 10 cation
1 10 donor
1 2 acceptor
1 3 acceptor
1 3 donor
1 4 acceptor
1 4 donor
1 5 acceptor
1 5 donor
1 7 acceptor
1 8 acceptor
1 9 acceptor
4 1 7 8 9 anion
6 2 11 12 13 14 15 rings

> <PUBCHEM_HEAVY_ATOM_COUNT>
16

> <PUBCHEM_ATOM_DEF_STEREO_COUNT>
4

> <PUBCHEM_ATOM_UDEF_STEREO_COUNT>
1

> <PUBCHEM_BOND_DEF_STEREO_COUNT>
0

> <PUBCHEM_BOND_UDEF_STEREO_COUNT>
0

> <PUBCHEM_ISOTOPIC_ATOM_COUNT>
0

> <PUBCHEM_COMPONENT_COUNT>
1

> <PUBCHEM_CACTVS_TAUTO_COUNT>
1

> <PUBCHEM_CONFORMER_ID>
0006BAA500000001

> <PUBCHEM_MMFF94_ENERGY>
-3.7579

> <PUBCHEM_FEATURE_SELFOVERLAP>
71.131

> <PUBCHEM_SHAPE_FINGERPRINT>
10219947 1 18410292536129348978
10608611 8 18342178856230691613
10980938 120 18410293609908050830
11471102 20 18410859883949855525
11615757 297 18260825990843884249
12346645 6 18409730668655256062
12654215 9 18342462590133268756
13922767 16 18411704296000366736
14251717 144 18410015437555631447
14415576 193 18412544323042191461
15219456 202 18273492381864924107
15442244 35 18192711365482787401
15501101 241 18273215313361135684
17834072 33 18334864900972724615
18186145 218 18260258634011430485
200 152 18187654591922664679
20279233 1 17846493738726017043
20606313 2 18410857680932202524
20645477 56 18201722877781609477
20645477 70 18339930414891722831
20871998 22 18046343299894402998
21524375 3 18191586346001899534
21639500 275 18337400352610023333
21730867 7 18341895186092916117
221490 88 18340483374640528099
22854114 111 18411138021747448597
23402655 69 18408606980720030405
25 1 18413109446349252190
293599 30 18339636729808403220
3060560 45 18259700108201495774
4990 188 18040423378929172054
5104073 3 18412265043052277971

> <PUBCHEM_SHAPE_MULTIPOLES>
281.19
8.1
2.18
0.79
7.15
0.11
-0.18
1.11
-0.01
-1.7
0.08
0.54
-0.01
-0.1

> <PUBCHEM_SHAPE_SELFOVERLAP>
546.864

> <PUBCHEM_SHAPE_VOLUME>
170.7

> <PUBCHEM_COORDINATE_TYPE>
2
5
10

$$$$

