13550
  -OEChem-06241222393D

 18 17  0     0  0  0  0  0  0999 V2000
    0.1273    0.4680    0.0026 O   0  0  0  0  0  0  0  0  0  0  0  0
   -1.1636   -1.4488    0.0012 O   0  0  0  0  0  0  0  0  0  0  0  0
    2.5158    0.6252    0.0052 C   0  0  0  0  0  0  0  0  0  0  0  0
    1.3162   -0.3100    0.0039 C   0  0  0  0  0  0  0  0  0  0  0  0
    3.8275   -0.1388   -0.0086 C   0  0  0  0  0  0  0  0  0  0  0  0
   -1.0433   -0.2339    0.0013 C   0  0  0  0  0  0  0  0  0  0  0  0
   -2.1580    0.7359   -0.0017 C   0  0  0  0  0  0  0  0  0  0  0  0
   -3.4218    0.3024   -0.0039 C   0  0  0  0  0  0  0  0  0  0  0  0
    2.4642    1.2912   -0.8645 H   0  0  0  0  0  0  0  0  0  0  0  0
    2.4732    1.2768    0.8862 H   0  0  0  0  0  0  0  0  0  0  0  0
    1.3368   -0.9455   -0.8894 H   0  0  0  0  0  0  0  0  0  0  0  0
    1.3355   -0.9465    0.8964 H   0  0  0  0  0  0  0  0  0  0  0  0
    3.9068   -0.7664   -0.9020 H   0  0  0  0  0  0  0  0  0  0  0  0
    4.6720    0.5574   -0.0068 H   0  0  0  0  0  0  0  0  0  0  0  0
    3.9161   -0.7823    0.8726 H   0  0  0  0  0  0  0  0  0  0  0  0
   -1.9351    1.7969   -0.0020 H   0  0  0  0  0  0  0  0  0  0  0  0
   -4.2399    1.0151   -0.0061 H   0  0  0  0  0  0  0  0  0  0  0  0
   -3.6768   -0.7516   -0.0036 H   0  0  0  0  0  0  0  0  0  0  0  0
  1  4  1  0  0  0  0
  1  6  1  0  0  0  0
  2  6  2  0  0  0  0
  3  4  1  0  0  0  0
  3  5  1  0  0  0  0
  3  9  1  0  0  0  0
  3 10  1  0  0  0  0
  4 11  1  0  0  0  0
  4 12  1  0  0  0  0
  5 13  1  0  0  0  0
  5 14  1  0  0  0  0
  5 15  1  0  0  0  0
  6  7  1  0  0  0  0
  7  8  2  0  0  0  0
  7 16  1  0  0  0  0
  8 17  1  0  0  0  0
  8 18  1  0  0  0  0
M  END
> <PUBCHEM_COMPOUND_CID>
13550

> <PUBCHEM_CONFORMER_RMSD>
0.6

> <PUBCHEM_CONFORMER_DIVERSEORDER>
1
26
18
28
23
24
22
31
27
13
11
19
4
5
8
30
32
25
9
17
7
21
15
12
16
2
29
10
20
14
3
6

> <PUBCHEM_MMFF94_PARTIAL_CHARGES>
9
1 -0.43
16 0.15
17 0.15
18 0.15
2 -0.57
4 0.28
6 0.71
7 -0.14
8 -0.3

> <PUBCHEM_EFFECTIVE_ROTOR_COUNT>
4

> <PUBCHEM_PHARMACOPHORE_FEATURES>
3
1 2 acceptor
1 5 hydrophobe
1 8 hydrophobe

> <PUBCHEM_HEAVY_ATOM_COUNT>
8

> <PUBCHEM_ATOM_DEF_STEREO_COUNT>
0

> <PUBCHEM_ATOM_UDEF_STEREO_COUNT>
0

> <PUBCHEM_BOND_DEF_STEREO_COUNT>
0

> <PUBCHEM_BOND_UDEF_STEREO_COUNT>
0

> <PUBCHEM_ISOTOPIC_ATOM_COUNT>
0

> <PUBCHEM_COMPONENT_COUNT>
1

> <PUBCHEM_CACTVS_TAUTO_COUNT>
1

> <PUBCHEM_CONFORMER_ID>
000034EE00000001

> <PUBCHEM_MMFF94_ENERGY>
7.1127

> <PUBCHEM_FEATURE_SELFOVERLAP>
15.223

> <PUBCHEM_SHAPE_FINGERPRINT>
11062470 55 13984663658976939864
12932764 1 16988576671128450268
14325111 11 18410574015443088513
14390081 3 18260832596113442240
23235685 24 18335425685460749117
29004967 10 14908183066212584988
3248919 1 16588292861671824480
5460574 1 9223229650194060769

> <PUBCHEM_SHAPE_MULTIPOLES>
152.9
6.13
0.97
0.59
2.3
0.21
0
-0.75
0.02
-0.25
0
0.01
-0.01
0

> <PUBCHEM_SHAPE_SELFOVERLAP>
279.259

> <PUBCHEM_SHAPE_VOLUME>
97.5

> <PUBCHEM_COORDINATE_TYPE>
2
5
10

$$$$

