439639
  -OEChem-07051212463D

 87 90  0     1  0  0  0  0  0999 V2000
   -0.2119   -1.1392    0.9327 O   0  0  0  0  0  0  0  0  0  0  0  0
    1.6239   -1.0448   -0.5190 O   0  0  0  0  0  0  0  0  0  0  0  0
   -2.6346   -0.0449   -1.6211 O   0  0  0  0  0  0  0  0  0  0  0  0
    4.2960   -0.1123    0.4197 O   0  0  0  0  0  0  0  0  0  0  0  0
   -4.4927   -0.0598   -0.1487 O   0  0  0  0  0  0  0  0  0  0  0  0
    6.5859    0.0262   -0.1781 O   0  0  0  0  0  0  0  0  0  0  0  0
   -1.7868   -3.4983    0.4781 O   0  0  0  0  0  0  0  0  0  0  0  0
   -6.3185    1.6931    1.4273 O   0  0  0  0  0  0  0  0  0  0  0  0
    3.3698   -3.4437    1.5243 O   0  0  0  0  0  0  0  0  0  0  0  0
    2.0279   -0.1368    2.2039 O   0  0  0  0  0  0  0  0  0  0  0  0
   -4.5247   -2.8651   -0.2137 O   0  0  0  0  0  0  0  0  0  0  0  0
   -7.5810    0.8319   -1.8348 O   0  0  0  0  0  0  0  0  0  0  0  0
    4.8411    1.2228    2.8269 O   0  0  0  0  0  0  0  0  0  0  0  0
    6.2256    3.5839    1.8867 O   0  0  0  0  0  0  0  0  0  0  0  0
    6.4772    3.6237   -0.9746 O   0  0  0  0  0  0  0  0  0  0  0  0
   -6.8454   -1.1412    1.1255 O   0  0  0  0  0  0  0  0  0  0  0  0
   -1.0443    2.1739   -1.6410 O   0  0  0  0  0  0  0  0  0  0  0  0
    4.0401   -3.2832   -2.1077 O   0  0  0  0  0  0  0  0  0  0  0  0
   -8.2702    0.8485    2.4095 O   0  0  0  0  0  0  0  0  0  0  0  0
   -5.2897    3.7070   -1.4463 O   0  0  0  0  0  0  0  0  0  0  0  0
    7.2236   -0.1590   -2.8260 O   0  0  0  0  0  0  0  0  0  0  0  0
   -1.1187   -1.2834   -0.1579 C   0  0  1  0  0  0  0  0  0  0  0  0
    3.9297   -1.4806    0.2161 C   0  0  1  0  0  0  0  0  0  0  0  0
   -2.2788   -2.1674    0.3043 C   0  0  1  0  0  0  0  0  0  0  0  0
    3.3931   -2.0200    1.5483 C   0  0  1  0  0  0  0  0  0  0  0  0
    1.0656   -1.6924    0.6224 C   0  0  1  0  0  0  0  0  0  0  0  0
    1.9773   -1.5166    1.8385 C   0  0  2  0  0  0  0  0  0  0  0  0
   -1.6191    0.0917   -0.6205 C   0  0  1  0  0  0  0  0  0  0  0  0
   -3.3939   -2.1795   -0.7396 C   0  0  2  0  0  0  0  0  0  0  0  0
    2.9043   -1.5417   -0.9293 C   0  0  1  0  0  0  0  0  0  0  0  0
   -3.7833   -0.7634   -1.1667 C   0  0  2  0  0  0  0  0  0  0  0  0
   -5.4331    0.8610   -0.7105 C   0  0  1  0  0  0  0  0  0  0  0  0
    5.6376    0.0016    0.8905 C   0  0  1  0  0  0  0  0  0  0  0  0
   -6.7437    0.0991   -0.9461 C   0  0  1  0  0  0  0  0  0  0  0  0
   -5.5791    2.0516    0.2531 C   0  0  1  0  0  0  0  0  0  0  0  0
    5.8369    1.2075    1.8102 C   0  0  1  0  0  0  0  0  0  0  0  0
    5.7885    2.5225    1.0347 C   0  0  2  0  0  0  0  0  0  0  0  0
    6.7196    2.4664   -0.1781 C   0  0  1  0  0  0  0  0  0  0  0  0
   -0.5013    0.9321   -1.2321 C   0  0  0  0  0  0  0  0  0  0  0  0
   -7.5091   -0.1358    0.3583 C   0  0  2  0  0  0  0  0  0  0  0  0
    6.4821    1.1934   -1.0016 C   0  0  1  0  0  0  0  0  0  0  0  0
    2.7810   -2.9226   -1.5703 C   0  0  0  0  0  0  0  0  0  0  0  0
   -7.6140    1.1508    1.1796 C   0  0  2  0  0  0  0  0  0  0  0  0
   -6.1569    3.3045   -0.4021 C   0  0  0  0  0  0  0  0  0  0  0  0
    7.5038    1.0385   -2.1248 C   0  0  0  0  0  0  0  0  0  0  0  0
   -0.6459   -1.7880   -1.0136 H   0  0  0  0  0  0  0  0  0  0  0  0
    4.8179   -2.0470   -0.0928 H   0  0  0  0  0  0  0  0  0  0  0  0
   -2.6565   -1.8471    1.2822 H   0  0  0  0  0  0  0  0  0  0  0  0
    4.0433   -1.7241    2.3787 H   0  0  0  0  0  0  0  0  0  0  0  0
    0.9292   -2.7606    0.4175 H   0  0  0  0  0  0  0  0  0  0  0  0
    1.5391   -2.0552    2.6873 H   0  0  0  0  0  0  0  0  0  0  0  0
   -2.0366    0.6542    0.2252 H   0  0  0  0  0  0  0  0  0  0  0  0
   -3.0465   -2.7426   -1.6154 H   0  0  0  0  0  0  0  0  0  0  0  0
    3.2477   -0.8497   -1.7095 H   0  0  0  0  0  0  0  0  0  0  0  0
   -4.4322   -0.8826   -2.0433 H   0  0  0  0  0  0  0  0  0  0  0  0
   -5.0381    1.2404   -1.6619 H   0  0  0  0  0  0  0  0  0  0  0  0
    5.8849   -0.8801    1.4947 H   0  0  0  0  0  0  0  0  0  0  0  0
   -6.5511   -0.8719   -1.4147 H   0  0  0  0  0  0  0  0  0  0  0  0
   -4.5720    2.3053    0.6097 H   0  0  0  0  0  0  0  0  0  0  0  0
    6.8128    1.1306    2.3069 H   0  0  0  0  0  0  0  0  0  0  0  0
    4.7614    2.7667    0.7399 H   0  0  0  0  0  0  0  0  0  0  0  0
    7.7632    2.5131    0.1562 H   0  0  0  0  0  0  0  0  0  0  0  0
   -0.0815    0.4445   -2.1180 H   0  0  0  0  0  0  0  0  0  0  0  0
    0.2912    1.1328   -0.5061 H   0  0  0  0  0  0  0  0  0  0  0  0
   -8.5208   -0.5067    0.1543 H   0  0  0  0  0  0  0  0  0  0  0  0
    5.4834    1.2075   -1.4582 H   0  0  0  0  0  0  0  0  0  0  0  0
    2.4670   -3.6933   -0.8623 H   0  0  0  0  0  0  0  0  0  0  0  0
    2.0404   -2.8988   -2.3771 H   0  0  0  0  0  0  0  0  0  0  0  0
   -8.2340    1.8868    0.6568 H   0  0  0  0  0  0  0  0  0  0  0  0
   -1.4502   -3.8121   -0.3785 H   0  0  0  0  0  0  0  0  0  0  0  0
    4.2797   -3.7493    1.3688 H   0  0  0  0  0  0  0  0  0  0  0  0
    2.5851   -0.0638    2.9975 H   0  0  0  0  0  0  0  0  0  0  0  0
   -7.1555    3.1452   -0.8157 H   0  0  0  0  0  0  0  0  0  0  0  0
   -6.2324    4.1137    0.3324 H   0  0  0  0  0  0  0  0  0  0  0  0
   -5.2052   -2.8816   -0.9079 H   0  0  0  0  0  0  0  0  0  0  0  0
    7.4582    1.8781   -2.8249 H   0  0  0  0  0  0  0  0  0  0  0  0
    8.5184    0.9588   -1.7202 H   0  0  0  0  0  0  0  0  0  0  0  0
   -7.0938    0.9477   -2.6683 H   0  0  0  0  0  0  0  0  0  0  0  0
    4.9142    0.3879    3.3199 H   0  0  0  0  0  0  0  0  0  0  0  0
    7.1335    3.3877    2.1743 H   0  0  0  0  0  0  0  0  0  0  0  0
    5.5645    3.5738   -1.3065 H   0  0  0  0  0  0  0  0  0  0  0  0
   -6.8257   -1.9529    0.5907 H   0  0  0  0  0  0  0  0  0  0  0  0
   -0.3179    2.6914   -2.0287 H   0  0  0  0  0  0  0  0  0  0  0  0
    3.9352   -4.1556   -2.5240 H   0  0  0  0  0  0  0  0  0  0  0  0
   -8.6759    1.6731    2.7269 H   0  0  0  0  0  0  0  0  0  0  0  0
   -5.6671    4.5130   -1.8380 H   0  0  0  0  0  0  0  0  0  0  0  0
    7.8864   -0.2394   -3.5330 H   0  0  0  0  0  0  0  0  0  0  0  0
  1 22  1  0  0  0  0
  1 26  1  0  0  0  0
  2 26  1  0  0  0  0
  2 30  1  0  0  0  0
  3 28  1  0  0  0  0
  3 31  1  0  0  0  0
  4 23  1  0  0  0  0
  4 33  1  0  0  0  0
  5 31  1  0  0  0  0
  5 32  1  0  0  0  0
  6 33  1  0  0  0  0
  6 41  1  0  0  0  0
  7 24  1  0  0  0  0
  7 70  1  0  0  0  0
  8 35  1  0  0  0  0
  8 43  1  0  0  0  0
  9 25  1  0  0  0  0
  9 71  1  0  0  0  0
 10 27  1  0  0  0  0
 10 72  1  0  0  0  0
 11 29  1  0  0  0  0
 11 75  1  0  0  0  0
 12 34  1  0  0  0  0
 12 78  1  0  0  0  0
 13 36  1  0  0  0  0
 13 79  1  0  0  0  0
 14 37  1  0  0  0  0
 14 80  1  0  0  0  0
 15 38  1  0  0  0  0
 15 81  1  0  0  0  0
 16 40  1  0  0  0  0
 16 82  1  0  0  0  0
 17 39  1  0  0  0  0
 17 83  1  0  0  0  0
 18 42  1  0  0  0  0
 18 84  1  0  0  0  0
 19 43  1  0  0  0  0
 19 85  1  0  0  0  0
 20 44  1  0  0  0  0
 20 86  1  0  0  0  0
 21 45  1  0  0  0  0
 21 87  1  0  0  0  0
 22 24  1  0  0  0  0
 22 28  1  0  0  0  0
 22 46  1  0  0  0  0
 23 25  1  0  0  0  0
 23 30  1  0  0  0  0
 23 47  1  0  0  0  0
 24 29  1  0  0  0  0
 24 48  1  0  0  0  0
 25 27  1  0  0  0  0
 25 49  1  0  0  0  0
 26 27  1  0  0  0  0
 26 50  1  0  0  0  0
 27 51  1  0  0  0  0
 28 39  1  0  0  0  0
 28 52  1  0  0  0  0
 29 31  1  0  0  0  0
 29 53  1  0  0  0  0
 30 42  1  0  0  0  0
 30 54  1  0  0  0  0
 31 55  1  0  0  0  0
 32 34  1  0  0  0  0
 32 35  1  0  0  0  0
 32 56  1  0  0  0  0
 33 36  1  0  0  0  0
 33 57  1  0  0  0  0
 34 40  1  0  0  0  0
 34 58  1  0  0  0  0
 35 44  1  0  0  0  0
 35 59  1  0  0  0  0
 36 37  1  0  0  0  0
 36 60  1  0  0  0  0
 37 38  1  0  0  0  0
 37 61  1  0  0  0  0
 38 41  1  0  0  0  0
 38 62  1  0  0  0  0
 39 63  1  0  0  0  0
 39 64  1  0  0  0  0
 40 43  1  0  0  0  0
 40 65  1  0  0  0  0
 41 45  1  0  0  0  0
 41 66  1  0  0  0  0
 42 67  1  0  0  0  0
 42 68  1  0  0  0  0
 43 69  1  0  0  0  0
 44 73  1  0  0  0  0
 44 74  1  0  0  0  0
 45 76  1  0  0  0  0
 45 77  1  0  0  0  0
M  END
> <PUBCHEM_COMPOUND_CID>
439639

> <PUBCHEM_CONFORMER_RMSD>
1.4

> <PUBCHEM_CONFORMER_DIVERSEORDER>
2
12
22
1
25
34
4
35
23
29
6
10
20
30
26
27
31
37
28
8
11
7
19
16
32
38
33
18
21
36
13
15
14
9
5
17
24
3

> <PUBCHEM_MMFF94_PARTIAL_CHARGES>
59
1 -0.56
10 -0.68
11 -0.68
12 -0.68
13 -0.68
14 -0.68
15 -0.68
16 -0.68
17 -0.68
18 -0.68
19 -0.68
2 -0.56
20 -0.68
21 -0.68
22 0.28
23 0.28
24 0.28
25 0.28
26 0.56
27 0.28
28 0.28
29 0.28
3 -0.56
30 0.28
31 0.56
32 0.28
33 0.56
34 0.28
35 0.28
36 0.28
37 0.28
38 0.28
39 0.28
4 -0.56
40 0.28
41 0.28
42 0.28
43 0.56
44 0.28
45 0.28
5 -0.56
6 -0.56
7 -0.68
70 0.4
71 0.4
72 0.4
75 0.4
78 0.4
79 0.4
8 -0.56
80 0.4
81 0.4
82 0.4
83 0.4
84 0.4
85 0.4
86 0.4
87 0.4
9 -0.68

> <PUBCHEM_EFFECTIVE_ROTOR_COUNT>
14.8

> <PUBCHEM_PHARMACOPHORE_FEATURES>
39
1 1 acceptor
1 10 acceptor
1 10 donor
1 11 acceptor
1 11 donor
1 12 acceptor
1 12 donor
1 13 acceptor
1 13 donor
1 14 acceptor
1 14 donor
1 15 acceptor
1 15 donor
1 16 acceptor
1 16 donor
1 17 acceptor
1 17 donor
1 18 acceptor
1 18 donor
1 19 acceptor
1 19 donor
1 2 acceptor
1 20 acceptor
1 20 donor
1 21 acceptor
1 21 donor
1 3 acceptor
1 4 acceptor
1 5 acceptor
1 6 acceptor
1 7 acceptor
1 7 donor
1 8 acceptor
1 9 acceptor
1 9 donor
6 2 23 25 26 27 30 rings
6 3 22 24 28 29 31 rings
6 6 33 36 37 38 41 rings
6 8 32 34 35 40 43 rings

> <PUBCHEM_HEAVY_ATOM_COUNT>
45

> <PUBCHEM_ATOM_DEF_STEREO_COUNT>
19

> <PUBCHEM_ATOM_UDEF_STEREO_COUNT>
1

> <PUBCHEM_BOND_DEF_STEREO_COUNT>
0

> <PUBCHEM_BOND_UDEF_STEREO_COUNT>
0

> <PUBCHEM_ISOTOPIC_ATOM_COUNT>
0

> <PUBCHEM_COMPONENT_COUNT>
1

> <PUBCHEM_CACTVS_TAUTO_COUNT>
1

> <PUBCHEM_CONFORMER_ID>
0006B55700000002

> <PUBCHEM_MMFF94_ENERGY>
143.0197

> <PUBCHEM_FEATURE_SELFOVERLAP>
198.136

> <PUBCHEM_SHAPE_FINGERPRINT>
10 15 17418375787848197119
10673678 19 18187647960440392538
11007060 377 18412547622341933307
11456790 92 18200889456489216288
12120059 9 10591179281798589497
12373685 5 12750937893799023896
14747281 78 17822558499659557631
14849402 71 18410291381421976321
15082195 135 17749387096554095226
15183329 4 15285363946743671667
21033648 29 18115602426908164864
22149856 69 17130978936432312393
24771293 8 18413108347048868173
394071 54 18411702088403163437
3986486 107 18336248112787346932
4093350 32 18187362151536069694
4112364 45 14548439273634783118
4169191 19 18334297574352825941
42767 39 10663811971261671745
44317340 157 18409169913794600578
504579 68 16877654678080351018
5109719 28 18201715120321982756
5223283 242 18116418427670976430
9689198 14 18260263031878717056

> <PUBCHEM_SHAPE_MULTIPOLES>
802.82
25.54
4.1
2.25
12.7
0.66
-0.22
19.33
-0.13
-2.25
0.19
-2.46
0.29
1.01

> <PUBCHEM_SHAPE_SELFOVERLAP>
1666.52

> <PUBCHEM_SHAPE_VOLUME>
446.4

> <PUBCHEM_COORDINATE_TYPE>
2
5
10

$$$$

