440259
  -OEChem-07051212493D

 20 19  0     1  0  0  0  0  0999 V2000
    1.4314    1.5508   -1.0420 O   0  0  0  0  0  0  0  0  0  0  0  0
    3.1678    1.2342    0.3833 O   0  0  0  0  0  0  0  0  0  0  0  0
   -1.6693   -1.5999   -0.6083 O   0  0  0  0  0  0  0  0  0  0  0  0
   -3.6746    0.0272   -0.6222 O   0  0  0  0  0  0  0  0  0  0  0  0
   -2.5377    1.4877    0.7193 O   0  0  0  0  0  0  0  0  0  0  0  0
   -0.3960   -0.1987    0.7621 N   0  0  0  0  0  0  0  0  0  0  0  0
    3.0055   -1.4728   -0.0863 N   0  0  0  0  0  0  0  0  0  0  0  0
    1.7917   -0.6766   -0.2542 C   0  0  1  0  0  0  0  0  0  0  0  0
    0.7938   -1.0034    0.8577 C   0  0  0  0  0  0  0  0  0  0  0  0
    2.2212    0.7808   -0.2463 C   0  0  0  0  0  0  0  0  0  0  0  0
   -1.5102   -0.5765    0.0386 C   0  0  0  0  0  0  0  0  0  0  0  0
   -2.6236    0.4472    0.0982 C   0  0  0  0  0  0  0  0  0  0  0  0
    1.3615   -0.9057   -1.2366 H   0  0  0  0  0  0  0  0  0  0  0  0
    1.2282   -0.8005    1.8437 H   0  0  0  0  0  0  0  0  0  0  0  0
    0.5108   -2.0619    0.8217 H   0  0  0  0  0  0  0  0  0  0  0  0
   -0.4054    0.6924    1.2502 H   0  0  0  0  0  0  0  0  0  0  0  0
    3.6246   -1.3273   -0.8832 H   0  0  0  0  0  0  0  0  0  0  0  0
    2.7681   -2.4642   -0.0902 H   0  0  0  0  0  0  0  0  0  0  0  0
    1.7143    2.4901   -1.0377 H   0  0  0  0  0  0  0  0  0  0  0  0
   -4.4162    0.6690   -0.6057 H   0  0  0  0  0  0  0  0  0  0  0  0
  1 10  1  0  0  0  0
  1 19  1  0  0  0  0
  2 10  2  0  0  0  0
  3 11  2  0  0  0  0
  4 12  1  0  0  0  0
  4 20  1  0  0  0  0
  5 12  2  0  0  0  0
  6  9  1  0  0  0  0
  6 11  1  0  0  0  0
  6 16  1  0  0  0  0
  7  8  1  0  0  0  0
  7 17  1  0  0  0  0
  7 18  1  0  0  0  0
  8  9  1  0  0  0  0
  8 10  1  0  0  0  0
  8 13  1  0  0  0  0
  9 14  1  0  0  0  0
  9 15  1  0  0  0  0
 11 12  1  0  0  0  0
M  END
> <PUBCHEM_COMPOUND_CID>
440259

> <PUBCHEM_CONFORMER_RMSD>
0.6

> <PUBCHEM_CONFORMER_DIVERSEORDER>
1
19
4
20
8
17
12
14
16
18
11
2
7
9
6
21
10
13
15
5
3

> <PUBCHEM_MMFF94_PARTIAL_CHARGES>
17
1 -0.65
10 0.66
11 0.63
12 0.72
16 0.37
17 0.36
18 0.36
19 0.5
2 -0.57
20 0.5
3 -0.57
4 -0.65
5 -0.57
6 -0.73
7 -0.99
8 0.33
9 0.3

> <PUBCHEM_EFFECTIVE_ROTOR_COUNT>
5

> <PUBCHEM_PHARMACOPHORE_FEATURES>
10
1 1 acceptor
1 2 acceptor
1 3 acceptor
1 4 acceptor
1 5 acceptor
1 6 donor
1 7 cation
1 7 donor
3 1 2 10 anion
3 4 5 12 anion

> <PUBCHEM_HEAVY_ATOM_COUNT>
12

> <PUBCHEM_ATOM_DEF_STEREO_COUNT>
1

> <PUBCHEM_ATOM_UDEF_STEREO_COUNT>
0

> <PUBCHEM_BOND_DEF_STEREO_COUNT>
0

> <PUBCHEM_BOND_UDEF_STEREO_COUNT>
0

> <PUBCHEM_ISOTOPIC_ATOM_COUNT>
0

> <PUBCHEM_COMPONENT_COUNT>
1

> <PUBCHEM_CACTVS_TAUTO_COUNT>
2

> <PUBCHEM_CONFORMER_ID>
0006B7C300000001

> <PUBCHEM_MMFF94_ENERGY>
9.128

> <PUBCHEM_FEATURE_SELFOVERLAP>
50.87

> <PUBCHEM_SHAPE_FINGERPRINT>
10857977 72 14620500238694100859
12162725 195 18334576866794878105
12897270 3 18114179666517891922
12932764 1 17968649424236208826
13618510 140 18200866284259737524
14325111 11 18408602582583620961
14390081 3 18410854347874154545
14897335 6 18410017606540281706
15775835 57 18408597054739528681
18186145 218 18272366507606721915
19973954 147 18271515399591302850
20653085 51 18337379547920213035
20711983 171 17967809496379643117
230 275 18202562869498253384
23552423 10 18410578396225847691
305870 269 18060147535036398786
3248919 1 18343023259258673795
9939556 21 18407760347892040382

> <PUBCHEM_SHAPE_MULTIPOLES>
207.65
5.49
1.6
0.86
1.37
0.11
-0.02
0.93
0.43
-0.58
0.1
0.06
0.05
-0.39

> <PUBCHEM_SHAPE_SELFOVERLAP>
405.262

> <PUBCHEM_SHAPE_VOLUME>
123.3

> <PUBCHEM_COORDINATE_TYPE>
2
5
10

$$$$

