6852404
  -OEChem-07051213073D

 49 52  0     1  0  0  0  0  0999 V2000
    4.2292    0.7729    0.2736 O   0  0  0  0  0  0  0  0  0  0  0  0
    5.8573   -0.4186   -0.8518 O   0  0  0  0  0  0  0  0  0  0  0  0
   -6.7318    0.4614    0.3977 O   0  0  0  0  0  0  0  0  0  0  0  0
    1.8020    0.3524    0.1591 C   0  0  1  0  0  0  0  0  0  0  0  0
    1.0459   -0.9039   -0.3180 C   0  0  2  0  0  0  0  0  0  0  0  0
   -0.4276   -0.8790    0.0873 C   0  0  1  0  0  0  0  0  0  0  0  0
   -1.1079    0.3544   -0.5806 C   0  0  2  0  0  0  0  0  0  0  0  0
    3.2170   -0.0071   -0.3328 C   0  0  2  0  0  0  0  0  0  0  0  0
    1.1737    1.5746   -0.5216 C   0  0  0  0  0  0  0  0  0  0  0  0
    1.9323   -2.0528    0.1546 C   0  0  0  0  0  0  0  0  0  0  0  0
   -0.3411    1.6642   -0.2540 C   0  0  0  0  0  0  0  0  0  0  0  0
    3.3631   -1.5021    0.0126 C   0  0  0  0  0  0  0  0  0  0  0  0
   -1.1741   -2.1466   -0.3326 C   0  0  0  0  0  0  0  0  0  0  0  0
    1.8037    0.5663    1.6945 C   0  0  0  0  0  0  0  0  0  0  0  0
   -2.6045    0.3893   -0.2828 C   0  0  0  0  0  0  0  0  0  0  0  0
   -2.5940   -2.1198    0.2251 C   0  0  0  0  0  0  0  0  0  0  0  0
   -3.2964   -0.7948    0.0542 C   0  0  0  0  0  0  0  0  0  0  0  0
   -3.3466    1.5754   -0.4226 C   0  0  0  0  0  0  0  0  0  0  0  0
   -4.6815   -0.7532    0.2924 C   0  0  0  0  0  0  0  0  0  0  0  0
    5.5184    0.4626   -0.0736 C   0  0  0  0  0  0  0  0  0  0  0  0
   -4.7238    1.6008   -0.1922 C   0  0  0  0  0  0  0  0  0  0  0  0
   -5.3909    0.4379    0.1701 C   0  0  0  0  0  0  0  0  0  0  0  0
    6.4775    1.3656    0.6412 C   0  0  0  0  0  0  0  0  0  0  0  0
    1.0732   -0.9330   -1.4202 H   0  0  0  0  0  0  0  0  0  0  0  0
   -0.5064   -0.7968    1.1791 H   0  0  0  0  0  0  0  0  0  0  0  0
   -1.0391    0.2212   -1.6715 H   0  0  0  0  0  0  0  0  0  0  0  0
    3.2743    0.1264   -1.4225 H   0  0  0  0  0  0  0  0  0  0  0  0
    1.3292    1.5194   -1.6070 H   0  0  0  0  0  0  0  0  0  0  0  0
    1.6622    2.4981   -0.1881 H   0  0  0  0  0  0  0  0  0  0  0  0
    1.7913   -2.9549   -0.4494 H   0  0  0  0  0  0  0  0  0  0  0  0
    1.7257   -2.3166    1.1978 H   0  0  0  0  0  0  0  0  0  0  0  0
   -0.5206    1.9484    0.7900 H   0  0  0  0  0  0  0  0  0  0  0  0
   -0.7250    2.4899   -0.8643 H   0  0  0  0  0  0  0  0  0  0  0  0
    3.9297   -1.6689    0.9357 H   0  0  0  0  0  0  0  0  0  0  0  0
    3.8863   -2.0337   -0.7900 H   0  0  0  0  0  0  0  0  0  0  0  0
   -0.6675   -3.0463    0.0341 H   0  0  0  0  0  0  0  0  0  0  0  0
   -1.2037   -2.2207   -1.4274 H   0  0  0  0  0  0  0  0  0  0  0  0
    2.3617    1.4730    1.9564 H   0  0  0  0  0  0  0  0  0  0  0  0
    0.7982    0.6857    2.1064 H   0  0  0  0  0  0  0  0  0  0  0  0
    2.2716   -0.2644    2.2321 H   0  0  0  0  0  0  0  0  0  0  0  0
   -2.5601   -2.3459    1.2986 H   0  0  0  0  0  0  0  0  0  0  0  0
   -3.1752   -2.9136   -0.2596 H   0  0  0  0  0  0  0  0  0  0  0  0
   -2.8707    2.5045   -0.7214 H   0  0  0  0  0  0  0  0  0  0  0  0
   -5.2093   -1.6623    0.5737 H   0  0  0  0  0  0  0  0  0  0  0  0
   -5.2624    2.5382   -0.3043 H   0  0  0  0  0  0  0  0  0  0  0  0
    6.3711    1.2373    1.7212 H   0  0  0  0  0  0  0  0  0  0  0  0
    6.2903    2.4039    0.3563 H   0  0  0  0  0  0  0  0  0  0  0  0
    7.5013    1.1049    0.3581 H   0  0  0  0  0  0  0  0  0  0  0  0
   -7.0582    1.3681    0.2662 H   0  0  0  0  0  0  0  0  0  0  0  0
  1  8  1  0  0  0  0
  1 20  1  0  0  0  0
  2 20  2  0  0  0  0
  3 22  1  0  0  0  0
  3 49  1  0  0  0  0
  4  5  1  0  0  0  0
  4  8  1  0  0  0  0
  4  9  1  0  0  0  0
  4 14  1  0  0  0  0
  5  6  1  0  0  0  0
  5 10  1  0  0  0  0
  5 24  1  0  0  0  0
  6  7  1  0  0  0  0
  6 13  1  0  0  0  0
  6 25  1  0  0  0  0
  7 11  1  0  0  0  0
  7 15  1  0  0  0  0
  7 26  1  0  0  0  0
  8 12  1  0  0  0  0
  8 27  1  0  0  0  0
  9 11  1  0  0  0  0
  9 28  1  0  0  0  0
  9 29  1  0  0  0  0
 10 12  1  0  0  0  0
 10 30  1  0  0  0  0
 10 31  1  0  0  0  0
 11 32  1  0  0  0  0
 11 33  1  0  0  0  0
 12 34  1  0  0  0  0
 12 35  1  0  0  0  0
 13 16  1  0  0  0  0
 13 36  1  0  0  0  0
 13 37  1  0  0  0  0
 14 38  1  0  0  0  0
 14 39  1  0  0  0  0
 14 40  1  0  0  0  0
 15 17  2  0  0  0  0
 15 18  1  0  0  0  0
 16 17  1  0  0  0  0
 16 41  1  0  0  0  0
 16 42  1  0  0  0  0
 17 19  1  0  0  0  0
 18 21  2  0  0  0  0
 18 43  1  0  0  0  0
 19 22  2  0  0  0  0
 19 44  1  0  0  0  0
 20 23  1  0  0  0  0
 21 22  1  0  0  0  0
 21 45  1  0  0  0  0
 23 46  1  0  0  0  0
 23 47  1  0  0  0  0
 23 48  1  0  0  0  0
M  END
> <PUBCHEM_COMPOUND_CID>
6852404

> <PUBCHEM_CONFORMER_RMSD>
0.6

> <PUBCHEM_CONFORMER_DIVERSEORDER>
1
2

> <PUBCHEM_MMFF94_PARTIAL_CHARGES>
18
1 -0.43
15 -0.14
16 0.14
17 -0.14
18 -0.15
19 -0.15
2 -0.57
20 0.66
21 -0.15
22 0.08
23 0.06
3 -0.53
43 0.15
44 0.15
45 0.15
49 0.45
7 0.14
8 0.28

> <PUBCHEM_EFFECTIVE_ROTOR_COUNT>
3.4

> <PUBCHEM_PHARMACOPHORE_FEATURES>
6
1 2 acceptor
1 3 donor
5 4 5 8 10 12 rings
6 15 17 18 19 21 22 rings
6 4 5 6 7 9 11 rings
6 6 7 13 15 16 17 rings

> <PUBCHEM_HEAVY_ATOM_COUNT>
23

> <PUBCHEM_ATOM_DEF_STEREO_COUNT>
5

> <PUBCHEM_ATOM_UDEF_STEREO_COUNT>
0

> <PUBCHEM_BOND_DEF_STEREO_COUNT>
0

> <PUBCHEM_BOND_UDEF_STEREO_COUNT>
0

> <PUBCHEM_ISOTOPIC_ATOM_COUNT>
0

> <PUBCHEM_COMPONENT_COUNT>
1

> <PUBCHEM_CACTVS_TAUTO_COUNT>
9

> <PUBCHEM_CONFORMER_ID>
00688F3400000001

> <PUBCHEM_MMFF94_ENERGY>
72.97

> <PUBCHEM_FEATURE_SELFOVERLAP>
30.544

> <PUBCHEM_SHAPE_FINGERPRINT>
10 15 18272653411881258256
10366900 7 17603873316422692873
10411042 1 17762900957648544935
10493431 412 18411983554800475871
10906281 52 18129645448977754574
11089746 13 17531251634006683536
11578080 2 13913696836693735953
11595378 159 17274837885978800788
12011746 2 18407760348076318989
12236239 1 18411136939410402246
12390115 104 18189886690479250657
12403259 415 18334586758643131385
12788726 201 17532089565004410369
12838862 33 18340786887595484077
13140716 1 18197216949316632665
13402501 40 18409447003218798645
13533116 47 17677050260294897535
14251764 18 18411981356441767635
14341114 176 18411974802205466979
14617045 38 18411695504218265991
14790565 3 18269270167289418308
15048467 5 18333450928565788760
15196674 1 18340206387867471639
1601671 61 18411702084514254412
17980427 23 17916866799345677830
1813 80 16845568755264359774
18608769 82 18338514141374047955
19784866 170 18413952793031804022
20281389 69 18343023302472175136
20681677 155 18343303651861395531
21033648 29 17896050866440911258
21236236 1 18335703793795503879
21267235 1 18341603798447984207
21279426 13 18192147315922728188
21421861 104 17845104033333015690
21521721 280 18186800249786621328
23402539 116 18334862692541850454
23559900 14 18261399901264143121
23622692 118 18044945567402307727
293599 30 18408885135602579534
3004659 81 18341890853362977742
335352 9 18411417293458742900
34797466 226 17676482839839502148
34934 24 18411141333331147398
350125 39 18411417306797552317
3545911 37 18410572894235032725
4073 2 18130782318463719434
4214541 1 18411981356067156293
4325135 7 17846776313177399948
4340502 62 18411420626912565814
4463277 17 18410573981120416388
5104073 3 18271243936141200891
542803 24 17458063785344720425
6328613 192 18334853892291504552

> <PUBCHEM_SHAPE_MULTIPOLES>
455.72
13.62
2.07
0.85
3.34
0.59
-0.19
-4.29
-1.07
-0.43
0.08
0.4
-0.1
0.54

> <PUBCHEM_SHAPE_SELFOVERLAP>
986.151

> <PUBCHEM_SHAPE_VOLUME>
248.5

> <PUBCHEM_COORDINATE_TYPE>
2
5
10

$$$$

