11953961
  -OEChem-07051213022D

 49 52  0     1  0  0  0  0  0999 V2000
    7.5587   -2.5301    0.0000 O   0  0  0  0  0  0  0  0  0  0  0  0
    9.2080   -2.0013    0.0000 O   0  0  0  0  0  0  0  0  0  0  0  0
    6.2760   -1.3662    0.0000 O   0  0  0  0  0  0  0  0  0  0  0  0
    6.9654    2.0780    0.0000 N   0  3  0  0  0  0  0  0  0  0  0  0
    4.5124    0.9605    0.0000 N   0  0  0  0  0  0  0  0  0  0  0  0
    6.2962    1.3348    0.0000 C   0  0  1  0  0  0  0  0  0  0  0  0
    6.6028    0.3393    0.0000 C   0  0  0  0  0  0  0  0  0  0  0  0
    7.6200    0.1149    0.0000 C   0  0  1  0  0  0  0  0  0  0  0  0
    5.3181    1.5427    0.0000 C   0  0  0  0  0  0  0  0  0  0  0  0
    8.3170    0.8890    0.0000 C   0  0  2  0  0  0  0  0  0  0  0  0
    6.6564    3.0290    0.0000 C   0  0  0  0  0  0  0  0  0  0  0  0
    5.0091    2.4938    0.0000 C   0  0  0  0  0  0  0  0  0  0  0  0
    5.6782    3.2369    0.0000 C   0  0  0  0  0  0  0  0  0  0  0  0
    7.9875    1.8771    0.0000 C   0  0  0  0  0  0  0  0  0  0  0  0
    4.0150    2.4912    0.0000 C   0  0  0  0  0  0  0  0  0  0  0  0
    7.9253   -0.8373    0.0000 C   0  0  0  0  0  0  0  0  0  0  0  0
    3.7086    1.5455    0.0000 C   0  0  0  0  0  0  0  0  0  0  0  0
    9.2959    0.6848    0.0000 C   0  0  0  0  0  0  0  0  0  0  0  0
    3.3334    3.2707    0.0000 C   0  0  0  0  0  0  0  0  0  0  0  0
    2.6994    1.3138    0.0000 C   0  0  0  0  0  0  0  0  0  0  0  0
    7.2533   -1.5779    0.0000 C   0  0  0  0  0  0  0  0  0  0  0  0
    8.9027   -1.0490    0.0000 C   0  0  0  0  0  0  0  0  0  0  0  0
    9.9622    1.4306    0.0000 C   0  0  0  0  0  0  0  0  0  0  0  0
    2.3191    3.0624    0.0000 C   0  0  0  0  0  0  0  0  0  0  0  0
    2.0000    2.0773    0.0000 C   0  0  0  0  0  0  0  0  0  0  0  0
    6.8867   -3.2707    0.0000 C   0  0  0  0  0  0  0  0  0  0  0  0
    5.7226    0.7075    0.0000 H   0  0  0  0  0  0  0  0  0  0  0  0
    5.9878    0.2609    0.0000 H   0  0  0  0  0  0  0  0  0  0  0  0
    6.5748   -0.2800    0.0000 H   0  0  0  0  0  0  0  0  0  0  0  0
    8.2262   -0.0152    0.0000 H   0  0  0  0  0  0  0  0  0  0  0  0
    8.5097    0.2997    0.0000 H   0  0  0  0  0  0  0  0  0  0  0  0
    7.2703    3.1153    0.0000 H   0  0  0  0  0  0  0  0  0  0  0  0
    6.6780    3.6486    0.0000 H   0  0  0  0  0  0  0  0  0  0  0  0
    5.9105    3.8118    0.0000 H   0  0  0  0  0  0  0  0  0  0  0  0
    5.1524    3.5655    0.0000 H   0  0  0  0  0  0  0  0  0  0  0  0
    8.3970    2.3426    0.0000 H   0  0  0  0  0  0  0  0  0  0  0  0
    4.5113    0.3405    0.0000 H   0  0  0  0  0  0  0  0  0  0  0  0
    9.4898    0.0959    0.0000 H   0  0  0  0  0  0  0  0  0  0  0  0
    3.5313    3.8583    0.0000 H   0  0  0  0  0  0  0  0  0  0  0  0
    2.5152    0.7218    0.0000 H   0  0  0  0  0  0  0  0  0  0  0  0
    9.3193   -0.5899    0.0000 H   0  0  0  0  0  0  0  0  0  0  0  0
   10.5691    1.3040    0.0000 H   0  0  0  0  0  0  0  0  0  0  0  0
    9.7683    2.0195    0.0000 H   0  0  0  0  0  0  0  0  0  0  0  0
    1.9056    3.5243    0.0000 H   0  0  0  0  0  0  0  0  0  0  0  0
    1.3942    1.9455    0.0000 H   0  0  0  0  0  0  0  0  0  0  0  0
    9.8140   -2.1325    0.0000 H   0  0  0  0  0  0  0  0  0  0  0  0
    6.4276   -2.8541    0.0000 H   0  0  0  0  0  0  0  0  0  0  0  0
    6.4701   -3.7298    0.0000 H   0  0  0  0  0  0  0  0  0  0  0  0
    7.3458   -3.6873    0.0000 H   0  0  0  0  0  0  0  0  0  0  0  0
  1 21  1  0  0  0  0
  1 26  1  0  0  0  0
  2 22  1  0  0  0  0
  2 46  1  0  0  0  0
  3 21  2  0  0  0  0
  4  6  1  0  0  0  0
  4 11  1  0  0  0  0
  4 14  2  0  0  0  0
  5  9  1  0  0  0  0
  5 17  1  0  0  0  0
  5 37  1  0  0  0  0
  6  7  1  0  0  0  0
  6  9  1  0  0  0  0
  6 27  1  6  0  0  0
  7  8  1  0  0  0  0
  7 28  1  0  0  0  0
  7 29  1  0  0  0  0
  8 10  1  0  0  0  0
  8 16  1  1  0  0  0
  8 30  1  0  0  0  0
  9 12  2  0  0  0  0
 10 14  1  0  0  0  0
 10 18  1  6  0  0  0
 10 31  1  0  0  0  0
 11 13  1  0  0  0  0
 11 32  1  0  0  0  0
 11 33  1  0  0  0  0
 12 13  1  0  0  0  0
 12 15  1  0  0  0  0
 13 34  1  0  0  0  0
 13 35  1  0  0  0  0
 14 36  1  0  0  0  0
 15 17  1  0  0  0  0
 15 19  2  0  0  0  0
 16 21  1  0  0  0  0
 16 22  2  0  0  0  0
 17 20  2  0  0  0  0
 18 23  2  0  0  0  0
 18 38  1  0  0  0  0
 19 24  1  0  0  0  0
 19 39  1  0  0  0  0
 20 25  1  0  0  0  0
 20 40  1  0  0  0  0
 22 41  1  0  0  0  0
 23 42  1  0  0  0  0
 23 43  1  0  0  0  0
 24 25  2  0  0  0  0
 24 44  1  0  0  0  0
 25 45  1  0  0  0  0
 26 47  1  0  0  0  0
 26 48  1  0  0  0  0
 26 49  1  0  0  0  0
M  CHG  1   4   1
M  END
> <PUBCHEM_COMPOUND_CID>
11953961

> <PUBCHEM_COMPOUND_CANONICALIZED>
1

> <PUBCHEM_CACTVS_COMPLEXITY>
641

> <PUBCHEM_CACTVS_HBOND_ACCEPTOR>
3

> <PUBCHEM_CACTVS_HBOND_DONOR>
2

> <PUBCHEM_CACTVS_ROTATABLE_BOND>
4

> <PUBCHEM_CACTVS_SUBSKEYS>
AAADceB7MAAAAAAAAAAAAAAAAAAAAWAAAAA8QIAAAAAAAFiB8AAAHgAQCAAADSjhngYyyPPJlgCoAzTzTACCgCAhIiAImSE4ZNgIdPLAsZGUIAhkkADI6IeY2eOegAAAAAACAAAAAAAAAAQAAAAAAAAAAA==

> <PUBCHEM_IUPAC_OPENEYE_NAME>
methyl (Z)-2-[(2S,3R,12bS)-3-vinyl-2,3,6,7,12,12b-hexahydro-1H-indolo[2,3-a]quinolizin-5-ium-2-yl]-3-hydroxy-prop-2-enoate

> <PUBCHEM_IUPAC_CAS_NAME>
(Z)-2-[(2S,3R,12bS)-3-ethenyl-2,3,6,7,12,12b-hexahydro-1H-indolo[2,3-a]quinolizin-5-ium-2-yl]-3-hydroxy-2-propenoic acid methyl ester

> <PUBCHEM_IUPAC_NAME>
methyl (Z)-2-[(2S,3R,12bS)-3-ethenyl-2,3,6,7,12,12b-hexahydro-1H-indolo[2,3-a]quinolizin-5-ium-2-yl]-3-hydroxyprop-2-enoate

> <PUBCHEM_IUPAC_SYSTEMATIC_NAME>
methyl (Z)-2-[(2S,3R,12bS)-3-ethenyl-2,3,6,7,12,12b-hexahydro-1H-indolo[2,3-a]quinolizin-5-ium-2-yl]-3-oxidanyl-prop-2-enoate

> <PUBCHEM_IUPAC_TRADITIONAL_NAME>
(Z)-2-[(2S,3R,12bS)-3-vinyl-2,3,6,7,12,12b-hexahydro-1H-pyrido[2,1-a]$b-carbolin-5-ium-2-yl]-3-hydroxy-acrylic acid methyl ester

> <PUBCHEM_IUPAC_INCHI>
InChI=1S/C21H22N2O3/c1-3-13-11-23-9-8-15-14-6-4-5-7-18(14)22-20(15)19(23)10-16(13)17(12-24)21(25)26-2/h3-7,11-13,16,19,22H,1,8-10H2,2H3/p+1/t13-,16-,19-/m0/s1

> <PUBCHEM_IUPAC_INCHIKEY>
ALAYFJAHDKALQW-AXHNFQJDSA-O

> <PUBCHEM_XLOGP3_AA>
2.7

> <PUBCHEM_EXACT_MASS>
351.170868

> <PUBCHEM_MOLECULAR_FORMULA>
C21H23N2O3+

> <PUBCHEM_MOLECULAR_WEIGHT>
351.41892

> <PUBCHEM_OPENEYE_CAN_SMILES>
COC(=O)C(=CO)C1CC2C3=C(CC[N+]2=CC1C=C)C4=CC=CC=C4N3

> <PUBCHEM_OPENEYE_ISO_SMILES>
COC(=O)/C(=C\O)/[C@H]1C[C@H]2C3=C(CC[N+]2=C[C@@H]1C=C)C4=CC=CC=C4N3

> <PUBCHEM_CACTVS_TPSA>
65.3

> <PUBCHEM_MONOISOTOPIC_WEIGHT>
351.170868

> <PUBCHEM_TOTAL_CHARGE>
1

> <PUBCHEM_HEAVY_ATOM_COUNT>
26

> <PUBCHEM_ATOM_DEF_STEREO_COUNT>
3

> <PUBCHEM_ATOM_UDEF_STEREO_COUNT>
0

> <PUBCHEM_BOND_DEF_STEREO_COUNT>
1

> <PUBCHEM_BOND_UDEF_STEREO_COUNT>
0

> <PUBCHEM_ISOTOPIC_ATOM_COUNT>
0

> <PUBCHEM_COMPONENT_COUNT>
1

> <PUBCHEM_CACTVS_TAUTO_COUNT>
3

> <PUBCHEM_COORDINATE_TYPE>
1
5
255

> <PUBCHEM_BONDANNOTATIONS>
10  18  6
12  15  8
15  17  8
15  19  8
17  20  8
19  24  8
20  25  8
24  25  8
5  17  8
5  9  8
6  27  6
8  16  5
9  12  8

$$$$

