30840
  -OEChem-07051213092D

 64 71  0     1  0  0  0  0  0999 V2000
    7.4705   -0.0403    0.0000 O   0  0  0  0  0  0  0  0  0  0  0  0
    4.4956   -1.2475    0.0000 O   0  0  0  0  0  0  0  0  0  0  0  0
    3.4907   -0.6777    0.0000 O   0  0  0  0  0  0  0  0  0  0  0  0
    2.6853    0.0543    0.0000 O   0  0  0  0  0  0  0  0  0  0  0  0
    6.8321    1.2859    0.0000 O   0  0  0  0  0  0  0  0  0  0  0  0
    6.4956   -2.0854    0.0000 O   0  0  0  0  0  0  0  0  0  0  0  0
    3.3680    3.2859    0.0000 O   0  0  0  0  0  0  0  0  0  0  0  0
    2.4645   -1.7181    0.0000 O   0  0  0  0  0  0  0  0  0  0  0  0
    7.7362    2.7827    0.0000 O   0  0  0  0  0  0  0  0  0  0  0  0
    6.2895   -3.8513    0.0000 O   0  0  0  0  0  0  0  0  0  0  0  0
    4.2122    4.8173    0.0000 O   0  0  0  0  0  0  0  0  0  0  0  0
    2.3480   -3.4922    0.0000 O   0  0  0  0  0  0  0  0  0  0  0  0
    5.6000   -0.2530    0.0000 C   0  0  3  0  0  0  0  0  0  0  0  0
    5.9090    0.6981    0.0000 C   0  0  3  0  0  0  0  0  0  0  0  0
    5.1000    1.2859    0.0000 C   0  0  3  0  0  0  0  0  0  0  0  0
    5.0521   -1.0771    0.0000 C   0  0  3  0  0  0  0  0  0  0  0  0
    4.2910    0.6981    0.0000 C   0  0  3  0  0  0  0  0  0  0  0  0
    6.0421   -1.0115    0.0000 C   0  0  3  0  0  0  0  0  0  0  0  0
    4.6000   -0.2530    0.0000 C   0  0  3  0  0  0  0  0  0  0  0  0
    6.4735   -0.1180    0.0000 C   0  0  3  0  0  0  0  0  0  0  0  0
    4.2340    1.7859    0.0000 C   0  0  0  0  0  0  0  0  0  0  0  0
    4.0665   -0.9873    0.0000 C   0  0  0  0  0  0  0  0  0  0  0  0
    3.6765   -0.0777    0.0000 C   0  0  0  0  0  0  0  0  0  0  0  0
    4.3305   -0.1348    0.0000 C   0  0  0  0  0  0  0  0  0  0  0  0
    5.9660    1.7859    0.0000 C   0  0  0  0  0  0  0  0  0  0  0  0
    5.4987   -2.0062    0.0000 C   0  0  0  0  0  0  0  0  0  0  0  0
    4.2340    2.7859    0.0000 C   0  0  0  0  0  0  0  0  0  0  0  0
    3.4592   -1.8204    0.0000 C   0  0  0  0  0  0  0  0  0  0  0  0
    5.9660    2.7859    0.0000 C   0  0  0  0  0  0  0  0  0  0  0  0
    4.9109   -2.8530    0.0000 C   0  0  0  0  0  0  0  0  0  0  0  0
    5.1000    3.2859    0.0000 C   0  0  0  0  0  0  0  0  0  0  0  0
    3.8843   -2.7595    0.0000 C   0  0  0  0  0  0  0  0  0  0  0  0
    6.8760    3.2927    0.0000 C   0  0  0  0  0  0  0  0  0  0  0  0
    5.2955   -3.7422    0.0000 C   0  0  0  0  0  0  0  0  0  0  0  0
    5.0840    4.3274    0.0000 C   0  0  0  0  0  0  0  0  0  0  0  0
    3.3454   -3.5646    0.0000 C   0  0  0  0  0  0  0  0  0  0  0  0
    6.8841    4.3343    0.0000 C   0  0  0  0  0  0  0  0  0  0  0  0
    4.7272   -4.5269    0.0000 C   0  0  0  0  0  0  0  0  0  0  0  0
    3.7625   -4.4390    0.0000 C   0  0  0  0  0  0  0  0  0  0  0  0
    5.9820    4.8551    0.0000 C   0  0  0  0  0  0  0  0  0  0  0  0
    7.7520    4.8310    0.0000 C   0  0  0  0  0  0  0  0  0  0  0  0
    5.1410   -5.4373    0.0000 C   0  0  0  0  0  0  0  0  0  0  0  0
    6.3525    1.1314    0.0000 H   0  0  0  0  0  0  0  0  0  0  0  0
    5.2356    0.2486    0.0000 H   0  0  0  0  0  0  0  0  0  0  0  0
    3.8618    1.1455    0.0000 H   0  0  0  0  0  0  0  0  0  0  0  0
    6.3889   -1.5255    0.0000 H   0  0  0  0  0  0  0  0  0  0  0  0
    6.8233   -0.6299    0.0000 H   0  0  0  0  0  0  0  0  0  0  0  0
    3.9834   -0.3178    0.0000 H   0  0  0  0  0  0  0  0  0  0  0  0
    7.8212   -0.5516    0.0000 H   0  0  0  0  0  0  0  0  0  0  0  0
    4.7477   -1.8139    0.0000 H   0  0  0  0  0  0  0  0  0  0  0  0
    2.8310    2.9759    0.0000 H   0  0  0  0  0  0  0  0  0  0  0  0
    2.1012   -2.2205    0.0000 H   0  0  0  0  0  0  0  0  0  0  0  0
    5.9796    5.4751    0.0000 H   0  0  0  0  0  0  0  0  0  0  0  0
    3.4081   -4.9478    0.0000 H   0  0  0  0  0  0  0  0  0  0  0  0
    8.2767    3.0865    0.0000 H   0  0  0  0  0  0  0  0  0  0  0  0
    6.5391   -4.4189    0.0000 H   0  0  0  0  0  0  0  0  0  0  0  0
    4.2050    5.4373    0.0000 H   0  0  0  0  0  0  0  0  0  0  0  0
    2.0000   -4.0053    0.0000 H   0  0  0  0  0  0  0  0  0  0  0  0
    4.5766   -5.6938    0.0000 H   0  0  0  0  0  0  0  0  0  0  0  0
    5.3976   -6.0017    0.0000 H   0  0  0  0  0  0  0  0  0  0  0  0
    5.7054   -5.1808    0.0000 H   0  0  0  0  0  0  0  0  0  0  0  0
    8.0599    4.2928    0.0000 H   0  0  0  0  0  0  0  0  0  0  0  0
    8.2901    5.1389    0.0000 H   0  0  0  0  0  0  0  0  0  0  0  0
    7.4441    5.3691    0.0000 H   0  0  0  0  0  0  0  0  0  0  0  0
  1 20  1  0  0  0  0
  1 49  1  0  0  0  0
  2 19  1  0  0  0  0
  2 50  1  0  0  0  0
  3 24  2  0  0  0  0
  4 23  2  0  0  0  0
  5 25  2  0  0  0  0
  6 26  2  0  0  0  0
  7 27  1  0  0  0  0
  7 51  1  0  0  0  0
  8 28  1  0  0  0  0
  8 52  1  0  0  0  0
  9 33  1  0  0  0  0
  9 55  1  0  0  0  0
 10 34  1  0  0  0  0
 10 56  1  0  0  0  0
 11 35  1  0  0  0  0
 11 57  1  0  0  0  0
 12 36  1  0  0  0  0
 12 58  1  0  0  0  0
 13 14  1  0  0  0  0
 13 16  1  0  0  0  0
 13 19  1  0  0  0  0
 13 44  1  0  0  0  0
 14 15  1  0  0  0  0
 14 20  1  0  0  0  0
 14 43  1  0  0  0  0
 15 17  1  0  0  0  0
 15 21  1  0  0  0  0
 15 25  1  0  0  0  0
 16 18  1  0  0  0  0
 16 22  1  0  0  0  0
 16 26  1  0  0  0  0
 17 19  1  0  0  0  0
 17 23  1  0  0  0  0
 17 45  1  0  0  0  0
 18 20  1  0  0  0  0
 18 24  1  0  0  0  0
 18 46  1  0  0  0  0
 19 48  1  0  0  0  0
 20 47  1  0  0  0  0
 21 24  1  0  0  0  0
 21 27  2  0  0  0  0
 22 23  1  0  0  0  0
 22 28  2  0  0  0  0
 25 29  1  0  0  0  0
 26 30  1  0  0  0  0
 27 31  1  0  0  0  0
 28 32  1  0  0  0  0
 29 31  1  0  0  0  0
 29 33  2  0  0  0  0
 30 32  1  0  0  0  0
 30 34  2  0  0  0  0
 31 35  2  0  0  0  0
 32 36  2  0  0  0  0
 33 37  1  0  0  0  0
 34 38  1  0  0  0  0
 35 40  1  0  0  0  0
 36 39  1  0  0  0  0
 37 40  2  0  0  0  0
 37 41  1  0  0  0  0
 38 39  2  0  0  0  0
 38 42  1  0  0  0  0
 39 54  1  0  0  0  0
 40 53  1  0  0  0  0
 41 62  1  0  0  0  0
 41 63  1  0  0  0  0
 41 64  1  0  0  0  0
 42 59  1  0  0  0  0
 42 60  1  0  0  0  0
 42 61  1  0  0  0  0
M  END
> <PUBCHEM_COMPOUND_CID>
30840

> <PUBCHEM_COMPOUND_CANONICALIZED>
1

> <PUBCHEM_CACTVS_COMPLEXITY>
1360

> <PUBCHEM_CACTVS_HBOND_ACCEPTOR>
12

> <PUBCHEM_CACTVS_HBOND_DONOR>
8

> <PUBCHEM_CACTVS_ROTATABLE_BOND>
0

> <PUBCHEM_CACTVS_SUBSKEYS>
AAADceB4PAAAAAAAAAAAAAAAAAAAAYMAAAAwYMGCAAAYAACBQAAAGgAACAAADxSgmAIyBoAAAgCIAqBSAAACAAAkIAAAiAEGCMgINzaCFRKAcUAl4BEImQfL7vTvwQADAAAYAACCAAYAADAAAYAADAAAAA==

> <PUBCHEM_IUPAC_INCHI>
InChI=1S/C30H22O12/c1-5-3-7(31)9-11(19(5)33)27(41)29-13-14-24(38)17(29)26(40)16-22(36)10-8(32)4-6(2)20(34)12(10)28(42)30(14,16)18(23(13)37)25(39)15(29)21(9)35/h3-4,13-14,17-18,23-24,31-38H,1-2H3

> <PUBCHEM_IUPAC_INCHIKEY>
FAZDYVMEXQHRLI-UHFFFAOYSA-N

> <PUBCHEM_XLOGP3_AA>
1.3

> <PUBCHEM_EXACT_MASS>
574.111126

> <PUBCHEM_MOLECULAR_FORMULA>
C30H22O12

> <PUBCHEM_MOLECULAR_WEIGHT>
574.48848

> <PUBCHEM_OPENEYE_CAN_SMILES>
CC1=CC(=C2C(=C1O)C(=O)C34C5C6C(C3C(=O)C7=C(C8=C(C=C(C(=C8C(=O)C67C(C5O)C(=O)C4=C2O)O)C)O)O)O)O

> <PUBCHEM_OPENEYE_ISO_SMILES>
CC1=CC(=C2C(=C1O)C(=O)C34C5C6C(C3C(=O)C7=C(C8=C(C=C(C(=C8C(=O)C67C(C5O)C(=O)C4=C2O)O)C)O)O)O)O

> <PUBCHEM_CACTVS_TPSA>
230

> <PUBCHEM_MONOISOTOPIC_WEIGHT>
574.111126

> <PUBCHEM_TOTAL_CHARGE>
0

> <PUBCHEM_HEAVY_ATOM_COUNT>
42

> <PUBCHEM_ATOM_DEF_STEREO_COUNT>
0

> <PUBCHEM_ATOM_UDEF_STEREO_COUNT>
8

> <PUBCHEM_BOND_DEF_STEREO_COUNT>
0

> <PUBCHEM_BOND_UDEF_STEREO_COUNT>
0

> <PUBCHEM_ISOTOPIC_ATOM_COUNT>
0

> <PUBCHEM_COMPONENT_COUNT>
1

> <PUBCHEM_CACTVS_TAUTO_COUNT>
999

> <PUBCHEM_COORDINATE_TYPE>
1
5
255

> <PUBCHEM_BONDANNOTATIONS>
20  1  3
13  19  3
14  20  3
15  25  3
16  26  3
17  23  3
18  24  3
19  2  3
29  31  8
29  33  8
30  32  8
30  34  8
31  35  8
32  36  8
33  37  8
34  38  8
35  40  8
36  39  8
37  40  8
38  39  8

$$$$

