249680
  -OEChem-07051213063D

 36 39  0     0  0  0  0  0  0999 V2000
   -4.2633    2.7463    0.2430 Cl  0  0  0  0  0  0  0  0  0  0  0  0
   -3.7692   -2.6923    0.2226 Cl  0  0  0  0  0  0  0  0  0  0  0  0
    2.3520   -1.8302   -0.1968 O   0  0  0  0  0  0  0  0  0  0  0  0
    4.3400   -2.9132    0.0747 O   0  0  0  0  0  0  0  0  0  0  0  0
   -1.9489    0.2167   -0.7875 N   0  0  0  0  0  0  0  0  0  0  0  0
    2.2225    0.6092   -0.1806 C   0  0  0  0  0  0  0  0  0  0  0  0
    3.6746    0.6591    0.0298 C   0  0  0  0  0  0  0  0  0  0  0  0
    1.6025   -0.6380   -0.2879 C   0  0  0  0  0  0  0  0  0  0  0  0
    4.4008   -0.5416    0.1171 C   0  0  0  0  0  0  0  0  0  0  0  0
    1.3895    1.7353   -0.2843 C   0  0  0  0  0  0  0  0  0  0  0  0
    0.2279   -0.7890   -0.4883 C   0  0  0  0  0  0  0  0  0  0  0  0
    4.3969    1.8613    0.1519 C   0  0  0  0  0  0  0  0  0  0  0  0
   -0.5712    0.3429   -0.5868 C   0  0  0  0  0  0  0  0  0  0  0  0
    3.7258   -1.8566    0.0006 C   0  0  0  0  0  0  0  0  0  0  0  0
    0.0090    1.6040   -0.4850 C   0  0  0  0  0  0  0  0  0  0  0  0
    5.7905   -0.5368    0.3178 C   0  0  0  0  0  0  0  0  0  0  0  0
    5.7806    1.8661    0.3516 C   0  0  0  0  0  0  0  0  0  0  0  0
    6.4771    0.6676    0.4346 C   0  0  0  0  0  0  0  0  0  0  0  0
   -4.1465    0.0151    0.2292 C   0  0  0  0  0  0  0  0  0  0  0  0
   -2.6808    0.1484    0.2825 C   0  0  0  0  0  0  0  0  0  0  0  0
   -4.9392    1.1562    0.2075 C   0  0  0  0  0  0  0  0  0  0  0  0
   -4.7211   -1.2500    0.2005 C   0  0  0  0  0  0  0  0  0  0  0  0
   -6.3275    1.0304    0.1565 C   0  0  0  0  0  0  0  0  0  0  0  0
   -6.1094   -1.3755    0.1497 C   0  0  0  0  0  0  0  0  0  0  0  0
   -6.9126   -0.2354    0.1275 C   0  0  0  0  0  0  0  0  0  0  0  0
    1.7859    2.7442   -0.2126 H   0  0  0  0  0  0  0  0  0  0  0  0
   -0.2074   -1.7818   -0.5660 H   0  0  0  0  0  0  0  0  0  0  0  0
    3.9033    2.8277    0.0949 H   0  0  0  0  0  0  0  0  0  0  0  0
   -0.6032    2.4995   -0.5608 H   0  0  0  0  0  0  0  0  0  0  0  0
    6.3543   -1.4635    0.3857 H   0  0  0  0  0  0  0  0  0  0  0  0
    6.3107    2.8100    0.4420 H   0  0  0  0  0  0  0  0  0  0  0  0
    7.5517    0.6701    0.5897 H   0  0  0  0  0  0  0  0  0  0  0  0
   -2.2422    0.1880    1.2976 H   0  0  0  0  0  0  0  0  0  0  0  0
   -6.9681    1.9086    0.1389 H   0  0  0  0  0  0  0  0  0  0  0  0
   -6.5817   -2.3545    0.1261 H   0  0  0  0  0  0  0  0  0  0  0  0
   -7.9936   -0.3332    0.0877 H   0  0  0  0  0  0  0  0  0  0  0  0
  1 21  1  0  0  0  0
  2 22  1  0  0  0  0
  3  8  1  0  0  0  0
  3 14  1  0  0  0  0
  4 14  2  0  0  0  0
  5 13  1  0  0  0  0
  5 20  2  0  0  0  0
  6  7  1  0  0  0  0
  6  8  2  0  0  0  0
  6 10  1  0  0  0  0
  7  9  1  0  0  0  0
  7 12  2  0  0  0  0
  8 11  1  0  0  0  0
  9 14  1  0  0  0  0
  9 16  2  0  0  0  0
 10 15  2  0  0  0  0
 10 26  1  0  0  0  0
 11 13  2  0  0  0  0
 11 27  1  0  0  0  0
 12 17  1  0  0  0  0
 12 28  1  0  0  0  0
 13 15  1  0  0  0  0
 15 29  1  0  0  0  0
 16 18  1  0  0  0  0
 16 30  1  0  0  0  0
 17 18  2  0  0  0  0
 17 31  1  0  0  0  0
 18 32  1  0  0  0  0
 19 20  1  0  0  0  0
 19 21  2  0  0  0  0
 19 22  1  0  0  0  0
 20 33  1  0  0  0  0
 21 23  1  0  0  0  0
 22 24  2  0  0  0  0
 23 25  2  0  0  0  0
 23 34  1  0  0  0  0
 24 25  1  0  0  0  0
 24 35  1  0  0  0  0
 25 36  1  0  0  0  0
M  END
> <PUBCHEM_COMPOUND_CID>
249680

> <PUBCHEM_CONFORMER_RMSD>
0.6

> <PUBCHEM_CONFORMER_DIVERSEORDER>
1
4
6
3
2
5

> <PUBCHEM_MMFF94_PARTIAL_CHARGES>
34
1 -0.18
10 -0.15
11 -0.15
12 -0.15
13 0.18
14 0.63
15 -0.15
16 -0.15
17 -0.15
18 -0.15
19 0.09
2 -0.18
20 0.3
21 0.18
22 0.18
23 -0.15
24 -0.15
25 -0.15
26 0.15
27 0.15
28 0.15
29 0.15
3 -0.23
30 0.15
31 0.15
32 0.15
33 0.06
34 0.15
35 0.15
36 0.15
4 -0.57
5 -0.63
8 0.08
9 0.09

> <PUBCHEM_EFFECTIVE_ROTOR_COUNT>
2

> <PUBCHEM_PHARMACOPHORE_FEATURES>
6
1 4 acceptor
1 5 acceptor
6 19 21 22 23 24 25 rings
6 3 6 7 8 9 14 rings
6 6 8 10 11 13 15 rings
6 7 9 12 16 17 18 rings

> <PUBCHEM_HEAVY_ATOM_COUNT>
25

> <PUBCHEM_ATOM_DEF_STEREO_COUNT>
0

> <PUBCHEM_ATOM_UDEF_STEREO_COUNT>
0

> <PUBCHEM_BOND_DEF_STEREO_COUNT>
0

> <PUBCHEM_BOND_UDEF_STEREO_COUNT>
0

> <PUBCHEM_ISOTOPIC_ATOM_COUNT>
0

> <PUBCHEM_COMPONENT_COUNT>
1

> <PUBCHEM_CACTVS_TAUTO_COUNT>
1

> <PUBCHEM_CONFORMER_ID>
0003CF5000000001

> <PUBCHEM_MMFF94_ENERGY>
90.8028

> <PUBCHEM_FEATURE_SELFOVERLAP>
30.494

> <PUBCHEM_SHAPE_FINGERPRINT>
10 15 18337116670595337192
10050765 1 18194964269667823388
10411042 1 18049160270898514958
10595046 47 18408604751647665473
10835480 77 18411143575678804365
11315181 36 18273213067847814837
11719270 70 18334579044707813766
12107183 9 17833265703057610913
12236239 1 17967814946339473645
12516196 113 18407759235701180561
12596602 18 18040149617281247259
13073987 5 18409727396053908129
13533116 47 18333450966983189218
13668630 136 13182740368133737800
13785724 45 17684926195867401710
14251764 18 18411699868131918077
14341114 176 18410569596185601953
14790565 3 17907854003749114756
14849402 71 18265049128886390768
14933364 13 18408321085847549009
15183329 4 18412544323300641361
15196674 1 18410855490224587933
15461852 350 17385449809049756157
15475509 35 16916238801011341426
15927050 60 17541381237682709764
16990366 60 18048310348125940654
17492 89 18194687197116980674
17844677 252 18409441509818860165
17857418 61 18411138022275034287
1813 80 17132111363887605196
20511986 3 18342187665250800667
21033648 29 17386020502317385881
21065198 48 18261106413353368345
21130935 74 18408320012702136035
21267235 1 18409448133639378718
21623969 137 18412544305941631702
21859007 373 17702112563505213077
22224240 67 18340210696326142784
23522609 53 17844784032151948572
23559900 14 18337959974660427977
239999 70 18261105314353775006
24771293 8 17971207937141406576
255183 451 18044367465237244166
3004659 81 18201717371010874602
314173 85 16989123171399456333
335352 9 18409728461896757886
3383291 50 17774994636845922539
34797466 226 17603577517561524188
350125 39 18409167675583798357
3545911 37 18408885127097021425
3633792 109 18342749546411233589
3663271 9 18333446560736874003
4073 2 18201715107183607346
4214541 1 18411698807818249917
4340502 62 18131636677626592618
5104073 3 18337956799893275176

> <PUBCHEM_SHAPE_MULTIPOLES>
501.51
18.52
2.64
0.71
6
0.56
-0.02
-0.52
3.23
0.07
0.15
0
-0.05
0.17

> <PUBCHEM_SHAPE_SELFOVERLAP>
1103.118

> <PUBCHEM_SHAPE_VOLUME>
270.9

> <PUBCHEM_COORDINATE_TYPE>
2
5
10

$$$$

