18546378
  -OEChem-07051213083D

 45 44  0     1  0  0  0  0  0999 V2000
    3.3288   -1.4306    0.1925 O   0  0  0  0  0  0  0  0  0  0  0  0
    4.4474    1.9099   -0.7559 O   0  0  0  0  0  0  0  0  0  0  0  0
    5.6554   -0.9196   -1.3887 O   0  0  0  0  0  0  0  0  0  0  0  0
    2.1598    2.6486    0.3476 O   0  0  0  0  0  0  0  0  0  0  0  0
    7.5093   -2.0042    0.4358 O   0  0  0  0  0  0  0  0  0  0  0  0
   -6.6534   -0.6599   -1.8856 O   0  0  0  0  0  0  0  0  0  0  0  0
   -6.5249   -2.2369   -0.2631 O   0  0  0  0  0  0  0  0  0  0  0  0
   -0.1835    1.2356    0.0868 N   0  0  0  0  0  0  0  0  0  0  0  0
   -6.4189   -0.4967    1.7413 N   0  0  0  0  0  0  0  0  0  0  0  0
    4.1113   -0.2378    0.3360 C   0  0  2  0  0  0  0  0  0  0  0  0
    3.5102    0.8643   -0.5471 C   0  0  1  0  0  0  0  0  0  0  0  0
   -2.6323    1.1413    0.1237 C   0  0  0  0  0  0  0  0  0  0  0  0
   -3.8485    0.2277    0.2952 C   0  0  0  0  0  0  0  0  0  0  0  0
   -1.3298    0.3503    0.2445 C   0  0  0  0  0  0  0  0  0  0  0  0
    5.5742   -0.5871    0.0024 C   0  0  1  0  0  0  0  0  0  0  0  0
   -5.1905    0.9599    0.1599 C   0  0  0  0  0  0  0  0  0  0  0  0
    1.0655    0.5001    0.2239 C   0  0  0  0  0  0  0  0  0  0  0  0
    2.2297    1.4574    0.0423 C   0  0  0  0  0  0  0  0  0  0  0  0
   -6.4264    0.0828    0.3973 C   0  0  1  0  0  0  0  0  0  0  0  0
    6.1598   -1.7483    0.8051 C   0  0  0  0  0  0  0  0  0  0  0  0
   -6.5434   -1.0567   -0.5937 C   0  0  0  0  0  0  0  0  0  0  0  0
    4.0555    0.0579    1.3903 H   0  0  0  0  0  0  0  0  0  0  0  0
    3.2475    0.4614   -1.5331 H   0  0  0  0  0  0  0  0  0  0  0  0
   -2.6806    1.6321   -0.8564 H   0  0  0  0  0  0  0  0  0  0  0  0
   -2.6633    1.9321    0.8836 H   0  0  0  0  0  0  0  0  0  0  0  0
   -3.7985   -0.5754   -0.4503 H   0  0  0  0  0  0  0  0  0  0  0  0
   -3.7865   -0.2508    1.2799 H   0  0  0  0  0  0  0  0  0  0  0  0
    6.2094    0.2945    0.1476 H   0  0  0  0  0  0  0  0  0  0  0  0
   -1.2950   -0.1435    1.2234 H   0  0  0  0  0  0  0  0  0  0  0  0
   -1.3091   -0.4294   -0.5264 H   0  0  0  0  0  0  0  0  0  0  0  0
   -5.2091    1.7995    0.8671 H   0  0  0  0  0  0  0  0  0  0  0  0
   -5.2476    1.4015   -0.8432 H   0  0  0  0  0  0  0  0  0  0  0  0
    1.1566    0.0319    1.2095 H   0  0  0  0  0  0  0  0  0  0  0  0
    1.1185   -0.2652   -0.5572 H   0  0  0  0  0  0  0  0  0  0  0  0
   -0.2249    1.9718    0.7915 H   0  0  0  0  0  0  0  0  0  0  0  0
   -7.3304    0.6951    0.2971 H   0  0  0  0  0  0  0  0  0  0  0  0
    6.1287   -1.5268    1.8766 H   0  0  0  0  0  0  0  0  0  0  0  0
    5.5988   -2.6696    0.6170 H   0  0  0  0  0  0  0  0  0  0  0  0
    3.4095   -1.7267   -0.7304 H   0  0  0  0  0  0  0  0  0  0  0  0
    4.0690    2.5155   -1.4162 H   0  0  0  0  0  0  0  0  0  0  0  0
    6.5861   -1.1213   -1.5859 H   0  0  0  0  0  0  0  0  0  0  0  0
   -6.3561    0.2486    2.4338 H   0  0  0  0  0  0  0  0  0  0  0  0
   -7.3043   -0.9714    1.9146 H   0  0  0  0  0  0  0  0  0  0  0  0
    7.8189   -2.7470    0.9817 H   0  0  0  0  0  0  0  0  0  0  0  0
   -6.7178   -1.4228   -2.4989 H   0  0  0  0  0  0  0  0  0  0  0  0
  1 10  1  0  0  0  0
  1 39  1  0  0  0  0
  2 11  1  0  0  0  0
  2 40  1  0  0  0  0
  3 15  1  0  0  0  0
  3 41  1  0  0  0  0
  4 18  2  0  0  0  0
  5 20  1  0  0  0  0
  5 44  1  0  0  0  0
  6 21  1  0  0  0  0
  6 45  1  0  0  0  0
  7 21  2  0  0  0  0
  8 14  1  0  0  0  0
  8 17  1  0  0  0  0
  8 35  1  0  0  0  0
  9 19  1  0  0  0  0
  9 42  1  0  0  0  0
  9 43  1  0  0  0  0
 10 11  1  0  0  0  0
 10 15  1  0  0  0  0
 10 22  1  0  0  0  0
 11 18  1  0  0  0  0
 11 23  1  0  0  0  0
 12 13  1  0  0  0  0
 12 14  1  0  0  0  0
 12 24  1  0  0  0  0
 12 25  1  0  0  0  0
 13 16  1  0  0  0  0
 13 26  1  0  0  0  0
 13 27  1  0  0  0  0
 14 29  1  0  0  0  0
 14 30  1  0  0  0  0
 15 20  1  0  0  0  0
 15 28  1  0  0  0  0
 16 19  1  0  0  0  0
 16 31  1  0  0  0  0
 16 32  1  0  0  0  0
 17 18  1  0  0  0  0
 17 33  1  0  0  0  0
 17 34  1  0  0  0  0
 19 21  1  0  0  0  0
 19 36  1  0  0  0  0
 20 37  1  0  0  0  0
 20 38  1  0  0  0  0
M  END
> <PUBCHEM_COMPOUND_CID>
18546378

> <PUBCHEM_CONFORMER_RMSD>
1.4

> <PUBCHEM_CONFORMER_DIVERSEORDER>
12
3
19
40
9
27
48
89
61
84
29
60
25
76
31
30
70
91
47
45
57
24
4
53
26
64
98
36
95
49
50
5
15
42
20
38
17
32
77
18
43
86
94
81
44
14
23
51
92
8
58
33
22
85
71
90
97
65
66
73
2
88
37
68
28
63
13
55
67
79
72
62
59
39
16
80
46
52
74
35
56
87
82
11
21
75
6
96
34
41
93
7
1
54
10
69
83
78

> <PUBCHEM_MMFF94_PARTIAL_CHARGES>
26
1 -0.68
10 0.28
11 0.34
14 0.27
15 0.28
17 0.33
18 0.45
19 0.33
2 -0.68
20 0.28
21 0.66
3 -0.68
35 0.36
39 0.4
4 -0.57
40 0.4
41 0.4
42 0.36
43 0.36
44 0.4
45 0.5
5 -0.68
6 -0.65
7 -0.57
8 -0.9
9 -0.99

> <PUBCHEM_EFFECTIVE_ROTOR_COUNT>
12

> <PUBCHEM_PHARMACOPHORE_FEATURES>
16
1 1 acceptor
1 1 donor
1 2 acceptor
1 2 donor
1 3 acceptor
1 3 donor
1 4 acceptor
1 5 acceptor
1 5 donor
1 6 acceptor
1 7 acceptor
1 8 cation
1 8 donor
1 9 cation
1 9 donor
3 6 7 21 anion

> <PUBCHEM_HEAVY_ATOM_COUNT>
21

> <PUBCHEM_ATOM_DEF_STEREO_COUNT>
0

> <PUBCHEM_ATOM_UDEF_STEREO_COUNT>
4

> <PUBCHEM_BOND_DEF_STEREO_COUNT>
0

> <PUBCHEM_BOND_UDEF_STEREO_COUNT>
0

> <PUBCHEM_ISOTOPIC_ATOM_COUNT>
0

> <PUBCHEM_COMPONENT_COUNT>
1

> <PUBCHEM_CACTVS_TAUTO_COUNT>
10

> <PUBCHEM_CONFORMER_ID>
011AFECA0000000C

> <PUBCHEM_MMFF94_ENERGY>
21.1428

> <PUBCHEM_FEATURE_SELFOVERLAP>
81.273

> <PUBCHEM_SHAPE_FINGERPRINT>
10 15 5184344105814059251
106641 1 18186528713939071250
10670039 82 15913053165650073861
10730089 47 18410293601291787977
12166972 35 18272083885969390565
125118 31 8502385420635920691
12596602 18 16877943828268972291
12616971 3 17022910025433866477
13533116 47 18409728443968211632
13668630 136 18334010609758999631
13685833 64 18409167736129682272
13862211 1 18410575115091853464
14251764 18 18333732403642680628
15048467 5 9223226347332503296
15183329 4 18343867714691556715
15348495 7 14345803704013734055
15716309 27 18334853905888095113
17093844 174 15430036578882857585
1768 124 18041282170852801198
17857418 61 18408041810405478547
20028762 73 18260266365032341094
20526848 3 9223224161494953490
21150785 3 12679174982679957801
21267235 1 18338512045455900264
220451 1 18261664897094683033
23081809 10 18335976502533031585
23522609 53 18120340286315373057
23559900 14 18129941166077146769
300161 21 9079115536245501729
3004659 81 18060138747717959856
328310 630 9655576323140505859
4340502 62 14851608804250784380
445580 37 14117522073373547751
465052 167 18260263040695479276
5104073 3 17458905921331642833
531348 171 18412548734907397805
559249 180 18260832609905367639
6438161 24 17346605205616945138
7495541 125 17313386678371741585

> <PUBCHEM_SHAPE_MULTIPOLES>
381.12
23.29
2.08
1.05
12.06
0.07
0.16
-14.67
1
-1.95
-0.02
1.07
-0.26
-1.25

> <PUBCHEM_SHAPE_SELFOVERLAP>
730.402

> <PUBCHEM_SHAPE_VOLUME>
231.2

> <PUBCHEM_COORDINATE_TYPE>
2
5
10

$$$$

