7228
  -OEChem-06261201553D

 35 36  0     0  0  0  0  0  0999 V2000
    1.7294    0.6551    1.6096 S   0  0  0  0  0  0  0  0  0  0  0  0
   -0.9457    1.8551    0.8355 S   0  0  0  0  0  0  0  0  0  0  0  0
    2.5716    0.0582    0.2894 N   0  0  0  0  0  0  0  0  0  0  0  0
   -0.4005   -0.6599    0.6630 N   0  0  0  0  0  0  0  0  0  0  0  0
    2.3024   -1.3153   -0.1455 C   0  0  0  0  0  0  0  0  0  0  0  0
    2.7244    0.9211   -0.8862 C   0  0  0  0  0  0  0  0  0  0  0  0
    2.1399   -2.2312    1.0642 C   0  0  0  0  0  0  0  0  0  0  0  0
    3.4362   -1.7939   -1.0468 C   0  0  0  0  0  0  0  0  0  0  0  0
    3.0057    2.3577   -0.4550 C   0  0  0  0  0  0  0  0  0  0  0  0
    1.4634    0.8426   -1.7410 C   0  0  0  0  0  0  0  0  0  0  0  0
    0.0926    0.5067    1.0075 C   0  0  0  0  0  0  0  0  0  0  0  0
   -2.1853    0.8125    0.2442 C   0  0  0  0  0  0  0  0  0  0  0  0
   -1.7065   -0.5008    0.2230 C   0  0  0  0  0  0  0  0  0  0  0  0
   -3.4876    1.1339   -0.1711 C   0  0  0  0  0  0  0  0  0  0  0  0
   -2.5635   -1.5271   -0.2303 C   0  0  0  0  0  0  0  0  0  0  0  0
   -4.3152    0.0996   -0.6151 C   0  0  0  0  0  0  0  0  0  0  0  0
   -3.8612   -1.2144   -0.6452 C   0  0  0  0  0  0  0  0  0  0  0  0
    1.3740   -1.4430   -0.7064 H   0  0  0  0  0  0  0  0  0  0  0  0
    3.5952    0.6285   -1.4820 H   0  0  0  0  0  0  0  0  0  0  0  0
    2.0494   -3.2719    0.7277 H   0  0  0  0  0  0  0  0  0  0  0  0
    3.0257   -2.1949    1.7110 H   0  0  0  0  0  0  0  0  0  0  0  0
    1.2616   -2.0536    1.6873 H   0  0  0  0  0  0  0  0  0  0  0  0
    3.3921   -1.3706   -2.0551 H   0  0  0  0  0  0  0  0  0  0  0  0
    3.3810   -2.8810   -1.1811 H   0  0  0  0  0  0  0  0  0  0  0  0
    4.4207   -1.5799   -0.6145 H   0  0  0  0  0  0  0  0  0  0  0  0
    3.2954    2.9494   -1.3324 H   0  0  0  0  0  0  0  0  0  0  0  0
    2.1407    2.8697   -0.0211 H   0  0  0  0  0  0  0  0  0  0  0  0
    3.8450    2.4138    0.2482 H   0  0  0  0  0  0  0  0  0  0  0  0
    1.1963   -0.1433   -2.1238 H   0  0  0  0  0  0  0  0  0  0  0  0
    1.6621    1.4224   -2.6546 H   0  0  0  0  0  0  0  0  0  0  0  0
    0.5889    1.3266   -1.3235 H   0  0  0  0  0  0  0  0  0  0  0  0
   -3.8488    2.1575   -0.1505 H   0  0  0  0  0  0  0  0  0  0  0  0
   -2.2185   -2.5568   -0.2581 H   0  0  0  0  0  0  0  0  0  0  0  0
   -5.3269    0.3268   -0.9410 H   0  0  0  0  0  0  0  0  0  0  0  0
   -4.5190   -2.0058   -0.9938 H   0  0  0  0  0  0  0  0  0  0  0  0
  1  3  1  0  0  0  0
  1 11  1  0  0  0  0
  2 11  1  0  0  0  0
  2 12  1  0  0  0  0
  3  5  1  0  0  0  0
  3  6  1  0  0  0  0
  4 11  2  0  0  0  0
  4 13  1  0  0  0  0
  5  7  1  0  0  0  0
  5  8  1  0  0  0  0
  5 18  1  0  0  0  0
  6  9  1  0  0  0  0
  6 10  1  0  0  0  0
  6 19  1  0  0  0  0
  7 20  1  0  0  0  0
  7 21  1  0  0  0  0
  7 22  1  0  0  0  0
  8 23  1  0  0  0  0
  8 24  1  0  0  0  0
  8 25  1  0  0  0  0
  9 26  1  0  0  0  0
  9 27  1  0  0  0  0
  9 28  1  0  0  0  0
 10 29  1  0  0  0  0
 10 30  1  0  0  0  0
 10 31  1  0  0  0  0
 12 13  1  0  0  0  0
 12 14  2  0  0  0  0
 13 15  2  0  0  0  0
 14 16  1  0  0  0  0
 14 32  1  0  0  0  0
 15 17  1  0  0  0  0
 15 33  1  0  0  0  0
 16 17  2  0  0  0  0
 16 34  1  0  0  0  0
 17 35  1  0  0  0  0
M  END
> <PUBCHEM_COMPOUND_CID>
7228

> <PUBCHEM_CONFORMER_RMSD>
0.6

> <PUBCHEM_CONFORMER_DIVERSEORDER>
1
2
5
4
3

> <PUBCHEM_MMFF94_PARTIAL_CHARGES>
17
1 -0.04
11 0.43
12 0.04
13 0.23
14 -0.15
15 -0.15
16 -0.15
17 -0.15
2 -0.08
3 -0.56
32 0.15
33 0.15
34 0.15
35 0.15
4 -0.57
5 0.27
6 0.27

> <PUBCHEM_EFFECTIVE_ROTOR_COUNT>
4

> <PUBCHEM_PHARMACOPHORE_FEATURES>
5
1 4 acceptor
3 5 7 8 hydrophobe
3 6 9 10 hydrophobe
5 2 4 11 12 13 rings
6 12 13 14 15 16 17 rings

> <PUBCHEM_HEAVY_ATOM_COUNT>
17

> <PUBCHEM_ATOM_DEF_STEREO_COUNT>
0

> <PUBCHEM_ATOM_UDEF_STEREO_COUNT>
0

> <PUBCHEM_BOND_DEF_STEREO_COUNT>
0

> <PUBCHEM_BOND_UDEF_STEREO_COUNT>
0

> <PUBCHEM_ISOTOPIC_ATOM_COUNT>
0

> <PUBCHEM_COMPONENT_COUNT>
1

> <PUBCHEM_CACTVS_TAUTO_COUNT>
1

> <PUBCHEM_CONFORMER_ID>
00001C3C00000001

> <PUBCHEM_MMFF94_ENERGY>
42.9158

> <PUBCHEM_FEATURE_SELFOVERLAP>
25.443

> <PUBCHEM_SHAPE_FINGERPRINT>
10756046 5 18410284848174884060
11370993 70 18270120098092959854
11578080 2 17911267184178683008
11715629 250 17918283034346062965
12202030 40 15864616405681298620
12400797 292 18411976966536713776
12616999 72 18338518525754480334
12707595 3 16877661240631766505
13296908 3 17822015285328410859
14115302 16 18335699489784085695
14250199 8 18342446063019992396
16752209 62 17969787569442816195
16945 1 18194400228217293490
18186145 218 17489587866007880691
19862831 5 18411699906881328891
20281475 54 18113334189800924331
20523700 14 18337674109583107567
20645476 183 18272933834427600131
20645477 70 18335421261802995327
20671657 53 18266452286390692422
21501502 16 18187075195869755441
21634736 98 18409727391532191338
2255824 54 18343584070645728186
23419403 2 17762385565930192008
23557571 272 18114755913727251816
23559900 14 18260271888454455842
23598291 2 18265316473456795780
2748010 2 17185041561960217523
3060560 45 17989490731818764138
3082319 5 18411696582397248277
474 4 17345750785301259693
5262128 65 18115566258350066860
633830 44 18059859489144651929
6992083 37 17690839381789701488
7364860 26 18408602561346414640
74978 22 18341044215616891810
7832392 63 18199747127425201636
81228 2 16227157305271715617
93112 12 18413106190663905919
9709674 26 18411134706064799311

> <PUBCHEM_SHAPE_MULTIPOLES>
347.59
7.13
2.29
1.36
4.42
0.14
0
1.15
-2.23
-1.45
0.02
-0.91
-0.15
-0.52

> <PUBCHEM_SHAPE_SELFOVERLAP>
700.493

> <PUBCHEM_SHAPE_VOLUME>
206.5

> <PUBCHEM_COORDINATE_TYPE>
2
5
10

$$$$

