9027
  -OEChem-06261203203D

 33 32  0     1  0  0  0  0  0999 V2000
    2.4991   -1.1739    0.8883 O   0  0  0  0  0  0  0  0  0  0  0  0
    1.7243   -0.5007   -0.1155 C   0  0  1  0  0  0  0  0  0  0  0  0
    0.3226   -0.2451    0.4841 C   0  0  0  0  0  0  0  0  0  0  0  0
   -0.6594    0.4884   -0.4366 C   0  0  0  0  0  0  0  0  0  0  0  0
   -2.0112    0.8050    0.2380 C   0  0  2  0  0  0  0  0  0  0  0  0
    2.4948    0.7786   -0.5023 C   0  0  0  0  0  0  0  0  0  0  0  0
   -2.6792   -0.4031    0.9245 C   0  0  0  0  0  0  0  0  0  0  0  0
    1.6517   -1.4370   -1.3286 C   0  0  0  0  0  0  0  0  0  0  0  0
   -2.9545    1.4566   -0.7796 C   0  0  0  0  0  0  0  0  0  0  0  0
    2.6370    1.7964    0.6241 C   0  0  0  0  0  0  0  0  0  0  0  0
   -3.0252   -1.5651    0.0036 C   0  0  0  0  0  0  0  0  0  0  0  0
   -0.0951   -1.2184    0.7702 H   0  0  0  0  0  0  0  0  0  0  0  0
    0.4223    0.3028    1.4298 H   0  0  0  0  0  0  0  0  0  0  0  0
   -0.2173    1.4329   -0.7739 H   0  0  0  0  0  0  0  0  0  0  0  0
   -0.8352   -0.1121   -1.3364 H   0  0  0  0  0  0  0  0  0  0  0  0
   -1.8196    1.5476    1.0247 H   0  0  0  0  0  0  0  0  0  0  0  0
    3.5093    0.4999   -0.8171 H   0  0  0  0  0  0  0  0  0  0  0  0
    2.0218    1.2662   -1.3626 H   0  0  0  0  0  0  0  0  0  0  0  0
   -2.0468   -0.7679    1.7417 H   0  0  0  0  0  0  0  0  0  0  0  0
   -3.6058   -0.0626    1.4047 H   0  0  0  0  0  0  0  0  0  0  0  0
    2.6567   -1.7403   -1.6446 H   0  0  0  0  0  0  0  0  0  0  0  0
    1.1170   -2.3605   -1.0788 H   0  0  0  0  0  0  0  0  0  0  0  0
    1.1533   -0.9680   -2.1822 H   0  0  0  0  0  0  0  0  0  0  0  0
   -3.1347    0.8081   -1.6428 H   0  0  0  0  0  0  0  0  0  0  0  0
   -3.9200    1.6941   -0.3211 H   0  0  0  0  0  0  0  0  0  0  0  0
   -2.5259    2.3929   -1.1534 H   0  0  0  0  0  0  0  0  0  0  0  0
    3.2703    2.6276    0.2969 H   0  0  0  0  0  0  0  0  0  0  0  0
    1.6684    2.2158    0.9110 H   0  0  0  0  0  0  0  0  0  0  0  0
    3.1000    1.3510    1.5098 H   0  0  0  0  0  0  0  0  0  0  0  0
    2.0482   -2.0070    1.1084 H   0  0  0  0  0  0  0  0  0  0  0  0
   -2.1365   -1.9694   -0.4891 H   0  0  0  0  0  0  0  0  0  0  0  0
   -3.4802   -2.3752    0.5832 H   0  0  0  0  0  0  0  0  0  0  0  0
   -3.7436   -1.2686   -0.7658 H   0  0  0  0  0  0  0  0  0  0  0  0
  1  2  1  0  0  0  0
  1 30  1  0  0  0  0
  2  3  1  0  0  0  0
  2  6  1  0  0  0  0
  2  8  1  0  0  0  0
  3  4  1  0  0  0  0
  3 12  1  0  0  0  0
  3 13  1  0  0  0  0
  4  5  1  0  0  0  0
  4 14  1  0  0  0  0
  4 15  1  0  0  0  0
  5  7  1  0  0  0  0
  5  9  1  0  0  0  0
  5 16  1  0  0  0  0
  6 10  1  0  0  0  0
  6 17  1  0  0  0  0
  6 18  1  0  0  0  0
  7 11  1  0  0  0  0
  7 19  1  0  0  0  0
  7 20  1  0  0  0  0
  8 21  1  0  0  0  0
  8 22  1  0  0  0  0
  8 23  1  0  0  0  0
  9 24  1  0  0  0  0
  9 25  1  0  0  0  0
  9 26  1  0  0  0  0
 10 27  1  0  0  0  0
 10 28  1  0  0  0  0
 10 29  1  0  0  0  0
 11 31  1  0  0  0  0
 11 32  1  0  0  0  0
 11 33  1  0  0  0  0
M  END
> <PUBCHEM_COMPOUND_CID>
9027

> <PUBCHEM_CONFORMER_RMSD>
0.6

> <PUBCHEM_CONFORMER_DIVERSEORDER>
2
115
101
110
121
77
112
86
66
4
120
59
100
109
23
124
104
43
113
58
123
9
118
92
125
32
107
119
87
126
26
16
111
103
8
114
68
117
65
15
70
30
13
54
102
122
69
45
44
67
42
116
17
81
98
84
93
19
3
78
49
74
79
33
63
38
76
6
25
60
88
53
55
14
85
28
108
57
61
10
51
89
11
50
75
20
18
36
40
47
34
52
105
7
22
5
29
99
80
24
95
35
106
73
1
56
21
94
48
90
72
37
64
27
83
46
82
91
97
31
39
62
71
96
41
12

> <PUBCHEM_MMFF94_PARTIAL_CHARGES>
3
1 -0.68
2 0.28
30 0.4

> <PUBCHEM_EFFECTIVE_ROTOR_COUNT>
5

> <PUBCHEM_PHARMACOPHORE_FEATURES>
6
1 1 acceptor
1 1 donor
1 10 hydrophobe
1 11 hydrophobe
1 9 hydrophobe
4 3 4 5 7 hydrophobe

> <PUBCHEM_HEAVY_ATOM_COUNT>
11

> <PUBCHEM_ATOM_DEF_STEREO_COUNT>
0

> <PUBCHEM_ATOM_UDEF_STEREO_COUNT>
2

> <PUBCHEM_BOND_DEF_STEREO_COUNT>
0

> <PUBCHEM_BOND_UDEF_STEREO_COUNT>
0

> <PUBCHEM_ISOTOPIC_ATOM_COUNT>
0

> <PUBCHEM_COMPONENT_COUNT>
1

> <PUBCHEM_CACTVS_TAUTO_COUNT>
1

> <PUBCHEM_CONFORMER_ID>
0000234300000002

> <PUBCHEM_MMFF94_ENERGY>
16.309

> <PUBCHEM_FEATURE_SELFOVERLAP>
30.5

> <PUBCHEM_SHAPE_FINGERPRINT>
107287 299 18115015321230287518
10857977 72 17988920029269785153
12716758 59 18059576948810447025
12897270 3 18333726922758145164
12932741 1 18339355370241512325
12932764 1 18200863067444841955
14325111 11 18343019990783247673
15775835 57 17845648269512040611
170605 34 18335979753849265120
18380122 1 18337947883657063177
19973954 147 18335413620861055241
20201158 50 18263083378093640359
20279233 1 18334576888449173199
20711985 344 16890593993024925790
21028194 46 18336824178695079024
21524375 3 18048313341405999680
21730867 7 18334851689041418004
23235687 12 18408881871195274027
23557571 272 18342168956157079133
3248919 1 17967814998063658521
74978 22 18265611163989535553
8030462 33 17561073722441821027

> <PUBCHEM_SHAPE_MULTIPOLES>
220.51
5.55
1.8
1.07
1.53
0.06
0.09
0.42
-0.27
-0.17
0.17
-0.12
-0.14
0.7

> <PUBCHEM_SHAPE_SELFOVERLAP>
399.929

> <PUBCHEM_SHAPE_VOLUME>
143

> <PUBCHEM_COORDINATE_TYPE>
2
5
10

$$$$

