17395553
  -OEChem-06241222512D

 42 43  0     0  0  0  0  0  0999 V2000
    4.4839    0.4625    0.0000 O   0  0  0  0  0  0  0  0  0  0  0  0
    3.5704   -1.1308    0.0000 O   0  0  0  0  0  0  0  0  0  0  0  0
    6.2160    1.4625    0.0000 N   0  0  0  0  0  0  0  0  0  0  0  0
    5.3500   -1.0375    0.0000 N   0  0  0  0  0  0  0  0  0  0  0  0
    2.9013   -1.8739    0.0000 N   0  0  0  0  0  0  0  0  0  0  0  0
    6.2160    3.4625    0.0000 C   0  0  0  0  0  0  0  0  0  0  0  0
    5.3500    2.9625    0.0000 C   0  0  0  0  0  0  0  0  0  0  0  0
    7.0820    2.9625    0.0000 C   0  0  0  0  0  0  0  0  0  0  0  0
    5.3500    1.9625    0.0000 C   0  0  0  0  0  0  0  0  0  0  0  0
    7.0820    1.9625    0.0000 C   0  0  0  0  0  0  0  0  0  0  0  0
    6.2160    4.4625    0.0000 C   0  0  0  0  0  0  0  0  0  0  0  0
    6.2160    0.4625    0.0000 C   0  0  0  0  0  0  0  0  0  0  0  0
    5.3500   -0.0375    0.0000 C   0  0  0  0  0  0  0  0  0  0  0  0
    2.9945   -3.6535    0.0000 C   0  0  0  0  0  0  0  0  0  0  0  0
    4.4839   -1.5375    0.0000 C   0  0  0  0  0  0  0  0  0  0  0  0
    3.4013   -2.7399    0.0000 C   0  0  0  0  0  0  0  0  0  0  0  0
    4.3794   -2.5320    0.0000 C   0  0  0  0  0  0  0  0  0  0  0  0
    2.0000   -3.7580    0.0000 C   0  0  0  0  0  0  0  0  0  0  0  0
    3.5823   -4.4625    0.0000 C   0  0  0  0  0  0  0  0  0  0  0  0
    6.7529    3.7725    0.0000 H   0  0  0  0  0  0  0  0  0  0  0  0
    5.1379    3.5451    0.0000 H   0  0  0  0  0  0  0  0  0  0  0  0
    7.6926    2.8548    0.0000 H   0  0  0  0  0  0  0  0  0  0  0  0
    7.2941    3.5451    0.0000 H   0  0  0  0  0  0  0  0  0  0  0  0
    4.7394    2.8548    0.0000 H   0  0  0  0  0  0  0  0  0  0  0  0
    4.7394    2.0702    0.0000 H   0  0  0  0  0  0  0  0  0  0  0  0
    5.1379    1.3799    0.0000 H   0  0  0  0  0  0  0  0  0  0  0  0
    7.2941    1.3799    0.0000 H   0  0  0  0  0  0  0  0  0  0  0  0
    7.6926    2.0702    0.0000 H   0  0  0  0  0  0  0  0  0  0  0  0
    6.8360    4.4625    0.0000 H   0  0  0  0  0  0  0  0  0  0  0  0
    6.2160    5.0825    0.0000 H   0  0  0  0  0  0  0  0  0  0  0  0
    5.5960    4.4625    0.0000 H   0  0  0  0  0  0  0  0  0  0  0  0
    6.4280   -0.1201    0.0000 H   0  0  0  0  0  0  0  0  0  0  0  0
    6.8266    0.5702    0.0000 H   0  0  0  0  0  0  0  0  0  0  0  0
    5.8869   -1.3475    0.0000 H   0  0  0  0  0  0  0  0  0  0  0  0
    3.6111   -3.5887    0.0000 H   0  0  0  0  0  0  0  0  0  0  0  0
    4.8402   -2.9469    0.0000 H   0  0  0  0  0  0  0  0  0  0  0  0
    1.9352   -3.1414    0.0000 H   0  0  0  0  0  0  0  0  0  0  0  0
    1.3834   -3.8228    0.0000 H   0  0  0  0  0  0  0  0  0  0  0  0
    2.0648   -4.3746    0.0000 H   0  0  0  0  0  0  0  0  0  0  0  0
    3.0807   -4.8269    0.0000 H   0  0  0  0  0  0  0  0  0  0  0  0
    3.9467   -4.9641    0.0000 H   0  0  0  0  0  0  0  0  0  0  0  0
    4.0839   -4.0981    0.0000 H   0  0  0  0  0  0  0  0  0  0  0  0
  1 13  2  0  0  0  0
  2  5  1  0  0  0  0
  2 15  1  0  0  0  0
  3  9  1  0  0  0  0
  3 10  1  0  0  0  0
  3 12  1  0  0  0  0
  4 13  1  0  0  0  0
  4 15  1  0  0  0  0
  4 34  1  0  0  0  0
  5 16  2  0  0  0  0
  6  7  1  0  0  0  0
  6  8  1  0  0  0  0
  6 11  1  0  0  0  0
  6 20  1  0  0  0  0
  7  9  1  0  0  0  0
  7 21  1  0  0  0  0
  7 24  1  0  0  0  0
  8 10  1  0  0  0  0
  8 22  1  0  0  0  0
  8 23  1  0  0  0  0
  9 25  1  0  0  0  0
  9 26  1  0  0  0  0
 10 27  1  0  0  0  0
 10 28  1  0  0  0  0
 11 29  1  0  0  0  0
 11 30  1  0  0  0  0
 11 31  1  0  0  0  0
 12 13  1  0  0  0  0
 12 32  1  0  0  0  0
 12 33  1  0  0  0  0
 14 16  1  0  0  0  0
 14 18  1  0  0  0  0
 14 19  1  0  0  0  0
 14 35  1  0  0  0  0
 15 17  2  0  0  0  0
 16 17  1  0  0  0  0
 17 36  1  0  0  0  0
 18 37  1  0  0  0  0
 18 38  1  0  0  0  0
 18 39  1  0  0  0  0
 19 40  1  0  0  0  0
 19 41  1  0  0  0  0
 19 42  1  0  0  0  0
M  END
> <PUBCHEM_COMPOUND_CID>
17395553

> <PUBCHEM_COMPOUND_CANONICALIZED>
1

> <PUBCHEM_CACTVS_COMPLEXITY>
301

> <PUBCHEM_CACTVS_HBOND_ACCEPTOR>
4

> <PUBCHEM_CACTVS_HBOND_DONOR>
1

> <PUBCHEM_CACTVS_ROTATABLE_BOND>
4

> <PUBCHEM_CACTVS_SUBSKEYS>
AAADceBzMAAAAAAAAAAAAAAAAAAAAWAAAAAsAAAAAAAAAAABgAAAHgAUAAAADQjBlgQyhJPQAACpASVyUgCAAAAlIgAgGCG+bFsAZhpA0eKUFYhmlDjISUKYAAAOAAAAAAAAAAAAAAAAAAAAAAAAAAAAAA==

> <PUBCHEM_IUPAC_OPENEYE_NAME>
N-(3-isopropylisoxazol-5-yl)-2-(4-methyl-1-piperidyl)acetamide

> <PUBCHEM_IUPAC_CAS_NAME>
2-(4-methyl-1-piperidinyl)-N-(3-propan-2-yl-5-isoxazolyl)acetamide

> <PUBCHEM_IUPAC_NAME>
2-(4-methylpiperidin-1-yl)-N-(3-propan-2-yl-1,2-oxazol-5-yl)acetamide

> <PUBCHEM_IUPAC_SYSTEMATIC_NAME>
2-(4-methylpiperidin-1-yl)-N-(3-propan-2-yl-1,2-oxazol-5-yl)ethanamide

> <PUBCHEM_IUPAC_TRADITIONAL_NAME>
N-(3-isopropylisoxazol-5-yl)-2-(4-methylpiperidino)acetamide

> <PUBCHEM_IUPAC_INCHI>
InChI=1S/C14H23N3O2/c1-10(2)12-8-14(19-16-12)15-13(18)9-17-6-4-11(3)5-7-17/h8,10-11H,4-7,9H2,1-3H3,(H,15,18)

> <PUBCHEM_IUPAC_INCHIKEY>
RUCYUQYOHAXRGD-UHFFFAOYSA-N

> <PUBCHEM_XLOGP3_AA>
2.4

> <PUBCHEM_EXACT_MASS>
265.179027

> <PUBCHEM_MOLECULAR_FORMULA>
C14H23N3O2

> <PUBCHEM_MOLECULAR_WEIGHT>
265.35132

> <PUBCHEM_OPENEYE_CAN_SMILES>
CC1CCN(CC1)CC(=O)NC2=CC(=NO2)C(C)C

> <PUBCHEM_OPENEYE_ISO_SMILES>
CC1CCN(CC1)CC(=O)NC2=CC(=NO2)C(C)C

> <PUBCHEM_CACTVS_TPSA>
58.4

> <PUBCHEM_MONOISOTOPIC_WEIGHT>
265.179027

> <PUBCHEM_TOTAL_CHARGE>
0

> <PUBCHEM_HEAVY_ATOM_COUNT>
19

> <PUBCHEM_ATOM_DEF_STEREO_COUNT>
0

> <PUBCHEM_ATOM_UDEF_STEREO_COUNT>
0

> <PUBCHEM_BOND_DEF_STEREO_COUNT>
0

> <PUBCHEM_BOND_UDEF_STEREO_COUNT>
0

> <PUBCHEM_ISOTOPIC_ATOM_COUNT>
0

> <PUBCHEM_COMPONENT_COUNT>
1

> <PUBCHEM_CACTVS_TAUTO_COUNT>
12

> <PUBCHEM_COORDINATE_TYPE>
1
5
255

> <PUBCHEM_BONDANNOTATIONS>
15  17  8
16  17  8
2  15  8
2  5  8
5  16  8

$$$$

