193405
  -OEChem-07051212583D

 56 56  0     1  0  0  0  0  0999 V2000
    7.4736   -0.6088    1.5309 O   0  0  0  0  0  0  0  0  0  0  0  0
   -9.2675    0.9224    0.7479 O   0  0  0  0  0  0  0  0  0  0  0  0
    4.9109   -0.6363   -0.0005 N   0  0  0  0  0  0  0  0  0  0  0  0
    4.8382    0.7592   -0.4521 C   0  0  2  0  0  0  0  0  0  0  0  0
    6.0132    1.5810    0.0933 C   0  0  0  0  0  0  0  0  0  0  0  0
    6.1630   -1.2794   -0.4268 C   0  0  1  0  0  0  0  0  0  0  0  0
    7.3961   -0.5272    0.1088 C   0  0  1  0  0  0  0  0  0  0  0  0
    7.3517    0.9489   -0.2872 C   0  0  0  0  0  0  0  0  0  0  0  0
    3.5079    1.3581    0.0012 C   0  0  0  0  0  0  0  0  0  0  0  0
    2.3248    0.5269   -0.4969 C   0  0  0  0  0  0  0  0  0  0  0  0
    0.9667    1.0409   -0.0077 C   0  0  0  0  0  0  0  0  0  0  0  0
    6.1321   -2.7413    0.0207 C   0  0  0  0  0  0  0  0  0  0  0  0
   -0.2084    0.1635   -0.4474 C   0  0  0  0  0  0  0  0  0  0  0  0
   -1.5665    0.6772    0.0427 C   0  0  0  0  0  0  0  0  0  0  0  0
   -2.7425   -0.2099   -0.3762 C   0  0  0  0  0  0  0  0  0  0  0  0
   -4.0682    0.3478    0.1497 C   0  0  0  0  0  0  0  0  0  0  0  0
   -5.2787   -0.5173   -0.2149 C   0  0  0  0  0  0  0  0  0  0  0  0
   -6.6127    0.0795    0.2469 C   0  0  0  0  0  0  0  0  0  0  0  0
   -7.8093   -0.7645   -0.1924 C   0  0  0  0  0  0  0  0  0  0  0  0
   -9.1543   -0.1627    0.1801 C   0  0  0  0  0  0  0  0  0  0  0  0
  -10.3699   -0.9582   -0.2200 C   0  0  0  0  0  0  0  0  0  0  0  0
    4.8662    0.7777   -1.5498 H   0  0  0  0  0  0  0  0  0  0  0  0
    5.9458    1.6616    1.1861 H   0  0  0  0  0  0  0  0  0  0  0  0
    5.9711    2.6033   -0.3014 H   0  0  0  0  0  0  0  0  0  0  0  0
    6.1984   -1.2743   -1.5243 H   0  0  0  0  0  0  0  0  0  0  0  0
    8.3071   -0.9870   -0.2919 H   0  0  0  0  0  0  0  0  0  0  0  0
    7.4969    1.0396   -1.3706 H   0  0  0  0  0  0  0  0  0  0  0  0
    8.1605    1.5044    0.2013 H   0  0  0  0  0  0  0  0  0  0  0  0
    3.4717    1.4188    1.0968 H   0  0  0  0  0  0  0  0  0  0  0  0
    3.4158    2.3842   -0.3758 H   0  0  0  0  0  0  0  0  0  0  0  0
    4.8481   -0.6658    1.0176 H   0  0  0  0  0  0  0  0  0  0  0  0
    2.3279    0.5108   -1.5940 H   0  0  0  0  0  0  0  0  0  0  0  0
    2.4179   -0.5137   -0.1656 H   0  0  0  0  0  0  0  0  0  0  0  0
    0.8151    2.0625   -0.3775 H   0  0  0  0  0  0  0  0  0  0  0  0
    0.9778    1.0988    1.0878 H   0  0  0  0  0  0  0  0  0  0  0  0
    5.2808   -3.2680   -0.4252 H   0  0  0  0  0  0  0  0  0  0  0  0
    6.0512   -2.8350    1.1092 H   0  0  0  0  0  0  0  0  0  0  0  0
    7.0446   -3.2584   -0.2949 H   0  0  0  0  0  0  0  0  0  0  0  0
   -0.0554   -0.8565   -0.0739 H   0  0  0  0  0  0  0  0  0  0  0  0
   -0.2218    0.1013   -1.5426 H   0  0  0  0  0  0  0  0  0  0  0  0
   -1.7240    1.6925   -0.3419 H   0  0  0  0  0  0  0  0  0  0  0  0
   -1.5444    0.7533    1.1369 H   0  0  0  0  0  0  0  0  0  0  0  0
    8.2852   -0.1508    1.8084 H   0  0  0  0  0  0  0  0  0  0  0  0
   -2.5921   -1.2250    0.0099 H   0  0  0  0  0  0  0  0  0  0  0  0
   -2.7798   -0.2804   -1.4697 H   0  0  0  0  0  0  0  0  0  0  0  0
   -4.0163    0.4445    1.2412 H   0  0  0  0  0  0  0  0  0  0  0  0
   -4.2159    1.3584   -0.2511 H   0  0  0  0  0  0  0  0  0  0  0  0
   -5.1563   -1.5149    0.2242 H   0  0  0  0  0  0  0  0  0  0  0  0
   -5.3044   -0.6510   -1.3035 H   0  0  0  0  0  0  0  0  0  0  0  0
   -6.7148    1.0939   -0.1589 H   0  0  0  0  0  0  0  0  0  0  0  0
   -6.6133    0.1789    1.3393 H   0  0  0  0  0  0  0  0  0  0  0  0
   -7.7941   -0.8865   -1.2815 H   0  0  0  0  0  0  0  0  0  0  0  0
   -7.7464   -1.7572    0.2670 H   0  0  0  0  0  0  0  0  0  0  0  0
  -10.3257   -1.9497    0.2373 H   0  0  0  0  0  0  0  0  0  0  0  0
  -11.2740   -0.4509    0.1280 H   0  0  0  0  0  0  0  0  0  0  0  0
  -10.4081   -1.0458   -1.3085 H   0  0  0  0  0  0  0  0  0  0  0  0
  1  7  1  0  0  0  0
  1 43  1  0  0  0  0
  2 20  2  0  0  0  0
  3  4  1  0  0  0  0
  3  6  1  0  0  0  0
  3 31  1  0  0  0  0
  4  5  1  0  0  0  0
  4  9  1  0  0  0  0
  4 22  1  0  0  0  0
  5  8  1  0  0  0  0
  5 23  1  0  0  0  0
  5 24  1  0  0  0  0
  6  7  1  0  0  0  0
  6 12  1  0  0  0  0
  6 25  1  0  0  0  0
  7  8  1  0  0  0  0
  7 26  1  0  0  0  0
  8 27  1  0  0  0  0
  8 28  1  0  0  0  0
  9 10  1  0  0  0  0
  9 29  1  0  0  0  0
  9 30  1  0  0  0  0
 10 11  1  0  0  0  0
 10 32  1  0  0  0  0
 10 33  1  0  0  0  0
 11 13  1  0  0  0  0
 11 34  1  0  0  0  0
 11 35  1  0  0  0  0
 12 36  1  0  0  0  0
 12 37  1  0  0  0  0
 12 38  1  0  0  0  0
 13 14  1  0  0  0  0
 13 39  1  0  0  0  0
 13 40  1  0  0  0  0
 14 15  1  0  0  0  0
 14 41  1  0  0  0  0
 14 42  1  0  0  0  0
 15 16  1  0  0  0  0
 15 44  1  0  0  0  0
 15 45  1  0  0  0  0
 16 17  1  0  0  0  0
 16 46  1  0  0  0  0
 16 47  1  0  0  0  0
 17 18  1  0  0  0  0
 17 48  1  0  0  0  0
 17 49  1  0  0  0  0
 18 19  1  0  0  0  0
 18 50  1  0  0  0  0
 18 51  1  0  0  0  0
 19 20  1  0  0  0  0
 19 52  1  0  0  0  0
 19 53  1  0  0  0  0
 20 21  1  0  0  0  0
 21 54  1  0  0  0  0
 21 55  1  0  0  0  0
 21 56  1  0  0  0  0
M  END
> <PUBCHEM_COMPOUND_CID>
193405

> <PUBCHEM_CONFORMER_RMSD>
1.2

> <PUBCHEM_CONFORMER_DIVERSEORDER>
1
136
304
85
110
41
199
98
120
68
175
23
319
216
146
209
176
125
172
286
321
204
180
222
171
292
129
26
96
237
261
131
167
274
43
213
163
214
121
144
281
208
93
282
92
193
128
155
177
232
207
264
143
225
247
69
132
138
229
156
296
262
215
219
316
113
310
65
259
189
183
4
49
44
179
285
108
240
123
315
210
256
314
308
236
245
139
250
221
60
323
35
165
59
174
38
289
190
17
53
182
244
322
63
2
312
48
161
160
137
62
279
238
198
270
318
226
206
135
142
5
184
15
201
115
166
133
276
186
309
150
191
258
305
288
10
32
30
88
234
109
97
87
149
324
220
217
47
313
249
162
58
25
50
130
325
40
253
239
82
278
196
300
114
145
104
99
20
34
260
212
263
105
235
157
218
290
267
9
200
297
28
317
295
194
80
154
164
248
242
252
122
269
203
173
103
301
243
231
311
251
227
18
302
241
134
16
117
188
27
13
185
141
75
320
293
64
127
178
255
211
205
268
54
100
283
187
79
70
95
6
272
112
42
254
126
8
111
303
284
39
24
277
151
55
119
202
287
66
81
192
21
168
11
101
33
61
107
266
230
271
12
223
51
158
19
71
257
57
83
275
90
159
116
45
102
14
140
56
22
246
152
294
228
169
86
197
153
224
36
72
31
299
291
124
91
29
89
170
195
77
233
118
94
74
273
280
52
3
147
181
106
7
76
37
306
307
78
84
46
67
265
298
73
148

> <PUBCHEM_MMFF94_PARTIAL_CHARGES>
11
1 -0.68
19 0.06
2 -0.57
20 0.45
21 0.06
3 -0.9
31 0.36
4 0.27
43 0.4
6 0.27
7 0.28

> <PUBCHEM_EFFECTIVE_ROTOR_COUNT>
12.2

> <PUBCHEM_PHARMACOPHORE_FEATURES>
6
1 1 acceptor
1 1 donor
1 2 acceptor
1 3 cation
1 3 donor
6 3 4 5 6 7 8 rings

> <PUBCHEM_HEAVY_ATOM_COUNT>
21

> <PUBCHEM_ATOM_DEF_STEREO_COUNT>
3

> <PUBCHEM_ATOM_UDEF_STEREO_COUNT>
0

> <PUBCHEM_BOND_DEF_STEREO_COUNT>
0

> <PUBCHEM_BOND_UDEF_STEREO_COUNT>
0

> <PUBCHEM_ISOTOPIC_ATOM_COUNT>
0

> <PUBCHEM_COMPONENT_COUNT>
1

> <PUBCHEM_CACTVS_TAUTO_COUNT>
3

> <PUBCHEM_CONFORMER_ID>
0002F37D00000001

> <PUBCHEM_MMFF94_ENERGY>
6.949

> <PUBCHEM_FEATURE_SELFOVERLAP>
30.447

> <PUBCHEM_SHAPE_FINGERPRINT>
10299344 5 18333449837675646583
11638347 137 18335136505307662239
12089408 11 18408038503676520261
13533116 47 18334577958639698490
13617811 41 15626222442389490998
13685833 64 18344145895533638388
13885169 127 18342176692005258237
14123256 10 13973968696879037981
14202775 3 18201151063369838515
14216079 64 18273496788316779526
14251764 18 18040432192070343473
14251764 46 18410855455833201005
15510794 2 17704068469429664051
155225 1 8142079871683202266
15690457 1 18335704931961512399
16120349 18 18411137995983543412
20165401 70 18334860567098522422
20554085 129 15068624911065953223
20771845 171 13542466510110645482
21095086 128 17988926652826591931
21150785 3 12103846757111913613
21315763 28 18408884023876313605
21360442 33 13398090742174961264
21362267 313 17386558193694583587
22224240 67 5761653681374220733
232437 2 18411136939479143023
23521765 1 18335137575461342125
246663 6 17131833166640788741
249057 3 15984818204233444661
2835820 82 18269274741245699794
28498 318 18342458153764263989
33532 11 18412827996947614615
33684 2 18408603652537016245
5283156 175 18333447651405527969
5758199 1 6122506800651125293
67123 10 18408603643804676357
8209 1 18411135818967510405

> <PUBCHEM_SHAPE_MULTIPOLES>
415.45
36.9
1.61
0.77
66.59
0.8
0.11
8.6
3.86
-3.66
0.02
-0.51
0.03
-0.77

> <PUBCHEM_SHAPE_SELFOVERLAP>
787.255

> <PUBCHEM_SHAPE_VOLUME>
255.9

> <PUBCHEM_COORDINATE_TYPE>
2
5
10

$$$$

