5282148
  -OEChem-07051213032D

 62 65  0     1  0  0  0  0  0999 V2000
   12.4583   -0.3973    0.0000 O   0  0  0  0  0  0  0  0  0  0  0  0
   14.1981   -2.3906    0.0000 O   0  0  0  0  0  0  0  0  0  0  0  0
   10.7263   -0.4040    0.0000 O   0  0  0  0  0  0  0  0  0  0  0  0
   12.4699   -3.3973    0.0000 O   0  0  0  0  0  0  0  0  0  0  0  0
   10.7340   -2.4039    0.0000 O   0  0  0  0  0  0  0  0  0  0  0  0
   14.1865    0.6094    0.0000 O   0  0  0  0  0  0  0  0  0  0  0  0
    7.1962   -0.4281    0.0000 O   0  0  0  0  0  0  0  0  0  0  0  0
    8.9446   -3.4627    0.0000 O   0  0  0  0  0  0  0  0  0  0  0  0
   15.9185    0.6161    0.0000 O   0  0  0  0  0  0  0  0  0  0  0  0
    7.1962   -3.4281    0.0000 O   0  0  0  0  0  0  0  0  0  0  0  0
   15.9070    3.6160    0.0000 O   0  0  0  0  0  0  0  0  0  0  0  0
   16.7788    2.1194    0.0000 O   0  0  0  0  0  0  0  0  0  0  0  0
    2.8660   -3.9281    0.0000 O   0  0  0  0  0  0  0  0  0  0  0  0
   13.3301   -1.8939    0.0000 C   0  0  1  0  0  0  0  0  0  0  0  0
   12.4660   -2.3973    0.0000 C   0  0  1  0  0  0  0  0  0  0  0  0
   13.3263   -0.8939    0.0000 C   0  0  1  0  0  0  0  0  0  0  0  0
   11.5981   -1.9006    0.0000 C   0  0  2  0  0  0  0  0  0  0  0  0
   11.5942   -0.9006    0.0000 C   0  0  1  0  0  0  0  0  0  0  0  0
   14.1904   -0.3906    0.0000 C   0  0  0  0  0  0  0  0  0  0  0  0
    9.8622   -0.9073    0.0000 C   0  0  0  0  0  0  0  0  0  0  0  0
    8.9561   -0.3934    0.0000 C   0  0  0  0  0  0  0  0  0  0  0  0
    9.8622   -1.9489    0.0000 C   0  0  0  0  0  0  0  0  0  0  0  0
   15.0506    1.1127    0.0000 C   0  0  0  0  0  0  0  0  0  0  0  0
    8.0622   -0.9281    0.0000 C   0  0  0  0  0  0  0  0  0  0  0  0
    8.0622   -1.9281    0.0000 C   0  0  0  0  0  0  0  0  0  0  0  0
    8.9561   -2.4628    0.0000 C   0  0  0  0  0  0  0  0  0  0  0  0
   15.0467    2.1127    0.0000 C   0  0  0  0  0  0  0  0  0  0  0  0
    7.1962   -2.4281    0.0000 C   0  0  0  0  0  0  0  0  0  0  0  0
    6.3301   -1.9281    0.0000 C   0  0  0  0  0  0  0  0  0  0  0  0
    6.3301   -0.9281    0.0000 C   0  0  0  0  0  0  0  0  0  0  0  0
    5.4641   -2.4281    0.0000 C   0  0  0  0  0  0  0  0  0  0  0  0
   15.9108    2.6160    0.0000 C   0  0  0  0  0  0  0  0  0  0  0  0
    4.5981   -1.9281    0.0000 C   0  0  0  0  0  0  0  0  0  0  0  0
    5.4641   -3.4281    0.0000 C   0  0  0  0  0  0  0  0  0  0  0  0
    3.7320   -2.4281    0.0000 C   0  0  0  0  0  0  0  0  0  0  0  0
    4.5981   -3.9281    0.0000 C   0  0  0  0  0  0  0  0  0  0  0  0
    3.7320   -3.4281    0.0000 C   0  0  0  0  0  0  0  0  0  0  0  0
    2.0000   -3.4281    0.0000 C   0  0  0  0  0  0  0  0  0  0  0  0
   13.8659   -1.5819    0.0000 H   0  0  0  0  0  0  0  0  0  0  0  0
   11.9303   -2.7093    0.0000 H   0  0  0  0  0  0  0  0  0  0  0  0
   13.3239   -0.2739    0.0000 H   0  0  0  0  0  0  0  0  0  0  0  0
   11.0600   -1.5927    0.0000 H   0  0  0  0  0  0  0  0  0  0  0  0
   11.5918   -0.2806    0.0000 H   0  0  0  0  0  0  0  0  0  0  0  0
   14.4047   -0.9724    0.0000 H   0  0  0  0  0  0  0  0  0  0  0  0
   14.8005   -0.2806    0.0000 H   0  0  0  0  0  0  0  0  0  0  0  0
   14.7338   -2.0785    0.0000 H   0  0  0  0  0  0  0  0  0  0  0  0
   13.0080   -3.7052    0.0000 H   0  0  0  0  0  0  0  0  0  0  0  0
   10.7364   -3.0239    0.0000 H   0  0  0  0  0  0  0  0  0  0  0  0
    8.9490    0.2265    0.0000 H   0  0  0  0  0  0  0  0  0  0  0  0
   10.3979   -2.2610    0.0000 H   0  0  0  0  0  0  0  0  0  0  0  0
   14.8324    2.6945    0.0000 H   0  0  0  0  0  0  0  0  0  0  0  0
   14.4366    2.0027    0.0000 H   0  0  0  0  0  0  0  0  0  0  0  0
    5.7932   -0.6181    0.0000 H   0  0  0  0  0  0  0  0  0  0  0  0
    9.4779   -3.7789    0.0000 H   0  0  0  0  0  0  0  0  0  0  0  0
    4.5981   -1.3081    0.0000 H   0  0  0  0  0  0  0  0  0  0  0  0
    6.0010   -3.7381    0.0000 H   0  0  0  0  0  0  0  0  0  0  0  0
    3.1951   -2.1181    0.0000 H   0  0  0  0  0  0  0  0  0  0  0  0
    4.5981   -4.5481    0.0000 H   0  0  0  0  0  0  0  0  0  0  0  0
   16.4427    3.9281    0.0000 H   0  0  0  0  0  0  0  0  0  0  0  0
    2.3100   -2.8912    0.0000 H   0  0  0  0  0  0  0  0  0  0  0  0
    1.4631   -3.1181    0.0000 H   0  0  0  0  0  0  0  0  0  0  0  0
    1.6900   -3.9650    0.0000 H   0  0  0  0  0  0  0  0  0  0  0  0
  1 16  1  0  0  0  0
  1 18  1  0  0  0  0
 14  2  1  1  0  0  0
  2 46  1  0  0  0  0
 18  3  1  6  0  0  0
  3 20  1  0  0  0  0
 15  4  1  6  0  0  0
  4 47  1  0  0  0  0
 17  5  1  1  0  0  0
  5 48  1  0  0  0  0
  6 19  1  0  0  0  0
  6 23  1  0  0  0  0
  7 24  1  0  0  0  0
  7 30  1  0  0  0  0
  8 26  1  0  0  0  0
  8 54  1  0  0  0  0
  9 23  2  0  0  0  0
 10 28  2  0  0  0  0
 11 32  1  0  0  0  0
 11 59  1  0  0  0  0
 12 32  2  0  0  0  0
 13 37  1  0  0  0  0
 13 38  1  0  0  0  0
 14 15  1  0  0  0  0
 14 16  1  0  0  0  0
 14 39  1  0  0  0  0
 15 17  1  0  0  0  0
 15 40  1  0  0  0  0
 16 19  1  6  0  0  0
 16 41  1  0  0  0  0
 17 18  1  0  0  0  0
 17 42  1  0  0  0  0
 18 43  1  0  0  0  0
 19 44  1  0  0  0  0
 19 45  1  0  0  0  0
 20 21  1  0  0  0  0
 20 22  2  0  0  0  0
 21 24  2  0  0  0  0
 21 49  1  0  0  0  0
 22 26  1  0  0  0  0
 22 50  1  0  0  0  0
 23 27  1  0  0  0  0
 24 25  1  0  0  0  0
 25 26  2  0  0  0  0
 25 28  1  0  0  0  0
 27 32  1  0  0  0  0
 27 51  1  0  0  0  0
 27 52  1  0  0  0  0
 28 29  1  0  0  0  0
 29 30  2  0  0  0  0
 29 31  1  0  0  0  0
 30 53  1  0  0  0  0
 31 33  2  0  0  0  0
 31 34  1  0  0  0  0
 33 35  1  0  0  0  0
 33 55  1  0  0  0  0
 34 36  2  0  0  0  0
 34 56  1  0  0  0  0
 35 37  2  0  0  0  0
 35 57  1  0  0  0  0
 36 37  1  0  0  0  0
 36 58  1  0  0  0  0
 38 60  1  0  0  0  0
 38 61  1  0  0  0  0
 38 62  1  0  0  0  0
M  END
> <PUBCHEM_COMPOUND_CID>
5282148

> <PUBCHEM_COMPOUND_CANONICALIZED>
1

> <PUBCHEM_CACTVS_COMPLEXITY>
898

> <PUBCHEM_CACTVS_HBOND_ACCEPTOR>
13

> <PUBCHEM_CACTVS_HBOND_DONOR>
5

> <PUBCHEM_CACTVS_ROTATABLE_BOND>
9

> <PUBCHEM_CACTVS_SUBSKEYS>
AAADceB4PAAAAAAAAAAAAAAAAAAAAAAAAAA0YIEAAAAAAACBQAAAGgAACAAADBSwmAMyDoAABgCIAqDSCAACCAAkIAAIiAEGCMgdNzaONRqieWCl4BUPuYfI7PzOIAAACAAIAABAAAAQABAAAAAAAAAAAA==

> <PUBCHEM_IUPAC_OPENEYE_NAME>
3-oxo-3-[[(2R,3S,4S,5R,6S)-3,4,5-trihydroxy-6-[5-hydroxy-3-(4-methoxyphenyl)-4-oxo-chromen-7-yl]oxy-tetrahydropyran-2-yl]methoxy]propanoic acid

> <PUBCHEM_IUPAC_CAS_NAME>
3-oxo-3-[[(2R,3S,4S,5R,6S)-3,4,5-trihydroxy-6-[[5-hydroxy-3-(4-methoxyphenyl)-4-oxo-1-benzopyran-7-yl]oxy]-2-oxanyl]methoxy]propanoic acid

> <PUBCHEM_IUPAC_NAME>
3-oxo-3-[[(2R,3S,4S,5R,6S)-3,4,5-trihydroxy-6-[5-hydroxy-3-(4-methoxyphenyl)-4-oxochromen-7-yl]oxyoxan-2-yl]methoxy]propanoic acid

> <PUBCHEM_IUPAC_SYSTEMATIC_NAME>
3-[[(2R,3S,4S,5R,6S)-6-[3-(4-methoxyphenyl)-5-oxidanyl-4-oxidanylidene-chromen-7-yl]oxy-3,4,5-tris(oxidanyl)oxan-2-yl]methoxy]-3-oxidanylidene-propanoic acid

> <PUBCHEM_IUPAC_TRADITIONAL_NAME>
3-keto-3-[[(2R,3S,4S,5R,6S)-3,4,5-trihydroxy-6-[5-hydroxy-4-keto-3-(4-methoxyphenyl)chromen-7-yl]oxy-tetrahydropyran-2-yl]methoxy]propionic acid

> <PUBCHEM_IUPAC_INCHI>
InChI=1S/C25H24O13/c1-34-12-4-2-11(3-5-12)14-9-35-16-7-13(6-15(26)20(16)21(14)30)37-25-24(33)23(32)22(31)17(38-25)10-36-19(29)8-18(27)28/h2-7,9,17,22-26,31-33H,8,10H2,1H3,(H,27,28)/t17-,22-,23+,24-,25-/m1/s1

> <PUBCHEM_IUPAC_INCHIKEY>
VRCBYTZZZFFKEN-RBZNUJCTSA-N

> <PUBCHEM_XLOGP3_AA>
0.9

> <PUBCHEM_EXACT_MASS>
532.121691

> <PUBCHEM_MOLECULAR_FORMULA>
C25H24O13

> <PUBCHEM_MOLECULAR_WEIGHT>
532.45026

> <PUBCHEM_OPENEYE_CAN_SMILES>
COC1=CC=C(C=C1)C2=COC3=CC(=CC(=C3C2=O)O)OC4C(C(C(C(O4)COC(=O)CC(=O)O)O)O)O

> <PUBCHEM_OPENEYE_ISO_SMILES>
COC1=CC=C(C=C1)C2=COC3=CC(=CC(=C3C2=O)O)O[C@H]4[C@@H]([C@H]([C@@H]([C@H](O4)COC(=O)CC(=O)O)O)O)O

> <PUBCHEM_CACTVS_TPSA>
199

> <PUBCHEM_MONOISOTOPIC_WEIGHT>
532.121691

> <PUBCHEM_TOTAL_CHARGE>
0

> <PUBCHEM_HEAVY_ATOM_COUNT>
38

> <PUBCHEM_ATOM_DEF_STEREO_COUNT>
5

> <PUBCHEM_ATOM_UDEF_STEREO_COUNT>
0

> <PUBCHEM_BOND_DEF_STEREO_COUNT>
0

> <PUBCHEM_BOND_UDEF_STEREO_COUNT>
0

> <PUBCHEM_ISOTOPIC_ATOM_COUNT>
0

> <PUBCHEM_COMPONENT_COUNT>
1

> <PUBCHEM_CACTVS_TAUTO_COUNT>
5

> <PUBCHEM_COORDINATE_TYPE>
1
5
255

> <PUBCHEM_BONDANNOTATIONS>
16  19  6
14  2  5
20  21  8
20  22  8
21  24  8
22  26  8
24  25  8
25  26  8
25  28  8
28  29  8
29  30  8
18  3  6
31  33  8
31  34  8
33  35  8
34  36  8
35  37  8
36  37  8
15  4  6
17  5  5
7  24  8
7  30  8

$$$$

