14145
  -OEChem-07051213122D

 29 29  0     1  0  0  0  0  0999 V2000
    2.0000    0.0000    0.0000 Cl  0  0  0  0  0  0  0  0  0  0  0  0
    2.3660    1.3660    0.0000 Cl  0  0  0  0  0  0  0  0  0  0  0  0
    5.4641    1.0000    0.0000 S   0  0  0  0  0  0  0  0  0  0  0  0
    3.7320    1.0000    0.0000 S   0  0  0  0  0  0  0  0  0  0  0  0
    3.3660   -0.3660    0.0000 F   0  0  0  0  0  0  0  0  0  0  0  0
    4.9641    1.8660    0.0000 O   0  0  0  0  0  0  0  0  0  0  0  0
    5.9641    0.1340    0.0000 O   0  0  0  0  0  0  0  0  0  0  0  0
    4.5981    0.5000    0.0000 N   0  0  3  0  0  0  0  0  0  0  0  0
    6.3301    1.5000    0.0000 N   0  0  0  0  0  0  0  0  0  0  0  0
    4.5981   -0.5000    0.0000 C   0  0  0  0  0  0  0  0  0  0  0  0
    6.3301    2.5000    0.0000 C   0  0  0  0  0  0  0  0  0  0  0  0
    7.1962    1.0000    0.0000 C   0  0  0  0  0  0  0  0  0  0  0  0
    3.7320   -1.0000    0.0000 C   0  0  0  0  0  0  0  0  0  0  0  0
    5.4641   -1.0000    0.0000 C   0  0  0  0  0  0  0  0  0  0  0  0
    3.7320   -2.0000    0.0000 C   0  0  0  0  0  0  0  0  0  0  0  0
    5.4641   -2.0000    0.0000 C   0  0  0  0  0  0  0  0  0  0  0  0
    4.5981   -2.5000    0.0000 C   0  0  0  0  0  0  0  0  0  0  0  0
    2.8660    0.5000    0.0000 C   0  0  0  0  0  0  0  0  0  0  0  0
    6.9501    2.5000    0.0000 H   0  0  0  0  0  0  0  0  0  0  0  0
    6.3301    3.1200    0.0000 H   0  0  0  0  0  0  0  0  0  0  0  0
    5.7101    2.5000    0.0000 H   0  0  0  0  0  0  0  0  0  0  0  0
    6.8862    0.4631    0.0000 H   0  0  0  0  0  0  0  0  0  0  0  0
    7.7331    0.6900    0.0000 H   0  0  0  0  0  0  0  0  0  0  0  0
    7.5062    1.5369    0.0000 H   0  0  0  0  0  0  0  0  0  0  0  0
    3.1951   -0.6900    0.0000 H   0  0  0  0  0  0  0  0  0  0  0  0
    6.0010   -0.6900    0.0000 H   0  0  0  0  0  0  0  0  0  0  0  0
    3.1951   -2.3100    0.0000 H   0  0  0  0  0  0  0  0  0  0  0  0
    6.0010   -2.3100    0.0000 H   0  0  0  0  0  0  0  0  0  0  0  0
    4.5981   -3.1200    0.0000 H   0  0  0  0  0  0  0  0  0  0  0  0
  1 18  1  0  0  0  0
  2 18  1  0  0  0  0
  3  6  2  0  0  0  0
  3  7  2  0  0  0  0
  3  8  1  0  0  0  0
  3  9  1  0  0  0  0
  4  8  1  0  0  0  0
  4 18  1  0  0  0  0
  5 18  1  0  0  0  0
  8 10  1  0  0  0  0
  9 11  1  0  0  0  0
  9 12  1  0  0  0  0
 10 13  2  0  0  0  0
 10 14  1  0  0  0  0
 11 19  1  0  0  0  0
 11 20  1  0  0  0  0
 11 21  1  0  0  0  0
 12 22  1  0  0  0  0
 12 23  1  0  0  0  0
 12 24  1  0  0  0  0
 13 15  1  0  0  0  0
 13 25  1  0  0  0  0
 14 16  2  0  0  0  0
 14 26  1  0  0  0  0
 15 17  2  0  0  0  0
 15 27  1  0  0  0  0
 16 17  1  0  0  0  0
 16 28  1  0  0  0  0
 17 29  1  0  0  0  0
M  END
> <PUBCHEM_COMPOUND_CID>
14145

> <PUBCHEM_COMPOUND_CANONICALIZED>
1

> <PUBCHEM_CACTVS_COMPLEXITY>
367

> <PUBCHEM_CACTVS_HBOND_ACCEPTOR>
6

> <PUBCHEM_CACTVS_HBOND_DONOR>
0

> <PUBCHEM_CACTVS_ROTATABLE_BOND>
5

> <PUBCHEM_CACTVS_SUBSKEYS>
AAADccBzMQBmAAAAAAAAAAAAAAAAAAAAAAAwAAAAAAAAAAABAAAAHQYAQAAACAiBEIQywIIAAACAACRCQDCCAAAgAgAIiAAIZIgIICKAkZGAIABggAAIyAcQAAAAAAAAAAAAAAAAAAAAAAAAAAAAAAAAAA==

> <PUBCHEM_IUPAC_OPENEYE_NAME>
N-[dichloro(fluoro)methyl]sulfanyl-N-(dimethylsulfamoyl)aniline

> <PUBCHEM_IUPAC_CAS_NAME>
1,1-dichloro-N-(dimethylsulfamoyl)-1-fluoro-N-phenylmethanesulfenamide

> <PUBCHEM_IUPAC_NAME>
N-[dichloro(fluoro)methyl]sulfanyl-N-(dimethylsulfamoyl)aniline

> <PUBCHEM_IUPAC_SYSTEMATIC_NAME>
N-[bis(chloranyl)-fluoranyl-methyl]sulfanyl-N-(dimethylsulfamoyl)aniline

> <PUBCHEM_IUPAC_TRADITIONAL_NAME>
[[dichloro(fluoro)methyl]thio]-(dimethylsulfamoyl)-phenyl-amine

> <PUBCHEM_IUPAC_INCHI>
InChI=1S/C9H11Cl2FN2O2S2/c1-13(2)18(15,16)14(17-9(10,11)12)8-6-4-3-5-7-8/h3-7H,1-2H3

> <PUBCHEM_IUPAC_INCHIKEY>
WURGXGVFSMYFCG-UHFFFAOYSA-N

> <PUBCHEM_XLOGP3>
3.6

> <PUBCHEM_EXACT_MASS>
331.962303

> <PUBCHEM_MOLECULAR_FORMULA>
C9H11Cl2FN2O2S2

> <PUBCHEM_MOLECULAR_WEIGHT>
333.230243

> <PUBCHEM_OPENEYE_CAN_SMILES>
CN(C)S(=O)(=O)N(C1=CC=CC=C1)SC(F)(Cl)Cl

> <PUBCHEM_OPENEYE_ISO_SMILES>
CN(C)S(=O)(=O)N(C1=CC=CC=C1)SC(F)(Cl)Cl

> <PUBCHEM_CACTVS_TPSA>
74.3

> <PUBCHEM_MONOISOTOPIC_WEIGHT>
331.962303

> <PUBCHEM_TOTAL_CHARGE>
0

> <PUBCHEM_HEAVY_ATOM_COUNT>
18

> <PUBCHEM_ATOM_DEF_STEREO_COUNT>
0

> <PUBCHEM_ATOM_UDEF_STEREO_COUNT>
0

> <PUBCHEM_BOND_DEF_STEREO_COUNT>
0

> <PUBCHEM_BOND_UDEF_STEREO_COUNT>
0

> <PUBCHEM_ISOTOPIC_ATOM_COUNT>
0

> <PUBCHEM_COMPONENT_COUNT>
1

> <PUBCHEM_CACTVS_TAUTO_COUNT>
1

> <PUBCHEM_COORDINATE_TYPE>
1
5
255

> <PUBCHEM_BONDANNOTATIONS>
10  13  8
10  14  8
13  15  8
14  16  8
15  17  8
16  17  8

$$$$

