24892800
  -OEChem-07051213093D

 47 48  0     1  0  0  0  0  0999 V2000
   -0.5529    0.3951   -1.3295 O   0  0  0  0  0  0  0  0  0  0  0  0
    5.8865    0.6881   -0.3397 O   0  0  0  0  0  0  0  0  0  0  0  0
   -2.9301    0.1174   -0.1018 N   0  0  1  0  0  0  0  0  0  0  0  0
    0.5362   -0.5873    0.5105 N   0  0  0  0  0  0  0  0  0  0  0  0
   -1.8287   -0.7813    0.2906 C   0  0  1  0  0  0  0  0  0  0  0  0
   -2.0186   -2.1995   -0.2648 C   0  0  0  0  0  0  0  0  0  0  0  0
   -4.2331   -0.4294    0.3176 C   0  0  0  0  0  0  0  0  0  0  0  0
   -3.3685   -2.7817    0.1301 C   0  0  0  0  0  0  0  0  0  0  0  0
   -4.4833   -1.8217   -0.2595 C   0  0  0  0  0  0  0  0  0  0  0  0
   -2.7722    1.4615    0.4680 C   0  0  0  0  0  0  0  0  0  0  0  0
   -0.5511   -0.2472   -0.2844 C   0  0  0  0  0  0  0  0  0  0  0  0
   -3.5122    2.4888   -0.3848 C   0  0  0  0  0  0  0  0  0  0  0  0
   -3.3464    3.8941    0.1726 C   0  0  0  0  0  0  0  0  0  0  0  0
    1.8963   -0.2631    0.2934 C   0  0  0  0  0  0  0  0  0  0  0  0
    2.8406   -1.2791    0.1455 C   0  0  0  0  0  0  0  0  0  0  0  0
    2.2930    1.0725    0.2282 C   0  0  0  0  0  0  0  0  0  0  0  0
    4.1815   -0.9595   -0.0675 C   0  0  0  0  0  0  0  0  0  0  0  0
    3.6338    1.3922    0.0152 C   0  0  0  0  0  0  0  0  0  0  0  0
    2.4467   -2.7193    0.2121 C   0  0  0  0  0  0  0  0  0  0  0  0
    1.3045    2.1830    0.3810 C   0  0  0  0  0  0  0  0  0  0  0  0
    4.5780    0.3762   -0.1326 C   0  0  0  0  0  0  0  0  0  0  0  0
   -1.7620   -0.8245    1.3868 H   0  0  0  0  0  0  0  0  0  0  0  0
   -1.2214   -2.8608    0.0966 H   0  0  0  0  0  0  0  0  0  0  0  0
   -1.9362   -2.1924   -1.3605 H   0  0  0  0  0  0  0  0  0  0  0  0
   -5.0525    0.2120   -0.0236 H   0  0  0  0  0  0  0  0  0  0  0  0
   -4.2984   -0.4807    1.4129 H   0  0  0  0  0  0  0  0  0  0  0  0
   -3.3924   -2.9573    1.2124 H   0  0  0  0  0  0  0  0  0  0  0  0
   -3.5181   -3.7508   -0.3581 H   0  0  0  0  0  0  0  0  0  0  0  0
   -4.5538   -1.7615   -1.3529 H   0  0  0  0  0  0  0  0  0  0  0  0
   -5.4438   -2.2056    0.1027 H   0  0  0  0  0  0  0  0  0  0  0  0
   -3.1161    1.4986    1.5103 H   0  0  0  0  0  0  0  0  0  0  0  0
   -1.7242    1.7753    0.4972 H   0  0  0  0  0  0  0  0  0  0  0  0
   -3.1295    2.4668   -1.4127 H   0  0  0  0  0  0  0  0  0  0  0  0
   -4.5839    2.2706   -0.4357 H   0  0  0  0  0  0  0  0  0  0  0  0
    0.3926   -1.4015    1.1043 H   0  0  0  0  0  0  0  0  0  0  0  0
   -2.2911    4.1843    0.1994 H   0  0  0  0  0  0  0  0  0  0  0  0
   -3.8802    4.6159   -0.4537 H   0  0  0  0  0  0  0  0  0  0  0  0
   -3.7484    3.9631    1.1885 H   0  0  0  0  0  0  0  0  0  0  0  0
    4.9264   -1.7432   -0.1828 H   0  0  0  0  0  0  0  0  0  0  0  0
    3.9456    2.4326   -0.0388 H   0  0  0  0  0  0  0  0  0  0  0  0
    2.1145   -2.9778    1.2228 H   0  0  0  0  0  0  0  0  0  0  0  0
    1.6435   -2.9347   -0.5007 H   0  0  0  0  0  0  0  0  0  0  0  0
    3.2824   -3.3816   -0.0393 H   0  0  0  0  0  0  0  0  0  0  0  0
    0.7954    2.3865   -0.5648 H   0  0  0  0  0  0  0  0  0  0  0  0
    0.5730    1.9701    1.1664 H   0  0  0  0  0  0  0  0  0  0  0  0
    1.8052    3.1095    0.6863 H   0  0  0  0  0  0  0  0  0  0  0  0
    5.9817    1.6559   -0.3562 H   0  0  0  0  0  0  0  0  0  0  0  0
  1 11  2  0  0  0  0
  2 21  1  0  0  0  0
  2 47  1  0  0  0  0
  3  5  1  0  0  0  0
  3  7  1  0  0  0  0
  3 10  1  0  0  0  0
  4 11  1  0  0  0  0
  4 14  1  0  0  0  0
  4 35  1  0  0  0  0
  5  6  1  0  0  0  0
  5 11  1  0  0  0  0
  5 22  1  0  0  0  0
  6  8  1  0  0  0  0
  6 23  1  0  0  0  0
  6 24  1  0  0  0  0
  7  9  1  0  0  0  0
  7 25  1  0  0  0  0
  7 26  1  0  0  0  0
  8  9  1  0  0  0  0
  8 27  1  0  0  0  0
  8 28  1  0  0  0  0
  9 29  1  0  0  0  0
  9 30  1  0  0  0  0
 10 12  1  0  0  0  0
 10 31  1  0  0  0  0
 10 32  1  0  0  0  0
 12 13  1  0  0  0  0
 12 33  1  0  0  0  0
 12 34  1  0  0  0  0
 13 36  1  0  0  0  0
 13 37  1  0  0  0  0
 13 38  1  0  0  0  0
 14 15  2  0  0  0  0
 14 16  1  0  0  0  0
 15 17  1  0  0  0  0
 15 19  1  0  0  0  0
 16 18  2  0  0  0  0
 16 20  1  0  0  0  0
 17 21  2  0  0  0  0
 17 39  1  0  0  0  0
 18 21  1  0  0  0  0
 18 40  1  0  0  0  0
 19 41  1  0  0  0  0
 19 42  1  0  0  0  0
 19 43  1  0  0  0  0
 20 44  1  0  0  0  0
 20 45  1  0  0  0  0
 20 46  1  0  0  0  0
M  END
> <PUBCHEM_COMPOUND_CID>
24892800

> <PUBCHEM_CONFORMER_RMSD>
0.8

> <PUBCHEM_CONFORMER_DIVERSEORDER>
1
16
12
21
25
4
13
2
26
23
10
22
18
19
24
14
17
5
11
15
8
27
6
9
3
7
20

> <PUBCHEM_MMFF94_PARTIAL_CHARGES>
20
1 -0.57
10 0.27
11 0.57
14 0.12
15 -0.14
16 -0.14
17 -0.15
18 -0.15
19 0.14
2 -0.53
20 0.14
21 0.08
3 -0.81
35 0.37
39 0.15
4 -0.55
40 0.15
47 0.45
5 0.33
7 0.27

> <PUBCHEM_EFFECTIVE_ROTOR_COUNT>
6.2

> <PUBCHEM_PHARMACOPHORE_FEATURES>
7
1 1 acceptor
1 13 hydrophobe
1 2 donor
1 3 cation
1 4 donor
6 14 15 16 17 18 21 rings
6 3 5 6 7 8 9 rings

> <PUBCHEM_HEAVY_ATOM_COUNT>
21

> <PUBCHEM_ATOM_DEF_STEREO_COUNT>
1

> <PUBCHEM_ATOM_UDEF_STEREO_COUNT>
0

> <PUBCHEM_BOND_DEF_STEREO_COUNT>
0

> <PUBCHEM_BOND_UDEF_STEREO_COUNT>
0

> <PUBCHEM_ISOTOPIC_ATOM_COUNT>
0

> <PUBCHEM_COMPONENT_COUNT>
1

> <PUBCHEM_CACTVS_TAUTO_COUNT>
10

> <PUBCHEM_CONFORMER_ID>
017BD58000000001

> <PUBCHEM_MMFF94_ENERGY>
54.4136

> <PUBCHEM_FEATURE_SELFOVERLAP>
35.52

> <PUBCHEM_SHAPE_FINGERPRINT>
10366900 7 18341896225522767219
10616163 171 18409446959990128943
1100329 8 17908145734527505539
12107183 9 17836934760247887130
12173636 292 18409737265714713695
12500047 106 18338520845142536069
12633257 1 18054799639180390802
12788726 201 18342466915582353587
13140716 1 17836374744063246170
13583140 156 17894926117263550000
138480 1 15960333587606183497
14178342 30 18339662086967712834
14289901 80 18412544297151152883
14341114 176 18409722959030736587
14790565 3 17760925542847810033
15196674 1 18411136978582059640
15442244 35 18339082708358442410
17492 89 18410575106407902299
17844677 252 18410566289071327116
1813 80 17132110251586020966
19591789 44 16824460605901770259
19930381 70 17762342414204364873
200 152 18187927222765582547
20510252 161 18407759244670572761
21033650 10 18197468866929682476
21065198 57 18410856607069143598
21267235 1 18337381652523071314
21421861 104 17700419362784744050
221357 26 18335139760866238787
221490 88 18195241114263503394
22393880 68 18335697269729157422
23402539 116 18260552174263529911
23402655 69 18412262878515464356
23557571 272 18261385650583545940
23558518 356 18272082825322925707
23559900 14 18337680698205390561
335352 9 18050568744433249118
350125 39 18409727374721516025
3545911 37 18410292488863544803
4214541 1 18410292523059648881
5104073 3 18412267276440527178
543358 83 18267019647396715898
77779 3 18410292506122652146
7832392 63 18411141380638902840
9709674 26 18410006632947066727

> <PUBCHEM_SHAPE_MULTIPOLES>
410.47
10.44
3.56
0.74
5.43
1.51
-0.06
0.54
-0.44
-4.18
0.15
-0.09
0.05
-0.14

> <PUBCHEM_SHAPE_SELFOVERLAP>
846.363

> <PUBCHEM_SHAPE_VOLUME>
236.5

> <PUBCHEM_COORDINATE_TYPE>
2
5
10

$$$$

