442045
  -OEChem-07051212563D

 60 63  0     1  0  0  0  0  0999 V2000
    2.2345    2.7248   -0.9833 O   0  0  0  0  0  0  0  0  0  0  0  0
    3.7771    1.6620    0.8434 O   0  0  0  0  0  0  0  0  0  0  0  0
   -1.2965   -2.4940    1.4733 O   0  0  0  0  0  0  0  0  0  0  0  0
   -3.6260    0.0477   -0.9971 O   0  0  0  0  0  0  0  0  0  0  0  0
    2.8211   -0.1615   -2.5346 O   0  0  0  0  0  0  0  0  0  0  0  0
   -5.4963   -1.2175   -0.5086 O   0  0  0  0  0  0  0  0  0  0  0  0
   -0.4395   -0.2700    0.7728 C   0  0  1  0  0  0  0  0  0  0  0  0
    0.8743   -0.7563   -0.0182 C   0  0  1  0  0  0  0  0  0  0  0  0
    1.9450    0.3748   -0.2911 C   0  0  1  0  0  0  0  0  0  0  0  0
   -0.9646    1.0354    0.0406 C   0  0  1  0  0  0  0  0  0  0  0  0
    1.3051    1.6543   -0.8480 C   0  0  1  0  0  0  0  0  0  0  0  0
   -2.3857    1.5678    0.4603 C   0  0  0  0  0  0  0  0  0  0  0  0
    2.9127    0.5319    0.9136 C   0  0  1  0  0  0  0  0  0  0  0  0
    0.1185    2.1283   -0.0158 C   0  0  0  0  0  0  0  0  0  0  0  0
   -1.5804   -1.3496    0.6701 C   0  0  2  0  0  0  0  0  0  0  0  0
    1.5558   -2.0683    0.4930 C   0  0  0  0  0  0  0  0  0  0  0  0
    3.7358   -0.7603    0.8717 C   0  0  1  0  0  0  0  0  0  0  0  0
    2.8385   -1.9119    1.3296 C   0  0  0  0  0  0  0  0  0  0  0  0
   -3.4107    0.4045    0.3727 C   0  0  2  0  0  0  0  0  0  0  0  0
    2.9338   -0.1990   -1.3200 C   0  0  0  0  0  0  0  0  0  0  0  0
   -2.9610   -0.8444    1.1168 C   0  0  0  0  0  0  0  0  0  0  0  0
   -0.1098   -0.0461    2.2661 C   0  0  0  0  0  0  0  0  0  0  0  0
    4.0525   -0.8737   -0.5955 C   0  0  0  0  0  0  0  0  0  0  0  0
   -2.4225    2.2051    1.8632 C   0  0  0  0  0  0  0  0  0  0  0  0
   -2.8474    2.6786   -0.5262 C   0  0  0  0  0  0  0  0  0  0  0  0
    5.1222   -1.4006   -1.1910 C   0  0  0  0  0  0  0  0  0  0  0  0
   -4.5275   -0.9540   -1.2082 C   0  0  0  0  0  0  0  0  0  0  0  0
   -4.1589   -1.7082   -2.4497 C   0  0  0  0  0  0  0  0  0  0  0  0
    0.4865   -1.0321   -1.0134 H   0  0  0  0  0  0  0  0  0  0  0  0
   -1.1036    0.7237   -1.0083 H   0  0  0  0  0  0  0  0  0  0  0  0
    0.9344    1.4596   -1.8633 H   0  0  0  0  0  0  0  0  0  0  0  0
    2.3894    0.6287    1.8639 H   0  0  0  0  0  0  0  0  0  0  0  0
   -0.2596    3.0418   -0.4857 H   0  0  0  0  0  0  0  0  0  0  0  0
    0.4496    2.4411    0.9795 H   0  0  0  0  0  0  0  0  0  0  0  0
   -1.6439   -1.6974   -0.3678 H   0  0  0  0  0  0  0  0  0  0  0  0
    1.8270   -2.6523   -0.3989 H   0  0  0  0  0  0  0  0  0  0  0  0
    0.8748   -2.7209    1.0356 H   0  0  0  0  0  0  0  0  0  0  0  0
    4.6447   -0.6870    1.4780 H   0  0  0  0  0  0  0  0  0  0  0  0
    2.5684   -1.7550    2.3805 H   0  0  0  0  0  0  0  0  0  0  0  0
    3.3968   -2.8562    1.2993 H   0  0  0  0  0  0  0  0  0  0  0  0
   -4.3704    0.7470    0.7832 H   0  0  0  0  0  0  0  0  0  0  0  0
   -3.6726   -1.6715    1.0195 H   0  0  0  0  0  0  0  0  0  0  0  0
   -2.9539   -0.6482    2.1953 H   0  0  0  0  0  0  0  0  0  0  0  0
    0.5299   -0.8384    2.6621 H   0  0  0  0  0  0  0  0  0  0  0  0
    0.3858    0.9069    2.4552 H   0  0  0  0  0  0  0  0  0  0  0  0
   -0.9957   -0.0647    2.9023 H   0  0  0  0  0  0  0  0  0  0  0  0
   -2.3089    1.4846    2.6714 H   0  0  0  0  0  0  0  0  0  0  0  0
   -1.6475    2.9693    1.9799 H   0  0  0  0  0  0  0  0  0  0  0  0
   -3.3869    2.6991    2.0354 H   0  0  0  0  0  0  0  0  0  0  0  0
   -2.3163    3.6216   -0.3595 H   0  0  0  0  0  0  0  0  0  0  0  0
   -2.6907    2.3870   -1.5704 H   0  0  0  0  0  0  0  0  0  0  0  0
   -3.9152    2.8944   -0.3993 H   0  0  0  0  0  0  0  0  0  0  0  0
    2.9230    2.4413   -1.6082 H   0  0  0  0  0  0  0  0  0  0  0  0
    4.2489    1.6475   -0.0053 H   0  0  0  0  0  0  0  0  0  0  0  0
   -1.9794   -3.1617    1.2910 H   0  0  0  0  0  0  0  0  0  0  0  0
    5.9131   -1.8551   -0.6041 H   0  0  0  0  0  0  0  0  0  0  0  0
    5.2353   -1.3934   -2.2694 H   0  0  0  0  0  0  0  0  0  0  0  0
   -3.1772   -2.1717   -2.3264 H   0  0  0  0  0  0  0  0  0  0  0  0
   -4.1602   -1.0320   -3.3083 H   0  0  0  0  0  0  0  0  0  0  0  0
   -4.8964   -2.4961   -2.6271 H   0  0  0  0  0  0  0  0  0  0  0  0
  1 11  1  0  0  0  0
  1 53  1  0  0  0  0
  2 13  1  0  0  0  0
  2 54  1  0  0  0  0
  3 15  1  0  0  0  0
  3 55  1  0  0  0  0
  4 19  1  0  0  0  0
  4 27  1  0  0  0  0
  5 20  2  0  0  0  0
  6 27  2  0  0  0  0
  7  8  1  0  0  0  0
  7 10  1  0  0  0  0
  7 15  1  0  0  0  0
  7 22  1  0  0  0  0
  8  9  1  0  0  0  0
  8 16  1  0  0  0  0
  8 29  1  0  0  0  0
  9 11  1  0  0  0  0
  9 13  1  0  0  0  0
  9 20  1  0  0  0  0
 10 12  1  0  0  0  0
 10 14  1  0  0  0  0
 10 30  1  0  0  0  0
 11 14  1  0  0  0  0
 11 31  1  0  0  0  0
 12 19  1  0  0  0  0
 12 24  1  0  0  0  0
 12 25  1  0  0  0  0
 13 17  1  0  0  0  0
 13 32  1  0  0  0  0
 14 33  1  0  0  0  0
 14 34  1  0  0  0  0
 15 21  1  0  0  0  0
 15 35  1  0  0  0  0
 16 18  1  0  0  0  0
 16 36  1  0  0  0  0
 16 37  1  0  0  0  0
 17 18  1  0  0  0  0
 17 23  1  0  0  0  0
 17 38  1  0  0  0  0
 18 39  1  0  0  0  0
 18 40  1  0  0  0  0
 19 21  1  0  0  0  0
 19 41  1  0  0  0  0
 20 23  1  0  0  0  0
 21 42  1  0  0  0  0
 21 43  1  0  0  0  0
 22 44  1  0  0  0  0
 22 45  1  0  0  0  0
 22 46  1  0  0  0  0
 23 26  2  0  0  0  0
 24 47  1  0  0  0  0
 24 48  1  0  0  0  0
 24 49  1  0  0  0  0
 25 50  1  0  0  0  0
 25 51  1  0  0  0  0
 25 52  1  0  0  0  0
 26 56  1  0  0  0  0
 26 57  1  0  0  0  0
 27 28  1  0  0  0  0
 28 58  1  0  0  0  0
 28 59  1  0  0  0  0
 28 60  1  0  0  0  0
M  END
> <PUBCHEM_COMPOUND_CID>
442045

> <PUBCHEM_CONFORMER_RMSD>
0.8

> <PUBCHEM_CONFORMER_DIVERSEORDER>
2
3
1

> <PUBCHEM_MMFF94_PARTIAL_CHARGES>
22
1 -0.68
11 0.28
13 0.28
15 0.28
17 0.14
19 0.28
2 -0.68
20 0.49
23 -0.12
26 -0.3
27 0.66
28 0.06
3 -0.68
4 -0.43
5 -0.57
53 0.4
54 0.4
55 0.4
56 0.15
57 0.15
6 -0.57
9 0.06

> <PUBCHEM_EFFECTIVE_ROTOR_COUNT>
3.8

> <PUBCHEM_PHARMACOPHORE_FEATURES>
12
1 1 acceptor
1 1 donor
1 2 acceptor
1 2 donor
1 3 acceptor
1 3 donor
1 5 acceptor
1 6 acceptor
3 12 24 25 hydrophobe
6 7 10 12 15 19 21 rings
6 7 8 9 10 11 14 rings
8 8 9 13 16 17 18 20 23 rings

> <PUBCHEM_HEAVY_ATOM_COUNT>
28

> <PUBCHEM_ATOM_DEF_STEREO_COUNT>
9

> <PUBCHEM_ATOM_UDEF_STEREO_COUNT>
0

> <PUBCHEM_BOND_DEF_STEREO_COUNT>
0

> <PUBCHEM_BOND_UDEF_STEREO_COUNT>
0

> <PUBCHEM_ISOTOPIC_ATOM_COUNT>
0

> <PUBCHEM_COMPONENT_COUNT>
1

> <PUBCHEM_CACTVS_TAUTO_COUNT>
1

> <PUBCHEM_CONFORMER_ID>
0006BEBD00000002

> <PUBCHEM_MMFF94_ENERGY>
122.1229

> <PUBCHEM_FEATURE_SELFOVERLAP>
60.94

> <PUBCHEM_SHAPE_FINGERPRINT>
10062212 137 18199187467590516697
10863032 1 18191031311599449320
11578080 2 17202204001808377556
12166972 35 17775289365083606398
12403814 3 6122503471882561707
12553582 1 18130495431442963672
12596599 1 18114176505543768597
12788726 201 18114452388889733017
13140716 1 18055339245875522729
13224815 77 18259985985071135497
13782708 43 17823133600946248526
14289901 80 17312820502407036480
14787075 74 18042979674486331200
15238133 3 13541925519470511484
16752209 62 18272372000822303979
16945 1 18201428177571874849
17349148 13 18343027704639496035
192875 21 18273222997157991053
19862831 5 17917996066095585427
200 152 18408890624723641127
20691752 17 17988922297097218968
20775438 99 17397577228683074215
21033648 144 16557883651455471614
21033648 29 14405175145416471724
21069387 34 18333446538792642734
22182313 1 17984972696463063425
22393880 68 18338240478225040708
22907989 373 18058709335325309101
23402539 116 18340771549686741870
23557571 272 17603587460716464209
23559900 14 18342455894453288696
238 59 17704076179006716797
2748010 2 17911222928328801681
312423 11 18334564729349473761
463206 1 18116443548634412967
633830 44 16915086563346745409
7471813 234 18333737892152117932
9709674 26 18409446951442048080

> <PUBCHEM_SHAPE_MULTIPOLES>
541.01
9.11
2.66
1.93
1.53
0.93
0.28
-3.57
3.49
1.01
0.04
0.26
-0.5
-1.06

> <PUBCHEM_SHAPE_SELFOVERLAP>
1161.72

> <PUBCHEM_SHAPE_VOLUME>
293.9

> <PUBCHEM_COORDINATE_TYPE>
2
5
10

$$$$

