442258
  -OEChem-07051212572D

 36 38  0     1  0  0  0  0  0999 V2000
    4.6397   -1.4994    0.0000 O   0  0  0  0  0  0  0  0  0  0  0  0
    6.3056    0.3531    0.0000 O   0  0  0  0  0  0  0  0  0  0  0  0
    6.0518   -2.5770    0.0000 O   0  0  0  0  0  0  0  0  0  0  0  0
    3.6027   -0.0807    0.0000 C   0  0  1  0  0  0  0  0  0  0  0  0
    3.3802    0.8942    0.0000 C   0  0  1  0  0  0  0  0  0  0  0  0
    4.5037   -0.5146    0.0000 C   0  0  2  0  0  0  0  0  0  0  0  0
    5.4047   -0.0807    0.0000 C   0  0  2  0  0  0  0  0  0  0  0  0
    2.3899    0.9807    0.0000 C   0  0  0  0  0  0  0  0  0  0  0  0
    2.7480   -0.5884    0.0000 C   0  0  0  0  0  0  0  0  0  0  0  0
    5.6272    0.8942    0.0000 C   0  0  0  0  0  0  0  0  0  0  0  0
    2.0000    0.0663    0.0000 C   0  0  0  0  0  0  0  0  0  0  0  0
    4.0037    1.6760    0.0000 C   0  0  0  0  0  0  0  0  0  0  0  0
    5.0037    1.6760    0.0000 C   0  0  0  0  0  0  0  0  0  0  0  0
    6.0898   -0.8010    0.0000 C   0  0  0  0  0  0  0  0  0  0  0  0
    5.6180   -1.6760    0.0000 C   0  0  0  0  0  0  0  0  0  0  0  0
    2.6567   -1.5842    0.0000 C   0  0  0  0  0  0  0  0  0  0  0  0
    3.5698    2.5770    0.0000 C   0  0  0  0  0  0  0  0  0  0  0  0
    7.0810   -0.6685    0.0000 C   0  0  0  0  0  0  0  0  0  0  0  0
    3.6398   -0.9299    0.0000 H   0  0  0  0  0  0  0  0  0  0  0  0
    3.0451    1.6754    0.0000 H   0  0  0  0  0  0  0  0  0  0  0  0
    3.8167   -1.0151    0.0000 H   0  0  0  0  0  0  0  0  0  0  0  0
    2.5085    1.5893    0.0000 H   0  0  0  0  0  0  0  0  0  0  0  0
    1.7972    1.1626    0.0000 H   0  0  0  0  0  0  0  0  0  0  0  0
    6.1858    0.6252    0.0000 H   0  0  0  0  0  0  0  0  0  0  0  0
    6.0138    1.3789    0.0000 H   0  0  0  0  0  0  0  0  0  0  0  0
    1.4584    0.3681    0.0000 H   0  0  0  0  0  0  0  0  0  0  0  0
    1.6430   -0.4406    0.0000 H   0  0  0  0  0  0  0  0  0  0  0  0
    5.5623    1.9450    0.0000 H   0  0  0  0  0  0  0  0  0  0  0  0
    4.8657    2.2805    0.0000 H   0  0  0  0  0  0  0  0  0  0  0  0
    6.3520    0.9714    0.0000 H   0  0  0  0  0  0  0  0  0  0  0  0
    2.0937   -1.8439    0.0000 H   0  0  0  0  0  0  0  0  0  0  0  0
    3.1630   -1.9420    0.0000 H   0  0  0  0  0  0  0  0  0  0  0  0
    3.9191    3.0892    0.0000 H   0  0  0  0  0  0  0  0  0  0  0  0
    2.9516    2.6233    0.0000 H   0  0  0  0  0  0  0  0  0  0  0  0
    7.4594   -1.1596    0.0000 H   0  0  0  0  0  0  0  0  0  0  0  0
    7.3171   -0.0952    0.0000 H   0  0  0  0  0  0  0  0  0  0  0  0
  1  6  1  0  0  0  0
  1 15  1  0  0  0  0
  7  2  1  6  0  0  0
  2 30  1  0  0  0  0
  3 15  2  0  0  0  0
  4  5  1  0  0  0  0
  4  6  1  0  0  0  0
  4  9  1  0  0  0  0
  4 19  1  6  0  0  0
  5  8  1  0  0  0  0
  5 12  1  0  0  0  0
  5 20  1  6  0  0  0
  6  7  1  0  0  0  0
  6 21  1  1  0  0  0
  7 10  1  0  0  0  0
  7 14  1  0  0  0  0
  8 11  1  0  0  0  0
  8 22  1  0  0  0  0
  8 23  1  0  0  0  0
  9 11  1  0  0  0  0
  9 16  2  0  0  0  0
 10 13  1  0  0  0  0
 10 24  1  0  0  0  0
 10 25  1  0  0  0  0
 11 26  1  0  0  0  0
 11 27  1  0  0  0  0
 12 13  1  0  0  0  0
 12 17  2  0  0  0  0
 13 28  1  0  0  0  0
 13 29  1  0  0  0  0
 14 15  1  0  0  0  0
 14 18  2  0  0  0  0
 16 31  1  0  0  0  0
 16 32  1  0  0  0  0
 17 33  1  0  0  0  0
 17 34  1  0  0  0  0
 18 35  1  0  0  0  0
 18 36  1  0  0  0  0
M  END
> <PUBCHEM_COMPOUND_CID>
442258

> <PUBCHEM_COMPOUND_CANONICALIZED>
1

> <PUBCHEM_CACTVS_COMPLEXITY>
476

> <PUBCHEM_CACTVS_HBOND_ACCEPTOR>
3

> <PUBCHEM_CACTVS_HBOND_DONOR>
1

> <PUBCHEM_CACTVS_ROTATABLE_BOND>
0

> <PUBCHEM_CACTVS_SUBSKEYS>
AAADceBwMAAAAAAAAAAAAAAAAAAAAaIAAAAAAAAABgAAAADQAAAAGgAACAAADVSggAIACAAABgCIAgDSCAAAAAAgAAAAAAEAAEgBBBYAIQACQAAF4AADMIGKyPCOgAAAAAAAAAAAAAAAAAAAAAAACAAAAA==

> <PUBCHEM_IUPAC_OPENEYE_NAME>
(3aR,6aR,9aR,9bR)-3a-hydroxy-3,6,9-trimethylene-5,6a,7,8,9a,9b-hexahydro-4H-azuleno[4,5-b]furan-2-one

> <PUBCHEM_IUPAC_CAS_NAME>
(3aR,6aR,9aR,9bR)-3a-hydroxy-3,6,9-trimethylene-5,6a,7,8,9a,9b-hexahydro-4H-azuleno[4,5-b]furan-2-one

> <PUBCHEM_IUPAC_NAME>
(3aR,6aR,9aR,9bR)-3a-hydroxy-3,6,9-trimethylidene-5,6a,7,8,9a,9b-hexahydro-4H-azuleno[4,5-b]furan-2-one

> <PUBCHEM_IUPAC_SYSTEMATIC_NAME>
(3aR,6aR,9aR,9bR)-3,6,9-trimethylidene-3a-oxidanyl-5,6a,7,8,9a,9b-hexahydro-4H-azuleno[4,5-b]furan-2-one

> <PUBCHEM_IUPAC_TRADITIONAL_NAME>
(3aR,6aR,9aR,9bR)-3a-hydroxy-3,6,9-trimethylene-5,6a,7,8,9a,9b-hexahydro-4H-azuleno[4,5-b]furan-2-one

> <PUBCHEM_IUPAC_INCHI>
InChI=1S/C15H18O3/c1-8-6-7-15(17)10(3)14(16)18-13(15)12-9(2)4-5-11(8)12/h11-13,17H,1-7H2/t11-,12-,13+,15+/m0/s1

> <PUBCHEM_IUPAC_INCHIKEY>
ZTYPRVNFNKGSDK-RMRHIDDWSA-N

> <PUBCHEM_XLOGP3_AA>
1.5

> <PUBCHEM_EXACT_MASS>
246.125594

> <PUBCHEM_MOLECULAR_FORMULA>
C15H18O3

> <PUBCHEM_MOLECULAR_WEIGHT>
246.30162

> <PUBCHEM_OPENEYE_CAN_SMILES>
C=C1CCC2(C(C3C1CCC3=C)OC(=O)C2=C)O

> <PUBCHEM_OPENEYE_ISO_SMILES>
C=C1CC[C@@]2([C@@H]([C@@H]3[C@H]1CCC3=C)OC(=O)C2=C)O

> <PUBCHEM_CACTVS_TPSA>
46.5

> <PUBCHEM_MONOISOTOPIC_WEIGHT>
246.125594

> <PUBCHEM_TOTAL_CHARGE>
0

> <PUBCHEM_HEAVY_ATOM_COUNT>
18

> <PUBCHEM_ATOM_DEF_STEREO_COUNT>
4

> <PUBCHEM_ATOM_UDEF_STEREO_COUNT>
0

> <PUBCHEM_BOND_DEF_STEREO_COUNT>
0

> <PUBCHEM_BOND_UDEF_STEREO_COUNT>
0

> <PUBCHEM_ISOTOPIC_ATOM_COUNT>
0

> <PUBCHEM_COMPONENT_COUNT>
1

> <PUBCHEM_CACTVS_TAUTO_COUNT>
1

> <PUBCHEM_COORDINATE_TYPE>
1
5
255

> <PUBCHEM_BONDANNOTATIONS>
7  2  6
4  19  6
5  20  6
6  21  5

$$$$

