249474
  -OEChem-07051213073D

 58 61  0     1  0  0  0  0  0999 V2000
   -4.3073    0.8420   -0.1858 O   0  0  0  0  0  0  0  0  0  0  0  0
   -5.8802   -0.1522    1.1835 O   0  0  0  0  0  0  0  0  0  0  0  0
    0.2773   -1.0353   -0.2311 C   0  0  2  0  0  0  0  0  0  0  0  0
    1.0593    0.2375    0.2249 C   0  0  1  0  0  0  0  0  0  0  0  0
   -1.1607   -0.9369    0.2894 C   0  0  1  0  0  0  0  0  0  0  0  0
   -1.9004    0.3094   -0.2349 C   0  0  2  0  0  0  0  0  0  0  0  0
    2.5645    0.1979   -0.2284 C   0  0  2  0  0  0  0  0  0  0  0  0
    0.3156    1.5488   -0.1446 C   0  0  0  0  0  0  0  0  0  0  0  0
    3.1972   -1.1245    0.3062 C   0  0  1  0  0  0  0  0  0  0  0  0
   -1.1641    1.5530    0.2805 C   0  0  0  0  0  0  0  0  0  0  0  0
    0.9663   -2.3123    0.2695 C   0  0  0  0  0  0  0  0  0  0  0  0
   -3.2814    0.0672    0.4041 C   0  0  2  0  0  0  0  0  0  0  0  0
   -2.1351   -2.0768    0.0035 C   0  0  0  0  0  0  0  0  0  0  0  0
    2.4341   -2.3763   -0.1423 C   0  0  0  0  0  0  0  0  0  0  0  0
   -3.5225   -1.4427    0.2108 C   0  0  0  0  0  0  0  0  0  0  0  0
    3.3523    1.3842    0.4094 C   0  0  0  0  0  0  0  0  0  0  0  0
   -2.0264    0.3847   -1.7780 C   0  0  0  0  0  0  0  0  0  0  0  0
    2.6854    0.3037   -1.7717 C   0  0  0  0  0  0  0  0  0  0  0  0
    4.6923   -1.2417   -0.0373 C   0  0  0  0  0  0  0  0  0  0  0  0
    4.8560    1.2206    0.4127 C   0  0  0  0  0  0  0  0  0  0  0  0
    5.4469    0.0331    0.1962 C   0  0  0  0  0  0  0  0  0  0  0  0
    5.6537    2.4631    0.6800 C   0  0  0  0  0  0  0  0  0  0  0  0
   -5.5727    0.6347    0.2984 C   0  0  0  0  0  0  0  0  0  0  0  0
   -6.5501    1.5189   -0.4150 C   0  0  0  0  0  0  0  0  0  0  0  0
    0.2567   -1.0832   -1.3250 H   0  0  0  0  0  0  0  0  0  0  0  0
    1.0687    0.2119    1.3265 H   0  0  0  0  0  0  0  0  0  0  0  0
   -1.0943   -0.8643    1.3883 H   0  0  0  0  0  0  0  0  0  0  0  0
    0.3740    1.7326   -1.2213 H   0  0  0  0  0  0  0  0  0  0  0  0
    0.8048    2.4021    0.3388 H   0  0  0  0  0  0  0  0  0  0  0  0
    3.1309   -1.0945    1.4058 H   0  0  0  0  0  0  0  0  0  0  0  0
   -1.2110    1.5914    1.3766 H   0  0  0  0  0  0  0  0  0  0  0  0
   -1.6494    2.4676   -0.0808 H   0  0  0  0  0  0  0  0  0  0  0  0
    0.4513   -3.1971   -0.1224 H   0  0  0  0  0  0  0  0  0  0  0  0
    0.8984   -2.3672    1.3637 H   0  0  0  0  0  0  0  0  0  0  0  0
   -3.2373    0.2987    1.4778 H   0  0  0  0  0  0  0  0  0  0  0  0
   -1.9806   -2.9267    0.6761 H   0  0  0  0  0  0  0  0  0  0  0  0
   -2.0327   -2.4438   -1.0238 H   0  0  0  0  0  0  0  0  0  0  0  0
    2.8888   -3.2676    0.3072 H   0  0  0  0  0  0  0  0  0  0  0  0
    2.5076   -2.5064   -1.2282 H   0  0  0  0  0  0  0  0  0  0  0  0
   -4.1736   -1.6602   -0.6435 H   0  0  0  0  0  0  0  0  0  0  0  0
   -3.9978   -1.8739    1.0990 H   0  0  0  0  0  0  0  0  0  0  0  0
    3.0363    1.5230    1.4519 H   0  0  0  0  0  0  0  0  0  0  0  0
    3.1007    2.3113   -0.1215 H   0  0  0  0  0  0  0  0  0  0  0  0
   -2.5487    1.3009   -2.0773 H   0  0  0  0  0  0  0  0  0  0  0  0
   -1.0566    0.3935   -2.2823 H   0  0  0  0  0  0  0  0  0  0  0  0
   -2.5913   -0.4561   -2.1927 H   0  0  0  0  0  0  0  0  0  0  0  0
    2.2935    1.2574   -2.1393 H   0  0  0  0  0  0  0  0  0  0  0  0
    3.7248    0.2538   -2.1108 H   0  0  0  0  0  0  0  0  0  0  0  0
    2.1445   -0.4926   -2.2893 H   0  0  0  0  0  0  0  0  0  0  0  0
    4.8334   -1.5492   -1.0802 H   0  0  0  0  0  0  0  0  0  0  0  0
    5.1369   -2.0298    0.5830 H   0  0  0  0  0  0  0  0  0  0  0  0
    6.5313   -0.0385    0.1902 H   0  0  0  0  0  0  0  0  0  0  0  0
    6.7313    2.2686    0.6908 H   0  0  0  0  0  0  0  0  0  0  0  0
    5.3817    2.8857    1.6526 H   0  0  0  0  0  0  0  0  0  0  0  0
    5.4582    3.2136   -0.0927 H   0  0  0  0  0  0  0  0  0  0  0  0
   -6.5475    1.2866   -1.4829 H   0  0  0  0  0  0  0  0  0  0  0  0
   -6.2904    2.5673   -0.2483 H   0  0  0  0  0  0  0  0  0  0  0  0
   -7.5549    1.3412   -0.0217 H   0  0  0  0  0  0  0  0  0  0  0  0
  1 12  1  0  0  0  0
  1 23  1  0  0  0  0
  2 23  2  0  0  0  0
  3  4  1  0  0  0  0
  3  5  1  0  0  0  0
  3 11  1  0  0  0  0
  3 25  1  0  0  0  0
  4  7  1  0  0  0  0
  4  8  1  0  0  0  0
  4 26  1  0  0  0  0
  5  6  1  0  0  0  0
  5 13  1  0  0  0  0
  5 27  1  0  0  0  0
  6 10  1  0  0  0  0
  6 12  1  0  0  0  0
  6 17  1  0  0  0  0
  7  9  1  0  0  0  0
  7 16  1  0  0  0  0
  7 18  1  0  0  0  0
  8 10  1  0  0  0  0
  8 28  1  0  0  0  0
  8 29  1  0  0  0  0
  9 14  1  0  0  0  0
  9 19  1  0  0  0  0
  9 30  1  0  0  0  0
 10 31  1  0  0  0  0
 10 32  1  0  0  0  0
 11 14  1  0  0  0  0
 11 33  1  0  0  0  0
 11 34  1  0  0  0  0
 12 15  1  0  0  0  0
 12 35  1  0  0  0  0
 13 15  1  0  0  0  0
 13 36  1  0  0  0  0
 13 37  1  0  0  0  0
 14 38  1  0  0  0  0
 14 39  1  0  0  0  0
 15 40  1  0  0  0  0
 15 41  1  0  0  0  0
 16 20  1  0  0  0  0
 16 42  1  0  0  0  0
 16 43  1  0  0  0  0
 17 44  1  0  0  0  0
 17 45  1  0  0  0  0
 17 46  1  0  0  0  0
 18 47  1  0  0  0  0
 18 48  1  0  0  0  0
 18 49  1  0  0  0  0
 19 21  1  0  0  0  0
 19 50  1  0  0  0  0
 19 51  1  0  0  0  0
 20 21  2  0  0  0  0
 20 22  1  0  0  0  0
 21 52  1  0  0  0  0
 22 53  1  0  0  0  0
 22 54  1  0  0  0  0
 22 55  1  0  0  0  0
 23 24  1  0  0  0  0
 24 56  1  0  0  0  0
 24 57  1  0  0  0  0
 24 58  1  0  0  0  0
M  END
> <PUBCHEM_COMPOUND_CID>
249474

> <PUBCHEM_CONFORMER_RMSD>
0.6

> <PUBCHEM_CONFORMER_DIVERSEORDER>
1
2

> <PUBCHEM_MMFF94_PARTIAL_CHARGES>
11
1 -0.43
12 0.28
16 0.14
19 0.14
2 -0.57
20 -0.28
21 -0.29
22 0.14
23 0.66
24 0.06
52 0.15

> <PUBCHEM_EFFECTIVE_ROTOR_COUNT>
3.8

> <PUBCHEM_PHARMACOPHORE_FEATURES>
5
1 2 acceptor
5 5 6 12 13 15 rings
6 3 4 5 6 8 10 rings
6 3 4 7 9 11 14 rings
6 7 9 16 19 20 21 rings

> <PUBCHEM_HEAVY_ATOM_COUNT>
24

> <PUBCHEM_ATOM_DEF_STEREO_COUNT>
7

> <PUBCHEM_ATOM_UDEF_STEREO_COUNT>
0

> <PUBCHEM_BOND_DEF_STEREO_COUNT>
0

> <PUBCHEM_BOND_UDEF_STEREO_COUNT>
0

> <PUBCHEM_ISOTOPIC_ATOM_COUNT>
0

> <PUBCHEM_COMPONENT_COUNT>
1

> <PUBCHEM_CACTVS_TAUTO_COUNT>
1

> <PUBCHEM_CONFORMER_ID>
0003CE8200000001

> <PUBCHEM_MMFF94_ENERGY>
72.8058

> <PUBCHEM_FEATURE_SELFOVERLAP>
25.463

> <PUBCHEM_SHAPE_FINGERPRINT>
10 15 18130791127114491808
10366900 7 5256409408996608462
10411042 1 17832706056362301366
10493431 412 18410855434748910619
10906281 52 18201423741166056916
11089746 13 17603590729075988593
12236239 1 17749391481525462157
12403259 415 18272940440139718028
12403814 3 17632580440006243295
12596602 18 17967806146510777323
12633257 1 16487254331374471370
12788726 201 17313097605175807185
12838862 33 18337972141970325024
13140716 1 18196368122192728489
13224815 77 18411705370201230606
13533116 47 18187365492693500114
14251764 18 18113616760358149401
14341114 176 18410852166331610848
14790565 3 18051688846192686396
15142383 8 16630253584047135261
15196674 1 18410293584064614898
15475509 35 16558203725872951754
17980427 23 17773599313196840036
1813 80 16845569824716419687
19141452 34 18412825763886198791
20511986 3 18336560351606943391
20642791 178 18056753226572394308
21033648 29 18059029352932975725
21150785 3 17458071448072999909
21236236 1 18335986368473785223
21267235 1 18339070600956638474
21279426 13 18194964269651824053
21421861 104 17987810725391037514
21792934 111 18267880534388172937
21859007 373 17559409147926735909
22149856 69 18269530842187420833
22182313 1 17845661485369231623
23402539 116 18261117331291902174
23557571 272 17346317158359251997
23559900 14 18408041797905594504
296302 2 18113899329918589270
300161 21 18409452479233535697
3004659 81 18272649090816870154
335352 9 18409729586766927614
3472631 163 18114181900117326388
34797466 226 17603578630374525413
34934 24 18335424551742526231
350125 39 18341610460327148350
3545911 37 18341611538174106998
3633792 109 18263929998548833861
3680242 22 18341617027337380304
4073 2 18130503037640284218
4093350 32 17167856474844444908
42630746 31 18335701676070346862
4340502 62 18412823590242272307
5104073 3 18342457032229622467
542803 24 17240482515797905441
633830 44 18259990357970393806
7495541 125 13830123971119885477

> <PUBCHEM_SHAPE_MULTIPOLES>
482.17
13.43
2.32
1
7.98
0.48
-0.4
-6.21
2.19
-1.46
0.26
0.11
-0.14
0.73

> <PUBCHEM_SHAPE_SELFOVERLAP>
1019.865

> <PUBCHEM_SHAPE_VOLUME>
267.5

> <PUBCHEM_COORDINATE_TYPE>
2
5
10

$$$$

