586296
  -OEChem-06241222462D

 27 28  0     1  0  0  0  0  0999 V2000
    3.3660   -1.4330    0.0000 O   0  0  0  0  0  0  0  0  0  0  0  0
    3.8660   -0.5670    0.0000 C   0  0  3  0  0  0  0  0  0  0  0  0
    3.0000   -0.0670    0.0000 C   0  0  0  0  0  0  0  0  0  0  0  0
    4.3660   -1.4330    0.0000 C   0  0  0  0  0  0  0  0  0  0  0  0
    3.0000    0.9330    0.0000 C   0  0  0  0  0  0  0  0  0  0  0  0
    4.7320   -0.0670    0.0000 C   0  0  0  0  0  0  0  0  0  0  0  0
    3.8660    1.4330    0.0000 C   0  0  0  0  0  0  0  0  0  0  0  0
    4.7320    0.9330    0.0000 C   0  0  0  0  0  0  0  0  0  0  0  0
    2.0000   -0.0670    0.0000 C   0  0  0  0  0  0  0  0  0  0  0  0
    2.5000   -0.9330    0.0000 C   0  0  0  0  0  0  0  0  0  0  0  0
    5.5981   -0.5670    0.0000 C   0  0  0  0  0  0  0  0  0  0  0  0
    4.4737   -2.0436    0.0000 H   0  0  0  0  0  0  0  0  0  0  0  0
    4.9486   -1.2210    0.0000 H   0  0  0  0  0  0  0  0  0  0  0  0
    2.7880    1.5156    0.0000 H   0  0  0  0  0  0  0  0  0  0  0  0
    2.3894    0.8254    0.0000 H   0  0  0  0  0  0  0  0  0  0  0  0
    4.2646    1.9080    0.0000 H   0  0  0  0  0  0  0  0  0  0  0  0
    3.4675    1.9080    0.0000 H   0  0  0  0  0  0  0  0  0  0  0  0
    5.3426    0.8254    0.0000 H   0  0  0  0  0  0  0  0  0  0  0  0
    4.9441    1.5156    0.0000 H   0  0  0  0  0  0  0  0  0  0  0  0
    2.0000    0.5530    0.0000 H   0  0  0  0  0  0  0  0  0  0  0  0
    1.3800   -0.0670    0.0000 H   0  0  0  0  0  0  0  0  0  0  0  0
    2.0000   -0.6870    0.0000 H   0  0  0  0  0  0  0  0  0  0  0  0
    1.9631   -0.6230    0.0000 H   0  0  0  0  0  0  0  0  0  0  0  0
    2.1900   -1.4700    0.0000 H   0  0  0  0  0  0  0  0  0  0  0  0
    3.0369   -1.2430    0.0000 H   0  0  0  0  0  0  0  0  0  0  0  0
    5.5981   -1.1870    0.0000 H   0  0  0  0  0  0  0  0  0  0  0  0
    6.1350   -0.2570    0.0000 H   0  0  0  0  0  0  0  0  0  0  0  0
  1  2  1  0  0  0  0
  1  4  1  0  0  0  0
  2  3  1  0  0  0  0
  2  4  1  0  0  0  0
  2  6  1  0  0  0  0
  3  5  1  0  0  0  0
  3  9  1  0  0  0  0
  3 10  1  0  0  0  0
  4 12  1  0  0  0  0
  4 13  1  0  0  0  0
  5  7  1  0  0  0  0
  5 14  1  0  0  0  0
  5 15  1  0  0  0  0
  6  8  1  0  0  0  0
  6 11  2  0  0  0  0
  7  8  1  0  0  0  0
  7 16  1  0  0  0  0
  7 17  1  0  0  0  0
  8 18  1  0  0  0  0
  8 19  1  0  0  0  0
  9 20  1  0  0  0  0
  9 21  1  0  0  0  0
  9 22  1  0  0  0  0
 10 23  1  0  0  0  0
 10 24  1  0  0  0  0
 10 25  1  0  0  0  0
 11 26  1  0  0  0  0
 11 27  1  0  0  0  0
M  END
> <PUBCHEM_COMPOUND_CID>
586296

> <PUBCHEM_COMPOUND_CANONICALIZED>
1

> <PUBCHEM_CACTVS_COMPLEXITY>
205

> <PUBCHEM_CACTVS_HBOND_ACCEPTOR>
1

> <PUBCHEM_CACTVS_HBOND_DONOR>
0

> <PUBCHEM_CACTVS_ROTATABLE_BOND>
0

> <PUBCHEM_CACTVS_SUBSKEYS>
AAADceBwIAAAAAAAAAAAAAAAEgAAAAAAAAAwAAAAAAAAAAAAAAAAGgAAAAAADkSggAICAAAABACAAgBCAAAAAAAgAAAAAAAAAAgABAIAIQAAAAAEwAAAIAGAwOAPgAAAAAAAAAAAAAAAADAAAAAAAAAAAA==

> <PUBCHEM_IUPAC_OPENEYE_NAME>
10,10-dimethyl-6-methylene-1-oxaspiro[2.5]octane

> <PUBCHEM_IUPAC_CAS_NAME>
10,10-dimethyl-6-methylene-1-oxaspiro[2.5]octane

> <PUBCHEM_IUPAC_NAME>
10,10-dimethyl-6-methylidene-1-oxaspiro[2.5]octane

> <PUBCHEM_IUPAC_SYSTEMATIC_NAME>
10,10-dimethyl-6-methylidene-1-oxaspiro[2.5]octane

> <PUBCHEM_IUPAC_TRADITIONAL_NAME>
10,10-dimethyl-6-methylene-1-oxaspiro[2.5]octane

> <PUBCHEM_IUPAC_INCHI>
InChI=1S/C10H16O/c1-8-5-4-6-9(2,3)10(8)7-11-10/h1,4-7H2,2-3H3

> <PUBCHEM_IUPAC_INCHIKEY>
SFWDLGPNHKQRCZ-UHFFFAOYSA-N

> <PUBCHEM_XLOGP3_AA>
2.1

> <PUBCHEM_EXACT_MASS>
152.120115

> <PUBCHEM_MOLECULAR_FORMULA>
C10H16O

> <PUBCHEM_MOLECULAR_WEIGHT>
152.23344

> <PUBCHEM_OPENEYE_CAN_SMILES>
CC1(CCCC(=C)C12CO2)C

> <PUBCHEM_OPENEYE_ISO_SMILES>
CC1(CCCC(=C)C12CO2)C

> <PUBCHEM_CACTVS_TPSA>
12.5

> <PUBCHEM_MONOISOTOPIC_WEIGHT>
152.120115

> <PUBCHEM_TOTAL_CHARGE>
0

> <PUBCHEM_HEAVY_ATOM_COUNT>
11

> <PUBCHEM_ATOM_DEF_STEREO_COUNT>
0

> <PUBCHEM_ATOM_UDEF_STEREO_COUNT>
1

> <PUBCHEM_BOND_DEF_STEREO_COUNT>
0

> <PUBCHEM_BOND_UDEF_STEREO_COUNT>
0

> <PUBCHEM_ISOTOPIC_ATOM_COUNT>
0

> <PUBCHEM_COMPONENT_COUNT>
1

> <PUBCHEM_CACTVS_TAUTO_COUNT>
1

> <PUBCHEM_COORDINATE_TYPE>
1
5
255

> <PUBCHEM_BONDANNOTATIONS>
2  1  3

$$$$

