54675766
  -OEChem-07051212493D

 20 19  0     0  0  0  0  0  0999 V2000
   -1.5512    2.6922   -0.2384 O   0  0  0  0  0  0  0  0  0  0  0  0
   -0.6538   -2.0064   -1.1362 O   0  0  0  0  0  0  0  0  0  0  0  0
   -0.8730   -2.0243    1.1432 O   0  0  0  0  0  0  0  0  0  0  0  0
   -2.6628    0.1195    1.1979 O   0  0  0  0  0  0  0  0  0  0  0  0
    4.0482   -0.2652   -0.4933 O   0  0  0  0  0  0  0  0  0  0  0  0
   -2.7812   -0.2210   -1.0480 O   0  0  0  0  0  0  0  0  0  0  0  0
    2.9192    1.4581    0.4755 O   0  0  0  0  0  0  0  0  0  0  0  0
    0.5510   -0.4367    0.0581 C   0  0  0  0  0  0  0  0  0  0  0  0
    0.0661    0.9354   -0.0573 C   0  0  0  0  0  0  0  0  0  0  0  0
    1.8705   -0.6981    0.1168 C   0  0  0  0  0  0  0  0  0  0  0  0
   -1.2077    1.3623   -0.1268 C   0  0  0  0  0  0  0  0  0  0  0  0
   -0.3965   -1.5672    0.1173 C   0  0  0  0  0  0  0  0  0  0  0  0
   -2.2888    0.3432   -0.0842 C   0  0  0  0  0  0  0  0  0  0  0  0
    2.9600    0.3081    0.0754 C   0  0  0  0  0  0  0  0  0  0  0  0
    0.8012    1.7279   -0.1268 H   0  0  0  0  0  0  0  0  0  0  0  0
    2.2022   -1.7335    0.1745 H   0  0  0  0  0  0  0  0  0  0  0  0
   -0.7341    3.2195   -0.2516 H   0  0  0  0  0  0  0  0  0  0  0  0
   -1.2849   -2.7574   -1.1400 H   0  0  0  0  0  0  0  0  0  0  0  0
   -3.3754   -0.5517    1.2606 H   0  0  0  0  0  0  0  0  0  0  0  0
    4.8048    0.3571   -0.5470 H   0  0  0  0  0  0  0  0  0  0  0  0
  1 11  1  0  0  0  0
  1 17  1  0  0  0  0
  2 12  1  0  0  0  0
  2 18  1  0  0  0  0
  3 12  2  0  0  0  0
  4 13  1  0  0  0  0
  4 19  1  0  0  0  0
  5 14  1  0  0  0  0
  5 20  1  0  0  0  0
  6 13  2  0  0  0  0
  7 14  2  0  0  0  0
  8  9  1  0  0  0  0
  8 10  2  0  0  0  0
  8 12  1  0  0  0  0
  9 11  2  0  0  0  0
  9 15  1  0  0  0  0
 10 14  1  0  0  0  0
 10 16  1  0  0  0  0
 11 13  1  0  0  0  0
M  END
> <PUBCHEM_COMPOUND_CID>
54675766

> <PUBCHEM_CONFORMER_RMSD>
0.6

> <PUBCHEM_CONFORMER_DIVERSEORDER>
2
5
4
1
3
6

> <PUBCHEM_MMFF94_PARTIAL_CHARGES>
20
1 -0.53
10 -0.14
11 0.09
12 0.71
13 0.71
14 0.71
15 0.15
16 0.15
17 0.45
18 0.5
19 0.5
2 -0.65
20 0.5
3 -0.57
4 -0.65
5 -0.65
6 -0.57
7 -0.57
8 0.01
9 -0.15

> <PUBCHEM_EFFECTIVE_ROTOR_COUNT>
4

> <PUBCHEM_PHARMACOPHORE_FEATURES>
10
1 1 donor
1 2 acceptor
1 3 acceptor
1 4 acceptor
1 5 acceptor
1 6 acceptor
1 7 acceptor
3 2 3 12 anion
3 4 6 13 anion
3 5 7 14 anion

> <PUBCHEM_HEAVY_ATOM_COUNT>
14

> <PUBCHEM_ATOM_DEF_STEREO_COUNT>
0

> <PUBCHEM_ATOM_UDEF_STEREO_COUNT>
0

> <PUBCHEM_BOND_DEF_STEREO_COUNT>
2

> <PUBCHEM_BOND_UDEF_STEREO_COUNT>
0

> <PUBCHEM_ISOTOPIC_ATOM_COUNT>
0

> <PUBCHEM_COMPONENT_COUNT>
1

> <PUBCHEM_CACTVS_TAUTO_COUNT>
4

> <PUBCHEM_CONFORMER_ID>
0342493600000002

> <PUBCHEM_MMFF94_ENERGY>
48.1022

> <PUBCHEM_FEATURE_SELFOVERLAP>
50.925

> <PUBCHEM_SHAPE_FINGERPRINT>
11132069 177 18260557696794880864
12491281 212 18113329804095931370
13024252 1 17561086882189934895
13380536 55 17909281517385899373
13538477 17 17917437492930116858
14325111 11 18339643463952807932
14648413 74 17543627986260582415
15775835 57 18335700602011953265
16945 1 18342175565921583610
18186145 218 17894631508614464760
20871998 184 18263073336396993759
21028194 46 18336543914861995164
21501502 16 17980489171718594945
21524375 3 18196096761753009172
22802520 49 18335128766209111374
2334 1 17835802993542292056
23402539 116 18335995206666673935
2748010 2 18195528318605137596
5084963 1 18041572428293066736
6333449 129 18335422309806494914
81228 2 18047201751871212578

> <PUBCHEM_SHAPE_MULTIPOLES>
247.03
4.76
2.12
0.91
3.82
0.22
0.03
1.08
-0.22
-0.85
-0.02
-0.42
-0.3
0.19

> <PUBCHEM_SHAPE_SELFOVERLAP>
505.197

> <PUBCHEM_SHAPE_VOLUME>
140.4

> <PUBCHEM_COORDINATE_TYPE>
2
5
10

$$$$

