3036760
  -OEChem-07051213063D

 13 14  0     1  0  0  0  0  0999 V2000
    2.8765    0.1112   -0.0138 Br  0  0  0  0  0  0  0  0  0  0  0  0
   -0.6194    1.6470    0.6239 O   0  0  0  0  0  0  0  0  0  0  0  0
    0.2303    1.0356   -0.3589 C   0  0  2  0  0  0  0  0  0  0  0  0
   -1.2874    0.8471   -0.3620 C   0  0  1  0  0  0  0  0  0  0  0  0
    1.0321   -0.1729   -0.0726 C   0  0  0  0  0  0  0  0  0  0  0  0
   -1.7701   -0.5210   -0.0960 C   0  0  0  0  0  0  0  0  0  0  0  0
    0.4885   -1.3845    0.1483 C   0  0  0  0  0  0  0  0  0  0  0  0
   -0.9505   -1.5624    0.1311 C   0  0  0  0  0  0  0  0  0  0  0  0
    0.6311    1.6833   -1.1326 H   0  0  0  0  0  0  0  0  0  0  0  0
   -1.8520    1.3781   -1.1202 H   0  0  0  0  0  0  0  0  0  0  0  0
   -2.8440   -0.6813   -0.0933 H   0  0  0  0  0  0  0  0  0  0  0  0
    1.0949   -2.2585    0.3618 H   0  0  0  0  0  0  0  0  0  0  0  0
   -1.3452   -2.5544    0.3193 H   0  0  0  0  0  0  0  0  0  0  0  0
  1  5  1  0  0  0  0
  2  3  1  0  0  0  0
  2  4  1  0  0  0  0
  3  4  1  0  0  0  0
  3  5  1  0  0  0  0
  3  9  1  0  0  0  0
  4  6  1  0  0  0  0
  4 10  1  0  0  0  0
  5  7  2  0  0  0  0
  6  8  2  0  0  0  0
  6 11  1  0  0  0  0
  7  8  1  0  0  0  0
  7 12  1  0  0  0  0
  8 13  1  0  0  0  0
M  END
> <PUBCHEM_COMPOUND_CID>
3036760

> <PUBCHEM_CONFORMER_RMSD>
0.4

> <PUBCHEM_CONFORMER_DIVERSEORDER>
1
2
3
4

> <PUBCHEM_MMFF94_PARTIAL_CHARGES>
13
1 -0.11
10 0.1
11 0.15
12 0.15
13 0.15
2 -0.3
3 0.09
4 0.09
5 0.07
6 -0.19
7 -0.15
8 -0.15
9 0.1

> <PUBCHEM_EFFECTIVE_ROTOR_COUNT>
0.2

> <PUBCHEM_PHARMACOPHORE_FEATURES>
3
1 1 hydrophobe
1 2 acceptor
7 2 3 4 5 6 7 8 rings

> <PUBCHEM_HEAVY_ATOM_COUNT>
8

> <PUBCHEM_ATOM_DEF_STEREO_COUNT>
0

> <PUBCHEM_ATOM_UDEF_STEREO_COUNT>
2

> <PUBCHEM_BOND_DEF_STEREO_COUNT>
0

> <PUBCHEM_BOND_UDEF_STEREO_COUNT>
0

> <PUBCHEM_ISOTOPIC_ATOM_COUNT>
0

> <PUBCHEM_COMPONENT_COUNT>
1

> <PUBCHEM_CACTVS_TAUTO_COUNT>
1

> <PUBCHEM_CONFORMER_ID>
002E565800000001

> <PUBCHEM_MMFF94_ENERGY>
13.5086

> <PUBCHEM_FEATURE_SELFOVERLAP>
15.223

> <PUBCHEM_SHAPE_FINGERPRINT>
13024252 1 13326857738168874750
16714656 1 18411135814340097246
16945 1 18342741792850694686
18185500 45 18342740689081120270
21040471 1 18195526123829214028
23552423 10 18058448690982201238
29004967 10 16588018000892060710
369184 2 18410017624084037330
5084963 1 18131633421830093214

> <PUBCHEM_SHAPE_MULTIPOLES>
164.71
2.86
1.67
0.7
2.22
0.03
0
0.11
0.08
-0.52
-0.15
0.01
-0.08
-0.02

> <PUBCHEM_SHAPE_SELFOVERLAP>
329.709

> <PUBCHEM_SHAPE_VOLUME>
100.4

> <PUBCHEM_COORDINATE_TYPE>
2
5
10

$$$$

