11011
  -OEChem-07051213142D

  6  5  0     0  0  0  0  0  0999 V2000
    2.0000   -0.5670    0.0000 Cl  0  0  0  0  0  0  0  0  0  0  0  0
    2.3660    0.7990    0.0000 Cl  0  0  0  0  0  0  0  0  0  0  0  0
    3.3660   -0.9330    0.0000 Cl  0  0  0  0  0  0  0  0  0  0  0  0
    4.5981    0.9330    0.0000 N   0  0  0  0  0  0  0  0  0  0  0  0
    2.8660   -0.0670    0.0000 C   0  0  0  0  0  0  0  0  0  0  0  0
    3.7320    0.4330    0.0000 C   0  0  0  0  0  0  0  0  0  0  0  0
  1  5  1  0  0  0  0
  2  5  1  0  0  0  0
  3  5  1  0  0  0  0
  4  6  3  0  0  0  0
  5  6  1  0  0  0  0
M  END
> <PUBCHEM_COMPOUND_CID>
11011

> <PUBCHEM_COMPOUND_CANONICALIZED>
1

> <PUBCHEM_CACTVS_COMPLEXITY>
82.7

> <PUBCHEM_CACTVS_HBOND_ACCEPTOR>
1

> <PUBCHEM_CACTVS_HBOND_DONOR>
0

> <PUBCHEM_CACTVS_ROTATABLE_BOND>
0

> <PUBCHEM_CACTVS_SUBSKEYS>
AAADcQBCAAAGAAAAAAAAAAAAAAAAAAAAAAAAAAAAAAAAAAAAAAAADAIAAAAAAAIBAIAAAAAAAAAQBAAAAAAAAAAAAAAAAAAAAAAAAAAAAAAAAAAAAAAAAAAAAAAAAAAAAAAAAAAAAAAAAAAAAAAAAAAAAA==

> <PUBCHEM_IUPAC_OPENEYE_NAME>
2,2,2-trichloroacetonitrile

> <PUBCHEM_IUPAC_CAS_NAME>
2,2,2-trichloroacetonitrile

> <PUBCHEM_IUPAC_NAME>
2,2,2-trichloroacetonitrile

> <PUBCHEM_IUPAC_SYSTEMATIC_NAME>
2,2,2-tris(chloranyl)ethanenitrile

> <PUBCHEM_IUPAC_TRADITIONAL_NAME>
2,2,2-trichloroacetonitrile

> <PUBCHEM_IUPAC_INCHI>
InChI=1S/C2Cl3N/c3-2(4,5)1-6

> <PUBCHEM_IUPAC_INCHIKEY>
DRUIESSIVFYOMK-UHFFFAOYSA-N

> <PUBCHEM_XLOGP3>
2.1

> <PUBCHEM_EXACT_MASS>
142.909632

> <PUBCHEM_MOLECULAR_FORMULA>
C2Cl3N

> <PUBCHEM_MOLECULAR_WEIGHT>
144.3871

> <PUBCHEM_OPENEYE_CAN_SMILES>
C(#N)C(Cl)(Cl)Cl

> <PUBCHEM_OPENEYE_ISO_SMILES>
C(#N)C(Cl)(Cl)Cl

> <PUBCHEM_CACTVS_TPSA>
23.8

> <PUBCHEM_MONOISOTOPIC_WEIGHT>
142.909632

> <PUBCHEM_TOTAL_CHARGE>
0

> <PUBCHEM_HEAVY_ATOM_COUNT>
6

> <PUBCHEM_ATOM_DEF_STEREO_COUNT>
0

> <PUBCHEM_ATOM_UDEF_STEREO_COUNT>
0

> <PUBCHEM_BOND_DEF_STEREO_COUNT>
0

> <PUBCHEM_BOND_UDEF_STEREO_COUNT>
0

> <PUBCHEM_ISOTOPIC_ATOM_COUNT>
0

> <PUBCHEM_COMPONENT_COUNT>
1

> <PUBCHEM_CACTVS_TAUTO_COUNT>
1

> <PUBCHEM_COORDINATE_TYPE>
1
5
255

$$$$

