9960754
  -OEChem-07051213082D

105105  0     1  0  0  0  0  0999 V2000
    8.5991    1.5000    0.0000 O   0  0  0  0  0  0  0  0  0  0  0  0
    4.4426   -1.9848    0.0000 O   0  0  0  0  0  0  0  0  0  0  0  0
    2.5369   -1.0000    0.0000 O   0  0  0  0  0  0  0  0  0  0  0  0
    6.1350    0.5000    0.0000 O   0  0  0  0  0  0  0  0  0  0  0  0
    9.4651    3.0000    0.0000 O   0  0  0  0  0  0  0  0  0  0  0  0
   11.1972    0.0000    0.0000 O   0  0  0  0  0  0  0  0  0  0  0  0
    6.8671    0.5000    0.0000 O   0  0  0  0  0  0  0  0  0  0  0  0
    6.0010   -4.0000    0.0000 O   0  0  0  0  0  0  0  0  0  0  0  0
    6.0010    2.0000    0.0000 N   0  0  0  0  0  0  0  0  0  0  0  0
   12.0632    1.5000    0.0000 C   0  0  3  0  0  0  0  0  0  0  0  0
   12.0632    0.5000    0.0000 C   0  0  0  0  0  0  0  0  0  0  0  0
   11.1972    2.0000    0.0000 C   0  0  0  0  0  0  0  0  0  0  0  0
   12.9292    0.0000    0.0000 C   0  0  0  0  0  0  0  0  0  0  0  0
   10.3312    1.5000    0.0000 C   0  0  3  0  0  0  0  0  0  0  0  0
   12.9292   -1.0000    0.0000 C   0  0  0  0  0  0  0  0  0  0  0  0
   12.9292    2.0000    0.0000 C   0  0  0  0  0  0  0  0  0  0  0  0
   12.0632   -1.5000    0.0000 C   0  0  0  0  0  0  0  0  0  0  0  0
    4.2690   -1.0000    0.0000 C   0  0  3  0  0  0  0  0  0  0  0  0
   10.3312    0.5000    0.0000 C   0  0  0  0  0  0  0  0  0  0  0  0
    3.4030   -1.5000    0.0000 C   0  0  3  0  0  0  0  0  0  0  0  0
    4.2690    0.0000    0.0000 C   0  0  0  0  0  0  0  0  0  0  0  0
    9.4651    2.0000    0.0000 C   0  0  0  0  0  0  0  0  0  0  0  0
    7.7331   -1.0000    0.0000 C   0  0  3  0  0  0  0  0  0  0  0  0
    8.5991   -1.5000    0.0000 C   0  0  0  0  0  0  0  0  0  0  0  0
    9.4651   -1.0000    0.0000 C   0  0  0  0  0  0  0  0  0  0  0  0
   10.3312   -1.5000    0.0000 C   0  0  0  0  0  0  0  0  0  0  0  0
    5.1350    0.5000    0.0000 C   0  0  3  0  0  0  0  0  0  0  0  0
    3.4030   -2.5000    0.0000 C   0  0  0  0  0  0  0  0  0  0  0  0
   11.1972   -1.0000    0.0000 C   0  0  0  0  0  0  0  0  0  0  0  0
    7.7331    2.0000    0.0000 C   0  0  3  0  0  0  0  0  0  0  0  0
    4.2690   -3.0000    0.0000 C   0  0  0  0  0  0  0  0  0  0  0  0
    5.1350    1.5000    0.0000 C   0  0  0  0  0  0  0  0  0  0  0  0
    7.7331    0.0000    0.0000 C   0  0  0  0  0  0  0  0  0  0  0  0
    7.7331    3.0000    0.0000 C   0  0  0  0  0  0  0  0  0  0  0  0
    6.8671   -1.5000    0.0000 C   0  0  0  0  0  0  0  0  0  0  0  0
    5.1350   -2.5000    0.0000 C   0  0  0  0  0  0  0  0  0  0  0  0
    6.8671    1.5000    0.0000 C   0  0  0  0  0  0  0  0  0  0  0  0
    6.8671    3.5000    0.0000 C   0  0  0  0  0  0  0  0  0  0  0  0
    6.0010   -1.0000    0.0000 C   0  0  0  0  0  0  0  0  0  0  0  0
    8.5991    0.5000    0.0000 C   0  0  0  0  0  0  0  0  0  0  0  0
    5.1350   -1.5000    0.0000 C   0  0  0  0  0  0  0  0  0  0  0  0
    6.0010   -3.0000    0.0000 C   0  0  0  0  0  0  0  0  0  0  0  0
    6.8671    4.5000    0.0000 C   0  0  0  0  0  0  0  0  0  0  0  0
    6.8671   -4.5000    0.0000 C   0  0  0  0  0  0  0  0  0  0  0  0
   12.7993    1.0750    0.0000 H   0  0  0  0  0  0  0  0  0  0  0  0
   11.4526    0.6077    0.0000 H   0  0  0  0  0  0  0  0  0  0  0  0
   11.8512   -0.0826    0.0000 H   0  0  0  0  0  0  0  0  0  0  0  0
   11.5957    2.4750    0.0000 H   0  0  0  0  0  0  0  0  0  0  0  0
   10.7987    2.4750    0.0000 H   0  0  0  0  0  0  0  0  0  0  0  0
   13.5398   -0.1077    0.0000 H   0  0  0  0  0  0  0  0  0  0  0  0
   13.1413    0.5826    0.0000 H   0  0  0  0  0  0  0  0  0  0  0  0
   11.0673    1.0750    0.0000 H   0  0  0  0  0  0  0  0  0  0  0  0
   13.1413   -1.5826    0.0000 H   0  0  0  0  0  0  0  0  0  0  0  0
   13.5398   -0.8923    0.0000 H   0  0  0  0  0  0  0  0  0  0  0  0
   13.2392    1.4631    0.0000 H   0  0  0  0  0  0  0  0  0  0  0  0
   13.4662    2.3100    0.0000 H   0  0  0  0  0  0  0  0  0  0  0  0
   12.6192    2.5369    0.0000 H   0  0  0  0  0  0  0  0  0  0  0  0
   11.6647   -1.9750    0.0000 H   0  0  0  0  0  0  0  0  0  0  0  0
   12.4617   -1.9750    0.0000 H   0  0  0  0  0  0  0  0  0  0  0  0
    5.1158   -0.9259    0.0000 H   0  0  0  0  0  0  0  0  0  0  0  0
    3.4030   -0.6500    0.0000 H   0  0  0  0  0  0  0  0  0  0  0  0
    9.7112    0.5000    0.0000 H   0  0  0  0  0  0  0  0  0  0  0  0
   10.3312   -0.1200    0.0000 H   0  0  0  0  0  0  0  0  0  0  0  0
   10.9512    0.5000    0.0000 H   0  0  0  0  0  0  0  0  0  0  0  0
    4.0569    0.5826    0.0000 H   0  0  0  0  0  0  0  0  0  0  0  0
    3.6584   -0.1077    0.0000 H   0  0  0  0  0  0  0  0  0  0  0  0
    8.4692   -0.5750    0.0000 H   0  0  0  0  0  0  0  0  0  0  0  0
    8.2006   -1.9750    0.0000 H   0  0  0  0  0  0  0  0  0  0  0  0
    8.9976   -1.9750    0.0000 H   0  0  0  0  0  0  0  0  0  0  0  0
    9.8637   -0.5251    0.0000 H   0  0  0  0  0  0  0  0  0  0  0  0
    9.0666   -0.5251    0.0000 H   0  0  0  0  0  0  0  0  0  0  0  0
    5.3550   -0.3210    0.0000 H   0  0  0  0  0  0  0  0  0  0  0  0
    9.9326   -1.9750    0.0000 H   0  0  0  0  0  0  0  0  0  0  0  0
   10.7297   -1.9750    0.0000 H   0  0  0  0  0  0  0  0  0  0  0  0
    2.7924   -2.3923    0.0000 H   0  0  0  0  0  0  0  0  0  0  0  0
    3.1909   -3.0826    0.0000 H   0  0  0  0  0  0  0  0  0  0  0  0
    8.4692    2.4250    0.0000 H   0  0  0  0  0  0  0  0  0  0  0  0
    3.8705   -3.4750    0.0000 H   0  0  0  0  0  0  0  0  0  0  0  0
    4.6675   -3.4750    0.0000 H   0  0  0  0  0  0  0  0  0  0  0  0
    4.9230    2.0826    0.0000 H   0  0  0  0  0  0  0  0  0  0  0  0
    4.5244    1.3923    0.0000 H   0  0  0  0  0  0  0  0  0  0  0  0
    7.5210    0.5826    0.0000 H   0  0  0  0  0  0  0  0  0  0  0  0
    7.1225   -0.1077    0.0000 H   0  0  0  0  0  0  0  0  0  0  0  0
    8.3437    2.8923    0.0000 H   0  0  0  0  0  0  0  0  0  0  0  0
    7.9451    3.5826    0.0000 H   0  0  0  0  0  0  0  0  0  0  0  0
    6.8671   -2.1200    0.0000 H   0  0  0  0  0  0  0  0  0  0  0  0
    6.0010    2.6200    0.0000 H   0  0  0  0  0  0  0  0  0  0  0  0
    6.2565    3.6077    0.0000 H   0  0  0  0  0  0  0  0  0  0  0  0
    6.6550    2.9174    0.0000 H   0  0  0  0  0  0  0  0  0  0  0  0
    3.8321   -2.0925    0.0000 H   0  0  0  0  0  0  0  0  0  0  0  0
    6.3110   -0.4631    0.0000 H   0  0  0  0  0  0  0  0  0  0  0  0
    8.9091   -0.0369    0.0000 H   0  0  0  0  0  0  0  0  0  0  0  0
    9.1360    0.8100    0.0000 H   0  0  0  0  0  0  0  0  0  0  0  0
    8.2891    1.0369    0.0000 H   0  0  0  0  0  0  0  0  0  0  0  0
    2.0000   -1.3100    0.0000 H   0  0  0  0  0  0  0  0  0  0  0  0
    4.9230   -0.9174    0.0000 H   0  0  0  0  0  0  0  0  0  0  0  0
    6.6116   -3.1077    0.0000 H   0  0  0  0  0  0  0  0  0  0  0  0
    6.2131   -2.4174    0.0000 H   0  0  0  0  0  0  0  0  0  0  0  0
    6.4450    1.0369    0.0000 H   0  0  0  0  0  0  0  0  0  0  0  0
    7.4871    4.5000    0.0000 H   0  0  0  0  0  0  0  0  0  0  0  0
    6.8671    5.1200    0.0000 H   0  0  0  0  0  0  0  0  0  0  0  0
    6.2471    4.5000    0.0000 H   0  0  0  0  0  0  0  0  0  0  0  0
    6.5571   -5.0369    0.0000 H   0  0  0  0  0  0  0  0  0  0  0  0
    7.4040   -4.8100    0.0000 H   0  0  0  0  0  0  0  0  0  0  0  0
    7.1771   -3.9631    0.0000 H   0  0  0  0  0  0  0  0  0  0  0  0
  1 22  1  0  0  0  0
  1 30  1  0  0  0  0
  2 18  1  0  0  0  0
  2 90  1  0  0  0  0
  3 20  1  0  0  0  0
  3 95  1  0  0  0  0
  4 27  1  0  0  0  0
  4 99  1  0  0  0  0
  5 22  2  0  0  0  0
  6 29  2  0  0  0  0
  7 37  2  0  0  0  0
  8 42  1  0  0  0  0
  8 44  1  0  0  0  0
  9 32  1  0  0  0  0
  9 37  1  0  0  0  0
  9 87  1  0  0  0  0
 10 11  1  0  0  0  0
 10 12  1  0  0  0  0
 10 16  1  0  0  0  0
 10 45  1  0  0  0  0
 11 13  1  0  0  0  0
 11 46  1  0  0  0  0
 11 47  1  0  0  0  0
 12 14  1  0  0  0  0
 12 48  1  0  0  0  0
 12 49  1  0  0  0  0
 13 15  1  0  0  0  0
 13 50  1  0  0  0  0
 13 51  1  0  0  0  0
 14 19  1  0  0  0  0
 14 22  1  0  0  0  0
 14 52  1  0  0  0  0
 15 17  1  0  0  0  0
 15 53  1  0  0  0  0
 15 54  1  0  0  0  0
 16 55  1  0  0  0  0
 16 56  1  0  0  0  0
 16 57  1  0  0  0  0
 17 29  1  0  0  0  0
 17 58  1  0  0  0  0
 17 59  1  0  0  0  0
 18 20  1  0  0  0  0
 18 21  1  0  0  0  0
 18 60  1  0  0  0  0
 19 62  1  0  0  0  0
 19 63  1  0  0  0  0
 19 64  1  0  0  0  0
 20 28  1  0  0  0  0
 20 61  1  0  0  0  0
 21 27  1  0  0  0  0
 21 65  1  0  0  0  0
 21 66  1  0  0  0  0
 23 24  1  0  0  0  0
 23 33  1  0  0  0  0
 23 35  1  0  0  0  0
 23 67  1  0  0  0  0
 24 25  1  0  0  0  0
 24 68  1  0  0  0  0
 24 69  1  0  0  0  0
 25 26  1  0  0  0  0
 25 70  1  0  0  0  0
 25 71  1  0  0  0  0
 26 29  1  0  0  0  0
 26 73  1  0  0  0  0
 26 74  1  0  0  0  0
 27 32  1  0  0  0  0
 27 72  1  0  0  0  0
 28 31  1  0  0  0  0
 28 75  1  0  0  0  0
 28 76  1  0  0  0  0
 30 34  1  0  0  0  0
 30 37  1  0  0  0  0
 30 77  1  0  0  0  0
 31 36  1  0  0  0  0
 31 78  1  0  0  0  0
 31 79  1  0  0  0  0
 32 80  1  0  0  0  0
 32 81  1  0  0  0  0
 33 40  1  0  0  0  0
 33 82  1  0  0  0  0
 33 83  1  0  0  0  0
 34 38  1  0  0  0  0
 34 84  1  0  0  0  0
 34 85  1  0  0  0  0
 35 39  2  0  0  0  0
 35 86  1  0  0  0  0
 36 41  2  0  0  0  0
 36 42  1  0  0  0  0
 38 43  1  0  0  0  0
 38 88  1  0  0  0  0
 38 89  1  0  0  0  0
 39 41  1  0  0  0  0
 39 91  1  0  0  0  0
 40 92  1  0  0  0  0
 40 93  1  0  0  0  0
 40 94  1  0  0  0  0
 41 96  1  0  0  0  0
 42 97  1  0  0  0  0
 42 98  1  0  0  0  0
 43100  1  0  0  0  0
 43101  1  0  0  0  0
 43102  1  0  0  0  0
 44103  1  0  0  0  0
 44104  1  0  0  0  0
 44105  1  0  0  0  0
M  END
> <PUBCHEM_COMPOUND_CID>
9960754

> <PUBCHEM_COMPOUND_CANONICALIZED>
1

> <PUBCHEM_CACTVS_COMPLEXITY>
888

> <PUBCHEM_CACTVS_HBOND_ACCEPTOR>
8

> <PUBCHEM_CACTVS_HBOND_DONOR>
4

> <PUBCHEM_CACTVS_ROTATABLE_BOND>
5

> <PUBCHEM_CACTVS_SUBSKEYS>
AAADcfB+PAAAAAAAAAAAAAAAAAAAAAAAAAAAAAAAAAAAAAAAAAAAHgAQCAAADRThgAYCCALABgCIAqHSGAIAAAAgAAAICIFIAAgLFBIAoQQHUAAFlgCZoAP4+O6OAAAAAAAAAAAAAAAAAAAAAAAAAAAAAA==

> <PUBCHEM_IUPAC_OPENEYE_NAME>
(12Z,14E)-16-ethyl-6,8,9-trihydroxy-12-(methoxymethyl)-25,27-dimethyl-2-propyl-1-oxa-4-azacyclooctacosa-12,14-diene-3,20,28-trione

> <PUBCHEM_IUPAC_CAS_NAME>
(12Z,14E)-16-ethyl-6,8,9-trihydroxy-12-(methoxymethyl)-25,27-dimethyl-2-propyl-1-oxa-4-azacyclooctacosa-12,14-diene-3,20,28-trione

> <PUBCHEM_IUPAC_NAME>
(12Z,14E)-16-ethyl-6,8,9-trihydroxy-12-(methoxymethyl)-25,27-dimethyl-2-propyl-1-oxa-4-azacyclooctacosa-12,14-diene-3,20,28-trione

> <PUBCHEM_IUPAC_SYSTEMATIC_NAME>
(12Z,14E)-16-ethyl-12-(methoxymethyl)-25,27-dimethyl-6,8,9-tris(oxidanyl)-2-propyl-1-oxa-4-azacyclooctacosa-12,14-diene-3,20,28-trione

> <PUBCHEM_IUPAC_TRADITIONAL_NAME>
(12Z,14E)-16-ethyl-6,8,9-trihydroxy-12-(methoxymethyl)-25,27-dimethyl-2-propyl-1-oxa-4-azacyclooctacosa-12,14-diene-3,20,28-trione

> <PUBCHEM_IUPAC_INCHI>
InChI=1S/C35H61NO8/c1-6-12-33-34(41)36-23-30(38)22-32(40)31(39)20-19-28(24-43-5)16-10-14-27(7-2)15-11-18-29(37)17-9-8-13-25(3)21-26(4)35(42)44-33/h10,14,16,25-27,30-33,38-40H,6-9,11-13,15,17-24H2,1-5H3,(H,36,41)/b14-10+,28-16-

> <PUBCHEM_IUPAC_INCHIKEY>
VQWNGCSUNKJFLW-ACPVBGRSSA-N

> <PUBCHEM_XLOGP3_AA>
5.3

> <PUBCHEM_EXACT_MASS>
623.439718

> <PUBCHEM_MOLECULAR_FORMULA>
C35H61NO8

> <PUBCHEM_MOLECULAR_WEIGHT>
623.86074

> <PUBCHEM_OPENEYE_CAN_SMILES>
CCCC1C(=O)NCC(CC(C(CCC(=CC=CC(CCCC(=O)CCCCC(CC(C(=O)O1)C)C)CC)COC)O)O)O

> <PUBCHEM_OPENEYE_ISO_SMILES>
CCCC1C(=O)NCC(CC(C(CC/C(=C/C=C/C(CCCC(=O)CCCCC(CC(C(=O)O1)C)C)CC)/COC)O)O)O

> <PUBCHEM_CACTVS_TPSA>
142

> <PUBCHEM_MONOISOTOPIC_WEIGHT>
623.439718

> <PUBCHEM_TOTAL_CHARGE>
0

> <PUBCHEM_HEAVY_ATOM_COUNT>
44

> <PUBCHEM_ATOM_DEF_STEREO_COUNT>
0

> <PUBCHEM_ATOM_UDEF_STEREO_COUNT>
7

> <PUBCHEM_BOND_DEF_STEREO_COUNT>
2

> <PUBCHEM_BOND_UDEF_STEREO_COUNT>
0

> <PUBCHEM_ISOTOPIC_ATOM_COUNT>
0

> <PUBCHEM_COMPONENT_COUNT>
1

> <PUBCHEM_CACTVS_TAUTO_COUNT>
18

> <PUBCHEM_COORDINATE_TYPE>
1
5
255

> <PUBCHEM_BONDANNOTATIONS>
10  45  3
14  52  3
18  60  3
20  61  3
23  67  3
27  72  3
30  77  3

$$$$

