440898
  -OEChem-07051212513D

 20 20  0     0  0  0  0  0  0999 V2000
    1.6434   -1.9216    0.0323 O   0  0  0  0  0  0  0  0  0  0  0  0
   -1.4915   -1.9845   -1.2033 O   0  0  0  0  0  0  0  0  0  0  0  0
   -1.5976   -2.1081    1.0639 O   0  0  0  0  0  0  0  0  0  0  0  0
   -2.5909    2.3179    0.0076 O   0  0  0  0  0  0  0  0  0  0  0  0
    1.5374    1.7235   -0.0127 N   0  0  0  0  0  0  0  0  0  0  0  0
   -0.2364   -0.4367    0.0260 C   0  0  0  0  0  0  0  0  0  0  0  0
    1.1360   -0.6603    0.0198 C   0  0  0  0  0  0  0  0  0  0  0  0
    1.9730    0.4438    0.0004 C   0  0  0  0  0  0  0  0  0  0  0  0
   -0.7229    0.8658    0.0128 C   0  0  0  0  0  0  0  0  0  0  0  0
    0.1972    1.9017   -0.0063 C   0  0  0  0  0  0  0  0  0  0  0  0
    3.4554    0.2603   -0.0061 C   0  0  0  0  0  0  0  0  0  0  0  0
   -1.1563   -1.5690    0.0470 C   0  0  0  0  0  0  0  0  0  0  0  0
   -2.1468    1.1671    0.0186 C   0  0  0  0  0  0  0  0  0  0  0  0
   -0.1093    2.9433   -0.0173 H   0  0  0  0  0  0  0  0  0  0  0  0
    3.7751   -0.2908   -0.8964 H   0  0  0  0  0  0  0  0  0  0  0  0
    3.9654    1.2299   -0.0219 H   0  0  0  0  0  0  0  0  0  0  0  0
    3.7858   -0.2673    0.8945 H   0  0  0  0  0  0  0  0  0  0  0  0
   -2.8505    0.3198    0.0347 H   0  0  0  0  0  0  0  0  0  0  0  0
    2.6129   -1.9132    0.0250 H   0  0  0  0  0  0  0  0  0  0  0  0
   -2.1111   -2.7447   -1.1817 H   0  0  0  0  0  0  0  0  0  0  0  0
  1  7  1  0  0  0  0
  1 19  1  0  0  0  0
  2 12  1  0  0  0  0
  2 20  1  0  0  0  0
  3 12  2  0  0  0  0
  4 13  2  0  0  0  0
  5  8  2  0  0  0  0
  5 10  1  0  0  0  0
  6  7  2  0  0  0  0
  6  9  1  0  0  0  0
  6 12  1  0  0  0  0
  7  8  1  0  0  0  0
  8 11  1  0  0  0  0
  9 10  2  0  0  0  0
  9 13  1  0  0  0  0
 10 14  1  0  0  0  0
 11 15  1  0  0  0  0
 11 16  1  0  0  0  0
 11 17  1  0  0  0  0
 13 18  1  0  0  0  0
M  END
> <PUBCHEM_COMPOUND_CID>
440898

> <PUBCHEM_CONFORMER_RMSD>
0.6

> <PUBCHEM_CONFORMER_DIVERSEORDER>
1
2

> <PUBCHEM_MMFF94_PARTIAL_CHARGES>
17
1 -0.53
10 0.16
11 0.14
12 0.63
13 0.42
14 0.15
18 0.06
19 0.45
2 -0.65
20 0.5
3 -0.57
4 -0.57
5 -0.62
6 0.09
7 0.08
8 0.17
9 0.09

> <PUBCHEM_EFFECTIVE_ROTOR_COUNT>
2

> <PUBCHEM_PHARMACOPHORE_FEATURES>
7
1 1 donor
1 2 acceptor
1 3 acceptor
1 4 acceptor
1 5 acceptor
3 2 3 12 anion
6 5 6 7 8 9 10 rings

> <PUBCHEM_HEAVY_ATOM_COUNT>
13

> <PUBCHEM_ATOM_DEF_STEREO_COUNT>
0

> <PUBCHEM_ATOM_UDEF_STEREO_COUNT>
0

> <PUBCHEM_BOND_DEF_STEREO_COUNT>
0

> <PUBCHEM_BOND_UDEF_STEREO_COUNT>
0

> <PUBCHEM_ISOTOPIC_ATOM_COUNT>
0

> <PUBCHEM_COMPONENT_COUNT>
1

> <PUBCHEM_CACTVS_TAUTO_COUNT>
4

> <PUBCHEM_CONFORMER_ID>
0006BA4200000001

> <PUBCHEM_MMFF94_ENERGY>
40.744

> <PUBCHEM_FEATURE_SELFOVERLAP>
35.578

> <PUBCHEM_SHAPE_FINGERPRINT>
1 1 17908144626604836349
10353120 184 18052804867484311638
11206711 2 18267300937368099260
12423570 1 14799491544729404228
13380535 21 18339345466194640094
13380535 76 18338240474061987358
16945 1 18412540985741884385
193761 8 18339079263858221200
20588541 1 18337951306957248020
20645476 183 17701229620838598654
20645477 70 17832714839612178389
20871998 184 18334569110015376415
21040471 1 18338799017257845040
21501502 16 18411989078487095098
2334 1 18194682553835379464
23552423 10 18199750232971126900
23559900 14 18261948640330961148
241688 4 16031542353812669491
2748010 2 18194957671980579501
5084963 1 17824539660936136866
81228 2 18268156366030966521

> <PUBCHEM_SHAPE_MULTIPOLES>
239.08
3.64
2.63
0.74
1.78
0.2
0.03
-0.77
-0.01
-1.51
-0.01
-0.24
0.31
-0.01

> <PUBCHEM_SHAPE_SELFOVERLAP>
508.179

> <PUBCHEM_SHAPE_VOLUME>
132.8

> <PUBCHEM_COORDINATE_TYPE>
2
5
10

$$$$

