226968
  -OEChem-07051213063D

 40 41  0     0  0  0  0  0  0999 V2000
   -4.8304   -2.2268   -0.1976 O   0  0  0  0  0  0  0  0  0  0  0  0
    4.8298   -2.2274    0.1982 O   0  0  0  0  0  0  0  0  0  0  0  0
    0.0002    1.9716   -0.0004 C   0  0  0  0  0  0  0  0  0  0  0  0
   -0.0001    0.6095   -0.0003 C   0  0  0  0  0  0  0  0  0  0  0  0
    1.2740    2.8105    0.0441 C   0  0  0  0  0  0  0  0  0  0  0  0
   -1.2730    2.8112   -0.0442 C   0  0  0  0  0  0  0  0  0  0  0  0
   -1.2787   -0.1406   -0.0522 C   0  0  0  0  0  0  0  0  0  0  0  0
    1.2784   -0.1408    0.0521 C   0  0  0  0  0  0  0  0  0  0  0  0
    1.8111    3.1317   -1.3451 C   0  0  0  0  0  0  0  0  0  0  0  0
   -1.8095    3.1333    1.3449 C   0  0  0  0  0  0  0  0  0  0  0  0
   -1.9044   -0.4785    1.1311 C   0  0  0  0  0  0  0  0  0  0  0  0
    1.9040   -0.4792   -1.1311 C   0  0  0  0  0  0  0  0  0  0  0  0
   -1.8052   -0.4793   -1.2828 C   0  0  0  0  0  0  0  0  0  0  0  0
    1.8049   -0.4790    1.2828 C   0  0  0  0  0  0  0  0  0  0  0  0
   -3.1064   -1.1846    1.0818 C   0  0  0  0  0  0  0  0  0  0  0  0
    3.1060   -1.1854   -1.0816 C   0  0  0  0  0  0  0  0  0  0  0  0
   -3.0072   -1.1851   -1.3321 C   0  0  0  0  0  0  0  0  0  0  0  0
    3.0068   -1.1850    1.3323 C   0  0  0  0  0  0  0  0  0  0  0  0
   -3.6578   -1.5378   -0.1498 C   0  0  0  0  0  0  0  0  0  0  0  0
    3.6574   -1.5383    0.1501 C   0  0  0  0  0  0  0  0  0  0  0  0
    2.0583    2.3148    0.6261 H   0  0  0  0  0  0  0  0  0  0  0  0
    1.0776    3.7467    0.5813 H   0  0  0  0  0  0  0  0  0  0  0  0
   -1.0763    3.7471   -0.5820 H   0  0  0  0  0  0  0  0  0  0  0  0
   -2.0578    2.3158   -0.6257 H   0  0  0  0  0  0  0  0  0  0  0  0
    2.0790    2.2311   -1.9026 H   0  0  0  0  0  0  0  0  0  0  0  0
    1.0740    3.6869   -1.9349 H   0  0  0  0  0  0  0  0  0  0  0  0
    2.7092    3.7526   -1.2636 H   0  0  0  0  0  0  0  0  0  0  0  0
   -1.0720    3.6883    1.9342 H   0  0  0  0  0  0  0  0  0  0  0  0
   -2.7074    3.7545    1.2634 H   0  0  0  0  0  0  0  0  0  0  0  0
   -2.0777    2.2331    1.9028 H   0  0  0  0  0  0  0  0  0  0  0  0
   -1.4831   -0.2134    2.0967 H   0  0  0  0  0  0  0  0  0  0  0  0
    1.4828   -0.2144   -2.0969 H   0  0  0  0  0  0  0  0  0  0  0  0
   -1.3086   -0.2088   -2.2105 H   0  0  0  0  0  0  0  0  0  0  0  0
    1.3083   -0.2081    2.2103 H   0  0  0  0  0  0  0  0  0  0  0  0
   -3.6028   -1.4542    2.0101 H   0  0  0  0  0  0  0  0  0  0  0  0
    3.6076   -1.4585   -2.0059 H   0  0  0  0  0  0  0  0  0  0  0  0
   -3.4320   -1.4572   -2.2945 H   0  0  0  0  0  0  0  0  0  0  0  0
    3.4261   -1.4535    2.2982 H   0  0  0  0  0  0  0  0  0  0  0  0
   -5.1396   -2.3859    0.7108 H   0  0  0  0  0  0  0  0  0  0  0  0
    5.0637   -2.3868    1.1288 H   0  0  0  0  0  0  0  0  0  0  0  0
  1 19  1  0  0  0  0
  1 39  1  0  0  0  0
  2 20  1  0  0  0  0
  2 40  1  0  0  0  0
  3  4  2  0  0  0  0
  3  5  1  0  0  0  0
  3  6  1  0  0  0  0
  4  7  1  0  0  0  0
  4  8  1  0  0  0  0
  5  9  1  0  0  0  0
  5 21  1  0  0  0  0
  5 22  1  0  0  0  0
  6 10  1  0  0  0  0
  6 23  1  0  0  0  0
  6 24  1  0  0  0  0
  7 11  2  0  0  0  0
  7 13  1  0  0  0  0
  8 12  2  0  0  0  0
  8 14  1  0  0  0  0
  9 25  1  0  0  0  0
  9 26  1  0  0  0  0
  9 27  1  0  0  0  0
 10 28  1  0  0  0  0
 10 29  1  0  0  0  0
 10 30  1  0  0  0  0
 11 15  1  0  0  0  0
 11 31  1  0  0  0  0
 12 16  1  0  0  0  0
 12 32  1  0  0  0  0
 13 17  2  0  0  0  0
 13 33  1  0  0  0  0
 14 18  2  0  0  0  0
 14 34  1  0  0  0  0
 15 19  2  0  0  0  0
 15 35  1  0  0  0  0
 16 20  2  0  0  0  0
 16 36  1  0  0  0  0
 17 19  1  0  0  0  0
 17 37  1  0  0  0  0
 18 20  1  0  0  0  0
 18 38  1  0  0  0  0
M  END
> <PUBCHEM_COMPOUND_CID>
226968

> <PUBCHEM_CONFORMER_RMSD>
0.6

> <PUBCHEM_CONFORMER_DIVERSEORDER>
2
1

> <PUBCHEM_MMFF94_PARTIAL_CHARGES>
28
1 -0.53
11 -0.15
12 -0.15
13 -0.15
14 -0.15
15 -0.15
16 -0.15
17 -0.15
18 -0.15
19 0.08
2 -0.53
20 0.08
3 -0.28
31 0.15
32 0.15
33 0.15
34 0.15
35 0.15
36 0.15
37 0.15
38 0.15
39 0.45
4 -0.06
40 0.45
5 0.14
6 0.14
7 0.03
8 0.03

> <PUBCHEM_EFFECTIVE_ROTOR_COUNT>
4

> <PUBCHEM_PHARMACOPHORE_FEATURES>
6
1 1 donor
1 10 hydrophobe
1 2 donor
1 9 hydrophobe
6 7 11 13 15 17 19 rings
6 8 12 14 16 18 20 rings

> <PUBCHEM_HEAVY_ATOM_COUNT>
20

> <PUBCHEM_ATOM_DEF_STEREO_COUNT>
0

> <PUBCHEM_ATOM_UDEF_STEREO_COUNT>
0

> <PUBCHEM_BOND_DEF_STEREO_COUNT>
0

> <PUBCHEM_BOND_UDEF_STEREO_COUNT>
0

> <PUBCHEM_ISOTOPIC_ATOM_COUNT>
0

> <PUBCHEM_COMPONENT_COUNT>
1

> <PUBCHEM_CACTVS_TAUTO_COUNT>
3

> <PUBCHEM_CONFORMER_ID>
0003769800000002

> <PUBCHEM_MMFF94_ENERGY>
59.0203

> <PUBCHEM_FEATURE_SELFOVERLAP>
30.446

> <PUBCHEM_SHAPE_FINGERPRINT>
10989021 7 18408882906271901261
12363563 72 18411703183593716267
12403259 327 15213299690583992903
12553582 1 18338785775757880270
12633257 1 15647342904822423907
12644460 14 18046892802341890307
12707595 3 18272938197639593298
12714826 92 17968935426298424846
13083527 12 18337122150593739968
13140716 1 18335137601009801385
133893 2 17774142527733915868
13533116 47 18122907522081708083
13583140 156 14851892503255961891
13681431 1 18341058397599201956
15042514 8 18050000288014989568
17357779 13 18116175391786336653
1813 80 18261663835736718230
200 152 17917990607266362578
20361792 2 18409170999819731903
204376 136 8790881891201502551
20645477 70 18197505021875001471
20671657 53 18343024380218738130
20832881 197 18343864407883380011
21041028 32 18335980896336959081
21296965 67 18410862053066608419
21452121 199 18338524049146018960
21731516 1 18410851066376747910
22112679 90 18198889495881987324
23114952 82 17916872283544459709
23184049 29 18410572898567332584
23402539 116 18341332305502978450
23419403 2 17689771528308510648
23557571 272 18116153458026431590
23559900 14 18271818886196238699
23598288 3 17983833847319539348
23598291 2 18116131317417332067
633830 44 11743574244183031219
6442390 28 17179952446500589336
7364860 26 18193839232373771268
7471813 234 18410297982005325854
7970288 3 18410856559646389515
81228 2 18194129731124529513
81539 233 17840589188985235660

> <PUBCHEM_SHAPE_MULTIPOLES>
399.85
7.01
3.59
1.4
0
3.78
0
-7.44
0
0
0
0
0.03
-1.14

> <PUBCHEM_SHAPE_SELFOVERLAP>
850.113

> <PUBCHEM_SHAPE_VOLUME>
224.3

> <PUBCHEM_COORDINATE_TYPE>
2
5
10

$$$$

