6838
  -OEChem-07051213063D

 25 26  0     0  0  0  0  0  0999 V2000
    1.0666    2.7737    0.0026 O   0  0  0  0  0  0  0  0  0  0  0  0
   -0.0687    0.8582   -0.0229 N   0  0  0  0  0  0  0  0  0  0  0  0
   -0.0518    2.2454    0.0159 N   0  0  0  0  0  0  0  0  0  0  0  0
   -1.3130    0.1943   -0.0102 C   0  0  0  0  0  0  0  0  0  0  0  0
    1.2072    0.1435   -0.0116 C   0  0  0  0  0  0  0  0  0  0  0  0
   -1.3599   -1.1996    0.0140 C   0  0  0  0  0  0  0  0  0  0  0  0
    1.7694   -0.1930   -1.2145 C   0  0  0  0  0  0  0  0  0  0  0  0
   -2.4970    0.9318   -0.0223 C   0  0  0  0  0  0  0  0  0  0  0  0
    1.7711   -0.1512    1.2013 C   0  0  0  0  0  0  0  0  0  0  0  0
   -2.5906   -1.8560    0.0260 C   0  0  0  0  0  0  0  0  0  0  0  0
    2.9860   -0.8752   -1.2035 C   0  0  0  0  0  0  0  0  0  0  0  0
   -3.7277    0.2753   -0.0103 C   0  0  0  0  0  0  0  0  0  0  0  0
    2.9877   -0.8333    1.2121 C   0  0  0  0  0  0  0  0  0  0  0  0
   -3.7744   -1.1186    0.0138 C   0  0  0  0  0  0  0  0  0  0  0  0
    3.5952   -1.1953    0.0097 C   0  0  0  0  0  0  0  0  0  0  0  0
   -0.4668   -1.8169    0.0241 H   0  0  0  0  0  0  0  0  0  0  0  0
    1.2974    0.0549   -2.1598 H   0  0  0  0  0  0  0  0  0  0  0  0
   -2.5155    2.0178   -0.0438 H   0  0  0  0  0  0  0  0  0  0  0  0
    1.3005    0.1285    2.1385 H   0  0  0  0  0  0  0  0  0  0  0  0
   -2.6278   -2.9413    0.0447 H   0  0  0  0  0  0  0  0  0  0  0  0
    3.4589   -1.1571   -2.1397 H   0  0  0  0  0  0  0  0  0  0  0  0
   -4.6501    0.8488   -0.0204 H   0  0  0  0  0  0  0  0  0  0  0  0
    3.4620   -1.0828    2.1568 H   0  0  0  0  0  0  0  0  0  0  0  0
   -4.7326   -1.6297    0.0229 H   0  0  0  0  0  0  0  0  0  0  0  0
    4.5425   -1.7265    0.0182 H   0  0  0  0  0  0  0  0  0  0  0  0
  1  3  2  0  0  0  0
  2  3  1  0  0  0  0
  2  4  1  0  0  0  0
  2  5  1  0  0  0  0
  4  6  2  0  0  0  0
  4  8  1  0  0  0  0
  5  7  2  0  0  0  0
  5  9  1  0  0  0  0
  6 10  1  0  0  0  0
  6 16  1  0  0  0  0
  7 11  1  0  0  0  0
  7 17  1  0  0  0  0
  8 12  2  0  0  0  0
  8 18  1  0  0  0  0
  9 13  2  0  0  0  0
  9 19  1  0  0  0  0
 10 14  2  0  0  0  0
 10 20  1  0  0  0  0
 11 15  2  0  0  0  0
 11 21  1  0  0  0  0
 12 14  1  0  0  0  0
 12 22  1  0  0  0  0
 13 15  1  0  0  0  0
 13 23  1  0  0  0  0
 14 24  1  0  0  0  0
 15 25  1  0  0  0  0
M  END
> <PUBCHEM_COMPOUND_CID>
6838

> <PUBCHEM_CONFORMER_RMSD>
0.6

> <PUBCHEM_CONFORMER_DIVERSEORDER>
1
3
6
2
4
5

> <PUBCHEM_MMFF94_PARTIAL_CHARGES>
24
1 -0.16
10 -0.15
11 -0.15
12 -0.15
13 -0.15
14 -0.15
15 -0.15
16 0.15
17 0.15
18 0.15
19 0.15
2 -0.03
20 0.15
21 0.15
22 0.15
23 0.15
24 0.15
25 0.15
4 0.1
5 0.1
6 -0.15
7 -0.15
8 -0.15
9 -0.15

> <PUBCHEM_EFFECTIVE_ROTOR_COUNT>
3

> <PUBCHEM_PHARMACOPHORE_FEATURES>
2
6 4 6 8 10 12 14 rings
6 5 7 9 11 13 15 rings

> <PUBCHEM_HEAVY_ATOM_COUNT>
15

> <PUBCHEM_ATOM_DEF_STEREO_COUNT>
0

> <PUBCHEM_ATOM_UDEF_STEREO_COUNT>
0

> <PUBCHEM_BOND_DEF_STEREO_COUNT>
0

> <PUBCHEM_BOND_UDEF_STEREO_COUNT>
0

> <PUBCHEM_ISOTOPIC_ATOM_COUNT>
0

> <PUBCHEM_COMPONENT_COUNT>
1

> <PUBCHEM_CACTVS_TAUTO_COUNT>
1

> <PUBCHEM_CONFORMER_ID>
00001AB600000001

> <PUBCHEM_MMFF94_ENERGY>
62.8062

> <PUBCHEM_FEATURE_SELFOVERLAP>
10.149

> <PUBCHEM_SHAPE_FINGERPRINT>
10130415 120 18342736329768312659
10465860 71 18339063952325756406
10618630 7 18411699932524856966
10751810 167 18060131059578858703
11471102 22 16371011844841344922
11543360 7 15697711524301496803
11578080 2 17344659052339590900
12346177 29 18260559922168345039
12553582 1 18413105082604684523
12932764 1 17917997157238668821
13296908 3 18408888425278496427
14115302 16 17775562031161604867
14144814 61 18413389834757454115
14252887 29 18260264144565488154
15375462 189 18059855094749556283
15501101 241 17313107462251980810
15848700 24 18261402164801150039
16752209 62 18127702723616701709
16945 1 18410855486441304003
17804303 29 18412822482747273951
17990270 104 18263642870540210223
18175812 5 17748834028924529398
18186145 218 12175620723914506686
19049666 15 17388532984685700502
19422 9 17703503363508421099
20233049 118 18201442514172507477
20279233 1 17822013128943988199
20281407 28 18260260888948590078
20361792 2 18412830178827502167
20645477 70 18194689164127671391
20871998 22 18407760348039441104
20871999 31 18341043103209734973
21501502 16 18264205799541105893
21501925 9 18262809466712489531
21524375 3 17399799298041850992
2255824 54 17988075574179715836
23184049 29 18267026042392321787
232386 152 18342741810067681998
23402539 116 18262530310775480366
23463225 33 18342459287150768507
23532345 42 18333737909621923082
23557571 272 18188770677824168840
23559900 14 18263645237821817806
25 1 12391515321112599054
2748010 2 18268998575016274045
465052 167 18200295638532231859
474 4 17058352697019027620
5902787 121 18412548682275812642
7364860 26 18190740821497264968
74978 22 18340486664848902555
77492 1 17632008766684132006
81228 2 18118392075979330952
81539 233 17982173314332080716

> <PUBCHEM_SHAPE_MULTIPOLES>
292.86
6.5
1.99
1.01
1.66
1.23
0
-2.92
-0.02
0.28
-0.01
-0.98
-0.19
0.03

> <PUBCHEM_SHAPE_SELFOVERLAP>
629.682

> <PUBCHEM_SHAPE_VOLUME>
160.8

> <PUBCHEM_COORDINATE_TYPE>
2
5
10

$$$$

