442944
  -OEChem-07051213003D

 46 48  0     1  0  0  0  0  0999 V2000
    4.6967   -1.4367   -1.5423 O   0  0  0  0  0  0  0  0  0  0  0  0
    1.1122    3.9211   -0.4484 O   0  0  0  0  0  0  0  0  0  0  0  0
   -4.1572   -2.4867   -0.2174 O   0  0  0  0  0  0  0  0  0  0  0  0
    1.1118   -0.8655    0.5566 N   0  0  2  0  0  0  0  0  0  0  0  0
   -2.4606   -1.0340    0.2796 N   0  0  0  0  0  0  0  0  0  0  0  0
    1.9740    0.3306    0.3946 C   0  0  2  0  0  0  0  0  0  0  0  0
   -0.8373    0.5174    1.2765 C   0  0  2  0  0  0  0  0  0  0  0  0
    1.1201    1.5832    0.0433 C   0  0  1  0  0  0  0  0  0  0  0  0
   -0.0084    1.7868    1.0676 C   0  0  0  0  0  0  0  0  0  0  0  0
    0.0915   -0.6598    1.5966 C   0  0  0  0  0  0  0  0  0  0  0  0
    3.0313    0.0722   -0.6995 C   0  0  0  0  0  0  0  0  0  0  0  0
   -1.7424    0.2197    0.0769 C   0  0  2  0  0  0  0  0  0  0  0  0
    1.8953   -2.0705    0.8739 C   0  0  0  0  0  0  0  0  0  0  0  0
    3.8445   -1.1900   -0.4306 C   0  0  1  0  0  0  0  0  0  0  0  0
    2.9164   -2.3759   -0.2153 C   0  0  0  0  0  0  0  0  0  0  0  0
    1.9565    2.8661   -0.0336 C   0  0  0  0  0  0  0  0  0  0  0  0
   -2.6887    1.3856   -0.1981 C   0  0  0  0  0  0  0  0  0  0  0  0
   -3.6691    0.9857   -1.2892 C   0  0  0  0  0  0  0  0  0  0  0  0
   -4.4990   -0.2012   -0.8293 C   0  0  0  0  0  0  0  0  0  0  0  0
   -3.6877   -1.3480   -0.2618 C   0  0  0  0  0  0  0  0  0  0  0  0
    2.5020    0.5234    1.3401 H   0  0  0  0  0  0  0  0  0  0  0  0
   -1.4770    0.6739    2.1566 H   0  0  0  0  0  0  0  0  0  0  0  0
    0.6555    1.4305   -0.9405 H   0  0  0  0  0  0  0  0  0  0  0  0
   -0.6342    2.6471    0.8169 H   0  0  0  0  0  0  0  0  0  0  0  0
    0.4483    2.0465    2.0339 H   0  0  0  0  0  0  0  0  0  0  0  0
    0.5931   -0.4460    2.5524 H   0  0  0  0  0  0  0  0  0  0  0  0
   -0.4690   -1.5799    1.7837 H   0  0  0  0  0  0  0  0  0  0  0  0
    2.5501   -0.0023   -1.6845 H   0  0  0  0  0  0  0  0  0  0  0  0
    3.7345    0.9086   -0.7753 H   0  0  0  0  0  0  0  0  0  0  0  0
   -1.1398    0.0478   -0.8234 H   0  0  0  0  0  0  0  0  0  0  0  0
    1.2262   -2.9357    0.9585 H   0  0  0  0  0  0  0  0  0  0  0  0
    2.4068   -1.9593    1.8391 H   0  0  0  0  0  0  0  0  0  0  0  0
    4.4772   -1.0391    0.4523 H   0  0  0  0  0  0  0  0  0  0  0  0
    3.5017   -3.2633    0.0543 H   0  0  0  0  0  0  0  0  0  0  0  0
    2.4070   -2.6294   -1.1545 H   0  0  0  0  0  0  0  0  0  0  0  0
    2.7685    2.7964   -0.7606 H   0  0  0  0  0  0  0  0  0  0  0  0
    2.3882    3.1237    0.9388 H   0  0  0  0  0  0  0  0  0  0  0  0
   -2.1456    2.2688   -0.5476 H   0  0  0  0  0  0  0  0  0  0  0  0
   -3.2386    1.6672    0.7085 H   0  0  0  0  0  0  0  0  0  0  0  0
   -1.9470   -1.8337    0.6302 H   0  0  0  0  0  0  0  0  0  0  0  0
   -3.1232    0.7280   -2.2051 H   0  0  0  0  0  0  0  0  0  0  0  0
   -4.3283    1.8268   -1.5308 H   0  0  0  0  0  0  0  0  0  0  0  0
   -5.0896   -0.5794   -1.6711 H   0  0  0  0  0  0  0  0  0  0  0  0
   -5.1987    0.1158   -0.0467 H   0  0  0  0  0  0  0  0  0  0  0  0
    5.1977   -2.2482   -1.3527 H   0  0  0  0  0  0  0  0  0  0  0  0
    0.7742    3.7018   -1.3334 H   0  0  0  0  0  0  0  0  0  0  0  0
  1 14  1  0  0  0  0
  1 45  1  0  0  0  0
  2 16  1  0  0  0  0
  2 46  1  0  0  0  0
  3 20  2  0  0  0  0
  4  6  1  0  0  0  0
  4 10  1  0  0  0  0
  4 13  1  0  0  0  0
  5 12  1  0  0  0  0
  5 20  1  0  0  0  0
  5 40  1  0  0  0  0
  6  8  1  0  0  0  0
  6 11  1  0  0  0  0
  6 21  1  0  0  0  0
  7  9  1  0  0  0  0
  7 10  1  0  0  0  0
  7 12  1  0  0  0  0
  7 22  1  0  0  0  0
  8  9  1  0  0  0  0
  8 16  1  0  0  0  0
  8 23  1  0  0  0  0
  9 24  1  0  0  0  0
  9 25  1  0  0  0  0
 10 26  1  0  0  0  0
 10 27  1  0  0  0  0
 11 14  1  0  0  0  0
 11 28  1  0  0  0  0
 11 29  1  0  0  0  0
 12 17  1  0  0  0  0
 12 30  1  0  0  0  0
 13 15  1  0  0  0  0
 13 31  1  0  0  0  0
 13 32  1  0  0  0  0
 14 15  1  0  0  0  0
 14 33  1  0  0  0  0
 15 34  1  0  0  0  0
 15 35  1  0  0  0  0
 16 36  1  0  0  0  0
 16 37  1  0  0  0  0
 17 18  1  0  0  0  0
 17 38  1  0  0  0  0
 17 39  1  0  0  0  0
 18 19  1  0  0  0  0
 18 41  1  0  0  0  0
 18 42  1  0  0  0  0
 19 20  1  0  0  0  0
 19 43  1  0  0  0  0
 19 44  1  0  0  0  0
M  END
> <PUBCHEM_COMPOUND_CID>
442944

> <PUBCHEM_CONFORMER_RMSD>
0.6

> <PUBCHEM_CONFORMER_DIVERSEORDER>
28
133
217
108
157
64
63
195
132
113
145
41
86
220
194
25
45
154
165
96
191
213
102
208
200
121
215
218
172
147
164
125
82
65
205
204
71
160
88
27
196
59
169
98
193
216
168
11
131
111
129
149
140
219
42
207
94
192
210
80
184
68
13
99
10
134
206
177
23
118
212
180
158
142
124
138
116
176
19
89
148
150
181
36
175
103
190
162
114
214
43
67
186
211
62
199
209
52
179
163
201
127
143
117
100
182
53
109
20
155
73
105
183
202
15
185
197
70
30
166
141
58
38
37
4
120
57
56
54
104
106
22
153
55
5
1
171
92
34
198
188
40
46
9
173
151
72
174
61
31
91
3
122
90
49
187
170
66
7
110
85
115
39
48
130
95
47
136
128
152
81
203
26
107
83
167
84
69
178
24
14
119
135
29
156
74
126
93
189
137
16
21
79
6
12
32
18
78
60
17
123
112
87
161
97
75
101
77
51
144
139
8
35
44
146
76
33
2
50
159

> <PUBCHEM_MMFF94_PARTIAL_CHARGES>
16
1 -0.68
10 0.27
12 0.3
13 0.27
14 0.28
16 0.28
19 0.06
2 -0.68
20 0.57
3 -0.57
4 -0.81
40 0.37
45 0.4
46 0.4
5 -0.73
6 0.27

> <PUBCHEM_EFFECTIVE_ROTOR_COUNT>
4.6

> <PUBCHEM_PHARMACOPHORE_FEATURES>
10
1 1 acceptor
1 1 donor
1 2 acceptor
1 2 donor
1 3 acceptor
1 4 cation
1 5 donor
6 4 6 11 13 14 15 rings
6 4 6 7 8 9 10 rings
6 5 12 17 18 19 20 rings

> <PUBCHEM_HEAVY_ATOM_COUNT>
20

> <PUBCHEM_ATOM_DEF_STEREO_COUNT>
0

> <PUBCHEM_ATOM_UDEF_STEREO_COUNT>
5

> <PUBCHEM_BOND_DEF_STEREO_COUNT>
0

> <PUBCHEM_BOND_UDEF_STEREO_COUNT>
0

> <PUBCHEM_ISOTOPIC_ATOM_COUNT>
0

> <PUBCHEM_COMPONENT_COUNT>
1

> <PUBCHEM_CACTVS_TAUTO_COUNT>
2

> <PUBCHEM_CONFORMER_ID>
0006C2400000001C

> <PUBCHEM_MMFF94_ENERGY>
36.8334

> <PUBCHEM_FEATURE_SELFOVERLAP>
50.762

> <PUBCHEM_SHAPE_FINGERPRINT>
10465860 71 18336267937163816179
10756046 5 18411700967770302301
12400797 292 18410577249379376331
12553582 1 18338794649180880507
12670546 177 18273210928226134150
12892183 10 7997963579077720687
14250199 8 18341332193564569593
14251757 5 18125159587449870149
14576447 43 18408885161483581870
14790565 3 17473261453770764001
15209294 21 10735580368160763214
15210252 30 17346313864452223908
15502722 9 18266462001242816225
16945 1 18342173349634199617
17041 50 18340496641878602709
18186145 218 18342462534504422313
193927 3 17530954817697117590
19862831 5 18342175604571209395
20388580 30 18260547801153158143
20645477 70 18337117748405047447
20671657 53 18335982051266228956
20871999 31 18340485676816643839
21524375 3 17624990338914253033
21634736 98 18409451362405031611
21713013 43 18341899576045670495
221357 26 18341900718596421117
221490 88 18340483357449901627
22393880 68 18342462551320385630
23114952 82 18270962323789294445
23379529 103 18187356593426915431
23382010 3 17346874559246633586
23402539 116 18263076781504057982
23557571 272 17973181792002836850
23559900 14 18337402564618491905
23566358 27 18268131090470260977
23598291 2 18261096496100074785
238 59 18197768904353898510
2748010 2 17623268495404579232
2838139 119 16056585548655729054
314173 41 18409447015935135879
3286 77 17773897349145378842
3323516 105 18342458101939917075
394222 165 4749157527968270506
4280585 95 18338523048972585250
46194498 28 18270404884647601221
5262128 65 18334848433229276373
5281201 14 18341615867632964869
6287921 2 17914048695040678045
7364860 26 18337398136254138657
7832392 63 18339929332628639809
9709674 26 18269840813686973499

> <PUBCHEM_SHAPE_MULTIPOLES>
384.02
7.99
3.22
1.21
3.33
2.06
-0.1
-4.85
4.08
-1.43
0.24
-0.21
-0.09
0.35

> <PUBCHEM_SHAPE_SELFOVERLAP>
791.853

> <PUBCHEM_SHAPE_VOLUME>
216.2

> <PUBCHEM_COORDINATE_TYPE>
2
5
10

$$$$

