123196
  -OEChem-07051213013D

 13 13  0     0  0  0  0  0  0999 V2000
   -1.3340    1.7633    0.0127 O   0  0  0  0  0  0  0  0  0  0  0  0
    2.1907   -1.2108    0.0114 O   0  0  0  0  0  0  0  0  0  0  0  0
   -2.3888   -0.8482   -0.0037 O   0  0  0  0  0  0  0  0  0  0  0  0
    0.7278    0.6182   -0.0033 N   0  0  0  0  0  0  0  0  0  0  0  0
   -0.1191   -1.4527   -0.0045 N   0  0  0  0  0  0  0  0  0  0  0  0
   -0.6276    0.7778    0.0014 C   0  0  0  0  0  0  0  0  0  0  0  0
    1.0641   -0.7300    0.0005 C   0  0  0  0  0  0  0  0  0  0  0  0
   -1.1982   -0.6233   -0.0034 C   0  0  0  0  0  0  0  0  0  0  0  0
    1.6850    1.7056   -0.0112 C   0  0  0  0  0  0  0  0  0  0  0  0
   -0.1699   -2.4649   -0.0041 H   0  0  0  0  0  0  0  0  0  0  0  0
    2.3394    1.5899   -0.8798 H   0  0  0  0  0  0  0  0  0  0  0  0
    2.2984    1.6353    0.8916 H   0  0  0  0  0  0  0  0  0  0  0  0
    1.1761    2.6718   -0.0464 H   0  0  0  0  0  0  0  0  0  0  0  0
  1  6  2  0  0  0  0
  2  7  2  0  0  0  0
  3  8  2  0  0  0  0
  4  6  1  0  0  0  0
  4  7  1  0  0  0  0
  4  9  1  0  0  0  0
  5  7  1  0  0  0  0
  5  8  1  0  0  0  0
  5 10  1  0  0  0  0
  6  8  1  0  0  0  0
  9 11  1  0  0  0  0
  9 12  1  0  0  0  0
  9 13  1  0  0  0  0
M  END
> <PUBCHEM_COMPOUND_CID>
123196

> <PUBCHEM_CONFORMER_RMSD>
0.4

> <PUBCHEM_CONFORMER_DIVERSEORDER>
1

> <PUBCHEM_MMFF94_PARTIAL_CHARGES>
10
1 -0.57
10 0.37
2 -0.57
3 -0.57
4 -0.42
5 -0.49
6 0.63
7 0.69
8 0.63
9 0.3

> <PUBCHEM_EFFECTIVE_ROTOR_COUNT>
0.4

> <PUBCHEM_PHARMACOPHORE_FEATURES>
5
1 1 acceptor
1 2 acceptor
1 3 acceptor
1 5 donor
5 4 5 6 7 8 rings

> <PUBCHEM_HEAVY_ATOM_COUNT>
9

> <PUBCHEM_ATOM_DEF_STEREO_COUNT>
0

> <PUBCHEM_ATOM_UDEF_STEREO_COUNT>
0

> <PUBCHEM_BOND_DEF_STEREO_COUNT>
0

> <PUBCHEM_BOND_UDEF_STEREO_COUNT>
0

> <PUBCHEM_ISOTOPIC_ATOM_COUNT>
0

> <PUBCHEM_COMPONENT_COUNT>
1

> <PUBCHEM_CACTVS_TAUTO_COUNT>
3

> <PUBCHEM_CONFORMER_ID>
0001E13C00000001

> <PUBCHEM_MMFF94_ENERGY>
9.4083

> <PUBCHEM_FEATURE_SELFOVERLAP>
25.375

> <PUBCHEM_SHAPE_FINGERPRINT>
18185500 45 18052537956604525466
21040471 1 17978228249193815428
23552423 10 18343863307680356582
2748010 2 18411140250825146741
29004967 10 18127405644823156443

> <PUBCHEM_SHAPE_MULTIPOLES>
157.65
2.53
1.87
0.56
0.22
0.37
0
-0.16
0
-0.44
0
-0.02
0.01
-0.01

> <PUBCHEM_SHAPE_SELFOVERLAP>
329.386

> <PUBCHEM_SHAPE_VOLUME>
91.3

> <PUBCHEM_COORDINATE_TYPE>
2
5
10

$$$$

