13512
  -OEChem-06241222393D

 16 15  0     0  0  0  0  0  0999 V2000
   -0.4385    0.0000    0.0000 C   0  0  0  0  0  0  0  0  0  0  0  0
   -0.9485    1.4458    0.0808 C   0  0  0  0  0  0  0  0  0  0  0  0
   -0.9492   -0.7929    1.2113 C   0  0  0  0  0  0  0  0  0  0  0  0
   -0.9482   -0.6526   -1.2926 C   0  0  0  0  0  0  0  0  0  0  0  0
    1.0417   -0.0003    0.0004 C   0  0  0  0  0  0  0  0  0  0  0  0
    2.2427    0.0001    0.0001 C   0  0  0  0  0  0  0  0  0  0  0  0
   -2.0438    1.4806    0.0823 H   0  0  0  0  0  0  0  0  0  0  0  0
   -0.5968    1.9424    0.9932 H   0  0  0  0  0  0  0  0  0  0  0  0
   -0.5963    2.0413   -0.7699 H   0  0  0  0  0  0  0  0  0  0  0  0
   -2.0445   -0.8117    1.2400 H   0  0  0  0  0  0  0  0  0  0  0  0
   -0.5976   -1.8313    1.1855 H   0  0  0  0  0  0  0  0  0  0  0  0
   -0.5976   -0.3538    2.1526 H   0  0  0  0  0  0  0  0  0  0  0  0
   -2.0436   -0.6682   -1.3240 H   0  0  0  0  0  0  0  0  0  0  0  0
   -0.5966   -1.6874   -1.3827 H   0  0  0  0  0  0  0  0  0  0  0  0
   -0.5961   -0.1111   -2.1787 H   0  0  0  0  0  0  0  0  0  0  0  0
    3.3075    0.0004   -0.0001 H   0  0  0  0  0  0  0  0  0  0  0  0
  1  2  1  0  0  0  0
  1  3  1  0  0  0  0
  1  4  1  0  0  0  0
  1  5  1  0  0  0  0
  2  7  1  0  0  0  0
  2  8  1  0  0  0  0
  2  9  1  0  0  0  0
  3 10  1  0  0  0  0
  3 11  1  0  0  0  0
  3 12  1  0  0  0  0
  4 13  1  0  0  0  0
  4 14  1  0  0  0  0
  4 15  1  0  0  0  0
  5  6  3  0  0  0  0
  6 16  1  0  0  0  0
M  END
> <PUBCHEM_COMPOUND_CID>
13512

> <PUBCHEM_CONFORMER_RMSD>
0.4

> <PUBCHEM_CONFORMER_DIVERSEORDER>
1

> <PUBCHEM_MMFF94_PARTIAL_CHARGES>
4
1 0.2
16 0.18
5 -0.2
6 -0.18

> <PUBCHEM_EFFECTIVE_ROTOR_COUNT>
0

> <PUBCHEM_PHARMACOPHORE_FEATURES>
2
1 6 hydrophobe
4 1 2 3 4 hydrophobe

> <PUBCHEM_HEAVY_ATOM_COUNT>
6

> <PUBCHEM_ATOM_DEF_STEREO_COUNT>
0

> <PUBCHEM_ATOM_UDEF_STEREO_COUNT>
0

> <PUBCHEM_BOND_DEF_STEREO_COUNT>
0

> <PUBCHEM_BOND_UDEF_STEREO_COUNT>
0

> <PUBCHEM_ISOTOPIC_ATOM_COUNT>
0

> <PUBCHEM_COMPONENT_COUNT>
1

> <PUBCHEM_CACTVS_TAUTO_COUNT>
1

> <PUBCHEM_CONFORMER_ID>
000034C800000001

> <PUBCHEM_MMFF94_ENERGY>
8.1027

> <PUBCHEM_FEATURE_SELFOVERLAP>
10.149

> <PUBCHEM_SHAPE_FINGERPRINT>
137420 1 14811811829847458613
16714656 1 17968105230468259789
20096714 4 18122627420618286504
21040471 1 17914324929793147176
24536 1 18131072627944979660
29004967 10 18047203955094216855
5943 1 12169502895262428423

> <PUBCHEM_SHAPE_MULTIPOLES>
123.48
2.12
1.14
1.14
1.63
0.27
-0.26
0
0
-0.5
0.26
-0.5
-0.27
0

> <PUBCHEM_SHAPE_SELFOVERLAP>
223.455

> <PUBCHEM_SHAPE_VOLUME>
81.7

> <PUBCHEM_COORDINATE_TYPE>
2
5
10

$$$$

