443446
  -OEChem-07051213023D

 52 55  0     1  0  0  0  0  0999 V2000
   -3.2939    0.5679    2.2685 O   0  0  0  0  0  0  0  0  0  0  0  0
   -0.0824   -3.5609    0.1971 O   0  0  0  0  0  0  0  0  0  0  0  0
   -2.0999   -1.4291   -1.9160 O   0  0  0  0  0  0  0  0  0  0  0  0
   -3.4849    0.3807   -1.8673 O   0  0  0  0  0  0  0  0  0  0  0  0
    1.5037   -0.4556    0.0040 C   0  0  1  0  0  0  0  0  0  0  0  0
    1.1341    0.9959    0.4734 C   0  0  2  0  0  0  0  0  0  0  0  0
   -0.3384    1.1923    0.0202 C   0  0  1  0  0  0  0  0  0  0  0  0
   -0.9003   -0.1976    0.4404 C   0  0  2  0  0  0  0  0  0  0  0  0
    0.1429   -1.2110   -0.0871 C   0  0  2  0  0  0  0  0  0  0  0  0
    2.2678   -0.4696   -1.3309 C   0  0  0  0  0  0  0  0  0  0  0  0
   -2.4145   -0.3814    0.1718 C   0  0  2  0  0  0  0  0  0  0  0  0
    2.6054   -1.0265    0.9317 C   0  0  0  0  0  0  0  0  0  0  0  0
    3.5529    0.2578   -0.9522 C   0  0  1  0  0  0  0  0  0  0  0  0
    2.1525    2.1050    0.1572 C   0  0  0  0  0  0  0  0  0  0  0  0
   -1.0894    2.2751    0.8185 C   0  0  0  0  0  0  0  0  0  0  0  0
    3.2355    1.7553   -0.8712 C   0  0  0  0  0  0  0  0  0  0  0  0
    3.8488   -0.3531    0.3990 C   0  0  0  0  0  0  0  0  0  0  0  0
   -0.4382    1.5123   -1.4882 C   0  0  0  0  0  0  0  0  0  0  0  0
   -3.1985    0.7831    0.8562 C   0  0  2  0  0  0  0  0  0  0  0  0
   -2.6127    2.1875    0.6240 C   0  0  0  0  0  0  0  0  0  0  0  0
    0.1438   -2.4761    0.7168 C   0  0  0  0  0  0  0  0  0  0  0  0
   -2.9197   -1.7357    0.7067 C   0  0  0  0  0  0  0  0  0  0  0  0
   -2.7422   -0.4066   -1.3001 C   0  0  0  0  0  0  0  0  0  0  0  0
    5.0278   -0.3097    1.0277 C   0  0  0  0  0  0  0  0  0  0  0  0
    1.0936    0.9707    1.5753 H   0  0  0  0  0  0  0  0  0  0  0  0
   -0.8202   -0.2499    1.5411 H   0  0  0  0  0  0  0  0  0  0  0  0
   -0.0229   -1.4796   -1.1309 H   0  0  0  0  0  0  0  0  0  0  0  0
    1.7525    0.0207   -2.1588 H   0  0  0  0  0  0  0  0  0  0  0  0
    2.4783   -1.4998   -1.6501 H   0  0  0  0  0  0  0  0  0  0  0  0
    2.7155   -2.1099    0.8060 H   0  0  0  0  0  0  0  0  0  0  0  0
    2.4297   -0.8038    1.9887 H   0  0  0  0  0  0  0  0  0  0  0  0
    4.3458    0.0632   -1.6816 H   0  0  0  0  0  0  0  0  0  0  0  0
    2.6760    2.3371    1.0960 H   0  0  0  0  0  0  0  0  0  0  0  0
    1.6594    3.0435   -0.1186 H   0  0  0  0  0  0  0  0  0  0  0  0
   -0.7426    3.2751    0.5318 H   0  0  0  0  0  0  0  0  0  0  0  0
   -0.8725    2.1706    1.8895 H   0  0  0  0  0  0  0  0  0  0  0  0
    2.9053    2.1006   -1.8594 H   0  0  0  0  0  0  0  0  0  0  0  0
    4.1461    2.3221   -0.6408 H   0  0  0  0  0  0  0  0  0  0  0  0
   -1.4208    1.8845   -1.7831 H   0  0  0  0  0  0  0  0  0  0  0  0
    0.2653    2.3002   -1.7745 H   0  0  0  0  0  0  0  0  0  0  0  0
   -0.2381    0.6466   -2.1214 H   0  0  0  0  0  0  0  0  0  0  0  0
   -4.2360    0.7855    0.4977 H   0  0  0  0  0  0  0  0  0  0  0  0
   -3.0809    2.9018    1.3131 H   0  0  0  0  0  0  0  0  0  0  0  0
   -2.8746    2.5291   -0.3824 H   0  0  0  0  0  0  0  0  0  0  0  0
    0.3301   -2.3847    1.8002 H   0  0  0  0  0  0  0  0  0  0  0  0
   -2.5303   -2.5967    0.1561 H   0  0  0  0  0  0  0  0  0  0  0  0
   -2.6535   -1.8752    1.7604 H   0  0  0  0  0  0  0  0  0  0  0  0
   -4.0130   -1.7955    0.6345 H   0  0  0  0  0  0  0  0  0  0  0  0
    5.8801    0.1925    0.5830 H   0  0  0  0  0  0  0  0  0  0  0  0
    5.1610   -0.7752    1.9981 H   0  0  0  0  0  0  0  0  0  0  0  0
   -3.8603    1.2671    2.6369 H   0  0  0  0  0  0  0  0  0  0  0  0
   -2.2983   -1.4610   -2.8760 H   0  0  0  0  0  0  0  0  0  0  0  0
  1 19  1  0  0  0  0
  1 51  1  0  0  0  0
  2 21  2  0  0  0  0
  3 23  1  0  0  0  0
  3 52  1  0  0  0  0
  4 23  2  0  0  0  0
  5  6  1  0  0  0  0
  5  9  1  0  0  0  0
  5 10  1  0  0  0  0
  5 12  1  0  0  0  0
  6  7  1  0  0  0  0
  6 14  1  0  0  0  0
  6 25  1  0  0  0  0
  7  8  1  0  0  0  0
  7 15  1  0  0  0  0
  7 18  1  0  0  0  0
  8  9  1  0  0  0  0
  8 11  1  0  0  0  0
  8 26  1  0  0  0  0
  9 21  1  0  0  0  0
  9 27  1  0  0  0  0
 10 13  1  0  0  0  0
 10 28  1  0  0  0  0
 10 29  1  0  0  0  0
 11 19  1  0  0  0  0
 11 22  1  0  0  0  0
 11 23  1  0  0  0  0
 12 17  1  0  0  0  0
 12 30  1  0  0  0  0
 12 31  1  0  0  0  0
 13 16  1  0  0  0  0
 13 17  1  0  0  0  0
 13 32  1  0  0  0  0
 14 16  1  0  0  0  0
 14 33  1  0  0  0  0
 14 34  1  0  0  0  0
 15 20  1  0  0  0  0
 15 35  1  0  0  0  0
 15 36  1  0  0  0  0
 16 37  1  0  0  0  0
 16 38  1  0  0  0  0
 17 24  2  0  0  0  0
 18 39  1  0  0  0  0
 18 40  1  0  0  0  0
 18 41  1  0  0  0  0
 19 20  1  0  0  0  0
 19 42  1  0  0  0  0
 20 43  1  0  0  0  0
 20 44  1  0  0  0  0
 21 45  1  0  0  0  0
 22 46  1  0  0  0  0
 22 47  1  0  0  0  0
 22 48  1  0  0  0  0
 24 49  1  0  0  0  0
 24 50  1  0  0  0  0
M  END
> <PUBCHEM_COMPOUND_CID>
443446

> <PUBCHEM_CONFORMER_RMSD>
0.6

> <PUBCHEM_CONFORMER_DIVERSEORDER>
1
3
2

> <PUBCHEM_MMFF94_PARTIAL_CHARGES>
18
1 -0.68
11 0.06
12 0.14
13 0.14
17 -0.28
19 0.28
2 -0.57
21 0.45
23 0.66
24 -0.3
3 -0.65
4 -0.57
45 0.06
49 0.15
50 0.15
51 0.4
52 0.5
9 0.06

> <PUBCHEM_EFFECTIVE_ROTOR_COUNT>
3.8

> <PUBCHEM_PHARMACOPHORE_FEATURES>
9
1 1 acceptor
1 1 donor
1 2 acceptor
1 3 acceptor
1 4 acceptor
3 3 4 23 anion
5 5 6 7 8 9 rings
6 7 8 11 15 19 20 rings
8 5 6 10 12 13 14 16 17 rings

> <PUBCHEM_HEAVY_ATOM_COUNT>
24

> <PUBCHEM_ATOM_DEF_STEREO_COUNT>
8

> <PUBCHEM_ATOM_UDEF_STEREO_COUNT>
0

> <PUBCHEM_BOND_DEF_STEREO_COUNT>
0

> <PUBCHEM_BOND_UDEF_STEREO_COUNT>
0

> <PUBCHEM_ISOTOPIC_ATOM_COUNT>
0

> <PUBCHEM_COMPONENT_COUNT>
1

> <PUBCHEM_CACTVS_TAUTO_COUNT>
2

> <PUBCHEM_CONFORMER_ID>
0006C43600000001

> <PUBCHEM_MMFF94_ENERGY>
107.0247

> <PUBCHEM_FEATURE_SELFOVERLAP>
45.839

> <PUBCHEM_SHAPE_FINGERPRINT>
10062212 137 18335425677007971154
10863032 1 15698010655482352080
10948715 1 16009861913428061185
10967382 1 18267296719488564344
11132069 177 18261108612434652456
11578080 2 17986695712973608676
12035759 4 18189073004629465407
121448 382 18262535731098385486
12173636 292 18339630183676655893
12403814 3 18059571442441184629
12553582 1 18335692837001485748
12633257 1 18335692845549151304
13140716 1 18408599245320575705
13224815 77 18408884001588853496
13583140 156 16988848246115990072
14178342 30 18192993944561648472
14223421 5 18055907946853391523
14289901 80 16660365870220777400
14614273 12 18128261275175394109
15209289 33 18409161121510911162
15309172 13 18272085006717756770
15788980 27 17274826865530172920
16752209 62 18336557087278811120
16945 1 18338508772131781577
17349148 13 18339094721788112130
17980427 23 18187934958729871164
18186145 218 18342450435460139252
192875 21 18337403681394391372
19862831 5 18341624701927005676
200 152 18336562559061897772
20028762 73 18043240241958617711
20600515 1 18408879621291930424
20775438 99 15807828463985073071
20905425 154 17688860948297058366
2334 1 18337669694309436489
23402539 116 18334300889972327334
23419403 2 16175988911526655005
23557571 272 16660370268077410512
23559900 14 18336255800620368638
2748010 2 18269273473960191667
34934 24 18116155652280362657
352729 6 18339635647117948346
4340502 62 17559940195343143329
5104073 3 18410851028233902072
633830 44 18262506074412205108
90525 40 17967248736817091855

> <PUBCHEM_SHAPE_MULTIPOLES>
470.43
6.9
2.63
1.54
3.77
0.92
0.32
-0.49
-0.77
-0.57
-0.34
-0.95
-0.09
-0.76

> <PUBCHEM_SHAPE_SELFOVERLAP>
1025.235

> <PUBCHEM_SHAPE_VOLUME>
255.1

> <PUBCHEM_COORDINATE_TYPE>
2
5
10

$$$$

