4978
  -OEChem-06261200272D

 55 62  0     0  0  0  0  0  0999 V2000
    9.1629   -1.3983    0.0000 O   0  0  0  0  0  0  0  0  0  0  0  0
    2.9808    2.1710    0.0000 O   0  0  0  0  0  0  0  0  0  0  0  0
    8.2593    3.1814    0.0000 O   0  0  0  0  0  0  0  0  0  0  0  0
    7.3987    3.6783    0.0000 O   0  0  0  0  0  0  0  0  0  0  0  0
   10.0411    0.1227    0.0000 O   0  0  0  0  0  0  0  0  0  0  0  0
    3.8589    3.6920    0.0000 O   0  0  0  0  0  0  0  0  0  0  0  0
    8.3674   -2.9901    0.0000 O   0  0  0  0  0  0  0  0  0  0  0  0
    2.0000    0.6861    0.0000 O   0  0  0  0  0  0  0  0  0  0  0  0
    4.7488   -4.0040    0.0000 O   0  0  0  0  0  0  0  0  0  0  0  0
    6.5109    0.1469    0.0000 C   0  0  0  0  0  0  0  0  0  0  0  0
    5.6449    0.6469    0.0000 C   0  0  0  0  0  0  0  0  0  0  0  0
    6.5270   -0.8947    0.0000 C   0  0  0  0  0  0  0  0  0  0  0  0
    4.7349    0.1400    0.0000 C   0  0  0  0  0  0  0  0  0  0  0  0
    7.3770    0.6469    0.0000 C   0  0  0  0  0  0  0  0  0  0  0  0
    5.6449    1.6469    0.0000 C   0  0  0  0  0  0  0  0  0  0  0  0
    5.6290   -1.4224    0.0000 C   0  0  0  0  0  0  0  0  0  0  0  0
    4.7269   -0.9016    0.0000 C   0  0  0  0  0  0  0  0  0  0  0  0
    7.3770    1.6469    0.0000 C   0  0  0  0  0  0  0  0  0  0  0  0
    6.5109    2.1469    0.0000 C   0  0  0  0  0  0  0  0  0  0  0  0
    7.3929   -1.4224    0.0000 C   0  0  0  0  0  0  0  0  0  0  0  0
    3.8449    0.6260    0.0000 C   0  0  0  0  0  0  0  0  0  0  0  0
    8.2870    0.1400    0.0000 C   0  0  0  0  0  0  0  0  0  0  0  0
    4.7510    2.1815    0.0000 C   0  0  0  0  0  0  0  0  0  0  0  0
    8.2950   -0.9016    0.0000 C   0  0  0  0  0  0  0  0  0  0  0  0
    3.8449    1.6677    0.0000 C   0  0  0  0  0  0  0  0  0  0  0  0
    5.6206   -2.5074    0.0000 C   0  0  0  0  0  0  0  0  0  0  0  0
    3.7915   -1.4513    0.0000 C   0  0  0  0  0  0  0  0  0  0  0  0
    8.2709    2.1815    0.0000 C   0  0  0  0  0  0  0  0  0  0  0  0
    6.5270    3.1884    0.0000 C   0  0  0  0  0  0  0  0  0  0  0  0
    7.4956   -2.5001    0.0000 C   0  0  0  0  0  0  0  0  0  0  0  0
    2.8602    0.1761    0.0000 C   0  0  0  0  0  0  0  0  0  0  0  0
    9.1770    0.6260    0.0000 C   0  0  0  0  0  0  0  0  0  0  0  0
    4.7269    3.1953    0.0000 C   0  0  0  0  0  0  0  0  0  0  0  0
    6.5602   -3.0499    0.0000 C   0  0  0  0  0  0  0  0  0  0  0  0
    2.8518   -0.9088    0.0000 C   0  0  0  0  0  0  0  0  0  0  0  0
    9.1770    1.6677    0.0000 C   0  0  0  0  0  0  0  0  0  0  0  0
    5.6290    3.7161    0.0000 C   0  0  0  0  0  0  0  0  0  0  0  0
    4.7526   -3.0040    0.0000 C   0  0  0  0  0  0  0  0  0  0  0  0
    3.7953   -2.4513    0.0000 C   0  0  0  0  0  0  0  0  0  0  0  0
    6.5626   -3.6699    0.0000 H   0  0  0  0  0  0  0  0  0  0  0  0
    2.3137   -1.2167    0.0000 H   0  0  0  0  0  0  0  0  0  0  0  0
    9.7127    1.9797    0.0000 H   0  0  0  0  0  0  0  0  0  0  0  0
    5.6313    4.3361    0.0000 H   0  0  0  0  0  0  0  0  0  0  0  0
    4.5428   -2.4206    0.0000 H   0  0  0  0  0  0  0  0  0  0  0  0
    4.1417   -3.1093    0.0000 H   0  0  0  0  0  0  0  0  0  0  0  0
    3.1753   -2.4537    0.0000 H   0  0  0  0  0  0  0  0  0  0  0  0
    3.7977   -3.0713    0.0000 H   0  0  0  0  0  0  0  0  0  0  0  0
    4.4153   -2.4489    0.0000 H   0  0  0  0  0  0  0  0  0  0  0  0
    9.6987   -1.0862    0.0000 H   0  0  0  0  0  0  0  0  0  0  0  0
    2.9832    2.7910    0.0000 H   0  0  0  0  0  0  0  0  0  0  0  0
    8.7927    3.4976    0.0000 H   0  0  0  0  0  0  0  0  0  0  0  0
    7.4059    4.2983    0.0000 H   0  0  0  0  0  0  0  0  0  0  0  0
   10.5792    0.4306    0.0000 H   0  0  0  0  0  0  0  0  0  0  0  0
    3.8565    4.3120    0.0000 H   0  0  0  0  0  0  0  0  0  0  0  0
    4.2107   -4.3120    0.0000 H   0  0  0  0  0  0  0  0  0  0  0  0
  1 24  1  0  0  0  0
  1 49  1  0  0  0  0
  2 25  1  0  0  0  0
  2 50  1  0  0  0  0
  3 28  1  0  0  0  0
  3 51  1  0  0  0  0
  4 29  1  0  0  0  0
  4 52  1  0  0  0  0
  5 32  1  0  0  0  0
  5 53  1  0  0  0  0
  6 33  1  0  0  0  0
  6 54  1  0  0  0  0
  7 30  2  0  0  0  0
  8 31  2  0  0  0  0
  9 38  1  0  0  0  0
  9 55  1  0  0  0  0
 10 11  1  0  0  0  0
 10 12  2  0  0  0  0
 10 14  1  0  0  0  0
 11 13  2  0  0  0  0
 11 15  1  0  0  0  0
 12 16  1  0  0  0  0
 12 20  1  0  0  0  0
 13 17  1  0  0  0  0
 13 21  1  0  0  0  0
 14 18  2  0  0  0  0
 14 22  1  0  0  0  0
 15 19  2  0  0  0  0
 15 23  1  0  0  0  0
 16 17  2  0  0  0  0
 16 26  1  0  0  0  0
 17 27  1  0  0  0  0
 18 19  1  0  0  0  0
 18 28  1  0  0  0  0
 19 29  1  0  0  0  0
 20 24  2  0  0  0  0
 20 30  1  0  0  0  0
 21 25  2  0  0  0  0
 21 31  1  0  0  0  0
 22 24  1  0  0  0  0
 22 32  2  0  0  0  0
 23 25  1  0  0  0  0
 23 33  2  0  0  0  0
 26 34  2  0  0  0  0
 26 38  1  0  0  0  0
 27 35  2  0  0  0  0
 27 39  1  0  0  0  0
 28 36  2  0  0  0  0
 29 37  2  0  0  0  0
 30 34  1  0  0  0  0
 31 35  1  0  0  0  0
 32 36  1  0  0  0  0
 33 37  1  0  0  0  0
 34 40  1  0  0  0  0
 35 41  1  0  0  0  0
 36 42  1  0  0  0  0
 37 43  1  0  0  0  0
 38 44  1  0  0  0  0
 38 45  1  0  0  0  0
 39 46  1  0  0  0  0
 39 47  1  0  0  0  0
 39 48  1  0  0  0  0
M  END
> <PUBCHEM_COMPOUND_CID>
4978

> <PUBCHEM_COMPOUND_CANONICALIZED>
1

> <PUBCHEM_CACTVS_COMPLEXITY>
1190

> <PUBCHEM_CACTVS_HBOND_ACCEPTOR>
9

> <PUBCHEM_CACTVS_HBOND_DONOR>
7

> <PUBCHEM_CACTVS_ROTATABLE_BOND>
1

> <PUBCHEM_CACTVS_SUBSKEYS>
AAADceB4PAAAAAAAAAAAAAAAAAAAAAAAAAAwYMGDAAAAAADBVAAAGgAACAAADASgmAIyBsAAAgCIAqBSAAACAAAkIAAAiAEGCMgINzaCFRKAcUAl4BUImQfI7PTO4AADCAAYAADAAAYQADAAAAAAAAAAAA==

> <PUBCHEM_IUPAC_INCHI>
InChI=1S/C30H16O9/c1-7-2-9(32)19-23-15(7)16-8(6-31)3-10(33)20-24(16)28-26-18(12(35)5-14(37)22(26)30(20)39)17-11(34)4-13(36)21(29(19)38)25(17)27(23)28/h2-5,31,34-39H,6H2,1H3

> <PUBCHEM_IUPAC_INCHIKEY>
NODGUBIGZKATOM-UHFFFAOYSA-N

> <PUBCHEM_XLOGP3_AA>
4.5

> <PUBCHEM_EXACT_MASS>
520.079432

> <PUBCHEM_MOLECULAR_FORMULA>
C30H16O9

> <PUBCHEM_MOLECULAR_WEIGHT>
520.44264

> <PUBCHEM_OPENEYE_CAN_SMILES>
CC1=CC(=O)C2=C(C3=C(C=C(C4=C3C5=C6C7=C(C1=C25)C(=CC(=O)C7=C(C8=C(C=C(C4=C86)O)O)O)CO)O)O)O

> <PUBCHEM_OPENEYE_ISO_SMILES>
CC1=CC(=O)C2=C(C3=C(C=C(C4=C3C5=C6C7=C(C1=C25)C(=CC(=O)C7=C(C8=C(C=C(C4=C86)O)O)O)CO)O)O)O

> <PUBCHEM_CACTVS_TPSA>
176

> <PUBCHEM_MONOISOTOPIC_WEIGHT>
520.079432

> <PUBCHEM_TOTAL_CHARGE>
0

> <PUBCHEM_HEAVY_ATOM_COUNT>
39

> <PUBCHEM_ATOM_DEF_STEREO_COUNT>
0

> <PUBCHEM_ATOM_UDEF_STEREO_COUNT>
0

> <PUBCHEM_BOND_DEF_STEREO_COUNT>
0

> <PUBCHEM_BOND_UDEF_STEREO_COUNT>
0

> <PUBCHEM_ISOTOPIC_ATOM_COUNT>
0

> <PUBCHEM_COMPONENT_COUNT>
1

> <PUBCHEM_CACTVS_TAUTO_COUNT>
987

> <PUBCHEM_COORDINATE_TYPE>
1
5
255

> <PUBCHEM_BONDANNOTATIONS>
10  11  8
10  12  8
10  14  8
11  13  8
11  15  8
12  16  8
12  20  8
13  17  8
13  21  8
14  18  8
14  22  8
15  19  8
15  23  8
16  17  8
16  26  8
17  27  8
18  19  8
18  28  8
19  29  8
20  24  8
20  30  8
21  25  8
21  31  8
22  24  8
22  32  8
23  25  8
23  33  8
26  34  8
27  35  8
28  36  8
29  37  8
30  34  8
31  35  8
32  36  8
33  37  8

$$$$

