50986210
  -OEChem-07051213153D

 61 63  0     1  0  0  0  0  0999 V2000
    2.1061    2.9980   -0.0361 P   0  0  1  0  0  0  0  0  0  0  0  0
   -0.5058    3.6363   -1.2310 P   0  0  2  0  0  0  0  0  0  0  0  0
   -3.5321    0.6000   -0.6954 O   0  0  0  0  0  0  0  0  0  0  0  0
    2.4875    1.8273    1.0067 O   0  0  0  0  0  0  0  0  0  0  0  0
    1.0173   -0.1790    2.3815 O   0  0  0  0  0  0  0  0  0  0  0  0
    4.8664    0.4145    0.6559 O   0  0  0  0  0  0  0  0  0  0  0  0
    2.4599   -2.6613    2.6703 O   0  0  0  0  0  0  0  0  0  0  0  0
    4.9841   -1.5835   -1.2905 O   0  0  0  0  0  0  0  0  0  0  0  0
    3.4742   -3.6021    0.1421 O   0  0  0  0  0  0  0  0  0  0  0  0
   -5.2831    0.8902    1.7211 O   0  0  0  0  0  0  0  0  0  0  0  0
   -3.8676   -1.3730    2.2801 O   0  0  0  0  0  0  0  0  0  0  0  0
   -1.9130    2.8815   -0.9723 O   0  0  0  0  0  0  0  0  0  0  0  0
    0.5414    2.7601   -0.3659 O   0  0  0  0  0  0  0  0  0  0  0  0
    2.0962    4.3496    0.8531 O   0  0  0  0  0  0  0  0  0  0  0  0
    2.9880    3.0615   -1.2494 O   0  0  0  0  0  0  0  0  0  0  0  0
   -0.6333    5.0019   -0.3732 O   0  0  0  0  0  0  0  0  0  0  0  0
   -0.1230    3.8252   -2.6699 O   0  0  0  0  0  0  0  0  0  0  0  0
   -3.7740   -3.4739   -0.3061 O   0  0  0  0  0  0  0  0  0  0  0  0
   -2.5739   -1.5315   -0.6422 N   0  0  0  0  0  0  0  0  0  0  0  0
   -1.7640   -3.6973   -1.3366 N   0  0  0  0  0  0  0  0  0  0  0  0
    0.2964   -3.9193   -2.3915 N   0  0  0  0  0  0  0  0  0  0  0  0
    2.4620    0.4653    0.5812 C   0  0  0  0  0  0  0  0  0  0  0  0
    2.3054   -0.4316    1.8118 C   0  0  2  0  0  0  0  0  0  0  0  0
    3.7434    0.1459   -0.1898 C   0  0  2  0  0  0  0  0  0  0  0  0
    3.7581   -1.3252   -0.6082 C   0  0  2  0  0  0  0  0  0  0  0  0
    2.3978   -1.9170    1.4500 C   0  0  1  0  0  0  0  0  0  0  0  0
    3.6280   -2.2565    0.6018 C   0  0  0  0  0  0  0  0  0  0  0  0
   -3.8613    0.9677    1.6215 C   0  0  2  0  0  0  0  0  0  0  0  0
   -3.5198    1.6454    0.3015 C   0  0  1  0  0  0  0  0  0  0  0  0
   -3.2722   -0.4139    1.4305 C   0  0  2  0  0  0  0  0  0  0  0  0
   -3.5565   -0.6775   -0.0382 C   0  0  1  0  0  0  0  0  0  0  0  0
   -2.1404    2.2906    0.2951 C   0  0  0  0  0  0  0  0  0  0  0  0
   -1.4129   -0.9620   -1.1436 C   0  0  0  0  0  0  0  0  0  0  0  0
   -2.7546   -2.9351   -0.7410 C   0  0  0  0  0  0  0  0  0  0  0  0
   -0.4487   -1.6775   -1.7196 C   0  0  0  0  0  0  0  0  0  0  0  0
   -0.6758   -3.1437   -1.8036 C   0  0  0  0  0  0  0  0  0  0  0  0
    1.5933    0.3340   -0.0757 H   0  0  0  0  0  0  0  0  0  0  0  0
    3.0249   -0.1649    2.5938 H   0  0  0  0  0  0  0  0  0  0  0  0
    3.8651    0.7842   -1.0673 H   0  0  0  0  0  0  0  0  0  0  0  0
    1.4808   -2.2462    0.9468 H   0  0  0  0  0  0  0  0  0  0  0  0
    2.9496   -1.5260   -1.3214 H   0  0  0  0  0  0  0  0  0  0  0  0
    4.5428   -2.2579    1.2043 H   0  0  0  0  0  0  0  0  0  0  0  0
   -3.4878    1.4815    2.5118 H   0  0  0  0  0  0  0  0  0  0  0  0
   -4.2751    2.3787   -0.0028 H   0  0  0  0  0  0  0  0  0  0  0  0
   -2.1958   -0.3893    1.6382 H   0  0  0  0  0  0  0  0  0  0  0  0
   -4.5526   -1.1142   -0.1782 H   0  0  0  0  0  0  0  0  0  0  0  0
   -2.0944    3.0707    1.0621 H   0  0  0  0  0  0  0  0  0  0  0  0
   -1.3591    1.5576    0.5083 H   0  0  0  0  0  0  0  0  0  0  0  0
    0.3445   -0.3953    1.7134 H   0  0  0  0  0  0  0  0  0  0  0  0
    4.8289   -0.1524    1.4418 H   0  0  0  0  0  0  0  0  0  0  0  0
    3.2714   -2.4019    3.1393 H   0  0  0  0  0  0  0  0  0  0  0  0
    5.0193   -0.9958   -2.0644 H   0  0  0  0  0  0  0  0  0  0  0  0
    2.6848   -3.6390   -0.4248 H   0  0  0  0  0  0  0  0  0  0  0  0
   -5.6186    1.7993    1.8033 H   0  0  0  0  0  0  0  0  0  0  0  0
   -3.5028   -2.2418    2.0399 H   0  0  0  0  0  0  0  0  0  0  0  0
   -1.2813    0.1059   -1.0684 H   0  0  0  0  0  0  0  0  0  0  0  0
    0.4582   -1.2388   -2.1133 H   0  0  0  0  0  0  0  0  0  0  0  0
    2.0154    5.2151    0.3986 H   0  0  0  0  0  0  0  0  0  0  0  0
   -0.8274    4.9491    0.5866 H   0  0  0  0  0  0  0  0  0  0  0  0
    0.1840   -4.9243   -2.4698 H   0  0  0  0  0  0  0  0  0  0  0  0
    1.1536   -3.5198   -2.7591 H   0  0  0  0  0  0  0  0  0  0  0  0
  1  4  1  0  0  0  0
  1 13  1  0  0  0  0
  1 14  1  0  0  0  0
  1 15  2  0  0  0  0
  2 12  1  0  0  0  0
  2 13  1  0  0  0  0
  2 16  1  0  0  0  0
  2 17  2  0  0  0  0
  3 29  1  0  0  0  0
  3 31  1  0  0  0  0
  4 22  1  0  0  0  0
  5 23  1  0  0  0  0
  5 49  1  0  0  0  0
  6 24  1  0  0  0  0
  6 50  1  0  0  0  0
  7 26  1  0  0  0  0
  7 51  1  0  0  0  0
  8 25  1  0  0  0  0
  8 52  1  0  0  0  0
  9 27  1  0  0  0  0
  9 53  1  0  0  0  0
 10 28  1  0  0  0  0
 10 54  1  0  0  0  0
 11 30  1  0  0  0  0
 11 55  1  0  0  0  0
 12 32  1  0  0  0  0
 14 58  1  0  0  0  0
 16 59  1  0  0  0  0
 18 34  2  0  0  0  0
 19 31  1  0  0  0  0
 19 33  1  0  0  0  0
 19 34  1  0  0  0  0
 20 34  1  0  0  0  0
 20 36  2  0  0  0  0
 21 36  1  0  0  0  0
 21 60  1  0  0  0  0
 21 61  1  0  0  0  0
 22 23  1  0  0  0  0
 22 24  1  0  0  0  0
 22 37  1  0  0  0  0
 23 26  1  0  0  0  0
 23 38  1  0  0  0  0
 24 25  1  0  0  0  0
 24 39  1  0  0  0  0
 25 27  1  0  0  0  0
 25 41  1  0  0  0  0
 26 27  1  0  0  0  0
 26 40  1  0  0  0  0
 27 42  1  0  0  0  0
 28 29  1  0  0  0  0
 28 30  1  0  0  0  0
 28 43  1  0  0  0  0
 29 32  1  0  0  0  0
 29 44  1  0  0  0  0
 30 31  1  0  0  0  0
 30 45  1  0  0  0  0
 31 46  1  0  0  0  0
 32 47  1  0  0  0  0
 32 48  1  0  0  0  0
 33 35  2  0  0  0  0
 33 56  1  0  0  0  0
 35 36  1  0  0  0  0
 35 57  1  0  0  0  0
M  END
> <PUBCHEM_COMPOUND_CID>
50986210

> <PUBCHEM_CONFORMER_RMSD>
1.6

> <PUBCHEM_CONFORMER_DIVERSEORDER>
1
69
50
9
2
61
28
3
33
18
43
39
77
35
14
51
63
15
19
21
59
57
27
22
47
46
65
53
68
6
78
26
45
64
20
73
56
24
12
70
32
60
66
10
7
16
42
23
37
54
67
40
74
62
75
55
44
4
13
38
48
31
8
72
71
30
76
5
36
41
58
49
52
29
34
17
11
25

> <PUBCHEM_MMFF94_PARTIAL_CHARGES>
49
1 1.51
10 -0.68
11 -0.68
12 -0.55
13 -0.54
14 -0.77
15 -0.7
16 -0.77
17 -0.7
18 -0.57
19 -0.47
2 1.51
20 -0.66
21 -0.85
22 0.28
23 0.28
24 0.28
25 0.28
26 0.28
27 0.28
28 0.28
29 0.28
3 -0.56
30 0.28
31 0.58
32 0.28
33 -0.04
34 0.84
35 -0.14
36 0.49
4 -0.55
49 0.4
5 -0.68
50 0.4
51 0.4
52 0.4
53 0.4
54 0.4
55 0.4
56 0.15
57 0.15
58 0.5
59 0.5
6 -0.68
60 0.4
61 0.4
7 -0.68
8 -0.68
9 -0.68

> <PUBCHEM_EFFECTIVE_ROTOR_COUNT>
10.2

> <PUBCHEM_PHARMACOPHORE_FEATURES>
25
1 10 acceptor
1 10 donor
1 11 acceptor
1 11 donor
1 14 acceptor
1 15 acceptor
1 16 acceptor
1 17 acceptor
1 18 acceptor
1 20 donor
1 21 donor
1 3 acceptor
1 5 acceptor
1 5 donor
1 6 acceptor
1 6 donor
1 7 acceptor
1 7 donor
1 8 acceptor
1 8 donor
1 9 acceptor
1 9 donor
5 3 28 29 30 31 rings
6 19 20 33 34 35 36 rings
6 22 23 24 25 26 27 rings

> <PUBCHEM_HEAVY_ATOM_COUNT>
36

> <PUBCHEM_ATOM_DEF_STEREO_COUNT>
8

> <PUBCHEM_ATOM_UDEF_STEREO_COUNT>
0

> <PUBCHEM_BOND_DEF_STEREO_COUNT>
0

> <PUBCHEM_BOND_UDEF_STEREO_COUNT>
0

> <PUBCHEM_ISOTOPIC_ATOM_COUNT>
0

> <PUBCHEM_COMPONENT_COUNT>
1

> <PUBCHEM_CACTVS_TAUTO_COUNT>
3

> <PUBCHEM_CONFORMER_ID>
0309FCE200000001

> <PUBCHEM_MMFF94_ENERGY>
61.5373

> <PUBCHEM_FEATURE_SELFOVERLAP>
126.966

> <PUBCHEM_SHAPE_FINGERPRINT>
11014199 57 18120098273471122174
11513181 2 17676766457477282806
12156800 1 4814274669535225943
13402501 40 17759808439149170237
13583140 156 18131070416174355771
13751561 76 17191211450581453353
14279260 333 17700974612036734586
15403338 16 17703790383730880059
17921350 177 18268436921900467574
17977149 70 18262224642939282934
19319366 153 18131343112332715878
20531524 4 16968295397101218454
20764821 26 17327456333517514887
238 59 16980426897448520973
238918 7 17253459175314924362
340366 18 18334290989508597674
35225 105 17554913317662737447
508706 21 17903361742513477151
5283178 26 18042127724630740161
6287921 2 18119812400341905144
7097593 13 18266175028919093485

> <PUBCHEM_SHAPE_MULTIPOLES>
639.71
8.68
6.43
2.26
0.56
3.3
0.33
-2.84
3.19
0.32
-3.4
-0.26
-0.83
-0.88

> <PUBCHEM_SHAPE_SELFOVERLAP>
1309.921

> <PUBCHEM_SHAPE_VOLUME>
370.2

> <PUBCHEM_COORDINATE_TYPE>
2
5
10

$$$$

