11954068
  -OEChem-07051213062D

 70 74  0     1  0  0  0  0  0999 V2000
    6.3718   -0.8790    0.0000 S   0  0  0  0  0  0  0  0  0  0  0  0
    6.3987   -2.8599    0.0000 O   0  0  0  0  0  0  0  0  0  0  0  0
    9.8358   -0.8534    0.0000 O   0  0  0  0  0  0  0  0  0  0  0  0
    9.8284    0.1466    0.0000 O   0  0  0  0  0  0  0  0  0  0  0  0
   10.6611    4.6529    0.0000 O   0  0  0  0  0  0  0  0  0  0  0  0
   11.5383    3.1593    0.0000 O   0  0  0  0  0  0  0  0  0  0  0  0
   10.7278   -4.3469    0.0000 O   0  0  0  0  0  0  0  0  0  0  0  0
    8.9957   -4.3597    0.0000 O   0  0  0  0  0  0  0  0  0  0  0  0
    8.0965    0.1338    0.0000 N   0  0  0  0  0  0  0  0  0  0  0  0
    8.9810   -2.3597    0.0000 N   0  0  0  0  0  0  0  0  0  0  0  0
    8.9366    3.6401    0.0000 N   0  0  0  0  0  0  0  0  0  0  0  0
    5.5095   -1.3854    0.0000 C   0  0  3  0  0  0  0  0  0  0  0  0
    5.5230   -2.3770    0.0000 C   0  0  3  0  0  0  0  0  0  0  0  0
    3.7841   -1.3906    0.0000 C   0  0  0  0  0  0  0  0  0  0  0  0
    4.6501   -0.8906    0.0000 C   0  0  0  0  0  0  0  0  0  0  0  0
    3.8001   -2.4321    0.0000 C   0  0  0  0  0  0  0  0  0  0  0  0
    4.6772   -2.8949    0.0000 C   0  0  0  0  0  0  0  0  0  0  0  0
    2.9180   -0.8906    0.0000 C   0  0  0  0  0  0  0  0  0  0  0  0
    2.9021   -2.9599    0.0000 C   0  0  0  0  0  0  0  0  0  0  0  0
    4.6501    0.1094    0.0000 C   0  0  0  0  0  0  0  0  0  0  0  0
    2.9180    0.1094    0.0000 C   0  0  0  0  0  0  0  0  0  0  0  0
    3.7841    0.6094    0.0000 C   0  0  0  0  0  0  0  0  0  0  0  0
    4.7274   -3.9355    0.0000 C   0  0  0  0  0  0  0  0  0  0  0  0
    2.0080   -1.3975    0.0000 C   0  0  0  0  0  0  0  0  0  0  0  0
    2.0000   -2.4391    0.0000 C   0  0  0  0  0  0  0  0  0  0  0  0
    2.9282   -4.0014    0.0000 C   0  0  0  0  0  0  0  0  0  0  0  0
    7.2416   -1.3726    0.0000 C   0  0  0  0  0  0  0  0  0  0  0  0
    3.8470   -4.4925    0.0000 C   0  0  0  0  0  0  0  0  0  0  0  0
    8.1038   -0.8662    0.0000 C   0  0  1  0  0  0  0  0  0  0  0  0
    2.0080    0.6162    0.0000 C   0  0  0  0  0  0  0  0  0  0  0  0
    3.8001    1.6509    0.0000 C   0  0  0  0  0  0  0  0  0  0  0  0
    2.0000    1.6578    0.0000 C   0  0  0  0  0  0  0  0  0  0  0  0
    2.9021    2.1786    0.0000 C   0  0  0  0  0  0  0  0  0  0  0  0
    8.9736   -1.3598    0.0000 C   0  0  0  0  0  0  0  0  0  0  0  0
    8.9588    0.6402    0.0000 C   0  0  0  0  0  0  0  0  0  0  0  0
    8.9514    1.6402    0.0000 C   0  0  0  0  0  0  0  0  0  0  0  0
    9.8137    2.1465    0.0000 C   0  0  0  0  0  0  0  0  0  0  0  0
    9.8062    3.1465    0.0000 C   0  0  1  0  0  0  0  0  0  0  0  0
    9.8506   -2.8533    0.0000 C   0  0  0  0  0  0  0  0  0  0  0  0
   10.6686    3.6529    0.0000 C   0  0  0  0  0  0  0  0  0  0  0  0
    9.8581   -3.8533    0.0000 C   0  0  0  0  0  0  0  0  0  0  0  0
    6.0497   -1.6898    0.0000 H   0  0  0  0  0  0  0  0  0  0  0  0
    5.5371   -2.9969    0.0000 H   0  0  0  0  0  0  0  0  0  0  0  0
    5.1870    0.4194    0.0000 H   0  0  0  0  0  0  0  0  0  0  0  0
    5.2775   -4.2214    0.0000 H   0  0  0  0  0  0  0  0  0  0  0  0
    1.4747   -1.0813    0.0000 H   0  0  0  0  0  0  0  0  0  0  0  0
    1.4619   -2.7470    0.0000 H   0  0  0  0  0  0  0  0  0  0  0  0
    2.4004   -4.3268    0.0000 H   0  0  0  0  0  0  0  0  0  0  0  0
    6.8466   -1.8505    0.0000 H   0  0  0  0  0  0  0  0  0  0  0  0
    7.6436   -1.8446    0.0000 H   0  0  0  0  0  0  0  0  0  0  0  0
    3.8696   -5.1120    0.0000 H   0  0  0  0  0  0  0  0  0  0  0  0
    6.4109   -3.4798    0.0000 H   0  0  0  0  0  0  0  0  0  0  0  0
    7.5646   -0.5602    0.0000 H   0  0  0  0  0  0  0  0  0  0  0  0
    1.4747    0.3000    0.0000 H   0  0  0  0  0  0  0  0  0  0  0  0
    4.3406    1.9546    0.0000 H   0  0  0  0  0  0  0  0  0  0  0  0
    1.4619    1.9657    0.0000 H   0  0  0  0  0  0  0  0  0  0  0  0
    2.9045    2.7986    0.0000 H   0  0  0  0  0  0  0  0  0  0  0  0
    7.5572    0.4398    0.0000 H   0  0  0  0  0  0  0  0  0  0  0  0
    8.7350    2.2212    0.0000 H   0  0  0  0  0  0  0  0  0  0  0  0
    8.3416    1.5280    0.0000 H   0  0  0  0  0  0  0  0  0  0  0  0
   10.0300    1.5655    0.0000 H   0  0  0  0  0  0  0  0  0  0  0  0
   10.4234    2.2587    0.0000 H   0  0  0  0  0  0  0  0  0  0  0  0
    8.4463   -2.6737    0.0000 H   0  0  0  0  0  0  0  0  0  0  0  0
    9.8017    3.7665    0.0000 H   0  0  0  0  0  0  0  0  0  0  0  0
   10.4620   -2.9565    0.0000 H   0  0  0  0  0  0  0  0  0  0  0  0
   10.0584   -2.2692    0.0000 H   0  0  0  0  0  0  0  0  0  0  0  0
    8.9320    4.2601    0.0000 H   0  0  0  0  0  0  0  0  0  0  0  0
    8.4019    3.3261    0.0000 H   0  0  0  0  0  0  0  0  0  0  0  0
   11.1958    4.9668    0.0000 H   0  0  0  0  0  0  0  0  0  0  0  0
   10.7323   -4.9668    0.0000 H   0  0  0  0  0  0  0  0  0  0  0  0
  1 12  1  0  0  0  0
  1 27  1  0  0  0  0
  2 13  1  0  0  0  0
  2 52  1  0  0  0  0
  3 34  2  0  0  0  0
  4 35  2  0  0  0  0
  5 40  1  0  0  0  0
  5 69  1  0  0  0  0
  6 40  2  0  0  0  0
  7 41  1  0  0  0  0
  7 70  1  0  0  0  0
  8 41  2  0  0  0  0
 29  9  1  6  0  0  0
  9 35  1  0  0  0  0
  9 58  1  0  0  0  0
 10 34  1  0  0  0  0
 10 39  1  0  0  0  0
 10 63  1  0  0  0  0
 38 11  1  6  0  0  0
 11 67  1  0  0  0  0
 11 68  1  0  0  0  0
 12 13  1  0  0  0  0
 12 15  1  0  0  0  0
 12 42  1  0  0  0  0
 13 17  1  0  0  0  0
 13 43  1  0  0  0  0
 14 15  1  0  0  0  0
 14 16  1  0  0  0  0
 14 18  2  0  0  0  0
 15 20  2  0  0  0  0
 16 17  1  0  0  0  0
 16 19  2  0  0  0  0
 17 23  2  0  0  0  0
 18 21  1  0  0  0  0
 18 24  1  0  0  0  0
 19 25  1  0  0  0  0
 19 26  1  0  0  0  0
 20 22  1  0  0  0  0
 20 44  1  0  0  0  0
 21 22  1  0  0  0  0
 21 30  2  0  0  0  0
 22 31  2  0  0  0  0
 23 28  1  0  0  0  0
 23 45  1  0  0  0  0
 24 25  2  0  0  0  0
 24 46  1  0  0  0  0
 25 47  1  0  0  0  0
 26 28  2  0  0  0  0
 26 48  1  0  0  0  0
 27 29  1  0  0  0  0
 27 49  1  0  0  0  0
 27 50  1  0  0  0  0
 28 51  1  0  0  0  0
 29 34  1  0  0  0  0
 29 53  1  0  0  0  0
 30 32  1  0  0  0  0
 30 54  1  0  0  0  0
 31 33  1  0  0  0  0
 31 55  1  0  0  0  0
 32 33  2  0  0  0  0
 32 56  1  0  0  0  0
 33 57  1  0  0  0  0
 35 36  1  0  0  0  0
 36 37  1  0  0  0  0
 36 59  1  0  0  0  0
 36 60  1  0  0  0  0
 37 38  1  0  0  0  0
 37 61  1  0  0  0  0
 37 62  1  0  0  0  0
 38 40  1  0  0  0  0
 38 64  1  0  0  0  0
 39 41  1  0  0  0  0
 39 65  1  0  0  0  0
 39 66  1  0  0  0  0
M  END
> <PUBCHEM_COMPOUND_CID>
11954068

> <PUBCHEM_COMPOUND_CANONICALIZED>
1

> <PUBCHEM_CACTVS_COMPLEXITY>
997

> <PUBCHEM_CACTVS_HBOND_ACCEPTOR>
9

> <PUBCHEM_CACTVS_HBOND_DONOR>
6

> <PUBCHEM_CACTVS_ROTATABLE_BOND>
11

> <PUBCHEM_CACTVS_SUBSKEYS>
AAADceB7OABAAAAAAAAAAAAAAAAAAAAAAAAwYMGDAAAAAADBVAAAHgQQCAAADDzl2AawCMLAAgiIAiHSGAACAAAgABAIiIGICIgKdjKgkTCUcAAk1gG4mAec1/IOwAACAAAQAADgAAcAADhAAAAAAAAAAA==

> <PUBCHEM_IUPAC_OPENEYE_NAME>
(2S)-2-amino-5-[[(1R)-2-(carboxymethylamino)-1-[(4-hydroxy-4,5-dihydrobenzo[a]pyren-5-yl)sulfanylmethyl]-2-oxo-ethyl]amino]-5-oxo-pentanoic acid

> <PUBCHEM_IUPAC_CAS_NAME>
(2S)-2-amino-5-[[(2R)-1-(carboxymethylamino)-3-[(4-hydroxy-4,5-dihydrobenzo[a]pyren-5-yl)thio]-1-oxopropan-2-yl]amino]-5-oxopentanoic acid

> <PUBCHEM_IUPAC_NAME>
(2S)-2-amino-5-[[(2R)-1-(carboxymethylamino)-3-[(4-hydroxy-4,5-dihydrobenzo[a]pyren-5-yl)sulfanyl]-1-oxopropan-2-yl]amino]-5-oxopentanoic acid

> <PUBCHEM_IUPAC_SYSTEMATIC_NAME>
(2S)-2-azanyl-5-[[(2R)-1-(2-hydroxy-2-oxoethylamino)-3-[(4-oxidanyl-4,5-dihydrobenzo[a]pyren-5-yl)sulfanyl]-1-oxidanylidene-propan-2-yl]amino]-5-oxidanylidene-pentanoic acid

> <PUBCHEM_IUPAC_TRADITIONAL_NAME>
(2S)-2-amino-5-[[(1R)-2-(carboxymethylamino)-1-[[(4-hydroxy-4,5-dihydrobenzo[a]pyren-5-yl)thio]methyl]-2-keto-ethyl]amino]-5-keto-valeric acid

> <PUBCHEM_IUPAC_INCHI>
InChI=1S/C30H29N3O7S/c31-21(30(39)40)10-11-23(34)33-22(29(38)32-13-24(35)36)14-41-28-20-12-16-4-1-2-6-17(16)18-9-8-15-5-3-7-19(27(28)37)25(15)26(18)20/h1-9,12,21-22,27-28,37H,10-11,13-14,31H2,(H,32,38)(H,33,34)(H,35,36)(H,39,40)/t21-,22-,27?,28?/m0/s1

> <PUBCHEM_IUPAC_INCHIKEY>
PZXCOGFLSNREMF-SUZCJKPRSA-N

> <PUBCHEM_XLOGP3_AA>
0.1

> <PUBCHEM_EXACT_MASS>
575.172621

> <PUBCHEM_MOLECULAR_FORMULA>
C30H29N3O7S

> <PUBCHEM_MOLECULAR_WEIGHT>
575.63216

> <PUBCHEM_OPENEYE_CAN_SMILES>
C1=CC=C2C3=C4C(=CC2=C1)C(C(C5=CC=CC(=C54)C=C3)O)SCC(C(=O)NCC(=O)O)NC(=O)CCC(C(=O)O)N

> <PUBCHEM_OPENEYE_ISO_SMILES>
C1=CC=C2C3=C4C(=CC2=C1)C(C(C5=CC=CC(=C54)C=C3)O)SC[C@@H](C(=O)NCC(=O)O)NC(=O)CC[C@@H](C(=O)O)N

> <PUBCHEM_CACTVS_TPSA>
204

> <PUBCHEM_MONOISOTOPIC_WEIGHT>
575.172621

> <PUBCHEM_TOTAL_CHARGE>
0

> <PUBCHEM_HEAVY_ATOM_COUNT>
41

> <PUBCHEM_ATOM_DEF_STEREO_COUNT>
2

> <PUBCHEM_ATOM_UDEF_STEREO_COUNT>
2

> <PUBCHEM_BOND_DEF_STEREO_COUNT>
0

> <PUBCHEM_BOND_UDEF_STEREO_COUNT>
0

> <PUBCHEM_ISOTOPIC_ATOM_COUNT>
0

> <PUBCHEM_COMPONENT_COUNT>
1

> <PUBCHEM_CACTVS_TAUTO_COUNT>
4

> <PUBCHEM_COORDINATE_TYPE>
1
5
255

> <PUBCHEM_BONDANNOTATIONS>
12  1  3
38  11  6
14  15  8
14  16  8
14  18  8
15  20  8
16  17  8
16  19  8
17  23  8
18  21  8
18  24  8
19  25  8
19  26  8
13  2  3
20  22  8
21  22  8
21  30  8
22  31  8
23  28  8
24  25  8
26  28  8
30  32  8
31  33  8
32  33  8
29  9  6

$$$$

