441483
  -OEChem-07051212553D

 28 28  0     1  0  0  0  0  0999 V2000
   -0.8166   -0.4850   -0.7879 O   0  0  0  0  0  0  0  0  0  0  0  0
    0.7334    2.4270    0.8504 O   0  0  0  0  0  0  0  0  0  0  0  0
    2.9961    0.6810    0.4333 O   0  0  0  0  0  0  0  0  0  0  0  0
   -1.2243    0.5465    1.3099 O   0  0  0  0  0  0  0  0  0  0  0  0
    1.9606   -0.7912   -1.6555 O   0  0  0  0  0  0  0  0  0  0  0  0
   -2.9927    1.1823   -0.7390 O   0  0  0  0  0  0  0  0  0  0  0  0
   -1.7463   -2.6499    0.6730 O   0  0  0  0  0  0  0  0  0  0  0  0
    0.6823    1.2772    0.0090 C   0  0  1  0  0  0  0  0  0  0  0  0
    1.6525    0.2118    0.5214 C   0  0  1  0  0  0  0  0  0  0  0  0
   -0.7566    0.7297   -0.0283 C   0  0  1  0  0  0  0  0  0  0  0  0
    1.5246   -1.0601   -0.3170 C   0  0  1  0  0  0  0  0  0  0  0  0
    0.0747   -1.5425   -0.4069 C   0  0  1  0  0  0  0  0  0  0  0  0
   -1.6893    1.7302   -0.7182 C   0  0  0  0  0  0  0  0  0  0  0  0
   -0.3985   -2.2570    0.8560 C   0  0  0  0  0  0  0  0  0  0  0  0
    0.9930    1.5971   -0.9937 H   0  0  0  0  0  0  0  0  0  0  0  0
    1.4577    0.0062    1.5803 H   0  0  0  0  0  0  0  0  0  0  0  0
    2.1787   -1.8499    0.0690 H   0  0  0  0  0  0  0  0  0  0  0  0
   -0.0021   -2.2622   -1.2322 H   0  0  0  0  0  0  0  0  0  0  0  0
   -1.3807    1.9087   -1.7535 H   0  0  0  0  0  0  0  0  0  0  0  0
   -1.7319    2.6805   -0.1764 H   0  0  0  0  0  0  0  0  0  0  0  0
   -0.3370   -1.6413    1.7558 H   0  0  0  0  0  0  0  0  0  0  0  0
    0.1992   -3.1571    1.0327 H   0  0  0  0  0  0  0  0  0  0  0  0
    1.6584    2.7261    0.8776 H   0  0  0  0  0  0  0  0  0  0  0  0
    3.5751   -0.0231    0.7721 H   0  0  0  0  0  0  0  0  0  0  0  0
   -2.1948    0.6002    1.3018 H   0  0  0  0  0  0  0  0  0  0  0  0
    2.8737   -0.4611   -1.6013 H   0  0  0  0  0  0  0  0  0  0  0  0
   -3.5695    1.8281   -1.1814 H   0  0  0  0  0  0  0  0  0  0  0  0
   -2.2688   -1.8439    0.5208 H   0  0  0  0  0  0  0  0  0  0  0  0
  1 10  1  0  0  0  0
  1 12  1  0  0  0  0
  2  8  1  0  0  0  0
  2 23  1  0  0  0  0
  3  9  1  0  0  0  0
  3 24  1  0  0  0  0
  4 10  1  0  0  0  0
  4 25  1  0  0  0  0
  5 11  1  0  0  0  0
  5 26  1  0  0  0  0
  6 13  1  0  0  0  0
  6 27  1  0  0  0  0
  7 14  1  0  0  0  0
  7 28  1  0  0  0  0
  8  9  1  0  0  0  0
  8 10  1  0  0  0  0
  8 15  1  0  0  0  0
  9 11  1  0  0  0  0
  9 16  1  0  0  0  0
 10 13  1  0  0  0  0
 11 12  1  0  0  0  0
 11 17  1  0  0  0  0
 12 14  1  0  0  0  0
 12 18  1  0  0  0  0
 13 19  1  0  0  0  0
 13 20  1  0  0  0  0
 14 21  1  0  0  0  0
 14 22  1  0  0  0  0
M  END
> <PUBCHEM_COMPOUND_CID>
441483

> <PUBCHEM_CONFORMER_RMSD>
0.6

> <PUBCHEM_CONFORMER_DIVERSEORDER>
1
9
13
10
7
14
5
4
12
8
3
11
2
6

> <PUBCHEM_MMFF94_PARTIAL_CHARGES>
20
1 -0.56
10 0.56
11 0.28
12 0.28
13 0.28
14 0.28
2 -0.68
23 0.4
24 0.4
25 0.4
26 0.4
27 0.4
28 0.4
3 -0.68
4 -0.68
5 -0.68
6 -0.68
7 -0.68
8 0.28
9 0.28

> <PUBCHEM_EFFECTIVE_ROTOR_COUNT>
3.2

> <PUBCHEM_PHARMACOPHORE_FEATURES>
14
1 1 acceptor
1 2 acceptor
1 2 donor
1 3 acceptor
1 3 donor
1 4 acceptor
1 4 donor
1 5 acceptor
1 5 donor
1 6 acceptor
1 6 donor
1 7 acceptor
1 7 donor
6 1 8 9 10 11 12 rings

> <PUBCHEM_HEAVY_ATOM_COUNT>
14

> <PUBCHEM_ATOM_DEF_STEREO_COUNT>
5

> <PUBCHEM_ATOM_UDEF_STEREO_COUNT>
0

> <PUBCHEM_BOND_DEF_STEREO_COUNT>
0

> <PUBCHEM_BOND_UDEF_STEREO_COUNT>
0

> <PUBCHEM_ISOTOPIC_ATOM_COUNT>
0

> <PUBCHEM_COMPONENT_COUNT>
1

> <PUBCHEM_CACTVS_TAUTO_COUNT>
1

> <PUBCHEM_CONFORMER_ID>
0006BC8B00000001

> <PUBCHEM_MMFF94_ENERGY>
39.7185

> <PUBCHEM_FEATURE_SELFOVERLAP>
71.124

> <PUBCHEM_SHAPE_FINGERPRINT>
12138202 97 18272939314335845421
12423570 1 9076531657669889303
13380535 76 18336281079932611900
14817 1 7724485311644264299
161256 15 17832976149052178588
16945 1 18271796926033722565
18185500 45 16680626901455798190
20511035 2 18047211673435485760
21040471 1 18270678787307000158
23211744 25 17758658332933143974
23388829 49 17187861250581355763
23552423 10 17404297894142526397
23559900 14 18264477572825616102
241688 4 17825670229261440208
2748010 2 18260822679471701822
5084963 1 17607538121758700586

> <PUBCHEM_SHAPE_MULTIPOLES>
247.03
2.98
2.65
1.13
0.6
1.33
-0.12
-1.11
-0.7
0.34
0.87
-0.11
0.06
0.53

> <PUBCHEM_SHAPE_SELFOVERLAP>
497.822

> <PUBCHEM_SHAPE_VOLUME>
142.6

> <PUBCHEM_COORDINATE_TYPE>
2
5
10

$$$$

