56928122
  -OEChem-07051213152D

 81 84  0     1  0  0  0  0  0999 V2000
    2.5357   -3.7639    0.0000 O   0  0  0  0  0  0  0  0  0  0  0  0
    7.0628   -2.2115    0.0000 C   0  0  1  0  0  0  0  0  0  0  0  0
    6.1968   -1.7115    0.0000 C   0  0  3  0  0  0  0  0  0  0  0  0
    5.2868   -2.2184    0.0000 C   0  0  2  0  0  0  0  0  0  0  0  0
    7.9288   -1.7115    0.0000 C   0  0  2  0  0  0  0  0  0  0  0  0
    5.2787   -3.2600    0.0000 C   0  0  3  0  0  0  0  0  0  0  0  0
    7.9288   -0.7115    0.0000 C   0  0  3  0  0  0  0  0  0  0  0  0
    7.0789   -3.2530    0.0000 C   0  0  0  0  0  0  0  0  0  0  0  0
    6.1968   -0.7115    0.0000 C   0  0  0  0  0  0  0  0  0  0  0  0
    6.1808   -3.7808    0.0000 C   0  0  0  0  0  0  0  0  0  0  0  0
    4.3433   -3.8097    0.0000 C   0  0  0  0  0  0  0  0  0  0  0  0
    7.0628   -0.2115    0.0000 C   0  0  0  0  0  0  0  0  0  0  0  0
    4.3599   -1.6543    0.0000 C   0  0  0  0  0  0  0  0  0  0  0  0
    8.8750   -2.0163    0.0000 C   0  0  0  0  0  0  0  0  0  0  0  0
    7.7056   -2.9776    0.0000 C   0  0  0  0  0  0  0  0  0  0  0  0
    8.8750   -0.4068    0.0000 C   0  0  0  0  0  0  0  0  0  0  0  0
    5.2945   -1.2184    0.0000 C   0  0  0  0  0  0  0  0  0  0  0  0
    3.4037   -3.2672    0.0000 C   0  0  2  0  0  0  0  0  0  0  0  0
    8.2709   -2.6512    0.0000 C   0  0  0  0  0  0  0  0  0  0  0  0
    3.4120   -2.1822    0.0000 C   0  0  0  0  0  0  0  0  0  0  0  0
    9.4586   -1.2115    0.0000 C   0  0  0  0  0  0  0  0  0  0  0  0
    3.8467   -4.6777    0.0000 C   0  0  0  0  0  0  0  0  0  0  0  0
    4.8466   -4.6738    0.0000 C   0  0  0  0  0  0  0  0  0  0  0  0
    9.1857    0.5437    0.0000 C   0  0  0  0  0  0  0  0  0  0  0  0
    8.5179    1.2880    0.0000 C   0  0  0  0  0  0  0  0  0  0  0  0
   10.1642    0.7499    0.0000 C   0  0  0  0  0  0  0  0  0  0  0  0
    8.8285    2.2385    0.0000 C   0  0  0  0  0  0  0  0  0  0  0  0
    8.1607    2.9828    0.0000 C   0  0  0  0  0  0  0  0  0  0  0  0
    8.4713    3.9334    0.0000 C   0  0  0  0  0  0  0  0  0  0  0  0
    7.8035    4.6777    0.0000 C   0  0  0  0  0  0  0  0  0  0  0  0
    9.4498    4.1396    0.0000 C   0  0  0  0  0  0  0  0  0  0  0  0
    6.7337   -1.4015    0.0000 H   0  0  0  0  0  0  0  0  0  0  0  0
    5.2811   -3.8800    0.0000 H   0  0  0  0  0  0  0  0  0  0  0  0
    7.9944   -0.0950    0.0000 H   0  0  0  0  0  0  0  0  0  0  0  0
    7.2969   -3.8334    0.0000 H   0  0  0  0  0  0  0  0  0  0  0  0
    7.6880   -3.1376    0.0000 H   0  0  0  0  0  0  0  0  0  0  0  0
    5.9847   -0.1289    0.0000 H   0  0  0  0  0  0  0  0  0  0  0  0
    5.5862   -0.8192    0.0000 H   0  0  0  0  0  0  0  0  0  0  0  0
    5.7835   -4.2568    0.0000 H   0  0  0  0  0  0  0  0  0  0  0  0
    6.5818   -4.2537    0.0000 H   0  0  0  0  0  0  0  0  0  0  0  0
    7.4613    0.2634    0.0000 H   0  0  0  0  0  0  0  0  0  0  0  0
    6.6643    0.2634    0.0000 H   0  0  0  0  0  0  0  0  0  0  0  0
    4.7681   -1.1877    0.0000 H   0  0  0  0  0  0  0  0  0  0  0  0
    3.9700   -1.1723    0.0000 H   0  0  0  0  0  0  0  0  0  0  0  0
    8.6240   -2.5832    0.0000 H   0  0  0  0  0  0  0  0  0  0  0  0
    9.4124   -2.3255    0.0000 H   0  0  0  0  0  0  0  0  0  0  0  0
    7.2306   -3.3761    0.0000 H   0  0  0  0  0  0  0  0  0  0  0  0
    8.1041   -3.4525    0.0000 H   0  0  0  0  0  0  0  0  0  0  0  0
    8.1805   -2.5791    0.0000 H   0  0  0  0  0  0  0  0  0  0  0  0
    5.9145   -1.2232    0.0000 H   0  0  0  0  0  0  0  0  0  0  0  0
    5.2993   -0.5984    0.0000 H   0  0  0  0  0  0  0  0  0  0  0  0
    4.6745   -1.2136    0.0000 H   0  0  0  0  0  0  0  0  0  0  0  0
    2.8686   -2.9541    0.0000 H   0  0  0  0  0  0  0  0  0  0  0  0
    7.6884   -2.8633    0.0000 H   0  0  0  0  0  0  0  0  0  0  0  0
    8.4830   -3.2338    0.0000 H   0  0  0  0  0  0  0  0  0  0  0  0
    8.8535   -2.4391    0.0000 H   0  0  0  0  0  0  0  0  0  0  0  0
    3.2075   -1.5970    0.0000 H   0  0  0  0  0  0  0  0  0  0  0  0
    2.8004   -2.2836    0.0000 H   0  0  0  0  0  0  0  0  0  0  0  0
    9.9195   -1.6263    0.0000 H   0  0  0  0  0  0  0  0  0  0  0  0
    9.9195   -0.7968    0.0000 H   0  0  0  0  0  0  0  0  0  0  0  0
    4.3109   -4.9859    0.0000 H   0  0  0  0  0  0  0  0  0  0  0  0
    5.1587   -5.2095    0.0000 H   0  0  0  0  0  0  0  0  0  0  0  0
    5.3824   -4.3617    0.0000 H   0  0  0  0  0  0  0  0  0  0  0  0
    3.3085   -4.3697    0.0000 H   0  0  0  0  0  0  0  0  0  0  0  0
    3.5387   -5.2158    0.0000 H   0  0  0  0  0  0  0  0  0  0  0  0
    4.3848   -4.9856    0.0000 H   0  0  0  0  0  0  0  0  0  0  0  0
    2.0000   -3.4518    0.0000 H   0  0  0  0  0  0  0  0  0  0  0  0
    7.9709    1.5800    0.0000 H   0  0  0  0  0  0  0  0  0  0  0  0
    8.1353    0.8001    0.0000 H   0  0  0  0  0  0  0  0  0  0  0  0
   10.2921    0.1433    0.0000 H   0  0  0  0  0  0  0  0  0  0  0  0
   10.7709    0.8778    0.0000 H   0  0  0  0  0  0  0  0  0  0  0  0
   10.0364    1.3566    0.0000 H   0  0  0  0  0  0  0  0  0  0  0  0
    9.3754    1.9465    0.0000 H   0  0  0  0  0  0  0  0  0  0  0  0
    9.2111    2.7264    0.0000 H   0  0  0  0  0  0  0  0  0  0  0  0
    7.5540    2.8550    0.0000 H   0  0  0  0  0  0  0  0  0  0  0  0
    8.2650    5.0917    0.0000 H   0  0  0  0  0  0  0  0  0  0  0  0
    9.5777    3.5329    0.0000 H   0  0  0  0  0  0  0  0  0  0  0  0
    7.3894    5.1391    0.0000 H   0  0  0  0  0  0  0  0  0  0  0  0
    7.3420    4.2636    0.0000 H   0  0  0  0  0  0  0  0  0  0  0  0
   10.0565    4.2674    0.0000 H   0  0  0  0  0  0  0  0  0  0  0  0
    9.3220    4.7462    0.0000 H   0  0  0  0  0  0  0  0  0  0  0  0
 18  1  1  1  0  0  0
  1 67  1  0  0  0  0
  2  3  1  0  0  0  0
  2  5  1  0  0  0  0
  2  8  1  0  0  0  0
  2 15  1  6  0  0  0
  3  4  1  0  0  0  0
  3  9  1  0  0  0  0
  3 32  1  0  0  0  0
  4  6  1  0  0  0  0
  4 13  1  0  0  0  0
  4 17  1  1  0  0  0
  5  7  1  0  0  0  0
  5 14  1  0  0  0  0
  5 19  1  1  0  0  0
  6 10  1  0  0  0  0
  6 11  1  0  0  0  0
  6 33  1  0  0  0  0
  7 12  1  0  0  0  0
  7 16  1  0  0  0  0
  7 34  1  0  0  0  0
  8 10  1  0  0  0  0
  8 35  1  0  0  0  0
  8 36  1  0  0  0  0
  9 12  1  0  0  0  0
  9 37  1  0  0  0  0
  9 38  1  0  0  0  0
 10 39  1  0  0  0  0
 10 40  1  0  0  0  0
 11 18  1  0  0  0  0
 11 22  1  0  0  0  0
 11 23  1  0  0  0  0
 12 41  1  0  0  0  0
 12 42  1  0  0  0  0
 13 20  1  0  0  0  0
 13 43  1  0  0  0  0
 13 44  1  0  0  0  0
 14 21  1  0  0  0  0
 14 45  1  0  0  0  0
 14 46  1  0  0  0  0
 15 47  1  0  0  0  0
 15 48  1  0  0  0  0
 15 49  1  0  0  0  0
 16 21  1  0  0  0  0
 16 24  2  0  0  0  0
 17 50  1  0  0  0  0
 17 51  1  0  0  0  0
 17 52  1  0  0  0  0
 18 20  1  0  0  0  0
 18 53  1  0  0  0  0
 19 54  1  0  0  0  0
 19 55  1  0  0  0  0
 19 56  1  0  0  0  0
 20 57  1  0  0  0  0
 20 58  1  0  0  0  0
 21 59  1  0  0  0  0
 21 60  1  0  0  0  0
 22 64  1  0  0  0  0
 22 65  1  0  0  0  0
 22 66  1  0  0  0  0
 23 61  1  0  0  0  0
 23 62  1  0  0  0  0
 23 63  1  0  0  0  0
 24 25  1  0  0  0  0
 24 26  1  0  0  0  0
 25 27  1  0  0  0  0
 25 68  1  0  0  0  0
 25 69  1  0  0  0  0
 26 70  1  0  0  0  0
 26 71  1  0  0  0  0
 26 72  1  0  0  0  0
 27 28  1  0  0  0  0
 27 73  1  0  0  0  0
 27 74  1  0  0  0  0
 28 29  2  0  0  0  0
 28 75  1  0  0  0  0
 29 30  1  0  0  0  0
 29 31  1  0  0  0  0
 30 76  1  0  0  0  0
 30 78  1  0  0  0  0
 30 79  1  0  0  0  0
 31 77  1  0  0  0  0
 31 80  1  0  0  0  0
 31 81  1  0  0  0  0
M  END
> <PUBCHEM_COMPOUND_CID>
56928122

> <PUBCHEM_COMPOUND_CANONICALIZED>
1

> <PUBCHEM_CACTVS_COMPLEXITY>
767

> <PUBCHEM_CACTVS_HBOND_ACCEPTOR>
1

> <PUBCHEM_CACTVS_HBOND_DONOR>
1

> <PUBCHEM_CACTVS_ROTATABLE_BOND>
3

> <PUBCHEM_CACTVS_SUBSKEYS>
AAADcfB4IAAAAAAAAAAAAAAAAAAAAYAAAAAwYMAAAAAAAGDAAAAAGgAACAAADxSggAICAAAAAgCAAiBCAAAAAAAgAAAACAAAAAgAEAIAAQAAQAAEgAAIAAOAwPAPgAAAAAAAAADAAAYAADAAAAAACAAAAA==

> <PUBCHEM_IUPAC_OPENEYE_NAME>
(3S,8S,10R,14S,17Z)-17-(1,5-dimethylhex-4-enylidene)-4,4,8,10,14-pentamethyl-1,2,3,5,6,7,9,11,12,13,15,16-dodecahydrocyclopenta[a]phenanthren-3-ol

> <PUBCHEM_IUPAC_CAS_NAME>
(3S,8S,10R,14S,17Z)-4,4,8,10,14-pentamethyl-17-(6-methylhept-5-en-2-ylidene)-1,2,3,5,6,7,9,11,12,13,15,16-dodecahydrocyclopenta[a]phenanthren-3-ol

> <PUBCHEM_IUPAC_NAME>
(3S,8S,10R,14S,17Z)-4,4,8,10,14-pentamethyl-17-(6-methylhept-5-en-2-ylidene)-1,2,3,5,6,7,9,11,12,13,15,16-dodecahydrocyclopenta[a]phenanthren-3-ol

> <PUBCHEM_IUPAC_SYSTEMATIC_NAME>
(3S,8S,10R,14S,17Z)-4,4,8,10,14-pentamethyl-17-(6-methylhept-5-en-2-ylidene)-1,2,3,5,6,7,9,11,12,13,15,16-dodecahydrocyclopenta[a]phenanthren-3-ol

> <PUBCHEM_IUPAC_TRADITIONAL_NAME>
(3S,8S,10R,14S,17Z)-17-(1,5-dimethylhex-4-enylidene)-4,4,8,10,14-pentamethyl-1,2,3,5,6,7,9,11,12,13,15,16-dodecahydrocyclopenta[a]phenanthren-3-ol

> <PUBCHEM_IUPAC_INCHI>
InChI=1S/C30H50O/c1-20(2)10-9-11-21(3)22-14-18-29(7)23(22)12-13-25-28(6)17-16-26(31)27(4,5)24(28)15-19-30(25,29)8/h10,23-26,31H,9,11-19H2,1-8H3/b22-21-/t23?,24?,25?,26-,28-,29-,30-/m0/s1

> <PUBCHEM_IUPAC_INCHIKEY>
CKYVHRSYUPJCLG-BIUZNXKKSA-N

> <PUBCHEM_XLOGP3_AA>
9.3

> <PUBCHEM_EXACT_MASS>
426.386166

> <PUBCHEM_MOLECULAR_FORMULA>
C30H50O

> <PUBCHEM_MOLECULAR_WEIGHT>
426.7174

> <PUBCHEM_OPENEYE_CAN_SMILES>
CC(=CCCC(=C1CCC2(C1CCC3C2(CCC4C3(CCC(C4(C)C)O)C)C)C)C)C

> <PUBCHEM_OPENEYE_ISO_SMILES>
CC(=CCC/C(=C\1/CC[C@]2(C1CCC3[C@@]2(CCC4[C@@]3(CC[C@@H](C4(C)C)O)C)C)C)/C)C

> <PUBCHEM_CACTVS_TPSA>
20.2

> <PUBCHEM_MONOISOTOPIC_WEIGHT>
426.386166

> <PUBCHEM_TOTAL_CHARGE>
0

> <PUBCHEM_HEAVY_ATOM_COUNT>
31

> <PUBCHEM_ATOM_DEF_STEREO_COUNT>
4

> <PUBCHEM_ATOM_UDEF_STEREO_COUNT>
3

> <PUBCHEM_BOND_DEF_STEREO_COUNT>
1

> <PUBCHEM_BOND_UDEF_STEREO_COUNT>
0

> <PUBCHEM_ISOTOPIC_ATOM_COUNT>
0

> <PUBCHEM_COMPONENT_COUNT>
1

> <PUBCHEM_CACTVS_TAUTO_COUNT>
1

> <PUBCHEM_COORDINATE_TYPE>
1
5
255

> <PUBCHEM_BONDANNOTATIONS>
18  1  5
2  15  6
3  9  3
4  17  5
5  19  5
6  11  3
7  12  3

$$$$

