79515
  -OEChem-07051213052D

 29 30  0     0  0  0  0  0  0999 V2000
    4.5981   -0.2500    0.0000 S   0  0  0  0  0  0  0  0  0  0  0  0
    6.4103   -1.4453    0.0000 N   0  0  0  0  0  0  0  0  0  0  0  0
    3.7320   -1.7500    0.0000 N   0  0  0  0  0  0  0  0  0  0  0  0
    6.4103   -3.0547    0.0000 N   0  0  0  0  0  0  0  0  0  0  0  0
    4.5981   -3.2500    0.0000 N   0  0  0  0  0  0  0  0  0  0  0  0
    2.8660    1.7500    0.0000 C   0  0  0  0  0  0  0  0  0  0  0  0
    3.7320    1.2500    0.0000 C   0  0  0  0  0  0  0  0  0  0  0  0
    2.8660    2.7500    0.0000 C   0  0  0  0  0  0  0  0  0  0  0  0
    3.7320    0.2500    0.0000 C   0  0  0  0  0  0  0  0  0  0  0  0
    2.0000    3.2500    0.0000 C   0  0  0  0  0  0  0  0  0  0  0  0
    4.5981   -1.2500    0.0000 C   0  0  0  0  0  0  0  0  0  0  0  0
    5.4641   -1.7500    0.0000 C   0  0  0  0  0  0  0  0  0  0  0  0
    5.4641   -2.7500    0.0000 C   0  0  0  0  0  0  0  0  0  0  0  0
    6.9939   -2.2500    0.0000 C   0  0  0  0  0  0  0  0  0  0  0  0
    3.7320   -2.7500    0.0000 C   0  0  0  0  0  0  0  0  0  0  0  0
    2.2554    1.8577    0.0000 H   0  0  0  0  0  0  0  0  0  0  0  0
    2.6540    1.1674    0.0000 H   0  0  0  0  0  0  0  0  0  0  0  0
    4.3426    1.1423    0.0000 H   0  0  0  0  0  0  0  0  0  0  0  0
    3.9441    1.8326    0.0000 H   0  0  0  0  0  0  0  0  0  0  0  0
    3.4766    2.6423    0.0000 H   0  0  0  0  0  0  0  0  0  0  0  0
    3.0781    3.3326    0.0000 H   0  0  0  0  0  0  0  0  0  0  0  0
    3.1215    0.3577    0.0000 H   0  0  0  0  0  0  0  0  0  0  0  0
    3.5200   -0.3326    0.0000 H   0  0  0  0  0  0  0  0  0  0  0  0
    2.3100    3.7869    0.0000 H   0  0  0  0  0  0  0  0  0  0  0  0
    1.4631    3.5600    0.0000 H   0  0  0  0  0  0  0  0  0  0  0  0
    1.6900    2.7131    0.0000 H   0  0  0  0  0  0  0  0  0  0  0  0
    6.6029   -0.8559    0.0000 H   0  0  0  0  0  0  0  0  0  0  0  0
    7.6139   -2.2500    0.0000 H   0  0  0  0  0  0  0  0  0  0  0  0
    3.1951   -3.0600    0.0000 H   0  0  0  0  0  0  0  0  0  0  0  0
  1  9  1  0  0  0  0
  1 11  1  0  0  0  0
  2 12  1  0  0  0  0
  2 14  1  0  0  0  0
  2 27  1  0  0  0  0
  3 11  2  0  0  0  0
  3 15  1  0  0  0  0
  4 13  1  0  0  0  0
  4 14  2  0  0  0  0
  5 13  1  0  0  0  0
  5 15  2  0  0  0  0
  6  7  1  0  0  0  0
  6  8  1  0  0  0  0
  6 16  1  0  0  0  0
  6 17  1  0  0  0  0
  7  9  1  0  0  0  0
  7 18  1  0  0  0  0
  7 19  1  0  0  0  0
  8 10  1  0  0  0  0
  8 20  1  0  0  0  0
  8 21  1  0  0  0  0
  9 22  1  0  0  0  0
  9 23  1  0  0  0  0
 10 24  1  0  0  0  0
 10 25  1  0  0  0  0
 10 26  1  0  0  0  0
 11 12  1  0  0  0  0
 12 13  2  0  0  0  0
 14 28  1  0  0  0  0
 15 29  1  0  0  0  0
M  END
> <PUBCHEM_COMPOUND_CID>
79515

> <PUBCHEM_COMPOUND_CANONICALIZED>
1

> <PUBCHEM_CACTVS_COMPLEXITY>
190

> <PUBCHEM_CACTVS_HBOND_ACCEPTOR>
4

> <PUBCHEM_CACTVS_HBOND_DONOR>
1

> <PUBCHEM_CACTVS_ROTATABLE_BOND>
5

> <PUBCHEM_CACTVS_SUBSKEYS>
AAADccBzgABAAAAAAAAAAAAAAAAAAWAAAAAsAAAAAAAAAFgB+AAAHAQQAAAACAiFVwSH8b7JkAigAQZhZACA0C3RGLABUbQoVBCASAJgSEAUBAwIAAJgACAAAAAAAAAAAAAAAAAAAAAAAAAAAAAAAAAAAA==

> <PUBCHEM_IUPAC_OPENEYE_NAME>
6-pentylsulfanyl-7H-purine

> <PUBCHEM_IUPAC_CAS_NAME>
6-(pentylthio)-7H-purine

> <PUBCHEM_IUPAC_NAME>
6-pentylsulfanyl-7H-purine

> <PUBCHEM_IUPAC_SYSTEMATIC_NAME>
6-pentylsulfanyl-7H-purine

> <PUBCHEM_IUPAC_TRADITIONAL_NAME>
6-(amylthio)-7H-purine

> <PUBCHEM_IUPAC_INCHI>
InChI=1S/C10H14N4S/c1-2-3-4-5-15-10-8-9(12-6-11-8)13-7-14-10/h6-7H,2-5H2,1H3,(H,11,12,13,14)

> <PUBCHEM_IUPAC_INCHIKEY>
UDXMVJZRHSMPEJ-UHFFFAOYSA-N

> <PUBCHEM_XLOGP3>
2.5

> <PUBCHEM_EXACT_MASS>
222.093917

> <PUBCHEM_MOLECULAR_FORMULA>
C10H14N4S

> <PUBCHEM_MOLECULAR_WEIGHT>
222.30996

> <PUBCHEM_OPENEYE_CAN_SMILES>
CCCCCSC1=NC=NC2=C1NC=N2

> <PUBCHEM_OPENEYE_ISO_SMILES>
CCCCCSC1=NC=NC2=C1NC=N2

> <PUBCHEM_CACTVS_TPSA>
79.8

> <PUBCHEM_MONOISOTOPIC_WEIGHT>
222.093917

> <PUBCHEM_TOTAL_CHARGE>
0

> <PUBCHEM_HEAVY_ATOM_COUNT>
15

> <PUBCHEM_ATOM_DEF_STEREO_COUNT>
0

> <PUBCHEM_ATOM_UDEF_STEREO_COUNT>
0

> <PUBCHEM_BOND_DEF_STEREO_COUNT>
0

> <PUBCHEM_BOND_UDEF_STEREO_COUNT>
0

> <PUBCHEM_ISOTOPIC_ATOM_COUNT>
0

> <PUBCHEM_COMPONENT_COUNT>
1

> <PUBCHEM_CACTVS_TAUTO_COUNT>
4

> <PUBCHEM_COORDINATE_TYPE>
1
5
255

> <PUBCHEM_BONDANNOTATIONS>
11  12  8
12  13  8
2  12  8
2  14  8
3  11  8
3  15  8
4  13  8
4  14  8
5  13  8
5  15  8

$$$$

