47205205
  -OEChem-06241222583D

 32 34  0     0  0  0  0  0  0999 V2000
   -3.2444   -2.0969    0.5733 S   0  0  0  0  0  0  0  0  0  0  0  0
   -3.3258    2.0561   -0.6506 S   0  0  0  0  0  0  0  0  0  0  0  0
    1.2319   -1.1356    1.1938 O   0  0  0  0  0  0  0  0  0  0  0  0
    2.7640   -1.4919   -0.5137 N   0  0  0  0  0  0  0  0  0  0  0  0
   -1.6273   -0.4408   -0.5774 N   0  0  0  0  0  0  0  0  0  0  0  0
    4.8694    0.8475   -0.8440 N   0  0  0  0  0  0  0  0  0  0  0  0
    5.1105    2.1588   -0.6751 N   0  0  0  0  0  0  0  0  0  0  0  0
    0.4280   -1.7619   -1.0031 C   0  0  0  0  0  0  0  0  0  0  0  0
    3.9524   -1.2128    0.2581 C   0  0  0  0  0  0  0  0  0  0  0  0
   -0.9767   -1.6546   -0.4714 C   0  0  0  0  0  0  0  0  0  0  0  0
    1.4883   -1.4283    0.0287 C   0  0  0  0  0  0  0  0  0  0  0  0
    4.3028    0.2470    0.2418 C   0  0  0  0  0  0  0  0  0  0  0  0
   -2.8298   -0.5566   -0.0594 C   0  0  0  0  0  0  0  0  0  0  0  0
   -1.6924   -2.6720    0.1241 C   0  0  0  0  0  0  0  0  0  0  0  0
   -3.7483    0.5223   -0.0171 C   0  0  0  0  0  0  0  0  0  0  0  0
    4.1640    1.2341    1.1868 C   0  0  0  0  0  0  0  0  0  0  0  0
   -5.0254    0.5104    0.4995 C   0  0  0  0  0  0  0  0  0  0  0  0
    4.6775    2.3892    0.5672 C   0  0  0  0  0  0  0  0  0  0  0  0
   -5.6654    1.7771    0.3732 C   0  0  0  0  0  0  0  0  0  0  0  0
   -4.8532    2.7089   -0.2348 C   0  0  0  0  0  0  0  0  0  0  0  0
    0.6069   -2.7802   -1.3693 H   0  0  0  0  0  0  0  0  0  0  0  0
    0.5430   -1.0801   -1.8545 H   0  0  0  0  0  0  0  0  0  0  0  0
    4.7698   -1.8019   -0.1714 H   0  0  0  0  0  0  0  0  0  0  0  0
    3.7998   -1.5496    1.2896 H   0  0  0  0  0  0  0  0  0  0  0  0
    2.8775   -1.7260   -1.4958 H   0  0  0  0  0  0  0  0  0  0  0  0
   -1.3907   -3.6926    0.3125 H   0  0  0  0  0  0  0  0  0  0  0  0
    3.7503    1.1338    2.1795 H   0  0  0  0  0  0  0  0  0  0  0  0
    5.1171    0.4256   -1.7304 H   0  0  0  0  0  0  0  0  0  0  0  0
   -5.5086   -0.3460    0.9528 H   0  0  0  0  0  0  0  0  0  0  0  0
    4.7538    3.3892    0.9693 H   0  0  0  0  0  0  0  0  0  0  0  0
   -6.6704    1.9940    0.7111 H   0  0  0  0  0  0  0  0  0  0  0  0
   -5.0838    3.7417   -0.4547 H   0  0  0  0  0  0  0  0  0  0  0  0
  1 13  1  0  0  0  0
  1 14  1  0  0  0  0
  2 15  1  0  0  0  0
  2 20  1  0  0  0  0
  3 11  2  0  0  0  0
  4  9  1  0  0  0  0
  4 11  1  0  0  0  0
  4 25  1  0  0  0  0
  5 10  1  0  0  0  0
  5 13  2  0  0  0  0
  6  7  1  0  0  0  0
  6 12  1  0  0  0  0
  6 28  1  0  0  0  0
  7 18  2  0  0  0  0
  8 10  1  0  0  0  0
  8 11  1  0  0  0  0
  8 21  1  0  0  0  0
  8 22  1  0  0  0  0
  9 12  1  0  0  0  0
  9 23  1  0  0  0  0
  9 24  1  0  0  0  0
 10 14  2  0  0  0  0
 12 16  2  0  0  0  0
 13 15  1  0  0  0  0
 14 26  1  0  0  0  0
 15 17  2  0  0  0  0
 16 18  1  0  0  0  0
 16 27  1  0  0  0  0
 17 19  1  0  0  0  0
 17 29  1  0  0  0  0
 18 30  1  0  0  0  0
 19 20  2  0  0  0  0
 19 31  1  0  0  0  0
 20 32  1  0  0  0  0
M  END
> <PUBCHEM_COMPOUND_CID>
47205205

> <PUBCHEM_CONFORMER_RMSD>
1.2

> <PUBCHEM_CONFORMER_DIVERSEORDER>
1
11
15
22
39
45
21
38
48
32
41
42
3
34
27
4
5
29
9
2
44
24
40
8
16
20
33
10
26
18
31
23
47
46
17
28
6
30
25
36
37
12
43
19
14
49
35
7
13

> <PUBCHEM_MMFF94_PARTIAL_CHARGES>
28
1 -0.08
10 0.05
11 0.57
12 -0.33
13 0.38
14 -0.11
15 0.04
16 -0.15
17 -0.15
18 0.14
19 -0.15
2 -0.08
20 -0.11
25 0.37
26 0.15
27 0.15
28 0.27
29 0.15
3 -0.57
30 0.15
31 0.15
32 0.15
4 -0.73
5 -0.57
6 0.3
7 -0.71
8 0.24
9 0.48

> <PUBCHEM_EFFECTIVE_ROTOR_COUNT>
6

> <PUBCHEM_PHARMACOPHORE_FEATURES>
8
1 3 acceptor
1 4 donor
1 5 acceptor
1 6 donor
1 7 acceptor
5 1 5 10 13 14 rings
5 2 15 17 19 20 rings
5 6 7 12 16 18 rings

> <PUBCHEM_HEAVY_ATOM_COUNT>
20

> <PUBCHEM_ATOM_DEF_STEREO_COUNT>
0

> <PUBCHEM_ATOM_UDEF_STEREO_COUNT>
0

> <PUBCHEM_BOND_DEF_STEREO_COUNT>
0

> <PUBCHEM_BOND_UDEF_STEREO_COUNT>
0

> <PUBCHEM_ISOTOPIC_ATOM_COUNT>
0

> <PUBCHEM_COMPONENT_COUNT>
1

> <PUBCHEM_CACTVS_TAUTO_COUNT>
4

> <PUBCHEM_CONFORMER_ID>
02D04B5500000001

> <PUBCHEM_MMFF94_ENERGY>
16.432

> <PUBCHEM_FEATURE_SELFOVERLAP>
40.595

> <PUBCHEM_SHAPE_FINGERPRINT>
10378564 45 18040986372328177550
10498660 4 18114178614614940600
10670039 82 18270112414903149388
10693767 8 10302942304240446225
11405975 8 18343309180086198906
11595378 159 16988290870735012100
11796584 16 9366804961160527294
12107183 9 18198354038178070314
12390115 104 18335688434702049571
12403259 118 18337123271796534074
12596602 18 17132113528894149905
1420 369 10375869692745963832
14251764 38 18197776596582959524
14341114 328 17704076157737680016
14429114 114 17977665303921490148
14739800 52 18340784662438025778
14790565 3 18263922318788976625
14848178 5 9439407917113067392
14848178 96 18334579082966484448
16760501 71 18411412904524749729
17810953 82 18410853304281952484
17834072 32 18408604772795428231
17868525 174 18268439117130110834
17959699 21 18409449197867991802
20374829 77 9295283937645111063
20626108 58 8070037653459193950
20645477 56 18341045311203181239
21302155 148 18341886368652158437
21315763 87 13110956492367339004
21315764 119 6555415289056847401
21315764 268 18200035182497330429
21734292 116 18410577309483285137
22849339 104 14635453566967992797
23227448 37 18409731746750017741
23403322 49 9367343739090656719
23559900 14 18115870870411468686
245318 6 17916006976515490164
2838139 119 18334866034058126445
316301 35 9439401311674866948
3472631 163 18334860571376528575
4259306 186 9583226237175881483
5104073 3 18202286896427793346
633830 44 18411144640704281694
76465 3 9439406826170333630
7808743 9 18411422791095996307
90127 26 18412252926844605370
960060 61 5328745197241769184

> <PUBCHEM_SHAPE_MULTIPOLES>
393.5
13.88
3.33
0.96
4.77
0.52
0.05
12.1
1.16
-1.03
-0.09
0.42
0.03
0.56

> <PUBCHEM_SHAPE_SELFOVERLAP>
822.04

> <PUBCHEM_SHAPE_VOLUME>
225.6

> <PUBCHEM_COORDINATE_TYPE>
2
5
10

$$$$

