9325
  -OEChem-06261203363D

 59 62  0     1  0  0  0  0  0999 V2000
   -3.0748   -0.2755    1.2156 O   0  0  0  0  0  0  0  0  0  0  0  0
   -4.9699    0.7145   -1.2634 O   0  0  0  0  0  0  0  0  0  0  0  0
    6.6066   -0.4567    1.5017 O   0  0  0  0  0  0  0  0  0  0  0  0
   -5.2144   -1.0880    0.9006 O   0  0  0  0  0  0  0  0  0  0  0  0
   -1.5536    0.5390   -0.5281 C   0  0  1  0  0  0  0  0  0  0  0  0
   -0.7630   -0.7897   -0.5071 C   0  0  2  0  0  0  0  0  0  0  0  0
    0.7066   -0.6226   -0.9128 C   0  0  1  0  0  0  0  0  0  0  0  0
    1.3947    0.3735    0.0717 C   0  0  1  0  0  0  0  0  0  0  0  0
   -2.9664    0.0055   -0.1766 C   0  0  1  0  0  0  0  0  0  0  0  0
   -0.9020    1.4784    0.4999 C   0  0  0  0  0  0  0  0  0  0  0  0
    2.9269    0.5827   -0.2400 C   0  0  2  0  0  0  0  0  0  0  0  0
   -1.6415   -1.7386   -1.3176 C   0  0  0  0  0  0  0  0  0  0  0  0
    0.5936    1.6967    0.2081 C   0  0  0  0  0  0  0  0  0  0  0  0
   -3.0837   -1.3121   -0.9750 C   0  0  0  0  0  0  0  0  0  0  0  0
    1.4464   -1.9667   -0.9021 C   0  0  0  0  0  0  0  0  0  0  0  0
   -1.5701    1.2248   -1.9224 C   0  0  0  0  0  0  0  0  0  0  0  0
    3.6088   -0.7825   -0.3968 C   0  0  0  0  0  0  0  0  0  0  0  0
    2.9119   -1.7915   -1.2786 C   0  0  0  0  0  0  0  0  0  0  0  0
    3.5652    1.3628    0.9463 C   0  0  0  0  0  0  0  0  0  0  0  0
    3.1474    1.3847   -1.5426 C   0  0  0  0  0  0  0  0  0  0  0  0
   -4.0722    0.9769   -0.4643 C   0  0  0  0  0  0  0  0  0  0  0  0
    5.0848    1.3110    0.9630 C   0  0  0  0  0  0  0  0  0  0  0  0
    4.7783   -1.1086    0.1787 C   0  0  0  0  0  0  0  0  0  0  0  0
    5.5609   -0.1172    0.9516 C   0  0  0  0  0  0  0  0  0  0  0  0
   -4.0311    2.2872    0.2741 C   0  0  0  0  0  0  0  0  0  0  0  0
   -4.2595   -0.8237    1.6187 C   0  0  0  0  0  0  0  0  0  0  0  0
   -4.2299   -1.0642    3.0976 C   0  0  0  0  0  0  0  0  0  0  0  0
   -0.7598   -1.1805    0.5238 H   0  0  0  0  0  0  0  0  0  0  0  0
    0.7567   -0.2294   -1.9336 H   0  0  0  0  0  0  0  0  0  0  0  0
    1.3429   -0.1037    1.0643 H   0  0  0  0  0  0  0  0  0  0  0  0
   -0.9941    1.0689    1.5134 H   0  0  0  0  0  0  0  0  0  0  0  0
   -1.3876    2.4579    0.5144 H   0  0  0  0  0  0  0  0  0  0  0  0
   -1.4637   -2.7856   -1.0505 H   0  0  0  0  0  0  0  0  0  0  0  0
   -1.4569   -1.6367   -2.3930 H   0  0  0  0  0  0  0  0  0  0  0  0
    0.6967    2.2999   -0.6993 H   0  0  0  0  0  0  0  0  0  0  0  0
    1.0046    2.2994    1.0255 H   0  0  0  0  0  0  0  0  0  0  0  0
   -3.6376   -1.1980   -1.9135 H   0  0  0  0  0  0  0  0  0  0  0  0
   -3.5485   -2.1361   -0.4262 H   0  0  0  0  0  0  0  0  0  0  0  0
    0.9821   -2.6598   -1.6132 H   0  0  0  0  0  0  0  0  0  0  0  0
    1.3722   -2.4315    0.0896 H   0  0  0  0  0  0  0  0  0  0  0  0
   -2.0711    2.1969   -1.8835 H   0  0  0  0  0  0  0  0  0  0  0  0
   -0.5670    1.4155   -2.3122 H   0  0  0  0  0  0  0  0  0  0  0  0
   -2.0905    0.6260   -2.6768 H   0  0  0  0  0  0  0  0  0  0  0  0
    2.9855   -1.4621   -2.3224 H   0  0  0  0  0  0  0  0  0  0  0  0
    3.4050   -2.7703   -1.2308 H   0  0  0  0  0  0  0  0  0  0  0  0
    3.2018    0.9454    1.8959 H   0  0  0  0  0  0  0  0  0  0  0  0
    3.2546    2.4144    0.9310 H   0  0  0  0  0  0  0  0  0  0  0  0
    2.8229    2.4251   -1.4356 H   0  0  0  0  0  0  0  0  0  0  0  0
    4.2063    1.4093   -1.8257 H   0  0  0  0  0  0  0  0  0  0  0  0
    2.6036    0.9572   -2.3906 H   0  0  0  0  0  0  0  0  0  0  0  0
    5.4501    1.7919    1.8772 H   0  0  0  0  0  0  0  0  0  0  0  0
    5.5200    1.8343    0.1059 H   0  0  0  0  0  0  0  0  0  0  0  0
    5.2239   -2.0900    0.0548 H   0  0  0  0  0  0  0  0  0  0  0  0
   -3.6480    2.1700    1.2897 H   0  0  0  0  0  0  0  0  0  0  0  0
   -3.4384    3.0188   -0.2765 H   0  0  0  0  0  0  0  0  0  0  0  0
   -5.0537    2.6689    0.3598 H   0  0  0  0  0  0  0  0  0  0  0  0
   -4.0914   -0.1162    3.6235 H   0  0  0  0  0  0  0  0  0  0  0  0
   -3.4257   -1.7623    3.3429 H   0  0  0  0  0  0  0  0  0  0  0  0
   -5.1809   -1.5025    3.4130 H   0  0  0  0  0  0  0  0  0  0  0  0
  1  9  1  0  0  0  0
  1 26  1  0  0  0  0
  2 21  2  0  0  0  0
  3 24  2  0  0  0  0
  4 26  2  0  0  0  0
  5  6  1  0  0  0  0
  5  9  1  0  0  0  0
  5 10  1  0  0  0  0
  5 16  1  0  0  0  0
  6  7  1  0  0  0  0
  6 12  1  0  0  0  0
  6 28  1  0  0  0  0
  7  8  1  0  0  0  0
  7 15  1  0  0  0  0
  7 29  1  0  0  0  0
  8 11  1  0  0  0  0
  8 13  1  0  0  0  0
  8 30  1  0  0  0  0
  9 14  1  0  0  0  0
  9 21  1  0  0  0  0
 10 13  1  0  0  0  0
 10 31  1  0  0  0  0
 10 32  1  0  0  0  0
 11 17  1  0  0  0  0
 11 19  1  0  0  0  0
 11 20  1  0  0  0  0
 12 14  1  0  0  0  0
 12 33  1  0  0  0  0
 12 34  1  0  0  0  0
 13 35  1  0  0  0  0
 13 36  1  0  0  0  0
 14 37  1  0  0  0  0
 14 38  1  0  0  0  0
 15 18  1  0  0  0  0
 15 39  1  0  0  0  0
 15 40  1  0  0  0  0
 16 41  1  0  0  0  0
 16 42  1  0  0  0  0
 16 43  1  0  0  0  0
 17 18  1  0  0  0  0
 17 23  2  0  0  0  0
 18 44  1  0  0  0  0
 18 45  1  0  0  0  0
 19 22  1  0  0  0  0
 19 46  1  0  0  0  0
 19 47  1  0  0  0  0
 20 48  1  0  0  0  0
 20 49  1  0  0  0  0
 20 50  1  0  0  0  0
 21 25  1  0  0  0  0
 22 24  1  0  0  0  0
 22 51  1  0  0  0  0
 22 52  1  0  0  0  0
 23 24  1  0  0  0  0
 23 53  1  0  0  0  0
 25 54  1  0  0  0  0
 25 55  1  0  0  0  0
 25 56  1  0  0  0  0
 26 27  1  0  0  0  0
 27 57  1  0  0  0  0
 27 58  1  0  0  0  0
 27 59  1  0  0  0  0
M  END
> <PUBCHEM_COMPOUND_CID>
9325

> <PUBCHEM_CONFORMER_RMSD>
0.8

> <PUBCHEM_CONFORMER_DIVERSEORDER>
1
26
29
23
18
24
30
11
31
5
37
32
25
19
13
33
36
38
6
35
17
7
15
16
22
9
8
12
28
14
3
4
2
34
10
39
21
27
20

> <PUBCHEM_MMFF94_PARTIAL_CHARGES>
16
1 -0.43
11 0.14
17 -0.28
18 0.14
2 -0.57
21 0.45
22 0.06
23 -0.14
24 0.49
25 0.06
26 0.66
27 0.06
3 -0.57
4 -0.57
53 0.15
9 0.34

> <PUBCHEM_EFFECTIVE_ROTOR_COUNT>
4.8

> <PUBCHEM_PHARMACOPHORE_FEATURES>
7
1 2 acceptor
1 3 acceptor
1 4 acceptor
5 5 6 9 12 14 rings
6 11 17 19 22 23 24 rings
6 5 6 7 8 10 13 rings
6 7 8 11 15 17 18 rings

> <PUBCHEM_HEAVY_ATOM_COUNT>
27

> <PUBCHEM_ATOM_DEF_STEREO_COUNT>
3

> <PUBCHEM_ATOM_UDEF_STEREO_COUNT>
3

> <PUBCHEM_BOND_DEF_STEREO_COUNT>
0

> <PUBCHEM_BOND_UDEF_STEREO_COUNT>
0

> <PUBCHEM_ISOTOPIC_ATOM_COUNT>
0

> <PUBCHEM_COMPONENT_COUNT>
1

> <PUBCHEM_CACTVS_TAUTO_COUNT>
10

> <PUBCHEM_CONFORMER_ID>
0000246D00000001

> <PUBCHEM_MMFF94_ENERGY>
87.757

> <PUBCHEM_FEATURE_SELFOVERLAP>
35.618

> <PUBCHEM_SHAPE_FINGERPRINT>
10 15 18410017615826568392
10675989 125 16968301998640824549
11089746 13 15502383313944731594
11405975 8 17775279478163979213
11796584 16 17060061479701147194
12236239 1 18201444675332523300
12403259 118 18341890805374344277
12403814 3 18272658943387516733
12422481 6 18262243321688528390
12553582 1 18114730577768043276
12596602 18 17203610363754875016
12633257 1 18187925032463779534
13140716 1 17970067733990427280
13224815 77 18411973654905880230
13583140 156 17989218061144773415
13631057 29 16951710003447590319
13675066 3 18412260640362613204
14251751 18 17060053722932149490
14341114 176 18187085079349009130
14341114 328 17385721357797642352
14739800 52 15430042093120563554
14790565 3 18045506301358728416
15081414 286 17822001026374793088
15163728 17 5111190264492636971
15188451 53 17275103877973027651
15196674 1 18187936062272118278
15209294 21 16950554489308334643
15788980 27 18342744000748766868
17349148 13 18413108338574763300
1813 80 17988635285654079836
18222031 100 13830139364867989734
20775438 99 13538775212635543041
21033648 29 18335410314231836557
21033650 10 14418672733042477578
21623969 137 18408037399310756338
21756936 100 16008744702055610939
22182313 1 18264208183142480332
23402539 116 16845296054937385477
23557571 272 17988370380825078292
23559900 14 17916013741072948510
23569943 247 17170665851608530542
26918003 58 18060140954940616684
2838139 119 14562539444940029706
3286 77 16415480424511549204
34934 24 18041570216411328854
3633792 109 17531816878142651637
3680242 22 18113620110343288130
392239 28 17967822626331758496
460360 51 18042950150712131745
5104073 3 18263640830467915259
602551 16 17275096206860490306
7495541 125 17274814728031663870
9981440 41 18337953519345180793

> <PUBCHEM_SHAPE_MULTIPOLES>
532.17
12.52
2.04
1.86
6.34
0.08
-1.03
-0.81
-6.01
0.11
0.43
-1.91
0.11
0.93

> <PUBCHEM_SHAPE_SELFOVERLAP>
1144.74

> <PUBCHEM_SHAPE_VOLUME>
290.4

> <PUBCHEM_COORDINATE_TYPE>
2
5
10

$$$$

