14035695
  -OEChem-07051212452D

 30 30  0     1  0  0  0  0  0999 V2000
    3.1697    1.1123    0.0000 P   0  0  0  0  0  0  0  0  0  0  0  0
    8.0568    1.4213    0.0000 P   0  0  0  0  0  0  0  0  0  0  0  0
    5.1377    0.4129    0.0000 O   0  0  0  0  0  0  0  0  0  0  0  0
    3.3776    0.1342    0.0000 O   0  0  0  0  0  0  0  0  0  0  0  0
    6.2255   -1.9349    0.0000 O   0  0  0  0  0  0  0  0  0  0  0  0
    4.0499   -1.9349    0.0000 O   0  0  0  0  0  0  0  0  0  0  0  0
    7.1057    1.1123    0.0000 O   0  0  0  0  0  0  0  0  0  0  0  0
    2.9618    2.0905    0.0000 O   0  0  0  0  0  0  0  0  0  0  0  0
    2.1916    0.9044    0.0000 O   0  0  0  0  0  0  0  0  0  0  0  0
    4.1479    1.3202    0.0000 O   0  0  0  0  0  0  0  0  0  0  0  0
    9.0078    1.7304    0.0000 O   0  0  0  0  0  0  0  0  0  0  0  0
    7.7478    2.3724    0.0000 O   0  0  0  0  0  0  0  0  0  0  0  0
    8.3658    0.4703    0.0000 O   0  0  0  0  0  0  0  0  0  0  0  0
    5.6377   -1.1259    0.0000 C   0  0  2  0  0  0  0  0  0  0  0  0
    5.9467   -0.1748    0.0000 C   0  0  1  0  0  0  0  0  0  0  0  0
    4.6377   -1.1259    0.0000 C   0  0  2  0  0  0  0  0  0  0  0  0
    4.3287   -0.1748    0.0000 C   0  0  2  0  0  0  0  0  0  0  0  0
    6.8978    0.1342    0.0000 C   0  0  0  0  0  0  0  0  0  0  0  0
    6.2501   -1.0289    0.0000 H   0  0  0  0  0  0  0  0  0  0  0  0
    6.0437    0.4375    0.0000 H   0  0  0  0  0  0  0  0  0  0  0  0
    4.9192   -1.6783    0.0000 H   0  0  0  0  0  0  0  0  0  0  0  0
    3.8903   -0.6132    0.0000 H   0  0  0  0  0  0  0  0  0  0  0  0
    6.9841   -0.4798    0.0000 H   0  0  0  0  0  0  0  0  0  0  0  0
    7.5174    0.1125    0.0000 H   0  0  0  0  0  0  0  0  0  0  0  0
    6.8421   -1.8701    0.0000 H   0  0  0  0  0  0  0  0  0  0  0  0
    4.3021   -2.5013    0.0000 H   0  0  0  0  0  0  0  0  0  0  0  0
    2.3722    2.2821    0.0000 H   0  0  0  0  0  0  0  0  0  0  0  0
    2.0000    0.3148    0.0000 H   0  0  0  0  0  0  0  0  0  0  0  0
    9.1367    2.3368    0.0000 H   0  0  0  0  0  0  0  0  0  0  0  0
    7.1413    2.5013    0.0000 H   0  0  0  0  0  0  0  0  0  0  0  0
  1  4  1  0  0  0  0
  1  8  1  0  0  0  0
  1  9  1  0  0  0  0
  1 10  2  0  0  0  0
  2  7  1  0  0  0  0
  2 11  1  0  0  0  0
  2 12  1  0  0  0  0
  2 13  2  0  0  0  0
  3 15  1  0  0  0  0
  3 17  1  0  0  0  0
 17  4  1  1  0  0  0
 14  5  1  1  0  0  0
  5 25  1  0  0  0  0
 16  6  1  1  0  0  0
  6 26  1  0  0  0  0
  7 18  1  0  0  0  0
  8 27  1  0  0  0  0
  9 28  1  0  0  0  0
 11 29  1  0  0  0  0
 12 30  1  0  0  0  0
 14 15  1  0  0  0  0
 14 16  1  0  0  0  0
 14 19  1  0  0  0  0
 15 18  1  6  0  0  0
 15 20  1  0  0  0  0
 16 17  1  0  0  0  0
 16 21  1  0  0  0  0
 17 22  1  0  0  0  0
 18 23  1  0  0  0  0
 18 24  1  0  0  0  0
M  END
> <PUBCHEM_COMPOUND_CID>
14035695

> <PUBCHEM_COMPOUND_CANONICALIZED>
1

> <PUBCHEM_CACTVS_COMPLEXITY>
372

> <PUBCHEM_CACTVS_HBOND_ACCEPTOR>
11

> <PUBCHEM_CACTVS_HBOND_DONOR>
6

> <PUBCHEM_CACTVS_ROTATABLE_BOND>
5

> <PUBCHEM_CACTVS_SUBSKEYS>
AAADccBgPAMAAAAAAAAAAAAAAAAAASAAAAAAAAAAAAAAAAAAAAAAGgAACCAACBSwgAMACAAABxAAQAAAAIAAAAAAAAAAAAAAAAAREAIAAAACQAAFAAAHAADAIAAAAAAAAAAAAAAAAAAAAAAAAAAAAAAAAA==

> <PUBCHEM_IUPAC_OPENEYE_NAME>
[(2R,3R,4S,5R)-3,4-dihydroxy-5-(phosphonooxymethyl)tetrahydrofuran-2-yl] dihydrogen phosphate

> <PUBCHEM_IUPAC_CAS_NAME>
[(2R,3R,4S,5R)-3,4-dihydroxy-5-(phosphonooxymethyl)-2-oxolanyl] dihydrogen phosphate

> <PUBCHEM_IUPAC_NAME>
[(2R,3R,4S,5R)-3,4-dihydroxy-5-(phosphonooxymethyl)oxolan-2-yl] dihydrogen phosphate

> <PUBCHEM_IUPAC_SYSTEMATIC_NAME>
[(2R,3R,4S,5R)-3,4-bis(oxidanyl)-5-(phosphonooxymethyl)oxolan-2-yl] dihydrogen phosphate

> <PUBCHEM_IUPAC_TRADITIONAL_NAME>
[(2R,3R,4S,5R)-3,4-dihydroxy-5-(phosphonooxymethyl)tetrahydrofuran-2-yl] dihydrogen phosphate

> <PUBCHEM_IUPAC_INCHI>
InChI=1S/C5H12O11P2/c6-3-2(1-14-17(8,9)10)15-5(4(3)7)16-18(11,12)13/h2-7H,1H2,(H2,8,9,10)(H2,11,12,13)/t2-,3-,4-,5-/m1/s1

> <PUBCHEM_IUPAC_INCHIKEY>
AAAFZMYJJHWUPN-TXICZTDVSA-N

> <PUBCHEM_XLOGP3_AA>
-4.7

> <PUBCHEM_EXACT_MASS>
309.985484

> <PUBCHEM_MOLECULAR_FORMULA>
C5H12O11P2

> <PUBCHEM_MOLECULAR_WEIGHT>
310.089704

> <PUBCHEM_OPENEYE_CAN_SMILES>
C(C1C(C(C(O1)OP(=O)(O)O)O)O)OP(=O)(O)O

> <PUBCHEM_OPENEYE_ISO_SMILES>
C([C@@H]1[C@H]([C@H]([C@H](O1)OP(=O)(O)O)O)O)OP(=O)(O)O

> <PUBCHEM_CACTVS_TPSA>
183

> <PUBCHEM_MONOISOTOPIC_WEIGHT>
309.985484

> <PUBCHEM_TOTAL_CHARGE>
0

> <PUBCHEM_HEAVY_ATOM_COUNT>
18

> <PUBCHEM_ATOM_DEF_STEREO_COUNT>
4

> <PUBCHEM_ATOM_UDEF_STEREO_COUNT>
0

> <PUBCHEM_BOND_DEF_STEREO_COUNT>
0

> <PUBCHEM_BOND_UDEF_STEREO_COUNT>
0

> <PUBCHEM_ISOTOPIC_ATOM_COUNT>
0

> <PUBCHEM_COMPONENT_COUNT>
1

> <PUBCHEM_CACTVS_TAUTO_COUNT>
1

> <PUBCHEM_COORDINATE_TYPE>
1
5
255

> <PUBCHEM_BONDANNOTATIONS>
15  18  6
17  4  5
14  5  5
16  6  5

$$$$

