62758
  -OEChem-07051213142D

 30 32  0     0  0  0  0  0  0999 V2000
    3.8000    0.2327    0.0000 C   0  0  0  0  0  0  0  0  0  0  0  0
    3.8000   -0.7673    0.0000 C   0  0  0  0  0  0  0  0  0  0  0  0
    4.6660    0.7327    0.0000 C   0  0  0  0  0  0  0  0  0  0  0  0
    2.9061    0.7673    0.0000 C   0  0  0  0  0  0  0  0  0  0  0  0
    5.5321    0.2327    0.0000 C   0  0  0  0  0  0  0  0  0  0  0  0
    2.9061   -1.3020    0.0000 C   0  0  0  0  0  0  0  0  0  0  0  0
    4.6660   -1.2673    0.0000 C   0  0  0  0  0  0  0  0  0  0  0  0
    5.5321   -0.7673    0.0000 C   0  0  0  0  0  0  0  0  0  0  0  0
    2.0000    0.2535    0.0000 C   0  0  0  0  0  0  0  0  0  0  0  0
    2.0000   -0.7881    0.0000 C   0  0  0  0  0  0  0  0  0  0  0  0
    4.6500    1.7742    0.0000 C   0  0  0  0  0  0  0  0  0  0  0  0
    2.9176    1.7673    0.0000 C   0  0  0  0  0  0  0  0  0  0  0  0
    6.4421    0.7395    0.0000 C   0  0  0  0  0  0  0  0  0  0  0  0
    2.9176   -2.3019    0.0000 C   0  0  0  0  0  0  0  0  0  0  0  0
    5.5480    2.3019    0.0000 C   0  0  0  0  0  0  0  0  0  0  0  0
    6.4501    1.7811    0.0000 C   0  0  0  0  0  0  0  0  0  0  0  0
    4.6660   -1.8873    0.0000 H   0  0  0  0  0  0  0  0  0  0  0  0
    6.0690   -1.0773    0.0000 H   0  0  0  0  0  0  0  0  0  0  0  0
    1.4643    0.5655    0.0000 H   0  0  0  0  0  0  0  0  0  0  0  0
    1.4643   -1.1002    0.0000 H   0  0  0  0  0  0  0  0  0  0  0  0
    4.1095    2.0779    0.0000 H   0  0  0  0  0  0  0  0  0  0  0  0
    3.5376    1.7601    0.0000 H   0  0  0  0  0  0  0  0  0  0  0  0
    2.9248    2.3872    0.0000 H   0  0  0  0  0  0  0  0  0  0  0  0
    2.2977    1.7744    0.0000 H   0  0  0  0  0  0  0  0  0  0  0  0
    6.9754    0.4233    0.0000 H   0  0  0  0  0  0  0  0  0  0  0  0
    2.2977   -2.3091    0.0000 H   0  0  0  0  0  0  0  0  0  0  0  0
    2.9248   -2.9219    0.0000 H   0  0  0  0  0  0  0  0  0  0  0  0
    3.5376   -2.2948    0.0000 H   0  0  0  0  0  0  0  0  0  0  0  0
    5.5456    2.9219    0.0000 H   0  0  0  0  0  0  0  0  0  0  0  0
    6.9882    2.0890    0.0000 H   0  0  0  0  0  0  0  0  0  0  0  0
  1  2  1  0  0  0  0
  1  3  1  0  0  0  0
  1  4  2  0  0  0  0
  2  6  2  0  0  0  0
  2  7  1  0  0  0  0
  3  5  1  0  0  0  0
  3 11  2  0  0  0  0
  4  9  1  0  0  0  0
  4 12  1  0  0  0  0
  5  8  1  0  0  0  0
  5 13  2  0  0  0  0
  6 10  1  0  0  0  0
  6 14  1  0  0  0  0
  7  8  2  0  0  0  0
  7 17  1  0  0  0  0
  8 18  1  0  0  0  0
  9 10  2  0  0  0  0
  9 19  1  0  0  0  0
 10 20  1  0  0  0  0
 11 15  1  0  0  0  0
 11 21  1  0  0  0  0
 12 22  1  0  0  0  0
 12 23  1  0  0  0  0
 12 24  1  0  0  0  0
 13 16  1  0  0  0  0
 13 25  1  0  0  0  0
 14 26  1  0  0  0  0
 14 27  1  0  0  0  0
 14 28  1  0  0  0  0
 15 16  2  0  0  0  0
 15 29  1  0  0  0  0
 16 30  1  0  0  0  0
M  END
> <PUBCHEM_COMPOUND_CID>
62758

> <PUBCHEM_COMPOUND_CANONICALIZED>
1

> <PUBCHEM_CACTVS_COMPLEXITY>
244

> <PUBCHEM_CACTVS_HBOND_ACCEPTOR>
0

> <PUBCHEM_CACTVS_HBOND_DONOR>
0

> <PUBCHEM_CACTVS_ROTATABLE_BOND>
0

> <PUBCHEM_CACTVS_SUBSKEYS>
AAADccB4AAAAAAAAAAAAAAAAAAAAAAAAAAAwYMAAAAAAAADBVAAAGAAAAAAADACAGAAyAMAAAACAAiBCAAACAAAgAAAIiAAAAIgIICKAERCAIAAggAAIiAcAgMAOwAACAAAQAACAAAQAACAAAAAAAAAAAA==

> <PUBCHEM_IUPAC_OPENEYE_NAME>
1,4-dimethylphenanthrene

> <PUBCHEM_IUPAC_CAS_NAME>
1,4-dimethylphenanthrene

> <PUBCHEM_IUPAC_NAME>
1,4-dimethylphenanthrene

> <PUBCHEM_IUPAC_SYSTEMATIC_NAME>
1,4-dimethylphenanthrene

> <PUBCHEM_IUPAC_TRADITIONAL_NAME>
1,4-dimethylphenanthrene

> <PUBCHEM_IUPAC_INCHI>
InChI=1S/C16H14/c1-11-7-8-12(2)16-14(11)10-9-13-5-3-4-6-15(13)16/h3-10H,1-2H3

> <PUBCHEM_IUPAC_INCHIKEY>
DWMAJXVIIUYYOH-UHFFFAOYSA-N

> <PUBCHEM_XLOGP3>
5.6

> <PUBCHEM_EXACT_MASS>
206.10955

> <PUBCHEM_MOLECULAR_FORMULA>
C16H14

> <PUBCHEM_MOLECULAR_WEIGHT>
206.28236

> <PUBCHEM_OPENEYE_CAN_SMILES>
CC1=C2C=CC3=CC=CC=C3C2=C(C=C1)C

> <PUBCHEM_OPENEYE_ISO_SMILES>
CC1=C2C=CC3=CC=CC=C3C2=C(C=C1)C

> <PUBCHEM_CACTVS_TPSA>
0

> <PUBCHEM_MONOISOTOPIC_WEIGHT>
206.10955

> <PUBCHEM_TOTAL_CHARGE>
0

> <PUBCHEM_HEAVY_ATOM_COUNT>
16

> <PUBCHEM_ATOM_DEF_STEREO_COUNT>
0

> <PUBCHEM_ATOM_UDEF_STEREO_COUNT>
0

> <PUBCHEM_BOND_DEF_STEREO_COUNT>
0

> <PUBCHEM_BOND_UDEF_STEREO_COUNT>
0

> <PUBCHEM_ISOTOPIC_ATOM_COUNT>
0

> <PUBCHEM_COMPONENT_COUNT>
1

> <PUBCHEM_CACTVS_TAUTO_COUNT>
1

> <PUBCHEM_COORDINATE_TYPE>
1
5
255

> <PUBCHEM_BONDANNOTATIONS>
1  2  8
1  3  8
1  4  8
11  15  8
13  16  8
15  16  8
2  6  8
2  7  8
3  11  8
3  5  8
4  9  8
5  13  8
5  8  8
6  10  8
7  8  8
9  10  8

$$$$

