440221
  -OEChem-07051212493D

 54 56  0     1  0  0  0  0  0999 V2000
    0.3160   -2.0146    0.1897 O   0  0  0  0  0  0  0  0  0  0  0  0
   -0.9252   -5.4532   -0.0315 O   0  0  0  0  0  0  0  0  0  0  0  0
    1.9374   -5.7879    0.1909 O   0  0  0  0  0  0  0  0  0  0  0  0
    3.3423   -3.5684   -1.1435 O   0  0  0  0  0  0  0  0  0  0  0  0
    2.3840   -1.0463   -0.2897 O   0  0  0  0  0  0  0  0  0  0  0  0
   -2.3808   -1.4936    0.2985 O   0  0  0  0  0  0  0  0  0  0  0  0
    0.7769    0.4594   -0.9602 O   0  0  0  0  0  0  0  0  0  0  0  0
   -4.1461   -1.6701    1.7655 O   0  0  0  0  0  0  0  0  0  0  0  0
    2.9810    4.6652    1.0056 O   0  0  0  0  0  0  0  0  0  0  0  0
    6.5044    1.6118   -0.0911 O   0  0  0  0  0  0  0  0  0  0  0  0
    5.6852    4.1101    0.7815 O   0  0  0  0  0  0  0  0  0  0  0  0
   -6.9800    2.1695   -0.1414 O   0  0  0  0  0  0  0  0  0  0  0  0
   -2.3905    3.2605   -0.9696 O   0  0  0  0  0  0  0  0  0  0  0  0
   -5.0693    3.9625   -1.0389 O   0  0  0  0  0  0  0  0  0  0  0  0
   -0.0169   -4.4121    0.3183 C   0  0  1  0  0  0  0  0  0  0  0  0
    1.3156   -4.6430   -0.3946 C   0  0  1  0  0  0  0  0  0  0  0  0
   -0.6182   -3.0617   -0.0782 C   0  0  1  0  0  0  0  0  0  0  0  0
    2.2380   -3.4326   -0.2493 C   0  0  2  0  0  0  0  0  0  0  0  0
    1.5069   -2.1328   -0.5852 C   0  0  1  0  0  0  0  0  0  0  0  0
   -1.8891   -2.7565    0.7084 C   0  0  0  0  0  0  0  0  0  0  0  0
    1.8876    0.1970   -0.5255 C   0  0  0  0  0  0  0  0  0  0  0  0
   -3.5228   -1.0635    0.9081 C   0  0  0  0  0  0  0  0  0  0  0  0
    2.8930    1.2337   -0.1808 C   0  0  0  0  0  0  0  0  0  0  0  0
   -3.9327    0.2667    0.3912 C   0  0  0  0  0  0  0  0  0  0  0  0
    4.2333    0.9288   -0.3020 C   0  0  0  0  0  0  0  0  0  0  0  0
    2.4562    2.4689    0.2520 C   0  0  0  0  0  0  0  0  0  0  0  0
   -2.9589    1.1394   -0.0493 C   0  0  0  0  0  0  0  0  0  0  0  0
   -5.2740    0.5897    0.3693 C   0  0  0  0  0  0  0  0  0  0  0  0
    3.4011    3.4419    0.5776 C   0  0  0  0  0  0  0  0  0  0  0  0
    5.1781    1.9018    0.0237 C   0  0  0  0  0  0  0  0  0  0  0  0
    4.7621    3.1584    0.4635 C   0  0  0  0  0  0  0  0  0  0  0  0
   -5.6583    1.8403   -0.1146 C   0  0  0  0  0  0  0  0  0  0  0  0
   -3.3433    2.3900   -0.5330 C   0  0  0  0  0  0  0  0  0  0  0  0
   -4.6930    2.7405   -0.5657 C   0  0  0  0  0  0  0  0  0  0  0  0
    0.1372   -4.4622    1.4032 H   0  0  0  0  0  0  0  0  0  0  0  0
    1.1585   -4.8835   -1.4534 H   0  0  0  0  0  0  0  0  0  0  0  0
   -0.8680   -3.0399   -1.1478 H   0  0  0  0  0  0  0  0  0  0  0  0
    2.6542   -3.3915    0.7643 H   0  0  0  0  0  0  0  0  0  0  0  0
    1.2655   -2.0915   -1.6563 H   0  0  0  0  0  0  0  0  0  0  0  0
   -1.6642   -2.7135    1.7811 H   0  0  0  0  0  0  0  0  0  0  0  0
   -2.6498   -3.5240    0.5265 H   0  0  0  0  0  0  0  0  0  0  0  0
   -1.0739   -5.4120   -0.9916 H   0  0  0  0  0  0  0  0  0  0  0  0
    1.3218   -6.5347    0.0944 H   0  0  0  0  0  0  0  0  0  0  0  0
    2.9932   -3.6075   -2.0502 H   0  0  0  0  0  0  0  0  0  0  0  0
    4.5771   -0.0393   -0.6552 H   0  0  0  0  0  0  0  0  0  0  0  0
    1.3955    2.6868    0.3437 H   0  0  0  0  0  0  0  0  0  0  0  0
   -1.9041    0.8830   -0.0137 H   0  0  0  0  0  0  0  0  0  0  0  0
   -6.0250   -0.1139    0.7181 H   0  0  0  0  0  0  0  0  0  0  0  0
    2.0086    4.6792    1.0216 H   0  0  0  0  0  0  0  0  0  0  0  0
    7.0133    2.3973    0.1749 H   0  0  0  0  0  0  0  0  0  0  0  0
    5.2138    4.9127    1.0647 H   0  0  0  0  0  0  0  0  0  0  0  0
   -7.4996    1.4254    0.2086 H   0  0  0  0  0  0  0  0  0  0  0  0
   -1.5148    2.8488   -0.8718 H   0  0  0  0  0  0  0  0  0  0  0  0
   -6.0386    4.0273   -0.9855 H   0  0  0  0  0  0  0  0  0  0  0  0
  1 17  1  0  0  0  0
  1 19  1  0  0  0  0
  2 15  1  0  0  0  0
  2 42  1  0  0  0  0
  3 16  1  0  0  0  0
  3 43  1  0  0  0  0
  4 18  1  0  0  0  0
  4 44  1  0  0  0  0
  5 19  1  0  0  0  0
  5 21  1  0  0  0  0
  6 20  1  0  0  0  0
  6 22  1  0  0  0  0
  7 21  2  0  0  0  0
  8 22  2  0  0  0  0
  9 29  1  0  0  0  0
  9 49  1  0  0  0  0
 10 30  1  0  0  0  0
 10 50  1  0  0  0  0
 11 31  1  0  0  0  0
 11 51  1  0  0  0  0
 12 32  1  0  0  0  0
 12 52  1  0  0  0  0
 13 33  1  0  0  0  0
 13 53  1  0  0  0  0
 14 34  1  0  0  0  0
 14 54  1  0  0  0  0
 15 16  1  0  0  0  0
 15 17  1  0  0  0  0
 15 35  1  0  0  0  0
 16 18  1  0  0  0  0
 16 36  1  0  0  0  0
 17 20  1  0  0  0  0
 17 37  1  0  0  0  0
 18 19  1  0  0  0  0
 18 38  1  0  0  0  0
 19 39  1  0  0  0  0
 20 40  1  0  0  0  0
 20 41  1  0  0  0  0
 21 23  1  0  0  0  0
 22 24  1  0  0  0  0
 23 25  2  0  0  0  0
 23 26  1  0  0  0  0
 24 27  2  0  0  0  0
 24 28  1  0  0  0  0
 25 30  1  0  0  0  0
 25 45  1  0  0  0  0
 26 29  2  0  0  0  0
 26 46  1  0  0  0  0
 27 33  1  0  0  0  0
 27 47  1  0  0  0  0
 28 32  2  0  0  0  0
 28 48  1  0  0  0  0
 29 31  1  0  0  0  0
 30 31  2  0  0  0  0
 32 34  1  0  0  0  0
 33 34  2  0  0  0  0
M  END
> <PUBCHEM_COMPOUND_CID>
440221

> <PUBCHEM_CONFORMER_RMSD>
1.2

> <PUBCHEM_CONFORMER_DIVERSEORDER>
1
38
212
180
168
104
115
90
65
68
220
108
93
186
135
20
70
205
81
78
155
83
117
91
169
2
181
171
25
79
184
47
3
54
134
183
198
4
190
154
130
172
209
156
187
202
215
173
112
164
125
60
144
101
170
18
43
227
137
176
119
124
12
6
22
128
62
193
67
179
99
147
159
151
19
165
33
210
219
55
95
136
214
17
24
39
197
106
221
69
29
35
122
132
116
140
15
188
194
145
28
64
36
30
196
51
148
163
120
53
226
44
182
34
142
200
27
31
52
167
160
105
138
5
127
100
224
66
13
204
63
45
23
161
102
7
150
217
131
11
109
223
153
228
97
225
96
201
191
48
113
21
89
158
162
41
71
87
32
49
46
213
111
9
178
185
8
133
85
139
203
207
192
82
40
121
103
98
208
195
218
174
94
84
37
61
123
80
222
88
229
126
206
16
118
157
56
73
14
110
72
114
57
107
74
50
129
211
152
143
42
26
92
75
175
10
86
77
199
58
146
59
177
216
189
141
166
76
149

> <PUBCHEM_MMFF94_PARTIAL_CHARGES>
47
1 -0.56
10 -0.53
11 -0.53
12 -0.53
13 -0.53
14 -0.53
15 0.28
16 0.28
17 0.28
18 0.28
19 0.56
2 -0.68
20 0.28
21 0.63
22 0.63
23 0.09
24 0.09
25 -0.15
26 -0.15
27 -0.15
28 -0.15
29 0.08
3 -0.68
30 0.08
31 0.08
32 0.08
33 0.08
34 0.08
4 -0.68
42 0.4
43 0.4
44 0.4
45 0.15
46 0.15
47 0.15
48 0.15
49 0.45
5 -0.43
50 0.45
51 0.45
52 0.45
53 0.45
54 0.45
6 -0.43
7 -0.57
8 -0.57
9 -0.53

> <PUBCHEM_EFFECTIVE_ROTOR_COUNT>
8.2

> <PUBCHEM_PHARMACOPHORE_FEATURES>
18
1 1 acceptor
1 10 donor
1 11 donor
1 12 donor
1 13 donor
1 14 donor
1 2 acceptor
1 2 donor
1 3 acceptor
1 3 donor
1 4 acceptor
1 4 donor
1 7 acceptor
1 8 acceptor
1 9 donor
6 1 15 16 17 18 19 rings
6 23 25 26 29 30 31 rings
6 24 27 28 32 33 34 rings

> <PUBCHEM_HEAVY_ATOM_COUNT>
34

> <PUBCHEM_ATOM_DEF_STEREO_COUNT>
5

> <PUBCHEM_ATOM_UDEF_STEREO_COUNT>
0

> <PUBCHEM_BOND_DEF_STEREO_COUNT>
0

> <PUBCHEM_BOND_UDEF_STEREO_COUNT>
0

> <PUBCHEM_ISOTOPIC_ATOM_COUNT>
0

> <PUBCHEM_COMPONENT_COUNT>
1

> <PUBCHEM_CACTVS_TAUTO_COUNT>
196

> <PUBCHEM_CONFORMER_ID>
0006B79D00000001

> <PUBCHEM_MMFF94_ENERGY>
95.349

> <PUBCHEM_FEATURE_SELFOVERLAP>
91.371

> <PUBCHEM_SHAPE_FINGERPRINT>
10290309 65 18410851032170243825
10439779 11 18052261983544497707
11059845 2 18120964745069622736
12107183 9 18340217285112021378
12857493 111 17328017089471941102
13402501 40 18410291368051862057
138480 1 17905890627519832607
14068700 686 18338229363472761787
15230672 131 18340764855140853358
15320467 1 17906171746130841425
15326921 28 18192447285519752224
15400415 2 18410576162896283289
15419008 145 17183925571087558544
15890870 6 18410575076253311076
15927050 60 18408605855375945238
16067690 210 17479472139936366912
16988056 13 18050009088550925622
18681886 176 17832997413942618459
19246450 95 18338537261430591586
21033648 29 18262809441043829040
21133410 127 18059573632753778677
22889206 1 18059017314635914178
23559900 14 18051699038407847553
23845131 108 18411426072392923207
25019877 29 17029066032050609655
354706 109 18048058297399910553
4403749 210 18197226857896615484
508706 21 18119254956399835952
5265222 85 18196638606970809684
5776283 40 18268976747903182142
6371380 46 18409161100848451782
653340 110 18049728408306610416
6700243 42 16823291263086395692
7399639 24 18268975536949550411
9777508 108 18120942707122959896
9981440 41 18341889650344724531

> <PUBCHEM_SHAPE_MULTIPOLES>
617.53
13.53
8.61
0.93
5.28
8.53
0.09
-19.54
0.7
-5.09
0.1
0.34
-0.11
3.36

> <PUBCHEM_SHAPE_SELFOVERLAP>
1338.592

> <PUBCHEM_SHAPE_VOLUME>
333.7

> <PUBCHEM_COORDINATE_TYPE>
2
5
10

$$$$

