47205496
  -OEChem-06241222592D

 28 29  0     0  0  0  0  0  0999 V2000
    3.7601   -0.7934    0.0000 S   0  0  0  0  0  0  0  0  0  0  0  0
   10.2176   -0.7455    0.0000 O   0  0  0  0  0  0  0  0  0  0  0  0
    7.4223   -1.1327    0.0000 O   0  0  0  0  0  0  0  0  0  0  0  0
    6.0554    1.1327    0.0000 O   0  0  0  0  0  0  0  0  0  0  0  0
    7.9575    0.5146    0.0000 N   0  0  0  0  0  0  0  0  0  0  0  0
    5.5202   -0.5146    0.0000 N   0  0  0  0  0  0  0  0  0  0  0  0
    4.2601    0.7455    0.0000 N   0  0  0  0  0  0  0  0  0  0  0  0
    9.2176   -0.7455    0.0000 N   0  0  0  0  0  0  0  0  0  0  0  0
    8.9086    0.2056    0.0000 C   0  0  0  0  0  0  0  0  0  0  0  0
   10.5266    0.2056    0.0000 C   0  0  0  0  0  0  0  0  0  0  0  0
    9.7176    0.7934    0.0000 C   0  0  0  0  0  0  0  0  0  0  0  0
    4.5691   -0.2056    0.0000 C   0  0  0  0  0  0  0  0  0  0  0  0
    2.9511   -0.2056    0.0000 C   0  0  0  0  0  0  0  0  0  0  0  0
    7.2144   -0.1545    0.0000 C   0  0  0  0  0  0  0  0  0  0  0  0
    6.2633    0.1545    0.0000 C   0  0  0  0  0  0  0  0  0  0  0  0
    3.2601    0.7455    0.0000 C   0  0  0  0  0  0  0  0  0  0  0  0
   11.4776    0.5146    0.0000 C   0  0  0  0  0  0  0  0  0  0  0  0
    2.0000   -0.5146    0.0000 C   0  0  0  0  0  0  0  0  0  0  0  0
    9.7176    1.4134    0.0000 H   0  0  0  0  0  0  0  0  0  0  0  0
    7.8286    1.1211    0.0000 H   0  0  0  0  0  0  0  0  0  0  0  0
    5.6490   -1.1211    0.0000 H   0  0  0  0  0  0  0  0  0  0  0  0
    2.8956    1.2470    0.0000 H   0  0  0  0  0  0  0  0  0  0  0  0
   11.6692   -0.0750    0.0000 H   0  0  0  0  0  0  0  0  0  0  0  0
   12.0673    0.7062    0.0000 H   0  0  0  0  0  0  0  0  0  0  0  0
   11.2860    1.1043    0.0000 H   0  0  0  0  0  0  0  0  0  0  0  0
    1.8084    0.0750    0.0000 H   0  0  0  0  0  0  0  0  0  0  0  0
    1.4103   -0.7062    0.0000 H   0  0  0  0  0  0  0  0  0  0  0  0
    2.1916   -1.1043    0.0000 H   0  0  0  0  0  0  0  0  0  0  0  0
  1 12  1  0  0  0  0
  1 13  1  0  0  0  0
  2  8  1  0  0  0  0
  2 10  1  0  0  0  0
  3 14  2  0  0  0  0
  4 15  2  0  0  0  0
  5  9  1  0  0  0  0
  5 14  1  0  0  0  0
  5 20  1  0  0  0  0
  6 12  1  0  0  0  0
  6 15  1  0  0  0  0
  6 21  1  0  0  0  0
  7 12  2  0  0  0  0
  7 16  1  0  0  0  0
  8  9  2  0  0  0  0
  9 11  1  0  0  0  0
 10 11  2  0  0  0  0
 10 17  1  0  0  0  0
 11 19  1  0  0  0  0
 13 16  2  0  0  0  0
 13 18  1  0  0  0  0
 14 15  1  0  0  0  0
 16 22  1  0  0  0  0
 17 23  1  0  0  0  0
 17 24  1  0  0  0  0
 17 25  1  0  0  0  0
 18 26  1  0  0  0  0
 18 27  1  0  0  0  0
 18 28  1  0  0  0  0
M  END
> <PUBCHEM_COMPOUND_CID>
47205496

> <PUBCHEM_COMPOUND_CANONICALIZED>
1

> <PUBCHEM_CACTVS_COMPLEXITY>
341

> <PUBCHEM_CACTVS_HBOND_ACCEPTOR>
6

> <PUBCHEM_CACTVS_HBOND_DONOR>
2

> <PUBCHEM_CACTVS_ROTATABLE_BOND>
2

> <PUBCHEM_CACTVS_SUBSKEYS>
AAADccBzsABAAAAAAAAAAAAAAAAAAWLAAAAAAAAAAAAAAAAB4AAAHgQUAAAACATB0gQ/tZLYEAitALN3dgCA8Kl1KjlhWC2+bFqAZAhAiaAUAIhKFQrAQGAAAAAAAAAAAAAAAAAAAAAAAAAAAAAAAAAAAA==

> <PUBCHEM_IUPAC_OPENEYE_NAME>
N-(5-methylisoxazol-3-yl)-N'-(5-methylthiazol-2-yl)oxamide

> <PUBCHEM_IUPAC_CAS_NAME>
N-(5-methyl-3-isoxazolyl)-N'-(5-methyl-2-thiazolyl)oxamide

> <PUBCHEM_IUPAC_NAME>
N-(5-methyl-1,2-oxazol-3-yl)-N'-(5-methyl-1,3-thiazol-2-yl)oxamide

> <PUBCHEM_IUPAC_SYSTEMATIC_NAME>
N-(5-methyl-1,2-oxazol-3-yl)-N'-(5-methyl-1,3-thiazol-2-yl)ethanediamide

> <PUBCHEM_IUPAC_TRADITIONAL_NAME>
N-(5-methylisoxazol-3-yl)-N'-(5-methylthiazol-2-yl)oxamide

> <PUBCHEM_IUPAC_INCHI>
InChI=1S/C10H10N4O3S/c1-5-3-7(14-17-5)12-8(15)9(16)13-10-11-4-6(2)18-10/h3-4H,1-2H3,(H,11,13,16)(H,12,14,15)

> <PUBCHEM_IUPAC_INCHIKEY>
QFQHAAGOCSPICD-UHFFFAOYSA-N

> <PUBCHEM_XLOGP3_AA>
1.3

> <PUBCHEM_EXACT_MASS>
266.047361

> <PUBCHEM_MOLECULAR_FORMULA>
C10H10N4O3S

> <PUBCHEM_MOLECULAR_WEIGHT>
266.2764

> <PUBCHEM_OPENEYE_CAN_SMILES>
CC1=CC(=NO1)NC(=O)C(=O)NC2=NC=C(S2)C

> <PUBCHEM_OPENEYE_ISO_SMILES>
CC1=CC(=NO1)NC(=O)C(=O)NC2=NC=C(S2)C

> <PUBCHEM_CACTVS_TPSA>
125

> <PUBCHEM_MONOISOTOPIC_WEIGHT>
266.047361

> <PUBCHEM_TOTAL_CHARGE>
0

> <PUBCHEM_HEAVY_ATOM_COUNT>
18

> <PUBCHEM_ATOM_DEF_STEREO_COUNT>
0

> <PUBCHEM_ATOM_UDEF_STEREO_COUNT>
0

> <PUBCHEM_BOND_DEF_STEREO_COUNT>
0

> <PUBCHEM_BOND_UDEF_STEREO_COUNT>
0

> <PUBCHEM_ISOTOPIC_ATOM_COUNT>
0

> <PUBCHEM_COMPONENT_COUNT>
1

> <PUBCHEM_CACTVS_TAUTO_COUNT>
24

> <PUBCHEM_COORDINATE_TYPE>
1
5
255

> <PUBCHEM_BONDANNOTATIONS>
1  12  8
1  13  8
10  11  8
13  16  8
2  10  8
2  8  8
7  12  8
7  16  8
8  9  8
9  11  8

$$$$

