53297384
  -OEChem-07051213122D

 60 61  0     0  0  0  0  0  0999 V2000
    4.8660   -5.2500    0.0000 I   0  0  0  0  0  0  0  0  0  0  0  0
   10.0622   -4.2500    0.0000 S   0  0  0  0  0  0  0  0  0  0  0  0
    5.0000    3.2500    0.0000 F   0  0  0  0  0  0  0  0  0  0  0  0
    4.0000    5.2500    0.0000 F   0  0  0  0  0  0  0  0  0  0  0  0
    3.2340    4.8929    0.0000 F   0  0  0  0  0  0  0  0  0  0  0  0
    5.0000    4.2500    0.0000 F   0  0  0  0  0  0  0  0  0  0  0  0
    2.0000    3.2500    0.0000 F   0  0  0  0  0  0  0  0  0  0  0  0
    3.0000    4.2500    0.0000 F   0  0  0  0  0  0  0  0  0  0  0  0
    2.3572    2.4840    0.0000 F   0  0  0  0  0  0  0  0  0  0  0  0
   10.5622   -5.1160    0.0000 O   0  0  0  0  0  0  0  0  0  0  0  0
    9.5622   -3.3840    0.0000 O   0  0  0  0  0  0  0  0  0  0  0  0
    6.5981   -5.2500    0.0000 O   0  0  0  0  0  0  0  0  0  0  0  0
    5.7320   -0.7500    0.0000 O   0  0  0  0  0  0  0  0  0  0  0  0
    7.4641   -3.7500    0.0000 N   0  0  0  0  0  0  0  0  0  0  0  0
    4.0000   -0.7500    0.0000 N   0  0  0  0  0  0  0  0  0  0  0  0
    8.3301   -4.2500    0.0000 C   0  0  0  0  0  0  0  0  0  0  0  0
    9.1962   -4.7500    0.0000 C   0  0  0  0  0  0  0  0  0  0  0  0
    8.8301   -3.3840    0.0000 C   0  0  0  0  0  0  0  0  0  0  0  0
    7.8301   -5.1160    0.0000 C   0  0  0  0  0  0  0  0  0  0  0  0
   10.9282   -3.7500    0.0000 C   0  0  0  0  0  0  0  0  0  0  0  0
    6.5981   -4.2500    0.0000 C   0  0  0  0  0  0  0  0  0  0  0  0
    4.0000    3.2500    0.0000 C   0  0  0  0  0  0  0  0  0  0  0  0
    5.7320   -3.7500    0.0000 C   0  0  0  0  0  0  0  0  0  0  0  0
    4.0000    2.2500    0.0000 C   0  0  0  0  0  0  0  0  0  0  0  0
    3.1340    0.7500    0.0000 C   0  0  0  0  0  0  0  0  0  0  0  0
    3.1340    1.7500    0.0000 C   0  0  0  0  0  0  0  0  0  0  0  0
    4.0000    0.2500    0.0000 C   0  0  0  0  0  0  0  0  0  0  0  0
    5.7320   -2.7500    0.0000 C   0  0  0  0  0  0  0  0  0  0  0  0
    4.8660    1.7500    0.0000 C   0  0  0  0  0  0  0  0  0  0  0  0
    4.0000    4.2500    0.0000 C   0  0  0  0  0  0  0  0  0  0  0  0
    3.0000    3.2500    0.0000 C   0  0  0  0  0  0  0  0  0  0  0  0
    4.8660   -2.2500    0.0000 C   0  0  0  0  0  0  0  0  0  0  0  0
    4.8660    0.7500    0.0000 C   0  0  0  0  0  0  0  0  0  0  0  0
    4.8660   -4.2500    0.0000 C   0  0  0  0  0  0  0  0  0  0  0  0
    4.8660   -1.2500    0.0000 C   0  0  0  0  0  0  0  0  0  0  0  0
    2.2680    0.2500    0.0000 C   0  0  0  0  0  0  0  0  0  0  0  0
    4.0000   -2.7500    0.0000 C   0  0  0  0  0  0  0  0  0  0  0  0
    4.0000   -3.7500    0.0000 C   0  0  0  0  0  0  0  0  0  0  0  0
    8.7976   -5.2250    0.0000 H   0  0  0  0  0  0  0  0  0  0  0  0
    9.5947   -5.2250    0.0000 H   0  0  0  0  0  0  0  0  0  0  0  0
    9.3671   -3.6940    0.0000 H   0  0  0  0  0  0  0  0  0  0  0  0
    9.1401   -2.8470    0.0000 H   0  0  0  0  0  0  0  0  0  0  0  0
    8.2932   -3.0740    0.0000 H   0  0  0  0  0  0  0  0  0  0  0  0
    7.2932   -4.8060    0.0000 H   0  0  0  0  0  0  0  0  0  0  0  0
    7.5201   -5.6530    0.0000 H   0  0  0  0  0  0  0  0  0  0  0  0
    8.3671   -5.4260    0.0000 H   0  0  0  0  0  0  0  0  0  0  0  0
    7.4641   -3.1300    0.0000 H   0  0  0  0  0  0  0  0  0  0  0  0
   11.2382   -4.2869    0.0000 H   0  0  0  0  0  0  0  0  0  0  0  0
   11.4651   -3.4400    0.0000 H   0  0  0  0  0  0  0  0  0  0  0  0
   10.6182   -3.2131    0.0000 H   0  0  0  0  0  0  0  0  0  0  0  0
    2.5970    2.0600    0.0000 H   0  0  0  0  0  0  0  0  0  0  0  0
    5.4030    2.0600    0.0000 H   0  0  0  0  0  0  0  0  0  0  0  0
    6.2690   -2.4400    0.0000 H   0  0  0  0  0  0  0  0  0  0  0  0
    5.4030    0.4400    0.0000 H   0  0  0  0  0  0  0  0  0  0  0  0
    3.4631   -1.0600    0.0000 H   0  0  0  0  0  0  0  0  0  0  0  0
    1.9580    0.7869    0.0000 H   0  0  0  0  0  0  0  0  0  0  0  0
    1.7310   -0.0600    0.0000 H   0  0  0  0  0  0  0  0  0  0  0  0
    2.5780   -0.2869    0.0000 H   0  0  0  0  0  0  0  0  0  0  0  0
    3.4631   -2.4400    0.0000 H   0  0  0  0  0  0  0  0  0  0  0  0
    3.4631   -4.0600    0.0000 H   0  0  0  0  0  0  0  0  0  0  0  0
  1 34  1  0  0  0  0
  2 10  2  0  0  0  0
  2 11  2  0  0  0  0
  2 17  1  0  0  0  0
  2 20  1  0  0  0  0
  3 22  1  0  0  0  0
  4 30  1  0  0  0  0
  5 30  1  0  0  0  0
  6 30  1  0  0  0  0
  7 31  1  0  0  0  0
  8 31  1  0  0  0  0
  9 31  1  0  0  0  0
 12 21  2  0  0  0  0
 13 35  2  0  0  0  0
 14 16  1  0  0  0  0
 14 21  1  0  0  0  0
 14 47  1  0  0  0  0
 15 27  1  0  0  0  0
 15 35  1  0  0  0  0
 15 55  1  0  0  0  0
 16 17  1  0  0  0  0
 16 18  1  0  0  0  0
 16 19  1  0  0  0  0
 17 39  1  0  0  0  0
 17 40  1  0  0  0  0
 18 41  1  0  0  0  0
 18 42  1  0  0  0  0
 18 43  1  0  0  0  0
 19 44  1  0  0  0  0
 19 45  1  0  0  0  0
 19 46  1  0  0  0  0
 20 48  1  0  0  0  0
 20 49  1  0  0  0  0
 20 50  1  0  0  0  0
 21 23  1  0  0  0  0
 22 24  1  0  0  0  0
 22 30  1  0  0  0  0
 22 31  1  0  0  0  0
 23 28  1  0  0  0  0
 23 34  2  0  0  0  0
 24 26  2  0  0  0  0
 24 29  1  0  0  0  0
 25 26  1  0  0  0  0
 25 27  2  0  0  0  0
 25 36  1  0  0  0  0
 26 51  1  0  0  0  0
 27 33  1  0  0  0  0
 28 32  2  0  0  0  0
 28 53  1  0  0  0  0
 29 33  2  0  0  0  0
 29 52  1  0  0  0  0
 32 35  1  0  0  0  0
 32 37  1  0  0  0  0
 33 54  1  0  0  0  0
 34 38  1  0  0  0  0
 36 56  1  0  0  0  0
 36 57  1  0  0  0  0
 36 58  1  0  0  0  0
 37 38  2  0  0  0  0
 37 59  1  0  0  0  0
 38 60  1  0  0  0  0
M  END
> <PUBCHEM_COMPOUND_CID>
53297384

> <PUBCHEM_COMPOUND_CANONICALIZED>
1

> <PUBCHEM_CACTVS_COMPLEXITY>
968

> <PUBCHEM_CACTVS_HBOND_ACCEPTOR>
11

> <PUBCHEM_CACTVS_HBOND_DONOR>
2

> <PUBCHEM_CACTVS_ROTATABLE_BOND>
7

> <PUBCHEM_CACTVS_SUBSKEYS>
AAADceB7OcBAAgAAAAAAAAAAAAAAAAAAAAAwYAAAAAAAAAABQAAAHwQwAAAADIiH2BCywILAAAqIAiVSUHDCAAAlAhAIiAEAZMgIIDLglZGEIQhglADIyYcYi8COiAACAAACAAAQAAQAAAQAAAAAAAAAAA==

> <PUBCHEM_IUPAC_OPENEYE_NAME>
N3-(1,1-dimethyl-2-methylsulfonyl-ethyl)-4-iodo-N1-[2-methyl-4-[1,2,2,2-tetrafluoro-1-(trifluoromethyl)ethyl]phenyl]benzene-1,3-dicarboxamide

> <PUBCHEM_IUPAC_CAS_NAME>
N1-[4-(1,1,1,2,3,3,3-heptafluoropropan-2-yl)-2-methylphenyl]-4-iodo-N3-(2-methyl-1-methylsulfonylpropan-2-yl)benzene-1,3-dicarboxamide

> <PUBCHEM_IUPAC_NAME>
1-N-[4-(1,1,1,2,3,3,3-heptafluoropropan-2-yl)-2-methylphenyl]-4-iodo-3-N-(2-methyl-1-methylsulfonylpropan-2-yl)benzene-1,3-dicarboxamide

> <PUBCHEM_IUPAC_SYSTEMATIC_NAME>
N1-[4-[1,1,1,2,3,3,3-heptakis(fluoranyl)propan-2-yl]-2-methyl-phenyl]-4-iodanyl-N3-(2-methyl-1-methylsulfonyl-propan-2-yl)benzene-1,3-dicarboxamide

> <PUBCHEM_IUPAC_TRADITIONAL_NAME>
4-iodo-N'-(2-mesyl-1,1-dimethyl-ethyl)-N-[2-methyl-4-[1,2,2,2-tetrafluoro-1-(trifluoromethyl)ethyl]phenyl]isophthalamide

> <PUBCHEM_IUPAC_INCHI>
InChI=1S/C23H22F7IN2O4S/c1-12-9-14(21(24,22(25,26)27)23(28,29)30)6-8-17(12)32-18(34)13-5-7-16(31)15(10-13)19(35)33-20(2,3)11-38(4,36)37/h5-10H,11H2,1-4H3,(H,32,34)(H,33,35)

> <PUBCHEM_IUPAC_INCHIKEY>
RKJQJYZYGJTNNB-UHFFFAOYSA-N

> <PUBCHEM_XLOGP3_AA>
5.3

> <PUBCHEM_EXACT_MASS>
682.023324

> <PUBCHEM_MOLECULAR_FORMULA>
C23H22F7IN2O4S

> <PUBCHEM_MOLECULAR_WEIGHT>
682.390072

> <PUBCHEM_OPENEYE_CAN_SMILES>
CC1=C(C=CC(=C1)C(C(F)(F)F)(C(F)(F)F)F)NC(=O)C2=CC(=C(C=C2)I)C(=O)NC(C)(C)CS(=O)(=O)C

> <PUBCHEM_OPENEYE_ISO_SMILES>
CC1=C(C=CC(=C1)C(C(F)(F)F)(C(F)(F)F)F)NC(=O)C2=CC(=C(C=C2)I)C(=O)NC(C)(C)CS(=O)(=O)C

> <PUBCHEM_CACTVS_TPSA>
101

> <PUBCHEM_MONOISOTOPIC_WEIGHT>
682.023324

> <PUBCHEM_TOTAL_CHARGE>
0

> <PUBCHEM_HEAVY_ATOM_COUNT>
38

> <PUBCHEM_ATOM_DEF_STEREO_COUNT>
0

> <PUBCHEM_ATOM_UDEF_STEREO_COUNT>
0

> <PUBCHEM_BOND_DEF_STEREO_COUNT>
0

> <PUBCHEM_BOND_UDEF_STEREO_COUNT>
0

> <PUBCHEM_ISOTOPIC_ATOM_COUNT>
0

> <PUBCHEM_COMPONENT_COUNT>
1

> <PUBCHEM_CACTVS_TAUTO_COUNT>
4

> <PUBCHEM_COORDINATE_TYPE>
1
5
255

> <PUBCHEM_BONDANNOTATIONS>
23  28  8
23  34  8
24  26  8
24  29  8
25  26  8
25  27  8
27  33  8
28  32  8
29  33  8
32  37  8
34  38  8
37  38  8

$$$$

