6093
  -OEChem-07051213133D

 20 21  0     0  0  0  0  0  0999 V2000
   -0.9272    1.0688   -0.0076 S   0  0  0  0  0  0  0  0  0  0  0  0
    2.7183   -1.9065   -0.0261 O   0  0  0  0  0  0  0  0  0  0  0  0
   -4.4278   -0.5946    0.0158 O   0  5  0  0  0  0  0  0  0  0  0  0
   -3.8129    1.5126   -0.0025 O   0  0  0  0  0  0  0  0  0  0  0  0
    1.5860    0.2118   -0.0099 N   0  0  0  0  0  0  0  0  0  0  0  0
    3.8579    0.1115    0.0082 N   0  0  0  0  0  0  0  0  0  0  0  0
   -0.2370   -1.4223    0.0077 N   0  0  0  0  0  0  0  0  0  0  0  0
   -3.5170    0.2829    0.0057 N   0  3  0  0  0  0  0  0  0  0  0  0
    2.0608    1.5843   -0.1139 C   0  0  0  0  0  0  0  0  0  0  0  0
    3.5572    1.5088    0.1157 C   0  0  0  0  0  0  0  0  0  0  0  0
    2.6951   -0.6830   -0.0063 C   0  0  0  0  0  0  0  0  0  0  0  0
    0.2375   -0.1939   -0.0030 C   0  0  0  0  0  0  0  0  0  0  0  0
   -2.1736   -0.1092    0.0041 C   0  0  0  0  0  0  0  0  0  0  0  0
   -1.6173   -1.3712    0.0121 C   0  0  0  0  0  0  0  0  0  0  0  0
    1.5902    2.2327    0.6316 H   0  0  0  0  0  0  0  0  0  0  0  0
    1.8403    1.9540   -1.1217 H   0  0  0  0  0  0  0  0  0  0  0  0
    4.1321    2.0759   -0.6208 H   0  0  0  0  0  0  0  0  0  0  0  0
    3.8325    1.8367    1.1227 H   0  0  0  0  0  0  0  0  0  0  0  0
    4.7974   -0.2727    0.0235 H   0  0  0  0  0  0  0  0  0  0  0  0
   -2.1712   -2.3010    0.0209 H   0  0  0  0  0  0  0  0  0  0  0  0
  1 12  1  0  0  0  0
  1 13  1  0  0  0  0
  2 11  2  0  0  0  0
  3  8  1  0  0  0  0
  4  8  2  0  0  0  0
  5  9  1  0  0  0  0
  5 11  1  0  0  0  0
  5 12  1  0  0  0  0
  6 10  1  0  0  0  0
  6 11  1  0  0  0  0
  6 19  1  0  0  0  0
  7 12  2  0  0  0  0
  7 14  1  0  0  0  0
  8 13  1  0  0  0  0
  9 10  1  0  0  0  0
  9 15  1  0  0  0  0
  9 16  1  0  0  0  0
 10 17  1  0  0  0  0
 10 18  1  0  0  0  0
 13 14  2  0  0  0  0
 14 20  1  0  0  0  0
M  CHG  2   3  -1   8   1
M  END
> <PUBCHEM_COMPOUND_CID>
6093

> <PUBCHEM_CONFORMER_RMSD>
0.6

> <PUBCHEM_CONFORMER_DIVERSEORDER>
1
3
2
4

> <PUBCHEM_MMFF94_PARTIAL_CHARGES>
16
1 -0.08
10 0.3
11 0.69
12 0.44
13 0.12
14 0.08
19 0.37
2 -0.57
20 0.15
3 -0.52
4 -0.52
5 -0.42
6 -0.73
7 -0.57
8 0.96
9 0.3

> <PUBCHEM_EFFECTIVE_ROTOR_COUNT>
2.8

> <PUBCHEM_PHARMACOPHORE_FEATURES>
7
1 2 acceptor
1 3 acceptor
1 3 anion
1 4 acceptor
1 6 donor
5 1 7 12 13 14 rings
5 5 6 9 10 11 rings

> <PUBCHEM_HEAVY_ATOM_COUNT>
14

> <PUBCHEM_ATOM_DEF_STEREO_COUNT>
0

> <PUBCHEM_ATOM_UDEF_STEREO_COUNT>
0

> <PUBCHEM_BOND_DEF_STEREO_COUNT>
0

> <PUBCHEM_BOND_UDEF_STEREO_COUNT>
0

> <PUBCHEM_ISOTOPIC_ATOM_COUNT>
0

> <PUBCHEM_COMPONENT_COUNT>
1

> <PUBCHEM_CACTVS_TAUTO_COUNT>
2

> <PUBCHEM_CONFORMER_ID>
000017CD00000001

> <PUBCHEM_MMFF94_ENERGY>
30.9649

> <PUBCHEM_FEATURE_SELFOVERLAP>
35.602

> <PUBCHEM_SHAPE_FINGERPRINT>
10608611 8 18411421695742451861
10980938 120 18411699885311514408
11471102 20 18410577279776489148
12032990 46 18413383246414765507
12346645 6 18334857221244216542
12932764 1 17458350684569804731
13380535 76 18411138000557793050
14144814 61 18410573998073380376
14325111 11 18411136943948138053
14415576 193 18340764845612175108
14897335 6 18408888399624659190
15196674 1 18410855481613580261
15442244 35 18193274311331015592
15536298 74 18335420179555353222
15775835 57 18409728439414287484
18186145 218 18335133241280132285
200 152 17967816046019847888
20201158 50 18410009927476373098
20528008 55 18409169883048925113
20645477 70 18335702779655720894
21267235 1 18410565180569058934
23402539 116 18187374232920266685
23402655 69 18334016107275076805
23463225 33 18411418440151628974
23559900 14 18333733559168426130
449060 50 18341329994145694708
449060 62 18335979788092939404
5104073 3 18411418431619717601
69090 78 18336268963861667871
7364860 26 18334294288655332510
9709674 26 18410005516213150958

> <PUBCHEM_SHAPE_MULTIPOLES>
254.43
7.44
1.75
0.58
2.75
0.09
0
-1.31
0.1
-0.6
-0.01
-0.03
-0.02
0.03

> <PUBCHEM_SHAPE_SELFOVERLAP>
526.274

> <PUBCHEM_SHAPE_VOLUME>
147.3

> <PUBCHEM_COORDINATE_TYPE>
2
5
10

$$$$

