11236201
  -OEChem-07051213122D

 48 51  0     1  0  0  0  0  0999 V2000
    4.5981   -1.4019    0.0000 Cl  0  0  0  0  0  0  0  0  0  0  0  0
    8.3176   -1.2868    0.0000 S   0  0  0  0  0  0  0  0  0  0  0  0
    2.8660    1.5981    0.0000 S   0  0  0  0  0  0  0  0  0  0  0  0
    6.5575    1.7617    0.0000 O   0  0  0  0  0  0  0  0  0  0  0  0
    6.3301   -1.4019    0.0000 O   0  0  0  0  0  0  0  0  0  0  0  0
    3.3660    2.4641    0.0000 O   0  0  0  0  0  0  0  0  0  0  0  0
    2.3660    0.7320    0.0000 O   0  0  0  0  0  0  0  0  0  0  0  0
    9.6448    0.9345    0.0000 C   0  0  3  0  0  0  0  0  0  0  0  0
    9.9037    1.9004    0.0000 C   0  0  3  0  0  0  0  0  0  0  0  0
    9.1671    2.8830    0.0000 C   0  0  0  0  0  0  0  0  0  0  0  0
   11.4768    0.1756    0.0000 C   0  0  0  0  0  0  0  0  0  0  0  0
   11.7356    1.1416    0.0000 C   0  0  0  0  0  0  0  0  0  0  0  0
    8.1097   -0.3087    0.0000 C   0  0  0  0  0  0  0  0  0  0  0  0
    7.3007    1.0926    0.0000 C   0  0  0  0  0  0  0  0  0  0  0  0
    7.1962    0.0981    0.0000 C   0  0  0  0  0  0  0  0  0  0  0  0
    6.3301   -0.4019    0.0000 C   0  0  0  0  0  0  0  0  0  0  0  0
    5.4641    0.0981    0.0000 C   0  0  0  0  0  0  0  0  0  0  0  0
    9.2687   -1.5958    0.0000 C   0  0  0  0  0  0  0  0  0  0  0  0
    4.5981   -0.4019    0.0000 C   0  0  0  0  0  0  0  0  0  0  0  0
    5.4641    1.0981    0.0000 C   0  0  0  0  0  0  0  0  0  0  0  0
    9.4766   -2.5740    0.0000 C   0  0  0  0  0  0  0  0  0  0  0  0
   10.0118   -0.9267    0.0000 C   0  0  0  0  0  0  0  0  0  0  0  0
    3.7320    0.0981    0.0000 C   0  0  0  0  0  0  0  0  0  0  0  0
    4.5981    1.5981    0.0000 C   0  0  0  0  0  0  0  0  0  0  0  0
    3.7320    1.0981    0.0000 C   0  0  0  0  0  0  0  0  0  0  0  0
   10.4276   -2.8830    0.0000 C   0  0  0  0  0  0  0  0  0  0  0  0
   10.9629   -1.2357    0.0000 C   0  0  0  0  0  0  0  0  0  0  0  0
   11.1708   -2.2139    0.0000 C   0  0  0  0  0  0  0  0  0  0  0  0
    2.0000    2.0981    0.0000 C   0  0  0  0  0  0  0  0  0  0  0  0
    9.7668    0.0933    0.0000 H   0  0  0  0  0  0  0  0  0  0  0  0
    9.8647    1.0513    0.0000 H   0  0  0  0  0  0  0  0  0  0  0  0
    9.4849    3.4154    0.0000 H   0  0  0  0  0  0  0  0  0  0  0  0
    8.5539    2.9750    0.0000 H   0  0  0  0  0  0  0  0  0  0  0  0
   11.2648   -0.4070    0.0000 H   0  0  0  0  0  0  0  0  0  0  0  0
   12.0681   -0.0108    0.0000 H   0  0  0  0  0  0  0  0  0  0  0  0
   12.3269    0.9551    0.0000 H   0  0  0  0  0  0  0  0  0  0  0  0
   11.9477    1.7242    0.0000 H   0  0  0  0  0  0  0  0  0  0  0  0
    6.0010    1.4081    0.0000 H   0  0  0  0  0  0  0  0  0  0  0  0
    9.0158   -2.9888    0.0000 H   0  0  0  0  0  0  0  0  0  0  0  0
    9.8829   -0.3203    0.0000 H   0  0  0  0  0  0  0  0  0  0  0  0
    3.1951   -0.2119    0.0000 H   0  0  0  0  0  0  0  0  0  0  0  0
    4.5981    2.2181    0.0000 H   0  0  0  0  0  0  0  0  0  0  0  0
   10.5565   -3.4895    0.0000 H   0  0  0  0  0  0  0  0  0  0  0  0
   11.4236   -0.8209    0.0000 H   0  0  0  0  0  0  0  0  0  0  0  0
   11.7604   -2.4055    0.0000 H   0  0  0  0  0  0  0  0  0  0  0  0
    2.3100    2.6350    0.0000 H   0  0  0  0  0  0  0  0  0  0  0  0
    1.4631    2.4081    0.0000 H   0  0  0  0  0  0  0  0  0  0  0  0
    1.6900    1.5611    0.0000 H   0  0  0  0  0  0  0  0  0  0  0  0
  1 19  1  0  0  0  0
  2 13  1  0  0  0  0
  2 18  1  0  0  0  0
  3  6  2  0  0  0  0
  3  7  2  0  0  0  0
  3 25  1  0  0  0  0
  3 29  1  0  0  0  0
  4 14  2  0  0  0  0
  5 16  2  0  0  0  0
  8 10  1  0  0  0  0
  8 11  1  0  0  0  0
  8 13  1  0  0  0  0
  8 30  1  0  0  0  0
  9 10  1  0  0  0  0
  9 12  1  0  0  0  0
  9 14  1  0  0  0  0
  9 31  1  0  0  0  0
 10 32  1  0  0  0  0
 10 33  1  0  0  0  0
 11 12  1  0  0  0  0
 11 34  1  0  0  0  0
 11 35  1  0  0  0  0
 12 36  1  0  0  0  0
 12 37  1  0  0  0  0
 13 15  2  0  0  0  0
 14 15  1  0  0  0  0
 15 16  1  0  0  0  0
 16 17  1  0  0  0  0
 17 19  2  0  0  0  0
 17 20  1  0  0  0  0
 18 21  2  0  0  0  0
 18 22  1  0  0  0  0
 19 23  1  0  0  0  0
 20 24  2  0  0  0  0
 20 38  1  0  0  0  0
 21 26  1  0  0  0  0
 21 39  1  0  0  0  0
 22 27  2  0  0  0  0
 22 40  1  0  0  0  0
 23 25  2  0  0  0  0
 23 41  1  0  0  0  0
 24 25  1  0  0  0  0
 24 42  1  0  0  0  0
 26 28  2  0  0  0  0
 26 43  1  0  0  0  0
 27 28  1  0  0  0  0
 27 44  1  0  0  0  0
 28 45  1  0  0  0  0
 29 46  1  0  0  0  0
 29 47  1  0  0  0  0
 29 48  1  0  0  0  0
M  END
> <PUBCHEM_COMPOUND_CID>
11236201

> <PUBCHEM_COMPOUND_CANONICALIZED>
1

> <PUBCHEM_CACTVS_COMPLEXITY>
807

> <PUBCHEM_CACTVS_HBOND_ACCEPTOR>
5

> <PUBCHEM_CACTVS_HBOND_DONOR>
0

> <PUBCHEM_CACTVS_ROTATABLE_BOND>
5

> <PUBCHEM_CACTVS_SUBSKEYS>
AAADceB4OABkAAAAAAAAAAAAAAAAAYAAAAAwYIAABAAAAAABQAAAGgYAAAAADQaA2CCyAYAAAAqIAqBSAHBCAAAkDRAIiBkAAsgIIDKpFxCAIQAggAAojYcIiMCOEAAAABABAAAgAAAAIAIAAQAAAAAAAA==

> <PUBCHEM_IUPAC_OPENEYE_NAME>
3-(2-chloro-4-methylsulfonyl-benzoyl)-2-phenylsulfanyl-bicyclo[3.2.1]oct-2-en-4-one

> <PUBCHEM_IUPAC_CAS_NAME>
3-[(2-chloro-4-methylsulfonylphenyl)-oxomethyl]-2-(phenylthio)-4-bicyclo[3.2.1]oct-2-enone

> <PUBCHEM_IUPAC_NAME>
3-(2-chloro-4-methylsulfonylbenzoyl)-2-phenylsulfanylbicyclo[3.2.1]oct-2-en-4-one

> <PUBCHEM_IUPAC_SYSTEMATIC_NAME>
3-(2-chloranyl-4-methylsulfonyl-phenyl)carbonyl-2-phenylsulfanyl-bicyclo[3.2.1]oct-2-en-4-one

> <PUBCHEM_IUPAC_TRADITIONAL_NAME>
3-(2-chloro-4-mesyl-benzoyl)-2-(phenylthio)bicyclo[3.2.1]oct-2-en-4-one

> <PUBCHEM_IUPAC_INCHI>
InChI=1S/C22H19ClO4S2/c1-29(26,27)16-9-10-17(18(23)12-16)21(25)19-20(24)13-7-8-14(11-13)22(19)28-15-5-3-2-4-6-15/h2-6,9-10,12-14H,7-8,11H2,1H3

> <PUBCHEM_IUPAC_INCHIKEY>
VIXCLRUCUMWJFF-UHFFFAOYSA-N

> <PUBCHEM_XLOGP3_AA>
4.4

> <PUBCHEM_EXACT_MASS>
446.041329

> <PUBCHEM_MOLECULAR_FORMULA>
C22H19ClO4S2

> <PUBCHEM_MOLECULAR_WEIGHT>
446.96686

> <PUBCHEM_OPENEYE_CAN_SMILES>
CS(=O)(=O)C1=CC(=C(C=C1)C(=O)C2=C(C3CCC(C3)C2=O)SC4=CC=CC=C4)Cl

> <PUBCHEM_OPENEYE_ISO_SMILES>
CS(=O)(=O)C1=CC(=C(C=C1)C(=O)C2=C(C3CCC(C3)C2=O)SC4=CC=CC=C4)Cl

> <PUBCHEM_CACTVS_TPSA>
102

> <PUBCHEM_MONOISOTOPIC_WEIGHT>
446.041329

> <PUBCHEM_TOTAL_CHARGE>
0

> <PUBCHEM_HEAVY_ATOM_COUNT>
29

> <PUBCHEM_ATOM_DEF_STEREO_COUNT>
0

> <PUBCHEM_ATOM_UDEF_STEREO_COUNT>
2

> <PUBCHEM_BOND_DEF_STEREO_COUNT>
0

> <PUBCHEM_BOND_UDEF_STEREO_COUNT>
0

> <PUBCHEM_ISOTOPIC_ATOM_COUNT>
0

> <PUBCHEM_COMPONENT_COUNT>
1

> <PUBCHEM_CACTVS_TAUTO_COUNT>
7

> <PUBCHEM_COORDINATE_TYPE>
1
5
255

> <PUBCHEM_BONDANNOTATIONS>
17  19  8
17  20  8
18  21  8
18  22  8
19  23  8
20  24  8
21  26  8
22  27  8
23  25  8
24  25  8
26  28  8
27  28  8
8  30  3
9  31  3

$$$$

