11954087
  -OEChem-07051213063D

 57 60  0     1  0  0  0  0  0999 V2000
    5.8333    1.1955    0.1547 O   0  0  0  0  0  0  0  0  0  0  0  0
   -5.0535   -0.5806   -0.1893 O   0  0  0  0  0  0  0  0  0  0  0  0
   -6.1745    1.2318   -1.0810 O   0  0  0  0  0  0  0  0  0  0  0  0
    3.4451    0.5944    0.2237 C   0  0  1  0  0  0  0  0  0  0  0  0
    2.7329   -0.7145   -0.2005 C   0  0  2  0  0  0  0  0  0  0  0  0
    1.3464   -0.8605    0.4432 C   0  0  1  0  0  0  0  0  0  0  0  0
    0.4696    0.3436   -0.0357 C   0  0  1  0  0  0  0  0  0  0  0  0
    4.8264    0.4078   -0.4773 C   0  0  2  0  0  0  0  0  0  0  0  0
    2.5824    1.7850   -0.2332 C   0  0  0  0  0  0  0  0  0  0  0  0
    3.7873   -1.7866    0.0600 C   0  0  0  0  0  0  0  0  0  0  0  0
   -1.0218    0.1927    0.4286 C   0  0  2  0  0  0  0  0  0  0  0  0
    1.1393    1.6967    0.3046 C   0  0  0  0  0  0  0  0  0  0  0  0
    5.1275   -1.1011   -0.2675 C   0  0  0  0  0  0  0  0  0  0  0  0
    3.6633    0.7134    1.7623 C   0  0  0  0  0  0  0  0  0  0  0  0
    0.6706   -2.1707    0.1317 C   0  0  0  0  0  0  0  0  0  0  0  0
   -1.5560   -1.1466   -0.1051 C   0  0  0  0  0  0  0  0  0  0  0  0
   -1.8750    1.3646   -0.1393 C   0  0  0  0  0  0  0  0  0  0  0  0
    4.8605    0.7658   -1.9686 C   0  0  0  0  0  0  0  0  0  0  0  0
   -1.1396    0.1948    1.9728 C   0  0  0  0  0  0  0  0  0  0  0  0
   -0.6417   -2.2790   -0.1196 C   0  0  0  0  0  0  0  0  0  0  0  0
   -3.3758    1.1144   -0.0088 C   0  0  0  0  0  0  0  0  0  0  0  0
   -2.8010   -1.2863   -0.5984 C   0  0  0  0  0  0  0  0  0  0  0  0
   -3.7960   -0.1695   -0.7193 C   0  0  1  0  0  0  0  0  0  0  0  0
   -6.0513    0.3514   -0.2403 C   0  0  0  0  0  0  0  0  0  0  0  0
   -6.9985    0.1436    0.9023 C   0  0  0  0  0  0  0  0  0  0  0  0
    2.5717   -0.7009   -1.2894 H   0  0  0  0  0  0  0  0  0  0  0  0
    1.4621   -0.8354    1.5318 H   0  0  0  0  0  0  0  0  0  0  0  0
    0.4488    0.3029   -1.1385 H   0  0  0  0  0  0  0  0  0  0  0  0
    2.5212    1.8179   -1.3274 H   0  0  0  0  0  0  0  0  0  0  0  0
    3.0359    2.7325    0.0810 H   0  0  0  0  0  0  0  0  0  0  0  0
    3.6352   -2.6711   -0.5673 H   0  0  0  0  0  0  0  0  0  0  0  0
    3.7744   -2.1178    1.1044 H   0  0  0  0  0  0  0  0  0  0  0  0
    1.1322    1.8674    1.3855 H   0  0  0  0  0  0  0  0  0  0  0  0
    0.5719    2.5209   -0.1413 H   0  0  0  0  0  0  0  0  0  0  0  0
    5.8401   -1.2627    0.5500 H   0  0  0  0  0  0  0  0  0  0  0  0
    5.5724   -1.5500   -1.1632 H   0  0  0  0  0  0  0  0  0  0  0  0
    4.1452    1.6669    2.0094 H   0  0  0  0  0  0  0  0  0  0  0  0
    2.7316    0.6806    2.3322 H   0  0  0  0  0  0  0  0  0  0  0  0
    4.3030   -0.0820    2.1578 H   0  0  0  0  0  0  0  0  0  0  0  0
    1.2717   -3.0755    0.1345 H   0  0  0  0  0  0  0  0  0  0  0  0
   -1.6374    1.5210   -1.2004 H   0  0  0  0  0  0  0  0  0  0  0  0
   -1.6333    2.3011    0.3778 H   0  0  0  0  0  0  0  0  0  0  0  0
    5.8475    0.5448   -2.3928 H   0  0  0  0  0  0  0  0  0  0  0  0
    4.1164    0.2213   -2.5559 H   0  0  0  0  0  0  0  0  0  0  0  0
    4.7084    1.8407   -2.1162 H   0  0  0  0  0  0  0  0  0  0  0  0
   -0.5321   -0.5845    2.4430 H   0  0  0  0  0  0  0  0  0  0  0  0
   -0.8283    1.1561    2.3947 H   0  0  0  0  0  0  0  0  0  0  0  0
   -2.1690    0.0143    2.3020 H   0  0  0  0  0  0  0  0  0  0  0  0
   -1.0473   -3.2597   -0.3548 H   0  0  0  0  0  0  0  0  0  0  0  0
    6.6929    0.9417   -0.2225 H   0  0  0  0  0  0  0  0  0  0  0  0
   -3.6669    1.0919    1.0486 H   0  0  0  0  0  0  0  0  0  0  0  0
   -3.8990    1.9781   -0.4360 H   0  0  0  0  0  0  0  0  0  0  0  0
   -3.1225   -2.2494   -0.9910 H   0  0  0  0  0  0  0  0  0  0  0  0
   -3.9212    0.0259   -1.7929 H   0  0  0  0  0  0  0  0  0  0  0  0
   -6.4660    0.2581    1.8499 H   0  0  0  0  0  0  0  0  0  0  0  0
   -7.4518   -0.8483    0.8322 H   0  0  0  0  0  0  0  0  0  0  0  0
   -7.7927    0.8943    0.8562 H   0  0  0  0  0  0  0  0  0  0  0  0
  1  8  1  0  0  0  0
  1 50  1  0  0  0  0
  2 23  1  0  0  0  0
  2 24  1  0  0  0  0
  3 24  2  0  0  0  0
  4  5  1  0  0  0  0
  4  8  1  0  0  0  0
  4  9  1  0  0  0  0
  4 14  1  0  0  0  0
  5  6  1  0  0  0  0
  5 10  1  0  0  0  0
  5 26  1  0  0  0  0
  6  7  1  0  0  0  0
  6 15  1  0  0  0  0
  6 27  1  0  0  0  0
  7 11  1  0  0  0  0
  7 12  1  0  0  0  0
  7 28  1  0  0  0  0
  8 13  1  0  0  0  0
  8 18  1  0  0  0  0
  9 12  1  0  0  0  0
  9 29  1  0  0  0  0
  9 30  1  0  0  0  0
 10 13  1  0  0  0  0
 10 31  1  0  0  0  0
 10 32  1  0  0  0  0
 11 16  1  0  0  0  0
 11 17  1  0  0  0  0
 11 19  1  0  0  0  0
 12 33  1  0  0  0  0
 12 34  1  0  0  0  0
 13 35  1  0  0  0  0
 13 36  1  0  0  0  0
 14 37  1  0  0  0  0
 14 38  1  0  0  0  0
 14 39  1  0  0  0  0
 15 20  2  0  0  0  0
 15 40  1  0  0  0  0
 16 20  1  0  0  0  0
 16 22  2  0  0  0  0
 17 21  1  0  0  0  0
 17 41  1  0  0  0  0
 17 42  1  0  0  0  0
 18 43  1  0  0  0  0
 18 44  1  0  0  0  0
 18 45  1  0  0  0  0
 19 46  1  0  0  0  0
 19 47  1  0  0  0  0
 19 48  1  0  0  0  0
 20 49  1  0  0  0  0
 21 23  1  0  0  0  0
 21 51  1  0  0  0  0
 21 52  1  0  0  0  0
 22 23  1  0  0  0  0
 22 53  1  0  0  0  0
 23 54  1  0  0  0  0
 24 25  1  0  0  0  0
 25 55  1  0  0  0  0
 25 56  1  0  0  0  0
 25 57  1  0  0  0  0
M  END
> <PUBCHEM_COMPOUND_CID>
11954087

> <PUBCHEM_CONFORMER_RMSD>
0.8

> <PUBCHEM_CONFORMER_DIVERSEORDER>
1
2

> <PUBCHEM_MMFF94_PARTIAL_CHARGES>
17
1 -0.68
11 0.14
15 -0.29
16 -0.14
2 -0.43
20 -0.15
22 -0.29
23 0.42
24 0.66
25 0.06
3 -0.57
40 0.15
49 0.15
50 0.4
53 0.15
6 0.14
8 0.28

> <PUBCHEM_EFFECTIVE_ROTOR_COUNT>
3.6

> <PUBCHEM_PHARMACOPHORE_FEATURES>
7
1 1 acceptor
1 1 donor
1 3 acceptor
5 4 5 8 10 13 rings
6 11 16 17 21 22 23 rings
6 4 5 6 7 9 12 rings
6 6 7 11 15 16 20 rings

> <PUBCHEM_HEAVY_ATOM_COUNT>
25

> <PUBCHEM_ATOM_DEF_STEREO_COUNT>
7

> <PUBCHEM_ATOM_UDEF_STEREO_COUNT>
0

> <PUBCHEM_BOND_DEF_STEREO_COUNT>
0

> <PUBCHEM_BOND_UDEF_STEREO_COUNT>
0

> <PUBCHEM_ISOTOPIC_ATOM_COUNT>
0

> <PUBCHEM_COMPONENT_COUNT>
1

> <PUBCHEM_CACTVS_TAUTO_COUNT>
1

> <PUBCHEM_CONFORMER_ID>
00B667A700000001

> <PUBCHEM_MMFF94_ENERGY>
84.8782

> <PUBCHEM_FEATURE_SELFOVERLAP>
35.613

> <PUBCHEM_SHAPE_FINGERPRINT>
10411042 1 17834678571500767082
10906281 52 18262501659396944543
11578080 2 14475806630192825532
11646440 116 18187079542645827649
11796584 16 15285642079491722871
12011746 2 18334007290281893350
12236239 1 17894348886891866563
12403259 415 18409459089151859145
12592029 89 18343306993609897507
12730499 353 18272646870150337171
12788726 201 17968372441747999417
12838862 33 18338255794179086444
12916748 109 16558752329633277069
13533116 47 17676205814295961638
13583140 156 16773793671443377809
14294032 229 16734927168595389289
14464042 87 17895188930945067529
14790565 3 18410007780040516101
15099037 51 18410576167142647647
15183329 4 18186803595439472621
15196674 1 18410294747905468782
1601671 61 18342461434565474621
17349148 13 17676483956018964640
18222031 100 5761655914471916770
18335252 114 18338247050200600853
18608769 82 18340202977937907819
19489759 90 4967614971328453595
19862831 5 18187081737268262894
200 152 17530965773857645123
21033648 29 18262808349999978666
21267235 1 18337386149517399550
21285901 2 18271242832661757372
21521721 280 18334290951185922299
221357 26 18260831526735235212
22224240 67 14836403632370396041
23402539 116 18260274018863743093
23522609 53 18190996024539308497
23557571 272 14346064347813484090
23559900 14 17895482418776519416
29717793 49 16587737642490906436
3004659 81 18342175609620596158
3178227 256 18339631288073770353
335352 9 18409731759477034550
34934 24 18337678516810552786
350125 39 18409449206748492241
3545911 37 18409730655437979670
4058900 60 18129095792249152259
4073 2 17989200426595047763
4093350 32 16443344243882731184
474 4 17846776299859812222
495365 180 17385736755471741338
5104073 3 18338239378708086761
53794403 172 18196371420622766492
542803 24 17418094308302154293

> <PUBCHEM_SHAPE_MULTIPOLES>
496.88
14.21
1.93
1.2
13.4
0.58
0.19
-3.11
-2.23
-0.84
-0.09
-0.51
-0.29
0

> <PUBCHEM_SHAPE_SELFOVERLAP>
1062.384

> <PUBCHEM_SHAPE_VOLUME>
274.4

> <PUBCHEM_COORDINATE_TYPE>
2
5
10

$$$$

