89853
  -OEChem-07051212483D

 21 21  0     1  0  0  0  0  0999 V2000
   -2.1811    1.7790    0.3953 O   0  0  0  0  0  0  0  0  0  0  0  0
    3.9347    0.1225    0.5268 O   0  0  0  0  0  0  0  0  0  0  0  0
   -3.2885   -0.1119    0.9650 O   0  0  0  0  0  0  0  0  0  0  0  0
   -2.0225   -1.6373   -0.8670 N   0  0  0  0  0  0  0  0  0  0  0  0
   -1.5492   -0.2475   -0.7465 C   0  0  2  0  0  0  0  0  0  0  0  0
   -0.0999   -0.1496   -0.4097 C   0  0  0  0  0  0  0  0  0  0  0  0
    0.7734    0.5120   -1.2729 C   0  0  0  0  0  0  0  0  0  0  0  0
    0.3824   -0.7199    0.7684 C   0  0  0  0  0  0  0  0  0  0  0  0
    2.1291    0.6034   -0.9580 C   0  0  0  0  0  0  0  0  0  0  0  0
    1.7382   -0.6285    1.0834 C   0  0  0  0  0  0  0  0  0  0  0  0
    2.6116    0.0332    0.2202 C   0  0  0  0  0  0  0  0  0  0  0  0
   -2.4283    0.4444    0.2949 C   0  0  0  0  0  0  0  0  0  0  0  0
   -1.7657    0.2413   -1.7043 H   0  0  0  0  0  0  0  0  0  0  0  0
    0.4127    0.9617   -2.1942 H   0  0  0  0  0  0  0  0  0  0  0  0
   -0.2816   -1.2351    1.4574 H   0  0  0  0  0  0  0  0  0  0  0  0
    2.7993    1.1215   -1.6387 H   0  0  0  0  0  0  0  0  0  0  0  0
    2.1080   -1.0735    2.0032 H   0  0  0  0  0  0  0  0  0  0  0  0
   -1.8862   -2.1365    0.0107 H   0  0  0  0  0  0  0  0  0  0  0  0
   -1.4685   -2.1267   -1.5689 H   0  0  0  0  0  0  0  0  0  0  0  0
   -2.7612    2.2083    1.0596 H   0  0  0  0  0  0  0  0  0  0  0  0
    4.3896    0.6124   -0.1797 H   0  0  0  0  0  0  0  0  0  0  0  0
  1 12  1  0  0  0  0
  1 20  1  0  0  0  0
  2 11  1  0  0  0  0
  2 21  1  0  0  0  0
  3 12  2  0  0  0  0
  4  5  1  0  0  0  0
  4 18  1  0  0  0  0
  4 19  1  0  0  0  0
  5  6  1  0  0  0  0
  5 12  1  0  0  0  0
  5 13  1  0  0  0  0
  6  7  2  0  0  0  0
  6  8  1  0  0  0  0
  7  9  1  0  0  0  0
  7 14  1  0  0  0  0
  8 10  2  0  0  0  0
  8 15  1  0  0  0  0
  9 11  2  0  0  0  0
  9 16  1  0  0  0  0
 10 11  1  0  0  0  0
 10 17  1  0  0  0  0
M  END
> <PUBCHEM_COMPOUND_CID>
89853

> <PUBCHEM_CONFORMER_RMSD>
0.6

> <PUBCHEM_CONFORMER_DIVERSEORDER>
1
5
3
2
6
4

> <PUBCHEM_MMFF94_PARTIAL_CHARGES>
20
1 -0.65
10 -0.15
11 0.08
12 0.66
14 0.15
15 0.15
16 0.15
17 0.15
18 0.36
19 0.36
2 -0.53
20 0.5
21 0.45
3 -0.57
4 -0.99
5 0.47
6 -0.14
7 -0.15
8 -0.15
9 -0.15

> <PUBCHEM_EFFECTIVE_ROTOR_COUNT>
2

> <PUBCHEM_PHARMACOPHORE_FEATURES>
7
1 1 acceptor
1 2 donor
1 3 acceptor
1 4 cation
1 4 donor
3 1 3 12 anion
6 6 7 8 9 10 11 rings

> <PUBCHEM_HEAVY_ATOM_COUNT>
12

> <PUBCHEM_ATOM_DEF_STEREO_COUNT>
1

> <PUBCHEM_ATOM_UDEF_STEREO_COUNT>
0

> <PUBCHEM_BOND_DEF_STEREO_COUNT>
0

> <PUBCHEM_BOND_UDEF_STEREO_COUNT>
0

> <PUBCHEM_ISOTOPIC_ATOM_COUNT>
0

> <PUBCHEM_COMPONENT_COUNT>
1

> <PUBCHEM_CACTVS_TAUTO_COUNT>
2

> <PUBCHEM_CONFORMER_ID>
00015EFD00000001

> <PUBCHEM_MMFF94_ENERGY>
26.078

> <PUBCHEM_FEATURE_SELFOVERLAP>
35.58

> <PUBCHEM_SHAPE_FINGERPRINT>
10219947 1 16917065560065438788
11031198 65 14779539089208485049
11471102 22 16558743537977789752
12138202 97 16950574297692190189
124424 183 16805328833438535982
12932764 1 18334298669010057136
13581323 91 18334574633401471151
13839132 238 17604988294096144361
15219456 202 16298378054875345574
15775835 57 18334012830378352481
16945 1 18407758131630555756
17844478 74 16298663876543712191
200 152 17846505786035604539
20201158 50 15482674593243364017
20281407 28 14333402359049571577
20645464 45 17167860868042198063
21061003 4 16200429208271227556
23402539 116 17822023012127719877
25 1 14996554144510539969
2748010 2 17057552480271629670
29004967 10 16487258802393222028
305870 269 18190739928159703247
5084963 1 16271922671128840837

> <PUBCHEM_SHAPE_MULTIPOLES>
224.37
5.05
1.23
1.12
0.77
0.04
-0.08
-0.77
1.02
0.43
0
-1.03
0.09
-0.1

> <PUBCHEM_SHAPE_SELFOVERLAP>
467.681

> <PUBCHEM_SHAPE_VOLUME>
127.4

> <PUBCHEM_COORDINATE_TYPE>
2
5
10

$$$$

