38354
  -OEChem-07051213152D

 37 41  0     1  0  0  0  0  0999 V2000
    2.9178   -1.7678    0.0000 O   0  0  0  0  0  0  0  0  0  0  0  0
    3.7841   -1.2673    0.0000 C   0  0  3  0  0  0  0  0  0  0  0  0
    2.9180   -0.7673    0.0000 C   0  0  3  0  0  0  0  0  0  0  0  0
    4.6501   -0.7673    0.0000 C   0  0  0  0  0  0  0  0  0  0  0  0
    2.9180    0.2327    0.0000 C   0  0  0  0  0  0  0  0  0  0  0  0
    4.6501    0.2327    0.0000 C   0  0  0  0  0  0  0  0  0  0  0  0
    3.7841    0.7327    0.0000 C   0  0  0  0  0  0  0  0  0  0  0  0
    5.5440   -1.3020    0.0000 C   0  0  0  0  0  0  0  0  0  0  0  0
    5.5440    0.7673    0.0000 C   0  0  0  0  0  0  0  0  0  0  0  0
    6.4501   -0.7881    0.0000 C   0  0  0  0  0  0  0  0  0  0  0  0
    6.4501    0.2535    0.0000 C   0  0  0  0  0  0  0  0  0  0  0  0
    2.0080    0.7395    0.0000 C   0  0  0  0  0  0  0  0  0  0  0  0
    3.8001    1.7742    0.0000 C   0  0  0  0  0  0  0  0  0  0  0  0
    5.5325   -2.3019    0.0000 C   0  0  0  0  0  0  0  0  0  0  0  0
    5.5325    1.7673    0.0000 C   0  0  0  0  0  0  0  0  0  0  0  0
    2.0000    1.7811    0.0000 C   0  0  0  0  0  0  0  0  0  0  0  0
    2.9021    2.3019    0.0000 C   0  0  0  0  0  0  0  0  0  0  0  0
    7.3812   -1.3451    0.0000 C   0  0  0  0  0  0  0  0  0  0  0  0
    7.3812    0.8104    0.0000 C   0  0  0  0  0  0  0  0  0  0  0  0
    8.3250   -0.8098    0.0000 C   0  0  0  0  0  0  0  0  0  0  0  0
    8.3250    0.2752    0.0000 C   0  0  0  0  0  0  0  0  0  0  0  0
    4.0941   -1.8042    0.0000 H   0  0  0  0  0  0  0  0  0  0  0  0
    2.2980   -0.7673    0.0000 H   0  0  0  0  0  0  0  0  0  0  0  0
    1.4747    0.4233    0.0000 H   0  0  0  0  0  0  0  0  0  0  0  0
    4.3406    2.0779    0.0000 H   0  0  0  0  0  0  0  0  0  0  0  0
    4.9125   -2.2948    0.0000 H   0  0  0  0  0  0  0  0  0  0  0  0
    5.5253   -2.9219    0.0000 H   0  0  0  0  0  0  0  0  0  0  0  0
    6.1524   -2.3091    0.0000 H   0  0  0  0  0  0  0  0  0  0  0  0
    6.1524    1.7744    0.0000 H   0  0  0  0  0  0  0  0  0  0  0  0
    5.5253    2.3872    0.0000 H   0  0  0  0  0  0  0  0  0  0  0  0
    4.9125    1.7601    0.0000 H   0  0  0  0  0  0  0  0  0  0  0  0
    1.4619    2.0890    0.0000 H   0  0  0  0  0  0  0  0  0  0  0  0
    2.9045    2.9219    0.0000 H   0  0  0  0  0  0  0  0  0  0  0  0
    7.3741   -1.9650    0.0000 H   0  0  0  0  0  0  0  0  0  0  0  0
    7.3741    1.4304    0.0000 H   0  0  0  0  0  0  0  0  0  0  0  0
    8.8608   -1.1219    0.0000 H   0  0  0  0  0  0  0  0  0  0  0  0
    8.8608    0.5872    0.0000 H   0  0  0  0  0  0  0  0  0  0  0  0
  1  2  1  0  0  0  0
  1  3  1  0  0  0  0
  2  3  1  0  0  0  0
  2  4  1  0  0  0  0
  2 22  1  0  0  0  0
  3  5  1  0  0  0  0
  3 23  1  0  0  0  0
  4  6  1  0  0  0  0
  4  8  2  0  0  0  0
  5  7  1  0  0  0  0
  5 12  2  0  0  0  0
  6  7  1  0  0  0  0
  6  9  2  0  0  0  0
  7 13  2  0  0  0  0
  8 10  1  0  0  0  0
  8 14  1  0  0  0  0
  9 11  1  0  0  0  0
  9 15  1  0  0  0  0
 10 11  1  0  0  0  0
 10 18  2  0  0  0  0
 11 19  2  0  0  0  0
 12 16  1  0  0  0  0
 12 24  1  0  0  0  0
 13 17  1  0  0  0  0
 13 25  1  0  0  0  0
 14 26  1  0  0  0  0
 14 27  1  0  0  0  0
 14 28  1  0  0  0  0
 15 29  1  0  0  0  0
 15 30  1  0  0  0  0
 15 31  1  0  0  0  0
 16 17  2  0  0  0  0
 16 32  1  0  0  0  0
 17 33  1  0  0  0  0
 18 20  1  0  0  0  0
 18 34  1  0  0  0  0
 19 21  1  0  0  0  0
 19 35  1  0  0  0  0
 20 21  2  0  0  0  0
 20 36  1  0  0  0  0
 21 37  1  0  0  0  0
M  END
> <PUBCHEM_COMPOUND_CID>
38354

> <PUBCHEM_COMPOUND_CANONICALIZED>
1

> <PUBCHEM_CACTVS_COMPLEXITY>
418

> <PUBCHEM_CACTVS_HBOND_ACCEPTOR>
1

> <PUBCHEM_CACTVS_HBOND_DONOR>
0

> <PUBCHEM_CACTVS_ROTATABLE_BOND>
0

> <PUBCHEM_CACTVS_SUBSKEYS>
AAADceB4IAAAAAAAAAAAAAAAEgAAAAAAAAAwYMGABIAAAADBVAAAGgAAAAAADBSgmAIyAMAABACAAiBCAAACAAAgAAAIiAAACIgIJiKAMRiCMAAkwAEIqAeAwPAOwAACAAAQAADAAAYAADAAAAAAAAAAAA==

> <PUBCHEM_IUPAC_INCHI>
InChI=1S/C20H16O/c1-11-13-7-3-4-8-14(13)12(2)18-17(11)15-9-5-6-10-16(15)19-20(18)21-19/h3-10,19-20H,1-2H3

> <PUBCHEM_IUPAC_INCHIKEY>
HVGNLIKFFBYBQM-UHFFFAOYSA-N

> <PUBCHEM_XLOGP3_AA>
4.6

> <PUBCHEM_EXACT_MASS>
272.120115

> <PUBCHEM_MOLECULAR_FORMULA>
C20H16O

> <PUBCHEM_MOLECULAR_WEIGHT>
272.34044

> <PUBCHEM_OPENEYE_CAN_SMILES>
CC1=C2C3C(O3)C4=CC=CC=C4C2=C(C5=CC=CC=C15)C

> <PUBCHEM_OPENEYE_ISO_SMILES>
CC1=C2C3C(O3)C4=CC=CC=C4C2=C(C5=CC=CC=C15)C

> <PUBCHEM_CACTVS_TPSA>
12.5

> <PUBCHEM_MONOISOTOPIC_WEIGHT>
272.120115

> <PUBCHEM_TOTAL_CHARGE>
0

> <PUBCHEM_HEAVY_ATOM_COUNT>
21

> <PUBCHEM_ATOM_DEF_STEREO_COUNT>
0

> <PUBCHEM_ATOM_UDEF_STEREO_COUNT>
2

> <PUBCHEM_BOND_DEF_STEREO_COUNT>
0

> <PUBCHEM_BOND_UDEF_STEREO_COUNT>
0

> <PUBCHEM_ISOTOPIC_ATOM_COUNT>
0

> <PUBCHEM_COMPONENT_COUNT>
1

> <PUBCHEM_CACTVS_TAUTO_COUNT>
1

> <PUBCHEM_COORDINATE_TYPE>
1
5
255

> <PUBCHEM_BONDANNOTATIONS>
2  1  3
3  1  3
10  11  8
10  18  8
11  19  8
12  16  8
13  17  8
16  17  8
18  20  8
19  21  8
20  21  8
4  6  8
4  8  8
5  12  8
5  7  8
6  9  8
7  13  8
8  10  8
9  11  8

$$$$

