65545
  -OEChem-07051213053D

 50 53  0     1  0  0  0  0  0999 V2000
    4.7560   -1.3217    0.5256 O   0  0  0  0  0  0  0  0  0  0  0  0
    4.5207    1.7861    1.3798 O   0  0  0  0  0  0  0  0  0  0  0  0
   -5.2632    0.4502    1.6930 O   0  0  0  0  0  0  0  0  0  0  0  0
    1.6796    0.5833    0.1023 C   0  0  2  0  0  0  0  0  0  0  0  0
    2.4204   -0.7636   -0.0192 C   0  0  2  0  0  0  0  0  0  0  0  0
    0.3452    0.5892   -0.6499 C   0  0  1  0  0  0  0  0  0  0  0  0
   -0.5743   -0.5329   -0.0442 C   0  0  1  0  0  0  0  0  0  0  0  0
   -1.9893   -0.5529   -0.7284 C   0  0  2  0  0  0  0  0  0  0  0  0
    1.5477   -1.8490    0.6237 C   0  0  0  0  0  0  0  0  0  0  0  0
    0.1464   -1.9063   -0.0133 C   0  0  0  0  0  0  0  0  0  0  0  0
    3.6963   -0.4138    0.7696 C   0  0  2  0  0  0  0  0  0  0  0  0
    2.7458    1.6164   -0.2638 C   0  0  0  0  0  0  0  0  0  0  0  0
   -0.3335    1.9707   -0.5938 C   0  0  0  0  0  0  0  0  0  0  0  0
    4.0513    1.0083    0.2863 C   0  0  1  0  0  0  0  0  0  0  0  0
   -2.5488    0.8668   -0.5691 C   0  0  0  0  0  0  0  0  0  0  0  0
    2.7758   -1.1808   -1.4691 C   0  0  0  0  0  0  0  0  0  0  0  0
   -1.7332    1.9611   -1.2116 C   0  0  0  0  0  0  0  0  0  0  0  0
   -2.9664   -1.5863   -0.0984 C   0  0  0  0  0  0  0  0  0  0  0  0
   -1.8976   -0.9361   -2.2275 C   0  0  0  0  0  0  0  0  0  0  0  0
   -3.5346   -1.1483    1.2390 C   0  0  0  0  0  0  0  0  0  0  0  0
   -3.6038    1.1871    0.1985 C   0  0  0  0  0  0  0  0  0  0  0  0
   -4.2408    0.1726    1.0707 C   0  0  0  0  0  0  0  0  0  0  0  0
    1.4438    0.7566    1.1659 H   0  0  0  0  0  0  0  0  0  0  0  0
    0.5386    0.3728   -1.7056 H   0  0  0  0  0  0  0  0  0  0  0  0
   -0.7330   -0.2627    1.0118 H   0  0  0  0  0  0  0  0  0  0  0  0
    1.4326   -1.6504    1.6973 H   0  0  0  0  0  0  0  0  0  0  0  0
    2.0282   -2.8314    0.5427 H   0  0  0  0  0  0  0  0  0  0  0  0
    0.2252   -2.3167   -1.0249 H   0  0  0  0  0  0  0  0  0  0  0  0
   -0.4426   -2.6246    0.5667 H   0  0  0  0  0  0  0  0  0  0  0  0
    3.5103   -0.4100    1.8514 H   0  0  0  0  0  0  0  0  0  0  0  0
    2.8115    1.7282   -1.3520 H   0  0  0  0  0  0  0  0  0  0  0  0
    2.5240    2.5988    0.1656 H   0  0  0  0  0  0  0  0  0  0  0  0
    0.2796    2.7114   -1.1206 H   0  0  0  0  0  0  0  0  0  0  0  0
   -0.4017    2.3043    0.4503 H   0  0  0  0  0  0  0  0  0  0  0  0
    4.8337    1.0083   -0.4804 H   0  0  0  0  0  0  0  0  0  0  0  0
    3.4374   -0.4614   -1.9618 H   0  0  0  0  0  0  0  0  0  0  0  0
    3.2910   -2.1484   -1.4771 H   0  0  0  0  0  0  0  0  0  0  0  0
    1.8942   -1.2884   -2.1065 H   0  0  0  0  0  0  0  0  0  0  0  0
   -1.6774    1.8135   -2.2953 H   0  0  0  0  0  0  0  0  0  0  0  0
   -2.1926    2.9460   -1.0628 H   0  0  0  0  0  0  0  0  0  0  0  0
   -2.5004   -2.5715    0.0010 H   0  0  0  0  0  0  0  0  0  0  0  0
   -3.8169   -1.7372   -0.7805 H   0  0  0  0  0  0  0  0  0  0  0  0
   -1.1694   -0.3422   -2.7854 H   0  0  0  0  0  0  0  0  0  0  0  0
   -1.6180   -1.9883   -2.3514 H   0  0  0  0  0  0  0  0  0  0  0  0
   -2.8651   -0.7982   -2.7261 H   0  0  0  0  0  0  0  0  0  0  0  0
   -2.7585   -1.0459    2.0035 H   0  0  0  0  0  0  0  0  0  0  0  0
   -4.2620   -1.8908    1.5848 H   0  0  0  0  0  0  0  0  0  0  0  0
   -3.9581    2.2076    0.2956 H   0  0  0  0  0  0  0  0  0  0  0  0
    4.4562   -2.2028    0.8068 H   0  0  0  0  0  0  0  0  0  0  0  0
    5.3111    1.3431    1.7328 H   0  0  0  0  0  0  0  0  0  0  0  0
  1 11  1  0  0  0  0
  1 49  1  0  0  0  0
  2 14  1  0  0  0  0
  2 50  1  0  0  0  0
  3 22  2  0  0  0  0
  4  5  1  0  0  0  0
  4  6  1  0  0  0  0
  4 12  1  0  0  0  0
  4 23  1  0  0  0  0
  5  9  1  0  0  0  0
  5 11  1  0  0  0  0
  5 16  1  0  0  0  0
  6  7  1  0  0  0  0
  6 13  1  0  0  0  0
  6 24  1  0  0  0  0
  7  8  1  0  0  0  0
  7 10  1  0  0  0  0
  7 25  1  0  0  0  0
  8 15  1  0  0  0  0
  8 18  1  0  0  0  0
  8 19  1  0  0  0  0
  9 10  1  0  0  0  0
  9 26  1  0  0  0  0
  9 27  1  0  0  0  0
 10 28  1  0  0  0  0
 10 29  1  0  0  0  0
 11 14  1  0  0  0  0
 11 30  1  0  0  0  0
 12 14  1  0  0  0  0
 12 31  1  0  0  0  0
 12 32  1  0  0  0  0
 13 17  1  0  0  0  0
 13 33  1  0  0  0  0
 13 34  1  0  0  0  0
 14 35  1  0  0  0  0
 15 17  1  0  0  0  0
 15 21  2  0  0  0  0
 16 36  1  0  0  0  0
 16 37  1  0  0  0  0
 16 38  1  0  0  0  0
 17 39  1  0  0  0  0
 17 40  1  0  0  0  0
 18 20  1  0  0  0  0
 18 41  1  0  0  0  0
 18 42  1  0  0  0  0
 19 43  1  0  0  0  0
 19 44  1  0  0  0  0
 19 45  1  0  0  0  0
 20 22  1  0  0  0  0
 20 46  1  0  0  0  0
 20 47  1  0  0  0  0
 21 22  1  0  0  0  0
 21 48  1  0  0  0  0
M  END
> <PUBCHEM_COMPOUND_CID>
65545

> <PUBCHEM_CONFORMER_RMSD>
0.6

> <PUBCHEM_CONFORMER_DIVERSEORDER>
1

> <PUBCHEM_MMFF94_PARTIAL_CHARGES>
14
1 -0.68
11 0.28
14 0.28
15 -0.28
17 0.14
2 -0.68
20 0.06
21 -0.14
22 0.49
3 -0.57
48 0.15
49 0.4
50 0.4
8 0.14

> <PUBCHEM_EFFECTIVE_ROTOR_COUNT>
1.8

> <PUBCHEM_PHARMACOPHORE_FEATURES>
9
1 1 acceptor
1 1 donor
1 2 acceptor
1 2 donor
1 3 acceptor
5 4 5 11 12 14 rings
6 4 5 6 7 9 10 rings
6 6 7 8 13 15 17 rings
6 8 15 18 20 21 22 rings

> <PUBCHEM_HEAVY_ATOM_COUNT>
22

> <PUBCHEM_ATOM_DEF_STEREO_COUNT>
7

> <PUBCHEM_ATOM_UDEF_STEREO_COUNT>
0

> <PUBCHEM_BOND_DEF_STEREO_COUNT>
0

> <PUBCHEM_BOND_UDEF_STEREO_COUNT>
0

> <PUBCHEM_ISOTOPIC_ATOM_COUNT>
0

> <PUBCHEM_COMPONENT_COUNT>
1

> <PUBCHEM_CACTVS_TAUTO_COUNT>
5

> <PUBCHEM_CONFORMER_ID>
0001000900000001

> <PUBCHEM_MMFF94_ENERGY>
75.0626

> <PUBCHEM_FEATURE_SELFOVERLAP>
45.787

> <PUBCHEM_SHAPE_FINGERPRINT>
11132069 177 18343018883008609509
11796584 16 15195564581355324105
11961588 58 4750866018824241537
12236239 1 18113342990373582319
12251169 10 18411973672708215377
12403259 415 18412831300357629524
12403814 3 18410862053414781093
12553582 1 18131623474643611935
12633257 1 18113341916114676616
12714826 92 16558755615768490303
12892183 10 18335405890605374249
13140716 1 18412824659736452489
13214271 11 18342461439303469149
13224815 77 18412832373576863430
13571099 22 9151172056203560154
13583140 156 18129392651096785375
13675066 3 18411983572038308812
14178342 30 17703234047441759164
14223421 5 18200032987557876543
14289901 80 15267349547664107030
14341114 176 18272646874661159904
14790565 3 17911221833229075940
15163728 17 15503474106894515577
15196674 1 18413112753479357748
15209289 33 17560796654048809003
15209294 21 18186799149858171057
15309172 13 18413109467877186863
16752209 62 6988056625658841702
16945 1 18269281333718701639
17349148 13 16056879152197816912
1813 80 16415469429395232551
18186145 218 18408888442885575198
19784866 170 18413383237429114045
19862831 5 8286203842207295765
200 152 18265066760227443583
20261772 1 18412260631746298323
20739085 24 18343008995930986956
21637258 2 15194996099731997225
22182313 1 18270685392787386269
23184049 59 18410004438460663557
23503953 91 17748832929428784378
23557571 272 16701748266564749695
23559900 14 17773310347243633902
2748010 2 18341622558870323900
2838139 119 15286758230535161625
296302 2 17313106332506815868
3286 77 13110971894441166388
34934 24 18341339963281675509
350125 39 18341046398183139956
463206 1 12823003176446077841
5104073 3 18335990787535911786
633830 44 18113618958991112606
76465 3 13758358860033376617

> <PUBCHEM_SHAPE_MULTIPOLES>
435.14
8.97
2.14
1.44
0.86
0.23
-0.31
0.67
4.39
0.47
-0.12
-0.81
-0.12
0.46

> <PUBCHEM_SHAPE_SELFOVERLAP>
935.058

> <PUBCHEM_SHAPE_VOLUME>
238.1

> <PUBCHEM_COORDINATE_TYPE>
2
5
10

$$$$

