13926
  -OEChem-06241222413D

 26 28  0     0  0  0  0  0  0999 V2000
   -0.1377    1.2999    0.0010 O   0  0  0  0  0  0  0  0  0  0  0  0
    1.5650    2.7915   -0.0025 O   0  0  0  0  0  0  0  0  0  0  0  0
    0.2531   -1.0329    0.0027 N   0  0  0  0  0  0  0  0  0  0  0  0
    2.1307    0.5052   -0.0002 C   0  0  0  0  0  0  0  0  0  0  0  0
    1.6270   -0.7918    0.0016 C   0  0  0  0  0  0  0  0  0  0  0  0
   -0.5264   -0.0015    0.0036 C   0  0  0  0  0  0  0  0  0  0  0  0
   -2.0059   -0.1108    0.0013 C   0  0  0  0  0  0  0  0  0  0  0  0
    3.5096    0.7392   -0.0020 C   0  0  0  0  0  0  0  0  0  0  0  0
    1.1817    1.6291   -0.0003 C   0  0  0  0  0  0  0  0  0  0  0  0
    2.5196   -1.8685    0.0016 C   0  0  0  0  0  0  0  0  0  0  0  0
   -2.6182   -1.3675   -0.0021 C   0  0  0  0  0  0  0  0  0  0  0  0
   -2.7964    1.0419    0.0030 C   0  0  0  0  0  0  0  0  0  0  0  0
    4.3913   -0.3408   -0.0022 C   0  0  0  0  0  0  0  0  0  0  0  0
    3.8972   -1.6440   -0.0003 C   0  0  0  0  0  0  0  0  0  0  0  0
   -4.0092   -1.4705   -0.0040 C   0  0  0  0  0  0  0  0  0  0  0  0
   -4.1875    0.9389    0.0011 C   0  0  0  0  0  0  0  0  0  0  0  0
   -4.7939   -0.3174   -0.0024 C   0  0  0  0  0  0  0  0  0  0  0  0
    3.9114    1.7485   -0.0034 H   0  0  0  0  0  0  0  0  0  0  0  0
    2.1467   -2.8898    0.0028 H   0  0  0  0  0  0  0  0  0  0  0  0
   -2.0306   -2.2818   -0.0033 H   0  0  0  0  0  0  0  0  0  0  0  0
   -2.3669    2.0399    0.0060 H   0  0  0  0  0  0  0  0  0  0  0  0
    5.4634   -0.1666   -0.0036 H   0  0  0  0  0  0  0  0  0  0  0  0
    4.5840   -2.4853   -0.0003 H   0  0  0  0  0  0  0  0  0  0  0  0
   -4.4817   -2.4485   -0.0066 H   0  0  0  0  0  0  0  0  0  0  0  0
   -4.7992    1.8364    0.0025 H   0  0  0  0  0  0  0  0  0  0  0  0
   -5.8770   -0.3975   -0.0038 H   0  0  0  0  0  0  0  0  0  0  0  0
  1  6  1  0  0  0  0
  1  9  1  0  0  0  0
  2  9  2  0  0  0  0
  3  5  1  0  0  0  0
  3  6  2  0  0  0  0
  4  5  1  0  0  0  0
  4  8  2  0  0  0  0
  4  9  1  0  0  0  0
  5 10  2  0  0  0  0
  6  7  1  0  0  0  0
  7 11  2  0  0  0  0
  7 12  1  0  0  0  0
  8 13  1  0  0  0  0
  8 18  1  0  0  0  0
 10 14  1  0  0  0  0
 10 19  1  0  0  0  0
 11 15  1  0  0  0  0
 11 20  1  0  0  0  0
 12 16  2  0  0  0  0
 12 21  1  0  0  0  0
 13 14  2  0  0  0  0
 13 22  1  0  0  0  0
 14 23  1  0  0  0  0
 15 17  2  0  0  0  0
 15 24  1  0  0  0  0
 16 17  1  0  0  0  0
 16 25  1  0  0  0  0
 17 26  1  0  0  0  0
M  END
> <PUBCHEM_COMPOUND_CID>
13926

> <PUBCHEM_CONFORMER_RMSD>
0.6

> <PUBCHEM_CONFORMER_DIVERSEORDER>
1
2

> <PUBCHEM_MMFF94_PARTIAL_CHARGES>
26
1 -0.3
10 -0.15
11 -0.15
12 -0.15
13 -0.15
14 -0.15
15 -0.15
16 -0.15
17 -0.15
18 0.15
19 0.15
2 -0.57
20 0.15
21 0.15
22 0.15
23 0.15
24 0.15
25 0.15
26 0.15
3 -0.63
4 0.09
5 0.18
6 0.51
7 0.09
8 -0.15
9 0.63

> <PUBCHEM_EFFECTIVE_ROTOR_COUNT>
1

> <PUBCHEM_PHARMACOPHORE_FEATURES>
4
1 2 acceptor
6 1 3 4 5 6 9 rings
6 4 5 8 10 13 14 rings
6 7 11 12 15 16 17 rings

> <PUBCHEM_HEAVY_ATOM_COUNT>
17

> <PUBCHEM_ATOM_DEF_STEREO_COUNT>
0

> <PUBCHEM_ATOM_UDEF_STEREO_COUNT>
0

> <PUBCHEM_BOND_DEF_STEREO_COUNT>
0

> <PUBCHEM_BOND_UDEF_STEREO_COUNT>
0

> <PUBCHEM_ISOTOPIC_ATOM_COUNT>
0

> <PUBCHEM_COMPONENT_COUNT>
1

> <PUBCHEM_CACTVS_TAUTO_COUNT>
1

> <PUBCHEM_CONFORMER_ID>
0000366600000001

> <PUBCHEM_MMFF94_ENERGY>
55.2016

> <PUBCHEM_FEATURE_SELFOVERLAP>
20.328

> <PUBCHEM_SHAPE_FINGERPRINT>
10608611 8 18412548678513829053
10616163 171 18263361395891326927
10967382 1 18410855477566695202
11471102 20 18411421700205893004
116883 192 18118679065978496508
11806522 49 18412544297114099342
12032990 46 18409727404543511950
12251169 10 18408603652114977655
13167823 11 18408887330304766887
13675066 3 18186525388415773097
138480 1 18338517430649551057
14115302 16 17775272859566550678
14252887 29 17967807280308393910
14341114 176 18409440384827247835
14866123 147 17254269540974875778
15196674 1 18410856568229730663
15375462 189 18130791217018570354
15442244 35 18337388343944825641
15536298 74 18334859389817546528
17492 89 18337673001614362415
17802600 8 18412830174859738309
17804303 29 18411978074807081277
17834074 16 18412825763796508395
1813 80 17346877866429415612
18186145 218 17703798002797121315
18522853 276 18334858324681474961
200 152 18113623374396847151
20645477 70 18408604772801145007
21267235 1 18409720785798734526
21421861 104 17700135692578708626
21501925 9 18409453578697775218
221490 88 18269548347593501363
2255824 54 18268708325189464068
23402539 116 18336272318426408806
23402655 69 18410293626882074879
23463225 33 18410011043793239300
23559900 14 18408891723792163985
2871803 45 18272374199756135334
3004659 81 18130504253791320054
335352 9 18338517572736075125
34934 24 18410581720667385938
3545911 37 18410011039899166043
4214541 1 18410575110965743077
4921388 177 16271633504446166883
5104073 3 18409448085582284555
7364860 26 18335985246906903320
77779 3 18411135840162667983
8809292 202 18272647926907282371
9709674 26 18341047398552096795
9981440 41 17546733646789937816

> <PUBCHEM_SHAPE_MULTIPOLES>
333.13
9.19
2.08
0.6
3.82
0.58
0
-2.26
0.01
-0.87
0
0.01
-0.02
0

> <PUBCHEM_SHAPE_SELFOVERLAP>
744.337

> <PUBCHEM_SHAPE_VOLUME>
174

> <PUBCHEM_COORDINATE_TYPE>
2
5
10

$$$$

