443048
  -OEChem-07051213002D

 52 54  0     0  0  0  0  0  0999 V2000
    9.2619   -1.7204    0.0000 Cl  0  0  0  0  0  0  0  0  0  0  0  0
    6.2619   -3.4525    0.0000 F   0  0  0  0  0  0  0  0  0  0  0  0
    4.9889   -3.4757    0.0000 O   0  0  0  0  0  0  0  0  0  0  0  0
    4.9889    0.0348    0.0000 O   0  0  0  0  0  0  0  0  0  0  0  0
    8.2619    0.0116    0.0000 O   0  0  0  0  0  0  0  0  0  0  0  0
   10.7619    0.8776    0.0000 O   0  0  0  0  0  0  0  0  0  0  0  0
    9.2619    1.7436    0.0000 O   0  0  0  0  0  0  0  0  0  0  0  0
    5.2619   -1.7204    0.0000 N   0  0  0  0  0  0  0  0  0  0  0  0
    2.0000   -2.2204    0.0000 C   0  0  0  0  0  0  0  0  0  0  0  0
    2.0000   -1.2204    0.0000 C   0  0  0  0  0  0  0  0  0  0  0  0
    2.8660   -2.7204    0.0000 C   0  0  0  0  0  0  0  0  0  0  0  0
    2.8660   -0.7204    0.0000 C   0  0  0  0  0  0  0  0  0  0  0  0
    3.7320   -2.2204    0.0000 C   0  0  0  0  0  0  0  0  0  0  0  0
    3.7320   -1.2204    0.0000 C   0  0  0  0  0  0  0  0  0  0  0  0
    4.6783   -2.5252    0.0000 C   0  0  0  0  0  0  0  0  0  0  0  0
    4.6783   -0.9157    0.0000 C   0  0  0  0  0  0  0  0  0  0  0  0
    6.2619   -1.7204    0.0000 C   0  0  0  0  0  0  0  0  0  0  0  0
    6.7619   -0.8544    0.0000 C   0  0  0  0  0  0  0  0  0  0  0  0
    6.7619   -2.5865    0.0000 C   0  0  0  0  0  0  0  0  0  0  0  0
    7.7619   -0.8544    0.0000 C   0  0  0  0  0  0  0  0  0  0  0  0
   12.7619    2.6097    0.0000 C   0  0  0  0  0  0  0  0  0  0  0  0
    7.7619   -2.5865    0.0000 C   0  0  0  0  0  0  0  0  0  0  0  0
   12.2619    1.7436    0.0000 C   0  0  0  0  0  0  0  0  0  0  0  0
    8.2619   -1.7204    0.0000 C   0  0  0  0  0  0  0  0  0  0  0  0
   13.7619    2.6097    0.0000 C   0  0  0  0  0  0  0  0  0  0  0  0
   11.2619    1.7436    0.0000 C   0  0  0  0  0  0  0  0  0  0  0  0
   14.2619    3.4757    0.0000 C   0  0  0  0  0  0  0  0  0  0  0  0
    9.2619    0.0116    0.0000 C   0  0  0  0  0  0  0  0  0  0  0  0
    9.7619    0.8776    0.0000 C   0  0  0  0  0  0  0  0  0  0  0  0
    1.3894   -2.1128    0.0000 H   0  0  0  0  0  0  0  0  0  0  0  0
    1.7880   -2.8031    0.0000 H   0  0  0  0  0  0  0  0  0  0  0  0
    1.7880   -0.6378    0.0000 H   0  0  0  0  0  0  0  0  0  0  0  0
    1.3894   -1.3281    0.0000 H   0  0  0  0  0  0  0  0  0  0  0  0
    2.4675   -3.1954    0.0000 H   0  0  0  0  0  0  0  0  0  0  0  0
    3.2646   -3.1954    0.0000 H   0  0  0  0  0  0  0  0  0  0  0  0
    3.2646   -0.2455    0.0000 H   0  0  0  0  0  0  0  0  0  0  0  0
    2.4675   -0.2455    0.0000 H   0  0  0  0  0  0  0  0  0  0  0  0
    6.4519   -0.3175    0.0000 H   0  0  0  0  0  0  0  0  0  0  0  0
   12.8695    3.2203    0.0000 H   0  0  0  0  0  0  0  0  0  0  0  0
   12.1793    2.8217    0.0000 H   0  0  0  0  0  0  0  0  0  0  0  0
   12.1542    1.1331    0.0000 H   0  0  0  0  0  0  0  0  0  0  0  0
   12.8445    1.5316    0.0000 H   0  0  0  0  0  0  0  0  0  0  0  0
    8.0719   -3.1234    0.0000 H   0  0  0  0  0  0  0  0  0  0  0  0
   13.6542    1.9991    0.0000 H   0  0  0  0  0  0  0  0  0  0  0  0
   14.3445    2.3976    0.0000 H   0  0  0  0  0  0  0  0  0  0  0  0
   11.3695    2.3542    0.0000 H   0  0  0  0  0  0  0  0  0  0  0  0
   10.6793    1.9557    0.0000 H   0  0  0  0  0  0  0  0  0  0  0  0
   14.7988    3.1657    0.0000 H   0  0  0  0  0  0  0  0  0  0  0  0
   14.5719    4.0126    0.0000 H   0  0  0  0  0  0  0  0  0  0  0  0
   13.7249    3.7857    0.0000 H   0  0  0  0  0  0  0  0  0  0  0  0
    9.1542   -0.5990    0.0000 H   0  0  0  0  0  0  0  0  0  0  0  0
    9.8445   -0.2005    0.0000 H   0  0  0  0  0  0  0  0  0  0  0  0
  1 24  1  0  0  0  0
  2 19  1  0  0  0  0
  3 15  2  0  0  0  0
  4 16  2  0  0  0  0
  5 20  1  0  0  0  0
  5 28  1  0  0  0  0
  6 26  1  0  0  0  0
  6 29  1  0  0  0  0
  7 29  2  0  0  0  0
  8 15  1  0  0  0  0
  8 16  1  0  0  0  0
  8 17  1  0  0  0  0
  9 10  1  0  0  0  0
  9 11  1  0  0  0  0
  9 30  1  0  0  0  0
  9 31  1  0  0  0  0
 10 12  1  0  0  0  0
 10 32  1  0  0  0  0
 10 33  1  0  0  0  0
 11 13  1  0  0  0  0
 11 34  1  0  0  0  0
 11 35  1  0  0  0  0
 12 14  1  0  0  0  0
 12 36  1  0  0  0  0
 12 37  1  0  0  0  0
 13 14  2  0  0  0  0
 13 15  1  0  0  0  0
 14 16  1  0  0  0  0
 17 18  2  0  0  0  0
 17 19  1  0  0  0  0
 18 20  1  0  0  0  0
 18 38  1  0  0  0  0
 19 22  2  0  0  0  0
 20 24  2  0  0  0  0
 21 23  1  0  0  0  0
 21 25  1  0  0  0  0
 21 39  1  0  0  0  0
 21 40  1  0  0  0  0
 22 24  1  0  0  0  0
 22 43  1  0  0  0  0
 23 26  1  0  0  0  0
 23 41  1  0  0  0  0
 23 42  1  0  0  0  0
 25 27  1  0  0  0  0
 25 44  1  0  0  0  0
 25 45  1  0  0  0  0
 26 46  1  0  0  0  0
 26 47  1  0  0  0  0
 27 48  1  0  0  0  0
 27 49  1  0  0  0  0
 27 50  1  0  0  0  0
 28 29  1  0  0  0  0
 28 51  1  0  0  0  0
 28 52  1  0  0  0  0
M  END
> <PUBCHEM_COMPOUND_CID>
443048

> <PUBCHEM_COMPOUND_CANONICALIZED>
1

> <PUBCHEM_CACTVS_COMPLEXITY>
654

> <PUBCHEM_CACTVS_HBOND_ACCEPTOR>
6

> <PUBCHEM_CACTVS_HBOND_DONOR>
0

> <PUBCHEM_CACTVS_ROTATABLE_BOND>
9

> <PUBCHEM_CACTVS_SUBSKEYS>
AAADceB6OQAEAAAAAAAAAAAAAAAAAQAAAAAwQAAAAAAAAFgBAAAAHwIAAAAADA6hkCoyzoMABACIAiXSWAKCCAAhJ0AAiAFGb8gNJjPFsp+GOCjmxDnK6QeY2IOAAABAAgAACAAAAIAEAAAQAAAAAAAAAA==

> <PUBCHEM_IUPAC_OPENEYE_NAME>
pentyl 2-[2-chloro-5-(1,3-dioxo-4,5,6,7-tetrahydroisoindol-2-yl)-4-fluoro-phenoxy]acetate

> <PUBCHEM_IUPAC_CAS_NAME>
2-[2-chloro-5-(1,3-dioxo-4,5,6,7-tetrahydroisoindol-2-yl)-4-fluorophenoxy]acetic acid pentyl ester

> <PUBCHEM_IUPAC_NAME>
pentyl 2-[2-chloro-5-(1,3-dioxo-4,5,6,7-tetrahydroisoindol-2-yl)-4-fluorophenoxy]acetate

> <PUBCHEM_IUPAC_SYSTEMATIC_NAME>
pentyl 2-[5-[1,3-bis(oxidanylidene)-4,5,6,7-tetrahydroisoindol-2-yl]-2-chloranyl-4-fluoranyl-phenoxy]ethanoate

> <PUBCHEM_IUPAC_TRADITIONAL_NAME>
2-[2-chloro-5-(1,3-diketo-4,5,6,7-tetrahydroisoindol-2-yl)-4-fluoro-phenoxy]acetic acid amyl ester

> <PUBCHEM_IUPAC_INCHI>
InChI=1S/C21H23ClFNO5/c1-2-3-6-9-28-19(25)12-29-18-11-17(16(23)10-15(18)22)24-20(26)13-7-4-5-8-14(13)21(24)27/h10-11H,2-9,12H2,1H3

> <PUBCHEM_IUPAC_INCHIKEY>
IRECWLYBCAZIJM-UHFFFAOYSA-N

> <PUBCHEM_XLOGP3_AA>
4.8

> <PUBCHEM_EXACT_MASS>
423.124879

> <PUBCHEM_MOLECULAR_FORMULA>
C21H23ClFNO5

> <PUBCHEM_MOLECULAR_WEIGHT>
423.862423

> <PUBCHEM_OPENEYE_CAN_SMILES>
CCCCCOC(=O)COC1=C(C=C(C(=C1)N2C(=O)C3=C(C2=O)CCCC3)F)Cl

> <PUBCHEM_OPENEYE_ISO_SMILES>
CCCCCOC(=O)COC1=C(C=C(C(=C1)N2C(=O)C3=C(C2=O)CCCC3)F)Cl

> <PUBCHEM_CACTVS_TPSA>
72.9

> <PUBCHEM_MONOISOTOPIC_WEIGHT>
423.124879

> <PUBCHEM_TOTAL_CHARGE>
0

> <PUBCHEM_HEAVY_ATOM_COUNT>
29

> <PUBCHEM_ATOM_DEF_STEREO_COUNT>
0

> <PUBCHEM_ATOM_UDEF_STEREO_COUNT>
0

> <PUBCHEM_BOND_DEF_STEREO_COUNT>
0

> <PUBCHEM_BOND_UDEF_STEREO_COUNT>
0

> <PUBCHEM_ISOTOPIC_ATOM_COUNT>
0

> <PUBCHEM_COMPONENT_COUNT>
1

> <PUBCHEM_CACTVS_TAUTO_COUNT>
1

> <PUBCHEM_COORDINATE_TYPE>
1
5
255

> <PUBCHEM_BONDANNOTATIONS>
17  18  8
17  19  8
18  20  8
19  22  8
20  24  8
22  24  8

$$$$

