5484169
  -OEChem-07051213083D

 22 22  0     0  0  0  0  0  0999 V2000
    1.4306   -3.5964   -0.0150 O   0  0  0  0  0  0  0  0  0  0  0  0
   -2.4053    2.4505   -0.0023 O   0  5  0  0  0  0  0  0  0  0  0  0
   -3.4549    0.5224   -0.0010 O   0  0  0  0  0  0  0  0  0  0  0  0
    3.5650    0.7858    0.0042 O   0  5  0  0  0  0  0  0  0  0  0  0
    2.3857    2.6373   -0.0028 O   0  0  0  0  0  0  0  0  0  0  0  0
    0.2323   -2.9310    0.0080 N   0  0  0  0  0  0  0  0  0  0  0  0
   -2.3984    1.1970   -0.0014 N   0  3  0  0  0  0  0  0  0  0  0  0
    2.4626    1.3850    0.0006 N   0  3  0  0  0  0  0  0  0  0  0  0
   -1.0879   -0.8768    0.0019 C   0  0  0  0  0  0  0  0  0  0  0  0
    0.1493   -1.5210    0.0044 C   0  0  0  0  0  0  0  0  0  0  0  0
   -1.1488    0.5168   -0.0014 C   0  0  0  0  0  0  0  0  0  0  0  0
    1.2649    0.6220    0.0002 C   0  0  0  0  0  0  0  0  0  0  0  0
    1.3256   -0.7716    0.0035 C   0  0  0  0  0  0  0  0  0  0  0  0
    0.0277    1.2663   -0.0022 C   0  0  0  0  0  0  0  0  0  0  0  0
   -2.3485   -1.6861    0.0031 C   0  0  0  0  0  0  0  0  0  0  0  0
    2.2864   -1.2807    0.0062 H   0  0  0  0  0  0  0  0  0  0  0  0
   -0.0154    2.3529   -0.0043 H   0  0  0  0  0  0  0  0  0  0  0  0
   -2.9471   -1.4844    0.8989 H   0  0  0  0  0  0  0  0  0  0  0  0
   -2.9173   -1.5363   -0.9214 H   0  0  0  0  0  0  0  0  0  0  0  0
   -2.2031   -2.7656    0.0552 H   0  0  0  0  0  0  0  0  0  0  0  0
   -0.5635   -3.5023   -0.2331 H   0  0  0  0  0  0  0  0  0  0  0  0
    1.2429   -4.3680    0.5457 H   0  0  0  0  0  0  0  0  0  0  0  0
  1  6  1  0  0  0  0
  1 22  1  0  0  0  0
  2  7  1  0  0  0  0
  3  7  2  0  0  0  0
  4  8  1  0  0  0  0
  5  8  2  0  0  0  0
  6 10  1  0  0  0  0
  6 21  1  0  0  0  0
  7 11  1  0  0  0  0
  8 12  1  0  0  0  0
  9 10  2  0  0  0  0
  9 11  1  0  0  0  0
  9 15  1  0  0  0  0
 10 13  1  0  0  0  0
 11 14  2  0  0  0  0
 12 13  2  0  0  0  0
 12 14  1  0  0  0  0
 13 16  1  0  0  0  0
 14 17  1  0  0  0  0
 15 18  1  0  0  0  0
 15 19  1  0  0  0  0
 15 20  1  0  0  0  0
M  CHG  4   2  -1   4  -1   7   1   8   1
M  END
> <PUBCHEM_COMPOUND_CID>
5484169

> <PUBCHEM_CONFORMER_RMSD>
0.6

> <PUBCHEM_CONFORMER_DIVERSEORDER>
1

> <PUBCHEM_MMFF94_PARTIAL_CHARGES>
19
1 -0.38
10 0.1
11 0.13
12 0.13
13 -0.15
14 -0.15
15 0.14
16 0.15
17 0.15
2 -0.52
21 0.4
22 0.4
3 -0.52
4 -0.52
5 -0.52
6 -0.52
7 0.91
8 0.91
9 -0.14

> <PUBCHEM_EFFECTIVE_ROTOR_COUNT>
3

> <PUBCHEM_PHARMACOPHORE_FEATURES>
8
1 1 anion
1 2 acceptor
1 2 anion
1 3 acceptor
1 4 acceptor
1 4 anion
1 5 acceptor
6 9 10 11 12 13 14 rings

> <PUBCHEM_HEAVY_ATOM_COUNT>
15

> <PUBCHEM_ATOM_DEF_STEREO_COUNT>
0

> <PUBCHEM_ATOM_UDEF_STEREO_COUNT>
0

> <PUBCHEM_BOND_DEF_STEREO_COUNT>
0

> <PUBCHEM_BOND_UDEF_STEREO_COUNT>
0

> <PUBCHEM_ISOTOPIC_ATOM_COUNT>
0

> <PUBCHEM_COMPONENT_COUNT>
1

> <PUBCHEM_CACTVS_TAUTO_COUNT>
1

> <PUBCHEM_CONFORMER_ID>
0053AE8900000001

> <PUBCHEM_MMFF94_ENERGY>
64.7614

> <PUBCHEM_FEATURE_SELFOVERLAP>
40.758

> <PUBCHEM_SHAPE_FINGERPRINT>
1 1 18410574019627286236
10967382 1 18266458882985497185
11680986 33 18267017443709533307
13140716 1 18410573976582661480
13380535 76 18413112766306354323
14614273 12 18271817800060201597
14648413 74 18268144447422808643
15042514 8 17908142075579340138
16945 1 18338799038848427235
193761 8 18338516455786335747
20510252 161 18117836607763909440
20511035 2 17970648486726026951
20645476 183 17986938662367012764
20645477 70 18197224848536644901
20871998 184 17684920306949592070
21501502 16 18338240457029954147
21524375 3 18260548892011658196
2334 1 18338797793123275592
23402539 116 17901394398183274287
23526114 1 17906735052545105125
23552423 10 18337675333754411927
241688 4 17185314790214623914
2748010 2 18411976923339134015
305870 269 18412265072884887600
3071541 12 18121778589004093132
3071541 158 17695059303037709804
43471831 8 18341054038276104850
54173680 148 17691123734547779594
7364860 26 18265334095470182342
81228 2 17614853915468490082

> <PUBCHEM_SHAPE_MULTIPOLES>
264.4
4.28
3.43
0.56
0.69
2.27
0
-2.53
0
0.33
0.01
-0.02
0.02
0

> <PUBCHEM_SHAPE_SELFOVERLAP>
559.042

> <PUBCHEM_SHAPE_VOLUME>
149.6

> <PUBCHEM_COORDINATE_TYPE>
2
5
10

$$$$

