13399
  -OEChem-06261209393D

 17 18  0     0  0  0  0  0  0999 V2000
    0.9193   -1.6293    0.0003 N   0  0  0  0  0  0  0  0  0  0  0  0
    2.0508   -0.9049   -0.0001 N   0  0  0  0  0  0  0  0  0  0  0  0
    2.3952    1.4643   -0.0002 N   0  0  0  0  0  0  0  0  0  0  0  0
    0.2010    0.4428    0.0000 C   0  0  0  0  0  0  0  0  0  0  0  0
   -0.2265   -0.8802    0.0000 C   0  0  0  0  0  0  0  0  0  0  0  0
    1.6099    0.3551    0.0000 C   0  0  0  0  0  0  0  0  0  0  0  0
   -0.7527    1.4742    0.0002 C   0  0  0  0  0  0  0  0  0  0  0  0
   -1.5746   -1.2451    0.0000 C   0  0  0  0  0  0  0  0  0  0  0  0
   -2.1103    1.1301    0.0002 C   0  0  0  0  0  0  0  0  0  0  0  0
   -2.5121   -0.2071   -0.0004 C   0  0  0  0  0  0  0  0  0  0  0  0
   -0.4567    2.5188    0.0004 H   0  0  0  0  0  0  0  0  0  0  0  0
   -1.8848   -2.2840    0.0000 H   0  0  0  0  0  0  0  0  0  0  0  0
    0.9980   -2.6386    0.0005 H   0  0  0  0  0  0  0  0  0  0  0  0
   -2.8610    1.9161    0.0003 H   0  0  0  0  0  0  0  0  0  0  0  0
   -3.5725   -0.4468   -0.0006 H   0  0  0  0  0  0  0  0  0  0  0  0
    3.4085    1.4022   -0.0003 H   0  0  0  0  0  0  0  0  0  0  0  0
    2.0212    2.4084   -0.0002 H   0  0  0  0  0  0  0  0  0  0  0  0
  1  2  1  0  0  0  0
  1  5  1  0  0  0  0
  1 13  1  0  0  0  0
  2  6  2  0  0  0  0
  3  6  1  0  0  0  0
  3 16  1  0  0  0  0
  3 17  1  0  0  0  0
  4  5  1  0  0  0  0
  4  6  1  0  0  0  0
  4  7  2  0  0  0  0
  5  8  2  0  0  0  0
  7  9  1  0  0  0  0
  7 11  1  0  0  0  0
  8 10  1  0  0  0  0
  8 12  1  0  0  0  0
  9 10  2  0  0  0  0
  9 14  1  0  0  0  0
 10 15  1  0  0  0  0
M  END
> <PUBCHEM_COMPOUND_CID>
13399

> <PUBCHEM_CONFORMER_RMSD>
0.4

> <PUBCHEM_CONFORMER_DIVERSEORDER>
1

> <PUBCHEM_MMFF94_PARTIAL_CHARGES>
16
1 0.3
10 -0.15
11 0.15
12 0.15
13 0.27
14 0.15
15 0.15
16 0.4
17 0.4
2 -0.71
3 -0.88
5 -0.15
6 0.37
7 -0.15
8 -0.15
9 -0.15

> <PUBCHEM_EFFECTIVE_ROTOR_COUNT>
0

> <PUBCHEM_PHARMACOPHORE_FEATURES>
5
1 1 donor
1 3 donor
3 2 3 6 cation
5 1 2 4 5 6 rings
6 4 5 7 8 9 10 rings

> <PUBCHEM_HEAVY_ATOM_COUNT>
10

> <PUBCHEM_ATOM_DEF_STEREO_COUNT>
0

> <PUBCHEM_ATOM_UDEF_STEREO_COUNT>
0

> <PUBCHEM_BOND_DEF_STEREO_COUNT>
0

> <PUBCHEM_BOND_UDEF_STEREO_COUNT>
0

> <PUBCHEM_ISOTOPIC_ATOM_COUNT>
0

> <PUBCHEM_COMPONENT_COUNT>
1

> <PUBCHEM_CACTVS_TAUTO_COUNT>
5

> <PUBCHEM_CONFORMER_ID>
0000345700000001

> <PUBCHEM_MMFF94_ENERGY>
16.7974

> <PUBCHEM_FEATURE_SELFOVERLAP>
25.463

> <PUBCHEM_SHAPE_FINGERPRINT>
12423570 1 9770831366369249331
12897270 3 18410573963724178541
16945 1 18266458887396625959
18185500 45 18338237063863203159
19973954 147 18410291457965931153
21040471 1 18410575084689485156
23552423 10 18343018912709604566
2748010 2 18410854347794968295
29004967 10 18272082760607973651
369184 2 16415491410584354297
5084963 1 18187932849261995347

> <PUBCHEM_SHAPE_MULTIPOLES>
190.85
3.23
1.71
0.59
0.12
0.01
0
0.45
0
0.13
0
-0.05
0.01
0

> <PUBCHEM_SHAPE_SELFOVERLAP>
422.169

> <PUBCHEM_SHAPE_VOLUME>
104.1

> <PUBCHEM_COORDINATE_TYPE>
2
5
10

$$$$

