6834
  -OEChem-07051212523D

 38 39  0     1  0  0  0  0  0999 V2000
    5.8689    0.2531   -0.1535 Br  0  0  0  0  0  0  0  0  0  0  0  0
   -2.8333    1.9884   -0.2826 N   0  0  0  0  0  0  0  0  0  0  0  0
   -0.6213   -1.6816    1.0495 N   0  0  0  0  0  0  0  0  0  0  0  0
   -0.2986    0.4469   -0.0594 C   0  0  1  0  0  0  0  0  0  0  0  0
   -0.8617    1.3788    1.0456 C   0  0  0  0  0  0  0  0  0  0  0  0
   -2.3912    1.4751    1.0097 C   0  0  0  0  0  0  0  0  0  0  0  0
    1.2263    0.3976   -0.0823 C   0  0  0  0  0  0  0  0  0  0  0  0
   -0.8955   -0.9546   -0.0402 C   0  0  0  0  0  0  0  0  0  0  0  0
    1.8644    0.1724   -1.2829 C   0  0  0  0  0  0  0  0  0  0  0  0
    1.9138    0.5810    1.0977 C   0  0  0  0  0  0  0  0  0  0  0  0
   -1.6483   -1.3529   -1.1143 C   0  0  0  0  0  0  0  0  0  0  0  0
   -2.3115    3.3373   -0.5064 C   0  0  0  0  0  0  0  0  0  0  0  0
   -4.2947    1.9887   -0.3636 C   0  0  0  0  0  0  0  0  0  0  0  0
    3.2584    0.1284   -1.3042 C   0  0  0  0  0  0  0  0  0  0  0  0
    3.3078    0.5369    1.0764 C   0  0  0  0  0  0  0  0  0  0  0  0
   -2.1786   -2.6373   -1.0657 C   0  0  0  0  0  0  0  0  0  0  0  0
    3.9800    0.3105   -0.1245 C   0  0  0  0  0  0  0  0  0  0  0  0
   -1.1535   -2.9243    1.0612 C   0  0  0  0  0  0  0  0  0  0  0  0
   -1.9313   -3.4445    0.0392 C   0  0  0  0  0  0  0  0  0  0  0  0
   -0.5732    0.9203   -1.0134 H   0  0  0  0  0  0  0  0  0  0  0  0
   -0.6270    0.9712    2.0376 H   0  0  0  0  0  0  0  0  0  0  0  0
   -0.3864    2.3661    1.0132 H   0  0  0  0  0  0  0  0  0  0  0  0
   -2.7285    2.1231    1.8297 H   0  0  0  0  0  0  0  0  0  0  0  0
   -2.8281    0.4873    1.1990 H   0  0  0  0  0  0  0  0  0  0  0  0
    1.3111    0.0292   -2.2060 H   0  0  0  0  0  0  0  0  0  0  0  0
    1.4344    0.7390    2.0558 H   0  0  0  0  0  0  0  0  0  0  0  0
   -1.8358   -0.7170   -1.9714 H   0  0  0  0  0  0  0  0  0  0  0  0
   -1.2310    3.3410   -0.6777 H   0  0  0  0  0  0  0  0  0  0  0  0
   -2.5452    4.0185    0.3201 H   0  0  0  0  0  0  0  0  0  0  0  0
   -2.7437    3.7639   -1.4199 H   0  0  0  0  0  0  0  0  0  0  0  0
   -4.6873    0.9741   -0.2324 H   0  0  0  0  0  0  0  0  0  0  0  0
   -4.6261    2.3254   -1.3522 H   0  0  0  0  0  0  0  0  0  0  0  0
   -4.7507    2.6366    0.3938 H   0  0  0  0  0  0  0  0  0  0  0  0
    3.7669   -0.0488   -2.2484 H   0  0  0  0  0  0  0  0  0  0  0  0
    3.8557    0.6766    2.0049 H   0  0  0  0  0  0  0  0  0  0  0  0
   -2.7837   -3.0087   -1.8873 H   0  0  0  0  0  0  0  0  0  0  0  0
   -0.9311   -3.5133    1.9448 H   0  0  0  0  0  0  0  0  0  0  0  0
   -2.3345   -4.4488    0.0984 H   0  0  0  0  0  0  0  0  0  0  0  0
  1 17  1  0  0  0  0
  2  6  1  0  0  0  0
  2 12  1  0  0  0  0
  2 13  1  0  0  0  0
  3  8  1  0  0  0  0
  3 18  2  0  0  0  0
  4  5  1  0  0  0  0
  4  7  1  0  0  0  0
  4  8  1  0  0  0  0
  4 20  1  0  0  0  0
  5  6  1  0  0  0  0
  5 21  1  0  0  0  0
  5 22  1  0  0  0  0
  6 23  1  0  0  0  0
  6 24  1  0  0  0  0
  7  9  2  0  0  0  0
  7 10  1  0  0  0  0
  8 11  2  0  0  0  0
  9 14  1  0  0  0  0
  9 25  1  0  0  0  0
 10 15  2  0  0  0  0
 10 26  1  0  0  0  0
 11 16  1  0  0  0  0
 11 27  1  0  0  0  0
 12 28  1  0  0  0  0
 12 29  1  0  0  0  0
 12 30  1  0  0  0  0
 13 31  1  0  0  0  0
 13 32  1  0  0  0  0
 13 33  1  0  0  0  0
 14 17  2  0  0  0  0
 14 34  1  0  0  0  0
 15 17  1  0  0  0  0
 15 35  1  0  0  0  0
 16 19  2  0  0  0  0
 16 36  1  0  0  0  0
 18 19  1  0  0  0  0
 18 37  1  0  0  0  0
 19 38  1  0  0  0  0
M  END
> <PUBCHEM_COMPOUND_CID>
6834

> <PUBCHEM_CONFORMER_RMSD>
0.6

> <PUBCHEM_CONFORMER_DIVERSEORDER>
3
53
18
40
51
49
54
26
50
41
38
19
42
27
43
48
17
52
34
36
47
28
25
32
45
37
31
11
14
13
29
33
46
39
20
1
44
9
30
4
8
21
10
16
23
22
24
6
5
7
12
2
15
35

> <PUBCHEM_MMFF94_PARTIAL_CHARGES>
26
1 -0.11
10 -0.15
11 -0.15
12 0.27
13 0.27
14 -0.15
15 -0.15
16 -0.15
17 0.11
18 0.16
19 -0.15
2 -0.81
25 0.15
26 0.15
27 0.15
3 -0.62
34 0.15
35 0.15
36 0.15
37 0.15
38 0.15
4 0.29
6 0.27
7 -0.14
8 0.17
9 -0.15

> <PUBCHEM_EFFECTIVE_ROTOR_COUNT>
5

> <PUBCHEM_PHARMACOPHORE_FEATURES>
5
1 1 hydrophobe
1 2 cation
1 3 acceptor
6 3 8 11 16 18 19 rings
6 7 9 10 14 15 17 rings

> <PUBCHEM_HEAVY_ATOM_COUNT>
19

> <PUBCHEM_ATOM_DEF_STEREO_COUNT>
0

> <PUBCHEM_ATOM_UDEF_STEREO_COUNT>
1

> <PUBCHEM_BOND_DEF_STEREO_COUNT>
0

> <PUBCHEM_BOND_UDEF_STEREO_COUNT>
0

> <PUBCHEM_ISOTOPIC_ATOM_COUNT>
0

> <PUBCHEM_COMPONENT_COUNT>
1

> <PUBCHEM_CACTVS_TAUTO_COUNT>
2

> <PUBCHEM_CONFORMER_ID>
00001AB200000003

> <PUBCHEM_MMFF94_ENERGY>
52.9052

> <PUBCHEM_FEATURE_SELFOVERLAP>
25.371

> <PUBCHEM_SHAPE_FINGERPRINT>
11578080 2 16227755216422514851
11582403 64 16091013524804939624
12138202 97 18260264178803712204
121448 382 18261958547960909861
12346177 29 18335700529393057190
12363563 72 17976257937442846030
12500047 106 18410012169639212096
12532896 13 18337672022229027719
12714826 92 18042666335426403790
12730499 353 17977376467824326617
12788726 201 18127395770677719919
13052359 8 18412545405695865587
13149001 5 18114754754181514497
13681431 1 17400362248305761571
13899415 180 17684672938519546207
14178000 22 18340491187043465348
15885798 251 18049434851650654587
15906896 17 18201428169261502275
16752209 62 18340778052478445731
16945 1 18339362968091497199
17357779 13 17824276903484807903
17539 30 18263370200552613167
20197701 30 18268712899250246757
20361792 2 17829601764846397958
20567600 347 18267862981494773361
20645476 183 18343299301112284913
20681677 76 17750242422200921256
20711985 344 18339929199241722723
21033648 29 18337401559760480912
21524375 3 18266456692816076297
22224240 67 18262506092399566529
23402539 116 18335146396770403893
23419403 2 13842557171482014359
23557571 272 18261108522520063492
23558518 356 18057318384455081568
23559900 14 18114174290284434942
23598288 3 17915436355691623595
298252 57 18200308947765249337
3759504 43 18271522082718729521
53917941 68 18341345443211649852
559249 180 18339082691970091186
633830 44 17607235751671831473
7364860 26 17544761591507793033
7615 1 17987787494071091300
81228 2 18264203617518300315
81539 233 18055637471805098325

> <PUBCHEM_SHAPE_MULTIPOLES>
386.99
8.07
3.57
1.29
11.3
1.46
0
-3.19
1.11
-6.26
0.01
0.17
0.18
0.17

> <PUBCHEM_SHAPE_SELFOVERLAP>
796.637

> <PUBCHEM_SHAPE_VOLUME>
228.1

> <PUBCHEM_COORDINATE_TYPE>
2
5
10

$$$$

