442262
  -OEChem-07051212572D

 40 42  0     1  0  0  0  0  0999 V2000
    5.1482    2.1688    0.0000 O   0  0  0  0  0  0  0  0  0  0  0  0
    6.5047   -0.0251    0.0000 O   0  0  0  0  0  0  0  0  0  0  0  0
    4.6840   -2.5270    0.0000 O   0  0  0  0  0  0  0  0  0  0  0  0
    6.8881    2.5270    0.0000 O   0  0  0  0  0  0  0  0  0  0  0  0
    7.6904    0.1153    0.0000 O   0  0  0  0  0  0  0  0  0  0  0  0
    4.0984   -0.8500    0.0000 C   0  0  2  0  0  0  0  0  0  0  0  0
    5.2219    0.5588    0.0000 C   0  0  1  0  0  0  0  0  0  0  0  0
    3.1974   -0.4161    0.0000 C   0  0  2  0  0  0  0  0  0  0  0  0
    4.9994   -0.4161    0.0000 C   0  0  0  0  0  0  0  0  0  0  0  0
    4.5984    1.3406    0.0000 C   0  0  1  0  0  0  0  0  0  0  0  0
    2.9749    0.5588    0.0000 C   0  0  1  0  0  0  0  0  0  0  0  0
    3.5984    1.3406    0.0000 C   0  0  0  0  0  0  0  0  0  0  0  0
    6.1517    0.9105    0.0000 C   0  0  3  0  0  0  0  0  0  0  0  0
    3.9624   -1.8347    0.0000 C   0  0  0  0  0  0  0  0  0  0  0  0
    4.9994   -1.2839    0.0000 C   0  0  0  0  0  0  0  0  0  0  0  0
    2.5124   -1.1364    0.0000 C   0  0  0  0  0  0  0  0  0  0  0  0
    6.1062    1.9036    0.0000 C   0  0  0  0  0  0  0  0  0  0  0  0
    2.0000    0.7813    0.0000 C   0  0  0  0  0  0  0  0  0  0  0  0
    2.9842   -2.0114    0.0000 C   0  0  0  0  0  0  0  0  0  0  0  0
    7.1506    0.9571    0.0000 C   0  0  0  0  0  0  0  0  0  0  0  0
    5.8627    0.0004    0.0000 H   0  0  0  0  0  0  0  0  0  0  0  0
    2.3778   -0.1911    0.0000 H   0  0  0  0  0  0  0  0  0  0  0  0
    5.1374   -1.0206    0.0000 H   0  0  0  0  0  0  0  0  0  0  0  0
    5.6194   -0.4161    0.0000 H   0  0  0  0  0  0  0  0  0  0  0  0
    4.1966    2.0897    0.0000 H   0  0  0  0  0  0  0  0  0  0  0  0
    2.7702    1.1440    0.0000 H   0  0  0  0  0  0  0  0  0  0  0  0
    3.7364    1.9451    0.0000 H   0  0  0  0  0  0  0  0  0  0  0  0
    3.0398    1.6096    0.0000 H   0  0  0  0  0  0  0  0  0  0  0  0
    4.7304   -1.8425    0.0000 H   0  0  0  0  0  0  0  0  0  0  0  0
    5.5580   -1.5529    0.0000 H   0  0  0  0  0  0  0  0  0  0  0  0
    5.2684   -0.7253    0.0000 H   0  0  0  0  0  0  0  0  0  0  0  0
    1.8978   -1.0542    0.0000 H   0  0  0  0  0  0  0  0  0  0  0  0
    2.1380    1.3858    0.0000 H   0  0  0  0  0  0  0  0  0  0  0  0
    1.3955    0.9193    0.0000 H   0  0  0  0  0  0  0  0  0  0  0  0
    1.8620    0.1769    0.0000 H   0  0  0  0  0  0  0  0  0  0  0  0
    2.7152   -2.5700    0.0000 H   0  0  0  0  0  0  0  0  0  0  0  0
    7.7227    1.1961    0.0000 H   0  0  0  0  0  0  0  0  0  0  0  0
    7.0146    1.5620    0.0000 H   0  0  0  0  0  0  0  0  0  0  0  0
    6.1117   -0.5047    0.0000 H   0  0  0  0  0  0  0  0  0  0  0  0
    8.3097    0.1442    0.0000 H   0  0  0  0  0  0  0  0  0  0  0  0
  1 10  1  0  0  0  0
  1 17  1  0  0  0  0
  2 13  1  0  0  0  0
  2 39  1  0  0  0  0
  3 14  2  0  0  0  0
  4 17  2  0  0  0  0
  5 20  1  0  0  0  0
  5 40  1  0  0  0  0
  6  8  1  0  0  0  0
  6  9  1  0  0  0  0
  6 14  1  0  0  0  0
  6 15  1  1  0  0  0
  7  9  1  0  0  0  0
  7 10  1  0  0  0  0
  7 13  1  0  0  0  0
  7 21  1  6  0  0  0
  8 11  1  0  0  0  0
  8 16  1  0  0  0  0
  8 22  1  6  0  0  0
  9 23  1  0  0  0  0
  9 24  1  0  0  0  0
 10 12  1  0  0  0  0
 10 25  1  6  0  0  0
 11 12  1  0  0  0  0
 11 18  1  6  0  0  0
 11 26  1  0  0  0  0
 12 27  1  0  0  0  0
 12 28  1  0  0  0  0
 13 17  1  0  0  0  0
 13 20  1  0  0  0  0
 14 19  1  0  0  0  0
 15 29  1  0  0  0  0
 15 30  1  0  0  0  0
 15 31  1  0  0  0  0
 16 19  2  0  0  0  0
 16 32  1  0  0  0  0
 18 33  1  0  0  0  0
 18 34  1  0  0  0  0
 18 35  1  0  0  0  0
 19 36  1  0  0  0  0
 20 37  1  0  0  0  0
 20 38  1  0  0  0  0
M  END
> <PUBCHEM_COMPOUND_CID>
442262

> <PUBCHEM_COMPOUND_CANONICALIZED>
1

> <PUBCHEM_CACTVS_COMPLEXITY>
499

> <PUBCHEM_CACTVS_HBOND_ACCEPTOR>
5

> <PUBCHEM_CACTVS_HBOND_DONOR>
2

> <PUBCHEM_CACTVS_ROTATABLE_BOND>
1

> <PUBCHEM_CACTVS_SUBSKEYS>
AAADceBwOAAAAAAAAAAAAAAAAAAAASIAAAAAAAAABgAAAACQAAAAGgAACAAAD1SggAICCAAABgCIAKDSCAIAAAAgAAAICAFAAEgBEBYAAQACQAAFoAALAYPKzPDPgAAAAAAAAAAAAAAAAAAAAAAAAAAAAA==

> <PUBCHEM_IUPAC_OPENEYE_NAME>
(3aR,5R,5aR,8aS,9aS)-1-hydroxy-1-(hydroxymethyl)-5,8a-dimethyl-3a,4,5,5a,9,9a-hexahydroazuleno[6,7-b]furan-2,8-dione

> <PUBCHEM_IUPAC_CAS_NAME>
(3aR,5R,5aR,8aS,9aS)-1-hydroxy-1-(hydroxymethyl)-5,8a-dimethyl-3a,4,5,5a,9,9a-hexahydroazuleno[6,7-b]furan-2,8-dione

> <PUBCHEM_IUPAC_NAME>
(3aR,5R,5aR,8aS,9aS)-1-hydroxy-1-(hydroxymethyl)-5,8a-dimethyl-3a,4,5,5a,9,9a-hexahydroazuleno[6,7-b]furan-2,8-dione

> <PUBCHEM_IUPAC_SYSTEMATIC_NAME>
(3aR,5R,5aR,8aS,9aS)-1-(hydroxymethyl)-5,8a-dimethyl-1-oxidanyl-3a,4,5,5a,9,9a-hexahydroazuleno[6,7-b]furan-2,8-dione

> <PUBCHEM_IUPAC_TRADITIONAL_NAME>
(3aR,5R,5aR,8aS,9aS)-1-hydroxy-5,8a-dimethyl-1-methylol-3a,4,5,5a,9,9a-hexahydroazuleno[6,7-b]furan-2,8-quinone

> <PUBCHEM_IUPAC_INCHI>
InChI=1S/C15H20O5/c1-8-5-11-10(15(19,7-16)13(18)20-11)6-14(2)9(8)3-4-12(14)17/h3-4,8-11,16,19H,5-7H2,1-2H3/t8-,9+,10+,11-,14+,15?/m1/s1

> <PUBCHEM_IUPAC_INCHIKEY>
CZSKPULURGIUQE-BOLSYAAGSA-N

> <PUBCHEM_XLOGP3_AA>
1.1

> <PUBCHEM_EXACT_MASS>
280.131074

> <PUBCHEM_MOLECULAR_FORMULA>
C15H20O5

> <PUBCHEM_MOLECULAR_WEIGHT>
280.3163

> <PUBCHEM_OPENEYE_CAN_SMILES>
CC1CC2C(CC3(C1C=CC3=O)C)C(C(=O)O2)(CO)O

> <PUBCHEM_OPENEYE_ISO_SMILES>
C[C@@H]1C[C@@H]2[C@H](C[C@]3([C@H]1C=CC3=O)C)C(C(=O)O2)(CO)O

> <PUBCHEM_CACTVS_TPSA>
83.8

> <PUBCHEM_MONOISOTOPIC_WEIGHT>
280.131074

> <PUBCHEM_TOTAL_CHARGE>
0

> <PUBCHEM_HEAVY_ATOM_COUNT>
20

> <PUBCHEM_ATOM_DEF_STEREO_COUNT>
5

> <PUBCHEM_ATOM_UDEF_STEREO_COUNT>
1

> <PUBCHEM_BOND_DEF_STEREO_COUNT>
0

> <PUBCHEM_BOND_UDEF_STEREO_COUNT>
0

> <PUBCHEM_ISOTOPIC_ATOM_COUNT>
0

> <PUBCHEM_COMPONENT_COUNT>
1

> <PUBCHEM_CACTVS_TAUTO_COUNT>
3

> <PUBCHEM_COORDINATE_TYPE>
1
5
255

> <PUBCHEM_BONDANNOTATIONS>
10  25  6
11  18  6
13  20  3
6  15  5
7  21  6
8  22  6

$$$$

