15794
  -OEChem-07051213053D

 31 33  0     0  0  0  0  0  0999 V2000
    2.0528    2.8000   -0.0003 O   0  0  0  0  0  0  0  0  0  0  0  0
    3.7851   -1.9968   -0.0019 O   0  0  0  0  0  0  0  0  0  0  0  0
    3.3543    0.3206    0.0006 N   0  0  0  0  0  0  0  0  0  0  0  0
   -1.1801   -1.8076   -0.0005 C   0  0  0  0  0  0  0  0  0  0  0  0
   -0.1635   -0.6851   -0.0009 C   0  0  0  0  0  0  0  0  0  0  0  0
   -0.8126    0.5700   -0.0009 C   0  0  0  0  0  0  0  0  0  0  0  0
   -2.4861   -1.0412   -0.0002 C   0  0  0  0  0  0  0  0  0  0  0  0
   -2.2430    0.3508   -0.0006 C   0  0  0  0  0  0  0  0  0  0  0  0
    1.2168   -0.7854   -0.0008 C   0  0  0  0  0  0  0  0  0  0  0  0
   -0.0761    1.7428   -0.0006 C   0  0  0  0  0  0  0  0  0  0  0  0
    1.9589    0.3971   -0.0004 C   0  0  0  0  0  0  0  0  0  0  0  0
   -3.7729   -1.5503    0.0006 C   0  0  0  0  0  0  0  0  0  0  0  0
   -3.2969    1.2492    0.0002 C   0  0  0  0  0  0  0  0  0  0  0  0
    1.3190    1.6485   -0.0004 C   0  0  0  0  0  0  0  0  0  0  0  0
   -4.8352   -0.6444    0.0013 C   0  0  0  0  0  0  0  0  0  0  0  0
   -4.5997    0.7413    0.0011 C   0  0  0  0  0  0  0  0  0  0  0  0
    4.1555   -0.8273    0.0014 C   0  0  0  0  0  0  0  0  0  0  0  0
    5.6236   -0.4822    0.0023 C   0  0  0  0  0  0  0  0  0  0  0  0
   -1.0868   -2.4145    0.9047 H   0  0  0  0  0  0  0  0  0  0  0  0
   -1.0872   -2.4148   -0.9056 H   0  0  0  0  0  0  0  0  0  0  0  0
    1.6306   -1.7819   -0.0004 H   0  0  0  0  0  0  0  0  0  0  0  0
   -0.5695    2.7097   -0.0006 H   0  0  0  0  0  0  0  0  0  0  0  0
   -3.9563   -2.6190    0.0009 H   0  0  0  0  0  0  0  0  0  0  0  0
   -3.1312    2.3212    0.0002 H   0  0  0  0  0  0  0  0  0  0  0  0
   -5.8575   -1.0133    0.0020 H   0  0  0  0  0  0  0  0  0  0  0  0
   -5.4433    1.4266    0.0016 H   0  0  0  0  0  0  0  0  0  0  0  0
    3.8355    1.2177    0.0012 H   0  0  0  0  0  0  0  0  0  0  0  0
    1.4487    3.5622   -0.0004 H   0  0  0  0  0  0  0  0  0  0  0  0
    5.8723    0.0764   -0.9044 H   0  0  0  0  0  0  0  0  0  0  0  0
    6.2198   -1.3985    0.0304 H   0  0  0  0  0  0  0  0  0  0  0  0
    5.8623    0.1227    0.8816 H   0  0  0  0  0  0  0  0  0  0  0  0
  1 14  1  0  0  0  0
  1 28  1  0  0  0  0
  2 17  2  0  0  0  0
  3 11  1  0  0  0  0
  3 17  1  0  0  0  0
  3 27  1  0  0  0  0
  4  5  1  0  0  0  0
  4  7  1  0  0  0  0
  4 19  1  0  0  0  0
  4 20  1  0  0  0  0
  5  6  1  0  0  0  0
  5  9  2  0  0  0  0
  6  8  1  0  0  0  0
  6 10  2  0  0  0  0
  7  8  1  0  0  0  0
  7 12  2  0  0  0  0
  8 13  2  0  0  0  0
  9 11  1  0  0  0  0
  9 21  1  0  0  0  0
 10 14  1  0  0  0  0
 10 22  1  0  0  0  0
 11 14  2  0  0  0  0
 12 15  1  0  0  0  0
 12 23  1  0  0  0  0
 13 16  1  0  0  0  0
 13 24  1  0  0  0  0
 15 16  2  0  0  0  0
 15 25  1  0  0  0  0
 16 26  1  0  0  0  0
 17 18  1  0  0  0  0
 18 29  1  0  0  0  0
 18 30  1  0  0  0  0
 18 31  1  0  0  0  0
M  END
> <PUBCHEM_COMPOUND_CID>
15794

> <PUBCHEM_CONFORMER_RMSD>
0.6

> <PUBCHEM_CONFORMER_DIVERSEORDER>
1
2
3
4

> <PUBCHEM_MMFF94_PARTIAL_CHARGES>
24
1 -0.53
10 -0.15
11 0.12
12 -0.15
13 -0.15
14 0.08
15 -0.15
16 -0.15
17 0.57
18 0.06
2 -0.57
21 0.15
22 0.15
23 0.15
24 0.15
25 0.15
26 0.15
27 0.37
28 0.45
3 -0.55
4 0.29
5 -0.14
7 -0.14
9 -0.15

> <PUBCHEM_EFFECTIVE_ROTOR_COUNT>
2.2

> <PUBCHEM_PHARMACOPHORE_FEATURES>
6
1 1 donor
1 2 acceptor
1 3 donor
5 4 5 6 7 8 rings
6 5 6 9 10 11 14 rings
6 7 8 12 13 15 16 rings

> <PUBCHEM_HEAVY_ATOM_COUNT>
18

> <PUBCHEM_ATOM_DEF_STEREO_COUNT>
0

> <PUBCHEM_ATOM_UDEF_STEREO_COUNT>
0

> <PUBCHEM_BOND_DEF_STEREO_COUNT>
0

> <PUBCHEM_BOND_UDEF_STEREO_COUNT>
0

> <PUBCHEM_ISOTOPIC_ATOM_COUNT>
0

> <PUBCHEM_COMPONENT_COUNT>
1

> <PUBCHEM_CACTVS_TAUTO_COUNT>
6

> <PUBCHEM_CONFORMER_ID>
00003DB200000001

> <PUBCHEM_MMFF94_ENERGY>
61.5511

> <PUBCHEM_FEATURE_SELFOVERLAP>
30.614

> <PUBCHEM_SHAPE_FINGERPRINT>
10062212 137 18259990357770082895
10608611 8 18339082584384847229
10906281 52 18266156440506059126
10967382 1 18338797810276758023
10968037 39 18412541012107741766
11471102 20 18411421691441943581
12032990 46 18411135835603826675
12236239 1 17846778533617495274
12403259 226 18338241466611311597
12715332 25 18041279877044476023
12916754 54 18338515227894836835
13140716 1 18410003309100698761
13288520 33 18409728477958281894
13675066 3 18187089425001182131
13690532 89 18410573998041627787
13862211 1 18410860979272368178
14115302 16 17846487119775342470
14866123 147 17397256617499410730
15099037 51 18411138047680906239
15196674 1 18410855421811228645
15442244 35 18409728452288867233
15536298 74 18335703788898941848
16945 1 18335972160341713541
17492 89 18122908633681665539
17804303 29 18410853252683926221
1813 80 17489588978578484156
18186145 218 17703238325513704087
19141452 34 18187366519148635463
200 152 17967818241122767023
20612939 158 18272930483909907012
20645477 70 18339927013050582519
21029758 11 18335703862029456456
21267235 1 18410847755078541867
21279426 13 18124034791201455279
21501502 16 18264487282928370693
221490 88 18269830917781519811
2297311 6 18262226829251501862
23366157 5 17986958445023911596
23402539 116 18261399965630324879
23463225 33 18410573972277118349
23557571 272 18116426124167714756
23559900 14 18335708200020343552
23622692 118 17897176719035029007
3004659 81 18130221666655430622
3286 77 18412263896064037261
335352 9 18410856581779505077
34934 24 18339366378121658278
350125 39 18411415129433898921
4214541 1 18410575093643488069
4463277 17 18411135836236946348
5104073 3 18337105662403916089
633830 44 17418097572846785013
7364860 26 18264209110940129960
8809292 202 18271803489160735819
9709674 26 18197497316434393763
9981440 41 17403179201223111608

> <PUBCHEM_SHAPE_MULTIPOLES>
353.71
9.93
2.12
0.6
4.23
0.64
0
-2.77
0.01
0.48
0
-0.05
-0.01
0

> <PUBCHEM_SHAPE_SELFOVERLAP>
785.271

> <PUBCHEM_SHAPE_VOLUME>
191.1

> <PUBCHEM_COORDINATE_TYPE>
2
5
10

$$$$

