19427
  -OEChem-07051213132D

 33 36  0     0  0  0  0  0  0999 V2000
    3.7320    0.1863    0.0000 C   0  0  0  0  0  0  0  0  0  0  0  0
    4.5981   -0.3137    0.0000 C   0  0  0  0  0  0  0  0  0  0  0  0
    4.5981   -1.3137    0.0000 C   0  0  0  0  0  0  0  0  0  0  0  0
    3.7160    1.2278    0.0000 C   0  0  0  0  0  0  0  0  0  0  0  0
    2.8660   -0.3137    0.0000 C   0  0  0  0  0  0  0  0  0  0  0  0
    3.7320   -1.8137    0.0000 C   0  0  0  0  0  0  0  0  0  0  0  0
    4.6140    1.7555    0.0000 C   0  0  0  0  0  0  0  0  0  0  0  0
    2.8660   -1.3137    0.0000 C   0  0  0  0  0  0  0  0  0  0  0  0
    5.5081    0.1931    0.0000 C   0  0  0  0  0  0  0  0  0  0  0  0
    5.5161    1.2347    0.0000 C   0  0  0  0  0  0  0  0  0  0  0  0
    5.5081   -1.8206    0.0000 C   0  0  0  0  0  0  0  0  0  0  0  0
    2.7641    1.7484    0.0000 C   0  0  0  0  0  0  0  0  0  0  0  0
    2.0000    0.1863    0.0000 C   0  0  0  0  0  0  0  0  0  0  0  0
    3.7160   -2.8552    0.0000 C   0  0  0  0  0  0  0  0  0  0  0  0
    4.6224    2.8405    0.0000 C   0  0  0  0  0  0  0  0  0  0  0  0
    5.5161   -2.8622    0.0000 C   0  0  0  0  0  0  0  0  0  0  0  0
    2.7473    2.8333    0.0000 C   0  0  0  0  0  0  0  0  0  0  0  0
    4.6140   -3.3830    0.0000 C   0  0  0  0  0  0  0  0  0  0  0  0
    3.6828    3.3830    0.0000 C   0  0  0  0  0  0  0  0  0  0  0  0
    2.3291   -1.6237    0.0000 H   0  0  0  0  0  0  0  0  0  0  0  0
    6.0414   -0.1231    0.0000 H   0  0  0  0  0  0  0  0  0  0  0  0
    6.0542    1.5426    0.0000 H   0  0  0  0  0  0  0  0  0  0  0  0
    6.0414   -1.5044    0.0000 H   0  0  0  0  0  0  0  0  0  0  0  0
    2.2332    1.4281    0.0000 H   0  0  0  0  0  0  0  0  0  0  0  0
    2.3100    0.7232    0.0000 H   0  0  0  0  0  0  0  0  0  0  0  0
    1.4631    0.4963    0.0000 H   0  0  0  0  0  0  0  0  0  0  0  0
    1.6900   -0.3507    0.0000 H   0  0  0  0  0  0  0  0  0  0  0  0
    3.1755   -3.1590    0.0000 H   0  0  0  0  0  0  0  0  0  0  0  0
    5.1605    3.1484    0.0000 H   0  0  0  0  0  0  0  0  0  0  0  0
    6.0542   -3.1701    0.0000 H   0  0  0  0  0  0  0  0  0  0  0  0
    2.2069    3.1370    0.0000 H   0  0  0  0  0  0  0  0  0  0  0  0
    4.6116   -4.0030    0.0000 H   0  0  0  0  0  0  0  0  0  0  0  0
    3.6804    4.0030    0.0000 H   0  0  0  0  0  0  0  0  0  0  0  0
  1  2  2  0  0  0  0
  1  4  1  0  0  0  0
  1  5  1  0  0  0  0
  2  3  1  0  0  0  0
  2  9  1  0  0  0  0
  3  6  1  0  0  0  0
  3 11  2  0  0  0  0
  4  7  1  0  0  0  0
  4 12  2  0  0  0  0
  5  8  2  0  0  0  0
  5 13  1  0  0  0  0
  6  8  1  0  0  0  0
  6 14  2  0  0  0  0
  7 10  1  0  0  0  0
  7 15  2  0  0  0  0
  8 20  1  0  0  0  0
  9 10  2  0  0  0  0
  9 21  1  0  0  0  0
 10 22  1  0  0  0  0
 11 16  1  0  0  0  0
 11 23  1  0  0  0  0
 12 17  1  0  0  0  0
 12 24  1  0  0  0  0
 13 25  1  0  0  0  0
 13 26  1  0  0  0  0
 13 27  1  0  0  0  0
 14 18  1  0  0  0  0
 14 28  1  0  0  0  0
 15 19  1  0  0  0  0
 15 29  1  0  0  0  0
 16 18  2  0  0  0  0
 16 30  1  0  0  0  0
 17 19  2  0  0  0  0
 17 31  1  0  0  0  0
 18 32  1  0  0  0  0
 19 33  1  0  0  0  0
M  END
> <PUBCHEM_COMPOUND_CID>
19427

> <PUBCHEM_COMPOUND_CANONICALIZED>
1

> <PUBCHEM_CACTVS_COMPLEXITY>
320

> <PUBCHEM_CACTVS_HBOND_ACCEPTOR>
0

> <PUBCHEM_CACTVS_HBOND_DONOR>
0

> <PUBCHEM_CACTVS_ROTATABLE_BOND>
0

> <PUBCHEM_CACTVS_SUBSKEYS>
AAADccB4AAAAAAAAAAAAAAAAAAAAAAAAAAAwYMGAAAAAAADBVAAAGAAAAAAADACAGAAyAMAAAACAAiBCAAACAAAgAAAIiAAAAIgIICKAERCAIAAggAAIiAcAgMAOwAACAAAQAACAAAQAACAAAAAAAAAAAA==

> <PUBCHEM_IUPAC_OPENEYE_NAME>
5-methylchrysene

> <PUBCHEM_IUPAC_CAS_NAME>
5-methylchrysene

> <PUBCHEM_IUPAC_NAME>
5-methylchrysene

> <PUBCHEM_IUPAC_SYSTEMATIC_NAME>
5-methylchrysene

> <PUBCHEM_IUPAC_TRADITIONAL_NAME>
5-methylchrysene

> <PUBCHEM_IUPAC_INCHI>
InChI=1S/C19H14/c1-13-12-15-7-3-4-8-16(15)18-11-10-14-6-2-5-9-17(14)19(13)18/h2-12H,1H3

> <PUBCHEM_IUPAC_INCHIKEY>
GOHBXWHNJHENRX-UHFFFAOYSA-N

> <PUBCHEM_XLOGP3_AA>
6

> <PUBCHEM_EXACT_MASS>
242.10955

> <PUBCHEM_MOLECULAR_FORMULA>
C19H14

> <PUBCHEM_MOLECULAR_WEIGHT>
242.31446

> <PUBCHEM_OPENEYE_CAN_SMILES>
CC1=CC2=CC=CC=C2C3=C1C4=CC=CC=C4C=C3

> <PUBCHEM_OPENEYE_ISO_SMILES>
CC1=CC2=CC=CC=C2C3=C1C4=CC=CC=C4C=C3

> <PUBCHEM_CACTVS_TPSA>
0

> <PUBCHEM_MONOISOTOPIC_WEIGHT>
242.10955

> <PUBCHEM_TOTAL_CHARGE>
0

> <PUBCHEM_HEAVY_ATOM_COUNT>
19

> <PUBCHEM_ATOM_DEF_STEREO_COUNT>
0

> <PUBCHEM_ATOM_UDEF_STEREO_COUNT>
0

> <PUBCHEM_BOND_DEF_STEREO_COUNT>
0

> <PUBCHEM_BOND_UDEF_STEREO_COUNT>
0

> <PUBCHEM_ISOTOPIC_ATOM_COUNT>
0

> <PUBCHEM_COMPONENT_COUNT>
1

> <PUBCHEM_CACTVS_TAUTO_COUNT>
1

> <PUBCHEM_COORDINATE_TYPE>
1
5
255

> <PUBCHEM_BONDANNOTATIONS>
1  2  8
1  4  8
1  5  8
11  16  8
12  17  8
14  18  8
15  19  8
16  18  8
17  19  8
2  3  8
2  9  8
3  11  8
3  6  8
4  12  8
4  7  8
5  8  8
6  14  8
6  8  8
7  10  8
7  15  8
9  10  8

$$$$

