224153
  -OEChem-07051213063D

 59 62  0     1  0  0  0  0  0999 V2000
    0.0494    2.0518    1.3099 O   0  0  0  0  0  0  0  0  0  0  0  0
    4.8138    0.6775    0.3582 O   0  0  0  0  0  0  0  0  0  0  0  0
   -0.6401    0.2923   -0.2794 C   0  0  1  0  0  0  0  0  0  0  0  0
    0.1531   -0.9679    0.2588 C   0  0  2  0  0  0  0  0  0  0  0  0
    1.6011   -0.9466   -0.2494 C   0  0  1  0  0  0  0  0  0  0  0  0
    2.3824    0.2934    0.2062 C   0  0  2  0  0  0  0  0  0  0  0  0
   -2.1738    0.2080    0.1931 C   0  0  2  0  0  0  0  0  0  0  0  0
    0.1622    1.6455   -0.0513 C   0  0  2  0  0  0  0  0  0  0  0  0
    1.6792    1.5138   -0.4043 C   0  0  0  0  0  0  0  0  0  0  0  0
   -2.7422   -1.1626   -0.3270 C   0  0  1  0  0  0  0  0  0  0  0  0
    3.8059   -0.0379   -0.3541 C   0  0  2  0  0  0  0  0  0  0  0  0
   -0.5124   -2.2902   -0.1567 C   0  0  0  0  0  0  0  0  0  0  0  0
    2.5233   -2.1038    0.1316 C   0  0  0  0  0  0  0  0  0  0  0  0
   -1.9783   -2.3621    0.2319 C   0  0  0  0  0  0  0  0  0  0  0  0
    3.9462   -1.5588   -0.0825 C   0  0  0  0  0  0  0  0  0  0  0  0
   -3.0533    1.3260   -0.4337 C   0  0  0  0  0  0  0  0  0  0  0  0
    2.4750    0.4456    1.7515 C   0  0  0  0  0  0  0  0  0  0  0  0
   -4.2504   -1.3470   -0.0980 C   0  0  0  0  0  0  0  0  0  0  0  0
   -2.3050    0.3180    1.7350 C   0  0  0  0  0  0  0  0  0  0  0  0
   -0.3536    2.8163   -0.9128 C   0  0  0  0  0  0  0  0  0  0  0  0
   -4.5631    1.1402   -0.2499 C   0  0  0  0  0  0  0  0  0  0  0  0
   -5.0442   -0.2160   -0.7346 C   0  0  0  0  0  0  0  0  0  0  0  0
    4.0245    0.2644   -1.8424 C   0  0  0  0  0  0  0  0  0  0  0  0
   -0.6633    0.1696   -1.3744 H   0  0  0  0  0  0  0  0  0  0  0  0
    0.1650   -0.9483    1.3520 H   0  0  0  0  0  0  0  0  0  0  0  0
    1.5396   -0.9501   -1.3485 H   0  0  0  0  0  0  0  0  0  0  0  0
    2.2179    2.4188   -0.0927 H   0  0  0  0  0  0  0  0  0  0  0  0
    1.7513    1.4667   -1.4983 H   0  0  0  0  0  0  0  0  0  0  0  0
   -2.6006   -1.1766   -1.4192 H   0  0  0  0  0  0  0  0  0  0  0  0
    0.0074   -3.1375    0.3057 H   0  0  0  0  0  0  0  0  0  0  0  0
   -0.4232   -2.4233   -1.2429 H   0  0  0  0  0  0  0  0  0  0  0  0
    2.3452   -2.9896   -0.4870 H   0  0  0  0  0  0  0  0  0  0  0  0
    2.3842   -2.3985    1.1780 H   0  0  0  0  0  0  0  0  0  0  0  0
   -2.3995   -3.2937   -0.1659 H   0  0  0  0  0  0  0  0  0  0  0  0
   -2.0786   -2.4197    1.3217 H   0  0  0  0  0  0  0  0  0  0  0  0
    4.5633   -1.7581    0.8015 H   0  0  0  0  0  0  0  0  0  0  0  0
    4.4262   -2.0754   -0.9217 H   0  0  0  0  0  0  0  0  0  0  0  0
   -2.8412    1.4016   -1.5074 H   0  0  0  0  0  0  0  0  0  0  0  0
   -2.8174    2.2896    0.0216 H   0  0  0  0  0  0  0  0  0  0  0  0
    1.5059    0.4099    2.2514 H   0  0  0  0  0  0  0  0  0  0  0  0
    3.0819   -0.3411    2.2121 H   0  0  0  0  0  0  0  0  0  0  0  0
    2.9374    1.4034    2.0175 H   0  0  0  0  0  0  0  0  0  0  0  0
   -4.4804   -1.4129    0.9712 H   0  0  0  0  0  0  0  0  0  0  0  0
   -4.5788   -2.2959   -0.5404 H   0  0  0  0  0  0  0  0  0  0  0  0
   -3.3148    0.0802    2.0817 H   0  0  0  0  0  0  0  0  0  0  0  0
   -1.6305   -0.3523    2.2715 H   0  0  0  0  0  0  0  0  0  0  0  0
   -2.1025    1.3350    2.0831 H   0  0  0  0  0  0  0  0  0  0  0  0
   -0.5900    2.4979   -1.9327 H   0  0  0  0  0  0  0  0  0  0  0  0
   -1.2130    3.3209   -0.4703 H   0  0  0  0  0  0  0  0  0  0  0  0
    0.4040    3.6073   -0.9868 H   0  0  0  0  0  0  0  0  0  0  0  0
   -5.0921    1.9299   -0.7964 H   0  0  0  0  0  0  0  0  0  0  0  0
   -4.8290    1.2680    0.8059 H   0  0  0  0  0  0  0  0  0  0  0  0
   -6.1093   -0.3360   -0.5066 H   0  0  0  0  0  0  0  0  0  0  0  0
   -4.9454   -0.2692   -1.8259 H   0  0  0  0  0  0  0  0  0  0  0  0
    5.0310   -0.0460   -2.1479 H   0  0  0  0  0  0  0  0  0  0  0  0
    3.3064   -0.2452   -2.4905 H   0  0  0  0  0  0  0  0  0  0  0  0
    3.9756    1.3410   -2.0393 H   0  0  0  0  0  0  0  0  0  0  0  0
    0.5407    2.8833    1.4226 H   0  0  0  0  0  0  0  0  0  0  0  0
    4.6580    1.6273    0.2187 H   0  0  0  0  0  0  0  0  0  0  0  0
  1  8  1  0  0  0  0
  1 58  1  0  0  0  0
  2 11  1  0  0  0  0
  2 59  1  0  0  0  0
  3  4  1  0  0  0  0
  3  7  1  0  0  0  0
  3  8  1  0  0  0  0
  3 24  1  0  0  0  0
  4  5  1  0  0  0  0
  4 12  1  0  0  0  0
  4 25  1  0  0  0  0
  5  6  1  0  0  0  0
  5 13  1  0  0  0  0
  5 26  1  0  0  0  0
  6  9  1  0  0  0  0
  6 11  1  0  0  0  0
  6 17  1  0  0  0  0
  7 10  1  0  0  0  0
  7 16  1  0  0  0  0
  7 19  1  0  0  0  0
  8  9  1  0  0  0  0
  8 20  1  0  0  0  0
  9 27  1  0  0  0  0
  9 28  1  0  0  0  0
 10 14  1  0  0  0  0
 10 18  1  0  0  0  0
 10 29  1  0  0  0  0
 11 15  1  0  0  0  0
 11 23  1  0  0  0  0
 12 14  1  0  0  0  0
 12 30  1  0  0  0  0
 12 31  1  0  0  0  0
 13 15  1  0  0  0  0
 13 32  1  0  0  0  0
 13 33  1  0  0  0  0
 14 34  1  0  0  0  0
 14 35  1  0  0  0  0
 15 36  1  0  0  0  0
 15 37  1  0  0  0  0
 16 21  1  0  0  0  0
 16 38  1  0  0  0  0
 16 39  1  0  0  0  0
 17 40  1  0  0  0  0
 17 41  1  0  0  0  0
 17 42  1  0  0  0  0
 18 22  1  0  0  0  0
 18 43  1  0  0  0  0
 18 44  1  0  0  0  0
 19 45  1  0  0  0  0
 19 46  1  0  0  0  0
 19 47  1  0  0  0  0
 20 48  1  0  0  0  0
 20 49  1  0  0  0  0
 20 50  1  0  0  0  0
 21 22  1  0  0  0  0
 21 51  1  0  0  0  0
 21 52  1  0  0  0  0
 22 53  1  0  0  0  0
 22 54  1  0  0  0  0
 23 55  1  0  0  0  0
 23 56  1  0  0  0  0
 23 57  1  0  0  0  0
M  END
> <PUBCHEM_COMPOUND_CID>
224153

> <PUBCHEM_CONFORMER_RMSD>
0.6

> <PUBCHEM_CONFORMER_DIVERSEORDER>
1

> <PUBCHEM_MMFF94_PARTIAL_CHARGES>
6
1 -0.68
11 0.28
2 -0.68
58 0.4
59 0.4
8 0.28

> <PUBCHEM_EFFECTIVE_ROTOR_COUNT>
2.2

> <PUBCHEM_PHARMACOPHORE_FEATURES>
8
1 1 acceptor
1 1 donor
1 2 acceptor
1 2 donor
5 5 6 11 13 15 rings
6 3 4 5 6 8 9 rings
6 3 4 7 10 12 14 rings
6 7 10 16 18 21 22 rings

> <PUBCHEM_HEAVY_ATOM_COUNT>
23

> <PUBCHEM_ATOM_DEF_STEREO_COUNT>
8

> <PUBCHEM_ATOM_UDEF_STEREO_COUNT>
0

> <PUBCHEM_BOND_DEF_STEREO_COUNT>
0

> <PUBCHEM_BOND_UDEF_STEREO_COUNT>
0

> <PUBCHEM_ISOTOPIC_ATOM_COUNT>
0

> <PUBCHEM_COMPONENT_COUNT>
1

> <PUBCHEM_CACTVS_TAUTO_COUNT>
1

> <PUBCHEM_CONFORMER_ID>
00036B9900000001

> <PUBCHEM_MMFF94_ENERGY>
103.0006

> <PUBCHEM_FEATURE_SELFOVERLAP>
40.676

> <PUBCHEM_SHAPE_FINGERPRINT>
10366900 7 17458062664263291434
10498660 4 18412543227820191222
10759866 29 18060131076964488814
10863032 1 18335421300293956195
10967382 1 18411983597755404087
11112241 14 16590863420836227088
11132069 177 18409449189372983034
11578080 2 17272325407905629004
11680986 33 18192997006751796611
12011746 2 18407477764707999758
12035759 4 18128230373397578180
12236239 1 17704357650078850098
12403814 3 17418097619758856629
12553582 1 18340470214944843280
12596599 1 17894899741800897998
12788726 201 18041834146510348160
13132413 78 18410572872939655093
13140716 1 18267872679277999760
13224815 77 18334574654997620402
13583140 156 14201967920307932734
14790565 3 18122619720111800549
15099037 51 18342178864920658255
15196674 1 18410857685000615327
15536298 74 18187651275448263323
1601671 61 18413108363854093261
16752209 62 18269839868430145376
16945 1 18411975867204531440
17349148 13 18113616781426914471
17357779 13 18338812172842835013
17492 54 18058151865803184524
17804303 29 18336827503089293981
18186145 218 18113052736109172187
19591789 44 18195249046920282415
19862831 5 18409166614742460159
200 152 17822014198912811431
20715895 44 17768825504149921621
20871999 31 18342452629966907367
20905425 154 18120941873540543583
21029758 11 18333735706367049257
21033648 29 17968107395406038635
21267235 1 18410847763615839423
21285901 2 18200036269276849301
21421861 104 17772479137927677450
221490 88 18198055872747047451
2334 1 18409729547468753835
23402539 116 18335709350860478390
23419403 2 16024304827160293047
23493267 7 17703500086263491936
23557571 272 18334571352621346718
23558518 356 17768809015438025864
23559900 14 18334859429068240610
2748010 2 18192993712606708994
2871803 45 18411701019367672334
296302 2 16702015366127560551
3004659 81 18272653497706848262
3286 77 17531253897718179802
335352 9 18267305511234118831
34934 24 18412831265744534090
350125 39 18411413987225403041
474 4 16414622753944455308
495365 180 17458643193491721874
5104073 3 18410857684974294371
537710 114 18411416228285682676
7364860 26 18120091676158599800
9709674 26 18266463092539153195

> <PUBCHEM_SHAPE_MULTIPOLES>
461.59
8.73
2.51
1.2
1.41
0.02
-0.26
-0.83
1.69
0.39
0.2
-0.51
0.36
0.02

> <PUBCHEM_SHAPE_SELFOVERLAP>
975.366

> <PUBCHEM_SHAPE_VOLUME>
257.1

> <PUBCHEM_COORDINATE_TYPE>
2
5
10

$$$$

