32872
  -OEChem-07051213003D

 46 46  0     1  0  0  0  0  0999 V2000
    2.7636    0.8603   -2.4185 S   0  0  0  0  0  0  0  0  0  0  0  0
    2.0470   -0.0646   -0.8456 P   0  0  1  0  0  0  0  0  0  0  0  0
    0.4262    0.0256   -0.7287 O   0  0  0  0  0  0  0  0  0  0  0  0
    2.1869   -1.6897   -0.9600 O   0  0  0  0  0  0  0  0  0  0  0  0
   -3.5748   -0.2726    0.0869 O   0  0  0  0  0  0  0  0  0  0  0  0
   -2.0022   -1.0496   -1.4037 O   0  0  0  0  0  0  0  0  0  0  0  0
    2.6574    0.3234    0.6564 N   0  0  0  0  0  0  0  0  0  0  0  0
    4.0949    0.3339    0.8840 C   0  0  0  0  0  0  0  0  0  0  0  0
    4.4029    1.1281    2.1494 C   0  0  0  0  0  0  0  0  0  0  0  0
    4.6241   -1.0936    0.9902 C   0  0  0  0  0  0  0  0  0  0  0  0
   -0.3139    1.1278   -0.3922 C   0  0  0  0  0  0  0  0  0  0  0  0
   -1.7022    1.0579   -0.3298 C   0  0  0  0  0  0  0  0  0  0  0  0
    1.5291   -2.5337   -0.0288 C   0  0  0  0  0  0  0  0  0  0  0  0
   -4.0177   -1.5881    0.4377 C   0  0  0  0  0  0  0  0  0  0  0  0
    0.3460    2.3206   -0.1118 C   0  0  0  0  0  0  0  0  0  0  0  0
   -2.4377    2.1915    0.0164 C   0  0  0  0  0  0  0  0  0  0  0  0
   -2.4072   -0.1832   -0.6191 C   0  0  0  0  0  0  0  0  0  0  0  0
   -0.3894    3.4541    0.2343 C   0  0  0  0  0  0  0  0  0  0  0  0
   -1.7812    3.3896    0.2984 C   0  0  0  0  0  0  0  0  0  0  0  0
   -5.3388   -1.4892    1.1850 C   0  0  0  0  0  0  0  0  0  0  0  0
   -2.9447   -2.2717    1.2716 C   0  0  0  0  0  0  0  0  0  0  0  0
    1.8315   -3.9768   -0.3721 C   0  0  0  0  0  0  0  0  0  0  0  0
    4.6026    0.8379    0.0550 H   0  0  0  0  0  0  0  0  0  0  0  0
    2.1832   -0.0825    1.4623 H   0  0  0  0  0  0  0  0  0  0  0  0
    4.0325    2.1561    2.0670 H   0  0  0  0  0  0  0  0  0  0  0  0
    5.4835    1.1777    2.3217 H   0  0  0  0  0  0  0  0  0  0  0  0
    3.9432    0.6724    3.0338 H   0  0  0  0  0  0  0  0  0  0  0  0
    5.6923   -1.0861    1.2352 H   0  0  0  0  0  0  0  0  0  0  0  0
    4.1120   -1.6593    1.7762 H   0  0  0  0  0  0  0  0  0  0  0  0
    4.5192   -1.6358    0.0462 H   0  0  0  0  0  0  0  0  0  0  0  0
    1.8690   -2.3136    0.9862 H   0  0  0  0  0  0  0  0  0  0  0  0
    0.4493   -2.3690   -0.0802 H   0  0  0  0  0  0  0  0  0  0  0  0
   -4.1908   -2.1576   -0.4838 H   0  0  0  0  0  0  0  0  0  0  0  0
    1.4216    2.4331   -0.1513 H   0  0  0  0  0  0  0  0  0  0  0  0
   -3.5235    2.1780    0.0622 H   0  0  0  0  0  0  0  0  0  0  0  0
    0.1209    4.3879    0.4521 H   0  0  0  0  0  0  0  0  0  0  0  0
   -2.3537    4.2733    0.5646 H   0  0  0  0  0  0  0  0  0  0  0  0
   -5.2265   -0.8959    2.0992 H   0  0  0  0  0  0  0  0  0  0  0  0
   -6.0872   -0.9785    0.5695 H   0  0  0  0  0  0  0  0  0  0  0  0
   -5.7218   -2.4786    1.4527 H   0  0  0  0  0  0  0  0  0  0  0  0
   -2.0312   -2.4597    0.7000 H   0  0  0  0  0  0  0  0  0  0  0  0
   -3.2980   -3.2377    1.6467 H   0  0  0  0  0  0  0  0  0  0  0  0
   -2.6603   -1.6505    2.1284 H   0  0  0  0  0  0  0  0  0  0  0  0
    2.9101   -4.1626   -0.3374 H   0  0  0  0  0  0  0  0  0  0  0  0
    1.5008   -4.2087   -1.3899 H   0  0  0  0  0  0  0  0  0  0  0  0
    1.3335   -4.6569    0.3246 H   0  0  0  0  0  0  0  0  0  0  0  0
  1  2  2  0  0  0  0
  2  3  1  0  0  0  0
  2  4  1  0  0  0  0
  2  7  1  0  0  0  0
  3 11  1  0  0  0  0
  4 13  1  0  0  0  0
  5 14  1  0  0  0  0
  5 17  1  0  0  0  0
  6 17  2  0  0  0  0
  7  8  1  0  0  0  0
  7 24  1  0  0  0  0
  8  9  1  0  0  0  0
  8 10  1  0  0  0  0
  8 23  1  0  0  0  0
  9 25  1  0  0  0  0
  9 26  1  0  0  0  0
  9 27  1  0  0  0  0
 10 28  1  0  0  0  0
 10 29  1  0  0  0  0
 10 30  1  0  0  0  0
 11 12  1  0  0  0  0
 11 15  2  0  0  0  0
 12 16  2  0  0  0  0
 12 17  1  0  0  0  0
 13 22  1  0  0  0  0
 13 31  1  0  0  0  0
 13 32  1  0  0  0  0
 14 20  1  0  0  0  0
 14 21  1  0  0  0  0
 14 33  1  0  0  0  0
 15 18  1  0  0  0  0
 15 34  1  0  0  0  0
 16 19  1  0  0  0  0
 16 35  1  0  0  0  0
 18 19  2  0  0  0  0
 18 36  1  0  0  0  0
 19 37  1  0  0  0  0
 20 38  1  0  0  0  0
 20 39  1  0  0  0  0
 20 40  1  0  0  0  0
 21 41  1  0  0  0  0
 21 42  1  0  0  0  0
 21 43  1  0  0  0  0
 22 44  1  0  0  0  0
 22 45  1  0  0  0  0
 22 46  1  0  0  0  0
M  END
> <PUBCHEM_COMPOUND_CID>
32872

> <PUBCHEM_CONFORMER_RMSD>
1

> <PUBCHEM_CONFORMER_DIVERSEORDER>
1
365
516
473
247
401
190
202
176
99
204
183
193
517
165
230
7
212
404
500
119
548
427
406
367
179
441
370
534
62
117
353
203
162
128
386
285
49
187
335
121
51
382
72
292
43
363
359
15
511
74
82
77
357
373
523
65
205
325
41
431
375
112
224
252
399
75
407
191
342
330
262
503
251
289
336
131
430
94
35
331
8
175
4
257
103
298
107
39
440
52
248
138
17
334
38
33
106
418
5
166
78
73
108
136
61
148
11
291
454
492
217
490
362
504
84
261
366
13
391
10
216
526
6
151
465
42
12
21
37
389
160
539
70
221
139
25
277
23
71
200
154
80
57
538
350
378
322
109
409
28
92
537
374
508
485
302
282
422
163
450
295
64
2
174
546
93
241
390
461
463
22
122
188
97
337
66
211
153
185
9
31
469
141
46
18
260
279
30
32
113
536
19
213
146
324
196
123
351
419
169
258
380
142
24
358
270
54
312
287
388
320
349
44
199
144
414
483
293
395
290
471
91
237
425
402
549
475
225
219
317
101
470
158
489
118
394
126
403
376
451

> <PUBCHEM_MMFF94_PARTIAL_CHARGES>
22
1 -0.68
11 0.08
12 0.09
13 0.28
14 0.28
15 -0.15
16 -0.15
17 0.63
18 -0.15
19 -0.15
2 1.49
24 0.36
3 -0.35
34 0.15
35 0.15
36 0.15
37 0.15
4 -0.55
5 -0.43
6 -0.57
7 -0.9
8 0.27

> <PUBCHEM_EFFECTIVE_ROTOR_COUNT>
9

> <PUBCHEM_PHARMACOPHORE_FEATURES>
4
1 6 acceptor
3 14 20 21 hydrophobe
3 8 9 10 hydrophobe
6 11 12 15 16 18 19 rings

> <PUBCHEM_HEAVY_ATOM_COUNT>
22

> <PUBCHEM_ATOM_DEF_STEREO_COUNT>
0

> <PUBCHEM_ATOM_UDEF_STEREO_COUNT>
1

> <PUBCHEM_BOND_DEF_STEREO_COUNT>
0

> <PUBCHEM_BOND_UDEF_STEREO_COUNT>
0

> <PUBCHEM_ISOTOPIC_ATOM_COUNT>
0

> <PUBCHEM_COMPONENT_COUNT>
1

> <PUBCHEM_CACTVS_TAUTO_COUNT>
2

> <PUBCHEM_CONFORMER_ID>
0000806800000001

> <PUBCHEM_MMFF94_ENERGY>
37.4994

> <PUBCHEM_FEATURE_SELFOVERLAP>
20.297

> <PUBCHEM_SHAPE_FINGERPRINT>
10366900 7 18189352314811055984
1100329 8 17762619486976799052
11796584 16 17202780215084908803
12553582 1 18336818694095591567
12596602 18 17703246052640301592
12633257 1 18198047094060988523
12788726 201 18199731622935985721
12824470 246 17704082797403912905
12892183 10 18267605618643843544
12930653 34 18263656206856782432
13140716 1 18047473322879802007
13583140 156 17969518167656325076
13965767 371 17531791541882717271
14081887 123 18337392746069792570
14178342 30 18270118057983468180
14223421 5 18189905386313140796
14787075 74 17843411687279454776
14863182 85 18412536592307404174
15422964 175 18411695500266131743
17349148 13 18060699498526734618
20344682 10 18336555936475372486
20626108 58 17560806485112774765
21069387 34 16559033796252284976
21421861 104 18270380721104045457
21756936 100 4967317072254404264
23557571 272 18410855494699013888
23558518 356 18049442848810908693
23559900 14 18267582605718441582
2748010 2 18115301310297157413
3004659 81 17846491504958102703
392239 28 18193857967543311074
394222 165 17343768306250292956
49207404 50 18188505639565773256
5104073 3 18263938777287654776
6004065 56 18191882128264214063
633830 44 14057009261391469792
81228 2 18337950220288746461
9709674 26 18046916145098780078

> <PUBCHEM_SHAPE_MULTIPOLES>
431.99
8.69
4.16
1.61
1.45
0.23
-0.19
4.21
4.36
1.08
0.33
-1.79
-0.11
0.95

> <PUBCHEM_SHAPE_SELFOVERLAP>
839.032

> <PUBCHEM_SHAPE_VOLUME>
264.3

> <PUBCHEM_COORDINATE_TYPE>
2
5
10

$$$$

