11306
  -OEChem-06261205313D

 24 25  0     0  0  0  0  0  0999 V2000
   -0.4032   -0.5815    0.0001 C   0  0  0  0  0  0  0  0  0  0  0  0
    0.4033    0.5815   -0.0002 C   0  0  0  0  0  0  0  0  0  0  0  0
   -1.8011   -0.4479    0.0003 C   0  0  0  0  0  0  0  0  0  0  0  0
    1.8012    0.4479   -0.0004 C   0  0  0  0  0  0  0  0  0  0  0  0
    0.2122   -1.8439    0.0002 C   0  0  0  0  0  0  0  0  0  0  0  0
   -0.2122    1.8440   -0.0003 C   0  0  0  0  0  0  0  0  0  0  0  0
   -2.3956    0.8141    0.0001 C   0  0  0  0  0  0  0  0  0  0  0  0
    2.3957   -0.8143   -0.0003 C   0  0  0  0  0  0  0  0  0  0  0  0
    1.6028   -1.9580    0.0000 C   0  0  0  0  0  0  0  0  0  0  0  0
   -1.6027    1.9579   -0.0002 C   0  0  0  0  0  0  0  0  0  0  0  0
   -2.7127   -1.6363    0.0000 C   0  0  0  0  0  0  0  0  0  0  0  0
    2.7124    1.6364    0.0007 C   0  0  0  0  0  0  0  0  0  0  0  0
   -0.3659   -2.7645    0.0004 H   0  0  0  0  0  0  0  0  0  0  0  0
    0.3658    2.7646   -0.0005 H   0  0  0  0  0  0  0  0  0  0  0  0
   -3.4767    0.9256    0.0002 H   0  0  0  0  0  0  0  0  0  0  0  0
    3.4768   -0.9257   -0.0003 H   0  0  0  0  0  0  0  0  0  0  0  0
    2.0663   -2.9403    0.0001 H   0  0  0  0  0  0  0  0  0  0  0  0
   -2.0663    2.9402   -0.0003 H   0  0  0  0  0  0  0  0  0  0  0  0
   -2.5506   -2.2461    0.8950 H   0  0  0  0  0  0  0  0  0  0  0  0
   -2.5507   -2.2454   -0.8955 H   0  0  0  0  0  0  0  0  0  0  0  0
   -3.7686   -1.3432    0.0002 H   0  0  0  0  0  0  0  0  0  0  0  0
    2.5501    2.2450    0.8965 H   0  0  0  0  0  0  0  0  0  0  0  0
    3.7683    1.3435    0.0005 H   0  0  0  0  0  0  0  0  0  0  0  0
    2.5502    2.2466   -0.8939 H   0  0  0  0  0  0  0  0  0  0  0  0
  1  2  1  0  0  0  0
  1  3  2  0  0  0  0
  1  5  1  0  0  0  0
  2  4  1  0  0  0  0
  2  6  2  0  0  0  0
  3  7  1  0  0  0  0
  3 11  1  0  0  0  0
  4  8  2  0  0  0  0
  4 12  1  0  0  0  0
  5  9  2  0  0  0  0
  5 13  1  0  0  0  0
  6 10  1  0  0  0  0
  6 14  1  0  0  0  0
  7 10  2  0  0  0  0
  7 15  1  0  0  0  0
  8  9  1  0  0  0  0
  8 16  1  0  0  0  0
  9 17  1  0  0  0  0
 10 18  1  0  0  0  0
 11 19  1  0  0  0  0
 11 20  1  0  0  0  0
 11 21  1  0  0  0  0
 12 22  1  0  0  0  0
 12 23  1  0  0  0  0
 12 24  1  0  0  0  0
M  END
> <PUBCHEM_COMPOUND_CID>
11306

> <PUBCHEM_CONFORMER_RMSD>
0.4

> <PUBCHEM_CONFORMER_DIVERSEORDER>
1

> <PUBCHEM_MMFF94_PARTIAL_CHARGES>
16
10 -0.15
11 0.14
12 0.14
13 0.15
14 0.15
15 0.15
16 0.15
17 0.15
18 0.15
3 -0.14
4 -0.14
5 -0.15
6 -0.15
7 -0.15
8 -0.15
9 -0.15

> <PUBCHEM_EFFECTIVE_ROTOR_COUNT>
0

> <PUBCHEM_PHARMACOPHORE_FEATURES>
2
6 1 2 3 6 7 10 rings
6 1 2 4 5 8 9 rings

> <PUBCHEM_HEAVY_ATOM_COUNT>
12

> <PUBCHEM_ATOM_DEF_STEREO_COUNT>
0

> <PUBCHEM_ATOM_UDEF_STEREO_COUNT>
0

> <PUBCHEM_BOND_DEF_STEREO_COUNT>
0

> <PUBCHEM_BOND_UDEF_STEREO_COUNT>
0

> <PUBCHEM_ISOTOPIC_ATOM_COUNT>
0

> <PUBCHEM_COMPONENT_COUNT>
1

> <PUBCHEM_CACTVS_TAUTO_COUNT>
1

> <PUBCHEM_CONFORMER_ID>
00002C2A00000001

> <PUBCHEM_MMFF94_ENERGY>
38.6784

> <PUBCHEM_FEATURE_SELFOVERLAP>
10.175

> <PUBCHEM_SHAPE_FINGERPRINT>
10967382 1 18338799030142506565
11206711 2 18339917207735087734
12423570 1 8118564792028724120
12524768 44 18268144438774637205
12897270 3 18410856568235005540
13140716 1 18410856602589463008
13380535 21 18337376240568664889
13897977 150 18410860975040620013
14614273 12 18272100382832720869
16945 1 18194682798273462278
17990270 104 18265334091370465310
193761 8 18338516446948098053
19973954 147 18338234972013604906
20511035 2 18043829790221269062
20588541 1 18123466077259555995
21040471 1 17978510059141019428
21501502 16 18410574019511189537
2334 1 18410856525280051207
23388829 49 18192997011062484159
23402539 116 18046357339999562246
23419403 2 16250624147372433905
23463225 33 18342181059459009832
23552423 10 18342736351132359918
23559900 14 17974000950216074438
241688 4 18411981390242278577
25 1 16759733443323596661
2748010 2 18410575080368111775
2897 32 18340204085691031108
5084963 1 18186801400326101498
5255222 1 18196372739235098860
528886 8 18410016558562908899
66348 1 18338516455538032694
7364860 26 18261956361927732950

> <PUBCHEM_SHAPE_MULTIPOLES>
246.95
3.8
2.47
0.62
0
0
0
0
0
0
0
0
0
0

> <PUBCHEM_SHAPE_SELFOVERLAP>
538.805

> <PUBCHEM_SHAPE_VOLUME>
127.4

> <PUBCHEM_COORDINATE_TYPE>
2
5
10

$$$$

