17396279
  -OEChem-06241222553D

 35 37  0     0  0  0  0  0  0999 V2000
    4.1911    3.6552   -0.3685 Cl  0  0  0  0  0  0  0  0  0  0  0  0
   -5.2215   -0.7134   -0.2186 O   0  0  0  0  0  0  0  0  0  0  0  0
    3.5115   -2.1328    0.3641 O   0  0  0  0  0  0  0  0  0  0  0  0
    1.1303   -1.7276   -0.7049 O   0  0  0  0  0  0  0  0  0  0  0  0
    0.1583    0.2757    0.0510 N   0  0  0  0  0  0  0  0  0  0  0  0
   -4.6358    1.3442    0.5294 N   0  0  0  0  0  0  0  0  0  0  0  0
   -1.2032   -0.0223   -0.0342 C   0  0  0  0  0  0  0  0  0  0  0  0
   -3.5033    0.6208    0.2432 C   0  0  0  0  0  0  0  0  0  0  0  0
   -3.8580   -0.6395   -0.2149 C   0  0  0  0  0  0  0  0  0  0  0  0
   -2.1434    0.9488    0.3400 C   0  0  0  0  0  0  0  0  0  0  0  0
   -1.6044   -1.2835   -0.4917 C   0  0  0  0  0  0  0  0  0  0  0  0
   -2.9569   -1.6265   -0.5943 C   0  0  0  0  0  0  0  0  0  0  0  0
    2.5559    0.0127   -0.1246 C   0  0  0  0  0  0  0  0  0  0  0  0
    1.2007   -0.5786   -0.2827 C   0  0  0  0  0  0  0  0  0  0  0  0
   -5.6096    0.5097    0.2394 C   0  0  0  0  0  0  0  0  0  0  0  0
    3.6533   -0.7881    0.1919 C   0  0  0  0  0  0  0  0  0  0  0  0
    2.7221    1.3868   -0.2977 C   0  0  0  0  0  0  0  0  0  0  0  0
    4.9169   -0.2148    0.3353 C   0  0  0  0  0  0  0  0  0  0  0  0
    3.9858    1.9600   -0.1542 C   0  0  0  0  0  0  0  0  0  0  0  0
   -7.0605    0.7263    0.3443 C   0  0  0  0  0  0  0  0  0  0  0  0
    5.0831    1.1590    0.1621 C   0  0  0  0  0  0  0  0  0  0  0  0
    4.6877   -2.8719    0.6857 C   0  0  0  0  0  0  0  0  0  0  0  0
   -1.8359    1.9276    0.6947 H   0  0  0  0  0  0  0  0  0  0  0  0
   -0.9335   -2.0736   -0.7944 H   0  0  0  0  0  0  0  0  0  0  0  0
   -3.2791   -2.5985   -0.9468 H   0  0  0  0  0  0  0  0  0  0  0  0
    0.3689    1.1943    0.4308 H   0  0  0  0  0  0  0  0  0  0  0  0
    1.8950    2.0314   -0.5834 H   0  0  0  0  0  0  0  0  0  0  0  0
    5.8146   -0.7721    0.5795 H   0  0  0  0  0  0  0  0  0  0  0  0
   -7.5372    0.6176   -0.6344 H   0  0  0  0  0  0  0  0  0  0  0  0
   -7.5086    0.0023    1.0313 H   0  0  0  0  0  0  0  0  0  0  0  0
   -7.2768    1.7312    0.7192 H   0  0  0  0  0  0  0  0  0  0  0  0
    6.0732    1.5932    0.2765 H   0  0  0  0  0  0  0  0  0  0  0  0
    4.3906   -3.9210    0.7867 H   0  0  0  0  0  0  0  0  0  0  0  0
    5.1056   -2.5670    1.6512 H   0  0  0  0  0  0  0  0  0  0  0  0
    5.4261   -2.8284   -0.1223 H   0  0  0  0  0  0  0  0  0  0  0  0
  1 19  1  0  0  0  0
  2  9  1  0  0  0  0
  2 15  1  0  0  0  0
  3 16  1  0  0  0  0
  3 22  1  0  0  0  0
  4 14  2  0  0  0  0
  5  7  1  0  0  0  0
  5 14  1  0  0  0  0
  5 26  1  0  0  0  0
  6  8  1  0  0  0  0
  6 15  2  0  0  0  0
  7 10  2  0  0  0  0
  7 11  1  0  0  0  0
  8  9  2  0  0  0  0
  8 10  1  0  0  0  0
  9 12  1  0  0  0  0
 10 23  1  0  0  0  0
 11 12  2  0  0  0  0
 11 24  1  0  0  0  0
 12 25  1  0  0  0  0
 13 14  1  0  0  0  0
 13 16  2  0  0  0  0
 13 17  1  0  0  0  0
 15 20  1  0  0  0  0
 16 18  1  0  0  0  0
 17 19  2  0  0  0  0
 17 27  1  0  0  0  0
 18 21  2  0  0  0  0
 18 28  1  0  0  0  0
 19 21  1  0  0  0  0
 20 29  1  0  0  0  0
 20 30  1  0  0  0  0
 20 31  1  0  0  0  0
 21 32  1  0  0  0  0
 22 33  1  0  0  0  0
 22 34  1  0  0  0  0
 22 35  1  0  0  0  0
M  END
> <PUBCHEM_COMPOUND_CID>
17396279

> <PUBCHEM_CONFORMER_RMSD>
0.6

> <PUBCHEM_CONFORMER_DIVERSEORDER>
10
2
21
20
11
31
26
32
30
16
7
23
17
9
4
33
15
6
22
3
13
18
14
29
19
28
25
24
35
1
34
12
5
8
27

> <PUBCHEM_MMFF94_PARTIAL_CHARGES>
29
1 -0.18
10 -0.15
11 -0.15
12 -0.15
13 0.09
14 0.54
15 0.3
16 0.08
17 -0.15
18 -0.15
19 0.18
2 -0.28
20 0.18
21 -0.15
22 0.28
23 0.15
24 0.15
25 0.15
26 0.37
27 0.15
28 0.15
3 -0.36
32 0.15
4 -0.57
5 -0.55
6 -0.57
7 0.12
8 0.23
9 0.14

> <PUBCHEM_EFFECTIVE_ROTOR_COUNT>
4

> <PUBCHEM_PHARMACOPHORE_FEATURES>
6
1 3 acceptor
1 4 acceptor
1 5 donor
5 2 6 8 9 15 rings
6 13 16 17 18 19 21 rings
6 7 8 9 10 11 12 rings

> <PUBCHEM_HEAVY_ATOM_COUNT>
22

> <PUBCHEM_ATOM_DEF_STEREO_COUNT>
0

> <PUBCHEM_ATOM_UDEF_STEREO_COUNT>
0

> <PUBCHEM_BOND_DEF_STEREO_COUNT>
0

> <PUBCHEM_BOND_UDEF_STEREO_COUNT>
0

> <PUBCHEM_ISOTOPIC_ATOM_COUNT>
0

> <PUBCHEM_COMPONENT_COUNT>
1

> <PUBCHEM_CACTVS_TAUTO_COUNT>
2

> <PUBCHEM_CONFORMER_ID>
010972370000000A

> <PUBCHEM_MMFF94_ENERGY>
67.6443

> <PUBCHEM_FEATURE_SELFOVERLAP>
30.573

> <PUBCHEM_SHAPE_FINGERPRINT>
10411042 1 18051977211003860594
10554248 39 18334584576757054061
10595046 47 18336829689100871733
10906281 52 17677314079562575833
10912923 1 18186800275318885611
10937287 8 17265519259226338988
12107183 9 17904762528679529288
12236239 1 18410013247718279419
12403259 415 17846504763442712671
12596602 18 18272367560464449795
12616971 3 18334583451180450175
12788726 201 17530954813402150737
13167372 99 18262797492628959929
13167823 11 18409732863093790058
13533116 47 18272651289719027570
13785724 45 17830731315998175374
13878862 14 18268734799173068661
13955234 65 18342461435319842506
14341114 176 18411416241260372122
14528608 73 18334854965906546164
14739800 52 17822867381329155832
15196674 1 18408603639235467431
15250474 111 18261971651537514942
15348495 7 18131063810419417067
15475509 35 16558202608975680866
17844677 252 18339637948993435697
1813 80 17060617819456995262
18681886 176 17967817120436931098
19427546 62 18340767040287884554
20157964 124 18411699885068862761
20281389 69 18342455976543327573
20511986 3 18261127248039079029
20645477 70 18410574024371055590
20715895 44 18046908461803785785
21033648 29 16916521288756204245
21065198 48 18408888412541528095
21267235 1 18337950212004578474
21315764 268 18343024423638345117
21344244 78 18263943175371167088
21781055 127 16806429461436374178
21859007 373 17630620126912427893
23081809 10 18040157318985666647
23402539 116 18113344111375695525
23559900 14 17822001047601814238
239999 70 18261104180550694798
245318 6 17197969701311315692
268830 7 18341343214102413783
2838139 119 18198350752934374629
300161 21 18187369813314243437
3004659 81 18187642539880545478
335352 9 18409727357863179638
34797466 226 16878495727129349629
350125 39 18410293614609466428
3545911 37 18410572881635097404
3680242 22 18334850662459910201
397830 11 17416952947199244937
4073 2 18130782304998451954
4214541 1 18408886239387978117
4340502 62 17775279474454470955
474 4 18272088232639239436
5104073 3 18409726257845429323
542803 24 18412263926186648357
633830 44 18336829697812535406
8272917 22 18410855465135630030
9971528 1 17846495941611678076
9981440 41 17908708332910482160

> <PUBCHEM_SHAPE_MULTIPOLES>
427.05
15.4
2.75
0.73
14.38
0.69
0.01
3.67
-2.1
-5.31
0.04
-0.01
-0.08
-1.4

> <PUBCHEM_SHAPE_SELFOVERLAP>
930.453

> <PUBCHEM_SHAPE_VOLUME>
235.2

> <PUBCHEM_COORDINATE_TYPE>
2
5
10

$$$$

