5280501
  -OEChem-07051212463D

 11 10  0     0  0  0  0  0  0999 V2000
   -2.7085    0.9883    0.0002 O   0  0  0  0  0  0  0  0  0  0  0  0
   -2.2082   -1.2321    0.0001 O   0  0  0  0  0  0  0  0  0  0  0  0
    2.8191   -0.7798    0.0005 O   0  5  0  0  0  0  0  0  0  0  0  0
    1.9682    1.2517    0.0000 O   0  0  0  0  0  0  0  0  0  0  0  0
    1.8667    0.0153   -0.0002 N   0  3  0  0  0  0  0  0  0  0  0  0
   -0.4390    0.3506    0.0000 C   0  0  0  0  0  0  0  0  0  0  0  0
    0.5587   -0.5327   -0.0006 C   0  0  0  0  0  0  0  0  0  0  0  0
   -1.8570   -0.0612    0.0000 C   0  0  0  0  0  0  0  0  0  0  0  0
   -0.2998    1.4280    0.0004 H   0  0  0  0  0  0  0  0  0  0  0  0
    0.5144   -1.6111   -0.0010 H   0  0  0  0  0  0  0  0  0  0  0  0
   -3.6466    0.7012    0.0004 H   0  0  0  0  0  0  0  0  0  0  0  0
  1  8  1  0  0  0  0
  1 11  1  0  0  0  0
  2  8  2  0  0  0  0
  3  5  1  0  0  0  0
  4  5  2  0  0  0  0
  5  7  1  0  0  0  0
  6  7  2  0  0  0  0
  6  8  1  0  0  0  0
  6  9  1  0  0  0  0
  7 10  1  0  0  0  0
M  CHG  2   3  -1   5   1
M  END
> <PUBCHEM_COMPOUND_CID>
5280501

> <PUBCHEM_CONFORMER_RMSD>
0.4

> <PUBCHEM_CONFORMER_DIVERSEORDER>
1
2
3

> <PUBCHEM_MMFF94_PARTIAL_CHARGES>
11
1 -0.65
10 0.15
11 0.5
2 -0.57
3 -0.52
4 -0.52
5 0.84
6 -0.14
7 0.05
8 0.71
9 0.15

> <PUBCHEM_EFFECTIVE_ROTOR_COUNT>
2

> <PUBCHEM_PHARMACOPHORE_FEATURES>
6
1 1 acceptor
1 2 acceptor
1 3 acceptor
1 3 anion
1 4 acceptor
3 1 2 8 anion

> <PUBCHEM_HEAVY_ATOM_COUNT>
8

> <PUBCHEM_ATOM_DEF_STEREO_COUNT>
0

> <PUBCHEM_ATOM_UDEF_STEREO_COUNT>
0

> <PUBCHEM_BOND_DEF_STEREO_COUNT>
1

> <PUBCHEM_BOND_UDEF_STEREO_COUNT>
0

> <PUBCHEM_ISOTOPIC_ATOM_COUNT>
0

> <PUBCHEM_COMPONENT_COUNT>
1

> <PUBCHEM_CACTVS_TAUTO_COUNT>
2

> <PUBCHEM_CONFORMER_ID>
005092F500000001

> <PUBCHEM_MMFF94_ENERGY>
17.9715

> <PUBCHEM_FEATURE_SELFOVERLAP>
30.582

> <PUBCHEM_SHAPE_FINGERPRINT>
12932764 1 17489595575125997833
14325111 11 18410856542565421922
14390081 3 18335706013755324169
19973954 147 18411135801318324585
21040471 1 18338797793365920678
23552423 10 18272369754459585782
29004967 10 16660639652752954642
3248919 1 17313097566330865191
5460574 1 9295291637888483042

> <PUBCHEM_SHAPE_MULTIPOLES>
136.18
4.14
1.12
0.55
0.33
0.05
0
-0.02
0
-0.1
0
-0.02
0
0

> <PUBCHEM_SHAPE_SELFOVERLAP>
262.803

> <PUBCHEM_SHAPE_VOLUME>
82.7

> <PUBCHEM_COORDINATE_TYPE>
2
5
10

$$$$

