13763
  -OEChem-06241222403D

 54 54  0     0  0  0  0  0  0999 V2000
    2.6796   -1.7157    0.0436 N   0  3  0  0  0  0  0  0  0  0  0  0
    1.6157   -0.8159    0.5474 C   0  0  0  0  0  0  0  0  0  0  0  0
    0.2551   -1.2227   -0.0076 C   0  0  0  0  0  0  0  0  0  0  0  0
    4.0496   -1.3151    0.6101 C   0  0  0  0  0  0  0  0  0  0  0  0
   -0.8832   -0.2979    0.4353 C   0  0  0  0  0  0  0  0  0  0  0  0
    2.7641   -1.6589   -1.4888 C   0  0  0  0  0  0  0  0  0  0  0  0
    2.4042   -3.1708    0.4505 C   0  0  0  0  0  0  0  0  0  0  0  0
   -2.2371   -0.6618   -0.1834 C   0  0  0  0  0  0  0  0  0  0  0  0
   -3.3904    0.2140    0.3118 C   0  0  0  0  0  0  0  0  0  0  0  0
    4.4337    0.0964    0.2768 C   0  0  0  0  0  0  0  0  0  0  0  0
   -4.7268   -0.2429   -0.2806 C   0  0  0  0  0  0  0  0  0  0  0  0
   -5.8849    0.6084    0.2447 C   0  0  0  0  0  0  0  0  0  0  0  0
   -7.2444    0.2146   -0.3401 C   0  0  0  0  0  0  0  0  0  0  0  0
    5.1437    0.3682   -0.8927 C   0  0  0  0  0  0  0  0  0  0  0  0
    4.0805    1.1371    1.1360 C   0  0  0  0  0  0  0  0  0  0  0  0
   -8.4107    1.0158    0.2398 C   0  0  0  0  0  0  0  0  0  0  0  0
    5.5008    1.6804   -1.2030 C   0  0  0  0  0  0  0  0  0  0  0  0
    4.4375    2.4493    0.8256 C   0  0  0  0  0  0  0  0  0  0  0  0
    5.1476    2.7209   -0.3438 C   0  0  0  0  0  0  0  0  0  0  0  0
   -9.7345    0.5965   -0.3814 C   0  0  0  0  0  0  0  0  0  0  0  0
    1.8194    0.2074    0.2195 H   0  0  0  0  0  0  0  0  0  0  0  0
    1.6171   -0.8512    1.6433 H   0  0  0  0  0  0  0  0  0  0  0  0
   -0.0158   -2.2330    0.3150 H   0  0  0  0  0  0  0  0  0  0  0  0
    0.2570   -1.2196   -1.1021 H   0  0  0  0  0  0  0  0  0  0  0  0
    4.7949   -2.0235    0.2258 H   0  0  0  0  0  0  0  0  0  0  0  0
    4.0022   -1.4565    1.6978 H   0  0  0  0  0  0  0  0  0  0  0  0
   -0.9637   -0.3297    1.5289 H   0  0  0  0  0  0  0  0  0  0  0  0
   -0.6363    0.7365    0.1658 H   0  0  0  0  0  0  0  0  0  0  0  0
    2.7191   -0.6178   -1.8191 H   0  0  0  0  0  0  0  0  0  0  0  0
    3.6950   -2.1397   -1.8050 H   0  0  0  0  0  0  0  0  0  0  0  0
    1.9292   -2.2214   -1.9165 H   0  0  0  0  0  0  0  0  0  0  0  0
    2.2190   -3.1981    1.5283 H   0  0  0  0  0  0  0  0  0  0  0  0
    1.5506   -3.5596   -0.1096 H   0  0  0  0  0  0  0  0  0  0  0  0
    3.2892   -3.7661    0.2038 H   0  0  0  0  0  0  0  0  0  0  0  0
   -2.4598   -1.7114    0.0465 H   0  0  0  0  0  0  0  0  0  0  0  0
   -2.1668   -0.5857   -1.2755 H   0  0  0  0  0  0  0  0  0  0  0  0
   -3.2002    1.2592    0.0403 H   0  0  0  0  0  0  0  0  0  0  0  0
   -3.4396    0.1670    1.4064 H   0  0  0  0  0  0  0  0  0  0  0  0
   -4.6871   -0.1743   -1.3744 H   0  0  0  0  0  0  0  0  0  0  0  0
   -4.9044   -1.2951   -0.0279 H   0  0  0  0  0  0  0  0  0  0  0  0
   -5.9268    0.5216    1.3377 H   0  0  0  0  0  0  0  0  0  0  0  0
   -5.6926    1.6645    0.0185 H   0  0  0  0  0  0  0  0  0  0  0  0
   -7.2165    0.3474   -1.4288 H   0  0  0  0  0  0  0  0  0  0  0  0
   -7.4166   -0.8534   -0.1566 H   0  0  0  0  0  0  0  0  0  0  0  0
    5.4384   -0.4309   -1.5672 H   0  0  0  0  0  0  0  0  0  0  0  0
    3.5347    0.9409    2.0551 H   0  0  0  0  0  0  0  0  0  0  0  0
   -8.4578    0.8702    1.3251 H   0  0  0  0  0  0  0  0  0  0  0  0
   -8.2505    2.0854    0.0616 H   0  0  0  0  0  0  0  0  0  0  0  0
    6.0563    1.8917   -2.1120 H   0  0  0  0  0  0  0  0  0  0  0  0
    4.1643    3.2594    1.4954 H   0  0  0  0  0  0  0  0  0  0  0  0
    5.4266    3.7425   -0.5849 H   0  0  0  0  0  0  0  0  0  0  0  0
   -9.9376   -0.4628   -0.1943 H   0  0  0  0  0  0  0  0  0  0  0  0
  -10.5553    1.1806    0.0464 H   0  0  0  0  0  0  0  0  0  0  0  0
   -9.7293    0.7600   -1.4638 H   0  0  0  0  0  0  0  0  0  0  0  0
  1  2  1  0  0  0  0
  1  4  1  0  0  0  0
  1  6  1  0  0  0  0
  1  7  1  0  0  0  0
  2  3  1  0  0  0  0
  2 21  1  0  0  0  0
  2 22  1  0  0  0  0
  3  5  1  0  0  0  0
  3 23  1  0  0  0  0
  3 24  1  0  0  0  0
  4 10  1  0  0  0  0
  4 25  1  0  0  0  0
  4 26  1  0  0  0  0
  5  8  1  0  0  0  0
  5 27  1  0  0  0  0
  5 28  1  0  0  0  0
  6 29  1  0  0  0  0
  6 30  1  0  0  0  0
  6 31  1  0  0  0  0
  7 32  1  0  0  0  0
  7 33  1  0  0  0  0
  7 34  1  0  0  0  0
  8  9  1  0  0  0  0
  8 35  1  0  0  0  0
  8 36  1  0  0  0  0
  9 11  1  0  0  0  0
  9 37  1  0  0  0  0
  9 38  1  0  0  0  0
 10 14  2  0  0  0  0
 10 15  1  0  0  0  0
 11 12  1  0  0  0  0
 11 39  1  0  0  0  0
 11 40  1  0  0  0  0
 12 13  1  0  0  0  0
 12 41  1  0  0  0  0
 12 42  1  0  0  0  0
 13 16  1  0  0  0  0
 13 43  1  0  0  0  0
 13 44  1  0  0  0  0
 14 17  1  0  0  0  0
 14 45  1  0  0  0  0
 15 18  2  0  0  0  0
 15 46  1  0  0  0  0
 16 20  1  0  0  0  0
 16 47  1  0  0  0  0
 16 48  1  0  0  0  0
 17 19  2  0  0  0  0
 17 49  1  0  0  0  0
 18 19  1  0  0  0  0
 18 50  1  0  0  0  0
 19 51  1  0  0  0  0
 20 52  1  0  0  0  0
 20 53  1  0  0  0  0
 20 54  1  0  0  0  0
M  CHG  1   1   1
M  END
> <PUBCHEM_COMPOUND_CID>
13763

> <PUBCHEM_CONFORMER_RMSD>
1.2

> <PUBCHEM_CONFORMER_DIVERSEORDER>
1
32
64
51
36
19
86
85
13
75
15
88
87
89
40
84
50
55
80
63
21
39
77
91
28
41
34
47
60
92
58
43
54
42
22
90
11
25
83
5
68
66
37
49
33
78
16
69
7
70
18
2
26
46
6
30
61
17
67
23
14
73
44
10
52
82
27
12
31
38
35
62
59
56
45
74
4
65
20
29
57
72
9
53
81
8
71
79
24
3
48
76

> <PUBCHEM_MMFF94_PARTIAL_CHARGES>
16
1 -1.01
10 -0.14
14 -0.15
15 -0.15
17 -0.15
18 -0.15
19 -0.15
2 0.5
4 0.65
45 0.15
46 0.15
49 0.15
50 0.15
51 0.15
6 0.5
7 0.5

> <PUBCHEM_EFFECTIVE_ROTOR_COUNT>
11

> <PUBCHEM_PHARMACOPHORE_FEATURES>
3
1 1 cation
1 20 hydrophobe
6 10 14 15 17 18 19 rings

> <PUBCHEM_HEAVY_ATOM_COUNT>
20

> <PUBCHEM_ATOM_DEF_STEREO_COUNT>
0

> <PUBCHEM_ATOM_UDEF_STEREO_COUNT>
0

> <PUBCHEM_BOND_DEF_STEREO_COUNT>
0

> <PUBCHEM_BOND_UDEF_STEREO_COUNT>
0

> <PUBCHEM_ISOTOPIC_ATOM_COUNT>
0

> <PUBCHEM_COMPONENT_COUNT>
1

> <PUBCHEM_CACTVS_TAUTO_COUNT>
1

> <PUBCHEM_CONFORMER_ID>
000035C300000001

> <PUBCHEM_MMFF94_ENERGY>
40.6051

> <PUBCHEM_FEATURE_SELFOVERLAP>
15.223

> <PUBCHEM_SHAPE_FINGERPRINT>
10066227 49 8502659203991121869
10165383 225 18131346394215056350
10411042 1 17907017632131180146
10638233 991 18040713671764320561
11211813 74 18341897429153067453
11719270 70 12823299018214721185
125118 31 18271526494267834165
12730499 353 18412537704724844506
13533116 47 18270683189770304771
13617811 41 15719390638153134065
13955234 65 18201163264395883090
14142895 15 18338798919449140863
14170010 4 18202562878499865669
14251757 52 18409450297960030505
14251764 18 18040718078896280625
14347332 77 8935012464288244603
14429380 56 18411147926654462949
14461889 52 17774995753125585635
14528608 73 18260831458189539414
14598715 104 17346332522539029565
15183329 4 17749385975720650769
155225 6 17914325780456096876
16120349 18 18411143528866453325
1754908 1 16773788213642777281
18335252 114 18260263058365835380
19427546 62 18412544301526001338
20157964 124 18411981381847619987
20281389 69 18201723981366521757
20554085 129 16630812106311456209
20621476 38 9223231849876718849
21049683 118 18128835061795820138
21150785 3 17967814947273072277
21304303 94 15864061084017226262
21344244 78 18120109509585630202
22224240 67 17489870445551121427
2303208 19 5184059375595140495
255183 451 17752757207115481902
28498 318 7997973462683549041
328311 84 6771861892863714589
34797466 226 18259981609053394607
4073 2 18272649018414837107
4325135 7 18260830414618053117
444735 82 18273494589895593213
44555599 121 18188484813407077017
445580 126 18335711516199294096
465052 167 9583523122526957336
5312510 48 18335421214442706896
6025842 7 18335137635106126846
6438161 24 6627473986289674428

> <PUBCHEM_SHAPE_MULTIPOLES>
406.61
24.37
2.59
1.03
71.28
0.28
-0.16
-14.5
-2.91
-5.86
0.13
-1.31
-0.06
-0.24

> <PUBCHEM_SHAPE_SELFOVERLAP>
783.508

> <PUBCHEM_SHAPE_VOLUME>
249.1

> <PUBCHEM_COORDINATE_TYPE>
2
5
10

$$$$

