5280549
  -OEChem-07051212473D

 19 18  0     0  0  0  0  0  0999 V2000
    2.3726    0.5580   -0.4492 O   0  0  0  0  0  0  0  0  0  0  0  0
   -0.0718   -1.1267   -0.6058 C   0  0  0  0  0  0  0  0  0  0  0  0
    0.0603    0.2178    0.0749 C   0  0  0  0  0  0  0  0  0  0  0  0
    1.4290    0.5546    0.6141 C   0  0  0  0  0  0  0  0  0  0  0  0
   -0.4646   -2.2273    0.3690 C   0  0  0  0  0  0  0  0  0  0  0  0
   -0.9522    1.0961    0.2142 C   0  0  0  0  0  0  0  0  0  0  0  0
   -2.3733    0.9276   -0.2173 C   0  0  0  0  0  0  0  0  0  0  0  0
    0.8701   -1.3980   -1.0967 H   0  0  0  0  0  0  0  0  0  0  0  0
   -0.8097   -1.0786   -1.4146 H   0  0  0  0  0  0  0  0  0  0  0  0
    1.4551    1.5378    1.0953 H   0  0  0  0  0  0  0  0  0  0  0  0
    1.7356   -0.1937    1.3525 H   0  0  0  0  0  0  0  0  0  0  0  0
   -0.5525   -3.1831   -0.1576 H   0  0  0  0  0  0  0  0  0  0  0  0
    0.2857   -2.3456    1.1578 H   0  0  0  0  0  0  0  0  0  0  0  0
   -1.4280   -2.0146    0.8439 H   0  0  0  0  0  0  0  0  0  0  0  0
   -0.7487    2.0433    0.7111 H   0  0  0  0  0  0  0  0  0  0  0  0
   -3.0371    1.0973    0.6365 H   0  0  0  0  0  0  0  0  0  0  0  0
   -2.5944   -0.0666   -0.6117 H   0  0  0  0  0  0  0  0  0  0  0  0
   -2.6162    1.6646   -0.9889 H   0  0  0  0  0  0  0  0  0  0  0  0
    3.2414    0.7548   -0.0592 H   0  0  0  0  0  0  0  0  0  0  0  0
  1  4  1  0  0  0  0
  1 19  1  0  0  0  0
  2  3  1  0  0  0  0
  2  5  1  0  0  0  0
  2  8  1  0  0  0  0
  2  9  1  0  0  0  0
  3  4  1  0  0  0  0
  3  6  2  0  0  0  0
  4 10  1  0  0  0  0
  4 11  1  0  0  0  0
  5 12  1  0  0  0  0
  5 13  1  0  0  0  0
  5 14  1  0  0  0  0
  6  7  1  0  0  0  0
  6 15  1  0  0  0  0
  7 16  1  0  0  0  0
  7 17  1  0  0  0  0
  7 18  1  0  0  0  0
M  END
> <PUBCHEM_COMPOUND_CID>
5280549

> <PUBCHEM_CONFORMER_RMSD>
0.4

> <PUBCHEM_CONFORMER_DIVERSEORDER>
1
8
4
3
7
9
6
5
2

> <PUBCHEM_MMFF94_PARTIAL_CHARGES>
8
1 -0.68
15 0.15
19 0.4
2 0.14
3 -0.28
4 0.42
6 -0.29
7 0.14

> <PUBCHEM_EFFECTIVE_ROTOR_COUNT>
2

> <PUBCHEM_PHARMACOPHORE_FEATURES>
4
1 1 acceptor
1 1 donor
1 5 hydrophobe
1 7 hydrophobe

> <PUBCHEM_HEAVY_ATOM_COUNT>
7

> <PUBCHEM_ATOM_DEF_STEREO_COUNT>
0

> <PUBCHEM_ATOM_UDEF_STEREO_COUNT>
0

> <PUBCHEM_BOND_DEF_STEREO_COUNT>
1

> <PUBCHEM_BOND_UDEF_STEREO_COUNT>
0

> <PUBCHEM_ISOTOPIC_ATOM_COUNT>
0

> <PUBCHEM_COMPONENT_COUNT>
1

> <PUBCHEM_CACTVS_TAUTO_COUNT>
1

> <PUBCHEM_CONFORMER_ID>
0050932500000001

> <PUBCHEM_MMFF94_ENERGY>
2.2725

> <PUBCHEM_FEATURE_SELFOVERLAP>
20.297

> <PUBCHEM_SHAPE_FINGERPRINT>
137420 1 13087696663051668142
16714656 1 18338794516079202437
18185500 45 16825016954806975243
21040471 1 18409737261171683408
23552333 60 17753334467719889817
23552423 10 17905889528398783357
23552449 11 17695919112857142059
29004967 10 17402613442434249171
528862 383 17985558989806676018
5943 1 12378107833141769159

> <PUBCHEM_SHAPE_MULTIPOLES>
138.19
2.51
1.92
0.77
0.24
1.53
0
-1.45
-0.27
0.15
0.2
-0.1
0.05
0.02

> <PUBCHEM_SHAPE_SELFOVERLAP>
246.132

> <PUBCHEM_SHAPE_VOLUME>
90.6

> <PUBCHEM_COORDINATE_TYPE>
2
5
10

$$$$

