5359027
  -OEChem-07051213092D

 28 28  0     1  0  0  0  0  0999 V2000
    5.2320    1.7500    0.0000 Br  0  0  0  0  0  0  0  0  0  0  0  0
    3.7320    2.6160    0.0000 Br  0  0  0  0  0  0  0  0  0  0  0  0
    2.0000   -1.1160    0.0000 Cl  0  0  0  0  0  0  0  0  0  0  0  0
    4.5981   -2.6160    0.0000 Cl  0  0  0  0  0  0  0  0  0  0  0  0
    4.5981    0.3840    0.0000 O   0  0  0  0  0  0  0  0  0  0  0  0
    3.2320    1.7500    0.0000 O   0  0  0  0  0  0  0  0  0  0  0  0
    3.7320    0.8840    0.0000 C   0  0  2  0  0  0  0  0  0  0  0  0
    4.5981   -0.6160    0.0000 C   0  0  1  0  0  0  0  0  0  0  0  0
    3.7320   -1.1160    0.0000 C   0  0  0  0  0  0  0  0  0  0  0  0
    2.8660    0.3840    0.0000 C   0  0  0  0  0  0  0  0  0  0  0  0
    2.8660   -0.6160    0.0000 C   0  0  0  0  0  0  0  0  0  0  0  0
    5.4641   -1.1160    0.0000 C   0  0  0  0  0  0  0  0  0  0  0  0
    4.2320    1.7500    0.0000 C   0  0  0  0  0  0  0  0  0  0  0  0
    2.0000    0.8840    0.0000 C   0  0  0  0  0  0  0  0  0  0  0  0
    6.3301   -0.6160    0.0000 C   0  0  0  0  0  0  0  0  0  0  0  0
    5.4641   -2.1160    0.0000 C   0  0  0  0  0  0  0  0  0  0  0  0
    5.1350   -0.3060    0.0000 H   0  0  0  0  0  0  0  0  0  0  0  0
    3.3335   -1.5910    0.0000 H   0  0  0  0  0  0  0  0  0  0  0  0
    4.1306   -1.5910    0.0000 H   0  0  0  0  0  0  0  0  0  0  0  0
    3.6120    1.7500    0.0000 H   0  0  0  0  0  0  0  0  0  0  0  0
    2.3100    1.4209    0.0000 H   0  0  0  0  0  0  0  0  0  0  0  0
    1.4631    1.1940    0.0000 H   0  0  0  0  0  0  0  0  0  0  0  0
    1.6900    0.3470    0.0000 H   0  0  0  0  0  0  0  0  0  0  0  0
    2.6120    1.7500    0.0000 H   0  0  0  0  0  0  0  0  0  0  0  0
    6.6401   -1.1530    0.0000 H   0  0  0  0  0  0  0  0  0  0  0  0
    6.8671   -0.3060    0.0000 H   0  0  0  0  0  0  0  0  0  0  0  0
    6.0201   -0.0791    0.0000 H   0  0  0  0  0  0  0  0  0  0  0  0
    6.0010   -2.4260    0.0000 H   0  0  0  0  0  0  0  0  0  0  0  0
  1 13  1  0  0  0  0
  2 13  1  0  0  0  0
  3 11  1  0  0  0  0
  4 16  1  0  0  0  0
  5  7  1  0  0  0  0
  5  8  1  0  0  0  0
  7  6  1  1  0  0  0
  6 24  1  0  0  0  0
  7 10  1  0  0  0  0
  7 13  1  0  0  0  0
  8  9  1  0  0  0  0
  8 12  1  6  0  0  0
  8 17  1  0  0  0  0
  9 11  1  0  0  0  0
  9 18  1  0  0  0  0
  9 19  1  0  0  0  0
 10 11  2  0  0  0  0
 10 14  1  0  0  0  0
 12 15  1  0  0  0  0
 12 16  2  0  0  0  0
 13 20  1  0  0  0  0
 14 21  1  0  0  0  0
 14 22  1  0  0  0  0
 14 23  1  0  0  0  0
 15 25  1  0  0  0  0
 15 26  1  0  0  0  0
 15 27  1  0  0  0  0
 16 28  1  0  0  0  0
M  END
> <PUBCHEM_COMPOUND_CID>
5359027

> <PUBCHEM_COMPOUND_CANONICALIZED>
1

> <PUBCHEM_CACTVS_COMPLEXITY>
342

> <PUBCHEM_CACTVS_HBOND_ACCEPTOR>
2

> <PUBCHEM_CACTVS_HBOND_DONOR>
1

> <PUBCHEM_CACTVS_ROTATABLE_BOND>
2

> <PUBCHEM_CACTVS_SUBSKEYS>
AAADccBwMAAGGAAAAAAAAAAAAAAAAAAAAAAgAAAAAAAAAAAAAAAAGgJACAABTBeggEICCAAABgCAAgBCAAAAAAAgAAAACAAAAigQBAIBIQACUAAAwAAMMAIAAAAAAAAAAAAAAAAAAAAAAAAAAAAAAAAAAA==

> <PUBCHEM_IUPAC_OPENEYE_NAME>
(2S,6R)-4-chloro-2-[(Z)-2-chloro-1-methyl-vinyl]-6-(dibromomethyl)-5-methyl-2,3-dihydropyran-6-ol

> <PUBCHEM_IUPAC_CAS_NAME>
(2S,6R)-4-chloro-2-[(Z)-1-chloroprop-1-en-2-yl]-6-(dibromomethyl)-5-methyl-2,3-dihydropyran-6-ol

> <PUBCHEM_IUPAC_NAME>
(2S,6R)-4-chloro-2-[(Z)-1-chloroprop-1-en-2-yl]-6-(dibromomethyl)-5-methyl-2,3-dihydropyran-6-ol

> <PUBCHEM_IUPAC_SYSTEMATIC_NAME>
(2S,6R)-6-[bis(bromanyl)methyl]-4-chloranyl-2-[(Z)-1-chloranylprop-1-en-2-yl]-5-methyl-2,3-dihydropyran-6-ol

> <PUBCHEM_IUPAC_TRADITIONAL_NAME>
(2S,6R)-4-chloro-2-[(Z)-2-chloro-1-methyl-vinyl]-6-(dibromomethyl)-5-methyl-2,3-dihydropyran-6-ol

> <PUBCHEM_IUPAC_INCHI>
InChI=1S/C10H12Br2Cl2O2/c1-5(4-13)8-3-7(14)6(2)10(15,16-8)9(11)12/h4,8-9,15H,3H2,1-2H3/b5-4-/t8-,10+/m0/s1

> <PUBCHEM_IUPAC_INCHIKEY>
CVIPXLIMSIYMFK-BJLGHUSZSA-N

> <PUBCHEM_XLOGP3_AA>
3.6

> <PUBCHEM_EXACT_MASS>
393.856063

> <PUBCHEM_MOLECULAR_FORMULA>
C10H12Br2Cl2O2

> <PUBCHEM_MOLECULAR_WEIGHT>
394.91508

> <PUBCHEM_OPENEYE_CAN_SMILES>
CC1=C(CC(OC1(C(Br)Br)O)C(=CCl)C)Cl

> <PUBCHEM_OPENEYE_ISO_SMILES>
CC1=C(C[C@H](O[C@]1(C(Br)Br)O)/C(=C\Cl)/C)Cl

> <PUBCHEM_CACTVS_TPSA>
29.5

> <PUBCHEM_MONOISOTOPIC_WEIGHT>
391.858109

> <PUBCHEM_TOTAL_CHARGE>
0

> <PUBCHEM_HEAVY_ATOM_COUNT>
16

> <PUBCHEM_ATOM_DEF_STEREO_COUNT>
2

> <PUBCHEM_ATOM_UDEF_STEREO_COUNT>
0

> <PUBCHEM_BOND_DEF_STEREO_COUNT>
1

> <PUBCHEM_BOND_UDEF_STEREO_COUNT>
0

> <PUBCHEM_ISOTOPIC_ATOM_COUNT>
0

> <PUBCHEM_COMPONENT_COUNT>
1

> <PUBCHEM_CACTVS_TAUTO_COUNT>
1

> <PUBCHEM_COORDINATE_TYPE>
1
5
255

> <PUBCHEM_BONDANNOTATIONS>
7  6  5
8  12  6

$$$$

