1245920
  -OEChem-07051213053D

 30 31  0     0  0  0  0  0  0999 V2000
    5.1943    0.5128   -0.0906 O   0  0  0  0  0  0  0  0  0  0  0  0
    1.1275   -0.2143   -0.0364 C   0  0  0  0  0  0  0  0  0  0  0  0
   -2.7175    0.2227    0.0162 C   0  0  0  0  0  0  0  0  0  0  0  0
   -0.3230   -0.4739   -0.0170 C   0  0  0  0  0  0  0  0  0  0  0  0
    1.5890    1.0298   -0.4345 C   0  0  0  0  0  0  0  0  0  0  0  0
    2.0013   -1.2199    0.3436 C   0  0  0  0  0  0  0  0  0  0  0  0
   -1.2857    0.4779    0.0164 C   0  0  0  0  0  0  0  0  0  0  0  0
    3.8547    0.2727   -0.0736 C   0  0  0  0  0  0  0  0  0  0  0  0
    2.9619    1.2750   -0.4532 C   0  0  0  0  0  0  0  0  0  0  0  0
    3.3743   -0.9747    0.3249 C   0  0  0  0  0  0  0  0  0  0  0  0
   -3.2085   -1.0039   -0.4309 C   0  0  0  0  0  0  0  0  0  0  0  0
   -3.5999    1.2052    0.4655 C   0  0  0  0  0  0  0  0  0  0  0  0
   -4.5818   -1.2482   -0.4286 C   0  0  0  0  0  0  0  0  0  0  0  0
   -4.9732    0.9608    0.4678 C   0  0  0  0  0  0  0  0  0  0  0  0
   -5.4642   -0.2659    0.0208 C   0  0  0  0  0  0  0  0  0  0  0  0
    6.0505   -0.5561    0.3097 C   0  0  0  0  0  0  0  0  0  0  0  0
   -0.5852   -1.5285   -0.0142 H   0  0  0  0  0  0  0  0  0  0  0  0
    0.9332    1.8311   -0.7598 H   0  0  0  0  0  0  0  0  0  0  0  0
    1.6418   -2.1963    0.6578 H   0  0  0  0  0  0  0  0  0  0  0  0
   -1.0184    1.5299    0.0663 H   0  0  0  0  0  0  0  0  0  0  0  0
    3.3311    2.2471   -0.7690 H   0  0  0  0  0  0  0  0  0  0  0  0
    4.0114   -1.7969    0.6326 H   0  0  0  0  0  0  0  0  0  0  0  0
   -2.5631   -1.7906   -0.8104 H   0  0  0  0  0  0  0  0  0  0  0  0
   -3.2365    2.1670    0.8195 H   0  0  0  0  0  0  0  0  0  0  0  0
   -4.9651   -2.2012   -0.7814 H   0  0  0  0  0  0  0  0  0  0  0  0
   -5.6604    1.7255    0.8178 H   0  0  0  0  0  0  0  0  0  0  0  0
   -6.5336   -0.4557    0.0214 H   0  0  0  0  0  0  0  0  0  0  0  0
    5.9659   -1.4141   -0.3659 H   0  0  0  0  0  0  0  0  0  0  0  0
    5.8851   -0.8339    1.3561 H   0  0  0  0  0  0  0  0  0  0  0  0
    7.0801   -0.1909    0.2349 H   0  0  0  0  0  0  0  0  0  0  0  0
  1  8  1  0  0  0  0
  1 16  1  0  0  0  0
  2  4  1  0  0  0  0
  2  5  2  0  0  0  0
  2  6  1  0  0  0  0
  3  7  1  0  0  0  0
  3 11  2  0  0  0  0
  3 12  1  0  0  0  0
  4  7  2  0  0  0  0
  4 17  1  0  0  0  0
  5  9  1  0  0  0  0
  5 18  1  0  0  0  0
  6 10  2  0  0  0  0
  6 19  1  0  0  0  0
  7 20  1  0  0  0  0
  8  9  2  0  0  0  0
  8 10  1  0  0  0  0
  9 21  1  0  0  0  0
 10 22  1  0  0  0  0
 11 13  1  0  0  0  0
 11 23  1  0  0  0  0
 12 14  2  0  0  0  0
 12 24  1  0  0  0  0
 13 15  2  0  0  0  0
 13 25  1  0  0  0  0
 14 15  1  0  0  0  0
 14 26  1  0  0  0  0
 15 27  1  0  0  0  0
 16 28  1  0  0  0  0
 16 29  1  0  0  0  0
 16 30  1  0  0  0  0
M  END
> <PUBCHEM_COMPOUND_CID>
1245920

> <PUBCHEM_CONFORMER_RMSD>
0.6

> <PUBCHEM_CONFORMER_DIVERSEORDER>
3
2
1

> <PUBCHEM_MMFF94_PARTIAL_CHARGES>
27
1 -0.36
10 -0.15
11 -0.15
12 -0.15
13 -0.15
14 -0.15
15 -0.15
16 0.28
17 0.15
18 0.15
19 0.15
2 0.03
20 0.15
21 0.15
22 0.15
23 0.15
24 0.15
25 0.15
26 0.15
27 0.15
3 0.03
4 -0.18
5 -0.15
6 -0.15
7 -0.18
8 0.08
9 -0.15

> <PUBCHEM_EFFECTIVE_ROTOR_COUNT>
3

> <PUBCHEM_PHARMACOPHORE_FEATURES>
3
1 1 acceptor
6 2 5 6 8 9 10 rings
6 3 11 12 13 14 15 rings

> <PUBCHEM_HEAVY_ATOM_COUNT>
16

> <PUBCHEM_ATOM_DEF_STEREO_COUNT>
0

> <PUBCHEM_ATOM_UDEF_STEREO_COUNT>
0

> <PUBCHEM_BOND_DEF_STEREO_COUNT>
1

> <PUBCHEM_BOND_UDEF_STEREO_COUNT>
0

> <PUBCHEM_ISOTOPIC_ATOM_COUNT>
0

> <PUBCHEM_COMPONENT_COUNT>
1

> <PUBCHEM_CACTVS_TAUTO_COUNT>
1

> <PUBCHEM_CONFORMER_ID>
001302E000000003

> <PUBCHEM_MMFF94_ENERGY>
57.7484

> <PUBCHEM_FEATURE_SELFOVERLAP>
15.223

> <PUBCHEM_SHAPE_FINGERPRINT>
10354089 29 18342454850686519376
10616163 171 18334857169726357719
11287383 113 16588027874958512282
11315181 36 18333731299820319929
12091667 2 17561083622314895629
12107183 9 17689715689538156273
12236239 1 18407760335101700700
13167823 11 18410012130752612279
13862211 1 18202288026547224722
14123238 8 18343021094621341817
1420 363 17704348874854172066
17834072 33 18409729538804576532
17834076 25 18413388739229446786
19050596 39 18410854356722506377
19489759 90 17748827427860410913
200 152 18409167701500827523
20279233 1 15985101920740043827
20645477 70 18341613775673233258
21033648 29 16414931755029196221
21054139 6 18338243669391730863
21065198 48 18338237171432584043
21267235 1 18411974754438795111
21641784 216 16987986319542398060
21709351 56 18343026583605611325
22646028 1 18411702084424421207
23402539 116 18261115170686072877
23402655 69 18412546539287617973
23536379 177 18259703419547323522
23557571 272 17168136883862651577
23559900 14 18263653883300912401
26918003 58 17775563135221219417
300161 21 18409736179166829449
34797466 226 17095795517604979196
3545911 37 18408321099053911881
42 15 18413388743566579629
4214541 1 18409448098667775477
42788 4 18407760335059528664
474 4 17916863487325057500
4990 188 18040708173899817046
5104073 3 18411136896471338153
542803 24 17821727238777528121
7495541 125 17313388863934685938
77779 3 18409446990465778463
9971528 1 18131634456996826892
9981440 41 17259625846572827184

> <PUBCHEM_SHAPE_MULTIPOLES>
323.4
13.75
1.33
0.71
1.89
0.01
0
-0.62
0.84
-0.3
-0.03
-0.09
0.01
-0.87

> <PUBCHEM_SHAPE_SELFOVERLAP>
690.883

> <PUBCHEM_SHAPE_VOLUME>
180.6

> <PUBCHEM_COORDINATE_TYPE>
2
5
10

$$$$

