14122
  -OEChem-06241222423D

 32 32  0     0  0  0  0  0  0999 V2000
    1.2005    0.1895    0.6249 P   0  0  0  0  0  0  0  0  0  0  0  0
    0.9538   -1.4023    0.7835 O   0  0  0  0  0  0  0  0  0  0  0  0
    2.7134    0.2910    0.0582 O   0  0  0  0  0  0  0  0  0  0  0  0
    0.9576    0.9619    1.8899 O   0  0  0  0  0  0  0  0  0  0  0  0
    0.1633    0.6930   -0.7347 C   0  0  0  0  0  0  0  0  0  0  0  0
   -1.3046    0.5354   -0.4590 C   0  0  0  0  0  0  0  0  0  0  0  0
   -2.0132    1.5863    0.1112 C   0  0  0  0  0  0  0  0  0  0  0  0
   -1.9394   -0.6593   -0.7773 C   0  0  0  0  0  0  0  0  0  0  0  0
    1.2392   -2.2924   -0.2807 C   0  0  0  0  0  0  0  0  0  0  0  0
    3.1955    1.5432   -0.3963 C   0  0  0  0  0  0  0  0  0  0  0  0
   -3.3766    1.4401    0.3672 C   0  0  0  0  0  0  0  0  0  0  0  0
   -3.3027   -0.8052   -0.5214 C   0  0  0  0  0  0  0  0  0  0  0  0
   -4.0213    0.2446    0.0508 C   0  0  0  0  0  0  0  0  0  0  0  0
    0.9117   -3.7044    0.1561 C   0  0  0  0  0  0  0  0  0  0  0  0
    4.6229    1.3787   -0.8726 C   0  0  0  0  0  0  0  0  0  0  0  0
    0.4301    0.1547   -1.6511 H   0  0  0  0  0  0  0  0  0  0  0  0
    0.3571    1.7483   -0.9609 H   0  0  0  0  0  0  0  0  0  0  0  0
   -1.5207    2.5211    0.3640 H   0  0  0  0  0  0  0  0  0  0  0  0
   -1.4079   -1.4819   -1.2406 H   0  0  0  0  0  0  0  0  0  0  0  0
    0.6740   -2.0342   -1.1760 H   0  0  0  0  0  0  0  0  0  0  0  0
    2.3049   -2.2268   -0.5221 H   0  0  0  0  0  0  0  0  0  0  0  0
    2.5798    1.9018   -1.2250 H   0  0  0  0  0  0  0  0  0  0  0  0
    3.1470    2.2676    0.4226 H   0  0  0  0  0  0  0  0  0  0  0  0
   -3.9360    2.2573    0.8132 H   0  0  0  0  0  0  0  0  0  0  0  0
   -3.8061   -1.7346   -0.7718 H   0  0  0  0  0  0  0  0  0  0  0  0
    1.1391   -4.4218   -0.6373 H   0  0  0  0  0  0  0  0  0  0  0  0
    1.4820   -3.9745    1.0510 H   0  0  0  0  0  0  0  0  0  0  0  0
   -0.1486   -3.7899    0.4160 H   0  0  0  0  0  0  0  0  0  0  0  0
    5.0275    2.3292   -1.2311 H   0  0  0  0  0  0  0  0  0  0  0  0
    5.2590    1.0070   -0.0624 H   0  0  0  0  0  0  0  0  0  0  0  0
    4.6769    0.6433   -1.6823 H   0  0  0  0  0  0  0  0  0  0  0  0
   -5.0830    0.1312    0.2492 H   0  0  0  0  0  0  0  0  0  0  0  0
  1  2  1  0  0  0  0
  1  3  1  0  0  0  0
  1  4  2  0  0  0  0
  1  5  1  0  0  0  0
  2  9  1  0  0  0  0
  3 10  1  0  0  0  0
  5  6  1  0  0  0  0
  5 16  1  0  0  0  0
  5 17  1  0  0  0  0
  6  7  2  0  0  0  0
  6  8  1  0  0  0  0
  7 11  1  0  0  0  0
  7 18  1  0  0  0  0
  8 12  2  0  0  0  0
  8 19  1  0  0  0  0
  9 14  1  0  0  0  0
  9 20  1  0  0  0  0
  9 21  1  0  0  0  0
 10 15  1  0  0  0  0
 10 22  1  0  0  0  0
 10 23  1  0  0  0  0
 11 13  2  0  0  0  0
 11 24  1  0  0  0  0
 12 13  1  0  0  0  0
 12 25  1  0  0  0  0
 13 32  1  0  0  0  0
 14 26  1  0  0  0  0
 14 27  1  0  0  0  0
 14 28  1  0  0  0  0
 15 29  1  0  0  0  0
 15 30  1  0  0  0  0
 15 31  1  0  0  0  0
M  END
> <PUBCHEM_COMPOUND_CID>
14122

> <PUBCHEM_CONFORMER_RMSD>
0.6

> <PUBCHEM_CONFORMER_DIVERSEORDER>
2
1
53
37
15
47
26
5
56
38
23
18
57
32
30
25
29
49
28
58
8
19
43
10
50
16
41
13
6
45
11
20
4
44
14
35
27
3
24
39
22
40
31
21
34
48
7
42
9
51
12
46
54
52
17
55
36
33

> <PUBCHEM_MMFF94_PARTIAL_CHARGES>
18
1 1.24
10 0.28
11 -0.15
12 -0.15
13 -0.15
18 0.15
19 0.15
2 -0.55
24 0.15
25 0.15
3 -0.55
32 0.15
4 -0.7
5 0.14
6 -0.14
7 -0.15
8 -0.15
9 0.28

> <PUBCHEM_EFFECTIVE_ROTOR_COUNT>
6

> <PUBCHEM_PHARMACOPHORE_FEATURES>
2
1 4 acceptor
6 6 7 8 11 12 13 rings

> <PUBCHEM_HEAVY_ATOM_COUNT>
15

> <PUBCHEM_ATOM_DEF_STEREO_COUNT>
0

> <PUBCHEM_ATOM_UDEF_STEREO_COUNT>
0

> <PUBCHEM_BOND_DEF_STEREO_COUNT>
0

> <PUBCHEM_BOND_UDEF_STEREO_COUNT>
0

> <PUBCHEM_ISOTOPIC_ATOM_COUNT>
0

> <PUBCHEM_COMPONENT_COUNT>
1

> <PUBCHEM_CACTVS_TAUTO_COUNT>
1

> <PUBCHEM_CONFORMER_ID>
0000372A00000002

> <PUBCHEM_MMFF94_ENERGY>
18.8724

> <PUBCHEM_FEATURE_SELFOVERLAP>
10.148

> <PUBCHEM_SHAPE_FINGERPRINT>
10366900 7 18261679182102960971
10922049 32 18340480084990465382
12346645 44 18411700976054021964
12932764 1 17677066697624985981
13380535 21 18335137630900070091
15279307 12 18334299781496589151
15502722 9 18340763857627233166
15775835 57 18259983786411889729
16945 1 18189918481758155569
18186145 218 18334580105654445644
19873495 37 18260267412819030494
201361 129 18335416919390436513
20645477 70 18199479920894071535
21501502 16 18189904282622564375
21524375 3 18130791114456157096
22445834 79 18262244416852473747
2255824 54 18267868469856998282
23402539 116 18335704901923414180
23419403 2 17396361374321553942
23493267 7 17313375768838142353
23557571 272 17545044801925818984
458136 41 18339632421349290482
633830 44 18041002795471298852
7364860 26 18266177412435869694
81228 2 17545622053634941650
81539 233 18272090517282142958

> <PUBCHEM_SHAPE_MULTIPOLES>
294.93
6.9
2.83
1.04
1.01
3.6
-0.29
-3.94
1.36
1.71
-0.1
0.31
-0.2
-0.72

> <PUBCHEM_SHAPE_SELFOVERLAP>
569.956

> <PUBCHEM_SHAPE_VOLUME>
179.5

> <PUBCHEM_COORDINATE_TYPE>
2
5
10

$$$$

