439432
  -OEChem-07051212503D

 28 28  0     1  0  0  0  0  0999 V2000
    2.8906   -0.5927    0.2961 P   0  0  0  0  0  0  0  0  0  0  0  0
   -0.1976   -0.6519   -0.9459 O   0  0  0  0  0  0  0  0  0  0  0  0
    1.5324    0.2764    0.3782 O   0  0  0  0  0  0  0  0  0  0  0  0
   -1.8341    2.9799    0.1499 O   0  0  0  0  0  0  0  0  0  0  0  0
    0.9707    2.7997   -0.6473 O   0  0  0  0  0  0  0  0  0  0  0  0
   -2.7317    0.5290    1.4302 O   0  0  0  0  0  0  0  0  0  0  0  0
   -2.9659   -2.0716    0.6787 O   0  0  0  0  0  0  0  0  0  0  0  0
   -1.9365   -2.4766   -1.3143 O   0  0  0  0  0  0  0  0  0  0  0  0
    2.3687   -2.1017    0.0391 O   0  0  0  0  0  0  0  0  0  0  0  0
    3.3823   -0.6266    1.8362 O   0  0  0  0  0  0  0  0  0  0  0  0
    3.9104   -0.0909   -0.6839 O   0  0  0  0  0  0  0  0  0  0  0  0
   -1.0274    1.8122    0.3096 C   0  0  1  0  0  0  0  0  0  0  0  0
   -1.9466    0.5907    0.2402 C   0  0  1  0  0  0  0  0  0  0  0  0
    0.0167    1.7550   -0.8048 C   0  0  2  0  0  0  0  0  0  0  0  0
   -1.1458   -0.7023    0.1180 C   0  0  1  0  0  0  0  0  0  0  0  0
    0.7457    0.4112   -0.8041 C   0  0  2  0  0  0  0  0  0  0  0  0
   -2.0319   -1.8396   -0.2759 C   0  0  0  0  0  0  0  0  0  0  0  0
   -0.5445    1.8998    1.2903 H   0  0  0  0  0  0  0  0  0  0  0  0
   -0.4793    1.9039   -1.7722 H   0  0  0  0  0  0  0  0  0  0  0  0
   -2.6444    0.7006   -0.5993 H   0  0  0  0  0  0  0  0  0  0  0  0
   -0.6379   -0.9802    1.0497 H   0  0  0  0  0  0  0  0  0  0  0  0
    1.4163    0.3774   -1.6701 H   0  0  0  0  0  0  0  0  0  0  0  0
   -2.4977    2.9743    0.8609 H   0  0  0  0  0  0  0  0  0  0  0  0
    0.4806    3.6392   -0.6197 H   0  0  0  0  0  0  0  0  0  0  0  0
   -2.1262    0.4409    2.1860 H   0  0  0  0  0  0  0  0  0  0  0  0
   -3.5595   -2.8145    0.4377 H   0  0  0  0  0  0  0  0  0  0  0  0
    3.0278   -2.8130   -0.1083 H   0  0  0  0  0  0  0  0  0  0  0  0
    4.2532   -1.0254    2.0476 H   0  0  0  0  0  0  0  0  0  0  0  0
  1  3  1  0  0  0  0
  1  9  1  0  0  0  0
  1 10  1  0  0  0  0
  1 11  2  0  0  0  0
  2 15  1  0  0  0  0
  2 16  1  0  0  0  0
  3 16  1  0  0  0  0
  4 12  1  0  0  0  0
  4 23  1  0  0  0  0
  5 14  1  0  0  0  0
  5 24  1  0  0  0  0
  6 13  1  0  0  0  0
  6 25  1  0  0  0  0
  7 17  1  0  0  0  0
  7 26  1  0  0  0  0
  8 17  2  0  0  0  0
  9 27  1  0  0  0  0
 10 28  1  0  0  0  0
 12 13  1  0  0  0  0
 12 14  1  0  0  0  0
 12 18  1  0  0  0  0
 13 15  1  0  0  0  0
 13 20  1  0  0  0  0
 14 16  1  0  0  0  0
 14 19  1  0  0  0  0
 15 17  1  0  0  0  0
 15 21  1  0  0  0  0
 16 22  1  0  0  0  0
M  END
> <PUBCHEM_COMPOUND_CID>
439432

> <PUBCHEM_CONFORMER_RMSD>
0.6

> <PUBCHEM_CONFORMER_DIVERSEORDER>
1
8
6
2
5
3
9
4
7

> <PUBCHEM_MMFF94_PARTIAL_CHARGES>
23
1 1.51
10 -0.77
11 -0.7
12 0.28
13 0.28
14 0.28
15 0.34
16 0.56
17 0.66
2 -0.56
23 0.4
24 0.4
25 0.4
26 0.5
27 0.5
28 0.5
3 -0.55
4 -0.68
5 -0.68
6 -0.68
7 -0.65
8 -0.57
9 -0.77

> <PUBCHEM_EFFECTIVE_ROTOR_COUNT>
4.2

> <PUBCHEM_PHARMACOPHORE_FEATURES>
15
1 10 acceptor
1 11 acceptor
1 2 acceptor
1 4 acceptor
1 4 donor
1 5 acceptor
1 5 donor
1 6 acceptor
1 6 donor
1 7 acceptor
1 8 acceptor
1 9 acceptor
3 7 8 17 anion
4 1 9 10 11 anion
6 2 12 13 14 15 16 rings

> <PUBCHEM_HEAVY_ATOM_COUNT>
17

> <PUBCHEM_ATOM_DEF_STEREO_COUNT>
5

> <PUBCHEM_ATOM_UDEF_STEREO_COUNT>
0

> <PUBCHEM_BOND_DEF_STEREO_COUNT>
0

> <PUBCHEM_BOND_UDEF_STEREO_COUNT>
0

> <PUBCHEM_ISOTOPIC_ATOM_COUNT>
0

> <PUBCHEM_COMPONENT_COUNT>
1

> <PUBCHEM_CACTVS_TAUTO_COUNT>
1

> <PUBCHEM_CONFORMER_ID>
0006B48800000001

> <PUBCHEM_MMFF94_ENERGY>
1.8705

> <PUBCHEM_FEATURE_SELFOVERLAP>
76.239

> <PUBCHEM_SHAPE_FINGERPRINT>
10989021 7 18267867181308131157
12382932 28 18410298046714873162
12423570 1 10935835696258943805
12500047 106 18191031316379635184
12553582 1 18339362942232457950
15001771 113 18341611452026730821
15375462 189 18059283284479004696
15502708 68 17472421431265636025
15669948 3 18341049713549460100
16945 1 18408605893729359364
20645477 70 17765725620178721151
20871998 184 18336539520920475983
21524375 3 17686350071545047493
22112679 90 18118665657001057325
2334 1 18049437050436104469
23388829 49 18119535340412252670
23402539 116 18262533605622239885
23419403 2 17246722145759982989
23598294 1 18341046423562430314
257057 1 18191882119151585407
2748010 2 17833813242689505261
598444 67 17544752790919434582
6338986 31 18191884339491792335
7364860 26 17977943484272182180
81228 2 18339940301642271625

> <PUBCHEM_SHAPE_MULTIPOLES>
295.01
4.95
2.97
1.15
3.8
0.9
0.22
-2.26
1.39
-1.82
-0.52
0.19
-0.2
-0.71

> <PUBCHEM_SHAPE_SELFOVERLAP>
587.642

> <PUBCHEM_SHAPE_VOLUME>
174.1

> <PUBCHEM_COORDINATE_TYPE>
2
5
10

$$$$

