7081
  -OEChem-06261201453D

 33 35  0     0  0  0  0  0  0999 V2000
    0.0000    1.3534   -0.0002 N   0  0  0  0  0  0  0  0  0  0  0  0
   -4.7942    1.4710    0.0003 N   0  0  0  0  0  0  0  0  0  0  0  0
    4.7945    1.4707    0.0006 N   0  0  0  0  0  0  0  0  0  0  0  0
   -1.2147   -0.7235    0.0000 C   0  0  0  0  0  0  0  0  0  0  0  0
    1.2146   -0.7235    0.0000 C   0  0  0  0  0  0  0  0  0  0  0  0
   -1.1672    0.6808   -0.0002 C   0  0  0  0  0  0  0  0  0  0  0  0
    1.1671    0.6808   -0.0002 C   0  0  0  0  0  0  0  0  0  0  0  0
    0.0000   -1.4167    0.0000 C   0  0  0  0  0  0  0  0  0  0  0  0
   -2.4500   -1.3944    0.0002 C   0  0  0  0  0  0  0  0  0  0  0  0
    2.4500   -1.3944    0.0002 C   0  0  0  0  0  0  0  0  0  0  0  0
   -3.6415   -0.6753    0.0003 C   0  0  0  0  0  0  0  0  0  0  0  0
    3.6415   -0.6753    0.0001 C   0  0  0  0  0  0  0  0  0  0  0  0
   -2.3732    1.3767   -0.0002 C   0  0  0  0  0  0  0  0  0  0  0  0
    2.3731    1.3767   -0.0002 C   0  0  0  0  0  0  0  0  0  0  0  0
   -3.6026    0.7131    0.0001 C   0  0  0  0  0  0  0  0  0  0  0  0
    3.6025    0.7132   -0.0002 C   0  0  0  0  0  0  0  0  0  0  0  0
   -4.9380   -1.4166   -0.0003 C   0  0  0  0  0  0  0  0  0  0  0  0
    4.9379   -1.4165   -0.0001 C   0  0  0  0  0  0  0  0  0  0  0  0
    0.0000   -2.5060    0.0001 H   0  0  0  0  0  0  0  0  0  0  0  0
   -2.4716   -2.4827    0.0002 H   0  0  0  0  0  0  0  0  0  0  0  0
    2.4716   -2.4827    0.0003 H   0  0  0  0  0  0  0  0  0  0  0  0
   -2.3540    2.4661   -0.0003 H   0  0  0  0  0  0  0  0  0  0  0  0
    2.3539    2.4662   -0.0002 H   0  0  0  0  0  0  0  0  0  0  0  0
   -5.5204   -1.1716   -0.8947 H   0  0  0  0  0  0  0  0  0  0  0  0
   -4.7867   -2.5017   -0.0001 H   0  0  0  0  0  0  0  0  0  0  0  0
   -5.5214   -1.1714    0.8934 H   0  0  0  0  0  0  0  0  0  0  0  0
    5.5211   -1.1712    0.8937 H   0  0  0  0  0  0  0  0  0  0  0  0
    4.7866   -2.5016    0.0002 H   0  0  0  0  0  0  0  0  0  0  0  0
    5.5206   -1.1717   -0.8944 H   0  0  0  0  0  0  0  0  0  0  0  0
   -4.7446    2.4814    0.0008 H   0  0  0  0  0  0  0  0  0  0  0  0
   -5.6981    1.0197    0.0014 H   0  0  0  0  0  0  0  0  0  0  0  0
    4.7452    2.4811   -0.0009 H   0  0  0  0  0  0  0  0  0  0  0  0
    5.6983    1.0192   -0.0011 H   0  0  0  0  0  0  0  0  0  0  0  0
  1  6  2  0  0  0  0
  1  7  1  0  0  0  0
  2 15  1  0  0  0  0
  2 30  1  0  0  0  0
  2 31  1  0  0  0  0
  3 16  1  0  0  0  0
  3 32  1  0  0  0  0
  3 33  1  0  0  0  0
  4  6  1  0  0  0  0
  4  8  2  0  0  0  0
  4  9  1  0  0  0  0
  5  7  2  0  0  0  0
  5  8  1  0  0  0  0
  5 10  1  0  0  0  0
  6 13  1  0  0  0  0
  7 14  1  0  0  0  0
  8 19  1  0  0  0  0
  9 11  2  0  0  0  0
  9 20  1  0  0  0  0
 10 12  2  0  0  0  0
 10 21  1  0  0  0  0
 11 15  1  0  0  0  0
 11 17  1  0  0  0  0
 12 16  1  0  0  0  0
 12 18  1  0  0  0  0
 13 15  2  0  0  0  0
 13 22  1  0  0  0  0
 14 16  2  0  0  0  0
 14 23  1  0  0  0  0
 17 24  1  0  0  0  0
 17 25  1  0  0  0  0
 17 26  1  0  0  0  0
 18 27  1  0  0  0  0
 18 28  1  0  0  0  0
 18 29  1  0  0  0  0
M  END
> <PUBCHEM_COMPOUND_CID>
7081

> <PUBCHEM_CONFORMER_RMSD>
0.4

> <PUBCHEM_CONFORMER_DIVERSEORDER>
1

> <PUBCHEM_MMFF94_PARTIAL_CHARGES>
25
1 -0.62
10 -0.15
11 -0.14
12 -0.14
13 -0.15
14 -0.15
15 0.1
16 0.1
17 0.14
18 0.14
19 0.15
2 -0.9
20 0.15
21 0.15
22 0.15
23 0.15
3 -0.9
30 0.4
31 0.4
32 0.4
33 0.4
6 0.31
7 0.31
8 -0.15
9 -0.15

> <PUBCHEM_EFFECTIVE_ROTOR_COUNT>
0

> <PUBCHEM_PHARMACOPHORE_FEATURES>
8
1 1 acceptor
1 2 cation
1 2 donor
1 3 cation
1 3 donor
6 1 4 5 6 7 8 rings
6 4 6 9 11 13 15 rings
6 5 7 10 12 14 16 rings

> <PUBCHEM_HEAVY_ATOM_COUNT>
18

> <PUBCHEM_ATOM_DEF_STEREO_COUNT>
0

> <PUBCHEM_ATOM_UDEF_STEREO_COUNT>
0

> <PUBCHEM_BOND_DEF_STEREO_COUNT>
0

> <PUBCHEM_BOND_UDEF_STEREO_COUNT>
0

> <PUBCHEM_ISOTOPIC_ATOM_COUNT>
0

> <PUBCHEM_COMPONENT_COUNT>
1

> <PUBCHEM_CACTVS_TAUTO_COUNT>
10

> <PUBCHEM_CONFORMER_ID>
00001BA900000001

> <PUBCHEM_MMFF94_ENERGY>
78.1101

> <PUBCHEM_FEATURE_SELFOVERLAP>
40.656

> <PUBCHEM_SHAPE_FINGERPRINT>
10062212 137 18336273400568243751
10608611 8 18410577283686665764
10967382 1 18410856542496889126
11132069 177 18410298016328173289
11471102 20 18410577279813360422
11806522 49 18340487772771064951
12032990 46 18410571790423266819
12107183 9 17762338419462195826
12403259 226 18410862057198565060
13167823 11 18410576188469953319
13288520 33 18408882970675428758
13675066 3 18333735697450028082
13862211 1 18410579482715514375
15196674 1 18410575088958046209
15442244 35 18194119840052041810
15536298 74 18408041810357979690
17804303 29 18408882949232065301
17834072 33 18335140868967911774
1813 80 17132396111734838364
18186145 218 17917716815801170798
200 152 18113622278842550467
20510252 161 18333166180650055425
20645477 70 18335419088924180918
21267235 1 18410847763547248067
21452121 103 18261685783610269304
221490 88 18341324492561587994
23402539 116 18334583459733292511
23402655 69 18334577949063469780
23463225 33 18412544314478617412
23559900 14 18408044035351577122
2871803 45 18272657839470216171
3004659 81 18343016723194110062
335352 9 18338797943399652126
3545911 37 18410571781875601724
4214541 1 18410574006948177409
474 4 17416962834008186340
4990 188 18186513328458901022
5104073 3 18410573989446419384
633830 44 17775566429292239210
69090 78 18407763629236407607
77779 3 18410855464423155078
9709674 26 18410849954043970046
9981440 41 17262154731975192224

> <PUBCHEM_SHAPE_MULTIPOLES>
355.49
10.16
1.89
0.6
0
0.05
0
-0.53
0
0
0
0
-0.02
0

> <PUBCHEM_SHAPE_SELFOVERLAP>
797.507

> <PUBCHEM_SHAPE_VOLUME>
189.7

> <PUBCHEM_COORDINATE_TYPE>
2
5
10

$$$$

