442388
  -OEChem-07051212583D

 37 39  0     1  0  0  0  0  0999 V2000
   -2.9431   -1.2405    0.2573 O   0  0  0  0  0  0  0  0  0  0  0  0
    2.7258    1.9662   -0.2957 O   0  0  0  0  0  0  0  0  0  0  0  0
    0.7997   -0.9031    0.5231 C   0  0  2  0  0  0  0  0  0  0  0  0
    0.7816    0.6975    0.4645 C   0  0  2  0  0  0  0  0  0  0  0  0
    1.3168   -1.2606   -0.9085 C   0  0  1  0  0  0  0  0  0  0  0  0
   -0.3790    1.3020   -0.4415 C   0  0  1  0  0  0  0  0  0  0  0  0
   -0.5917   -1.5266    0.8408 C   0  0  0  0  0  0  0  0  0  0  0  0
    2.4617   -0.2668   -1.1600 C   0  0  0  0  0  0  0  0  0  0  0  0
    2.0752    0.9281   -0.3185 C   0  0  0  0  0  0  0  0  0  0  0  0
    1.7736   -1.4546    1.6014 C   0  0  0  0  0  0  0  0  0  0  0  0
    0.8547    1.3432    1.8544 C   0  0  0  0  0  0  0  0  0  0  0  0
   -1.6462    0.5249   -0.2894 C   0  0  0  0  0  0  0  0  0  0  0  0
   -1.6866   -0.7332    0.2588 C   0  0  0  0  0  0  0  0  0  0  0  0
    1.7699   -2.6994   -1.1386 C   0  0  0  0  0  0  0  0  0  0  0  0
   -0.6048    2.8075   -0.2454 C   0  0  0  0  0  0  0  0  0  0  0  0
   -2.9794    0.8074   -0.6813 C   0  0  0  0  0  0  0  0  0  0  0  0
   -3.7281   -0.2919   -0.3211 C   0  0  0  0  0  0  0  0  0  0  0  0
    0.5213   -1.0615   -1.6387 H   0  0  0  0  0  0  0  0  0  0  0  0
   -0.0862    1.1878   -1.4961 H   0  0  0  0  0  0  0  0  0  0  0  0
   -0.7518   -1.5495    1.9266 H   0  0  0  0  0  0  0  0  0  0  0  0
   -0.6451   -2.5636    0.4929 H   0  0  0  0  0  0  0  0  0  0  0  0
    2.5190    0.0132   -2.2152 H   0  0  0  0  0  0  0  0  0  0  0  0
    3.4282   -0.6452   -0.8146 H   0  0  0  0  0  0  0  0  0  0  0  0
    2.7946   -1.0815    1.4752 H   0  0  0  0  0  0  0  0  0  0  0  0
    1.4464   -1.1864    2.6120 H   0  0  0  0  0  0  0  0  0  0  0  0
    1.8129   -2.5493    1.5763 H   0  0  0  0  0  0  0  0  0  0  0  0
    1.7475    1.0309    2.4059 H   0  0  0  0  0  0  0  0  0  0  0  0
    0.9315    2.4337    1.7995 H   0  0  0  0  0  0  0  0  0  0  0  0
   -0.0268    1.0926    2.4530 H   0  0  0  0  0  0  0  0  0  0  0  0
    2.0510   -2.8410   -2.1882 H   0  0  0  0  0  0  0  0  0  0  0  0
    2.6437   -2.9605   -0.5338 H   0  0  0  0  0  0  0  0  0  0  0  0
    0.9698   -3.4100   -0.9127 H   0  0  0  0  0  0  0  0  0  0  0  0
   -1.0543    3.0293    0.7288 H   0  0  0  0  0  0  0  0  0  0  0  0
    0.3320    3.3658   -0.3364 H   0  0  0  0  0  0  0  0  0  0  0  0
   -1.2870    3.1999   -1.0084 H   0  0  0  0  0  0  0  0  0  0  0  0
   -3.3535    1.6966   -1.1679 H   0  0  0  0  0  0  0  0  0  0  0  0
   -4.7752   -0.5429   -0.4083 H   0  0  0  0  0  0  0  0  0  0  0  0
  1 13  1  0  0  0  0
  1 17  1  0  0  0  0
  2  9  2  0  0  0  0
  3  4  1  0  0  0  0
  3  5  1  0  0  0  0
  3  7  1  0  0  0  0
  3 10  1  0  0  0  0
  4  6  1  0  0  0  0
  4  9  1  0  0  0  0
  4 11  1  0  0  0  0
  5  8  1  0  0  0  0
  5 14  1  0  0  0  0
  5 18  1  0  0  0  0
  6 12  1  0  0  0  0
  6 15  1  0  0  0  0
  6 19  1  0  0  0  0
  7 13  1  0  0  0  0
  7 20  1  0  0  0  0
  7 21  1  0  0  0  0
  8  9  1  0  0  0  0
  8 22  1  0  0  0  0
  8 23  1  0  0  0  0
 10 24  1  0  0  0  0
 10 25  1  0  0  0  0
 10 26  1  0  0  0  0
 11 27  1  0  0  0  0
 11 28  1  0  0  0  0
 11 29  1  0  0  0  0
 12 13  2  0  0  0  0
 12 16  1  0  0  0  0
 14 30  1  0  0  0  0
 14 31  1  0  0  0  0
 14 32  1  0  0  0  0
 15 33  1  0  0  0  0
 15 34  1  0  0  0  0
 15 35  1  0  0  0  0
 16 17  2  0  0  0  0
 16 36  1  0  0  0  0
 17 37  1  0  0  0  0
M  END
> <PUBCHEM_COMPOUND_CID>
442388

> <PUBCHEM_CONFORMER_RMSD>
0.6

> <PUBCHEM_CONFORMER_DIVERSEORDER>
1
2
3

> <PUBCHEM_MMFF94_PARTIAL_CHARGES>
13
1 -0.28
12 -0.18
13 -0.04
16 -0.15
17 -0.01
2 -0.57
36 0.15
37 0.15
4 0.06
6 0.18
7 0.18
8 0.06
9 0.45

> <PUBCHEM_EFFECTIVE_ROTOR_COUNT>
0.8

> <PUBCHEM_PHARMACOPHORE_FEATURES>
5
1 1 acceptor
1 2 acceptor
5 1 12 13 16 17 rings
5 3 4 5 8 9 rings
6 3 4 6 7 12 13 rings

> <PUBCHEM_HEAVY_ATOM_COUNT>
17

> <PUBCHEM_ATOM_DEF_STEREO_COUNT>
4

> <PUBCHEM_ATOM_UDEF_STEREO_COUNT>
0

> <PUBCHEM_BOND_DEF_STEREO_COUNT>
0

> <PUBCHEM_BOND_UDEF_STEREO_COUNT>
0

> <PUBCHEM_ISOTOPIC_ATOM_COUNT>
0

> <PUBCHEM_COMPONENT_COUNT>
1

> <PUBCHEM_CACTVS_TAUTO_COUNT>
2

> <PUBCHEM_CONFORMER_ID>
0006C01400000001

> <PUBCHEM_MMFF94_ENERGY>
49.5954

> <PUBCHEM_FEATURE_SELFOVERLAP>
25.641

> <PUBCHEM_SHAPE_FINGERPRINT>
10863032 1 18130787815578323890
10948715 1 18198625423891168396
11578080 2 16412690023072416422
12423570 1 8641661889738964496
12524768 44 18410012139363405575
12654215 9 18411707573192379917
13132413 78 17840328909904116002
13140716 1 18271248334678211627
13299463 15 18408877460189988597
13380535 220 17980189017850018980
144361 1 18336540538685371802
14617773 55 17606099908809625856
14817 1 15173805482074629778
15001771 113 18045772652963519400
16945 1 18338220665678034606
17990270 104 18336547238813352079
18186145 218 17988080118740379413
20201158 50 18408879663540054982
20645477 70 18410301319886167439
21452121 199 18117005587695934654
21452121 71 17487343887472521610
21501502 16 18264763436060994812
21524375 3 17981048518104985468
22112679 90 17409086241654241994
22721475 48 18335982090052868447
22802520 49 18339628040445595231
2334 1 18342744009507370115
23402539 116 18339933597594215052
23419403 2 17404923366093144248
23559900 14 18341044100745233340
2748010 2 18122329199679893030
3060560 45 18114466639174269127
353137 74 18271799150874618460
5262128 65 18118390967793171510
528886 8 18267021665509274364
7364860 26 18409171038711677830
81228 2 17758398860783844489

> <PUBCHEM_SHAPE_MULTIPOLES>
338.11
4.34
2.56
1.33
3.14
0.5
-0.42
-0.79
1.06
-0.91
0.21
-0.77
-0.18
0.4

> <PUBCHEM_SHAPE_SELFOVERLAP>
732.657

> <PUBCHEM_SHAPE_VOLUME>
189.5

> <PUBCHEM_COORDINATE_TYPE>
2
5
10

$$$$

