19100
  -OEChem-07051212473D

 32 32  0     1  0  0  0  0  0999 V2000
    0.4121    2.2452    0.2497 O   0  0  0  0  0  0  0  0  0  0  0  0
    2.5851    0.9789    0.3670 O   0  0  0  0  0  0  0  0  0  0  0  0
    0.4761   -0.1688    0.3734 C   0  0  1  0  0  0  0  0  0  0  0  0
   -0.2041    1.0610   -0.2503 C   0  0  1  0  0  0  0  0  0  0  0  0
   -0.2470   -1.4585   -0.0359 C   0  0  0  0  0  0  0  0  0  0  0  0
   -2.4138   -0.1838   -0.3358 C   0  0  1  0  0  0  0  0  0  0  0  0
   -1.6981    1.1056    0.0785 C   0  0  0  0  0  0  0  0  0  0  0  0
   -1.7365   -1.4051    0.2970 C   0  0  0  0  0  0  0  0  0  0  0  0
    1.9557   -0.2445   -0.0128 C   0  0  0  0  0  0  0  0  0  0  0  0
   -3.8917   -0.1278    0.0464 C   0  0  0  0  0  0  0  0  0  0  0  0
    2.1138   -0.4275   -1.5206 C   0  0  0  0  0  0  0  0  0  0  0  0
    2.6483   -1.3748    0.7435 C   0  0  0  0  0  0  0  0  0  0  0  0
    0.4159   -0.0563    1.4661 H   0  0  0  0  0  0  0  0  0  0  0  0
   -0.1069    1.0743   -1.3393 H   0  0  0  0  0  0  0  0  0  0  0  0
    0.1739   -2.3296    0.4760 H   0  0  0  0  0  0  0  0  0  0  0  0
   -0.1696   -1.6442   -1.1116 H   0  0  0  0  0  0  0  0  0  0  0  0
   -2.3516   -0.2791   -1.4281 H   0  0  0  0  0  0  0  0  0  0  0  0
   -2.1527    1.9714   -0.4199 H   0  0  0  0  0  0  0  0  0  0  0  0
   -1.8323    1.2847    1.1540 H   0  0  0  0  0  0  0  0  0  0  0  0
   -2.2195   -2.3244   -0.0557 H   0  0  0  0  0  0  0  0  0  0  0  0
   -1.8620   -1.3798    1.3872 H   0  0  0  0  0  0  0  0  0  0  0  0
   -4.4109   -1.0359   -0.2774 H   0  0  0  0  0  0  0  0  0  0  0  0
   -4.0202   -0.0322    1.1299 H   0  0  0  0  0  0  0  0  0  0  0  0
   -4.3834    0.7271   -0.4296 H   0  0  0  0  0  0  0  0  0  0  0  0
    3.1823   -0.4244   -1.7751 H   0  0  0  0  0  0  0  0  0  0  0  0
    1.7165   -1.3732   -1.8967 H   0  0  0  0  0  0  0  0  0  0  0  0
    1.6953    0.3994   -2.1002 H   0  0  0  0  0  0  0  0  0  0  0  0
    2.4749   -1.2921    1.8226 H   0  0  0  0  0  0  0  0  0  0  0  0
    3.7353   -1.3181    0.6079 H   0  0  0  0  0  0  0  0  0  0  0  0
    2.3334   -2.3685    0.4122 H   0  0  0  0  0  0  0  0  0  0  0  0
    0.3092    2.2527    1.2167 H   0  0  0  0  0  0  0  0  0  0  0  0
    3.5193    0.9353    0.1008 H   0  0  0  0  0  0  0  0  0  0  0  0
  1  4  1  0  0  0  0
  1 31  1  0  0  0  0
  2  9  1  0  0  0  0
  2 32  1  0  0  0  0
  3  4  1  0  0  0  0
  3  5  1  0  0  0  0
  3  9  1  0  0  0  0
  3 13  1  0  0  0  0
  4  7  1  0  0  0  0
  4 14  1  0  0  0  0
  5  8  1  0  0  0  0
  5 15  1  0  0  0  0
  5 16  1  0  0  0  0
  6  7  1  0  0  0  0
  6  8  1  0  0  0  0
  6 10  1  0  0  0  0
  6 17  1  0  0  0  0
  7 18  1  0  0  0  0
  7 19  1  0  0  0  0
  8 20  1  0  0  0  0
  8 21  1  0  0  0  0
  9 11  1  0  0  0  0
  9 12  1  0  0  0  0
 10 22  1  0  0  0  0
 10 23  1  0  0  0  0
 10 24  1  0  0  0  0
 11 25  1  0  0  0  0
 11 26  1  0  0  0  0
 11 27  1  0  0  0  0
 12 28  1  0  0  0  0
 12 29  1  0  0  0  0
 12 30  1  0  0  0  0
M  END
> <PUBCHEM_COMPOUND_CID>
19100

> <PUBCHEM_CONFORMER_RMSD>
0.6

> <PUBCHEM_CONFORMER_DIVERSEORDER>
1
3
2
4

> <PUBCHEM_MMFF94_PARTIAL_CHARGES>
6
1 -0.68
2 -0.68
31 0.4
32 0.4
4 0.28
9 0.28

> <PUBCHEM_EFFECTIVE_ROTOR_COUNT>
2.2

> <PUBCHEM_PHARMACOPHORE_FEATURES>
6
1 1 acceptor
1 1 donor
1 2 acceptor
1 2 donor
3 9 11 12 hydrophobe
6 3 4 5 6 7 8 rings

> <PUBCHEM_HEAVY_ATOM_COUNT>
12

> <PUBCHEM_ATOM_DEF_STEREO_COUNT>
3

> <PUBCHEM_ATOM_UDEF_STEREO_COUNT>
0

> <PUBCHEM_BOND_DEF_STEREO_COUNT>
0

> <PUBCHEM_BOND_UDEF_STEREO_COUNT>
0

> <PUBCHEM_ISOTOPIC_ATOM_COUNT>
0

> <PUBCHEM_COMPONENT_COUNT>
1

> <PUBCHEM_CACTVS_TAUTO_COUNT>
1

> <PUBCHEM_CONFORMER_ID>
00004A9C00000001

> <PUBCHEM_MMFF94_ENERGY>
31.0668

> <PUBCHEM_FEATURE_SELFOVERLAP>
30.481

> <PUBCHEM_SHAPE_FINGERPRINT>
10130415 120 18271812345066750115
10219947 1 18407478868904958619
10353120 184 18410566310424740517
12032990 46 18411414046727516075
12423570 1 17393028548756424830
12524768 44 18260824886678664526
12932764 1 18342454841980670143
14325111 11 18412266151079921473
15775835 57 18272931609201543463
16945 1 18343297042096468309
18522853 295 18411694417776247339
193761 8 17762620586239967731
20201158 50 18334575737187006239
20645476 183 17774988064638434927
20711985 344 17973421467978170124
21501502 16 18122346770406912183
22802520 49 17898273150838560791
23402539 116 18188507855120194279
23463225 33 18270121339133007347
23552423 10 18055632819996541319
23559900 14 18118968242512661406
2748010 2 18338241569131078301
29004967 10 16443352004577158170
3248919 1 17458063776564998651
369184 2 18412550920038182787
5084963 1 17560238153644459190
528886 8 18409453557233540291
53812653 166 18337677390758962264
53812654 25 18410585001832509010
8030462 33 18201709687045428238

> <PUBCHEM_SHAPE_MULTIPOLES>
235.22
4.75
1.73
0.9
2.15
0.43
0.27
-0.81
-0.02
-0.19
-0.26
-0.55
-0.11
-0.03

> <PUBCHEM_SHAPE_SELFOVERLAP>
463.386

> <PUBCHEM_SHAPE_VOLUME>
140.9

> <PUBCHEM_COORDINATE_TYPE>
2
5
10

$$$$

