94214
  -OEChem-07051212483D

 27 27  0     1  0  0  0  0  0999 V2000
    0.8555    0.6377   -0.1756 O   0  0  0  0  0  0  0  0  0  0  0  0
    0.2132   -1.9084   -1.2999 O   0  0  0  0  0  0  0  0  0  0  0  0
   -2.2209   -2.1231    0.0259 O   0  0  0  0  0  0  0  0  0  0  0  0
   -2.7491    0.6857    0.4699 O   0  0  0  0  0  0  0  0  0  0  0  0
   -0.6703    2.3804   -0.4654 O   0  0  0  0  0  0  0  0  0  0  0  0
    3.4792    0.0742    0.4063 O   0  0  0  0  0  0  0  0  0  0  0  0
    0.1577   -1.6708    0.1081 C   0  0  2  0  0  0  0  0  0  0  0  0
   -1.2442   -1.1969    0.4933 C   0  0  1  0  0  0  0  0  0  0  0  0
    1.1870   -0.5959    0.4741 C   0  0  1  0  0  0  0  0  0  0  0  0
   -1.5381    0.1830   -0.0944 C   0  0  2  0  0  0  0  0  0  0  0  0
   -0.4078    1.1622    0.2306 C   0  0  1  0  0  0  0  0  0  0  0  0
    2.5987   -0.9734    0.0410 C   0  0  0  0  0  0  0  0  0  0  0  0
    0.3392    3.3453   -0.2139 C   0  0  0  0  0  0  0  0  0  0  0  0
    0.3836   -2.6228    0.6000 H   0  0  0  0  0  0  0  0  0  0  0  0
   -1.3337   -1.1630    1.5863 H   0  0  0  0  0  0  0  0  0  0  0  0
    1.1869   -0.4152    1.5571 H   0  0  0  0  0  0  0  0  0  0  0  0
   -1.7010    0.1126   -1.1766 H   0  0  0  0  0  0  0  0  0  0  0  0
   -0.3918    1.3804    1.3072 H   0  0  0  0  0  0  0  0  0  0  0  0
    2.6758   -1.1002   -1.0436 H   0  0  0  0  0  0  0  0  0  0  0  0
    2.9303   -1.8950    0.5283 H   0  0  0  0  0  0  0  0  0  0  0  0
    0.1655   -1.0516   -1.7565 H   0  0  0  0  0  0  0  0  0  0  0  0
   -3.0946   -1.7756    0.2744 H   0  0  0  0  0  0  0  0  0  0  0  0
   -2.8978    1.5715    0.0972 H   0  0  0  0  0  0  0  0  0  0  0  0
    3.1661    0.8864   -0.0275 H   0  0  0  0  0  0  0  0  0  0  0  0
    0.0359    4.2848   -0.6844 H   0  0  0  0  0  0  0  0  0  0  0  0
    1.2936    3.0405   -0.6535 H   0  0  0  0  0  0  0  0  0  0  0  0
    0.4547    3.5210    0.8602 H   0  0  0  0  0  0  0  0  0  0  0  0
  1  9  1  0  0  0  0
  1 11  1  0  0  0  0
  2  7  1  0  0  0  0
  2 21  1  0  0  0  0
  3  8  1  0  0  0  0
  3 22  1  0  0  0  0
  4 10  1  0  0  0  0
  4 23  1  0  0  0  0
  5 11  1  0  0  0  0
  5 13  1  0  0  0  0
  6 12  1  0  0  0  0
  6 24  1  0  0  0  0
  7  8  1  0  0  0  0
  7  9  1  0  0  0  0
  7 14  1  0  0  0  0
  8 10  1  0  0  0  0
  8 15  1  0  0  0  0
  9 12  1  0  0  0  0
  9 16  1  0  0  0  0
 10 11  1  0  0  0  0
 10 17  1  0  0  0  0
 11 18  1  0  0  0  0
 12 19  1  0  0  0  0
 12 20  1  0  0  0  0
 13 25  1  0  0  0  0
 13 26  1  0  0  0  0
 13 27  1  0  0  0  0
M  END
> <PUBCHEM_COMPOUND_CID>
94214

> <PUBCHEM_CONFORMER_RMSD>
0.6

> <PUBCHEM_CONFORMER_DIVERSEORDER>
1
3
8
2
5
4
6
7

> <PUBCHEM_MMFF94_PARTIAL_CHARGES>
17
1 -0.56
10 0.28
11 0.56
12 0.28
13 0.28
2 -0.68
21 0.4
22 0.4
23 0.4
24 0.4
3 -0.68
4 -0.68
5 -0.56
6 -0.68
7 0.28
8 0.28
9 0.28

> <PUBCHEM_EFFECTIVE_ROTOR_COUNT>
3.2

> <PUBCHEM_PHARMACOPHORE_FEATURES>
11
1 1 acceptor
1 2 acceptor
1 2 donor
1 3 acceptor
1 3 donor
1 4 acceptor
1 4 donor
1 5 acceptor
1 6 acceptor
1 6 donor
6 1 7 8 9 10 11 rings

> <PUBCHEM_HEAVY_ATOM_COUNT>
13

> <PUBCHEM_ATOM_DEF_STEREO_COUNT>
5

> <PUBCHEM_ATOM_UDEF_STEREO_COUNT>
0

> <PUBCHEM_BOND_DEF_STEREO_COUNT>
0

> <PUBCHEM_BOND_UDEF_STEREO_COUNT>
0

> <PUBCHEM_ISOTOPIC_ATOM_COUNT>
0

> <PUBCHEM_COMPONENT_COUNT>
1

> <PUBCHEM_CACTVS_TAUTO_COUNT>
1

> <PUBCHEM_CONFORMER_ID>
0001700600000001

> <PUBCHEM_MMFF94_ENERGY>
35.7952

> <PUBCHEM_FEATURE_SELFOVERLAP>
55.886

> <PUBCHEM_SHAPE_FINGERPRINT>
12423570 1 9714512391987009495
13380535 76 17403750328698694664
161256 15 17687168099727270081
16945 1 18268435813651218578
193761 8 17979353058358254577
20588541 1 18262514922029055899
20871998 184 18333732411747545982
21040471 1 17548134888585954234
2334 1 18267302028078737032
23402539 116 18264222459455581103
23552423 10 17474108700509220374
241688 4 18411705356909939323
2748010 2 18337395941546565962
5084963 1 17755875451512403722
528862 383 17549833178668342378
7364860 26 17905324026886602688

> <PUBCHEM_SHAPE_MULTIPOLES>
232.32
3.31
3.1
0.77
2.05
2.07
-0.11
-0.2
0.52
-1.24
-0.48
0.05
-0.19
0.23

> <PUBCHEM_SHAPE_SELFOVERLAP>
460.964

> <PUBCHEM_SHAPE_VOLUME>
136.5

> <PUBCHEM_COORDINATE_TYPE>
2
5
10

$$$$

