441179
  -OEChem-07051212522D

 84 89  0     1  0  0  0  0  0999 V2000
    5.9945   -1.2558    0.0000 O   0  0  0  0  0  0  0  0  0  0  0  0
    5.1343    0.2476    0.0000 O   0  0  0  0  0  0  0  0  0  0  0  0
    4.2586   -2.2491    0.0000 O   0  0  0  0  0  0  0  0  0  0  0  0
    2.5304   -1.2424    0.0000 O   0  0  0  0  0  0  0  0  0  0  0  0
    6.0103    0.7925    0.0000 O   0  0  0  0  0  0  0  0  0  0  0  0
   10.3785    0.2893    0.0000 O   0  0  0  0  0  0  0  0  0  0  0  0
   10.4707   -0.7562    0.0000 O   0  0  0  0  0  0  0  0  0  0  0  0
    7.7587    3.8208    0.0000 O   0  0  0  0  0  0  0  0  0  0  0  0
   11.2827    1.7862    0.0000 O   0  0  0  0  0  0  0  0  0  0  0  0
   11.3631   -2.3376    0.0000 O   0  0  0  0  0  0  0  0  0  0  0  0
    8.6400    5.4334    0.0000 O   0  0  0  0  0  0  0  0  0  0  0  0
   12.2547    5.4474    0.0000 O   0  0  0  0  0  0  0  0  0  0  0  0
   12.2696   -5.8274    0.0000 O   0  0  0  0  0  0  0  0  0  0  0  0
   10.5376   -5.8474    0.0000 O   0  0  0  0  0  0  0  0  0  0  0  0
    2.5381    0.7576    0.0000 N   0  0  0  0  0  0  0  0  0  0  0  0
   10.5145   -3.8476    0.0000 N   0  0  0  0  0  0  0  0  0  0  0  0
    3.4022    0.2542    0.0000 C   0  0  2  0  0  0  0  0  0  0  0  0
    5.1304   -0.7524    0.0000 C   0  0  2  0  0  0  0  0  0  0  0  0
    4.2625   -1.2491    0.0000 C   0  0  1  0  0  0  0  0  0  0  0  0
    3.3984   -0.7458    0.0000 C   0  0  1  0  0  0  0  0  0  0  0  0
    6.8624   -0.7591    0.0000 C   0  0  2  0  0  0  0  0  0  0  0  0
    4.2702    0.7509    0.0000 C   0  0  1  0  0  0  0  0  0  0  0  0
    6.8705    0.2825    0.0000 C   0  0  2  0  0  0  0  0  0  0  0  0
    7.7645   -1.2799    0.0000 C   0  0  0  0  0  0  0  0  0  0  0  0
    7.7805    0.7893    0.0000 C   0  0  0  0  0  0  0  0  0  0  0  0
    8.6626   -0.7522    0.0000 C   0  0  0  0  0  0  0  0  0  0  0  0
    8.6465    0.2893    0.0000 C   0  0  0  0  0  0  0  0  0  0  0  0
    4.2740    1.7509    0.0000 C   0  0  0  0  0  0  0  0  0  0  0  0
    7.7562   -2.3649    0.0000 C   0  0  0  0  0  0  0  0  0  0  0  0
    7.7805    1.7893    0.0000 C   0  0  0  0  0  0  0  0  0  0  0  0
    9.5125    0.7893    0.0000 C   0  0  0  0  0  0  0  0  0  0  0  0
    9.6145   -1.2728    0.0000 C   0  0  0  0  0  0  0  0  0  0  0  0
    8.6465    2.2893    0.0000 C   0  0  0  0  0  0  0  0  0  0  0  0
    9.5125    1.7893    0.0000 C   0  0  0  0  0  0  0  0  0  0  0  0
    8.6958   -2.9074    0.0000 C   0  0  0  0  0  0  0  0  0  0  0  0
    9.6312   -2.3577    0.0000 C   0  0  0  0  0  0  0  0  0  0  0  0
    8.6304    3.3308    0.0000 C   0  0  0  0  0  0  0  0  0  0  0  0
   10.4225    2.2962    0.0000 C   0  0  0  0  0  0  0  0  0  0  0  0
    9.5285    3.8586    0.0000 C   0  0  0  0  0  0  0  0  0  0  0  0
    8.6996   -3.9074    0.0000 C   0  0  0  0  0  0  0  0  0  0  0  0
   10.4306    3.3378    0.0000 C   0  0  0  0  0  0  0  0  0  0  0  0
   10.5030   -2.8476    0.0000 C   0  0  0  0  0  0  0  0  0  0  0  0
    9.5117    4.9435    0.0000 C   0  0  0  0  0  0  0  0  0  0  0  0
   11.3784    3.8657    0.0000 C   0  0  0  0  0  0  0  0  0  0  0  0
   11.3868    4.9507    0.0000 C   0  0  0  0  0  0  0  0  0  0  0  0
   10.4472    5.4932    0.0000 C   0  0  0  0  0  0  0  0  0  0  0  0
   11.3863   -4.3375    0.0000 C   0  0  3  0  0  0  0  0  0  0  0  0
   12.2465   -3.8275    0.0000 C   0  0  0  0  0  0  0  0  0  0  0  0
   11.3978   -5.3374    0.0000 C   0  0  0  0  0  0  0  0  0  0  0  0
   12.2586    6.4473    0.0000 C   0  0  0  0  0  0  0  0  0  0  0  0
    5.1280   -1.3724    0.0000 H   0  0  0  0  0  0  0  0  0  0  0  0
    2.8641   -0.0537    0.0000 H   0  0  0  0  0  0  0  0  0  0  0  0
    3.7243   -1.5570    0.0000 H   0  0  0  0  0  0  0  0  0  0  0  0
    2.8626   -0.4337    0.0000 H   0  0  0  0  0  0  0  0  0  0  0  0
    6.8612   -1.3791    0.0000 H   0  0  0  0  0  0  0  0  0  0  0  0
    4.8083    1.0588    0.0000 H   0  0  0  0  0  0  0  0  0  0  0  0
    6.3306   -0.0223    0.0000 H   0  0  0  0  0  0  0  0  0  0  0  0
    4.8940    1.7485    0.0000 H   0  0  0  0  0  0  0  0  0  0  0  0
    4.2764    2.3709    0.0000 H   0  0  0  0  0  0  0  0  0  0  0  0
    3.6540    1.7533    0.0000 H   0  0  0  0  0  0  0  0  0  0  0  0
    7.2180   -2.6728    0.0000 H   0  0  0  0  0  0  0  0  0  0  0  0
    7.2435    2.0993    0.0000 H   0  0  0  0  0  0  0  0  0  0  0  0
    2.0000    0.4496    0.0000 H   0  0  0  0  0  0  0  0  0  0  0  0
    2.5405    1.3776    0.0000 H   0  0  0  0  0  0  0  0  0  0  0  0
    3.7205   -2.5570    0.0000 H   0  0  0  0  0  0  0  0  0  0  0  0
    2.5280   -1.8624    0.0000 H   0  0  0  0  0  0  0  0  0  0  0  0
    6.0174    1.4124    0.0000 H   0  0  0  0  0  0  0  0  0  0  0  0
    8.0797   -3.9098    0.0000 H   0  0  0  0  0  0  0  0  0  0  0  0
    8.7020   -4.5274    0.0000 H   0  0  0  0  0  0  0  0  0  0  0  0
    9.3196   -3.9050    0.0000 H   0  0  0  0  0  0  0  0  0  0  0  0
   10.9155    0.5993    0.0000 H   0  0  0  0  0  0  0  0  0  0  0  0
   11.0135   -1.0558    0.0000 H   0  0  0  0  0  0  0  0  0  0  0  0
   11.9118    3.5495    0.0000 H   0  0  0  0  0  0  0  0  0  0  0  0
    9.9812   -4.1637    0.0000 H   0  0  0  0  0  0  0  0  0  0  0  0
   10.4448    6.1132    0.0000 H   0  0  0  0  0  0  0  0  0  0  0  0
   11.3791   -3.7175    0.0000 H   0  0  0  0  0  0  0  0  0  0  0  0
    8.6328    6.0534    0.0000 H   0  0  0  0  0  0  0  0  0  0  0  0
   12.5626   -4.3608    0.0000 H   0  0  0  0  0  0  0  0  0  0  0  0
   12.7798   -3.5113    0.0000 H   0  0  0  0  0  0  0  0  0  0  0  0
   11.9303   -3.2942    0.0000 H   0  0  0  0  0  0  0  0  0  0  0  0
   12.8786    6.4450    0.0000 H   0  0  0  0  0  0  0  0  0  0  0  0
   12.2610    7.0673    0.0000 H   0  0  0  0  0  0  0  0  0  0  0  0
   11.6386    6.4497    0.0000 H   0  0  0  0  0  0  0  0  0  0  0  0
   12.2768   -6.4473    0.0000 H   0  0  0  0  0  0  0  0  0  0  0  0
 18  1  1  1  0  0  0
 21  1  1  6  0  0  0
  2 18  1  0  0  0  0
  2 22  1  0  0  0  0
 19  3  1  6  0  0  0
  3 65  1  0  0  0  0
 20  4  1  1  0  0  0
  4 66  1  0  0  0  0
 23  5  1  1  0  0  0
  5 67  1  0  0  0  0
  6 31  1  0  0  0  0
  6 71  1  0  0  0  0
  7 32  1  0  0  0  0
  7 72  1  0  0  0  0
  8 37  2  0  0  0  0
  9 38  2  0  0  0  0
 10 42  2  0  0  0  0
 11 43  1  0  0  0  0
 11 77  1  0  0  0  0
 12 45  1  0  0  0  0
 12 50  1  0  0  0  0
 13 49  1  0  0  0  0
 13 84  1  0  0  0  0
 14 49  2  0  0  0  0
 17 15  1  1  0  0  0
 15 63  1  0  0  0  0
 15 64  1  0  0  0  0
 16 42  1  0  0  0  0
 16 47  1  0  0  0  0
 16 74  1  0  0  0  0
 17 20  1  0  0  0  0
 17 22  1  0  0  0  0
 17 52  1  0  0  0  0
 18 19  1  0  0  0  0
 18 51  1  0  0  0  0
 19 20  1  0  0  0  0
 19 53  1  0  0  0  0
 20 54  1  0  0  0  0
 21 23  1  0  0  0  0
 21 24  1  0  0  0  0
 21 55  1  0  0  0  0
 22 28  1  1  0  0  0
 22 56  1  0  0  0  0
 23 25  1  0  0  0  0
 23 57  1  0  0  0  0
 24 26  2  0  0  0  0
 24 29  1  0  0  0  0
 25 27  1  0  0  0  0
 25 30  2  0  0  0  0
 26 27  1  0  0  0  0
 26 32  1  0  0  0  0
 27 31  2  0  0  0  0
 28 58  1  0  0  0  0
 28 59  1  0  0  0  0
 28 60  1  0  0  0  0
 29 35  2  0  0  0  0
 29 61  1  0  0  0  0
 30 33  1  0  0  0  0
 30 62  1  0  0  0  0
 31 34  1  0  0  0  0
 32 36  2  0  0  0  0
 33 34  2  0  0  0  0
 33 37  1  0  0  0  0
 34 38  1  0  0  0  0
 35 36  1  0  0  0  0
 35 40  1  0  0  0  0
 36 42  1  0  0  0  0
 37 39  1  0  0  0  0
 38 41  1  0  0  0  0
 39 41  2  0  0  0  0
 39 43  1  0  0  0  0
 40 68  1  0  0  0  0
 40 69  1  0  0  0  0
 40 70  1  0  0  0  0
 41 44  1  0  0  0  0
 43 46  2  0  0  0  0
 44 45  2  0  0  0  0
 44 73  1  0  0  0  0
 45 46  1  0  0  0  0
 46 75  1  0  0  0  0
 47 48  1  0  0  0  0
 47 49  1  0  0  0  0
 47 76  1  0  0  0  0
 48 78  1  0  0  0  0
 48 79  1  0  0  0  0
 48 80  1  0  0  0  0
 50 81  1  0  0  0  0
 50 82  1  0  0  0  0
 50 83  1  0  0  0  0
M  END
> <PUBCHEM_COMPOUND_CID>
441179

> <PUBCHEM_COMPOUND_CANONICALIZED>
1

> <PUBCHEM_CACTVS_COMPLEXITY>
1330

> <PUBCHEM_CACTVS_HBOND_ACCEPTOR>
15

> <PUBCHEM_CACTVS_HBOND_DONOR>
9

> <PUBCHEM_CACTVS_ROTATABLE_BOND>
6

> <PUBCHEM_CACTVS_SUBSKEYS>
AAADcfB/PAAAAAAAAAAAAAAAAAAAAAAAAAA0YMGDAAAAAADBUAAAHgAQCAAADDzxmAcyDoLABgCIAqHSGACCCAAkIAAAiIGODMgfNzaGtTuncWhn9hWfuYf77PzO4AADCAAYAADAAAYQADCAAAAAAAAAAA==

> <PUBCHEM_IUPAC_OPENEYE_NAME>
2-[[(5S,6S)-5-[(2S,3R,4S,5R,6R)-5-amino-3,4-dihydroxy-6-methyl-tetrahydropyran-2-yl]oxy-1,6,9,14-tetrahydroxy-11-methoxy-3-methyl-8,13-dioxo-5,6-dihydrobenzo[a]tetracene-2-carbonyl]amino]propanoic acid

> <PUBCHEM_IUPAC_CAS_NAME>
2-[[[(5S,6S)-5-[[(2S,3R,4S,5R,6R)-5-amino-3,4-dihydroxy-6-methyl-2-oxanyl]oxy]-1,6,9,14-tetrahydroxy-11-methoxy-3-methyl-8,13-dioxo-5,6-dihydrobenzo[a]tetracen-2-yl]-oxomethyl]amino]propanoic acid

> <PUBCHEM_IUPAC_NAME>
2-[[(5S,6S)-5-[(2S,3R,4S,5R,6R)-5-amino-3,4-dihydroxy-6-methyloxan-2-yl]oxy-1,6,9,14-tetrahydroxy-11-methoxy-3-methyl-8,13-dioxo-5,6-dihydrobenzo[a]tetracene-2-carbonyl]amino]propanoic acid

> <PUBCHEM_IUPAC_SYSTEMATIC_NAME>
2-[[(5S,6S)-5-[(2S,3R,4S,5R,6R)-5-azanyl-6-methyl-3,4-bis(oxidanyl)oxan-2-yl]oxy-11-methoxy-3-methyl-1,6,9,14-tetrakis(oxidanyl)-8,13-bis(oxidanylidene)-5,6-dihydrobenzo[a]tetracen-2-yl]carbonylamino]propanoic acid

> <PUBCHEM_IUPAC_TRADITIONAL_NAME>
2-[[(5S,6S)-5-[(2S,3R,4S,5R,6R)-5-amino-3,4-dihydroxy-6-methyl-tetrahydropyran-2-yl]oxy-1,6,9,14-tetrahydroxy-8,13-diketo-11-methoxy-3-methyl-5,6-dihydrobenzo[a]tetracene-2-carbonyl]amino]propionic acid

> <PUBCHEM_IUPAC_INCHI>
InChI=1S/C34H34N2O14/c1-9-5-16-21(27(41)18(9)32(45)36-10(2)33(46)47)20-14(26(40)31(16)50-34-30(44)29(43)23(35)11(3)49-34)8-15-22(28(20)42)25(39)13-6-12(48-4)7-17(37)19(13)24(15)38/h5-8,10-11,23,26,29-31,34,37,40-44H,35H2,1-4H3,(H,36,45)(H,46,47)/t10?,11-,23+,26+,29+,30-,31+,34+/m1/s1

> <PUBCHEM_IUPAC_INCHIKEY>
RLAZQZRIYCOWMY-OVAHQGMASA-N

> <PUBCHEM_XLOGP3_AA>
-0.9

> <PUBCHEM_EXACT_MASS>
694.201004

> <PUBCHEM_MOLECULAR_FORMULA>
C34H34N2O14

> <PUBCHEM_MOLECULAR_WEIGHT>
694.63876

> <PUBCHEM_OPENEYE_CAN_SMILES>
CC1C(C(C(C(O1)OC2C(C3=C(C4=C(C(=C(C=C24)C)C(=O)NC(C)C(=O)O)O)C(=C5C(=C3)C(=O)C6=C(C=C(C=C6C5=O)OC)O)O)O)O)O)N

> <PUBCHEM_OPENEYE_ISO_SMILES>
C[C@@H]1[C@@H]([C@@H]([C@H]([C@@H](O1)O[C@@H]2[C@H](C3=C(C4=C(C(=C(C=C24)C)C(=O)NC(C)C(=O)O)O)C(=C5C(=C3)C(=O)C6=C(C=C(C=C6C5=O)OC)O)O)O)O)O)N

> <PUBCHEM_CACTVS_TPSA>
276

> <PUBCHEM_MONOISOTOPIC_WEIGHT>
694.201004

> <PUBCHEM_TOTAL_CHARGE>
0

> <PUBCHEM_HEAVY_ATOM_COUNT>
50

> <PUBCHEM_ATOM_DEF_STEREO_COUNT>
7

> <PUBCHEM_ATOM_UDEF_STEREO_COUNT>
1

> <PUBCHEM_BOND_DEF_STEREO_COUNT>
0

> <PUBCHEM_BOND_UDEF_STEREO_COUNT>
0

> <PUBCHEM_ISOTOPIC_ATOM_COUNT>
0

> <PUBCHEM_COMPONENT_COUNT>
1

> <PUBCHEM_CACTVS_TAUTO_COUNT>
994

> <PUBCHEM_COORDINATE_TYPE>
1
5
255

> <PUBCHEM_BONDANNOTATIONS>
18  1  5
21  1  6
17  15  5
22  28  5
24  26  8
24  29  8
25  27  8
25  30  8
26  32  8
27  31  8
29  35  8
19  3  6
30  33  8
31  34  8
32  36  8
33  34  8
35  36  8
39  41  8
39  43  8
20  4  5
41  44  8
43  46  8
44  45  8
45  46  8
47  48  3
23  5  5

$$$$

