5281404
  -OEChem-07051212573D

 24 26  0     0  0  0  0  0  0999 V2000
    0.0038    1.4552   -0.0005 N   0  0  0  0  0  0  0  0  0  0  0  0
    3.1811   -0.4182    0.0008 N   0  0  0  0  0  0  0  0  0  0  0  0
    0.4077   -0.7385   -0.0005 C   0  0  0  0  0  0  0  0  0  0  0  0
    1.0094    0.5195   -0.0008 C   0  0  0  0  0  0  0  0  0  0  0  0
   -1.0083   -0.5327   -0.0005 C   0  0  0  0  0  0  0  0  0  0  0  0
   -1.2288    0.8453    0.0000 C   0  0  0  0  0  0  0  0  0  0  0  0
    2.3891    0.6786   -0.0003 C   0  0  0  0  0  0  0  0  0  0  0  0
    1.2330   -1.8738    0.0001 C   0  0  0  0  0  0  0  0  0  0  0  0
   -2.1252   -1.3945   -0.0008 C   0  0  0  0  0  0  0  0  0  0  0  0
   -2.5109    1.4066    0.0007 C   0  0  0  0  0  0  0  0  0  0  0  0
   -3.4136   -0.8479    0.0000 C   0  0  0  0  0  0  0  0  0  0  0  0
   -3.6011    0.5322    0.0009 C   0  0  0  0  0  0  0  0  0  0  0  0
    2.6016   -1.6399    0.0008 C   0  0  0  0  0  0  0  0  0  0  0  0
    3.0622    2.0080    0.0000 C   0  0  0  0  0  0  0  0  0  0  0  0
    0.1480    2.4556   -0.0004 H   0  0  0  0  0  0  0  0  0  0  0  0
    0.8329   -2.8812    0.0004 H   0  0  0  0  0  0  0  0  0  0  0  0
   -1.9951   -2.4730   -0.0013 H   0  0  0  0  0  0  0  0  0  0  0  0
   -2.6580    2.4814    0.0012 H   0  0  0  0  0  0  0  0  0  0  0  0
   -4.2761   -1.5090    0.0000 H   0  0  0  0  0  0  0  0  0  0  0  0
    3.2979   -2.4732    0.0016 H   0  0  0  0  0  0  0  0  0  0  0  0
   -4.6101    0.9367    0.0016 H   0  0  0  0  0  0  0  0  0  0  0  0
    4.1514    1.8987   -0.0020 H   0  0  0  0  0  0  0  0  0  0  0  0
    2.7759    2.5782   -0.8893 H   0  0  0  0  0  0  0  0  0  0  0  0
    2.7788    2.5761    0.8915 H   0  0  0  0  0  0  0  0  0  0  0  0
  1  4  1  0  0  0  0
  1  6  1  0  0  0  0
  1 15  1  0  0  0  0
  2  7  2  0  0  0  0
  2 13  1  0  0  0  0
  3  4  2  0  0  0  0
  3  5  1  0  0  0  0
  3  8  1  0  0  0  0
  4  7  1  0  0  0  0
  5  6  1  0  0  0  0
  5  9  2  0  0  0  0
  6 10  2  0  0  0  0
  7 14  1  0  0  0  0
  8 13  2  0  0  0  0
  8 16  1  0  0  0  0
  9 11  1  0  0  0  0
  9 17  1  0  0  0  0
 10 12  1  0  0  0  0
 10 18  1  0  0  0  0
 11 12  2  0  0  0  0
 11 19  1  0  0  0  0
 12 21  1  0  0  0  0
 13 20  1  0  0  0  0
 14 22  1  0  0  0  0
 14 23  1  0  0  0  0
 14 24  1  0  0  0  0
M  END
> <PUBCHEM_COMPOUND_CID>
5281404

> <PUBCHEM_CONFORMER_RMSD>
0.4

> <PUBCHEM_CONFORMER_DIVERSEORDER>
1

> <PUBCHEM_MMFF94_PARTIAL_CHARGES>
19
1 0.03
10 -0.15
11 -0.15
12 -0.15
13 0.16
14 0.14
15 0.27
16 0.15
17 0.15
18 0.15
19 0.15
2 -0.62
20 0.15
21 0.15
4 -0.15
6 -0.15
7 0.17
8 -0.15
9 -0.15

> <PUBCHEM_EFFECTIVE_ROTOR_COUNT>
0

> <PUBCHEM_PHARMACOPHORE_FEATURES>
6
1 1 cation
1 1 donor
1 2 acceptor
5 1 3 4 5 6 rings
6 2 3 4 7 8 13 rings
6 5 6 9 10 11 12 rings

> <PUBCHEM_HEAVY_ATOM_COUNT>
14

> <PUBCHEM_ATOM_DEF_STEREO_COUNT>
0

> <PUBCHEM_ATOM_UDEF_STEREO_COUNT>
0

> <PUBCHEM_BOND_DEF_STEREO_COUNT>
0

> <PUBCHEM_BOND_UDEF_STEREO_COUNT>
0

> <PUBCHEM_ISOTOPIC_ATOM_COUNT>
0

> <PUBCHEM_COMPONENT_COUNT>
1

> <PUBCHEM_CACTVS_TAUTO_COUNT>
2

> <PUBCHEM_CONFORMER_ID>
0050967C00000001

> <PUBCHEM_MMFF94_ENERGY>
30.2369

> <PUBCHEM_FEATURE_SELFOVERLAP>
30.632

> <PUBCHEM_SHAPE_FINGERPRINT>
10608611 8 18412267259007761373
10967382 1 18338517421921524485
10980938 120 18408886213491534866
11132069 177 18410864239057249736
11471102 20 18410860987788001701
12032990 46 18410568517779681967
12932764 1 17560805493080700785
13140716 1 18411136973780684075
13296908 3 18413386540480621259
13380535 21 18410282606154242251
13380535 76 18341052913068214458
13897977 150 18410858737230647069
14144814 61 18410292536197777979
14325111 11 18410856551145014881
14576447 43 17827092714378498775
14790565 3 15522901691462554650
15196674 1 18410856551445545831
15219456 202 18412265034224920161
15442244 35 18193275423442676170
15536298 74 18334294266953434820
15775835 57 18261107418159249124
16945 1 18266460003977249191
17844478 74 17988352758869284405
17990270 104 18336826515030791422
18186145 218 18411980294920161909
193761 8 14735919706139895809
19591789 44 15749769774792111891
200 152 18041573494067351103
20201158 50 18411419552643448459
20645477 70 18336269019875681999
21267235 1 18410283727199170487
21501502 16 18409449202147108603
21501925 9 18339374036185321962
221490 88 18412254034914382706
2334 1 18410855425778979426
23402655 69 18335431192342234461
23463225 33 18411983589244428310
23552423 10 18342457062262477774
23559900 14 18336272361423541498
2748010 2 18411698781272843342
3312278 4 18337105675061911915
335352 9 18122344854571904189
5104073 3 18411417310976138211
528886 8 18410298003485495450
53812653 166 18189057512276597488
69090 78 18336271219093914711
7364860 26 18334857238423929630
8809292 202 18272363183265469051
9709674 26 18410289216062087679

> <PUBCHEM_SHAPE_MULTIPOLES>
278.15
5.8
2.02
0.6
1.19
0.01
0
0.58
0
-0.94
0
0.02
-0.01
0

> <PUBCHEM_SHAPE_SELFOVERLAP>
628.364

> <PUBCHEM_SHAPE_VOLUME>
148

> <PUBCHEM_COORDINATE_TYPE>
2
5
10

$$$$

