5281318
  -OEChem-07051212563D

 81 84  0     1  0  0  0  0  0999 V2000
    2.9982   -0.4336    1.9807 O   0  0  0  0  0  0  0  0  0  0  0  0
   -1.9229    2.5465   -2.1027 O   0  0  0  0  0  0  0  0  0  0  0  0
    3.2987    2.9604    0.1012 O   0  0  0  0  0  0  0  0  0  0  0  0
   -6.1732   -0.4691   -2.5049 O   0  0  0  0  0  0  0  0  0  0  0  0
    5.5135    1.5735    0.2708 O   0  0  0  0  0  0  0  0  0  0  0  0
   -6.5961   -2.0387   -0.4358 O   0  0  0  0  0  0  0  0  0  0  0  0
    6.7037   -3.2412    0.4358 O   0  0  0  0  0  0  0  0  0  0  0  0
   -0.0748    0.6704    1.1389 C   0  0  2  0  0  0  0  0  0  0  0  0
    0.6837    1.5161    0.0524 C   0  0  1  0  0  0  0  0  0  0  0  0
   -1.4837    1.3021    1.3682 C   0  0  1  0  0  0  0  0  0  0  0  0
   -2.3396    1.4749    0.0541 C   0  0  2  0  0  0  0  0  0  0  0  0
    2.1057    0.9103    0.1464 C   0  0  2  0  0  0  0  0  0  0  0  0
    0.9136    0.7799    2.3279 C   0  0  0  0  0  0  0  0  0  0  0  0
    2.3200    0.7776    1.6777 C   0  0  1  0  0  0  0  0  0  0  0  0
   -0.0339    1.3522   -1.2838 C   0  0  0  0  0  0  0  0  0  0  0  0
   -3.1225    0.1616   -0.3532 C   0  0  1  0  0  0  0  0  0  0  0  0
   -1.4616    1.8775   -1.1727 C   0  0  0  0  0  0  0  0  0  0  0  0
   -2.3131    0.6587    2.4937 C   0  0  0  0  0  0  0  0  0  0  0  0
   -0.1738   -0.8539    0.8240 C   0  0  0  0  0  0  0  0  0  0  0  0
    0.7680    3.0507    0.3502 C   0  0  0  0  0  0  0  0  0  0  0  0
    3.2350    1.6820   -0.5310 C   0  0  1  0  0  0  0  0  0  0  0  0
   -3.5480   -0.7521    0.8025 C   0  0  0  0  0  0  0  0  0  0  0  0
   -3.3132    2.6590    0.3240 C   0  0  0  0  0  0  0  0  0  0  0  0
   -4.3563    0.4624   -1.2378 C   0  0  0  0  0  0  0  0  0  0  0  0
   -3.1983   -0.4665    2.0703 C   0  0  0  0  0  0  0  0  0  0  0  0
   -4.3219   -2.0339    0.4306 C   0  0  0  0  0  0  0  0  0  0  0  0
   -5.0196   -0.8050   -1.7536 C   0  0  1  0  0  0  0  0  0  0  0  0
    2.9547    1.9011   -2.0161 C   0  0  0  0  0  0  0  0  0  0  0  0
    4.5890    0.9970   -0.3018 C   0  0  0  0  0  0  0  0  0  0  0  0
   -5.4339   -1.6506   -0.5644 C   0  0  0  0  0  0  0  0  0  0  0  0
   -3.3797   -3.0496   -0.2434 C   0  0  0  0  0  0  0  0  0  0  0  0
   -4.9815   -2.7536    1.6304 C   0  0  0  0  0  0  0  0  0  0  0  0
    4.7483   -0.4035   -0.8006 C   0  0  0  0  0  0  0  0  0  0  0  0
    5.5683   -1.2630   -0.1784 C   0  0  0  0  0  0  0  0  0  0  0  0
    5.8293   -2.7035   -0.5635 C   0  0  0  0  0  0  0  0  0  0  0  0
    4.5138   -3.4881   -0.5114 C   0  0  0  0  0  0  0  0  0  0  0  0
    6.5039   -2.9079   -1.9249 C   0  0  0  0  0  0  0  0  0  0  0  0
   -1.2782    2.3059    1.7633 H   0  0  0  0  0  0  0  0  0  0  0  0
    2.0944   -0.0872   -0.3096 H   0  0  0  0  0  0  0  0  0  0  0  0
    0.7908   -0.0266    3.0593 H   0  0  0  0  0  0  0  0  0  0  0  0
    0.7597    1.7252    2.8619 H   0  0  0  0  0  0  0  0  0  0  0  0
    2.9067    1.5815    2.1270 H   0  0  0  0  0  0  0  0  0  0  0  0
   -0.0671    0.3144   -1.6268 H   0  0  0  0  0  0  0  0  0  0  0  0
    0.4314    1.9308   -2.0824 H   0  0  0  0  0  0  0  0  0  0  0  0
   -2.4517   -0.4265   -0.9898 H   0  0  0  0  0  0  0  0  0  0  0  0
   -2.9503    1.4201    2.9617 H   0  0  0  0  0  0  0  0  0  0  0  0
   -1.6476    0.3047    3.2894 H   0  0  0  0  0  0  0  0  0  0  0  0
    0.7867   -1.3418    0.6584 H   0  0  0  0  0  0  0  0  0  0  0  0
   -0.6315   -1.3969    1.6573 H   0  0  0  0  0  0  0  0  0  0  0  0
   -0.7528   -1.0681   -0.0708 H   0  0  0  0  0  0  0  0  0  0  0  0
    1.2891    3.2892    1.2817 H   0  0  0  0  0  0  0  0  0  0  0  0
    1.2049    3.6168   -0.4776 H   0  0  0  0  0  0  0  0  0  0  0  0
   -0.2239    3.5002    0.4583 H   0  0  0  0  0  0  0  0  0  0  0  0
   -2.7655    3.5496    0.6546 H   0  0  0  0  0  0  0  0  0  0  0  0
   -3.8623    2.9678   -0.5719 H   0  0  0  0  0  0  0  0  0  0  0  0
   -4.0493    2.4127    1.0959 H   0  0  0  0  0  0  0  0  0  0  0  0
   -5.1015    1.0389   -0.6734 H   0  0  0  0  0  0  0  0  0  0  0  0
   -4.0795    1.0816   -2.0987 H   0  0  0  0  0  0  0  0  0  0  0  0
   -3.5090   -1.1086    2.8881 H   0  0  0  0  0  0  0  0  0  0  0  0
   -4.3546   -1.3825   -2.4014 H   0  0  0  0  0  0  0  0  0  0  0  0
    2.4623   -1.1862    1.6874 H   0  0  0  0  0  0  0  0  0  0  0  0
    3.8928    2.1335   -2.5375 H   0  0  0  0  0  0  0  0  0  0  0  0
    2.3156    2.7662   -2.2073 H   0  0  0  0  0  0  0  0  0  0  0  0
    2.5482    1.0087   -2.5022 H   0  0  0  0  0  0  0  0  0  0  0  0
    3.7984    2.8875    0.9306 H   0  0  0  0  0  0  0  0  0  0  0  0
   -2.8868   -2.6464   -1.1336 H   0  0  0  0  0  0  0  0  0  0  0  0
   -2.5922   -3.3753    0.4461 H   0  0  0  0  0  0  0  0  0  0  0  0
   -3.9317   -3.9400   -0.5677 H   0  0  0  0  0  0  0  0  0  0  0  0
   -5.5750   -3.6153    1.3002 H   0  0  0  0  0  0  0  0  0  0  0  0
   -4.2365   -3.1390    2.3359 H   0  0  0  0  0  0  0  0  0  0  0  0
   -5.6611   -2.0863    2.1738 H   0  0  0  0  0  0  0  0  0  0  0  0
    4.1462   -0.7108   -1.6474 H   0  0  0  0  0  0  0  0  0  0  0  0
   -6.7405    0.0982   -1.9553 H   0  0  0  0  0  0  0  0  0  0  0  0
    6.1282   -0.9008    0.6834 H   0  0  0  0  0  0  0  0  0  0  0  0
    4.0359   -3.3936    0.4714 H   0  0  0  0  0  0  0  0  0  0  0  0
    3.8018   -3.1580   -1.2755 H   0  0  0  0  0  0  0  0  0  0  0  0
    4.6947   -4.5596   -0.6587 H   0  0  0  0  0  0  0  0  0  0  0  0
    5.8822   -2.5362   -2.7461 H   0  0  0  0  0  0  0  0  0  0  0  0
    7.4671   -2.3857   -1.9599 H   0  0  0  0  0  0  0  0  0  0  0  0
    6.7175   -3.9678   -2.1042 H   0  0  0  0  0  0  0  0  0  0  0  0
    6.8406   -4.1843    0.2418 H   0  0  0  0  0  0  0  0  0  0  0  0
  1 14  1  0  0  0  0
  1 61  1  0  0  0  0
  2 17  2  0  0  0  0
  3 21  1  0  0  0  0
  3 65  1  0  0  0  0
  4 27  1  0  0  0  0
  4 73  1  0  0  0  0
  5 29  2  0  0  0  0
  6 30  2  0  0  0  0
  7 35  1  0  0  0  0
  7 81  1  0  0  0  0
  8  9  1  0  0  0  0
  8 10  1  0  0  0  0
  8 13  1  0  0  0  0
  8 19  1  0  0  0  0
  9 12  1  0  0  0  0
  9 15  1  0  0  0  0
  9 20  1  0  0  0  0
 10 11  1  0  0  0  0
 10 18  1  0  0  0  0
 10 38  1  0  0  0  0
 11 16  1  0  0  0  0
 11 17  1  0  0  0  0
 11 23  1  0  0  0  0
 12 14  1  0  0  0  0
 12 21  1  0  0  0  0
 12 39  1  0  0  0  0
 13 14  1  0  0  0  0
 13 40  1  0  0  0  0
 13 41  1  0  0  0  0
 14 42  1  0  0  0  0
 15 17  1  0  0  0  0
 15 43  1  0  0  0  0
 15 44  1  0  0  0  0
 16 22  1  0  0  0  0
 16 24  1  0  0  0  0
 16 45  1  0  0  0  0
 18 25  1  0  0  0  0
 18 46  1  0  0  0  0
 18 47  1  0  0  0  0
 19 48  1  0  0  0  0
 19 49  1  0  0  0  0
 19 50  1  0  0  0  0
 20 51  1  0  0  0  0
 20 52  1  0  0  0  0
 20 53  1  0  0  0  0
 21 28  1  0  0  0  0
 21 29  1  0  0  0  0
 22 25  2  0  0  0  0
 22 26  1  0  0  0  0
 23 54  1  0  0  0  0
 23 55  1  0  0  0  0
 23 56  1  0  0  0  0
 24 27  1  0  0  0  0
 24 57  1  0  0  0  0
 24 58  1  0  0  0  0
 25 59  1  0  0  0  0
 26 30  1  0  0  0  0
 26 31  1  0  0  0  0
 26 32  1  0  0  0  0
 27 30  1  0  0  0  0
 27 60  1  0  0  0  0
 28 62  1  0  0  0  0
 28 63  1  0  0  0  0
 28 64  1  0  0  0  0
 29 33  1  0  0  0  0
 31 66  1  0  0  0  0
 31 67  1  0  0  0  0
 31 68  1  0  0  0  0
 32 69  1  0  0  0  0
 32 70  1  0  0  0  0
 32 71  1  0  0  0  0
 33 34  2  0  0  0  0
 33 72  1  0  0  0  0
 34 35  1  0  0  0  0
 34 74  1  0  0  0  0
 35 36  1  0  0  0  0
 35 37  1  0  0  0  0
 36 75  1  0  0  0  0
 36 76  1  0  0  0  0
 36 77  1  0  0  0  0
 37 78  1  0  0  0  0
 37 79  1  0  0  0  0
 37 80  1  0  0  0  0
M  END
> <PUBCHEM_COMPOUND_CID>
5281318

> <PUBCHEM_CONFORMER_RMSD>
0.8

> <PUBCHEM_CONFORMER_DIVERSEORDER>
17
23
21
22
20
25
4
16
11
18
19
24
1
10
14
15
12
13
9
3
2
7
5
6
8

> <PUBCHEM_MMFF94_PARTIAL_CHARGES>
30
1 -0.68
11 0.06
14 0.28
15 0.06
16 0.14
17 0.45
18 0.14
2 -0.57
21 0.34
22 -0.28
25 -0.29
26 0.2
27 0.34
29 0.49
3 -0.68
30 0.45
33 -0.14
34 -0.29
35 0.42
4 -0.68
5 -0.57
59 0.15
6 -0.57
61 0.4
65 0.4
7 -0.68
72 0.15
73 0.4
74 0.15
81 0.4

> <PUBCHEM_EFFECTIVE_ROTOR_COUNT>
5.6

> <PUBCHEM_PHARMACOPHORE_FEATURES>
17
1 1 acceptor
1 1 donor
1 2 acceptor
1 3 acceptor
1 3 donor
1 4 acceptor
1 4 donor
1 5 acceptor
1 6 acceptor
1 7 acceptor
1 7 donor
3 26 31 32 hydrophobe
3 35 36 37 hydrophobe
5 8 9 12 13 14 rings
6 10 11 16 18 22 25 rings
6 16 22 24 26 27 30 rings
6 8 9 10 11 15 17 rings

> <PUBCHEM_HEAVY_ATOM_COUNT>
37

> <PUBCHEM_ATOM_DEF_STEREO_COUNT>
9

> <PUBCHEM_ATOM_UDEF_STEREO_COUNT>
0

> <PUBCHEM_BOND_DEF_STEREO_COUNT>
1

> <PUBCHEM_BOND_UDEF_STEREO_COUNT>
0

> <PUBCHEM_ISOTOPIC_ATOM_COUNT>
0

> <PUBCHEM_COMPONENT_COUNT>
1

> <PUBCHEM_CACTVS_TAUTO_COUNT>
8

> <PUBCHEM_CONFORMER_ID>
0050962600000011

> <PUBCHEM_MMFF94_ENERGY>
151.825

> <PUBCHEM_FEATURE_SELFOVERLAP>
86.399

> <PUBCHEM_SHAPE_FINGERPRINT>
10074138 170 16373518834373764480
11135609 201 10951753179885559685
117089 54 18335692884447054262
11763715 3 18194096578494290837
12633257 1 16154262802675602165
12788726 201 17774179962937971005
131258 38 16741733896990457335
13383661 66 17984685728482398315
13690498 29 17988071313704000902
13782708 43 18186804681523003206
14118638 360 18259981557651157568
14347332 77 18407757057846572682
14910302 57 18410019835717907864
14951699 99 8358253774356247410
15082195 135 12750956551268742186
15163728 17 12967128319859765456
15361156 5 17916285277806371404
15475509 35 17749394737126925802
16989378 47 18336527392576800918
19315092 285 17749110015455431818
19958102 18 18341896302974843326
20567600 247 18333733541951711726
20775530 9 18336270118934057674
21033650 10 16845296085440149637
22393880 68 17702957924379148273
23559900 14 18339370656378674529
23569914 152 17838081516711241055
23569914 2 9581265631851021846
249057 3 18267861877182373837
32027 91 18334017159621269923
392239 28 15575008281446447110
397830 11 7925627834605061711
4258327 124 11887671754764230555
44062 13 18270956972570831652
463206 1 18340194285187883730
474113 269 17095530621380931727
50009960 94 18198638807848643818
508706 21 17703498987173876522
5104073 3 17530961406350899864
563151 248 18194942232143103737
56638632 10 9726473919130940190
6034566 193 11671774962220443977
6669772 16 17751937821938942392
7970288 3 18121213182694024991

> <PUBCHEM_SHAPE_MULTIPOLES>
720.36
15.42
3.96
2.15
8.74
1.93
-0.16
15.86
5.43
2.99
0.69
-1.5
-0.25
1.03

> <PUBCHEM_SHAPE_SELFOVERLAP>
1536.043

> <PUBCHEM_SHAPE_VOLUME>
397.8

> <PUBCHEM_COORDINATE_TYPE>
2
5
10

$$$$

