253787
  -OEChem-07051213063D

 57 60  0     1  0  0  0  0  0999 V2000
    5.0502    0.3037    1.5423 F   0  0  0  0  0  0  0  0  0  0  0  0
    5.2791    1.7314   -0.0697 F   0  0  0  0  0  0  0  0  0  0  0  0
   -4.5003   -0.5353    0.1305 O   0  0  0  0  0  0  0  0  0  0  0  0
    6.1395   -0.3523   -1.4366 O   0  0  0  0  0  0  0  0  0  0  0  0
   -5.9563    0.7806   -1.0830 O   0  0  0  0  0  0  0  0  0  0  0  0
   -1.1711    0.8979   -0.2391 C   0  0  2  0  0  0  0  0  0  0  0  0
   -2.0471   -0.2987    0.1700 C   0  0  2  0  0  0  0  0  0  0  0  0
    0.2749    0.7800    0.2522 C   0  0  1  0  0  0  0  0  0  0  0  0
    0.9088   -0.5291   -0.2999 C   0  0  1  0  0  0  0  0  0  0  0  0
    2.3951   -0.7155    0.2157 C   0  0  2  0  0  0  0  0  0  0  0  0
   -1.4666   -1.5520   -0.4969 C   0  0  0  0  0  0  0  0  0  0  0  0
    0.0003   -1.7733   -0.0892 C   0  0  0  0  0  0  0  0  0  0  0  0
   -3.3973    0.1697   -0.4055 C   0  0  2  0  0  0  0  0  0  0  0  0
   -1.9972    2.1096    0.1846 C   0  0  0  0  0  0  0  0  0  0  0  0
   -3.4528    1.6699   -0.0555 C   0  0  0  0  0  0  0  0  0  0  0  0
    1.0995    1.9929   -0.1995 C   0  0  0  0  0  0  0  0  0  0  0  0
    3.1822    0.6066    0.1172 C   0  0  0  0  0  0  0  0  0  0  0  0
   -2.1599   -0.5222    1.6991 C   0  0  0  0  0  0  0  0  0  0  0  0
    3.0828   -1.7856   -0.6855 C   0  0  0  0  0  0  0  0  0  0  0  0
    2.5761    1.7906   -0.0855 C   0  0  0  0  0  0  0  0  0  0  0  0
    2.4187   -1.1894    1.6882 C   0  0  0  0  0  0  0  0  0  0  0  0
    4.6885    0.5440    0.2511 C   0  0  0  0  0  0  0  0  0  0  0  0
    4.5881   -1.9071   -0.4835 C   0  0  0  0  0  0  0  0  0  0  0  0
    5.2148   -0.5477   -0.6501 C   0  0  0  0  0  0  0  0  0  0  0  0
   -5.7420   -0.1283   -0.2928 C   0  0  0  0  0  0  0  0  0  0  0  0
   -6.8032   -0.9769    0.3674 C   0  0  0  0  0  0  0  0  0  0  0  0
   -8.2048   -0.5634   -0.0461 C   0  0  0  0  0  0  0  0  0  0  0  0
   -1.1278    0.9305   -1.3411 H   0  0  0  0  0  0  0  0  0  0  0  0
    0.2843    0.7579    1.3480 H   0  0  0  0  0  0  0  0  0  0  0  0
    0.9649   -0.3956   -1.3928 H   0  0  0  0  0  0  0  0  0  0  0  0
   -1.5150   -1.4571   -1.5894 H   0  0  0  0  0  0  0  0  0  0  0  0
   -2.0594   -2.4373   -0.2375 H   0  0  0  0  0  0  0  0  0  0  0  0
    0.0186   -2.0909    0.9570 H   0  0  0  0  0  0  0  0  0  0  0  0
    0.3879   -2.6167   -0.6714 H   0  0  0  0  0  0  0  0  0  0  0  0
   -3.3967    0.0460   -1.4978 H   0  0  0  0  0  0  0  0  0  0  0  0
   -1.7473    3.0013   -0.3994 H   0  0  0  0  0  0  0  0  0  0  0  0
   -1.8411    2.3512    1.2419 H   0  0  0  0  0  0  0  0  0  0  0  0
   -4.0648    1.8748    0.8302 H   0  0  0  0  0  0  0  0  0  0  0  0
   -3.8803    2.2435   -0.8855 H   0  0  0  0  0  0  0  0  0  0  0  0
    0.8164    2.8628    0.4054 H   0  0  0  0  0  0  0  0  0  0  0  0
    0.8750    2.2470   -1.2430 H   0  0  0  0  0  0  0  0  0  0  0  0
   -1.1893   -0.6789    2.1770 H   0  0  0  0  0  0  0  0  0  0  0  0
   -2.6309    0.3233    2.2108 H   0  0  0  0  0  0  0  0  0  0  0  0
   -2.7693   -1.4075    1.9147 H   0  0  0  0  0  0  0  0  0  0  0  0
    2.9038   -1.5368   -1.7409 H   0  0  0  0  0  0  0  0  0  0  0  0
    2.6352   -2.7724   -0.5185 H   0  0  0  0  0  0  0  0  0  0  0  0
    3.1734    2.6953   -0.1678 H   0  0  0  0  0  0  0  0  0  0  0  0
    3.4341   -1.2568    2.0903 H   0  0  0  0  0  0  0  0  0  0  0  0
    1.8635   -0.5095    2.3424 H   0  0  0  0  0  0  0  0  0  0  0  0
    1.9886   -2.1899    1.7987 H   0  0  0  0  0  0  0  0  0  0  0  0
    5.0104   -2.5905   -1.2279 H   0  0  0  0  0  0  0  0  0  0  0  0
    4.8410   -2.2959    0.5075 H   0  0  0  0  0  0  0  0  0  0  0  0
   -6.6345   -2.0218    0.0867 H   0  0  0  0  0  0  0  0  0  0  0  0
   -6.7008   -0.8757    1.4530 H   0  0  0  0  0  0  0  0  0  0  0  0
   -8.3398   -0.6590   -1.1286 H   0  0  0  0  0  0  0  0  0  0  0  0
   -8.9499   -1.1938    0.4488 H   0  0  0  0  0  0  0  0  0  0  0  0
   -8.4033    0.4789    0.2252 H   0  0  0  0  0  0  0  0  0  0  0  0
  1 22  1  0  0  0  0
  2 22  1  0  0  0  0
  3 13  1  0  0  0  0
  3 25  1  0  0  0  0
  4 24  2  0  0  0  0
  5 25  2  0  0  0  0
  6  7  1  0  0  0  0
  6  8  1  0  0  0  0
  6 14  1  0  0  0  0
  6 28  1  0  0  0  0
  7 11  1  0  0  0  0
  7 13  1  0  0  0  0
  7 18  1  0  0  0  0
  8  9  1  0  0  0  0
  8 16  1  0  0  0  0
  8 29  1  0  0  0  0
  9 10  1  0  0  0  0
  9 12  1  0  0  0  0
  9 30  1  0  0  0  0
 10 17  1  0  0  0  0
 10 19  1  0  0  0  0
 10 21  1  0  0  0  0
 11 12  1  0  0  0  0
 11 31  1  0  0  0  0
 11 32  1  0  0  0  0
 12 33  1  0  0  0  0
 12 34  1  0  0  0  0
 13 15  1  0  0  0  0
 13 35  1  0  0  0  0
 14 15  1  0  0  0  0
 14 36  1  0  0  0  0
 14 37  1  0  0  0  0
 15 38  1  0  0  0  0
 15 39  1  0  0  0  0
 16 20  1  0  0  0  0
 16 40  1  0  0  0  0
 16 41  1  0  0  0  0
 17 20  2  0  0  0  0
 17 22  1  0  0  0  0
 18 42  1  0  0  0  0
 18 43  1  0  0  0  0
 18 44  1  0  0  0  0
 19 23  1  0  0  0  0
 19 45  1  0  0  0  0
 19 46  1  0  0  0  0
 20 47  1  0  0  0  0
 21 48  1  0  0  0  0
 21 49  1  0  0  0  0
 21 50  1  0  0  0  0
 22 24  1  0  0  0  0
 23 24  1  0  0  0  0
 23 51  1  0  0  0  0
 23 52  1  0  0  0  0
 25 26  1  0  0  0  0
 26 27  1  0  0  0  0
 26 53  1  0  0  0  0
 26 54  1  0  0  0  0
 27 55  1  0  0  0  0
 27 56  1  0  0  0  0
 27 57  1  0  0  0  0
M  END
> <PUBCHEM_COMPOUND_CID>
253787

> <PUBCHEM_CONFORMER_RMSD>
0.8

> <PUBCHEM_CONFORMER_DIVERSEORDER>
1
5
6
4
2
3

> <PUBCHEM_MMFF94_PARTIAL_CHARGES>
16
1 -0.34
10 0.14
13 0.28
16 0.14
17 -0.28
2 -0.34
20 -0.29
22 0.88
23 0.06
24 0.45
25 0.66
26 0.06
3 -0.43
4 -0.57
47 0.15
5 -0.57

> <PUBCHEM_EFFECTIVE_ROTOR_COUNT>
4.8

> <PUBCHEM_PHARMACOPHORE_FEATURES>
7
1 27 hydrophobe
1 4 acceptor
1 5 acceptor
5 6 7 13 14 15 rings
6 10 17 19 22 23 24 rings
6 6 7 8 9 11 12 rings
6 8 9 10 16 17 20 rings

> <PUBCHEM_HEAVY_ATOM_COUNT>
27

> <PUBCHEM_ATOM_DEF_STEREO_COUNT>
6

> <PUBCHEM_ATOM_UDEF_STEREO_COUNT>
0

> <PUBCHEM_BOND_DEF_STEREO_COUNT>
0

> <PUBCHEM_BOND_UDEF_STEREO_COUNT>
0

> <PUBCHEM_ISOTOPIC_ATOM_COUNT>
0

> <PUBCHEM_COMPONENT_COUNT>
1

> <PUBCHEM_CACTVS_TAUTO_COUNT>
2

> <PUBCHEM_CONFORMER_ID>
0003DF5B00000001

> <PUBCHEM_MMFF94_ENERGY>
70.435

> <PUBCHEM_FEATURE_SELFOVERLAP>
35.617

> <PUBCHEM_SHAPE_FINGERPRINT>
10 15 18340776940567304000
10366900 7 17775560957461901264
10906281 52 18270945934615806569
11578080 2 16662352584674455802
11646440 116 18187081741410555337
11963148 33 18411424986353071839
12011746 2 18341891904722103838
12166972 35 17822008709396273857
12236239 1 17530681009463460937
12403259 415 18041007266558361577
12516196 113 18261112972058560049
12730499 353 18187082866876830094
12788726 201 18338803415515476809
12916748 109 18410575097547980800
13533116 47 17168142364604787982
13685833 64 18334855025998800991
14170010 4 18408041792824884021
14341114 176 18408882940895273447
15131766 46 16198445526776839126
15183329 4 18202285836055855329
15196674 1 18337109072080641908
17349148 13 17530682121353679413
17492 89 18119811558323190807
18608769 82 18338797810467064875
18681886 176 18408326574836852408
200 152 18113620101542194257
20028762 73 18259987080805618535
21033648 29 17749968746177828241
21150785 3 15697995220187522183
21236236 1 18261671575890433593
21267235 1 18408035225761697429
21279426 13 18267869552710522581
21285901 2 18270679882660681372
221357 26 18408321107454215260
22149856 69 18261942004284657715
23522609 53 18118089598940207657
23559900 14 18338239254318078001
23569943 247 17974276922285124330
3004659 81 18273214187969284885
335352 9 18410009905663894462
34797466 226 17603863382543528428
350125 39 18408885153057093025
3545911 37 18335139786884085950
4073 2 18059288756610647171
4340502 62 16917353636164518235
46194498 28 17917993845460772964
465052 167 18334572443242554543
5104073 3 18189620603858152681

> <PUBCHEM_SHAPE_MULTIPOLES>
523.49
16.23
2
1.06
18.75
0.4
-0.33
-2.71
2.21
-0.96
0.12
-0.6
-0.23
0.56

> <PUBCHEM_SHAPE_SELFOVERLAP>
1121.369

> <PUBCHEM_SHAPE_VOLUME>
290.4

> <PUBCHEM_COORDINATE_TYPE>
2
5
10

$$$$

