5318565
  -OEChem-07051213103D

 26 27  0     0  0  0  0  0  0999 V2000
   -1.9874    0.6473   -0.2355 O   0  0  0  0  0  0  0  0  0  0  0  0
    0.1000    2.4171   -0.4085 O   0  0  0  0  0  0  0  0  0  0  0  0
    3.2281   -1.1139    0.3936 O   0  0  0  0  0  0  0  0  0  0  0  0
    2.7092    1.5596   -0.0964 O   0  0  0  0  0  0  0  0  0  0  0  0
   -4.2315    0.1933   -0.2975 O   0  0  0  0  0  0  0  0  0  0  0  0
   -0.4232   -1.1719    0.1742 C   0  0  0  0  0  0  0  0  0  0  0  0
   -0.6686    0.1762   -0.0723 C   0  0  0  0  0  0  0  0  0  0  0  0
    0.3661    1.1044   -0.1670 C   0  0  0  0  0  0  0  0  0  0  0  0
    0.8970   -1.6001    0.3299 C   0  0  0  0  0  0  0  0  0  0  0  0
    1.9454   -0.6801    0.2377 C   0  0  0  0  0  0  0  0  0  0  0  0
    1.6802    0.6688   -0.0101 C   0  0  0  0  0  0  0  0  0  0  0  0
   -1.5499   -2.0851    0.2607 C   0  0  0  0  0  0  0  0  0  0  0  0
   -2.7961   -1.6312    0.1046 C   0  0  0  0  0  0  0  0  0  0  0  0
   -3.0814   -0.2083   -0.1576 C   0  0  0  0  0  0  0  0  0  0  0  0
   -0.1048    3.2576    0.7262 C   0  0  0  0  0  0  0  0  0  0  0  0
    3.9169   -1.5338   -0.7821 C   0  0  0  0  0  0  0  0  0  0  0  0
    1.1174   -2.6474    0.5244 H   0  0  0  0  0  0  0  0  0  0  0  0
   -1.3629   -3.1358    0.4528 H   0  0  0  0  0  0  0  0  0  0  0  0
   -3.6423   -2.3067    0.1677 H   0  0  0  0  0  0  0  0  0  0  0  0
    3.5420    1.0903    0.0828 H   0  0  0  0  0  0  0  0  0  0  0  0
   -0.9631    2.9127    1.3113 H   0  0  0  0  0  0  0  0  0  0  0  0
   -0.3096    4.2706    0.3691 H   0  0  0  0  0  0  0  0  0  0  0  0
    0.7917    3.2823    1.3536 H   0  0  0  0  0  0  0  0  0  0  0  0
    4.9370   -1.8100   -0.5013 H   0  0  0  0  0  0  0  0  0  0  0  0
    3.9636   -0.7236   -1.5167 H   0  0  0  0  0  0  0  0  0  0  0  0
    3.4256   -2.4085   -1.2198 H   0  0  0  0  0  0  0  0  0  0  0  0
  1  7  1  0  0  0  0
  1 14  1  0  0  0  0
  2  8  1  0  0  0  0
  2 15  1  0  0  0  0
  3 10  1  0  0  0  0
  3 16  1  0  0  0  0
  4 11  1  0  0  0  0
  4 20  1  0  0  0  0
  5 14  2  0  0  0  0
  6  7  1  0  0  0  0
  6  9  2  0  0  0  0
  6 12  1  0  0  0  0
  7  8  2  0  0  0  0
  8 11  1  0  0  0  0
  9 10  1  0  0  0  0
  9 17  1  0  0  0  0
 10 11  2  0  0  0  0
 12 13  2  0  0  0  0
 12 18  1  0  0  0  0
 13 14  1  0  0  0  0
 13 19  1  0  0  0  0
 15 21  1  0  0  0  0
 15 22  1  0  0  0  0
 15 23  1  0  0  0  0
 16 24  1  0  0  0  0
 16 25  1  0  0  0  0
 16 26  1  0  0  0  0
M  END
> <PUBCHEM_COMPOUND_CID>
5318565

> <PUBCHEM_CONFORMER_RMSD>
0.6

> <PUBCHEM_CONFORMER_DIVERSEORDER>
2
1

> <PUBCHEM_MMFF94_PARTIAL_CHARGES>
20
1 -0.23
10 0.08
11 0.08
12 -0.18
13 -0.14
14 0.71
15 0.28
16 0.28
17 0.15
18 0.15
19 0.15
2 -0.36
20 0.45
3 -0.36
4 -0.53
5 -0.57
6 0.03
7 0.08
8 0.08
9 -0.15

> <PUBCHEM_EFFECTIVE_ROTOR_COUNT>
2

> <PUBCHEM_PHARMACOPHORE_FEATURES>
6
1 2 acceptor
1 3 acceptor
1 4 donor
1 5 acceptor
6 1 6 7 12 13 14 rings
6 6 7 8 9 10 11 rings

> <PUBCHEM_HEAVY_ATOM_COUNT>
16

> <PUBCHEM_ATOM_DEF_STEREO_COUNT>
0

> <PUBCHEM_ATOM_UDEF_STEREO_COUNT>
0

> <PUBCHEM_BOND_DEF_STEREO_COUNT>
0

> <PUBCHEM_BOND_UDEF_STEREO_COUNT>
0

> <PUBCHEM_ISOTOPIC_ATOM_COUNT>
0

> <PUBCHEM_COMPONENT_COUNT>
1

> <PUBCHEM_CACTVS_TAUTO_COUNT>
3

> <PUBCHEM_CONFORMER_ID>
005127A500000002

> <PUBCHEM_MMFF94_ENERGY>
69.5718

> <PUBCHEM_FEATURE_SELFOVERLAP>
30.473

> <PUBCHEM_SHAPE_FINGERPRINT>
10130415 120 18342745117197664419
104564 63 18192990649973390609
10608611 8 18269278954623304365
10967382 1 18339925913544080011
11132069 177 18411427197605977802
11471102 20 18340494383015851455
11680986 33 18267023860390361739
116883 192 18190172563275190614
12032990 46 18411414016362142547
13140716 1 18412266125194365954
13571099 22 18335703806273827383
14115302 16 18059844095591895542
14648413 74 18124598583089792177
14911166 2 18341613758392910207
15196674 1 18412545379873353215
15442244 35 18410009927376055409
15536298 74 18336265656789447946
15848700 24 18335710458919712830
16945 1 18267586986437584954
17990270 104 18268150846692048938
18186145 218 18059863852341165159
193761 8 17907580220414992875
19591789 44 17039779041869029003
20510252 161 18190748724590232000
21029758 11 18408611370055261373
21267235 1 18411973672149598339
21501502 16 18268995280475924487
21524375 3 17035281480802516704
221490 88 18197492918472609907
2334 1 18340206263387266578
23402539 116 18261404398168605551
23463225 33 18413673504288392562
23557571 272 18043525226365798470
23559900 14 18409728423004844036
2748010 2 18339928117010164798
3071541 12 18267582394943686556
3084891 72 18340209716483405139
53812653 166 18193280689115175416
7364860 26 18120373151103324136
7832392 63 18409452462228012667
81228 2 18267576000011306368
8809292 202 18273210893866687899
9709674 26 18196653982494974811

> <PUBCHEM_SHAPE_MULTIPOLES>
299.93
5.5
2.86
0.71
0.34
2.16
-0.01
-2.49
0.91
-0.4
-0.4
-0.14
0.02
0.25

> <PUBCHEM_SHAPE_SELFOVERLAP>
647.45

> <PUBCHEM_SHAPE_VOLUME>
165.7

> <PUBCHEM_COORDINATE_TYPE>
2
5
10

$$$$

