51090846
  -OEChem-06241223003D

 40 42  0     0  0  0  0  0  0999 V2000
    2.9366   -2.6264   -0.9646 Cl  0  0  0  0  0  0  0  0  0  0  0  0
   -4.7324    0.7462    0.3190 O   0  0  0  0  0  0  0  0  0  0  0  0
    0.2141   -2.7276    1.1080 O   0  0  0  0  0  0  0  0  0  0  0  0
   -1.1387   -1.3016   -0.1585 N   0  0  0  0  0  0  0  0  0  0  0  0
    1.2743    0.4548    0.7095 N   0  0  0  0  0  0  0  0  0  0  0  0
   -3.7362   -0.0502   -0.3111 C   0  0  0  0  0  0  0  0  0  0  0  0
   -2.4467    0.7596   -0.4667 C   0  0  0  0  0  0  0  0  0  0  0  0
   -3.4962   -1.3008    0.5362 C   0  0  0  0  0  0  0  0  0  0  0  0
   -2.3376   -2.1284   -0.0117 C   0  0  0  0  0  0  0  0  0  0  0  0
   -1.3131   -0.1098   -1.0004 C   0  0  0  0  0  0  0  0  0  0  0  0
    0.0562   -1.7060    0.4410 C   0  0  0  0  0  0  0  0  0  0  0  0
    1.2355   -0.8459    0.2840 C   0  0  0  0  0  0  0  0  0  0  0  0
   -5.3277    1.6552   -0.5960 C   0  0  0  0  0  0  0  0  0  0  0  0
    2.4548   -1.1436   -0.2798 C   0  0  0  0  0  0  0  0  0  0  0  0
    3.2675    0.0213   -0.1943 C   0  0  0  0  0  0  0  0  0  0  0  0
    2.5031    1.0092    0.4303 C   0  0  0  0  0  0  0  0  0  0  0  0
   -6.3754    2.4713    0.1306 C   0  0  0  0  0  0  0  0  0  0  0  0
    4.5841    0.3310   -0.5894 C   0  0  0  0  0  0  0  0  0  0  0  0
    2.9917    2.2965    0.6802 C   0  0  0  0  0  0  0  0  0  0  0  0
    5.0859    1.6146   -0.3458 C   0  0  0  0  0  0  0  0  0  0  0  0
    4.3001    2.5807    0.2794 C   0  0  0  0  0  0  0  0  0  0  0  0
   -4.0901   -0.3765   -1.2989 H   0  0  0  0  0  0  0  0  0  0  0  0
   -2.1649    1.1892    0.5035 H   0  0  0  0  0  0  0  0  0  0  0  0
   -2.5894    1.6073   -1.1443 H   0  0  0  0  0  0  0  0  0  0  0  0
   -3.2834   -1.0032    1.5716 H   0  0  0  0  0  0  0  0  0  0  0  0
   -4.4097   -1.9056    0.5781 H   0  0  0  0  0  0  0  0  0  0  0  0
   -2.1449   -2.9792    0.6494 H   0  0  0  0  0  0  0  0  0  0  0  0
   -2.5843   -2.5300   -1.0016 H   0  0  0  0  0  0  0  0  0  0  0  0
   -1.5622   -0.4696   -2.0067 H   0  0  0  0  0  0  0  0  0  0  0  0
   -0.4022    0.4779   -1.1068 H   0  0  0  0  0  0  0  0  0  0  0  0
   -5.8029    1.1024   -1.4143 H   0  0  0  0  0  0  0  0  0  0  0  0
   -4.5833    2.3385   -1.0145 H   0  0  0  0  0  0  0  0  0  0  0  0
    0.5148    0.9399    1.1676 H   0  0  0  0  0  0  0  0  0  0  0  0
   -7.1401    1.8187    0.5646 H   0  0  0  0  0  0  0  0  0  0  0  0
   -5.9245    3.0277    0.9590 H   0  0  0  0  0  0  0  0  0  0  0  0
   -6.8599    3.1795   -0.5475 H   0  0  0  0  0  0  0  0  0  0  0  0
    5.2114   -0.4092   -1.0780 H   0  0  0  0  0  0  0  0  0  0  0  0
    2.3806    3.0493    1.1668 H   0  0  0  0  0  0  0  0  0  0  0  0
    6.1007    1.8593   -0.6484 H   0  0  0  0  0  0  0  0  0  0  0  0
    4.7100    3.5714    0.4587 H   0  0  0  0  0  0  0  0  0  0  0  0
  1 14  1  0  0  0  0
  2  6  1  0  0  0  0
  2 13  1  0  0  0  0
  3 11  2  0  0  0  0
  4  9  1  0  0  0  0
  4 10  1  0  0  0  0
  4 11  1  0  0  0  0
  5 12  1  0  0  0  0
  5 16  1  0  0  0  0
  5 33  1  0  0  0  0
  6  7  1  0  0  0  0
  6  8  1  0  0  0  0
  6 22  1  0  0  0  0
  7 10  1  0  0  0  0
  7 23  1  0  0  0  0
  7 24  1  0  0  0  0
  8  9  1  0  0  0  0
  8 25  1  0  0  0  0
  8 26  1  0  0  0  0
  9 27  1  0  0  0  0
  9 28  1  0  0  0  0
 10 29  1  0  0  0  0
 10 30  1  0  0  0  0
 11 12  1  0  0  0  0
 12 14  2  0  0  0  0
 13 17  1  0  0  0  0
 13 31  1  0  0  0  0
 13 32  1  0  0  0  0
 14 15  1  0  0  0  0
 15 16  1  0  0  0  0
 15 18  2  0  0  0  0
 16 19  2  0  0  0  0
 17 34  1  0  0  0  0
 17 35  1  0  0  0  0
 17 36  1  0  0  0  0
 18 20  1  0  0  0  0
 18 37  1  0  0  0  0
 19 21  1  0  0  0  0
 19 38  1  0  0  0  0
 20 21  2  0  0  0  0
 20 39  1  0  0  0  0
 21 40  1  0  0  0  0
M  END
> <PUBCHEM_COMPOUND_CID>
51090846

> <PUBCHEM_CONFORMER_RMSD>
0.8

> <PUBCHEM_CONFORMER_DIVERSEORDER>
1
14
8
16
20
15
13
12
11
17
4
9
7
18
10
5
6
19
3
2

> <PUBCHEM_MMFF94_PARTIAL_CHARGES>
22
1 -0.12
10 0.3
11 0.71
12 -0.24
13 0.28
14 0.12
16 -0.15
18 -0.15
19 -0.15
2 -0.56
20 -0.15
21 -0.15
3 -0.57
33 0.27
37 0.15
38 0.15
39 0.15
4 -0.66
40 0.15
5 0.03
6 0.28
9 0.3

> <PUBCHEM_EFFECTIVE_ROTOR_COUNT>
5.2

> <PUBCHEM_PHARMACOPHORE_FEATURES>
7
1 2 acceptor
1 3 acceptor
1 5 cation
1 5 donor
5 5 12 14 15 16 rings
6 15 16 18 19 20 21 rings
6 4 6 7 8 9 10 rings

> <PUBCHEM_HEAVY_ATOM_COUNT>
21

> <PUBCHEM_ATOM_DEF_STEREO_COUNT>
0

> <PUBCHEM_ATOM_UDEF_STEREO_COUNT>
0

> <PUBCHEM_BOND_DEF_STEREO_COUNT>
0

> <PUBCHEM_BOND_UDEF_STEREO_COUNT>
0

> <PUBCHEM_ISOTOPIC_ATOM_COUNT>
0

> <PUBCHEM_COMPONENT_COUNT>
1

> <PUBCHEM_CACTVS_TAUTO_COUNT>
5

> <PUBCHEM_CONFORMER_ID>
030B959E00000001

> <PUBCHEM_MMFF94_ENERGY>
42.254

> <PUBCHEM_FEATURE_SELFOVERLAP>
35.612

> <PUBCHEM_SHAPE_FINGERPRINT>
10411042 1 17545884192458675039
10498660 4 18343028782882054581
1100329 8 17688022429084426760
12390115 104 18339349795658785601
12403259 415 18190457152409301848
12730499 353 18409440367262704938
12769317 202 18335993016312798808
12788726 201 17458902768710122945
13464514 151 18410008810990812410
13878862 14 17913233106858653173
13944108 23 17904481062741924973
13955234 65 17985549090134152683
14251764 75 18409158927205187977
14341114 328 15985098596345874093
14528608 73 18336554888957117469
14848178 96 18410298025308803353
15196674 1 18411420579071735595
15210252 30 18411419471409088728
17834072 32 18341051834978772957
17980427 26 18270134486234259166
193927 3 7853573551987113693
19784866 170 18060419136168067301
20645477 56 18342738520560323423
20645477 70 17604412021797736662
20832881 197 18198056083332866050
21033648 29 18338521828584857712
21279426 13 18335412470442523948
21421861 104 17845669165182350026
22289505 5 18260265282842513316
23402655 69 18260551112567662172
23559900 14 18334296517363973238
23845131 108 18131070455103628371
25 1 18336549331005763414
2838139 119 18335990817616545437
2916195 48 18264493888525067368
335352 9 18410012165544724790
3472631 163 18335140908234631981
350125 39 18200597020228139230
495365 180 17895485743418628042
5104073 3 18202847664711628811
56616090 163 18411133636596440991
633830 44 18410581703545721303
6442390 28 18273210863717644259
7064713 232 18130787811146447517
7808743 9 18342462491270165937

> <PUBCHEM_SHAPE_MULTIPOLES>
412.34
12.32
3.14
0.9
11.65
0.15
-0.03
-10.91
-1.26
-0.56
0.29
-0.11
0.17
0.93

> <PUBCHEM_SHAPE_SELFOVERLAP>
870.724

> <PUBCHEM_SHAPE_VOLUME>
233.1

> <PUBCHEM_COORDINATE_TYPE>
2
5
10

$$$$

