5281364
  -OEChem-07051212562D

 76 79  0     1  0  0  0  0  0999 V2000
    5.3100   -0.7362    0.0000 O   0  0  0  0  0  0  0  0  0  0  0  0
    5.9856    0.8948    0.0000 O   0  0  0  0  0  0  0  0  0  0  0  0
    5.3100    0.9958    0.0000 O   0  0  0  0  0  0  0  0  0  0  0  0
   11.5476   -1.2310    0.0000 O   0  0  0  0  0  0  0  0  0  0  0  0
    3.3100   -0.7362    0.0000 O   0  0  0  0  0  0  0  0  0  0  0  0
    2.3100    0.9958    0.0000 O   0  0  0  0  0  0  0  0  0  0  0  0
    3.3100    2.7279    0.0000 O   0  0  0  0  0  0  0  0  0  0  0  0
    6.3100    2.7279    0.0000 O   0  0  0  0  0  0  0  0  0  0  0  0
    8.5404    0.1877    0.0000 C   0  0  1  0  0  0  0  0  0  0  0  0
    7.6166   -2.0428    0.0000 C   0  0  2  0  0  0  0  0  0  0  0  0
    7.6166    0.5703    0.0000 C   0  0  2  0  0  0  0  0  0  0  0  0
    8.9231   -0.7362    0.0000 C   0  0  0  0  0  0  0  0  0  0  0  0
    6.6927   -1.6601    0.0000 C   0  0  0  0  0  0  0  0  0  0  0  0
    9.9139   -0.6557    0.0000 C   0  0  2  0  0  0  0  0  0  0  0  0
    6.3100   -0.7362    0.0000 C   0  0  2  0  0  0  0  0  0  0  0  0
    6.6927    0.1877    0.0000 C   0  0  2  0  0  0  0  0  0  0  0  0
    9.2980    0.8313    0.0000 C   0  0  0  0  0  0  0  0  0  0  0  0
    7.5360   -3.0336    0.0000 C   0  0  0  0  0  0  0  0  0  0  0  0
    8.5404   -1.6601    0.0000 C   0  0  0  0  0  0  0  0  0  0  0  0
   10.1452    0.3112    0.0000 C   0  0  0  0  0  0  0  0  0  0  0  0
    6.0490   -2.4177    0.0000 C   0  0  0  0  0  0  0  0  0  0  0  0
    6.5692   -3.2648    0.0000 C   0  0  0  0  0  0  0  0  0  0  0  0
    8.3538   -2.7184    0.0000 C   0  0  0  0  0  0  0  0  0  0  0  0
    7.6166    1.5703    0.0000 C   0  0  0  0  0  0  0  0  0  0  0  0
    5.0520   -2.3409    0.0000 C   0  0  0  0  0  0  0  0  0  0  0  0
   10.5647   -1.4149    0.0000 C   0  0  0  0  0  0  0  0  0  0  0  0
    4.8100    0.1298    0.0000 C   0  0  1  0  0  0  0  0  0  0  0  0
    4.4870   -3.1660    0.0000 C   0  0  0  0  0  0  0  0  0  0  0  0
    4.6199   -1.4391    0.0000 C   0  0  0  0  0  0  0  0  0  0  0  0
    3.8100    0.1298    0.0000 C   0  0  1  0  0  0  0  0  0  0  0  0
    3.3100    0.9958    0.0000 C   0  0  2  0  0  0  0  0  0  0  0  0
    4.8100    1.8619    0.0000 C   0  0  1  0  0  0  0  0  0  0  0  0
    3.8100    1.8619    0.0000 C   0  0  1  0  0  0  0  0  0  0  0  0
    5.3100    2.7279    0.0000 C   0  0  0  0  0  0  0  0  0  0  0  0
    8.4086    1.0274    0.0000 H   0  0  0  0  0  0  0  0  0  0  0  0
    8.1321    0.9148    0.0000 H   0  0  0  0  0  0  0  0  0  0  0  0
    5.9656   -1.2517    0.0000 H   0  0  0  0  0  0  0  0  0  0  0  0
    9.6779   -1.2290    0.0000 H   0  0  0  0  0  0  0  0  0  0  0  0
    6.0846    0.0667    0.0000 H   0  0  0  0  0  0  0  0  0  0  0  0
    9.6762    1.3226    0.0000 H   0  0  0  0  0  0  0  0  0  0  0  0
    8.8492    1.2590    0.0000 H   0  0  0  0  0  0  0  0  0  0  0  0
    7.6160   -3.6484    0.0000 H   0  0  0  0  0  0  0  0  0  0  0  0
    8.1558   -3.0186    0.0000 H   0  0  0  0  0  0  0  0  0  0  0  0
    9.1024   -1.9221    0.0000 H   0  0  0  0  0  0  0  0  0  0  0  0
   10.7297    0.1044    0.0000 H   0  0  0  0  0  0  0  0  0  0  0  0
   10.4122    0.8707    0.0000 H   0  0  0  0  0  0  0  0  0  0  0  0
    6.0097   -3.5319    0.0000 H   0  0  0  0  0  0  0  0  0  0  0  0
    6.7760   -3.8493    0.0000 H   0  0  0  0  0  0  0  0  0  0  0  0
    7.9350   -3.1755    0.0000 H   0  0  0  0  0  0  0  0  0  0  0  0
    8.8110   -3.1372    0.0000 H   0  0  0  0  0  0  0  0  0  0  0  0
    8.7727   -2.2613    0.0000 H   0  0  0  0  0  0  0  0  0  0  0  0
    8.2366    1.5703    0.0000 H   0  0  0  0  0  0  0  0  0  0  0  0
    7.6166    2.1903    0.0000 H   0  0  0  0  0  0  0  0  0  0  0  0
    6.9966    1.5703    0.0000 H   0  0  0  0  0  0  0  0  0  0  0  0
    5.3199   -2.9001    0.0000 H   0  0  0  0  0  0  0  0  0  0  0  0
   10.0310   -1.7305    0.0000 H   0  0  0  0  0  0  0  0  0  0  0  0
   10.7828   -1.9953    0.0000 H   0  0  0  0  0  0  0  0  0  0  0  0
    4.5000   -0.4071    0.0000 H   0  0  0  0  0  0  0  0  0  0  0  0
    6.1460    1.4936    0.0000 H   0  0  0  0  0  0  0  0  0  0  0  0
    3.9754   -2.8158    0.0000 H   0  0  0  0  0  0  0  0  0  0  0  0
    4.1367   -3.6776    0.0000 H   0  0  0  0  0  0  0  0  0  0  0  0
    4.9986   -3.5163    0.0000 H   0  0  0  0  0  0  0  0  0  0  0  0
    5.1791   -1.1712    0.0000 H   0  0  0  0  0  0  0  0  0  0  0  0
    4.3520   -0.8800    0.0000 H   0  0  0  0  0  0  0  0  0  0  0  0
    4.0608   -1.7070    0.0000 H   0  0  0  0  0  0  0  0  0  0  0  0
    3.1900    0.1298    0.0000 H   0  0  0  0  0  0  0  0  0  0  0  0
    3.0000    1.5328    0.0000 H   0  0  0  0  0  0  0  0  0  0  0  0
    5.4300    1.8619    0.0000 H   0  0  0  0  0  0  0  0  0  0  0  0
    3.1900    1.8619    0.0000 H   0  0  0  0  0  0  0  0  0  0  0  0
   11.9511   -1.7018    0.0000 H   0  0  0  0  0  0  0  0  0  0  0  0
    5.4177    3.3385    0.0000 H   0  0  0  0  0  0  0  0  0  0  0  0
    4.7274    2.9399    0.0000 H   0  0  0  0  0  0  0  0  0  0  0  0
    2.6900   -0.7362    0.0000 H   0  0  0  0  0  0  0  0  0  0  0  0
    2.0000    1.5328    0.0000 H   0  0  0  0  0  0  0  0  0  0  0  0
    3.6200    3.2648    0.0000 H   0  0  0  0  0  0  0  0  0  0  0  0
    6.6200    3.2648    0.0000 H   0  0  0  0  0  0  0  0  0  0  0  0
 15  1  1  1  0  0  0
 27  1  1  6  0  0  0
 16  2  1  6  0  0  0
  2 59  1  0  0  0  0
  3 27  1  0  0  0  0
  3 32  1  0  0  0  0
  4 26  1  0  0  0  0
  4 70  1  0  0  0  0
 30  5  1  6  0  0  0
  5 73  1  0  0  0  0
 31  6  1  1  0  0  0
  6 74  1  0  0  0  0
 33  7  1  6  0  0  0
  7 75  1  0  0  0  0
  8 34  1  0  0  0  0
  8 76  1  0  0  0  0
  9 11  1  0  0  0  0
  9 12  1  0  0  0  0
  9 17  1  0  0  0  0
  9 35  1  1  0  0  0
 10 13  1  0  0  0  0
 10 18  1  0  0  0  0
 10 19  1  0  0  0  0
 10 23  1  6  0  0  0
 11 16  1  0  0  0  0
 11 24  1  6  0  0  0
 11 36  1  0  0  0  0
 12 14  1  0  0  0  0
 12 19  2  0  0  0  0
 13 15  1  0  0  0  0
 13 21  2  0  0  0  0
 14 20  1  0  0  0  0
 14 26  1  6  0  0  0
 14 38  1  0  0  0  0
 15 16  1  0  0  0  0
 15 37  1  0  0  0  0
 16 39  1  0  0  0  0
 17 20  1  0  0  0  0
 17 40  1  0  0  0  0
 17 41  1  0  0  0  0
 18 22  1  0  0  0  0
 18 42  1  0  0  0  0
 18 43  1  0  0  0  0
 19 44  1  0  0  0  0
 20 45  1  0  0  0  0
 20 46  1  0  0  0  0
 21 22  1  0  0  0  0
 21 25  1  0  0  0  0
 22 47  1  0  0  0  0
 22 48  1  0  0  0  0
 23 49  1  0  0  0  0
 23 50  1  0  0  0  0
 23 51  1  0  0  0  0
 24 52  1  0  0  0  0
 24 53  1  0  0  0  0
 24 54  1  0  0  0  0
 25 28  1  0  0  0  0
 25 29  1  0  0  0  0
 25 55  1  0  0  0  0
 26 56  1  0  0  0  0
 26 57  1  0  0  0  0
 27 30  1  0  0  0  0
 27 58  1  0  0  0  0
 28 60  1  0  0  0  0
 28 61  1  0  0  0  0
 28 62  1  0  0  0  0
 29 63  1  0  0  0  0
 29 64  1  0  0  0  0
 29 65  1  0  0  0  0
 30 31  1  0  0  0  0
 30 66  1  0  0  0  0
 31 33  1  0  0  0  0
 31 67  1  0  0  0  0
 32 33  1  0  0  0  0
 32 34  1  1  0  0  0
 32 68  1  0  0  0  0
 33 69  1  0  0  0  0
 34 71  1  0  0  0  0
 34 72  1  0  0  0  0
M  END
> <PUBCHEM_COMPOUND_CID>
5281364

> <PUBCHEM_COMPOUND_CANONICALIZED>
1

> <PUBCHEM_CACTVS_COMPLEXITY>
809

> <PUBCHEM_CACTVS_HBOND_ACCEPTOR>
8

> <PUBCHEM_CACTVS_HBOND_DONOR>
6

> <PUBCHEM_CACTVS_ROTATABLE_BOND>
5

> <PUBCHEM_CACTVS_SUBSKEYS>
AAADcfB4PAAAAAAAAAAAAAAAAAAAAYIAAAAkAAAAAAAQAAAAAAAAGgAACAAADxSwgAMCCAAABgCAAiBCAAAAAAAgAAAACAAAAAgRFAIAIQAiUAAFwAAPIAPA4PwPgAAAAAAAAAAAAAAAAAAAAQAAAAAAAA==

> <PUBCHEM_IUPAC_INCHI>
InChI=1S/C26H42O8/c1-12(2)15-7-8-26(4)9-17-14(10-27)5-6-16(17)13(3)20(29)24(19(15)26)34-25-23(32)22(31)21(30)18(11-28)33-25/h9,12-14,16,18,20-25,27-32H,5-8,10-11H2,1-4H3/b17-9-/t13-,14-,16+,18-,20-,21-,22+,23-,24-,25-,26-/m1/s1

> <PUBCHEM_IUPAC_INCHIKEY>
FQPATHNUIPAADA-BXJVKJQWSA-N

> <PUBCHEM_XLOGP3_AA>
0.5

> <PUBCHEM_EXACT_MASS>
482.287968

> <PUBCHEM_MOLECULAR_FORMULA>
C26H42O8

> <PUBCHEM_MOLECULAR_WEIGHT>
482.60688

> <PUBCHEM_OPENEYE_CAN_SMILES>
CC1C2CCC(C2=CC3(CCC(=C3C(C1O)OC4C(C(C(C(O4)CO)O)O)O)C(C)C)C)CO

> <PUBCHEM_OPENEYE_ISO_SMILES>
C[C@@H]1[C@@H]\2CC[C@@H](/C2=C/[C@]3(CCC(=C3[C@H]([C@@H]1O)O[C@@H]4[C@@H]([C@H]([C@@H]([C@H](O4)CO)O)O)O)C(C)C)C)CO

> <PUBCHEM_CACTVS_TPSA>
140

> <PUBCHEM_MONOISOTOPIC_WEIGHT>
482.287968

> <PUBCHEM_TOTAL_CHARGE>
0

> <PUBCHEM_HEAVY_ATOM_COUNT>
34

> <PUBCHEM_ATOM_DEF_STEREO_COUNT>
11

> <PUBCHEM_ATOM_UDEF_STEREO_COUNT>
0

> <PUBCHEM_BOND_DEF_STEREO_COUNT>
1

> <PUBCHEM_BOND_UDEF_STEREO_COUNT>
0

> <PUBCHEM_ISOTOPIC_ATOM_COUNT>
0

> <PUBCHEM_COMPONENT_COUNT>
1

> <PUBCHEM_CACTVS_TAUTO_COUNT>
1

> <PUBCHEM_COORDINATE_TYPE>
1
5
255

> <PUBCHEM_BONDANNOTATIONS>
15  1  5
27  1  6
10  23  6
11  24  6
14  26  6
16  2  6
32  34  5
30  5  6
31  6  5
33  7  6
9  35  5

$$$$

