21631049
  -OEChem-07051213103D

 28 28  0     1  0  0  0  0  0999 V2000
    1.3825    2.5496    0.9468 Br  0  0  0  0  0  0  0  0  0  0  0  0
   -2.6060    0.2932   -1.5903 Cl  0  0  0  0  0  0  0  0  0  0  0  0
   -2.5027   -2.5710    0.0396 Cl  0  0  0  0  0  0  0  0  0  0  0  0
    4.8595   -1.0359   -0.1956 Cl  0  0  0  0  0  0  0  0  0  0  0  0
    0.2961    1.1837   -0.0570 C   0  0  1  0  0  0  0  0  0  0  0  0
    0.8676   -0.2155    0.2852 C   0  0  1  0  0  0  0  0  0  0  0  0
   -2.1347    0.1958    0.1490 C   0  0  2  0  0  0  0  0  0  0  0  0
   -1.1486    1.3435    0.4826 C   0  0  0  0  0  0  0  0  0  0  0  0
   -0.0905   -1.3387   -0.1514 C   0  0  0  0  0  0  0  0  0  0  0  0
   -1.4753   -1.1657    0.4806 C   0  0  2  0  0  0  0  0  0  0  0  0
    0.4345    1.5756   -1.5355 C   0  0  0  0  0  0  0  0  0  0  0  0
   -3.4234    0.4024    0.9650 C   0  0  0  0  0  0  0  0  0  0  0  0
    2.2339   -0.4777   -0.2847 C   0  0  0  0  0  0  0  0  0  0  0  0
    3.3072   -0.7392    0.4658 C   0  0  0  0  0  0  0  0  0  0  0  0
    0.9387   -0.2852    1.3817 H   0  0  0  0  0  0  0  0  0  0  0  0
   -1.5673    2.3067    0.1587 H   0  0  0  0  0  0  0  0  0  0  0  0
   -1.0973    1.4087    1.5800 H   0  0  0  0  0  0  0  0  0  0  0  0
   -0.1666   -1.3767   -1.2456 H   0  0  0  0  0  0  0  0  0  0  0  0
    0.3279   -2.3067    0.1583 H   0  0  0  0  0  0  0  0  0  0  0  0
   -1.3574   -1.2381    1.5691 H   0  0  0  0  0  0  0  0  0  0  0  0
    1.4785    1.7494   -1.8217 H   0  0  0  0  0  0  0  0  0  0  0  0
    0.0503    0.8025   -2.2054 H   0  0  0  0  0  0  0  0  0  0  0  0
   -0.1058    2.5050   -1.7509 H   0  0  0  0  0  0  0  0  0  0  0  0
   -4.1955   -0.3330    0.7145 H   0  0  0  0  0  0  0  0  0  0  0  0
   -3.2252    0.3189    2.0397 H   0  0  0  0  0  0  0  0  0  0  0  0
   -3.8498    1.3968    0.7875 H   0  0  0  0  0  0  0  0  0  0  0  0
    2.3349   -0.4736   -1.3677 H   0  0  0  0  0  0  0  0  0  0  0  0
    3.3036   -0.7776    1.5468 H   0  0  0  0  0  0  0  0  0  0  0  0
  1  5  1  0  0  0  0
  2  7  1  0  0  0  0
  3 10  1  0  0  0  0
  4 14  1  0  0  0  0
  5  6  1  0  0  0  0
  5  8  1  0  0  0  0
  5 11  1  0  0  0  0
  6  9  1  0  0  0  0
  6 13  1  0  0  0  0
  6 15  1  0  0  0  0
  7  8  1  0  0  0  0
  7 10  1  0  0  0  0
  7 12  1  0  0  0  0
  8 16  1  0  0  0  0
  8 17  1  0  0  0  0
  9 10  1  0  0  0  0
  9 18  1  0  0  0  0
  9 19  1  0  0  0  0
 10 20  1  0  0  0  0
 11 21  1  0  0  0  0
 11 22  1  0  0  0  0
 11 23  1  0  0  0  0
 12 24  1  0  0  0  0
 12 25  1  0  0  0  0
 12 26  1  0  0  0  0
 13 14  2  0  0  0  0
 13 27  1  0  0  0  0
 14 28  1  0  0  0  0
M  END
> <PUBCHEM_COMPOUND_CID>
21631049

> <PUBCHEM_CONFORMER_RMSD>
0.6

> <PUBCHEM_CONFORMER_DIVERSEORDER>
1
2
3

> <PUBCHEM_MMFF94_PARTIAL_CHARGES>
12
1 -0.23
10 0.29
13 -0.29
14 -0.01
2 -0.29
27 0.15
28 0.15
3 -0.29
4 -0.14
5 0.23
6 0.14
7 0.29

> <PUBCHEM_EFFECTIVE_ROTOR_COUNT>
2.2

> <PUBCHEM_PHARMACOPHORE_FEATURES>
3
1 1 hydrophobe
3 1 5 11 hydrophobe
6 5 6 7 8 9 10 rings

> <PUBCHEM_HEAVY_ATOM_COUNT>
14

> <PUBCHEM_ATOM_DEF_STEREO_COUNT>
4

> <PUBCHEM_ATOM_UDEF_STEREO_COUNT>
0

> <PUBCHEM_BOND_DEF_STEREO_COUNT>
1

> <PUBCHEM_BOND_UDEF_STEREO_COUNT>
0

> <PUBCHEM_ISOTOPIC_ATOM_COUNT>
0

> <PUBCHEM_COMPONENT_COUNT>
1

> <PUBCHEM_CACTVS_TAUTO_COUNT>
1

> <PUBCHEM_CONFORMER_ID>
014A104900000001

> <PUBCHEM_MMFF94_ENERGY>
36.7363

> <PUBCHEM_FEATURE_SELFOVERLAP>
16.127

> <PUBCHEM_SHAPE_FINGERPRINT>
11132069 177 18411426124417937834
11680986 33 18265061231923875920
12932764 1 17918002662927865034
13024252 1 14692277491204639045
13027679 85 18409448106804263424
13140716 1 18336818689695051283
14115302 16 18342165666174953781
14911166 2 18339934795752693743
14993402 34 18341337776621017439
15375462 189 18201718474833437450
16945 1 18337962276060823737
17804303 29 18409160008934923034
18175812 5 18113901559244103110
20510252 161 18118400893900396816
20511035 2 18266729182626108751
20600515 1 18336816585377496732
21029758 11 18261682561614890952
21029758 27 18130492115564550788
21061003 4 18261116313363839768
21069387 34 17822585927483850645
21339142 51 18411422825540292918
21501502 16 18265326205815427409
22344851 262 17240766224231437149
2297311 6 18189884479019161470
232386 152 18335691737336520076
2334 1 18122343480340709139
23402539 116 18115033024927284606
23419403 2 16313950378177901707
23493267 7 16773241823954087881
23552423 10 18056472846811648755
23557571 272 18042393815931181292
23559900 14 18410017671972515794
2748010 2 18268156348703157199
3286 77 18336823087947160363
4175511 318 17703512202498349630
43471831 8 17688595961758215688
5084963 1 18129945555480468683
5493415 88 18336549326494336626
5902787 121 18410577262744449682
7364860 26 18118401739919263616
75552 356 18410290345727663602
81228 2 17898554630574579352

> <PUBCHEM_SHAPE_MULTIPOLES>
299.67
6.08
2.47
1.19
5.32
0.29
-0.43
-3.08
0.23
-0.03
0.39
-0.52
0.49
0.27

> <PUBCHEM_SHAPE_SELFOVERLAP>
552.292

> <PUBCHEM_SHAPE_VOLUME>
192.6

> <PUBCHEM_COORDINATE_TYPE>
2
5
10

$$$$

