53297385
  -OEChem-07051213123D

 36 37  0     1  0  0  0  0  0999 V2000
    2.9937   -3.2105   -0.2506 Cl  0  0  0  0  0  0  0  0  0  0  0  0
    5.9839    1.3472   -0.1539 Cl  0  0  0  0  0  0  0  0  0  0  0  0
    0.9688    1.3589    0.6614 O   0  0  0  0  0  0  0  0  0  0  0  0
   -1.3362    0.4033    1.5429 O   0  0  0  0  0  0  0  0  0  0  0  0
   -2.3552    0.5614   -0.5663 N   0  0  0  0  0  0  0  0  0  0  0  0
   -0.0779    1.3093   -0.2949 C   0  0  1  0  0  0  0  0  0  0  0  0
    2.0955    0.6260    0.3867 C   0  0  0  0  0  0  0  0  0  0  0  0
   -1.3226    0.7091    0.3539 C   0  0  0  0  0  0  0  0  0  0  0  0
   -0.3420    2.7107   -0.8250 C   0  0  0  0  0  0  0  0  0  0  0  0
    4.3854   -0.8645   -0.1762 C   0  0  0  0  0  0  0  0  0  0  0  0
    2.0055   -0.7565    0.2253 C   0  0  0  0  0  0  0  0  0  0  0  0
    3.3305    1.2633    0.2664 C   0  0  0  0  0  0  0  0  0  0  0  0
   -3.6512    0.0428   -0.3334 C   0  0  0  0  0  0  0  0  0  0  0  0
    3.1505   -1.5018   -0.0560 C   0  0  0  0  0  0  0  0  0  0  0  0
    4.4754    0.5181   -0.0150 C   0  0  0  0  0  0  0  0  0  0  0  0
    5.6157   -1.6648   -0.4780 C   0  0  0  0  0  0  0  0  0  0  0  0
   -4.5679   -0.0407   -1.3813 C   0  0  0  0  0  0  0  0  0  0  0  0
   -4.0118   -0.3846    0.9444 C   0  0  0  0  0  0  0  0  0  0  0  0
   -5.8453   -0.5517   -1.1513 C   0  0  0  0  0  0  0  0  0  0  0  0
   -5.2891   -0.8956    1.1744 C   0  0  0  0  0  0  0  0  0  0  0  0
   -6.2059   -0.9793    0.1265 C   0  0  0  0  0  0  0  0  0  0  0  0
    0.1898    0.6726   -1.1500 H   0  0  0  0  0  0  0  0  0  0  0  0
   -0.6955    3.3673   -0.0218 H   0  0  0  0  0  0  0  0  0  0  0  0
   -1.0881    2.7236   -1.6245 H   0  0  0  0  0  0  0  0  0  0  0  0
    0.5825    3.1533   -1.2116 H   0  0  0  0  0  0  0  0  0  0  0  0
    1.0436   -1.2534    0.3282 H   0  0  0  0  0  0  0  0  0  0  0  0
    3.3889    2.3419    0.3934 H   0  0  0  0  0  0  0  0  0  0  0  0
   -2.1738    0.8358   -1.5289 H   0  0  0  0  0  0  0  0  0  0  0  0
    5.7627   -1.7301   -1.5610 H   0  0  0  0  0  0  0  0  0  0  0  0
    6.5168   -1.2383   -0.0271 H   0  0  0  0  0  0  0  0  0  0  0  0
    5.5716   -2.6786   -0.0692 H   0  0  0  0  0  0  0  0  0  0  0  0
   -4.3000    0.2890   -2.3818 H   0  0  0  0  0  0  0  0  0  0  0  0
   -3.3598   -0.3498    1.8057 H   0  0  0  0  0  0  0  0  0  0  0  0
   -6.5593   -0.6168   -1.9672 H   0  0  0  0  0  0  0  0  0  0  0  0
   -5.5714   -1.2284    2.1691 H   0  0  0  0  0  0  0  0  0  0  0  0
   -7.2005   -1.3771    0.3055 H   0  0  0  0  0  0  0  0  0  0  0  0
  1 14  1  0  0  0  0
  2 15  1  0  0  0  0
  3  6  1  0  0  0  0
  3  7  1  0  0  0  0
  4  8  2  0  0  0  0
  5  8  1  0  0  0  0
  5 13  1  0  0  0  0
  5 28  1  0  0  0  0
  6  8  1  0  0  0  0
  6  9  1  0  0  0  0
  6 22  1  0  0  0  0
  7 11  2  0  0  0  0
  7 12  1  0  0  0  0
  9 23  1  0  0  0  0
  9 24  1  0  0  0  0
  9 25  1  0  0  0  0
 10 14  2  0  0  0  0
 10 15  1  0  0  0  0
 10 16  1  0  0  0  0
 11 14  1  0  0  0  0
 11 26  1  0  0  0  0
 12 15  2  0  0  0  0
 12 27  1  0  0  0  0
 13 17  2  0  0  0  0
 13 18  1  0  0  0  0
 16 29  1  0  0  0  0
 16 30  1  0  0  0  0
 16 31  1  0  0  0  0
 17 19  1  0  0  0  0
 17 32  1  0  0  0  0
 18 20  2  0  0  0  0
 18 33  1  0  0  0  0
 19 21  2  0  0  0  0
 19 34  1  0  0  0  0
 20 21  1  0  0  0  0
 20 35  1  0  0  0  0
 21 36  1  0  0  0  0
M  END
> <PUBCHEM_COMPOUND_CID>
53297385

> <PUBCHEM_CONFORMER_RMSD>
0.8

> <PUBCHEM_CONFORMER_DIVERSEORDER>
1
13
12
23
50
29
34
52
37
54
3
25
41
8
53
49
35
39
9
28
51
27
26
22
19
5
24
38
21
14
4
32
10
18
16
31
17
2
45
47
44
46
40
6
36
15
43
30
48
20
42
33
7
11

> <PUBCHEM_MMFF94_PARTIAL_CHARGES>
28
1 -0.18
10 -0.14
11 -0.15
12 -0.15
13 0.12
14 0.18
15 0.18
16 0.14
17 -0.15
18 -0.15
19 -0.15
2 -0.18
20 -0.15
21 -0.15
26 0.15
27 0.15
28 0.37
3 -0.36
32 0.15
33 0.15
34 0.15
35 0.15
36 0.15
4 -0.57
5 -0.55
6 0.34
7 0.08
8 0.57

> <PUBCHEM_EFFECTIVE_ROTOR_COUNT>
5

> <PUBCHEM_PHARMACOPHORE_FEATURES>
5
1 3 acceptor
1 4 acceptor
1 5 donor
6 13 17 18 19 20 21 rings
6 7 10 11 12 14 15 rings

> <PUBCHEM_HEAVY_ATOM_COUNT>
21

> <PUBCHEM_ATOM_DEF_STEREO_COUNT>
0

> <PUBCHEM_ATOM_UDEF_STEREO_COUNT>
1

> <PUBCHEM_BOND_DEF_STEREO_COUNT>
0

> <PUBCHEM_BOND_UDEF_STEREO_COUNT>
0

> <PUBCHEM_ISOTOPIC_ATOM_COUNT>
0

> <PUBCHEM_COMPONENT_COUNT>
1

> <PUBCHEM_CACTVS_TAUTO_COUNT>
3

> <PUBCHEM_CONFORMER_ID>
032D40E900000001

> <PUBCHEM_MMFF94_ENERGY>
67.4313

> <PUBCHEM_FEATURE_SELFOVERLAP>
25.381

> <PUBCHEM_SHAPE_FINGERPRINT>
10319926 262 13767929009663473935
10447042 23 18412548721368439574
10835480 77 18343591749968320837
12107183 9 17537987457371699265
12236239 1 17749104487410320241
12516196 113 18335703819100992889
12596602 18 16660366956663264115
12633257 1 16370731413483483189
12730499 353 18410572852055512720
13103583 49 17167577181515967699
13402501 40 18343862203926996443
13533116 47 18113054939554008634
13544653 18 18408603669242391537
13685833 64 18413103944971029667
13955234 65 18189059698610409632
14386348 63 18202561770144881219
14617045 38 18408600340368476254
14840074 17 18114181921544573591
15183329 4 18338807814189520573
15188451 53 15141260801697812645
15295992 7 8574418851076799012
15348495 7 6627457540917705943
15537594 2 18113622261451880230
17492 89 18121220042009854942
17844677 252 18408038520313434293
17870717 6 17561365080866143523
1813 80 18260535732569922077
200 152 18260548926582523289
20028762 73 18113902706233305302
20567600 247 18262525793177253879
20645477 70 18413110580125939146
20871999 31 17632578296612171893
21033650 10 16199306675555519733
21267235 1 18261105318811980006
21285901 2 18060144266307732916
21521721 280 18189052006756369088
21623969 137 18411976944956843491
2215653 11 18271817813372364799
22224240 67 18188780440379817656
23522609 53 17824514470684746144
23557571 272 17632304496568043733
23559900 14 18269559351648035849
239999 70 18059858346467073496
2767999 5 12175622862723915183
2838139 119 11455895754206800943
2871803 45 18343585174515184938
3004659 81 18131353033422261546
314194 84 18334014973593458583
33824 294 18410857672717113210
345986 75 17676773179317410987
34797466 226 17203601563044814119
351380 180 9439402423712752183
351380 3 17748830717504893783
4325135 7 18334576824589198820
46194498 28 17632014148346947389
465052 167 18113898247360029766
5104073 3 18263368143490262080
5283173 99 17703516596276475157
5718773 13 18198347449999106706
8509985 295 8935001456386856694

> <PUBCHEM_SHAPE_MULTIPOLES>
419.19
15.73
2.34
1.07
8.58
0.68
0.03
5.35
-1.71
-3.06
-0.4
1.38
-0.02
0.69

> <PUBCHEM_SHAPE_SELFOVERLAP>
869.513

> <PUBCHEM_SHAPE_VOLUME>
240.6

> <PUBCHEM_COORDINATE_TYPE>
2
5
10

$$$$

