3037919
  -OEChem-07051213132D

 21 20  0     0  0  0  0  0  0999 V2000
    3.4030    1.0600    0.0000 S   0  0  0  0  0  0  0  0  0  0  0  0
    8.5991    1.0600    0.0000 S   0  0  0  0  0  0  0  0  0  0  0  0
    5.1350    0.0600    0.0000 N   0  0  0  0  0  0  0  0  0  0  0  0
    6.8671    0.0600    0.0000 N   0  0  0  0  0  0  0  0  0  0  0  0
    4.2690   -0.4400    0.0000 N   0  0  0  0  0  0  0  0  0  0  0  0
    7.7331   -0.4400    0.0000 N   0  0  0  0  0  0  0  0  0  0  0  0
    2.5369   -0.4400    0.0000 N   0  0  0  0  0  0  0  0  0  0  0  0
    9.4651   -0.4400    0.0000 N   0  0  0  0  0  0  0  0  0  0  0  0
    6.0010   -0.4400    0.0000 C   0  0  0  0  0  0  0  0  0  0  0  0
    3.4030    0.0600    0.0000 C   0  0  0  0  0  0  0  0  0  0  0  0
    8.5991    0.0600    0.0000 C   0  0  0  0  0  0  0  0  0  0  0  0
    5.6025   -0.9149    0.0000 H   0  0  0  0  0  0  0  0  0  0  0  0
    6.3996   -0.9149    0.0000 H   0  0  0  0  0  0  0  0  0  0  0  0
    5.1350    0.6800    0.0000 H   0  0  0  0  0  0  0  0  0  0  0  0
    6.8671    0.6800    0.0000 H   0  0  0  0  0  0  0  0  0  0  0  0
    4.2690   -1.0600    0.0000 H   0  0  0  0  0  0  0  0  0  0  0  0
    7.7331   -1.0600    0.0000 H   0  0  0  0  0  0  0  0  0  0  0  0
    2.0000   -0.1300    0.0000 H   0  0  0  0  0  0  0  0  0  0  0  0
    2.5369   -1.0600    0.0000 H   0  0  0  0  0  0  0  0  0  0  0  0
   10.0021   -0.1300    0.0000 H   0  0  0  0  0  0  0  0  0  0  0  0
    9.4651   -1.0600    0.0000 H   0  0  0  0  0  0  0  0  0  0  0  0
  1 10  2  0  0  0  0
  2 11  2  0  0  0  0
  3  5  1  0  0  0  0
  3  9  1  0  0  0  0
  3 14  1  0  0  0  0
  4  6  1  0  0  0  0
  4  9  1  0  0  0  0
  4 15  1  0  0  0  0
  5 10  1  0  0  0  0
  5 16  1  0  0  0  0
  6 11  1  0  0  0  0
  6 17  1  0  0  0  0
  7 10  1  0  0  0  0
  7 18  1  0  0  0  0
  7 19  1  0  0  0  0
  8 11  1  0  0  0  0
  8 20  1  0  0  0  0
  8 21  1  0  0  0  0
  9 12  1  0  0  0  0
  9 13  1  0  0  0  0
M  END
> <PUBCHEM_COMPOUND_CID>
3037919

> <PUBCHEM_COMPOUND_CANONICALIZED>
1

> <PUBCHEM_CACTVS_COMPLEXITY>
131

> <PUBCHEM_CACTVS_HBOND_ACCEPTOR>
4

> <PUBCHEM_CACTVS_HBOND_DONOR>
6

> <PUBCHEM_CACTVS_ROTATABLE_BOND>
4

> <PUBCHEM_CACTVS_SUBSKEYS>
AAADccBDgABgAAAAAAAAAAAAAAAAAAAAAAAAAAAAAAAAAAAAAAAAFAQYAAAAAAAAAAQBAABiAAAEAAAAAAAAAAAAAAMEIIAAAAAAAAAAAAAAAAAQAAAAAAAAAAAAAAAAAAAAAAAAAAAAAAAAAAAAAAAAAA==

> <PUBCHEM_IUPAC_OPENEYE_NAME>
[(2-carbamothioylhydrazino)methylamino]thiourea

> <PUBCHEM_IUPAC_CAS_NAME>
[(carbamothioylhydrazo)methylamino]thiourea

> <PUBCHEM_IUPAC_NAME>
[(2-carbamothioylhydrazinyl)methylamino]thiourea

> <PUBCHEM_IUPAC_SYSTEMATIC_NAME>
1-[(2-carbamothioylhydrazinyl)methylamino]thiourea

> <PUBCHEM_IUPAC_TRADITIONAL_NAME>
[(N'-thiocarbamoylhydrazino)methylamino]thiourea

> <PUBCHEM_IUPAC_INCHI>
InChI=1S/C3H10N6S2/c4-2(10)8-6-1-7-9-3(5)11/h6-7H,1H2,(H3,4,8,10)(H3,5,9,11)

> <PUBCHEM_IUPAC_INCHIKEY>
JKSKMVKDSOOOFA-UHFFFAOYSA-N

> <PUBCHEM_XLOGP3_AA>
-1.5

> <PUBCHEM_EXACT_MASS>
194.040836

> <PUBCHEM_MOLECULAR_FORMULA>
C3H10N6S2

> <PUBCHEM_MOLECULAR_WEIGHT>
194.2817

> <PUBCHEM_OPENEYE_CAN_SMILES>
C(NNC(=S)N)NNC(=S)N

> <PUBCHEM_OPENEYE_ISO_SMILES>
C(NNC(=S)N)NNC(=S)N

> <PUBCHEM_CACTVS_TPSA>
164

> <PUBCHEM_MONOISOTOPIC_WEIGHT>
194.040836

> <PUBCHEM_TOTAL_CHARGE>
0

> <PUBCHEM_HEAVY_ATOM_COUNT>
11

> <PUBCHEM_ATOM_DEF_STEREO_COUNT>
0

> <PUBCHEM_ATOM_UDEF_STEREO_COUNT>
0

> <PUBCHEM_BOND_DEF_STEREO_COUNT>
0

> <PUBCHEM_BOND_UDEF_STEREO_COUNT>
0

> <PUBCHEM_ISOTOPIC_ATOM_COUNT>
0

> <PUBCHEM_COMPONENT_COUNT>
1

> <PUBCHEM_CACTVS_TAUTO_COUNT>
6

> <PUBCHEM_COORDINATE_TYPE>
1
5
255

$$$$

