321919
  -OEChem-07051213033D

 36 39  0     0  0  0  0  0  0999 V2000
    0.4625    3.0793    0.2700 O   0  0  0  0  0  0  0  0  0  0  0  0
   -3.6948   -1.6956   -0.1328 O   0  0  0  0  0  0  0  0  0  0  0  0
   -4.1198    1.0354    0.1070 O   0  0  0  0  0  0  0  0  0  0  0  0
    1.9420    1.3221    0.1084 N   0  0  0  0  0  0  0  0  0  0  0  0
    2.1714   -0.0416   -0.0125 C   0  0  0  0  0  0  0  0  0  0  0  0
    3.2313    2.0221    0.1660 C   0  0  0  0  0  0  0  0  0  0  0  0
    4.3296    0.9394    0.0640 C   0  0  0  0  0  0  0  0  0  0  0  0
    3.5305   -0.3214   -0.0425 C   0  0  0  0  0  0  0  0  0  0  0  0
    1.1616   -0.9849   -0.0911 C   0  0  0  0  0  0  0  0  0  0  0  0
   -0.2238   -0.4937   -0.0425 C   0  0  0  0  0  0  0  0  0  0  0  0
    0.6795    1.8759    0.1621 C   0  0  0  0  0  0  0  0  0  0  0  0
   -0.4623    0.9012    0.0806 C   0  0  0  0  0  0  0  0  0  0  0  0
    3.9491   -1.6295   -0.1594 C   0  0  0  0  0  0  0  0  0  0  0  0
    1.5930   -2.3109   -0.2093 C   0  0  0  0  0  0  0  0  0  0  0  0
    2.9697   -2.6270   -0.2429 C   0  0  0  0  0  0  0  0  0  0  0  0
   -1.3389   -1.3445   -0.1127 C   0  0  0  0  0  0  0  0  0  0  0  0
   -1.7694    1.4049    0.1291 C   0  0  0  0  0  0  0  0  0  0  0  0
   -2.6397   -0.8352   -0.0634 C   0  0  0  0  0  0  0  0  0  0  0  0
   -2.8539    0.5343    0.0568 C   0  0  0  0  0  0  0  0  0  0  0  0
   -4.1892   -2.2141    1.0999 C   0  0  0  0  0  0  0  0  0  0  0  0
   -4.7285    1.3838   -1.1349 C   0  0  0  0  0  0  0  0  0  0  0  0
    3.2891    2.5809    1.1065 H   0  0  0  0  0  0  0  0  0  0  0  0
    3.2819    2.7403   -0.6598 H   0  0  0  0  0  0  0  0  0  0  0  0
    4.9601    0.9363    0.9583 H   0  0  0  0  0  0  0  0  0  0  0  0
    4.9491    1.0933   -0.8247 H   0  0  0  0  0  0  0  0  0  0  0  0
    5.0023   -1.8856   -0.1864 H   0  0  0  0  0  0  0  0  0  0  0  0
    0.8846   -3.1317   -0.2784 H   0  0  0  0  0  0  0  0  0  0  0  0
    3.2729   -3.6672   -0.3356 H   0  0  0  0  0  0  0  0  0  0  0  0
   -1.2144   -2.4204   -0.2080 H   0  0  0  0  0  0  0  0  0  0  0  0
   -1.9548    2.4718    0.2243 H   0  0  0  0  0  0  0  0  0  0  0  0
   -3.4132   -2.7923    1.6117 H   0  0  0  0  0  0  0  0  0  0  0  0
   -5.0308   -2.8765    0.8801 H   0  0  0  0  0  0  0  0  0  0  0  0
   -4.5414   -1.4036    1.7459 H   0  0  0  0  0  0  0  0  0  0  0  0
   -4.1551    2.1704   -1.6356 H   0  0  0  0  0  0  0  0  0  0  0  0
   -5.7342    1.7607   -0.9295 H   0  0  0  0  0  0  0  0  0  0  0  0
   -4.8095    0.5063   -1.7841 H   0  0  0  0  0  0  0  0  0  0  0  0
  1 11  2  0  0  0  0
  2 18  1  0  0  0  0
  2 20  1  0  0  0  0
  3 19  1  0  0  0  0
  3 21  1  0  0  0  0
  4  5  1  0  0  0  0
  4  6  1  0  0  0  0
  4 11  1  0  0  0  0
  5  8  2  0  0  0  0
  5  9  1  0  0  0  0
  6  7  1  0  0  0  0
  6 22  1  0  0  0  0
  6 23  1  0  0  0  0
  7  8  1  0  0  0  0
  7 24  1  0  0  0  0
  7 25  1  0  0  0  0
  8 13  1  0  0  0  0
  9 10  1  0  0  0  0
  9 14  2  0  0  0  0
 10 12  1  0  0  0  0
 10 16  2  0  0  0  0
 11 12  1  0  0  0  0
 12 17  2  0  0  0  0
 13 15  2  0  0  0  0
 13 26  1  0  0  0  0
 14 15  1  0  0  0  0
 14 27  1  0  0  0  0
 15 28  1  0  0  0  0
 16 18  1  0  0  0  0
 16 29  1  0  0  0  0
 17 19  1  0  0  0  0
 17 30  1  0  0  0  0
 18 19  2  0  0  0  0
 20 31  1  0  0  0  0
 20 32  1  0  0  0  0
 20 33  1  0  0  0  0
 21 34  1  0  0  0  0
 21 35  1  0  0  0  0
 21 36  1  0  0  0  0
M  END
> <PUBCHEM_COMPOUND_CID>
321919

> <PUBCHEM_CONFORMER_RMSD>
0.6

> <PUBCHEM_CONFORMER_DIVERSEORDER>
2
1

> <PUBCHEM_MMFF94_PARTIAL_CHARGES>
24
1 -0.57
11 0.54
12 0.09
13 -0.15
14 -0.15
15 -0.15
16 -0.15
17 -0.15
18 0.08
19 0.08
2 -0.36
20 0.28
21 0.28
26 0.15
27 0.15
28 0.15
29 0.15
3 -0.36
30 0.15
4 -0.48
5 0.12
6 0.3
7 0.14
8 -0.14

> <PUBCHEM_EFFECTIVE_ROTOR_COUNT>
2.4

> <PUBCHEM_PHARMACOPHORE_FEATURES>
7
1 1 acceptor
1 2 acceptor
1 3 acceptor
5 4 5 6 7 8 rings
6 10 12 16 17 18 19 rings
6 4 5 9 10 11 12 rings
6 5 8 9 13 14 15 rings

> <PUBCHEM_HEAVY_ATOM_COUNT>
21

> <PUBCHEM_ATOM_DEF_STEREO_COUNT>
0

> <PUBCHEM_ATOM_UDEF_STEREO_COUNT>
0

> <PUBCHEM_BOND_DEF_STEREO_COUNT>
0

> <PUBCHEM_BOND_UDEF_STEREO_COUNT>
0

> <PUBCHEM_ISOTOPIC_ATOM_COUNT>
0

> <PUBCHEM_COMPONENT_COUNT>
1

> <PUBCHEM_CACTVS_TAUTO_COUNT>
1

> <PUBCHEM_CONFORMER_ID>
0004E97F00000002

> <PUBCHEM_MMFF94_ENERGY>
89.5499

> <PUBCHEM_FEATURE_SELFOVERLAP>
35.753

> <PUBCHEM_SHAPE_FINGERPRINT>
10608611 8 18411703187898713437
10616163 171 18408882901934865982
10967382 1 18337108947974814278
1100329 8 16538486449232842995
11471102 20 18337396032031107628
11578080 2 17273430580421003262
11680986 33 18409731772446046257
116883 192 18119246409694011060
12236239 1 17604154826265920525
12553582 1 18120927567088804938
13140716 1 18337387261528658258
138480 1 18409448094373087544
14223421 5 18411981360045579918
14790565 3 18122899829325964316
14866123 147 17398666195479510883
15042514 8 17401771221281899442
15196674 1 18410011026634501478
15442244 35 18191865845494088112
15536298 74 18333732433601885134
16945 1 18192436264232152230
17492 89 18410291415022370963
18186145 218 17846785130159910231
19591789 44 16970257445557085018
200 152 17895203207526907981
20645477 70 18259988205537722303
20681677 76 18411983546611500319
21267235 1 18336537334856365014
21421861 104 17914620694400287554
21521239 73 18116176466493349845
221357 26 18194981836237324893
221490 88 18411974750170390042
2334 1 18409167680163166958
23463225 33 18409448102841241620
23557571 272 17632024069948000877
23559900 14 18337957891231705682
2748010 2 18409450263299488316
335352 9 18265897036859783396
34934 24 18409175427936015878
350125 39 18339355250541623081
3545911 37 18411417319513428301
5104073 3 18410856563940162491
7364860 26 18334858355220967070
8809292 202 18342734156494047891
9709674 26 18341046337515794099

> <PUBCHEM_SHAPE_MULTIPOLES>
409.58
8.64
3.01
0.74
4.19
0.06
-0.01
1.04
-0.42
-0.62
0.19
0.51
0.06
1.1

> <PUBCHEM_SHAPE_SELFOVERLAP>
920.421

> <PUBCHEM_SHAPE_VOLUME>
219.2

> <PUBCHEM_COORDINATE_TYPE>
2
5
10

$$$$

