43233
  -OEChem-07051213122D

 30 32  0     0  0  0  0  0  0999 V2000
    3.4403    0.1193    0.0000 Cl  0  0  0  0  0  0  0  0  0  0  0  0
    5.1724   -2.8807    0.0000 Cl  0  0  0  0  0  0  0  0  0  0  0  0
    4.8633    2.0704    0.0000 O   0  0  0  0  0  0  0  0  0  0  0  0
    6.1724    1.1193    0.0000 O   0  0  0  0  0  0  0  0  0  0  0  0
    3.4782    1.4794    0.0000 N   0  0  0  0  0  0  0  0  0  0  0  0
    3.5827    2.4740    0.0000 N   0  0  0  0  0  0  0  0  0  0  0  0
    2.0000    2.1375    0.0000 N   0  0  0  0  0  0  0  0  0  0  0  0
    5.1724    1.1193    0.0000 C   0  0  0  0  0  0  0  0  0  0  0  0
    4.2213    0.8103    0.0000 C   0  0  0  0  0  0  0  0  0  0  0  0
    5.1724    0.1193    0.0000 C   0  0  0  0  0  0  0  0  0  0  0  0
    5.6724    2.6582    0.0000 C   0  0  0  0  0  0  0  0  0  0  0  0
    6.4814    2.0704    0.0000 C   0  0  0  0  0  0  0  0  0  0  0  0
    4.3063   -0.3807    0.0000 C   0  0  0  0  0  0  0  0  0  0  0  0
    6.0384   -0.3807    0.0000 C   0  0  0  0  0  0  0  0  0  0  0  0
    4.3063   -1.3807    0.0000 C   0  0  0  0  0  0  0  0  0  0  0  0
    6.0384   -1.3807    0.0000 C   0  0  0  0  0  0  0  0  0  0  0  0
    2.5000    1.2715    0.0000 C   0  0  0  0  0  0  0  0  0  0  0  0
    5.1724   -1.8807    0.0000 C   0  0  0  0  0  0  0  0  0  0  0  0
    2.6691    2.8807    0.0000 C   0  0  0  0  0  0  0  0  0  0  0  0
    3.7327    0.4286    0.0000 H   0  0  0  0  0  0  0  0  0  0  0  0
    4.5124    0.2629    0.0000 H   0  0  0  0  0  0  0  0  0  0  0  0
    6.0872    3.1189    0.0000 H   0  0  0  0  0  0  0  0  0  0  0  0
    5.2575    3.1189    0.0000 H   0  0  0  0  0  0  0  0  0  0  0  0
    7.0478    1.8182    0.0000 H   0  0  0  0  0  0  0  0  0  0  0  0
    6.7914    2.6073    0.0000 H   0  0  0  0  0  0  0  0  0  0  0  0
    6.5753   -0.0707    0.0000 H   0  0  0  0  0  0  0  0  0  0  0  0
    3.7694   -1.6907    0.0000 H   0  0  0  0  0  0  0  0  0  0  0  0
    6.5753   -1.6907    0.0000 H   0  0  0  0  0  0  0  0  0  0  0  0
    2.2478    0.7051    0.0000 H   0  0  0  0  0  0  0  0  0  0  0  0
    2.5402    3.4871    0.0000 H   0  0  0  0  0  0  0  0  0  0  0  0
  1 13  1  0  0  0  0
  2 18  1  0  0  0  0
  3  8  1  0  0  0  0
  3 11  1  0  0  0  0
  4  8  1  0  0  0  0
  4 12  1  0  0  0  0
  5  6  1  0  0  0  0
  5  9  1  0  0  0  0
  5 17  1  0  0  0  0
  6 19  2  0  0  0  0
  7 17  2  0  0  0  0
  7 19  1  0  0  0  0
  8  9  1  0  0  0  0
  8 10  1  0  0  0  0
  9 20  1  0  0  0  0
  9 21  1  0  0  0  0
 10 13  2  0  0  0  0
 10 14  1  0  0  0  0
 11 12  1  0  0  0  0
 11 22  1  0  0  0  0
 11 23  1  0  0  0  0
 12 24  1  0  0  0  0
 12 25  1  0  0  0  0
 13 15  1  0  0  0  0
 14 16  2  0  0  0  0
 14 26  1  0  0  0  0
 15 18  2  0  0  0  0
 15 27  1  0  0  0  0
 16 18  1  0  0  0  0
 16 28  1  0  0  0  0
 17 29  1  0  0  0  0
 19 30  1  0  0  0  0
M  END
> <PUBCHEM_COMPOUND_CID>
43233

> <PUBCHEM_COMPOUND_CANONICALIZED>
1

> <PUBCHEM_CACTVS_COMPLEXITY>
315

> <PUBCHEM_CACTVS_HBOND_ACCEPTOR>
4

> <PUBCHEM_CACTVS_HBOND_DONOR>
0

> <PUBCHEM_CACTVS_ROTATABLE_BOND>
3

> <PUBCHEM_CACTVS_SUBSKEYS>
AAADccBzMAAGAAAAAAAAAAAAAAAAAWJAAAAwAAAAAAAAAAABwAAAHgIIAAAADAbhmCY1GIYIFACiAiBDJAASAAswhYAdyAAICoibLiKBuxmnMAAswAMeqAeQwKAOBAAAAACBAAAIAAAAAQIAAAAAAAAAAA==

> <PUBCHEM_IUPAC_OPENEYE_NAME>
1-[[2-(2,4-dichlorophenyl)-1,3-dioxolan-2-yl]methyl]-1,2,4-triazole

> <PUBCHEM_IUPAC_CAS_NAME>
1-[[2-(2,4-dichlorophenyl)-1,3-dioxolan-2-yl]methyl]-1,2,4-triazole

> <PUBCHEM_IUPAC_NAME>
1-[[2-(2,4-dichlorophenyl)-1,3-dioxolan-2-yl]methyl]-1,2,4-triazole

> <PUBCHEM_IUPAC_SYSTEMATIC_NAME>
1-[[2-(2,4-dichlorophenyl)-1,3-dioxolan-2-yl]methyl]-1,2,4-triazole

> <PUBCHEM_IUPAC_TRADITIONAL_NAME>
1-[[2-(2,4-dichlorophenyl)-1,3-dioxolan-2-yl]methyl]-1,2,4-triazole

> <PUBCHEM_IUPAC_INCHI>
InChI=1S/C12H11Cl2N3O2/c13-9-1-2-10(11(14)5-9)12(18-3-4-19-12)6-17-8-15-7-16-17/h1-2,5,7-8H,3-4,6H2

> <PUBCHEM_IUPAC_INCHIKEY>
AKNQMEBLVAMSNZ-UHFFFAOYSA-N

> <PUBCHEM_XLOGP3>
2.3

> <PUBCHEM_EXACT_MASS>
299.022832

> <PUBCHEM_MOLECULAR_FORMULA>
C12H11Cl2N3O2

> <PUBCHEM_MOLECULAR_WEIGHT>
300.14064

> <PUBCHEM_OPENEYE_CAN_SMILES>
C1COC(O1)(CN2C=NC=N2)C3=C(C=C(C=C3)Cl)Cl

> <PUBCHEM_OPENEYE_ISO_SMILES>
C1COC(O1)(CN2C=NC=N2)C3=C(C=C(C=C3)Cl)Cl

> <PUBCHEM_CACTVS_TPSA>
49.2

> <PUBCHEM_MONOISOTOPIC_WEIGHT>
299.022832

> <PUBCHEM_TOTAL_CHARGE>
0

> <PUBCHEM_HEAVY_ATOM_COUNT>
19

> <PUBCHEM_ATOM_DEF_STEREO_COUNT>
0

> <PUBCHEM_ATOM_UDEF_STEREO_COUNT>
0

> <PUBCHEM_BOND_DEF_STEREO_COUNT>
0

> <PUBCHEM_BOND_UDEF_STEREO_COUNT>
0

> <PUBCHEM_ISOTOPIC_ATOM_COUNT>
0

> <PUBCHEM_COMPONENT_COUNT>
1

> <PUBCHEM_CACTVS_TAUTO_COUNT>
1

> <PUBCHEM_COORDINATE_TYPE>
1
5
255

> <PUBCHEM_BONDANNOTATIONS>
10  13  8
10  14  8
13  15  8
14  16  8
15  18  8
16  18  8
5  17  8
5  6  8
6  19  8
7  17  8
7  19  8

$$$$

