582793
  -OEChem-06241222443D

 35 38  0     1  0  0  0  0  0999 V2000
   -3.8012    1.9425    1.0189 S   0  0  0  0  0  0  0  0  0  0  0  0
   -1.8625   -2.7719   -0.4312 O   0  0  0  0  0  0  0  0  0  0  0  0
   -4.2039   -1.6028   -0.1489 O   0  0  0  0  0  0  0  0  0  0  0  0
   -0.0572    0.8119    0.0351 N   0  0  3  0  0  0  0  0  0  0  0  0
    0.6982   -0.3956    0.4290 C   0  0  1  0  0  0  0  0  0  0  0  0
    0.6997    2.0581   -0.1358 C   0  0  0  0  0  0  0  0  0  0  0  0
    0.1786   -1.5529   -0.4198 C   0  0  0  0  0  0  0  0  0  0  0  0
    2.2064   -0.2843    0.3010 C   0  0  0  0  0  0  0  0  0  0  0  0
   -1.4713    0.7522    0.0432 C   0  0  0  0  0  0  0  0  0  0  0  0
    1.9235    1.8246   -1.0146 C   0  0  0  0  0  0  0  0  0  0  0  0
    2.7996    0.7738   -0.4026 C   0  0  0  0  0  0  0  0  0  0  0  0
   -2.1380   -0.4222   -0.0973 C   0  0  0  0  0  0  0  0  0  0  0  0
   -1.3226   -1.6735   -0.3017 C   0  0  0  0  0  0  0  0  0  0  0  0
   -2.1756    2.0804    0.2558 C   0  0  0  0  0  0  0  0  0  0  0  0
    3.0322   -1.2602    0.8824 C   0  0  0  0  0  0  0  0  0  0  0  0
   -3.6420   -0.5066   -0.1028 C   0  0  0  0  0  0  0  0  0  0  0  0
    4.1915    0.8271   -0.5507 C   0  0  0  0  0  0  0  0  0  0  0  0
   -4.4721    0.7465   -0.1304 C   0  0  0  0  0  0  0  0  0  0  0  0
    4.4189   -1.1938    0.7456 C   0  0  0  0  0  0  0  0  0  0  0  0
    4.9979   -0.1532    0.0248 C   0  0  0  0  0  0  0  0  0  0  0  0
    0.4751   -0.5805    1.4897 H   0  0  0  0  0  0  0  0  0  0  0  0
    0.9909    2.4417    0.8501 H   0  0  0  0  0  0  0  0  0  0  0  0
    0.0973    2.8308   -0.6256 H   0  0  0  0  0  0  0  0  0  0  0  0
    0.6206   -2.5003   -0.0898 H   0  0  0  0  0  0  0  0  0  0  0  0
    0.4216   -1.4176   -1.4813 H   0  0  0  0  0  0  0  0  0  0  0  0
    2.4719    2.7681   -1.1183 H   0  0  0  0  0  0  0  0  0  0  0  0
    1.6228    1.4963   -2.0169 H   0  0  0  0  0  0  0  0  0  0  0  0
   -1.6003    2.7121    0.9405 H   0  0  0  0  0  0  0  0  0  0  0  0
   -2.2662    2.6144   -0.6964 H   0  0  0  0  0  0  0  0  0  0  0  0
    2.5963   -2.0840    1.4425 H   0  0  0  0  0  0  0  0  0  0  0  0
    4.6547    1.6363   -1.1093 H   0  0  0  0  0  0  0  0  0  0  0  0
   -4.5092    1.1441   -1.1488 H   0  0  0  0  0  0  0  0  0  0  0  0
   -5.4920    0.5044    0.1839 H   0  0  0  0  0  0  0  0  0  0  0  0
    5.0459   -1.9570    1.1972 H   0  0  0  0  0  0  0  0  0  0  0  0
    6.0769   -0.1038   -0.0874 H   0  0  0  0  0  0  0  0  0  0  0  0
  1 14  1  0  0  0  0
  1 18  1  0  0  0  0
  2 13  2  0  0  0  0
  3 16  2  0  0  0  0
  4  5  1  0  0  0  0
  4  6  1  0  0  0  0
  4  9  1  0  0  0  0
  5  7  1  0  0  0  0
  5  8  1  0  0  0  0
  5 21  1  0  0  0  0
  6 10  1  0  0  0  0
  6 22  1  0  0  0  0
  6 23  1  0  0  0  0
  7 13  1  0  0  0  0
  7 24  1  0  0  0  0
  7 25  1  0  0  0  0
  8 11  1  0  0  0  0
  8 15  2  0  0  0  0
  9 12  2  0  0  0  0
  9 14  1  0  0  0  0
 10 11  1  0  0  0  0
 10 26  1  0  0  0  0
 10 27  1  0  0  0  0
 11 17  2  0  0  0  0
 12 13  1  0  0  0  0
 12 16  1  0  0  0  0
 14 28  1  0  0  0  0
 14 29  1  0  0  0  0
 15 19  1  0  0  0  0
 15 30  1  0  0  0  0
 16 18  1  0  0  0  0
 17 20  1  0  0  0  0
 17 31  1  0  0  0  0
 18 32  1  0  0  0  0
 18 33  1  0  0  0  0
 19 20  2  0  0  0  0
 19 34  1  0  0  0  0
 20 35  1  0  0  0  0
M  END
> <PUBCHEM_COMPOUND_CID>
582793

> <PUBCHEM_CONFORMER_RMSD>
0.6

> <PUBCHEM_CONFORMER_DIVERSEORDER>
1
2
3
4

> <PUBCHEM_MMFF94_PARTIAL_CHARGES>
24
1 -0.46
10 0.14
11 -0.14
12 0.03
13 0.49
14 0.37
15 -0.15
16 0.49
17 -0.15
18 0.29
19 -0.15
2 -0.57
20 -0.15
3 -0.57
30 0.15
31 0.15
34 0.15
35 0.15
4 -0.84
5 0.51
6 0.37
7 0.06
8 -0.14
9 -0.04

> <PUBCHEM_EFFECTIVE_ROTOR_COUNT>
1.2

> <PUBCHEM_PHARMACOPHORE_FEATURES>
8
1 12 anion
1 2 acceptor
1 3 acceptor
1 4 cation
6 1 9 12 14 16 18 rings
6 4 5 6 8 10 11 rings
6 4 5 7 9 12 13 rings
6 8 11 15 17 19 20 rings

> <PUBCHEM_HEAVY_ATOM_COUNT>
20

> <PUBCHEM_ATOM_DEF_STEREO_COUNT>
0

> <PUBCHEM_ATOM_UDEF_STEREO_COUNT>
1

> <PUBCHEM_BOND_DEF_STEREO_COUNT>
0

> <PUBCHEM_BOND_UDEF_STEREO_COUNT>
0

> <PUBCHEM_ISOTOPIC_ATOM_COUNT>
0

> <PUBCHEM_COMPONENT_COUNT>
1

> <PUBCHEM_CACTVS_TAUTO_COUNT>
4

> <PUBCHEM_CONFORMER_ID>
0008E48900000001

> <PUBCHEM_MMFF94_ENERGY>
55.226

> <PUBCHEM_FEATURE_SELFOVERLAP>
40.674

> <PUBCHEM_SHAPE_FINGERPRINT>
10062212 137 18409452479344389983
10616163 171 18409445856183540414
10967382 1 18338516442658418551
11132069 177 18335700606560160625
11578080 2 18056791804116587156
12107183 9 17692537023400482834
12236239 1 18343864428661539608
12251169 10 18412826910431281704
12403814 3 17917430960174239221
12670546 56 18409172086541325216
13140716 1 18191866726120951315
13167823 11 18413107264521728986
13221675 6 18342739602586198226
13583140 156 17346595331112929033
13862211 1 18262522477647130679
14790565 3 18410847802297087660
15042514 8 18264204725910740311
15196674 1 18411982450972554364
15209294 21 17823132487979447937
15256400 18 18263924517405341886
15375462 189 18060140989653887304
15442244 35 18412265025708799636
15536298 74 18337112263763608256
1601671 61 18335982060146411272
16752209 62 18334586741283472211
16945 1 18335416838039193967
17349148 13 18260270737271384503
17492 89 18412260606103991554
17804303 29 18261114058168217352
1813 80 17417524847869675318
19422 9 18343018886934318224
200 152 18411985745523765205
20261772 1 18340197591705975328
20510252 161 18113897195109015857
21267235 1 18413100667731816482
221490 88 18057035801017956538
23184049 59 18271240624948359112
23402539 116 18260838102514541645
23463225 33 18413389856052793020
23557571 272 17749101192917177004
23559900 14 18040992952181372092
2748010 2 17186998138702011229
335352 9 18411139168820267181
34797466 226 17386556952739665972
34934 24 18341052930712248700
350125 39 18410009940720347945
4214541 1 18410856568235018408
474 4 17559670638700290092
5104073 3 18411699872242146488
7064713 232 18189902087467320408
7832392 63 18411419475697891076
90525 40 18408319986536219047
9709674 26 18334287665278004054
9981440 41 17262155827202454184

> <PUBCHEM_SHAPE_MULTIPOLES>
398.72
9.26
2.43
0.86
2.09
0.26
-0.07
-0.09
-0.96
-1.42
0.18
0.18
-0.11
-1.35

> <PUBCHEM_SHAPE_SELFOVERLAP>
864.456

> <PUBCHEM_SHAPE_VOLUME>
218

> <PUBCHEM_COORDINATE_TYPE>
2
5
10

$$$$

