6474295
  -OEChem-07051213083D

 31 32  0     0  0  0  0  0  0999 V2000
    1.9126    1.1478    2.1510 O   0  0  0  0  0  0  0  0  0  0  0  0
    1.8459   -1.8393   -1.6049 O   0  0  0  0  0  0  0  0  0  0  0  0
    5.4999    1.1532   -0.9829 O   0  0  0  0  0  0  0  0  0  0  0  0
    0.5360   -1.8654    1.4731 O   0  0  0  0  0  0  0  0  0  0  0  0
    1.8691   -0.3503    0.2765 C   0  0  0  0  0  0  0  0  0  0  0  0
    2.4781    0.6468    1.0163 C   0  0  0  0  0  0  0  0  0  0  0  0
    2.4447   -0.8569   -0.8744 C   0  0  0  0  0  0  0  0  0  0  0  0
    0.5649   -0.8906    0.7300 C   0  0  0  0  0  0  0  0  0  0  0  0
    3.7052    1.1552    0.5903 C   0  0  0  0  0  0  0  0  0  0  0  0
    3.6718   -0.3483   -1.3003 C   0  0  0  0  0  0  0  0  0  0  0  0
    4.3021    0.6576   -0.5678 C   0  0  0  0  0  0  0  0  0  0  0  0
   -3.1597   -0.1439    0.1383 C   0  0  0  0  0  0  0  0  0  0  0  0
   -0.6706   -0.2287    0.2259 C   0  0  0  0  0  0  0  0  0  0  0  0
   -1.8887   -0.6961    0.5805 C   0  0  0  0  0  0  0  0  0  0  0  0
   -3.2198    1.1592   -0.3555 C   0  0  0  0  0  0  0  0  0  0  0  0
   -4.3184   -0.9174    0.2082 C   0  0  0  0  0  0  0  0  0  0  0  0
   -4.4387    1.6890   -0.7792 C   0  0  0  0  0  0  0  0  0  0  0  0
   -5.5372   -0.3877   -0.2157 C   0  0  0  0  0  0  0  0  0  0  0  0
   -5.5972    0.9156   -0.7095 C   0  0  0  0  0  0  0  0  0  0  0  0
    4.1970    1.9392    1.1607 H   0  0  0  0  0  0  0  0  0  0  0  0
    4.1384   -0.7352   -2.2031 H   0  0  0  0  0  0  0  0  0  0  0  0
   -0.5300    0.6124   -0.4431 H   0  0  0  0  0  0  0  0  0  0  0  0
   -1.9592   -1.5616    1.2357 H   0  0  0  0  0  0  0  0  0  0  0  0
   -2.3483    1.8051   -0.4099 H   0  0  0  0  0  0  0  0  0  0  0  0
   -4.2911   -1.9357    0.5888 H   0  0  0  0  0  0  0  0  0  0  0  0
   -4.4870    2.7053   -1.1593 H   0  0  0  0  0  0  0  0  0  0  0  0
   -6.4395   -0.9897   -0.1614 H   0  0  0  0  0  0  0  0  0  0  0  0
   -6.5464    1.3284   -1.0384 H   0  0  0  0  0  0  0  0  0  0  0  0
    1.0843    0.6845    2.3539 H   0  0  0  0  0  0  0  0  0  0  0  0
    2.4059   -2.0536   -2.3706 H   0  0  0  0  0  0  0  0  0  0  0  0
    5.7650    0.6957   -1.7992 H   0  0  0  0  0  0  0  0  0  0  0  0
  1  6  1  0  0  0  0
  1 29  1  0  0  0  0
  2  7  1  0  0  0  0
  2 30  1  0  0  0  0
  3 11  1  0  0  0  0
  3 31  1  0  0  0  0
  4  8  2  0  0  0  0
  5  6  2  0  0  0  0
  5  7  1  0  0  0  0
  5  8  1  0  0  0  0
  6  9  1  0  0  0  0
  7 10  2  0  0  0  0
  8 13  1  0  0  0  0
  9 11  2  0  0  0  0
  9 20  1  0  0  0  0
 10 11  1  0  0  0  0
 10 21  1  0  0  0  0
 12 14  1  0  0  0  0
 12 15  2  0  0  0  0
 12 16  1  0  0  0  0
 13 14  2  0  0  0  0
 13 22  1  0  0  0  0
 14 23  1  0  0  0  0
 15 17  1  0  0  0  0
 15 24  1  0  0  0  0
 16 18  2  0  0  0  0
 16 25  1  0  0  0  0
 17 19  2  0  0  0  0
 17 26  1  0  0  0  0
 18 19  1  0  0  0  0
 18 27  1  0  0  0  0
 19 28  1  0  0  0  0
M  END
> <PUBCHEM_COMPOUND_CID>
6474295

> <PUBCHEM_CONFORMER_RMSD>
0.6

> <PUBCHEM_CONFORMER_DIVERSEORDER>
1
9
10
4
5
8
3
7
2
6

> <PUBCHEM_MMFF94_PARTIAL_CHARGES>
31
1 -0.53
10 -0.15
11 0.08
12 0.03
13 -0.14
14 -0.18
15 -0.15
16 -0.15
17 -0.15
18 -0.15
19 -0.15
2 -0.53
20 0.15
21 0.15
22 0.15
23 0.15
24 0.15
25 0.15
26 0.15
27 0.15
28 0.15
29 0.45
3 -0.53
30 0.45
31 0.45
4 -0.57
5 0.09
6 0.08
7 0.08
8 0.47
9 -0.15

> <PUBCHEM_EFFECTIVE_ROTOR_COUNT>
3

> <PUBCHEM_PHARMACOPHORE_FEATURES>
6
1 1 donor
1 2 donor
1 3 donor
1 4 acceptor
6 12 15 16 17 18 19 rings
6 5 6 7 9 10 11 rings

> <PUBCHEM_HEAVY_ATOM_COUNT>
19

> <PUBCHEM_ATOM_DEF_STEREO_COUNT>
0

> <PUBCHEM_ATOM_UDEF_STEREO_COUNT>
0

> <PUBCHEM_BOND_DEF_STEREO_COUNT>
1

> <PUBCHEM_BOND_UDEF_STEREO_COUNT>
0

> <PUBCHEM_ISOTOPIC_ATOM_COUNT>
0

> <PUBCHEM_COMPONENT_COUNT>
1

> <PUBCHEM_CACTVS_TAUTO_COUNT>
15

> <PUBCHEM_CONFORMER_ID>
0062CA3700000001

> <PUBCHEM_MMFF94_ENERGY>
59.9793

> <PUBCHEM_FEATURE_SELFOVERLAP>
30.446

> <PUBCHEM_SHAPE_FINGERPRINT>
10354089 29 15052012368522664156
10498660 4 18272374217310745909
10670039 82 17846493794180972756
10693767 8 16516234258717678934
11128504 68 15574715772361291992
12236239 1 16559033757623745274
12553582 1 14273740689632178391
12596602 18 16272207470811574721
12633257 1 12607397759057920312
12730499 353 18187361004447524435
128620 24 18341895195205155143
13533116 47 13182468828018009713
13631057 29 15840412676379059707
14341114 176 11672060852434012886
14341114 328 15913329082833633801
14528608 73 18343026579790470629
14576447 43 15936683839837363878
15188451 53 10015568486216665385
15210252 30 18272085019793478556
15788980 27 10519983755999239609
15885798 251 7348889983918103771
1813 80 14201111310450016056
18186145 218 18186522107504039835
18915474 69 14851614249720727893
19377110 9 16415189084411821113
200 152 16298380275352338523
20645477 70 17531239590987236990
21637258 2 4678544520900879020
221357 26 17749390386214376161
22224240 67 12751236957347455616
22289505 5 18187087290397648328
22646028 1 4967606179234850161
22950370 63 5545201627084542267
23402539 116 18272653411659419774
23402655 69 18113615698604467445
235170 7 18114459054541469501
23557571 272 18411413978340192747
23559900 14 18341613766956457807
23590187 302 17385725802613903576
23596394 208 17968096460160930503
2838139 119 17913198772948455588
2916195 48 18271806766120672540
29717793 49 14996275924882013729
300161 21 16702308953608280671
3060560 45 17530685394640888142
3268164 11 18272380754619820159
341906 21 17917721214174924373
3472631 163 17917707968084119565
34797466 226 18335976498327280797
351380 3 14056717954812320149
4028521 119 18410011048478681137
42 15 9871748001194291927
474 4 16487251075884161091
4990 188 18261110789803638915
5104073 3 17560519633623156073
5281201 14 18040994072461006557
542803 24 17203611488788061745
5924683 9 12175320485001679425
7471813 234 15068336805002167786
7808743 9 18059855017419155888
8272917 22 14333412263507841930
960060 61 16081094779192585921
9841814 1 5256109207968411291

> <PUBCHEM_SHAPE_MULTIPOLES>
367.53
12.51
1.57
1.37
8.13
0.05
0.18
-4.89
-3.52
0.27
-0.03
-1.52
0.09
0.84

> <PUBCHEM_SHAPE_SELFOVERLAP>
797.096

> <PUBCHEM_SHAPE_VOLUME>
200.7

> <PUBCHEM_COORDINATE_TYPE>
2
5
10

$$$$

