5318913
  -OEChem-07051213112D

 23 22  0     0  0  0  0  0  0999 V2000
   10.6603   -0.4400    0.0000 O   0  0  0  0  0  0  0  0  0  0  0  0
    2.8660    1.0600    0.0000 C   0  0  0  0  0  0  0  0  0  0  0  0
    3.7320    1.5600    0.0000 C   0  0  0  0  0  0  0  0  0  0  0  0
    2.0000    1.5600    0.0000 C   0  0  0  0  0  0  0  0  0  0  0  0
    4.5981    1.0600    0.0000 C   0  0  0  0  0  0  0  0  0  0  0  0
    9.7942   -0.9400    0.0000 C   0  0  0  0  0  0  0  0  0  0  0  0
    8.9282   -0.4400    0.0000 C   0  0  0  0  0  0  0  0  0  0  0  0
    5.4641    0.5600    0.0000 C   0  0  0  0  0  0  0  0  0  0  0  0
    8.0622   -0.9400    0.0000 C   0  0  0  0  0  0  0  0  0  0  0  0
    7.1962   -0.4400    0.0000 C   0  0  0  0  0  0  0  0  0  0  0  0
    6.3301    0.0600    0.0000 C   0  0  0  0  0  0  0  0  0  0  0  0
    2.4675    0.5851    0.0000 H   0  0  0  0  0  0  0  0  0  0  0  0
    3.2646    0.5851    0.0000 H   0  0  0  0  0  0  0  0  0  0  0  0
    4.1306    2.0349    0.0000 H   0  0  0  0  0  0  0  0  0  0  0  0
    3.3335    2.0349    0.0000 H   0  0  0  0  0  0  0  0  0  0  0  0
    2.3100    2.0969    0.0000 H   0  0  0  0  0  0  0  0  0  0  0  0
    1.4631    1.8700    0.0000 H   0  0  0  0  0  0  0  0  0  0  0  0
    1.6900    1.0231    0.0000 H   0  0  0  0  0  0  0  0  0  0  0  0
    9.3957   -1.4150    0.0000 H   0  0  0  0  0  0  0  0  0  0  0  0
   10.1928   -1.4150    0.0000 H   0  0  0  0  0  0  0  0  0  0  0  0
    8.9282    0.1800    0.0000 H   0  0  0  0  0  0  0  0  0  0  0  0
    8.0622   -1.5600    0.0000 H   0  0  0  0  0  0  0  0  0  0  0  0
   11.1972   -0.7500    0.0000 H   0  0  0  0  0  0  0  0  0  0  0  0
  1  6  1  0  0  0  0
  1 23  1  0  0  0  0
  2  3  1  0  0  0  0
  2  4  1  0  0  0  0
  2 12  1  0  0  0  0
  2 13  1  0  0  0  0
  3  5  1  0  0  0  0
  3 14  1  0  0  0  0
  3 15  1  0  0  0  0
  4 16  1  0  0  0  0
  4 17  1  0  0  0  0
  4 18  1  0  0  0  0
  5  8  3  0  0  0  0
  6  7  1  0  0  0  0
  6 19  1  0  0  0  0
  6 20  1  0  0  0  0
  7  9  2  0  0  0  0
  7 21  1  0  0  0  0
  8 11  1  0  0  0  0
  9 10  1  0  0  0  0
  9 22  1  0  0  0  0
 10 11  3  0  0  0  0
M  END
> <PUBCHEM_COMPOUND_CID>
5318913

> <PUBCHEM_COMPOUND_CANONICALIZED>
1

> <PUBCHEM_CACTVS_COMPLEXITY>
235

> <PUBCHEM_CACTVS_HBOND_ACCEPTOR>
1

> <PUBCHEM_CACTVS_HBOND_DONOR>
1

> <PUBCHEM_CACTVS_ROTATABLE_BOND>
3

> <PUBCHEM_CACTVS_SUBSKEYS>
AAADccBwIAAAAAAAAAAAAAAAAAAAAAAAAAAAAAAAAAAAAAAAAAAAGgAACAAACACggAICAAAAAgDAECBCAAgAAAAAAAAICAAAAAAAFAAAAQAAEAAAAAAAEAAAAAAAAAAAAAAAAAAAAAAAAAAAAAAAAAAAAA==

> <PUBCHEM_IUPAC_OPENEYE_NAME>
(E)-dec-2-en-4,6-diyn-1-ol

> <PUBCHEM_IUPAC_CAS_NAME>
(E)-1-dec-2-en-4,6-diynol

> <PUBCHEM_IUPAC_NAME>
(E)-dec-2-en-4,6-diyn-1-ol

> <PUBCHEM_IUPAC_SYSTEMATIC_NAME>
(E)-dec-2-en-4,6-diyn-1-ol

> <PUBCHEM_IUPAC_TRADITIONAL_NAME>
(E)-dec-2-en-4,6-diyn-1-ol

> <PUBCHEM_IUPAC_INCHI>
InChI=1S/C10H12O/c1-2-3-4-5-6-7-8-9-10-11/h8-9,11H,2-3,10H2,1H3/b9-8+

> <PUBCHEM_IUPAC_INCHIKEY>
UVYOXYJPADNJRE-CMDGGOBGSA-N

> <PUBCHEM_XLOGP3_AA>
2.2

> <PUBCHEM_EXACT_MASS>
148.088815

> <PUBCHEM_MOLECULAR_FORMULA>
C10H12O

> <PUBCHEM_MOLECULAR_WEIGHT>
148.20168

> <PUBCHEM_OPENEYE_CAN_SMILES>
CCCC#CC#CC=CCO

> <PUBCHEM_OPENEYE_ISO_SMILES>
CCCC#CC#C/C=C/CO

> <PUBCHEM_CACTVS_TPSA>
20.2

> <PUBCHEM_MONOISOTOPIC_WEIGHT>
148.088815

> <PUBCHEM_TOTAL_CHARGE>
0

> <PUBCHEM_HEAVY_ATOM_COUNT>
11

> <PUBCHEM_ATOM_DEF_STEREO_COUNT>
0

> <PUBCHEM_ATOM_UDEF_STEREO_COUNT>
0

> <PUBCHEM_BOND_DEF_STEREO_COUNT>
1

> <PUBCHEM_BOND_UDEF_STEREO_COUNT>
0

> <PUBCHEM_ISOTOPIC_ATOM_COUNT>
0

> <PUBCHEM_COMPONENT_COUNT>
1

> <PUBCHEM_CACTVS_TAUTO_COUNT>
1

> <PUBCHEM_COORDINATE_TYPE>
1
5
255

$$$$

