46173248
  -OEChem-07051213153D

 23 23  0     0  0  0  0  0  0999 V2000
    3.9442    0.6912   -0.0104 O   0  0  0  0  0  0  0  0  0  0  0  0
   -2.4828    0.1243   -0.0029 N   0  0  0  0  0  0  0  0  0  0  0  0
    3.1034   -0.3930    0.0072 N   0  0  0  0  0  0  0  0  0  0  0  0
   -1.0785   -0.0058   -0.0024 C   0  0  0  0  0  0  0  0  0  0  0  0
   -0.4954   -1.2731   -0.0016 C   0  0  0  0  0  0  0  0  0  0  0  0
   -0.2727    1.1328    0.0000 C   0  0  0  0  0  0  0  0  0  0  0  0
    1.6993   -0.2630    0.0039 C   0  0  0  0  0  0  0  0  0  0  0  0
    0.8934   -1.4016    0.0016 C   0  0  0  0  0  0  0  0  0  0  0  0
    1.1162    1.0041    0.0032 C   0  0  0  0  0  0  0  0  0  0  0  0
   -3.0984    1.4366    0.0039 C   0  0  0  0  0  0  0  0  0  0  0  0
   -3.3289   -1.0524   -0.0026 C   0  0  0  0  0  0  0  0  0  0  0  0
   -1.0784   -2.1887   -0.0029 H   0  0  0  0  0  0  0  0  0  0  0  0
   -0.6777    2.1399   -0.0001 H   0  0  0  0  0  0  0  0  0  0  0  0
    1.3367   -2.3942    0.0023 H   0  0  0  0  0  0  0  0  0  0  0  0
    1.7221    1.9063    0.0055 H   0  0  0  0  0  0  0  0  0  0  0  0
   -4.1921    1.3707    0.0037 H   0  0  0  0  0  0  0  0  0  0  0  0
   -2.8212    2.0086   -0.8886 H   0  0  0  0  0  0  0  0  0  0  0  0
   -4.3920   -0.7868   -0.0053 H   0  0  0  0  0  0  0  0  0  0  0  0
   -3.1621   -1.6597    0.8940 H   0  0  0  0  0  0  0  0  0  0  0  0
   -3.1590   -1.6626   -0.8967 H   0  0  0  0  0  0  0  0  0  0  0  0
   -2.8208    1.9994    0.9021 H   0  0  0  0  0  0  0  0  0  0  0  0
    3.5320   -1.3099    0.0008 H   0  0  0  0  0  0  0  0  0  0  0  0
    4.4046    0.6006    0.8411 H   0  0  0  0  0  0  0  0  0  0  0  0
  1  3  1  0  0  0  0
  1 23  1  0  0  0  0
  2  4  1  0  0  0  0
  2 10  1  0  0  0  0
  2 11  1  0  0  0  0
  3  7  1  0  0  0  0
  3 22  1  0  0  0  0
  4  5  2  0  0  0  0
  4  6  1  0  0  0  0
  5  8  1  0  0  0  0
  5 12  1  0  0  0  0
  6  9  2  0  0  0  0
  6 13  1  0  0  0  0
  7  8  2  0  0  0  0
  7  9  1  0  0  0  0
  8 14  1  0  0  0  0
  9 15  1  0  0  0  0
 10 16  1  0  0  0  0
 10 17  1  0  0  0  0
 10 21  1  0  0  0  0
 11 18  1  0  0  0  0
 11 19  1  0  0  0  0
 11 20  1  0  0  0  0
M  END
> <PUBCHEM_COMPOUND_CID>
46173248

> <PUBCHEM_CONFORMER_RMSD>
0.4

> <PUBCHEM_CONFORMER_DIVERSEORDER>
1
6
2
5
3
4

> <PUBCHEM_MMFF94_PARTIAL_CHARGES>
17
1 -0.38
10 0.37
11 0.37
12 0.15
13 0.15
14 0.15
15 0.15
2 -0.84
22 0.4
23 0.4
3 -0.52
4 0.1
5 -0.15
6 -0.15
7 0.1
8 -0.15
9 -0.15

> <PUBCHEM_EFFECTIVE_ROTOR_COUNT>
2

> <PUBCHEM_PHARMACOPHORE_FEATURES>
3
1 1 anion
1 2 cation
6 4 5 6 7 8 9 rings

> <PUBCHEM_HEAVY_ATOM_COUNT>
11

> <PUBCHEM_ATOM_DEF_STEREO_COUNT>
0

> <PUBCHEM_ATOM_UDEF_STEREO_COUNT>
0

> <PUBCHEM_BOND_DEF_STEREO_COUNT>
0

> <PUBCHEM_BOND_UDEF_STEREO_COUNT>
0

> <PUBCHEM_ISOTOPIC_ATOM_COUNT>
0

> <PUBCHEM_COMPONENT_COUNT>
1

> <PUBCHEM_CACTVS_TAUTO_COUNT>
1

> <PUBCHEM_CONFORMER_ID>
02C08C4000000001

> <PUBCHEM_MMFF94_ENERGY>
46.5759

> <PUBCHEM_FEATURE_SELFOVERLAP>
15.223

> <PUBCHEM_SHAPE_FINGERPRINT>
10219947 1 18343300379264971316
11062470 55 18343020007984235300
12032990 46 18409441488338697006
12932764 1 17023195928310303839
14325111 11 18410575101953737376
14993402 34 18343301440169353454
15775835 57 18410853300028747713
16945 1 18410014299521056231
193761 8 17617941327034198754
21040471 1 18410573946539001955
21293036 1 18409446960184755654
23235685 24 18410860970734784840
23402539 116 18261683609565422582
23402655 69 18191601937588278941
23463225 33 18342461495069666946
23552423 10 18271522117083904927
2748010 2 18265893742709732831
3312278 4 18335982047229848089
5084963 1 18261391109676623339
528886 8 18410299146131334529
53812653 166 18335144214752788176

> <PUBCHEM_SHAPE_MULTIPOLES>
210.54
5.48
1.53
0.59
1.09
0.03
0
-0.72
0.01
-0.55
0
-0.04
0
-0.01

> <PUBCHEM_SHAPE_SELFOVERLAP>
427.808

> <PUBCHEM_SHAPE_VOLUME>
124.2

> <PUBCHEM_COORDINATE_TYPE>
2
5
10

$$$$

