443785
  -OEChem-07051213032D

 44 47  0     0  0  0  0  0  0999 V2000
    7.2622    1.6251    0.0000 O   0  0  0  0  0  0  0  0  0  0  0  0
    9.0106    1.6597    0.0000 O   0  0  0  0  0  0  0  0  0  0  0  0
   10.8478    1.7028    0.0000 O   0  0  0  0  0  0  0  0  0  0  0  0
    3.7320   -1.3990    0.0000 O   0  0  0  0  0  0  0  0  0  0  0  0
   12.6672   -1.4207    0.0000 O   0  0  0  0  0  0  0  0  0  0  0  0
    2.8641    0.1526    0.0000 O   0  0  0  0  0  0  0  0  0  0  0  0
    3.7359    1.6493    0.0000 O   0  0  0  0  0  0  0  0  0  0  0  0
    8.1282   -0.8749    0.0000 C   0  0  0  0  0  0  0  0  0  0  0  0
    8.1282    0.1251    0.0000 C   0  0  0  0  0  0  0  0  0  0  0  0
    9.0221   -1.4095    0.0000 C   0  0  0  0  0  0  0  0  0  0  0  0
    6.3961    0.1251    0.0000 C   0  0  0  0  0  0  0  0  0  0  0  0
    9.9282   -0.8957    0.0000 C   0  0  0  0  0  0  0  0  0  0  0  0
    6.3961   -0.8749    0.0000 C   0  0  0  0  0  0  0  0  0  0  0  0
    7.2622    0.6251    0.0000 C   0  0  0  0  0  0  0  0  0  0  0  0
    9.9282    0.1460    0.0000 C   0  0  0  0  0  0  0  0  0  0  0  0
    7.2622   -1.3749    0.0000 C   0  0  0  0  0  0  0  0  0  0  0  0
    9.0221    0.6598    0.0000 C   0  0  0  0  0  0  0  0  0  0  0  0
    5.5022    0.6598    0.0000 C   0  0  0  0  0  0  0  0  0  0  0  0
    5.5022   -1.4095    0.0000 C   0  0  0  0  0  0  0  0  0  0  0  0
    4.5961    0.1460    0.0000 C   0  0  0  0  0  0  0  0  0  0  0  0
   10.8594   -1.4526    0.0000 C   0  0  0  0  0  0  0  0  0  0  0  0
   10.8594    0.7029    0.0000 C   0  0  0  0  0  0  0  0  0  0  0  0
    4.5961   -0.8957    0.0000 C   0  0  0  0  0  0  0  0  0  0  0  0
    5.5138    1.6597    0.0000 C   0  0  0  0  0  0  0  0  0  0  0  0
   11.8031   -0.9174    0.0000 C   0  0  0  0  0  0  0  0  0  0  0  0
   11.8031    0.1676    0.0000 C   0  0  0  0  0  0  0  0  0  0  0  0
    3.7320    0.6493    0.0000 C   0  0  0  0  0  0  0  0  0  0  0  0
    2.0000    0.6560    0.0000 C   0  0  0  0  0  0  0  0  0  0  0  0
    8.6175   -1.8793    0.0000 H   0  0  0  0  0  0  0  0  0  0  0  0
    9.4158   -1.8885    0.0000 H   0  0  0  0  0  0  0  0  0  0  0  0
    7.2622   -1.9949    0.0000 H   0  0  0  0  0  0  0  0  0  0  0  0
    5.5094   -2.0295    0.0000 H   0  0  0  0  0  0  0  0  0  0  0  0
   10.8522   -2.0726    0.0000 H   0  0  0  0  0  0  0  0  0  0  0  0
    6.1337    1.6526    0.0000 H   0  0  0  0  0  0  0  0  0  0  0  0
    5.5209    2.2797    0.0000 H   0  0  0  0  0  0  0  0  0  0  0  0
    4.8938    1.6669    0.0000 H   0  0  0  0  0  0  0  0  0  0  0  0
   12.3389    0.4797    0.0000 H   0  0  0  0  0  0  0  0  0  0  0  0
    6.7252    1.9351    0.0000 H   0  0  0  0  0  0  0  0  0  0  0  0
   11.3811    2.0190    0.0000 H   0  0  0  0  0  0  0  0  0  0  0  0
    3.7344   -2.0190    0.0000 H   0  0  0  0  0  0  0  0  0  0  0  0
   13.2054   -1.1128    0.0000 H   0  0  0  0  0  0  0  0  0  0  0  0
    2.3121    1.1917    0.0000 H   0  0  0  0  0  0  0  0  0  0  0  0
    1.4643    0.9680    0.0000 H   0  0  0  0  0  0  0  0  0  0  0  0
    1.6879    0.1202    0.0000 H   0  0  0  0  0  0  0  0  0  0  0  0
  1 14  1  0  0  0  0
  1 38  1  0  0  0  0
  2 17  2  0  0  0  0
  3 22  1  0  0  0  0
  3 39  1  0  0  0  0
  4 23  1  0  0  0  0
  4 40  1  0  0  0  0
  5 25  1  0  0  0  0
  5 41  1  0  0  0  0
  6 27  1  0  0  0  0
  6 28  1  0  0  0  0
  7 27  2  0  0  0  0
  8  9  2  0  0  0  0
  8 10  1  0  0  0  0
  8 16  1  0  0  0  0
  9 14  1  0  0  0  0
  9 17  1  0  0  0  0
 10 12  1  0  0  0  0
 10 29  1  0  0  0  0
 10 30  1  0  0  0  0
 11 13  1  0  0  0  0
 11 14  2  0  0  0  0
 11 18  1  0  0  0  0
 12 15  2  0  0  0  0
 12 21  1  0  0  0  0
 13 16  2  0  0  0  0
 13 19  1  0  0  0  0
 15 17  1  0  0  0  0
 15 22  1  0  0  0  0
 16 31  1  0  0  0  0
 18 20  2  0  0  0  0
 18 24  1  0  0  0  0
 19 23  2  0  0  0  0
 19 32  1  0  0  0  0
 20 23  1  0  0  0  0
 20 27  1  0  0  0  0
 21 25  2  0  0  0  0
 21 33  1  0  0  0  0
 22 26  2  0  0  0  0
 24 34  1  0  0  0  0
 24 35  1  0  0  0  0
 24 36  1  0  0  0  0
 25 26  1  0  0  0  0
 26 37  1  0  0  0  0
 28 42  1  0  0  0  0
 28 43  1  0  0  0  0
 28 44  1  0  0  0  0
M  END
> <PUBCHEM_COMPOUND_CID>
443785

> <PUBCHEM_COMPOUND_CANONICALIZED>
1

> <PUBCHEM_CACTVS_COMPLEXITY>
636

> <PUBCHEM_CACTVS_HBOND_ACCEPTOR>
7

> <PUBCHEM_CACTVS_HBOND_DONOR>
4

> <PUBCHEM_CACTVS_ROTATABLE_BOND>
2

> <PUBCHEM_CACTVS_SUBSKEYS>
AAADceB4OAAAAAAAAAAAAAAAAAAAAAAAAAAwYMGAAAAAAADBVAAAGgAACAAADASAmAIyDsAABgCIAqDSCAACAAAkIAAAiAEGCMgIJzaCNRqAcUAl4BUIuQeI7PzO4AADCAAYAADAAAYQADAAAAAAAAAAAA==

> <PUBCHEM_IUPAC_OPENEYE_NAME>
methyl 3,8,10,12-tetrahydroxy-1-methyl-11-oxo-6H-tetracene-2-carboxylate

> <PUBCHEM_IUPAC_CAS_NAME>
3,8,10,12-tetrahydroxy-1-methyl-11-oxo-6H-tetracene-2-carboxylic acid methyl ester

> <PUBCHEM_IUPAC_NAME>
methyl 3,8,10,12-tetrahydroxy-1-methyl-11-oxo-6H-tetracene-2-carboxylate

> <PUBCHEM_IUPAC_SYSTEMATIC_NAME>
methyl 1-methyl-3,8,10,12-tetrakis(oxidanyl)-11-oxidanylidene-6H-tetracene-2-carboxylate

> <PUBCHEM_IUPAC_TRADITIONAL_NAME>
3,8,10,12-tetrahydroxy-11-keto-1-methyl-6H-tetracene-2-carboxylic acid methyl ester

> <PUBCHEM_IUPAC_INCHI>
InChI=1S/C21H16O7/c1-8-15-11(6-13(23)16(8)21(27)28-2)4-9-3-10-5-12(22)7-14(24)17(10)20(26)18(9)19(15)25/h4-7,22-25H,3H2,1-2H3

> <PUBCHEM_IUPAC_INCHIKEY>
FHUWFKLKKCQTOL-UHFFFAOYSA-N

> <PUBCHEM_XLOGP3_AA>
4.5

> <PUBCHEM_EXACT_MASS>
380.089603

> <PUBCHEM_MOLECULAR_FORMULA>
C21H16O7

> <PUBCHEM_MOLECULAR_WEIGHT>
380.34754

> <PUBCHEM_OPENEYE_CAN_SMILES>
CC1=C(C(=CC2=CC3=C(C(=C12)O)C(=O)C4=C(C=C(C=C4C3)O)O)O)C(=O)OC

> <PUBCHEM_OPENEYE_ISO_SMILES>
CC1=C(C(=CC2=CC3=C(C(=C12)O)C(=O)C4=C(C=C(C=C4C3)O)O)O)C(=O)OC

> <PUBCHEM_CACTVS_TPSA>
124

> <PUBCHEM_MONOISOTOPIC_WEIGHT>
380.089603

> <PUBCHEM_TOTAL_CHARGE>
0

> <PUBCHEM_HEAVY_ATOM_COUNT>
28

> <PUBCHEM_ATOM_DEF_STEREO_COUNT>
0

> <PUBCHEM_ATOM_UDEF_STEREO_COUNT>
0

> <PUBCHEM_BOND_DEF_STEREO_COUNT>
0

> <PUBCHEM_BOND_UDEF_STEREO_COUNT>
0

> <PUBCHEM_ISOTOPIC_ATOM_COUNT>
0

> <PUBCHEM_COMPONENT_COUNT>
1

> <PUBCHEM_CACTVS_TAUTO_COUNT>
996

> <PUBCHEM_COORDINATE_TYPE>
1
5
255

> <PUBCHEM_BONDANNOTATIONS>
11  13  8
11  14  8
11  18  8
12  15  8
12  21  8
13  16  8
13  19  8
15  22  8
18  20  8
19  23  8
20  23  8
21  25  8
22  26  8
25  26  8
8  16  8
8  9  8
9  14  8

$$$$

