71774
  -OEChem-07051213033D

 48 48  0     1  0  0  0  0  0999 V2000
   -7.6293   -0.6655    0.1983 S   0  3  0  0  0  0  0  0  0  0  0  0
    2.8759    1.0823    0.5194 O   0  0  0  0  0  0  0  0  0  0  0  0
    6.4564   -0.7954   -0.5746 O   0  0  0  0  0  0  0  0  0  0  0  0
    5.5522    1.7720    0.1742 O   0  0  0  0  0  0  0  0  0  0  0  0
   -3.4720    1.0198   -0.9204 O   0  0  0  0  0  0  0  0  0  0  0  0
   -2.5277   -0.2122    0.8411 N   0  0  0  0  0  0  0  0  0  0  0  0
   -6.0742    0.0768   -0.3928 C   0  0  0  0  0  0  0  0  0  0  0  0
    4.8680    1.0049   -0.8193 C   0  0  2  0  0  0  0  0  0  0  0  0
   -4.8905   -0.3649    0.4554 C   0  0  0  0  0  0  0  0  0  0  0  0
    3.3941    1.3861   -0.7748 C   0  0  0  0  0  0  0  0  0  0  0  0
    5.0700   -0.4760   -0.5189 C   0  0  0  0  0  0  0  0  0  0  0  0
   -3.5584    0.2376    0.0203 C   0  0  0  0  0  0  0  0  0  0  0  0
   -1.1540    0.1181    0.7603 C   0  0  0  0  0  0  0  0  0  0  0  0
    1.5543    0.7673    0.5993 C   0  0  0  0  0  0  0  0  0  0  0  0
   -7.4317   -2.2395   -0.6661 C   0  0  0  0  0  0  0  0  0  0  0  0
   -8.6959    0.1168   -1.0325 C   0  0  0  0  0  0  0  0  0  0  0  0
   -0.2504   -0.4282    1.6719 C   0  0  0  0  0  0  0  0  0  0  0  0
   -0.7033    0.9889   -0.2319 C   0  0  0  0  0  0  0  0  0  0  0  0
    1.1037   -0.1036    1.5915 C   0  0  0  0  0  0  0  0  0  0  0  0
    0.6509    1.3135   -0.3123 C   0  0  0  0  0  0  0  0  0  0  0  0
    6.6879   -2.1601   -0.2562 C   0  0  0  0  0  0  0  0  0  0  0  0
    8.1740   -2.4388   -0.3318 C   0  0  0  0  0  0  0  0  0  0  0  0
   -6.1886    1.1642   -0.3179 H   0  0  0  0  0  0  0  0  0  0  0  0
   -5.9158   -0.1624   -1.4495 H   0  0  0  0  0  0  0  0  0  0  0  0
    5.3087    1.2635   -1.7875 H   0  0  0  0  0  0  0  0  0  0  0  0
   -4.7861   -1.4562    0.4215 H   0  0  0  0  0  0  0  0  0  0  0  0
   -5.0595   -0.0878    1.5038 H   0  0  0  0  0  0  0  0  0  0  0  0
    2.8750    0.8332   -1.5680 H   0  0  0  0  0  0  0  0  0  0  0  0
    3.2862    2.4641   -0.9420 H   0  0  0  0  0  0  0  0  0  0  0  0
    4.5273   -1.0858   -1.2506 H   0  0  0  0  0  0  0  0  0  0  0  0
    4.7051   -0.7175    0.4866 H   0  0  0  0  0  0  0  0  0  0  0  0
   -2.7723   -0.8560    1.5905 H   0  0  0  0  0  0  0  0  0  0  0  0
   -6.6659   -2.8332   -0.1616 H   0  0  0  0  0  0  0  0  0  0  0  0
   -7.1511   -2.0935   -1.7119 H   0  0  0  0  0  0  0  0  0  0  0  0
   -8.3797   -2.7821   -0.6222 H   0  0  0  0  0  0  0  0  0  0  0  0
   -8.7964    1.1774   -0.7891 H   0  0  0  0  0  0  0  0  0  0  0  0
   -9.6822   -0.3521   -0.9929 H   0  0  0  0  0  0  0  0  0  0  0  0
   -8.2846    0.0129   -2.0396 H   0  0  0  0  0  0  0  0  0  0  0  0
   -0.5883   -1.1085    2.4495 H   0  0  0  0  0  0  0  0  0  0  0  0
   -1.3415    1.4552   -0.9689 H   0  0  0  0  0  0  0  0  0  0  0  0
    1.8034   -0.5327    2.3034 H   0  0  0  0  0  0  0  0  0  0  0  0
    0.9569    2.0166   -1.0815 H   0  0  0  0  0  0  0  0  0  0  0  0
    6.1557   -2.8023   -0.9669 H   0  0  0  0  0  0  0  0  0  0  0  0
    6.3256   -2.3728    0.7558 H   0  0  0  0  0  0  0  0  0  0  0  0
    5.1546    1.5640    1.0372 H   0  0  0  0  0  0  0  0  0  0  0  0
    8.5567   -2.2208   -1.3343 H   0  0  0  0  0  0  0  0  0  0  0  0
    8.7227   -1.7963    0.3648 H   0  0  0  0  0  0  0  0  0  0  0  0
    8.3886   -3.4838   -0.0916 H   0  0  0  0  0  0  0  0  0  0  0  0
  1  7  1  0  0  0  0
  1 15  1  0  0  0  0
  1 16  1  0  0  0  0
  2 10  1  0  0  0  0
  2 14  1  0  0  0  0
  3 11  1  0  0  0  0
  3 21  1  0  0  0  0
  4  8  1  0  0  0  0
  4 45  1  0  0  0  0
  5 12  2  0  0  0  0
  6 12  1  0  0  0  0
  6 13  1  0  0  0  0
  6 32  1  0  0  0  0
  7  9  1  0  0  0  0
  7 23  1  0  0  0  0
  7 24  1  0  0  0  0
  8 10  1  0  0  0  0
  8 11  1  0  0  0  0
  8 25  1  0  0  0  0
  9 12  1  0  0  0  0
  9 26  1  0  0  0  0
  9 27  1  0  0  0  0
 10 28  1  0  0  0  0
 10 29  1  0  0  0  0
 11 30  1  0  0  0  0
 11 31  1  0  0  0  0
 13 17  2  0  0  0  0
 13 18  1  0  0  0  0
 14 19  2  0  0  0  0
 14 20  1  0  0  0  0
 15 33  1  0  0  0  0
 15 34  1  0  0  0  0
 15 35  1  0  0  0  0
 16 36  1  0  0  0  0
 16 37  1  0  0  0  0
 16 38  1  0  0  0  0
 17 19  1  0  0  0  0
 17 39  1  0  0  0  0
 18 20  2  0  0  0  0
 18 40  1  0  0  0  0
 19 41  1  0  0  0  0
 20 42  1  0  0  0  0
 21 22  1  0  0  0  0
 21 43  1  0  0  0  0
 21 44  1  0  0  0  0
 22 46  1  0  0  0  0
 22 47  1  0  0  0  0
 22 48  1  0  0  0  0
M  CHG  1   1   1
M  END
> <PUBCHEM_COMPOUND_CID>
71774

> <PUBCHEM_CONFORMER_RMSD>
1

> <PUBCHEM_CONFORMER_DIVERSEORDER>
3
59
73
77
70
38
80
63
113
111
108
2
22
47
100
9
87
98
52
67
101
82
75
12
89
48
50
109
62
44
58
24
49
97
10
84
74
99
18
7
34
32
79
36
4
45
33
88
104
66
76
27
93
103
112
14
17
90
26
71
95
65
96
1
86
30
31
51
40
21
37
6
5
61
54
69
72
68
57
81
102
8
56
11
110
39
43
60
46
64
29
23
13
16
105
85
28
19
41
91
92
55
106
94
35
53
83
25
42
20
15
78
107

> <PUBCHEM_EFFECTIVE_ROTOR_COUNT>
11

> <PUBCHEM_PHARMACOPHORE_FEATURES>
7
1 2 acceptor
1 3 acceptor
1 4 acceptor
1 4 donor
1 5 acceptor
1 6 donor
6 13 14 17 18 19 20 rings

> <PUBCHEM_HEAVY_ATOM_COUNT>
22

> <PUBCHEM_ATOM_DEF_STEREO_COUNT>
0

> <PUBCHEM_ATOM_UDEF_STEREO_COUNT>
1

> <PUBCHEM_BOND_DEF_STEREO_COUNT>
0

> <PUBCHEM_BOND_UDEF_STEREO_COUNT>
0

> <PUBCHEM_ISOTOPIC_ATOM_COUNT>
0

> <PUBCHEM_COMPONENT_COUNT>
1

> <PUBCHEM_CACTVS_TAUTO_COUNT>
2

> <PUBCHEM_CONFORMER_ID>
0001185E00000003

> <PUBCHEM_MMFF94_ENERGY>
58.0703

> <PUBCHEM_FEATURE_SELFOVERLAP>
35.528

> <PUBCHEM_SHAPE_FINGERPRINT>
10 15 6555407609227995318
10066227 49 18409165540906203903
106641 1 6122495804912199007
10669705 176 18271811267895375669
10670039 82 16415199026717740732
10693767 8 18343306998163736802
10730089 47 18260266334708528647
125118 31 10663831775402911191
12670543 26 17989203767815534568
12838863 1 18129103510886489818
12954195 1 18058730359306969044
13177829 20 8718825388454253653
13533116 47 18333729118467602576
13668630 136 18260827129036890430
14251757 52 11167939160919497926
14251764 18 6627751106886731025
14428016 248 13398628381827493159
14617042 71 9078820901753227290
14849402 71 9583507720838284263
15048467 5 10519984855088978188
15183329 4 17417808491783394378
15461852 350 12607406551984720923
15690457 1 17967816072212119310
15706992 2 10519695730770544046
17093844 174 5545204922585403507
2026 5 18335419131531657814
21095086 128 18408885119129709007
21095123 145 14404893693033228113
21267235 1 18060133224906955769
21315759 40 18261104163069962913
21344244 246 18269552909382383794
21521239 73 18343301466087233618
21637258 2 17749111092758901848
21792934 111 4895557359446083867
221357 26 18202847647083762421
2215653 11 17989198266526723042
22224240 67 7493288841804564061
23035841 295 18040714745579587655
23559900 14 18339643326166065616
23569943 247 18267864067652865706
28498 318 18413108381149864117
3004659 81 17917708024889137856
33532 11 18335421261623679711
5104073 3 5544654002207611470
5283156 175 18260828211305020529
54076057 255 13182730434554923054
6438161 24 18409733976170756434

> <PUBCHEM_SHAPE_MULTIPOLES>
428.14
25.7
1.91
1.16
12.24
0.99
0.32
16.31
-9.3
-3.34
-0.44
0.27
0.01
0.18

> <PUBCHEM_SHAPE_SELFOVERLAP>
831.816

> <PUBCHEM_SHAPE_VOLUME>
260.3

> <PUBCHEM_COORDINATE_TYPE>
2
5
10

$$$$

