161227
  -OEChem-07051212443D

 22 21  0     1  0  0  0  0  0999 V2000
   -0.8545    1.4190    0.8899 O   0  0  0  0  0  0  0  0  0  0  0  0
   -3.1953    1.0414   -0.6314 O   0  0  0  0  0  0  0  0  0  0  0  0
   -3.8102   -1.5166    0.3280 O   0  0  0  0  0  0  0  0  0  0  0  0
    1.8719    1.5122    0.1145 O   0  0  0  0  0  0  0  0  0  0  0  0
    3.9706    0.1123    0.1866 O   0  0  0  0  0  0  0  0  0  0  0  0
    2.7546   -1.7882   -0.2305 O   0  0  0  0  0  0  0  0  0  0  0  0
   -0.8253    0.7013   -0.3435 C   0  0  2  0  0  0  0  0  0  0  0  0
   -2.1919    0.0294   -0.5451 C   0  0  1  0  0  0  0  0  0  0  0  0
    0.3149   -0.3256   -0.2940 C   0  0  0  0  0  0  0  0  0  0  0  0
   -2.5519   -0.9102    0.6062 C   0  0  0  0  0  0  0  0  0  0  0  0
    1.6631    0.3201   -0.0535 C   0  0  0  0  0  0  0  0  0  0  0  0
    2.8540   -0.5952   -0.0271 C   0  0  0  0  0  0  0  0  0  0  0  0
   -0.6436    1.4367   -1.1361 H   0  0  0  0  0  0  0  0  0  0  0  0
   -2.2036   -0.5156   -1.4964 H   0  0  0  0  0  0  0  0  0  0  0  0
    0.1757   -1.0215    0.5393 H   0  0  0  0  0  0  0  0  0  0  0  0
    0.3549   -0.8840   -1.2349 H   0  0  0  0  0  0  0  0  0  0  0  0
   -1.8308   -1.7218    0.7199 H   0  0  0  0  0  0  0  0  0  0  0  0
   -2.6454   -0.3804    1.5595 H   0  0  0  0  0  0  0  0  0  0  0  0
   -1.5864    2.0573    0.8382 H   0  0  0  0  0  0  0  0  0  0  0  0
   -4.0169    0.6165   -0.9301 H   0  0  0  0  0  0  0  0  0  0  0  0
   -4.4929   -0.8300    0.4141 H   0  0  0  0  0  0  0  0  0  0  0  0
    4.7737   -0.4510    0.1857 H   0  0  0  0  0  0  0  0  0  0  0  0
  1  7  1  0  0  0  0
  1 19  1  0  0  0  0
  2  8  1  0  0  0  0
  2 20  1  0  0  0  0
  3 10  1  0  0  0  0
  3 21  1  0  0  0  0
  4 11  2  0  0  0  0
  5 12  1  0  0  0  0
  5 22  1  0  0  0  0
  6 12  2  0  0  0  0
  7  8  1  0  0  0  0
  7  9  1  0  0  0  0
  7 13  1  0  0  0  0
  8 10  1  0  0  0  0
  8 14  1  0  0  0  0
  9 11  1  0  0  0  0
  9 15  1  0  0  0  0
  9 16  1  0  0  0  0
 10 17  1  0  0  0  0
 10 18  1  0  0  0  0
 11 12  1  0  0  0  0
M  END
> <PUBCHEM_COMPOUND_CID>
161227

> <PUBCHEM_CONFORMER_RMSD>
0.6

> <PUBCHEM_CONFORMER_DIVERSEORDER>
4
55
59
21
14
43
23
5
60
15
1
27
53
41
47
39
58
3
54
29
40
46
2
50
20
51
26
13
17
38
52
49
36
12
8
19
34
11
37
18
22
6
30
45
16
56
10
44
35
32
42
57
28
24
25
7
48
31
33
9

> <PUBCHEM_MMFF94_PARTIAL_CHARGES>
16
1 -0.68
10 0.28
11 0.51
12 0.72
19 0.4
2 -0.68
20 0.4
21 0.4
22 0.5
3 -0.68
4 -0.57
5 -0.65
6 -0.57
7 0.28
8 0.28
9 0.06

> <PUBCHEM_EFFECTIVE_ROTOR_COUNT>
5

> <PUBCHEM_PHARMACOPHORE_FEATURES>
10
1 1 acceptor
1 1 donor
1 2 acceptor
1 2 donor
1 3 acceptor
1 3 donor
1 4 acceptor
1 5 acceptor
1 6 acceptor
3 5 6 12 anion

> <PUBCHEM_HEAVY_ATOM_COUNT>
12

> <PUBCHEM_ATOM_DEF_STEREO_COUNT>
2

> <PUBCHEM_ATOM_UDEF_STEREO_COUNT>
0

> <PUBCHEM_BOND_DEF_STEREO_COUNT>
0

> <PUBCHEM_BOND_UDEF_STEREO_COUNT>
0

> <PUBCHEM_ISOTOPIC_ATOM_COUNT>
0

> <PUBCHEM_COMPONENT_COUNT>
1

> <PUBCHEM_CACTVS_TAUTO_COUNT>
2

> <PUBCHEM_CONFORMER_ID>
000275CB00000004

> <PUBCHEM_MMFF94_ENERGY>
21.1791

> <PUBCHEM_FEATURE_SELFOVERLAP>
50.832

> <PUBCHEM_SHAPE_FINGERPRINT>
11769659 78 18343305872354342418
12932764 1 17749394719508966173
13296908 3 18411700993228525415
14144814 61 18260828236953530914
14252887 29 17822002117111909094
14325111 11 18413390942642550244
14350558 41 18271518723890825774
177051 138 18410853248225565023
20201158 50 18411982463863023370
20279233 1 18412547630098573814
20281407 28 18410852174483481106
20645477 70 18042132118567121854
22485316 2 18060424650726701250
23402539 116 15482397520829658326
25610 137 18335698308615611184
3248919 1 18411425037363963372
3312278 4 18410574015263721081

> <PUBCHEM_SHAPE_MULTIPOLES>
211.74
6.44
1.5
0.75
0.44
0.15
-0.03
1.96
-0.16
-0.19
-0.12
-0.28
-0.07
0.47

> <PUBCHEM_SHAPE_SELFOVERLAP>
409.614

> <PUBCHEM_SHAPE_VOLUME>
126.9

> <PUBCHEM_COORDINATE_TYPE>
2
5
10

$$$$

