51090997
  -OEChem-06241223012D

 35 36  0     0  0  0  0  0  0999 V2000
    2.0000    1.7990    0.0000 Br  0  0  0  0  0  0  0  0  0  0  0  0
    9.1279    0.7990    0.0000 O   0  0  0  0  0  0  0  0  0  0  0  0
    4.5981    1.2990    0.0000 N   0  0  0  0  0  0  0  0  0  0  0  0
    5.5443   -0.0057    0.0000 N   0  0  0  0  0  0  0  0  0  0  0  0
    7.6279   -0.0670    0.0000 N   0  0  0  0  0  0  0  0  0  0  0  0
    6.1279    0.7990    0.0000 C   0  0  0  0  0  0  0  0  0  0  0  0
    7.1279    0.7990    0.0000 C   0  0  0  0  0  0  0  0  0  0  0  0
    4.5981    0.2990    0.0000 C   0  0  0  0  0  0  0  0  0  0  0  0
    5.5443    1.6038    0.0000 C   0  0  0  0  0  0  0  0  0  0  0  0
    3.7320    1.7990    0.0000 C   0  0  0  0  0  0  0  0  0  0  0  0
    3.7320   -0.2010    0.0000 C   0  0  0  0  0  0  0  0  0  0  0  0
    9.1279   -0.9330    0.0000 C   0  0  0  0  0  0  0  0  0  0  0  0
    8.6279   -0.0670    0.0000 C   0  0  0  0  0  0  0  0  0  0  0  0
    2.8660    1.2990    0.0000 C   0  0  0  0  0  0  0  0  0  0  0  0
    2.8660    0.2990    0.0000 C   0  0  0  0  0  0  0  0  0  0  0  0
   10.1279   -0.9330    0.0000 C   0  0  0  0  0  0  0  0  0  0  0  0
   10.6279   -0.0670    0.0000 C   0  0  0  0  0  0  0  0  0  0  0  0
    8.6279   -1.7990    0.0000 C   0  0  0  0  0  0  0  0  0  0  0  0
   11.6279   -0.0670    0.0000 C   0  0  0  0  0  0  0  0  0  0  0  0
    7.7105    1.0111    0.0000 H   0  0  0  0  0  0  0  0  0  0  0  0
    7.0202    1.4096    0.0000 H   0  0  0  0  0  0  0  0  0  0  0  0
    5.7369    2.1931    0.0000 H   0  0  0  0  0  0  0  0  0  0  0  0
    7.3179   -0.6039    0.0000 H   0  0  0  0  0  0  0  0  0  0  0  0
    3.7320    2.4190    0.0000 H   0  0  0  0  0  0  0  0  0  0  0  0
    3.7320   -0.8210    0.0000 H   0  0  0  0  0  0  0  0  0  0  0  0
    2.3291   -0.0110    0.0000 H   0  0  0  0  0  0  0  0  0  0  0  0
   10.4379   -1.4700    0.0000 H   0  0  0  0  0  0  0  0  0  0  0  0
   10.7356    0.5436    0.0000 H   0  0  0  0  0  0  0  0  0  0  0  0
   10.0453    0.1451    0.0000 H   0  0  0  0  0  0  0  0  0  0  0  0
    8.0910   -1.4890    0.0000 H   0  0  0  0  0  0  0  0  0  0  0  0
    8.3179   -2.3360    0.0000 H   0  0  0  0  0  0  0  0  0  0  0  0
    9.1648   -2.1090    0.0000 H   0  0  0  0  0  0  0  0  0  0  0  0
   11.6279   -0.6870    0.0000 H   0  0  0  0  0  0  0  0  0  0  0  0
   12.2479   -0.0670    0.0000 H   0  0  0  0  0  0  0  0  0  0  0  0
   11.6279    0.5530    0.0000 H   0  0  0  0  0  0  0  0  0  0  0  0
  1 14  1  0  0  0  0
  2 13  2  0  0  0  0
  3  8  1  0  0  0  0
  3  9  1  0  0  0  0
  3 10  1  0  0  0  0
  4  6  1  0  0  0  0
  4  8  2  0  0  0  0
  5  7  1  0  0  0  0
  5 13  1  0  0  0  0
  5 23  1  0  0  0  0
  6  7  1  0  0  0  0
  6  9  2  0  0  0  0
  7 20  1  0  0  0  0
  7 21  1  0  0  0  0
  8 11  1  0  0  0  0
  9 22  1  0  0  0  0
 10 14  2  0  0  0  0
 10 24  1  0  0  0  0
 11 15  2  0  0  0  0
 11 25  1  0  0  0  0
 12 13  1  0  0  0  0
 12 16  2  0  0  0  0
 12 18  1  0  0  0  0
 14 15  1  0  0  0  0
 15 26  1  0  0  0  0
 16 17  1  0  0  0  0
 16 27  1  0  0  0  0
 17 19  1  0  0  0  0
 17 28  1  0  0  0  0
 17 29  1  0  0  0  0
 18 30  1  0  0  0  0
 18 31  1  0  0  0  0
 18 32  1  0  0  0  0
 19 33  1  0  0  0  0
 19 34  1  0  0  0  0
 19 35  1  0  0  0  0
M  END
> <PUBCHEM_COMPOUND_CID>
51090997

> <PUBCHEM_COMPOUND_CANONICALIZED>
1

> <PUBCHEM_CACTVS_COMPLEXITY>
359

> <PUBCHEM_CACTVS_HBOND_ACCEPTOR>
2

> <PUBCHEM_CACTVS_HBOND_DONOR>
1

> <PUBCHEM_CACTVS_ROTATABLE_BOND>
4

> <PUBCHEM_CACTVS_SUBSKEYS>
AAADceBzIAAAEAAAAAAAAAAAAAAAAWAAAAAsAAAAAAAAAFgB4AAAHgBQAAABrAjBlwQ/sJ/MGACoAzd3dACCgC0xEqQJ2KE4dPiIaOLA2ZGUIAhohgLIy7YQAAAAAAAAAAAAAAAAAAAAAAAAAAAAAAAAAA==

> <PUBCHEM_IUPAC_OPENEYE_NAME>
(Z)-N-[(6-bromoimidazo[1,2-a]pyridin-2-yl)methyl]-2-methyl-pent-2-enamide

> <PUBCHEM_IUPAC_CAS_NAME>
(Z)-N-[(6-bromo-2-imidazo[1,2-a]pyridinyl)methyl]-2-methyl-2-pentenamide

> <PUBCHEM_IUPAC_NAME>
(Z)-N-[(6-bromoimidazo[1,2-a]pyridin-2-yl)methyl]-2-methylpent-2-enamide

> <PUBCHEM_IUPAC_SYSTEMATIC_NAME>
(Z)-N-[(6-bromanylimidazo[1,2-a]pyridin-2-yl)methyl]-2-methyl-pent-2-enamide

> <PUBCHEM_IUPAC_TRADITIONAL_NAME>
(Z)-N-[(6-bromoimidazo[1,2-a]pyridin-2-yl)methyl]-2-methyl-pent-2-enamide

> <PUBCHEM_IUPAC_INCHI>
InChI=1S/C14H16BrN3O/c1-3-4-10(2)14(19)16-7-12-9-18-8-11(15)5-6-13(18)17-12/h4-6,8-9H,3,7H2,1-2H3,(H,16,19)/b10-4-

> <PUBCHEM_IUPAC_INCHIKEY>
JLWNQFJPNOJDCD-WMZJFQQLSA-N

> <PUBCHEM_XLOGP3_AA>
3.2

> <PUBCHEM_EXACT_MASS>
321.047674

> <PUBCHEM_MOLECULAR_FORMULA>
C14H16BrN3O

> <PUBCHEM_MOLECULAR_WEIGHT>
322.20034

> <PUBCHEM_OPENEYE_CAN_SMILES>
CCC=C(C)C(=O)NCC1=CN2C=C(C=CC2=N1)Br

> <PUBCHEM_OPENEYE_ISO_SMILES>
CC/C=C(/C)\C(=O)NCC1=CN2C=C(C=CC2=N1)Br

> <PUBCHEM_CACTVS_TPSA>
46.4

> <PUBCHEM_MONOISOTOPIC_WEIGHT>
321.047674

> <PUBCHEM_TOTAL_CHARGE>
0

> <PUBCHEM_HEAVY_ATOM_COUNT>
19

> <PUBCHEM_ATOM_DEF_STEREO_COUNT>
0

> <PUBCHEM_ATOM_UDEF_STEREO_COUNT>
0

> <PUBCHEM_BOND_DEF_STEREO_COUNT>
1

> <PUBCHEM_BOND_UDEF_STEREO_COUNT>
0

> <PUBCHEM_ISOTOPIC_ATOM_COUNT>
0

> <PUBCHEM_COMPONENT_COUNT>
1

> <PUBCHEM_CACTVS_TAUTO_COUNT>
2

> <PUBCHEM_COORDINATE_TYPE>
1
5
255

> <PUBCHEM_BONDANNOTATIONS>
10  14  8
11  15  8
14  15  8
3  10  8
3  8  8
3  9  8
4  6  8
4  8  8
6  9  8
8  11  8

$$$$

