336
  -OEChem-07051212473D

 15 14  0     1  0  0  0  0  0999 V2000
   -1.2318   -1.8809   -0.1101 O   0  0  0  0  0  0  0  0  0  0  0  0
   -1.0596    1.3886   -0.8910 O   0  0  0  0  0  0  0  0  0  0  0  0
   -2.6808    0.5462    0.4433 O   0  0  0  0  0  0  0  0  0  0  0  0
    1.8100    0.6164    1.2497 O   0  0  0  0  0  0  0  0  0  0  0  0
    0.6701   -0.5689   -0.3967 N   0  0  0  0  0  0  0  0  0  0  0  0
    2.8677    0.0286   -0.7018 N   0  0  0  0  0  0  0  0  0  0  0  0
   -0.6047   -0.6752    0.2794 C   0  0  1  0  0  0  0  0  0  0  0  0
   -1.5479    0.4737   -0.0205 C   0  0  0  0  0  0  0  0  0  0  0  0
    1.7771    0.0715    0.1477 C   0  0  0  0  0  0  0  0  0  0  0  0
   -0.4216   -0.6914    1.3593 H   0  0  0  0  0  0  0  0  0  0  0  0
    0.7456   -0.9568   -1.3317 H   0  0  0  0  0  0  0  0  0  0  0  0
   -2.0037   -2.0107    0.4672 H   0  0  0  0  0  0  0  0  0  0  0  0
    3.7519    0.4537   -0.4433 H   0  0  0  0  0  0  0  0  0  0  0  0
    2.8206   -0.4268   -1.6070 H   0  0  0  0  0  0  0  0  0  0  0  0
   -1.7086    2.0999   -1.0784 H   0  0  0  0  0  0  0  0  0  0  0  0
  1  7  1  0  0  0  0
  1 12  1  0  0  0  0
  2  8  1  0  0  0  0
  2 15  1  0  0  0  0
  3  8  2  0  0  0  0
  4  9  2  0  0  0  0
  5  7  1  0  0  0  0
  5  9  1  0  0  0  0
  5 11  1  0  0  0  0
  6  9  1  0  0  0  0
  6 13  1  0  0  0  0
  6 14  1  0  0  0  0
  7  8  1  0  0  0  0
  7 10  1  0  0  0  0
M  END
> <PUBCHEM_COMPOUND_CID>
336

> <PUBCHEM_CONFORMER_RMSD>
0.6

> <PUBCHEM_CONFORMER_DIVERSEORDER>
1
3
4
9
8
6
7
2
5

> <PUBCHEM_MMFF94_PARTIAL_CHARGES>
14
1 -0.68
11 0.37
12 0.4
13 0.37
14 0.37
15 0.5
2 -0.65
3 -0.57
4 -0.57
5 -0.73
6 -0.8
7 0.64
8 0.66
9 0.69

> <PUBCHEM_EFFECTIVE_ROTOR_COUNT>
3

> <PUBCHEM_PHARMACOPHORE_FEATURES>
8
1 1 acceptor
1 1 donor
1 2 acceptor
1 3 acceptor
1 4 acceptor
1 5 donor
1 6 donor
3 2 3 8 anion

> <PUBCHEM_HEAVY_ATOM_COUNT>
9

> <PUBCHEM_ATOM_DEF_STEREO_COUNT>
0

> <PUBCHEM_ATOM_UDEF_STEREO_COUNT>
1

> <PUBCHEM_BOND_DEF_STEREO_COUNT>
0

> <PUBCHEM_BOND_UDEF_STEREO_COUNT>
0

> <PUBCHEM_ISOTOPIC_ATOM_COUNT>
0

> <PUBCHEM_COMPONENT_COUNT>
1

> <PUBCHEM_CACTVS_TAUTO_COUNT>
3

> <PUBCHEM_CONFORMER_ID>
0000015000000001

> <PUBCHEM_MMFF94_ENERGY>
10.1328

> <PUBCHEM_FEATURE_SELFOVERLAP>
40.754

> <PUBCHEM_SHAPE_FINGERPRINT>
10857977 72 18202556264086420161
12932741 1 17894630310191858586
16714656 1 18343013402340247997
20653085 51 16081079402982748393
21040471 1 18339648943930027570
23235685 24 18335980955970661524
24536 1 17604161336892593776
29004967 10 16805593772828080286
5084963 1 18271242853804082387
54338 74 17985843526978802875

> <PUBCHEM_SHAPE_MULTIPOLES>
151.78
3.51
1.27
0.88
1.03
0.39
-0.11
-0.63
-0.04
-0.69
0.16
0.3
-0.19
0.19

> <PUBCHEM_SHAPE_SELFOVERLAP>
290.083

> <PUBCHEM_SHAPE_VOLUME>
92.3

> <PUBCHEM_COORDINATE_TYPE>
2
5
10

$$$$

