23724584
  -OEChem-07051213083D

 78 81  0     1  0  0  0  0  0999 V2000
    5.0352   -2.5475   -1.1273 O   0  0  0  0  0  0  0  0  0  0  0  0
   -3.9200   -0.5788    2.4632 O   0  0  0  0  0  0  0  0  0  0  0  0
    8.0668    1.0701    0.8471 O   0  0  0  0  0  0  0  0  0  0  0  0
   -6.4651   -0.5293    1.6801 O   0  0  0  0  0  0  0  0  0  0  0  0
   -0.3513   -0.0317   -0.0205 C   0  0  1  0  0  0  0  0  0  0  0  0
    0.6507   -1.1577    0.3123 C   0  0  2  0  0  0  0  0  0  0  0  0
    2.0406   -0.9189   -0.2867 C   0  0  1  0  0  0  0  0  0  0  0  0
    2.6047    0.4279    0.2770 C   0  0  1  0  0  0  0  0  0  0  0  0
   -1.6123   -0.6126    0.6651 C   0  0  2  0  0  0  0  0  0  0  0  0
    4.0546    0.7318   -0.2677 C   0  0  2  0  0  0  0  0  0  0  0  0
    0.1799    1.2665    0.6026 C   0  0  0  0  0  0  0  0  0  0  0  0
   -0.1048   -2.4316   -0.0552 C   0  0  0  0  0  0  0  0  0  0  0  0
    1.5988    1.5975    0.1050 C   0  0  0  0  0  0  0  0  0  0  0  0
   -1.5700   -2.1142    0.2965 C   0  0  0  0  0  0  0  0  0  0  0  0
    4.9666   -0.4705    0.1178 C   0  0  1  0  0  0  0  0  0  0  0  0
    2.9812   -2.0897    0.0138 C   0  0  0  0  0  0  0  0  0  0  0  0
   -2.9406    0.0447    0.3190 C   0  0  1  0  0  0  0  0  0  0  0  0
   -0.5881    0.1773   -1.5373 C   0  0  0  0  0  0  0  0  0  0  0  0
    4.6415    1.9928    0.4289 C   0  0  0  0  0  0  0  0  0  0  0  0
    4.3901   -1.7682   -0.4289 C   0  0  0  0  0  0  0  0  0  0  0  0
    4.0393    0.9651   -1.7991 C   0  0  0  0  0  0  0  0  0  0  0  0
    6.4316   -0.2770   -0.2681 C   0  0  0  0  0  0  0  0  0  0  0  0
   -4.1571   -0.5825    1.0484 C   0  0  2  0  0  0  0  0  0  0  0  0
    6.1151    2.2502    0.1182 C   0  0  0  0  0  0  0  0  0  0  0  0
   -2.8598    1.5508    0.6158 C   0  0  0  0  0  0  0  0  0  0  0  0
    6.9555    1.0113    0.3214 C   0  0  0  0  0  0  0  0  0  0  0  0
   -5.5243    0.0998    0.8042 C   0  0  1  0  0  0  0  0  0  0  0  0
   -6.0405    0.0750   -0.6624 C   0  0  2  0  0  0  0  0  0  0  0  0
   -7.3562    0.9047   -0.8167 C   0  0  0  0  0  0  0  0  0  0  0  0
   -6.1583   -1.3491   -1.2228 C   0  0  0  0  0  0  0  0  0  0  0  0
   -7.3042    2.3291   -0.2576 C   0  0  0  0  0  0  0  0  0  0  0  0
   -7.7998    0.9646   -2.2859 C   0  0  0  0  0  0  0  0  0  0  0  0
    0.7842   -1.1911    1.4069 H   0  0  0  0  0  0  0  0  0  0  0  0
    1.9525   -0.8469   -1.3756 H   0  0  0  0  0  0  0  0  0  0  0  0
    2.7047    0.2902    1.3656 H   0  0  0  0  0  0  0  0  0  0  0  0
   -1.4648   -0.5441    1.7535 H   0  0  0  0  0  0  0  0  0  0  0  0
   -0.4247    2.1428    0.3751 H   0  0  0  0  0  0  0  0  0  0  0  0
    0.2053    1.1778    1.6964 H   0  0  0  0  0  0  0  0  0  0  0  0
    0.2588   -3.2994    0.5045 H   0  0  0  0  0  0  0  0  0  0  0  0
   -0.0093   -2.6615   -1.1224 H   0  0  0  0  0  0  0  0  0  0  0  0
    1.5460    1.9053   -0.9437 H   0  0  0  0  0  0  0  0  0  0  0  0
    1.9485    2.4719    0.6653 H   0  0  0  0  0  0  0  0  0  0  0  0
   -1.9090   -2.7261    1.1399 H   0  0  0  0  0  0  0  0  0  0  0  0
   -2.2126   -2.3501   -0.5594 H   0  0  0  0  0  0  0  0  0  0  0  0
    4.9439   -0.5834    1.2128 H   0  0  0  0  0  0  0  0  0  0  0  0
    2.6489   -2.9915   -0.5121 H   0  0  0  0  0  0  0  0  0  0  0  0
    3.0090   -2.3180    1.0854 H   0  0  0  0  0  0  0  0  0  0  0  0
   -3.1323   -0.0682   -0.7548 H   0  0  0  0  0  0  0  0  0  0  0  0
    0.3373    0.3868   -2.0807 H   0  0  0  0  0  0  0  0  0  0  0  0
   -1.0361   -0.7008   -2.0134 H   0  0  0  0  0  0  0  0  0  0  0  0
   -1.2519    1.0234   -1.7359 H   0  0  0  0  0  0  0  0  0  0  0  0
    4.0761    2.8884    0.1468 H   0  0  0  0  0  0  0  0  0  0  0  0
    4.5326    1.8828    1.5163 H   0  0  0  0  0  0  0  0  0  0  0  0
    5.0388    1.1523   -2.2019 H   0  0  0  0  0  0  0  0  0  0  0  0
    3.6428    0.1064   -2.3478 H   0  0  0  0  0  0  0  0  0  0  0  0
    3.4334    1.8372   -2.0639 H   0  0  0  0  0  0  0  0  0  0  0  0
    7.0318   -1.1065    0.1247 H   0  0  0  0  0  0  0  0  0  0  0  0
    6.5811   -0.2566   -1.3523 H   0  0  0  0  0  0  0  0  0  0  0  0
   -4.2350   -1.6427    0.7898 H   0  0  0  0  0  0  0  0  0  0  0  0
    6.2515    2.5904   -0.9132 H   0  0  0  0  0  0  0  0  0  0  0  0
    6.4902    3.0407    0.7778 H   0  0  0  0  0  0  0  0  0  0  0  0
   -3.8312    2.0463    0.5817 H   0  0  0  0  0  0  0  0  0  0  0  0
   -2.4283    1.7570    1.6003 H   0  0  0  0  0  0  0  0  0  0  0  0
   -2.3010    2.0782   -0.1576 H   0  0  0  0  0  0  0  0  0  0  0  0
   -5.4682    1.1238    1.1756 H   0  0  0  0  0  0  0  0  0  0  0  0
   -5.2833    0.5868   -1.2717 H   0  0  0  0  0  0  0  0  0  0  0  0
   -3.9204    0.3449    2.7655 H   0  0  0  0  0  0  0  0  0  0  0  0
   -8.1554    0.3797   -0.2766 H   0  0  0  0  0  0  0  0  0  0  0  0
   -7.2719    0.0119    1.6936 H   0  0  0  0  0  0  0  0  0  0  0  0
   -6.9379   -1.9138   -0.7016 H   0  0  0  0  0  0  0  0  0  0  0  0
   -5.2178   -1.8990   -1.1296 H   0  0  0  0  0  0  0  0  0  0  0  0
   -6.3963   -1.3440   -2.2903 H   0  0  0  0  0  0  0  0  0  0  0  0
   -7.2230    2.3319    0.8332 H   0  0  0  0  0  0  0  0  0  0  0  0
   -6.4528    2.8809   -0.6696 H   0  0  0  0  0  0  0  0  0  0  0  0
   -8.2168    2.8830   -0.5036 H   0  0  0  0  0  0  0  0  0  0  0  0
   -8.0807   -0.0223   -2.6649 H   0  0  0  0  0  0  0  0  0  0  0  0
   -7.0060    1.3693   -2.9225 H   0  0  0  0  0  0  0  0  0  0  0  0
   -8.6822    1.6038   -2.4024 H   0  0  0  0  0  0  0  0  0  0  0  0
  1 20  2  0  0  0  0
  2 23  1  0  0  0  0
  2 67  1  0  0  0  0
  3 26  2  0  0  0  0
  4 27  1  0  0  0  0
  4 69  1  0  0  0  0
  5  6  1  0  0  0  0
  5  9  1  0  0  0  0
  5 11  1  0  0  0  0
  5 18  1  0  0  0  0
  6  7  1  0  0  0  0
  6 12  1  0  0  0  0
  6 33  1  0  0  0  0
  7  8  1  0  0  0  0
  7 16  1  0  0  0  0
  7 34  1  0  0  0  0
  8 10  1  0  0  0  0
  8 13  1  0  0  0  0
  8 35  1  0  0  0  0
  9 14  1  0  0  0  0
  9 17  1  0  0  0  0
  9 36  1  0  0  0  0
 10 15  1  0  0  0  0
 10 19  1  0  0  0  0
 10 21  1  0  0  0  0
 11 13  1  0  0  0  0
 11 37  1  0  0  0  0
 11 38  1  0  0  0  0
 12 14  1  0  0  0  0
 12 39  1  0  0  0  0
 12 40  1  0  0  0  0
 13 41  1  0  0  0  0
 13 42  1  0  0  0  0
 14 43  1  0  0  0  0
 14 44  1  0  0  0  0
 15 20  1  0  0  0  0
 15 22  1  0  0  0  0
 15 45  1  0  0  0  0
 16 20  1  0  0  0  0
 16 46  1  0  0  0  0
 16 47  1  0  0  0  0
 17 23  1  0  0  0  0
 17 25  1  0  0  0  0
 17 48  1  0  0  0  0
 18 49  1  0  0  0  0
 18 50  1  0  0  0  0
 18 51  1  0  0  0  0
 19 24  1  0  0  0  0
 19 52  1  0  0  0  0
 19 53  1  0  0  0  0
 21 54  1  0  0  0  0
 21 55  1  0  0  0  0
 21 56  1  0  0  0  0
 22 26  1  0  0  0  0
 22 57  1  0  0  0  0
 22 58  1  0  0  0  0
 23 27  1  0  0  0  0
 23 59  1  0  0  0  0
 24 26  1  0  0  0  0
 24 60  1  0  0  0  0
 24 61  1  0  0  0  0
 25 62  1  0  0  0  0
 25 63  1  0  0  0  0
 25 64  1  0  0  0  0
 27 28  1  0  0  0  0
 27 65  1  0  0  0  0
 28 29  1  0  0  0  0
 28 30  1  0  0  0  0
 28 66  1  0  0  0  0
 29 31  1  0  0  0  0
 29 32  1  0  0  0  0
 29 68  1  0  0  0  0
 30 70  1  0  0  0  0
 30 71  1  0  0  0  0
 30 72  1  0  0  0  0
 31 73  1  0  0  0  0
 31 74  1  0  0  0  0
 31 75  1  0  0  0  0
 32 76  1  0  0  0  0
 32 77  1  0  0  0  0
 32 78  1  0  0  0  0
M  END
> <PUBCHEM_COMPOUND_CID>
23724584

> <PUBCHEM_CONFORMER_RMSD>
0.8

> <PUBCHEM_CONFORMER_DIVERSEORDER>
1
10
7
9
14
2
11
6
13
4
12
15
3
8
5

> <PUBCHEM_MMFF94_PARTIAL_CHARGES>
14
1 -0.57
15 0.06
16 0.06
2 -0.68
20 0.45
22 0.06
23 0.28
24 0.06
26 0.45
27 0.28
3 -0.57
4 -0.68
67 0.4
69 0.4

> <PUBCHEM_EFFECTIVE_ROTOR_COUNT>
6.8

> <PUBCHEM_PHARMACOPHORE_FEATURES>
13
1 1 acceptor
1 2 acceptor
1 2 donor
1 25 hydrophobe
1 3 acceptor
1 30 hydrophobe
1 4 acceptor
1 4 donor
3 29 31 32 hydrophobe
5 5 6 9 12 14 rings
6 10 15 19 22 24 26 rings
6 5 6 7 8 11 13 rings
6 7 8 10 15 16 20 rings

> <PUBCHEM_HEAVY_ATOM_COUNT>
32

> <PUBCHEM_ATOM_DEF_STEREO_COUNT>
10

> <PUBCHEM_ATOM_UDEF_STEREO_COUNT>
1

> <PUBCHEM_BOND_DEF_STEREO_COUNT>
0

> <PUBCHEM_BOND_UDEF_STEREO_COUNT>
0

> <PUBCHEM_ISOTOPIC_ATOM_COUNT>
0

> <PUBCHEM_COMPONENT_COUNT>
1

> <PUBCHEM_CACTVS_TAUTO_COUNT>
9

> <PUBCHEM_CONFORMER_ID>
016A022800000001

> <PUBCHEM_MMFF94_ENERGY>
113.8334

> <PUBCHEM_FEATURE_SELFOVERLAP>
66.075

> <PUBCHEM_SHAPE_FINGERPRINT>
10 15 18201999881586601744
10411042 1 17904196277026119246
10763959 59 18202281386158831989
10835480 77 18343022211887949193
11135609 187 18333737905068889159
11315181 36 17313104134274831787
12082328 90 18333452054675291677
12236239 1 17530961397396948251
12788726 201 16878208862416589058
12838862 33 18335433344210552896
13383665 225 17845072117700110340
13533116 47 17968090958751104930
13811026 1 18411981377214873610
14117953 113 18410289208447755412
14251764 18 17312820468237208504
14856354 85 15574717972255024973
15064986 266 18334581227642931295
15142383 8 17775569736902431780
15183329 4 17458345243273385509
15328829 1 17385729062478523548
1577012 14 17095515219343325699
18681886 176 16153437125594143827
20157964 124 18335419084512980494
20511986 3 18261118434893184454
21033648 29 17775282764283361659
21150785 3 16515405148881319869
21792934 111 18339934813470587848
21859007 373 17775013417803672133
23081809 10 17168136871373232531
23522609 53 17096625704465084505
23559900 14 18261676965314273977
23576562 1 18267027159331641949
24771293 8 18040429984600130864
249057 25 17386281111789311899
255183 451 17679290026691901814
2838139 119 18341896251767298293
335352 9 18335415769584075414
3633792 109 18334856159880833768
404807 78 14129349429390294268
4073 2 18202278061447865699
4169191 19 18409159991992905073
4340502 62 18411694371053729610
4760202 170 18336557092197232309
504579 68 17240484710900811405
5104073 3 18341038726965166992
6009941 240 17632856404096866801
6086070 43 17531533066112927379
6328613 192 18334297569931076095

> <PUBCHEM_SHAPE_MULTIPOLES>
635.07
22.21
2.36
1.42
13.27
0.39
-0.15
-9.11
-3.53
-1.47
-0.16
2.28
-0.03
1.47

> <PUBCHEM_SHAPE_SELFOVERLAP>
1322.453

> <PUBCHEM_SHAPE_VOLUME>
360.6

> <PUBCHEM_COORDINATE_TYPE>
2
5
10

$$$$

