440419
  -OEChem-07051212492D

 67 70  0     1  0  0  0  0  0999 V2000
    7.0628    1.2008    0.0000 O   0  0  0  0  0  0  0  0  0  0  0  0
    7.9506   -3.3307    0.0000 O   0  0  0  0  0  0  0  0  0  0  0  0
    2.5357   -3.3515    0.0000 O   0  0  0  0  0  0  0  0  0  0  0  0
   11.7640    3.2695    0.0000 O   0  0  0  0  0  0  0  0  0  0  0  0
   12.1212    1.5747    0.0000 O   0  0  0  0  0  0  0  0  0  0  0  0
    7.9288   -0.2992    0.0000 C   0  0  1  0  0  0  0  0  0  0  0  0
    7.9288   -1.2992    0.0000 C   0  0  2  0  0  0  0  0  0  0  0  0
    6.1968   -1.2992    0.0000 C   0  0  1  0  0  0  0  0  0  0  0  0
    7.0628   -1.7992    0.0000 C   0  0  1  0  0  0  0  0  0  0  0  0
    5.2868   -1.8060    0.0000 C   0  0  2  0  0  0  0  0  0  0  0  0
    8.8750    0.0055    0.0000 C   0  0  2  0  0  0  0  0  0  0  0  0
    7.0628    0.2008    0.0000 C   0  0  2  0  0  0  0  0  0  0  0  0
    6.1968   -0.2992    0.0000 C   0  0  0  0  0  0  0  0  0  0  0  0
    8.8750   -1.6039    0.0000 C   0  0  0  0  0  0  0  0  0  0  0  0
    5.2787   -2.8476    0.0000 C   0  0  2  0  0  0  0  0  0  0  0  0
    9.4586   -0.7992    0.0000 C   0  0  0  0  0  0  0  0  0  0  0  0
    7.0789   -2.8407    0.0000 C   0  0  0  0  0  0  0  0  0  0  0  0
    4.3599   -1.2420    0.0000 C   0  0  0  0  0  0  0  0  0  0  0  0
    6.1808   -3.3685    0.0000 C   0  0  0  0  0  0  0  0  0  0  0  0
    7.9288    0.7008    0.0000 C   0  0  0  0  0  0  0  0  0  0  0  0
    9.1857    0.9560    0.0000 C   0  0  2  0  0  0  0  0  0  0  0  0
    4.3433   -3.3974    0.0000 C   0  0  0  0  0  0  0  0  0  0  0  0
    5.2945   -0.8061    0.0000 C   0  0  0  0  0  0  0  0  0  0  0  0
    3.4120   -1.7699    0.0000 C   0  0  0  0  0  0  0  0  0  0  0  0
    3.4037   -2.8549    0.0000 C   0  0  1  0  0  0  0  0  0  0  0  0
   10.1642    1.1623    0.0000 C   0  0  0  0  0  0  0  0  0  0  0  0
    8.5179    1.7004    0.0000 C   0  0  0  0  0  0  0  0  0  0  0  0
   10.4749    2.1128    0.0000 C   0  0  0  0  0  0  0  0  0  0  0  0
   11.4534    2.3190    0.0000 C   0  0  0  0  0  0  0  0  0  0  0  0
    8.0188   -2.1444    0.0000 H   0  0  0  0  0  0  0  0  0  0  0  0
    6.9329   -0.8742    0.0000 H   0  0  0  0  0  0  0  0  0  0  0  0
    7.8022   -2.2185    0.0000 H   0  0  0  0  0  0  0  0  0  0  0  0
    9.7148    0.1374    0.0000 H   0  0  0  0  0  0  0  0  0  0  0  0
    7.5997    0.5108    0.0000 H   0  0  0  0  0  0  0  0  0  0  0  0
    5.9847    0.2834    0.0000 H   0  0  0  0  0  0  0  0  0  0  0  0
    5.5862   -0.4069    0.0000 H   0  0  0  0  0  0  0  0  0  0  0  0
    8.6240   -2.1708    0.0000 H   0  0  0  0  0  0  0  0  0  0  0  0
    9.4124   -1.9132    0.0000 H   0  0  0  0  0  0  0  0  0  0  0  0
    5.2820   -3.6976    0.0000 H   0  0  0  0  0  0  0  0  0  0  0  0
    9.9195   -1.2139    0.0000 H   0  0  0  0  0  0  0  0  0  0  0  0
    9.9195   -0.3845    0.0000 H   0  0  0  0  0  0  0  0  0  0  0  0
    4.7681   -0.7753    0.0000 H   0  0  0  0  0  0  0  0  0  0  0  0
    3.9700   -0.7599    0.0000 H   0  0  0  0  0  0  0  0  0  0  0  0
    5.7835   -3.8444    0.0000 H   0  0  0  0  0  0  0  0  0  0  0  0
    6.5818   -3.8414    0.0000 H   0  0  0  0  0  0  0  0  0  0  0  0
    8.5488    0.7008    0.0000 H   0  0  0  0  0  0  0  0  0  0  0  0
    7.9288    1.3208    0.0000 H   0  0  0  0  0  0  0  0  0  0  0  0
    7.3088    0.7008    0.0000 H   0  0  0  0  0  0  0  0  0  0  0  0
    9.3783    1.5454    0.0000 H   0  0  0  0  0  0  0  0  0  0  0  0
    3.9460   -3.8734    0.0000 H   0  0  0  0  0  0  0  0  0  0  0  0
    4.7443   -3.8703    0.0000 H   0  0  0  0  0  0  0  0  0  0  0  0
    5.9145   -0.8109    0.0000 H   0  0  0  0  0  0  0  0  0  0  0  0
    5.2993   -0.1861    0.0000 H   0  0  0  0  0  0  0  0  0  0  0  0
    4.6745   -0.8013    0.0000 H   0  0  0  0  0  0  0  0  0  0  0  0
    3.2075   -1.1846    0.0000 H   0  0  0  0  0  0  0  0  0  0  0  0
    2.8004   -1.8713    0.0000 H   0  0  0  0  0  0  0  0  0  0  0  0
    3.4025   -3.4749    0.0000 H   0  0  0  0  0  0  0  0  0  0  0  0
    6.5259    1.5108    0.0000 H   0  0  0  0  0  0  0  0  0  0  0  0
   10.1848    0.5426    0.0000 H   0  0  0  0  0  0  0  0  0  0  0  0
   10.7780    1.0749    0.0000 H   0  0  0  0  0  0  0  0  0  0  0  0
    8.9793    2.1144    0.0000 H   0  0  0  0  0  0  0  0  0  0  0  0
    8.1038    2.1618    0.0000 H   0  0  0  0  0  0  0  0  0  0  0  0
    8.0564    1.2863    0.0000 H   0  0  0  0  0  0  0  0  0  0  0  0
   10.4543    2.7324    0.0000 H   0  0  0  0  0  0  0  0  0  0  0  0
    9.8611    2.2001    0.0000 H   0  0  0  0  0  0  0  0  0  0  0  0
    2.0000   -3.0395    0.0000 H   0  0  0  0  0  0  0  0  0  0  0  0
   12.3707    3.3974    0.0000 H   0  0  0  0  0  0  0  0  0  0  0  0
 12  1  1  6  0  0  0
  1 58  1  0  0  0  0
  2 17  2  0  0  0  0
 25  3  1  6  0  0  0
  3 66  1  0  0  0  0
  4 29  1  0  0  0  0
  4 67  1  0  0  0  0
  5 29  2  0  0  0  0
  6  7  1  0  0  0  0
  6 11  1  0  0  0  0
  6 12  1  0  0  0  0
  6 20  1  1  0  0  0
  7  9  1  0  0  0  0
  7 14  1  0  0  0  0
  7 30  1  6  0  0  0
  8  9  1  0  0  0  0
  8 10  1  0  0  0  0
  8 13  1  0  0  0  0
  8 31  1  6  0  0  0
  9 17  1  0  0  0  0
  9 32  1  1  0  0  0
 10 15  1  0  0  0  0
 10 18  1  0  0  0  0
 10 23  1  1  0  0  0
 11 16  1  0  0  0  0
 11 21  1  0  0  0  0
 11 33  1  6  0  0  0
 12 13  1  0  0  0  0
 12 34  1  0  0  0  0
 13 35  1  0  0  0  0
 13 36  1  0  0  0  0
 14 16  1  0  0  0  0
 14 37  1  0  0  0  0
 14 38  1  0  0  0  0
 15 19  1  0  0  0  0
 15 22  1  0  0  0  0
 15 39  1  1  0  0  0
 16 40  1  0  0  0  0
 16 41  1  0  0  0  0
 17 19  1  0  0  0  0
 18 24  1  0  0  0  0
 18 42  1  0  0  0  0
 18 43  1  0  0  0  0
 19 44  1  0  0  0  0
 19 45  1  0  0  0  0
 20 46  1  0  0  0  0
 20 47  1  0  0  0  0
 20 48  1  0  0  0  0
 21 26  1  0  0  0  0
 21 27  1  1  0  0  0
 21 49  1  0  0  0  0
 22 25  1  0  0  0  0
 22 50  1  0  0  0  0
 22 51  1  0  0  0  0
 23 52  1  0  0  0  0
 23 53  1  0  0  0  0
 23 54  1  0  0  0  0
 24 25  1  0  0  0  0
 24 55  1  0  0  0  0
 24 56  1  0  0  0  0
 25 57  1  0  0  0  0
 26 28  1  0  0  0  0
 26 59  1  0  0  0  0
 26 60  1  0  0  0  0
 27 61  1  0  0  0  0
 27 62  1  0  0  0  0
 27 63  1  0  0  0  0
 28 29  1  0  0  0  0
 28 64  1  0  0  0  0
 28 65  1  0  0  0  0
M  END
> <PUBCHEM_COMPOUND_CID>
440419

> <PUBCHEM_COMPOUND_CANONICALIZED>
1

> <PUBCHEM_CACTVS_COMPLEXITY>
676

> <PUBCHEM_CACTVS_HBOND_ACCEPTOR>
5

> <PUBCHEM_CACTVS_HBOND_DONOR>
3

> <PUBCHEM_CACTVS_ROTATABLE_BOND>
4

> <PUBCHEM_CACTVS_SUBSKEYS>
AAADcfB4OAAAAAAAAAAAAAAAAAAAAYAAAAAwYMAAAAAAAGDAAAAAGgAACAAADxSggAICCAAAAgAIAICQCAAAAAAAAAAAAAEAAAAAEBIAAAAAQAAEAAAAAAGIzPDPgAAAAAAAAADAAAYAADAAAQAACAAAAA==

> <PUBCHEM_IUPAC_OPENEYE_NAME>
(4S)-4-[(3R,5S,8R,9S,10S,12S,13R,14S,17R)-3,12-dihydroxy-10,13-dimethyl-7-oxo-1,2,3,4,5,6,8,9,11,12,14,15,16,17-tetradecahydrocyclopenta[a]phenanthren-17-yl]pentanoic acid

> <PUBCHEM_IUPAC_CAS_NAME>
(4S)-4-[(3R,5S,8R,9S,10S,12S,13R,14S,17R)-3,12-dihydroxy-10,13-dimethyl-7-oxo-1,2,3,4,5,6,8,9,11,12,14,15,16,17-tetradecahydrocyclopenta[a]phenanthren-17-yl]pentanoic acid

> <PUBCHEM_IUPAC_NAME>
(4S)-4-[(3R,5S,8R,9S,10S,12S,13R,14S,17R)-3,12-dihydroxy-10,13-dimethyl-7-oxo-1,2,3,4,5,6,8,9,11,12,14,15,16,17-tetradecahydrocyclopenta[a]phenanthren-17-yl]pentanoic acid

> <PUBCHEM_IUPAC_SYSTEMATIC_NAME>
(4S)-4-[(3R,5S,8R,9S,10S,12S,13R,14S,17R)-10,13-dimethyl-3,12-bis(oxidanyl)-7-oxidanylidene-1,2,3,4,5,6,8,9,11,12,14,15,16,17-tetradecahydrocyclopenta[a]phenanthren-17-yl]pentanoic acid

> <PUBCHEM_IUPAC_TRADITIONAL_NAME>
(4S)-4-[(3R,5S,8R,9S,10S,12S,13R,14S,17R)-3,12-dihydroxy-7-keto-10,13-dimethyl-1,2,3,4,5,6,8,9,11,12,14,15,16,17-tetradecahydrocyclopenta[a]phenanthren-17-yl]valeric acid

> <PUBCHEM_IUPAC_INCHI>
InChI=1S/C24H38O5/c1-13(4-7-21(28)29)16-5-6-17-22-18(12-20(27)24(16,17)3)23(2)9-8-15(25)10-14(23)11-19(22)26/h13-18,20,22,25,27H,4-12H2,1-3H3,(H,28,29)/t13-,14-,15+,16+,17-,18-,20-,22-,23-,24+/m0/s1

> <PUBCHEM_IUPAC_INCHIKEY>
RHCPKKNRWFXMAT-SQWYQQCBSA-N

> <PUBCHEM_XLOGP3_AA>
3.3

> <PUBCHEM_EXACT_MASS>
406.271924

> <PUBCHEM_MOLECULAR_FORMULA>
C24H38O5

> <PUBCHEM_MOLECULAR_WEIGHT>
406.55552

> <PUBCHEM_OPENEYE_CAN_SMILES>
CC(CCC(=O)O)C1CCC2C1(C(CC3C2C(=O)CC4C3(CCC(C4)O)C)O)C

> <PUBCHEM_OPENEYE_ISO_SMILES>
C[C@@H](CCC(=O)O)[C@H]1CC[C@@H]2[C@@]1([C@H](C[C@H]3[C@H]2C(=O)C[C@H]4[C@@]3(CC[C@H](C4)O)C)O)C

> <PUBCHEM_CACTVS_TPSA>
94.8

> <PUBCHEM_MONOISOTOPIC_WEIGHT>
406.271924

> <PUBCHEM_TOTAL_CHARGE>
0

> <PUBCHEM_HEAVY_ATOM_COUNT>
29

> <PUBCHEM_ATOM_DEF_STEREO_COUNT>
10

> <PUBCHEM_ATOM_UDEF_STEREO_COUNT>
0

> <PUBCHEM_BOND_DEF_STEREO_COUNT>
0

> <PUBCHEM_BOND_UDEF_STEREO_COUNT>
0

> <PUBCHEM_ISOTOPIC_ATOM_COUNT>
0

> <PUBCHEM_COMPONENT_COUNT>
1

> <PUBCHEM_CACTVS_TAUTO_COUNT>
3

> <PUBCHEM_COORDINATE_TYPE>
1
5
255

> <PUBCHEM_BONDANNOTATIONS>
12  1  6
10  23  5
11  33  6
15  39  5
21  27  5
25  3  6
6  20  5
7  30  6
8  31  6
9  32  5

$$$$

