17396583
  -OEChem-06241222573D

 44 46  0     0  0  0  0  0  0999 V2000
    0.9858    2.3399   -0.1363 O   0  0  0  0  0  0  0  0  0  0  0  0
   -1.6395    1.6737   -0.3235 O   0  0  0  0  0  0  0  0  0  0  0  0
    1.5006   -4.0049    0.1007 O   0  0  0  0  0  0  0  0  0  0  0  0
    2.7081    3.5911   -1.0122 O   0  0  0  0  0  0  0  0  0  0  0  0
    0.6500   -1.9368   -0.3792 O   0  0  0  0  0  0  0  0  0  0  0  0
    2.8853   -2.2353    0.2654 N   0  0  0  0  0  0  0  0  0  0  0  0
   -3.2602    2.7366    0.7936 N   0  0  0  0  0  0  0  0  0  0  0  0
   -2.1998    3.6110    0.6446 N   0  0  0  0  0  0  0  0  0  0  0  0
    3.1372    1.4288   -0.1039 C   0  0  0  0  0  0  0  0  0  0  0  0
    3.4148   -0.9444    0.2546 C   0  0  0  0  0  0  0  0  0  0  0  0
    2.6074    0.1383   -0.0945 C   0  0  0  0  0  0  0  0  0  0  0  0
   -3.5876    0.3662    0.0624 C   0  0  0  0  0  0  0  0  0  0  0  0
    4.4741    1.6365    0.2354 C   0  0  0  0  0  0  0  0  0  0  0  0
    4.7517   -0.7366    0.5941 C   0  0  0  0  0  0  0  0  0  0  0  0
    0.0570    3.3813   -0.4467 C   0  0  0  0  0  0  0  0  0  0  0  0
   -2.8889    1.6192    0.2136 C   0  0  0  0  0  0  0  0  0  0  0  0
   -1.2769    2.9482   -0.0127 C   0  0  0  0  0  0  0  0  0  0  0  0
    5.2812    0.5539    0.5845 C   0  0  0  0  0  0  0  0  0  0  0  0
    2.2786    2.5816   -0.4758 C   0  0  0  0  0  0  0  0  0  0  0  0
   -2.9763   -0.6967   -0.6026 C   0  0  0  0  0  0  0  0  0  0  0  0
   -4.8743    0.2174    0.5804 C   0  0  0  0  0  0  0  0  0  0  0  0
   -3.6516   -1.9082   -0.7501 C   0  0  0  0  0  0  0  0  0  0  0  0
   -5.5495   -0.9943    0.4330 C   0  0  0  0  0  0  0  0  0  0  0  0
   -4.9381   -2.0570   -0.2323 C   0  0  0  0  0  0  0  0  0  0  0  0
    1.5894   -2.6453   -0.0385 C   0  0  0  0  0  0  0  0  0  0  0  0
    0.2202   -4.5831   -0.1780 C   0  0  0  0  0  0  0  0  0  0  0  0
    0.3013   -6.0813    0.0241 C   0  0  0  0  0  0  0  0  0  0  0  0
    1.5726    0.0212   -0.3823 H   0  0  0  0  0  0  0  0  0  0  0  0
    4.9010    2.6359    0.2356 H   0  0  0  0  0  0  0  0  0  0  0  0
    5.3923   -1.5709    0.8685 H   0  0  0  0  0  0  0  0  0  0  0  0
    0.0549    3.5645   -1.5267 H   0  0  0  0  0  0  0  0  0  0  0  0
    0.3457    4.2983    0.0788 H   0  0  0  0  0  0  0  0  0  0  0  0
    6.3219    0.7158    0.8497 H   0  0  0  0  0  0  0  0  0  0  0  0
    3.5297   -2.9767    0.5298 H   0  0  0  0  0  0  0  0  0  0  0  0
   -1.9757   -0.6181   -1.0198 H   0  0  0  0  0  0  0  0  0  0  0  0
   -5.3699    1.0325    1.1022 H   0  0  0  0  0  0  0  0  0  0  0  0
   -3.1752   -2.7363   -1.2671 H   0  0  0  0  0  0  0  0  0  0  0  0
   -6.5512   -1.1106    0.8361 H   0  0  0  0  0  0  0  0  0  0  0  0
   -5.4637   -3.0005   -0.3467 H   0  0  0  0  0  0  0  0  0  0  0  0
   -0.0614   -4.3638   -1.2139 H   0  0  0  0  0  0  0  0  0  0  0  0
   -0.5277   -4.1577    0.5005 H   0  0  0  0  0  0  0  0  0  0  0  0
    1.0585   -6.5186   -0.6350 H   0  0  0  0  0  0  0  0  0  0  0  0
    0.6000   -6.3159    1.0511 H   0  0  0  0  0  0  0  0  0  0  0  0
   -0.6622   -6.5562   -0.1809 H   0  0  0  0  0  0  0  0  0  0  0  0
  1 15  1  0  0  0  0
  1 19  1  0  0  0  0
  2 16  1  0  0  0  0
  2 17  1  0  0  0  0
  3 25  1  0  0  0  0
  3 26  1  0  0  0  0
  4 19  2  0  0  0  0
  5 25  2  0  0  0  0
  6 10  1  0  0  0  0
  6 25  1  0  0  0  0
  6 34  1  0  0  0  0
  7  8  1  0  0  0  0
  7 16  2  0  0  0  0
  8 17  2  0  0  0  0
  9 11  2  0  0  0  0
  9 13  1  0  0  0  0
  9 19  1  0  0  0  0
 10 11  1  0  0  0  0
 10 14  2  0  0  0  0
 11 28  1  0  0  0  0
 12 16  1  0  0  0  0
 12 20  2  0  0  0  0
 12 21  1  0  0  0  0
 13 18  2  0  0  0  0
 13 29  1  0  0  0  0
 14 18  1  0  0  0  0
 14 30  1  0  0  0  0
 15 17  1  0  0  0  0
 15 31  1  0  0  0  0
 15 32  1  0  0  0  0
 18 33  1  0  0  0  0
 20 22  1  0  0  0  0
 20 35  1  0  0  0  0
 21 23  2  0  0  0  0
 21 36  1  0  0  0  0
 22 24  2  0  0  0  0
 22 37  1  0  0  0  0
 23 24  1  0  0  0  0
 23 38  1  0  0  0  0
 24 39  1  0  0  0  0
 26 27  1  0  0  0  0
 26 40  1  0  0  0  0
 26 41  1  0  0  0  0
 27 42  1  0  0  0  0
 27 43  1  0  0  0  0
 27 44  1  0  0  0  0
M  END
> <PUBCHEM_COMPOUND_CID>
17396583

> <PUBCHEM_CONFORMER_RMSD>
1

> <PUBCHEM_CONFORMER_DIVERSEORDER>
1
43
71
81
98
63
22
104
108
106
39
31
103
45
117
32
119
50
125
46
76
73
95
80
126
102
49
110
11
25
56
74
59
79
21
129
86
48
82
34
7
70
9
120
35
107
60
44
113
134
58
94
30
100
99
20
130
75
91
101
10
62
109
64
85
114
27
47
111
84
88
69
61
123
16
40
53
26
77
89
131
23
19
83
116
28
33
93
72
57
87
97
29
4
41
67
118
127
2
124
37
115
121
105
132
90
8
65
92
55
6
133
42
139
24
51
112
122
52
17
66
38
128
5
18
96
15
68
3
13
135
54
12
137
138
36
136
14
78

> <PUBCHEM_MMFF94_PARTIAL_CHARGES>
36
1 -0.43
10 0.12
11 -0.15
12 0.05
13 -0.15
14 -0.15
15 0.46
16 0.43
17 0.3
18 -0.15
19 0.63
2 -0.28
20 -0.15
21 -0.15
22 -0.15
23 -0.15
24 -0.15
25 0.78
26 0.28
28 0.15
29 0.15
3 -0.43
30 0.15
33 0.15
34 0.37
35 0.15
36 0.15
37 0.15
38 0.15
39 0.15
4 -0.57
5 -0.57
6 -0.55
7 -0.34
8 -0.34
9 0.09

> <PUBCHEM_EFFECTIVE_ROTOR_COUNT>
9

> <PUBCHEM_PHARMACOPHORE_FEATURES>
6
1 4 acceptor
1 5 acceptor
1 6 donor
5 2 7 8 16 17 rings
6 12 20 21 22 23 24 rings
6 9 10 11 13 14 18 rings

> <PUBCHEM_HEAVY_ATOM_COUNT>
27

> <PUBCHEM_ATOM_DEF_STEREO_COUNT>
0

> <PUBCHEM_ATOM_UDEF_STEREO_COUNT>
0

> <PUBCHEM_BOND_DEF_STEREO_COUNT>
0

> <PUBCHEM_BOND_UDEF_STEREO_COUNT>
0

> <PUBCHEM_ISOTOPIC_ATOM_COUNT>
0

> <PUBCHEM_COMPONENT_COUNT>
1

> <PUBCHEM_CACTVS_TAUTO_COUNT>
2

> <PUBCHEM_CONFORMER_ID>
0109736700000001

> <PUBCHEM_MMFF94_ENERGY>
59.1408

> <PUBCHEM_FEATURE_SELFOVERLAP>
30.446

> <PUBCHEM_SHAPE_FINGERPRINT>
10616163 171 18336828692357605901
1100329 8 18050290267085131142
12038231 1 17978792633714020231
12839892 36 18267039412867783048
12978246 48 18410015424696940915
1361 2 18339081467566743555
14394314 77 18262797346684870777
152267 14 17762627586931912219
15250474 111 18410290303000062825
15320467 1 18338517439281339387
161222 619 18126256702865963315
17492 89 18338516459954793579
19930381 70 18412262852766974099
20028762 73 18261675883093791838
20764821 26 17980197478877790411
21673915 165 18409168822487694448
22113638 7 18195812864346126476
3246872 21 18337397049812126455
325973 47 18050567344084350563
338550 245 18412261705578189588
3882209 13 17406033946031697887
392239 28 18340478959820505403
4403749 210 18196117597599984504
463206 1 18048880693373312687
6433294 58 17833551576043973714
6823239 73 17896302792090202188

> <PUBCHEM_SHAPE_MULTIPOLES>
511.36
11
6.98
0.77
3.53
8.21
-0.01
-0.66
1.73
-0.62
-0.37
0.09
-0.19
-1.24

> <PUBCHEM_SHAPE_SELFOVERLAP>
1099.602

> <PUBCHEM_SHAPE_VOLUME>
280.5

> <PUBCHEM_COORDINATE_TYPE>
2
5
10

$$$$

