5280706
  -OEChem-07051212493D

 26 27  0     0  0  0  0  0  0999 V2000
    1.1293   -0.3731    0.2853 O   0  0  0  0  0  0  0  0  0  0  0  0
   -1.0028    1.5901    0.8887 O   0  0  0  0  0  0  0  0  0  0  0  0
   -3.6842   -1.9898    0.4098 O   0  0  0  0  0  0  0  0  0  0  0  0
    4.5544    0.2863    0.0686 O   0  5  0  0  0  0  0  0  0  0  0  0
    2.8705    1.5083    0.7821 O   0  0  0  0  0  0  0  0  0  0  0  0
    3.3174    0.4281    0.2963 N   0  3  0  0  0  0  0  0  0  0  0  0
   -4.1045    0.2442    0.1879 N   0  0  0  0  0  0  0  0  0  0  0  0
   -1.8025   -0.5430    0.0519 C   0  0  0  0  0  0  0  0  0  0  0  0
    0.4590   -1.4930   -0.0621 C   0  0  0  0  0  0  0  0  0  0  0  0
   -0.9583   -1.5956    0.0946 C   0  0  0  0  0  0  0  0  0  0  0  0
   -1.3406    0.7983   -0.1496 C   0  0  0  0  0  0  0  0  0  0  0  0
    1.2991   -2.4509   -0.5548 C   0  0  0  0  0  0  0  0  0  0  0  0
    2.4370   -0.6165    0.0082 C   0  0  0  0  0  0  0  0  0  0  0  0
    2.5937   -1.8809   -0.5104 C   0  0  0  0  0  0  0  0  0  0  0  0
   -1.1817    1.4336   -1.3462 C   0  0  0  0  0  0  0  0  0  0  0  0
   -3.2667   -0.8470    0.2319 C   0  0  0  0  0  0  0  0  0  0  0  0
   -0.7057    2.7277   -1.0270 C   0  0  0  0  0  0  0  0  0  0  0  0
   -0.6137    2.7731    0.3446 C   0  0  0  0  0  0  0  0  0  0  0  0
   -1.3462   -2.6047    0.2118 H   0  0  0  0  0  0  0  0  0  0  0  0
    1.0317   -3.4379   -0.9058 H   0  0  0  0  0  0  0  0  0  0  0  0
    3.5219   -2.3405   -0.8198 H   0  0  0  0  0  0  0  0  0  0  0  0
   -1.3771    1.0335   -2.3313 H   0  0  0  0  0  0  0  0  0  0  0  0
   -0.4595    3.5269   -1.7110 H   0  0  0  0  0  0  0  0  0  0  0  0
   -0.3046    3.5317    1.0486 H   0  0  0  0  0  0  0  0  0  0  0  0
   -3.7867    1.1974    0.0487 H   0  0  0  0  0  0  0  0  0  0  0  0
   -5.1060    0.1251    0.3015 H   0  0  0  0  0  0  0  0  0  0  0  0
  1  9  1  0  0  0  0
  1 13  1  0  0  0  0
  2 11  1  0  0  0  0
  2 18  1  0  0  0  0
  3 16  2  0  0  0  0
  4  6  1  0  0  0  0
  5  6  2  0  0  0  0
  6 13  1  0  0  0  0
  7 16  1  0  0  0  0
  7 25  1  0  0  0  0
  7 26  1  0  0  0  0
  8 10  2  0  0  0  0
  8 11  1  0  0  0  0
  8 16  1  0  0  0  0
  9 10  1  0  0  0  0
  9 12  2  0  0  0  0
 10 19  1  0  0  0  0
 11 15  2  0  0  0  0
 12 14  1  0  0  0  0
 12 20  1  0  0  0  0
 13 14  2  0  0  0  0
 14 21  1  0  0  0  0
 15 17  1  0  0  0  0
 15 22  1  0  0  0  0
 17 18  2  0  0  0  0
 17 23  1  0  0  0  0
 18 24  1  0  0  0  0
M  CHG  2   4  -1   6   1
M  END
> <PUBCHEM_COMPOUND_CID>
5280706

> <PUBCHEM_CONFORMER_RMSD>
0.6

> <PUBCHEM_CONFORMER_DIVERSEORDER>
2
18
24
38
39
26
13
33
34
32
25
41
30
3
28
22
36
35
20
40
21
27
12
29
17
16
9
37
6
14
31
7
15
4
23
11
8
10
5
1
19

> <PUBCHEM_MMFF94_PARTIAL_CHARGES>
26
1 -0.28
10 -0.11
11 0.09
12 -0.15
13 0.22
14 -0.15
15 -0.15
16 0.62
17 -0.15
18 -0.01
19 0.15
2 -0.28
20 0.15
21 0.15
22 0.15
23 0.15
24 0.15
25 0.37
26 0.37
3 -0.57
4 -0.52
5 -0.52
6 0.96
7 -0.8
8 0.06
9 0.09

> <PUBCHEM_EFFECTIVE_ROTOR_COUNT>
4

> <PUBCHEM_PHARMACOPHORE_FEATURES>
9
1 1 acceptor
1 2 acceptor
1 3 acceptor
1 4 acceptor
1 4 anion
1 5 acceptor
1 7 donor
5 1 9 12 13 14 rings
5 2 11 15 17 18 rings

> <PUBCHEM_HEAVY_ATOM_COUNT>
18

> <PUBCHEM_ATOM_DEF_STEREO_COUNT>
0

> <PUBCHEM_ATOM_UDEF_STEREO_COUNT>
0

> <PUBCHEM_BOND_DEF_STEREO_COUNT>
1

> <PUBCHEM_BOND_UDEF_STEREO_COUNT>
0

> <PUBCHEM_ISOTOPIC_ATOM_COUNT>
0

> <PUBCHEM_COMPONENT_COUNT>
1

> <PUBCHEM_CACTVS_TAUTO_COUNT>
2

> <PUBCHEM_CONFORMER_ID>
005093C200000002

> <PUBCHEM_MMFF94_ENERGY>
39.664

> <PUBCHEM_FEATURE_SELFOVERLAP>
45.762

> <PUBCHEM_SHAPE_FINGERPRINT>
10608611 8 18266179624412527366
10967382 1 18337390439751754898
11132069 177 18409733932540322155
11806522 49 18191872223943106951
12403259 226 18409171043286356410
13132413 78 18335134268225819293
13140716 1 18121507851878159034
13214271 11 18410014308390793215
14170010 4 18410577250439575277
14223421 5 18338234997820565902
14614273 12 18269560588128741773
15375462 6 18409729607666913406
16945 1 17906454681459456875
17357779 13 18340225007019906439
18785283 64 17769918105539009369
20510252 161 18339924921369756978
20588541 1 18410010992259231330
20600515 1 17560792187130034934
21501502 16 18193553591484719746
21524375 3 17049918708215079717
21618674 68 18335136514018929294
22802520 49 18045781453515201910
23402539 116 18410582751417598918
23419403 2 17628384604644875765
23557571 272 18411410747949910038
23559900 14 18267872855366448870
2748010 2 18338521944553735895
34934 24 18412832404153714007
350125 39 18195239147178972622
3524813 1 18188216412062466456
44154327 71 18268987575478643020
537710 114 18270110197950814461
7364860 26 18049998901352430683
74978 22 17763747985022006722
81228 2 18057306487316205961

> <PUBCHEM_SHAPE_MULTIPOLES>
331.12
5.97
3.06
0.88
1.9
1.04
-0.17
-1.32
0.82
-0.59
-0.31
-0.1
0.35
0.85

> <PUBCHEM_SHAPE_SELFOVERLAP>
723.186

> <PUBCHEM_SHAPE_VOLUME>
181

> <PUBCHEM_COORDINATE_TYPE>
2
5
10

$$$$

