5281400
  -OEChem-07051212573D

 78 83  0     1  0  0  0  0  0999 V2000
   -1.3358    1.8103   -1.3966 O   0  0  0  0  0  0  0  0  0  0  0  0
   -0.3379   -0.0523    1.0257 O   0  0  0  0  0  0  0  0  0  0  0  0
    0.7402   -0.6856   -0.9809 O   0  0  0  0  0  0  0  0  0  0  0  0
    0.6611   -2.1866    0.7274 O   0  0  0  0  0  0  0  0  0  0  0  0
   -4.4558   -0.3179   -0.2216 O   0  0  0  0  0  0  0  0  0  0  0  0
   -5.0263    1.8940   -1.6767 O   0  0  0  0  0  0  0  0  0  0  0  0
   -3.1440    1.4924   -4.2736 O   0  0  0  0  0  0  0  0  0  0  0  0
   -5.9999    1.7786    1.0848 O   0  0  0  0  0  0  0  0  0  0  0  0
   -1.6325   -0.6571   -0.9971 C   0  0  1  0  0  0  0  0  0  0  0  0
   -1.6704   -0.4293    0.5596 C   0  0  2  0  0  0  0  0  0  0  0  0
   -1.6373    0.5272   -1.9325 C   0  0  1  0  0  0  0  0  0  0  0  0
   -2.6608    1.6466   -1.9507 C   0  0  1  0  0  0  0  0  0  0  0  0
   -0.3831   -1.5229   -1.2915 C   0  0  2  0  0  0  0  0  0  0  0  0
   -2.5761    0.7735    0.9688 C   0  0  1  0  0  0  0  0  0  0  0  0
   -2.0911   -1.8173    1.2171 C   0  0  1  0  0  0  0  0  0  0  0  0
   -0.2227   -2.6921   -0.2939 C   0  0  2  0  0  0  0  0  0  0  0  0
   -3.9004    0.9210    0.1912 C   0  0  1  0  0  0  0  0  0  0  0  0
   -3.7742    1.9032   -0.9754 C   0  0  2  0  0  0  0  0  0  0  0  0
   -1.5422   -3.0301    0.4010 C   0  0  0  0  0  0  0  0  0  0  0  0
    0.7483   -0.7921    0.4409 C   0  0  2  0  0  0  0  0  0  0  0  0
   -2.7794    2.3962   -3.2443 C   0  0  0  0  0  0  0  0  0  0  0  0
   -2.9891    0.9089    2.4088 C   0  0  0  0  0  0  0  0  0  0  0  0
   -4.8554    1.3908    1.2713 C   0  0  0  0  0  0  0  0  0  0  0  0
   -1.7051   -1.9963    2.6969 C   0  0  0  0  0  0  0  0  0  0  0  0
    0.4188   -3.8858   -0.9240 C   0  0  0  0  0  0  0  0  0  0  0  0
   -4.2575    1.2724    2.6116 C   0  0  0  0  0  0  0  0  0  0  0  0
    2.0330   -0.2646    0.9731 C   0  0  0  0  0  0  0  0  0  0  0  0
    1.9167   -3.8693   -0.9991 C   0  0  0  0  0  0  0  0  0  0  0  0
   -4.9736    1.5654    3.8704 C   0  0  0  0  0  0  0  0  0  0  0  0
   -0.3037   -4.9131   -1.3948 C   0  0  0  0  0  0  0  0  0  0  0  0
    3.0117    0.2286    0.2002 C   0  0  0  0  0  0  0  0  0  0  0  0
    4.2558    0.7383    0.7302 C   0  0  0  0  0  0  0  0  0  0  0  0
    5.2350    1.2316   -0.0426 C   0  0  0  0  0  0  0  0  0  0  0  0
    6.5303    1.7673    0.4974 C   0  0  0  0  0  0  0  0  0  0  0  0
    7.7590    1.0683   -0.0932 C   0  0  0  0  0  0  0  0  0  0  0  0
    9.0804    1.5969    0.4735 C   0  0  0  0  0  0  0  0  0  0  0  0
   10.2754    0.8508   -0.1211 C   0  0  0  0  0  0  0  0  0  0  0  0
   11.5889    1.3501    0.4595 C   0  0  0  0  0  0  0  0  0  0  0  0
   -2.5093   -1.2439   -1.2963 H   0  0  0  0  0  0  0  0  0  0  0  0
   -1.2029    0.2696   -2.8939 H   0  0  0  0  0  0  0  0  0  0  0  0
   -0.3419   -1.8238   -2.3442 H   0  0  0  0  0  0  0  0  0  0  0  0
   -1.9795    1.6884    0.8373 H   0  0  0  0  0  0  0  0  0  0  0  0
   -3.1784   -1.9246    1.1839 H   0  0  0  0  0  0  0  0  0  0  0  0
   -3.6543    2.9211   -0.5834 H   0  0  0  0  0  0  0  0  0  0  0  0
   -1.4264   -3.8983    1.0627 H   0  0  0  0  0  0  0  0  0  0  0  0
   -2.3086   -3.3041   -0.3359 H   0  0  0  0  0  0  0  0  0  0  0  0
   -3.5128    3.2085   -3.2065 H   0  0  0  0  0  0  0  0  0  0  0  0
   -1.8247    2.8503   -3.5332 H   0  0  0  0  0  0  0  0  0  0  0  0
   -2.2757    0.8193    3.2182 H   0  0  0  0  0  0  0  0  0  0  0  0
   -0.6522   -1.7762    2.8902 H   0  0  0  0  0  0  0  0  0  0  0  0
   -1.8901   -3.0258    3.0247 H   0  0  0  0  0  0  0  0  0  0  0  0
   -2.3087   -1.3715    3.3556 H   0  0  0  0  0  0  0  0  0  0  0  0
   -4.7009   -0.8357    0.5626 H   0  0  0  0  0  0  0  0  0  0  0  0
   -5.1796    0.9859   -1.9899 H   0  0  0  0  0  0  0  0  0  0  0  0
    2.1625   -0.2959    2.0531 H   0  0  0  0  0  0  0  0  0  0  0  0
    2.3031   -4.7340   -1.5502 H   0  0  0  0  0  0  0  0  0  0  0  0
    2.3626   -3.9000    0.0001 H   0  0  0  0  0  0  0  0  0  0  0  0
    2.2723   -2.9740   -1.5190 H   0  0  0  0  0  0  0  0  0  0  0  0
   -4.0211    1.1351   -4.0529 H   0  0  0  0  0  0  0  0  0  0  0  0
   -5.3486    2.5937    3.8694 H   0  0  0  0  0  0  0  0  0  0  0  0
   -4.3193    1.4464    4.7399 H   0  0  0  0  0  0  0  0  0  0  0  0
   -5.8238    0.8874    3.9935 H   0  0  0  0  0  0  0  0  0  0  0  0
   -1.3854   -4.9487   -1.3736 H   0  0  0  0  0  0  0  0  0  0  0  0
    0.1880   -5.7700   -1.8459 H   0  0  0  0  0  0  0  0  0  0  0  0
    2.9052    0.2667   -0.8803 H   0  0  0  0  0  0  0  0  0  0  0  0
    4.3876    0.7090    1.8089 H   0  0  0  0  0  0  0  0  0  0  0  0
    5.1069    1.2712   -1.1222 H   0  0  0  0  0  0  0  0  0  0  0  0
    6.5801    2.8382    0.2660 H   0  0  0  0  0  0  0  0  0  0  0  0
    6.5565    1.6809    1.5908 H   0  0  0  0  0  0  0  0  0  0  0  0
    7.6890   -0.0095    0.1027 H   0  0  0  0  0  0  0  0  0  0  0  0
    7.7589    1.1904   -1.1840 H   0  0  0  0  0  0  0  0  0  0  0  0
    9.0811    1.4831    1.5643 H   0  0  0  0  0  0  0  0  0  0  0  0
    9.1686    2.6688    0.2596 H   0  0  0  0  0  0  0  0  0  0  0  0
   10.1812   -0.2230    0.0778 H   0  0  0  0  0  0  0  0  0  0  0  0
   10.2901    0.9793   -1.2097 H   0  0  0  0  0  0  0  0  0  0  0  0
   12.4295    0.8042    0.0198 H   0  0  0  0  0  0  0  0  0  0  0  0
   11.6191    1.2042    1.5440 H   0  0  0  0  0  0  0  0  0  0  0  0
   11.7296    2.4156    0.2518 H   0  0  0  0  0  0  0  0  0  0  0  0
  1 11  1  0  0  0  0
  1 12  1  0  0  0  0
  2 10  1  0  0  0  0
  2 20  1  0  0  0  0
  3 13  1  0  0  0  0
  3 20  1  0  0  0  0
  4 16  1  0  0  0  0
  4 20  1  0  0  0  0
  5 17  1  0  0  0  0
  5 53  1  0  0  0  0
  6 18  1  0  0  0  0
  6 54  1  0  0  0  0
  7 21  1  0  0  0  0
  7 59  1  0  0  0  0
  8 23  2  0  0  0  0
  9 10  1  0  0  0  0
  9 11  1  0  0  0  0
  9 13  1  0  0  0  0
  9 39  1  0  0  0  0
 10 14  1  0  0  0  0
 10 15  1  0  0  0  0
 11 12  1  0  0  0  0
 11 40  1  0  0  0  0
 12 18  1  0  0  0  0
 12 21  1  0  0  0  0
 13 16  1  0  0  0  0
 13 41  1  0  0  0  0
 14 17  1  0  0  0  0
 14 22  1  0  0  0  0
 14 42  1  0  0  0  0
 15 19  1  0  0  0  0
 15 24  1  0  0  0  0
 15 43  1  0  0  0  0
 16 19  1  0  0  0  0
 16 25  1  0  0  0  0
 17 18  1  0  0  0  0
 17 23  1  0  0  0  0
 18 44  1  0  0  0  0
 19 45  1  0  0  0  0
 19 46  1  0  0  0  0
 20 27  1  0  0  0  0
 21 47  1  0  0  0  0
 21 48  1  0  0  0  0
 22 26  2  0  0  0  0
 22 49  1  0  0  0  0
 23 26  1  0  0  0  0
 24 50  1  0  0  0  0
 24 51  1  0  0  0  0
 24 52  1  0  0  0  0
 25 28  1  0  0  0  0
 25 30  2  0  0  0  0
 26 29  1  0  0  0  0
 27 31  2  0  0  0  0
 27 55  1  0  0  0  0
 28 56  1  0  0  0  0
 28 57  1  0  0  0  0
 28 58  1  0  0  0  0
 29 60  1  0  0  0  0
 29 61  1  0  0  0  0
 29 62  1  0  0  0  0
 30 63  1  0  0  0  0
 30 64  1  0  0  0  0
 31 32  1  0  0  0  0
 31 65  1  0  0  0  0
 32 33  2  0  0  0  0
 32 66  1  0  0  0  0
 33 34  1  0  0  0  0
 33 67  1  0  0  0  0
 34 35  1  0  0  0  0
 34 68  1  0  0  0  0
 34 69  1  0  0  0  0
 35 36  1  0  0  0  0
 35 70  1  0  0  0  0
 35 71  1  0  0  0  0
 36 37  1  0  0  0  0
 36 72  1  0  0  0  0
 36 73  1  0  0  0  0
 37 38  1  0  0  0  0
 37 74  1  0  0  0  0
 37 75  1  0  0  0  0
 38 76  1  0  0  0  0
 38 77  1  0  0  0  0
 38 78  1  0  0  0  0
M  END
> <PUBCHEM_COMPOUND_CID>
5281400

> <PUBCHEM_CONFORMER_RMSD>
1

> <PUBCHEM_CONFORMER_DIVERSEORDER>
1
9
8
16
17
12
2
14
7
4
6
13
3
5
15
10
11

> <PUBCHEM_MMFF94_PARTIAL_CHARGES>
42
1 -0.3
10 0.28
11 -0.05
12 -0.04
13 0.28
14 0.14
16 0.42
17 0.34
18 0.38
2 -0.56
20 0.98
21 0.38
22 -0.29
23 0.49
25 -0.28
26 -0.12
27 -0.29
28 0.14
29 0.14
3 -0.56
30 -0.3
31 -0.15
32 -0.15
33 -0.29
34 0.14
4 -0.56
40 0.1
49 0.15
5 -0.68
53 0.4
54 0.4
55 0.15
59 0.4
6 -0.68
63 0.15
64 0.15
65 0.15
66 0.15
67 0.15
7 -0.68
8 -0.57
9 0.09

> <PUBCHEM_EFFECTIVE_ROTOR_COUNT>
9.4

> <PUBCHEM_PHARMACOPHORE_FEATURES>
16
1 1 acceptor
1 2 acceptor
1 3 acceptor
1 38 hydrophobe
1 4 acceptor
1 5 acceptor
1 5 donor
1 6 acceptor
1 6 donor
1 7 acceptor
1 7 donor
1 8 acceptor
10 2 3 4 9 10 13 15 16 19 20 rings
5 14 17 22 23 26 rings
5 33 34 35 36 37 hydrophobe
7 9 10 11 12 14 17 18 rings

> <PUBCHEM_HEAVY_ATOM_COUNT>
38

> <PUBCHEM_ATOM_DEF_STEREO_COUNT>
10

> <PUBCHEM_ATOM_UDEF_STEREO_COUNT>
1

> <PUBCHEM_BOND_DEF_STEREO_COUNT>
2

> <PUBCHEM_BOND_UDEF_STEREO_COUNT>
0

> <PUBCHEM_ISOTOPIC_ATOM_COUNT>
0

> <PUBCHEM_COMPONENT_COUNT>
1

> <PUBCHEM_CACTVS_TAUTO_COUNT>
3

> <PUBCHEM_CONFORMER_ID>
0050967800000001

> <PUBCHEM_MMFF94_ENERGY>
110.897

> <PUBCHEM_FEATURE_SELFOVERLAP>
81.37

> <PUBCHEM_SHAPE_FINGERPRINT>
10 15 17561367292632162392
10165383 225 18407477760666272497
10369192 42 18410009944345337333
10674148 151 7853581192934334859
10930396 42 17418372476133065065
11135926 11 18334011706040977920
11273773 118 17989213638341399324
11315181 36 5112011660282744920
11621639 183 17417253289308573404
12988421 55 18409163333582430130
13911987 19 18337121132502114805
15131766 46 18187654660299951849
15219462 58 17757792935788488731
15230672 131 18411707591665206410
15324884 4 17700108175419535683
15513586 35 17626099738115926416
17980427 26 17825094068310538599
19304152 47 17275112747307080668
20505436 4 17168135806426778985
21033648 144 18413388765057539226
21033648 29 17845363504943997553
21033650 10 15791736312305123770
21223535 225 17676202498929973504
21756936 100 17821720633144240128
21927370 108 17701815480158652771
23559900 14 16627418076887975851
376196 1 16982690061824988477
44802255 64 18272380767336170134
4516262 110 17969495086428620193
6691757 9 18113893832940829522
9982175 41 16343436092958377796

> <PUBCHEM_SHAPE_MULTIPOLES>
735.07
20.17
4.13
3.01
90.76
6.79
1.01
-22.57
-4.95
-1.53
1.1
-7.14
-2.18
0.6

> <PUBCHEM_SHAPE_SELFOVERLAP>
1589.374

> <PUBCHEM_SHAPE_VOLUME>
396.4

> <PUBCHEM_COORDINATE_TYPE>
2
5
10

$$$$

