11954088
  -OEChem-07051213063D

 54 57  0     1  0  0  0  0  0999 V2000
    5.3134    1.2868    0.5283 S   0  0  0  0  0  0  0  0  0  0  0  0
   -5.9505    0.0537   -0.4417 O   0  0  0  0  0  0  0  0  0  0  0  0
    6.8003   -0.2294   -1.0471 O   0  0  0  0  0  0  0  0  0  0  0  0
   -5.7978    0.7497    1.7881 O   0  0  0  0  0  0  0  0  0  0  0  0
    2.5591    0.4825    0.2279 C   0  0  1  0  0  0  0  0  0  0  0  0
    1.9215   -0.8617   -0.1939 C   0  0  2  0  0  0  0  0  0  0  0  0
    0.4117   -0.8970    0.0449 C   0  0  1  0  0  0  0  0  0  0  0  0
   -0.2557    0.2224   -0.8095 C   0  0  2  0  0  0  0  0  0  0  0  0
    4.0374    0.1523   -0.0947 C   0  0  2  0  0  0  0  0  0  0  0  0
    1.9360    1.5865   -0.6382 C   0  0  0  0  0  0  0  0  0  0  0  0
    2.8062   -1.9057    0.4801 C   0  0  0  0  0  0  0  0  0  0  0  0
    0.3988    1.6024   -0.5359 C   0  0  0  0  0  0  0  0  0  0  0  0
    4.2178   -1.2873    0.4378 C   0  0  0  0  0  0  0  0  0  0  0  0
   -0.2111   -2.2439   -0.3287 C   0  0  0  0  0  0  0  0  0  0  0  0
    2.3571    0.8288    1.7268 C   0  0  0  0  0  0  0  0  0  0  0  0
   -1.7757    0.1879   -0.6751 C   0  0  0  0  0  0  0  0  0  0  0  0
   -1.6849   -2.2607    0.0662 C   0  0  0  0  0  0  0  0  0  0  0  0
   -2.4350   -1.0043   -0.3029 C   0  0  0  0  0  0  0  0  0  0  0  0
   -2.5613    1.3074   -1.0021 C   0  0  0  0  0  0  0  0  0  0  0  0
   -3.8382   -1.0313   -0.2171 C   0  0  0  0  0  0  0  0  0  0  0  0
    6.7633    0.4610   -0.0358 C   0  0  0  0  0  0  0  0  0  0  0  0
   -3.9548    1.2642   -0.9210 C   0  0  0  0  0  0  0  0  0  0  0  0
   -4.5935    0.0966   -0.5240 C   0  0  0  0  0  0  0  0  0  0  0  0
    7.9575    0.6838    0.8482 C   0  0  0  0  0  0  0  0  0  0  0  0
   -6.4619    0.4171    0.8154 C   0  0  0  0  0  0  0  0  0  0  0  0
   -7.9598    0.3380    0.8040 C   0  0  0  0  0  0  0  0  0  0  0  0
    2.0708   -0.9943   -1.2789 H   0  0  0  0  0  0  0  0  0  0  0  0
    0.2031   -0.7241    1.1082 H   0  0  0  0  0  0  0  0  0  0  0  0
   -0.0596   -0.0066   -1.8686 H   0  0  0  0  0  0  0  0  0  0  0  0
    4.1562    0.1283   -1.1867 H   0  0  0  0  0  0  0  0  0  0  0  0
    2.2102    1.4361   -1.6906 H   0  0  0  0  0  0  0  0  0  0  0  0
    2.3307    2.5698   -0.3557 H   0  0  0  0  0  0  0  0  0  0  0  0
    2.7790   -2.8657   -0.0454 H   0  0  0  0  0  0  0  0  0  0  0  0
    2.4981   -2.0859    1.5160 H   0  0  0  0  0  0  0  0  0  0  0  0
    0.0926    1.9698    0.4511 H   0  0  0  0  0  0  0  0  0  0  0  0
    0.0388    2.3420   -1.2606 H   0  0  0  0  0  0  0  0  0  0  0  0
    4.6548   -1.3192    1.4428 H   0  0  0  0  0  0  0  0  0  0  0  0
    4.8662   -1.8725   -0.2234 H   0  0  0  0  0  0  0  0  0  0  0  0
    0.2990   -3.0717    0.1762 H   0  0  0  0  0  0  0  0  0  0  0  0
   -0.1114   -2.4182   -1.4079 H   0  0  0  0  0  0  0  0  0  0  0  0
    2.7874    1.8087    1.9627 H   0  0  0  0  0  0  0  0  0  0  0  0
    1.3032    0.8814    2.0116 H   0  0  0  0  0  0  0  0  0  0  0  0
    2.8290    0.0990    2.3921 H   0  0  0  0  0  0  0  0  0  0  0  0
   -1.7612   -2.3898    1.1535 H   0  0  0  0  0  0  0  0  0  0  0  0
   -2.1627   -3.1298   -0.4021 H   0  0  0  0  0  0  0  0  0  0  0  0
   -2.1068    2.2357   -1.3345 H   0  0  0  0  0  0  0  0  0  0  0  0
   -4.3429   -1.9450    0.0907 H   0  0  0  0  0  0  0  0  0  0  0  0
   -4.5333    2.1484   -1.1751 H   0  0  0  0  0  0  0  0  0  0  0  0
    7.7617    0.3000    1.8534 H   0  0  0  0  0  0  0  0  0  0  0  0
    8.2058    1.7479    0.8901 H   0  0  0  0  0  0  0  0  0  0  0  0
    8.8167    0.1460    0.4359 H   0  0  0  0  0  0  0  0  0  0  0  0
   -8.3597    1.0250    0.0542 H   0  0  0  0  0  0  0  0  0  0  0  0
   -8.3460    0.6282    1.7851 H   0  0  0  0  0  0  0  0  0  0  0  0
   -8.2733   -0.6874    0.5938 H   0  0  0  0  0  0  0  0  0  0  0  0
  1  9  1  0  0  0  0
  1 21  1  0  0  0  0
  2 23  1  0  0  0  0
  2 25  1  0  0  0  0
  3 21  2  0  0  0  0
  4 25  2  0  0  0  0
  5  6  1  0  0  0  0
  5  9  1  0  0  0  0
  5 10  1  0  0  0  0
  5 15  1  0  0  0  0
  6  7  1  0  0  0  0
  6 11  1  0  0  0  0
  6 27  1  0  0  0  0
  7  8  1  0  0  0  0
  7 14  1  0  0  0  0
  7 28  1  0  0  0  0
  8 12  1  0  0  0  0
  8 16  1  0  0  0  0
  8 29  1  0  0  0  0
  9 13  1  0  0  0  0
  9 30  1  0  0  0  0
 10 12  1  0  0  0  0
 10 31  1  0  0  0  0
 10 32  1  0  0  0  0
 11 13  1  0  0  0  0
 11 33  1  0  0  0  0
 11 34  1  0  0  0  0
 12 35  1  0  0  0  0
 12 36  1  0  0  0  0
 13 37  1  0  0  0  0
 13 38  1  0  0  0  0
 14 17  1  0  0  0  0
 14 39  1  0  0  0  0
 14 40  1  0  0  0  0
 15 41  1  0  0  0  0
 15 42  1  0  0  0  0
 15 43  1  0  0  0  0
 16 18  2  0  0  0  0
 16 19  1  0  0  0  0
 17 18  1  0  0  0  0
 17 44  1  0  0  0  0
 17 45  1  0  0  0  0
 18 20  1  0  0  0  0
 19 22  2  0  0  0  0
 19 46  1  0  0  0  0
 20 23  2  0  0  0  0
 20 47  1  0  0  0  0
 21 24  1  0  0  0  0
 22 23  1  0  0  0  0
 22 48  1  0  0  0  0
 24 49  1  0  0  0  0
 24 50  1  0  0  0  0
 24 51  1  0  0  0  0
 25 26  1  0  0  0  0
 26 52  1  0  0  0  0
 26 53  1  0  0  0  0
 26 54  1  0  0  0  0
M  END
> <PUBCHEM_COMPOUND_CID>
11954088

> <PUBCHEM_CONFORMER_RMSD>
0.8

> <PUBCHEM_CONFORMER_DIVERSEORDER>
1
8
9
12
5
7
13
4
10
11
6
3
2

> <PUBCHEM_MMFF94_PARTIAL_CHARGES>
20
1 -0.37
16 -0.14
17 0.14
18 -0.14
19 -0.15
2 -0.23
20 -0.15
21 0.65
22 -0.15
23 0.08
24 0.06
25 0.66
26 0.06
3 -0.57
4 -0.57
46 0.15
47 0.15
48 0.15
8 0.14
9 0.23

> <PUBCHEM_EFFECTIVE_ROTOR_COUNT>
5.4

> <PUBCHEM_PHARMACOPHORE_FEATURES>
5
1 4 acceptor
5 5 6 9 11 13 rings
6 16 18 19 20 22 23 rings
6 5 6 7 8 10 12 rings
6 7 8 14 16 17 18 rings

> <PUBCHEM_HEAVY_ATOM_COUNT>
26

> <PUBCHEM_ATOM_DEF_STEREO_COUNT>
5

> <PUBCHEM_ATOM_UDEF_STEREO_COUNT>
0

> <PUBCHEM_BOND_DEF_STEREO_COUNT>
0

> <PUBCHEM_BOND_UDEF_STEREO_COUNT>
0

> <PUBCHEM_ISOTOPIC_ATOM_COUNT>
0

> <PUBCHEM_COMPONENT_COUNT>
1

> <PUBCHEM_CACTVS_TAUTO_COUNT>
1

> <PUBCHEM_CONFORMER_ID>
00B667A800000001

> <PUBCHEM_MMFF94_ENERGY>
86.0762

> <PUBCHEM_FEATURE_SELFOVERLAP>
25.469

> <PUBCHEM_SHAPE_FINGERPRINT>
10 15 17846498115028737656
10165383 225 18407477760534416491
106641 1 18130783443797359131
10906281 52 18339912754191942910
11578080 2 17751653039198909080
11646440 116 18410853257142930592
11796584 16 4751149740285522716
12011746 2 18408609158262986374
12236239 1 17749111093233545263
12403259 415 18337965553269037845
12788726 201 17822857597050595096
12838862 33 18269575908256182604
13073987 5 18130229379408781356
13140716 1 18270957922133202319
13533116 47 17895195557731750390
13540713 5 17841143360246881591
13914758 101 15647044993279528586
14251752 14 14417850362474017593
14251764 18 18411140229661585435
14341114 176 18342738546203533063
14617045 38 18413670218923286758
14790565 3 18271806753726335964
14849402 71 18260267408561746641
15131766 46 14925946665446453000
15196674 1 18342184413475131254
15461852 350 17095532795040948333
15927050 60 18341618105217279850
1813 80 16558750156321777607
18608769 82 18342457002528847571
2026 5 11886858180674532800
21033648 29 17969235455829215026
21267235 1 18270961357890995174
21521721 280 18335141952228254272
22224240 67 18412545401548682339
23198884 109 16877942732983590015
23559900 14 18261403191551794656
3009799 131 7276832372510090532
3178227 256 18202277004832890281
335352 9 18412546474715279532
34797466 226 18408036309001064684
350125 39 18411983554784599725
3545911 37 18412829083832400732
4073 2 17988642948720079378
4093350 32 17313100887016137046
4325135 7 17560804334072618364
4340502 62 16200433576638011746
465052 167 17632572769242144555
5104073 3 18129388270362337321
5385378 56 18335982060099484290
5758199 1 18334857220722029026
6081469 158 5617260299074891969
6328613 192 18261390001728438128
7226269 152 17967532398080245537

> <PUBCHEM_SHAPE_MULTIPOLES>
521.31
18.84
1.87
1.13
0.77
0.75
0.32
-5.24
5.22
-0.29
-0.12
0.5
-0.31
0.07

> <PUBCHEM_SHAPE_SELFOVERLAP>
1101.38

> <PUBCHEM_SHAPE_VOLUME>
294.8

> <PUBCHEM_COORDINATE_TYPE>
2
5
10

$$$$

