442350
  -OEChem-07051212573D

 41 44  0     0  0  0  0  0  0999 V2000
   -3.0064   -2.8930   -0.1229 O   0  0  0  0  0  0  0  0  0  0  0  0
   -4.9592   -1.9447    0.9219 O   0  0  0  0  0  0  0  0  0  0  0  0
    0.3393    0.9623   -2.4865 O   0  0  0  0  0  0  0  0  0  0  0  0
    4.3427   -1.5711   -0.6758 O   0  0  0  0  0  0  0  0  0  0  0  0
    2.1174   -0.9059   -2.1563 O   0  0  0  0  0  0  0  0  0  0  0  0
    4.8147   -0.3164    1.7468 O   0  0  0  0  0  0  0  0  0  0  0  0
   -0.9893    2.8527   -0.4430 N   0  0  0  0  0  0  0  0  0  0  0  0
   -1.9629    0.6353   -0.2254 C   0  0  0  0  0  0  0  0  0  0  0  0
   -3.1131    1.1987    0.3906 C   0  0  0  0  0  0  0  0  0  0  0  0
   -0.9492    1.5119   -0.6135 C   0  0  0  0  0  0  0  0  0  0  0  0
   -2.9262   -1.5391   -0.0084 C   0  0  0  0  0  0  0  0  0  0  0  0
   -4.0399   -0.9981    0.5876 C   0  0  0  0  0  0  0  0  0  0  0  0
   -1.8718   -0.7536   -0.4260 C   0  0  0  0  0  0  0  0  0  0  0  0
   -4.1646    0.3604    0.8009 C   0  0  0  0  0  0  0  0  0  0  0  0
    0.2782    1.0506   -1.2537 C   0  0  0  0  0  0  0  0  0  0  0  0
    1.4905    0.6723   -0.4713 C   0  0  0  0  0  0  0  0  0  0  0  0
   -3.1692    2.5841    0.5742 C   0  0  0  0  0  0  0  0  0  0  0  0
   -4.2973   -3.1431    0.4692 C   0  0  0  0  0  0  0  0  0  0  0  0
    2.3476   -0.2872   -0.9625 C   0  0  0  0  0  0  0  0  0  0  0  0
   -2.0971    3.3522    0.1457 C   0  0  0  0  0  0  0  0  0  0  0  0
    1.7034    1.3105    0.7316 C   0  0  0  0  0  0  0  0  0  0  0  0
    3.4748   -0.6261   -0.2140 C   0  0  0  0  0  0  0  0  0  0  0  0
    3.7163    0.0032    1.0071 C   0  0  0  0  0  0  0  0  0  0  0  0
    2.8304    0.9715    1.4800 C   0  0  0  0  0  0  0  0  0  0  0  0
    4.0888   -2.9221   -0.2980 C   0  0  0  0  0  0  0  0  0  0  0  0
    6.0021    0.4348    1.5017 C   0  0  0  0  0  0  0  0  0  0  0  0
   -1.0112   -1.2197   -0.8942 H   0  0  0  0  0  0  0  0  0  0  0  0
   -5.0556    0.7623    1.2741 H   0  0  0  0  0  0  0  0  0  0  0  0
   -4.0260    3.0615    1.0399 H   0  0  0  0  0  0  0  0  0  0  0  0
   -4.1669   -3.8165    1.3241 H   0  0  0  0  0  0  0  0  0  0  0  0
   -4.9344   -3.6368   -0.2737 H   0  0  0  0  0  0  0  0  0  0  0  0
   -2.1047    4.4302    0.2714 H   0  0  0  0  0  0  0  0  0  0  0  0
    1.0393    2.0729    1.1238 H   0  0  0  0  0  0  0  0  0  0  0  0
    3.0134    1.4667    2.4299 H   0  0  0  0  0  0  0  0  0  0  0  0
    2.8575   -1.5088   -2.3426 H   0  0  0  0  0  0  0  0  0  0  0  0
    3.0957   -3.2401   -0.6311 H   0  0  0  0  0  0  0  0  0  0  0  0
    4.1745   -3.0388    0.7869 H   0  0  0  0  0  0  0  0  0  0  0  0
    4.8380   -3.5581   -0.7774 H   0  0  0  0  0  0  0  0  0  0  0  0
    5.8382    1.4940    1.7240 H   0  0  0  0  0  0  0  0  0  0  0  0
    6.3273    0.3144    0.4636 H   0  0  0  0  0  0  0  0  0  0  0  0
    6.7886    0.0567    2.1605 H   0  0  0  0  0  0  0  0  0  0  0  0
  1 11  1  0  0  0  0
  1 18  1  0  0  0  0
  2 12  1  0  0  0  0
  2 18  1  0  0  0  0
  3 15  2  0  0  0  0
  4 22  1  0  0  0  0
  4 25  1  0  0  0  0
  5 19  1  0  0  0  0
  5 35  1  0  0  0  0
  6 23  1  0  0  0  0
  6 26  1  0  0  0  0
  7 10  2  0  0  0  0
  7 20  1  0  0  0  0
  8  9  1  0  0  0  0
  8 10  1  0  0  0  0
  8 13  2  0  0  0  0
  9 14  2  0  0  0  0
  9 17  1  0  0  0  0
 10 15  1  0  0  0  0
 11 12  2  0  0  0  0
 11 13  1  0  0  0  0
 12 14  1  0  0  0  0
 13 27  1  0  0  0  0
 14 28  1  0  0  0  0
 15 16  1  0  0  0  0
 16 19  2  0  0  0  0
 16 21  1  0  0  0  0
 17 20  2  0  0  0  0
 17 29  1  0  0  0  0
 18 30  1  0  0  0  0
 18 31  1  0  0  0  0
 19 22  1  0  0  0  0
 20 32  1  0  0  0  0
 21 24  2  0  0  0  0
 21 33  1  0  0  0  0
 22 23  2  0  0  0  0
 23 24  1  0  0  0  0
 24 34  1  0  0  0  0
 25 36  1  0  0  0  0
 25 37  1  0  0  0  0
 25 38  1  0  0  0  0
 26 39  1  0  0  0  0
 26 40  1  0  0  0  0
 26 41  1  0  0  0  0
M  END
> <PUBCHEM_COMPOUND_CID>
442350

> <PUBCHEM_CONFORMER_RMSD>
0.8

> <PUBCHEM_CONFORMER_DIVERSEORDER>
2
17
24
18
20
21
22
5
13
19
6
1
23
15
16
10
4
11
8
14
7
3
12
9

> <PUBCHEM_MMFF94_PARTIAL_CHARGES>
31
1 -0.36
10 0.4
11 0.08
12 0.08
13 -0.15
14 -0.15
15 0.4
16 0.09
17 -0.15
18 0.56
19 0.08
2 -0.36
20 0.16
21 -0.15
22 0.08
23 0.08
24 -0.15
25 0.28
26 0.28
27 0.15
28 0.15
29 0.15
3 -0.57
32 0.15
33 0.15
34 0.15
35 0.45
4 -0.36
5 -0.53
6 -0.36
7 -0.62

> <PUBCHEM_EFFECTIVE_ROTOR_COUNT>
4.6

> <PUBCHEM_PHARMACOPHORE_FEATURES>
11
1 1 acceptor
1 2 acceptor
1 3 acceptor
1 4 acceptor
1 5 donor
1 6 acceptor
1 7 acceptor
5 1 2 11 12 18 rings
6 16 19 21 22 23 24 rings
6 7 8 9 10 17 20 rings
6 8 9 11 12 13 14 rings

> <PUBCHEM_HEAVY_ATOM_COUNT>
26

> <PUBCHEM_ATOM_DEF_STEREO_COUNT>
0

> <PUBCHEM_ATOM_UDEF_STEREO_COUNT>
0

> <PUBCHEM_BOND_DEF_STEREO_COUNT>
0

> <PUBCHEM_BOND_UDEF_STEREO_COUNT>
0

> <PUBCHEM_ISOTOPIC_ATOM_COUNT>
0

> <PUBCHEM_COMPONENT_COUNT>
1

> <PUBCHEM_CACTVS_TAUTO_COUNT>
5

> <PUBCHEM_CONFORMER_ID>
0006BFEE00000002

> <PUBCHEM_MMFF94_ENERGY>
108.3726

> <PUBCHEM_FEATURE_SELFOVERLAP>
56.006

> <PUBCHEM_SHAPE_FINGERPRINT>
10319926 262 18263650726784812370
10369192 42 18115878413144089252
11045977 3 18114746069978544620
11370993 144 17822288049768670992
11552529 35 17822296730082341651
11720765 8 11453686831246823784
1200032 147 8140714329232739551
12363563 72 18270959025591611891
12422481 6 18191840471444774851
12553582 1 18120079599206182711
12633257 1 17241326846249443051
12788726 201 18270664386571910945
12892183 10 18261114088628555742
13140716 1 18336254679111807497
13583140 156 17894926121796037184
13828863 39 16517381950745372440
13911987 19 14690280658193641694
14081887 123 18408604790175777067
14178342 30 18341049713159186959
14420673 8 17977094983735396438
15042514 8 18340476851291872905
15230672 131 17549533463641772382
17349148 13 16343708763779574056
17780758 139 18341625818697689056
17980427 26 16968602148240697541
1813 80 17632292376106556524
19377110 9 18131630059287925476
200 152 15267062588120024560
21033648 29 16733525158099126505
21065199 12 18260269672230232256
21133410 52 17106798133021946686
21421861 104 18124580999752430929
21756936 100 5184061587186663100
22122407 14 15936408944613700521
23366157 5 17623279482543488413
23503958 8 18412257371913619411
23559900 14 18118387669706518940
339767 52 18131078121076503427
463206 1 18056195774520153003
474 4 5039674772188261485
5104073 3 18188492496807670218
56633871 153 18336812123234030691
602551 16 18340203085258959272
6371380 46 17615972548649435300

> <PUBCHEM_SHAPE_MULTIPOLES>
494.87
10.93
3.39
1.51
6.68
0.63
0.44
5.99
-5.3
-3.77
-0.09
1.5
-0.17
1.18

> <PUBCHEM_SHAPE_SELFOVERLAP>
1113.201

> <PUBCHEM_SHAPE_VOLUME>
260.8

> <PUBCHEM_COORDINATE_TYPE>
2
5
10

$$$$

