46173768
  -OEChem-07051212523D

 65 68  0     1  0  0  0  0  0999 V2000
    0.5369    0.9619   -1.6736 O   0  0  0  0  0  0  0  0  0  0  0  0
    0.2270    1.3784    1.8837 O   0  0  0  0  0  0  0  0  0  0  0  0
    0.2687    2.9515   -3.6241 O   0  0  0  0  0  0  0  0  0  0  0  0
   -3.7781    2.5572   -0.1742 O   0  0  0  0  0  0  0  0  0  0  0  0
   -5.5325   -0.7896    2.9890 O   0  0  0  0  0  0  0  0  0  0  0  0
   -0.7817   -4.2479   -2.2671 O   0  0  0  0  0  0  0  0  0  0  0  0
    2.4833    0.6046   -0.2503 N   0  0  0  0  0  0  0  0  0  0  0  0
   -1.9662    1.1563    0.2096 N   0  0  0  0  0  0  0  0  0  0  0  0
    4.6198    1.0323   -0.7211 N   0  0  0  0  0  0  0  0  0  0  0  0
    2.7664   -1.0313    1.5229 N   0  0  0  0  0  0  0  0  0  0  0  0
   -5.2777    0.9017    1.4089 N   0  0  0  0  0  0  0  0  0  0  0  0
    6.8802   -0.3493    0.7713 N   0  0  0  0  0  0  0  0  0  0  0  0
    5.1281   -1.4519    1.9716 N   0  0  0  0  0  0  0  0  0  0  0  0
   -0.9234    2.0869   -0.1627 C   0  0  1  0  0  0  0  0  0  0  0  0
    0.3890    1.7871    0.5399 C   0  0  2  0  0  0  0  0  0  0  0  0
   -0.5458    1.9154   -1.6318 C   0  0  1  0  0  0  0  0  0  0  0  0
    0.9770    0.6822   -0.3297 C   0  0  1  0  0  0  0  0  0  0  0  0
   -0.0668    3.2120   -2.2729 C   0  0  0  0  0  0  0  0  0  0  0  0
    3.2199   -0.1762    0.5941 C   0  0  0  0  0  0  0  0  0  0  0  0
   -3.3164    1.4720    0.1723 C   0  0  0  0  0  0  0  0  0  0  0  0
    3.3683    1.3117   -1.0202 C   0  0  0  0  0  0  0  0  0  0  0  0
   -4.1843    0.3219    0.6704 C   0  0  2  0  0  0  0  0  0  0  0  0
    4.5418    0.1037    0.2863 C   0  0  0  0  0  0  0  0  0  0  0  0
   -4.6693   -0.5291   -0.5090 C   0  0  0  0  0  0  0  0  0  0  0  0
    5.5143   -0.5722    1.0163 C   0  0  0  0  0  0  0  0  0  0  0  0
   -3.6328   -1.5206   -0.9784 C   0  0  0  0  0  0  0  0  0  0  0  0
    3.7978   -1.6243    2.1626 C   0  0  0  0  0  0  0  0  0  0  0  0
   -5.8603    0.2928    2.5100 C   0  0  0  0  0  0  0  0  0  0  0  0
   -2.7173   -1.1582   -1.9665 C   0  0  0  0  0  0  0  0  0  0  0  0
   -3.5901   -2.7996   -0.4235 C   0  0  0  0  0  0  0  0  0  0  0  0
    7.3037    0.5920   -0.2497 C   0  0  0  0  0  0  0  0  0  0  0  0
    7.8928   -1.0506    1.5401 C   0  0  0  0  0  0  0  0  0  0  0  0
   -6.9637    1.1243    3.1075 C   0  0  0  0  0  0  0  0  0  0  0  0
   -1.7594   -2.0748   -2.3999 C   0  0  0  0  0  0  0  0  0  0  0  0
   -2.6323   -3.7163   -0.8568 C   0  0  0  0  0  0  0  0  0  0  0  0
   -1.7170   -3.3539   -1.8450 C   0  0  0  0  0  0  0  0  0  0  0  0
   -1.2847    3.0956    0.0647 H   0  0  0  0  0  0  0  0  0  0  0  0
    1.0268    2.6796    0.5246 H   0  0  0  0  0  0  0  0  0  0  0  0
   -1.3613    1.5122   -2.2377 H   0  0  0  0  0  0  0  0  0  0  0  0
    0.6206   -0.3166   -0.0498 H   0  0  0  0  0  0  0  0  0  0  0  0
   -1.6876    0.2173    0.4789 H   0  0  0  0  0  0  0  0  0  0  0  0
    0.8297    3.5971   -1.7768 H   0  0  0  0  0  0  0  0  0  0  0  0
   -0.8511    3.9748   -2.2459 H   0  0  0  0  0  0  0  0  0  0  0  0
    1.1061    1.1496    2.2299 H   0  0  0  0  0  0  0  0  0  0  0  0
    3.0487    2.0147   -1.7770 H   0  0  0  0  0  0  0  0  0  0  0  0
   -3.6091   -0.2943    1.3731 H   0  0  0  0  0  0  0  0  0  0  0  0
    0.5687    3.7911   -4.0122 H   0  0  0  0  0  0  0  0  0  0  0  0
   -4.9768    0.1074   -1.3497 H   0  0  0  0  0  0  0  0  0  0  0  0
   -5.5737   -1.0845   -0.2252 H   0  0  0  0  0  0  0  0  0  0  0  0
   -5.6492    1.7933    1.0923 H   0  0  0  0  0  0  0  0  0  0  0  0
    3.5251   -2.3356    2.9348 H   0  0  0  0  0  0  0  0  0  0  0  0
   -2.7626   -0.1773   -2.4274 H   0  0  0  0  0  0  0  0  0  0  0  0
   -4.2961   -3.0925    0.3491 H   0  0  0  0  0  0  0  0  0  0  0  0
    7.7991   -0.8136    2.6055 H   0  0  0  0  0  0  0  0  0  0  0  0
    7.7924   -2.1338    1.4108 H   0  0  0  0  0  0  0  0  0  0  0  0
    8.9082   -0.7787    1.2334 H   0  0  0  0  0  0  0  0  0  0  0  0
    6.9595    0.2852   -1.2433 H   0  0  0  0  0  0  0  0  0  0  0  0
    6.9641    1.6080   -0.0218 H   0  0  0  0  0  0  0  0  0  0  0  0
    8.3967    0.6463   -0.3130 H   0  0  0  0  0  0  0  0  0  0  0  0
   -7.6693    1.4303    2.3298 H   0  0  0  0  0  0  0  0  0  0  0  0
   -7.5016    0.5387    3.8581 H   0  0  0  0  0  0  0  0  0  0  0  0
   -6.5363    2.0117    3.5822 H   0  0  0  0  0  0  0  0  0  0  0  0
   -1.0527   -1.7879   -3.1738 H   0  0  0  0  0  0  0  0  0  0  0  0
   -2.6090   -4.7092   -0.4158 H   0  0  0  0  0  0  0  0  0  0  0  0
   -0.8974   -5.0800   -1.7770 H   0  0  0  0  0  0  0  0  0  0  0  0
  1 16  1  0  0  0  0
  1 17  1  0  0  0  0
  2 15  1  0  0  0  0
  2 44  1  0  0  0  0
  3 18  1  0  0  0  0
  3 47  1  0  0  0  0
  4 20  2  0  0  0  0
  5 28  2  0  0  0  0
  6 36  1  0  0  0  0
  6 65  1  0  0  0  0
  7 17  1  0  0  0  0
  7 19  1  0  0  0  0
  7 21  1  0  0  0  0
  8 14  1  0  0  0  0
  8 20  1  0  0  0  0
  8 41  1  0  0  0  0
  9 21  2  0  0  0  0
  9 23  1  0  0  0  0
 10 19  1  0  0  0  0
 10 27  2  0  0  0  0
 11 22  1  0  0  0  0
 11 28  1  0  0  0  0
 11 50  1  0  0  0  0
 12 25  1  0  0  0  0
 12 31  1  0  0  0  0
 12 32  1  0  0  0  0
 13 25  2  0  0  0  0
 13 27  1  0  0  0  0
 14 15  1  0  0  0  0
 14 16  1  0  0  0  0
 14 37  1  0  0  0  0
 15 17  1  0  0  0  0
 15 38  1  0  0  0  0
 16 18  1  0  0  0  0
 16 39  1  0  0  0  0
 17 40  1  0  0  0  0
 18 42  1  0  0  0  0
 18 43  1  0  0  0  0
 19 23  2  0  0  0  0
 20 22  1  0  0  0  0
 21 45  1  0  0  0  0
 22 24  1  0  0  0  0
 22 46  1  0  0  0  0
 23 25  1  0  0  0  0
 24 26  1  0  0  0  0
 24 48  1  0  0  0  0
 24 49  1  0  0  0  0
 26 29  2  0  0  0  0
 26 30  1  0  0  0  0
 27 51  1  0  0  0  0
 28 33  1  0  0  0  0
 29 34  1  0  0  0  0
 29 52  1  0  0  0  0
 30 35  2  0  0  0  0
 30 53  1  0  0  0  0
 31 57  1  0  0  0  0
 31 58  1  0  0  0  0
 31 59  1  0  0  0  0
 32 54  1  0  0  0  0
 32 55  1  0  0  0  0
 32 56  1  0  0  0  0
 33 60  1  0  0  0  0
 33 61  1  0  0  0  0
 33 62  1  0  0  0  0
 34 36  2  0  0  0  0
 34 63  1  0  0  0  0
 35 36  1  0  0  0  0
 35 64  1  0  0  0  0
M  END
> <PUBCHEM_COMPOUND_CID>
46173768

> <PUBCHEM_CONFORMER_RMSD>
1.2

> <PUBCHEM_CONFORMER_DIVERSEORDER>
1
10
65
33
43
86
35
29
92
51
61
59
81
73
25
66
49
82
50
23
39
54
15
40
37
22
79
91
31
42
83
72
74
60
11
44
71
27
48
30
8
88
69
67
62
52
7
63
24
57
28
13
47
78
58
38
2
18
46
20
36
14
80
32
85
26
77
70
6
16
89
19
56
68
87
34
4
64
21
76
55
45
90
12
75
84
3
17
9
41
53
5

> <PUBCHEM_MMFF94_PARTIAL_CHARGES>
47
1 -0.56
10 -0.57
11 -0.73
12 -0.84
13 -0.62
14 0.3
15 0.28
16 0.28
17 0.54
18 0.28
19 0.11
2 -0.68
20 0.57
21 0.04
22 0.36
23 0.23
24 0.14
25 0.41
26 -0.14
27 0.47
28 0.57
29 -0.15
3 -0.68
30 -0.15
31 0.37
32 0.37
33 0.06
34 -0.15
35 -0.15
36 0.08
4 -0.57
41 0.37
44 0.4
45 0.15
47 0.4
5 -0.57
50 0.37
51 0.15
52 0.15
53 0.15
6 -0.53
63 0.15
64 0.15
65 0.45
7 0.05
8 -0.73
9 -0.57

> <PUBCHEM_EFFECTIVE_ROTOR_COUNT>
11

> <PUBCHEM_PHARMACOPHORE_FEATURES>
17
1 1 acceptor
1 11 donor
1 2 acceptor
1 2 donor
1 3 acceptor
1 3 donor
1 4 acceptor
1 5 acceptor
1 6 donor
1 8 donor
3 10 13 27 cation
3 12 13 25 cation
3 7 9 21 cation
5 1 14 15 16 17 rings
5 7 9 19 21 23 rings
6 10 13 19 23 25 27 rings
6 26 29 30 34 35 36 rings

> <PUBCHEM_HEAVY_ATOM_COUNT>
36

> <PUBCHEM_ATOM_DEF_STEREO_COUNT>
5

> <PUBCHEM_ATOM_UDEF_STEREO_COUNT>
0

> <PUBCHEM_BOND_DEF_STEREO_COUNT>
0

> <PUBCHEM_BOND_UDEF_STEREO_COUNT>
0

> <PUBCHEM_ISOTOPIC_ATOM_COUNT>
0

> <PUBCHEM_COMPONENT_COUNT>
1

> <PUBCHEM_CACTVS_TAUTO_COUNT>
8

> <PUBCHEM_CONFORMER_ID>
02C08E4800000001

> <PUBCHEM_MMFF94_ENERGY>
94.8042

> <PUBCHEM_FEATURE_SELFOVERLAP>
86.518

> <PUBCHEM_SHAPE_FINGERPRINT>
10305334 12 18201146707914090443
12422481 6 18265330780140655635
12633257 1 17967533458947684465
13103583 49 18335985272602711327
14020679 6 17167583795591491905
14068700 675 17606706646703930959
14395042 24 18188767229525437379
14705955 166 16515959380193777265
14840074 17 18341899605609346278
14856354 85 17822018592606475900
15297060 5 17967250909960579522
15320294 125 18411418427488637087
15444296 121 17895188866204072857
15444296 8 17346316021126536917
15484559 13 15969948747849296060
15537594 2 18343866606331395010
16110190 28 18408038489915847267
19438510 23 15213563659912029771
20554085 129 17313658369771226113
21033648 29 16443336555569206231
23516275 137 18192690445246482154
3383291 50 17749957657332542223
46194498 28 14835548142733909231
5104073 3 17968942972429571888
6679774 75 18124282048623086023
6691757 9 18040715862265965791
9953998 17 18041008332342909658

> <PUBCHEM_SHAPE_MULTIPOLES>
670.78
16.66
3.79
3.05
18.46
3.18
-0.14
1.28
-15.07
-4.06
3.11
-2.91
-0.68
-4.04

> <PUBCHEM_SHAPE_SELFOVERLAP>
1433.288

> <PUBCHEM_SHAPE_VOLUME>
368.1

> <PUBCHEM_COORDINATE_TYPE>
2
5
10

$$$$

