31229
  -OEChem-07051213073D

 18 18  0     0  0  0  0  0  0999 V2000
    1.2019   -0.0012   -0.8524 O   0  0  0  0  0  0  0  0  0  0  0  0
    1.8218    0.0029    1.4049 O   0  0  0  0  0  0  0  0  0  0  0  0
   -0.1042   -0.0006   -0.4694 C   0  0  0  0  0  0  0  0  0  0  0  0
   -0.7732    1.2076   -0.2743 C   0  0  0  0  0  0  0  0  0  0  0  0
   -0.7735   -1.2083   -0.2718 C   0  0  0  0  0  0  0  0  0  0  0  0
   -2.1118    1.2081    0.1181 C   0  0  0  0  0  0  0  0  0  0  0  0
   -2.1121   -1.2078    0.1206 C   0  0  0  0  0  0  0  0  0  0  0  0
   -2.7813    0.0004    0.3155 C   0  0  0  0  0  0  0  0  0  0  0  0
    2.1133   -0.0002    0.2162 C   0  0  0  0  0  0  0  0  0  0  0  0
    3.5190   -0.0008   -0.3074 C   0  0  0  0  0  0  0  0  0  0  0  0
   -0.2580    2.1520   -0.4269 H   0  0  0  0  0  0  0  0  0  0  0  0
   -0.2585   -2.1532   -0.4225 H   0  0  0  0  0  0  0  0  0  0  0  0
   -2.6329    2.1489    0.2699 H   0  0  0  0  0  0  0  0  0  0  0  0
   -2.6333   -2.1481    0.2742 H   0  0  0  0  0  0  0  0  0  0  0  0
   -3.8235    0.0009    0.6211 H   0  0  0  0  0  0  0  0  0  0  0  0
    3.6885   -0.8978   -0.9080 H   0  0  0  0  0  0  0  0  0  0  0  0
    4.2192   -0.0053    0.5328 H   0  0  0  0  0  0  0  0  0  0  0  0
    3.6916    0.8996   -0.9019 H   0  0  0  0  0  0  0  0  0  0  0  0
  1  3  1  0  0  0  0
  1  9  1  0  0  0  0
  2  9  2  0  0  0  0
  3  4  2  0  0  0  0
  3  5  1  0  0  0  0
  4  6  1  0  0  0  0
  4 11  1  0  0  0  0
  5  7  2  0  0  0  0
  5 12  1  0  0  0  0
  6  8  2  0  0  0  0
  6 13  1  0  0  0  0
  7  8  1  0  0  0  0
  7 14  1  0  0  0  0
  8 15  1  0  0  0  0
  9 10  1  0  0  0  0
 10 16  1  0  0  0  0
 10 17  1  0  0  0  0
 10 18  1  0  0  0  0
M  END
> <PUBCHEM_COMPOUND_CID>
31229

> <PUBCHEM_CONFORMER_RMSD>
0.4

> <PUBCHEM_CONFORMER_DIVERSEORDER>
1
14
15
13
10
3
2
9
7
16
12
8
5
4
11
6

> <PUBCHEM_MMFF94_PARTIAL_CHARGES>
15
1 -0.23
10 0.06
11 0.15
12 0.15
13 0.15
14 0.15
15 0.15
2 -0.57
3 0.08
4 -0.15
5 -0.15
6 -0.15
7 -0.15
8 -0.15
9 0.66

> <PUBCHEM_EFFECTIVE_ROTOR_COUNT>
2

> <PUBCHEM_PHARMACOPHORE_FEATURES>
2
1 2 acceptor
6 3 4 5 6 7 8 rings

> <PUBCHEM_HEAVY_ATOM_COUNT>
10

> <PUBCHEM_ATOM_DEF_STEREO_COUNT>
0

> <PUBCHEM_ATOM_UDEF_STEREO_COUNT>
0

> <PUBCHEM_BOND_DEF_STEREO_COUNT>
0

> <PUBCHEM_BOND_UDEF_STEREO_COUNT>
0

> <PUBCHEM_ISOTOPIC_ATOM_COUNT>
0

> <PUBCHEM_COMPONENT_COUNT>
1

> <PUBCHEM_CACTVS_TAUTO_COUNT>
1

> <PUBCHEM_CONFORMER_ID>
000079FD00000001

> <PUBCHEM_MMFF94_ENERGY>
27.3953

> <PUBCHEM_FEATURE_SELFOVERLAP>
10.148

> <PUBCHEM_SHAPE_FINGERPRINT>
10857977 72 18335141955826648721
11062470 55 15195286430113568149
12932764 1 17632583755441563644
13024252 1 14979958081820537733
14325111 11 18409164450120907188
16945 1 18410858763306146119
20645464 45 17894346691773305270
20653085 51 15285360626010914617
20871998 184 18261104115598865935
21040471 1 18266451199695277661
23235685 24 18335421313258076773
23552423 10 17843397376152901805
2748010 2 18051679242877213277
369184 2 18409737261303396251
5084963 1 17967811630624675579
75552 356 18413105039565100319

> <PUBCHEM_SHAPE_MULTIPOLES>
194.06
4.63
1.22
0.87
2.84
0
-0.16
0
-0.38
-0.87
0.05
0.33
0
0

> <PUBCHEM_SHAPE_SELFOVERLAP>
399.347

> <PUBCHEM_SHAPE_VOLUME>
110.3

> <PUBCHEM_COORDINATE_TYPE>
2
5
10

$$$$

