47205661
  -OEChem-06241222593D

 42 43  0     1  0  0  0  0  0999 V2000
    1.2713   -0.3119   -1.3481 O   0  0  0  0  0  0  0  0  0  0  0  0
    3.8018    1.0829    0.8143 O   0  0  0  0  0  0  0  0  0  0  0  0
   -0.4990   -0.1817    0.1513 N   0  0  0  0  0  0  0  0  0  0  0  0
    2.9990   -1.0817    0.5594 N   0  0  0  0  0  0  0  0  0  0  0  0
   -1.5119    0.2552   -0.7855 C   0  0  2  0  0  0  0  0  0  0  0  0
   -1.4600    1.7780   -0.9586 C   0  0  0  0  0  0  0  0  0  0  0  0
   -2.1129    2.4872    0.2236 C   0  0  0  0  0  0  0  0  0  0  0  0
   -2.8762   -0.2424   -0.3606 C   0  0  0  0  0  0  0  0  0  0  0  0
   -3.5872    2.1053    0.3277 C   0  0  0  0  0  0  0  0  0  0  0  0
   -3.8356    0.6233    0.1986 C   0  0  0  0  0  0  0  0  0  0  0  0
   -3.1811   -1.6075   -0.4957 C   0  0  0  0  0  0  0  0  0  0  0  0
   -5.0823    0.1106    0.5901 C   0  0  0  0  0  0  0  0  0  0  0  0
    0.8141   -0.4291   -0.2140 C   0  0  0  0  0  0  0  0  0  0  0  0
   -4.4201   -2.1051   -0.0937 C   0  0  0  0  0  0  0  0  0  0  0  0
   -5.3707   -1.2461    0.4485 C   0  0  0  0  0  0  0  0  0  0  0  0
    1.6558   -0.8172    0.9830 C   0  0  0  0  0  0  0  0  0  0  0  0
    5.3123   -0.6382    0.0282 C   0  0  0  0  0  0  0  0  0  0  0  0
    3.9793   -0.0933    0.5088 C   0  0  0  0  0  0  0  0  0  0  0  0
    6.3939    0.4364   -0.0313 C   0  0  0  0  0  0  0  0  0  0  0  0
    7.7095   -0.1245   -0.5460 C   0  0  0  0  0  0  0  0  0  0  0  0
   -1.2732   -0.1861   -1.7624 H   0  0  0  0  0  0  0  0  0  0  0  0
   -0.4259    2.1238   -1.0737 H   0  0  0  0  0  0  0  0  0  0  0  0
   -1.9925    2.0594   -1.8768 H   0  0  0  0  0  0  0  0  0  0  0  0
   -1.5914    2.2221    1.1517 H   0  0  0  0  0  0  0  0  0  0  0  0
   -2.0231    3.5732    0.1076 H   0  0  0  0  0  0  0  0  0  0  0  0
   -3.9766    2.4668    1.2870 H   0  0  0  0  0  0  0  0  0  0  0  0
   -4.1476    2.6122   -0.4681 H   0  0  0  0  0  0  0  0  0  0  0  0
   -0.7583   -0.2670    1.1306 H   0  0  0  0  0  0  0  0  0  0  0  0
   -2.4486   -2.2924   -0.9167 H   0  0  0  0  0  0  0  0  0  0  0  0
   -5.8389    0.7713    1.0069 H   0  0  0  0  0  0  0  0  0  0  0  0
   -4.6427   -3.1623   -0.2049 H   0  0  0  0  0  0  0  0  0  0  0  0
   -6.3379   -1.6309    0.7582 H   0  0  0  0  0  0  0  0  0  0  0  0
    1.2547   -1.7305    1.4326 H   0  0  0  0  0  0  0  0  0  0  0  0
    1.6428   -0.0072    1.7192 H   0  0  0  0  0  0  0  0  0  0  0  0
    3.2327   -2.0273    0.2702 H   0  0  0  0  0  0  0  0  0  0  0  0
    5.6192   -1.4426    0.7071 H   0  0  0  0  0  0  0  0  0  0  0  0
    5.1625   -1.0750   -0.9665 H   0  0  0  0  0  0  0  0  0  0  0  0
    6.0717    1.2563   -0.6843 H   0  0  0  0  0  0  0  0  0  0  0  0
    6.5479    0.8670    0.9653 H   0  0  0  0  0  0  0  0  0  0  0  0
    7.5950   -0.5289   -1.5568 H   0  0  0  0  0  0  0  0  0  0  0  0
    8.4699    0.6620   -0.5791 H   0  0  0  0  0  0  0  0  0  0  0  0
    8.0762   -0.9245    0.1051 H   0  0  0  0  0  0  0  0  0  0  0  0
  1 13  2  0  0  0  0
  2 18  2  0  0  0  0
  3  5  1  0  0  0  0
  3 13  1  0  0  0  0
  3 28  1  0  0  0  0
  4 16  1  0  0  0  0
  4 18  1  0  0  0  0
  4 35  1  0  0  0  0
  5  6  1  0  0  0  0
  5  8  1  0  0  0  0
  5 21  1  0  0  0  0
  6  7  1  0  0  0  0
  6 22  1  0  0  0  0
  6 23  1  0  0  0  0
  7  9  1  0  0  0  0
  7 24  1  0  0  0  0
  7 25  1  0  0  0  0
  8 10  1  0  0  0  0
  8 11  2  0  0  0  0
  9 10  1  0  0  0  0
  9 26  1  0  0  0  0
  9 27  1  0  0  0  0
 10 12  2  0  0  0  0
 11 14  1  0  0  0  0
 11 29  1  0  0  0  0
 12 15  1  0  0  0  0
 12 30  1  0  0  0  0
 13 16  1  0  0  0  0
 14 15  2  0  0  0  0
 14 31  1  0  0  0  0
 15 32  1  0  0  0  0
 16 33  1  0  0  0  0
 16 34  1  0  0  0  0
 17 18  1  0  0  0  0
 17 19  1  0  0  0  0
 17 36  1  0  0  0  0
 17 37  1  0  0  0  0
 19 20  1  0  0  0  0
 19 38  1  0  0  0  0
 19 39  1  0  0  0  0
 20 40  1  0  0  0  0
 20 41  1  0  0  0  0
 20 42  1  0  0  0  0
M  END
> <PUBCHEM_COMPOUND_CID>
47205661

> <PUBCHEM_CONFORMER_RMSD>
0.8

> <PUBCHEM_CONFORMER_DIVERSEORDER>
1
142
23
116
124
26
156
229
225
55
214
169
129
41
204
8
220
205
130
40
187
166
153
100
10
46
49
12
200
86
15
143
227
27
67
4
180
43
9
61
85
163
38
217
127
11
54
58
63
84
111
118
59
122
19
132
228
115
164
24
210
71
206
183
29
81
65
50
5
201
139
137
223
193
42
184
219
20
91
22
17
161
209
212
98
62
77
135
196
173
2
177
72
68
125
148
52
37
103
64
152
117
74
75
147
109
48
121
154
78
60
155
13
174
35
189
102
14
44
215
28
150
90
140
76
31
176
230
195
34
138
146
101
203
226
18
199
123
185
106
25
92
99
3
224
192
202
145
149
6
7
213
87
134
30
188
56
191
218
170
33
179
69
36
83
151
162
104
47
119
57
114
216
97
79
107
95
94
194
53
96
51
105
133
82
80
144
160
172
45
186
32
167
93
88
120
141
159
207
126
110
197
171
231
39
136
198
112
131
89
165
70
108
157
168
175
113
73
221
128
222
21
211
181
16
66
182
158
178
190
208

> <PUBCHEM_MMFF94_PARTIAL_CHARGES>
22
1 -0.57
10 -0.14
11 -0.15
12 -0.15
13 0.57
14 -0.15
15 -0.15
16 0.36
17 0.06
18 0.57
2 -0.57
28 0.37
29 0.15
3 -0.73
30 0.15
31 0.15
32 0.15
35 0.37
4 -0.73
5 0.44
8 -0.14
9 0.14

> <PUBCHEM_EFFECTIVE_ROTOR_COUNT>
7.8

> <PUBCHEM_PHARMACOPHORE_FEATURES>
7
1 1 acceptor
1 2 acceptor
1 20 hydrophobe
1 3 donor
1 4 donor
6 5 6 7 8 9 10 rings
6 8 10 11 12 14 15 rings

> <PUBCHEM_HEAVY_ATOM_COUNT>
20

> <PUBCHEM_ATOM_DEF_STEREO_COUNT>
0

> <PUBCHEM_ATOM_UDEF_STEREO_COUNT>
1

> <PUBCHEM_BOND_DEF_STEREO_COUNT>
0

> <PUBCHEM_BOND_UDEF_STEREO_COUNT>
0

> <PUBCHEM_ISOTOPIC_ATOM_COUNT>
0

> <PUBCHEM_COMPONENT_COUNT>
1

> <PUBCHEM_CACTVS_TAUTO_COUNT>
4

> <PUBCHEM_CONFORMER_ID>
02D04D1D00000001

> <PUBCHEM_MMFF94_ENERGY>
30.9577

> <PUBCHEM_FEATURE_SELFOVERLAP>
35.541

> <PUBCHEM_SHAPE_FINGERPRINT>
10366900 7 17895210921283007203
10912923 1 17988650735289597442
10968037 39 18202002118937456531
11045977 3 18260554394255154793
11089746 13 8070026662421768002
11315181 36 18202281394600579501
11524674 6 16443064980392354582
12107183 9 17619916492484127946
12166972 35 18341610400567520800
12236239 1 17917993897068522626
12403259 415 17821738225826124128
12616971 3 14057007096648409186
13288520 33 18412826872040378663
13631057 29 18201720605116474395
13897977 58 18410857685211559897
14251764 18 17918278654507867778
14341114 176 18336543906319435912
14848160 23 12895352201220677280
14849402 71 18199180703772205212
14933364 13 18261109669529253280
15183329 4 6699809757170186884
15716309 27 17917713517556437986
15778101 99 18335699511206746432
17093844 174 8430311325333329958
17349148 13 17060338530602878258
17844677 252 18333446530672394936
18927931 339 18408321073410975423
19377110 9 17988373641153200666
19433438 28 18259991461555397208
19784866 170 18186800296788603271
200 152 16415481562625030815
21065198 48 18272376424659815378
21267235 1 18341327795802960147
2297311 6 18334572438620292421
23035841 295 18411700985076700634
23402539 116 18343025480068041143
23557571 272 18333728035212619132
23559900 14 18410019818876019049
335352 9 18411705383850861485
4214541 1 18336830882737867680
4325135 7 18343300366453916086
5104073 3 18337121171673259690
5486654 2 18272654527997865587
633830 44 13984958302771772954
7062679 117 18343301452912213650
9996256 80 18342741845213345570

> <PUBCHEM_SHAPE_MULTIPOLES>
389.89
16.18
1.98
0.93
28.79
0.73
-0.08
-2.62
0.64
-3.1
0.03
0.12
0.03
-0.15

> <PUBCHEM_SHAPE_SELFOVERLAP>
801.704

> <PUBCHEM_SHAPE_VOLUME>
222.1

> <PUBCHEM_COORDINATE_TYPE>
2
5
10

$$$$

