439937
  -OEChem-07051212483D

 39 40  0     1  0  0  0  0  0999 V2000
    1.6066    1.3376   -0.0119 P   0  0  2  0  0  0  0  0  0  0  0  0
    3.6753   -0.7536   -0.0535 P   0  0  0  0  0  0  0  0  0  0  0  0
    0.4397    0.3261    0.4715 O   0  0  0  0  0  0  0  0  0  0  0  0
    2.9815    0.6189    0.4431 O   0  0  0  0  0  0  0  0  0  0  0  0
    1.4940    2.5959    0.9987 O   0  0  0  0  0  0  0  0  0  0  0  0
    1.5570    1.7056   -1.4666 O   0  0  0  0  0  0  0  0  0  0  0  0
    2.6354   -1.8888    0.4385 O   0  0  0  0  0  0  0  0  0  0  0  0
    4.9270   -0.9250    0.9545 O   0  0  0  0  0  0  0  0  0  0  0  0
    4.0180   -0.7893   -1.5136 O   0  0  0  0  0  0  0  0  0  0  0  0
   -1.9161   -0.4315    0.7384 C   0  0  2  0  0  0  0  0  0  0  0  0
   -3.2125   -0.0155   -0.0209 C   0  0  0  0  0  0  0  0  0  0  0  0
   -2.4584    0.0010   -1.3775 C   0  0  1  0  0  0  0  0  0  0  0  0
   -0.9209    0.7014    0.3440 C   0  0  2  0  0  0  0  0  0  0  0  0
   -1.4824   -1.7255   -0.0068 C   0  0  0  0  0  0  0  0  0  0  0  0
   -1.2760    0.9690   -1.1304 C   0  0  0  0  0  0  0  0  0  0  0  0
   -1.8483   -1.4157   -1.4682 C   0  0  0  0  0  0  0  0  0  0  0  0
   -2.0338   -0.6335    2.2377 C   0  0  0  0  0  0  0  0  0  0  0  0
   -4.3761   -1.0250    0.0407 C   0  0  0  0  0  0  0  0  0  0  0  0
   -3.8101    1.3479    0.3825 C   0  0  0  0  0  0  0  0  0  0  0  0
   -3.0595    0.2688   -2.2498 H   0  0  0  0  0  0  0  0  0  0  0  0
   -1.0786    1.5981    0.9529 H   0  0  0  0  0  0  0  0  0  0  0  0
   -2.0277   -2.6068    0.3491 H   0  0  0  0  0  0  0  0  0  0  0  0
   -0.4166   -1.9496    0.1031 H   0  0  0  0  0  0  0  0  0  0  0  0
   -0.4831    0.7548   -1.8473 H   0  0  0  0  0  0  0  0  0  0  0  0
   -1.5893    2.0088   -1.2709 H   0  0  0  0  0  0  0  0  0  0  0  0
   -0.9718   -1.4568   -2.1234 H   0  0  0  0  0  0  0  0  0  0  0  0
   -2.5748   -2.1410   -1.8493 H   0  0  0  0  0  0  0  0  0  0  0  0
   -2.3526    0.2859    2.7394 H   0  0  0  0  0  0  0  0  0  0  0  0
   -2.7602   -1.4159    2.4795 H   0  0  0  0  0  0  0  0  0  0  0  0
   -1.0708   -0.9298    2.6674 H   0  0  0  0  0  0  0  0  0  0  0  0
   -4.8201   -1.0425    1.0425 H   0  0  0  0  0  0  0  0  0  0  0  0
   -4.0972   -2.0540   -0.1955 H   0  0  0  0  0  0  0  0  0  0  0  0
   -5.1637   -0.7418   -0.6673 H   0  0  0  0  0  0  0  0  0  0  0  0
   -3.0993    2.1766    0.3835 H   0  0  0  0  0  0  0  0  0  0  0  0
   -4.2389    1.2988    1.3899 H   0  0  0  0  0  0  0  0  0  0  0  0
   -4.6145    1.6287   -0.3075 H   0  0  0  0  0  0  0  0  0  0  0  0
    0.8129    3.2811    0.8294 H   0  0  0  0  0  0  0  0  0  0  0  0
    2.7902   -2.8211    0.1757 H   0  0  0  0  0  0  0  0  0  0  0  0
    5.5606   -1.6586    0.8045 H   0  0  0  0  0  0  0  0  0  0  0  0
  1  3  1  0  0  0  0
  1  4  1  0  0  0  0
  1  5  1  0  0  0  0
  1  6  2  0  0  0  0
  2  4  1  0  0  0  0
  2  7  1  0  0  0  0
  2  8  1  0  0  0  0
  2  9  2  0  0  0  0
  3 13  1  0  0  0  0
  5 37  1  0  0  0  0
  7 38  1  0  0  0  0
  8 39  1  0  0  0  0
 10 11  1  0  0  0  0
 10 13  1  0  0  0  0
 10 14  1  0  0  0  0
 10 17  1  0  0  0  0
 11 12  1  0  0  0  0
 11 18  1  0  0  0  0
 11 19  1  0  0  0  0
 12 15  1  0  0  0  0
 12 16  1  0  0  0  0
 12 20  1  0  0  0  0
 13 15  1  0  0  0  0
 13 21  1  0  0  0  0
 14 16  1  0  0  0  0
 14 22  1  0  0  0  0
 14 23  1  0  0  0  0
 15 24  1  0  0  0  0
 15 25  1  0  0  0  0
 16 26  1  0  0  0  0
 16 27  1  0  0  0  0
 17 28  1  0  0  0  0
 17 29  1  0  0  0  0
 17 30  1  0  0  0  0
 18 31  1  0  0  0  0
 18 32  1  0  0  0  0
 18 33  1  0  0  0  0
 19 34  1  0  0  0  0
 19 35  1  0  0  0  0
 19 36  1  0  0  0  0
M  END
> <PUBCHEM_COMPOUND_CID>
439937

> <PUBCHEM_CONFORMER_RMSD>
0.6

> <PUBCHEM_CONFORMER_DIVERSEORDER>
1
10
5
11
14
2
9
8
6
12
4
7
3
13

> <PUBCHEM_MMFF94_PARTIAL_CHARGES>
13
1 1.51
13 0.28
2 1.51
3 -0.55
37 0.5
38 0.5
39 0.5
4 -0.54
5 -0.77
6 -0.7
7 -0.77
8 -0.77
9 -0.7

> <PUBCHEM_EFFECTIVE_ROTOR_COUNT>
5

> <PUBCHEM_PHARMACOPHORE_FEATURES>
8
1 5 acceptor
1 6 acceptor
1 7 acceptor
1 8 acceptor
1 9 acceptor
3 11 18 19 hydrophobe
4 2 7 8 9 anion
7 10 11 12 13 14 15 16 rings

> <PUBCHEM_HEAVY_ATOM_COUNT>
19

> <PUBCHEM_ATOM_DEF_STEREO_COUNT>
1

> <PUBCHEM_ATOM_UDEF_STEREO_COUNT>
2

> <PUBCHEM_BOND_DEF_STEREO_COUNT>
0

> <PUBCHEM_BOND_UDEF_STEREO_COUNT>
0

> <PUBCHEM_ISOTOPIC_ATOM_COUNT>
0

> <PUBCHEM_COMPONENT_COUNT>
1

> <PUBCHEM_CACTVS_TAUTO_COUNT>
1

> <PUBCHEM_CONFORMER_ID>
0006B68100000001

> <PUBCHEM_MMFF94_ENERGY>
18.485

> <PUBCHEM_FEATURE_SELFOVERLAP>
40.641

> <PUBCHEM_SHAPE_FINGERPRINT>
12186901 62 16200160923408069319
12553582 1 18334575772058317646
12592029 89 18334287704328341787
12596599 1 17967803938792416374
12707595 3 18410851054082514320
13024252 1 16845303696438455367
13675066 3 17748828518375928587
13693222 15 13984663646339964246
14004511 7 18114179761323859113
16945 1 18126580144067472139
17349148 13 16226045591694695845
17804303 29 18410853265574167869
18186145 218 17846511313563419521
19930381 70 18126570256521014107
20645477 70 18408040689366286396
21069387 34 17676785187887630301
22802520 49 17703503303194243016
23557571 272 9078822052149912661
23559900 14 17845371059670171365
296302 2 5112006149048270187
3286 77 18336550417490045117
4921388 177 15625928833602505826
5706482 22 17749105617387554575
7364860 26 18189337870836215024
74978 22 18115024104264496884

> <PUBCHEM_SHAPE_MULTIPOLES>
357.62
7.94
1.94
1.52
6.04
0.46
0.08
-2.31
0.36
0.66
0.05
-0.31
-0.13
-0.09

> <PUBCHEM_SHAPE_SELFOVERLAP>
713.056

> <PUBCHEM_SHAPE_VOLUME>
218.1

> <PUBCHEM_COORDINATE_TYPE>
2
5
10

$$$$

