46173878
  -OEChem-07051213103D

 44 44  0     1  0  0  0  0  0999 V2000
   -0.0234    1.7276   -1.3588 S   0  0  0  0  0  0  0  0  0  0  0  0
    2.7195   -2.3001    0.3606 S   0  0  0  0  0  0  0  0  0  0  0  0
   -1.5127   -0.4080   -0.8447 O   0  0  0  0  0  0  0  0  0  0  0  0
   -4.8083    1.6458    0.5064 O   0  0  0  0  0  0  0  0  0  0  0  0
   -4.5815   -1.1653    1.0277 O   0  0  0  0  0  0  0  0  0  0  0  0
   -2.2204    2.9342    0.5174 O   0  0  0  0  0  0  0  0  0  0  0  0
   -1.2198   -3.1288   -0.7263 O   0  0  0  0  0  0  0  0  0  0  0  0
    2.7415   -0.7497   -0.1536 O   0  0  0  0  0  0  0  0  0  0  0  0
    4.2621   -2.5722    0.8183 O   0  0  0  0  0  0  0  0  0  0  0  0
    1.8805   -2.3831    1.5418 O   0  0  0  0  0  0  0  0  0  0  0  0
    2.4477   -3.1420   -0.7894 O   0  0  0  0  0  0  0  0  0  0  0  0
    1.4618   -0.2923   -0.4778 N   0  0  0  0  0  0  0  0  0  0  0  0
   -3.5601    0.9610    0.6291 C   0  0  1  0  0  0  0  0  0  0  0  0
   -3.7403   -0.4672    0.1132 C   0  0  1  0  0  0  0  0  0  0  0  0
   -2.4925    1.7143   -0.1708 C   0  0  2  0  0  0  0  0  0  0  0  0
   -2.3862   -1.1704   -0.0111 C   0  0  1  0  0  0  0  0  0  0  0  0
   -1.2156    0.8779   -0.3009 C   0  0  2  0  0  0  0  0  0  0  0  0
   -2.5114   -2.5555   -0.6386 C   0  0  0  0  0  0  0  0  0  0  0  0
    1.4844    0.9376   -0.8850 C   0  0  0  0  0  0  0  0  0  0  0  0
    2.7187    1.8168   -1.0051 C   0  0  0  0  0  0  0  0  0  0  0  0
    3.0289    2.5845    0.2923 C   0  0  0  0  0  0  0  0  0  0  0  0
    4.2450    3.4892    0.0818 C   0  0  0  0  0  0  0  0  0  0  0  0
    3.2822    1.6458    1.4734 C   0  0  0  0  0  0  0  0  0  0  0  0
   -3.3179    0.9608    1.6987 H   0  0  0  0  0  0  0  0  0  0  0  0
   -4.2533   -0.4481   -0.8560 H   0  0  0  0  0  0  0  0  0  0  0  0
   -2.8983    1.9718   -1.1573 H   0  0  0  0  0  0  0  0  0  0  0  0
   -1.9129   -1.2876    0.9734 H   0  0  0  0  0  0  0  0  0  0  0  0
   -0.7546    0.7593    0.6881 H   0  0  0  0  0  0  0  0  0  0  0  0
   -2.9166   -2.4885   -1.6537 H   0  0  0  0  0  0  0  0  0  0  0  0
   -3.1484   -3.2106   -0.0368 H   0  0  0  0  0  0  0  0  0  0  0  0
   -5.0501    1.6671   -0.4352 H   0  0  0  0  0  0  0  0  0  0  0  0
   -4.1167   -1.2227    1.8799 H   0  0  0  0  0  0  0  0  0  0  0  0
   -1.8294    2.7128    1.3798 H   0  0  0  0  0  0  0  0  0  0  0  0
    2.5731    2.5299   -1.8265 H   0  0  0  0  0  0  0  0  0  0  0  0
    3.5761    1.1986   -1.2967 H   0  0  0  0  0  0  0  0  0  0  0  0
    2.1703    3.2191    0.5454 H   0  0  0  0  0  0  0  0  0  0  0  0
   -1.3223   -4.0071   -1.1306 H   0  0  0  0  0  0  0  0  0  0  0  0
    4.0672    4.1947   -0.7368 H   0  0  0  0  0  0  0  0  0  0  0  0
    5.1387    2.9046   -0.1617 H   0  0  0  0  0  0  0  0  0  0  0  0
    2.3877    1.0736    1.7357 H   0  0  0  0  0  0  0  0  0  0  0  0
    3.5564    2.2225    2.3643 H   0  0  0  0  0  0  0  0  0  0  0  0
    4.1045    0.9528    1.2681 H   0  0  0  0  0  0  0  0  0  0  0  0
    4.4571    4.0729    0.9839 H   0  0  0  0  0  0  0  0  0  0  0  0
    4.4449   -3.4760    1.1676 H   0  0  0  0  0  0  0  0  0  0  0  0
  1 17  1  0  0  0  0
  1 19  1  0  0  0  0
  2  8  1  0  0  0  0
  2  9  1  0  0  0  0
  2 10  2  0  0  0  0
  2 11  2  0  0  0  0
  3 16  1  0  0  0  0
  3 17  1  0  0  0  0
  4 13  1  0  0  0  0
  4 31  1  0  0  0  0
  5 14  1  0  0  0  0
  5 32  1  0  0  0  0
  6 15  1  0  0  0  0
  6 33  1  0  0  0  0
  7 18  1  0  0  0  0
  7 37  1  0  0  0  0
  8 12  1  0  0  0  0
  9 44  1  0  0  0  0
 12 19  2  0  0  0  0
 13 14  1  0  0  0  0
 13 15  1  0  0  0  0
 13 24  1  0  0  0  0
 14 16  1  0  0  0  0
 14 25  1  0  0  0  0
 15 17  1  0  0  0  0
 15 26  1  0  0  0  0
 16 18  1  0  0  0  0
 16 27  1  0  0  0  0
 17 28  1  0  0  0  0
 18 29  1  0  0  0  0
 18 30  1  0  0  0  0
 19 20  1  0  0  0  0
 20 21  1  0  0  0  0
 20 34  1  0  0  0  0
 20 35  1  0  0  0  0
 21 22  1  0  0  0  0
 21 23  1  0  0  0  0
 21 36  1  0  0  0  0
 22 38  1  0  0  0  0
 22 39  1  0  0  0  0
 22 43  1  0  0  0  0
 23 40  1  0  0  0  0
 23 41  1  0  0  0  0
 23 42  1  0  0  0  0
M  END
> <PUBCHEM_COMPOUND_CID>
46173878

> <PUBCHEM_CONFORMER_RMSD>
0.8

> <PUBCHEM_CONFORMER_DIVERSEORDER>
1
87
44
25
4
27
82
109
112
93
104
70
75
74
14
107
10
83
32
90
12
100
94
68
23
106
114
84
13
103
92
85
111
91
50
78
8
56
95
62
45
28
54
58
7
79
113
11
9
72
18
63
81
108
64
31
60
53
99
61
46
86
105
71
67
20
33
34
39
115
29
98
96
5
30
89
48
42
6
43
102
36
66
41
57
52
97
37
24
38
116
16
59
51
17
69
49
21
19
15
80
101
40
110
65
73
117
26
76
22
3
47
35
55
77
2
88

> <PUBCHEM_MMFF94_PARTIAL_CHARGES>
25
1 -0.37
10 -0.65
11 -0.65
12 -0.51
13 0.28
14 0.28
15 0.28
16 0.28
17 0.51
18 0.28
19 0.53
2 1.67
20 0.06
3 -0.56
31 0.4
32 0.4
33 0.4
37 0.4
4 -0.68
44 0.5
5 -0.68
6 -0.68
7 -0.68
8 -0.12
9 -0.68

> <PUBCHEM_EFFECTIVE_ROTOR_COUNT>
8.2

> <PUBCHEM_PHARMACOPHORE_FEATURES>
16
1 10 acceptor
1 11 acceptor
1 12 acceptor
1 3 acceptor
1 4 acceptor
1 4 donor
1 5 acceptor
1 5 donor
1 6 acceptor
1 6 donor
1 7 acceptor
1 7 donor
1 9 acceptor
3 21 22 23 hydrophobe
4 2 9 10 11 anion
6 3 13 14 15 16 17 rings

> <PUBCHEM_HEAVY_ATOM_COUNT>
23

> <PUBCHEM_ATOM_DEF_STEREO_COUNT>
5

> <PUBCHEM_ATOM_UDEF_STEREO_COUNT>
0

> <PUBCHEM_BOND_DEF_STEREO_COUNT>
0

> <PUBCHEM_BOND_UDEF_STEREO_COUNT>
1

> <PUBCHEM_ISOTOPIC_ATOM_COUNT>
0

> <PUBCHEM_COMPONENT_COUNT>
1

> <PUBCHEM_CACTVS_TAUTO_COUNT>
1

> <PUBCHEM_CONFORMER_ID>
02C08EB600000001

> <PUBCHEM_MMFF94_ENERGY>
45.6834

> <PUBCHEM_FEATURE_SELFOVERLAP>
81.268

> <PUBCHEM_SHAPE_FINGERPRINT>
10366900 7 17897734154176387265
10616163 171 18266739082436295702
11578080 2 17488474133849202108
12553582 1 18195522589398099373
12633257 1 18115860974658528217
12788726 201 17168126975837492937
12839892 36 18195544609838136592
12892183 10 18341320103474172473
13140716 1 18339920515255511595
13533116 47 18411697716791087633
14081887 123 18188778214880025753
14178342 30 18268430126950923533
14223421 5 18412547612887212164
14466204 15 17617098452561790041
14787075 74 17539126156070775260
20600515 1 17684081762388831572
20739085 24 17988364776388765340
21033648 29 17317350610404032674
21421861 104 18341895190514828784
21859007 373 17558286572457027317
23559900 14 18336547213128145492
23566358 27 18412543198114181204
34934 24 18263645057163834823
350125 39 18339356469584503869
5104073 3 18339347644186301561
6287921 2 18409455769426826690
6442390 28 18120653535786530796
7097593 13 18339082691363150500
7364860 26 18409729582213159444

> <PUBCHEM_SHAPE_MULTIPOLES>
423.22
8.74
4.47
1.17
2.02
2.03
0.08
-2.37
2.62
-3.48
0.21
-0.41
0
-0.79

> <PUBCHEM_SHAPE_SELFOVERLAP>
814.87

> <PUBCHEM_SHAPE_VOLUME>
258.6

> <PUBCHEM_COORDINATE_TYPE>
2
5
10

$$$$

