47205061
  -OEChem-06241222583D

 29 30  0     0  0  0  0  0  0999 V2000
   -0.5677   -1.9954   -1.0351 Cl  0  0  0  0  0  0  0  0  0  0  0  0
   -3.4525    2.0644    0.0629 F   0  0  0  0  0  0  0  0  0  0  0  0
   -0.0081    1.0948    1.2409 O   0  0  0  0  0  0  0  0  0  0  0  0
    1.2955    1.4908   -0.6387 N   0  0  0  0  0  0  0  0  0  0  0  0
    4.4251    0.1573   -0.5800 N   0  0  0  0  0  0  0  0  0  0  0  0
    4.9975   -1.0307   -0.3206 N   0  0  0  0  0  0  0  0  0  0  0  0
   -1.0544    1.0438   -0.9423 C   0  0  0  0  0  0  0  0  0  0  0  0
    2.5452    1.6940    0.0560 C   0  0  0  0  0  0  0  0  0  0  0  0
   -2.1383    0.1491   -0.4336 C   0  0  0  0  0  0  0  0  0  0  0  0
    0.1099    1.2048    0.0233 C   0  0  0  0  0  0  0  0  0  0  0  0
    3.3286    0.4200    0.1875 C   0  0  0  0  0  0  0  0  0  0  0  0
   -1.9996   -1.2388   -0.4382 C   0  0  0  0  0  0  0  0  0  0  0  0
   -3.3085    0.7316    0.0533 C   0  0  0  0  0  0  0  0  0  0  0  0
    3.1725   -0.6723    1.0056 C   0  0  0  0  0  0  0  0  0  0  0  0
   -3.0313   -2.0444    0.0441 C   0  0  0  0  0  0  0  0  0  0  0  0
   -4.3402   -0.0740    0.5355 C   0  0  0  0  0  0  0  0  0  0  0  0
   -4.2017   -1.4620    0.5307 C   0  0  0  0  0  0  0  0  0  0  0  0
    4.2281   -1.5328    0.6489 C   0  0  0  0  0  0  0  0  0  0  0  0
   -0.7016    0.6816   -1.9158 H   0  0  0  0  0  0  0  0  0  0  0  0
   -1.4395    2.0525   -1.1396 H   0  0  0  0  0  0  0  0  0  0  0  0
    2.3474    2.1071    1.0514 H   0  0  0  0  0  0  0  0  0  0  0  0
    3.1128    2.4408   -0.5096 H   0  0  0  0  0  0  0  0  0  0  0  0
    1.3016    1.5542   -1.6526 H   0  0  0  0  0  0  0  0  0  0  0  0
    2.4069   -0.8251    1.7521 H   0  0  0  0  0  0  0  0  0  0  0  0
    4.8380    0.7404   -1.2975 H   0  0  0  0  0  0  0  0  0  0  0  0
   -2.9391   -3.1276    0.0472 H   0  0  0  0  0  0  0  0  0  0  0  0
   -5.2512    0.3796    0.9145 H   0  0  0  0  0  0  0  0  0  0  0  0
   -5.0051   -2.0891    0.9060 H   0  0  0  0  0  0  0  0  0  0  0  0
    4.4682   -2.5049    1.0550 H   0  0  0  0  0  0  0  0  0  0  0  0
  1 12  1  0  0  0  0
  2 13  1  0  0  0  0
  3 10  2  0  0  0  0
  4  8  1  0  0  0  0
  4 10  1  0  0  0  0
  4 23  1  0  0  0  0
  5  6  1  0  0  0  0
  5 11  1  0  0  0  0
  5 25  1  0  0  0  0
  6 18  2  0  0  0  0
  7  9  1  0  0  0  0
  7 10  1  0  0  0  0
  7 19  1  0  0  0  0
  7 20  1  0  0  0  0
  8 11  1  0  0  0  0
  8 21  1  0  0  0  0
  8 22  1  0  0  0  0
  9 12  1  0  0  0  0
  9 13  2  0  0  0  0
 11 14  2  0  0  0  0
 12 15  2  0  0  0  0
 13 16  1  0  0  0  0
 14 18  1  0  0  0  0
 14 24  1  0  0  0  0
 15 17  1  0  0  0  0
 15 26  1  0  0  0  0
 16 17  2  0  0  0  0
 16 27  1  0  0  0  0
 17 28  1  0  0  0  0
 18 29  1  0  0  0  0
M  END
> <PUBCHEM_COMPOUND_CID>
47205061

> <PUBCHEM_CONFORMER_RMSD>
0.6

> <PUBCHEM_CONFORMER_DIVERSEORDER>
1
107
324
322
290
53
23
141
274
242
227
224
102
250
295
176
334
246
136
286
316
57
52
114
174
261
161
345
85
317
119
149
163
139
146
270
88
30
318
355
39
352
279
134
188
19
330
221
48
308
313
17
82
7
159
285
130
214
42
56
311
331
173
358
198
93
144
72
22
99
213
233
49
335
296
4
121
273
87
253
46
18
196
152
71
111
61
268
186
278
266
147
179
294
38
353
34
291
287
350
201
128
204
187
288
81
205
94
140
256
77
41
138
243
74
24
348
20
70
35
167
182
325
280
283
297
31
68
343
37
344
64
333
255
354
113
230
357
109
75
28
191
16
69
304
66
98
44
110
105
155
342
328
305
218
115
284
235
226
25
26
131
225
150
117
189
267
257
192
125
156
162
264
244
310
241
194
2
281
269
336
50
193
346
258
315
184
327
92
238
321
108
220
122
54
301
200
91
157
237
307
104
164
160
151
63
326
260
222
168
298
251
45
254
97
338
11
236
166
215
153
185
126
249
158
124
229
47
293
349
314
339
210
67
347
129
240
272
55
332
40
21
292
247
89
299
271
165
123
65
329
209
263
32
106
3
360
276
171
145
180
277
356
59
248
96
51
234
302
137
78
76
319
84
202
183
33
15
177
259
60
190
133
199
245
211
282
83
275
197
90
217
12
323
208
36
178
359
118
306
43
73
206
232
351
100
169
289
120
127
219
170
300
95
265
79
5
62
175
27
309
340
80
216
203
29
337
361
154
252
13
231
14
8
172
101
228
148
320
143
181
132
195
341
142
116
207
212
103
9
312
135
6
86
10
58
262
112
223
303
239

> <PUBCHEM_MMFF94_PARTIAL_CHARGES>
25
1 -0.18
10 0.57
11 -0.33
12 0.18
13 0.19
14 -0.15
15 -0.15
16 -0.15
17 -0.15
18 0.14
2 -0.19
23 0.37
24 0.15
25 0.27
26 0.15
27 0.15
28 0.15
29 0.15
3 -0.57
4 -0.73
5 0.3
6 -0.71
7 0.2
8 0.48
9 -0.14

> <PUBCHEM_EFFECTIVE_ROTOR_COUNT>
5

> <PUBCHEM_PHARMACOPHORE_FEATURES>
6
1 3 acceptor
1 4 donor
1 5 donor
1 6 acceptor
5 5 6 11 14 18 rings
6 9 12 13 15 16 17 rings

> <PUBCHEM_HEAVY_ATOM_COUNT>
18

> <PUBCHEM_ATOM_DEF_STEREO_COUNT>
0

> <PUBCHEM_ATOM_UDEF_STEREO_COUNT>
0

> <PUBCHEM_BOND_DEF_STEREO_COUNT>
0

> <PUBCHEM_BOND_UDEF_STEREO_COUNT>
0

> <PUBCHEM_ISOTOPIC_ATOM_COUNT>
0

> <PUBCHEM_COMPONENT_COUNT>
1

> <PUBCHEM_CACTVS_TAUTO_COUNT>
4

> <PUBCHEM_CONFORMER_ID>
02D04AC500000001

> <PUBCHEM_MMFF94_ENERGY>
25.11

> <PUBCHEM_FEATURE_SELFOVERLAP>
30.446

> <PUBCHEM_SHAPE_FINGERPRINT>
10062212 137 18333454214163276063
10498660 4 10231758902948974558
10616163 171 18411417297827971974
11128504 68 16487247764670117430
12553582 1 18341344344132408622
12592029 89 18409160039316523659
12633257 1 17532075121593765931
12788726 201 17604132788356371208
128620 24 14189577437985714960
13167823 11 18341891874799880832
13533116 47 18192716648746170563
13551218 46 18410290307331804043
13675066 3 18040439884224927880
14251751 93 18271815648128527257
14420673 8 18266733765420231638
15006816 218 18261107529860580430
15196674 1 18411420605242608934
15239191 94 18272094881042599592
15375462 189 18343308067499199842
17804303 29 18336263457839999917
1813 80 17203331082894484388
19422 9 18272650112818724021
20281475 54 18343867710238262308
20291156 8 18413674604074099564
212916 134 15936678316446461815
23402539 116 18114188545038706509
23463225 33 18340487772665485613
235170 7 14261355786193455826
23559900 14 18336272245032462104
23598291 2 18059566962658342268
314173 41 18411133637150335436
328317 168 8718828690983573242
3323516 105 17846783987825067530
4028521 119 10015866496226219146
4214541 1 18411982476795482405
465052 167 18341322293707410171
4921388 177 16056587725597317451
5104073 3 18409450275825967728
633830 44 16343703231255275341
6786 2 15905765787180138869
7097593 13 18192435164620648661
9709674 26 18199749133264249114

> <PUBCHEM_SHAPE_MULTIPOLES>
344.22
9.85
2.21
0.96
5.5
0.21
-0.02
2.98
-1.45
-0.56
0.14
0.1
0.1
-0.24

> <PUBCHEM_SHAPE_SELFOVERLAP>
722.943

> <PUBCHEM_SHAPE_VOLUME>
194.8

> <PUBCHEM_COORDINATE_TYPE>
2
5
10

$$$$

