5280727
  -OEChem-07051212493D

 55 55  0     1  0  0  0  0  0999 V2000
   -3.9218   -2.8921   -1.0029 O   0  0  0  0  0  0  0  0  0  0  0  0
   -1.0847   -3.5666    1.8275 O   0  0  0  0  0  0  0  0  0  0  0  0
    2.3452    0.1003    1.1468 O   0  0  0  0  0  0  0  0  0  0  0  0
    0.3022    4.1243    1.1963 O   0  0  0  0  0  0  0  0  0  0  0  0
   -0.8043    2.1744    1.5447 O   0  0  0  0  0  0  0  0  0  0  0  0
   -2.4602   -1.0605   -0.2729 C   0  0  2  0  0  0  0  0  0  0  0  0
   -1.2537   -1.9839   -0.0157 C   0  0  2  0  0  0  0  0  0  0  0  0
   -3.6751   -1.9486    0.0342 C   0  0  2  0  0  0  0  0  0  0  0  0
   -3.2734   -2.7080    1.2960 C   0  0  0  0  0  0  0  0  0  0  0  0
   -1.7778   -2.8421    1.1233 C   0  0  0  0  0  0  0  0  0  0  0  0
   -2.4592   -0.4692   -1.6777 C   0  0  0  0  0  0  0  0  0  0  0  0
   -0.0115   -1.2629    0.3759 C   0  0  0  0  0  0  0  0  0  0  0  0
   -3.6174    0.4181   -2.0404 C   0  0  0  0  0  0  0  0  0  0  0  0
    1.1615   -1.4252   -0.2490 C   0  0  0  0  0  0  0  0  0  0  0  0
   -3.7234    1.7395   -1.8328 C   0  0  0  0  0  0  0  0  0  0  0  0
    2.3714   -0.6778    0.1958 C   0  0  0  0  0  0  0  0  0  0  0  0
   -2.6551    2.5666   -1.1788 C   0  0  0  0  0  0  0  0  0  0  0  0
    3.6490   -0.9334   -0.5787 C   0  0  0  0  0  0  0  0  0  0  0  0
    4.8434   -0.1827    0.0041 C   0  0  0  0  0  0  0  0  0  0  0  0
   -3.1167    3.2638    0.1084 C   0  0  0  0  0  0  0  0  0  0  0  0
    6.1329   -0.4249   -0.7854 C   0  0  0  0  0  0  0  0  0  0  0  0
    7.3011    0.3648   -0.1939 C   0  0  0  0  0  0  0  0  0  0  0  0
   -2.0373    4.1260    0.7698 C   0  0  0  0  0  0  0  0  0  0  0  0
    8.5774    0.1529   -0.9925 C   0  0  0  0  0  0  0  0  0  0  0  0
   -0.8124    3.3474    1.1979 C   0  0  0  0  0  0  0  0  0  0  0  0
   -2.4518   -0.2380    0.4582 H   0  0  0  0  0  0  0  0  0  0  0  0
   -1.0909   -2.6520   -0.8710 H   0  0  0  0  0  0  0  0  0  0  0  0
   -4.5870   -1.3624    0.1865 H   0  0  0  0  0  0  0  0  0  0  0  0
   -3.4604   -2.1133    2.1948 H   0  0  0  0  0  0  0  0  0  0  0  0
   -3.7358   -3.6953    1.3683 H   0  0  0  0  0  0  0  0  0  0  0  0
   -1.5176    0.0667   -1.8475 H   0  0  0  0  0  0  0  0  0  0  0  0
   -2.4332   -1.2797   -2.4192 H   0  0  0  0  0  0  0  0  0  0  0  0
   -0.0865   -0.5845    1.2225 H   0  0  0  0  0  0  0  0  0  0  0  0
   -4.4622   -0.0816   -2.5111 H   0  0  0  0  0  0  0  0  0  0  0  0
   -4.6870   -3.4287   -0.7342 H   0  0  0  0  0  0  0  0  0  0  0  0
    1.2688   -2.0976   -1.0930 H   0  0  0  0  0  0  0  0  0  0  0  0
   -4.6287    2.2499   -2.1504 H   0  0  0  0  0  0  0  0  0  0  0  0
   -2.3448    3.3337   -1.8999 H   0  0  0  0  0  0  0  0  0  0  0  0
   -1.7585    1.9794   -0.9668 H   0  0  0  0  0  0  0  0  0  0  0  0
    3.4856   -0.6208   -1.6163 H   0  0  0  0  0  0  0  0  0  0  0  0
    3.8503   -2.0107   -0.5649 H   0  0  0  0  0  0  0  0  0  0  0  0
    4.9932   -0.4861    1.0482 H   0  0  0  0  0  0  0  0  0  0  0  0
    4.6257    0.8929    0.0199 H   0  0  0  0  0  0  0  0  0  0  0  0
   -3.4575    2.5039    0.8236 H   0  0  0  0  0  0  0  0  0  0  0  0
   -3.9837    3.8990   -0.1123 H   0  0  0  0  0  0  0  0  0  0  0  0
    5.9815   -0.1302   -1.8309 H   0  0  0  0  0  0  0  0  0  0  0  0
    6.3703   -1.4956   -0.7819 H   0  0  0  0  0  0  0  0  0  0  0  0
    7.4700    0.0576    0.8447 H   0  0  0  0  0  0  0  0  0  0  0  0
    7.0600    1.4342   -0.1812 H   0  0  0  0  0  0  0  0  0  0  0  0
   -1.7274    4.9043    0.0625 H   0  0  0  0  0  0  0  0  0  0  0  0
   -2.4457    4.6182    1.6588 H   0  0  0  0  0  0  0  0  0  0  0  0
    8.4512    0.4825   -2.0287 H   0  0  0  0  0  0  0  0  0  0  0  0
    9.3997    0.7252   -0.5518 H   0  0  0  0  0  0  0  0  0  0  0  0
    8.8644   -0.9035   -1.0002 H   0  0  0  0  0  0  0  0  0  0  0  0
    1.0947    3.6265    1.4905 H   0  0  0  0  0  0  0  0  0  0  0  0
  1  8  1  0  0  0  0
  1 35  1  0  0  0  0
  2 10  2  0  0  0  0
  3 16  2  0  0  0  0
  4 25  1  0  0  0  0
  4 55  1  0  0  0  0
  5 25  2  0  0  0  0
  6  7  1  0  0  0  0
  6  8  1  0  0  0  0
  6 11  1  0  0  0  0
  6 26  1  0  0  0  0
  7 10  1  0  0  0  0
  7 12  1  0  0  0  0
  7 27  1  0  0  0  0
  8  9  1  0  0  0  0
  8 28  1  0  0  0  0
  9 10  1  0  0  0  0
  9 29  1  0  0  0  0
  9 30  1  0  0  0  0
 11 13  1  0  0  0  0
 11 31  1  0  0  0  0
 11 32  1  0  0  0  0
 12 14  2  0  0  0  0
 12 33  1  0  0  0  0
 13 15  2  0  0  0  0
 13 34  1  0  0  0  0
 14 16  1  0  0  0  0
 14 36  1  0  0  0  0
 15 17  1  0  0  0  0
 15 37  1  0  0  0  0
 16 18  1  0  0  0  0
 17 20  1  0  0  0  0
 17 38  1  0  0  0  0
 17 39  1  0  0  0  0
 18 19  1  0  0  0  0
 18 40  1  0  0  0  0
 18 41  1  0  0  0  0
 19 21  1  0  0  0  0
 19 42  1  0  0  0  0
 19 43  1  0  0  0  0
 20 23  1  0  0  0  0
 20 44  1  0  0  0  0
 20 45  1  0  0  0  0
 21 22  1  0  0  0  0
 21 46  1  0  0  0  0
 21 47  1  0  0  0  0
 22 24  1  0  0  0  0
 22 48  1  0  0  0  0
 22 49  1  0  0  0  0
 23 25  1  0  0  0  0
 23 50  1  0  0  0  0
 23 51  1  0  0  0  0
 24 52  1  0  0  0  0
 24 53  1  0  0  0  0
 24 54  1  0  0  0  0
M  END
> <PUBCHEM_COMPOUND_CID>
5280727

> <PUBCHEM_CONFORMER_RMSD>
1.2

> <PUBCHEM_CONFORMER_DIVERSEORDER>
1
73
58
122
48
92
95
94
18
44
39
131
51
125
16
132
111
80
78
23
100
93
15
71
82
11
21
42
87
123
67
17
133
2
126
66
130
12
102
121
81
90
85
103
70
104
76
79
28
57
33
89
22
105
56
36
74
114
129
91
117
52
110
38
112
14
27
50
119
55
107
96
75
83
20
43
118
35
69
30
26
128
109
120
40
127
4
88
13
101
108
77
3
84
46
41
63
124
49
7
37
47
8
115
25
6
29
106
9
116
54
113
99
19
10
34
60
59
68
72
32
64
97
61
45
53
98
86
65
5
24
31
62

> <PUBCHEM_MMFF94_PARTIAL_CHARGES>
25
1 -0.68
10 0.45
11 0.14
12 -0.29
13 -0.29
14 -0.14
15 -0.29
16 0.49
17 0.14
18 0.06
2 -0.57
23 0.06
25 0.66
3 -0.57
33 0.15
34 0.15
35 0.4
36 0.15
37 0.15
4 -0.65
5 -0.57
55 0.5
7 0.2
8 0.28
9 0.06

> <PUBCHEM_EFFECTIVE_ROTOR_COUNT>
12.8

> <PUBCHEM_PHARMACOPHORE_FEATURES>
11
1 1 acceptor
1 1 donor
1 2 acceptor
1 24 hydrophobe
1 3 acceptor
1 4 acceptor
1 5 acceptor
3 4 5 25 anion
4 15 17 20 23 hydrophobe
4 18 19 21 22 hydrophobe
5 6 7 8 9 10 rings

> <PUBCHEM_HEAVY_ATOM_COUNT>
25

> <PUBCHEM_ATOM_DEF_STEREO_COUNT>
3

> <PUBCHEM_ATOM_UDEF_STEREO_COUNT>
0

> <PUBCHEM_BOND_DEF_STEREO_COUNT>
2

> <PUBCHEM_BOND_UDEF_STEREO_COUNT>
0

> <PUBCHEM_ISOTOPIC_ATOM_COUNT>
0

> <PUBCHEM_COMPONENT_COUNT>
1

> <PUBCHEM_CACTVS_TAUTO_COUNT>
12

> <PUBCHEM_CONFORMER_ID>
005093D700000001

> <PUBCHEM_MMFF94_ENERGY>
23.8932

> <PUBCHEM_FEATURE_SELFOVERLAP>
55.877

> <PUBCHEM_SHAPE_FINGERPRINT>
10291535 26 18410007762712538136
10816530 145 18267850710167022387
12788726 201 18413393133224104010
14251757 5 18342455915812100162
14931854 50 18192451846606163781
17844677 252 17988073388827605782
20766409 102 18266164038916136020
20771845 35 17121963718305546755
21033648 144 17532100384950019030
22956985 138 17046252407851346426
283562 15 18272652351008940507
328310 18 18261390096249321516
395649 100 18410008867553309740
4409770 3 18411979161022655986
445580 37 18272923922222895094
469060 322 17846200199333865041
531348 171 18041000708681663526
7288768 16 18056749056422270401

> <PUBCHEM_SHAPE_MULTIPOLES>
485.14
13.92
5.22
1.69
45.83
3.87
-0.23
0.6
-6.47
-8.37
2.94
-1.71
0.3
0.76

> <PUBCHEM_SHAPE_SELFOVERLAP>
956.801

> <PUBCHEM_SHAPE_VOLUME>
288.9

> <PUBCHEM_COORDINATE_TYPE>
2
5
10

$$$$

