9129
  -OEChem-07051213142D

 38 43  0     0  0  0  0  0  0999 V2000
    4.6153   -1.8173    0.0000 C   0  0  0  0  0  0  0  0  0  0  0  0
    3.7493   -1.3173    0.0000 C   0  0  0  0  0  0  0  0  0  0  0  0
    5.4814   -1.3173    0.0000 C   0  0  0  0  0  0  0  0  0  0  0  0
    3.7493   -0.3173    0.0000 C   0  0  0  0  0  0  0  0  0  0  0  0
    5.4814   -0.3173    0.0000 C   0  0  0  0  0  0  0  0  0  0  0  0
    4.6153    0.1827    0.0000 C   0  0  0  0  0  0  0  0  0  0  0  0
    2.8393   -1.8241    0.0000 C   0  0  0  0  0  0  0  0  0  0  0  0
    4.6314   -2.8588    0.0000 C   0  0  0  0  0  0  0  0  0  0  0  0
    4.5993    1.2242    0.0000 C   0  0  0  0  0  0  0  0  0  0  0  0
    6.3914    0.1896    0.0000 C   0  0  0  0  0  0  0  0  0  0  0  0
    5.4973    1.7520    0.0000 C   0  0  0  0  0  0  0  0  0  0  0  0
    6.3994    1.2312    0.0000 C   0  0  0  0  0  0  0  0  0  0  0  0
    2.8911    0.1796    0.0000 C   0  0  0  0  0  0  0  0  0  0  0  0
    6.3408   -1.8121    0.0000 C   0  0  0  0  0  0  0  0  0  0  0  0
    2.8313   -2.8657    0.0000 C   0  0  0  0  0  0  0  0  0  0  0  0
    3.7334   -3.3866    0.0000 C   0  0  0  0  0  0  0  0  0  0  0  0
    2.0000   -1.2959    0.0000 C   0  0  0  0  0  0  0  0  0  0  0  0
    5.5085   -3.3216    0.0000 C   0  0  0  0  0  0  0  0  0  0  0  0
    6.3543   -2.8037    0.0000 C   0  0  0  0  0  0  0  0  0  0  0  0
    2.0256   -0.3045    0.0000 C   0  0  0  0  0  0  0  0  0  0  0  0
    7.3473    1.7591    0.0000 C   0  0  0  0  0  0  0  0  0  0  0  0
    5.4806    2.8368    0.0000 C   0  0  0  0  0  0  0  0  0  0  0  0
    7.3556    2.8441    0.0000 C   0  0  0  0  0  0  0  0  0  0  0  0
    6.4160    3.3866    0.0000 C   0  0  0  0  0  0  0  0  0  0  0  0
    4.0588    1.5280    0.0000 H   0  0  0  0  0  0  0  0  0  0  0  0
    6.9247   -0.1266    0.0000 H   0  0  0  0  0  0  0  0  0  0  0  0
    2.8957    0.7996    0.0000 H   0  0  0  0  0  0  0  0  0  0  0  0
    6.8755   -1.4981    0.0000 H   0  0  0  0  0  0  0  0  0  0  0  0
    2.2932   -3.1737    0.0000 H   0  0  0  0  0  0  0  0  0  0  0  0
    3.7358   -4.0066    0.0000 H   0  0  0  0  0  0  0  0  0  0  0  0
    1.4534   -1.5886    0.0000 H   0  0  0  0  0  0  0  0  0  0  0  0
    5.5284   -3.9412    0.0000 H   0  0  0  0  0  0  0  0  0  0  0  0
    1.4949    0.0160    0.0000 H   0  0  0  0  0  0  0  0  0  0  0  0
    6.8972   -3.1030    0.0000 H   0  0  0  0  0  0  0  0  0  0  0  0
    4.9401    3.1406    0.0000 H   0  0  0  0  0  0  0  0  0  0  0  0
    7.8806    1.4429    0.0000 H   0  0  0  0  0  0  0  0  0  0  0  0
    6.4136    4.0066    0.0000 H   0  0  0  0  0  0  0  0  0  0  0  0
    7.8938    3.1520    0.0000 H   0  0  0  0  0  0  0  0  0  0  0  0
  1  2  1  0  0  0  0
  1  3  1  0  0  0  0
  1  8  2  0  0  0  0
  2  4  1  0  0  0  0
  2  7  2  0  0  0  0
  3  5  1  0  0  0  0
  3 14  2  0  0  0  0
  4  6  1  0  0  0  0
  4 13  2  0  0  0  0
  5  6  1  0  0  0  0
  5 10  2  0  0  0  0
  6  9  2  0  0  0  0
  7 15  1  0  0  0  0
  7 17  1  0  0  0  0
  8 16  1  0  0  0  0
  8 18  1  0  0  0  0
  9 11  1  0  0  0  0
  9 25  1  0  0  0  0
 10 12  1  0  0  0  0
 10 26  1  0  0  0  0
 11 12  1  0  0  0  0
 11 22  2  0  0  0  0
 12 21  2  0  0  0  0
 13 20  1  0  0  0  0
 13 27  1  0  0  0  0
 14 19  1  0  0  0  0
 14 28  1  0  0  0  0
 15 16  2  0  0  0  0
 15 29  1  0  0  0  0
 16 30  1  0  0  0  0
 17 20  2  0  0  0  0
 17 31  1  0  0  0  0
 18 19  2  0  0  0  0
 18 32  1  0  0  0  0
 19 34  1  0  0  0  0
 20 33  1  0  0  0  0
 21 23  1  0  0  0  0
 21 36  1  0  0  0  0
 22 24  1  0  0  0  0
 22 35  1  0  0  0  0
 23 24  2  0  0  0  0
 23 38  1  0  0  0  0
 24 37  1  0  0  0  0
M  END
> <PUBCHEM_COMPOUND_CID>
9129

> <PUBCHEM_COMPOUND_CANONICALIZED>
1

> <PUBCHEM_CACTVS_COMPLEXITY>
436

> <PUBCHEM_CACTVS_HBOND_ACCEPTOR>
0

> <PUBCHEM_CACTVS_HBOND_DONOR>
0

> <PUBCHEM_CACTVS_ROTATABLE_BOND>
0

> <PUBCHEM_CACTVS_SUBSKEYS>
AAADccB4AAAAAAAAAAAAAAAAAAAAAAAAAAAwYMGDAAAAAADBVAAAGAAAAAAADACAGAAwAMAAAACAAiBCAAACAAAgAAAIiAAAAIgIICKAERCAIAAggAAIiAcAgMAOwAACAAAQAACAAAQAACAAAAAAAAAAAA==

> <PUBCHEM_IUPAC_INCHI>
InChI=1S/C24H14/c1-2-6-18-14-22-20-10-4-8-16-12-11-15-7-3-9-19(23(15)24(16)20)21(22)13-17(18)5-1/h1-14H

> <PUBCHEM_IUPAC_INCHIKEY>
SRCZXQXKBVWAFC-UHFFFAOYSA-N

> <PUBCHEM_XLOGP3>
7.2

> <PUBCHEM_EXACT_MASS>
302.10955

> <PUBCHEM_MOLECULAR_FORMULA>
C24H14

> <PUBCHEM_MOLECULAR_WEIGHT>
302.36796

> <PUBCHEM_OPENEYE_CAN_SMILES>
C1=CC=C2C=C3C4=CC=CC5=C4C6=C(C=CC=C6C3=CC2=C1)C=C5

> <PUBCHEM_OPENEYE_ISO_SMILES>
C1=CC=C2C=C3C4=CC=CC5=C4C6=C(C=CC=C6C3=CC2=C1)C=C5

> <PUBCHEM_CACTVS_TPSA>
0

> <PUBCHEM_MONOISOTOPIC_WEIGHT>
302.10955

> <PUBCHEM_TOTAL_CHARGE>
0

> <PUBCHEM_HEAVY_ATOM_COUNT>
24

> <PUBCHEM_ATOM_DEF_STEREO_COUNT>
0

> <PUBCHEM_ATOM_UDEF_STEREO_COUNT>
0

> <PUBCHEM_BOND_DEF_STEREO_COUNT>
0

> <PUBCHEM_BOND_UDEF_STEREO_COUNT>
0

> <PUBCHEM_ISOTOPIC_ATOM_COUNT>
0

> <PUBCHEM_COMPONENT_COUNT>
1

> <PUBCHEM_CACTVS_TAUTO_COUNT>
1

> <PUBCHEM_COORDINATE_TYPE>
1
5
255

> <PUBCHEM_BONDANNOTATIONS>
1  2  8
1  3  8
1  8  8
10  12  8
11  12  8
11  22  8
12  21  8
13  20  8
14  19  8
15  16  8
17  20  8
18  19  8
2  4  8
2  7  8
21  23  8
22  24  8
23  24  8
3  14  8
3  5  8
4  13  8
4  6  8
5  10  8
5  6  8
6  9  8
7  15  8
7  17  8
8  16  8
8  18  8
9  11  8

$$$$

