394846
  -OEChem-07051213002D

 49 51  0     1  0  0  0  0  0999 V2000
    6.8208    0.9428    0.0000 O   0  0  0  0  0  0  0  0  0  0  0  0
    5.9460   -1.2378    0.0000 O   0  0  0  0  0  0  0  0  0  0  0  0
    7.4594   -0.7208    0.0000 O   0  0  0  0  0  0  0  0  0  0  0  0
    4.6056    4.1561    0.0000 O   0  0  0  0  0  0  0  0  0  0  0  0
    3.1400   -3.7596    0.0000 O   0  0  0  0  0  0  0  0  0  0  0  0
    2.6166    4.3651    0.0000 O   0  0  0  0  0  0  0  0  0  0  0  0
    4.8720   -4.7596    0.0000 O   0  0  0  0  0  0  0  0  0  0  0  0
    5.2381    0.6064    0.0000 C   0  0  2  0  0  0  0  0  0  0  0  0
    5.7381   -0.2596    0.0000 C   0  0  2  0  0  0  0  0  0  0  0  0
    5.9072    1.3496    0.0000 C   0  0  0  0  0  0  0  0  0  0  0  0
    4.2436    0.7109    0.0000 C   0  0  0  0  0  0  0  0  0  0  0  0
    4.8720   -0.7596    0.0000 C   0  0  0  0  0  0  0  0  0  0  0  0
    6.7162   -0.0517    0.0000 C   0  0  0  0  0  0  0  0  0  0  0  0
    3.8368    1.6245    0.0000 C   0  0  0  0  0  0  0  0  0  0  0  0
    4.8720   -1.7596    0.0000 C   0  0  0  0  0  0  0  0  0  0  0  0
    4.4246    2.4335    0.0000 C   0  0  0  0  0  0  0  0  0  0  0  0
    2.8423    1.7290    0.0000 C   0  0  0  0  0  0  0  0  0  0  0  0
    4.0060   -2.2596    0.0000 C   0  0  0  0  0  0  0  0  0  0  0  0
    5.7381   -2.2596    0.0000 C   0  0  0  0  0  0  0  0  0  0  0  0
    4.0179    3.3470    0.0000 C   0  0  0  0  0  0  0  0  0  0  0  0
    4.0060   -3.2596    0.0000 C   0  0  0  0  0  0  0  0  0  0  0  0
    2.4356    2.6426    0.0000 C   0  0  0  0  0  0  0  0  0  0  0  0
    5.7381   -3.2596    0.0000 C   0  0  0  0  0  0  0  0  0  0  0  0
    3.0233    3.4516    0.0000 C   0  0  0  0  0  0  0  0  0  0  0  0
    4.8720   -3.7596    0.0000 C   0  0  0  0  0  0  0  0  0  0  0  0
    4.1989    5.0696    0.0000 C   0  0  0  0  0  0  0  0  0  0  0  0
    2.2740   -3.2596    0.0000 C   0  0  0  0  0  0  0  0  0  0  0  0
    5.0159    1.1852    0.0000 H   0  0  0  0  0  0  0  0  0  0  0  0
    6.2172    1.8865    0.0000 H   0  0  0  0  0  0  0  0  0  0  0  0
    5.4056    1.7140    0.0000 H   0  0  0  0  0  0  0  0  0  0  0  0
    3.6420    0.5609    0.0000 H   0  0  0  0  0  0  0  0  0  0  0  0
    4.2868    0.0925    0.0000 H   0  0  0  0  0  0  0  0  0  0  0  0
    4.6600   -0.1770    0.0000 H   0  0  0  0  0  0  0  0  0  0  0  0
    4.2615   -0.8673    0.0000 H   0  0  0  0  0  0  0  0  0  0  0  0
    5.4852   -1.6526    0.0000 H   0  0  0  0  0  0  0  0  0  0  0  0
    5.0412    2.3687    0.0000 H   0  0  0  0  0  0  0  0  0  0  0  0
    2.4779    1.2274    0.0000 H   0  0  0  0  0  0  0  0  0  0  0  0
    3.4691   -1.9496    0.0000 H   0  0  0  0  0  0  0  0  0  0  0  0
    6.2750   -1.9496    0.0000 H   0  0  0  0  0  0  0  0  0  0  0  0
    1.8190    2.7074    0.0000 H   0  0  0  0  0  0  0  0  0  0  0  0
    6.2750   -3.5696    0.0000 H   0  0  0  0  0  0  0  0  0  0  0  0
    2.0000    4.4299    0.0000 H   0  0  0  0  0  0  0  0  0  0  0  0
    5.4090   -5.0696    0.0000 H   0  0  0  0  0  0  0  0  0  0  0  0
    4.7653    5.3218    0.0000 H   0  0  0  0  0  0  0  0  0  0  0  0
    3.9467    5.6360    0.0000 H   0  0  0  0  0  0  0  0  0  0  0  0
    3.6325    4.8174    0.0000 H   0  0  0  0  0  0  0  0  0  0  0  0
    2.5840   -2.7227    0.0000 H   0  0  0  0  0  0  0  0  0  0  0  0
    1.7370   -2.9496    0.0000 H   0  0  0  0  0  0  0  0  0  0  0  0
    1.9640   -3.7966    0.0000 H   0  0  0  0  0  0  0  0  0  0  0  0
  1 10  1  0  0  0  0
  1 13  1  0  0  0  0
  9  2  1  1  0  0  0
  2 35  1  0  0  0  0
  3 13  2  0  0  0  0
  4 20  1  0  0  0  0
  4 26  1  0  0  0  0
  5 21  1  0  0  0  0
  5 27  1  0  0  0  0
  6 24  1  0  0  0  0
  6 42  1  0  0  0  0
  7 25  1  0  0  0  0
  7 43  1  0  0  0  0
  8  9  1  0  0  0  0
  8 10  1  0  0  0  0
  8 11  1  1  0  0  0
  8 28  1  0  0  0  0
  9 12  1  0  0  0  0
  9 13  1  0  0  0  0
 10 29  1  0  0  0  0
 10 30  1  0  0  0  0
 11 14  1  0  0  0  0
 11 31  1  0  0  0  0
 11 32  1  0  0  0  0
 12 15  1  0  0  0  0
 12 33  1  0  0  0  0
 12 34  1  0  0  0  0
 14 16  2  0  0  0  0
 14 17  1  0  0  0  0
 15 18  2  0  0  0  0
 15 19  1  0  0  0  0
 16 20  1  0  0  0  0
 16 36  1  0  0  0  0
 17 22  2  0  0  0  0
 17 37  1  0  0  0  0
 18 21  1  0  0  0  0
 18 38  1  0  0  0  0
 19 23  2  0  0  0  0
 19 39  1  0  0  0  0
 20 24  2  0  0  0  0
 21 25  2  0  0  0  0
 22 24  1  0  0  0  0
 22 40  1  0  0  0  0
 23 25  1  0  0  0  0
 23 41  1  0  0  0  0
 26 44  1  0  0  0  0
 26 45  1  0  0  0  0
 26 46  1  0  0  0  0
 27 47  1  0  0  0  0
 27 48  1  0  0  0  0
 27 49  1  0  0  0  0
M  END
> <PUBCHEM_COMPOUND_CID>
394846

> <PUBCHEM_COMPOUND_CANONICALIZED>
1

> <PUBCHEM_CACTVS_COMPLEXITY>
513

> <PUBCHEM_CACTVS_HBOND_ACCEPTOR>
7

> <PUBCHEM_CACTVS_HBOND_DONOR>
3

> <PUBCHEM_CACTVS_ROTATABLE_BOND>
6

> <PUBCHEM_CACTVS_SUBSKEYS>
AAADceB4OAAAAAAAAAAAAAAAAAAAASAAAAAwYAAAAAAAAAABQAAAGgAACAAADUSgmAIyDoAABgCIAiDSCAICCAAgIAAIiAFGiIgNJjKGMRqCcCMlwBELuAeK6PyOoAABAAAAQABAAAIAAACAAAAAAAAAAA==

> <PUBCHEM_IUPAC_OPENEYE_NAME>
(3S,4S)-3-hydroxy-3,4-bis[(4-hydroxy-3-methoxy-phenyl)methyl]tetrahydrofuran-2-one

> <PUBCHEM_IUPAC_CAS_NAME>
(3S,4S)-3-hydroxy-3,4-bis[(4-hydroxy-3-methoxyphenyl)methyl]-2-oxolanone

> <PUBCHEM_IUPAC_NAME>
(3S,4S)-3-hydroxy-3,4-bis[(4-hydroxy-3-methoxyphenyl)methyl]oxolan-2-one

> <PUBCHEM_IUPAC_SYSTEMATIC_NAME>
(3S,4S)-3,4-bis[(3-methoxy-4-oxidanyl-phenyl)methyl]-3-oxidanyl-oxolan-2-one

> <PUBCHEM_IUPAC_TRADITIONAL_NAME>
(3S,4S)-3-hydroxy-3,4-divanillyl-tetrahydrofuran-2-one

> <PUBCHEM_IUPAC_INCHI>
InChI=1S/C20H22O7/c1-25-17-8-12(3-5-15(17)21)7-14-11-27-19(23)20(14,24)10-13-4-6-16(22)18(9-13)26-2/h3-6,8-9,14,21-22,24H,7,10-11H2,1-2H3/t14-,20-/m0/s1

> <PUBCHEM_IUPAC_INCHIKEY>
ZITBJWXLODLDRH-XOBRGWDASA-N

> <PUBCHEM_XLOGP3_AA>
2.5

> <PUBCHEM_EXACT_MASS>
374.136553

> <PUBCHEM_MOLECULAR_FORMULA>
C20H22O7

> <PUBCHEM_MOLECULAR_WEIGHT>
374.38448

> <PUBCHEM_OPENEYE_CAN_SMILES>
COC1=C(C=CC(=C1)CC2COC(=O)C2(CC3=CC(=C(C=C3)O)OC)O)O

> <PUBCHEM_OPENEYE_ISO_SMILES>
COC1=C(C=CC(=C1)C[C@H]2COC(=O)[C@@]2(CC3=CC(=C(C=C3)O)OC)O)O

> <PUBCHEM_CACTVS_TPSA>
105

> <PUBCHEM_MONOISOTOPIC_WEIGHT>
374.136553

> <PUBCHEM_TOTAL_CHARGE>
0

> <PUBCHEM_HEAVY_ATOM_COUNT>
27

> <PUBCHEM_ATOM_DEF_STEREO_COUNT>
2

> <PUBCHEM_ATOM_UDEF_STEREO_COUNT>
0

> <PUBCHEM_BOND_DEF_STEREO_COUNT>
0

> <PUBCHEM_BOND_UDEF_STEREO_COUNT>
0

> <PUBCHEM_ISOTOPIC_ATOM_COUNT>
0

> <PUBCHEM_COMPONENT_COUNT>
1

> <PUBCHEM_CACTVS_TAUTO_COUNT>
8

> <PUBCHEM_COORDINATE_TYPE>
1
5
255

> <PUBCHEM_BONDANNOTATIONS>
14  16  8
14  17  8
15  18  8
15  19  8
16  20  8
17  22  8
18  21  8
19  23  8
9  2  5
20  24  8
21  25  8
22  24  8
23  25  8
8  11  5

$$$$

