7166
  -OEChem-06261201513D

 22 22  0     0  0  0  0  0  0999 V2000
    0.8796   -1.5992    0.7750 O   0  0  0  0  0  0  0  0  0  0  0  0
    3.2692   -0.9512   -0.4535 O   0  0  0  0  0  0  0  0  0  0  0  0
    1.5938    0.6430    0.2528 C   0  0  0  0  0  0  0  0  0  0  0  0
   -0.8651   -0.1533    0.1648 C   0  0  0  0  0  0  0  0  0  0  0  0
    0.5352   -0.4574    0.4121 C   0  0  0  0  0  0  0  0  0  0  0  0
   -1.3517    1.1326    0.4002 C   0  0  0  0  0  0  0  0  0  0  0  0
   -1.7219   -1.1475   -0.3081 C   0  0  0  0  0  0  0  0  0  0  0  0
    2.9791    0.2153   -0.1932 C   0  0  0  0  0  0  0  0  0  0  0  0
   -2.6949    1.4246    0.1629 C   0  0  0  0  0  0  0  0  0  0  0  0
   -3.0651   -0.8555   -0.5455 C   0  0  0  0  0  0  0  0  0  0  0  0
   -3.5515    0.4305   -0.3100 C   0  0  0  0  0  0  0  0  0  0  0  0
    3.9933    1.3181   -0.3575 C   0  0  0  0  0  0  0  0  0  0  0  0
    1.6903    1.1468    1.2207 H   0  0  0  0  0  0  0  0  0  0  0  0
    1.2441    1.3611   -0.4975 H   0  0  0  0  0  0  0  0  0  0  0  0
   -0.7123    1.9231    0.7832 H   0  0  0  0  0  0  0  0  0  0  0  0
   -1.3602   -2.1541   -0.5017 H   0  0  0  0  0  0  0  0  0  0  0  0
   -3.0749    2.4247    0.3495 H   0  0  0  0  0  0  0  0  0  0  0  0
   -3.7322   -1.6290   -0.9145 H   0  0  0  0  0  0  0  0  0  0  0  0
   -4.5974    0.6576   -0.4942 H   0  0  0  0  0  0  0  0  0  0  0  0
    4.0946    1.8657    0.5828 H   0  0  0  0  0  0  0  0  0  0  0  0
    4.9649    0.8901   -0.6197 H   0  0  0  0  0  0  0  0  0  0  0  0
    3.6742    1.9934   -1.1550 H   0  0  0  0  0  0  0  0  0  0  0  0
  1  5  2  0  0  0  0
  2  8  2  0  0  0  0
  3  5  1  0  0  0  0
  3  8  1  0  0  0  0
  3 13  1  0  0  0  0
  3 14  1  0  0  0  0
  4  5  1  0  0  0  0
  4  6  2  0  0  0  0
  4  7  1  0  0  0  0
  6  9  1  0  0  0  0
  6 15  1  0  0  0  0
  7 10  2  0  0  0  0
  7 16  1  0  0  0  0
  8 12  1  0  0  0  0
  9 11  2  0  0  0  0
  9 17  1  0  0  0  0
 10 11  1  0  0  0  0
 10 18  1  0  0  0  0
 11 19  1  0  0  0  0
 12 20  1  0  0  0  0
 12 21  1  0  0  0  0
 12 22  1  0  0  0  0
M  END
> <PUBCHEM_COMPOUND_CID>
7166

> <PUBCHEM_CONFORMER_RMSD>
0.6

> <PUBCHEM_CONFORMER_DIVERSEORDER>
1
28
18
12
23
13
29
4
9
26
35
21
3
6
16
10
31
8
33
19
32
24
2
36
14
7
17
27
5
30
15
22
11
20
34
25

> <PUBCHEM_MMFF94_PARTIAL_CHARGES>
17
1 -0.57
10 -0.15
11 -0.15
12 0.06
15 0.15
16 0.15
17 0.15
18 0.15
19 0.15
2 -0.57
3 0.12
4 0.09
5 0.42
6 -0.15
7 -0.15
8 0.45
9 -0.15

> <PUBCHEM_EFFECTIVE_ROTOR_COUNT>
3

> <PUBCHEM_PHARMACOPHORE_FEATURES>
4
1 1 acceptor
1 2 acceptor
1 3 anion
6 4 6 7 9 10 11 rings

> <PUBCHEM_HEAVY_ATOM_COUNT>
12

> <PUBCHEM_ATOM_DEF_STEREO_COUNT>
0

> <PUBCHEM_ATOM_UDEF_STEREO_COUNT>
0

> <PUBCHEM_BOND_DEF_STEREO_COUNT>
0

> <PUBCHEM_BOND_UDEF_STEREO_COUNT>
0

> <PUBCHEM_ISOTOPIC_ATOM_COUNT>
0

> <PUBCHEM_COMPONENT_COUNT>
1

> <PUBCHEM_CACTVS_TAUTO_COUNT>
5

> <PUBCHEM_CONFORMER_ID>
00001BFE00000001

> <PUBCHEM_MMFF94_ENERGY>
26.8612

> <PUBCHEM_FEATURE_SELFOVERLAP>
20.302

> <PUBCHEM_SHAPE_FINGERPRINT>
12346645 44 18343586243598018778
12897270 3 18408047299041373411
12932764 1 17775291607051025962
14144814 61 18412546534818434480
14325111 11 18410573989673343224
15669948 3 18260840271383621503
15775835 57 18413105082409512132
16945 1 18337124397014246291
170605 34 18273495693184599618
18186145 218 18272650164648202718
20281407 28 14201396096856982948
20300324 65 18260547771109700444
20361792 2 4823213909538221376
20645464 45 13038912148492864641
20645477 70 18187642544165314582
20653085 51 18411971485958049112
20871999 31 18189629263134973287
22485316 2 7204780271867177060
23402539 116 18338526253002149676
23402655 69 18408041840001160588
23552423 10 18195817486148097035
23559900 14 18187085053652941544
2748010 2 17760665671914397915
369184 2 12031788067619863821
42 15 9079118873134066069
528716 315 18334573512599480381
7364860 26 18265055923629569818
8030462 33 18336845155346832275
93112 12 18334573551322744908

> <PUBCHEM_SHAPE_MULTIPOLES>
235.22
6.77
1.51
0.75
3.52
0
0.01
1.5
-1.56
-0.12
0.07
0
-0.06
-0.35

> <PUBCHEM_SHAPE_SELFOVERLAP>
483.535

> <PUBCHEM_SHAPE_VOLUME>
135.2

> <PUBCHEM_COORDINATE_TYPE>
2
5
10

$$$$

