9543415
  -OEChem-07051213083D

 19 19  0     1  0  0  0  0  0999 V2000
    2.7005   -1.5981   -0.3617 Cl  0  0  0  0  0  0  0  0  0  0  0  0
   -2.6885   -1.6195   -0.3603 Cl  0  0  0  0  0  0  0  0  0  0  0  0
    2.7359    1.6970   -0.2561 Cl  0  0  0  0  0  0  0  0  0  0  0  0
   -2.7509    1.6764   -0.2545 Cl  0  0  0  0  0  0  0  0  0  0  0  0
   -0.0084    2.0692    1.4964 Cl  0  0  0  0  0  0  0  0  0  0  0  0
    0.0198   -2.5522    0.8213 O   0  0  0  0  0  0  0  0  0  0  0  0
    0.0043   -1.4331   -0.0693 C   0  0  0  0  0  0  0  0  0  0  0  0
    1.2847   -0.6160    0.1751 C   0  0  2  0  0  0  0  0  0  0  0  0
   -1.2822   -0.6249    0.1755 C   0  0  1  0  0  0  0  0  0  0  0  0
    1.2533    0.7302   -0.5677 C   0  0  1  0  0  0  0  0  0  0  0  0
   -1.2614    0.7210   -0.5672 C   0  0  2  0  0  0  0  0  0  0  0  0
   -0.0070    1.5500   -0.2316 C   0  0  0  0  0  0  0  0  0  0  0  0
    0.0099   -1.8212   -1.0967 H   0  0  0  0  0  0  0  0  0  0  0  0
    1.4333   -0.4711    1.2511 H   0  0  0  0  0  0  0  0  0  0  0  0
   -1.4309   -0.4816    1.2516 H   0  0  0  0  0  0  0  0  0  0  0  0
    1.2580    0.5420   -1.6488 H   0  0  0  0  0  0  0  0  0  0  0  0
   -1.2654    0.5328   -1.6483 H   0  0  0  0  0  0  0  0  0  0  0  0
   -0.0105    2.4741   -0.8217 H   0  0  0  0  0  0  0  0  0  0  0  0
   -0.7919   -3.0626    0.6590 H   0  0  0  0  0  0  0  0  0  0  0  0
  1  8  1  0  0  0  0
  2  9  1  0  0  0  0
  3 10  1  0  0  0  0
  4 11  1  0  0  0  0
  5 12  1  0  0  0  0
  6  7  1  0  0  0  0
  6 19  1  0  0  0  0
  7  8  1  0  0  0  0
  7  9  1  0  0  0  0
  7 13  1  0  0  0  0
  8 10  1  0  0  0  0
  8 14  1  0  0  0  0
  9 11  1  0  0  0  0
  9 15  1  0  0  0  0
 10 12  1  0  0  0  0
 10 16  1  0  0  0  0
 11 12  1  0  0  0  0
 11 17  1  0  0  0  0
 12 18  1  0  0  0  0
M  END
> <PUBCHEM_COMPOUND_CID>
9543415

> <PUBCHEM_CONFORMER_RMSD>
0.4

> <PUBCHEM_CONFORMER_DIVERSEORDER>
1

> <PUBCHEM_MMFF94_PARTIAL_CHARGES>
13
1 -0.29
10 0.29
11 0.29
12 0.29
19 0.4
2 -0.29
3 -0.29
4 -0.29
5 -0.29
6 -0.68
7 0.28
8 0.29
9 0.29

> <PUBCHEM_EFFECTIVE_ROTOR_COUNT>
1.2

> <PUBCHEM_PHARMACOPHORE_FEATURES>
3
1 6 acceptor
1 6 donor
6 7 8 9 10 11 12 rings

> <PUBCHEM_HEAVY_ATOM_COUNT>
12

> <PUBCHEM_ATOM_DEF_STEREO_COUNT>
4

> <PUBCHEM_ATOM_UDEF_STEREO_COUNT>
0

> <PUBCHEM_BOND_DEF_STEREO_COUNT>
0

> <PUBCHEM_BOND_UDEF_STEREO_COUNT>
0

> <PUBCHEM_ISOTOPIC_ATOM_COUNT>
0

> <PUBCHEM_COMPONENT_COUNT>
1

> <PUBCHEM_CACTVS_TAUTO_COUNT>
1

> <PUBCHEM_CONFORMER_ID>
00919EF700000001

> <PUBCHEM_MMFF94_ENERGY>
24.9748

> <PUBCHEM_FEATURE_SELFOVERLAP>
15.223

> <PUBCHEM_SHAPE_FINGERPRINT>
12423570 1 12408498459156238048
13380535 220 18342175595896645191
13380535 76 18124882265743113246
14617773 55 18041265647405984489
14713566 1 18119249707833346323
14817 1 16227985215799334592
161256 15 18118692006741404373
16945 1 18054522562197144949
18185500 45 17979920736822813870
193761 8 18411981360035037071
20588541 1 18051407375183356166
21501502 16 18411420596225283165
22344851 341 18341901808964206770
2334 1 18411982429481880740
23419403 2 16466512143116134687
23526114 1 18410858758715838365
23552423 10 18343022215560463398
23559900 14 18263926721684200046
241688 4 18412544348701173312
2748010 2 18413388734929107455
5084963 1 18335421265886920378
5255222 1 18120376449659195989
53812653 166 18190463761910367545
66348 1 17762619894438977206

> <PUBCHEM_SHAPE_MULTIPOLES>
250.43
3.81
2.88
0.96
0
0.36
0.26
0.05
-0.86
0
0.56
0
-0.31
0

> <PUBCHEM_SHAPE_SELFOVERLAP>
451.185

> <PUBCHEM_SHAPE_VOLUME>
162.7

> <PUBCHEM_COORDINATE_TYPE>
2
5
10

$$$$

