4464
  -OEChem-06261200082D

 46 48  0     0  0  0  0  0  0999 V2000
    4.6351   -0.4147    0.0000 S   0  0  0  0  0  0  0  0  0  0  0  0
    6.8834    3.4860    0.0000 S   0  0  0  0  0  0  0  0  0  0  0  0
    3.4030    2.4514    0.0000 S   0  0  0  0  0  0  0  0  0  0  0  0
    4.1351   -1.2807    0.0000 O   0  0  0  0  0  0  0  0  0  0  0  0
    6.8718    4.4860    0.0000 O   0  0  0  0  0  0  0  0  0  0  0  0
    3.7690    0.0854    0.0000 O   0  0  0  0  0  0  0  0  0  0  0  0
    5.5010   -0.9146    0.0000 O   0  0  0  0  0  0  0  0  0  0  0  0
    2.5369    2.9514    0.0000 O   0  0  0  0  0  0  0  0  0  0  0  0
    7.8834    3.4976    0.0000 O   0  0  0  0  0  0  0  0  0  0  0  0
    5.8835    3.4745    0.0000 O   0  0  0  0  0  0  0  0  0  0  0  0
    2.9030    1.5854    0.0000 O   0  0  0  0  0  0  0  0  0  0  0  0
    3.9030    3.3174    0.0000 O   0  0  0  0  0  0  0  0  0  0  0  0
    8.8948    0.3936    0.0000 O   0  0  0  0  0  0  0  0  0  0  0  0
    8.8348   -4.8021    0.0000 O   0  5  0  0  0  0  0  0  0  0  0  0
    7.3449   -3.9188    0.0000 O   0  0  0  0  0  0  0  0  0  0  0  0
    7.3850   -0.4549    0.0000 N   0  0  0  0  0  0  0  0  0  0  0  0
    8.3449   -3.9304    0.0000 N   0  3  0  0  0  0  0  0  0  0  0  0
    6.0010    0.9514    0.0000 C   0  0  0  0  0  0  0  0  0  0  0  0
    6.0010    1.9514    0.0000 C   0  0  0  0  0  0  0  0  0  0  0  0
    5.1350    0.4514    0.0000 C   0  0  0  0  0  0  0  0  0  0  0  0
    6.8950    2.4861    0.0000 C   0  0  0  0  0  0  0  0  0  0  0  0
    6.8950    0.4168    0.0000 C   0  0  0  0  0  0  0  0  0  0  0  0
    5.1350    2.4514    0.0000 C   0  0  0  0  0  0  0  0  0  0  0  0
    4.2690    1.9514    0.0000 C   0  0  0  0  0  0  0  0  0  0  0  0
    4.2690    0.9514    0.0000 C   0  0  0  0  0  0  0  0  0  0  0  0
    7.8010    1.9722    0.0000 C   0  0  0  0  0  0  0  0  0  0  0  0
    7.8010    0.9306    0.0000 C   0  0  0  0  0  0  0  0  0  0  0  0
    8.3849   -0.4665    0.0000 C   0  0  0  0  0  0  0  0  0  0  0  0
    8.8748   -1.3383    0.0000 C   0  0  0  0  0  0  0  0  0  0  0  0
    8.3649   -2.1984    0.0000 C   0  0  0  0  0  0  0  0  0  0  0  0
    9.8748   -1.3499    0.0000 C   0  0  0  0  0  0  0  0  0  0  0  0
    8.8549   -3.0702    0.0000 C   0  0  0  0  0  0  0  0  0  0  0  0
   10.3647   -2.2216    0.0000 C   0  0  0  0  0  0  0  0  0  0  0  0
    9.8547   -3.0818    0.0000 C   0  0  0  0  0  0  0  0  0  0  0  0
    5.1350    3.0714    0.0000 H   0  0  0  0  0  0  0  0  0  0  0  0
    3.7320    0.6414    0.0000 H   0  0  0  0  0  0  0  0  0  0  0  0
    8.3368    2.2843    0.0000 H   0  0  0  0  0  0  0  0  0  0  0  0
    8.3368    0.6185    0.0000 H   0  0  0  0  0  0  0  0  0  0  0  0
    7.0688   -0.9883    0.0000 H   0  0  0  0  0  0  0  0  0  0  0  0
    3.5151   -1.2807    0.0000 H   0  0  0  0  0  0  0  0  0  0  0  0
    7.4052    4.8021    0.0000 H   0  0  0  0  0  0  0  0  0  0  0  0
    2.0000    2.6414    0.0000 H   0  0  0  0  0  0  0  0  0  0  0  0
    7.7450   -2.1913    0.0000 H   0  0  0  0  0  0  0  0  0  0  0  0
   10.1909   -0.8165    0.0000 H   0  0  0  0  0  0  0  0  0  0  0  0
   10.9847   -2.2288    0.0000 H   0  0  0  0  0  0  0  0  0  0  0  0
   10.1585   -3.6223    0.0000 H   0  0  0  0  0  0  0  0  0  0  0  0
  1  4  1  0  0  0  0
  1  6  2  0  0  0  0
  1  7  2  0  0  0  0
  1 20  1  0  0  0  0
  2  5  1  0  0  0  0
  2  9  2  0  0  0  0
  2 10  2  0  0  0  0
  2 21  1  0  0  0  0
  3  8  1  0  0  0  0
  3 11  2  0  0  0  0
  3 12  2  0  0  0  0
  3 24  1  0  0  0  0
  4 40  1  0  0  0  0
  5 41  1  0  0  0  0
  8 42  1  0  0  0  0
 13 28  2  0  0  0  0
 14 17  1  0  0  0  0
 15 17  2  0  0  0  0
 16 22  1  0  0  0  0
 16 28  1  0  0  0  0
 16 39  1  0  0  0  0
 17 32  1  0  0  0  0
 18 19  1  0  0  0  0
 18 20  1  0  0  0  0
 18 22  2  0  0  0  0
 19 21  2  0  0  0  0
 19 23  1  0  0  0  0
 20 25  2  0  0  0  0
 21 26  1  0  0  0  0
 22 27  1  0  0  0  0
 23 24  2  0  0  0  0
 23 35  1  0  0  0  0
 24 25  1  0  0  0  0
 25 36  1  0  0  0  0
 26 27  2  0  0  0  0
 26 37  1  0  0  0  0
 27 38  1  0  0  0  0
 28 29  1  0  0  0  0
 29 30  2  0  0  0  0
 29 31  1  0  0  0  0
 30 32  1  0  0  0  0
 30 43  1  0  0  0  0
 31 33  2  0  0  0  0
 31 44  1  0  0  0  0
 32 34  2  0  0  0  0
 33 34  1  0  0  0  0
 33 45  1  0  0  0  0
 34 46  1  0  0  0  0
M  CHG  2  14  -1  17   1
M  END
> <PUBCHEM_COMPOUND_CID>
4464

> <PUBCHEM_COMPOUND_CANONICALIZED>
1

> <PUBCHEM_CACTVS_COMPLEXITY>
1110

> <PUBCHEM_CACTVS_HBOND_ACCEPTOR>
12

> <PUBCHEM_CACTVS_HBOND_DONOR>
4

> <PUBCHEM_CACTVS_ROTATABLE_BOND>
5

> <PUBCHEM_CACTVS_SUBSKEYS>
AAADccB7PABgAAAAAAAAAAAAAAAAAAAAAAAwYMAAAAAAAADBVAAAHgQUCAAADAiB2AAwwcLQQIKJAiVSU3DCAEAlAgAoiBkAZMoIIDLAlZGEIQxglADIyYcciICOkAQAwEAWAAAgCAGAgCwAAAAAAAAAAA==

> <PUBCHEM_IUPAC_OPENEYE_NAME>
8-[(3-nitrobenzoyl)amino]naphthalene-1,3,5-trisulfonic acid

> <PUBCHEM_IUPAC_CAS_NAME>
8-[[(3-nitrophenyl)-oxomethyl]amino]naphthalene-1,3,5-trisulfonic acid

> <PUBCHEM_IUPAC_NAME>
8-[(3-nitrobenzoyl)amino]naphthalene-1,3,5-trisulfonic acid

> <PUBCHEM_IUPAC_SYSTEMATIC_NAME>
8-[(3-nitrophenyl)carbonylamino]naphthalene-1,3,5-trisulfonic acid

> <PUBCHEM_IUPAC_TRADITIONAL_NAME>
8-[(3-nitrobenzoyl)amino]naphthalene-1,3,5-trisulfonic acid

> <PUBCHEM_IUPAC_INCHI>
InChI=1S/C17H12N2O12S3/c20-17(9-2-1-3-10(6-9)19(21)22)18-13-4-5-14(33(26,27)28)12-7-11(32(23,24)25)8-15(16(12)13)34(29,30)31/h1-8H,(H,18,20)(H,23,24,25)(H,26,27,28)(H,29,30,31)

> <PUBCHEM_IUPAC_INCHIKEY>
REIQTUMOJLZAOH-UHFFFAOYSA-N

> <PUBCHEM_XLOGP3_AA>
0.1

> <PUBCHEM_EXACT_MASS>
531.955237

> <PUBCHEM_MOLECULAR_FORMULA>
C17H12N2O12S3

> <PUBCHEM_MOLECULAR_WEIGHT>
532.47838

> <PUBCHEM_OPENEYE_CAN_SMILES>
C1=CC(=CC(=C1)[N+](=O)[O-])C(=O)NC2=C3C(=CC(=CC3=C(C=C2)S(=O)(=O)O)S(=O)(=O)O)S(=O)(=O)O

> <PUBCHEM_OPENEYE_ISO_SMILES>
C1=CC(=CC(=C1)[N+](=O)[O-])C(=O)NC2=C3C(=CC(=CC3=C(C=C2)S(=O)(=O)O)S(=O)(=O)O)S(=O)(=O)O

> <PUBCHEM_CACTVS_TPSA>
263

> <PUBCHEM_MONOISOTOPIC_WEIGHT>
531.955237

> <PUBCHEM_TOTAL_CHARGE>
0

> <PUBCHEM_HEAVY_ATOM_COUNT>
34

> <PUBCHEM_ATOM_DEF_STEREO_COUNT>
0

> <PUBCHEM_ATOM_UDEF_STEREO_COUNT>
0

> <PUBCHEM_BOND_DEF_STEREO_COUNT>
0

> <PUBCHEM_BOND_UDEF_STEREO_COUNT>
0

> <PUBCHEM_ISOTOPIC_ATOM_COUNT>
0

> <PUBCHEM_COMPONENT_COUNT>
1

> <PUBCHEM_CACTVS_TAUTO_COUNT>
2

> <PUBCHEM_COORDINATE_TYPE>
1
5
255

> <PUBCHEM_BONDANNOTATIONS>
18  19  8
18  20  8
18  22  8
19  21  8
19  23  8
20  25  8
21  26  8
22  27  8
23  24  8
24  25  8
26  27  8
29  30  8
29  31  8
30  32  8
31  33  8
32  34  8
33  34  8

$$$$

