442583
  -OEChem-07051212583D

 39 41  0     0  0  0  0  0  0999 V2000
    1.0207   -0.7485    0.0171 O   0  0  0  0  0  0  0  0  0  0  0  0
   -2.8284    2.1710    0.3437 O   0  0  0  0  0  0  0  0  0  0  0  0
   -4.4493   -0.0239    0.2814 O   0  0  0  0  0  0  0  0  0  0  0  0
   -3.3615   -2.5578    0.0874 O   0  0  0  0  0  0  0  0  0  0  0  0
   -0.3771    3.0678    0.3019 O   0  0  0  0  0  0  0  0  0  0  0  0
   -0.8753    0.7609    0.1824 C   0  0  0  0  0  0  0  0  0  0  0  0
   -0.3301   -0.5182    0.0849 C   0  0  0  0  0  0  0  0  0  0  0  0
   -2.2596    0.9357    0.2489 C   0  0  0  0  0  0  0  0  0  0  0  0
   -3.0957   -0.1810    0.2168 C   0  0  0  0  0  0  0  0  0  0  0  0
    1.8782    0.3409    0.0384 C   0  0  0  0  0  0  0  0  0  0  0  0
   -1.1685   -1.6328    0.0534 C   0  0  0  0  0  0  0  0  0  0  0  0
    0.0319    1.9182    0.2148 C   0  0  0  0  0  0  0  0  0  0  0  0
   -2.5516   -1.4625    0.1193 C   0  0  0  0  0  0  0  0  0  0  0  0
    1.4756    1.6180    0.1360 C   0  0  0  0  0  0  0  0  0  0  0  0
    3.3083   -0.0198   -0.0341 C   0  0  0  0  0  0  0  0  0  0  0  0
    4.0293   -0.2706    1.1363 C   0  0  0  0  0  0  0  0  0  0  0  0
    3.9472   -0.1128   -1.2732 C   0  0  0  0  0  0  0  0  0  0  0  0
    5.3801   -0.6118    1.0680 C   0  0  0  0  0  0  0  0  0  0  0  0
    5.2979   -0.4542   -1.3415 C   0  0  0  0  0  0  0  0  0  0  0  0
   -3.1501    2.8309   -0.8786 C   0  0  0  0  0  0  0  0  0  0  0  0
    6.0143   -0.7037   -0.1709 C   0  0  0  0  0  0  0  0  0  0  0  0
   -5.2102   -0.5151   -0.8192 C   0  0  0  0  0  0  0  0  0  0  0  0
   -2.7261   -3.8306   -0.0133 C   0  0  0  0  0  0  0  0  0  0  0  0
   -0.6843   -2.6007   -0.0232 H   0  0  0  0  0  0  0  0  0  0  0  0
    2.1694    2.4510    0.1584 H   0  0  0  0  0  0  0  0  0  0  0  0
    3.5489   -0.2040    2.1096 H   0  0  0  0  0  0  0  0  0  0  0  0
    3.4023    0.0778   -2.1948 H   0  0  0  0  0  0  0  0  0  0  0  0
    5.9379   -0.8064    1.9793 H   0  0  0  0  0  0  0  0  0  0  0  0
    5.7919   -0.5260   -2.3060 H   0  0  0  0  0  0  0  0  0  0  0  0
   -3.3515    3.8826   -0.6573 H   0  0  0  0  0  0  0  0  0  0  0  0
   -4.0500    2.3888   -1.3165 H   0  0  0  0  0  0  0  0  0  0  0  0
   -2.3253    2.7756   -1.5965 H   0  0  0  0  0  0  0  0  0  0  0  0
    7.0660   -0.9696   -0.2242 H   0  0  0  0  0  0  0  0  0  0  0  0
   -6.0685    0.1489   -0.9579 H   0  0  0  0  0  0  0  0  0  0  0  0
   -5.5902   -1.5159   -0.5956 H   0  0  0  0  0  0  0  0  0  0  0  0
   -4.6334   -0.5249   -1.7508 H   0  0  0  0  0  0  0  0  0  0  0  0
   -2.1019   -4.0410    0.8619 H   0  0  0  0  0  0  0  0  0  0  0  0
   -2.1753   -3.9338   -0.9544 H   0  0  0  0  0  0  0  0  0  0  0  0
   -3.5191   -4.5857   -0.0259 H   0  0  0  0  0  0  0  0  0  0  0  0
  1  7  1  0  0  0  0
  1 10  1  0  0  0  0
  2  8  1  0  0  0  0
  2 20  1  0  0  0  0
  3  9  1  0  0  0  0
  3 22  1  0  0  0  0
  4 13  1  0  0  0  0
  4 23  1  0  0  0  0
  5 12  2  0  0  0  0
  6  7  1  0  0  0  0
  6  8  2  0  0  0  0
  6 12  1  0  0  0  0
  7 11  2  0  0  0  0
  8  9  1  0  0  0  0
  9 13  2  0  0  0  0
 10 14  2  0  0  0  0
 10 15  1  0  0  0  0
 11 13  1  0  0  0  0
 11 24  1  0  0  0  0
 12 14  1  0  0  0  0
 14 25  1  0  0  0  0
 15 16  2  0  0  0  0
 15 17  1  0  0  0  0
 16 18  1  0  0  0  0
 16 26  1  0  0  0  0
 17 19  2  0  0  0  0
 17 27  1  0  0  0  0
 18 21  2  0  0  0  0
 18 28  1  0  0  0  0
 19 21  1  0  0  0  0
 19 29  1  0  0  0  0
 20 30  1  0  0  0  0
 20 31  1  0  0  0  0
 20 32  1  0  0  0  0
 21 33  1  0  0  0  0
 22 34  1  0  0  0  0
 22 35  1  0  0  0  0
 22 36  1  0  0  0  0
 23 37  1  0  0  0  0
 23 38  1  0  0  0  0
 23 39  1  0  0  0  0
M  END
> <PUBCHEM_COMPOUND_CID>
442583

> <PUBCHEM_CONFORMER_RMSD>
0.6

> <PUBCHEM_CONFORMER_DIVERSEORDER>
10
3
5
9
7
8
6
2
1
4

> <PUBCHEM_MMFF94_PARTIAL_CHARGES>
30
1 -0.16
10 0.05
11 -0.15
12 0.47
13 0.08
14 -0.14
15 0.03
16 -0.15
17 -0.15
18 -0.15
19 -0.15
2 -0.36
20 0.28
21 -0.15
22 0.28
23 0.28
24 0.15
25 0.15
26 0.15
27 0.15
28 0.15
29 0.15
3 -0.36
33 0.15
4 -0.36
5 -0.57
6 0.09
7 0.08
8 0.08
9 0.08

> <PUBCHEM_EFFECTIVE_ROTOR_COUNT>
4

> <PUBCHEM_PHARMACOPHORE_FEATURES>
8
1 1 acceptor
1 2 acceptor
1 3 acceptor
1 4 acceptor
1 5 acceptor
6 1 6 7 10 12 14 rings
6 15 16 17 18 19 21 rings
6 6 7 8 9 11 13 rings

> <PUBCHEM_HEAVY_ATOM_COUNT>
23

> <PUBCHEM_ATOM_DEF_STEREO_COUNT>
0

> <PUBCHEM_ATOM_UDEF_STEREO_COUNT>
0

> <PUBCHEM_BOND_DEF_STEREO_COUNT>
0

> <PUBCHEM_BOND_UDEF_STEREO_COUNT>
0

> <PUBCHEM_ISOTOPIC_ATOM_COUNT>
0

> <PUBCHEM_COMPONENT_COUNT>
1

> <PUBCHEM_CACTVS_TAUTO_COUNT>
1

> <PUBCHEM_CONFORMER_ID>
0006C0D70000000A

> <PUBCHEM_MMFF94_ENERGY>
102.3819

> <PUBCHEM_FEATURE_SELFOVERLAP>
40.645

> <PUBCHEM_SHAPE_FINGERPRINT>
10 15 17822870706329726818
10062212 137 18202281420391404464
10319926 262 18191045546249963434
10411042 1 18194682558172785227
10616163 171 18410570704329778098
12011746 2 18410298025551097821
12107183 9 17624989617939327274
12236239 1 17775565355898529354
12390115 104 18116985796808433905
12403259 226 18192152599012031337
12403814 3 17346314955104559805
12553582 1 18411982429545580683
12555020 224 18338526253139611719
12788726 201 18272092746417616840
13140716 1 18265048025553542715
13862211 1 18409452475065428763
14386348 63 17967246520872507702
14790565 3 17687173605660092481
15042514 8 18339357453754870699
15196674 1 18337953363856004387
16752209 62 18342182188755879472
16945 1 18411422787360165601
17492 89 17976541602789762439
17804303 29 18336262362264669473
19141452 34 17749108855218285951
200 152 16845574232049144980
20511986 3 17775017807745505584
21033648 29 16950857980524814354
21033650 10 18056170683557761412
21065201 7 18407760352825272290
21267235 1 18411129234260328299
221490 88 18051406275624320723
22182313 1 17968926608488019206
2297311 6 18261945328293958148
23175994 123 17167579388812744696
23366157 5 17840870676815472276
23402539 116 18333457555716079397
23557571 272 18187074096558457884
23559900 14 18336271119808799472
3004659 81 18273494551208595606
335352 9 18410293597598006229
350125 39 18412542150364336993
4214541 1 18411135861801106240
5104073 3 18190174594499355563
559249 180 18129387162571861682
573450 72 18272657874351986418
7237137 82 18273213110117227316
8863177 126 17698992995366663971
9709674 26 18051693243890667779

> <PUBCHEM_SHAPE_MULTIPOLES>
443.98
11.63
3.02
0.96
11.34
0.48
0.14
3.82
1.52
-4.67
0.05
0.97
-0.01
0.17

> <PUBCHEM_SHAPE_SELFOVERLAP>
973.673

> <PUBCHEM_SHAPE_VOLUME>
240

> <PUBCHEM_COORDINATE_TYPE>
2
5
10

$$$$

