442233
  -OEChem-07051212572D

 96102  0     1  0  0  0  0  0999 V2000
   11.5969    3.0039    0.0000 O   0  0  0  0  0  0  0  0  0  0  0  0
    8.9546   -0.5517    0.0000 O   0  0  0  0  0  0  0  0  0  0  0  0
   13.3629    4.0417    0.0000 O   0  0  0  0  0  0  0  0  0  0  0  0
    8.9546    1.4966    0.0000 O   0  0  0  0  0  0  0  0  0  0  0  0
    4.6096    0.9587    0.0000 O   0  0  0  0  0  0  0  0  0  0  0  0
    2.8698   -0.0279    0.0000 O   0  0  0  0  0  0  0  0  0  0  0  0
   10.6905   -1.5450    0.0000 O   0  0  0  0  0  0  0  0  0  0  0  0
   10.6982   -3.5450    0.0000 O   0  0  0  0  0  0  0  0  0  0  0  0
   14.2090   -0.5245    0.0000 N   0  0  3  0  0  0  0  0  0  0  0  0
    6.3624   -3.1034    0.0000 N   0  0  3  0  0  0  0  0  0  0  0  0
   13.3508   -0.0276    0.0000 C   0  0  2  0  0  0  0  0  0  0  0  0
   13.3508    0.9724    0.0000 C   0  0  0  0  0  0  0  0  0  0  0  0
   12.4848   -0.5276    0.0000 C   0  0  0  0  0  0  0  0  0  0  0  0
   14.2608    1.4793    0.0000 C   0  0  0  0  0  0  0  0  0  0  0  0
   15.0745   -0.0403    0.0000 C   0  0  0  0  0  0  0  0  0  0  0  0
   12.4848    1.4724    0.0000 C   0  0  0  0  0  0  0  0  0  0  0  0
   15.1001    0.9510    0.0000 C   0  0  0  0  0  0  0  0  0  0  0  0
   11.6187   -0.0276    0.0000 C   0  0  0  0  0  0  0  0  0  0  0  0
   11.6187    0.9724    0.0000 C   0  0  0  0  0  0  0  0  0  0  0  0
   14.2688    2.5209    0.0000 C   0  0  0  0  0  0  0  0  0  0  0  0
   12.4687    2.5139    0.0000 C   0  0  0  0  0  0  0  0  0  0  0  0
   14.2016   -1.5245    0.0000 C   0  0  0  0  0  0  0  0  0  0  0  0
    6.3624   -2.0617    0.0000 C   0  0  2  0  0  0  0  0  0  0  0  0
   10.7248   -0.5622    0.0000 C   0  0  0  0  0  0  0  0  0  0  0  0
   13.3667    3.0417    0.0000 C   0  0  0  0  0  0  0  0  0  0  0  0
   10.7248    1.5071    0.0000 C   0  0  0  0  0  0  0  0  0  0  0  0
    5.4563   -1.5479    0.0000 C   0  0  0  0  0  0  0  0  0  0  0  0
    7.2264   -1.5584    0.0000 C   0  0  0  0  0  0  0  0  0  0  0  0
    5.4563   -3.6172    0.0000 C   0  0  0  0  0  0  0  0  0  0  0  0
    9.8187   -0.0484    0.0000 C   0  0  0  0  0  0  0  0  0  0  0  0
    4.5624   -3.0825    0.0000 C   0  0  0  0  0  0  0  0  0  0  0  0
    4.5864   -2.0412    0.0000 C   0  0  0  0  0  0  0  0  0  0  0  0
    9.8187    0.9932    0.0000 C   0  0  0  0  0  0  0  0  0  0  0  0
    8.0944   -2.0550    0.0000 C   0  0  0  0  0  0  0  0  0  0  0  0
    7.2264   -3.6067    0.0000 C   0  0  0  0  0  0  0  0  0  0  0  0
    5.4640   -0.5479    0.0000 C   0  0  0  0  0  0  0  0  0  0  0  0
    8.9585   -1.5517    0.0000 C   0  0  0  0  0  0  0  0  0  0  0  0
    3.7243   -1.5345    0.0000 C   0  0  0  0  0  0  0  0  0  0  0  0
    4.6018   -0.0412    0.0000 C   0  0  0  0  0  0  0  0  0  0  0  0
    3.7320   -0.5346    0.0000 C   0  0  0  0  0  0  0  0  0  0  0  0
    8.0982   -3.0550    0.0000 C   0  0  0  0  0  0  0  0  0  0  0  0
    9.8264   -2.0484    0.0000 C   0  0  0  0  0  0  0  0  0  0  0  0
   14.2270    4.5450    0.0000 C   0  0  0  0  0  0  0  0  0  0  0  0
    8.9662   -3.5517    0.0000 C   0  0  0  0  0  0  0  0  0  0  0  0
    9.8303   -3.0484    0.0000 C   0  0  0  0  0  0  0  0  0  0  0  0
    8.9585    2.4966    0.0000 C   0  0  0  0  0  0  0  0  0  0  0  0
    3.7474    1.4654    0.0000 C   0  0  0  0  0  0  0  0  0  0  0  0
    2.0000   -0.5212    0.0000 C   0  0  0  0  0  0  0  0  0  0  0  0
   11.5585   -2.0417    0.0000 C   0  0  0  0  0  0  0  0  0  0  0  0
   10.7021   -4.5450    0.0000 C   0  0  0  0  0  0  0  0  0  0  0  0
   13.3503   -0.8776    0.0000 H   0  0  0  0  0  0  0  0  0  0  0  0
   12.0862   -1.0025    0.0000 H   0  0  0  0  0  0  0  0  0  0  0  0
   12.8833   -1.0025    0.0000 H   0  0  0  0  0  0  0  0  0  0  0  0
   15.2762   -0.6266    0.0000 H   0  0  0  0  0  0  0  0  0  0  0  0
   15.6873    0.0540    0.0000 H   0  0  0  0  0  0  0  0  0  0  0  0
   15.7072    0.8252    0.0000 H   0  0  0  0  0  0  0  0  0  0  0  0
   15.3319    1.5261    0.0000 H   0  0  0  0  0  0  0  0  0  0  0  0
   14.8069    2.8288    0.0000 H   0  0  0  0  0  0  0  0  0  0  0  0
   13.5816   -1.5199    0.0000 H   0  0  0  0  0  0  0  0  0  0  0  0
   14.1970   -2.1445    0.0000 H   0  0  0  0  0  0  0  0  0  0  0  0
   14.8216   -1.5291    0.0000 H   0  0  0  0  0  0  0  0  0  0  0  0
    6.8999   -2.3707    0.0000 H   0  0  0  0  0  0  0  0  0  0  0  0
   10.7320   -1.1822    0.0000 H   0  0  0  0  0  0  0  0  0  0  0  0
   10.7320    2.1270    0.0000 H   0  0  0  0  0  0  0  0  0  0  0  0
    7.6231   -1.0819    0.0000 H   0  0  0  0  0  0  0  0  0  0  0  0
    6.8261   -1.0850    0.0000 H   0  0  0  0  0  0  0  0  0  0  0  0
    5.0517   -4.0870    0.0000 H   0  0  0  0  0  0  0  0  0  0  0  0
    5.8499   -4.0962    0.0000 H   0  0  0  0  0  0  0  0  0  0  0  0
    3.9541   -2.9623    0.0000 H   0  0  0  0  0  0  0  0  0  0  0  0
    4.3398   -3.6612    0.0000 H   0  0  0  0  0  0  0  0  0  0  0  0
    6.9144   -4.1424    0.0000 H   0  0  0  0  0  0  0  0  0  0  0  0
    7.7622   -3.9188    0.0000 H   0  0  0  0  0  0  0  0  0  0  0  0
    7.5385   -3.0710    0.0000 H   0  0  0  0  0  0  0  0  0  0  0  0
    6.0033   -0.2421    0.0000 H   0  0  0  0  0  0  0  0  0  0  0  0
    3.1850   -1.8404    0.0000 H   0  0  0  0  0  0  0  0  0  0  0  0
   11.5898    3.6238    0.0000 H   0  0  0  0  0  0  0  0  0  0  0  0
    7.5625   -3.3671    0.0000 H   0  0  0  0  0  0  0  0  0  0  0  0
    8.9686   -4.1717    0.0000 H   0  0  0  0  0  0  0  0  0  0  0  0
   14.5390    4.0093    0.0000 H   0  0  0  0  0  0  0  0  0  0  0  0
   14.7627    4.8571    0.0000 H   0  0  0  0  0  0  0  0  0  0  0  0
   13.9149    5.0808    0.0000 H   0  0  0  0  0  0  0  0  0  0  0  0
    9.5785    2.4942    0.0000 H   0  0  0  0  0  0  0  0  0  0  0  0
    8.9609    3.1166    0.0000 H   0  0  0  0  0  0  0  0  0  0  0  0
    8.3385    2.4990    0.0000 H   0  0  0  0  0  0  0  0  0  0  0  0
    4.0616    1.9999    0.0000 H   0  0  0  0  0  0  0  0  0  0  0  0
    3.2129    1.7795    0.0000 H   0  0  0  0  0  0  0  0  0  0  0  0
    3.4333    0.9309    0.0000 H   0  0  0  0  0  0  0  0  0  0  0  0
    1.6942    0.0181    0.0000 H   0  0  0  0  0  0  0  0  0  0  0  0
    1.4607   -0.8271    0.0000 H   0  0  0  0  0  0  0  0  0  0  0  0
    2.3058   -1.0605    0.0000 H   0  0  0  0  0  0  0  0  0  0  0  0
   11.2505   -2.5798    0.0000 H   0  0  0  0  0  0  0  0  0  0  0  0
   12.0966   -2.3496    0.0000 H   0  0  0  0  0  0  0  0  0  0  0  0
   11.8664   -1.5036    0.0000 H   0  0  0  0  0  0  0  0  0  0  0  0
   10.0821   -4.5474    0.0000 H   0  0  0  0  0  0  0  0  0  0  0  0
   10.7045   -5.1650    0.0000 H   0  0  0  0  0  0  0  0  0  0  0  0
   11.3221   -4.5426    0.0000 H   0  0  0  0  0  0  0  0  0  0  0  0
  1 21  1  0  0  0  0
  1 76  1  0  0  0  0
  2 30  1  0  0  0  0
  2 37  1  0  0  0  0
  3 25  1  0  0  0  0
  3 43  1  0  0  0  0
  4 33  1  0  0  0  0
  4 46  1  0  0  0  0
  5 39  1  0  0  0  0
  5 47  1  0  0  0  0
  6 40  1  0  0  0  0
  6 48  1  0  0  0  0
  7 42  1  0  0  0  0
  7 49  1  0  0  0  0
  8 45  1  0  0  0  0
  8 50  1  0  0  0  0
  9 11  1  0  0  0  0
  9 15  1  0  0  0  0
  9 22  1  0  0  0  0
 10 23  1  0  0  0  0
 10 29  1  0  0  0  0
 10 35  1  0  0  0  0
 11 12  1  0  0  0  0
 11 13  1  0  0  0  0
 11 51  1  6  0  0  0
 12 14  1  0  0  0  0
 12 16  2  0  0  0  0
 13 18  1  0  0  0  0
 13 52  1  0  0  0  0
 13 53  1  0  0  0  0
 14 17  1  0  0  0  0
 14 20  2  0  0  0  0
 15 17  1  0  0  0  0
 15 54  1  0  0  0  0
 15 55  1  0  0  0  0
 16 19  1  0  0  0  0
 16 21  1  0  0  0  0
 17 56  1  0  0  0  0
 17 57  1  0  0  0  0
 18 19  1  0  0  0  0
 18 24  2  0  0  0  0
 19 26  2  0  0  0  0
 20 25  1  0  0  0  0
 20 58  1  0  0  0  0
 21 25  2  0  0  0  0
 22 59  1  0  0  0  0
 22 60  1  0  0  0  0
 22 61  1  0  0  0  0
 23 27  1  0  0  0  0
 23 28  1  6  0  0  0
 23 62  1  0  0  0  0
 24 30  1  0  0  0  0
 24 63  1  0  0  0  0
 26 33  1  0  0  0  0
 26 64  1  0  0  0  0
 27 32  1  0  0  0  0
 27 36  2  0  0  0  0
 28 34  1  0  0  0  0
 28 65  1  0  0  0  0
 28 66  1  0  0  0  0
 29 31  1  0  0  0  0
 29 67  1  0  0  0  0
 29 68  1  0  0  0  0
 30 33  2  0  0  0  0
 31 32  1  0  0  0  0
 31 69  1  0  0  0  0
 31 70  1  0  0  0  0
 32 38  2  0  0  0  0
 34 37  2  0  0  0  0
 34 41  1  0  0  0  0
 35 71  1  0  0  0  0
 35 72  1  0  0  0  0
 35 73  1  0  0  0  0
 36 39  1  0  0  0  0
 36 74  1  0  0  0  0
 37 42  1  0  0  0  0
 38 40  1  0  0  0  0
 38 75  1  0  0  0  0
 39 40  2  0  0  0  0
 41 44  2  0  0  0  0
 41 77  1  0  0  0  0
 42 45  2  0  0  0  0
 43 79  1  0  0  0  0
 43 80  1  0  0  0  0
 43 81  1  0  0  0  0
 44 45  1  0  0  0  0
 44 78  1  0  0  0  0
 46 82  1  0  0  0  0
 46 83  1  0  0  0  0
 46 84  1  0  0  0  0
 47 85  1  0  0  0  0
 47 86  1  0  0  0  0
 47 87  1  0  0  0  0
 48 88  1  0  0  0  0
 48 89  1  0  0  0  0
 48 90  1  0  0  0  0
 49 91  1  0  0  0  0
 49 92  1  0  0  0  0
 49 93  1  0  0  0  0
 50 94  1  0  0  0  0
 50 95  1  0  0  0  0
 50 96  1  0  0  0  0
M  END
> <PUBCHEM_COMPOUND_CID>
442233

> <PUBCHEM_COMPOUND_CANONICALIZED>
1

> <PUBCHEM_CACTVS_COMPLEXITY>
1100

> <PUBCHEM_CACTVS_HBOND_ACCEPTOR>
10

> <PUBCHEM_CACTVS_HBOND_DONOR>
1

> <PUBCHEM_CACTVS_ROTATABLE_BOND>
10

> <PUBCHEM_CACTVS_SUBSKEYS>
AAADcfB/PAAAAAAAAAAAAAAAAAAAAAAAAAA8eMGDAAAAAADxVAAAHgAACAAADCzBmAYyBoMABgCAAiBCAACCCAAgIAAIiAAOjIgNJyKGsRuGeCvlwBWLuAew8P8OoAADCAAYQADQAAaQADSAAAAAAAAAAA==

> <PUBCHEM_IUPAC_OPENEYE_NAME>
(8S)-12-[6-[[(1S)-6,7-dimethoxy-2-methyl-3,4-dihydro-1H-isoquinolin-1-yl]methyl]-2,3-dimethoxy-phenoxy]-2,13-dimethoxy-7-methyl-5,6,6a,7-tetrahydro-4H-dibenzo[de,g]quinoline-1-ol

> <PUBCHEM_IUPAC_CAS_NAME>
(8S)-12-[6-[[(1S)-6,7-dimethoxy-2-methyl-3,4-dihydro-1H-isoquinolin-1-yl]methyl]-2,3-dimethoxyphenoxy]-2,13-dimethoxy-7-methyl-5,6,6a,7-tetrahydro-4H-dibenzo[de,g]quinoline-1-ol

> <PUBCHEM_IUPAC_NAME>
(8S)-12-[6-[[(1S)-6,7-dimethoxy-2-methyl-3,4-dihydro-1H-isoquinolin-1-yl]methyl]-2,3-dimethoxyphenoxy]-2,13-dimethoxy-7-methyl-5,6,6a,7-tetrahydro-4H-dibenzo[de,g]quinoline-1-ol

> <PUBCHEM_IUPAC_SYSTEMATIC_NAME>
(8S)-12-[6-[[(1S)-6,7-dimethoxy-2-methyl-3,4-dihydro-1H-isoquinolin-1-yl]methyl]-2,3-dimethoxy-phenoxy]-2,13-dimethoxy-7-methyl-5,6,6a,7-tetrahydro-4H-dibenzo[de,g]quinoline-1-ol

> <PUBCHEM_IUPAC_TRADITIONAL_NAME>
(8S)-12-[6-[[(1S)-6,7-dimethoxy-2-methyl-3,4-dihydro-1H-isoquinolin-1-yl]methyl]-2,3-dimethoxy-phenoxy]-2,13-dimethoxy-7-methyl-5,6,6a,7-tetrahydro-4H-dibenzo[de,g]quinoline-1-ol

> <PUBCHEM_IUPAC_INCHI>
InChI=1S/C40H46N2O8/c1-41-13-11-22-17-31(45-4)32(46-5)20-26(22)28(41)15-24-9-10-30(44-3)40(49-8)39(24)50-34-19-25-16-29-36-23(12-14-42(29)2)18-35(48-7)38(43)37(36)27(25)21-33(34)47-6/h9-10,17-21,28-29,43H,11-16H2,1-8H3/t28-,29-/m0/s1

> <PUBCHEM_IUPAC_INCHIKEY>
IBHSRCBKJMEBQB-VMPREFPWSA-N

> <PUBCHEM_XLOGP3_AA>
6.3

> <PUBCHEM_EXACT_MASS>
682.325416

> <PUBCHEM_MOLECULAR_FORMULA>
C40H46N2O8

> <PUBCHEM_MOLECULAR_WEIGHT>
682.80184

> <PUBCHEM_OPENEYE_CAN_SMILES>
CN1CCC2=CC(=C(C3=C2C1CC4=CC(=C(C=C43)OC)OC5=C(C=CC(=C5OC)OC)CC6C7=CC(=C(C=C7CCN6C)OC)OC)O)OC

> <PUBCHEM_OPENEYE_ISO_SMILES>
CN1CCC2=CC(=C(C3=C2[C@@H]1CC4=CC(=C(C=C43)OC)OC5=C(C=CC(=C5OC)OC)C[C@H]6C7=CC(=C(C=C7CCN6C)OC)OC)O)OC

> <PUBCHEM_CACTVS_TPSA>
91.3

> <PUBCHEM_MONOISOTOPIC_WEIGHT>
682.325416

> <PUBCHEM_TOTAL_CHARGE>
0

> <PUBCHEM_HEAVY_ATOM_COUNT>
50

> <PUBCHEM_ATOM_DEF_STEREO_COUNT>
2

> <PUBCHEM_ATOM_UDEF_STEREO_COUNT>
0

> <PUBCHEM_BOND_DEF_STEREO_COUNT>
0

> <PUBCHEM_BOND_UDEF_STEREO_COUNT>
0

> <PUBCHEM_ISOTOPIC_ATOM_COUNT>
0

> <PUBCHEM_COMPONENT_COUNT>
1

> <PUBCHEM_CACTVS_TAUTO_COUNT>
2

> <PUBCHEM_COORDINATE_TYPE>
1
5
255

> <PUBCHEM_BONDANNOTATIONS>
11  51  6
12  14  8
12  16  8
14  20  8
16  21  8
18  19  8
18  24  8
19  26  8
20  25  8
21  25  8
23  28  6
24  30  8
26  33  8
27  32  8
27  36  8
30  33  8
32  38  8
34  37  8
34  41  8
36  39  8
37  42  8
38  40  8
39  40  8
41  44  8
42  45  8
44  45  8

$$$$

