3409
  -OEChem-06251223243D

 32 34  0     0  0  0  0  0  0999 V2000
    1.7029    1.8916    0.0466 O   0  0  0  0  0  0  0  0  0  0  0  0
    0.1749   -1.9888   -0.0926 O   0  0  0  0  0  0  0  0  0  0  0  0
   -5.7394   -0.1552   -0.2644 O   0  0  0  0  0  0  0  0  0  0  0  0
    6.1342    0.2532    0.1304 O   0  0  0  0  0  0  0  0  0  0  0  0
   -0.1457    0.3632   -0.0500 C   0  0  0  0  0  0  0  0  0  0  0  0
    2.1272   -0.5405   -0.0051 C   0  0  0  0  0  0  0  0  0  0  0  0
    0.7897   -0.7555   -0.0495 C   0  0  0  0  0  0  0  0  0  0  0  0
   -1.6118    0.2267   -0.1064 C   0  0  0  0  0  0  0  0  0  0  0  0
    2.6209    0.8455    0.0444 C   0  0  0  0  0  0  0  0  0  0  0  0
    0.3589    1.6057   -0.0026 C   0  0  0  0  0  0  0  0  0  0  0  0
    3.1075   -1.6224   -0.0022 C   0  0  0  0  0  0  0  0  0  0  0  0
   -2.2598    0.1906   -1.3397 C   0  0  0  0  0  0  0  0  0  0  0  0
   -2.3471    0.1348    1.0741 C   0  0  0  0  0  0  0  0  0  0  0  0
    3.9327    1.1160    0.0890 C   0  0  0  0  0  0  0  0  0  0  0  0
    4.4234   -1.3761    0.0421 C   0  0  0  0  0  0  0  0  0  0  0  0
   -3.6478    0.0622   -1.3927 C   0  0  0  0  0  0  0  0  0  0  0  0
   -3.7350    0.0062    1.0210 C   0  0  0  0  0  0  0  0  0  0  0  0
   -4.3854   -0.0301   -0.2123 C   0  0  0  0  0  0  0  0  0  0  0  0
    4.9315    0.0175    0.0901 C   0  0  0  0  0  0  0  0  0  0  0  0
   -6.4318   -0.2445    0.9800 C   0  0  0  0  0  0  0  0  0  0  0  0
   -0.2220    2.5183    0.0010 H   0  0  0  0  0  0  0  0  0  0  0  0
    2.7840   -2.6560   -0.0367 H   0  0  0  0  0  0  0  0  0  0  0  0
   -1.6987    0.2605   -2.2685 H   0  0  0  0  0  0  0  0  0  0  0  0
   -1.8534    0.1609    2.0426 H   0  0  0  0  0  0  0  0  0  0  0  0
    4.3051    2.1338    0.1260 H   0  0  0  0  0  0  0  0  0  0  0  0
    5.1490   -2.1813    0.0438 H   0  0  0  0  0  0  0  0  0  0  0  0
   -4.1490    0.0343   -2.3565 H   0  0  0  0  0  0  0  0  0  0  0  0
   -4.2460   -0.0606    1.9754 H   0  0  0  0  0  0  0  0  0  0  0  0
    0.8404   -2.6928   -0.0874 H   0  0  0  0  0  0  0  0  0  0  0  0
   -7.4982   -0.3393    0.7505 H   0  0  0  0  0  0  0  0  0  0  0  0
   -6.3125    0.6684    1.5733 H   0  0  0  0  0  0  0  0  0  0  0  0
   -6.1437   -1.1424    1.5372 H   0  0  0  0  0  0  0  0  0  0  0  0
  1  9  1  0  0  0  0
  1 10  1  0  0  0  0
  2  7  1  0  0  0  0
  2 29  1  0  0  0  0
  3 18  1  0  0  0  0
  3 20  1  0  0  0  0
  4 19  2  0  0  0  0
  5  7  1  0  0  0  0
  5  8  1  0  0  0  0
  5 10  2  0  0  0  0
  6  7  2  0  0  0  0
  6  9  1  0  0  0  0
  6 11  1  0  0  0  0
  8 12  2  0  0  0  0
  8 13  1  0  0  0  0
  9 14  2  0  0  0  0
 10 21  1  0  0  0  0
 11 15  2  0  0  0  0
 11 22  1  0  0  0  0
 12 16  1  0  0  0  0
 12 23  1  0  0  0  0
 13 17  2  0  0  0  0
 13 24  1  0  0  0  0
 14 19  1  0  0  0  0
 14 25  1  0  0  0  0
 15 19  1  0  0  0  0
 15 26  1  0  0  0  0
 16 18  2  0  0  0  0
 16 27  1  0  0  0  0
 17 18  1  0  0  0  0
 17 28  1  0  0  0  0
 20 30  1  0  0  0  0
 20 31  1  0  0  0  0
 20 32  1  0  0  0  0
M  END
> <PUBCHEM_COMPOUND_CID>
3409

> <PUBCHEM_CONFORMER_RMSD>
0.6

> <PUBCHEM_CONFORMER_DIVERSEORDER>
1
2
3

> <PUBCHEM_MMFF94_PARTIAL_CHARGES>
28
1 -0.15
10 -0.07
11 -0.15
12 -0.15
13 -0.15
14 -0.14
15 -0.14
16 -0.15
17 -0.15
18 0.08
19 0.54
2 -0.53
20 0.28
21 0.15
22 0.15
23 0.15
24 0.15
25 0.15
26 0.15
27 0.15
28 0.15
29 0.45
3 -0.36
4 -0.57
5 -0.03
7 0.08
8 0.03
9 0.08

> <PUBCHEM_EFFECTIVE_ROTOR_COUNT>
2

> <PUBCHEM_PHARMACOPHORE_FEATURES>
7
1 1 acceptor
1 2 donor
1 3 acceptor
1 4 acceptor
6 1 5 6 7 9 10 rings
6 6 9 11 14 15 19 rings
6 8 12 13 16 17 18 rings

> <PUBCHEM_HEAVY_ATOM_COUNT>
20

> <PUBCHEM_ATOM_DEF_STEREO_COUNT>
0

> <PUBCHEM_ATOM_UDEF_STEREO_COUNT>
0

> <PUBCHEM_BOND_DEF_STEREO_COUNT>
0

> <PUBCHEM_BOND_UDEF_STEREO_COUNT>
0

> <PUBCHEM_ISOTOPIC_ATOM_COUNT>
0

> <PUBCHEM_COMPONENT_COUNT>
1

> <PUBCHEM_CACTVS_TAUTO_COUNT>
5

> <PUBCHEM_CONFORMER_ID>
00000D5100000001

> <PUBCHEM_MMFF94_ENERGY>
71.4041

> <PUBCHEM_FEATURE_SELFOVERLAP>
35.548

> <PUBCHEM_SHAPE_FINGERPRINT>
10 15 17917154897621381424
10354089 29 18260827098665826248
11287383 113 17275101717445845116
11471102 20 18411420609637660100
12107183 9 17174881455764896907
12236239 1 17676206866530962725
12403259 415 18201449064129990005
12596602 18 17240769432324256387
13140716 1 18194125123326033240
13533116 47 17604148224442413086
13685833 64 18272928328268516219
13760787 5 18334019384324424837
13862211 1 18410296943298746018
1420 363 17775281668982090763
14341114 176 18410568496673824803
14386348 63 17918272052156644513
14573314 32 17060344058104514343
15048467 5 15936411134835711978
15196674 1 18338237188644159964
15527383 91 18334575746040847289
17844677 252 17418371406797387685
1813 80 18262786467152440828
19141452 34 18342454803711274691
19489759 90 16128658565372284357
200 152 18333735732194881737
20279233 1 17775281677081441027
20645477 70 18341333391860698478
21033648 29 18130242496328977109
21267235 1 18337668715790193886
21641784 216 18129926984359250460
2297311 6 16773795913732667893
23402539 116 14634875253784449857
23557571 272 16988566831068420301
23559900 14 16415193442880434101
23569943 247 17607225835157283414
26918003 58 18412259524119418433
335352 9 18410009910881904278
345986 75 17969229004661671178
34797466 226 16343691145475637534
3545911 37 18411981347498444042
42630746 31 18334855026431558166
4340502 62 16988846081668809490
465052 167 18343016701060078978
5104073 3 18266186208898138152
542803 24 17385725798403319059
7495541 125 17275095103096053933
9999458 23 17846499188970898476

> <PUBCHEM_SHAPE_MULTIPOLES>
388.11
13.05
1.43
0.97
5.15
0.08
-0.11
1.26
1.69
-1.57
0.01
1.27
-0.01
0.17

> <PUBCHEM_SHAPE_SELFOVERLAP>
856.882

> <PUBCHEM_SHAPE_VOLUME>
207.7

> <PUBCHEM_COORDINATE_TYPE>
2
5
10

$$$$

