439950
  -OEChem-07051212483D

 18 18  0     1  0  0  0  0  0999 V2000
   -1.4126    1.2067   -0.9496 O   0  0  0  0  0  0  0  0  0  0  0  0
    2.2645    0.6244   -0.3578 O   0  0  0  0  0  0  0  0  0  0  0  0
   -1.2176    0.7007    0.3703 C   0  0  1  0  0  0  0  0  0  0  0  0
   -1.5060   -0.8012    0.4033 C   0  0  0  0  0  0  0  0  0  0  0  0
   -0.4860   -1.5910   -0.4168 C   0  0  0  0  0  0  0  0  0  0  0  0
    0.2059    1.0278    0.8076 C   0  0  0  0  0  0  0  0  0  0  0  0
    0.9356   -1.3260    0.0558 C   0  0  0  0  0  0  0  0  0  0  0  0
    1.2162    0.1586    0.0871 C   0  0  0  0  0  0  0  0  0  0  0  0
   -1.9236    1.2266    1.0226 H   0  0  0  0  0  0  0  0  0  0  0  0
   -2.5061   -0.9983    0.0000 H   0  0  0  0  0  0  0  0  0  0  0  0
   -1.4929   -1.1552    1.4413 H   0  0  0  0  0  0  0  0  0  0  0  0
   -0.5785   -1.3188   -1.4755 H   0  0  0  0  0  0  0  0  0  0  0  0
   -0.7043   -2.6622   -0.3427 H   0  0  0  0  0  0  0  0  0  0  0  0
    0.3300    0.8567    1.8824 H   0  0  0  0  0  0  0  0  0  0  0  0
    0.4393    2.0758    0.5893 H   0  0  0  0  0  0  0  0  0  0  0  0
    1.6485   -1.8117   -0.6187 H   0  0  0  0  0  0  0  0  0  0  0  0
    1.0945   -1.7238    1.0639 H   0  0  0  0  0  0  0  0  0  0  0  0
   -2.3285    1.0063   -1.2075 H   0  0  0  0  0  0  0  0  0  0  0  0
  1  3  1  0  0  0  0
  1 18  1  0  0  0  0
  2  8  2  0  0  0  0
  3  4  1  0  0  0  0
  3  6  1  0  0  0  0
  3  9  1  0  0  0  0
  4  5  1  0  0  0  0
  4 10  1  0  0  0  0
  4 11  1  0  0  0  0
  5  7  1  0  0  0  0
  5 12  1  0  0  0  0
  5 13  1  0  0  0  0
  6  8  1  0  0  0  0
  6 14  1  0  0  0  0
  6 15  1  0  0  0  0
  7  8  1  0  0  0  0
  7 16  1  0  0  0  0
  7 17  1  0  0  0  0
M  END
> <PUBCHEM_COMPOUND_CID>
439950

> <PUBCHEM_CONFORMER_RMSD>
0.4

> <PUBCHEM_CONFORMER_DIVERSEORDER>
2
3
1

> <PUBCHEM_MMFF94_PARTIAL_CHARGES>
7
1 -0.68
18 0.4
2 -0.57
3 0.28
6 0.06
7 0.06
8 0.45

> <PUBCHEM_EFFECTIVE_ROTOR_COUNT>
1

> <PUBCHEM_PHARMACOPHORE_FEATURES>
4
1 1 acceptor
1 1 donor
1 2 acceptor
6 3 4 5 6 7 8 rings

> <PUBCHEM_HEAVY_ATOM_COUNT>
8

> <PUBCHEM_ATOM_DEF_STEREO_COUNT>
0

> <PUBCHEM_ATOM_UDEF_STEREO_COUNT>
1

> <PUBCHEM_BOND_DEF_STEREO_COUNT>
0

> <PUBCHEM_BOND_UDEF_STEREO_COUNT>
0

> <PUBCHEM_ISOTOPIC_ATOM_COUNT>
0

> <PUBCHEM_COMPONENT_COUNT>
1

> <PUBCHEM_CACTVS_TAUTO_COUNT>
3

> <PUBCHEM_CONFORMER_ID>
0006B68E00000002

> <PUBCHEM_MMFF94_ENERGY>
5.2714

> <PUBCHEM_FEATURE_SELFOVERLAP>
20.297

> <PUBCHEM_SHAPE_FINGERPRINT>
16714656 1 18194391208759610798
18185500 45 17905889175879142678
21040471 1 18335987557366829784
23552423 10 18341885286663154558
241688 4 16318931586431623795
24536 1 18117558658965605722
29004967 10 18269824329174951035
5084963 1 18343292678441396138

> <PUBCHEM_SHAPE_MULTIPOLES>
152.9
2.14
1.64
0.84
0.63
0.4
0.04
-0.32
0.22
-0.21
0.09
-0.16
-0.17
0.11

> <PUBCHEM_SHAPE_SELFOVERLAP>
300.275

> <PUBCHEM_SHAPE_VOLUME>
90.9

> <PUBCHEM_COORDINATE_TYPE>
2
5
10

$$$$

