439446
  -OEChem-07051212453D

 61 64  0     1  0  0  0  0  0999 V2000
   -2.6698    2.8199    0.4381 P   0  0  2  0  0  0  0  0  0  0  0  0
   -3.6124    1.1824   -1.8173 P   0  0  1  0  0  0  0  0  0  0  0  0
    1.4920    2.0052    1.2664 O   0  0  0  0  0  0  0  0  0  0  0  0
    4.1964    2.6208   -1.0201 O   0  0  0  0  0  0  0  0  0  0  0  0
    3.3686    4.3776    0.8809 O   0  0  0  0  0  0  0  0  0  0  0  0
   -1.1565    2.9072    1.0035 O   0  0  0  0  0  0  0  0  0  0  0  0
   -2.1135   -0.8166    0.4152 O   0  0  0  0  0  0  0  0  0  0  0  0
   -3.8456   -0.2496   -1.1071 O   0  0  0  0  0  0  0  0  0  0  0  0
   -2.5086    1.9208   -0.8955 O   0  0  0  0  0  0  0  0  0  0  0  0
   -1.9986   -3.3782   -0.8882 O   0  0  0  0  0  0  0  0  0  0  0  0
   -4.3403   -4.3223    0.2473 O   0  0  0  0  0  0  0  0  0  0  0  0
   -2.9502    4.2996   -0.1525 O   0  0  0  0  0  0  0  0  0  0  0  0
   -3.3807   -3.2156    2.5324 O   0  0  0  0  0  0  0  0  0  0  0  0
   -3.6995    2.3191    1.4083 O   0  0  0  0  0  0  0  0  0  0  0  0
   -2.7945    0.8367   -3.1697 O   0  0  0  0  0  0  0  0  0  0  0  0
    3.0758   -4.1533   -1.0059 O   0  0  0  0  0  0  0  0  0  0  0  0
   -4.8642    1.9812   -2.0378 O   0  0  0  0  0  0  0  0  0  0  0  0
    2.5097    0.1835    0.1367 N   0  0  0  0  0  0  0  0  0  0  0  0
    4.7780   -0.6871    0.2474 N   0  0  0  0  0  0  0  0  0  0  0  0
    1.5042   -1.6993   -0.5572 N   0  0  0  0  0  0  0  0  0  0  0  0
    4.9834   -2.9969   -0.3767 N   0  0  0  0  0  0  0  0  0  0  0  0
    6.8483   -1.7144    0.2813 N   0  0  0  0  0  0  0  0  0  0  0  0
    2.8507    2.5518   -0.5948 C   0  0  2  0  0  0  0  0  0  0  0  0
    2.3573    3.8438    0.0261 C   0  0  1  0  0  0  0  0  0  0  0  0
    2.6689    1.5741    0.5562 C   0  0  1  0  0  0  0  0  0  0  0  0
    1.1895    3.3670    0.8840 C   0  0  1  0  0  0  0  0  0  0  0  0
   -0.1368    3.3725    0.1369 C   0  0  0  0  0  0  0  0  0  0  0  0
    3.4650   -0.7672    0.0170 C   0  0  0  0  0  0  0  0  0  0  0  0
    1.3315   -0.4314   -0.2234 C   0  0  0  0  0  0  0  0  0  0  0  0
    2.8461   -1.9076   -0.4048 C   0  0  0  0  0  0  0  0  0  0  0  0
   -3.1719   -2.5638   -0.9155 C   0  0  2  0  0  0  0  0  0  0  0  0
   -2.7340   -1.0988   -0.8448 C   0  0  2  0  0  0  0  0  0  0  0  0
   -4.0889   -2.9326    0.2485 C   0  0  2  0  0  0  0  0  0  0  0  0
   -2.9459   -1.0444    1.5464 C   0  0  1  0  0  0  0  0  0  0  0  0
   -3.4388   -2.4864    1.5449 C   0  0  0  0  0  0  0  0  0  0  0  0
    3.6110   -3.1181   -0.6281 C   0  0  0  0  0  0  0  0  0  0  0  0
    5.5067   -1.8549    0.0307 C   0  0  0  0  0  0  0  0  0  0  0  0
   -2.1327   -0.7246    2.7911 C   0  0  0  0  0  0  0  0  0  0  0  0
    2.2216    2.2837   -1.4523 H   0  0  0  0  0  0  0  0  0  0  0  0
    2.1027    4.6108   -0.7109 H   0  0  0  0  0  0  0  0  0  0  0  0
    3.5107    1.6012    1.2586 H   0  0  0  0  0  0  0  0  0  0  0  0
    1.0947    3.9393    1.8138 H   0  0  0  0  0  0  0  0  0  0  0  0
   -0.0934    2.7139   -0.7360 H   0  0  0  0  0  0  0  0  0  0  0  0
   -0.3670    4.3900   -0.1914 H   0  0  0  0  0  0  0  0  0  0  0  0
    4.4497    1.7382   -1.3394 H   0  0  0  0  0  0  0  0  0  0  0  0
    3.0034    5.1767    1.2978 H   0  0  0  0  0  0  0  0  0  0  0  0
    0.3868    0.0938   -0.2339 H   0  0  0  0  0  0  0  0  0  0  0  0
   -3.6912   -2.7724   -1.8582 H   0  0  0  0  0  0  0  0  0  0  0  0
   -1.9613   -0.9269   -1.6015 H   0  0  0  0  0  0  0  0  0  0  0  0
   -5.0480   -2.4098    0.1586 H   0  0  0  0  0  0  0  0  0  0  0  0
   -3.8199   -0.3856    1.5074 H   0  0  0  0  0  0  0  0  0  0  0  0
    5.2428    0.1599    0.5576 H   0  0  0  0  0  0  0  0  0  0  0  0
   -1.2517   -1.3729    2.8610 H   0  0  0  0  0  0  0  0  0  0  0  0
   -1.7644    0.3063    2.7547 H   0  0  0  0  0  0  0  0  0  0  0  0
   -2.7263   -0.8528    3.7015 H   0  0  0  0  0  0  0  0  0  0  0  0
   -1.4644   -3.1510   -1.6683 H   0  0  0  0  0  0  0  0  0  0  0  0
   -4.9857   -4.5039    0.9517 H   0  0  0  0  0  0  0  0  0  0  0  0
   -2.3919    4.6471   -0.8796 H   0  0  0  0  0  0  0  0  0  0  0  0
    7.4887   -2.4916    0.1614 H   0  0  0  0  0  0  0  0  0  0  0  0
    7.2386   -0.8324    0.5943 H   0  0  0  0  0  0  0  0  0  0  0  0
   -2.6552    1.5451   -3.8337 H   0  0  0  0  0  0  0  0  0  0  0  0
  1  6  1  0  0  0  0
  1  9  1  0  0  0  0
  1 12  1  0  0  0  0
  1 14  2  0  0  0  0
  2  8  1  0  0  0  0
  2  9  1  0  0  0  0
  2 15  1  0  0  0  0
  2 17  2  0  0  0  0
  3 25  1  0  0  0  0
  3 26  1  0  0  0  0
  4 23  1  0  0  0  0
  4 45  1  0  0  0  0
  5 24  1  0  0  0  0
  5 46  1  0  0  0  0
  6 27  1  0  0  0  0
  7 32  1  0  0  0  0
  7 34  1  0  0  0  0
  8 32  1  0  0  0  0
 10 31  1  0  0  0  0
 10 56  1  0  0  0  0
 11 33  1  0  0  0  0
 11 57  1  0  0  0  0
 12 58  1  0  0  0  0
 13 35  2  0  0  0  0
 15 61  1  0  0  0  0
 16 36  2  0  0  0  0
 18 25  1  0  0  0  0
 18 28  1  0  0  0  0
 18 29  1  0  0  0  0
 19 28  1  0  0  0  0
 19 37  1  0  0  0  0
 19 52  1  0  0  0  0
 20 29  2  0  0  0  0
 20 30  1  0  0  0  0
 21 36  1  0  0  0  0
 21 37  2  0  0  0  0
 22 37  1  0  0  0  0
 22 59  1  0  0  0  0
 22 60  1  0  0  0  0
 23 24  1  0  0  0  0
 23 25  1  0  0  0  0
 23 39  1  0  0  0  0
 24 26  1  0  0  0  0
 24 40  1  0  0  0  0
 25 41  1  0  0  0  0
 26 27  1  0  0  0  0
 26 42  1  0  0  0  0
 27 43  1  0  0  0  0
 27 44  1  0  0  0  0
 28 30  2  0  0  0  0
 29 47  1  0  0  0  0
 30 36  1  0  0  0  0
 31 32  1  0  0  0  0
 31 33  1  0  0  0  0
 31 48  1  0  0  0  0
 32 49  1  0  0  0  0
 33 35  1  0  0  0  0
 33 50  1  0  0  0  0
 34 35  1  0  0  0  0
 34 38  1  0  0  0  0
 34 51  1  0  0  0  0
 38 53  1  0  0  0  0
 38 54  1  0  0  0  0
 38 55  1  0  0  0  0
M  END
> <PUBCHEM_COMPOUND_CID>
439446

> <PUBCHEM_CONFORMER_RMSD>
1.6

> <PUBCHEM_CONFORMER_DIVERSEORDER>
1
102
140
6
23
27
116
83
103
4
128
108
48
44
152
42
91
62
162
119
49
52
75
153
147
30
101
65
96
155
72
114
59
3
104
109
25
56
144
55
68
47
39
85
79
46
80
51
146
136
124
159
120
92
94
57
60
122
105
61
71
157
13
73
40
132
9
110
149
43
161
81
33
87
54
76
89
158
86
148
97
69
19
14
41
98
64
12
99
135
112
141
107
133
156
84
5
142
126
143
74
115
117
118
131
145
34
2
127
32
66
67
22
29
138
70
150
130
50
58
20
139
121
129
111
82
151
16
8
15
137
125
78
90
45
123
26
160
77
36
18
31
38
113
37
100
35
17
7
106
154
93
134
28
21
63
88
95
24
11
10
53

> <PUBCHEM_MMFF94_PARTIAL_CHARGES>
47
1 1.51
10 -0.68
11 -0.68
12 -0.77
13 -0.57
14 -0.7
15 -0.77
16 -0.57
17 -0.7
18 0.05
19 -0.53
2 1.51
20 -0.57
21 -0.66
22 -0.85
23 0.28
24 0.28
25 0.54
26 0.28
27 0.28
28 -0.07
29 0.04
3 -0.56
30 0.14
31 0.28
32 0.56
33 0.34
34 0.34
35 0.45
36 0.87
37 0.55
4 -0.68
45 0.4
46 0.4
47 0.15
5 -0.68
52 0.4
56 0.4
57 0.4
58 0.5
59 0.4
6 -0.55
60 0.4
61 0.5
7 -0.56
8 -0.55
9 -0.54

> <PUBCHEM_EFFECTIVE_ROTOR_COUNT>
10

> <PUBCHEM_PHARMACOPHORE_FEATURES>
24
1 10 acceptor
1 10 donor
1 11 acceptor
1 11 donor
1 12 acceptor
1 13 acceptor
1 14 acceptor
1 15 acceptor
1 16 acceptor
1 17 acceptor
1 19 donor
1 21 donor
1 22 donor
1 3 acceptor
1 4 acceptor
1 4 donor
1 5 acceptor
1 5 donor
1 7 acceptor
3 18 20 29 cation
5 18 20 28 29 30 rings
5 3 23 24 25 26 rings
6 19 21 28 30 36 37 rings
6 7 31 32 33 34 35 rings

> <PUBCHEM_HEAVY_ATOM_COUNT>
38

> <PUBCHEM_ATOM_DEF_STEREO_COUNT>
8

> <PUBCHEM_ATOM_UDEF_STEREO_COUNT>
0

> <PUBCHEM_BOND_DEF_STEREO_COUNT>
0

> <PUBCHEM_BOND_UDEF_STEREO_COUNT>
0

> <PUBCHEM_ISOTOPIC_ATOM_COUNT>
0

> <PUBCHEM_COMPONENT_COUNT>
1

> <PUBCHEM_CACTVS_TAUTO_COUNT>
42

> <PUBCHEM_CONFORMER_ID>
0006B49600000001

> <PUBCHEM_MMFF94_ENERGY>
48.5608

> <PUBCHEM_FEATURE_SELFOVERLAP>
122.082

> <PUBCHEM_SHAPE_FINGERPRINT>
10190108 129 17978760468640793440
10928967 22 17900817158762727308
11135609 12 18412822490931352112
11136131 41 18269284470163445768
12202916 173 17336773127221789219
13560911 43 18341058406432314858
13911987 19 17548412609772564621
13947930 73 17985517139845375729
140371 6 18264209274090520780
14659021 117 18193851555010003472
15274700 242 17621887912463715034
19311894 1 18194683897823001059
19315092 285 16155996728196720661
20764821 26 18410285917415953776
20775438 99 17975454328039998677
23559900 14 18337688476164368644
3737641 26 18192417581066658656
4015057 19 18336565849423552269
4280585 95 18269005344080197384
445580 102 18337669720152969868
463206 1 18265891535587601168
469060 322 17472720034824949247
5309563 4 17977942385198306891
613672 6 18263933296835953334
6376802 137 17387148652370587720

> <PUBCHEM_SHAPE_MULTIPOLES>
676.78
11.52
6.75
1.88
8.81
1.69
0.06
-7.37
-1.17
0.27
0.49
-3.02
-0.11
2.36

> <PUBCHEM_SHAPE_SELFOVERLAP>
1416.297

> <PUBCHEM_SHAPE_VOLUME>
385.7

> <PUBCHEM_COORDINATE_TYPE>
2
5
10

$$$$

