11954185
  -OEChem-07051213073D

 24 24  0     1  0  0  0  0  0999 V2000
   -0.5958   -1.4846   -0.5855 O   0  0  0  0  0  0  0  0  0  0  0  0
    1.0079    2.3124   -0.2737 O   0  0  0  0  0  0  0  0  0  0  0  0
   -1.6539    1.8070    0.6877 O   0  0  0  0  0  0  0  0  0  0  0  0
    0.9546   -1.7736    1.1786 O   0  0  0  0  0  0  0  0  0  0  0  0
    2.7739    0.0062   -0.1156 N   0  0  0  0  0  0  0  0  0  0  0  0
    0.5598    1.0390    0.1945 C   0  0  1  0  0  0  0  0  0  0  0  0
   -0.9305    0.8925   -0.1325 C   0  0  1  0  0  0  0  0  0  0  0  0
    1.3652   -0.0605   -0.5064 C   0  0  2  0  0  0  0  0  0  0  0  0
   -1.4142   -0.5415    0.1149 C   0  0  1  0  0  0  0  0  0  0  0  0
    0.7810   -1.4445   -0.1981 C   0  0  2  0  0  0  0  0  0  0  0  0
   -2.8480   -0.7525   -0.3639 C   0  0  0  0  0  0  0  0  0  0  0  0
    0.7131    1.0244    1.2806 H   0  0  0  0  0  0  0  0  0  0  0  0
   -1.1091    1.1741   -1.1780 H   0  0  0  0  0  0  0  0  0  0  0  0
    1.3126    0.1116   -1.5893 H   0  0  0  0  0  0  0  0  0  0  0  0
   -1.3925   -0.7684    1.1886 H   0  0  0  0  0  0  0  0  0  0  0  0
    1.3071   -2.2020   -0.7909 H   0  0  0  0  0  0  0  0  0  0  0  0
   -3.1589   -1.7885   -0.1904 H   0  0  0  0  0  0  0  0  0  0  0  0
   -3.5468   -0.0890    0.1543 H   0  0  0  0  0  0  0  0  0  0  0  0
   -2.9299   -0.5765   -1.4422 H   0  0  0  0  0  0  0  0  0  0  0  0
    3.2898   -0.7464   -0.5702 H   0  0  0  0  0  0  0  0  0  0  0  0
    2.8594   -0.1615    0.8865 H   0  0  0  0  0  0  0  0  0  0  0  0
    0.8735    2.3452   -1.2362 H   0  0  0  0  0  0  0  0  0  0  0  0
   -1.3106    2.6983    0.5038 H   0  0  0  0  0  0  0  0  0  0  0  0
    0.9721   -2.7437    1.2406 H   0  0  0  0  0  0  0  0  0  0  0  0
  1  9  1  0  0  0  0
  1 10  1  0  0  0  0
  2  6  1  0  0  0  0
  2 22  1  0  0  0  0
  3  7  1  0  0  0  0
  3 23  1  0  0  0  0
  4 10  1  0  0  0  0
  4 24  1  0  0  0  0
  5  8  1  0  0  0  0
  5 20  1  0  0  0  0
  5 21  1  0  0  0  0
  6  7  1  0  0  0  0
  6  8  1  0  0  0  0
  6 12  1  0  0  0  0
  7  9  1  0  0  0  0
  7 13  1  0  0  0  0
  8 10  1  0  0  0  0
  8 14  1  0  0  0  0
  9 11  1  0  0  0  0
  9 15  1  0  0  0  0
 10 16  1  0  0  0  0
 11 17  1  0  0  0  0
 11 18  1  0  0  0  0
 11 19  1  0  0  0  0
M  END
> <PUBCHEM_COMPOUND_CID>
11954185

> <PUBCHEM_CONFORMER_RMSD>
0.4

> <PUBCHEM_CONFORMER_DIVERSEORDER>
2
7
4
3
5
6
8
1

> <PUBCHEM_MMFF94_PARTIAL_CHARGES>
15
1 -0.56
10 0.56
2 -0.68
20 0.36
21 0.36
22 0.4
23 0.4
24 0.4
3 -0.68
4 -0.68
5 -0.99
6 0.28
7 0.28
8 0.27
9 0.28

> <PUBCHEM_EFFECTIVE_ROTOR_COUNT>
1.2

> <PUBCHEM_PHARMACOPHORE_FEATURES>
10
1 1 acceptor
1 2 acceptor
1 2 donor
1 3 acceptor
1 3 donor
1 4 acceptor
1 4 donor
1 5 cation
1 5 donor
6 1 6 7 8 9 10 rings

> <PUBCHEM_HEAVY_ATOM_COUNT>
11

> <PUBCHEM_ATOM_DEF_STEREO_COUNT>
4

> <PUBCHEM_ATOM_UDEF_STEREO_COUNT>
1

> <PUBCHEM_BOND_DEF_STEREO_COUNT>
0

> <PUBCHEM_BOND_UDEF_STEREO_COUNT>
0

> <PUBCHEM_ISOTOPIC_ATOM_COUNT>
0

> <PUBCHEM_COMPONENT_COUNT>
1

> <PUBCHEM_CACTVS_TAUTO_COUNT>
1

> <PUBCHEM_CONFORMER_ID>
00B6680900000002

> <PUBCHEM_MMFF94_ENERGY>
18.9605

> <PUBCHEM_FEATURE_SELFOVERLAP>
50.791

> <PUBCHEM_SHAPE_FINGERPRINT>
12423570 1 15588199873916440044
12524768 44 17904192977403448085
16945 1 18335689499500413694
18185500 45 18339923834721892950
21040471 1 17685772819302927717
23552423 10 18340487777182063837
241688 4 18266173031521521146
2748010 2 18191864741450285263
5084963 1 18186796937691420648
66348 1 18337392741880449949

> <PUBCHEM_SHAPE_MULTIPOLES>
197.92
2.98
2.11
0.79
0.64
0.59
-0.11
-0.25
0.26
-0.19
-0.25
-0.03
-0.16
-0.38

> <PUBCHEM_SHAPE_SELFOVERLAP>
391.874

> <PUBCHEM_SHAPE_VOLUME>
115.9

> <PUBCHEM_COORDINATE_TYPE>
2
5
10

$$$$

