17395808
  -OEChem-06241222523D

 33 35  0     0  0  0  0  0  0999 V2000
   -3.8255    2.1398   -0.0009 S   0  0  0  0  0  0  0  0  0  0  0  0
    0.6910    0.4638    0.0001 O   0  0  0  0  0  0  0  0  0  0  0  0
    3.0877   -2.8356   -0.0014 O   0  0  0  0  0  0  0  0  0  0  0  0
   -1.7415   -2.0916   -0.0002 O   0  0  0  0  0  0  0  0  0  0  0  0
   -1.9395    0.2665   -0.0006 N   0  0  0  0  0  0  0  0  0  0  0  0
   -4.2965   -0.4020    0.0005 N   0  0  0  0  0  0  0  0  0  0  0  0
    2.9326   -0.4753    0.0008 C   0  0  0  0  0  0  0  0  0  0  0  0
    2.0559    0.6105    0.0006 C   0  0  0  0  0  0  0  0  0  0  0  0
    4.3137   -0.2671    0.0009 C   0  0  0  0  0  0  0  0  0  0  0  0
    4.8124    1.0362    0.0004 C   0  0  0  0  0  0  0  0  0  0  0  0
    2.3773   -1.8397    0.0004 C   0  0  0  0  0  0  0  0  0  0  0  0
    0.1817   -0.8176    0.0002 C   0  0  0  0  0  0  0  0  0  0  0  0
    2.5577    1.9122    0.0003 C   0  0  0  0  0  0  0  0  0  0  0  0
    3.9369    2.1232    0.0001 C   0  0  0  0  0  0  0  0  0  0  0  0
    0.9040   -1.9446    0.0002 C   0  0  0  0  0  0  0  0  0  0  0  0
   -1.2760   -0.9520   -0.0007 C   0  0  0  0  0  0  0  0  0  0  0  0
    6.2861    1.2690   -0.0012 C   0  0  0  0  0  0  0  0  0  0  0  0
   -3.3358    0.4952   -0.0001 C   0  0  0  0  0  0  0  0  0  0  0  0
   -5.5149    0.2488    0.0004 C   0  0  0  0  0  0  0  0  0  0  0  0
   -5.4621    1.6270   -0.0004 C   0  0  0  0  0  0  0  0  0  0  0  0
   -6.7454   -0.5665    0.0006 C   0  0  0  0  0  0  0  0  0  0  0  0
    5.0013   -1.1088    0.0029 H   0  0  0  0  0  0  0  0  0  0  0  0
    1.8833    2.7640    0.0004 H   0  0  0  0  0  0  0  0  0  0  0  0
    4.3179    3.1412    0.0013 H   0  0  0  0  0  0  0  0  0  0  0  0
    0.4877   -2.9451   -0.0001 H   0  0  0  0  0  0  0  0  0  0  0  0
    6.6643    1.2880    1.0257 H   0  0  0  0  0  0  0  0  0  0  0  0
    6.8087    0.4812   -0.5544 H   0  0  0  0  0  0  0  0  0  0  0  0
    6.5372    2.2194   -0.4844 H   0  0  0  0  0  0  0  0  0  0  0  0
   -1.3861    1.1203   -0.0010 H   0  0  0  0  0  0  0  0  0  0  0  0
   -6.2769    2.3372   -0.0010 H   0  0  0  0  0  0  0  0  0  0  0  0
   -6.9483   -0.9456   -1.0058 H   0  0  0  0  0  0  0  0  0  0  0  0
   -6.6405   -1.4224    0.6751 H   0  0  0  0  0  0  0  0  0  0  0  0
   -7.6129    0.0148    0.3293 H   0  0  0  0  0  0  0  0  0  0  0  0
  1 18  1  0  0  0  0
  1 20  1  0  0  0  0
  2  8  1  0  0  0  0
  2 12  1  0  0  0  0
  3 11  2  0  0  0  0
  4 16  2  0  0  0  0
  5 16  1  0  0  0  0
  5 18  1  0  0  0  0
  5 29  1  0  0  0  0
  6 18  2  0  0  0  0
  6 19  1  0  0  0  0
  7  8  2  0  0  0  0
  7  9  1  0  0  0  0
  7 11  1  0  0  0  0
  8 13  1  0  0  0  0
  9 10  2  0  0  0  0
  9 22  1  0  0  0  0
 10 14  1  0  0  0  0
 10 17  1  0  0  0  0
 11 15  1  0  0  0  0
 12 15  2  0  0  0  0
 12 16  1  0  0  0  0
 13 14  2  0  0  0  0
 13 23  1  0  0  0  0
 14 24  1  0  0  0  0
 15 25  1  0  0  0  0
 17 26  1  0  0  0  0
 17 27  1  0  0  0  0
 17 28  1  0  0  0  0
 19 20  2  0  0  0  0
 19 21  1  0  0  0  0
 20 30  1  0  0  0  0
 21 31  1  0  0  0  0
 21 32  1  0  0  0  0
 21 33  1  0  0  0  0
M  END
> <PUBCHEM_COMPOUND_CID>
17395808

> <PUBCHEM_CONFORMER_RMSD>
0.6

> <PUBCHEM_CONFORMER_DIVERSEORDER>
1
7
14
8
10
9
13
4
5
6
3
2
11
12

> <PUBCHEM_MMFF94_PARTIAL_CHARGES>
27
1 -0.08
10 -0.14
11 0.47
12 0.09
13 -0.15
14 -0.15
15 -0.14
16 0.62
17 0.14
18 0.44
19 0.05
2 -0.16
20 -0.11
21 0.18
22 0.15
23 0.15
24 0.15
25 0.15
29 0.37
3 -0.57
30 0.15
4 -0.57
5 -0.49
6 -0.57
7 0.09
8 0.08
9 -0.15

> <PUBCHEM_EFFECTIVE_ROTOR_COUNT>
3

> <PUBCHEM_PHARMACOPHORE_FEATURES>
7
1 2 acceptor
1 3 acceptor
1 4 acceptor
1 5 donor
5 1 6 18 19 20 rings
6 2 7 8 11 12 15 rings
6 7 8 9 10 13 14 rings

> <PUBCHEM_HEAVY_ATOM_COUNT>
21

> <PUBCHEM_ATOM_DEF_STEREO_COUNT>
0

> <PUBCHEM_ATOM_UDEF_STEREO_COUNT>
0

> <PUBCHEM_BOND_DEF_STEREO_COUNT>
0

> <PUBCHEM_BOND_UDEF_STEREO_COUNT>
0

> <PUBCHEM_ISOTOPIC_ATOM_COUNT>
0

> <PUBCHEM_COMPONENT_COUNT>
1

> <PUBCHEM_CACTVS_TAUTO_COUNT>
3

> <PUBCHEM_CONFORMER_ID>
0109706000000001

> <PUBCHEM_MMFF94_ENERGY>
48.2731

> <PUBCHEM_FEATURE_SELFOVERLAP>
35.549

> <PUBCHEM_SHAPE_FINGERPRINT>
10 15 18201721700427924448
10411042 1 17906171008172413670
10595046 47 18335703858261645911
10835480 77 18342463686146845765
11578080 2 13828691269521433764
11724838 91 18342458093545239319
12107183 9 17688024636623673353
12236239 1 17894911853940780521
12403259 415 18059295491150697501
12730499 353 18411693279467586770
12788726 201 17313379084400012257
12838862 33 18337409161926077104
12916748 109 18408881850052792333
13073987 5 18411417358394883513
13402501 40 18412827979794372557
13785724 45 17615969249767236795
14251764 18 18272939306479289760
14341114 176 18339635737528078057
14528608 73 18408041810268361109
15196674 1 18338517551298226437
15475509 35 16486700297994970170
15961568 22 18273494585020390365
1601671 61 18413108355834046212
16992752 21 17476356579884292082
17834072 33 18335423469695513367
17844677 252 18264481953111274603
18335252 98 18340483379821725371
18608769 82 18337952260719725355
19489759 90 15339124546366757149
19611394 137 17844231935848974225
19784866 9 18410578379546541042
20157964 124 18410857689801809439
20645477 70 18261953058702698446
21033648 29 17059777840451069141
21033650 10 14851873794905947915
21267235 1 18336820978569910119
21421861 104 17845104024874709474
23402655 69 18260551138485178495
23559900 14 18263083369514761978
245318 6 17271429211054966236
25147074 1 18337409165888800054
335352 9 18410854357344972974
34797466 226 17894623751919274797
34934 24 18408608050219692862
350125 39 18410293575585164225
3545911 37 18410292493042448017
4072396 5 18410584994128596738
4073 2 18131062728193478283
4214541 1 18338517560146584897
42630746 31 18408603673626873846
4325135 7 18334297540135233175
474 4 18130785629229038636
5104073 3 18271519909945215945
543358 83 18336543910635697106
77779 3 18338234968388550593
8272917 22 18335982051598902350

> <PUBCHEM_SHAPE_MULTIPOLES>
408.45
14.94
2.52
0.6
11.86
0.5
0
-6.02
0
-1.41
0
0
-0.03
0

> <PUBCHEM_SHAPE_SELFOVERLAP>
881.398

> <PUBCHEM_SHAPE_VOLUME>
225.9

> <PUBCHEM_COORDINATE_TYPE>
2
5
10

$$$$

