441643
  -OEChem-07051212553D

 38 38  0     1  0  0  0  0  0999 V2000
    1.1808    0.7490   -0.3469 O   0  0  0  0  0  0  0  0  0  0  0  0
    4.7212    0.5868    0.5771 O   0  0  0  0  0  0  0  0  0  0  0  0
    4.0857   -2.1454   -0.1206 O   0  0  0  0  0  0  0  0  0  0  0  0
   -0.5150   -0.8528   -0.3971 O   0  0  0  0  0  0  0  0  0  0  0  0
    1.3015   -2.7755    0.6087 O   0  0  0  0  0  0  0  0  0  0  0  0
    1.6535    3.4380   -0.0279 O   0  0  0  0  0  0  0  0  0  0  0  0
   -1.4626    1.1046    0.3457 O   0  0  0  0  0  0  0  0  0  0  0  0
   -4.2471    1.3866   -0.4000 O   0  0  0  0  0  0  0  0  0  0  0  0
   -5.5156    0.0193    1.6561 O   0  0  0  0  0  0  0  0  0  0  0  0
    3.5215    0.1801   -0.0761 C   0  0  1  0  0  0  0  0  0  0  0  0
    3.1338   -1.2186    0.4040 C   0  0  1  0  0  0  0  0  0  0  0  0
    2.4111    1.1873    0.2322 C   0  0  1  0  0  0  0  0  0  0  0  0
    1.7336   -1.6003   -0.0765 C   0  0  2  0  0  0  0  0  0  0  0  0
    0.7263   -0.4850    0.2038 C   0  0  1  0  0  0  0  0  0  0  0  0
    2.7239    2.5658   -0.3412 C   0  0  0  0  0  0  0  0  0  0  0  0
   -1.5355    0.0382   -0.2504 C   0  0  0  0  0  0  0  0  0  0  0  0
   -2.7933   -0.4549   -0.8899 C   0  0  0  0  0  0  0  0  0  0  0  0
   -4.1159   -0.0315   -0.2932 C   0  0  1  0  0  0  0  0  0  0  0  0
   -4.2614   -0.4504    1.1696 C   0  0  0  0  0  0  0  0  0  0  0  0
   -2.7465   -1.2412   -1.9775 C   0  0  0  0  0  0  0  0  0  0  0  0
    3.7230    0.1548   -1.1546 H   0  0  0  0  0  0  0  0  0  0  0  0
    3.2057   -1.2821    1.4970 H   0  0  0  0  0  0  0  0  0  0  0  0
    2.2689    1.2947    1.3163 H   0  0  0  0  0  0  0  0  0  0  0  0
    1.7475   -1.8382   -1.1475 H   0  0  0  0  0  0  0  0  0  0  0  0
    0.5619   -0.3811    1.2852 H   0  0  0  0  0  0  0  0  0  0  0  0
    2.8205    2.5340   -1.4315 H   0  0  0  0  0  0  0  0  0  0  0  0
    3.6426    2.9818    0.0821 H   0  0  0  0  0  0  0  0  0  0  0  0
    3.8865   -3.0184    0.2573 H   0  0  0  0  0  0  0  0  0  0  0  0
    5.3992   -0.0829    0.3833 H   0  0  0  0  0  0  0  0  0  0  0  0
    1.8949   -3.5014    0.3526 H   0  0  0  0  0  0  0  0  0  0  0  0
    0.8425    3.0561   -0.4051 H   0  0  0  0  0  0  0  0  0  0  0  0
   -4.9562   -0.4535   -0.8585 H   0  0  0  0  0  0  0  0  0  0  0  0
   -3.4931    0.0054    1.8014 H   0  0  0  0  0  0  0  0  0  0  0  0
   -4.2172   -1.5375    1.2910 H   0  0  0  0  0  0  0  0  0  0  0  0
   -3.6560   -1.5983   -2.4501 H   0  0  0  0  0  0  0  0  0  0  0  0
   -1.8107   -1.5441   -2.4351 H   0  0  0  0  0  0  0  0  0  0  0  0
   -4.1788    1.6200   -1.3419 H   0  0  0  0  0  0  0  0  0  0  0  0
   -6.2120   -0.4051    1.1263 H   0  0  0  0  0  0  0  0  0  0  0  0
  1 12  1  0  0  0  0
  1 14  1  0  0  0  0
  2 10  1  0  0  0  0
  2 29  1  0  0  0  0
  3 11  1  0  0  0  0
  3 28  1  0  0  0  0
  4 14  1  0  0  0  0
  4 16  1  0  0  0  0
  5 13  1  0  0  0  0
  5 30  1  0  0  0  0
  6 15  1  0  0  0  0
  6 31  1  0  0  0  0
  7 16  2  0  0  0  0
  8 18  1  0  0  0  0
  8 37  1  0  0  0  0
  9 19  1  0  0  0  0
  9 38  1  0  0  0  0
 10 11  1  0  0  0  0
 10 12  1  0  0  0  0
 10 21  1  0  0  0  0
 11 13  1  0  0  0  0
 11 22  1  0  0  0  0
 12 15  1  0  0  0  0
 12 23  1  0  0  0  0
 13 14  1  0  0  0  0
 13 24  1  0  0  0  0
 14 25  1  0  0  0  0
 15 26  1  0  0  0  0
 15 27  1  0  0  0  0
 16 17  1  0  0  0  0
 17 18  1  0  0  0  0
 17 20  2  0  0  0  0
 18 19  1  0  0  0  0
 18 32  1  0  0  0  0
 19 33  1  0  0  0  0
 19 34  1  0  0  0  0
 20 35  1  0  0  0  0
 20 36  1  0  0  0  0
M  END
> <PUBCHEM_COMPOUND_CID>
441643

> <PUBCHEM_CONFORMER_RMSD>
1

> <PUBCHEM_CONFORMER_DIVERSEORDER>
1
502
329
64
187
91
402
357
114
364
12
239
218
343
248
122
139
447
89
546
96
319
311
368
66
75
200
169
74
481
302
93
95
245
163
85
593
506
235
83
293
140
355
197
275
389
428
433
148
24
184
314
4
292
157
463
191
476
65
489
280
483
15
194
347
110
112
359
23
580
446
524
181
43
270
71
268
358
321
3
88
460
253
38
482
61
150
132
417
301
259
349
8
48
511
196
530
454
240
429
494
60
471
535
285
29
551
310
217
190
426
455
104
598
143
180
322
46
111
49
339
451
56
382
7
97
440
175
2
51
279
28
462
16
5
220
595
10
21

> <PUBCHEM_MMFF94_PARTIAL_CHARGES>
28
1 -0.56
10 0.28
11 0.28
12 0.28
13 0.28
14 0.56
15 0.28
16 0.71
17 -0.12
18 0.42
19 0.28
2 -0.68
20 -0.3
28 0.4
29 0.4
3 -0.68
30 0.4
31 0.4
35 0.15
36 0.15
37 0.4
38 0.4
4 -0.43
5 -0.68
6 -0.68
7 -0.57
8 -0.68
9 -0.68

> <PUBCHEM_EFFECTIVE_ROTOR_COUNT>
7.2

> <PUBCHEM_PHARMACOPHORE_FEATURES>
16
1 1 acceptor
1 2 acceptor
1 2 donor
1 20 hydrophobe
1 3 acceptor
1 3 donor
1 5 acceptor
1 5 donor
1 6 acceptor
1 6 donor
1 7 acceptor
1 8 acceptor
1 8 donor
1 9 acceptor
1 9 donor
6 1 10 11 12 13 14 rings

> <PUBCHEM_HEAVY_ATOM_COUNT>
20

> <PUBCHEM_ATOM_DEF_STEREO_COUNT>
5

> <PUBCHEM_ATOM_UDEF_STEREO_COUNT>
1

> <PUBCHEM_BOND_DEF_STEREO_COUNT>
0

> <PUBCHEM_BOND_UDEF_STEREO_COUNT>
0

> <PUBCHEM_ISOTOPIC_ATOM_COUNT>
0

> <PUBCHEM_COMPONENT_COUNT>
1

> <PUBCHEM_CACTVS_TAUTO_COUNT>
1

> <PUBCHEM_CONFORMER_ID>
0006BD2B00000001

> <PUBCHEM_MMFF94_ENERGY>
47.4334

> <PUBCHEM_FEATURE_SELFOVERLAP>
81.22

> <PUBCHEM_SHAPE_FINGERPRINT>
11045977 3 18131624591625460675
11471102 20 18411989078302355526
11578080 2 11742735140459209406
12236239 1 17894630339977152291
12553582 1 18267314299048799702
13140716 1 18197500615069237624
13583140 156 16772415966162120083
13675066 3 18342177778098818373
14341114 176 18412254065121033107
15081414 286 18408884045082072844
1813 80 18116421738727044110
18186145 218 18337677412354942668
18785283 64 18058724681064661580
19422 9 18113907005130921975
20600515 1 15936416636715283395
20645477 70 18337402637654282255
21041028 32 18338515369096273888
21267235 1 18336821004930674478
21639500 275 18268728124967418012
221490 88 18341609291737633538
2255824 54 18410860940949718726
22854114 111 18410859849616438925
23402539 116 18187940451797247004
23402655 69 18334582360153086420
23557571 272 16630538340626676127
23598291 2 18187655682285189079
2748010 2 17764587613053573572
474 4 18339085886755450184
5104073 3 18341334503977342369
53777708 50 18116158770468817863
6049 1 17632587071235288461
633830 44 18262232197227444516
7364860 26 18409452462280649868
7495541 125 17203324494678135976
7615 1 17896055268792809023
7832392 63 18193563491326412164
84936 182 17899425190164760936
9981440 41 17543931013578961624

> <PUBCHEM_SHAPE_MULTIPOLES>
358.77
9.76
2.57
1.11
6.63
1.05
0.12
0.39
-2.29
-3.13
0.1
1.64
-0.29
-0.56

> <PUBCHEM_SHAPE_SELFOVERLAP>
723.356

> <PUBCHEM_SHAPE_VOLUME>
206.1

> <PUBCHEM_COORDINATE_TYPE>
2
5
10

$$$$

