443804
  -OEChem-07051213033D

 34 37  0     0  0  0  0  0  0999 V2000
   -1.7868   -2.5501   -0.0009 O   0  0  0  0  0  0  0  0  0  0  0  0
    2.2866    3.0581   -0.0005 O   0  0  0  0  0  0  0  0  0  0  0  0
   -0.5290    2.8909    0.0002 O   0  5  0  0  0  0  0  0  0  0  0  0
   -4.3087   -1.8340   -0.0002 O   0  0  0  0  0  0  0  0  0  0  0  0
    1.0827   -2.9594    0.0003 N   0  3  0  0  0  0  0  0  0  0  0  0
    1.1518   -4.0536    0.0005 N   0  0  0  0  0  0  0  0  0  0  0  0
    0.2538    0.6410    0.0002 C   0  0  0  0  0  0  0  0  0  0  0  0
   -0.1306   -0.7770    0.0003 C   0  0  0  0  0  0  0  0  0  0  0  0
    1.7231    0.7060    0.0002 C   0  0  0  0  0  0  0  0  0  0  0  0
    2.1557   -0.6325    0.0003 C   0  0  0  0  0  0  0  0  0  0  0  0
    0.9925   -1.5187    0.0005 C   0  0  0  0  0  0  0  0  0  0  0  0
   -1.5142   -1.1986    0.0001 C   0  0  0  0  0  0  0  0  0  0  0  0
   -0.6644    1.6365    0.0003 C   0  0  0  0  0  0  0  0  0  0  0  0
   -2.4837   -0.2539    0.0000 C   0  0  0  0  0  0  0  0  0  0  0  0
   -2.1218    1.2007    0.0004 C   0  0  0  0  0  0  0  0  0  0  0  0
    2.6351    1.7481   -0.0001 C   0  0  0  0  0  0  0  0  0  0  0  0
    3.5046   -0.9504    0.0000 C   0  0  0  0  0  0  0  0  0  0  0  0
    4.4282    0.0967   -0.0005 C   0  0  0  0  0  0  0  0  0  0  0  0
    3.9971    1.4333   -0.0005 C   0  0  0  0  0  0  0  0  0  0  0  0
   -3.9312   -0.6671   -0.0006 C   0  0  0  0  0  0  0  0  0  0  0  0
   -3.1533    2.0803    0.0009 C   0  0  0  0  0  0  0  0  0  0  0  0
    5.8896   -0.2067   -0.0003 C   0  0  0  0  0  0  0  0  0  0  0  0
   -4.9364    0.4184   -0.0009 C   0  0  0  0  0  0  0  0  0  0  0  0
   -4.5407    1.6920    0.0001 C   0  0  0  0  0  0  0  0  0  0  0  0
    3.8324   -1.9852   -0.0017 H   0  0  0  0  0  0  0  0  0  0  0  0
    4.7386    2.2301   -0.0027 H   0  0  0  0  0  0  0  0  0  0  0  0
   -3.0088    3.1573    0.0014 H   0  0  0  0  0  0  0  0  0  0  0  0
    6.4410    0.5235    0.6017 H   0  0  0  0  0  0  0  0  0  0  0  0
    6.0921   -1.1938    0.4290 H   0  0  0  0  0  0  0  0  0  0  0  0
    6.2773   -0.1858   -1.0237 H   0  0  0  0  0  0  0  0  0  0  0  0
   -5.9861    0.1493   -0.0016 H   0  0  0  0  0  0  0  0  0  0  0  0
   -5.2784    2.4882    0.0000 H   0  0  0  0  0  0  0  0  0  0  0  0
   -0.9545   -3.0494   -0.0010 H   0  0  0  0  0  0  0  0  0  0  0  0
    3.0877    3.6095   -0.0005 H   0  0  0  0  0  0  0  0  0  0  0  0
  1 12  1  0  0  0  0
  1 33  1  0  0  0  0
  2 16  1  0  0  0  0
  2 34  1  0  0  0  0
  3 13  1  0  0  0  0
  4 20  2  0  0  0  0
  5  6  3  0  0  0  0
  5 11  1  0  0  0  0
  7  8  1  0  0  0  0
  7  9  1  0  0  0  0
  7 13  2  0  0  0  0
  8 11  2  0  0  0  0
  8 12  1  0  0  0  0
  9 10  2  0  0  0  0
  9 16  1  0  0  0  0
 10 11  1  0  0  0  0
 10 17  1  0  0  0  0
 12 14  2  0  0  0  0
 13 15  1  0  0  0  0
 14 15  1  0  0  0  0
 14 20  1  0  0  0  0
 15 21  2  0  0  0  0
 16 19  2  0  0  0  0
 17 18  2  0  0  0  0
 17 25  1  0  0  0  0
 18 19  1  0  0  0  0
 18 22  1  0  0  0  0
 19 26  1  0  0  0  0
 20 23  1  0  0  0  0
 21 24  1  0  0  0  0
 21 27  1  0  0  0  0
 22 28  1  0  0  0  0
 22 29  1  0  0  0  0
 22 30  1  0  0  0  0
 23 24  2  0  0  0  0
 23 31  1  0  0  0  0
 24 32  1  0  0  0  0
M  CHG  2   3  -1   5   1
M  END
> <PUBCHEM_COMPOUND_CID>
443804

> <PUBCHEM_CONFORMER_RMSD>
0.6

> <PUBCHEM_CONFORMER_DIVERSEORDER>
1

> <PUBCHEM_MMFF94_PARTIAL_CHARGES>
29
1 -0.53
10 0.03
11 0.1
12 0.08
13 -0.15
14 0.01
16 0.08
17 -0.15
18 -0.14
19 -0.15
2 -0.53
20 0.54
21 -0.15
22 0.14
23 -0.14
24 -0.15
25 0.15
26 0.15
27 0.15
3 -0.85
31 0.15
32 0.15
33 0.45
34 0.45
4 -0.57
5 1.36
6 -0.49
7 -0.03
9 0.03

> <PUBCHEM_EFFECTIVE_ROTOR_COUNT>
0

> <PUBCHEM_PHARMACOPHORE_FEATURES>
7
1 1 donor
1 2 donor
1 4 acceptor
5 7 8 9 10 11 rings
6 14 15 20 21 23 24 rings
6 7 8 12 13 14 15 rings
6 9 10 16 17 18 19 rings

> <PUBCHEM_HEAVY_ATOM_COUNT>
24

> <PUBCHEM_ATOM_DEF_STEREO_COUNT>
0

> <PUBCHEM_ATOM_UDEF_STEREO_COUNT>
0

> <PUBCHEM_BOND_DEF_STEREO_COUNT>
0

> <PUBCHEM_BOND_UDEF_STEREO_COUNT>
0

> <PUBCHEM_ISOTOPIC_ATOM_COUNT>
0

> <PUBCHEM_COMPONENT_COUNT>
1

> <PUBCHEM_CACTVS_TAUTO_COUNT>
60

> <PUBCHEM_CONFORMER_ID>
0006C59C00000001

> <PUBCHEM_MMFF94_ENERGY>
95.0508

> <PUBCHEM_FEATURE_SELFOVERLAP>
35.714

> <PUBCHEM_SHAPE_FINGERPRINT>
10411042 1 17690279313707679043
10616163 171 18410573968346524587
10906281 52 18270099310261434000
10967382 1 18338517563660713508
1100329 8 18337955588992104544
11578080 2 16843052084828261719
12236239 1 17918275346818612020
12403260 363 18338803316482860348
12788726 201 17097210769553525777
12838862 33 18338818786892361057
12839892 36 18339378455917887266
13140716 1 18410014299584373032
13583140 156 17060342937487581761
138480 1 17762055836432096399
14223421 5 18268430316150894117
14466204 15 18410862096396239336
14790565 3 18410849945654605964
15196674 1 18410573950834300548
1601671 61 18411701023704701124
16945 1 18338517568029540324
18681886 176 18410859833138410760
19591789 44 18337954480700456075
200 152 18040719177331988785
20028762 73 18187932724787858038
21033648 29 17822309954687274760
21267235 1 18411129217080342035
21279426 13 18265893755789716358
21421861 104 17985267627509126282
21709351 56 18410018723347921181
221490 88 18340481162610804609
23227448 37 18335984190265574191
2334 1 18266740169194675880
23366157 5 17914328224233958538
23402539 116 18334863804896130061
23559900 14 18336551632860145402
23566358 2 18194122056054576894
2748010 2 18339357440394552350
3004659 81 18272082838940946806
335352 9 18410856585494288636
34934 24 18338520849880556615
350125 39 18411698764605170676
3545911 37 18410855494957638949
3680242 22 18269555103682280608
4214541 1 18410573985368118725
4409770 3 15968219267519738366
5104073 3 18410856542528837400
6138700 20 18338231695871975694
7364860 26 18265614475451934510
9709674 26 18410005546441354911

> <PUBCHEM_SHAPE_MULTIPOLES>
460.47
9.68
3.38
0.59
1.17
1.6
0
-1.7
0
0.16
0
0.01
-0.02
0

> <PUBCHEM_SHAPE_SELFOVERLAP>
1051.185

> <PUBCHEM_SHAPE_VOLUME>
236.3

> <PUBCHEM_COORDINATE_TYPE>
2
5
10

$$$$

