443368
  -OEChem-07051213022D

 39 42  0     1  0  0  0  0  0999 V2000
    7.0156    0.3351    0.0000 O   0  0  0  0  0  0  0  0  0  0  0  0
    6.5852   -1.2469    0.0000 O   0  0  0  0  0  0  0  0  0  0  0  0
    4.7200   -2.2086    0.0000 O   0  0  0  0  0  0  0  0  0  0  0  0
    7.0190   -1.2786    0.0000 O   0  0  0  0  0  0  0  0  0  0  0  0
    6.5461    0.7850    0.0000 O   0  0  0  0  0  0  0  0  0  0  0  0
    7.5575   -0.0947    0.0000 O   0  5  0  0  0  0  0  0  0  0  0  0
    4.1985    2.0496    0.0000 O   0  0  0  0  0  0  0  0  0  0  0  0
    7.7181   -1.5944    0.0000 O   0  0  0  0  0  0  0  0  0  0  0  0
    4.1985   -0.7876    0.0000 N   0  0  0  0  0  0  0  0  0  0  0  0
    3.4030    0.5903    0.0000 N   0  3  0  0  0  0  0  0  0  0  0  0
    2.5369   -0.8283    0.0000 N   0  0  0  0  0  0  0  0  0  0  0  0
    4.9941   -0.3283    0.0000 C   0  0  3  0  0  0  0  0  0  0  0  0
    4.9941    0.5903    0.0000 C   0  0  3  0  0  0  0  0  0  0  0  0
    5.9949    1.0088    0.0000 C   0  0  3  0  0  0  0  0  0  0  0  0
    4.9941   -1.2469    0.0000 C   0  0  3  0  0  0  0  0  0  0  0  0
    6.3420   -0.5427    0.0000 C   0  0  3  0  0  0  0  0  0  0  0  0
    5.7896   -1.7062    0.0000 C   0  0  1  0  0  0  0  0  0  0  0  0
    5.7896    0.1310    0.0000 C   0  0  1  0  0  0  0  0  0  0  0  0
    6.5852   -0.3283    0.0000 C   0  0  3  0  0  0  0  0  0  0  0  0
    4.1985    1.0496    0.0000 C   0  0  3  0  0  0  0  0  0  0  0  0
    7.3337   -0.6713    0.0000 C   0  0  0  0  0  0  0  0  0  0  0  0
    3.4030   -0.3283    0.0000 C   0  0  0  0  0  0  0  0  0  0  0  0
    5.0336    1.2090    0.0000 H   0  0  0  0  0  0  0  0  0  0  0  0
    6.0529    1.6261    0.0000 H   0  0  0  0  0  0  0  0  0  0  0  0
    4.3800   -1.1611    0.0000 H   0  0  0  0  0  0  0  0  0  0  0  0
    5.7896   -2.5562    0.0000 H   0  0  0  0  0  0  0  0  0  0  0  0
    5.4303    0.6362    0.0000 H   0  0  0  0  0  0  0  0  0  0  0  0
    4.7354    1.3596    0.0000 H   0  0  0  0  0  0  0  0  0  0  0  0
    4.1985   -1.4076    0.0000 H   0  0  0  0  0  0  0  0  0  0  0  0
    7.9387   -0.5360    0.0000 H   0  0  0  0  0  0  0  0  0  0  0  0
    7.3054   -0.0519    0.0000 H   0  0  0  0  0  0  0  0  0  0  0  0
    2.8660    0.9003    0.0000 H   0  0  0  0  0  0  0  0  0  0  0  0
    4.1187   -2.3596    0.0000 H   0  0  0  0  0  0  0  0  0  0  0  0
    6.8336   -1.8703    0.0000 H   0  0  0  0  0  0  0  0  0  0  0  0
    6.7496    1.3707    0.0000 H   0  0  0  0  0  0  0  0  0  0  0  0
    3.6616    2.3596    0.0000 H   0  0  0  0  0  0  0  0  0  0  0  0
    8.3330   -1.6742    0.0000 H   0  0  0  0  0  0  0  0  0  0  0  0
    2.0000   -0.5183    0.0000 H   0  0  0  0  0  0  0  0  0  0  0  0
    2.5369   -1.4483    0.0000 H   0  0  0  0  0  0  0  0  0  0  0  0
  1 14  1  0  0  0  0
  1 19  1  0  0  0  0
  2 17  1  0  0  0  0
  2 19  1  0  0  0  0
  3 15  1  0  0  0  0
  3 33  1  0  0  0  0
  4 16  1  0  0  0  0
  4 34  1  0  0  0  0
 18  5  1  6  0  0  0
  5 35  1  0  0  0  0
  6 19  1  0  0  0  0
  7 20  1  0  0  0  0
  7 36  1  0  0  0  0
  8 21  1  0  0  0  0
  8 37  1  0  0  0  0
  9 12  1  0  0  0  0
  9 22  1  0  0  0  0
  9 29  1  0  0  0  0
 10 20  1  0  0  0  0
 10 22  2  0  0  0  0
 10 32  1  0  0  0  0
 11 22  1  0  0  0  0
 11 38  1  0  0  0  0
 11 39  1  0  0  0  0
 12 13  1  0  0  0  0
 12 15  1  0  0  0  0
 12 18  1  0  0  0  0
 13 14  1  0  0  0  0
 13 20  1  0  0  0  0
 13 23  1  0  0  0  0
 14 16  1  0  0  0  0
 14 24  1  0  0  0  0
 15 17  1  0  0  0  0
 15 25  1  0  0  0  0
 16 17  1  0  0  0  0
 16 21  1  0  0  0  0
 17 26  1  6  0  0  0
 18 19  1  0  0  0  0
 18 27  1  0  0  0  0
 20 28  1  0  0  0  0
 21 30  1  0  0  0  0
 21 31  1  0  0  0  0
M  CHG  2   6  -1  10   1
M  END
> <PUBCHEM_COMPOUND_CID>
443368

> <PUBCHEM_COMPOUND_CANONICALIZED>
1

> <PUBCHEM_CACTVS_COMPLEXITY>
562

> <PUBCHEM_CACTVS_HBOND_ACCEPTOR>
8

> <PUBCHEM_CACTVS_HBOND_DONOR>
8

> <PUBCHEM_CACTVS_ROTATABLE_BOND>
1

> <PUBCHEM_CACTVS_SUBSKEYS>
AAADceBzPAAAAAAAAAAAAAAAAAAAAAAAAAA0SJECAAAAAACAAAAAHgAQCAAADdzhgAYBCALABgAgAAAAJAAAAAGAAAABAIAAAAGTEAIAyAAmQAAHEAIXAAHw8P8OgAAAAAAAAADSgAYUADSgAAAAAAAAAA==

> <PUBCHEM_IUPAC_INCHI>
InChI=1S/C11H16N3O8/c12-8-13-6(17)2-4-9(19,1-15)5-3(16)10(2,14-8)7(18)11(20,21-4)22-5/h2-7,15-19H,1H2,(H3,12,13,14)/q-1/p+1/t2?,3?,4?,5-,6?,7-,9?,10?,11?/m0/s1

> <PUBCHEM_IUPAC_INCHIKEY>
SLBCPBUVHCASIJ-UFHSVNPDSA-O

> <PUBCHEM_XLOGP3_AA>
-4.8

> <PUBCHEM_EXACT_MASS>
319.101565

> <PUBCHEM_MOLECULAR_FORMULA>
C11H17N3O8

> <PUBCHEM_MOLECULAR_WEIGHT>
319.26798

> <PUBCHEM_OPENEYE_CAN_SMILES>
C(C1(C2C3C([NH+]=C(NC34C(C1OC(C4O)(O2)[O-])O)N)O)O)O

> <PUBCHEM_OPENEYE_ISO_SMILES>
C(C1([C@@H]2C(C34[C@@H](C(O2)(OC1C3C([NH+]=C(N4)N)O)[O-])O)O)O)O

> <PUBCHEM_CACTVS_TPSA>
195

> <PUBCHEM_MONOISOTOPIC_WEIGHT>
319.101565

> <PUBCHEM_TOTAL_CHARGE>
0

> <PUBCHEM_HEAVY_ATOM_COUNT>
22

> <PUBCHEM_ATOM_DEF_STEREO_COUNT>
2

> <PUBCHEM_ATOM_UDEF_STEREO_COUNT>
7

> <PUBCHEM_BOND_DEF_STEREO_COUNT>
0

> <PUBCHEM_BOND_UDEF_STEREO_COUNT>
0

> <PUBCHEM_ISOTOPIC_ATOM_COUNT>
0

> <PUBCHEM_COMPONENT_COUNT>
1

> <PUBCHEM_CACTVS_TAUTO_COUNT>
3

> <PUBCHEM_COORDINATE_TYPE>
1
5
255

> <PUBCHEM_BONDANNOTATIONS>
14  1  3
13  20  3
17  26  6
15  3  3
16  4  3
18  5  6
19  6  3
20  7  3
12  9  3

$$$$

