439829
  -OEChem-07051212472D

 37 36  0     1  0  0  0  0  0999 V2000
    4.5981    0.7500    0.0000 O   0  0  0  0  0  0  0  0  0  0  0  0
    5.4641    2.2500    0.0000 O   0  0  0  0  0  0  0  0  0  0  0  0
    4.5981   -2.2500    0.0000 O   0  5  0  0  0  0  0  0  0  0  0  0
    3.7320   -0.7500    0.0000 O   0  0  0  0  0  0  0  0  0  0  0  0
    7.1962    0.2500    0.0000 N   0  3  0  0  0  0  0  0  0  0  0  0
    6.3301    0.7500    0.0000 C   0  0  0  0  0  0  0  0  0  0  0  0
    5.4641    0.2500    0.0000 C   0  0  3  0  0  0  0  0  0  0  0  0
    8.0622   -0.2500    0.0000 C   0  0  0  0  0  0  0  0  0  0  0  0
    7.6962    1.1160    0.0000 C   0  0  0  0  0  0  0  0  0  0  0  0
    6.6962   -0.6160    0.0000 C   0  0  0  0  0  0  0  0  0  0  0  0
    5.4641   -0.7500    0.0000 C   0  0  0  0  0  0  0  0  0  0  0  0
    4.5981    1.7500    0.0000 C   0  0  0  0  0  0  0  0  0  0  0  0
    4.5981   -1.2500    0.0000 C   0  0  0  0  0  0  0  0  0  0  0  0
    3.7320    2.2500    0.0000 C   0  0  0  0  0  0  0  0  0  0  0  0
    2.8660    1.7500    0.0000 C   0  0  0  0  0  0  0  0  0  0  0  0
    2.0000    2.2500    0.0000 C   0  0  0  0  0  0  0  0  0  0  0  0
    6.7287    1.2250    0.0000 H   0  0  0  0  0  0  0  0  0  0  0  0
    5.9316    1.2250    0.0000 H   0  0  0  0  0  0  0  0  0  0  0  0
    5.4641    0.8700    0.0000 H   0  0  0  0  0  0  0  0  0  0  0  0
    7.7522   -0.7869    0.0000 H   0  0  0  0  0  0  0  0  0  0  0  0
    8.5991   -0.5600    0.0000 H   0  0  0  0  0  0  0  0  0  0  0  0
    8.3722    0.2869    0.0000 H   0  0  0  0  0  0  0  0  0  0  0  0
    8.2331    0.8060    0.0000 H   0  0  0  0  0  0  0  0  0  0  0  0
    8.0062    1.6530    0.0000 H   0  0  0  0  0  0  0  0  0  0  0  0
    7.1592    1.4260    0.0000 H   0  0  0  0  0  0  0  0  0  0  0  0
    6.1592   -0.3060    0.0000 H   0  0  0  0  0  0  0  0  0  0  0  0
    6.3862   -1.1530    0.0000 H   0  0  0  0  0  0  0  0  0  0  0  0
    7.2331   -0.9260    0.0000 H   0  0  0  0  0  0  0  0  0  0  0  0
    5.6762   -1.3326    0.0000 H   0  0  0  0  0  0  0  0  0  0  0  0
    6.0747   -0.6423    0.0000 H   0  0  0  0  0  0  0  0  0  0  0  0
    4.1306    2.7250    0.0000 H   0  0  0  0  0  0  0  0  0  0  0  0
    3.3335    2.7250    0.0000 H   0  0  0  0  0  0  0  0  0  0  0  0
    2.4675    1.2750    0.0000 H   0  0  0  0  0  0  0  0  0  0  0  0
    3.2646    1.2750    0.0000 H   0  0  0  0  0  0  0  0  0  0  0  0
    2.3100    2.7869    0.0000 H   0  0  0  0  0  0  0  0  0  0  0  0
    1.4631    2.5600    0.0000 H   0  0  0  0  0  0  0  0  0  0  0  0
    1.6900    1.7131    0.0000 H   0  0  0  0  0  0  0  0  0  0  0  0
  1  7  1  0  0  0  0
  1 12  1  0  0  0  0
  2 12  2  0  0  0  0
  3 13  1  0  0  0  0
  4 13  2  0  0  0  0
  5  6  1  0  0  0  0
  5  8  1  0  0  0  0
  5  9  1  0  0  0  0
  5 10  1  0  0  0  0
  6  7  1  0  0  0  0
  6 17  1  0  0  0  0
  6 18  1  0  0  0  0
  7 11  1  0  0  0  0
  7 19  1  0  0  0  0
  8 20  1  0  0  0  0
  8 21  1  0  0  0  0
  8 22  1  0  0  0  0
  9 23  1  0  0  0  0
  9 24  1  0  0  0  0
  9 25  1  0  0  0  0
 10 26  1  0  0  0  0
 10 27  1  0  0  0  0
 10 28  1  0  0  0  0
 11 13  1  0  0  0  0
 11 29  1  0  0  0  0
 11 30  1  0  0  0  0
 12 14  1  0  0  0  0
 14 15  1  0  0  0  0
 14 31  1  0  0  0  0
 14 32  1  0  0  0  0
 15 16  1  0  0  0  0
 15 33  1  0  0  0  0
 15 34  1  0  0  0  0
 16 35  1  0  0  0  0
 16 36  1  0  0  0  0
 16 37  1  0  0  0  0
M  CHG  2   3  -1   5   1
M  END
> <PUBCHEM_COMPOUND_CID>
439829

> <PUBCHEM_COMPOUND_CANONICALIZED>
1

> <PUBCHEM_CACTVS_COMPLEXITY>
239

> <PUBCHEM_CACTVS_HBOND_ACCEPTOR>
4

> <PUBCHEM_CACTVS_HBOND_DONOR>
0

> <PUBCHEM_CACTVS_ROTATABLE_BOND>
7

> <PUBCHEM_CACTVS_SUBSKEYS>
AAADceByOAAAAAAAAAAAAAAAAAAAAAAAAAAAAAAAAAAAAAAAAAAAHgAAAAAACBThgAYCCAMABAAIAACQCAAAAAAAAAAAAAEIAAACABQAgAAHAAAFIAAQAAAkAAAAAAAAAAAAAAAAAAAAAAAAAAAAAAAAAA==

> <PUBCHEM_IUPAC_OPENEYE_NAME>
3-butanoyloxy-4-(trimethylammonio)butanoate

> <PUBCHEM_IUPAC_CAS_NAME>
3-(1-oxobutoxy)-4-(trimethylammonio)butanoate

> <PUBCHEM_IUPAC_NAME>
3-butanoyloxy-4-(trimethylazaniumyl)butanoate

> <PUBCHEM_IUPAC_SYSTEMATIC_NAME>
3-butanoyloxy-4-(trimethylazaniumyl)butanoate

> <PUBCHEM_IUPAC_TRADITIONAL_NAME>
3-butyryloxy-4-(trimethylammonio)butyrate

> <PUBCHEM_IUPAC_INCHI>
InChI=1S/C11H21NO4/c1-5-6-11(15)16-9(7-10(13)14)8-12(2,3)4/h9H,5-8H2,1-4H3

> <PUBCHEM_IUPAC_INCHIKEY>
QWYFHHGCZUCMBN-UHFFFAOYSA-N

> <PUBCHEM_XLOGP3_AA>
1.2

> <PUBCHEM_EXACT_MASS>
231.147058

> <PUBCHEM_MOLECULAR_FORMULA>
C11H21NO4

> <PUBCHEM_MOLECULAR_WEIGHT>
231.28874

> <PUBCHEM_OPENEYE_CAN_SMILES>
CCCC(=O)OC(CC(=O)[O-])C[N+](C)(C)C

> <PUBCHEM_OPENEYE_ISO_SMILES>
CCCC(=O)OC(CC(=O)[O-])C[N+](C)(C)C

> <PUBCHEM_CACTVS_TPSA>
66.4

> <PUBCHEM_MONOISOTOPIC_WEIGHT>
231.147058

> <PUBCHEM_TOTAL_CHARGE>
0

> <PUBCHEM_HEAVY_ATOM_COUNT>
16

> <PUBCHEM_ATOM_DEF_STEREO_COUNT>
0

> <PUBCHEM_ATOM_UDEF_STEREO_COUNT>
1

> <PUBCHEM_BOND_DEF_STEREO_COUNT>
0

> <PUBCHEM_BOND_UDEF_STEREO_COUNT>
0

> <PUBCHEM_ISOTOPIC_ATOM_COUNT>
0

> <PUBCHEM_COMPONENT_COUNT>
1

> <PUBCHEM_CACTVS_TAUTO_COUNT>
1

> <PUBCHEM_COORDINATE_TYPE>
1
5
255

> <PUBCHEM_BONDANNOTATIONS>
7  6  3

$$$$

