443794
  -OEChem-07051213032D

 45 48  0     1  0  0  0  0  0999 V2000
    5.5320    1.4785    0.0000 O   0  0  0  0  0  0  0  0  0  0  0  0
    4.6497   -2.0561    0.0000 O   0  0  0  0  0  0  0  0  0  0  0  0
    4.3070    1.9567    0.0000 O   0  0  0  0  0  0  0  0  0  0  0  0
    6.3981    1.9785    0.0000 O   0  0  0  0  0  0  0  0  0  0  0  0
    2.8680   -1.0457    0.0000 O   0  0  0  0  0  0  0  0  0  0  0  0
    8.1465    2.0131    0.0000 O   0  0  0  0  0  0  0  0  0  0  0  0
    2.8718    2.0026    0.0000 O   0  0  0  0  0  0  0  0  0  0  0  0
    9.9837    2.0561    0.0000 O   0  0  0  0  0  0  0  0  0  0  0  0
   11.8031   -1.0674    0.0000 O   0  0  0  0  0  0  0  0  0  0  0  0
    5.5320   -0.5215    0.0000 C   0  0  1  0  0  0  0  0  0  0  0  0
    5.5320    0.4785    0.0000 C   0  0  1  0  0  0  0  0  0  0  0  0
    6.3981   -1.0215    0.0000 C   0  0  0  0  0  0  0  0  0  0  0  0
    4.6381   -1.0562    0.0000 C   0  0  1  0  0  0  0  0  0  0  0  0
    7.2641   -0.5215    0.0000 C   0  0  0  0  0  0  0  0  0  0  0  0
    6.3981    0.9785    0.0000 C   0  0  0  0  0  0  0  0  0  0  0  0
    4.6381    1.0131    0.0000 C   0  0  0  0  0  0  0  0  0  0  0  0
    7.2641    0.4785    0.0000 C   0  0  0  0  0  0  0  0  0  0  0  0
    3.7320   -0.5424    0.0000 C   0  0  0  0  0  0  0  0  0  0  0  0
    3.7320    0.4993    0.0000 C   0  0  0  0  0  0  0  0  0  0  0  0
    8.1580   -1.0562    0.0000 C   0  0  0  0  0  0  0  0  0  0  0  0
    8.1580    1.0131    0.0000 C   0  0  0  0  0  0  0  0  0  0  0  0
    9.0641   -0.5424    0.0000 C   0  0  0  0  0  0  0  0  0  0  0  0
    9.0641    0.4993    0.0000 C   0  0  0  0  0  0  0  0  0  0  0  0
    2.8680    1.0026    0.0000 C   0  0  0  0  0  0  0  0  0  0  0  0
    9.9953    1.0562    0.0000 C   0  0  0  0  0  0  0  0  0  0  0  0
    9.9953   -1.0993    0.0000 C   0  0  0  0  0  0  0  0  0  0  0  0
    2.0000    0.5060    0.0000 C   0  0  0  0  0  0  0  0  0  0  0  0
   10.9391   -0.5640    0.0000 C   0  0  0  0  0  0  0  0  0  0  0  0
   10.9391    0.5210    0.0000 C   0  0  0  0  0  0  0  0  0  0  0  0
    5.5386   -1.3715    0.0000 H   0  0  0  0  0  0  0  0  0  0  0  0
    5.9995   -1.4965    0.0000 H   0  0  0  0  0  0  0  0  0  0  0  0
    6.7966   -1.4965    0.0000 H   0  0  0  0  0  0  0  0  0  0  0  0
    4.1042   -1.3714    0.0000 H   0  0  0  0  0  0  0  0  0  0  0  0
    8.1509   -1.6762    0.0000 H   0  0  0  0  0  0  0  0  0  0  0  0
    5.1335    1.9534    0.0000 H   0  0  0  0  0  0  0  0  0  0  0  0
    4.1164   -2.3723    0.0000 H   0  0  0  0  0  0  0  0  0  0  0  0
    3.6977    2.0714    0.0000 H   0  0  0  0  0  0  0  0  0  0  0  0
    9.9881   -1.7192    0.0000 H   0  0  0  0  0  0  0  0  0  0  0  0
    8.6798    2.3292    0.0000 H   0  0  0  0  0  0  0  0  0  0  0  0
    1.6921    1.0441    0.0000 H   0  0  0  0  0  0  0  0  0  0  0  0
    1.4619    0.1980    0.0000 H   0  0  0  0  0  0  0  0  0  0  0  0
    2.3079   -0.0322    0.0000 H   0  0  0  0  0  0  0  0  0  0  0  0
   11.4748    0.8330    0.0000 H   0  0  0  0  0  0  0  0  0  0  0  0
   10.5170    2.3723    0.0000 H   0  0  0  0  0  0  0  0  0  0  0  0
   12.3413   -0.7594    0.0000 H   0  0  0  0  0  0  0  0  0  0  0  0
 11  1  1  6  0  0  0
  1 35  1  0  0  0  0
 13  2  1  6  0  0  0
  2 36  1  0  0  0  0
  3 16  1  0  0  0  0
  3 37  1  0  0  0  0
  4 15  2  0  0  0  0
  5 18  2  0  0  0  0
  6 21  1  0  0  0  0
  6 39  1  0  0  0  0
  7 24  2  0  0  0  0
  8 25  1  0  0  0  0
  8 44  1  0  0  0  0
  9 28  1  0  0  0  0
  9 45  1  0  0  0  0
 10 11  1  0  0  0  0
 10 12  1  0  0  0  0
 10 13  1  0  0  0  0
 10 30  1  6  0  0  0
 11 15  1  0  0  0  0
 11 16  1  0  0  0  0
 12 14  1  0  0  0  0
 12 31  1  0  0  0  0
 12 32  1  0  0  0  0
 13 18  1  0  0  0  0
 13 33  1  0  0  0  0
 14 17  1  0  0  0  0
 14 20  2  0  0  0  0
 15 17  1  0  0  0  0
 16 19  2  0  0  0  0
 17 21  2  0  0  0  0
 18 19  1  0  0  0  0
 19 24  1  0  0  0  0
 20 22  1  0  0  0  0
 20 34  1  0  0  0  0
 21 23  1  0  0  0  0
 22 23  1  0  0  0  0
 22 26  2  0  0  0  0
 23 25  2  0  0  0  0
 24 27  1  0  0  0  0
 25 29  1  0  0  0  0
 26 28  1  0  0  0  0
 26 38  1  0  0  0  0
 27 40  1  0  0  0  0
 27 41  1  0  0  0  0
 27 42  1  0  0  0  0
 28 29  2  0  0  0  0
 29 43  1  0  0  0  0
M  END
> <PUBCHEM_COMPOUND_CID>
443794

> <PUBCHEM_COMPOUND_CANONICALIZED>
1

> <PUBCHEM_CACTVS_COMPLEXITY>
804

> <PUBCHEM_CACTVS_HBOND_ACCEPTOR>
9

> <PUBCHEM_CACTVS_HBOND_DONOR>
6

> <PUBCHEM_CACTVS_ROTATABLE_BOND>
1

> <PUBCHEM_CACTVS_SUBSKEYS>
AAADceB4PAAAAAAAAAAAAAAAAAAAAAAAAAAwYMEAAAAAAADBUAAAGgAACAAADVSgmAIyBsAAAgCIAqBSAAICAAAkIAAAiAFGCMgJNzaKFRKAcUAl4BUJmQfK7vTu4AADCAAYAADAAAYQADAAAAAAAAAAAA==

> <PUBCHEM_IUPAC_OPENEYE_NAME>
(1S,4aR,12aS)-3-acetyl-1,4,4a,6,7,9-hexahydroxy-12,12a-dihydro-1H-tetracene-2,5-dione

> <PUBCHEM_IUPAC_CAS_NAME>
(1S,4aR,12aS)-3-acetyl-1,4,4a,6,7,9-hexahydroxy-12,12a-dihydro-1H-tetracene-2,5-dione

> <PUBCHEM_IUPAC_NAME>
(1S,4aR,12aS)-3-acetyl-1,4,4a,6,7,9-hexahydroxy-12,12a-dihydro-1H-tetracene-2,5-dione

> <PUBCHEM_IUPAC_SYSTEMATIC_NAME>
(1S,4aR,12aS)-3-ethanoyl-1,4,4a,6,7,9-hexakis(oxidanyl)-12,12a-dihydro-1H-tetracene-2,5-dione

> <PUBCHEM_IUPAC_TRADITIONAL_NAME>
(1S,4aR,12aS)-3-acetyl-1,4,4a,6,7,9-hexahydroxy-12,12a-dihydro-1H-tetracene-2,5-quinone

> <PUBCHEM_IUPAC_INCHI>
InChI=1S/C20H16O9/c1-6(21)12-17(26)15(24)10-4-8-2-7-3-9(22)5-11(23)13(7)16(25)14(8)19(28)20(10,29)18(12)27/h2-3,5,10,15,22-25,27,29H,4H2,1H3/t10-,15-,20+/m0/s1

> <PUBCHEM_IUPAC_INCHIKEY>
DBIXWBXNZRHOIB-KAFSRPFYSA-N

> <PUBCHEM_XLOGP3_AA>
1.2

> <PUBCHEM_EXACT_MASS>
400.079432

> <PUBCHEM_MOLECULAR_FORMULA>
C20H16O9

> <PUBCHEM_MOLECULAR_WEIGHT>
400.33564

> <PUBCHEM_OPENEYE_CAN_SMILES>
CC(=O)C1=C(C2(C(CC3=C(C2=O)C(=C4C(=C3)C=C(C=C4O)O)O)C(C1=O)O)O)O

> <PUBCHEM_OPENEYE_ISO_SMILES>
CC(=O)C1=C([C@@]2([C@@H](CC3=C(C2=O)C(=C4C(=C3)C=C(C=C4O)O)O)[C@@H](C1=O)O)O)O

> <PUBCHEM_CACTVS_TPSA>
173

> <PUBCHEM_MONOISOTOPIC_WEIGHT>
400.079432

> <PUBCHEM_TOTAL_CHARGE>
0

> <PUBCHEM_HEAVY_ATOM_COUNT>
29

> <PUBCHEM_ATOM_DEF_STEREO_COUNT>
3

> <PUBCHEM_ATOM_UDEF_STEREO_COUNT>
0

> <PUBCHEM_BOND_DEF_STEREO_COUNT>
0

> <PUBCHEM_BOND_UDEF_STEREO_COUNT>
0

> <PUBCHEM_ISOTOPIC_ATOM_COUNT>
0

> <PUBCHEM_COMPONENT_COUNT>
1

> <PUBCHEM_CACTVS_TAUTO_COUNT>
999

> <PUBCHEM_COORDINATE_TYPE>
1
5
255

> <PUBCHEM_BONDANNOTATIONS>
11  1  6
10  30  6
14  17  8
14  20  8
17  21  8
13  2  6
20  22  8
21  23  8
22  23  8
22  26  8
23  25  8
25  29  8
26  28  8
28  29  8

$$$$

