442845
  -OEChem-07051212593D

 36 38  0     0  0  0  0  0  0999 V2000
   -1.0008    0.2679   -0.0860 O   0  0  0  0  0  0  0  0  0  0  0  0
    3.3884   -2.1499    0.3406 O   0  0  0  0  0  0  0  0  0  0  0  0
    5.2763   -0.3134   -0.5482 O   0  0  0  0  0  0  0  0  0  0  0  0
   -2.0664    2.1940    0.4332 N   0  0  0  0  0  0  0  0  0  0  0  0
    1.3053    0.8357   -0.0649 C   0  0  0  0  0  0  0  0  0  0  0  0
   -0.0604    1.2356    0.0998 C   0  0  0  0  0  0  0  0  0  0  0  0
    1.6972   -0.4779    0.2192 C   0  0  0  0  0  0  0  0  0  0  0  0
    2.2622    1.7542   -0.5126 C   0  0  0  0  0  0  0  0  0  0  0  0
    3.0268   -0.8673    0.0578 C   0  0  0  0  0  0  0  0  0  0  0  0
   -2.1708    0.9233    0.1318 C   0  0  0  0  0  0  0  0  0  0  0  0
    3.9741    0.0540   -0.3888 C   0  0  0  0  0  0  0  0  0  0  0  0
   -3.3561    0.1121   -0.0025 C   0  0  0  0  0  0  0  0  0  0  0  0
    3.5918    1.3648   -0.6740 C   0  0  0  0  0  0  0  0  0  0  0  0
   -0.7112    2.4026    0.4144 C   0  0  0  0  0  0  0  0  0  0  0  0
   -4.5536    0.5230    0.5831 C   0  0  0  0  0  0  0  0  0  0  0  0
   -3.3041   -1.0844   -0.7176 C   0  0  0  0  0  0  0  0  0  0  0  0
   -5.6990   -0.2626    0.4537 C   0  0  0  0  0  0  0  0  0  0  0  0
   -4.4494   -1.8699   -0.8471 C   0  0  0  0  0  0  0  0  0  0  0  0
   -5.6469   -1.4590   -0.2614 C   0  0  0  0  0  0  0  0  0  0  0  0
    2.3596   -3.0287    0.7919 C   0  0  0  0  0  0  0  0  0  0  0  0
    6.1371   -0.1540    0.5776 C   0  0  0  0  0  0  0  0  0  0  0  0
    0.9303   -1.1590    0.5735 H   0  0  0  0  0  0  0  0  0  0  0  0
    1.9880    2.7807   -0.7450 H   0  0  0  0  0  0  0  0  0  0  0  0
    4.3244    2.0874   -1.0233 H   0  0  0  0  0  0  0  0  0  0  0  0
   -0.2877    3.3729    0.6288 H   0  0  0  0  0  0  0  0  0  0  0  0
   -4.6157    1.4509    1.1465 H   0  0  0  0  0  0  0  0  0  0  0  0
   -2.3894   -1.4303   -1.1929 H   0  0  0  0  0  0  0  0  0  0  0  0
   -6.6314    0.0569    0.9099 H   0  0  0  0  0  0  0  0  0  0  0  0
   -4.4098   -2.8007   -1.4053 H   0  0  0  0  0  0  0  0  0  0  0  0
   -6.5387   -2.0706   -0.3625 H   0  0  0  0  0  0  0  0  0  0  0  0
    1.9414   -2.7030    1.7504 H   0  0  0  0  0  0  0  0  0  0  0  0
    2.8245   -4.0050    0.9654 H   0  0  0  0  0  0  0  0  0  0  0  0
    1.5895   -3.1768    0.0270 H   0  0  0  0  0  0  0  0  0  0  0  0
    7.1362   -0.4977    0.2963 H   0  0  0  0  0  0  0  0  0  0  0  0
    5.7844   -0.7561    1.4210 H   0  0  0  0  0  0  0  0  0  0  0  0
    6.1980    0.8998    0.8674 H   0  0  0  0  0  0  0  0  0  0  0  0
  1  6  1  0  0  0  0
  1 10  1  0  0  0  0
  2  9  1  0  0  0  0
  2 20  1  0  0  0  0
  3 11  1  0  0  0  0
  3 21  1  0  0  0  0
  4 10  2  0  0  0  0
  4 14  1  0  0  0  0
  5  6  1  0  0  0  0
  5  7  2  0  0  0  0
  5  8  1  0  0  0  0
  6 14  2  0  0  0  0
  7  9  1  0  0  0  0
  7 22  1  0  0  0  0
  8 13  2  0  0  0  0
  8 23  1  0  0  0  0
  9 11  2  0  0  0  0
 10 12  1  0  0  0  0
 11 13  1  0  0  0  0
 12 15  2  0  0  0  0
 12 16  1  0  0  0  0
 13 24  1  0  0  0  0
 14 25  1  0  0  0  0
 15 17  1  0  0  0  0
 15 26  1  0  0  0  0
 16 18  2  0  0  0  0
 16 27  1  0  0  0  0
 17 19  2  0  0  0  0
 17 28  1  0  0  0  0
 18 19  1  0  0  0  0
 18 29  1  0  0  0  0
 19 30  1  0  0  0  0
 20 31  1  0  0  0  0
 20 32  1  0  0  0  0
 20 33  1  0  0  0  0
 21 34  1  0  0  0  0
 21 35  1  0  0  0  0
 21 36  1  0  0  0  0
M  END
> <PUBCHEM_COMPOUND_CID>
442845

> <PUBCHEM_CONFORMER_RMSD>
0.6

> <PUBCHEM_CONFORMER_DIVERSEORDER>
12
7
9
4
11
5
6
10
1
8
3
2

> <PUBCHEM_MMFF94_PARTIAL_CHARGES>
30
1 -0.28
10 0.43
11 0.08
12 0.05
13 -0.15
14 0.08
15 -0.15
16 -0.15
17 -0.15
18 -0.15
19 -0.15
2 -0.36
20 0.28
21 0.28
22 0.15
23 0.15
24 0.15
25 0.15
26 0.15
27 0.15
28 0.15
29 0.15
3 -0.36
30 0.15
4 -0.57
5 0.05
6 0.09
7 -0.15
8 -0.15
9 0.08

> <PUBCHEM_EFFECTIVE_ROTOR_COUNT>
4

> <PUBCHEM_PHARMACOPHORE_FEATURES>
5
1 2 acceptor
1 3 acceptor
5 1 4 6 10 14 rings
6 12 15 16 17 18 19 rings
6 5 7 8 9 11 13 rings

> <PUBCHEM_HEAVY_ATOM_COUNT>
21

> <PUBCHEM_ATOM_DEF_STEREO_COUNT>
0

> <PUBCHEM_ATOM_UDEF_STEREO_COUNT>
0

> <PUBCHEM_BOND_DEF_STEREO_COUNT>
0

> <PUBCHEM_BOND_UDEF_STEREO_COUNT>
0

> <PUBCHEM_ISOTOPIC_ATOM_COUNT>
0

> <PUBCHEM_COMPONENT_COUNT>
1

> <PUBCHEM_CACTVS_TAUTO_COUNT>
1

> <PUBCHEM_CONFORMER_ID>
0006C1DD0000000C

> <PUBCHEM_MMFF94_ENERGY>
69.5994

> <PUBCHEM_FEATURE_SELFOVERLAP>
25.376

> <PUBCHEM_SHAPE_FINGERPRINT>
10616163 171 18335136505503003503
10763959 59 6627480587833893091
11045515 52 18202283606625671941
11796584 16 18113894975074868013
11806522 49 18412544332038418092
12107183 9 17833264607851512897
12236239 1 18409444778157051788
12553582 1 18334870402303675543
12596602 18 17385722461277203187
12788726 201 18115019818372452313
13167823 11 18408038503201532895
13288520 33 18334574633955378637
13544653 18 18343014489357441845
13836976 161 18131625661119718694
13862211 1 18411138017447239026
13911882 115 17530673325740991646
14576447 43 18412825798330060294
14767858 380 18270949164700271668
14863182 85 18411412939143081190
15183329 4 18341061778830117181
15196674 1 18339079409913216731
15375462 189 18335138670382473537
15537594 2 18408319986768665279
15880784 105 17531527581455442931
17349148 13 18059858367952667408
17492 89 18266177425231620278
17857418 61 18411421717296078435
1813 80 18200861942517085789
18681886 176 18411140213040827136
200 152 18413388734961067545
20028762 73 18335422353273711054
20281475 54 18408606967940688353
20645477 70 18131633382758740722
21054139 6 18413389826489441758
21267235 1 18409439284867175132
21315763 178 18408042913995912655
22224240 67 18410862032493767936
22950370 63 18335698317616807445
23402539 116 18411139138539445373
235170 7 16845301544322814975
23522609 53 18120902140756617704
23559900 14 18341055090627559897
239999 70 18113893841314395180
2871803 45 18341894078086305828
3004659 81 18272655627598761189
314194 84 18337951195583478163
335352 9 18334858317125690789
3411729 13 16807023030401722384
351380 3 18333731295446328855
4214541 1 18408601474836006085
46194498 28 17274263816934974973
463206 1 18338797789034549823
465052 167 18115018594422804335
5104073 3 17823127927056300777
559249 180 18335139787559150319
602551 16 16226053232166917135
6913067 236 17775574139238642164
7495541 125 17676207936036199408
9709674 26 18342448292097768498

> <PUBCHEM_SHAPE_MULTIPOLES>
409.58
13.42
2.52
0.82
2.47
0.72
-0.02
5.3
-0.15
-0.5
0.33
0.05
0.1
-1.39

> <PUBCHEM_SHAPE_SELFOVERLAP>
899.066

> <PUBCHEM_SHAPE_VOLUME>
223.6

> <PUBCHEM_COORDINATE_TYPE>
2
5
10

$$$$

