59757
  -OEChem-07051213113D

 47 49  0     0  0  0  0  0  0999 V2000
    4.9895   -4.3273   -0.6194 Cl  0  0  0  0  0  0  0  0  0  0  0  0
    4.4052    3.7131   -0.7049 O   0  0  0  0  0  0  0  0  0  0  0  0
   -6.0107    0.2527    1.4487 O   0  0  0  0  0  0  0  0  0  0  0  0
   -6.0177    0.1049   -2.1246 O   0  0  0  0  0  0  0  0  0  0  0  0
    0.1405    0.3610    0.3901 N   0  0  0  0  0  0  0  0  0  0  0  0
   -1.0650    0.8910    0.6586 N   0  0  0  0  0  0  0  0  0  0  0  0
   -6.4564    0.1996   -0.7986 N   0  0  0  0  0  0  0  0  0  0  0  0
    0.1626   -1.0024    0.4226 C   0  0  0  0  0  0  0  0  0  0  0  0
   -1.8034   -0.1873    0.8622 C   0  0  0  0  0  0  0  0  0  0  0  0
   -3.2544   -0.0154    1.1975 C   0  0  0  0  0  0  0  0  0  0  0  0
   -1.1172   -1.3913    0.7347 C   0  0  0  0  0  0  0  0  0  0  0  0
   -4.1398    0.0119   -0.0503 C   0  0  0  0  0  0  0  0  0  0  0  0
    1.3347   -1.8091    0.1696 C   0  0  0  0  0  0  0  0  0  0  0  0
    1.2165    1.2066    0.1136 C   0  0  0  0  0  0  0  0  0  0  0  0
    1.4674    1.5884   -1.1972 C   0  0  0  0  0  0  0  0  0  0  0  0
    2.0202    1.6534    1.1538 C   0  0  0  0  0  0  0  0  0  0  0  0
    1.6216   -2.2298   -1.1275 C   0  0  0  0  0  0  0  0  0  0  0  0
    2.1744   -2.1643    1.2235 C   0  0  0  0  0  0  0  0  0  0  0  0
   -5.6175    0.1690    0.2844 C   0  0  0  0  0  0  0  0  0  0  0  0
    2.5427    2.4332   -1.4731 C   0  0  0  0  0  0  0  0  0  0  0  0
    3.0953    2.4982    0.8778 C   0  0  0  0  0  0  0  0  0  0  0  0
    3.3566    2.8880   -0.4357 C   0  0  0  0  0  0  0  0  0  0  0  0
    2.7526   -3.0089   -1.3717 C   0  0  0  0  0  0  0  0  0  0  0  0
    3.3054   -2.9433    0.9793 C   0  0  0  0  0  0  0  0  0  0  0  0
    3.5946   -3.3655   -0.3182 C   0  0  0  0  0  0  0  0  0  0  0  0
   -7.8938    0.3333   -0.6982 C   0  0  0  0  0  0  0  0  0  0  0  0
    5.1962    4.1404    0.4029 C   0  0  0  0  0  0  0  0  0  0  0  0
   -3.5697   -0.8343    1.8573 H   0  0  0  0  0  0  0  0  0  0  0  0
   -3.3938    0.9086    1.7739 H   0  0  0  0  0  0  0  0  0  0  0  0
   -1.4861   -2.4006    0.8490 H   0  0  0  0  0  0  0  0  0  0  0  0
   -3.8438    0.8439   -0.7010 H   0  0  0  0  0  0  0  0  0  0  0  0
   -4.0135   -0.9175   -0.6192 H   0  0  0  0  0  0  0  0  0  0  0  0
    0.8406    1.2408   -2.0143 H   0  0  0  0  0  0  0  0  0  0  0  0
    1.8260    1.3559    2.1812 H   0  0  0  0  0  0  0  0  0  0  0  0
    0.9754   -1.9597   -1.9593 H   0  0  0  0  0  0  0  0  0  0  0  0
    1.9629   -1.8427    2.2405 H   0  0  0  0  0  0  0  0  0  0  0  0
    2.7413    2.7335   -2.4983 H   0  0  0  0  0  0  0  0  0  0  0  0
    3.6865    2.8138    1.7306 H   0  0  0  0  0  0  0  0  0  0  0  0
    2.9655   -3.3306   -2.3879 H   0  0  0  0  0  0  0  0  0  0  0  0
    3.9525   -3.2135    1.8098 H   0  0  0  0  0  0  0  0  0  0  0  0
   -8.3605   -0.5430   -1.1570 H   0  0  0  0  0  0  0  0  0  0  0  0
   -8.2004    1.2308   -1.2427 H   0  0  0  0  0  0  0  0  0  0  0  0
   -8.2153    0.4122    0.3431 H   0  0  0  0  0  0  0  0  0  0  0  0
   -6.1236   -0.8494   -2.2788 H   0  0  0  0  0  0  0  0  0  0  0  0
    5.9843    4.7889    0.0064 H   0  0  0  0  0  0  0  0  0  0  0  0
    5.6932    3.2957    0.8920 H   0  0  0  0  0  0  0  0  0  0  0  0
    4.6113    4.7420    1.1068 H   0  0  0  0  0  0  0  0  0  0  0  0
  1 25  1  0  0  0  0
  2 22  1  0  0  0  0
  2 27  1  0  0  0  0
  3 19  2  0  0  0  0
  4  7  1  0  0  0  0
  4 44  1  0  0  0  0
  5  6  1  0  0  0  0
  5  8  1  0  0  0  0
  5 14  1  0  0  0  0
  6  9  2  0  0  0  0
  7 19  1  0  0  0  0
  7 26  1  0  0  0  0
  8 11  2  0  0  0  0
  8 13  1  0  0  0  0
  9 10  1  0  0  0  0
  9 11  1  0  0  0  0
 10 12  1  0  0  0  0
 10 28  1  0  0  0  0
 10 29  1  0  0  0  0
 11 30  1  0  0  0  0
 12 19  1  0  0  0  0
 12 31  1  0  0  0  0
 12 32  1  0  0  0  0
 13 17  2  0  0  0  0
 13 18  1  0  0  0  0
 14 15  2  0  0  0  0
 14 16  1  0  0  0  0
 15 20  1  0  0  0  0
 15 33  1  0  0  0  0
 16 21  2  0  0  0  0
 16 34  1  0  0  0  0
 17 23  1  0  0  0  0
 17 35  1  0  0  0  0
 18 24  2  0  0  0  0
 18 36  1  0  0  0  0
 20 22  2  0  0  0  0
 20 37  1  0  0  0  0
 21 22  1  0  0  0  0
 21 38  1  0  0  0  0
 23 25  2  0  0  0  0
 23 39  1  0  0  0  0
 24 25  1  0  0  0  0
 24 40  1  0  0  0  0
 26 41  1  0  0  0  0
 26 42  1  0  0  0  0
 26 43  1  0  0  0  0
 27 45  1  0  0  0  0
 27 46  1  0  0  0  0
 27 47  1  0  0  0  0
M  END
> <PUBCHEM_COMPOUND_CID>
59757

> <PUBCHEM_CONFORMER_RMSD>
0.8

> <PUBCHEM_CONFORMER_DIVERSEORDER>
2
88
56
54
29
46
58
77
48
89
86
37
98
21
79
19
66
68
12
78
65
10
94
73
69
35
40
83
64
87
91
28
82
62
34
63
90
57
85
95
84
32
30
17
92
93
75
97
61
49
16
51
70
53
50
44
71
25
96
6
80
4
67
72
60
31
42
26
47
36
81
13
45
24
76
41
43
52
33
9
5
8
22
38
20
74
55
23
1
59
27
39
11
7
18
14
3
15

> <PUBCHEM_MMFF94_PARTIAL_CHARGES>
37
1 -0.18
10 0.18
11 -0.15
12 0.06
13 0.05
14 -0.02
15 -0.15
16 -0.15
17 -0.15
18 -0.15
19 0.57
2 -0.36
20 -0.15
21 -0.15
22 0.08
23 -0.15
24 -0.15
25 0.18
26 0.3
27 0.28
3 -0.57
30 0.15
33 0.15
34 0.15
35 0.15
36 0.15
37 0.15
38 0.15
39 0.15
4 -0.44
40 0.15
44 0.4
5 0.59
6 -0.71
7 -0.32
8 -0.2
9 0.11

> <PUBCHEM_EFFECTIVE_ROTOR_COUNT>
7

> <PUBCHEM_PHARMACOPHORE_FEATURES>
6
1 2 acceptor
1 3 acceptor
1 6 acceptor
5 5 6 8 9 11 rings
6 13 17 18 23 24 25 rings
6 14 15 16 20 21 22 rings

> <PUBCHEM_HEAVY_ATOM_COUNT>
27

> <PUBCHEM_ATOM_DEF_STEREO_COUNT>
0

> <PUBCHEM_ATOM_UDEF_STEREO_COUNT>
0

> <PUBCHEM_BOND_DEF_STEREO_COUNT>
0

> <PUBCHEM_BOND_UDEF_STEREO_COUNT>
0

> <PUBCHEM_ISOTOPIC_ATOM_COUNT>
0

> <PUBCHEM_COMPONENT_COUNT>
1

> <PUBCHEM_CACTVS_TAUTO_COUNT>
1

> <PUBCHEM_CONFORMER_ID>
0000E96D00000002

> <PUBCHEM_MMFF94_ENERGY>
92.6395

> <PUBCHEM_FEATURE_SELFOVERLAP>
30.446

> <PUBCHEM_SHAPE_FINGERPRINT>
10411042 1 18122623027378867970
10721379 63 18335688477646246336
11331351 85 17537425598118548106
11578080 2 17845925243564102679
11763715 3 16516513564092859018
12166972 35 18189898789138191323
12616971 3 18114457964242313747
12788726 201 17191779897796815106
13257819 101 17774176595319211693
133893 2 18195498541797243904
13540713 4 18058714828779041291
13540713 5 17968925513767465025
14068700 675 17970629807760256755
14170010 4 18410295834505996562
15081414 286 18272644637432234749
15439362 3 18411982429851119768
167882 2 18410005520702842338
17980427 26 17606140406336536040
1813 80 18117835727343339526
18222031 100 18263927820146256107
20554085 129 17969795085657307512
20612939 158 18410011057501080523
20771845 65 18042408095980314874
21033648 29 17275101735406390513
21304303 282 17467933873789119332
2132832 1 18189331441233178721
21403212 168 18339088099344466760
22182313 1 17703802443814437469
23419403 2 17988378069180106190
23559900 14 17988913496883140467
23728640 28 17545874933499812274
249999 5 18411133615511890946
25147074 1 17969208088271380689
3380486 145 17545862185129503618
3411729 13 18343024350444033504
376196 1 17984144764181215032
4017518 198 18189888731353101228
46194498 28 18339648931741510503
5385378 56 18338786836693852744
54076057 127 18339069416299779547
7471813 234 18115587187662487641
9841814 1 18200877391029347730

> <PUBCHEM_SHAPE_MULTIPOLES>
524.97
14.45
5.31
1.45
36.26
0.53
0.29
1.59
3.53
-15.81
0.88
0.55
-0.05
0.44

> <PUBCHEM_SHAPE_SELFOVERLAP>
1119.774

> <PUBCHEM_SHAPE_VOLUME>
295.4

> <PUBCHEM_COORDINATE_TYPE>
2
5
10

$$$$

