656882
  -OEChem-07051213043D

 19 19  0     0  0  0  0  0  0999 V2000
    1.5574   -1.8604    0.0434 O   0  0  0  0  0  0  0  0  0  0  0  0
   -3.6004   -0.3091   -0.8600 O   0  0  0  0  0  0  0  0  0  0  0  0
    3.4650   -0.1302   -0.2146 O   0  0  0  0  0  0  0  0  0  0  0  0
   -1.5420    0.0602    0.2726 C   0  0  0  0  0  0  0  0  0  0  0  0
   -0.6587   -1.0185    0.2283 C   0  0  0  0  0  0  0  0  0  0  0  0
   -1.0561    1.3640    0.1731 C   0  0  0  0  0  0  0  0  0  0  0  0
    1.1961    0.5105   -0.0150 C   0  0  0  0  0  0  0  0  0  0  0  0
    0.7104   -0.7934    0.0845 C   0  0  0  0  0  0  0  0  0  0  0  0
   -3.0058   -0.1801    0.4256 C   0  0  0  0  0  0  0  0  0  0  0  0
    0.3128    1.5892    0.0294 C   0  0  0  0  0  0  0  0  0  0  0  0
    2.6214    0.7678   -0.1673 C   0  0  0  0  0  0  0  0  0  0  0  0
   -1.0319   -2.0371    0.3034 H   0  0  0  0  0  0  0  0  0  0  0  0
   -1.7345    2.2126    0.2044 H   0  0  0  0  0  0  0  0  0  0  0  0
   -3.1970   -1.0949    0.9975 H   0  0  0  0  0  0  0  0  0  0  0  0
   -3.4873    0.6485    0.9567 H   0  0  0  0  0  0  0  0  0  0  0  0
    0.6745    2.6113   -0.0474 H   0  0  0  0  0  0  0  0  0  0  0  0
    2.9299    1.8246   -0.2402 H   0  0  0  0  0  0  0  0  0  0  0  0
    2.4784   -1.5766   -0.0530 H   0  0  0  0  0  0  0  0  0  0  0  0
   -4.5501   -0.4640   -0.7203 H   0  0  0  0  0  0  0  0  0  0  0  0
  1  8  1  0  0  0  0
  1 18  1  0  0  0  0
  2  9  1  0  0  0  0
  2 19  1  0  0  0  0
  3 11  2  0  0  0  0
  4  5  2  0  0  0  0
  4  6  1  0  0  0  0
  4  9  1  0  0  0  0
  5  8  1  0  0  0  0
  5 12  1  0  0  0  0
  6 10  2  0  0  0  0
  6 13  1  0  0  0  0
  7  8  2  0  0  0  0
  7 10  1  0  0  0  0
  7 11  1  0  0  0  0
  9 14  1  0  0  0  0
  9 15  1  0  0  0  0
 10 16  1  0  0  0  0
 11 17  1  0  0  0  0
M  END
> <PUBCHEM_COMPOUND_CID>
656882

> <PUBCHEM_CONFORMER_RMSD>
0.4

> <PUBCHEM_CONFORMER_DIVERSEORDER>
1
7
9
8
10
2
11
5
3
6
4

> <PUBCHEM_MMFF94_PARTIAL_CHARGES>
17
1 -0.53
10 -0.15
11 0.42
12 0.15
13 0.15
16 0.15
17 0.06
18 0.45
19 0.4
2 -0.68
3 -0.57
4 -0.14
5 -0.15
6 -0.15
7 0.09
8 0.08
9 0.42

> <PUBCHEM_EFFECTIVE_ROTOR_COUNT>
2

> <PUBCHEM_PHARMACOPHORE_FEATURES>
5
1 1 donor
1 2 acceptor
1 2 donor
1 3 acceptor
6 4 5 6 7 8 10 rings

> <PUBCHEM_HEAVY_ATOM_COUNT>
11

> <PUBCHEM_ATOM_DEF_STEREO_COUNT>
0

> <PUBCHEM_ATOM_UDEF_STEREO_COUNT>
0

> <PUBCHEM_BOND_DEF_STEREO_COUNT>
0

> <PUBCHEM_BOND_UDEF_STEREO_COUNT>
0

> <PUBCHEM_ISOTOPIC_ATOM_COUNT>
0

> <PUBCHEM_COMPONENT_COUNT>
1

> <PUBCHEM_CACTVS_TAUTO_COUNT>
5

> <PUBCHEM_CONFORMER_ID>
000A05F200000001

> <PUBCHEM_MMFF94_ENERGY>
27.1113

> <PUBCHEM_FEATURE_SELFOVERLAP>
25.371

> <PUBCHEM_SHAPE_FINGERPRINT>
10219947 1 18412822456423666688
11062470 55 16128658539449597205
11206711 2 18341326781531464501
12032990 46 18339069424014046274
12138202 97 17632293424268883427
12897270 3 18411980256297078581
14325111 11 18411133623775037408
14993402 34 18113902637069735791
16945 1 18411693266519101920
193761 8 17835237122741941264
20201158 50 18342738511696166603
20645476 183 17487319470651839886
20645477 70 18339086003300290279
21040471 1 17906730306590490200
21293036 1 18341332206122320053
21501502 16 18195244644499559344
23235685 24 18341897359325398824
23402539 116 18259710003494857028
23402655 69 18266756834485891229
23552423 10 18127404772765603050
2748010 2 18195525024212104252
29004967 10 18343011186253232953
5084963 1 18187642492298405736
528886 8 18410577245068623738

> <PUBCHEM_SHAPE_MULTIPOLES>
208.77
4.68
1.52
0.68
0.83
0.05
-0.03
0.38
-0.73
-0.43
0.06
0.27
0
-0.08

> <PUBCHEM_SHAPE_SELFOVERLAP>
437.213

> <PUBCHEM_SHAPE_VOLUME>
118.7

> <PUBCHEM_COORDINATE_TYPE>
2
5
10

$$$$

