14851
  -OEChem-07051213073D

 16 16  0     0  0  0  0  0  0999 V2000
    2.0011   -1.9346    0.0004 Cl  0  0  0  0  0  0  0  0  0  0  0  0
    2.4052    1.0443    0.0003 O   0  0  0  0  0  0  0  0  0  0  0  0
   -1.5726   -0.1483    0.0001 C   0  0  0  0  0  0  0  0  0  0  0  0
   -0.5646   -1.1125   -0.0003 C   0  0  0  0  0  0  0  0  0  0  0  0
   -1.2417    1.2068    0.0002 C   0  0  0  0  0  0  0  0  0  0  0  0
    0.7745   -0.7215   -0.0005 C   0  0  0  0  0  0  0  0  0  0  0  0
    1.1052    0.6337   -0.0004 C   0  0  0  0  0  0  0  0  0  0  0  0
    0.0972    1.5978    0.0000 C   0  0  0  0  0  0  0  0  0  0  0  0
   -3.0043   -0.5657    0.0002 C   0  0  0  0  0  0  0  0  0  0  0  0
   -0.8264   -2.1683    0.0017 H   0  0  0  0  0  0  0  0  0  0  0  0
   -2.0178    1.9674    0.0024 H   0  0  0  0  0  0  0  0  0  0  0  0
    0.3397    2.6571    0.0007 H   0  0  0  0  0  0  0  0  0  0  0  0
   -3.1422   -1.4998   -0.5550 H   0  0  0  0  0  0  0  0  0  0  0  0
   -3.3527   -0.7122    1.0273 H   0  0  0  0  0  0  0  0  0  0  0  0
   -3.6375    0.1882   -0.4799 H   0  0  0  0  0  0  0  0  0  0  0  0
    2.4329    2.0166    0.0005 H   0  0  0  0  0  0  0  0  0  0  0  0
  1  6  1  0  0  0  0
  2  7  1  0  0  0  0
  2 16  1  0  0  0  0
  3  4  2  0  0  0  0
  3  5  1  0  0  0  0
  3  9  1  0  0  0  0
  4  6  1  0  0  0  0
  4 10  1  0  0  0  0
  5  8  2  0  0  0  0
  5 11  1  0  0  0  0
  6  7  2  0  0  0  0
  7  8  1  0  0  0  0
  8 12  1  0  0  0  0
  9 13  1  0  0  0  0
  9 14  1  0  0  0  0
  9 15  1  0  0  0  0
M  END
> <PUBCHEM_COMPOUND_CID>
14851

> <PUBCHEM_CONFORMER_RMSD>
0.4

> <PUBCHEM_CONFORMER_DIVERSEORDER>
1

> <PUBCHEM_MMFF94_PARTIAL_CHARGES>
13
1 -0.18
10 0.15
11 0.15
12 0.15
16 0.45
2 -0.53
3 -0.14
4 -0.15
5 -0.15
6 0.18
7 0.08
8 -0.15
9 0.14

> <PUBCHEM_EFFECTIVE_ROTOR_COUNT>
0

> <PUBCHEM_PHARMACOPHORE_FEATURES>
2
1 2 donor
6 3 4 5 6 7 8 rings

> <PUBCHEM_HEAVY_ATOM_COUNT>
9

> <PUBCHEM_ATOM_DEF_STEREO_COUNT>
0

> <PUBCHEM_ATOM_UDEF_STEREO_COUNT>
0

> <PUBCHEM_BOND_DEF_STEREO_COUNT>
0

> <PUBCHEM_BOND_UDEF_STEREO_COUNT>
0

> <PUBCHEM_ISOTOPIC_ATOM_COUNT>
0

> <PUBCHEM_COMPONENT_COUNT>
1

> <PUBCHEM_CACTVS_TAUTO_COUNT>
3

> <PUBCHEM_CONFORMER_ID>
00003A0300000001

> <PUBCHEM_MMFF94_ENERGY>
19.4765

> <PUBCHEM_FEATURE_SELFOVERLAP>
10.148

> <PUBCHEM_SHAPE_FINGERPRINT>
12423570 1 6118620108039320906
14128692 85 18265607865528726198
161256 15 18410007771212802078
16945 1 18338797801808305125
18185500 45 18335987445792677511
193761 8 18266458904476482724
21040471 1 17617941331255579365
23235685 24 18268434537903480749
23402655 69 18336845164612202149
23552423 10 18271801384347075270
241688 4 18196652015019606208
2748010 2 18339365282920588381
29004967 10 18270957951686192681
5084963 1 18188214324223096171

> <PUBCHEM_SHAPE_MULTIPOLES>
181.22
3.31
1.89
0.61
0.78
0.04
0
-1
0
-0.76
0
0.01
-0.02
0

> <PUBCHEM_SHAPE_SELFOVERLAP>
367.041

> <PUBCHEM_SHAPE_VOLUME>
107.3

> <PUBCHEM_COORDINATE_TYPE>
2
5
10

$$$$

