4630
  -OEChem-07051212533D

 33 34  0     0  0  0  0  0  0999 V2000
    3.4158    1.2152    1.3377 O   0  0  0  0  0  0  0  0  0  0  0  0
   -2.9097    0.3965   -0.1498 N   0  0  0  0  0  0  0  0  0  0  0  0
    2.4720    0.1490   -0.5369 N   0  0  0  0  0  0  0  0  0  0  0  0
   -4.8098   -0.9391    0.0850 C   0  0  0  0  0  0  0  0  0  0  0  0
   -3.5737   -1.8328    0.0573 C   0  0  0  0  0  0  0  0  0  0  0  0
   -4.2815    0.4623    0.3532 C   0  0  0  0  0  0  0  0  0  0  0  0
   -2.4000   -0.8967    0.3054 C   0  0  0  0  0  0  0  0  0  0  0  0
    2.3727   -1.2014   -1.0377 C   0  0  0  0  0  0  0  0  0  0  0  0
    3.5210   -1.9097   -0.3472 C   0  0  0  0  0  0  0  0  0  0  0  0
   -2.0942    1.5094    0.3131 C   0  0  0  0  0  0  0  0  0  0  0  0
    3.6646   -1.1691    0.9770 C   0  0  0  0  0  0  0  0  0  0  0  0
    3.2039    0.2310    0.6453 C   0  0  0  0  0  0  0  0  0  0  0  0
    1.7549    1.2419   -1.1569 C   0  0  0  0  0  0  0  0  0  0  0  0
   -0.7284    1.4103   -0.2099 C   0  0  0  0  0  0  0  0  0  0  0  0
    0.3921    1.3331   -0.6357 C   0  0  0  0  0  0  0  0  0  0  0  0
   -5.3212   -0.9837   -0.8837 H   0  0  0  0  0  0  0  0  0  0  0  0
   -5.5211   -1.2544    0.8550 H   0  0  0  0  0  0  0  0  0  0  0  0
   -3.6261   -2.6204    0.8157 H   0  0  0  0  0  0  0  0  0  0  0  0
   -3.4875   -2.3153   -0.9235 H   0  0  0  0  0  0  0  0  0  0  0  0
   -4.8753    1.2225   -0.1638 H   0  0  0  0  0  0  0  0  0  0  0  0
   -4.3108    0.6687    1.4308 H   0  0  0  0  0  0  0  0  0  0  0  0
   -2.1578   -0.8869    1.3763 H   0  0  0  0  0  0  0  0  0  0  0  0
   -1.5172   -1.2294   -0.2501 H   0  0  0  0  0  0  0  0  0  0  0  0
    2.4721   -1.2221   -2.1266 H   0  0  0  0  0  0  0  0  0  0  0  0
    1.4026   -1.6132   -0.7413 H   0  0  0  0  0  0  0  0  0  0  0  0
    4.4397   -1.7862   -0.9344 H   0  0  0  0  0  0  0  0  0  0  0  0
    3.3453   -2.9815   -0.2204 H   0  0  0  0  0  0  0  0  0  0  0  0
   -2.5341    2.4517   -0.0356 H   0  0  0  0  0  0  0  0  0  0  0  0
   -2.0652    1.5572    1.4092 H   0  0  0  0  0  0  0  0  0  0  0  0
    4.6975   -1.1687    1.3333 H   0  0  0  0  0  0  0  0  0  0  0  0
    3.0019   -1.5852    1.7422 H   0  0  0  0  0  0  0  0  0  0  0  0
    1.7644    1.1021   -2.2424 H   0  0  0  0  0  0  0  0  0  0  0  0
    2.2901    2.1709   -0.9315 H   0  0  0  0  0  0  0  0  0  0  0  0
  1 12  2  0  0  0  0
  2  6  1  0  0  0  0
  2  7  1  0  0  0  0
  2 10  1  0  0  0  0
  3  8  1  0  0  0  0
  3 12  1  0  0  0  0
  3 13  1  0  0  0  0
  4  5  1  0  0  0  0
  4  6  1  0  0  0  0
  4 16  1  0  0  0  0
  4 17  1  0  0  0  0
  5  7  1  0  0  0  0
  5 18  1  0  0  0  0
  5 19  1  0  0  0  0
  6 20  1  0  0  0  0
  6 21  1  0  0  0  0
  7 22  1  0  0  0  0
  7 23  1  0  0  0  0
  8  9  1  0  0  0  0
  8 24  1  0  0  0  0
  8 25  1  0  0  0  0
  9 11  1  0  0  0  0
  9 26  1  0  0  0  0
  9 27  1  0  0  0  0
 10 14  1  0  0  0  0
 10 28  1  0  0  0  0
 10 29  1  0  0  0  0
 11 12  1  0  0  0  0
 11 30  1  0  0  0  0
 11 31  1  0  0  0  0
 13 15  1  0  0  0  0
 13 32  1  0  0  0  0
 13 33  1  0  0  0  0
 14 15  3  0  0  0  0
M  END
> <PUBCHEM_COMPOUND_CID>
4630

> <PUBCHEM_CONFORMER_RMSD>
0.6

> <PUBCHEM_CONFORMER_DIVERSEORDER>
1
25
23
8
26
14
6
24
21
9
10
5
22
17
18
11
12
19
15
4
20
13
3
16
7
2

> <PUBCHEM_MMFF94_PARTIAL_CHARGES>
12
1 -0.57
10 0.47
11 0.06
12 0.57
13 0.5
14 -0.2
15 -0.2
2 -0.81
3 -0.66
6 0.27
7 0.27
8 0.3

> <PUBCHEM_EFFECTIVE_ROTOR_COUNT>
3.8

> <PUBCHEM_PHARMACOPHORE_FEATURES>
4
1 1 acceptor
1 2 cation
5 2 4 5 6 7 rings
5 3 8 9 11 12 rings

> <PUBCHEM_HEAVY_ATOM_COUNT>
15

> <PUBCHEM_ATOM_DEF_STEREO_COUNT>
0

> <PUBCHEM_ATOM_UDEF_STEREO_COUNT>
0

> <PUBCHEM_BOND_DEF_STEREO_COUNT>
0

> <PUBCHEM_BOND_UDEF_STEREO_COUNT>
0

> <PUBCHEM_ISOTOPIC_ATOM_COUNT>
0

> <PUBCHEM_COMPONENT_COUNT>
1

> <PUBCHEM_CACTVS_TAUTO_COUNT>
2

> <PUBCHEM_CONFORMER_ID>
0000121600000001

> <PUBCHEM_MMFF94_ENERGY>
16.0032

> <PUBCHEM_FEATURE_SELFOVERLAP>
20.297

> <PUBCHEM_SHAPE_FINGERPRINT>
10062212 137 18411419497499905079
10618630 7 18413386548848879925
122479 349 7637397428320253853
12346177 29 18199756997608168805
12410352 35 18272657861055913635
13764800 53 5978090375762952941
1420 369 18413103957528981283
14251764 30 16589974161417875078
14252887 29 18411980247833855208
14289901 80 16153422865880825229
15885798 251 18343579655556413429
177051 138 18411698802789923252
17834072 14 18408610266401562837
1798214 20 17846782914135977731
18186145 218 11455889182569130605
19107657 162 18335419088375210351
20281475 54 18412537708956443101
20291156 8 18271804644174427471
20442098 301 18335420157827406886
20621476 91 17915765235103745298
20645477 70 17988921120233507517
20671657 53 17704076191849797525
21065199 12 18186524336191263088
21501925 9 18412827958282184173
21864079 5 8934728764439054495
22485316 2 18410856542855786701
22646028 28 18273212010436384619
22959321 94 18342176682781872593
23559900 14 18335700572095141668
251288 83 18410862049162005400
31174 14 18041007232494178216
316301 35 18268433610840028210
4990 188 11095889275846563505
5374978 207 18040432200707829049
8988823 20 17749681701171943833
9709674 26 18342732971220087771
9882013 296 17022905610032860525

> <PUBCHEM_SHAPE_MULTIPOLES>
292.86
9.68
2.04
1.03
4.87
0.29
0.04
4.1
1.75
-0.18
-0.14
-1.04
-0.11
0.13

> <PUBCHEM_SHAPE_SELFOVERLAP>
592.07

> <PUBCHEM_SHAPE_VOLUME>
173.9

> <PUBCHEM_COORDINATE_TYPE>
2
5
10

$$$$

