14017
  -OEChem-07051213013D

 12 11  0     0  0  0  0  0  0999 V2000
    0.4527   -0.0944   -0.0270 P   0  0  0  0  0  0  0  0  0  0  0  0
    0.5038    0.2147    1.5599 O   0  0  0  0  0  0  0  0  0  0  0  0
    1.6396    0.8228   -0.6322 O   0  0  0  0  0  0  0  0  0  0  0  0
    0.5508   -1.5500   -0.3798 O   0  0  0  0  0  0  0  0  0  0  0  0
   -2.0990   -0.0717    0.0701 N   0  0  0  0  0  0  0  0  0  0  0  0
   -1.0479    0.6786   -0.5910 C   0  0  0  0  0  0  0  0  0  0  0  0
   -1.0874    1.7347   -0.3102 H   0  0  0  0  0  0  0  0  0  0  0  0
   -1.1425    0.5966   -1.6770 H   0  0  0  0  0  0  0  0  0  0  0  0
   -3.0059    0.3069   -0.2002 H   0  0  0  0  0  0  0  0  0  0  0  0
   -2.0298    0.0575    1.0789 H   0  0  0  0  0  0  0  0  0  0  0  0
    1.2305   -0.1698    2.0948 H   0  0  0  0  0  0  0  0  0  0  0  0
    2.5705    0.5476   -0.4911 H   0  0  0  0  0  0  0  0  0  0  0  0
  1  2  1  0  0  0  0
  1  3  1  0  0  0  0
  1  4  2  0  0  0  0
  1  6  1  0  0  0  0
  2 11  1  0  0  0  0
  3 12  1  0  0  0  0
  5  6  1  0  0  0  0
  5  9  1  0  0  0  0
  5 10  1  0  0  0  0
  6  7  1  0  0  0  0
  6  8  1  0  0  0  0
M  END
> <PUBCHEM_COMPOUND_CID>
14017

> <PUBCHEM_CONFORMER_RMSD>
0.4

> <PUBCHEM_CONFORMER_DIVERSEORDER>
1

> <PUBCHEM_MMFF94_PARTIAL_CHARGES>
10
1 1.24
10 0.36
11 0.5
12 0.5
2 -0.77
3 -0.77
4 -0.7
5 -0.99
6 0.27
9 0.36

> <PUBCHEM_EFFECTIVE_ROTOR_COUNT>
1

> <PUBCHEM_PHARMACOPHORE_FEATURES>
6
1 2 acceptor
1 3 acceptor
1 4 acceptor
1 5 cation
1 5 donor
4 1 2 3 4 anion

> <PUBCHEM_HEAVY_ATOM_COUNT>
6

> <PUBCHEM_ATOM_DEF_STEREO_COUNT>
0

> <PUBCHEM_ATOM_UDEF_STEREO_COUNT>
0

> <PUBCHEM_BOND_DEF_STEREO_COUNT>
0

> <PUBCHEM_BOND_UDEF_STEREO_COUNT>
0

> <PUBCHEM_ISOTOPIC_ATOM_COUNT>
0

> <PUBCHEM_COMPONENT_COUNT>
1

> <PUBCHEM_CACTVS_TAUTO_COUNT>
1

> <PUBCHEM_CONFORMER_ID>
000036C100000001

> <PUBCHEM_MMFF94_ENERGY>
-26.8494

> <PUBCHEM_FEATURE_SELFOVERLAP>
30.482

> <PUBCHEM_SHAPE_FINGERPRINT>
139733 1 10661804292866542855
16714656 1 18196927769094454404
20096714 4 17988361472951889284
24536 1 18198079159954153501
29004967 10 18124308560906687618
5943 1 12461010846846559706

> <PUBCHEM_SHAPE_MULTIPOLES>
104.74
1.94
1.1
1.04
0.87
0.04
0.39
-0.3
-0.1
-0.28
-0.27
-0.26
0.23
0.04

> <PUBCHEM_SHAPE_SELFOVERLAP>
172.618

> <PUBCHEM_SHAPE_VOLUME>
72.6

> <PUBCHEM_COORDINATE_TYPE>
2
5
10

$$$$

