241582
  -OEChem-07051212483D

 16 16  0     0  0  0  0  0  0999 V2000
   -3.7947    0.0004    0.6275 Cl  0  0  0  0  0  0  0  0  0  0  0  0
    3.6047    0.0007    1.1582 N   0  0  0  0  0  0  0  0  0  0  0  0
    0.5614   -0.0005   -0.5437 C   0  0  0  0  0  0  0  0  0  0  0  0
    2.0014   -0.0007   -0.9322 C   0  0  0  0  0  0  0  0  0  0  0  0
   -0.1121   -1.2083   -0.3620 C   0  0  0  0  0  0  0  0  0  0  0  0
   -0.1120    1.2077   -0.3630 C   0  0  0  0  0  0  0  0  0  0  0  0
   -1.4591   -1.2080    0.0002 C   0  0  0  0  0  0  0  0  0  0  0  0
   -1.4591    1.2081   -0.0007 C   0  0  0  0  0  0  0  0  0  0  0  0
   -2.1327    0.0001    0.1810 C   0  0  0  0  0  0  0  0  0  0  0  0
    2.9022    0.0004    0.2346 C   0  0  0  0  0  0  0  0  0  0  0  0
    2.2168    0.8710   -1.5629 H   0  0  0  0  0  0  0  0  0  0  0  0
    2.2170   -0.8735   -1.5614 H   0  0  0  0  0  0  0  0  0  0  0  0
    0.4011   -2.1565   -0.4985 H   0  0  0  0  0  0  0  0  0  0  0  0
    0.4014    2.1557   -0.5003 H   0  0  0  0  0  0  0  0  0  0  0  0
   -1.9712   -2.1568    0.1385 H   0  0  0  0  0  0  0  0  0  0  0  0
   -1.9711    2.1571    0.1369 H   0  0  0  0  0  0  0  0  0  0  0  0
  1  9  1  0  0  0  0
  2 10  3  0  0  0  0
  3  4  1  0  0  0  0
  3  5  2  0  0  0  0
  3  6  1  0  0  0  0
  4 10  1  0  0  0  0
  4 11  1  0  0  0  0
  4 12  1  0  0  0  0
  5  7  1  0  0  0  0
  5 13  1  0  0  0  0
  6  8  2  0  0  0  0
  6 14  1  0  0  0  0
  7  9  2  0  0  0  0
  7 15  1  0  0  0  0
  8  9  1  0  0  0  0
  8 16  1  0  0  0  0
M  END
> <PUBCHEM_COMPOUND_CID>
241582

> <PUBCHEM_CONFORMER_RMSD>
0.4

> <PUBCHEM_CONFORMER_DIVERSEORDER>
1
2
3

> <PUBCHEM_MMFF94_PARTIAL_CHARGES>
14
1 -0.18
10 0.36
13 0.15
14 0.15
15 0.15
16 0.15
2 -0.56
3 -0.14
4 0.34
5 -0.15
6 -0.15
7 -0.15
8 -0.15
9 0.18

> <PUBCHEM_EFFECTIVE_ROTOR_COUNT>
1

> <PUBCHEM_PHARMACOPHORE_FEATURES>
2
1 2 acceptor
6 3 5 6 7 8 9 rings

> <PUBCHEM_HEAVY_ATOM_COUNT>
10

> <PUBCHEM_ATOM_DEF_STEREO_COUNT>
0

> <PUBCHEM_ATOM_UDEF_STEREO_COUNT>
0

> <PUBCHEM_BOND_DEF_STEREO_COUNT>
0

> <PUBCHEM_BOND_UDEF_STEREO_COUNT>
0

> <PUBCHEM_ISOTOPIC_ATOM_COUNT>
0

> <PUBCHEM_COMPONENT_COUNT>
1

> <PUBCHEM_CACTVS_TAUTO_COUNT>
1

> <PUBCHEM_CONFORMER_ID>
0003AFAE00000001

> <PUBCHEM_MMFF94_ENERGY>
17.8736

> <PUBCHEM_FEATURE_SELFOVERLAP>
10.148

> <PUBCHEM_SHAPE_FINGERPRINT>
10130415 120 18131345285127140737
10857977 72 18408600348905292821
11062470 55 16515680052884894395
11769659 78 16271638984497258739
12251169 10 18410016516030097256
12932764 1 17603864541799238934
15310529 11 16630519601056537997
16945 1 18410845564808348671
17846911 113 18260832613467254865
20645464 45 17822012016821440318
20653085 51 14129348342863313554
21040471 1 18266445680308822621
23380061 330 18335136467122286047
23402539 116 18334306370250448557
23402655 69 18265905847046320925
23552423 10 17698150756057179853
2748010 2 18051399962401931167
369184 2 17967257511292871942

> <PUBCHEM_SHAPE_MULTIPOLES>
202.68
5.39
1.21
0.91
0.71
0
-0.08
0
-2.11
-0.43
0.11
0.51
0
0

> <PUBCHEM_SHAPE_SELFOVERLAP>
408.57

> <PUBCHEM_SHAPE_VOLUME>
117.9

> <PUBCHEM_COORDINATE_TYPE>
2
5
10

$$$$

