6443195
  -OEChem-07051213103D

 26 26  0     1  0  0  0  0  0999 V2000
    2.4072   -0.6106   -1.5634 Cl  0  0  0  0  0  0  0  0  0  0  0  0
    2.3604    2.4781   -0.3488 Cl  0  0  0  0  0  0  0  0  0  0  0  0
   -4.9809    0.5824   -0.1586 Cl  0  0  0  0  0  0  0  0  0  0  0  0
    2.0628   -0.2502    0.1780 C   0  0  1  0  0  0  0  0  0  0  0  0
    1.3834    1.1372    0.3354 C   0  0  2  0  0  0  0  0  0  0  0  0
   -0.0322    1.1901   -0.2630 C   0  0  0  0  0  0  0  0  0  0  0  0
   -0.9365    0.0836    0.3134 C   0  0  2  0  0  0  0  0  0  0  0  0
    1.1216   -1.3503    0.7239 C   0  0  0  0  0  0  0  0  0  0  0  0
   -0.2679   -1.2690    0.1236 C   0  0  0  0  0  0  0  0  0  0  0  0
    3.3995   -0.3167    0.9319 C   0  0  0  0  0  0  0  0  0  0  0  0
   -2.3244    0.1988   -0.2497 C   0  0  0  0  0  0  0  0  0  0  0  0
   -0.7900   -2.3275   -0.5182 C   0  0  0  0  0  0  0  0  0  0  0  0
   -3.4029    0.4540    0.4955 C   0  0  0  0  0  0  0  0  0  0  0  0
    1.3032    1.3641    1.4060 H   0  0  0  0  0  0  0  0  0  0  0  0
    0.0122    1.1091   -1.3578 H   0  0  0  0  0  0  0  0  0  0  0  0
   -0.4786    2.1704   -0.0459 H   0  0  0  0  0  0  0  0  0  0  0  0
   -0.9985    0.2453    1.4002 H   0  0  0  0  0  0  0  0  0  0  0  0
    1.0235   -1.2429    1.8130 H   0  0  0  0  0  0  0  0  0  0  0  0
    1.5657   -2.3413    0.5601 H   0  0  0  0  0  0  0  0  0  0  0  0
    3.8382   -1.3199    0.8742 H   0  0  0  0  0  0  0  0  0  0  0  0
    4.1376    0.3848    0.5291 H   0  0  0  0  0  0  0  0  0  0  0  0
    3.2617   -0.0803    1.9931 H   0  0  0  0  0  0  0  0  0  0  0  0
   -2.4367    0.0831   -1.3261 H   0  0  0  0  0  0  0  0  0  0  0  0
   -1.7766   -2.3089   -0.9663 H   0  0  0  0  0  0  0  0  0  0  0  0
   -0.2346   -3.2553   -0.6121 H   0  0  0  0  0  0  0  0  0  0  0  0
   -3.3868    0.5935    1.5681 H   0  0  0  0  0  0  0  0  0  0  0  0
  1  4  1  0  0  0  0
  2  5  1  0  0  0  0
  3 13  1  0  0  0  0
  4  5  1  0  0  0  0
  4  8  1  0  0  0  0
  4 10  1  0  0  0  0
  5  6  1  0  0  0  0
  5 14  1  0  0  0  0
  6  7  1  0  0  0  0
  6 15  1  0  0  0  0
  6 16  1  0  0  0  0
  7  9  1  0  0  0  0
  7 11  1  0  0  0  0
  7 17  1  0  0  0  0
  8  9  1  0  0  0  0
  8 18  1  0  0  0  0
  8 19  1  0  0  0  0
  9 12  2  0  0  0  0
 10 20  1  0  0  0  0
 10 21  1  0  0  0  0
 10 22  1  0  0  0  0
 11 13  2  0  0  0  0
 11 23  1  0  0  0  0
 12 24  1  0  0  0  0
 12 25  1  0  0  0  0
 13 26  1  0  0  0  0
M  END
> <PUBCHEM_COMPOUND_CID>
6443195

> <PUBCHEM_CONFORMER_RMSD>
0.6

> <PUBCHEM_CONFORMER_DIVERSEORDER>
1
3
5
4
2

> <PUBCHEM_MMFF94_PARTIAL_CHARGES>
15
1 -0.29
11 -0.29
12 -0.3
13 -0.01
2 -0.29
23 0.15
24 0.15
25 0.15
26 0.15
3 -0.14
4 0.29
5 0.29
7 0.28
8 0.14
9 -0.28

> <PUBCHEM_EFFECTIVE_ROTOR_COUNT>
2

> <PUBCHEM_PHARMACOPHORE_FEATURES>
1
6 4 5 6 7 8 9 rings

> <PUBCHEM_HEAVY_ATOM_COUNT>
13

> <PUBCHEM_ATOM_DEF_STEREO_COUNT>
3

> <PUBCHEM_ATOM_UDEF_STEREO_COUNT>
0

> <PUBCHEM_BOND_DEF_STEREO_COUNT>
1

> <PUBCHEM_BOND_UDEF_STEREO_COUNT>
0

> <PUBCHEM_ISOTOPIC_ATOM_COUNT>
0

> <PUBCHEM_COMPONENT_COUNT>
1

> <PUBCHEM_CACTVS_TAUTO_COUNT>
1

> <PUBCHEM_CONFORMER_ID>
006250BB00000001

> <PUBCHEM_MMFF94_ENERGY>
24.7795

> <PUBCHEM_FEATURE_SELFOVERLAP>
5.074

> <PUBCHEM_SHAPE_FINGERPRINT>
10219947 1 18339080492524420379
11471102 20 18341335569282211689
13140716 1 18269001899041282792
13380535 21 18194953054917090480
13380536 305 18410847772147258060
13922767 16 18411142450101681345
14251717 144 18408889559703614085
14325111 11 18411136892682869665
14344429 50 18343863325197816404
14415576 193 18411699920083092733
14897335 6 18265900159285481768
14911166 2 18337662092343793366
14993402 34 18409442617793523263
15775835 57 18272367542609301300
15852999 172 17385726880973039438
16945 1 18412259566657777378
18175812 5 17917709093898157569
18186145 218 18334571365342848029
18511873 20 18410863148457290482
20233049 118 18130223864887155300
20645476 183 17560219337466841862
20645477 70 18410012143927300917
20671657 1 18340484452777604580
21501502 16 18194690263248389118
22713019 99 17823122587805764478
2334 1 18123753045641720138
23402539 116 18041858280010309006
23402655 69 18336837502174228869
23557571 272 17459759120384529386
23559900 14 18334849512442474222
2748010 2 18267575806431874666
3060560 45 18334859471627861767
633830 44 18260822722674673429
9999458 23 18060138738684763990

> <PUBCHEM_SHAPE_MULTIPOLES>
273.14
6.43
2.09
1.01
7.98
0.14
0.22
2.01
-0.12
-1.03
0.29
-0.68
-0.2
-0.18

> <PUBCHEM_SHAPE_SELFOVERLAP>
515.557

> <PUBCHEM_SHAPE_VOLUME>
168.4

> <PUBCHEM_COORDINATE_TYPE>
2
5
10

$$$$

