17396000
  -OEChem-06241222533D

 51 53  0     1  0  0  0  0  0999 V2000
   -4.9848    2.3122   -0.3491 O   0  0  0  0  0  0  0  0  0  0  0  0
   -5.9439   -0.2762    0.4824 O   0  0  0  0  0  0  0  0  0  0  0  0
   -0.3153   -1.8278   -0.2872 O   0  0  0  0  0  0  0  0  0  0  0  0
   -2.3251    2.6456   -0.8089 O   0  0  0  0  0  0  0  0  0  0  0  0
   -1.5657   -2.8139    1.3750 O   0  0  0  0  0  0  0  0  0  0  0  0
    2.7735   -2.7055   -1.3352 O   0  0  0  0  0  0  0  0  0  0  0  0
    2.3368   -1.1541    0.3721 N   0  0  0  0  0  0  0  0  0  0  0  0
   -4.1524    1.2440   -0.1388 C   0  0  0  0  0  0  0  0  0  0  0  0
   -4.6161   -0.0073    0.2751 C   0  0  0  0  0  0  0  0  0  0  0  0
   -2.3503   -0.8404    0.2912 C   0  0  0  0  0  0  0  0  0  0  0  0
   -6.2748    2.1061    0.2336 C   0  0  0  0  0  0  0  0  0  0  0  0
   -6.7874    0.7193   -0.1031 C   0  0  0  0  0  0  0  0  0  0  0  0
   -2.7907    1.4446   -0.3655 C   0  0  0  0  0  0  0  0  0  0  0  0
   -3.7135   -1.0460    0.5050 C   0  0  0  0  0  0  0  0  0  0  0  0
    0.6886   -2.8384   -0.1446 C   0  0  2  0  0  0  0  0  0  0  0  0
   -1.8902    0.4013   -0.1487 C   0  0  0  0  0  0  0  0  0  0  0  0
    5.7965    1.2360    0.3868 C   0  0  0  0  0  0  0  0  0  0  0  0
   -1.4063   -1.9200    0.5333 C   0  0  0  0  0  0  0  0  0  0  0  0
    3.5014   -0.3499    0.3768 C   0  0  0  0  0  0  0  0  0  0  0  0
    2.0557   -2.2350   -0.4573 C   0  0  0  0  0  0  0  0  0  0  0  0
    7.0235    2.0838    0.3932 C   0  0  0  0  0  0  0  0  0  0  0  0
    0.3639   -4.0025   -1.0689 C   0  0  0  0  0  0  0  0  0  0  0  0
    4.7690    1.4902    1.2954 C   0  0  0  0  0  0  0  0  0  0  0  0
    5.6763    0.1888   -0.5267 C   0  0  0  0  0  0  0  0  0  0  0  0
    3.6215    0.6974    1.2904 C   0  0  0  0  0  0  0  0  0  0  0  0
    4.5287   -0.6042   -0.5317 C   0  0  0  0  0  0  0  0  0  0  0  0
    6.8994    3.2919   -0.5315 C   0  0  0  0  0  0  0  0  0  0  0  0
   -0.9183    2.7600   -1.0131 C   0  0  0  0  0  0  0  0  0  0  0  0
   -6.1975    2.2565    1.3175 H   0  0  0  0  0  0  0  0  0  0  0  0
   -6.9479    2.8687   -0.1702 H   0  0  0  0  0  0  0  0  0  0  0  0
   -6.8241    0.5541   -1.1870 H   0  0  0  0  0  0  0  0  0  0  0  0
   -7.7959    0.5791    0.2984 H   0  0  0  0  0  0  0  0  0  0  0  0
   -4.0811   -2.0136    0.8384 H   0  0  0  0  0  0  0  0  0  0  0  0
    0.7403   -3.1976    0.8917 H   0  0  0  0  0  0  0  0  0  0  0  0
   -0.8216    0.5187   -0.2896 H   0  0  0  0  0  0  0  0  0  0  0  0
    7.8935    1.4853    0.0952 H   0  0  0  0  0  0  0  0  0  0  0  0
    7.2363    2.4268    1.4135 H   0  0  0  0  0  0  0  0  0  0  0  0
    1.6310   -0.8987    1.0596 H   0  0  0  0  0  0  0  0  0  0  0  0
    0.3055   -3.6701   -2.1116 H   0  0  0  0  0  0  0  0  0  0  0  0
   -0.6110   -4.4352   -0.8214 H   0  0  0  0  0  0  0  0  0  0  0  0
    1.1197   -4.7915   -1.0010 H   0  0  0  0  0  0  0  0  0  0  0  0
    4.8498    2.3043    2.0109 H   0  0  0  0  0  0  0  0  0  0  0  0
    6.4695   -0.0172   -1.2407 H   0  0  0  0  0  0  0  0  0  0  0  0
    2.8277    0.9067    2.0031 H   0  0  0  0  0  0  0  0  0  0  0  0
    4.5080   -1.3933   -1.2700 H   0  0  0  0  0  0  0  0  0  0  0  0
    6.0650    3.9353   -0.2326 H   0  0  0  0  0  0  0  0  0  0  0  0
    7.8170    3.8877   -0.4996 H   0  0  0  0  0  0  0  0  0  0  0  0
    6.7309    2.9813   -1.5682 H   0  0  0  0  0  0  0  0  0  0  0  0
   -0.3623    2.6408   -0.0768 H   0  0  0  0  0  0  0  0  0  0  0  0
   -0.5665    2.0829   -1.7990 H   0  0  0  0  0  0  0  0  0  0  0  0
   -0.7270    3.7790   -1.3658 H   0  0  0  0  0  0  0  0  0  0  0  0
  1  8  1  0  0  0  0
  1 11  1  0  0  0  0
  2  9  1  0  0  0  0
  2 12  1  0  0  0  0
  3 15  1  0  0  0  0
  3 18  1  0  0  0  0
  4 13  1  0  0  0  0
  4 28  1  0  0  0  0
  5 18  2  0  0  0  0
  6 20  2  0  0  0  0
  7 19  1  0  0  0  0
  7 20  1  0  0  0  0
  7 38  1  0  0  0  0
  8  9  2  0  0  0  0
  8 13  1  0  0  0  0
  9 14  1  0  0  0  0
 10 14  2  0  0  0  0
 10 16  1  0  0  0  0
 10 18  1  0  0  0  0
 11 12  1  0  0  0  0
 11 29  1  0  0  0  0
 11 30  1  0  0  0  0
 12 31  1  0  0  0  0
 12 32  1  0  0  0  0
 13 16  2  0  0  0  0
 14 33  1  0  0  0  0
 15 20  1  0  0  0  0
 15 22  1  0  0  0  0
 15 34  1  0  0  0  0
 16 35  1  0  0  0  0
 17 21  1  0  0  0  0
 17 23  2  0  0  0  0
 17 24  1  0  0  0  0
 19 25  2  0  0  0  0
 19 26  1  0  0  0  0
 21 27  1  0  0  0  0
 21 36  1  0  0  0  0
 21 37  1  0  0  0  0
 22 39  1  0  0  0  0
 22 40  1  0  0  0  0
 22 41  1  0  0  0  0
 23 25  1  0  0  0  0
 23 42  1  0  0  0  0
 24 26  2  0  0  0  0
 24 43  1  0  0  0  0
 25 44  1  0  0  0  0
 26 45  1  0  0  0  0
 27 46  1  0  0  0  0
 27 47  1  0  0  0  0
 27 48  1  0  0  0  0
 28 49  1  0  0  0  0
 28 50  1  0  0  0  0
 28 51  1  0  0  0  0
M  END
> <PUBCHEM_COMPOUND_CID>
17396000

> <PUBCHEM_CONFORMER_RMSD>
1

> <PUBCHEM_CONFORMER_DIVERSEORDER>
4
72
83
82
1
102
79
76
12
57
67
74
68
50
66
63
56
78
88
62
48
81
95
49
26
91
105
52
94
23
58
31
11
97
47
34
108
16
37
104
17
36
92
93
65
96
54
18
28
41
35
27
6
99
38
43
10
86
21
29
101
33
84
46
22
3
20
14
90
64
111
44
69
19
73
70
77
85
9
71
32
51
75
53
98
103
109
55
89
100
24
80
61
39
5
2
8
30
110
25
107
15
42
106
87
40
13
7
60
45
59

> <PUBCHEM_MMFF94_PARTIAL_CHARGES>
33
1 -0.36
10 0.09
11 0.28
12 0.28
13 0.08
14 -0.15
15 0.34
16 -0.15
17 -0.14
18 0.63
19 0.12
2 -0.36
20 0.57
21 0.14
23 -0.15
24 -0.15
25 -0.15
26 -0.15
28 0.28
3 -0.43
33 0.15
35 0.15
38 0.37
4 -0.36
42 0.15
43 0.15
44 0.15
45 0.15
5 -0.57
6 -0.57
7 -0.55
8 0.08
9 0.08

> <PUBCHEM_EFFECTIVE_ROTOR_COUNT>
8.8

> <PUBCHEM_PHARMACOPHORE_FEATURES>
10
1 1 acceptor
1 2 acceptor
1 27 hydrophobe
1 4 acceptor
1 5 acceptor
1 6 acceptor
1 7 donor
6 1 2 8 9 11 12 rings
6 17 19 23 24 25 26 rings
6 8 9 10 13 14 16 rings

> <PUBCHEM_HEAVY_ATOM_COUNT>
28

> <PUBCHEM_ATOM_DEF_STEREO_COUNT>
0

> <PUBCHEM_ATOM_UDEF_STEREO_COUNT>
1

> <PUBCHEM_BOND_DEF_STEREO_COUNT>
0

> <PUBCHEM_BOND_UDEF_STEREO_COUNT>
0

> <PUBCHEM_ISOTOPIC_ATOM_COUNT>
0

> <PUBCHEM_COMPONENT_COUNT>
1

> <PUBCHEM_CACTVS_TAUTO_COUNT>
2

> <PUBCHEM_CONFORMER_ID>
0109712000000004

> <PUBCHEM_MMFF94_ENERGY>
92.7866

> <PUBCHEM_FEATURE_SELFOVERLAP>
50.792

> <PUBCHEM_SHAPE_FINGERPRINT>
10838868 160 18260837024605111353
10939801 23 18201155430744793260
11211813 74 18194124247564901989
12107183 9 18341345470073821474
12596602 18 16343411839383252962
12730499 353 18334009531701550802
12895837 130 18197494022542598160
13402501 40 18410013242964499792
14068700 686 18268148841543890669
14294032 229 18116712919839486198
14739800 52 18130513049214338914
14931854 50 17531237362426607720
15001296 14 17844801491563109500
15198563 99 17755874017247347343
15961568 22 18271523182051243445
16110190 28 18130787794236032132
18608769 82 18337389340736110115
19611394 137 17915446217153307579
21033648 29 18272359880314305619
21302155 148 18270675364677274140
21315764 268 18271529822598015142
23559900 14 18198045070651350887
24771293 8 18411418415342323757
2838139 119 18409174324356696446
3246875 12 18411418402072222243
34797466 226 17822570637980837351
44249763 50 17896890842344047744
46194498 28 17823695467765876342
474144 1 17273396310782477468
5104073 3 18199180883959637955
5219985 13 18408887313441493478
5265222 85 18264769848848581720
6327066 14 18336548227125250534
7808743 9 18338521820722546154
9981440 41 18273208699112377219

> <PUBCHEM_SHAPE_MULTIPOLES>
536.03
17.94
4.2
1.03
6.65
1.85
-0.07
-17.34
-1.29
1.53
1.23
0.62
0.15
1.32

> <PUBCHEM_SHAPE_SELFOVERLAP>
1146.073

> <PUBCHEM_SHAPE_VOLUME>
295.6

> <PUBCHEM_COORDINATE_TYPE>
2
5
10

$$$$

