439482
  -OEChem-07051212452D

 42 44  0     1  0  0  0  0  0999 V2000
    8.0626    2.3678    0.0000 S   0  0  0  0  0  0  0  0  0  0  0  0
    6.1425    1.8420    0.0000 O   0  0  0  0  0  0  0  0  0  0  0  0
    4.4669    0.7669    0.0000 O   0  0  0  0  0  0  0  0  0  0  0  0
   11.1762   -0.4692    0.0000 O   0  0  0  0  0  0  0  0  0  0  0  0
   11.1762   -2.0787    0.0000 O   0  0  0  0  0  0  0  0  0  0  0  0
    2.2522   -2.0782    0.0000 O   0  0  0  0  0  0  0  0  0  0  0  0
    3.8345   -2.7827    0.0000 O   0  0  0  0  0  0  0  0  0  0  0  0
    6.5492    0.9285    0.0000 N   0  0  3  0  0  0  0  0  0  0  0  0
    4.6480   -0.9556    0.0000 N   0  0  0  0  0  0  0  0  0  0  0  0
    7.6319   -0.2740    0.0000 C   0  0  3  0  0  0  0  0  0  0  0  0
    7.5274    0.7206    0.0000 C   0  0  3  0  0  0  0  0  0  0  0  0
    6.7184   -0.6807    0.0000 C   0  0  0  0  0  0  0  0  0  0  0  0
    6.0492    0.0625    0.0000 C   0  0  1  0  0  0  0  0  0  0  0  0
    8.4979   -0.7740    0.0000 C   0  0  0  0  0  0  0  0  0  0  0  0
    8.2705    1.3897    0.0000 C   0  0  0  0  0  0  0  0  0  0  0  0
    5.0547   -0.0421    0.0000 C   0  0  0  0  0  0  0  0  0  0  0  0
    9.3639   -0.2740    0.0000 C   0  0  0  0  0  0  0  0  0  0  0  0
    8.4979   -1.7740    0.0000 C   0  0  0  0  0  0  0  0  0  0  0  0
   10.2300   -0.7740    0.0000 C   0  0  0  0  0  0  0  0  0  0  0  0
    9.3639   -2.2740    0.0000 C   0  0  0  0  0  0  0  0  0  0  0  0
   10.2300   -1.7740    0.0000 C   0  0  0  0  0  0  0  0  0  0  0  0
    3.6534   -1.0602    0.0000 C   0  0  0  0  0  0  0  0  0  0  0  0
   11.7598   -1.2740    0.0000 C   0  0  0  0  0  0  0  0  0  0  0  0
    3.2467   -1.9737    0.0000 C   0  0  0  0  0  0  0  0  0  0  0  0
    7.5874   -1.1228    0.0000 H   0  0  0  0  0  0  0  0  0  0  0  0
    7.3074    1.5416    0.0000 H   0  0  0  0  0  0  0  0  0  0  0  0
    6.2168   -1.0451    0.0000 H   0  0  0  0  0  0  0  0  0  0  0  0
    7.0284   -1.2176    0.0000 H   0  0  0  0  0  0  0  0  0  0  0  0
    5.7115    0.5824    0.0000 H   0  0  0  0  0  0  0  0  0  0  0  0
    8.5991    0.8639    0.0000 H   0  0  0  0  0  0  0  0  0  0  0  0
    8.8454    1.6220    0.0000 H   0  0  0  0  0  0  0  0  0  0  0  0
    9.3639    0.3460    0.0000 H   0  0  0  0  0  0  0  0  0  0  0  0
    7.9610   -2.0840    0.0000 H   0  0  0  0  0  0  0  0  0  0  0  0
    5.5259    1.9068    0.0000 H   0  0  0  0  0  0  0  0  0  0  0  0
    5.0124   -1.4572    0.0000 H   0  0  0  0  0  0  0  0  0  0  0  0
    9.3639   -2.8939    0.0000 H   0  0  0  0  0  0  0  0  0  0  0  0
    8.5234    2.7827    0.0000 H   0  0  0  0  0  0  0  0  0  0  0  0
    3.6967   -0.4417    0.0000 H   0  0  0  0  0  0  0  0  0  0  0  0
    3.0518   -0.9102    0.0000 H   0  0  0  0  0  0  0  0  0  0  0  0
   12.2207   -1.6887    0.0000 H   0  0  0  0  0  0  0  0  0  0  0  0
   12.2207   -0.8592    0.0000 H   0  0  0  0  0  0  0  0  0  0  0  0
    2.0000   -2.6446    0.0000 H   0  0  0  0  0  0  0  0  0  0  0  0
  1 15  1  0  0  0  0
  1 37  1  0  0  0  0
  2  8  1  0  0  0  0
  2 34  1  0  0  0  0
  3 16  2  0  0  0  0
  4 19  1  0  0  0  0
  4 23  1  0  0  0  0
  5 21  1  0  0  0  0
  5 23  1  0  0  0  0
  6 24  1  0  0  0  0
  6 42  1  0  0  0  0
  7 24  2  0  0  0  0
  8 11  1  0  0  0  0
  8 13  1  0  0  0  0
  9 16  1  0  0  0  0
  9 22  1  0  0  0  0
  9 35  1  0  0  0  0
 10 11  1  0  0  0  0
 10 12  1  0  0  0  0
 10 14  1  0  0  0  0
 10 25  1  0  0  0  0
 11 15  1  0  0  0  0
 11 26  1  0  0  0  0
 12 13  1  0  0  0  0
 12 27  1  0  0  0  0
 12 28  1  0  0  0  0
 13 16  1  1  0  0  0
 13 29  1  0  0  0  0
 14 17  2  0  0  0  0
 14 18  1  0  0  0  0
 15 30  1  0  0  0  0
 15 31  1  0  0  0  0
 17 19  1  0  0  0  0
 17 32  1  0  0  0  0
 18 20  2  0  0  0  0
 18 33  1  0  0  0  0
 19 21  2  0  0  0  0
 20 21  1  0  0  0  0
 20 36  1  0  0  0  0
 22 24  1  0  0  0  0
 22 38  1  0  0  0  0
 22 39  1  0  0  0  0
 23 40  1  0  0  0  0
 23 41  1  0  0  0  0
M  END
> <PUBCHEM_COMPOUND_CID>
439482

> <PUBCHEM_COMPOUND_CANONICALIZED>
1

> <PUBCHEM_CACTVS_COMPLEXITY>
493

> <PUBCHEM_CACTVS_HBOND_ACCEPTOR>
8

> <PUBCHEM_CACTVS_HBOND_DONOR>
4

> <PUBCHEM_CACTVS_ROTATABLE_BOND>
5

> <PUBCHEM_CACTVS_SUBSKEYS>
AAADceBzOABAAAAAAAAAAAAAAAAAAWJAAAAwAAAAAAAAAEgBAAAAHgQUCAAADSzF2AewDoLQBgSIAiHSGAACCAAgIAAoiIGOiIgfZjKEsTu0MCIk1hGeqAeY2fOeoAABAAAAQABAAAIAAACAAAAAAAAAAA==

> <PUBCHEM_IUPAC_OPENEYE_NAME>
2-[[(2S)-4-(1,3-benzodioxol-5-yl)-1-hydroxy-5-(sulfanylmethyl)pyrrolidine-2-carbonyl]amino]acetic acid

> <PUBCHEM_IUPAC_CAS_NAME>
2-[[[(2S)-4-(1,3-benzodioxol-5-yl)-1-hydroxy-5-(mercaptomethyl)-2-pyrrolidinyl]-oxomethyl]amino]acetic acid

> <PUBCHEM_IUPAC_NAME>
2-[[(2S)-4-(1,3-benzodioxol-5-yl)-1-hydroxy-5-(sulfanylmethyl)pyrrolidine-2-carbonyl]amino]acetic acid

> <PUBCHEM_IUPAC_SYSTEMATIC_NAME>
2-[[(2S)-4-(1,3-benzodioxol-5-yl)-1-oxidanyl-5-(sulfanylmethyl)pyrrolidin-2-yl]carbonylamino]ethanoic acid

> <PUBCHEM_IUPAC_TRADITIONAL_NAME>
2-[[(2S)-4-(1,3-benzodioxol-5-yl)-1-hydroxy-5-(mercaptomethyl)prolyl]amino]acetic acid

> <PUBCHEM_IUPAC_INCHI>
InChI=1S/C15H18N2O6S/c18-14(19)5-16-15(20)10-4-9(11(6-24)17(10)21)8-1-2-12-13(3-8)23-7-22-12/h1-3,9-11,21,24H,4-7H2,(H,16,20)(H,18,19)/t9?,10-,11?/m0/s1

> <PUBCHEM_IUPAC_INCHIKEY>
IFPDMYFQTNXKKD-YVNMAJEFSA-N

> <PUBCHEM_XLOGP3_AA>
-0.9

> <PUBCHEM_EXACT_MASS>
354.088557

> <PUBCHEM_MOLECULAR_FORMULA>
C15H18N2O6S

> <PUBCHEM_MOLECULAR_WEIGHT>
354.37822

> <PUBCHEM_OPENEYE_CAN_SMILES>
C1C(C(N(C1C(=O)NCC(=O)O)O)CS)C2=CC3=C(C=C2)OCO3

> <PUBCHEM_OPENEYE_ISO_SMILES>
C1[C@H](N(C(C1C2=CC3=C(C=C2)OCO3)CS)O)C(=O)NCC(=O)O

> <PUBCHEM_CACTVS_TPSA>
109

> <PUBCHEM_MONOISOTOPIC_WEIGHT>
354.088557

> <PUBCHEM_TOTAL_CHARGE>
0

> <PUBCHEM_HEAVY_ATOM_COUNT>
24

> <PUBCHEM_ATOM_DEF_STEREO_COUNT>
1

> <PUBCHEM_ATOM_UDEF_STEREO_COUNT>
2

> <PUBCHEM_BOND_DEF_STEREO_COUNT>
0

> <PUBCHEM_BOND_UDEF_STEREO_COUNT>
0

> <PUBCHEM_ISOTOPIC_ATOM_COUNT>
0

> <PUBCHEM_COMPONENT_COUNT>
1

> <PUBCHEM_CACTVS_TAUTO_COUNT>
2

> <PUBCHEM_COORDINATE_TYPE>
1
5
255

> <PUBCHEM_BONDANNOTATIONS>
10  25  3
11  26  3
13  16  5
14  17  8
14  18  8
17  19  8
18  20  8
19  21  8
20  21  8

$$$$

