13583
  -OEChem-06241222393D

 40 39  0     0  0  0  0  0  0999 V2000
   -7.5574   -0.4197    0.0221 N   0  0  0  0  0  0  0  0  0  0  0  0
    0.0045   -0.3515   -0.0493 C   0  0  0  0  0  0  0  0  0  0  0  0
    1.2692    0.5109   -0.0142 C   0  0  0  0  0  0  0  0  0  0  0  0
   -1.2905    0.4659   -0.0410 C   0  0  0  0  0  0  0  0  0  0  0  0
    2.5275   -0.3592    0.0481 C   0  0  0  0  0  0  0  0  0  0  0  0
   -2.5540   -0.3964   -0.0016 C   0  0  0  0  0  0  0  0  0  0  0  0
    3.8275    0.4505    0.0630 C   0  0  0  0  0  0  0  0  0  0  0  0
   -3.8168    0.4691   -0.0269 C   0  0  0  0  0  0  0  0  0  0  0  0
    5.0863   -0.4196    0.0508 C   0  0  0  0  0  0  0  0  0  0  0  0
   -5.0814   -0.3953   -0.0161 C   0  0  0  0  0  0  0  0  0  0  0  0
    6.3510    0.4384   -0.0070 C   0  0  0  0  0  0  0  0  0  0  0  0
   -6.3706    0.4269    0.0302 C   0  0  0  0  0  0  0  0  0  0  0  0
    7.6048   -0.4200   -0.0579 C   0  0  0  0  0  0  0  0  0  0  0  0
    0.0224   -0.9883   -0.9424 H   0  0  0  0  0  0  0  0  0  0  0  0
    0.0041   -1.0233    0.8183 H   0  0  0  0  0  0  0  0  0  0  0  0
    1.3027    1.1490   -0.9052 H   0  0  0  0  0  0  0  0  0  0  0  0
    1.2405    1.1735    0.8589 H   0  0  0  0  0  0  0  0  0  0  0  0
   -1.3128    1.1053   -0.9322 H   0  0  0  0  0  0  0  0  0  0  0  0
   -1.2866    1.1352    0.8284 H   0  0  0  0  0  0  0  0  0  0  0  0
    2.4901   -0.9914    0.9439 H   0  0  0  0  0  0  0  0  0  0  0  0
    2.5385   -1.0352   -0.8160 H   0  0  0  0  0  0  0  0  0  0  0  0
   -2.5473   -1.0160    0.9031 H   0  0  0  0  0  0  0  0  0  0  0  0
   -2.5573   -1.0777   -0.8610 H   0  0  0  0  0  0  0  0  0  0  0  0
    3.8409    1.1137   -0.8111 H   0  0  0  0  0  0  0  0  0  0  0  0
    3.8395    1.0960    0.9498 H   0  0  0  0  0  0  0  0  0  0  0  0
   -3.8162    1.1029   -0.9219 H   0  0  0  0  0  0  0  0  0  0  0  0
   -3.8213    1.1365    0.8433 H   0  0  0  0  0  0  0  0  0  0  0  0
    5.1051   -1.0511    0.9471 H   0  0  0  0  0  0  0  0  0  0  0  0
    5.0582   -1.0898   -0.8169 H   0  0  0  0  0  0  0  0  0  0  0  0
   -5.0507   -1.0663    0.8520 H   0  0  0  0  0  0  0  0  0  0  0  0
   -5.0876   -1.0334   -0.9092 H   0  0  0  0  0  0  0  0  0  0  0  0
    6.3238    1.0843   -0.8924 H   0  0  0  0  0  0  0  0  0  0  0  0
    6.3968    1.0931    0.8711 H   0  0  0  0  0  0  0  0  0  0  0  0
   -6.4108    1.0987   -0.8341 H   0  0  0  0  0  0  0  0  0  0  0  0
   -6.3805    1.0504    0.9312 H   0  0  0  0  0  0  0  0  0  0  0  0
    7.6795   -1.0578    0.8286 H   0  0  0  0  0  0  0  0  0  0  0  0
    7.6051   -1.0622   -0.9445 H   0  0  0  0  0  0  0  0  0  0  0  0
    8.4965    0.2133   -0.0970 H   0  0  0  0  0  0  0  0  0  0  0  0
   -7.5461   -1.0333    0.8358 H   0  0  0  0  0  0  0  0  0  0  0  0
   -8.3889    0.1624    0.1140 H   0  0  0  0  0  0  0  0  0  0  0  0
  1 12  1  0  0  0  0
  1 39  1  0  0  0  0
  1 40  1  0  0  0  0
  2  3  1  0  0  0  0
  2  4  1  0  0  0  0
  2 14  1  0  0  0  0
  2 15  1  0  0  0  0
  3  5  1  0  0  0  0
  3 16  1  0  0  0  0
  3 17  1  0  0  0  0
  4  6  1  0  0  0  0
  4 18  1  0  0  0  0
  4 19  1  0  0  0  0
  5  7  1  0  0  0  0
  5 20  1  0  0  0  0
  5 21  1  0  0  0  0
  6  8  1  0  0  0  0
  6 22  1  0  0  0  0
  6 23  1  0  0  0  0
  7  9  1  0  0  0  0
  7 24  1  0  0  0  0
  7 25  1  0  0  0  0
  8 10  1  0  0  0  0
  8 26  1  0  0  0  0
  8 27  1  0  0  0  0
  9 11  1  0  0  0  0
  9 28  1  0  0  0  0
  9 29  1  0  0  0  0
 10 12  1  0  0  0  0
 10 30  1  0  0  0  0
 10 31  1  0  0  0  0
 11 13  1  0  0  0  0
 11 32  1  0  0  0  0
 11 33  1  0  0  0  0
 12 34  1  0  0  0  0
 12 35  1  0  0  0  0
 13 36  1  0  0  0  0
 13 37  1  0  0  0  0
 13 38  1  0  0  0  0
M  END
> <PUBCHEM_COMPOUND_CID>
13583

> <PUBCHEM_CONFORMER_RMSD>
1

> <PUBCHEM_CONFORMER_DIVERSEORDER>
1
148
3
546
30
774
256
151
640
2
291
59
197
305
372
24
164
720
28
37
843
328
732
179
224
261
249
236
829
658
807
758
95
623
820
462
763
9
561
379
25
749
247
454
47
113
431
52
846
750
716
272
70
11
27
831
124
589
94
86
806
213
42
49
792
553
208
619
699
739
162
627
159
633
57
163
459
64
303
564
218
485
460
621
320
34
803
555
495
445
105
8
68
104
96
310
389
231
376
496
478
522
17
268
409
413
226
713
194
405
715
512
93
634
830
55
282
790
446
470
434
525
269
344
710
717
743
675
284
558
801
815

> <PUBCHEM_MMFF94_PARTIAL_CHARGES>
4
1 -0.99
12 0.27
39 0.36
40 0.36

> <PUBCHEM_EFFECTIVE_ROTOR_COUNT>
10

> <PUBCHEM_PHARMACOPHORE_FEATURES>
3
1 1 cation
1 1 donor
1 13 hydrophobe

> <PUBCHEM_HEAVY_ATOM_COUNT>
13

> <PUBCHEM_ATOM_DEF_STEREO_COUNT>
0

> <PUBCHEM_ATOM_UDEF_STEREO_COUNT>
0

> <PUBCHEM_BOND_DEF_STEREO_COUNT>
0

> <PUBCHEM_BOND_UDEF_STEREO_COUNT>
0

> <PUBCHEM_ISOTOPIC_ATOM_COUNT>
0

> <PUBCHEM_COMPONENT_COUNT>
1

> <PUBCHEM_CACTVS_TAUTO_COUNT>
1

> <PUBCHEM_CONFORMER_ID>
0000350F00000001

> <PUBCHEM_MMFF94_ENERGY>
-7.3497

> <PUBCHEM_FEATURE_SELFOVERLAP>
15.223

> <PUBCHEM_SHAPE_FINGERPRINT>
10968037 39 18201720652634810167
12091667 2 18202282507619497329
13533116 47 18270970149736653386
14123256 10 18411136943700114307
14251764 18 18411701001760379387
14251764 46 18410855464423135587
17834076 25 18410856559639796064
18006028 8 18186521007649799745
20281389 69 18410858763475457944
20621476 8 18343866644795982278
22224240 67 15791737399343131294
23402539 116 17458069252558669541
23521765 1 18335421270181582308
33532 11 18341614854169045090
33684 2 18412265043157713659
42788 4 18410575089585884608
8209 1 18410856563934763372

> <PUBCHEM_SHAPE_MULTIPOLES>
262.55
22.47
0.79
0.61
0.59
0.02
0
-1.6
-0.02
-0.05
0
-0.05
0
0.01

> <PUBCHEM_SHAPE_SELFOVERLAP>
462.79

> <PUBCHEM_SHAPE_VOLUME>
171.2

> <PUBCHEM_COORDINATE_TYPE>
2
5
10

$$$$

