443225
  -OEChem-07051213013D

 47 48  0     0  0  0  0  0  0999 V2000
   -2.2055    0.5975   -1.8533 O   0  0  0  0  0  0  0  0  0  0  0  0
    4.6572    0.9240   -0.8814 O   0  0  0  0  0  0  0  0  0  0  0  0
   -2.8093   -0.1036    0.3028 N   0  0  0  0  0  0  0  0  0  0  0  0
    3.5446   -0.5991    0.5243 N   0  0  0  0  0  0  0  0  0  0  0  0
    7.0887    0.2173    0.0147 N   0  0  0  0  0  0  0  0  0  0  0  0
   -4.2235   -0.0264    0.2742 C   0  0  0  0  0  0  0  0  0  0  0  0
   -4.9570   -1.1325   -0.1260 C   0  0  0  0  0  0  0  0  0  0  0  0
   -4.8478    1.1537    0.6474 C   0  0  0  0  0  0  0  0  0  0  0  0
   -0.4942   -0.0063   -0.3979 C   0  0  0  0  0  0  0  0  0  0  0  0
   -6.3495   -1.0566   -0.1538 C   0  0  0  0  0  0  0  0  0  0  0  0
   -6.2405    1.2296    0.6198 C   0  0  0  0  0  0  0  0  0  0  0  0
   -1.8978    0.1986   -0.7185 C   0  0  0  0  0  0  0  0  0  0  0  0
    2.1982   -0.4012    0.2164 C   0  0  0  0  0  0  0  0  0  0  0  0
   -6.9912    0.1244    0.2192 C   0  0  0  0  0  0  0  0  0  0  0  0
   -4.2988   -2.4115   -0.5316 C   0  0  0  0  0  0  0  0  0  0  0  0
   -4.0711    2.3546    1.0810 C   0  0  0  0  0  0  0  0  0  0  0  0
    0.4866    0.7422   -1.0486 C   0  0  0  0  0  0  0  0  0  0  0  0
   -0.1289   -0.9521    0.5600 C   0  0  0  0  0  0  0  0  0  0  0  0
    1.8328    0.5445   -0.7415 C   0  0  0  0  0  0  0  0  0  0  0  0
    1.2173   -1.1495    0.8672 C   0  0  0  0  0  0  0  0  0  0  0  0
    5.9492   -0.4719    0.6029 C   0  0  0  0  0  0  0  0  0  0  0  0
    4.6661    0.0517   -0.0188 C   0  0  0  0  0  0  0  0  0  0  0  0
    8.3408   -0.2676    0.5804 C   0  0  0  0  0  0  0  0  0  0  0  0
    9.5337    0.4403   -0.0391 C   0  0  0  0  0  0  0  0  0  0  0  0
   -2.4400   -0.2164    1.2441 H   0  0  0  0  0  0  0  0  0  0  0  0
   -6.9501   -1.9076   -0.4641 H   0  0  0  0  0  0  0  0  0  0  0  0
   -6.7569    2.1419    0.9063 H   0  0  0  0  0  0  0  0  0  0  0  0
   -8.0756    0.1835    0.1973 H   0  0  0  0  0  0  0  0  0  0  0  0
   -3.7173   -2.2671   -1.4480 H   0  0  0  0  0  0  0  0  0  0  0  0
   -3.6379   -2.7738    0.2630 H   0  0  0  0  0  0  0  0  0  0  0  0
   -5.0306   -3.2029   -0.7270 H   0  0  0  0  0  0  0  0  0  0  0  0
   -3.4192    2.1076    1.9254 H   0  0  0  0  0  0  0  0  0  0  0  0
   -3.4635    2.7355    0.2537 H   0  0  0  0  0  0  0  0  0  0  0  0
   -4.7275    3.1685    1.4082 H   0  0  0  0  0  0  0  0  0  0  0  0
    0.2217    1.4877   -1.7941 H   0  0  0  0  0  0  0  0  0  0  0  0
   -0.8584   -1.5770    1.0676 H   0  0  0  0  0  0  0  0  0  0  0  0
    2.5327    1.1626   -1.2859 H   0  0  0  0  0  0  0  0  0  0  0  0
    1.4884   -1.8946    1.6109 H   0  0  0  0  0  0  0  0  0  0  0  0
    6.0059   -1.5493    0.4095 H   0  0  0  0  0  0  0  0  0  0  0  0
    5.9037   -0.3030    1.6851 H   0  0  0  0  0  0  0  0  0  0  0  0
    3.7268   -1.3059    1.2339 H   0  0  0  0  0  0  0  0  0  0  0  0
    7.0073    1.2201    0.1822 H   0  0  0  0  0  0  0  0  0  0  0  0
    8.4434   -1.3442    0.4005 H   0  0  0  0  0  0  0  0  0  0  0  0
    8.3578   -0.1062    1.6648 H   0  0  0  0  0  0  0  0  0  0  0  0
    9.5701    0.2795   -1.1218 H   0  0  0  0  0  0  0  0  0  0  0  0
    9.4942    1.5191    0.1459 H   0  0  0  0  0  0  0  0  0  0  0  0
   10.4654    0.0584    0.3904 H   0  0  0  0  0  0  0  0  0  0  0  0
  1 12  2  0  0  0  0
  2 22  2  0  0  0  0
  3  6  1  0  0  0  0
  3 12  1  0  0  0  0
  3 25  1  0  0  0  0
  4 13  1  0  0  0  0
  4 22  1  0  0  0  0
  4 41  1  0  0  0  0
  5 21  1  0  0  0  0
  5 23  1  0  0  0  0
  5 42  1  0  0  0  0
  6  7  2  0  0  0  0
  6  8  1  0  0  0  0
  7 10  1  0  0  0  0
  7 15  1  0  0  0  0
  8 11  2  0  0  0  0
  8 16  1  0  0  0  0
  9 12  1  0  0  0  0
  9 17  2  0  0  0  0
  9 18  1  0  0  0  0
 10 14  2  0  0  0  0
 10 26  1  0  0  0  0
 11 14  1  0  0  0  0
 11 27  1  0  0  0  0
 13 19  2  0  0  0  0
 13 20  1  0  0  0  0
 14 28  1  0  0  0  0
 15 29  1  0  0  0  0
 15 30  1  0  0  0  0
 15 31  1  0  0  0  0
 16 32  1  0  0  0  0
 16 33  1  0  0  0  0
 16 34  1  0  0  0  0
 17 19  1  0  0  0  0
 17 35  1  0  0  0  0
 18 20  2  0  0  0  0
 18 36  1  0  0  0  0
 19 37  1  0  0  0  0
 20 38  1  0  0  0  0
 21 22  1  0  0  0  0
 21 39  1  0  0  0  0
 21 40  1  0  0  0  0
 23 24  1  0  0  0  0
 23 43  1  0  0  0  0
 23 44  1  0  0  0  0
 24 45  1  0  0  0  0
 24 46  1  0  0  0  0
 24 47  1  0  0  0  0
M  END
> <PUBCHEM_COMPOUND_CID>
443225

> <PUBCHEM_CONFORMER_RMSD>
0.8

> <PUBCHEM_CONFORMER_DIVERSEORDER>
1
5
8
6
4
7
9
2
11
13
12
3
10
14

> <PUBCHEM_MMFF94_PARTIAL_CHARGES>
33
1 -0.57
10 -0.15
11 -0.15
12 0.54
13 0.12
14 -0.15
15 0.14
16 0.14
17 -0.15
18 -0.15
19 -0.15
2 -0.57
20 -0.15
21 0.33
22 0.57
23 0.27
25 0.37
26 0.15
27 0.15
28 0.15
3 -0.55
35 0.15
36 0.15
37 0.15
38 0.15
4 -0.55
41 0.37
42 0.36
5 -0.9
6 0.12
7 -0.14
8 -0.14
9 0.09

> <PUBCHEM_EFFECTIVE_ROTOR_COUNT>
8

> <PUBCHEM_PHARMACOPHORE_FEATURES>
8
1 1 acceptor
1 2 acceptor
1 3 donor
1 4 donor
1 5 cation
1 5 donor
6 6 7 8 10 11 14 rings
6 9 13 17 18 19 20 rings

> <PUBCHEM_HEAVY_ATOM_COUNT>
24

> <PUBCHEM_ATOM_DEF_STEREO_COUNT>
0

> <PUBCHEM_ATOM_UDEF_STEREO_COUNT>
0

> <PUBCHEM_BOND_DEF_STEREO_COUNT>
0

> <PUBCHEM_BOND_UDEF_STEREO_COUNT>
0

> <PUBCHEM_ISOTOPIC_ATOM_COUNT>
0

> <PUBCHEM_COMPONENT_COUNT>
1

> <PUBCHEM_CACTVS_TAUTO_COUNT>
7

> <PUBCHEM_CONFORMER_ID>
0006C35900000001

> <PUBCHEM_MMFF94_ENERGY>
85.05

> <PUBCHEM_FEATURE_SELFOVERLAP>
40.594

> <PUBCHEM_SHAPE_FINGERPRINT>
10 15 17313106354240095886
10299344 5 18343302565846527618
106641 1 18202842149567288977
11135609 99 18057600967829351179
11315181 36 18413108355933928713
12091667 2 16917071070408239959
12104220 1 18411422817124574701
12236239 1 18343300366907635543
12741549 16 15410888566721230861
13533116 47 15625956360612453936
13885169 127 18260828219984703810
14123256 10 16487257673143942186
14251764 18 18273495672326805024
14251764 46 18410575088958052706
14849402 71 18340483349224710804
14856354 85 18334290938343556151
14933364 13 18113337518295031928
15419008 47 16877666781593656480
15461852 350 17313114038237555077
15716309 27 18060702797061539954
15849732 13 17312822667540181804
17780758 139 18411138031134020175
19489759 90 18113336419268577235
21033648 29 15936701470852239715
21150785 3 9151172056530588256
21267235 1 17418374714586291316
21315759 40 18201718457806269168
21792961 116 16370719362353922146
22224240 67 18202847647747991530
23522609 53 17987209245107123508
23559900 14 18260271820294278577
249057 3 15502381097984323248
335352 9 17775001263784721686
33684 2 6916264031651319746
397830 11 16951704479855993914
4073 2 18271804567313948698
4325135 7 18273497870622372302
4339292 15 16733559217454002871
5758199 1 18273215301003994954
67123 10 18335420154592534608
9663363 56 16487257669017676253

> <PUBCHEM_SHAPE_MULTIPOLES>
467.23
24.06
1.55
1.03
44.18
0.02
0.22
-1.82
-3.55
-3.03
-0.2
-0.15
-0.17
-1.3

> <PUBCHEM_SHAPE_SELFOVERLAP>
979.577

> <PUBCHEM_SHAPE_VOLUME>
263.6

> <PUBCHEM_COORDINATE_TYPE>
2
5
10

$$$$

