4019
  -OEChem-06251223493D

 54 57  0     1  0  0  0  0  0999 V2000
   -2.3782   -1.5895   -1.4548 S   0  0  0  0  0  0  0  0  0  0  0  0
   -4.5977    1.4015   -0.1669 S   0  0  0  0  0  0  0  0  0  0  0  0
   -0.2277   -0.1439    0.0282 O   0  0  0  0  0  0  0  0  0  0  0  0
   -0.5181    0.0907    2.2973 O   0  0  0  0  0  0  0  0  0  0  0  0
   -2.9996   -0.0145    2.1752 O   0  0  0  0  0  0  0  0  0  0  0  0
    3.6366    1.3189   -0.5787 N   0  0  2  0  0  0  0  0  0  0  0  0
    3.3916   -0.0337   -1.1179 C   0  0  1  0  0  0  0  0  0  0  0  0
    4.3122   -1.0443   -0.3428 C   0  0  0  0  0  0  0  0  0  0  0  0
    3.1373    1.4174    0.8003 C   0  0  2  0  0  0  0  0  0  0  0  0
    4.1235   -0.9389    1.1906 C   0  0  0  0  0  0  0  0  0  0  0  0
    1.8812   -0.3608   -1.1298 C   0  0  0  0  0  0  0  0  0  0  0  0
    4.0015    0.5031    1.6888 C   0  0  0  0  0  0  0  0  0  0  0  0
    1.6283    1.1289    0.9078 C   0  0  0  0  0  0  0  0  0  0  0  0
    1.1869   -0.1608    0.2161 C   0  0  1  0  0  0  0  0  0  0  0  0
    4.0482   -2.4984   -0.7798 C   0  0  0  0  0  0  0  0  0  0  0  0
    5.7953   -0.7345   -0.6788 C   0  0  0  0  0  0  0  0  0  0  0  0
    3.1623    2.3925   -1.4449 C   0  0  0  0  0  0  0  0  0  0  0  0
   -0.9806   -0.0108    1.1673 C   0  0  0  0  0  0  0  0  0  0  0  0
   -2.4739   -0.0491    0.8327 C   0  0  0  0  0  0  0  0  0  0  0  0
   -2.9200   -1.3295    0.1223 C   0  0  0  0  0  0  0  0  0  0  0  0
   -2.9393    1.1907    0.0659 C   0  0  0  0  0  0  0  0  0  0  0  0
   -3.7141   -2.2942    0.6235 C   0  0  0  0  0  0  0  0  0  0  0  0
   -2.1589    2.1550   -0.4575 C   0  0  0  0  0  0  0  0  0  0  0  0
   -3.9039   -3.3287   -0.3379 C   0  0  0  0  0  0  0  0  0  0  0  0
   -2.9577    3.1456   -1.0982 C   0  0  0  0  0  0  0  0  0  0  0  0
   -3.2328   -3.0721   -1.5131 C   0  0  0  0  0  0  0  0  0  0  0  0
   -4.3025    2.8594   -1.0149 C   0  0  0  0  0  0  0  0  0  0  0  0
    3.7230   -0.0550   -2.1660 H   0  0  0  0  0  0  0  0  0  0  0  0
    3.3035    2.4392    1.1681 H   0  0  0  0  0  0  0  0  0  0  0  0
    4.9625   -1.4215    1.7097 H   0  0  0  0  0  0  0  0  0  0  0  0
    3.2454   -1.5057    1.5123 H   0  0  0  0  0  0  0  0  0  0  0  0
    1.3816    0.2708   -1.8772 H   0  0  0  0  0  0  0  0  0  0  0  0
    1.6968   -1.3791   -1.4901 H   0  0  0  0  0  0  0  0  0  0  0  0
    3.6187    0.5015    2.7166 H   0  0  0  0  0  0  0  0  0  0  0  0
    5.0113    0.9319    1.7463 H   0  0  0  0  0  0  0  0  0  0  0  0
    1.3872    1.1307    1.9740 H   0  0  0  0  0  0  0  0  0  0  0  0
    1.0734    1.9764    0.4861 H   0  0  0  0  0  0  0  0  0  0  0  0
    1.4032   -1.0249    0.8491 H   0  0  0  0  0  0  0  0  0  0  0  0
    4.7739   -3.1839   -0.3269 H   0  0  0  0  0  0  0  0  0  0  0  0
    3.0543   -2.8423   -0.4757 H   0  0  0  0  0  0  0  0  0  0  0  0
    4.1251   -2.6033   -1.8677 H   0  0  0  0  0  0  0  0  0  0  0  0
    6.0926    0.2706   -0.3631 H   0  0  0  0  0  0  0  0  0  0  0  0
    6.4688   -1.4427   -0.1819 H   0  0  0  0  0  0  0  0  0  0  0  0
    5.9767   -0.8113   -1.7571 H   0  0  0  0  0  0  0  0  0  0  0  0
    3.6190    2.3112   -2.4375 H   0  0  0  0  0  0  0  0  0  0  0  0
    3.4680    3.3652   -1.0435 H   0  0  0  0  0  0  0  0  0  0  0  0
    2.0758    2.4088   -1.5720 H   0  0  0  0  0  0  0  0  0  0  0  0
   -2.7028   -0.8120    2.6473 H   0  0  0  0  0  0  0  0  0  0  0  0
   -4.1578   -2.3007    1.6103 H   0  0  0  0  0  0  0  0  0  0  0  0
   -1.0813    2.2086   -0.4146 H   0  0  0  0  0  0  0  0  0  0  0  0
   -4.5030   -4.2154   -0.1760 H   0  0  0  0  0  0  0  0  0  0  0  0
   -2.5660    4.0242   -1.5943 H   0  0  0  0  0  0  0  0  0  0  0  0
   -3.2036   -3.6844   -2.4034 H   0  0  0  0  0  0  0  0  0  0  0  0
   -5.1258    3.4369   -1.4112 H   0  0  0  0  0  0  0  0  0  0  0  0
  1 20  1  0  0  0  0
  1 26  1  0  0  0  0
  2 21  1  0  0  0  0
  2 27  1  0  0  0  0
  3 14  1  0  0  0  0
  3 18  1  0  0  0  0
  4 18  2  0  0  0  0
  5 19  1  0  0  0  0
  5 48  1  0  0  0  0
  6  7  1  0  0  0  0
  6  9  1  0  0  0  0
  6 17  1  0  0  0  0
  7  8  1  0  0  0  0
  7 11  1  0  0  0  0
  7 28  1  0  0  0  0
  8 10  1  0  0  0  0
  8 15  1  0  0  0  0
  8 16  1  0  0  0  0
  9 12  1  0  0  0  0
  9 13  1  0  0  0  0
  9 29  1  0  0  0  0
 10 12  1  0  0  0  0
 10 30  1  0  0  0  0
 10 31  1  0  0  0  0
 11 14  1  0  0  0  0
 11 32  1  0  0  0  0
 11 33  1  0  0  0  0
 12 34  1  0  0  0  0
 12 35  1  0  0  0  0
 13 14  1  0  0  0  0
 13 36  1  0  0  0  0
 13 37  1  0  0  0  0
 14 38  1  0  0  0  0
 15 39  1  0  0  0  0
 15 40  1  0  0  0  0
 15 41  1  0  0  0  0
 16 42  1  0  0  0  0
 16 43  1  0  0  0  0
 16 44  1  0  0  0  0
 17 45  1  0  0  0  0
 17 46  1  0  0  0  0
 17 47  1  0  0  0  0
 18 19  1  0  0  0  0
 19 20  1  0  0  0  0
 19 21  1  0  0  0  0
 20 22  2  0  0  0  0
 21 23  2  0  0  0  0
 22 24  1  0  0  0  0
 22 49  1  0  0  0  0
 23 25  1  0  0  0  0
 23 50  1  0  0  0  0
 24 26  2  0  0  0  0
 24 51  1  0  0  0  0
 25 27  2  0  0  0  0
 25 52  1  0  0  0  0
 26 53  1  0  0  0  0
 27 54  1  0  0  0  0
M  END
> <PUBCHEM_COMPOUND_CID>
4019

> <PUBCHEM_CONFORMER_RMSD>
1

> <PUBCHEM_CONFORMER_DIVERSEORDER>
19
335
175
129
322
223
303
107
149
224
384
378
161
350
301
339
242
153
253
232
347
268
159
273
53
319
294
166
345
385
324
256
278
209
369
29
79
142
252
389
258
90
97
357
361
230
337
233
291
377
380
356
349
211
375
269
8
328
181
313
325
141
80
297
383
124
91
381
140
376
204
341
292
388
136
312
243
31
190
125
251
305
282
293
359
164
391
59
396
163
295
360
179
83
279
362
112
249
216
30
176
289
20
364
205
235
316
36
103
370
135
184
145
333
318
342
317
250
118
332
280
203
22
334
392
43
225
222
368
58
199
298
276
206
245
71
355
148
11
105
331
300
207
241
215
35
26
81
394
343
379
237
162
14
76
138
270
358
152
6
326
254
25
183
363
336
239
168
244
348
264
99
48
351
327
247
201
373
212
2
272
57
5
390
236
171
193
263
144
308
87
217
187
352
382
4
194
281
96
288
374
231
238
366
114
315
321
55
182
307
128
246
314
367
158
218
277
197
346
371
52
68
255
88
386
311
33
67
17
372
229
143
208
47
267
340
120
330
304
213
302
134
284
387
329
287
354
9
113
202
174
210
309
271
70
27
299
320
121
261
248
177
365
126
259
198
191
132
221
275
89
260
285
323
85
195
180
185
395
290
227
56
122
45
228
77
274
353
110
49
137
147
344
32
265
116
133
266
240
86
82
72
42
214
64
196
219
18
172
66
226
13
34
111
296
73
188
155
286
15
257
44
262
283
23
156
119
46
306
108
51
200
12
186
139
92
310
170
106
102
69
173
220
189
93
160
63
393
74
98
338
127
109
65
37
151
192
78
54
234
94
16
165
21
95
10
3
154
40
101
50
104
60
1
28
61
123
100
178
7
131
117
84
75
62
146
157
38
24
150
39
115
167
130
41
169

> <PUBCHEM_MMFF94_PARTIAL_CHARGES>
27
1 -0.08
14 0.28
17 0.27
18 0.66
19 0.7
2 -0.08
20 -0.14
21 -0.14
22 -0.15
23 -0.15
24 -0.15
25 -0.15
26 -0.11
27 -0.11
3 -0.43
4 -0.57
48 0.4
49 0.15
5 -0.68
50 0.15
51 0.15
52 0.15
53 0.15
54 0.15
6 -0.81
7 0.27
9 0.27

> <PUBCHEM_EFFECTIVE_ROTOR_COUNT>
6.4

> <PUBCHEM_PHARMACOPHORE_FEATURES>
9
1 4 acceptor
1 5 acceptor
1 5 donor
1 6 cation
3 8 15 16 hydrophobe
5 1 20 22 24 26 rings
5 2 21 23 25 27 rings
6 6 7 8 9 10 12 rings
6 6 7 9 11 13 14 rings

> <PUBCHEM_HEAVY_ATOM_COUNT>
27

> <PUBCHEM_ATOM_DEF_STEREO_COUNT>
0

> <PUBCHEM_ATOM_UDEF_STEREO_COUNT>
3

> <PUBCHEM_BOND_DEF_STEREO_COUNT>
0

> <PUBCHEM_BOND_UDEF_STEREO_COUNT>
0

> <PUBCHEM_ISOTOPIC_ATOM_COUNT>
0

> <PUBCHEM_COMPONENT_COUNT>
1

> <PUBCHEM_CACTVS_TAUTO_COUNT>
1

> <PUBCHEM_CONFORMER_ID>
00000FB300000013

> <PUBCHEM_MMFF94_ENERGY>
68.4451

> <PUBCHEM_FEATURE_SELFOVERLAP>
47.11

> <PUBCHEM_SHAPE_FINGERPRINT>
11405975 8 18335137609182601808
11513181 2 18271511010493624844
11552529 35 17822569404755465335
11578080 2 18041573429269036265
11796584 16 18337672052937890110
12373685 5 18120406308794512834
12422481 6 18190717822828330899
12714826 92 18114181878842969259
12788726 201 18199470961286265427
13224815 77 15936410018186477794
13583140 156 17967825928908420564
13690498 29 18338220609970502446
13944108 23 16542720651380052101
14251751 93 18412265068669392443
14289901 80 18341890753892440404
14910302 57 18334022670259073739
15131766 46 14979083935500544631
15788980 27 18407759252959846250
17349148 13 17346328059039055042
17492 89 18412261701420592998
17809404 112 17604451650907023890
1813 80 18048879590004885647
19958102 18 18261404364346983103
20775438 99 17539740899678242341
21033648 29 18191880121802694369
21065201 7 18410581681954554530
21709351 56 18413103957745084014
21864079 5 17774997977417659616
22393880 68 18410012156707116806
23557571 272 18263097568781891145
23559900 14 18187928421604432754
312423 11 18200589198839459844
32027 91 17898007082791132454
3298306 158 18193278722305055391
340366 18 18340484577173102276
3729539 64 17899418872578682351
4015057 19 17168444717401570721
44062 13 18409450314348829734
508706 21 18409731793757703799
5104073 3 17531239535516782778
633830 44 17632855321918068984
7164475 11 18340209578890873421
7399639 24 17756162093292905049

> <PUBCHEM_SHAPE_MULTIPOLES>
540.76
11.44
3.52
1.7
6.95
0.6
-0.49
1.33
1.62
-4.72
1.72
0.13
-0.04
0.45

> <PUBCHEM_SHAPE_SELFOVERLAP>
1138.448

> <PUBCHEM_SHAPE_VOLUME>
307.6

> <PUBCHEM_COORDINATE_TYPE>
2
5
10

$$$$

