441737
  -OEChem-07051212552D

 89 95  0     1  0  0  0  0  0999 V2000
    5.1114   -0.9129    0.0000 O   0  0  0  0  0  0  0  0  0  0  0  0
    6.6290   -2.0818    0.0000 O   0  0  0  0  0  0  0  0  0  0  0  0
    8.4517    1.6800    0.0000 O   0  0  0  0  0  0  0  0  0  0  0  0
    4.7352    1.4285    0.0000 O   0  0  0  0  0  0  0  0  0  0  0  0
    6.3264    2.9919    0.0000 O   0  0  0  0  0  0  0  0  0  0  0  0
    4.3224   -0.4717    0.0000 O   0  0  0  0  0  0  0  0  0  0  0  0
    4.3340    2.1380    0.0000 O   0  0  0  0  0  0  0  0  0  0  0  0
    9.3177   -2.5551    0.0000 O   0  0  0  0  0  0  0  0  0  0  0  0
    5.3075   -2.6339    0.0000 O   0  0  0  0  0  0  0  0  0  0  0  0
    3.5074    0.2068    0.0000 O   0  0  0  0  0  0  0  0  0  0  0  0
    9.6470   -0.1490    0.0000 N   0  0  3  0  0  0  0  0  0  0  0  0
    7.7003    0.2462    0.0000 C   0  0  1  0  0  0  0  0  0  0  0  0
    7.7003   -0.6213    0.0000 C   0  0  2  0  0  0  0  0  0  0  0  0
    7.0220    0.7872    0.0000 C   0  0  1  0  0  0  0  0  0  0  0  0
    8.7023    0.1402    0.0000 C   0  0  3  0  0  0  0  0  0  0  0  0
    6.1762   -0.9692    0.0000 C   0  0  1  0  0  0  0  0  0  0  0  0
    6.1762    0.5941    0.0000 C   0  0  1  0  0  0  0  0  0  0  0  0
    5.7998   -0.1876    0.0000 C   0  0  1  0  0  0  0  0  0  0  0  0
    7.0220   -1.1623    0.0000 C   0  0  2  0  0  0  0  0  0  0  0  0
    8.4516   -1.0551    0.0000 C   0  0  2  0  0  0  0  0  0  0  0  0
    8.4516    0.6800    0.0000 C   0  0  2  0  0  0  0  0  0  0  0  0
    7.0998    1.6512    0.0000 C   0  0  0  0  0  0  0  0  0  0  0  0
    6.3020    1.9922    0.0000 C   0  0  2  0  0  0  0  0  0  0  0  0
    5.7312    1.3389    0.0000 C   0  0  2  0  0  0  0  0  0  0  0  0
    5.1548    0.0824    0.0000 C   0  0  2  0  0  0  0  0  0  0  0  0
    9.6470   -0.9009    0.0000 C   0  0  0  0  0  0  0  0  0  0  0  0
    5.1548    1.5669    0.0000 C   0  0  2  0  0  0  0  0  0  0  0  0
    9.2030   -0.6213    0.0000 C   0  0  0  0  0  0  0  0  0  0  0  0
    9.2030    0.2462    0.0000 C   0  0  0  0  0  0  0  0  0  0  0  0
    8.4516   -2.0551    0.0000 C   0  0  0  0  0  0  0  0  0  0  0  0
   10.4509    0.4457    0.0000 C   0  0  0  0  0  0  0  0  0  0  0  0
    4.7126   -1.8300    0.0000 C   0  0  0  0  0  0  0  0  0  0  0  0
    7.2288   -2.8819    0.0000 C   0  0  0  0  0  0  0  0  0  0  0  0
    9.3177    2.1800    0.0000 C   0  0  0  0  0  0  0  0  0  0  0  0
    3.7686    1.1721    0.0000 C   0  0  0  0  0  0  0  0  0  0  0  0
    4.4181    3.1344    0.0000 C   0  0  0  0  0  0  0  0  0  0  0  0
    3.7191   -1.9432    0.0000 C   0  0  0  0  0  0  0  0  0  0  0  0
    9.3177   -3.5551    0.0000 C   0  0  0  0  0  0  0  0  0  0  0  0
    3.0633    1.8810    0.0000 C   0  0  0  0  0  0  0  0  0  0  0  0
    2.0967    1.6246    0.0000 C   0  0  0  0  0  0  0  0  0  0  0  0
    3.3245    2.8462    0.0000 C   0  0  0  0  0  0  0  0  0  0  0  0
    1.3914    2.3334    0.0000 C   0  0  0  0  0  0  0  0  0  0  0  0
    2.6192    3.5551    0.0000 C   0  0  0  0  0  0  0  0  0  0  0  0
    1.6526    3.2987    0.0000 C   0  0  0  0  0  0  0  0  0  0  0  0
    7.7638   -1.4690    0.0000 H   0  0  0  0  0  0  0  0  0  0  0  0
    7.8036    1.1212    0.0000 H   0  0  0  0  0  0  0  0  0  0  0  0
    8.8262    0.7477    0.0000 H   0  0  0  0  0  0  0  0  0  0  0  0
    5.6462   -1.6338    0.0000 H   0  0  0  0  0  0  0  0  0  0  0  0
    5.3270    0.5560    0.0000 H   0  0  0  0  0  0  0  0  0  0  0  0
    7.2224   -1.7490    0.0000 H   0  0  0  0  0  0  0  0  0  0  0  0
    7.9147    0.9900    0.0000 H   0  0  0  0  0  0  0  0  0  0  0  0
    7.2825    2.2437    0.0000 H   0  0  0  0  0  0  0  0  0  0  0  0
    7.7081    1.5314    0.0000 H   0  0  0  0  0  0  0  0  0  0  0  0
    5.5004    1.9143    0.0000 H   0  0  0  0  0  0  0  0  0  0  0  0
    4.6083    0.3751    0.0000 H   0  0  0  0  0  0  0  0  0  0  0  0
   10.2664   -0.8744    0.0000 H   0  0  0  0  0  0  0  0  0  0  0  0
    9.7000   -1.5186    0.0000 H   0  0  0  0  0  0  0  0  0  0  0  0
    5.2330    2.1819    0.0000 H   0  0  0  0  0  0  0  0  0  0  0  0
    9.8136   -0.5137    0.0000 H   0  0  0  0  0  0  0  0  0  0  0  0
    9.4150   -1.2040    0.0000 H   0  0  0  0  0  0  0  0  0  0  0  0
    9.4150    0.8288    0.0000 H   0  0  0  0  0  0  0  0  0  0  0  0
    9.8136    0.1386    0.0000 H   0  0  0  0  0  0  0  0  0  0  0  0
    8.2396   -2.6377    0.0000 H   0  0  0  0  0  0  0  0  0  0  0  0
    7.8411   -1.9475    0.0000 H   0  0  0  0  0  0  0  0  0  0  0  0
   10.0822    0.9441    0.0000 H   0  0  0  0  0  0  0  0  0  0  0  0
   10.9494    0.8144    0.0000 H   0  0  0  0  0  0  0  0  0  0  0  0
   10.8196   -0.0528    0.0000 H   0  0  0  0  0  0  0  0  0  0  0  0
    5.7972    3.3150    0.0000 H   0  0  0  0  0  0  0  0  0  0  0  0
    4.3618   -1.0904    0.0000 H   0  0  0  0  0  0  0  0  0  0  0  0
    7.7249   -2.5100    0.0000 H   0  0  0  0  0  0  0  0  0  0  0  0
    7.6007   -3.3780    0.0000 H   0  0  0  0  0  0  0  0  0  0  0  0
    6.7327   -3.2538    0.0000 H   0  0  0  0  0  0  0  0  0  0  0  0
    9.0077    2.7170    0.0000 H   0  0  0  0  0  0  0  0  0  0  0  0
    9.8546    2.4900    0.0000 H   0  0  0  0  0  0  0  0  0  0  0  0
    9.6277    1.6431    0.0000 H   0  0  0  0  0  0  0  0  0  0  0  0
    3.8003    3.1866    0.0000 H   0  0  0  0  0  0  0  0  0  0  0  0
    4.4703    3.7522    0.0000 H   0  0  0  0  0  0  0  0  0  0  0  0
    5.0359    3.0823    0.0000 H   0  0  0  0  0  0  0  0  0  0  0  0
    3.7894   -2.5593    0.0000 H   0  0  0  0  0  0  0  0  0  0  0  0
    3.1031   -2.0135    0.0000 H   0  0  0  0  0  0  0  0  0  0  0  0
    3.6489   -1.3272    0.0000 H   0  0  0  0  0  0  0  0  0  0  0  0
    9.9377   -3.5551    0.0000 H   0  0  0  0  0  0  0  0  0  0  0  0
    9.3177   -4.1751    0.0000 H   0  0  0  0  0  0  0  0  0  0  0  0
    8.6977   -3.5551    0.0000 H   0  0  0  0  0  0  0  0  0  0  0  0
    1.9348    1.0261    0.0000 H   0  0  0  0  0  0  0  0  0  0  0  0
    3.9238    3.0052    0.0000 H   0  0  0  0  0  0  0  0  0  0  0  0
    0.7921    2.1745    0.0000 H   0  0  0  0  0  0  0  0  0  0  0  0
    2.7812    4.1536    0.0000 H   0  0  0  0  0  0  0  0  0  0  0  0
    1.2153    3.7382    0.0000 H   0  0  0  0  0  0  0  0  0  0  0  0
 18  1  1  6  0  0  0
  1 32  1  0  0  0  0
 19  2  1  1  0  0  0
  2 33  1  0  0  0  0
 21  3  1  1  0  0  0
  3 34  1  0  0  0  0
 24  4  1  1  0  0  0
  4 35  1  0  0  0  0
 23  5  1  6  0  0  0
  5 68  1  0  0  0  0
 25  6  1  1  0  0  0
  6 69  1  0  0  0  0
 27  7  1  6  0  0  0
  7 36  1  0  0  0  0
  8 30  1  0  0  0  0
  8 38  1  0  0  0  0
  9 32  2  0  0  0  0
 10 35  2  0  0  0  0
 11 15  1  0  0  0  0
 11 26  1  0  0  0  0
 11 31  1  0  0  0  0
 12 13  1  0  0  0  0
 12 14  1  0  0  0  0
 12 15  1  0  0  0  0
 12 21  1  6  0  0  0
 13 19  1  0  0  0  0
 13 20  1  0  0  0  0
 13 45  1  6  0  0  0
 14 17  1  0  0  0  0
 14 22  1  0  0  0  0
 14 46  1  6  0  0  0
 15 16  1  0  0  0  0
 15 47  1  0  0  0  0
 16 18  1  0  0  0  0
 16 19  1  0  0  0  0
 16 48  1  1  0  0  0
 17 18  1  0  0  0  0
 17 24  1  0  0  0  0
 17 49  1  6  0  0  0
 18 25  1  0  0  0  0
 19 50  1  0  0  0  0
 20 26  1  0  0  0  0
 20 28  1  0  0  0  0
 20 30  1  6  0  0  0
 21 29  1  0  0  0  0
 21 51  1  0  0  0  0
 22 23  1  0  0  0  0
 22 52  1  0  0  0  0
 22 53  1  0  0  0  0
 23 24  1  0  0  0  0
 23 27  1  0  0  0  0
 24 54  1  0  0  0  0
 25 27  1  0  0  0  0
 25 55  1  0  0  0  0
 26 56  1  0  0  0  0
 26 57  1  0  0  0  0
 27 58  1  0  0  0  0
 28 29  1  0  0  0  0
 28 59  1  0  0  0  0
 28 60  1  0  0  0  0
 29 61  1  0  0  0  0
 29 62  1  0  0  0  0
 30 63  1  0  0  0  0
 30 64  1  0  0  0  0
 31 65  1  0  0  0  0
 31 66  1  0  0  0  0
 31 67  1  0  0  0  0
 32 37  1  0  0  0  0
 33 70  1  0  0  0  0
 33 71  1  0  0  0  0
 33 72  1  0  0  0  0
 34 73  1  0  0  0  0
 34 74  1  0  0  0  0
 34 75  1  0  0  0  0
 35 39  1  0  0  0  0
 36 76  1  0  0  0  0
 36 77  1  0  0  0  0
 36 78  1  0  0  0  0
 37 79  1  0  0  0  0
 37 80  1  0  0  0  0
 37 81  1  0  0  0  0
 38 82  1  0  0  0  0
 38 83  1  0  0  0  0
 38 84  1  0  0  0  0
 39 40  2  0  0  0  0
 39 41  1  0  0  0  0
 40 42  1  0  0  0  0
 40 85  1  0  0  0  0
 41 43  2  0  0  0  0
 41 86  1  0  0  0  0
 42 44  2  0  0  0  0
 42 87  1  0  0  0  0
 43 44  1  0  0  0  0
 43 88  1  0  0  0  0
 44 89  1  0  0  0  0
M  END
> <PUBCHEM_COMPOUND_CID>
441737

> <PUBCHEM_COMPOUND_CANONICALIZED>
1

> <PUBCHEM_CACTVS_COMPLEXITY>
1160

> <PUBCHEM_CACTVS_HBOND_ACCEPTOR>
11

> <PUBCHEM_CACTVS_HBOND_DONOR>
2

> <PUBCHEM_CACTVS_ROTATABLE_BOND>
10

> <PUBCHEM_CACTVS_SUBSKEYS>
AAADcfB+PAAAAAAAAAAAAAAAAAAAAYMAAAA8YMGCB4gWAGABAAAAHgAACAAAD3zhmAYyCIMABgCIAiDSCAACAAAkAAAIiAEICMgJNjKAtRiGcQAnwAGLqYf4+P+PgAAAAAAAAADSAAaUADSAAaEADSAAAA==

> <PUBCHEM_IUPAC_INCHI>
InChI=1S/C33H45NO10/c1-17(35)44-33-21-19(14-31(38,28(42-6)26(33)36)27(21)43-29(37)18-10-8-7-9-11-18)32-20(40-4)12-13-30(16-39-3)15-34(2)25(32)22(33)23(41-5)24(30)32/h7-11,19-28,36,38H,12-16H2,1-6H3/t19-,20+,21-,22+,23+,24-,25?,26+,27-,28+,30+,31-,32+,33-/m1/s1

> <PUBCHEM_IUPAC_INCHIKEY>
FIDOCHXHMJHKRW-VHQVDBNASA-N

> <PUBCHEM_XLOGP3_AA>
0.9

> <PUBCHEM_EXACT_MASS>
615.304347

> <PUBCHEM_MOLECULAR_FORMULA>
C33H45NO10

> <PUBCHEM_MOLECULAR_WEIGHT>
615.7111

> <PUBCHEM_OPENEYE_CAN_SMILES>
CC(=O)OC12C3C(CC(C3OC(=O)C4=CC=CC=C4)(C(C1O)OC)O)C56C(CCC7(C5C(C2C6N(C7)C)OC)COC)OC

> <PUBCHEM_OPENEYE_ISO_SMILES>
CC(=O)O[C@@]12[C@@H]3[C@@H](C[C@@]([C@@H]3OC(=O)C4=CC=CC=C4)([C@H]([C@@H]1O)OC)O)[C@]56[C@H](CC[C@@]7([C@H]5[C@H]([C@H]2C6N(C7)C)OC)COC)OC

> <PUBCHEM_CACTVS_TPSA>
133

> <PUBCHEM_MONOISOTOPIC_WEIGHT>
615.304347

> <PUBCHEM_TOTAL_CHARGE>
0

> <PUBCHEM_HEAVY_ATOM_COUNT>
44

> <PUBCHEM_ATOM_DEF_STEREO_COUNT>
13

> <PUBCHEM_ATOM_UDEF_STEREO_COUNT>
1

> <PUBCHEM_BOND_DEF_STEREO_COUNT>
0

> <PUBCHEM_BOND_UDEF_STEREO_COUNT>
0

> <PUBCHEM_ISOTOPIC_ATOM_COUNT>
0

> <PUBCHEM_COMPONENT_COUNT>
1

> <PUBCHEM_CACTVS_TAUTO_COUNT>
1

> <PUBCHEM_COORDINATE_TYPE>
1
5
255

> <PUBCHEM_BONDANNOTATIONS>
18  1  6
15  11  3
12  21  6
13  45  6
14  46  6
16  48  5
17  49  6
19  2  5
20  30  6
21  3  5
39  40  8
39  41  8
24  4  5
40  42  8
41  43  8
42  44  8
43  44  8
23  5  6
25  6  5
27  7  6

$$$$

