3038
  -OEChem-07051212533D

 22 22  0     0  0  0  0  0  0999 V2000
    2.7868   -1.8478   -0.0005 Cl  0  0  0  0  0  0  0  0  0  0  0  0
    0.1858   -3.7158   -0.0511 Cl  0  0  0  0  0  0  0  0  0  0  0  0
    2.4008    1.3229    0.1003 S   0  0  0  0  0  0  0  0  0  0  0  0
   -2.9653    0.6503    0.1005 S   0  0  0  0  0  0  0  0  0  0  0  0
    1.9639    2.5689    0.7089 O   0  0  0  0  0  0  0  0  0  0  0  0
    3.5476    0.6106    0.6399 O   0  0  0  0  0  0  0  0  0  0  0  0
   -3.8878   -0.3385    0.6407 O   0  0  0  0  0  0  0  0  0  0  0  0
   -2.8829    1.9708    0.7089 O   0  0  0  0  0  0  0  0  0  0  0  0
    2.6424    1.5749   -1.5708 N   0  0  0  0  0  0  0  0  0  0  0  0
   -3.2712    0.8345   -1.5704 N   0  0  0  0  0  0  0  0  0  0  0  0
    1.0357    0.2227    0.0706 C   0  0  0  0  0  0  0  0  0  0  0  0
   -1.3651   -0.0475    0.0708 C   0  0  0  0  0  0  0  0  0  0  0  0
   -0.2427    0.7803    0.0927 C   0  0  0  0  0  0  0  0  0  0  0  0
    1.1917   -1.1627    0.0270 C   0  0  0  0  0  0  0  0  0  0  0  0
   -1.2091   -1.4330    0.0272 C   0  0  0  0  0  0  0  0  0  0  0  0
    0.0693   -1.9905    0.0053 C   0  0  0  0  0  0  0  0  0  0  0  0
   -0.3721    1.8588    0.1097 H   0  0  0  0  0  0  0  0  0  0  0  0
   -2.0814   -2.0818    0.0032 H   0  0  0  0  0  0  0  0  0  0  0  0
    2.3945    2.4946   -1.9556 H   0  0  0  0  0  0  0  0  0  0  0  0
    3.4754    1.1552   -2.0014 H   0  0  0  0  0  0  0  0  0  0  0  0
   -3.9658    0.2111   -1.9995 H   0  0  0  0  0  0  0  0  0  0  0  0
   -3.2770    1.7884   -1.9517 H   0  0  0  0  0  0  0  0  0  0  0  0
  1 14  1  0  0  0  0
  2 16  1  0  0  0  0
  3  5  2  0  0  0  0
  3  6  2  0  0  0  0
  3  9  1  0  0  0  0
  3 11  1  0  0  0  0
  4  7  2  0  0  0  0
  4  8  2  0  0  0  0
  4 10  1  0  0  0  0
  4 12  1  0  0  0  0
  9 19  1  0  0  0  0
  9 20  1  0  0  0  0
 10 21  1  0  0  0  0
 10 22  1  0  0  0  0
 11 13  1  0  0  0  0
 11 14  2  0  0  0  0
 12 13  2  0  0  0  0
 12 15  1  0  0  0  0
 13 17  1  0  0  0  0
 14 16  1  0  0  0  0
 15 16  2  0  0  0  0
 15 18  1  0  0  0  0
M  END
> <PUBCHEM_COMPOUND_CID>
3038

> <PUBCHEM_CONFORMER_RMSD>
0.6

> <PUBCHEM_CONFORMER_DIVERSEORDER>
1
2
4
3

> <PUBCHEM_MMFF94_PARTIAL_CHARGES>
22
1 -0.18
10 -0.98
11 -0.01
12 -0.01
13 -0.15
14 0.18
15 -0.15
16 0.18
17 0.15
18 0.15
19 0.42
2 -0.18
20 0.42
21 0.42
22 0.42
3 1.45
4 1.45
5 -0.65
6 -0.65
7 -0.65
8 -0.65
9 -0.98

> <PUBCHEM_EFFECTIVE_ROTOR_COUNT>
2

> <PUBCHEM_PHARMACOPHORE_FEATURES>
7
1 10 donor
1 5 acceptor
1 6 acceptor
1 7 acceptor
1 8 acceptor
1 9 donor
6 11 12 13 14 15 16 rings

> <PUBCHEM_HEAVY_ATOM_COUNT>
16

> <PUBCHEM_ATOM_DEF_STEREO_COUNT>
0

> <PUBCHEM_ATOM_UDEF_STEREO_COUNT>
0

> <PUBCHEM_BOND_DEF_STEREO_COUNT>
0

> <PUBCHEM_BOND_UDEF_STEREO_COUNT>
0

> <PUBCHEM_ISOTOPIC_ATOM_COUNT>
0

> <PUBCHEM_COMPONENT_COUNT>
1

> <PUBCHEM_CACTVS_TAUTO_COUNT>
1

> <PUBCHEM_CONFORMER_ID>
00000BDE00000001

> <PUBCHEM_MMFF94_ENERGY>
8.5346

> <PUBCHEM_FEATURE_SELFOVERLAP>
35.556

> <PUBCHEM_SHAPE_FINGERPRINT>
1 1 18410857706443894335
10608611 8 18341614871190138873
10967382 1 18409449219311400458
12553582 1 17329145183768922203
13140716 1 18411136956648716387
13380535 21 18340194190086517418
13380535 76 18409170974102708002
14251717 144 18337400442730463975
15219456 202 18272090534746679557
15309172 13 18337664227163994611
15775835 57 18269833125648047216
16945 1 18049719624940331962
18186145 218 18337104661185886023
193761 8 18265615377432171858
20510252 161 17830168009070903424
20511035 2 18200581532397163482
20645476 183 18129086832604234678
20645477 70 18339651152234502775
20671657 1 18412257325038244260
21041028 32 17329139685993927563
21501502 16 18338801096132935494
21524375 3 18342740680475452483
21639500 275 18337968868951758669
2334 1 18339360760267498855
23419403 2 14111389113188059115
23557571 272 17612300858412435804
23598291 2 17896044415426425573
25 1 18339920523365476286
2748010 2 18340761572435781623
305870 269 18410577326651857857
3071541 158 18126845125789654118
3091708 16 9264184263548084034
350125 39 18340478985094137843
352729 6 18265615381489580426
458136 41 18195499632666156723
633830 44 18041270011351733101
7364860 26 18264488566791536067
7832392 63 17757550033776094993
81228 2 17619912755646418963

> <PUBCHEM_SHAPE_MULTIPOLES>
307.27
5.53
3.23
0.94
2.74
2.24
-0.33
-2.59
-0.02
-1.59
0.09
0.12
-0.41
-0.02

> <PUBCHEM_SHAPE_SELFOVERLAP>
600.966

> <PUBCHEM_SHAPE_VOLUME>
187.1

> <PUBCHEM_COORDINATE_TYPE>
2
5
10

$$$$

