17396356
  -OEChem-06241222563D

 52 54  0     1  0  0  0  0  0999 V2000
   -6.4183    3.7904    0.6831 Cl  0  0  0  0  0  0  0  0  0  0  0  0
    6.8948    3.6843   -1.0577 F   0  0  0  0  0  0  0  0  0  0  0  0
    6.4716    1.9854   -2.3476 F   0  0  0  0  0  0  0  0  0  0  0  0
    6.0385    1.8293   -0.1304 O   0  0  0  0  0  0  0  0  0  0  0  0
   -2.3454    1.5374    2.1698 O   0  0  0  0  0  0  0  0  0  0  0  0
   -4.4999   -1.3359   -1.4478 O   0  0  0  0  0  0  0  0  0  0  0  0
    0.0819   -0.0663    0.9298 N   0  0  0  0  0  0  0  0  0  0  0  0
   -3.0170   -0.0435    0.5694 N   0  0  0  0  0  0  0  0  0  0  0  0
    1.2524   -0.9427    1.1790 C   0  0  2  0  0  0  0  0  0  0  0  0
    2.5441   -0.1960    0.8262 C   0  0  0  0  0  0  0  0  0  0  0  0
    1.1560   -2.2825    0.5306 C   0  0  0  0  0  0  0  0  0  0  0  0
   -1.0094   -0.4382    1.8046 C   0  0  0  0  0  0  0  0  0  0  0  0
    2.8272    0.1165   -0.5034 C   0  0  0  0  0  0  0  0  0  0  0  0
    3.4351    0.1722    1.8343 C   0  0  0  0  0  0  0  0  0  0  0  0
    1.7746   -3.3869    1.1165 C   0  0  0  0  0  0  0  0  0  0  0  0
    0.4466   -2.4312   -0.6613 C   0  0  0  0  0  0  0  0  0  0  0  0
   -2.1907    0.4846    1.5592 C   0  0  0  0  0  0  0  0  0  0  0  0
    4.0015    0.7973   -0.8250 C   0  0  0  0  0  0  0  0  0  0  0  0
    4.6093    0.8528    1.5128 C   0  0  0  0  0  0  0  0  0  0  0  0
    4.8924    1.1655    0.1833 C   0  0  0  0  0  0  0  0  0  0  0  0
    1.6843   -4.6400    0.5103 C   0  0  0  0  0  0  0  0  0  0  0  0
    0.3562   -3.6844   -1.2673 C   0  0  0  0  0  0  0  0  0  0  0  0
    0.9751   -4.7887   -0.6814 C   0  0  0  0  0  0  0  0  0  0  0  0
   -4.2134    0.5118    0.0564 C   0  0  0  0  0  0  0  0  0  0  0  0
   -4.9314   -0.1457   -0.9426 C   0  0  0  0  0  0  0  0  0  0  0  0
   -4.6731    1.7291    0.5593 C   0  0  0  0  0  0  0  0  0  0  0  0
   -6.1089    0.4140   -1.4386 C   0  0  0  0  0  0  0  0  0  0  0  0
   -5.8505    2.2886    0.0630 C   0  0  0  0  0  0  0  0  0  0  0  0
   -6.5684    1.6311   -0.9358 C   0  0  0  0  0  0  0  0  0  0  0  0
    6.0126    2.6748   -1.2743 C   0  0  0  0  0  0  0  0  0  0  0  0
   -3.6276   -1.2827   -2.5745 C   0  0  0  0  0  0  0  0  0  0  0  0
    1.2956   -1.1137    2.2653 H   0  0  0  0  0  0  0  0  0  0  0  0
    0.3402    0.8990    1.1398 H   0  0  0  0  0  0  0  0  0  0  0  0
   -1.3224   -1.4789    1.6600 H   0  0  0  0  0  0  0  0  0  0  0  0
   -0.7337   -0.3270    2.8609 H   0  0  0  0  0  0  0  0  0  0  0  0
    2.1469   -0.1550   -1.3052 H   0  0  0  0  0  0  0  0  0  0  0  0
    3.2294   -0.0628    2.8751 H   0  0  0  0  0  0  0  0  0  0  0  0
    2.3315   -3.2859    2.0443 H   0  0  0  0  0  0  0  0  0  0  0  0
   -0.0387   -1.5910   -1.1502 H   0  0  0  0  0  0  0  0  0  0  0  0
    4.1967    1.0004   -1.8737 H   0  0  0  0  0  0  0  0  0  0  0  0
    5.2996    1.1372    2.3023 H   0  0  0  0  0  0  0  0  0  0  0  0
    2.1665   -5.4997    0.9661 H   0  0  0  0  0  0  0  0  0  0  0  0
   -0.1944   -3.8000   -2.1963 H   0  0  0  0  0  0  0  0  0  0  0  0
    0.9051   -5.7643   -1.1536 H   0  0  0  0  0  0  0  0  0  0  0  0
   -2.7464   -0.9304    0.1503 H   0  0  0  0  0  0  0  0  0  0  0  0
   -4.1667    2.2895    1.3319 H   0  0  0  0  0  0  0  0  0  0  0  0
   -6.6739   -0.0929   -2.2163 H   0  0  0  0  0  0  0  0  0  0  0  0
   -7.4877    2.0552   -1.3318 H   0  0  0  0  0  0  0  0  0  0  0  0
    5.0364    3.1241   -1.4882 H   0  0  0  0  0  0  0  0  0  0  0  0
   -3.3361   -2.3051   -2.8302 H   0  0  0  0  0  0  0  0  0  0  0  0
   -2.7238   -0.7105   -2.3422 H   0  0  0  0  0  0  0  0  0  0  0  0
   -4.1410   -0.8399   -3.4338 H   0  0  0  0  0  0  0  0  0  0  0  0
  1 28  1  0  0  0  0
  2 30  1  0  0  0  0
  3 30  1  0  0  0  0
  4 20  1  0  0  0  0
  4 30  1  0  0  0  0
  5 17  2  0  0  0  0
  6 25  1  0  0  0  0
  6 31  1  0  0  0  0
  7  9  1  0  0  0  0
  7 12  1  0  0  0  0
  7 33  1  0  0  0  0
  8 17  1  0  0  0  0
  8 24  1  0  0  0  0
  8 45  1  0  0  0  0
  9 10  1  0  0  0  0
  9 11  1  0  0  0  0
  9 32  1  0  0  0  0
 10 13  2  0  0  0  0
 10 14  1  0  0  0  0
 11 15  2  0  0  0  0
 11 16  1  0  0  0  0
 12 17  1  0  0  0  0
 12 34  1  0  0  0  0
 12 35  1  0  0  0  0
 13 18  1  0  0  0  0
 13 36  1  0  0  0  0
 14 19  2  0  0  0  0
 14 37  1  0  0  0  0
 15 21  1  0  0  0  0
 15 38  1  0  0  0  0
 16 22  2  0  0  0  0
 16 39  1  0  0  0  0
 18 20  2  0  0  0  0
 18 40  1  0  0  0  0
 19 20  1  0  0  0  0
 19 41  1  0  0  0  0
 21 23  2  0  0  0  0
 21 42  1  0  0  0  0
 22 23  1  0  0  0  0
 22 43  1  0  0  0  0
 23 44  1  0  0  0  0
 24 25  2  0  0  0  0
 24 26  1  0  0  0  0
 25 27  1  0  0  0  0
 26 28  2  0  0  0  0
 26 46  1  0  0  0  0
 27 29  2  0  0  0  0
 27 47  1  0  0  0  0
 28 29  1  0  0  0  0
 29 48  1  0  0  0  0
 30 49  1  0  0  0  0
 31 50  1  0  0  0  0
 31 51  1  0  0  0  0
 31 52  1  0  0  0  0
M  END
> <PUBCHEM_COMPOUND_CID>
17396356

> <PUBCHEM_CONFORMER_RMSD>
1

> <PUBCHEM_CONFORMER_DIVERSEORDER>
2
17
41
5
44
45
46
20
32
14
19
40
34
7
18
11
9
22
33
6
23
39
13
31
21
42
47
29
3
37
38
1
15
16
10
36
28
26
30
43
12
8
4
24
35
27
25

> <PUBCHEM_MMFF94_PARTIAL_CHARGES>
45
1 -0.18
10 -0.14
11 -0.14
12 0.33
13 -0.15
14 -0.15
15 -0.15
16 -0.15
17 0.57
18 -0.15
19 -0.15
2 -0.34
20 0.08
21 -0.15
22 -0.15
23 -0.15
24 0.12
25 0.08
26 -0.15
27 -0.15
28 0.18
29 -0.15
3 -0.34
30 0.96
31 0.28
33 0.36
36 0.15
37 0.15
38 0.15
39 0.15
4 -0.36
40 0.15
41 0.15
42 0.15
43 0.15
44 0.15
45 0.37
46 0.15
47 0.15
48 0.15
5 -0.57
6 -0.36
7 -0.9
8 -0.55
9 0.56

> <PUBCHEM_EFFECTIVE_ROTOR_COUNT>
10

> <PUBCHEM_PHARMACOPHORE_FEATURES>
9
1 4 acceptor
1 5 acceptor
1 6 acceptor
1 7 cation
1 7 donor
1 8 donor
6 10 13 14 18 19 20 rings
6 11 15 16 21 22 23 rings
6 24 25 26 27 28 29 rings

> <PUBCHEM_HEAVY_ATOM_COUNT>
31

> <PUBCHEM_ATOM_DEF_STEREO_COUNT>
0

> <PUBCHEM_ATOM_UDEF_STEREO_COUNT>
1

> <PUBCHEM_BOND_DEF_STEREO_COUNT>
0

> <PUBCHEM_BOND_UDEF_STEREO_COUNT>
0

> <PUBCHEM_ISOTOPIC_ATOM_COUNT>
0

> <PUBCHEM_COMPONENT_COUNT>
1

> <PUBCHEM_CACTVS_TAUTO_COUNT>
2

> <PUBCHEM_CONFORMER_ID>
0109728400000002

> <PUBCHEM_MMFF94_ENERGY>
103.6438

> <PUBCHEM_FEATURE_SELFOVERLAP>
45.669

> <PUBCHEM_SHAPE_FINGERPRINT>
10369192 42 18271796879226912783
10721379 63 18119240916278469298
10759866 29 18114753740959395079
10906281 52 18201711881921793209
12788726 201 16444198685103430825
13782708 43 5761650378074903857
13911987 19 18337386054569248504
14251764 30 7420950859068322616
15439362 3 18341046428000264322
15803439 3 17895183377710876174
17899979 129 18339913930722903064
19309040 13 18337664313211091997
19841028 212 9438244647603955681
21033648 144 17775292616542661045
22393880 68 17531828878207300027
23522609 53 17751347594928325505
2748736 6 17988365862809983388
2838139 119 17917720110210151660
3004659 81 17825962691324111531
4058900 60 18411980273456271315
42767 28 17167577198068284325
46194498 28 18124881411202948423
504843 32 18058163934508851154
7970288 3 8430325623222124468

> <PUBCHEM_SHAPE_MULTIPOLES>
597.72
17.33
5.28
2.02
7.99
4.65
-0.34
-23.61
-7.16
-5.44
-1.32
-0.43
-0.26
-4.15

> <PUBCHEM_SHAPE_SELFOVERLAP>
1268.331

> <PUBCHEM_SHAPE_VOLUME>
334

> <PUBCHEM_COORDINATE_TYPE>
2
5
10

$$$$

