17396127
  -OEChem-06241222543D

 39 41  0     0  0  0  0  0  0999 V2000
    2.5580    1.5234    0.3234 S   0  0  0  0  0  0  0  0  0  0  0  0
    7.5559    0.0567    0.2836 O   0  0  0  0  0  0  0  0  0  0  0  0
   -0.7931   -1.6003   -0.6053 O   0  0  0  0  0  0  0  0  0  0  0  0
   -7.5451    0.6747    0.2300 O   0  0  0  0  0  0  0  0  0  0  0  0
    0.1935    0.4709   -0.0634 N   0  0  0  0  0  0  0  0  0  0  0  0
    2.1262   -0.9467   -0.2806 N   0  0  0  0  0  0  0  0  0  0  0  0
   -5.7319   -0.8274    0.3487 N   0  0  0  0  0  0  0  0  0  0  0  0
    3.9313    0.4928    0.1653 C   0  0  0  0  0  0  0  0  0  0  0  0
    3.5003   -0.7963   -0.1619 C   0  0  0  0  0  0  0  0  0  0  0  0
   -2.2444    0.1919   -0.3007 C   0  0  0  0  0  0  0  0  0  0  0  0
    1.5364    0.2025   -0.0469 C   0  0  0  0  0  0  0  0  0  0  0  0
    5.2921    0.8028    0.3202 C   0  0  0  0  0  0  0  0  0  0  0  0
    4.4676   -1.8095   -0.3395 C   0  0  0  0  0  0  0  0  0  0  0  0
    6.2288   -0.2180    0.1387 C   0  0  0  0  0  0  0  0  0  0  0  0
   -4.6254   -0.0357    0.0394 C   0  0  0  0  0  0  0  0  0  0  0  0
   -3.3500   -0.5998    0.0097 C   0  0  0  0  0  0  0  0  0  0  0  0
   -0.8849   -0.4083   -0.3322 C   0  0  0  0  0  0  0  0  0  0  0  0
    5.8241   -1.5079   -0.1868 C   0  0  0  0  0  0  0  0  0  0  0  0
   -2.4141    1.5478   -0.5815 C   0  0  0  0  0  0  0  0  0  0  0  0
   -4.7952    1.3200   -0.2415 C   0  0  0  0  0  0  0  0  0  0  0  0
   -3.6894    2.1117   -0.5519 C   0  0  0  0  0  0  0  0  0  0  0  0
   -7.0770   -0.4422    0.4252 C   0  0  0  0  0  0  0  0  0  0  0  0
    7.9067    1.3978    0.6177 C   0  0  0  0  0  0  0  0  0  0  0  0
   -7.9705   -1.6009    0.7904 C   0  0  0  0  0  0  0  0  0  0  0  0
    5.5503    1.8237    0.5745 H   0  0  0  0  0  0  0  0  0  0  0  0
    4.1624   -2.8205   -0.5940 H   0  0  0  0  0  0  0  0  0  0  0  0
   -3.2234   -1.6565    0.2347 H   0  0  0  0  0  0  0  0  0  0  0  0
   -0.0198    1.4329    0.1830 H   0  0  0  0  0  0  0  0  0  0  0  0
    6.5622   -2.2938   -0.3254 H   0  0  0  0  0  0  0  0  0  0  0  0
   -1.5859    2.1923   -0.8599 H   0  0  0  0  0  0  0  0  0  0  0  0
   -5.7497    1.8273   -0.2402 H   0  0  0  0  0  0  0  0  0  0  0  0
   -3.8217    3.1659   -0.7782 H   0  0  0  0  0  0  0  0  0  0  0  0
   -5.5260   -1.8055    0.5413 H   0  0  0  0  0  0  0  0  0  0  0  0
    7.6178    2.0994   -0.1722 H   0  0  0  0  0  0  0  0  0  0  0  0
    7.5105    1.6866    1.5972 H   0  0  0  0  0  0  0  0  0  0  0  0
    8.9985    1.4363    0.6929 H   0  0  0  0  0  0  0  0  0  0  0  0
   -7.6615   -2.0194    1.7524 H   0  0  0  0  0  0  0  0  0  0  0  0
   -7.9079   -2.3731    0.0185 H   0  0  0  0  0  0  0  0  0  0  0  0
   -9.0065   -1.2597    0.8691 H   0  0  0  0  0  0  0  0  0  0  0  0
  1  8  1  0  0  0  0
  1 11  1  0  0  0  0
  2 14  1  0  0  0  0
  2 23  1  0  0  0  0
  3 17  2  0  0  0  0
  4 22  2  0  0  0  0
  5 11  1  0  0  0  0
  5 17  1  0  0  0  0
  5 28  1  0  0  0  0
  6  9  1  0  0  0  0
  6 11  2  0  0  0  0
  7 15  1  0  0  0  0
  7 22  1  0  0  0  0
  7 33  1  0  0  0  0
  8  9  2  0  0  0  0
  8 12  1  0  0  0  0
  9 13  1  0  0  0  0
 10 16  2  0  0  0  0
 10 17  1  0  0  0  0
 10 19  1  0  0  0  0
 12 14  2  0  0  0  0
 12 25  1  0  0  0  0
 13 18  2  0  0  0  0
 13 26  1  0  0  0  0
 14 18  1  0  0  0  0
 15 16  1  0  0  0  0
 15 20  2  0  0  0  0
 16 27  1  0  0  0  0
 18 29  1  0  0  0  0
 19 21  2  0  0  0  0
 19 30  1  0  0  0  0
 20 21  1  0  0  0  0
 20 31  1  0  0  0  0
 21 32  1  0  0  0  0
 22 24  1  0  0  0  0
 23 34  1  0  0  0  0
 23 35  1  0  0  0  0
 23 36  1  0  0  0  0
 24 37  1  0  0  0  0
 24 38  1  0  0  0  0
 24 39  1  0  0  0  0
M  END
> <PUBCHEM_COMPOUND_CID>
17396127

> <PUBCHEM_CONFORMER_RMSD>
0.8

> <PUBCHEM_CONFORMER_DIVERSEORDER>
2
13
19
12
21
3
11
5
10
20
7
14
4
23
18
16
22
17
6
1
15
8
9

> <PUBCHEM_MMFF94_PARTIAL_CHARGES>
33
1 -0.08
10 0.09
11 0.44
12 -0.15
13 -0.15
14 0.08
15 0.12
16 -0.15
17 0.54
18 -0.15
19 -0.15
2 -0.36
20 -0.15
21 -0.15
22 0.57
23 0.28
24 0.06
25 0.15
26 0.15
27 0.15
28 0.37
29 0.15
3 -0.57
30 0.15
31 0.15
32 0.15
33 0.37
4 -0.57
5 -0.49
6 -0.57
7 -0.55
8 0.04
9 0.23

> <PUBCHEM_EFFECTIVE_ROTOR_COUNT>
6

> <PUBCHEM_PHARMACOPHORE_FEATURES>
8
1 2 acceptor
1 3 acceptor
1 4 acceptor
1 5 donor
1 7 donor
5 1 6 8 9 11 rings
6 10 15 16 19 20 21 rings
6 8 9 12 13 14 18 rings

> <PUBCHEM_HEAVY_ATOM_COUNT>
24

> <PUBCHEM_ATOM_DEF_STEREO_COUNT>
0

> <PUBCHEM_ATOM_UDEF_STEREO_COUNT>
0

> <PUBCHEM_BOND_DEF_STEREO_COUNT>
0

> <PUBCHEM_BOND_UDEF_STEREO_COUNT>
0

> <PUBCHEM_ISOTOPIC_ATOM_COUNT>
0

> <PUBCHEM_COMPONENT_COUNT>
1

> <PUBCHEM_CACTVS_TAUTO_COUNT>
6

> <PUBCHEM_CONFORMER_ID>
0109719F00000002

> <PUBCHEM_MMFF94_ENERGY>
73.8708

> <PUBCHEM_FEATURE_SELFOVERLAP>
40.666

> <PUBCHEM_SHAPE_FINGERPRINT>
10 15 18341334418679226656
106641 1 18411981329970285482
11315181 36 15913319191930145865
11524674 6 17022621962499453535
11638347 137 17704079512856264090
11646440 116 17749108889593790408
12166972 35 18411134731798024168
12516196 113 18334859428910335904
13073987 5 18337955700640051216
13533116 47 15719671065442823854
13685833 64 18411417323460144986
13885169 127 18342176704858414013
14170010 4 18408042897243538832
14251764 18 18333169461793806309
14251764 46 18410856559639796080
14341114 176 18408602573893615556
14849402 71 18041278768695384120
14933364 13 18408603677510338912
15183329 4 17167867486539399848
15716309 27 18334296478729944471
16120349 18 18335707092251317648
17844677 252 18411975888347441900
18335252 98 18410571781859875034
18608769 82 18411420579246211859
20281389 69 18411421717823884848
21095123 145 15430320179710306327
21130935 74 18338515360485539466
21150785 3 13542462056076545451
21267235 1 18411414020677890676
21315759 40 16272210795073570186
21315763 28 18343584066656274028
21623969 137 18114177561921016463
220451 1 15791738520202969142
22224240 67 16917351420267127610
232437 2 18341894104943052842
23559900 14 18272091552870550961
3383291 50 17703500009745898331
34797466 226 17676201365253116724
3545911 37 18333453140610998644
4073 2 18201716211633878042
4325135 7 18412262826453533189
4340502 62 17561368396771021498
5104073 3 18336834207237870576
542803 24 16008753519797243980
9996256 80 18409730664423767567

> <PUBCHEM_SHAPE_MULTIPOLES>
465.21
23.85
1.8
0.73
5.53
0.13
-0.02
-2.36
-5.45
0.16
0.12
0.16
0.01
1.52

> <PUBCHEM_SHAPE_SELFOVERLAP>
995.934

> <PUBCHEM_SHAPE_VOLUME>
259.1

> <PUBCHEM_COORDINATE_TYPE>
2
5
10

$$$$

