147279
  -OEChem-07051213033D

 44 48  0     0  0  0  0  0  0999 V2000
   -5.3465    1.7025    0.4081 O   0  0  0  0  0  0  0  0  0  0  0  0
   -6.2471   -0.5171    0.1671 O   0  0  0  0  0  0  0  0  0  0  0  0
    4.2499    1.6317    0.0299 O   0  0  0  0  0  0  0  0  0  0  0  0
    2.0097    2.5458   -0.4429 O   0  0  0  0  0  0  0  0  0  0  0  0
    5.7852   -0.5675    0.4365 O   0  0  0  0  0  0  0  0  0  0  0  0
    0.0311    1.3203   -0.4373 N   0  0  0  0  0  0  0  0  0  0  0  0
   -0.6522    0.0647   -0.2004 C   0  0  0  0  0  0  0  0  0  0  0  0
    0.1588   -1.1007   -0.1347 C   0  0  0  0  0  0  0  0  0  0  0  0
   -2.0939   -0.0559   -0.0821 C   0  0  0  0  0  0  0  0  0  0  0  0
    1.6282   -0.9906   -0.0125 C   0  0  0  0  0  0  0  0  0  0  0  0
    2.2379    0.2660   -0.0681 C   0  0  0  0  0  0  0  0  0  0  0  0
   -2.6730   -1.3640   -0.1398 C   0  0  0  0  0  0  0  0  0  0  0  0
    1.4238    1.4689   -0.3220 C   0  0  0  0  0  0  0  0  0  0  0  0
   -0.4730   -2.3548   -0.1816 C   0  0  0  0  0  0  0  0  0  0  0  0
   -3.0178    1.0045    0.1493 C   0  0  0  0  0  0  0  0  0  0  0  0
   -1.8551   -2.4827   -0.2219 C   0  0  0  0  0  0  0  0  0  0  0  0
   -4.0642   -1.5743   -0.0887 C   0  0  0  0  0  0  0  0  0  0  0  0
   -4.3795    0.7660    0.2070 C   0  0  0  0  0  0  0  0  0  0  0  0
    3.6294    0.4156    0.0790 C   0  0  0  0  0  0  0  0  0  0  0  0
    2.4767   -2.0965    0.2099 C   0  0  0  0  0  0  0  0  0  0  0  0
   -4.8915   -0.4913    0.0765 C   0  0  0  0  0  0  0  0  0  0  0  0
   -0.6757    2.4824   -0.9618 C   0  0  0  0  0  0  0  0  0  0  0  0
    4.4378   -0.6950    0.2903 C   0  0  0  0  0  0  0  0  0  0  0  0
    3.8605   -1.9532    0.3559 C   0  0  0  0  0  0  0  0  0  0  0  0
   -6.5321    0.8820    0.3703 C   0  0  0  0  0  0  0  0  0  0  0  0
    4.3963    2.3306    1.2626 C   0  0  0  0  0  0  0  0  0  0  0  0
    6.5762   -0.6373   -0.7488 C   0  0  0  0  0  0  0  0  0  0  0  0
    0.0941   -3.2811   -0.1972 H   0  0  0  0  0  0  0  0  0  0  0  0
   -2.6956    2.0207    0.3315 H   0  0  0  0  0  0  0  0  0  0  0  0
   -2.2785   -3.4848   -0.2669 H   0  0  0  0  0  0  0  0  0  0  0  0
   -4.4891   -2.5726   -0.1532 H   0  0  0  0  0  0  0  0  0  0  0  0
    2.0879   -3.1076    0.2901 H   0  0  0  0  0  0  0  0  0  0  0  0
   -1.4990    2.1888   -1.6177 H   0  0  0  0  0  0  0  0  0  0  0  0
   -0.0045    3.0917   -1.5778 H   0  0  0  0  0  0  0  0  0  0  0  0
   -1.0008    3.1123   -0.1298 H   0  0  0  0  0  0  0  0  0  0  0  0
    4.4743   -2.8337    0.5267 H   0  0  0  0  0  0  0  0  0  0  0  0
   -7.1763    1.2319   -0.4445 H   0  0  0  0  0  0  0  0  0  0  0  0
   -7.0691    0.9970    1.3188 H   0  0  0  0  0  0  0  0  0  0  0  0
    5.1930    1.8750    1.8587 H   0  0  0  0  0  0  0  0  0  0  0  0
    3.4642    2.3366    1.8371 H   0  0  0  0  0  0  0  0  0  0  0  0
    4.6766    3.3638    1.0399 H   0  0  0  0  0  0  0  0  0  0  0  0
    7.6249   -0.5063   -0.4687 H   0  0  0  0  0  0  0  0  0  0  0  0
    6.2980    0.1592   -1.4460 H   0  0  0  0  0  0  0  0  0  0  0  0
    6.4612   -1.6143   -1.2287 H   0  0  0  0  0  0  0  0  0  0  0  0
  1 18  1  0  0  0  0
  1 25  1  0  0  0  0
  2 21  1  0  0  0  0
  2 25  1  0  0  0  0
  3 19  1  0  0  0  0
  3 26  1  0  0  0  0
  4 13  2  0  0  0  0
  5 23  1  0  0  0  0
  5 27  1  0  0  0  0
  6  7  1  0  0  0  0
  6 13  1  0  0  0  0
  6 22  1  0  0  0  0
  7  8  2  0  0  0  0
  7  9  1  0  0  0  0
  8 10  1  0  0  0  0
  8 14  1  0  0  0  0
  9 12  1  0  0  0  0
  9 15  2  0  0  0  0
 10 11  2  0  0  0  0
 10 20  1  0  0  0  0
 11 13  1  0  0  0  0
 11 19  1  0  0  0  0
 12 16  1  0  0  0  0
 12 17  2  0  0  0  0
 14 16  2  0  0  0  0
 14 28  1  0  0  0  0
 15 18  1  0  0  0  0
 15 29  1  0  0  0  0
 16 30  1  0  0  0  0
 17 21  1  0  0  0  0
 17 31  1  0  0  0  0
 18 21  2  0  0  0  0
 19 23  2  0  0  0  0
 20 24  2  0  0  0  0
 20 32  1  0  0  0  0
 22 33  1  0  0  0  0
 22 34  1  0  0  0  0
 22 35  1  0  0  0  0
 23 24  1  0  0  0  0
 24 36  1  0  0  0  0
 25 37  1  0  0  0  0
 25 38  1  0  0  0  0
 26 39  1  0  0  0  0
 26 40  1  0  0  0  0
 26 41  1  0  0  0  0
 27 42  1  0  0  0  0
 27 43  1  0  0  0  0
 27 44  1  0  0  0  0
M  END
> <PUBCHEM_COMPOUND_CID>
147279

> <PUBCHEM_CONFORMER_RMSD>
0.6

> <PUBCHEM_CONFORMER_DIVERSEORDER>
3
2
1
4

> <PUBCHEM_MMFF94_PARTIAL_CHARGES>
29
1 -0.36
11 0.09
13 0.54
14 -0.15
15 -0.15
16 -0.15
17 -0.15
18 0.08
19 0.08
2 -0.36
20 -0.15
21 0.08
22 0.3
23 0.08
24 -0.15
25 0.56
26 0.28
27 0.28
28 0.15
29 0.15
3 -0.36
30 0.15
31 0.15
32 0.15
36 0.15
4 -0.57
5 -0.36
6 -0.48
7 0.12

> <PUBCHEM_EFFECTIVE_ROTOR_COUNT>
2.6

> <PUBCHEM_PHARMACOPHORE_FEATURES>
10
1 1 acceptor
1 2 acceptor
1 3 acceptor
1 4 acceptor
1 5 acceptor
5 1 2 18 21 25 rings
6 10 11 19 20 23 24 rings
6 6 7 8 10 11 13 rings
6 7 8 9 12 14 16 rings
6 9 12 15 17 18 21 rings

> <PUBCHEM_HEAVY_ATOM_COUNT>
27

> <PUBCHEM_ATOM_DEF_STEREO_COUNT>
0

> <PUBCHEM_ATOM_UDEF_STEREO_COUNT>
0

> <PUBCHEM_BOND_DEF_STEREO_COUNT>
0

> <PUBCHEM_BOND_UDEF_STEREO_COUNT>
0

> <PUBCHEM_ISOTOPIC_ATOM_COUNT>
0

> <PUBCHEM_COMPONENT_COUNT>
1

> <PUBCHEM_CACTVS_TAUTO_COUNT>
1

> <PUBCHEM_CONFORMER_ID>
00023F4F00000003

> <PUBCHEM_MMFF94_ENERGY>
127.95

> <PUBCHEM_FEATURE_SELFOVERLAP>
50.989

> <PUBCHEM_SHAPE_FINGERPRINT>
10411042 1 17978511163571087626
10688039 33 17775285014503502829
10906281 52 18270664438069534750
1100329 8 18411981317153987803
11089746 13 17894636945657874640
11578080 2 17315091969234660346
12011746 2 18411416232691608198
12107183 9 17760082221907948123
12166972 35 18261109655948363929
12236239 1 18113620067203399031
12403259 415 18343029903562739269
12553582 1 18342472438720092766
12788726 201 17531234076212481441
12838862 33 18340223954215030060
13140716 1 18340488855145047562
13402501 40 18411982485348143071
13785724 45 17760084420721414730
14341114 176 18410851049518554329
14617045 38 18341890818586241590
14790565 3 18411978061563580685
15196674 1 18410575046050753167
15238133 3 18202272611086660382
1601671 61 18410012160643258062
16087824 20 18269273629080980013
1813 80 17132398314995103924
18681886 176 18261398827564302707
19141452 34 18409169887439052535
19591789 44 18268713998667104222
20511986 3 18261407623994655349
20642791 178 17841709604530487004
20691752 17 17703242719402579882
21033648 144 18339936921824796167
21033648 29 17489321797390104237
21267235 1 18411975880068535702
21304253 335 18410853231087731765
21421861 104 18059871600921123098
21792934 111 18269290095367673889
21859007 373 17773619259146847205
22182313 1 18059030478187832477
23402539 116 18333456434819435415
23522609 53 18055605495679316588
23559900 14 18261678090944007752
23569917 315 18335696131632591383
24771293 8 18191037712166785408
3004659 81 18413669115295844824
335352 9 18410573989937152750
3411729 13 18190186690114159048
34797466 226 17168136798163505533
34934 24 18338802217013670894
350125 39 18411138065245916652
3545911 37 18410009944455892603
3633792 109 18337400422205368837
3680242 22 18270400615028583562
4017518 198 17531240678231648990
4073 2 18130220459199928282
4093350 32 17095522886429836316
4214541 1 18410293605887331611
5104073 3 18340491079637609202
6328613 192 18340478985611089796
9777508 108 17907868648970896004
9981440 41 17261029918753065361

> <PUBCHEM_SHAPE_MULTIPOLES>
521.32
14.09
2.74
0.77
3.68
0.32
-0.02
1.27
-1.83
-0.85
0.06
-0.39
0.23
0.09

> <PUBCHEM_SHAPE_SELFOVERLAP>
1185.485

> <PUBCHEM_SHAPE_VOLUME>
271.9

> <PUBCHEM_COORDINATE_TYPE>
2
5
10

$$$$

