467797
  -OEChem-07051213092D

 62 65  0     1  0  0  0  0  0999 V2000
    8.1223   -2.0159    0.0000 O   0  0  0  0  0  0  0  0  0  0  0  0
    9.1740   -0.0237    0.0000 O   0  0  0  0  0  0  0  0  0  0  0  0
    5.5103    1.5125    0.0000 O   0  0  0  0  0  0  0  0  0  0  0  0
    8.6855    1.8935    0.0000 O   0  0  0  0  0  0  0  0  0  0  0  0
    7.2762    2.5503    0.0000 O   0  0  0  0  0  0  0  0  0  0  0  0
    4.6497    1.0156    0.0000 O   0  0  0  0  0  0  0  0  0  0  0  0
    9.8438   -2.0487    0.0000 O   0  0  0  0  0  0  0  0  0  0  0  0
    2.8680    0.0052    0.0000 O   0  0  0  0  0  0  0  0  0  0  0  0
    7.2641   -0.5190    0.0000 C   0  0  2  0  0  0  0  0  0  0  0  0
    6.3981   -0.0190    0.0000 C   0  0  1  0  0  0  0  0  0  0  0  0
    5.5320   -0.5190    0.0000 C   0  0  1  0  0  0  0  0  0  0  0  0
    8.1741   -0.0122    0.0000 C   0  0  1  0  0  0  0  0  0  0  0  0
    7.2641   -1.5190    0.0000 C   0  0  1  0  0  0  0  0  0  0  0  0
    5.5320   -1.5190    0.0000 C   0  0  1  0  0  0  0  0  0  0  0  0
    6.3820    1.0225    0.0000 C   0  0  1  0  0  0  0  0  0  0  0  0
    8.1821    1.0294    0.0000 C   0  0  1  0  0  0  0  0  0  0  0  0
    6.3981   -2.0190    0.0000 C   0  0  0  0  0  0  0  0  0  0  0  0
    7.2800    1.5503    0.0000 C   0  0  2  0  0  0  0  0  0  0  0  0
    7.2641    0.4810    0.0000 C   0  0  0  0  0  0  0  0  0  0  0  0
    9.0134   -0.5404    0.0000 C   0  0  0  0  0  0  0  0  0  0  0  0
    4.6381   -2.0537    0.0000 C   0  0  1  0  0  0  0  0  0  0  0  0
    5.5320    0.4810    0.0000 C   0  0  0  0  0  0  0  0  0  0  0  0
    4.6381    0.0157    0.0000 C   0  0  0  0  0  0  0  0  0  0  0  0
    9.1821    1.0256    0.0000 C   0  0  0  0  0  0  0  0  0  0  0  0
    8.9878   -1.5318    0.0000 C   0  0  0  0  0  0  0  0  0  0  0  0
    3.7320   -1.5398    0.0000 C   0  0  0  0  0  0  0  0  0  0  0  0
    3.7320   -0.4982    0.0000 C   0  0  0  0  0  0  0  0  0  0  0  0
    4.6497   -3.0536    0.0000 C   0  0  0  0  0  0  0  0  0  0  0  0
    8.1403    3.0536    0.0000 C   0  0  0  0  0  0  0  0  0  0  0  0
    2.0000   -0.4915    0.0000 C   0  0  0  0  0  0  0  0  0  0  0  0
    7.1309    0.4117    0.0000 H   0  0  0  0  0  0  0  0  0  0  0  0
    7.2636   -2.3690    0.0000 H   0  0  0  0  0  0  0  0  0  0  0  0
    5.5386   -2.3690    0.0000 H   0  0  0  0  0  0  0  0  0  0  0  0
    5.8493    0.7053    0.0000 H   0  0  0  0  0  0  0  0  0  0  0  0
    5.9995   -2.4939    0.0000 H   0  0  0  0  0  0  0  0  0  0  0  0
    6.7966   -2.4939    0.0000 H   0  0  0  0  0  0  0  0  0  0  0  0
    6.7413    1.8572    0.0000 H   0  0  0  0  0  0  0  0  0  0  0  0
    7.8841    0.4810    0.0000 H   0  0  0  0  0  0  0  0  0  0  0  0
    7.2641    1.1010    0.0000 H   0  0  0  0  0  0  0  0  0  0  0  0
    6.6441    0.4810    0.0000 H   0  0  0  0  0  0  0  0  0  0  0  0
    9.6205   -0.6663    0.0000 H   0  0  0  0  0  0  0  0  0  0  0  0
    9.2452    0.0347    0.0000 H   0  0  0  0  0  0  0  0  0  0  0  0
    4.1042   -2.3688    0.0000 H   0  0  0  0  0  0  0  0  0  0  0  0
    6.1520    0.4810    0.0000 H   0  0  0  0  0  0  0  0  0  0  0  0
    5.5320    1.1010    0.0000 H   0  0  0  0  0  0  0  0  0  0  0  0
    4.9120    0.4810    0.0000 H   0  0  0  0  0  0  0  0  0  0  0  0
    9.1797    0.4056    0.0000 H   0  0  0  0  0  0  0  0  0  0  0  0
    9.8021    1.0232    0.0000 H   0  0  0  0  0  0  0  0  0  0  0  0
    9.1845    1.6456    0.0000 H   0  0  0  0  0  0  0  0  0  0  0  0
    9.4902    0.5096    0.0000 H   0  0  0  0  0  0  0  0  0  0  0  0
    3.1963   -1.8519    0.0000 H   0  0  0  0  0  0  0  0  0  0  0  0
    5.5031    2.1324    0.0000 H   0  0  0  0  0  0  0  0  0  0  0  0
    9.3055    1.8912    0.0000 H   0  0  0  0  0  0  0  0  0  0  0  0
    4.0297   -3.0608    0.0000 H   0  0  0  0  0  0  0  0  0  0  0  0
    4.6568   -3.6736    0.0000 H   0  0  0  0  0  0  0  0  0  0  0  0
    5.2696   -3.0464    0.0000 H   0  0  0  0  0  0  0  0  0  0  0  0
    8.4523    2.5178    0.0000 H   0  0  0  0  0  0  0  0  0  0  0  0
    8.6760    3.3657    0.0000 H   0  0  0  0  0  0  0  0  0  0  0  0
    7.8282    3.5893    0.0000 H   0  0  0  0  0  0  0  0  0  0  0  0
    1.6921    0.0466    0.0000 H   0  0  0  0  0  0  0  0  0  0  0  0
    1.4619   -0.7994    0.0000 H   0  0  0  0  0  0  0  0  0  0  0  0
    2.3079   -1.0296    0.0000 H   0  0  0  0  0  0  0  0  0  0  0  0
  1 13  1  0  0  0  0
  1 25  1  0  0  0  0
 12  2  1  1  0  0  0
  2 50  1  0  0  0  0
 15  3  1  6  0  0  0
  3 52  1  0  0  0  0
 16  4  1  1  0  0  0
  4 53  1  0  0  0  0
 18  5  1  1  0  0  0
  5 29  1  0  0  0  0
  6 23  2  0  0  0  0
  7 25  2  0  0  0  0
  8 27  1  0  0  0  0
  8 30  1  0  0  0  0
  9 10  1  0  0  0  0
  9 12  1  0  0  0  0
  9 13  1  0  0  0  0
  9 19  1  1  0  0  0
 10 11  1  0  0  0  0
 10 15  1  0  0  0  0
 10 31  1  6  0  0  0
 11 14  1  0  0  0  0
 11 22  1  1  0  0  0
 11 23  1  0  0  0  0
 12 16  1  0  0  0  0
 12 20  1  0  0  0  0
 13 17  1  0  0  0  0
 13 32  1  1  0  0  0
 14 17  1  0  0  0  0
 14 21  1  0  0  0  0
 14 33  1  6  0  0  0
 15 18  1  0  0  0  0
 15 34  1  0  0  0  0
 16 18  1  0  0  0  0
 16 24  1  0  0  0  0
 17 35  1  0  0  0  0
 17 36  1  0  0  0  0
 18 37  1  0  0  0  0
 19 38  1  0  0  0  0
 19 39  1  0  0  0  0
 19 40  1  0  0  0  0
 20 25  1  0  0  0  0
 20 41  1  0  0  0  0
 20 42  1  0  0  0  0
 21 26  1  0  0  0  0
 21 28  1  6  0  0  0
 21 43  1  0  0  0  0
 22 44  1  0  0  0  0
 22 45  1  0  0  0  0
 22 46  1  0  0  0  0
 23 27  1  0  0  0  0
 24 47  1  0  0  0  0
 24 48  1  0  0  0  0
 24 49  1  0  0  0  0
 26 27  2  0  0  0  0
 26 51  1  0  0  0  0
 28 54  1  0  0  0  0
 28 55  1  0  0  0  0
 28 56  1  0  0  0  0
 29 57  1  0  0  0  0
 29 58  1  0  0  0  0
 29 59  1  0  0  0  0
 30 60  1  0  0  0  0
 30 61  1  0  0  0  0
 30 62  1  0  0  0  0
M  END
> <PUBCHEM_COMPOUND_CID>
467797

> <PUBCHEM_COMPOUND_CANONICALIZED>
1

> <PUBCHEM_CACTVS_COMPLEXITY>
824

> <PUBCHEM_CACTVS_HBOND_ACCEPTOR>
8

> <PUBCHEM_CACTVS_HBOND_DONOR>
3

> <PUBCHEM_CACTVS_ROTATABLE_BOND>
2

> <PUBCHEM_CACTVS_SUBSKEYS>
AAADcfB4PAAAAAAAAAAAAAAAAAAAAAAAAAA0YIEAAAAAAADQAAAAGgAACAAAD1SggAICCAAABgCIAKDSCAIACAAgIAAACAFAAEgBEBYAAAQCQAAFoAALAYPK7PzPgAAAAAAAAADCAAYQADCAAAAAAAAAAA==

> <PUBCHEM_IUPAC_INCHI>
InChI=1S/C22H32O8/c1-10-7-12(28-5)17(25)19(2)11(10)8-13-20(3)16(19)15(24)18(29-6)21(4,26)22(20,27)9-14(23)30-13/h7,10-11,13,15-16,18,24,26-27H,8-9H2,1-6H3/t10-,11+,13-,15+,16-,18-,19+,20-,21-,22+/m1/s1

> <PUBCHEM_IUPAC_INCHIKEY>
WTMHOKZZJFYIGE-FCESQLEQSA-N

> <PUBCHEM_XLOGP3_AA>
0.2

> <PUBCHEM_EXACT_MASS>
424.209718

> <PUBCHEM_MOLECULAR_FORMULA>
C22H32O8

> <PUBCHEM_MOLECULAR_WEIGHT>
424.48468

> <PUBCHEM_OPENEYE_CAN_SMILES>
CC1C=C(C(=O)C2(C1CC3C4(C2C(C(C(C4(CC(=O)O3)O)(C)O)OC)O)C)C)OC

> <PUBCHEM_OPENEYE_ISO_SMILES>
C[C@@H]1C=C(C(=O)[C@]2([C@H]1C[C@@H]3[C@@]4([C@@H]2[C@@H]([C@H]([C@@]([C@@]4(CC(=O)O3)O)(C)O)OC)O)C)C)OC

> <PUBCHEM_CACTVS_TPSA>
123

> <PUBCHEM_MONOISOTOPIC_WEIGHT>
424.209718

> <PUBCHEM_TOTAL_CHARGE>
0

> <PUBCHEM_HEAVY_ATOM_COUNT>
30

> <PUBCHEM_ATOM_DEF_STEREO_COUNT>
10

> <PUBCHEM_ATOM_UDEF_STEREO_COUNT>
0

> <PUBCHEM_BOND_DEF_STEREO_COUNT>
0

> <PUBCHEM_BOND_UDEF_STEREO_COUNT>
0

> <PUBCHEM_ISOTOPIC_ATOM_COUNT>
0

> <PUBCHEM_COMPONENT_COUNT>
1

> <PUBCHEM_CACTVS_TAUTO_COUNT>
6

> <PUBCHEM_COORDINATE_TYPE>
1
5
255

> <PUBCHEM_BONDANNOTATIONS>
10  31  6
11  22  5
13  32  5
14  33  6
12  2  5
21  28  6
15  3  6
16  4  5
18  5  5
9  19  5

$$$$

