101977
  -OEChem-07051212583D

 31 30  0     1  0  0  0  0  0999 V2000
   -2.7488   -2.4125   -0.3375 O   0  0  0  0  0  0  0  0  0  0  0  0
   -1.2102    0.9778    0.3798 C   0  0  2  0  0  0  0  0  0  0  0  0
   -0.3346    1.9041   -0.4960 C   0  0  0  0  0  0  0  0  0  0  0  0
   -1.5923   -0.3151   -0.3650 C   0  0  0  0  0  0  0  0  0  0  0  0
    0.9345    1.2656   -1.0789 C   0  0  0  0  0  0  0  0  0  0  0  0
   -2.4540    1.7539    0.8309 C   0  0  0  0  0  0  0  0  0  0  0  0
   -2.4401   -1.2765    0.4611 C   0  0  0  0  0  0  0  0  0  0  0  0
    1.8997    0.8171   -0.0174 C   0  0  0  0  0  0  0  0  0  0  0  0
    2.4418   -0.4030    0.1585 C   0  0  0  0  0  0  0  0  0  0  0  0
    3.4048   -0.7833    1.2469 C   0  0  0  0  0  0  0  0  0  0  0  0
    2.0990   -1.5281   -0.7823 C   0  0  0  0  0  0  0  0  0  0  0  0
   -0.6410    0.7072    1.2781 H   0  0  0  0  0  0  0  0  0  0  0  0
   -0.0507    2.7865    0.0931 H   0  0  0  0  0  0  0  0  0  0  0  0
   -0.9372    2.2794   -1.3340 H   0  0  0  0  0  0  0  0  0  0  0  0
   -0.6994   -0.8602   -0.6835 H   0  0  0  0  0  0  0  0  0  0  0  0
   -2.1270   -0.0656   -1.2910 H   0  0  0  0  0  0  0  0  0  0  0  0
    0.6548    0.4862   -1.7881 H   0  0  0  0  0  0  0  0  0  0  0  0
    1.4472    2.0294   -1.6781 H   0  0  0  0  0  0  0  0  0  0  0  0
   -3.1247    1.9551   -0.0112 H   0  0  0  0  0  0  0  0  0  0  0  0
   -3.0140    1.2051    1.5938 H   0  0  0  0  0  0  0  0  0  0  0  0
   -2.1716    2.7149    1.2748 H   0  0  0  0  0  0  0  0  0  0  0  0
   -3.3863   -0.8321    0.7800 H   0  0  0  0  0  0  0  0  0  0  0  0
   -1.8960   -1.6166    1.3473 H   0  0  0  0  0  0  0  0  0  0  0  0
    2.1940    1.5966    0.6848 H   0  0  0  0  0  0  0  0  0  0  0  0
   -3.2604   -2.1025   -1.1042 H   0  0  0  0  0  0  0  0  0  0  0  0
    3.6058    0.0589    1.9173 H   0  0  0  0  0  0  0  0  0  0  0  0
    4.3595   -1.1058    0.8194 H   0  0  0  0  0  0  0  0  0  0  0  0
    2.9954   -1.6001    1.8498 H   0  0  0  0  0  0  0  0  0  0  0  0
    1.3890   -2.2117   -0.3054 H   0  0  0  0  0  0  0  0  0  0  0  0
    1.6914   -1.2173   -1.7448 H   0  0  0  0  0  0  0  0  0  0  0  0
    3.0039   -2.1003   -1.0194 H   0  0  0  0  0  0  0  0  0  0  0  0
  1  7  1  0  0  0  0
  1 25  1  0  0  0  0
  2  3  1  0  0  0  0
  2  4  1  0  0  0  0
  2  6  1  0  0  0  0
  2 12  1  0  0  0  0
  3  5  1  0  0  0  0
  3 13  1  0  0  0  0
  3 14  1  0  0  0  0
  4  7  1  0  0  0  0
  4 15  1  0  0  0  0
  4 16  1  0  0  0  0
  5  8  1  0  0  0  0
  5 17  1  0  0  0  0
  5 18  1  0  0  0  0
  6 19  1  0  0  0  0
  6 20  1  0  0  0  0
  6 21  1  0  0  0  0
  7 22  1  0  0  0  0
  7 23  1  0  0  0  0
  8  9  2  0  0  0  0
  8 24  1  0  0  0  0
  9 10  1  0  0  0  0
  9 11  1  0  0  0  0
 10 26  1  0  0  0  0
 10 27  1  0  0  0  0
 10 28  1  0  0  0  0
 11 29  1  0  0  0  0
 11 30  1  0  0  0  0
 11 31  1  0  0  0  0
M  END
> <PUBCHEM_COMPOUND_CID>
101977

> <PUBCHEM_CONFORMER_RMSD>
0.6

> <PUBCHEM_CONFORMER_DIVERSEORDER>
2
34
80
50
52
30
47
21
92
67
35
66
22
91
58
60
71
31
48
90
24
18
88
83
49
45
64
46
68
75
76
40
74
57
63
4
51
10
28
16
32
55
82
87
86
56
15
70
41
77
1
8
23
81
72
6
42
39
59
79
29
61
17
78
27
89
69
65
33
62
3
73
13
53
84
54
14
25
44
43
37
9
12
85
38
19
7
5
36
11
26
20

> <PUBCHEM_MMFF94_PARTIAL_CHARGES>
9
1 -0.68
10 0.14
11 0.14
24 0.15
25 0.4
5 0.14
7 0.28
8 -0.29
9 -0.28

> <PUBCHEM_EFFECTIVE_ROTOR_COUNT>
5

> <PUBCHEM_PHARMACOPHORE_FEATURES>
5
1 1 acceptor
1 1 donor
1 6 hydrophobe
3 9 10 11 hydrophobe
5 2 3 4 5 8 hydrophobe

> <PUBCHEM_HEAVY_ATOM_COUNT>
11

> <PUBCHEM_ATOM_DEF_STEREO_COUNT>
1

> <PUBCHEM_ATOM_UDEF_STEREO_COUNT>
0

> <PUBCHEM_BOND_DEF_STEREO_COUNT>
0

> <PUBCHEM_BOND_UDEF_STEREO_COUNT>
0

> <PUBCHEM_ISOTOPIC_ATOM_COUNT>
0

> <PUBCHEM_COMPONENT_COUNT>
1

> <PUBCHEM_CACTVS_TAUTO_COUNT>
1

> <PUBCHEM_CONFORMER_ID>
00018E5900000002

> <PUBCHEM_MMFF94_ENERGY>
11.667

> <PUBCHEM_FEATURE_SELFOVERLAP>
25.376

> <PUBCHEM_SHAPE_FINGERPRINT>
10149128 111 6338947888944329770
12382932 28 18335140950830818280
12932764 1 17845928641062289284
17834072 14 18196680452055991229
18342897 137 18267014140858421173
20201158 50 17913773816753873451
20361792 2 17274818090685289844
20645477 70 17907295451831745935
20724930 33 18341620321318865298
20871998 184 18259704510147127079
22926399 65 9151169896373398930
23500284 5 18340200783204111011
23532345 11 18334018323478006738
23552423 10 18054776300597142717
3086196 2 18334588922757535259
549884 4 10591770878392473774
6338986 31 18265904566264695471

> <PUBCHEM_SHAPE_MULTIPOLES>
220.51
5.09
2.36
1.06
1.47
0.63
-0.08
2.14
-1.54
-1.76
0.32
0.44
-0.06
-0.52

> <PUBCHEM_SHAPE_SELFOVERLAP>
400.524

> <PUBCHEM_SHAPE_VOLUME>
142.1

> <PUBCHEM_COORDINATE_TYPE>
2
5
10

$$$$

