440237
  -OEChem-07051212493D

 35 34  0     1  0  0  0  0  0999 V2000
   -1.9345   -1.9670   -1.2266 O   0  0  0  0  0  0  0  0  0  0  0  0
   -1.3785   -2.4569    0.9179 O   0  0  0  0  0  0  0  0  0  0  0  0
   -4.2614    0.5884   -1.3100 O   0  0  0  0  0  0  0  0  0  0  0  0
   -2.5613    2.0690   -1.0272 O   0  0  0  0  0  0  0  0  0  0  0  0
   -1.6491    0.4436    1.0574 N   0  0  0  0  0  0  0  0  0  0  0  0
    3.4616    0.4473   -0.2391 N   0  0  0  0  0  0  0  0  0  0  0  0
    5.6707   -0.3365    0.2860 N   0  0  0  0  0  0  0  0  0  0  0  0
    5.2554    1.8900    0.0310 N   0  0  0  0  0  0  0  0  0  0  0  0
   -0.8644   -0.2444    0.0353 C   0  0  1  0  0  0  0  0  0  0  0  0
    0.6271   -0.1928    0.3991 C   0  0  0  0  0  0  0  0  0  0  0  0
    1.4958   -0.9638   -0.6055 C   0  0  0  0  0  0  0  0  0  0  0  0
   -3.0641    0.4306    0.7181 C   0  0  1  0  0  0  0  0  0  0  0  0
    2.9759   -0.9335   -0.2378 C   0  0  0  0  0  0  0  0  0  0  0  0
   -1.3969   -1.6648   -0.0152 C   0  0  0  0  0  0  0  0  0  0  0  0
   -3.8614    1.1284    1.8116 C   0  0  0  0  0  0  0  0  0  0  0  0
   -3.2360    1.1393   -0.6085 C   0  0  0  0  0  0  0  0  0  0  0  0
    4.7212    0.6231    0.0136 C   0  0  0  0  0  0  0  0  0  0  0  0
   -0.9611    0.2109   -0.9561 H   0  0  0  0  0  0  0  0  0  0  0  0
    0.7840   -0.6204    1.3984 H   0  0  0  0  0  0  0  0  0  0  0  0
    0.9493    0.8549    0.4447 H   0  0  0  0  0  0  0  0  0  0  0  0
    1.3589   -0.5337   -1.6054 H   0  0  0  0  0  0  0  0  0  0  0  0
    1.1769   -2.0109   -0.6572 H   0  0  0  0  0  0  0  0  0  0  0  0
   -1.3189    1.4026    1.1635 H   0  0  0  0  0  0  0  0  0  0  0  0
   -3.4556   -0.5895    0.6428 H   0  0  0  0  0  0  0  0  0  0  0  0
    3.5253   -1.5314   -0.9750 H   0  0  0  0  0  0  0  0  0  0  0  0
    3.1126   -1.3877    0.7511 H   0  0  0  0  0  0  0  0  0  0  0  0
   -4.9299    1.1294    1.5684 H   0  0  0  0  0  0  0  0  0  0  0  0
   -3.7351    0.6251    2.7763 H   0  0  0  0  0  0  0  0  0  0  0  0
   -3.5568    2.1752    1.9282 H   0  0  0  0  0  0  0  0  0  0  0  0
   -2.2888   -2.8814   -1.2507 H   0  0  0  0  0  0  0  0  0  0  0  0
   -4.3880    1.0282   -2.1777 H   0  0  0  0  0  0  0  0  0  0  0  0
    5.4479   -1.3250    0.3159 H   0  0  0  0  0  0  0  0  0  0  0  0
    6.6348   -0.0802    0.4699 H   0  0  0  0  0  0  0  0  0  0  0  0
    6.2379    2.0488    0.2254 H   0  0  0  0  0  0  0  0  0  0  0  0
    4.6787    2.7039   -0.1523 H   0  0  0  0  0  0  0  0  0  0  0  0
  1 14  1  0  0  0  0
  1 30  1  0  0  0  0
  2 14  2  0  0  0  0
  3 16  1  0  0  0  0
  3 31  1  0  0  0  0
  4 16  2  0  0  0  0
  5  9  1  0  0  0  0
  5 12  1  0  0  0  0
  5 23  1  0  0  0  0
  6 13  1  0  0  0  0
  6 17  2  0  0  0  0
  7 17  1  0  0  0  0
  7 32  1  0  0  0  0
  7 33  1  0  0  0  0
  8 17  1  0  0  0  0
  8 34  1  0  0  0  0
  8 35  1  0  0  0  0
  9 10  1  0  0  0  0
  9 14  1  0  0  0  0
  9 18  1  0  0  0  0
 10 11  1  0  0  0  0
 10 19  1  0  0  0  0
 10 20  1  0  0  0  0
 11 13  1  0  0  0  0
 11 21  1  0  0  0  0
 11 22  1  0  0  0  0
 12 15  1  0  0  0  0
 12 16  1  0  0  0  0
 12 24  1  0  0  0  0
 13 25  1  0  0  0  0
 13 26  1  0  0  0  0
 15 27  1  0  0  0  0
 15 28  1  0  0  0  0
 15 29  1  0  0  0  0
M  END
> <PUBCHEM_COMPOUND_CID>
440237

> <PUBCHEM_CONFORMER_RMSD>
0.8

> <PUBCHEM_CONFORMER_DIVERSEORDER>
1
126
120
114
108
115
14
37
107
122
121
31
27
15
2
16
83
101
129
118
61
68
48
18
104
125
12
109
119
56
13
45
113
23
33
7
102
93
75
69
10
25
74
51
97
41
11
22
78
98
73
55
21
60
106
94
57
6
42
54
82
103
39
50
88
58
92
44
53
84
67
24
127
19
124
35
112
96
5
77
110
62
71
131
43
79
36
117
80
64
86
105
28
63
72
4
49
89
85
30
38
123
100
3
66
29
90
17
32
34
111
116
87
91
26
65
95
46
130
52
40
81
128
8
99
76
9
70
20
47
59

> <PUBCHEM_MMFF94_PARTIAL_CHARGES>
21
1 -0.65
12 0.33
13 0.25
14 0.66
16 0.66
17 0.55
2 -0.57
23 0.36
3 -0.65
30 0.5
31 0.5
32 0.4
33 0.4
34 0.4
35 0.4
4 -0.57
5 -0.9
6 -0.7
7 -0.85
8 -0.85
9 0.33

> <PUBCHEM_EFFECTIVE_ROTOR_COUNT>
8

> <PUBCHEM_PHARMACOPHORE_FEATURES>
11
1 1 acceptor
1 2 acceptor
1 3 acceptor
1 4 acceptor
1 5 cation
1 5 donor
1 7 donor
1 8 donor
3 1 2 14 anion
3 3 4 16 anion
4 6 7 8 17 cation

> <PUBCHEM_HEAVY_ATOM_COUNT>
17

> <PUBCHEM_ATOM_DEF_STEREO_COUNT>
1

> <PUBCHEM_ATOM_UDEF_STEREO_COUNT>
1

> <PUBCHEM_BOND_DEF_STEREO_COUNT>
0

> <PUBCHEM_BOND_UDEF_STEREO_COUNT>
0

> <PUBCHEM_ISOTOPIC_ATOM_COUNT>
0

> <PUBCHEM_COMPONENT_COUNT>
1

> <PUBCHEM_CACTVS_TAUTO_COUNT>
2

> <PUBCHEM_CONFORMER_ID>
0006B7AD00000001

> <PUBCHEM_MMFF94_ENERGY>
29.9145

> <PUBCHEM_FEATURE_SELFOVERLAP>
55.991

> <PUBCHEM_SHAPE_FINGERPRINT>
10014705 185 18412830166063951996
11405975 8 18408601470746650442
11543360 7 15647060369236054976
12596602 18 15554444072913545028
13214271 11 17132113554547596863
13583140 156 17489869349310996553
13675066 3 17561358504828004378
14123255 352 18341896277547580244
14123255 52 18272654584053772074
14897335 6 18408604785933875598
18186145 218 18190733322452490318
200 152 4750870446835491630
20300324 65 17022624186569396769
204376 136 18410288146577918011
20645477 56 18272085019897966862
20645477 70 17458897245656324374
22224240 67 18339345449710909179
23227448 37 18341610361084172788
23402539 116 18271534134428630447
23402655 69 16878501366225983825
23500284 214 18334284388064599594
23559900 14 18114457964142567374
2871803 45 7853576777618355044
3545911 37 18408878547491960550
4175511 318 18408039610875821039
5104073 3 18411139092117524226
633830 44 17897434219493294999

> <PUBCHEM_SHAPE_MULTIPOLES>
306.45
10.61
2
1.19
14.43
0.54
-0.1
-5.55
-0.24
-0.68
0.12
-1.7
-0.19
-0.02

> <PUBCHEM_SHAPE_SELFOVERLAP>
594.986

> <PUBCHEM_SHAPE_VOLUME>
183.2

> <PUBCHEM_COORDINATE_TYPE>
2
5
10

$$$$

