440769
  -OEChem-07051212503D

 17 16  0     1  0  0  0  0  0999 V2000
   -2.0636   -1.3702   -0.4837 O   0  0  0  0  0  0  0  0  0  0  0  0
   -2.3843    0.8753   -0.5965 O   0  0  0  0  0  0  0  0  0  0  0  0
    2.1236    1.5913   -0.5215 N   0  0  0  0  0  0  0  0  0  0  0  0
    2.1915   -1.7759    0.0298 N   0  0  0  0  0  0  0  0  0  0  0  0
    0.2035    0.9349    0.9057 C   0  0  0  0  0  0  0  0  0  0  0  0
    1.0801    0.5885   -0.3133 C   0  0  2  0  0  0  0  0  0  0  0  0
   -0.9719   -0.0111    1.1496 C   0  0  0  0  0  0  0  0  0  0  0  0
   -1.8808   -0.0985   -0.0510 C   0  0  0  0  0  0  0  0  0  0  0  0
    1.7019   -0.7343   -0.1190 C   0  0  0  0  0  0  0  0  0  0  0  0
    0.8186    0.9604    1.8157 H   0  0  0  0  0  0  0  0  0  0  0  0
   -0.1935    1.9508    0.7743 H   0  0  0  0  0  0  0  0  0  0  0  0
    0.4599    0.5646   -1.2164 H   0  0  0  0  0  0  0  0  0  0  0  0
   -0.6105   -1.0125    1.4085 H   0  0  0  0  0  0  0  0  0  0  0  0
   -1.5724    0.3348    1.9983 H   0  0  0  0  0  0  0  0  0  0  0  0
    1.6970    2.5098   -0.6374 H   0  0  0  0  0  0  0  0  0  0  0  0
    2.6188    1.3975   -1.3914 H   0  0  0  0  0  0  0  0  0  0  0  0
   -2.6459   -1.4087   -1.2722 H   0  0  0  0  0  0  0  0  0  0  0  0
  1  8  1  0  0  0  0
  1 17  1  0  0  0  0
  2  8  2  0  0  0  0
  3  6  1  0  0  0  0
  3 15  1  0  0  0  0
  3 16  1  0  0  0  0
  4  9  3  0  0  0  0
  5  6  1  0  0  0  0
  5  7  1  0  0  0  0
  5 10  1  0  0  0  0
  5 11  1  0  0  0  0
  6  9  1  0  0  0  0
  6 12  1  0  0  0  0
  7  8  1  0  0  0  0
  7 13  1  0  0  0  0
  7 14  1  0  0  0  0
M  END
> <PUBCHEM_COMPOUND_CID>
440769

> <PUBCHEM_CONFORMER_RMSD>
0.6

> <PUBCHEM_CONFORMER_DIVERSEORDER>
8
13
17
10
21
14
2
20
4
19
11
12
15
6
3
16
5
7
9
1
18

> <PUBCHEM_MMFF94_PARTIAL_CHARGES>
11
1 -0.65
15 0.36
16 0.36
17 0.5
2 -0.57
3 -0.99
4 -0.56
6 0.47
7 0.06
8 0.66
9 0.36

> <PUBCHEM_EFFECTIVE_ROTOR_COUNT>
3

> <PUBCHEM_PHARMACOPHORE_FEATURES>
6
1 1 acceptor
1 2 acceptor
1 3 cation
1 3 donor
1 4 acceptor
3 1 2 8 anion

> <PUBCHEM_HEAVY_ATOM_COUNT>
9

> <PUBCHEM_ATOM_DEF_STEREO_COUNT>
0

> <PUBCHEM_ATOM_UDEF_STEREO_COUNT>
1

> <PUBCHEM_BOND_DEF_STEREO_COUNT>
0

> <PUBCHEM_BOND_UDEF_STEREO_COUNT>
0

> <PUBCHEM_ISOTOPIC_ATOM_COUNT>
0

> <PUBCHEM_COMPONENT_COUNT>
1

> <PUBCHEM_CACTVS_TAUTO_COUNT>
1

> <PUBCHEM_CONFORMER_ID>
0006B9C100000008

> <PUBCHEM_MMFF94_ENERGY>
2.8546

> <PUBCHEM_FEATURE_SELFOVERLAP>
30.504

> <PUBCHEM_SHAPE_FINGERPRINT>
12897270 3 18196373606839377405
14128692 85 18333729139325175838
15310529 11 18411697647717923263
18185500 45 18260824938244834138
20653085 51 18130503153936677453
23235687 12 18201732729455222597
23552333 60 18186791474582684648
23552423 10 18412265034167086347
24536 1 17059763425807619725
29004967 10 18342731910315634496

> <PUBCHEM_SHAPE_MULTIPOLES>
163.52
3.44
1.58
0.93
0.42
0.29
0.21
0.52
-0.79
-0.81
-0.16
0.22
-0.15
-0.22

> <PUBCHEM_SHAPE_SELFOVERLAP>
306.939

> <PUBCHEM_SHAPE_VOLUME>
99.5

> <PUBCHEM_COORDINATE_TYPE>
2
5
10

$$$$

