10922550
  -OEChem-07051213153D

 45 44  0     0  0  0  0  0  0999 V2000
   -6.3606   -2.5130   -0.1328 O   0  0  0  0  0  0  0  0  0  0  0  0
   -1.4416    1.9381    0.3560 C   0  0  0  0  0  0  0  0  0  0  0  0
   -2.2942    0.6663    0.3114 C   0  0  0  0  0  0  0  0  0  0  0  0
    0.0530    1.6614    0.5347 C   0  0  0  0  0  0  0  0  0  0  0  0
   -3.7902    0.8761    0.0551 C   0  0  0  0  0  0  0  0  0  0  0  0
    0.8575    2.9656    0.5658 C   0  0  0  0  0  0  0  0  0  0  0  0
   -4.6287   -0.3994   -0.0578 C   0  0  0  0  0  0  0  0  0  0  0  0
    2.3648    2.7352    0.7143 C   0  0  0  0  0  0  0  0  0  0  0  0
   -6.0923   -0.1332   -0.3927 C   0  0  0  0  0  0  0  0  0  0  0  0
    2.9576    1.9813   -0.4418 C   0  0  0  0  0  0  0  0  0  0  0  0
   -6.8662   -1.4251   -0.3901 C   0  0  0  0  0  0  0  0  0  0  0  0
    3.5790    0.7991   -0.3172 C   0  0  0  0  0  0  0  0  0  0  0  0
    4.9443   -1.8109   -0.0016 C   0  0  0  0  0  0  0  0  0  0  0  0
    4.1437    0.0820   -1.4375 C   0  0  0  0  0  0  0  0  0  0  0  0
    3.8207   -2.8042    0.3068 C   0  0  0  0  0  0  0  0  0  0  0  0
    4.7652   -1.1004   -1.3133 C   0  0  0  0  0  0  0  0  0  0  0  0
    3.9882   -3.5188    1.6404 C   0  0  0  0  0  0  0  0  0  0  0  0
   -1.7965    2.5759    1.1748 H   0  0  0  0  0  0  0  0  0  0  0  0
   -1.5953    2.5008   -0.5730 H   0  0  0  0  0  0  0  0  0  0  0  0
   -2.1722    0.1242    1.2575 H   0  0  0  0  0  0  0  0  0  0  0  0
   -1.8990    0.0089   -0.4736 H   0  0  0  0  0  0  0  0  0  0  0  0
    0.3929    1.0226   -0.2882 H   0  0  0  0  0  0  0  0  0  0  0  0
    0.2165    1.1057    1.4659 H   0  0  0  0  0  0  0  0  0  0  0  0
   -4.2000    1.5012    0.8584 H   0  0  0  0  0  0  0  0  0  0  0  0
   -3.9042    1.4516   -0.8724 H   0  0  0  0  0  0  0  0  0  0  0  0
    0.6639    3.5386   -0.3500 H   0  0  0  0  0  0  0  0  0  0  0  0
    0.5132    3.5839    1.4039 H   0  0  0  0  0  0  0  0  0  0  0  0
   -4.1909   -1.0487   -0.8270 H   0  0  0  0  0  0  0  0  0  0  0  0
   -4.5547   -0.9483    0.8898 H   0  0  0  0  0  0  0  0  0  0  0  0
    2.8659    3.7085    0.7800 H   0  0  0  0  0  0  0  0  0  0  0  0
    2.5607    2.2191    1.6622 H   0  0  0  0  0  0  0  0  0  0  0  0
   -6.5467    0.5334    0.3472 H   0  0  0  0  0  0  0  0  0  0  0  0
   -6.1887    0.3234   -1.3826 H   0  0  0  0  0  0  0  0  0  0  0  0
    2.8748    2.4505   -1.4198 H   0  0  0  0  0  0  0  0  0  0  0  0
   -7.9385   -1.3385   -0.6341 H   0  0  0  0  0  0  0  0  0  0  0  0
    3.6326    0.3647    0.6749 H   0  0  0  0  0  0  0  0  0  0  0  0
    5.0868   -1.1185    0.8346 H   0  0  0  0  0  0  0  0  0  0  0  0
    5.8920   -2.3634   -0.0598 H   0  0  0  0  0  0  0  0  0  0  0  0
    4.0522    0.5249   -2.4255 H   0  0  0  0  0  0  0  0  0  0  0  0
    3.7657   -3.5547   -0.4915 H   0  0  0  0  0  0  0  0  0  0  0  0
    2.8565   -2.2811    0.3129 H   0  0  0  0  0  0  0  0  0  0  0  0
    5.1499   -1.5888   -2.2046 H   0  0  0  0  0  0  0  0  0  0  0  0
    4.9232   -4.0872    1.6629 H   0  0  0  0  0  0  0  0  0  0  0  0
    4.0014   -2.8019    2.4674 H   0  0  0  0  0  0  0  0  0  0  0  0
    3.1604   -4.2154    1.8055 H   0  0  0  0  0  0  0  0  0  0  0  0
  1 11  2  0  0  0  0
  2  3  1  0  0  0  0
  2  4  1  0  0  0  0
  2 18  1  0  0  0  0
  2 19  1  0  0  0  0
  3  5  1  0  0  0  0
  3 20  1  0  0  0  0
  3 21  1  0  0  0  0
  4  6  1  0  0  0  0
  4 22  1  0  0  0  0
  4 23  1  0  0  0  0
  5  7  1  0  0  0  0
  5 24  1  0  0  0  0
  5 25  1  0  0  0  0
  6  8  1  0  0  0  0
  6 26  1  0  0  0  0
  6 27  1  0  0  0  0
  7  9  1  0  0  0  0
  7 28  1  0  0  0  0
  7 29  1  0  0  0  0
  8 10  1  0  0  0  0
  8 30  1  0  0  0  0
  8 31  1  0  0  0  0
  9 11  1  0  0  0  0
  9 32  1  0  0  0  0
  9 33  1  0  0  0  0
 10 12  2  0  0  0  0
 10 34  1  0  0  0  0
 11 35  1  0  0  0  0
 12 14  1  0  0  0  0
 12 36  1  0  0  0  0
 13 15  1  0  0  0  0
 13 16  1  0  0  0  0
 13 37  1  0  0  0  0
 13 38  1  0  0  0  0
 14 16  2  0  0  0  0
 14 39  1  0  0  0  0
 15 17  1  0  0  0  0
 15 40  1  0  0  0  0
 15 41  1  0  0  0  0
 16 42  1  0  0  0  0
 17 43  1  0  0  0  0
 17 44  1  0  0  0  0
 17 45  1  0  0  0  0
M  END
> <PUBCHEM_COMPOUND_CID>
10922550

> <PUBCHEM_CONFORMER_RMSD>
1

> <PUBCHEM_CONFORMER_DIVERSEORDER>
3
301
87
256
339
257
205
286
351
68
188
206
349
278
47
127
201
270
120
26
81
98
128
371
82
287
274
95
53
252
7
249
379
251
30
48
334
102
199
79
129
347
42
88
74
267
237
368
177
370
271
24
303
284
36
304
148
374
115
377
230
358
162
307
246
245
309
340
63
310
313
254
50
142
183
19
61
130
84
292
70
135
211
192
97
4
315
44
240
189
171
72
161
25
107
294
219
100
261
16
325
367
380
20
215
37
64
62
131
151
9
13
322
125
86
34
275
305
124
197
67
247
22
223
116
273
363
229
264
122
317
165
195
194
14
355
174
121
332
364
35
238
168
141
369
69
175
283
39
344
248
326
186
255
118
10
159
38
221
318
299
330
60
111
295
353
234
1
31
343
2
45
49
306
76
321
356
110
290
101
269
96
376
178
373
66
360
218
5
43
147
77
71
93
350
104
136
375
357
106
18
209
85
75
169
259
160
253
109
80
143
179
167
23
311
320
319
28
216
285
29
263
139
333
231
164
32
342
302
154
145
296
83
279
331
112
157
312
133
137
314
217
354
40
73
196
336
56
228
335
105
54
233
280
242
352
239
140
323
163
27
361
225
92
346
41
207
200
17
126
8
288
250
204
268
146
258
328
89
149
91
327
144
227
184
103
57
241
372
150
359
316
244
265
308
33
15
236
114
378
153
90
365
119
46
222
12
232
78
117
166
341
155
123
187
181
11
276
220
366
212
226
108
6
198
172
291
191
113
260
345
52
55
282
152
173
289
300
202
362
262
329
208
138
190
203
132
297
158
224
235
59
176
182
58
65
51
170
324
338
193
214
337
243
180
277
213
94
99
348
272
210
156
134
21
266
281
298
185
293

> <PUBCHEM_MMFF94_PARTIAL_CHARGES>
14
1 -0.57
10 -0.29
11 0.45
12 -0.15
13 0.14
14 -0.15
16 -0.29
34 0.15
35 0.06
36 0.15
39 0.15
42 0.15
8 0.14
9 0.06

> <PUBCHEM_EFFECTIVE_ROTOR_COUNT>
12

> <PUBCHEM_PHARMACOPHORE_FEATURES>
2
1 1 acceptor
1 17 hydrophobe

> <PUBCHEM_HEAVY_ATOM_COUNT>
17

> <PUBCHEM_ATOM_DEF_STEREO_COUNT>
0

> <PUBCHEM_ATOM_UDEF_STEREO_COUNT>
0

> <PUBCHEM_BOND_DEF_STEREO_COUNT>
2

> <PUBCHEM_BOND_UDEF_STEREO_COUNT>
0

> <PUBCHEM_ISOTOPIC_ATOM_COUNT>
0

> <PUBCHEM_COMPONENT_COUNT>
1

> <PUBCHEM_CACTVS_TAUTO_COUNT>
2

> <PUBCHEM_CONFORMER_ID>
00A6AA3600000003

> <PUBCHEM_MMFF94_ENERGY>
5.3732

> <PUBCHEM_FEATURE_SELFOVERLAP>
10.148

> <PUBCHEM_SHAPE_FINGERPRINT>
10448021 39 18198913684731934802
11069576 57 18057314192947146750
13533116 47 18041839506924971457
13955234 65 17824828836505250273
14251740 57 18186802521729368530
14251764 30 18342460339892373861
14347332 77 18411140272943762681
14774955 27 10231755565569650401
14931854 50 18200581605823012654
15003188 105 18340764936154777862
15019793 15 18048600326736756023
15342168 16 9871459911604429616
15342816 4 18263914601033159812
17134984 74 18272365339723841886
19026451 147 18270967955050693002
20567600 247 18411980269187164587
20621476 51 17478332389277244466
20645477 70 18335983069147818856
20843269 155 18124318465819106554
21315764 119 17775287188262947429
21585483 132 18042986280800635047
22849339 104 16772664409262841307
270888 7 10663808655714834396
2916195 48 9150904867090273797
328310 630 12391247015407841511
465052 167 17967524649584781765
5104073 3 17603578626159290657
5364581 5 7853560358490970479
556388 4 18340766056987890928
6025842 7 18265329504710033404
7062679 13 18409729586102276117

> <PUBCHEM_SHAPE_MULTIPOLES>
343.98
17.3
4.2
1.12
28.07
1.31
-0.02
16.57
-3.76
-4.28
1.79
-1.64
0.46
-1.6

> <PUBCHEM_SHAPE_SELFOVERLAP>
632.272

> <PUBCHEM_SHAPE_VOLUME>
216.1

> <PUBCHEM_COORDINATE_TYPE>
2
5
10

$$$$

