3452
  -OEChem-06251223253D

 18 17  0     1  0  0  0  0  0999 V2000
    2.5024    1.2128   -0.2406 O   0  0  0  0  0  0  0  0  0  0  0  0
    2.0560   -0.9296   -0.8430 O   0  0  0  0  0  0  0  0  0  0  0  0
   -2.2088   -1.5407   -0.3568 N   0  0  0  0  0  0  0  0  0  0  0  0
   -0.2505   -0.8957    0.9575 C   0  0  0  0  0  0  0  0  0  0  0  0
   -1.1205   -0.5643   -0.2703 C   0  0  2  0  0  0  0  0  0  0  0  0
    0.9723    0.0153    1.1241 C   0  0  0  0  0  0  0  0  0  0  0  0
    1.8882    0.0114   -0.0800 C   0  0  0  0  0  0  0  0  0  0  0  0
   -1.6891    0.7920   -0.1803 C   0  0  0  0  0  0  0  0  0  0  0  0
   -2.1500    1.8987   -0.1106 C   0  0  0  0  0  0  0  0  0  0  0  0
   -0.8507   -0.8358    1.8755 H   0  0  0  0  0  0  0  0  0  0  0  0
    0.1004   -1.9337    0.8792 H   0  0  0  0  0  0  0  0  0  0  0  0
   -0.5270   -0.6464   -1.1868 H   0  0  0  0  0  0  0  0  0  0  0  0
    0.6423    1.0419    1.3179 H   0  0  0  0  0  0  0  0  0  0  0  0
    1.5613   -0.3101    1.9887 H   0  0  0  0  0  0  0  0  0  0  0  0
   -1.8212   -2.4818   -0.4164 H   0  0  0  0  0  0  0  0  0  0  0  0
   -2.7315   -1.3962   -1.2203 H   0  0  0  0  0  0  0  0  0  0  0  0
    3.0885    1.2211   -1.0271 H   0  0  0  0  0  0  0  0  0  0  0  0
   -2.5584    2.8802   -0.0484 H   0  0  0  0  0  0  0  0  0  0  0  0
  1  7  1  0  0  0  0
  1 17  1  0  0  0  0
  2  7  2  0  0  0  0
  3  5  1  0  0  0  0
  3 15  1  0  0  0  0
  3 16  1  0  0  0  0
  4  5  1  0  0  0  0
  4  6  1  0  0  0  0
  4 10  1  0  0  0  0
  4 11  1  0  0  0  0
  5  8  1  0  0  0  0
  5 12  1  0  0  0  0
  6  7  1  0  0  0  0
  6 13  1  0  0  0  0
  6 14  1  0  0  0  0
  8  9  3  0  0  0  0
  9 18  1  0  0  0  0
M  END
> <PUBCHEM_COMPOUND_CID>
3452

> <PUBCHEM_CONFORMER_RMSD>
0.6

> <PUBCHEM_CONFORMER_DIVERSEORDER>
1
7
13
3
5
14
16
10
4
12
11
9
17
6
15
2
8

> <PUBCHEM_MMFF94_PARTIAL_CHARGES>
12
1 -0.65
15 0.36
16 0.36
17 0.5
18 0.18
2 -0.57
3 -0.99
5 0.47
6 0.06
7 0.66
8 -0.2
9 -0.18

> <PUBCHEM_EFFECTIVE_ROTOR_COUNT>
3

> <PUBCHEM_PHARMACOPHORE_FEATURES>
6
1 1 acceptor
1 2 acceptor
1 3 cation
1 3 donor
1 9 hydrophobe
3 1 2 7 anion

> <PUBCHEM_HEAVY_ATOM_COUNT>
9

> <PUBCHEM_ATOM_DEF_STEREO_COUNT>
0

> <PUBCHEM_ATOM_UDEF_STEREO_COUNT>
1

> <PUBCHEM_BOND_DEF_STEREO_COUNT>
0

> <PUBCHEM_BOND_UDEF_STEREO_COUNT>
0

> <PUBCHEM_ISOTOPIC_ATOM_COUNT>
0

> <PUBCHEM_COMPONENT_COUNT>
1

> <PUBCHEM_CACTVS_TAUTO_COUNT>
1

> <PUBCHEM_CONFORMER_ID>
00000D7C00000001

> <PUBCHEM_MMFF94_ENERGY>
2.5783

> <PUBCHEM_FEATURE_SELFOVERLAP>
30.504

> <PUBCHEM_SHAPE_FINGERPRINT>
12897270 3 18263364681271555326
15310529 11 18187364298718822774
15775835 57 17916585478349888404
19837323 101 18201427082423636787
19973954 147 18410853248404880660
20653085 51 18267851938532689656
21040471 1 18121515788750836073
23552423 10 18341056297339134219
23552449 1 17624406481402328394
24536 1 18336848440601057950
29004967 10 16732986396932290626

> <PUBCHEM_SHAPE_MULTIPOLES>
168.5
3.58
1.65
0.94
0.59
0.26
0.18
1
-0.75
-0.97
-0.13
0.27
-0.17
-0.07

> <PUBCHEM_SHAPE_SELFOVERLAP>
315.348

> <PUBCHEM_SHAPE_VOLUME>
104.1

> <PUBCHEM_COORDINATE_TYPE>
2
5
10

$$$$

