101817
  -OEChem-07051213052D

 57 60  0     1  0  0  0  0  0999 V2000
    8.5677    1.8625    0.0000 O   0  0  0  0  0  0  0  0  0  0  0  0
    5.3307    1.1062    0.0000 O   0  0  0  0  0  0  0  0  0  0  0  0
    2.5357   -2.4462    0.0000 O   0  0  0  0  0  0  0  0  0  0  0  0
    9.5823    2.4920    0.0000 O   0  0  0  0  0  0  0  0  0  0  0  0
    7.0628   -0.8938    0.0000 C   0  0  1  0  0  0  0  0  0  0  0  0
    7.9288   -0.3938    0.0000 C   0  0  1  0  0  0  0  0  0  0  0  0
    7.9288    0.6062    0.0000 C   0  0  1  0  0  0  0  0  0  0  0  0
    6.1968   -0.3938    0.0000 C   0  0  1  0  0  0  0  0  0  0  0  0
    5.2868   -0.9007    0.0000 C   0  0  2  0  0  0  0  0  0  0  0  0
    5.2787   -1.9423    0.0000 C   0  0  2  0  0  0  0  0  0  0  0  0
    8.8750    0.9109    0.0000 C   0  0  1  0  0  0  0  0  0  0  0  0
    7.0789   -1.9353    0.0000 C   0  0  0  0  0  0  0  0  0  0  0  0
    8.8750   -0.6986    0.0000 C   0  0  0  0  0  0  0  0  0  0  0  0
    7.0628    1.1062    0.0000 C   0  0  0  0  0  0  0  0  0  0  0  0
    6.1808   -2.4631    0.0000 C   0  0  0  0  0  0  0  0  0  0  0  0
    6.1968    0.6062    0.0000 C   0  0  0  0  0  0  0  0  0  0  0  0
    9.4586    0.1062    0.0000 C   0  0  0  0  0  0  0  0  0  0  0  0
    4.3599   -0.3366    0.0000 C   0  0  0  0  0  0  0  0  0  0  0  0
    4.3433   -2.4920    0.0000 C   0  0  0  0  0  0  0  0  0  0  0  0
    7.9288    1.6062    0.0000 C   0  0  0  0  0  0  0  0  0  0  0  0
    5.2945    0.0993    0.0000 C   0  0  0  0  0  0  0  0  0  0  0  0
    3.4120   -0.8645    0.0000 C   0  0  0  0  0  0  0  0  0  0  0  0
    3.4037   -1.9495    0.0000 C   0  0  1  0  0  0  0  0  0  0  0  0
    9.6851    1.4973    0.0000 C   0  0  0  0  0  0  0  0  0  0  0  0
   10.5979    1.0890    0.0000 C   0  0  0  0  0  0  0  0  0  0  0  0
    7.8022   -1.3131    0.0000 H   0  0  0  0  0  0  0  0  0  0  0  0
    8.0188   -1.2390    0.0000 H   0  0  0  0  0  0  0  0  0  0  0  0
    6.9329    0.0312    0.0000 H   0  0  0  0  0  0  0  0  0  0  0  0
    5.2820   -2.7923    0.0000 H   0  0  0  0  0  0  0  0  0  0  0  0
    7.2969   -2.5157    0.0000 H   0  0  0  0  0  0  0  0  0  0  0  0
    7.6880   -1.8198    0.0000 H   0  0  0  0  0  0  0  0  0  0  0  0
    8.6240   -1.2655    0.0000 H   0  0  0  0  0  0  0  0  0  0  0  0
    9.4124   -1.0078    0.0000 H   0  0  0  0  0  0  0  0  0  0  0  0
    7.4613    1.5811    0.0000 H   0  0  0  0  0  0  0  0  0  0  0  0
    6.6643    1.5811    0.0000 H   0  0  0  0  0  0  0  0  0  0  0  0
    5.7835   -2.9390    0.0000 H   0  0  0  0  0  0  0  0  0  0  0  0
    6.5818   -2.9360    0.0000 H   0  0  0  0  0  0  0  0  0  0  0  0
    9.9195   -0.3086    0.0000 H   0  0  0  0  0  0  0  0  0  0  0  0
    9.9195    0.5209    0.0000 H   0  0  0  0  0  0  0  0  0  0  0  0
    4.7681    0.1301    0.0000 H   0  0  0  0  0  0  0  0  0  0  0  0
    3.9700    0.1455    0.0000 H   0  0  0  0  0  0  0  0  0  0  0  0
    3.9460   -2.9680    0.0000 H   0  0  0  0  0  0  0  0  0  0  0  0
    4.7443   -2.9649    0.0000 H   0  0  0  0  0  0  0  0  0  0  0  0
    8.5488    1.6062    0.0000 H   0  0  0  0  0  0  0  0  0  0  0  0
    7.9288    2.2262    0.0000 H   0  0  0  0  0  0  0  0  0  0  0  0
    7.3088    1.6062    0.0000 H   0  0  0  0  0  0  0  0  0  0  0  0
    5.9145    0.0945    0.0000 H   0  0  0  0  0  0  0  0  0  0  0  0
    5.2993    0.7193    0.0000 H   0  0  0  0  0  0  0  0  0  0  0  0
    4.6745    0.1041    0.0000 H   0  0  0  0  0  0  0  0  0  0  0  0
    3.2075   -0.2792    0.0000 H   0  0  0  0  0  0  0  0  0  0  0  0
    2.8004   -0.9659    0.0000 H   0  0  0  0  0  0  0  0  0  0  0  0
    3.4025   -2.5695    0.0000 H   0  0  0  0  0  0  0  0  0  0  0  0
    8.9833    2.3225    0.0000 H   0  0  0  0  0  0  0  0  0  0  0  0
   10.3448    0.5230    0.0000 H   0  0  0  0  0  0  0  0  0  0  0  0
   11.1639    0.8358    0.0000 H   0  0  0  0  0  0  0  0  0  0  0  0
   10.8511    1.6549    0.0000 H   0  0  0  0  0  0  0  0  0  0  0  0
    2.0000   -2.1341    0.0000 H   0  0  0  0  0  0  0  0  0  0  0  0
 11  1  1  6  0  0  0
  1 53  1  0  0  0  0
  2 16  2  0  0  0  0
 23  3  1  6  0  0  0
  3 57  1  0  0  0  0
  4 24  2  0  0  0  0
  5  6  1  0  0  0  0
  5  8  1  0  0  0  0
  5 12  1  0  0  0  0
  5 26  1  1  0  0  0
  6  7  1  0  0  0  0
  6 13  1  0  0  0  0
  6 27  1  6  0  0  0
  7 11  1  0  0  0  0
  7 14  1  0  0  0  0
  7 20  1  1  0  0  0
  8  9  1  0  0  0  0
  8 16  1  0  0  0  0
  8 28  1  6  0  0  0
  9 10  1  0  0  0  0
  9 18  1  0  0  0  0
  9 21  1  1  0  0  0
 10 15  1  0  0  0  0
 10 19  1  0  0  0  0
 10 29  1  1  0  0  0
 11 17  1  0  0  0  0
 11 24  1  0  0  0  0
 12 15  1  0  0  0  0
 12 30  1  0  0  0  0
 12 31  1  0  0  0  0
 13 17  1  0  0  0  0
 13 32  1  0  0  0  0
 13 33  1  0  0  0  0
 14 16  1  0  0  0  0
 14 34  1  0  0  0  0
 14 35  1  0  0  0  0
 15 36  1  0  0  0  0
 15 37  1  0  0  0  0
 17 38  1  0  0  0  0
 17 39  1  0  0  0  0
 18 22  1  0  0  0  0
 18 40  1  0  0  0  0
 18 41  1  0  0  0  0
 19 23  1  0  0  0  0
 19 42  1  0  0  0  0
 19 43  1  0  0  0  0
 20 44  1  0  0  0  0
 20 45  1  0  0  0  0
 20 46  1  0  0  0  0
 21 47  1  0  0  0  0
 21 48  1  0  0  0  0
 21 49  1  0  0  0  0
 22 23  1  0  0  0  0
 22 50  1  0  0  0  0
 22 51  1  0  0  0  0
 23 52  1  0  0  0  0
 24 25  1  0  0  0  0
 25 54  1  0  0  0  0
 25 55  1  0  0  0  0
 25 56  1  0  0  0  0
M  END
> <PUBCHEM_COMPOUND_CID>
101817

> <PUBCHEM_COMPOUND_CANONICALIZED>
1

> <PUBCHEM_CACTVS_COMPLEXITY>
615

> <PUBCHEM_CACTVS_HBOND_ACCEPTOR>
4

> <PUBCHEM_CACTVS_HBOND_DONOR>
2

> <PUBCHEM_CACTVS_ROTATABLE_BOND>
1

> <PUBCHEM_CACTVS_SUBSKEYS>
AAADcfB4OAAAAAAAAAAAAAAAAAAAAYAAAAAwYMAAAAAAAGDAAAAAGgAACAAAD1SggAICAAAAAgAIAIAQAAIAAAAAAAAAAAFAAAAAEBIAAAAAQAAEAAAAAAGKyvCvgAAAAAAAAADAAAYAACAAAYAADAAAAA==

> <PUBCHEM_IUPAC_OPENEYE_NAME>
(3R,5R,8S,9S,10S,13S,14S,17R)-17-acetyl-3,17-dihydroxy-10,13-dimethyl-2,3,4,5,6,7,8,9,12,14,15,16-dodecahydro-1H-cyclopenta[a]phenanthren-11-one

> <PUBCHEM_IUPAC_CAS_NAME>
(3R,5R,8S,9S,10S,13S,14S,17R)-17-acetyl-3,17-dihydroxy-10,13-dimethyl-2,3,4,5,6,7,8,9,12,14,15,16-dodecahydro-1H-cyclopenta[a]phenanthren-11-one

> <PUBCHEM_IUPAC_NAME>
(3R,5R,8S,9S,10S,13S,14S,17R)-17-acetyl-3,17-dihydroxy-10,13-dimethyl-2,3,4,5,6,7,8,9,12,14,15,16-dodecahydro-1H-cyclopenta[a]phenanthren-11-one

> <PUBCHEM_IUPAC_SYSTEMATIC_NAME>
(3R,5R,8S,9S,10S,13S,14S,17R)-17-ethanoyl-10,13-dimethyl-3,17-bis(oxidanyl)-2,3,4,5,6,7,8,9,12,14,15,16-dodecahydro-1H-cyclopenta[a]phenanthren-11-one

> <PUBCHEM_IUPAC_TRADITIONAL_NAME>
(3R,5R,8S,9S,10S,13S,14S,17R)-17-acetyl-3,17-dihydroxy-10,13-dimethyl-2,3,4,5,6,7,8,9,12,14,15,16-dodecahydro-1H-cyclopenta[a]phenanthren-11-one

> <PUBCHEM_IUPAC_INCHI>
InChI=1S/C21H32O4/c1-12(22)21(25)9-7-16-15-5-4-13-10-14(23)6-8-19(13,2)18(15)17(24)11-20(16,21)3/h13-16,18,23,25H,4-11H2,1-3H3/t13-,14-,15+,16+,18-,19+,20+,21+/m1/s1

> <PUBCHEM_IUPAC_INCHIKEY>
AYEXSTRNLGYBSQ-YOBHSKELSA-N

> <PUBCHEM_XLOGP3_AA>
2.3

> <PUBCHEM_EXACT_MASS>
348.23006

> <PUBCHEM_MOLECULAR_FORMULA>
C21H32O4

> <PUBCHEM_MOLECULAR_WEIGHT>
348.47638

> <PUBCHEM_OPENEYE_CAN_SMILES>
CC(=O)C1(CCC2C1(CC(=O)C3C2CCC4C3(CCC(C4)O)C)C)O

> <PUBCHEM_OPENEYE_ISO_SMILES>
CC(=O)[C@]1(CC[C@@H]2[C@@]1(CC(=O)[C@H]3[C@H]2CC[C@H]4[C@@]3(CC[C@H](C4)O)C)C)O

> <PUBCHEM_CACTVS_TPSA>
74.6

> <PUBCHEM_MONOISOTOPIC_WEIGHT>
348.23006

> <PUBCHEM_TOTAL_CHARGE>
0

> <PUBCHEM_HEAVY_ATOM_COUNT>
25

> <PUBCHEM_ATOM_DEF_STEREO_COUNT>
8

> <PUBCHEM_ATOM_UDEF_STEREO_COUNT>
0

> <PUBCHEM_BOND_DEF_STEREO_COUNT>
0

> <PUBCHEM_BOND_UDEF_STEREO_COUNT>
0

> <PUBCHEM_ISOTOPIC_ATOM_COUNT>
0

> <PUBCHEM_COMPONENT_COUNT>
1

> <PUBCHEM_CACTVS_TAUTO_COUNT>
6

> <PUBCHEM_COORDINATE_TYPE>
1
5
255

> <PUBCHEM_BONDANNOTATIONS>
11  1  6
10  29  5
23  3  6
5  26  5
6  27  6
7  20  5
8  28  6
9  21  5

$$$$

