7597
  -OEChem-07051213053D

 26 27  0     0  0  0  0  0  0999 V2000
   -1.1354   -0.0018   -1.2284 O   0  0  0  0  0  0  0  0  0  0  0  0
    1.1338   -0.0021   -1.2412 O   0  0  0  0  0  0  0  0  0  0  0  0
    0.0098   -0.0005    0.8038 O   0  0  0  0  0  0  0  0  0  0  0  0
   -2.3075   -0.0004   -0.5370 C   0  0  0  0  0  0  0  0  0  0  0  0
    2.3335   -0.0010   -0.5253 C   0  0  0  0  0  0  0  0  0  0  0  0
   -2.9079    1.2080   -0.1836 C   0  0  0  0  0  0  0  0  0  0  0  0
    2.9020   -1.2082   -0.1853 C   0  0  0  0  0  0  0  0  0  0  0  0
   -2.9078   -1.2080   -0.1804 C   0  0  0  0  0  0  0  0  0  0  0  0
    2.8998    1.2077   -0.1867 C   0  0  0  0  0  0  0  0  0  0  0  0
   -4.1085    1.2088    0.5264 C   0  0  0  0  0  0  0  0  0  0  0  0
    4.0992   -1.2066    0.5306 C   0  0  0  0  0  0  0  0  0  0  0  0
   -4.1087   -1.2072    0.5293 C   0  0  0  0  0  0  0  0  0  0  0  0
    4.0972    1.2093    0.5289 C   0  0  0  0  0  0  0  0  0  0  0  0
   -4.7091    0.0013    0.8826 C   0  0  0  0  0  0  0  0  0  0  0  0
    4.6968    0.0022    0.8876 C   0  0  0  0  0  0  0  0  0  0  0  0
    0.0127   -0.0016   -0.4214 C   0  0  0  0  0  0  0  0  0  0  0  0
   -2.4456    2.1523   -0.4582 H   0  0  0  0  0  0  0  0  0  0  0  0
    2.4372   -2.1488   -0.4636 H   0  0  0  0  0  0  0  0  0  0  0  0
   -2.4455   -2.1529   -0.4527 H   0  0  0  0  0  0  0  0  0  0  0  0
    2.4332    2.1472   -0.4662 H   0  0  0  0  0  0  0  0  0  0  0  0
   -4.5760    2.1497    0.8016 H   0  0  0  0  0  0  0  0  0  0  0  0
    4.5661   -2.1466    0.8099 H   0  0  0  0  0  0  0  0  0  0  0  0
   -4.5762   -2.1474    0.8068 H   0  0  0  0  0  0  0  0  0  0  0  0
    4.5624    2.1505    0.8068 H   0  0  0  0  0  0  0  0  0  0  0  0
   -5.6440    0.0019    1.4353 H   0  0  0  0  0  0  0  0  0  0  0  0
    5.6289    0.0033    1.4449 H   0  0  0  0  0  0  0  0  0  0  0  0
  1  4  1  0  0  0  0
  1 16  1  0  0  0  0
  2  5  1  0  0  0  0
  2 16  1  0  0  0  0
  3 16  2  0  0  0  0
  4  6  2  0  0  0  0
  4  8  1  0  0  0  0
  5  7  2  0  0  0  0
  5  9  1  0  0  0  0
  6 10  1  0  0  0  0
  6 17  1  0  0  0  0
  7 11  1  0  0  0  0
  7 18  1  0  0  0  0
  8 12  2  0  0  0  0
  8 19  1  0  0  0  0
  9 13  2  0  0  0  0
  9 20  1  0  0  0  0
 10 14  2  0  0  0  0
 10 21  1  0  0  0  0
 11 15  2  0  0  0  0
 11 22  1  0  0  0  0
 12 14  1  0  0  0  0
 12 23  1  0  0  0  0
 13 15  1  0  0  0  0
 13 24  1  0  0  0  0
 14 25  1  0  0  0  0
 15 26  1  0  0  0  0
M  END
> <PUBCHEM_COMPOUND_CID>
7597

> <PUBCHEM_CONFORMER_RMSD>
0.6

> <PUBCHEM_CONFORMER_DIVERSEORDER>
1
29
10
47
7
45
15
19
23
9
18
30
3
33
24
44
14
42
8
31
36
48
35
6
21
46
25
22
4
16
11
26
27
20
34
43
13
38
32
12
2
40
41
37
28
17
5
39

> <PUBCHEM_MMFF94_PARTIAL_CHARGES>
26
1 -0.23
10 -0.15
11 -0.15
12 -0.15
13 -0.15
14 -0.15
15 -0.15
16 0.87
17 0.15
18 0.15
19 0.15
2 -0.23
20 0.15
21 0.15
22 0.15
23 0.15
24 0.15
25 0.15
26 0.15
3 -0.57
4 0.08
5 0.08
6 -0.15
7 -0.15
8 -0.15
9 -0.15

> <PUBCHEM_EFFECTIVE_ROTOR_COUNT>
4

> <PUBCHEM_PHARMACOPHORE_FEATURES>
2
6 4 6 8 10 12 14 rings
6 5 7 9 11 13 15 rings

> <PUBCHEM_HEAVY_ATOM_COUNT>
16

> <PUBCHEM_ATOM_DEF_STEREO_COUNT>
0

> <PUBCHEM_ATOM_UDEF_STEREO_COUNT>
0

> <PUBCHEM_BOND_DEF_STEREO_COUNT>
0

> <PUBCHEM_BOND_UDEF_STEREO_COUNT>
0

> <PUBCHEM_ISOTOPIC_ATOM_COUNT>
0

> <PUBCHEM_COMPONENT_COUNT>
1

> <PUBCHEM_CACTVS_TAUTO_COUNT>
1

> <PUBCHEM_CONFORMER_ID>
00001DAD00000001

> <PUBCHEM_MMFF94_ENERGY>
55.1169

> <PUBCHEM_FEATURE_SELFOVERLAP>
10.149

> <PUBCHEM_SHAPE_FINGERPRINT>
10014705 185 5328742959511086459
10498660 4 5761655845626131811
11471102 20 8358260358888797386
12107183 9 17762055840678838163
12251169 10 18410575067483210078
12670546 56 18410862070409903995
13167823 11 18342739615376362666
13675066 3 18410293639756420758
14123238 8 18410856546754887681
14251718 22 10303804385041652984
14252887 29 17561086917008381904
14289901 80 18338516343868883099
14341114 176 18410288125287626344
14528608 73 7997678818751735082
15188451 53 17917716747530269259
15239154 128 17894631435199269664
17870717 6 11671786000571133849
1813 80 16702296879811841910
18186145 218 18412263964862485782
18222031 100 16056878013846970887
19050596 39 18410573972266549276
200 152 13830133879946852453
20432913 95 17418374705147134667
204376 136 16732702748717881359
20645477 70 9799421031129367800
20871999 31 9367342631031182045
21065199 12 18410855477308030985
22646028 1 15698000734107768353
23402539 116 18409455778216760295
23402655 69 8430319052095507258
23559900 14 17968932110710403278
26918003 58 18412267250354159584
2838139 119 14492419358015079395
29717793 49 12535354519074911626
312423 11 15267051579780891398
32948 21 9655308024479867922
4028521 119 5906055820304127307
42 15 18272650164300081886
4214541 1 18411701010587814113
465052 167 14333113187749988137
4990 188 9007061275064862864
5104073 3 18410856563934757737
5374978 207 18334010601111010113
542803 24 17748825207124987440
573450 72 18413674616964360915
5924683 9 18261679160586549951
77779 3 18410572885639823385

> <PUBCHEM_SHAPE_MULTIPOLES>
311.66
11.03
1.37
1.01
0.11
0
0.06
0
-3.68
0
-0.12
0
0
0

> <PUBCHEM_SHAPE_SELFOVERLAP>
670.671

> <PUBCHEM_SHAPE_VOLUME>
167.3

> <PUBCHEM_COORDINATE_TYPE>
2
5
10

$$$$

