5111791
  -OEChem-07051213143D

 18 18  0     0  0  0  0  0  0999 V2000
    3.0839    0.8855    0.0002 O   0  5  0  0  0  0  0  0  0  0  0  0
    2.7704   -1.2873    0.0002 O   0  0  0  0  0  0  0  0  0  0  0  0
   -2.1807   -1.9303    0.0001 N   0  0  0  0  0  0  0  0  0  0  0  0
   -3.2358    0.7140    0.0002 N   0  0  0  0  0  0  0  0  0  0  0  0
    2.3255   -0.1141   -0.0001 N   0  3  0  0  0  0  0  0  0  0  0  0
   -1.3239   -0.8068   -0.0001 C   0  0  0  0  0  0  0  0  0  0  0  0
   -1.8410    0.4887    0.0000 C   0  0  0  0  0  0  0  0  0  0  0  0
    0.9199    0.0888   -0.0002 C   0  0  0  0  0  0  0  0  0  0  0  0
    0.0566   -1.0067   -0.0002 C   0  0  0  0  0  0  0  0  0  0  0  0
   -0.9777    1.5842    0.0001 C   0  0  0  0  0  0  0  0  0  0  0  0
    0.4028    1.3842   -0.0002 C   0  0  0  0  0  0  0  0  0  0  0  0
    0.4379   -2.0258   -0.0002 H   0  0  0  0  0  0  0  0  0  0  0  0
   -1.3674    2.5991    0.0002 H   0  0  0  0  0  0  0  0  0  0  0  0
    1.0450    2.2613   -0.0002 H   0  0  0  0  0  0  0  0  0  0  0  0
   -3.1842   -1.8212   -0.0007 H   0  0  0  0  0  0  0  0  0  0  0  0
   -1.7843   -2.8612   -0.0005 H   0  0  0  0  0  0  0  0  0  0  0  0
   -3.5883    1.6623    0.0009 H   0  0  0  0  0  0  0  0  0  0  0  0
   -3.8888   -0.0557    0.0011 H   0  0  0  0  0  0  0  0  0  0  0  0
  1  5  1  0  0  0  0
  2  5  2  0  0  0  0
  3  6  1  0  0  0  0
  3 15  1  0  0  0  0
  3 16  1  0  0  0  0
  4  7  1  0  0  0  0
  4 17  1  0  0  0  0
  4 18  1  0  0  0  0
  5  8  1  0  0  0  0
  6  7  2  0  0  0  0
  6  9  1  0  0  0  0
  7 10  1  0  0  0  0
  8  9  2  0  0  0  0
  8 11  1  0  0  0  0
  9 12  1  0  0  0  0
 10 11  2  0  0  0  0
 10 13  1  0  0  0  0
 11 14  1  0  0  0  0
M  CHG  2   1  -1   5   1
M  END
> <PUBCHEM_COMPOUND_CID>
5111791

> <PUBCHEM_CONFORMER_RMSD>
0.4

> <PUBCHEM_CONFORMER_DIVERSEORDER>
1

> <PUBCHEM_MMFF94_PARTIAL_CHARGES>
18
1 -0.52
10 -0.15
11 -0.15
12 0.15
13 0.15
14 0.15
15 0.4
16 0.4
17 0.4
18 0.4
2 -0.52
3 -0.9
4 -0.9
5 0.91
6 0.1
7 0.1
8 0.13
9 -0.15

> <PUBCHEM_EFFECTIVE_ROTOR_COUNT>
1

> <PUBCHEM_PHARMACOPHORE_FEATURES>
8
1 1 acceptor
1 1 anion
1 2 acceptor
1 3 cation
1 3 donor
1 4 cation
1 4 donor
6 6 7 8 9 10 11 rings

> <PUBCHEM_HEAVY_ATOM_COUNT>
11

> <PUBCHEM_ATOM_DEF_STEREO_COUNT>
0

> <PUBCHEM_ATOM_UDEF_STEREO_COUNT>
0

> <PUBCHEM_BOND_DEF_STEREO_COUNT>
0

> <PUBCHEM_BOND_UDEF_STEREO_COUNT>
0

> <PUBCHEM_ISOTOPIC_ATOM_COUNT>
0

> <PUBCHEM_COMPONENT_COUNT>
1

> <PUBCHEM_CACTVS_TAUTO_COUNT>
1

> <PUBCHEM_CONFORMER_ID>
004DFFEF00000001

> <PUBCHEM_MMFF94_ENERGY>
52.6261

> <PUBCHEM_FEATURE_SELFOVERLAP>
40.682

> <PUBCHEM_SHAPE_FINGERPRINT>
10857977 72 18264500502631986096
12932764 1 17561089137163588996
14128692 85 18267017254525003541
14325111 11 18410574023911905189
16945 1 18338799017173273605
193761 8 17906452126127937089
20871998 184 18187360987415251175
21040471 1 18266459986934679461
23235685 24 18336552706633832197
23402655 69 18049742990486154141
23552423 10 18272931592222121334
241688 4 14807986092255622729
2748010 2 18265899059958275469
369184 2 18411702105625022568
5084963 1 18116157859766692360
528886 8 18410017632362787657

> <PUBCHEM_SHAPE_MULTIPOLES>
199.69
4.18
1.74
0.57
1.29
0.22
0
0.21
0
-0.47
0
-0.03
-0.02
0

> <PUBCHEM_SHAPE_SELFOVERLAP>
419.938

> <PUBCHEM_SHAPE_VOLUME>
113.1

> <PUBCHEM_COORDINATE_TYPE>
2
5
10

$$$$

