5281540
  -OEChem-07051212583D

 38 41  0     1  0  0  0  0  0999 V2000
   -1.6281   -1.5641    0.1164 O   0  0  0  0  0  0  0  0  0  0  0  0
   -1.8374    1.8519    0.0381 O   0  0  0  0  0  0  0  0  0  0  0  0
    0.6208   -1.8540   -0.4889 O   0  0  0  0  0  0  0  0  0  0  0  0
    2.4405   -2.7438    0.7170 O   0  0  0  0  0  0  0  0  0  0  0  0
    3.9637    1.3090    0.7081 O   0  0  0  0  0  0  0  0  0  0  0  0
   -3.9497    2.3030    0.8199 O   0  0  0  0  0  0  0  0  0  0  0  0
    4.4037   -0.4565   -0.7154 O   0  0  0  0  0  0  0  0  0  0  0  0
   -0.1295    0.1858    0.6254 C   0  0  2  0  0  0  0  0  0  0  0  0
   -1.1189    0.7031   -0.4158 C   0  0  1  0  0  0  0  0  0  0  0  0
    1.2532    0.7154    0.2144 C   0  0  1  0  0  0  0  0  0  0  0  0
   -0.2645   -1.3319    0.5007 C   0  0  1  0  0  0  0  0  0  0  0  0
   -2.1022   -0.4291   -0.6158 C   0  0  2  0  0  0  0  0  0  0  0  0
    2.3203   -0.3472    0.4947 C   0  0  1  0  0  0  0  0  0  0  0  0
   -0.2488    1.0671   -1.5738 C   0  0  0  0  0  0  0  0  0  0  0  0
    1.0448    1.0715   -1.2346 C   0  0  0  0  0  0  0  0  0  0  0  0
    2.0027   -1.7046   -0.1580 C   0  0  2  0  0  0  0  0  0  0  0  0
   -3.3340    0.1208   -0.0001 C   0  0  0  0  0  0  0  0  0  0  0  0
   -3.1270    1.5378    0.3495 C   0  0  0  0  0  0  0  0  0  0  0  0
    3.6809    0.1349    0.0752 C   0  0  0  0  0  0  0  0  0  0  0  0
   -4.4859   -0.5100    0.2402 C   0  0  0  0  0  0  0  0  0  0  0  0
   -4.7419   -1.9423   -0.0957 C   0  0  0  0  0  0  0  0  0  0  0  0
    5.2375    1.8832    0.3984 C   0  0  0  0  0  0  0  0  0  0  0  0
   -0.4054    0.5104    1.6362 H   0  0  0  0  0  0  0  0  0  0  0  0
    1.4705    1.6429    0.7593 H   0  0  0  0  0  0  0  0  0  0  0  0
   -0.0873   -1.8432    1.4529 H   0  0  0  0  0  0  0  0  0  0  0  0
   -2.2506   -0.6994   -1.6668 H   0  0  0  0  0  0  0  0  0  0  0  0
    2.3838   -0.4821    1.5842 H   0  0  0  0  0  0  0  0  0  0  0  0
   -0.6206    1.3290   -2.5539 H   0  0  0  0  0  0  0  0  0  0  0  0
    1.8433    1.3436   -1.9102 H   0  0  0  0  0  0  0  0  0  0  0  0
    2.5390   -1.8516   -1.0995 H   0  0  0  0  0  0  0  0  0  0  0  0
   -5.3075    0.0224    0.7127 H   0  0  0  0  0  0  0  0  0  0  0  0
    2.1706   -2.5230    1.6237 H   0  0  0  0  0  0  0  0  0  0  0  0
   -4.8515   -2.5262    0.8234 H   0  0  0  0  0  0  0  0  0  0  0  0
   -3.9561   -2.3982   -0.7032 H   0  0  0  0  0  0  0  0  0  0  0  0
   -5.6761   -2.0218   -0.6612 H   0  0  0  0  0  0  0  0  0  0  0  0
    6.0415    1.2016    0.6918 H   0  0  0  0  0  0  0  0  0  0  0  0
    5.3391    2.8115    0.9667 H   0  0  0  0  0  0  0  0  0  0  0  0
    5.2978    2.1164   -0.6689 H   0  0  0  0  0  0  0  0  0  0  0  0
  1 11  1  0  0  0  0
  1 12  1  0  0  0  0
  2  9  1  0  0  0  0
  2 18  1  0  0  0  0
  3 11  1  0  0  0  0
  3 16  1  0  0  0  0
  4 16  1  0  0  0  0
  4 32  1  0  0  0  0
  5 19  1  0  0  0  0
  5 22  1  0  0  0  0
  6 18  2  0  0  0  0
  7 19  2  0  0  0  0
  8  9  1  0  0  0  0
  8 10  1  0  0  0  0
  8 11  1  0  0  0  0
  8 23  1  0  0  0  0
  9 12  1  0  0  0  0
  9 14  1  0  0  0  0
 10 13  1  0  0  0  0
 10 15  1  0  0  0  0
 10 24  1  0  0  0  0
 11 25  1  0  0  0  0
 12 17  1  0  0  0  0
 12 26  1  0  0  0  0
 13 16  1  0  0  0  0
 13 19  1  0  0  0  0
 13 27  1  0  0  0  0
 14 15  2  0  0  0  0
 14 28  1  0  0  0  0
 15 29  1  0  0  0  0
 16 30  1  0  0  0  0
 17 18  1  0  0  0  0
 17 20  2  0  0  0  0
 20 21  1  0  0  0  0
 20 31  1  0  0  0  0
 21 33  1  0  0  0  0
 21 34  1  0  0  0  0
 21 35  1  0  0  0  0
 22 36  1  0  0  0  0
 22 37  1  0  0  0  0
 22 38  1  0  0  0  0
M  END
> <PUBCHEM_COMPOUND_CID>
5281540

> <PUBCHEM_CONFORMER_RMSD>
0.6

> <PUBCHEM_CONFORMER_DIVERSEORDER>
1
6
4
2
5
3

> <PUBCHEM_MMFF94_PARTIAL_CHARGES>
25
1 -0.56
10 0.14
11 0.56
12 0.42
13 0.06
14 -0.29
15 -0.29
16 0.56
17 -0.12
18 0.71
19 0.66
2 -0.43
20 -0.29
21 0.14
22 0.28
28 0.15
29 0.15
3 -0.56
31 0.15
32 0.4
4 -0.68
5 -0.43
6 -0.57
7 -0.57
9 0.42

> <PUBCHEM_EFFECTIVE_ROTOR_COUNT>
3

> <PUBCHEM_PHARMACOPHORE_FEATURES>
11
1 1 acceptor
1 21 hydrophobe
1 3 acceptor
1 4 acceptor
1 4 donor
1 6 acceptor
1 7 acceptor
5 1 8 9 11 12 rings
5 2 9 12 17 18 rings
5 8 9 10 14 15 rings
6 3 8 10 11 13 16 rings

> <PUBCHEM_HEAVY_ATOM_COUNT>
22

> <PUBCHEM_ATOM_DEF_STEREO_COUNT>
7

> <PUBCHEM_ATOM_UDEF_STEREO_COUNT>
0

> <PUBCHEM_BOND_DEF_STEREO_COUNT>
1

> <PUBCHEM_BOND_UDEF_STEREO_COUNT>
0

> <PUBCHEM_ISOTOPIC_ATOM_COUNT>
0

> <PUBCHEM_COMPONENT_COUNT>
1

> <PUBCHEM_CACTVS_TAUTO_COUNT>
1

> <PUBCHEM_CONFORMER_ID>
0050970400000001

> <PUBCHEM_MMFF94_ENERGY>
57.251

> <PUBCHEM_FEATURE_SELFOVERLAP>
57.289

> <PUBCHEM_SHAPE_FINGERPRINT>
10411042 1 17113539217422173410
10493431 412 18338801105065540648
10863032 1 18335984284775777939
10948715 1 18259984890060157902
11132069 177 18131356297623838924
11578080 2 17273433874096566270
11806522 49 18342177735223102319
12236239 1 18059580156734318081
12390115 104 18187911885474441400
12403814 3 17704081680696513700
12670546 56 18260832613483169857
12892183 10 18409446994592018697
13132413 78 18334294288122874841
13140716 1 17908138781180843707
13583140 156 17531544155987289825
14289901 80 18334861636148642273
14787075 74 18188494545021818681
14790565 3 18340198592818905756
15196674 1 18410293635509023546
15209294 21 18409167727007309480
15536298 74 18337107968326748950
16945 1 18338529572384102422
17349148 13 17989207014546910375
1813 80 17203602718116755749
18186145 218 18266740362415482900
200 152 18338806628704629015
20510252 161 18260828206983913617
20691752 17 17489016175490362159
21267235 1 18411972559710766695
21501502 16 18338521957454780211
22079108 93 18115598024139541840
22182313 1 17559122187986442868
23402539 116 18336835186864843143
23419403 2 15744233840925361071
23493267 7 16443343208457612767
23557571 272 18040708182642699599
23559900 14 17970345039002572326
2748010 2 17628648740780479468
296302 2 18040150712503220973
350125 39 18338797788923871009
474 4 18201435831726082412
5104073 3 18340204197523672907
633830 44 18186804720520652236
6442390 28 18337111177210806834
9709674 26 18410567396703839235

> <PUBCHEM_SHAPE_MULTIPOLES>
411.66
8.96
2.35
0.97
1.86
0.51
0.23
-1.39
-1.46
-0.21
-0.31
0.13
-0.23
-0.21

> <PUBCHEM_SHAPE_SELFOVERLAP>
913.481

> <PUBCHEM_SHAPE_VOLUME>
219.2

> <PUBCHEM_COORDINATE_TYPE>
2
5
10

$$$$

