5357330
  -OEChem-07051213063D

 42 43  0     0  0  0  0  0  0999 V2000
    2.0159   -1.1921    1.7893 O   0  0  0  0  0  0  0  0  0  0  0  0
    5.4378   -0.6745   -1.5079 O   0  0  0  0  0  0  0  0  0  0  0  0
    1.8938    2.4909   -1.2767 O   0  0  0  0  0  0  0  0  0  0  0  0
    4.3420   -2.0772    0.6125 O   0  0  0  0  0  0  0  0  0  0  0  0
    0.7529    1.8935    1.8483 O   0  0  0  0  0  0  0  0  0  0  0  0
   -6.8321   -0.6861   -0.8056 O   0  0  0  0  0  0  0  0  0  0  0  0
    1.9506    0.6488    0.2606 C   0  0  0  0  0  0  0  0  0  0  0  0
    2.5533   -0.4978    0.7449 C   0  0  0  0  0  0  0  0  0  0  0  0
    2.4859    1.3603   -0.7979 C   0  0  0  0  0  0  0  0  0  0  0  0
    3.7317   -0.9487    0.1502 C   0  0  0  0  0  0  0  0  0  0  0  0
    4.2872   -0.2451   -0.9184 C   0  0  0  0  0  0  0  0  0  0  0  0
    3.6642    0.9095   -1.3924 C   0  0  0  0  0  0  0  0  0  0  0  0
    0.6975    1.1292    0.8913 C   0  0  0  0  0  0  0  0  0  0  0  0
   -3.0800    0.5650    0.4530 C   0  0  0  0  0  0  0  0  0  0  0  0
   -0.5913    0.6253    0.3399 C   0  0  0  0  0  0  0  0  0  0  0  0
   -1.7652    1.0040    0.8934 C   0  0  0  0  0  0  0  0  0  0  0  0
   -3.2087   -0.5963   -0.3089 C   0  0  0  0  0  0  0  0  0  0  0  0
   -4.2122    1.3058    0.7920 C   0  0  0  0  0  0  0  0  0  0  0  0
   -5.6021   -0.2758   -0.3927 C   0  0  0  0  0  0  0  0  0  0  0  0
   -4.4698   -1.0166   -0.7317 C   0  0  0  0  0  0  0  0  0  0  0  0
   -5.4732    0.8853    0.3692 C   0  0  0  0  0  0  0  0  0  0  0  0
    1.6495   -2.5474    1.5438 C   0  0  0  0  0  0  0  0  0  0  0  0
    6.6638   -0.1780   -0.9743 C   0  0  0  0  0  0  0  0  0  0  0  0
   -6.8914   -1.8820   -1.5818 C   0  0  0  0  0  0  0  0  0  0  0  0
    4.0966    1.4578   -2.2258 H   0  0  0  0  0  0  0  0  0  0  0  0
   -0.5253   -0.0406   -0.5129 H   0  0  0  0  0  0  0  0  0  0  0  0
   -1.7619    1.6928    1.7355 H   0  0  0  0  0  0  0  0  0  0  0  0
   -2.3574   -1.2145   -0.5791 H   0  0  0  0  0  0  0  0  0  0  0  0
   -4.1316    2.2145    1.3837 H   0  0  0  0  0  0  0  0  0  0  0  0
   -4.4988   -1.9296   -1.3167 H   0  0  0  0  0  0  0  0  0  0  0  0
   -6.3516    1.4667    0.6360 H   0  0  0  0  0  0  0  0  0  0  0  0
    1.1077    2.7137   -0.7531 H   0  0  0  0  0  0  0  0  0  0  0  0
    5.1167   -2.2623    0.0545 H   0  0  0  0  0  0  0  0  0  0  0  0
    2.4463   -3.2178    1.8778 H   0  0  0  0  0  0  0  0  0  0  0  0
    1.4133   -2.7297    0.4894 H   0  0  0  0  0  0  0  0  0  0  0  0
    0.7549   -2.7659    2.1345 H   0  0  0  0  0  0  0  0  0  0  0  0
    6.7246    0.9070   -1.1050 H   0  0  0  0  0  0  0  0  0  0  0  0
    7.4885   -0.6427   -1.5215 H   0  0  0  0  0  0  0  0  0  0  0  0
    6.7590   -0.4338    0.0857 H   0  0  0  0  0  0  0  0  0  0  0  0
   -6.5453   -2.7500   -1.0104 H   0  0  0  0  0  0  0  0  0  0  0  0
   -6.3589   -1.7714   -2.5326 H   0  0  0  0  0  0  0  0  0  0  0  0
   -7.9445   -2.0581   -1.8241 H   0  0  0  0  0  0  0  0  0  0  0  0
  1  8  1  0  0  0  0
  1 22  1  0  0  0  0
  2 11  1  0  0  0  0
  2 23  1  0  0  0  0
  3  9  1  0  0  0  0
  3 32  1  0  0  0  0
  4 10  1  0  0  0  0
  4 33  1  0  0  0  0
  5 13  2  0  0  0  0
  6 19  1  0  0  0  0
  6 24  1  0  0  0  0
  7  8  2  0  0  0  0
  7  9  1  0  0  0  0
  7 13  1  0  0  0  0
  8 10  1  0  0  0  0
  9 12  2  0  0  0  0
 10 11  2  0  0  0  0
 11 12  1  0  0  0  0
 12 25  1  0  0  0  0
 13 15  1  0  0  0  0
 14 16  1  0  0  0  0
 14 17  2  0  0  0  0
 14 18  1  0  0  0  0
 15 16  2  0  0  0  0
 15 26  1  0  0  0  0
 16 27  1  0  0  0  0
 17 20  1  0  0  0  0
 17 28  1  0  0  0  0
 18 21  2  0  0  0  0
 18 29  1  0  0  0  0
 19 20  2  0  0  0  0
 19 21  1  0  0  0  0
 20 30  1  0  0  0  0
 21 31  1  0  0  0  0
 22 34  1  0  0  0  0
 22 35  1  0  0  0  0
 22 36  1  0  0  0  0
 23 37  1  0  0  0  0
 23 38  1  0  0  0  0
 23 39  1  0  0  0  0
 24 40  1  0  0  0  0
 24 41  1  0  0  0  0
 24 42  1  0  0  0  0
M  END
> <PUBCHEM_COMPOUND_CID>
5357330

> <PUBCHEM_CONFORMER_RMSD>
0.8

> <PUBCHEM_CONFORMER_DIVERSEORDER>
3
16
20
7
21
18
1
6
9
8
5
19
13
14
10
15
4
17
2
11
12

> <PUBCHEM_MMFF94_PARTIAL_CHARGES>
33
1 -0.36
10 0.08
11 0.08
12 -0.15
13 0.47
14 0.03
15 -0.14
16 -0.18
17 -0.15
18 -0.15
19 0.08
2 -0.36
20 -0.15
21 -0.15
22 0.28
23 0.28
24 0.28
25 0.15
26 0.15
27 0.15
28 0.15
29 0.15
3 -0.53
30 0.15
31 0.15
32 0.45
33 0.45
4 -0.53
5 -0.57
6 -0.36
7 0.09
8 0.08
9 0.08

> <PUBCHEM_EFFECTIVE_ROTOR_COUNT>
6

> <PUBCHEM_PHARMACOPHORE_FEATURES>
8
1 1 acceptor
1 2 acceptor
1 3 donor
1 4 donor
1 5 acceptor
1 6 acceptor
6 14 17 18 19 20 21 rings
6 7 8 9 10 11 12 rings

> <PUBCHEM_HEAVY_ATOM_COUNT>
24

> <PUBCHEM_ATOM_DEF_STEREO_COUNT>
0

> <PUBCHEM_ATOM_UDEF_STEREO_COUNT>
0

> <PUBCHEM_BOND_DEF_STEREO_COUNT>
1

> <PUBCHEM_BOND_UDEF_STEREO_COUNT>
0

> <PUBCHEM_ISOTOPIC_ATOM_COUNT>
0

> <PUBCHEM_COMPONENT_COUNT>
1

> <PUBCHEM_CACTVS_TAUTO_COUNT>
9

> <PUBCHEM_CONFORMER_ID>
0051BF1200000003

> <PUBCHEM_MMFF94_ENERGY>
104.8865

> <PUBCHEM_FEATURE_SELFOVERLAP>
40.595

> <PUBCHEM_SHAPE_FINGERPRINT>
10693767 8 18268708484610351230
11069576 57 18057616557795842603
11545043 162 16226046721603131507
11724838 91 9439398026278203329
11796584 16 17894905278113917405
12236239 1 18335695083448528244
12516196 113 17385442128899053352
12661589 4 17897176715156961751
12730499 353 16415472770568702161
12788726 201 18189890005940757425
13668630 136 18186796985152397783
13685833 64 16950279602821914383
13836976 161 18131911559559510882
13968360 50 17632859750583837282
14576447 43 18412259562832210976
14931854 50 18341611542137193903
15183329 4 18130788966719249765
15188451 53 15791740681204593005
15348495 7 14273745006507009503
15475509 35 16443628034205868430
15537594 2 18337946887588764819
17134984 74 18272654506480980506
17492 54 17917136261362391618
17857418 61 18261116270793734431
18681886 176 18186241710263335856
20645477 70 17775560965940851945
21033648 29 13326565199541377228
21054139 6 18410854369412541298
21267235 1 18040996216451326031
21521239 73 18341044199260338622
221357 26 17632298990446350517
22289505 5 16415484856411552517
23522609 53 17971724759172488441
23559900 14 18060137592472113913
2748736 6 11454798459631950439
3004659 81 18334857212279774349
3060560 45 17846212242205787500
3411729 13 17314529040709051312
3472631 163 13758066377187549975
351380 3 18187086152774309111
46194498 28 17275385395677397711
465052 167 17385439878446888725
5104073 3 17095804314140639675
559249 180 17967248728765233701
7808743 9 12823005392253205521
7970288 3 17749107803157189487
960060 61 18272654541267408409

> <PUBCHEM_SHAPE_MULTIPOLES>
458.69
16.44
2.08
1.56
14.43
0.35
0.1
6.56
-8.3
-0.19
0.35
-0.83
0.21
-2.38

> <PUBCHEM_SHAPE_SELFOVERLAP>
981.457

> <PUBCHEM_SHAPE_VOLUME>
255.1

> <PUBCHEM_COORDINATE_TYPE>
2
5
10

$$$$

