3509
  -OEChem-06251223272D

 57 58  0     1  0  0  0  0  0999 V2000
    8.0622   -0.8060    0.0000 O   0  0  0  0  0  0  0  0  0  0  0  0
    7.1962    1.6940    0.0000 O   0  0  0  0  0  0  0  0  0  0  0  0
    9.7942   -2.8060    0.0000 O   0  0  0  0  0  0  0  0  0  0  0  0
    8.0622   -2.8060    0.0000 O   0  0  0  0  0  0  0  0  0  0  0  0
   10.4282    2.5600    0.0000 O   0  0  0  0  0  0  0  0  0  0  0  0
    8.9282    1.6940    0.0000 N   0  0  0  0  0  0  0  0  0  0  0  0
   10.6603    0.6940    0.0000 N   0  0  0  0  0  0  0  0  0  0  0  0
    6.3301    0.1940    0.0000 N   0  0  0  0  0  0  0  0  0  0  0  0
    8.9282    0.6940    0.0000 C   0  0  3  0  0  0  0  0  0  0  0  0
    9.7942    0.1940    0.0000 C   0  0  3  0  0  0  0  0  0  0  0  0
    8.0622    0.1940    0.0000 C   0  0  3  0  0  0  0  0  0  0  0  0
    9.7942   -0.8060    0.0000 C   0  0  0  0  0  0  0  0  0  0  0  0
    8.9282   -1.3060    0.0000 C   0  0  3  0  0  0  0  0  0  0  0  0
    7.1962    0.6940    0.0000 C   0  0  0  0  0  0  0  0  0  0  0  0
    8.9282   -2.3060    0.0000 C   0  0  0  0  0  0  0  0  0  0  0  0
    5.4641    0.6940    0.0000 C   0  0  0  0  0  0  0  0  0  0  0  0
    6.3301   -0.8060    0.0000 C   0  0  0  0  0  0  0  0  0  0  0  0
    9.4282    2.5600    0.0000 C   0  0  0  0  0  0  0  0  0  0  0  0
    4.5981    0.1940    0.0000 C   0  0  0  0  0  0  0  0  0  0  0  0
    5.4641   -1.3060    0.0000 C   0  0  0  0  0  0  0  0  0  0  0  0
    8.9282    3.4260    0.0000 C   0  0  0  0  0  0  0  0  0  0  0  0
    3.7320    0.6940    0.0000 C   0  0  0  0  0  0  0  0  0  0  0  0
    5.4641   -2.3060    0.0000 C   0  0  0  0  0  0  0  0  0  0  0  0
    3.7320    1.6940    0.0000 C   0  0  0  0  0  0  0  0  0  0  0  0
    2.8660    0.1940    0.0000 C   0  0  0  0  0  0  0  0  0  0  0  0
    2.8660    2.1940    0.0000 C   0  0  0  0  0  0  0  0  0  0  0  0
    2.0000    0.6940    0.0000 C   0  0  0  0  0  0  0  0  0  0  0  0
    2.0000    1.6940    0.0000 C   0  0  0  0  0  0  0  0  0  0  0  0
    9.4651    1.0040    0.0000 H   0  0  0  0  0  0  0  0  0  0  0  0
    9.7942    0.8140    0.0000 H   0  0  0  0  0  0  0  0  0  0  0  0
    7.5252   -0.1160    0.0000 H   0  0  0  0  0  0  0  0  0  0  0  0
   10.0063   -1.3886    0.0000 H   0  0  0  0  0  0  0  0  0  0  0  0
   10.4048   -0.6984    0.0000 H   0  0  0  0  0  0  0  0  0  0  0  0
    8.3913   -1.6160    0.0000 H   0  0  0  0  0  0  0  0  0  0  0  0
    8.3913    2.0040    0.0000 H   0  0  0  0  0  0  0  0  0  0  0  0
   11.1972    0.3840    0.0000 H   0  0  0  0  0  0  0  0  0  0  0  0
   10.9703    1.2309    0.0000 H   0  0  0  0  0  0  0  0  0  0  0  0
    5.8626    1.1689    0.0000 H   0  0  0  0  0  0  0  0  0  0  0  0
    5.0656    1.1689    0.0000 H   0  0  0  0  0  0  0  0  0  0  0  0
    6.5422   -1.3886    0.0000 H   0  0  0  0  0  0  0  0  0  0  0  0
    6.9407   -0.6984    0.0000 H   0  0  0  0  0  0  0  0  0  0  0  0
    4.1996   -0.2810    0.0000 H   0  0  0  0  0  0  0  0  0  0  0  0
    4.9966   -0.2810    0.0000 H   0  0  0  0  0  0  0  0  0  0  0  0
    5.2520   -0.7234    0.0000 H   0  0  0  0  0  0  0  0  0  0  0  0
    4.8535   -1.4137    0.0000 H   0  0  0  0  0  0  0  0  0  0  0  0
    9.4651    3.7360    0.0000 H   0  0  0  0  0  0  0  0  0  0  0  0
    8.6182    3.9630    0.0000 H   0  0  0  0  0  0  0  0  0  0  0  0
    8.3913    3.1160    0.0000 H   0  0  0  0  0  0  0  0  0  0  0  0
    9.7942   -3.4260    0.0000 H   0  0  0  0  0  0  0  0  0  0  0  0
    4.8441   -2.3060    0.0000 H   0  0  0  0  0  0  0  0  0  0  0  0
    5.4641   -2.9260    0.0000 H   0  0  0  0  0  0  0  0  0  0  0  0
    6.0841   -2.3060    0.0000 H   0  0  0  0  0  0  0  0  0  0  0  0
    4.2690    2.0040    0.0000 H   0  0  0  0  0  0  0  0  0  0  0  0
    2.8660   -0.4260    0.0000 H   0  0  0  0  0  0  0  0  0  0  0  0
    2.8660    2.8140    0.0000 H   0  0  0  0  0  0  0  0  0  0  0  0
    1.4631    0.3840    0.0000 H   0  0  0  0  0  0  0  0  0  0  0  0
    1.4631    2.0040    0.0000 H   0  0  0  0  0  0  0  0  0  0  0  0
  1 11  1  0  0  0  0
  1 13  1  0  0  0  0
  2 14  2  0  0  0  0
  3 15  1  0  0  0  0
  3 49  1  0  0  0  0
  4 15  2  0  0  0  0
  5 18  2  0  0  0  0
  6  9  1  0  0  0  0
  6 18  1  0  0  0  0
  6 35  1  0  0  0  0
  7 10  1  0  0  0  0
  7 36  1  0  0  0  0
  7 37  1  0  0  0  0
  8 14  1  0  0  0  0
  8 16  1  0  0  0  0
  8 17  1  0  0  0  0
  9 10  1  0  0  0  0
  9 11  1  0  0  0  0
  9 29  1  0  0  0  0
 10 12  1  0  0  0  0
 10 30  1  0  0  0  0
 11 14  1  0  0  0  0
 11 31  1  0  0  0  0
 12 13  1  0  0  0  0
 12 32  1  0  0  0  0
 12 33  1  0  0  0  0
 13 15  1  0  0  0  0
 13 34  1  0  0  0  0
 16 19  1  0  0  0  0
 16 38  1  0  0  0  0
 16 39  1  0  0  0  0
 17 20  1  0  0  0  0
 17 40  1  0  0  0  0
 17 41  1  0  0  0  0
 18 21  1  0  0  0  0
 19 22  1  0  0  0  0
 19 42  1  0  0  0  0
 19 43  1  0  0  0  0
 20 23  1  0  0  0  0
 20 44  1  0  0  0  0
 20 45  1  0  0  0  0
 21 46  1  0  0  0  0
 21 47  1  0  0  0  0
 21 48  1  0  0  0  0
 22 24  2  0  0  0  0
 22 25  1  0  0  0  0
 23 50  1  0  0  0  0
 23 51  1  0  0  0  0
 23 52  1  0  0  0  0
 24 26  1  0  0  0  0
 24 53  1  0  0  0  0
 25 27  2  0  0  0  0
 25 54  1  0  0  0  0
 26 28  2  0  0  0  0
 26 55  1  0  0  0  0
 27 28  1  0  0  0  0
 27 56  1  0  0  0  0
 28 57  1  0  0  0  0
M  END
> <PUBCHEM_COMPOUND_CID>
3509

> <PUBCHEM_COMPOUND_CANONICALIZED>
1

> <PUBCHEM_CACTVS_COMPLEXITY>
550

> <PUBCHEM_CACTVS_HBOND_ACCEPTOR>
6

> <PUBCHEM_CACTVS_HBOND_DONOR>
3

> <PUBCHEM_CACTVS_ROTATABLE_BOND>
8

> <PUBCHEM_CACTVS_SUBSKEYS>
AAADceB7OAAAAAAAAAAAAAAAAAAAAAAAAAA0QAAAAAAAAAABAAAAHgAQCAAADDzhmAYyCIPABgCIAiHSGAICAAAgAAAIiIFIAIgLYDqA0RWXYAAmlgCbiAe82aOeAAAAAAAAAAAAAAAAAAAAAAAAAAAAAA==

> <PUBCHEM_IUPAC_OPENEYE_NAME>
5-acetamido-4-amino-6-[2-phenylethyl(propyl)carbamoyl]tetrahydropyran-2-carboxylic acid

> <PUBCHEM_IUPAC_CAS_NAME>
5-acetamido-4-amino-6-[oxo-[2-phenylethyl(propyl)amino]methyl]-2-oxanecarboxylic acid

> <PUBCHEM_IUPAC_NAME>
5-acetamido-4-amino-6-[2-phenylethyl(propyl)carbamoyl]oxane-2-carboxylic acid

> <PUBCHEM_IUPAC_SYSTEMATIC_NAME>
5-acetamido-4-azanyl-6-[2-phenylethyl(propyl)carbamoyl]oxane-2-carboxylic acid

> <PUBCHEM_IUPAC_TRADITIONAL_NAME>
5-acetamido-4-amino-6-[phenethyl(propyl)carbamoyl]tetrahydropyran-2-carboxylic acid

> <PUBCHEM_IUPAC_INCHI>
InChI=1S/C20H29N3O5/c1-3-10-23(11-9-14-7-5-4-6-8-14)19(25)18-17(22-13(2)24)15(21)12-16(28-18)20(26)27/h4-8,15-18H,3,9-12,21H2,1-2H3,(H,22,24)(H,26,27)

> <PUBCHEM_IUPAC_INCHIKEY>
HFHYYLGLPNXPCS-UHFFFAOYSA-N

> <PUBCHEM_XLOGP3_AA>
-1

> <PUBCHEM_EXACT_MASS>
391.210721

> <PUBCHEM_MOLECULAR_FORMULA>
C20H29N3O5

> <PUBCHEM_MOLECULAR_WEIGHT>
391.46136

> <PUBCHEM_OPENEYE_CAN_SMILES>
CCCN(CCC1=CC=CC=C1)C(=O)C2C(C(CC(O2)C(=O)O)N)NC(=O)C

> <PUBCHEM_OPENEYE_ISO_SMILES>
CCCN(CCC1=CC=CC=C1)C(=O)C2C(C(CC(O2)C(=O)O)N)NC(=O)C

> <PUBCHEM_CACTVS_TPSA>
122

> <PUBCHEM_MONOISOTOPIC_WEIGHT>
391.210721

> <PUBCHEM_TOTAL_CHARGE>
0

> <PUBCHEM_HEAVY_ATOM_COUNT>
28

> <PUBCHEM_ATOM_DEF_STEREO_COUNT>
0

> <PUBCHEM_ATOM_UDEF_STEREO_COUNT>
4

> <PUBCHEM_BOND_DEF_STEREO_COUNT>
0

> <PUBCHEM_BOND_UDEF_STEREO_COUNT>
0

> <PUBCHEM_ISOTOPIC_ATOM_COUNT>
0

> <PUBCHEM_COMPONENT_COUNT>
1

> <PUBCHEM_CACTVS_TAUTO_COUNT>
2

> <PUBCHEM_COORDINATE_TYPE>
1
5
255

> <PUBCHEM_BONDANNOTATIONS>
11  14  3
13  15  3
22  24  8
22  25  8
24  26  8
25  27  8
26  28  8
27  28  8
9  6  3
10  7  3

$$$$

