53297383
  -OEChem-07051213123D

 40 41  0     1  0  0  0  0  0999 V2000
   -5.7246    0.7645   -0.7796 Cl  0  0  0  0  0  0  0  0  0  0  0  0
    3.2848   -0.6488   -0.3277 O   0  0  0  0  0  0  0  0  0  0  0  0
    0.8198   -1.5563   -0.0696 N   0  0  0  0  0  0  0  0  0  0  0  0
    1.1108   -2.3676    0.9586 N   0  0  0  0  0  0  0  0  0  0  0  0
    0.4253   -3.5483   -0.8768 N   0  0  0  0  0  0  0  0  0  0  0  0
    2.8950    1.7720   -0.1089 C   0  0  0  0  0  0  0  0  0  0  0  0
    2.4589    0.3265    0.3152 C   0  0  1  0  0  0  0  0  0  0  0  0
    0.9597   -0.0382    0.0624 C   0  0  2  0  0  0  0  0  0  0  0  0
   -0.0188    0.5117    1.1345 C   0  0  0  0  0  0  0  0  0  0  0  0
    2.0899    2.8640    0.6140 C   0  0  0  0  0  0  0  0  0  0  0  0
    2.6761    1.9564   -1.6285 C   0  0  0  0  0  0  0  0  0  0  0  0
    4.3964    1.9889    0.1712 C   0  0  0  0  0  0  0  0  0  0  0  0
   -1.4523    0.5750    0.6547 C   0  0  0  0  0  0  0  0  0  0  0  0
    0.4135   -2.2657   -1.1566 C   0  0  0  0  0  0  0  0  0  0  0  0
   -1.9270    1.7267    0.0271 C   0  0  0  0  0  0  0  0  0  0  0  0
   -2.2990   -0.5180    0.8396 C   0  0  0  0  0  0  0  0  0  0  0  0
    0.8556   -3.5614    0.4192 C   0  0  0  0  0  0  0  0  0  0  0  0
   -3.2485    1.7856   -0.4155 C   0  0  0  0  0  0  0  0  0  0  0  0
   -3.6205   -0.4592    0.3972 C   0  0  0  0  0  0  0  0  0  0  0  0
   -4.0952    0.6925   -0.2304 C   0  0  0  0  0  0  0  0  0  0  0  0
    2.6578    0.2117    1.3886 H   0  0  0  0  0  0  0  0  0  0  0  0
    0.6579    0.3060   -0.9326 H   0  0  0  0  0  0  0  0  0  0  0  0
    0.0230   -0.1170    2.0345 H   0  0  0  0  0  0  0  0  0  0  0  0
    0.2487    1.5015    1.4979 H   0  0  0  0  0  0  0  0  0  0  0  0
    2.5366    3.8508    0.4391 H   0  0  0  0  0  0  0  0  0  0  0  0
    2.0876    2.7063    1.6975 H   0  0  0  0  0  0  0  0  0  0  0  0
    1.0646    2.9349    0.2440 H   0  0  0  0  0  0  0  0  0  0  0  0
    3.2233    1.2139   -2.2177 H   0  0  0  0  0  0  0  0  0  0  0  0
    3.0357    2.9420   -1.9497 H   0  0  0  0  0  0  0  0  0  0  0  0
    1.6202    1.9069   -1.9095 H   0  0  0  0  0  0  0  0  0  0  0  0
    5.0187    1.2805   -0.3864 H   0  0  0  0  0  0  0  0  0  0  0  0
    4.7151    2.9982   -0.1133 H   0  0  0  0  0  0  0  0  0  0  0  0
    4.6141    1.8597    1.2373 H   0  0  0  0  0  0  0  0  0  0  0  0
    3.0478   -0.6766   -1.2696 H   0  0  0  0  0  0  0  0  0  0  0  0
    0.1294   -1.8135   -2.0961 H   0  0  0  0  0  0  0  0  0  0  0  0
   -1.2792    2.5849   -0.1256 H   0  0  0  0  0  0  0  0  0  0  0  0
   -1.9443   -1.4203    1.3301 H   0  0  0  0  0  0  0  0  0  0  0  0
    0.9872   -4.4695    0.9883 H   0  0  0  0  0  0  0  0  0  0  0  0
   -3.6045    2.6892   -0.9036 H   0  0  0  0  0  0  0  0  0  0  0  0
   -4.2690   -1.3184    0.5482 H   0  0  0  0  0  0  0  0  0  0  0  0
  1 20  1  0  0  0  0
  2  7  1  0  0  0  0
  2 34  1  0  0  0  0
  3  4  1  0  0  0  0
  3  8  1  0  0  0  0
  3 14  1  0  0  0  0
  4 17  2  0  0  0  0
  5 14  2  0  0  0  0
  5 17  1  0  0  0  0
  6  7  1  0  0  0  0
  6 10  1  0  0  0  0
  6 11  1  0  0  0  0
  6 12  1  0  0  0  0
  7  8  1  0  0  0  0
  7 21  1  0  0  0  0
  8  9  1  0  0  0  0
  8 22  1  0  0  0  0
  9 13  1  0  0  0  0
  9 23  1  0  0  0  0
  9 24  1  0  0  0  0
 10 25  1  0  0  0  0
 10 26  1  0  0  0  0
 10 27  1  0  0  0  0
 11 28  1  0  0  0  0
 11 29  1  0  0  0  0
 11 30  1  0  0  0  0
 12 31  1  0  0  0  0
 12 32  1  0  0  0  0
 12 33  1  0  0  0  0
 13 15  2  0  0  0  0
 13 16  1  0  0  0  0
 14 35  1  0  0  0  0
 15 18  1  0  0  0  0
 15 36  1  0  0  0  0
 16 19  2  0  0  0  0
 16 37  1  0  0  0  0
 17 38  1  0  0  0  0
 18 20  2  0  0  0  0
 18 39  1  0  0  0  0
 19 20  1  0  0  0  0
 19 40  1  0  0  0  0
M  END
> <PUBCHEM_COMPOUND_CID>
53297383

> <PUBCHEM_CONFORMER_RMSD>
0.8

> <PUBCHEM_CONFORMER_DIVERSEORDER>
1
19
15
5
4
9
16
8
18
14
10
6
12
7
2
3
17
11
13

> <PUBCHEM_MMFF94_PARTIAL_CHARGES>
23
1 -0.18
13 -0.14
14 0.04
15 -0.15
16 -0.15
17 0.37
18 -0.15
19 -0.15
2 -0.68
20 0.18
3 0.31
34 0.4
35 0.15
36 0.15
37 0.15
38 0.15
39 0.15
4 -0.71
40 0.15
5 -0.57
7 0.28
8 0.26
9 0.14

> <PUBCHEM_EFFECTIVE_ROTOR_COUNT>
5

> <PUBCHEM_PHARMACOPHORE_FEATURES>
7
1 2 acceptor
1 2 donor
3 3 5 14 cation
3 4 5 17 cation
4 6 10 11 12 hydrophobe
5 3 4 5 14 17 rings
6 13 15 16 18 19 20 rings

> <PUBCHEM_HEAVY_ATOM_COUNT>
20

> <PUBCHEM_ATOM_DEF_STEREO_COUNT>
1

> <PUBCHEM_ATOM_UDEF_STEREO_COUNT>
1

> <PUBCHEM_BOND_DEF_STEREO_COUNT>
0

> <PUBCHEM_BOND_UDEF_STEREO_COUNT>
0

> <PUBCHEM_ISOTOPIC_ATOM_COUNT>
0

> <PUBCHEM_COMPONENT_COUNT>
1

> <PUBCHEM_CACTVS_TAUTO_COUNT>
1

> <PUBCHEM_CONFORMER_ID>
032D40E700000001

> <PUBCHEM_MMFF94_ENERGY>
54.4298

> <PUBCHEM_FEATURE_SELFOVERLAP>
38.269

> <PUBCHEM_SHAPE_FINGERPRINT>
10090160 65 18412833464878416709
10871710 139 16685393756856654628
11370993 70 18411984632879432661
116883 192 17255405345149973828
121448 382 18044108855673815007
12553582 1 17399782191371500067
12730499 353 18412258446367541657
12788726 201 17336736826184608882
13149001 5 17534338946931115560
13681431 1 17975689807652961426
13836976 161 18409452504876856087
14415576 193 18341891913454768405
15502722 9 18338234980898919129
15849732 13 18342468062633767130
17539 30 17612880288076172910
18186145 218 18115008732803579888
19591789 44 18192430771148543227
20197701 30 18409735032400115850
20567600 347 18412545396794694691
20600515 1 17108198330366288642
20645477 70 18337675316827587863
20671657 53 17831858328037335647
21054139 6 18116450171452358407
21524375 3 18340482270975864248
23114952 82 18269556220616708093
23227448 37 17832422003956469540
23419403 2 16743892409613228503
23557571 272 17274240813243124331
23558518 356 17551519838802550552
23559900 14 18266749167420270987
238 59 18408600366222273177
257057 1 17547292667058740130
2748010 2 18268127791402309346
298252 57 18341894035384813104
3060560 45 18410856568557018836
4280585 95 17541371779827296294
474 4 18060415798662376445
495365 180 18335999605051314753
5262128 65 17828193634486372399
53917941 68 18046923588551494876
6025842 7 18337399331003756511
6138700 20 18266451204586889614
633830 44 17678149694760897049
7164475 11 17690559681146128228
7364860 26 18338516472744288715
81228 2 17471854697477507034
81539 233 18413388743709075879
8272917 22 18335419136173712437
9709674 26 18268145543114372099

> <PUBCHEM_SHAPE_MULTIPOLES>
392.65
8.12
3.8
1.1
7.66
3.6
-0.19
-6.2
-1.56
-2.82
-0.41
-0.18
0.01
0.2

> <PUBCHEM_SHAPE_SELFOVERLAP>
803.579

> <PUBCHEM_SHAPE_VOLUME>
230

> <PUBCHEM_COORDINATE_TYPE>
2
5
10

$$$$

