443485
  -OEChem-07051213022D

 53 55  0     1  0  0  0  0  0999 V2000
    3.3125   -3.2713    0.0000 O   0  0  0  0  0  0  0  0  0  0  0  0
    2.9239   -0.2267    0.0000 C   0  0  2  0  0  0  0  0  0  0  0  0
    3.8478   -0.6094    0.0000 C   0  0  2  0  0  0  0  0  0  0  0  0
    5.1543    0.6972    0.0000 C   0  0  2  0  0  0  0  0  0  0  0  0
    4.7716    1.6210    0.0000 C   0  0  0  0  0  0  0  0  0  0  0  0
    4.7716   -0.2267    0.0000 C   0  0  0  0  0  0  0  0  0  0  0  0
    2.5412    0.6972    0.0000 C   0  0  0  0  0  0  0  0  0  0  0  0
    2.0878   -0.8480    0.0000 C   0  0  0  0  0  0  0  0  0  0  0  0
    3.8478    2.0037    0.0000 C   0  0  0  0  0  0  0  0  0  0  0  0
    2.9239    1.6210    0.0000 C   0  0  0  0  0  0  0  0  0  0  0  0
    5.8274    1.4389    0.0000 C   0  0  0  0  0  0  0  0  0  0  0  0
    3.9996   -1.6399    0.0000 C   0  0  0  0  0  0  0  0  0  0  0  0
    2.2158   -1.8817    0.0000 C   0  0  0  0  0  0  0  0  0  0  0  0
    2.0000    0.1560    0.0000 C   0  0  0  0  0  0  0  0  0  0  0  0
    3.1782   -2.2804    0.0000 C   0  0  2  0  0  0  0  0  0  0  0  0
    5.5526    2.4020    0.0000 C   0  0  0  0  0  0  0  0  0  0  0  0
    4.5895    2.6768    0.0000 C   0  0  0  0  0  0  0  0  0  0  0  0
    5.0693    2.7318    0.0000 C   0  0  0  0  0  0  0  0  0  0  0  0
    5.8825    1.9187    0.0000 C   0  0  0  0  0  0  0  0  0  0  0  0
    4.3620    3.6506    0.0000 C   0  0  0  0  0  0  0  0  0  0  0  0
    4.9279   -2.0119    0.0000 C   0  0  0  0  0  0  0  0  0  0  0  0
    4.6331   -0.9347    0.0000 H   0  0  0  0  0  0  0  0  0  0  0  0
    5.4796   -0.0881    0.0000 H   0  0  0  0  0  0  0  0  0  0  0  0
    4.8526   -0.8414    0.0000 H   0  0  0  0  0  0  0  0  0  0  0  0
    5.3863   -0.3076    0.0000 H   0  0  0  0  0  0  0  0  0  0  0  0
    2.0493    1.0746    0.0000 H   0  0  0  0  0  0  0  0  0  0  0  0
    2.0493    0.3197    0.0000 H   0  0  0  0  0  0  0  0  0  0  0  0
    1.8086   -0.2944    0.0000 H   0  0  0  0  0  0  0  0  0  0  0  0
    1.4946   -1.0284    0.0000 H   0  0  0  0  0  0  0  0  0  0  0  0
    2.8430    2.2357    0.0000 H   0  0  0  0  0  0  0  0  0  0  0  0
    2.3092    1.7020    0.0000 H   0  0  0  0  0  0  0  0  0  0  0  0
    6.2019    0.9447    0.0000 H   0  0  0  0  0  0  0  0  0  0  0  0
    6.3821    1.7159    0.0000 H   0  0  0  0  0  0  0  0  0  0  0  0
    1.5966   -1.8515    0.0000 H   0  0  0  0  0  0  0  0  0  0  0  0
    2.0801   -2.4867    0.0000 H   0  0  0  0  0  0  0  0  0  0  0  0
    2.2373    0.7288    0.0000 H   0  0  0  0  0  0  0  0  0  0  0  0
    1.4272    0.3932    0.0000 H   0  0  0  0  0  0  0  0  0  0  0  0
    1.7627   -0.4168    0.0000 H   0  0  0  0  0  0  0  0  0  0  0  0
    2.6870   -2.6587    0.0000 H   0  0  0  0  0  0  0  0  0  0  0  0
    6.1700    2.4594    0.0000 H   0  0  0  0  0  0  0  0  0  0  0  0
    5.6100    3.0194    0.0000 H   0  0  0  0  0  0  0  0  0  0  0  0
    5.6682    2.5714    0.0000 H   0  0  0  0  0  0  0  0  0  0  0  0
    5.2298    3.3307    0.0000 H   0  0  0  0  0  0  0  0  0  0  0  0
    4.4704    2.8923    0.0000 H   0  0  0  0  0  0  0  0  0  0  0  0
    6.0429    1.3198    0.0000 H   0  0  0  0  0  0  0  0  0  0  0  0
    6.4813    2.0792    0.0000 H   0  0  0  0  0  0  0  0  0  0  0  0
    5.7220    2.5176    0.0000 H   0  0  0  0  0  0  0  0  0  0  0  0
    4.9657    3.7917    0.0000 H   0  0  0  0  0  0  0  0  0  0  0  0
    4.2209    4.2544    0.0000 H   0  0  0  0  0  0  0  0  0  0  0  0
    3.7582    3.5096    0.0000 H   0  0  0  0  0  0  0  0  0  0  0  0
    5.0159   -2.6256    0.0000 H   0  0  0  0  0  0  0  0  0  0  0  0
    5.4154   -1.6288    0.0000 H   0  0  0  0  0  0  0  0  0  0  0  0
    2.8221   -3.6506    0.0000 H   0  0  0  0  0  0  0  0  0  0  0  0
 15  1  1  1  0  0  0
  1 53  1  0  0  0  0
  2  3  1  0  0  0  0
  2  7  1  0  0  0  0
  2  8  1  0  0  0  0
  2 14  1  6  0  0  0
  3  6  1  0  0  0  0
  3 12  1  0  0  0  0
  3 22  1  1  0  0  0
  4  5  1  0  0  0  0
  4  6  1  0  0  0  0
  4 11  1  0  0  0  0
  4 23  1  6  0  0  0
  5  9  1  0  0  0  0
  5 18  1  0  0  0  0
  5 19  1  0  0  0  0
  6 24  1  0  0  0  0
  6 25  1  0  0  0  0
  7 10  1  0  0  0  0
  7 26  1  0  0  0  0
  7 27  1  0  0  0  0
  8 13  1  0  0  0  0
  8 28  1  0  0  0  0
  8 29  1  0  0  0  0
  9 10  1  0  0  0  0
  9 17  2  0  0  0  0
 10 30  1  0  0  0  0
 10 31  1  0  0  0  0
 11 16  1  0  0  0  0
 11 32  1  0  0  0  0
 11 33  1  0  0  0  0
 12 15  1  0  0  0  0
 12 21  2  0  0  0  0
 13 15  1  0  0  0  0
 13 34  1  0  0  0  0
 13 35  1  0  0  0  0
 14 36  1  0  0  0  0
 14 37  1  0  0  0  0
 14 38  1  0  0  0  0
 15 39  1  0  0  0  0
 16 17  1  0  0  0  0
 16 40  1  0  0  0  0
 16 41  1  0  0  0  0
 17 20  1  0  0  0  0
 18 42  1  0  0  0  0
 18 43  1  0  0  0  0
 18 44  1  0  0  0  0
 19 45  1  0  0  0  0
 19 46  1  0  0  0  0
 19 47  1  0  0  0  0
 20 48  1  0  0  0  0
 20 49  1  0  0  0  0
 20 50  1  0  0  0  0
 21 51  1  0  0  0  0
 21 52  1  0  0  0  0
M  END
> <PUBCHEM_COMPOUND_CID>
443485

> <PUBCHEM_COMPOUND_CANONICALIZED>
1

> <PUBCHEM_CACTVS_COMPLEXITY>
484

> <PUBCHEM_CACTVS_HBOND_ACCEPTOR>
1

> <PUBCHEM_CACTVS_HBOND_DONOR>
1

> <PUBCHEM_CACTVS_ROTATABLE_BOND>
0

> <PUBCHEM_CACTVS_SUBSKEYS>
AAADcfB4IAAAAAAAAAAAAAAAAAAAAAAAAAAwQAAAAAAYAACAAAAAGgAACAAADxSggAICAAAAAgCAAgBCAAAAAAAgAAAACAAAAAgAFAIAAQAAQAAEgAAIEAOAwPAPgAAAAAAAAABAAAIAACAAAAAAAAAAAA==

> <PUBCHEM_IUPAC_INCHI>
InChI=1S/C20H32O/c1-13-6-7-15-12-17-14(2)18(21)9-11-20(17,5)10-8-16(13)19(15,3)4/h15,17-18,21H,2,6-12H2,1,3-5H3/t15-,17+,18-,20+/m0/s1

> <PUBCHEM_IUPAC_INCHIKEY>
QHDGSWAXTYWVOP-ZNWBIBPKSA-N

> <PUBCHEM_XLOGP3_AA>
4.4

> <PUBCHEM_EXACT_MASS>
288.245316

> <PUBCHEM_MOLECULAR_FORMULA>
C20H32O

> <PUBCHEM_MOLECULAR_WEIGHT>
288.46748

> <PUBCHEM_OPENEYE_CAN_SMILES>
CC1=C2CCC3(CCC(C(=C)C3CC(C2(C)C)CC1)O)C

> <PUBCHEM_OPENEYE_ISO_SMILES>
CC1=C2CC[C@@]3(CC[C@@H](C(=C)[C@H]3C[C@@H](C2(C)C)CC1)O)C

> <PUBCHEM_CACTVS_TPSA>
20.2

> <PUBCHEM_MONOISOTOPIC_WEIGHT>
288.245316

> <PUBCHEM_TOTAL_CHARGE>
0

> <PUBCHEM_HEAVY_ATOM_COUNT>
21

> <PUBCHEM_ATOM_DEF_STEREO_COUNT>
4

> <PUBCHEM_ATOM_UDEF_STEREO_COUNT>
0

> <PUBCHEM_BOND_DEF_STEREO_COUNT>
0

> <PUBCHEM_BOND_UDEF_STEREO_COUNT>
0

> <PUBCHEM_ISOTOPIC_ATOM_COUNT>
0

> <PUBCHEM_COMPONENT_COUNT>
1

> <PUBCHEM_CACTVS_TAUTO_COUNT>
1

> <PUBCHEM_COORDINATE_TYPE>
1
5
255

> <PUBCHEM_BONDANNOTATIONS>
15  1  5
2  14  6
3  22  5
4  23  6

$$$$

