3897
  -OEChem-06251223453D

 87 89  0     1  0  0  0  0  0999 V2000
   -0.7195    0.7584    2.2757 O   0  0  0  0  0  0  0  0  0  0  0  0
    1.6522    2.5475   -1.1353 O   0  0  0  0  0  0  0  0  0  0  0  0
   -0.5568   -1.6103   -1.5161 O   0  0  0  0  0  0  0  0  0  0  0  0
    1.2344    0.3423   -3.5557 O   0  0  0  0  0  0  0  0  0  0  0  0
   -3.1225   -4.6006   -0.0137 O   0  0  0  0  0  0  0  0  0  0  0  0
   -3.1761   -3.7390    2.0852 O   0  0  0  0  0  0  0  0  0  0  0  0
    0.0336   -0.9759    0.7517 C   0  0  2  0  0  0  0  0  0  0  0  0
    1.3612   -1.7615    1.1382 C   0  0  0  0  0  0  0  0  0  0  0  0
    2.6332   -0.8970    0.7695 C   0  0  1  0  0  0  0  0  0  0  0  0
    1.2390    1.2781    0.9436 C   0  0  2  0  0  0  0  0  0  0  0  0
    2.5460    0.5508    1.3098 C   0  0  0  0  0  0  0  0  0  0  0  0
    0.0912    0.3969    1.4252 C   0  0  0  0  0  0  0  0  0  0  0  0
   -1.2686   -1.6801    1.1922 C   0  0  2  0  0  0  0  0  0  0  0  0
   -0.0725   -0.7578   -0.7705 C   0  0  0  0  0  0  0  0  0  0  0  0
    1.3963   -2.0768    2.6559 C   0  0  0  0  0  0  0  0  0  0  0  0
    1.4060   -3.1297    0.4072 C   0  0  0  0  0  0  0  0  0  0  0  0
    1.0735    1.4205   -0.5675 C   0  0  0  0  0  0  0  0  0  0  0  0
    3.9786   -1.4982    1.2075 C   0  0  0  0  0  0  0  0  0  0  0  0
    1.1694    2.6298    1.6809 C   0  0  0  0  0  0  0  0  0  0  0  0
    0.4561    0.5167   -1.3534 C   0  0  0  0  0  0  0  0  0  0  0  0
   -1.3938   -3.0751    0.5584 C   0  0  0  0  0  0  0  0  0  0  0  0
   -2.4672   -0.8108    0.8608 C   0  0  0  0  0  0  0  0  0  0  0  0
    5.1146   -0.6289    0.7715 C   0  0  0  0  0  0  0  0  0  0  0  0
   -0.0992    3.3456    1.3486 C   0  0  0  0  0  0  0  0  0  0  0  0
    0.3628    0.7702   -2.8012 C   0  0  0  0  0  0  0  0  0  0  0  0
   -2.6386   -3.8223    0.9898 C   0  0  0  0  0  0  0  0  0  0  0  0
   -3.0796   -0.9527   -0.3702 C   0  0  0  0  0  0  0  0  0  0  0  0
   -2.9162    0.1005    1.7981 C   0  0  0  0  0  0  0  0  0  0  0  0
   -0.8608    1.5302   -3.2849 C   0  0  0  0  0  0  0  0  0  0  0  0
    5.7692   -0.6605   -0.4049 C   0  0  0  0  0  0  0  0  0  0  0  0
   -0.7667    4.2313    2.1124 C   0  0  0  0  0  0  0  0  0  0  0  0
   -4.1816   -0.1536   -0.6752 C   0  0  0  0  0  0  0  0  0  0  0  0
   -4.0181    0.8998    1.4929 C   0  0  0  0  0  0  0  0  0  0  0  0
   -1.3271    1.1064   -4.6865 C   0  0  0  0  0  0  0  0  0  0  0  0
   -4.6508    0.7730    0.2562 C   0  0  0  0  0  0  0  0  0  0  0  0
    5.3730   -1.6458   -1.4720 C   0  0  0  0  0  0  0  0  0  0  0  0
    6.9077    0.2430   -0.7855 C   0  0  0  0  0  0  0  0  0  0  0  0
   -0.2423    4.6149    3.4706 C   0  0  0  0  0  0  0  0  0  0  0  0
   -2.0430    4.9209    1.7219 C   0  0  0  0  0  0  0  0  0  0  0  0
   -1.6318   -0.3927   -4.7065 C   0  0  0  0  0  0  0  0  0  0  0  0
   -2.5654    1.8925   -5.1246 C   0  0  0  0  0  0  0  0  0  0  0  0
    2.6659   -0.8390   -0.3269 H   0  0  0  0  0  0  0  0  0  0  0  0
    3.3738    1.1590    0.9249 H   0  0  0  0  0  0  0  0  0  0  0  0
    2.6628    0.5339    2.4019 H   0  0  0  0  0  0  0  0  0  0  0  0
   -1.2800   -1.8157    2.2819 H   0  0  0  0  0  0  0  0  0  0  0  0
    1.3854   -1.1716    3.2700 H   0  0  0  0  0  0  0  0  0  0  0  0
    0.5446   -2.6898    2.9670 H   0  0  0  0  0  0  0  0  0  0  0  0
    2.2833   -2.6571    2.9304 H   0  0  0  0  0  0  0  0  0  0  0  0
    0.8607   -3.1890   -0.5322 H   0  0  0  0  0  0  0  0  0  0  0  0
    2.4296   -3.3516    0.0874 H   0  0  0  0  0  0  0  0  0  0  0  0
    1.1804   -3.9814    1.0565 H   0  0  0  0  0  0  0  0  0  0  0  0
    4.0356   -1.5585    2.3010 H   0  0  0  0  0  0  0  0  0  0  0  0
    4.1262   -2.5225    0.8585 H   0  0  0  0  0  0  0  0  0  0  0  0
    1.2352    2.4423    2.7597 H   0  0  0  0  0  0  0  0  0  0  0  0
    2.0228    3.2667    1.4214 H   0  0  0  0  0  0  0  0  0  0  0  0
   -0.6709   -3.7521    0.9983 H   0  0  0  0  0  0  0  0  0  0  0  0
   -1.3524   -3.1851   -0.5197 H   0  0  0  0  0  0  0  0  0  0  0  0
    5.4460    0.1034    1.5071 H   0  0  0  0  0  0  0  0  0  0  0  0
   -0.5390    3.1649    0.3696 H   0  0  0  0  0  0  0  0  0  0  0  0
    2.3497    2.8669   -0.5404 H   0  0  0  0  0  0  0  0  0  0  0  0
   -2.8007   -1.6824   -1.1178 H   0  0  0  0  0  0  0  0  0  0  0  0
   -2.5959    0.0897    2.8369 H   0  0  0  0  0  0  0  0  0  0  0  0
   -1.6772    1.3854   -2.5664 H   0  0  0  0  0  0  0  0  0  0  0  0
   -0.6054    2.5965   -3.2839 H   0  0  0  0  0  0  0  0  0  0  0  0
   -4.6821   -0.2606   -1.6332 H   0  0  0  0  0  0  0  0  0  0  0  0
   -4.4123    1.5881    2.2350 H   0  0  0  0  0  0  0  0  0  0  0  0
   -0.5231    1.3020   -5.4071 H   0  0  0  0  0  0  0  0  0  0  0  0
   -5.5164    1.3862    0.0235 H   0  0  0  0  0  0  0  0  0  0  0  0
    5.1559   -1.1137   -2.4050 H   0  0  0  0  0  0  0  0  0  0  0  0
    6.1982   -2.3407   -1.6612 H   0  0  0  0  0  0  0  0  0  0  0  0
    4.4884   -2.2420   -1.2403 H   0  0  0  0  0  0  0  0  0  0  0  0
    7.1578    0.9380    0.0227 H   0  0  0  0  0  0  0  0  0  0  0  0
    6.6466    0.8360   -1.6678 H   0  0  0  0  0  0  0  0  0  0  0  0
    7.8030   -0.3454   -1.0102 H   0  0  0  0  0  0  0  0  0  0  0  0
   -0.2840    5.7032    3.5930 H   0  0  0  0  0  0  0  0  0  0  0  0
    0.7978    4.3306    3.6465 H   0  0  0  0  0  0  0  0  0  0  0  0
   -0.8604    4.1614    4.2522 H   0  0  0  0  0  0  0  0  0  0  0  0
   -2.8334    4.6959    2.4452 H   0  0  0  0  0  0  0  0  0  0  0  0
   -1.8976    6.0052    1.6861 H   0  0  0  0  0  0  0  0  0  0  0  0
   -2.3917    4.5970    0.7358 H   0  0  0  0  0  0  0  0  0  0  0  0
   -3.9363   -5.0780    0.2545 H   0  0  0  0  0  0  0  0  0  0  0  0
   -0.7410   -0.9992   -4.5204 H   0  0  0  0  0  0  0  0  0  0  0  0
   -2.0214   -0.6918   -5.6859 H   0  0  0  0  0  0  0  0  0  0  0  0
   -2.3843   -0.6552   -3.9546 H   0  0  0  0  0  0  0  0  0  0  0  0
   -2.3566    2.9674   -5.1321 H   0  0  0  0  0  0  0  0  0  0  0  0
   -3.4083    1.7155   -4.4479 H   0  0  0  0  0  0  0  0  0  0  0  0
   -2.8736    1.6035   -6.1349 H   0  0  0  0  0  0  0  0  0  0  0  0
  1 12  2  0  0  0  0
  2 17  1  0  0  0  0
  2 60  1  0  0  0  0
  3 14  2  0  0  0  0
  4 25  2  0  0  0  0
  5 26  1  0  0  0  0
  5 81  1  0  0  0  0
  6 26  2  0  0  0  0
  7  8  1  0  0  0  0
  7 12  1  0  0  0  0
  7 13  1  0  0  0  0
  7 14  1  0  0  0  0
  8  9  1  0  0  0  0
  8 15  1  0  0  0  0
  8 16  1  0  0  0  0
  9 11  1  0  0  0  0
  9 18  1  0  0  0  0
  9 42  1  0  0  0  0
 10 11  1  0  0  0  0
 10 12  1  0  0  0  0
 10 17  1  0  0  0  0
 10 19  1  0  0  0  0
 11 43  1  0  0  0  0
 11 44  1  0  0  0  0
 13 21  1  0  0  0  0
 13 22  1  0  0  0  0
 13 45  1  0  0  0  0
 14 20  1  0  0  0  0
 15 46  1  0  0  0  0
 15 47  1  0  0  0  0
 15 48  1  0  0  0  0
 16 49  1  0  0  0  0
 16 50  1  0  0  0  0
 16 51  1  0  0  0  0
 17 20  2  0  0  0  0
 18 23  1  0  0  0  0
 18 52  1  0  0  0  0
 18 53  1  0  0  0  0
 19 24  1  0  0  0  0
 19 54  1  0  0  0  0
 19 55  1  0  0  0  0
 20 25  1  0  0  0  0
 21 26  1  0  0  0  0
 21 56  1  0  0  0  0
 21 57  1  0  0  0  0
 22 27  2  0  0  0  0
 22 28  1  0  0  0  0
 23 30  2  0  0  0  0
 23 58  1  0  0  0  0
 24 31  2  0  0  0  0
 24 59  1  0  0  0  0
 25 29  1  0  0  0  0
 27 32  1  0  0  0  0
 27 61  1  0  0  0  0
 28 33  2  0  0  0  0
 28 62  1  0  0  0  0
 29 34  1  0  0  0  0
 29 63  1  0  0  0  0
 29 64  1  0  0  0  0
 30 36  1  0  0  0  0
 30 37  1  0  0  0  0
 31 38  1  0  0  0  0
 31 39  1  0  0  0  0
 32 35  2  0  0  0  0
 32 65  1  0  0  0  0
 33 35  1  0  0  0  0
 33 66  1  0  0  0  0
 34 40  1  0  0  0  0
 34 41  1  0  0  0  0
 34 67  1  0  0  0  0
 35 68  1  0  0  0  0
 36 69  1  0  0  0  0
 36 70  1  0  0  0  0
 36 71  1  0  0  0  0
 37 72  1  0  0  0  0
 37 73  1  0  0  0  0
 37 74  1  0  0  0  0
 38 75  1  0  0  0  0
 38 76  1  0  0  0  0
 38 77  1  0  0  0  0
 39 78  1  0  0  0  0
 39 79  1  0  0  0  0
 39 80  1  0  0  0  0
 40 82  1  0  0  0  0
 40 83  1  0  0  0  0
 40 84  1  0  0  0  0
 41 85  1  0  0  0  0
 41 86  1  0  0  0  0
 41 87  1  0  0  0  0
M  END
> <PUBCHEM_COMPOUND_CID>
3897

> <PUBCHEM_CONFORMER_RMSD>
1.2

> <PUBCHEM_CONFORMER_DIVERSEORDER>
75
115
112
59
31
114
32
46
57
72
113
25
11
56
117
122
127
26
132
64
54
41
130
105
69
21
7
109
70
73
66
119
68
29
93
106
33
125
43
123
24
129
94
107
77
20
128
126
62
111
108
133
44
51
110
131
74
35
1
42
92
91
6
61
124
118
82
12
121
65
95
120
102
55
58
5
17
22
48
40
104
97
87
88
100
16
19
116
47
67
36
50
63
28
18
14
4
13
39
98
3
30
23
2
96
80
38
84
34
9
89
53
27
83
71
60
49
101
8
52
15
99
78
45
85
10
37
86
103
79
90
76
81

> <PUBCHEM_MMFF94_PARTIAL_CHARGES>
42
1 -0.57
10 0.2
12 0.45
13 0.14
14 0.49
17 -0.06
18 0.14
19 0.14
2 -0.53
20 0.03
21 0.06
22 -0.14
23 -0.29
24 -0.29
25 0.49
26 0.66
27 -0.15
28 -0.15
29 0.06
3 -0.57
30 -0.28
31 -0.28
32 -0.15
33 -0.15
35 -0.15
36 0.14
37 0.14
38 0.14
39 0.14
4 -0.57
5 -0.65
58 0.15
59 0.15
6 -0.57
60 0.45
61 0.15
62 0.15
65 0.15
66 0.15
68 0.15
7 0.12
81 0.5

> <PUBCHEM_EFFECTIVE_ROTOR_COUNT>
11.6

> <PUBCHEM_PHARMACOPHORE_FEATURES>
15
1 1 acceptor
1 2 donor
1 20 anion
1 3 acceptor
1 4 acceptor
1 5 acceptor
1 6 acceptor
3 30 36 37 hydrophobe
3 31 38 39 hydrophobe
3 34 40 41 hydrophobe
3 5 6 26 anion
3 8 15 16 hydrophobe
6 22 27 28 32 33 35 rings
6 7 10 12 14 17 20 rings
6 7 8 9 10 11 12 rings

> <PUBCHEM_HEAVY_ATOM_COUNT>
41

> <PUBCHEM_ATOM_DEF_STEREO_COUNT>
0

> <PUBCHEM_ATOM_UDEF_STEREO_COUNT>
4

> <PUBCHEM_BOND_DEF_STEREO_COUNT>
0

> <PUBCHEM_BOND_UDEF_STEREO_COUNT>
0

> <PUBCHEM_ISOTOPIC_ATOM_COUNT>
0

> <PUBCHEM_COMPONENT_COUNT>
1

> <PUBCHEM_CACTVS_TAUTO_COUNT>
7

> <PUBCHEM_CONFORMER_ID>
00000F390000004B

> <PUBCHEM_MMFF94_ENERGY>
166.6613

> <PUBCHEM_FEATURE_SELFOVERLAP>
77.564

> <PUBCHEM_SHAPE_FINGERPRINT>
11513181 2 17900534885086090471
12058002 1 17555126511424028186
12156800 1 17467884790386214749
12422481 6 17057220444686845956
12788726 201 18262522631632347160
13383668 90 17385999628427959838
13726171 33 16557359347328175604
14856354 85 18259977189278936486
14955137 171 18265593442928755506
15664445 248 14796127803526565992
15968369 153 17822021870046747424
16114785 44 17970929944892030368
17980427 26 16960133172848869200
20600515 1 18117531046605451144
350125 39 18199177404762321667
5080951 261 18194992719821771458
550186 7 17679019554339903072

> <PUBCHEM_SHAPE_MULTIPOLES>
808.54
8.25
5.2
4.74
13.03
3.83
-8.96
-2.5
-0.98
-4.43
5.52
-3.98
0.88
0.3

> <PUBCHEM_SHAPE_SELFOVERLAP>
1714.478

> <PUBCHEM_SHAPE_VOLUME>
448.5

> <PUBCHEM_COORDINATE_TYPE>
2
5
10

$$$$

