2971
  -OEChem-07051213072D

 53 53  0     0  0  0  0  0  0999 V2000
    2.0000   -4.0000    0.0000 O   0  0  0  0  0  0  0  0  0  0  0  0
    2.0000   -2.0000    0.0000 O   0  0  0  0  0  0  0  0  0  0  0  0
    3.7320   -5.0000    0.0000 O   0  0  0  0  0  0  0  0  0  0  0  0
    5.4641   -4.0000    0.0000 O   0  0  0  0  0  0  0  0  0  0  0  0
    5.4641    1.0000    0.0000 C   0  0  0  0  0  0  0  0  0  0  0  0
    5.4641    2.0000    0.0000 C   0  0  0  0  0  0  0  0  0  0  0  0
    4.5981    0.5000    0.0000 C   0  0  0  0  0  0  0  0  0  0  0  0
    6.3301    2.5000    0.0000 C   0  0  0  0  0  0  0  0  0  0  0  0
    4.5981   -0.5000    0.0000 C   0  0  0  0  0  0  0  0  0  0  0  0
    6.3301    3.5000    0.0000 C   0  0  0  0  0  0  0  0  0  0  0  0
    3.7320   -1.0000    0.0000 C   0  0  0  0  0  0  0  0  0  0  0  0
    7.1962    4.0000    0.0000 C   0  0  0  0  0  0  0  0  0  0  0  0
    3.7320   -2.0000    0.0000 C   0  0  0  0  0  0  0  0  0  0  0  0
    7.1962    5.0000    0.0000 C   0  0  0  0  0  0  0  0  0  0  0  0
    4.5981   -2.5000    0.0000 C   0  0  0  0  0  0  0  0  0  0  0  0
    2.8660   -2.5000    0.0000 C   0  0  0  0  0  0  0  0  0  0  0  0
    8.0622    5.5000    0.0000 C   0  0  0  0  0  0  0  0  0  0  0  0
    4.5981   -3.5000    0.0000 C   0  0  0  0  0  0  0  0  0  0  0  0
    2.8660   -3.5000    0.0000 C   0  0  0  0  0  0  0  0  0  0  0  0
    3.7320   -4.0000    0.0000 C   0  0  0  0  0  0  0  0  0  0  0  0
    5.4641   -2.0000    0.0000 C   0  0  0  0  0  0  0  0  0  0  0  0
    2.0000   -5.0000    0.0000 C   0  0  0  0  0  0  0  0  0  0  0  0
    4.5981   -5.5000    0.0000 C   0  0  0  0  0  0  0  0  0  0  0  0
    5.6762    0.4174    0.0000 H   0  0  0  0  0  0  0  0  0  0  0  0
    6.0747    1.1077    0.0000 H   0  0  0  0  0  0  0  0  0  0  0  0
    5.2520    2.5826    0.0000 H   0  0  0  0  0  0  0  0  0  0  0  0
    4.8535    1.8923    0.0000 H   0  0  0  0  0  0  0  0  0  0  0  0
    4.3860    1.0826    0.0000 H   0  0  0  0  0  0  0  0  0  0  0  0
    3.9875    0.3923    0.0000 H   0  0  0  0  0  0  0  0  0  0  0  0
    6.5422    1.9174    0.0000 H   0  0  0  0  0  0  0  0  0  0  0  0
    6.9407    2.6077    0.0000 H   0  0  0  0  0  0  0  0  0  0  0  0
    4.8101   -1.0826    0.0000 H   0  0  0  0  0  0  0  0  0  0  0  0
    5.2087   -0.3923    0.0000 H   0  0  0  0  0  0  0  0  0  0  0  0
    6.1181    4.0826    0.0000 H   0  0  0  0  0  0  0  0  0  0  0  0
    5.7196    3.3923    0.0000 H   0  0  0  0  0  0  0  0  0  0  0  0
    3.5200   -0.4174    0.0000 H   0  0  0  0  0  0  0  0  0  0  0  0
    3.1215   -1.1077    0.0000 H   0  0  0  0  0  0  0  0  0  0  0  0
    7.4082    3.4174    0.0000 H   0  0  0  0  0  0  0  0  0  0  0  0
    7.8067    4.1077    0.0000 H   0  0  0  0  0  0  0  0  0  0  0  0
    6.9841    5.5826    0.0000 H   0  0  0  0  0  0  0  0  0  0  0  0
    6.5856    4.8923    0.0000 H   0  0  0  0  0  0  0  0  0  0  0  0
    8.3722    4.9631    0.0000 H   0  0  0  0  0  0  0  0  0  0  0  0
    8.5991    5.8100    0.0000 H   0  0  0  0  0  0  0  0  0  0  0  0
    7.7522    6.0369    0.0000 H   0  0  0  0  0  0  0  0  0  0  0  0
    5.7741   -2.5369    0.0000 H   0  0  0  0  0  0  0  0  0  0  0  0
    6.0010   -1.6900    0.0000 H   0  0  0  0  0  0  0  0  0  0  0  0
    5.1541   -1.4631    0.0000 H   0  0  0  0  0  0  0  0  0  0  0  0
    1.3800   -5.0000    0.0000 H   0  0  0  0  0  0  0  0  0  0  0  0
    2.0000   -5.6200    0.0000 H   0  0  0  0  0  0  0  0  0  0  0  0
    2.6200   -5.0000    0.0000 H   0  0  0  0  0  0  0  0  0  0  0  0
    4.2881   -6.0369    0.0000 H   0  0  0  0  0  0  0  0  0  0  0  0
    5.1350   -5.8100    0.0000 H   0  0  0  0  0  0  0  0  0  0  0  0
    4.9081   -4.9631    0.0000 H   0  0  0  0  0  0  0  0  0  0  0  0
  1 19  1  0  0  0  0
  1 22  1  0  0  0  0
  2 16  2  0  0  0  0
  3 20  1  0  0  0  0
  3 23  1  0  0  0  0
  4 18  2  0  0  0  0
  5  6  1  0  0  0  0
  5  7  1  0  0  0  0
  5 24  1  0  0  0  0
  5 25  1  0  0  0  0
  6  8  1  0  0  0  0
  6 26  1  0  0  0  0
  6 27  1  0  0  0  0
  7  9  1  0  0  0  0
  7 28  1  0  0  0  0
  7 29  1  0  0  0  0
  8 10  1  0  0  0  0
  8 30  1  0  0  0  0
  8 31  1  0  0  0  0
  9 11  1  0  0  0  0
  9 32  1  0  0  0  0
  9 33  1  0  0  0  0
 10 12  1  0  0  0  0
 10 34  1  0  0  0  0
 10 35  1  0  0  0  0
 11 13  1  0  0  0  0
 11 36  1  0  0  0  0
 11 37  1  0  0  0  0
 12 14  1  0  0  0  0
 12 38  1  0  0  0  0
 12 39  1  0  0  0  0
 13 15  2  0  0  0  0
 13 16  1  0  0  0  0
 14 17  1  0  0  0  0
 14 40  1  0  0  0  0
 14 41  1  0  0  0  0
 15 18  1  0  0  0  0
 15 21  1  0  0  0  0
 16 19  1  0  0  0  0
 17 42  1  0  0  0  0
 17 43  1  0  0  0  0
 17 44  1  0  0  0  0
 18 20  1  0  0  0  0
 19 20  2  0  0  0  0
 21 45  1  0  0  0  0
 21 46  1  0  0  0  0
 21 47  1  0  0  0  0
 22 48  1  0  0  0  0
 22 49  1  0  0  0  0
 22 50  1  0  0  0  0
 23 51  1  0  0  0  0
 23 52  1  0  0  0  0
 23 53  1  0  0  0  0
M  END
> <PUBCHEM_COMPOUND_CID>
2971

> <PUBCHEM_COMPOUND_CANONICALIZED>
1

> <PUBCHEM_CACTVS_COMPLEXITY>
486

> <PUBCHEM_CACTVS_HBOND_ACCEPTOR>
4

> <PUBCHEM_CACTVS_HBOND_DONOR>
0

> <PUBCHEM_CACTVS_ROTATABLE_BOND>
11

> <PUBCHEM_CACTVS_SUBSKEYS>
AAADceB4OAAAAAAAAAAAAAAAAAAAAAAAAAAgAAAAAAAAAAAAAAAAGgAAAAAADASAgAICAAAABACIAoBQAAIACAAgIAAACAFAAEgAABIAAAQAAAAEwAAIAQOIyKCAAAAAAAAAAAAAAAAAAAAAAAAAAAAAAA==

> <PUBCHEM_IUPAC_OPENEYE_NAME>
2-decyl-5,6-dimethoxy-3-methyl-1,4-benzoquinone

> <PUBCHEM_IUPAC_CAS_NAME>
2-decyl-5,6-dimethoxy-3-methylcyclohexa-2,5-diene-1,4-dione

> <PUBCHEM_IUPAC_NAME>
2-decyl-5,6-dimethoxy-3-methylcyclohexa-2,5-diene-1,4-dione

> <PUBCHEM_IUPAC_SYSTEMATIC_NAME>
2-decyl-5,6-dimethoxy-3-methyl-cyclohexa-2,5-diene-1,4-dione

> <PUBCHEM_IUPAC_TRADITIONAL_NAME>
2-decyl-5,6-dimethoxy-3-methyl-p-benzoquinone

> <PUBCHEM_IUPAC_INCHI>
InChI=1S/C19H30O4/c1-5-6-7-8-9-10-11-12-13-15-14(2)16(20)18(22-3)19(23-4)17(15)21/h5-13H2,1-4H3

> <PUBCHEM_IUPAC_INCHIKEY>
VMEGFMNVSYVVOM-UHFFFAOYSA-N

> <PUBCHEM_XLOGP3>
6

> <PUBCHEM_EXACT_MASS>
322.214409

> <PUBCHEM_MOLECULAR_FORMULA>
C19H30O4

> <PUBCHEM_MOLECULAR_WEIGHT>
322.4391

> <PUBCHEM_OPENEYE_CAN_SMILES>
CCCCCCCCCCC1=C(C(=O)C(=C(C1=O)OC)OC)C

> <PUBCHEM_OPENEYE_ISO_SMILES>
CCCCCCCCCCC1=C(C(=O)C(=C(C1=O)OC)OC)C

> <PUBCHEM_CACTVS_TPSA>
52.6

> <PUBCHEM_MONOISOTOPIC_WEIGHT>
322.214409

> <PUBCHEM_TOTAL_CHARGE>
0

> <PUBCHEM_HEAVY_ATOM_COUNT>
23

> <PUBCHEM_ATOM_DEF_STEREO_COUNT>
0

> <PUBCHEM_ATOM_UDEF_STEREO_COUNT>
0

> <PUBCHEM_BOND_DEF_STEREO_COUNT>
0

> <PUBCHEM_BOND_UDEF_STEREO_COUNT>
0

> <PUBCHEM_ISOTOPIC_ATOM_COUNT>
0

> <PUBCHEM_COMPONENT_COUNT>
1

> <PUBCHEM_CACTVS_TAUTO_COUNT>
69

> <PUBCHEM_COORDINATE_TYPE>
1
5
255

$$$$

