440596
  -OEChem-07051212503D

 41 46  0     1  0  0  0  0  0999 V2000
    4.3258    2.0398   -0.4435 O   0  0  0  0  0  0  0  0  0  0  0  0
    5.8840    0.2496   -0.0440 O   0  0  0  0  0  0  0  0  0  0  0  0
   -5.1582    1.8414    0.0014 O   0  0  0  0  0  0  0  0  0  0  0  0
   -6.0268   -0.3989   -0.1605 O   0  0  0  0  0  0  0  0  0  0  0  0
    2.4434   -2.9938    0.5389 O   0  0  0  0  0  0  0  0  0  0  0  0
    0.0902    1.5107    0.2301 N   0  0  2  0  0  0  0  0  0  0  0  0
   -0.4860    0.2285    0.0570 C   0  0  0  0  0  0  0  0  0  0  0  0
    2.3300    0.6315   -0.2292 C   0  0  0  0  0  0  0  0  0  0  0  0
    1.3423    1.7337   -0.4986 C   0  0  0  0  0  0  0  0  0  0  0  0
    0.3815   -0.8996   -0.0471 C   0  0  0  0  0  0  0  0  0  0  0  0
    1.8503   -0.6829   -0.0189 C   0  0  0  0  0  0  0  0  0  0  0  0
   -1.9053    0.0650    0.0023 C   0  0  0  0  0  0  0  0  0  0  0  0
    3.6984    0.8494   -0.2321 C   0  0  0  0  0  0  0  0  0  0  0  0
   -2.4413   -1.2517   -0.1182 C   0  0  0  0  0  0  0  0  0  0  0  0
   -0.1910   -2.1715   -0.1780 C   0  0  0  0  0  0  0  0  0  0  0  0
    2.7924   -1.7128    0.2190 C   0  0  0  0  0  0  0  0  0  0  0  0
    4.5905   -0.1707   -0.0072 C   0  0  0  0  0  0  0  0  0  0  0  0
   -1.5749   -2.3444   -0.2012 C   0  0  0  0  0  0  0  0  0  0  0  0
   -0.0027    2.0573    1.5829 C   0  0  0  0  0  0  0  0  0  0  0  0
   -2.8161    1.1504    0.0311 C   0  0  0  0  0  0  0  0  0  0  0  0
    4.1692   -1.4605    0.2260 C   0  0  0  0  0  0  0  0  0  0  0  0
   -3.8311   -1.4633   -0.1690 C   0  0  0  0  0  0  0  0  0  0  0  0
   -4.1733    0.9027   -0.0236 C   0  0  0  0  0  0  0  0  0  0  0  0
   -4.6675   -0.3705   -0.1169 C   0  0  0  0  0  0  0  0  0  0  0  0
    5.7087    1.6528   -0.3215 C   0  0  0  0  0  0  0  0  0  0  0  0
   -6.3325    1.0080   -0.0793 C   0  0  0  0  0  0  0  0  0  0  0  0
    1.7608    2.7081   -0.2201 H   0  0  0  0  0  0  0  0  0  0  0  0
    1.1374    1.7706   -1.5762 H   0  0  0  0  0  0  0  0  0  0  0  0
    0.3958   -3.0713   -0.3176 H   0  0  0  0  0  0  0  0  0  0  0  0
   -1.9676   -3.3541   -0.3107 H   0  0  0  0  0  0  0  0  0  0  0  0
    0.2808    3.1153    1.5808 H   0  0  0  0  0  0  0  0  0  0  0  0
    0.6715    1.5259    2.2643 H   0  0  0  0  0  0  0  0  0  0  0  0
   -1.0158    1.9970    1.9924 H   0  0  0  0  0  0  0  0  0  0  0  0
   -2.4723    2.1791    0.0882 H   0  0  0  0  0  0  0  0  0  0  0  0
    4.8940   -2.2452    0.4177 H   0  0  0  0  0  0  0  0  0  0  0  0
   -4.2477   -2.4630   -0.2557 H   0  0  0  0  0  0  0  0  0  0  0  0
    6.1651    2.2312    0.4899 H   0  0  0  0  0  0  0  0  0  0  0  0
    6.2246    1.8929   -1.2583 H   0  0  0  0  0  0  0  0  0  0  0  0
   -6.9059    1.2947   -0.9683 H   0  0  0  0  0  0  0  0  0  0  0  0
   -6.9495    1.1830    0.8096 H   0  0  0  0  0  0  0  0  0  0  0  0
    3.2398   -3.5355    0.6707 H   0  0  0  0  0  0  0  0  0  0  0  0
  1 13  1  0  0  0  0
  1 25  1  0  0  0  0
  2 17  1  0  0  0  0
  2 25  1  0  0  0  0
  3 23  1  0  0  0  0
  3 26  1  0  0  0  0
  4 24  1  0  0  0  0
  4 26  1  0  0  0  0
  5 16  1  0  0  0  0
  5 41  1  0  0  0  0
  6  7  1  0  0  0  0
  6  9  1  0  0  0  0
  6 19  1  0  0  0  0
  7 10  2  0  0  0  0
  7 12  1  0  0  0  0
  8  9  1  0  0  0  0
  8 11  2  0  0  0  0
  8 13  1  0  0  0  0
  9 27  1  0  0  0  0
  9 28  1  0  0  0  0
 10 11  1  0  0  0  0
 10 15  1  0  0  0  0
 11 16  1  0  0  0  0
 12 14  1  0  0  0  0
 12 20  2  0  0  0  0
 13 17  2  0  0  0  0
 14 18  1  0  0  0  0
 14 22  2  0  0  0  0
 15 18  2  0  0  0  0
 15 29  1  0  0  0  0
 16 21  2  0  0  0  0
 17 21  1  0  0  0  0
 18 30  1  0  0  0  0
 19 31  1  0  0  0  0
 19 32  1  0  0  0  0
 19 33  1  0  0  0  0
 20 23  1  0  0  0  0
 20 34  1  0  0  0  0
 21 35  1  0  0  0  0
 22 24  1  0  0  0  0
 22 36  1  0  0  0  0
 23 24  2  0  0  0  0
 25 37  1  0  0  0  0
 25 38  1  0  0  0  0
 26 39  1  0  0  0  0
 26 40  1  0  0  0  0
M  END
> <PUBCHEM_COMPOUND_CID>
440596

> <PUBCHEM_CONFORMER_RMSD>
0.6

> <PUBCHEM_CONFORMER_DIVERSEORDER>
1
2

> <PUBCHEM_MMFF94_PARTIAL_CHARGES>
28
1 -0.36
13 0.08
15 -0.15
16 0.08
17 0.08
18 -0.15
19 0.37
2 -0.36
20 -0.15
21 -0.15
22 -0.15
23 0.08
24 0.08
25 0.56
26 0.56
29 0.15
3 -0.36
30 0.15
34 0.15
35 0.15
36 0.15
4 -0.36
41 0.45
5 -0.53
6 -0.84
7 0.1
8 -0.14
9 0.51

> <PUBCHEM_EFFECTIVE_ROTOR_COUNT>
1.6

> <PUBCHEM_PHARMACOPHORE_FEATURES>
12
1 1 acceptor
1 2 acceptor
1 3 acceptor
1 4 acceptor
1 5 donor
1 6 cation
5 1 2 13 17 25 rings
5 3 4 23 24 26 rings
6 12 14 20 22 23 24 rings
6 6 7 8 9 10 11 rings
6 7 10 12 14 15 18 rings
6 8 11 13 16 17 21 rings

> <PUBCHEM_HEAVY_ATOM_COUNT>
26

> <PUBCHEM_ATOM_DEF_STEREO_COUNT>
0

> <PUBCHEM_ATOM_UDEF_STEREO_COUNT>
0

> <PUBCHEM_BOND_DEF_STEREO_COUNT>
0

> <PUBCHEM_BOND_UDEF_STEREO_COUNT>
0

> <PUBCHEM_ISOTOPIC_ATOM_COUNT>
0

> <PUBCHEM_COMPONENT_COUNT>
1

> <PUBCHEM_CACTVS_TAUTO_COUNT>
3

> <PUBCHEM_CONFORMER_ID>
0006B91400000001

> <PUBCHEM_MMFF94_ENERGY>
102.7855

> <PUBCHEM_FEATURE_SELFOVERLAP>
61.268

> <PUBCHEM_SHAPE_FINGERPRINT>
10366900 7 13767920213391201062
10411042 1 17764029469022071786
10595046 47 18410294714078610295
10906281 52 18115008780279938875
11112241 14 16301223453903876992
11578080 2 17097509595781010378
12107183 9 17689998259721133737
12236239 1 18408604768431934702
12516196 113 17822013098858014329
12788726 201 17749383823177216185
12838862 33 18337973228248910624
13533116 47 18040717017385458022
13785724 45 17690283033170469666
14341114 176 18341606036558410083
14464042 87 18041274456484434425
14528608 73 18410009918881066486
14787075 74 18408606954760341811
14790565 3 18409444821375743545
15183329 4 18411421726334652701
15196674 1 18410855460212824231
1601671 61 18409732858782615256
16993438 75 17986664862039093971
1813 80 16774076293112838918
18608769 82 18268144267704491643
19784866 9 18413109454923492482
20511986 3 18335715939377032020
20642791 178 17914607264127515780
20715895 44 18051417558878336917
21236236 1 18336546015444310151
21267235 1 18410567418600545494
21279426 13 18336825419760955111
21304253 335 18343297050771013940
21421861 104 17916599755470027298
21792934 111 18265066879900796568
23402539 116 18187369809019322013
23559900 14 18188495674862371056
3004659 81 18412824716183054406
3178227 256 18337940226569054153
335352 9 18411417319951285102
34797466 226 17022896805550623644
34934 24 18409169891960840526
350125 39 18409730647708044033
3545911 37 18412543206234597781
3680242 22 18271249421294713026
4073 2 17988918934000585530
4214541 1 18411136922531336941
4340502 62 17060336335742884194
474 4 17917989430703266670
5104073 3 18342739606691314250
7226269 152 18186234026546147353

> <PUBCHEM_SHAPE_MULTIPOLES>
500.74
13.13
2.58
0.74
4.38
0.75
0.15
-4.22
-1.24
-0.86
0.23
-0.11
-0.2
-0.64

> <PUBCHEM_SHAPE_SELFOVERLAP>
1163.966

> <PUBCHEM_SHAPE_VOLUME>
255.1

> <PUBCHEM_COORDINATE_TYPE>
2
5
10

$$$$

