13650
  -OEChem-06241222392D

 18 19  0     0  0  0  0  0  0999 V2000
    3.7320    1.2927    0.0000 O   0  0  0  0  0  0  0  0  0  0  0  0
    2.0000   -0.7073    0.0000 O   0  0  0  0  0  0  0  0  0  0  0  0
    2.0000    1.2927    0.0000 O   0  0  0  0  0  0  0  0  0  0  0  0
    4.5981   -0.2073    0.0000 C   0  0  0  0  0  0  0  0  0  0  0  0
    4.5981    0.7927    0.0000 C   0  0  0  0  0  0  0  0  0  0  0  0
    3.7320   -0.7073    0.0000 C   0  0  0  0  0  0  0  0  0  0  0  0
    5.4920   -0.7420    0.0000 C   0  0  0  0  0  0  0  0  0  0  0  0
    5.4920    1.3273    0.0000 C   0  0  0  0  0  0  0  0  0  0  0  0
    2.8660   -0.2073    0.0000 C   0  0  0  0  0  0  0  0  0  0  0  0
    6.3981   -0.2281    0.0000 C   0  0  0  0  0  0  0  0  0  0  0  0
    6.3981    0.8135    0.0000 C   0  0  0  0  0  0  0  0  0  0  0  0
    2.8660    0.7927    0.0000 C   0  0  0  0  0  0  0  0  0  0  0  0
    3.7320   -1.3273    0.0000 H   0  0  0  0  0  0  0  0  0  0  0  0
    5.4848   -1.3620    0.0000 H   0  0  0  0  0  0  0  0  0  0  0  0
    5.4848    1.9473    0.0000 H   0  0  0  0  0  0  0  0  0  0  0  0
    6.9338   -0.5402    0.0000 H   0  0  0  0  0  0  0  0  0  0  0  0
    6.9338    1.1256    0.0000 H   0  0  0  0  0  0  0  0  0  0  0  0
    2.0000   -1.3273    0.0000 H   0  0  0  0  0  0  0  0  0  0  0  0
  1  5  1  0  0  0  0
  1 12  1  0  0  0  0
  2  9  1  0  0  0  0
  2 18  1  0  0  0  0
  3 12  2  0  0  0  0
  4  5  1  0  0  0  0
  4  6  1  0  0  0  0
  4  7  2  0  0  0  0
  5  8  2  0  0  0  0
  6  9  2  0  0  0  0
  6 13  1  0  0  0  0
  7 10  1  0  0  0  0
  7 14  1  0  0  0  0
  8 11  1  0  0  0  0
  8 15  1  0  0  0  0
  9 12  1  0  0  0  0
 10 11  2  0  0  0  0
 10 16  1  0  0  0  0
 11 17  1  0  0  0  0
M  END
> <PUBCHEM_COMPOUND_CID>
13650

> <PUBCHEM_COMPOUND_CANONICALIZED>
1

> <PUBCHEM_CACTVS_COMPLEXITY>
232

> <PUBCHEM_CACTVS_HBOND_ACCEPTOR>
3

> <PUBCHEM_CACTVS_HBOND_DONOR>
1

> <PUBCHEM_CACTVS_ROTATABLE_BOND>
0

> <PUBCHEM_CACTVS_SUBSKEYS>
AAADcYBwMAAAAAAAAAAAAAAAAAAAAAAAAAAwQAAAAAAAAACBAAAAGgAACAAADASAmAAwDoAABgCIAiDSCAICCAAgIAAIiABGCMgNJiKEMRqCOiCkwBELqYeAwCAOAAAAAAAIAAAAAAAAABAAAAAAAAAAAA==

> <PUBCHEM_IUPAC_OPENEYE_NAME>
3-hydroxychromen-2-one

> <PUBCHEM_IUPAC_CAS_NAME>
3-hydroxy-1-benzopyran-2-one

> <PUBCHEM_IUPAC_NAME>
3-hydroxychromen-2-one

> <PUBCHEM_IUPAC_SYSTEMATIC_NAME>
3-oxidanylchromen-2-one

> <PUBCHEM_IUPAC_TRADITIONAL_NAME>
3-hydroxycoumarin

> <PUBCHEM_IUPAC_INCHI>
InChI=1S/C9H6O3/c10-7-5-6-3-1-2-4-8(6)12-9(7)11/h1-5,10H

> <PUBCHEM_IUPAC_INCHIKEY>
MJKVTPMWOKAVMS-UHFFFAOYSA-N

> <PUBCHEM_XLOGP3_AA>
1.8

> <PUBCHEM_EXACT_MASS>
162.031694

> <PUBCHEM_MOLECULAR_FORMULA>
C9H6O3

> <PUBCHEM_MOLECULAR_WEIGHT>
162.14214

> <PUBCHEM_OPENEYE_CAN_SMILES>
C1=CC=C2C(=C1)C=C(C(=O)O2)O

> <PUBCHEM_OPENEYE_ISO_SMILES>
C1=CC=C2C(=C1)C=C(C(=O)O2)O

> <PUBCHEM_CACTVS_TPSA>
46.5

> <PUBCHEM_MONOISOTOPIC_WEIGHT>
162.031694

> <PUBCHEM_TOTAL_CHARGE>
0

> <PUBCHEM_HEAVY_ATOM_COUNT>
12

> <PUBCHEM_ATOM_DEF_STEREO_COUNT>
0

> <PUBCHEM_ATOM_UDEF_STEREO_COUNT>
0

> <PUBCHEM_BOND_DEF_STEREO_COUNT>
0

> <PUBCHEM_BOND_UDEF_STEREO_COUNT>
0

> <PUBCHEM_ISOTOPIC_ATOM_COUNT>
0

> <PUBCHEM_COMPONENT_COUNT>
1

> <PUBCHEM_CACTVS_TAUTO_COUNT>
2

> <PUBCHEM_COORDINATE_TYPE>
1
5
255

> <PUBCHEM_BONDANNOTATIONS>
1  12  8
1  5  8
10  11  8
4  5  8
4  6  8
4  7  8
5  8  8
6  9  8
7  10  8
8  11  8
9  12  8

$$$$

