47205242
  -OEChem-06241222583D

 39 41  0     0  0  0  0  0  0999 V2000
    1.6278   -2.1626    1.0746 O   0  0  0  0  0  0  0  0  0  0  0  0
    2.4935   -1.4153   -0.9457 N   0  0  0  0  0  0  0  0  0  0  0  0
    3.7807    1.4714   -0.7895 N   0  0  0  0  0  0  0  0  0  0  0  0
    3.7738    2.6598   -0.1617 N   0  0  0  0  0  0  0  0  0  0  0  0
   -3.7718    2.5150   -0.3293 C   0  0  0  0  0  0  0  0  0  0  0  0
   -4.9435    1.6422    0.1018 C   0  0  0  0  0  0  0  0  0  0  0  0
   -2.7703    1.6993   -1.1449 C   0  0  0  0  0  0  0  0  0  0  0  0
   -4.4617    0.5117    1.0091 C   0  0  0  0  0  0  0  0  0  0  0  0
   -2.4272    0.3734   -0.5128 C   0  0  0  0  0  0  0  0  0  0  0  0
   -3.2471   -0.2050    0.4740 C   0  0  0  0  0  0  0  0  0  0  0  0
   -1.2954   -0.3232   -0.9630 C   0  0  0  0  0  0  0  0  0  0  0  0
   -2.8979   -1.4513    1.0157 C   0  0  0  0  0  0  0  0  0  0  0  0
   -0.9651   -1.5660   -0.4237 C   0  0  0  0  0  0  0  0  0  0  0  0
   -1.7647   -2.1288    0.5668 C   0  0  0  0  0  0  0  0  0  0  0  0
    0.2445   -2.2913   -0.9086 C   0  0  0  0  0  0  0  0  0  0  0  0
    1.5118   -1.9625   -0.1318 C   0  0  0  0  0  0  0  0  0  0  0  0
    3.7867   -1.0146   -0.4430 C   0  0  0  0  0  0  0  0  0  0  0  0
    3.7813    0.4013    0.0563 C   0  0  0  0  0  0  0  0  0  0  0  0
    3.7747    0.9262    1.3256 C   0  0  0  0  0  0  0  0  0  0  0  0
    3.7700    2.3202    1.1300 C   0  0  0  0  0  0  0  0  0  0  0  0
   -3.2791    2.9326    0.5580 H   0  0  0  0  0  0  0  0  0  0  0  0
   -4.1297    3.3613   -0.9262 H   0  0  0  0  0  0  0  0  0  0  0  0
   -5.4363    1.2249   -0.7855 H   0  0  0  0  0  0  0  0  0  0  0  0
   -5.6902    2.2452    0.6304 H   0  0  0  0  0  0  0  0  0  0  0  0
   -1.8596    2.2950   -1.2804 H   0  0  0  0  0  0  0  0  0  0  0  0
   -3.1887    1.5027   -2.1400 H   0  0  0  0  0  0  0  0  0  0  0  0
   -4.2068    0.9221    1.9943 H   0  0  0  0  0  0  0  0  0  0  0  0
   -5.2835   -0.2005    1.1498 H   0  0  0  0  0  0  0  0  0  0  0  0
   -0.6699    0.1140   -1.7386 H   0  0  0  0  0  0  0  0  0  0  0  0
   -3.5105   -1.9011    1.7934 H   0  0  0  0  0  0  0  0  0  0  0  0
   -1.5163   -3.0940    1.0002 H   0  0  0  0  0  0  0  0  0  0  0  0
    0.3800   -2.1030   -1.9809 H   0  0  0  0  0  0  0  0  0  0  0  0
    0.0929   -3.3759   -0.8298 H   0  0  0  0  0  0  0  0  0  0  0  0
    2.3048   -1.2616   -1.9316 H   0  0  0  0  0  0  0  0  0  0  0  0
    4.0869   -1.6942    0.3623 H   0  0  0  0  0  0  0  0  0  0  0  0
    4.5064   -1.1232   -1.2616 H   0  0  0  0  0  0  0  0  0  0  0  0
    3.7721    0.3801    2.2576 H   0  0  0  0  0  0  0  0  0  0  0  0
    3.7835    1.4649   -1.8020 H   0  0  0  0  0  0  0  0  0  0  0  0
    3.7638    3.1027    1.8752 H   0  0  0  0  0  0  0  0  0  0  0  0
  1 16  2  0  0  0  0
  2 16  1  0  0  0  0
  2 17  1  0  0  0  0
  2 34  1  0  0  0  0
  3  4  1  0  0  0  0
  3 18  1  0  0  0  0
  3 38  1  0  0  0  0
  4 20  2  0  0  0  0
  5  6  1  0  0  0  0
  5  7  1  0  0  0  0
  5 21  1  0  0  0  0
  5 22  1  0  0  0  0
  6  8  1  0  0  0  0
  6 23  1  0  0  0  0
  6 24  1  0  0  0  0
  7  9  1  0  0  0  0
  7 25  1  0  0  0  0
  7 26  1  0  0  0  0
  8 10  1  0  0  0  0
  8 27  1  0  0  0  0
  8 28  1  0  0  0  0
  9 10  2  0  0  0  0
  9 11  1  0  0  0  0
 10 12  1  0  0  0  0
 11 13  2  0  0  0  0
 11 29  1  0  0  0  0
 12 14  2  0  0  0  0
 12 30  1  0  0  0  0
 13 14  1  0  0  0  0
 13 15  1  0  0  0  0
 14 31  1  0  0  0  0
 15 16  1  0  0  0  0
 15 32  1  0  0  0  0
 15 33  1  0  0  0  0
 17 18  1  0  0  0  0
 17 35  1  0  0  0  0
 17 36  1  0  0  0  0
 18 19  2  0  0  0  0
 19 20  1  0  0  0  0
 19 37  1  0  0  0  0
 20 39  1  0  0  0  0
M  END
> <PUBCHEM_COMPOUND_CID>
47205242

> <PUBCHEM_CONFORMER_RMSD>
0.8

> <PUBCHEM_CONFORMER_DIVERSEORDER>
1
19
75
53
84
96
83
47
28
114
91
27
13
60
78
55
41
71
59
110
14
100
79
33
85
50
35
7
49
76
106
20
25
54
30
61
44
66
103
80
6
43
29
16
17
104
32
77
69
105
26
74
92
73
87
3
9
4
34
111
24
36
115
52
10
113
81
11
23
99
42
63
22
5
40
46
51
58
82
45
102
70
48
15
2
108
88
18
109
38
64
90
57
68
21
93
89
72
107
98
31
101
8
94
12
86
67
39
112
95
65
97
37
56
62

> <PUBCHEM_MMFF94_PARTIAL_CHARGES>
25
1 -0.57
10 -0.14
11 -0.15
12 -0.15
13 -0.14
14 -0.15
15 0.2
16 0.57
17 0.48
18 -0.33
19 -0.15
2 -0.73
20 0.14
29 0.15
3 0.3
30 0.15
31 0.15
34 0.37
37 0.15
38 0.27
39 0.15
4 -0.71
7 0.14
8 0.14
9 -0.14

> <PUBCHEM_EFFECTIVE_ROTOR_COUNT>
5.8

> <PUBCHEM_PHARMACOPHORE_FEATURES>
7
1 1 acceptor
1 2 donor
1 3 donor
1 4 acceptor
5 3 4 18 19 20 rings
6 5 6 7 8 9 10 rings
6 9 10 11 12 13 14 rings

> <PUBCHEM_HEAVY_ATOM_COUNT>
20

> <PUBCHEM_ATOM_DEF_STEREO_COUNT>
0

> <PUBCHEM_ATOM_UDEF_STEREO_COUNT>
0

> <PUBCHEM_BOND_DEF_STEREO_COUNT>
0

> <PUBCHEM_BOND_UDEF_STEREO_COUNT>
0

> <PUBCHEM_ISOTOPIC_ATOM_COUNT>
0

> <PUBCHEM_COMPONENT_COUNT>
1

> <PUBCHEM_CACTVS_TAUTO_COUNT>
4

> <PUBCHEM_CONFORMER_ID>
02D04B7A00000001

> <PUBCHEM_MMFF94_ENERGY>
27.5123

> <PUBCHEM_FEATURE_SELFOVERLAP>
35.542

> <PUBCHEM_SHAPE_FINGERPRINT>
10319926 262 18272936042051372874
10670039 82 18125429827224612452
10928967 22 10159703554979112712
10968037 57 11311789400577927489
11595378 159 16415196827488899365
11615756 256 18410571752169481356
12363563 72 10447937195410554776
12596602 18 15410309114353600413
12633257 1 18059589013273250888
12670546 177 6122490316186990890
12925494 130 18194120957224593753
12978246 48 18411137991899748080
14251764 30 14116413843257632224
14251764 75 18334847282194794736
14468879 13 18412823556019639131
14508225 48 10544883184922569275
14848178 96 18334858333145120840
15342168 16 18260544533078704215
15806764 133 18118095135099791646
17868525 174 18197785599314219786
1798214 55 18335141973064722000
18186145 218 18040989610411979198
21475661 188 18340207483015449972
21864079 5 18336554837005987982
22749437 52 18408891715545477804
23227448 37 18408604747342317735
23503958 25 18341036437758211862
23559900 14 18192710261592452359
27216 239 18340488868035386675
312425 83 4822948953311745312
3187 122 17915743072465465269
4371632 12 17680178229680381865
4463277 69 10375865281693329099
474 4 18261677085694735471
49207404 50 18343013389418383782
7808743 9 18123745358188707412
90316 7 16774085076400145575

> <PUBCHEM_SHAPE_MULTIPOLES>
390.78
10.29
3.23
1.2
1.34
0.52
0.12
7.67
1.63
1
0.01
0.1
0.03
1.24

> <PUBCHEM_SHAPE_SELFOVERLAP>
833.641

> <PUBCHEM_SHAPE_VOLUME>
216.4

> <PUBCHEM_COORDINATE_TYPE>
2
5
10

$$$$

