11691
  -OEChem-06261205592D

 48 51  0     1  0  0  0  0  0999 V2000
    4.4037    3.1497    0.0000 O   0  0  0  0  0  0  0  0  0  0  0  0
    5.4342    5.0868    0.0000 O   0  0  0  0  0  0  0  0  0  0  0  0
    4.1251    0.6069    0.0000 O   0  0  0  0  0  0  0  0  0  0  0  0
    1.7127    9.8452    0.0000 O   0  5  0  0  0  0  0  0  0  0  0  0
    2.5787    8.3452    0.0000 O   0  0  0  0  0  0  0  0  0  0  0  0
    1.4561    3.9185    0.0000 N   0  3  3  0  0  0  0  0  0  0  0  0
    3.0113    3.9568    0.0000 C   0  0  1  0  0  0  0  0  0  0  0  0
    2.2681    4.6260    0.0000 C   0  0  2  0  0  0  0  0  0  0  0  0
    1.3171    4.3169    0.0000 C   0  0  2  0  0  0  0  0  0  0  0  0
    4.0002    4.0582    0.0000 C   0  0  2  0  0  0  0  0  0  0  0  0
    2.7222    3.6494    0.0000 C   0  0  0  0  0  0  0  0  0  0  0  0
    2.8033    2.9787    0.0000 C   0  0  0  0  0  0  0  0  0  0  0  0
    1.9914    3.3240    0.0000 C   0  0  0  0  0  0  0  0  0  0  0  0
    1.1091    3.3388    0.0000 C   0  0  0  0  0  0  0  0  0  0  0  0
    1.8523    2.6697    0.0000 C   0  0  0  0  0  0  0  0  0  0  0  0
    4.4383    4.9964    0.0000 C   0  0  2  0  0  0  0  0  0  0  0  0
    2.8083    5.7347    0.0000 C   0  0  0  0  0  0  0  0  0  0  0  0
    3.5881    2.2937    0.0000 C   0  0  0  0  0  0  0  0  0  0  0  0
    3.8383    5.8403    0.0000 C   0  0  0  0  0  0  0  0  0  0  0  0
    0.5573    3.4801    0.0000 C   0  0  0  0  0  0  0  0  0  0  0  0
    1.6200    1.6543    0.0000 C   0  0  0  0  0  0  0  0  0  0  0  0
    3.3794    1.2732    0.0000 C   0  0  0  0  0  0  0  0  0  0  0  0
    2.3887    0.9513    0.0000 C   0  0  0  0  0  0  0  0  0  0  0  0
    3.4447    9.8452    0.0000 C   0  0  0  0  0  0  0  0  0  0  0  0
    2.5787    9.3452    0.0000 C   0  0  0  0  0  0  0  0  0  0  0  0
    2.4344    5.4085    0.0000 H   0  0  0  0  0  0  0  0  0  0  0  0
    0.7225    4.8522    0.0000 H   0  0  0  0  0  0  0  0  0  0  0  0
    4.8001    4.0506    0.0000 H   0  0  0  0  0  0  0  0  0  0  0  0
    2.7394    3.0296    0.0000 H   0  0  0  0  0  0  0  0  0  0  0  0
    2.3632    4.1548    0.0000 H   0  0  0  0  0  0  0  0  0  0  0  0
    0.8545    4.0685    0.0000 H   0  0  0  0  0  0  0  0  0  0  0  0
    1.4898    2.9595    0.0000 H   0  0  0  0  0  0  0  0  0  0  0  0
    2.3014    2.7870    0.0000 H   0  0  0  0  0  0  0  0  0  0  0  0
    0.5343    3.5711    0.0000 H   0  0  0  0  0  0  0  0  0  0  0  0
    0.7806    2.8130    0.0000 H   0  0  0  0  0  0  0  0  0  0  0  0
    4.7946    4.4890    0.0000 H   0  0  0  0  0  0  0  0  0  0  0  0
    2.4532    6.2430    0.0000 H   0  0  0  0  0  0  0  0  0  0  0  0
    4.0941    6.4051    0.0000 H   0  0  0  0  0  0  0  0  0  0  0  0
    0.2855    4.0374    0.0000 H   0  0  0  0  0  0  0  0  0  0  0  0
    0.0000    3.2084    0.0000 H   0  0  0  0  0  0  0  0  0  0  0  0
    0.8290    2.9229    0.0000 H   0  0  0  0  0  0  0  0  0  0  0  0
    1.0282    1.4695    0.0000 H   0  0  0  0  0  0  0  0  0  0  0  0
    2.2575    0.3454    0.0000 H   0  0  0  0  0  0  0  0  0  0  0  0
    5.6944    5.6496    0.0000 H   0  0  0  0  0  0  0  0  0  0  0  0
    3.9985    0.0000    0.0000 H   0  0  0  0  0  0  0  0  0  0  0  0
    3.7547    9.3083    0.0000 H   0  0  0  0  0  0  0  0  0  0  0  0
    3.9817   10.1552    0.0000 H   0  0  0  0  0  0  0  0  0  0  0  0
    3.1347   10.3822    0.0000 H   0  0  0  0  0  0  0  0  0  0  0  0
  1 10  1  0  0  0  0
  1 18  1  0  0  0  0
  2 16  1  0  0  0  0
  2 44  1  0  0  0  0
  3 22  1  0  0  0  0
  3 45  1  0  0  0  0
  4 25  1  0  0  0  0
  5 25  2  0  0  0  0
  6  9  1  0  0  0  0
  6 13  1  0  0  0  0
  6 20  1  0  0  0  0
  6 31  1  0  0  0  0
  7  8  1  0  0  0  0
  7 10  1  0  0  0  0
  7 11  1  0  0  0  0
  7 12  1  0  0  0  0
  8  9  1  0  0  0  0
  8 17  1  0  0  0  0
  8 26  1  0  0  0  0
  9 14  1  0  0  0  0
  9 27  1  0  0  0  0
 10 16  1  0  0  0  0
 10 28  1  0  0  0  0
 11 13  1  0  0  0  0
 11 29  1  0  0  0  0
 11 30  1  0  0  0  0
 12 15  2  0  0  0  0
 12 18  1  0  0  0  0
 13 32  1  0  0  0  0
 13 33  1  0  0  0  0
 14 15  1  0  0  0  0
 14 34  1  0  0  0  0
 14 35  1  0  0  0  0
 15 21  1  0  0  0  0
 16 19  1  0  0  0  0
 16 36  1  0  0  0  0
 17 19  2  0  0  0  0
 17 37  1  0  0  0  0
 18 22  2  0  0  0  0
 19 38  1  0  0  0  0
 20 39  1  0  0  0  0
 20 40  1  0  0  0  0
 20 41  1  0  0  0  0
 21 23  2  0  0  0  0
 21 42  1  0  0  0  0
 22 23  1  0  0  0  0
 23 43  1  0  0  0  0
 24 25  1  0  0  0  0
 24 46  1  0  0  0  0
 24 47  1  0  0  0  0
 24 48  1  0  0  0  0
M  CHG  2   4  -1   6   1
M  END
> <PUBCHEM_COMPOUND_CID>
11691

> <PUBCHEM_COMPOUND_CANONICALIZED>
1

> <PUBCHEM_CACTVS_COMPLEXITY>
520

> <PUBCHEM_CACTVS_HBOND_ACCEPTOR>
5

> <PUBCHEM_CACTVS_HBOND_DONOR>
3

> <PUBCHEM_CACTVS_ROTATABLE_BOND>
0

> <PUBCHEM_CACTVS_SUBSKEYS>
AAADceB6OAAAAAAAAAAAAAAAAAAAASAAAAA8YIEAAAAWAEjBAAAAHgAQCAAADzzhmAYyDoPABgCIAiDSCAACCAAgIAAIiIAOiIgNNiKGsRuGeCOk0BGLuAew8PcPoAABAAAYQADQAAaAADSAAAAAAAAAAA==

> <PUBCHEM_IUPAC_OPENEYE_NAME>
(4S,4aR,7S,7aR,12bS)-3-methyl-1,2,3,4,4a,7,7a,13-octahydro-4,12-methanobenzofuro[3,2-e]isoquinoline-3-ium-7,9-diol acetate

> <PUBCHEM_IUPAC_CAS_NAME>
(4S,4aR,7S,7aR,12bS)-3-methyl-1,2,3,4,4a,7,7a,13-octahydro-4,12-methanobenzofuro[3,2-e]isoquinoline-3-ium-7,9-diol acetate

> <PUBCHEM_IUPAC_NAME>
(4S,4aR,7S,7aR,12bS)-3-methyl-1,2,3,4,4a,7,7a,13-octahydro-4,12-methanobenzofuro[3,2-e]isoquinoline-3-ium-7,9-diol acetate

> <PUBCHEM_IUPAC_SYSTEMATIC_NAME>
(4S,4aR,7S,7aR,12bS)-3-methyl-1,2,3,4,4a,7,7a,13-octahydro-4,12-methanobenzofuro[3,2-e]isoquinoline-3-ium-7,9-diol ethanoate

> <PUBCHEM_IUPAC_TRADITIONAL_NAME>
(4S,4aR,7S,7aR,12bS)-3-methyl-1,2,3,4,4a,7,7a,13-octahydro-4,12-methanobenzofuro[3,2-e]isoquinoline-3-ium-7,9-diol acetate

> <PUBCHEM_IUPAC_INCHI>
InChI=1S/C17H19NO3.C2H4O2/c1-18-7-6-17-10-3-5-13(20)16(17)21-15-12(19)4-2-9(14(15)17)8-11(10)18;1-2(3)4/h2-5,10-11,13,16,19-20H,6-8H2,1H3;1H3,(H,3,4)/t10-,11-,13-,16-,17-;/m0./s1

> <PUBCHEM_IUPAC_INCHIKEY>
CLDOGJORCNORLA-ZTSFCDHUSA-N

> <PUBCHEM_EXACT_MASS>
345.157623

> <PUBCHEM_MOLECULAR_FORMULA>
C19H23NO5

> <PUBCHEM_MOLECULAR_WEIGHT>
345.38962

> <PUBCHEM_OPENEYE_CAN_SMILES>
CC(=O)[O-].C[NH+]1CCC23C4C1CC5=C2C(=C(C=C5)O)OC3C(C=C4)O

> <PUBCHEM_OPENEYE_ISO_SMILES>
CC(=O)[O-].C[NH+]1CC[C@]23[C@@H]4[C@@H]1CC5=C2C(=C(C=C5)O)O[C@H]3[C@H](C=C4)O

> <PUBCHEM_CACTVS_TPSA>
94.3

> <PUBCHEM_MONOISOTOPIC_WEIGHT>
345.157623

> <PUBCHEM_TOTAL_CHARGE>
0

> <PUBCHEM_HEAVY_ATOM_COUNT>
25

> <PUBCHEM_ATOM_DEF_STEREO_COUNT>
5

> <PUBCHEM_ATOM_UDEF_STEREO_COUNT>
0

> <PUBCHEM_BOND_DEF_STEREO_COUNT>
0

> <PUBCHEM_BOND_UDEF_STEREO_COUNT>
0

> <PUBCHEM_ISOTOPIC_ATOM_COUNT>
0

> <PUBCHEM_COMPONENT_COUNT>
2

> <PUBCHEM_CACTVS_TAUTO_COUNT>
3

> <PUBCHEM_COORDINATE_TYPE>
1
5
255

> <PUBCHEM_BONDANNOTATIONS>
10  28  3
12  15  8
12  18  8
15  21  8
18  22  8
16  2  3
21  23  8
22  23  8
7  11  3
8  26  3
9  27  3

$$$$

