10342
  -OEChem-06261204292D

 14 14  0     0  0  0  0  0  0999 V2000
    2.8090   -0.7694    0.0000 O   0  0  0  0  0  0  0  0  0  0  0  0
    3.3090    0.7694    0.0000 O   0  0  0  0  0  0  0  0  0  0  0  0
    3.6180   -0.1816    0.0000 C   0  0  0  0  0  0  0  0  0  0  0  0
    2.0000   -0.1816    0.0000 C   0  0  0  0  0  0  0  0  0  0  0  0
    2.3090    0.7694    0.0000 C   0  0  0  0  0  0  0  0  0  0  0  0
    4.5691   -0.4907    0.0000 C   0  0  0  0  0  0  0  0  0  0  0  0
    4.0564    0.2568    0.0000 H   0  0  0  0  0  0  0  0  0  0  0  0
    1.4336    0.0705    0.0000 H   0  0  0  0  0  0  0  0  0  0  0  0
    1.6900   -0.7186    0.0000 H   0  0  0  0  0  0  0  0  0  0  0  0
    2.3738    1.3860    0.0000 H   0  0  0  0  0  0  0  0  0  0  0  0
    1.7026    0.8983    0.0000 H   0  0  0  0  0  0  0  0  0  0  0  0
    4.3775   -1.0803    0.0000 H   0  0  0  0  0  0  0  0  0  0  0  0
    5.1588   -0.6822    0.0000 H   0  0  0  0  0  0  0  0  0  0  0  0
    4.7607    0.0990    0.0000 H   0  0  0  0  0  0  0  0  0  0  0  0
  1  3  1  0  0  0  0
  1  4  1  0  0  0  0
  2  3  1  0  0  0  0
  2  5  1  0  0  0  0
  3  6  1  0  0  0  0
  3  7  1  0  0  0  0
  4  5  1  0  0  0  0
  4  8  1  0  0  0  0
  4  9  1  0  0  0  0
  5 10  1  0  0  0  0
  5 11  1  0  0  0  0
  6 12  1  0  0  0  0
  6 13  1  0  0  0  0
  6 14  1  0  0  0  0
M  END
> <PUBCHEM_COMPOUND_CID>
10342

> <PUBCHEM_COMPOUND_CANONICALIZED>
1

> <PUBCHEM_CACTVS_COMPLEXITY>
38.8

> <PUBCHEM_CACTVS_HBOND_ACCEPTOR>
2

> <PUBCHEM_CACTVS_HBOND_DONOR>
0

> <PUBCHEM_CACTVS_ROTATABLE_BOND>
0

> <PUBCHEM_CACTVS_SUBSKEYS>
AAADccBgMAAAAAAAAAAAAAAAAAAAASAAAAAAAAAAAAAAAAAAAAAAGgAAAAAAAACwgAMCCAAABAAAAAAAAAAAAAAAAAAAAAAAAAARAAAAAAAiAAAAAAAGAAAAAAAAAAAAAAAAAAAAAAAAAAAAAAAAAAAAAA==

> <PUBCHEM_IUPAC_OPENEYE_NAME>
2-methyl-1,3-dioxolane

> <PUBCHEM_IUPAC_CAS_NAME>
2-methyl-1,3-dioxolane

> <PUBCHEM_IUPAC_NAME>
2-methyl-1,3-dioxolane

> <PUBCHEM_IUPAC_SYSTEMATIC_NAME>
2-methyl-1,3-dioxolane

> <PUBCHEM_IUPAC_TRADITIONAL_NAME>
2-methyl-1,3-dioxolane

> <PUBCHEM_IUPAC_INCHI>
InChI=1S/C4H8O2/c1-4-5-2-3-6-4/h4H,2-3H2,1H3

> <PUBCHEM_IUPAC_INCHIKEY>
HTWIZMNMTWYQRN-UHFFFAOYSA-N

> <PUBCHEM_XLOGP3_AA>
0.2

> <PUBCHEM_EXACT_MASS>
88.052429

> <PUBCHEM_MOLECULAR_FORMULA>
C4H8O2

> <PUBCHEM_MOLECULAR_WEIGHT>
88.10512

> <PUBCHEM_OPENEYE_CAN_SMILES>
CC1OCCO1

> <PUBCHEM_OPENEYE_ISO_SMILES>
CC1OCCO1

> <PUBCHEM_CACTVS_TPSA>
18.5

> <PUBCHEM_MONOISOTOPIC_WEIGHT>
88.052429

> <PUBCHEM_TOTAL_CHARGE>
0

> <PUBCHEM_HEAVY_ATOM_COUNT>
6

> <PUBCHEM_ATOM_DEF_STEREO_COUNT>
0

> <PUBCHEM_ATOM_UDEF_STEREO_COUNT>
0

> <PUBCHEM_BOND_DEF_STEREO_COUNT>
0

> <PUBCHEM_BOND_UDEF_STEREO_COUNT>
0

> <PUBCHEM_ISOTOPIC_ATOM_COUNT>
0

> <PUBCHEM_COMPONENT_COUNT>
1

> <PUBCHEM_CACTVS_TAUTO_COUNT>
1

> <PUBCHEM_COORDINATE_TYPE>
1
5
255

$$$$

