227848
  -OEChem-07051213073D

 64 67  0     1  0  0  0  0  0999 V2000
   -2.1439   -0.0225   -1.9951 O   0  0  0  0  0  0  0  0  0  0  0  0
    0.9562   -2.2389    1.6142 O   0  0  0  0  0  0  0  0  0  0  0  0
   -3.5912   -1.6637    0.1234 O   0  0  0  0  0  0  0  0  0  0  0  0
   -5.9943   -0.4763   -0.0619 O   0  0  0  0  0  0  0  0  0  0  0  0
    6.4617   -0.5560   -2.1503 O   0  0  0  0  0  0  0  0  0  0  0  0
   -7.4067    1.2882   -0.5406 O   0  0  0  0  0  0  0  0  0  0  0  0
   -0.1267    0.9288   -0.0930 C   0  0  2  0  0  0  0  0  0  0  0  0
   -1.0813   -0.2471    0.2147 C   0  0  1  0  0  0  0  0  0  0  0  0
    1.2332    0.8223    0.6144 C   0  0  1  0  0  0  0  0  0  0  0  0
    1.9410   -0.4944    0.1337 C   0  0  1  0  0  0  0  0  0  0  0  0
    3.4019   -0.6181    0.7110 C   0  0  2  0  0  0  0  0  0  0  0  0
   -2.3208    0.2170   -0.6018 C   0  0  1  0  0  0  0  0  0  0  0  0
   -0.4012   -1.5441   -0.2687 C   0  0  0  0  0  0  0  0  0  0  0  0
    1.0273   -1.7482    0.2836 C   0  0  2  0  0  0  0  0  0  0  0  0
   -0.9946    2.1603    0.1510 C   0  0  0  0  0  0  0  0  0  0  0  0
    2.0935    2.0723    0.3275 C   0  0  0  0  0  0  0  0  0  0  0  0
   -2.3929    1.7410   -0.3494 C   0  0  0  0  0  0  0  0  0  0  0  0
    3.5427    1.9511    0.8326 C   0  0  1  0  0  0  0  0  0  0  0  0
    4.1312    0.6652    0.2591 C   0  0  0  0  0  0  0  0  0  0  0  0
   -1.4682   -0.3520    1.7157 C   0  0  0  0  0  0  0  0  0  0  0  0
    4.1518   -1.8797    0.1957 C   0  0  0  0  0  0  0  0  0  0  0  0
    3.4485   -0.7286    2.2572 C   0  0  0  0  0  0  0  0  0  0  0  0
   -3.5955   -0.4958   -0.2627 C   0  0  0  0  0  0  0  0  0  0  0  0
    4.6046   -1.7689   -1.2466 C   0  0  0  0  0  0  0  0  0  0  0  0
    5.1221    0.6660   -0.6515 C   0  0  0  0  0  0  0  0  0  0  0  0
    4.3006    3.2479    0.5182 C   0  0  0  0  0  0  0  0  0  0  0  0
    5.4970   -0.5652   -1.3889 C   0  0  0  0  0  0  0  0  0  0  0  0
   -4.8726    0.3011   -0.4236 C   0  0  0  0  0  0  0  0  0  0  0  0
   -7.2159    0.1391   -0.1658 C   0  0  0  0  0  0  0  0  0  0  0  0
   -8.3074   -0.8008    0.2480 C   0  0  0  0  0  0  0  0  0  0  0  0
    0.0926    0.9251   -1.1738 H   0  0  0  0  0  0  0  0  0  0  0  0
    1.0759    0.7805    1.6963 H   0  0  0  0  0  0  0  0  0  0  0  0
    2.0535   -0.3750   -0.9567 H   0  0  0  0  0  0  0  0  0  0  0  0
   -0.3088   -1.5326   -1.3610 H   0  0  0  0  0  0  0  0  0  0  0  0
   -1.0225   -2.4104   -0.0124 H   0  0  0  0  0  0  0  0  0  0  0  0
    1.4582   -2.5601   -0.3158 H   0  0  0  0  0  0  0  0  0  0  0  0
   -0.6282    3.0356   -0.3950 H   0  0  0  0  0  0  0  0  0  0  0  0
   -1.0262    2.4232    1.2145 H   0  0  0  0  0  0  0  0  0  0  0  0
    1.6240    2.9468    0.7957 H   0  0  0  0  0  0  0  0  0  0  0  0
    2.1013    2.2661   -0.7543 H   0  0  0  0  0  0  0  0  0  0  0  0
   -3.0956    2.0388    0.4323 H   0  0  0  0  0  0  0  0  0  0  0  0
   -2.6455    2.2884   -1.2646 H   0  0  0  0  0  0  0  0  0  0  0  0
    3.5329    1.8746    1.9262 H   0  0  0  0  0  0  0  0  0  0  0  0
   -1.9987   -1.2854    1.9299 H   0  0  0  0  0  0  0  0  0  0  0  0
   -0.5927   -0.3485    2.3695 H   0  0  0  0  0  0  0  0  0  0  0  0
   -2.1097    0.4697    2.0497 H   0  0  0  0  0  0  0  0  0  0  0  0
    3.5494   -2.7845    0.3248 H   0  0  0  0  0  0  0  0  0  0  0  0
    5.0502   -2.0391    0.8113 H   0  0  0  0  0  0  0  0  0  0  0  0
    3.2144   -1.7393    2.6044 H   0  0  0  0  0  0  0  0  0  0  0  0
    4.4541   -0.5006    2.6333 H   0  0  0  0  0  0  0  0  0  0  0  0
    2.7564   -0.0496    2.7613 H   0  0  0  0  0  0  0  0  0  0  0  0
    3.7635   -1.6781   -1.9404 H   0  0  0  0  0  0  0  0  0  0  0  0
    5.1781   -2.6623   -1.5168 H   0  0  0  0  0  0  0  0  0  0  0  0
   -2.1637   -0.9817   -2.1516 H   0  0  0  0  0  0  0  0  0  0  0  0
    5.6275    1.5700   -0.9697 H   0  0  0  0  0  0  0  0  0  0  0  0
    3.8303    4.0970    1.0268 H   0  0  0  0  0  0  0  0  0  0  0  0
    5.3379    3.1919    0.8658 H   0  0  0  0  0  0  0  0  0  0  0  0
    4.3043    3.4702   -0.5546 H   0  0  0  0  0  0  0  0  0  0  0  0
    1.6667   -2.8920    1.7272 H   0  0  0  0  0  0  0  0  0  0  0  0
   -4.9587    0.6103   -1.4708 H   0  0  0  0  0  0  0  0  0  0  0  0
   -4.8619    1.1681    0.2378 H   0  0  0  0  0  0  0  0  0  0  0  0
   -8.1628   -1.1000    1.2891 H   0  0  0  0  0  0  0  0  0  0  0  0
   -8.3105   -1.6754   -0.4072 H   0  0  0  0  0  0  0  0  0  0  0  0
   -9.2737   -0.2960    0.1611 H   0  0  0  0  0  0  0  0  0  0  0  0
  1 12  1  0  0  0  0
  1 54  1  0  0  0  0
  2 14  1  0  0  0  0
  2 59  1  0  0  0  0
  3 23  2  0  0  0  0
  4 28  1  0  0  0  0
  4 29  1  0  0  0  0
  5 27  2  0  0  0  0
  6 29  2  0  0  0  0
  7  8  1  0  0  0  0
  7  9  1  0  0  0  0
  7 15  1  0  0  0  0
  7 31  1  0  0  0  0
  8 12  1  0  0  0  0
  8 13  1  0  0  0  0
  8 20  1  0  0  0  0
  9 10  1  0  0  0  0
  9 16  1  0  0  0  0
  9 32  1  0  0  0  0
 10 11  1  0  0  0  0
 10 14  1  0  0  0  0
 10 33  1  0  0  0  0
 11 19  1  0  0  0  0
 11 21  1  0  0  0  0
 11 22  1  0  0  0  0
 12 17  1  0  0  0  0
 12 23  1  0  0  0  0
 13 14  1  0  0  0  0
 13 34  1  0  0  0  0
 13 35  1  0  0  0  0
 14 36  1  0  0  0  0
 15 17  1  0  0  0  0
 15 37  1  0  0  0  0
 15 38  1  0  0  0  0
 16 18  1  0  0  0  0
 16 39  1  0  0  0  0
 16 40  1  0  0  0  0
 17 41  1  0  0  0  0
 17 42  1  0  0  0  0
 18 19  1  0  0  0  0
 18 26  1  0  0  0  0
 18 43  1  0  0  0  0
 19 25  2  0  0  0  0
 20 44  1  0  0  0  0
 20 45  1  0  0  0  0
 20 46  1  0  0  0  0
 21 24  1  0  0  0  0
 21 47  1  0  0  0  0
 21 48  1  0  0  0  0
 22 49  1  0  0  0  0
 22 50  1  0  0  0  0
 22 51  1  0  0  0  0
 23 28  1  0  0  0  0
 24 27  1  0  0  0  0
 24 52  1  0  0  0  0
 24 53  1  0  0  0  0
 25 27  1  0  0  0  0
 25 55  1  0  0  0  0
 26 56  1  0  0  0  0
 26 57  1  0  0  0  0
 26 58  1  0  0  0  0
 28 60  1  0  0  0  0
 28 61  1  0  0  0  0
 29 30  1  0  0  0  0
 30 62  1  0  0  0  0
 30 63  1  0  0  0  0
 30 64  1  0  0  0  0
M  END
> <PUBCHEM_COMPOUND_CID>
227848

> <PUBCHEM_CONFORMER_RMSD>
0.8

> <PUBCHEM_CONFORMER_DIVERSEORDER>
2
8
11
13
7
4
15
17
1
18
12
16
6
10
9
14
5
3

> <PUBCHEM_MMFF94_PARTIAL_CHARGES>
21
1 -0.68
11 0.14
12 0.34
14 0.28
18 0.14
19 -0.28
2 -0.68
23 0.45
24 0.06
25 -0.14
27 0.49
28 0.34
29 0.66
3 -0.57
30 0.06
4 -0.43
5 -0.57
54 0.4
55 0.15
59 0.4
6 -0.57

> <PUBCHEM_EFFECTIVE_ROTOR_COUNT>
5.8

> <PUBCHEM_PHARMACOPHORE_FEATURES>
11
1 1 acceptor
1 1 donor
1 2 acceptor
1 2 donor
1 3 acceptor
1 5 acceptor
1 6 acceptor
5 7 8 12 15 17 rings
6 11 19 21 24 25 27 rings
6 7 8 9 10 13 14 rings
6 9 10 11 16 18 19 rings

> <PUBCHEM_HEAVY_ATOM_COUNT>
30

> <PUBCHEM_ATOM_DEF_STEREO_COUNT>
8

> <PUBCHEM_ATOM_UDEF_STEREO_COUNT>
0

> <PUBCHEM_BOND_DEF_STEREO_COUNT>
0

> <PUBCHEM_BOND_UDEF_STEREO_COUNT>
0

> <PUBCHEM_ISOTOPIC_ATOM_COUNT>
0

> <PUBCHEM_COMPONENT_COUNT>
1

> <PUBCHEM_CACTVS_TAUTO_COUNT>
10

> <PUBCHEM_CONFORMER_ID>
00037A0800000002

> <PUBCHEM_MMFF94_ENERGY>
101.0013

> <PUBCHEM_FEATURE_SELFOVERLAP>
55.93

> <PUBCHEM_SHAPE_FINGERPRINT>
10165383 225 17704068491696057358
10366900 7 18130782390981849544
10411042 1 18121221137405935082
11578080 2 13469535800043876565
12011746 2 18342170072568780114
12107698 1 18259983811881240676
12166972 35 17385442120393593257
12236239 1 17676489424235018889
12403259 415 18202293501944874557
12730499 353 18272653450024196027
13224815 77 18341337747041536576
13533116 47 18410295825889506010
13540713 4 18123176915098513914
13617811 41 17346598564996443685
14114211 68 17775272898733336002
14617045 38 18273214201239204611
14790565 3 18336829788281109265
15131766 46 14347518907450462115
15183329 4 18333449863846467937
15840311 113 18336544933344790301
16728300 4 13913990470786100476
18608769 82 18272367516876661170
20105231 36 18336254705050819383
21033648 29 17988360352160337656
21267235 1 18335417997442870077
21279426 13 18411144671143378229
21781051 124 18059849558642778642
21792934 111 18339661021879620569
221357 26 18334855043680005596
22393880 68 18341336681932131108
23522609 53 18056454352678042253
23559900 14 18335140843789107432
255183 451 17825663623824214678
29717793 49 17749106686127809012
3004659 81 18410575084663364773
34797466 226 18259983751693598301
350125 39 18411702123253687485
3633792 109 18113333119879541672
4073 2 18130225931199013099
4093350 32 17676488320080426648
4340502 62 16773807977905406129
46194498 28 18114176445999523180
53794403 172 17986668169480143364
5486654 2 18060134336792055355
633830 44 18336838510863516558
9709674 26 18336547097801942170

> <PUBCHEM_SHAPE_MULTIPOLES>
582.17
16.79
2.39
1.42
29.35
1.08
-0.09
-1.07
4.5
-2.67
-0.34
-1.73
-0.47
1.04

> <PUBCHEM_SHAPE_SELFOVERLAP>
1241.167

> <PUBCHEM_SHAPE_VOLUME>
319.2

> <PUBCHEM_COORDINATE_TYPE>
2
5
10

$$$$

