165849
  -OEChem-07051213113D

 28 31  0     0  0  0  0  0  0999 V2000
    4.1028   -1.1487    0.0010 O   0  0  0  0  0  0  0  0  0  0  0  0
   -4.1029    1.1486   -0.0007 O   0  0  0  0  0  0  0  0  0  0  0  0
    0.6736    0.2198   -0.0001 C   0  0  0  0  0  0  0  0  0  0  0  0
   -0.6735   -0.2197    0.0000 C   0  0  0  0  0  0  0  0  0  0  0  0
    1.7256   -0.7255   -0.0003 C   0  0  0  0  0  0  0  0  0  0  0  0
   -1.7256    0.7256    0.0002 C   0  0  0  0  0  0  0  0  0  0  0  0
    0.9655    1.6037    0.0000 C   0  0  0  0  0  0  0  0  0  0  0  0
   -0.9655   -1.6037    0.0000 C   0  0  0  0  0  0  0  0  0  0  0  0
    1.4173   -2.0925   -0.0003 C   0  0  0  0  0  0  0  0  0  0  0  0
   -1.4172    2.0926    0.0003 C   0  0  0  0  0  0  0  0  0  0  0  0
   -0.0898    2.5257    0.0002 C   0  0  0  0  0  0  0  0  0  0  0  0
    0.0899   -2.5257   -0.0003 C   0  0  0  0  0  0  0  0  0  0  0  0
    3.0536   -0.2746   -0.0004 C   0  0  0  0  0  0  0  0  0  0  0  0
   -3.0537    0.2746    0.0004 C   0  0  0  0  0  0  0  0  0  0  0  0
    2.3039    2.0229   -0.0002 C   0  0  0  0  0  0  0  0  0  0  0  0
   -2.3040   -2.0229    0.0001 C   0  0  0  0  0  0  0  0  0  0  0  0
    3.3393    1.0897   -0.0003 C   0  0  0  0  0  0  0  0  0  0  0  0
   -3.3393   -1.0897    0.0003 C   0  0  0  0  0  0  0  0  0  0  0  0
    2.2018   -2.8463   -0.0005 H   0  0  0  0  0  0  0  0  0  0  0  0
   -2.1823    2.8636    0.0167 H   0  0  0  0  0  0  0  0  0  0  0  0
    0.1112    3.5952    0.0038 H   0  0  0  0  0  0  0  0  0  0  0  0
   -0.1107   -3.5952   -0.0003 H   0  0  0  0  0  0  0  0  0  0  0  0
    2.5523    3.0821   -0.0001 H   0  0  0  0  0  0  0  0  0  0  0  0
   -2.5525   -3.0820   -0.0001 H   0  0  0  0  0  0  0  0  0  0  0  0
    4.3672    1.4433   -0.0002 H   0  0  0  0  0  0  0  0  0  0  0  0
   -4.3701   -1.4344    0.0001 H   0  0  0  0  0  0  0  0  0  0  0  0
    4.9374   -0.6495    0.0008 H   0  0  0  0  0  0  0  0  0  0  0  0
   -3.8485    1.9824   -0.4253 H   0  0  0  0  0  0  0  0  0  0  0  0
  1 13  1  0  0  0  0
  1 27  1  0  0  0  0
  2 14  1  0  0  0  0
  2 28  1  0  0  0  0
  3  4  1  0  0  0  0
  3  5  1  0  0  0  0
  3  7  2  0  0  0  0
  4  6  1  0  0  0  0
  4  8  2  0  0  0  0
  5  9  1  0  0  0  0
  5 13  2  0  0  0  0
  6 10  1  0  0  0  0
  6 14  2  0  0  0  0
  7 11  1  0  0  0  0
  7 15  1  0  0  0  0
  8 12  1  0  0  0  0
  8 16  1  0  0  0  0
  9 12  2  0  0  0  0
  9 19  1  0  0  0  0
 10 11  2  0  0  0  0
 10 20  1  0  0  0  0
 11 21  1  0  0  0  0
 12 22  1  0  0  0  0
 13 17  1  0  0  0  0
 14 18  1  0  0  0  0
 15 17  2  0  0  0  0
 15 23  1  0  0  0  0
 16 18  2  0  0  0  0
 16 24  1  0  0  0  0
 17 25  1  0  0  0  0
 18 26  1  0  0  0  0
M  END
> <PUBCHEM_COMPOUND_CID>
165849

> <PUBCHEM_CONFORMER_RMSD>
0.4

> <PUBCHEM_CONFORMER_DIVERSEORDER>
1

> <PUBCHEM_MMFF94_PARTIAL_CHARGES>
22
1 -0.53
10 -0.15
11 -0.15
12 -0.15
13 0.08
14 0.08
15 -0.15
16 -0.15
17 -0.15
18 -0.15
19 0.15
2 -0.53
20 0.15
21 0.15
22 0.15
23 0.15
24 0.15
25 0.15
26 0.15
27 0.45
28 0.45
9 -0.15

> <PUBCHEM_EFFECTIVE_ROTOR_COUNT>
0

> <PUBCHEM_PHARMACOPHORE_FEATURES>
6
1 1 donor
1 2 donor
6 3 4 5 8 9 12 rings
6 3 4 6 7 10 11 rings
6 3 5 7 13 15 17 rings
6 4 6 8 14 16 18 rings

> <PUBCHEM_HEAVY_ATOM_COUNT>
18

> <PUBCHEM_ATOM_DEF_STEREO_COUNT>
0

> <PUBCHEM_ATOM_UDEF_STEREO_COUNT>
0

> <PUBCHEM_BOND_DEF_STEREO_COUNT>
0

> <PUBCHEM_BOND_UDEF_STEREO_COUNT>
0

> <PUBCHEM_ISOTOPIC_ATOM_COUNT>
0

> <PUBCHEM_COMPONENT_COUNT>
1

> <PUBCHEM_CACTVS_TAUTO_COUNT>
5

> <PUBCHEM_CONFORMER_ID>
000287D900000001

> <PUBCHEM_MMFF94_ENERGY>
64.0736

> <PUBCHEM_FEATURE_SELFOVERLAP>
30.578

> <PUBCHEM_SHAPE_FINGERPRINT>
10062212 137 18410865347327863859
10411042 1 14663860128803503916
10608611 8 18338238158905946177
10863032 1 18337671910348822881
10967382 1 18338799030047470085
11132069 177 18409454678135524112
11471102 20 18411142445780229861
11578080 2 16663747804932521339
12011746 2 18338797943399645604
12382932 28 18409448068128043075
13132413 78 18337389318765290901
13140716 1 18410573959381647785
13221675 6 18410855485929776490
13897977 150 18410858763300936325
14178342 30 17760101618091182232
14790565 3 18338499945763868488
15196674 1 18410855434358358021
15442244 35 18410575076368588954
15536298 74 18334294232472468096
16945 1 18338797934809710598
17804303 29 18409163320766060838
193761 8 17762337311355305989
19591789 44 18339077094931443723
20510252 161 18261391109376391480
20905425 154 18120090834513724126
21267235 1 18410846634034107267
21501502 16 18338517426200641556
2334 1 18266458698291347463
23402539 116 18334868224744798078
23463225 33 18412826854617799372
23559900 14 18334576833305746660
238 59 17695393426156247173
2748010 2 18338516313804111951
335352 9 18338517559344628151
34934 24 18410864290871053225
350125 39 18195521489897209193
5104073 3 18410855434358359024
528886 8 18410016515581580968
7364860 26 18263361550298756550
8809292 202 18343298167225159626
9709674 26 18336824191427208110

> <PUBCHEM_SHAPE_MULTIPOLES>
358.69
5.69
2.92
0.61
0
0
0
0
0
0
0
0
0
0

> <PUBCHEM_SHAPE_SELFOVERLAP>
840.132

> <PUBCHEM_SHAPE_VOLUME>
182.9

> <PUBCHEM_COORDINATE_TYPE>
2
5
10

$$$$

