3371
  -OEChem-07051213032D

 30 31  0     0  0  0  0  0  0999 V2000
    2.0000   -3.2220    0.0000 F   0  0  0  0  0  0  0  0  0  0  0  0
    3.3660   -3.5880    0.0000 F   0  0  0  0  0  0  0  0  0  0  0  0
    2.3660   -1.8560    0.0000 F   0  0  0  0  0  0  0  0  0  0  0  0
    4.5981    3.2780    0.0000 O   0  0  0  0  0  0  0  0  0  0  0  0
    3.7320    1.7780    0.0000 O   0  0  0  0  0  0  0  0  0  0  0  0
    4.5981    0.2780    0.0000 N   0  0  0  0  0  0  0  0  0  0  0  0
    4.5981   -0.7220    0.0000 C   0  0  0  0  0  0  0  0  0  0  0  0
    5.4641    0.7780    0.0000 C   0  0  0  0  0  0  0  0  0  0  0  0
    3.7320   -2.2220    0.0000 C   0  0  0  0  0  0  0  0  0  0  0  0
    3.7320   -1.2220    0.0000 C   0  0  0  0  0  0  0  0  0  0  0  0
    5.4641    1.7780    0.0000 C   0  0  0  0  0  0  0  0  0  0  0  0
    5.4641   -1.2220    0.0000 C   0  0  0  0  0  0  0  0  0  0  0  0
    4.5981   -2.7220    0.0000 C   0  0  0  0  0  0  0  0  0  0  0  0
    6.3301    0.2780    0.0000 C   0  0  0  0  0  0  0  0  0  0  0  0
    5.4641   -2.2220    0.0000 C   0  0  0  0  0  0  0  0  0  0  0  0
    6.3301    2.2780    0.0000 C   0  0  0  0  0  0  0  0  0  0  0  0
    2.8660   -2.7220    0.0000 C   0  0  0  0  0  0  0  0  0  0  0  0
    7.1962    0.7780    0.0000 C   0  0  0  0  0  0  0  0  0  0  0  0
    7.1962    1.7780    0.0000 C   0  0  0  0  0  0  0  0  0  0  0  0
    4.5981    2.2780    0.0000 C   0  0  0  0  0  0  0  0  0  0  0  0
    4.0611    0.5880    0.0000 H   0  0  0  0  0  0  0  0  0  0  0  0
    3.1951   -0.9120    0.0000 H   0  0  0  0  0  0  0  0  0  0  0  0
    6.0010   -0.9120    0.0000 H   0  0  0  0  0  0  0  0  0  0  0  0
    4.5981   -3.3420    0.0000 H   0  0  0  0  0  0  0  0  0  0  0  0
    6.3301   -0.3420    0.0000 H   0  0  0  0  0  0  0  0  0  0  0  0
    6.0010   -2.5320    0.0000 H   0  0  0  0  0  0  0  0  0  0  0  0
    6.3301    2.8980    0.0000 H   0  0  0  0  0  0  0  0  0  0  0  0
    7.7331    0.4680    0.0000 H   0  0  0  0  0  0  0  0  0  0  0  0
    7.7331    2.0880    0.0000 H   0  0  0  0  0  0  0  0  0  0  0  0
    5.1350    3.5880    0.0000 H   0  0  0  0  0  0  0  0  0  0  0  0
  1 17  1  0  0  0  0
  2 17  1  0  0  0  0
  3 17  1  0  0  0  0
  4 20  1  0  0  0  0
  4 30  1  0  0  0  0
  5 20  2  0  0  0  0
  6  7  1  0  0  0  0
  6  8  1  0  0  0  0
  6 21  1  0  0  0  0
  7 10  1  0  0  0  0
  7 12  2  0  0  0  0
  8 11  1  0  0  0  0
  8 14  2  0  0  0  0
  9 10  2  0  0  0  0
  9 13  1  0  0  0  0
  9 17  1  0  0  0  0
 10 22  1  0  0  0  0
 11 16  2  0  0  0  0
 11 20  1  0  0  0  0
 12 15  1  0  0  0  0
 12 23  1  0  0  0  0
 13 15  2  0  0  0  0
 13 24  1  0  0  0  0
 14 18  1  0  0  0  0
 14 25  1  0  0  0  0
 15 26  1  0  0  0  0
 16 19  1  0  0  0  0
 16 27  1  0  0  0  0
 18 19  2  0  0  0  0
 18 28  1  0  0  0  0
 19 29  1  0  0  0  0
M  END
> <PUBCHEM_COMPOUND_CID>
3371

> <PUBCHEM_COMPOUND_CANONICALIZED>
1

> <PUBCHEM_CACTVS_COMPLEXITY>
346

> <PUBCHEM_CACTVS_HBOND_ACCEPTOR>
6

> <PUBCHEM_CACTVS_HBOND_DONOR>
2

> <PUBCHEM_CACTVS_ROTATABLE_BOND>
3

> <PUBCHEM_CACTVS_SUBSKEYS>
AAADccByMYAAAAAAAAAAAAAAAAAAAAAAAAAwYAAAAAAAAAABQAAAHwAQCAAADAiBmBAwyILAAgCIAiTSSACCAAAlAgAIiAEAbMgIJnrAlZGEcYhm0AHI2ceYyCCOAAAAQAACAAAAAACAAAQAAAAAAAAAAA==

> <PUBCHEM_IUPAC_OPENEYE_NAME>
2-[3-(trifluoromethyl)anilino]benzoic acid

> <PUBCHEM_IUPAC_CAS_NAME>
2-[3-(trifluoromethyl)anilino]benzoic acid

> <PUBCHEM_IUPAC_NAME>
2-[3-(trifluoromethyl)anilino]benzoic acid

> <PUBCHEM_IUPAC_SYSTEMATIC_NAME>
2-[[3-(trifluoromethyl)phenyl]amino]benzoic acid

> <PUBCHEM_IUPAC_TRADITIONAL_NAME>
2-[3-(trifluoromethyl)anilino]benzoic acid

> <PUBCHEM_IUPAC_INCHI>
InChI=1S/C14H10F3NO2/c15-14(16,17)9-4-3-5-10(8-9)18-12-7-2-1-6-11(12)13(19)20/h1-8,18H,(H,19,20)

> <PUBCHEM_IUPAC_INCHIKEY>
LPEPZBJOKDYZAD-UHFFFAOYSA-N

> <PUBCHEM_XLOGP3>
5.2

> <PUBCHEM_EXACT_MASS>
281.066363

> <PUBCHEM_MOLECULAR_FORMULA>
C14H10F3NO2

> <PUBCHEM_MOLECULAR_WEIGHT>
281.22991

> <PUBCHEM_OPENEYE_CAN_SMILES>
C1=CC=C(C(=C1)C(=O)O)NC2=CC=CC(=C2)C(F)(F)F

> <PUBCHEM_OPENEYE_ISO_SMILES>
C1=CC=C(C(=C1)C(=O)O)NC2=CC=CC(=C2)C(F)(F)F

> <PUBCHEM_CACTVS_TPSA>
49.3

> <PUBCHEM_MONOISOTOPIC_WEIGHT>
281.066363

> <PUBCHEM_TOTAL_CHARGE>
0

> <PUBCHEM_HEAVY_ATOM_COUNT>
20

> <PUBCHEM_ATOM_DEF_STEREO_COUNT>
0

> <PUBCHEM_ATOM_UDEF_STEREO_COUNT>
0

> <PUBCHEM_BOND_DEF_STEREO_COUNT>
0

> <PUBCHEM_BOND_UDEF_STEREO_COUNT>
0

> <PUBCHEM_ISOTOPIC_ATOM_COUNT>
0

> <PUBCHEM_COMPONENT_COUNT>
1

> <PUBCHEM_CACTVS_TAUTO_COUNT>
4

> <PUBCHEM_COORDINATE_TYPE>
1
5
255

> <PUBCHEM_BONDANNOTATIONS>
11  16  8
12  15  8
13  15  8
14  18  8
16  19  8
18  19  8
7  10  8
7  12  8
8  11  8
8  14  8
9  10  8
9  13  8

$$$$

