107819
  -OEChem-07051213143D

 23 23  0     0  0  0  0  0  0999 V2000
   -5.1906   -0.2134   -0.0197 O   0  0  0  0  0  0  0  0  0  0  0  0
   -0.5724    1.8741    0.0021 O   0  0  0  0  0  0  0  0  0  0  0  0
    2.6459   -1.5907   -0.0038 N   0  0  0  0  0  0  0  0  0  0  0  0
   -1.4254   -0.3830    0.0255 C   0  0  0  0  0  0  0  0  0  0  0  0
   -2.8330    0.2100   -0.0168 C   0  0  0  0  0  0  0  0  0  0  0  0
   -0.3270    0.6704    0.0171 C   0  0  0  0  0  0  0  0  0  0  0  0
   -3.9227   -0.8556    0.0078 C   0  0  0  0  0  0  0  0  0  0  0  0
    1.0943    0.2200    0.0063 C   0  0  0  0  0  0  0  0  0  0  0  0
    2.1006    1.1508   -0.0014 C   0  0  0  0  0  0  0  0  0  0  0  0
    1.3803   -1.1157    0.0049 C   0  0  0  0  0  0  0  0  0  0  0  0
    3.4163    0.7007   -0.0105 C   0  0  0  0  0  0  0  0  0  0  0  0
    3.6336   -0.6676   -0.0112 C   0  0  0  0  0  0  0  0  0  0  0  0
   -1.3227   -0.9822    0.9374 H   0  0  0  0  0  0  0  0  0  0  0  0
   -1.2977   -1.0279   -0.8513 H   0  0  0  0  0  0  0  0  0  0  0  0
   -2.9532    0.8314   -0.9137 H   0  0  0  0  0  0  0  0  0  0  0  0
   -2.9783    0.8944    0.8291 H   0  0  0  0  0  0  0  0  0  0  0  0
   -3.8571   -1.4592    0.9186 H   0  0  0  0  0  0  0  0  0  0  0  0
   -3.8446   -1.5131   -0.8637 H   0  0  0  0  0  0  0  0  0  0  0  0
    1.9086    2.2190   -0.0002 H   0  0  0  0  0  0  0  0  0  0  0  0
    0.6326   -1.8990    0.0131 H   0  0  0  0  0  0  0  0  0  0  0  0
    4.2456    1.3989   -0.0167 H   0  0  0  0  0  0  0  0  0  0  0  0
   -5.8650   -0.9136   -0.0033 H   0  0  0  0  0  0  0  0  0  0  0  0
    4.6413   -1.0699   -0.0181 H   0  0  0  0  0  0  0  0  0  0  0  0
  1  7  1  0  0  0  0
  1 22  1  0  0  0  0
  2  6  2  0  0  0  0
  3 10  1  0  0  0  0
  3 12  2  0  0  0  0
  4  5  1  0  0  0  0
  4  6  1  0  0  0  0
  4 13  1  0  0  0  0
  4 14  1  0  0  0  0
  5  7  1  0  0  0  0
  5 15  1  0  0  0  0
  5 16  1  0  0  0  0
  6  8  1  0  0  0  0
  7 17  1  0  0  0  0
  7 18  1  0  0  0  0
  8  9  1  0  0  0  0
  8 10  2  0  0  0  0
  9 11  2  0  0  0  0
  9 19  1  0  0  0  0
 10 20  1  0  0  0  0
 11 12  1  0  0  0  0
 11 21  1  0  0  0  0
 12 23  1  0  0  0  0
M  END
> <PUBCHEM_COMPOUND_CID>
107819

> <PUBCHEM_CONFORMER_RMSD>
0.6

> <PUBCHEM_CONFORMER_DIVERSEORDER>
1
51
46
23
73
60
3
69
62
63
38
66
22
40
59
29
65
31
18
45
20
13
67
34
27
75
58
49
50
2
64
39
70
4
15
10
74
14
68
37
72
12
6
25
61
53
30
57
16
35
28
52
11
71
33
19
42
43
24
5
36
44
47
21
54
48
17
26
41
32
8
56
55
7
9

> <PUBCHEM_MMFF94_PARTIAL_CHARGES>
16
1 -0.68
10 0.16
11 -0.15
12 0.16
19 0.15
2 -0.57
20 0.15
21 0.15
22 0.4
23 0.15
3 -0.62
4 0.06
6 0.42
7 0.28
8 0.09
9 -0.15

> <PUBCHEM_EFFECTIVE_ROTOR_COUNT>
4

> <PUBCHEM_PHARMACOPHORE_FEATURES>
5
1 1 acceptor
1 1 donor
1 2 acceptor
1 3 acceptor
6 3 8 9 10 11 12 rings

> <PUBCHEM_HEAVY_ATOM_COUNT>
12

> <PUBCHEM_ATOM_DEF_STEREO_COUNT>
0

> <PUBCHEM_ATOM_UDEF_STEREO_COUNT>
0

> <PUBCHEM_BOND_DEF_STEREO_COUNT>
0

> <PUBCHEM_BOND_UDEF_STEREO_COUNT>
0

> <PUBCHEM_ISOTOPIC_ATOM_COUNT>
0

> <PUBCHEM_COMPONENT_COUNT>
1

> <PUBCHEM_CACTVS_TAUTO_COUNT>
2

> <PUBCHEM_CONFORMER_ID>
0001A52B00000001

> <PUBCHEM_MMFF94_ENERGY>
25.221

> <PUBCHEM_FEATURE_SELFOVERLAP>
25.371

> <PUBCHEM_SHAPE_FINGERPRINT>
10219947 1 18334853900923130287
11062470 55 17417813924257725085
11471102 20 18411983541915353116
12032990 46 18412541015970146739
12932764 1 17386019367929041325
14251717 144 18410012126199130119
14252887 29 18041267820659702415
14325111 11 18410574002331482720
15477762 27 18412543228126217622
18186145 218 17561088011956029949
200 152 18261115188008249737
20201158 50 18272086093307682883
20279233 1 17846774096489010987
20645477 70 18410295839212784199
20871998 22 18188202233953448574
21501502 16 18267016335713413912
21501925 9 18411426132791503674
22485316 2 18409451367079787559
23402539 116 18201449068287358815
23402655 69 18410295817647789749
23557571 272 17203618102721356085
25610 137 18410855460228726444
2871803 45 18343303699174730655
33824 294 18413390934163905250
4047638 21 9655575218890526148
449060 62 18335980870440574240
581208 293 18410858733183378746

> <PUBCHEM_SHAPE_MULTIPOLES>
230.23
7.98
1.43
0.59
8.33
0.12
0
-1.77
0.06
-0.72
0
-0.03
0
0

> <PUBCHEM_SHAPE_SELFOVERLAP>
467.938

> <PUBCHEM_SHAPE_VOLUME>
133.1

> <PUBCHEM_COORDINATE_TYPE>
2
5
10

$$$$

