442157
  -OEChem-07051212573D

 43 46  0     1  0  0  0  0  0999 V2000
   -1.9413   -3.4262    0.2707 O   0  0  0  0  0  0  0  0  0  0  0  0
    5.6217    0.7674   -0.3362 O   0  0  0  0  0  0  0  0  0  0  0  0
   -3.9849    3.3097    0.6463 O   0  0  0  0  0  0  0  0  0  0  0  0
    3.8451    2.7031    0.5617 O   0  0  0  0  0  0  0  0  0  0  0  0
   -0.2606   -1.8094    0.0990 N   0  0  0  0  0  0  0  0  0  0  0  0
   -4.9781   -0.6017    0.1615 N   0  0  0  0  0  0  0  0  0  0  0  0
    0.8071   -2.8146    0.1400 C   0  0  0  0  0  0  0  0  0  0  0  0
    0.0912   -0.4530    0.0434 C   0  0  0  0  0  0  0  0  0  0  0  0
    1.9660   -2.4588   -0.7810 C   0  0  0  0  0  0  0  0  0  0  0  0
    1.5397   -0.0980   -0.0254 C   0  0  0  0  0  0  0  0  0  0  0  0
    2.4620   -1.0811   -0.4388 C   0  0  0  0  0  0  0  0  0  0  0  0
   -2.2739    0.1366    0.0563 C   0  0  0  0  0  0  0  0  0  0  0  0
   -0.8603    0.4984    0.0055 C   0  0  0  0  0  0  0  0  0  0  0  0
   -1.5940   -2.2510    0.1768 C   0  0  0  0  0  0  0  0  0  0  0  0
   -2.6382   -1.2040    0.1427 C   0  0  0  0  0  0  0  0  0  0  0  0
   -3.2726    1.1095    0.0220 C   0  0  0  0  0  0  0  0  0  0  0  0
    3.8258   -0.7775   -0.5556 C   0  0  0  0  0  0  0  0  0  0  0  0
    2.0378    1.1693    0.3223 C   0  0  0  0  0  0  0  0  0  0  0  0
   -2.9881    2.5710   -0.0693 C   0  0  1  0  0  0  0  0  0  0  0  0
    4.2929    0.4911   -0.2259 C   0  0  0  0  0  0  0  0  0  0  0  0
    3.4011    1.4605    0.2204 C   0  0  0  0  0  0  0  0  0  0  0  0
   -3.9895   -1.5231    0.1928 C   0  0  0  0  0  0  0  0  0  0  0  0
   -4.5937    0.6913    0.0768 C   0  0  0  0  0  0  0  0  0  0  0  0
   -2.9493    3.0775   -1.5143 C   0  0  0  0  0  0  0  0  0  0  0  0
    6.4343    0.5132    0.8082 C   0  0  0  0  0  0  0  0  0  0  0  0
    0.4114   -3.7978   -0.1374 H   0  0  0  0  0  0  0  0  0  0  0  0
    1.1400   -2.8849    1.1839 H   0  0  0  0  0  0  0  0  0  0  0  0
    1.6457   -2.4696   -1.8297 H   0  0  0  0  0  0  0  0  0  0  0  0
    2.7625   -3.2019   -0.6605 H   0  0  0  0  0  0  0  0  0  0  0  0
   -0.5926    1.5396   -0.1037 H   0  0  0  0  0  0  0  0  0  0  0  0
    4.5249   -1.5376   -0.8967 H   0  0  0  0  0  0  0  0  0  0  0  0
    1.3778    1.9525    0.6877 H   0  0  0  0  0  0  0  0  0  0  0  0
   -2.0549    2.8282    0.4377 H   0  0  0  0  0  0  0  0  0  0  0  0
   -4.3368   -2.5491    0.2598 H   0  0  0  0  0  0  0  0  0  0  0  0
   -5.4237    1.3901    0.0401 H   0  0  0  0  0  0  0  0  0  0  0  0
   -3.9181    2.9359   -2.0071 H   0  0  0  0  0  0  0  0  0  0  0  0
   -2.1846    2.5599   -2.1018 H   0  0  0  0  0  0  0  0  0  0  0  0
   -2.7391    4.1522   -1.5374 H   0  0  0  0  0  0  0  0  0  0  0  0
   -3.7594    4.2531    0.5758 H   0  0  0  0  0  0  0  0  0  0  0  0
    4.8019    2.7472    0.3927 H   0  0  0  0  0  0  0  0  0  0  0  0
    6.4369   -0.5558    1.0439 H   0  0  0  0  0  0  0  0  0  0  0  0
    6.0816    1.0865    1.6713 H   0  0  0  0  0  0  0  0  0  0  0  0
    7.4573    0.8228    0.5774 H   0  0  0  0  0  0  0  0  0  0  0  0
  1 14  2  0  0  0  0
  2 20  1  0  0  0  0
  2 25  1  0  0  0  0
  3 19  1  0  0  0  0
  3 39  1  0  0  0  0
  4 21  1  0  0  0  0
  4 40  1  0  0  0  0
  5  7  1  0  0  0  0
  5  8  1  0  0  0  0
  5 14  1  0  0  0  0
  6 22  1  0  0  0  0
  6 23  2  0  0  0  0
  7  9  1  0  0  0  0
  7 26  1  0  0  0  0
  7 27  1  0  0  0  0
  8 10  1  0  0  0  0
  8 13  2  0  0  0  0
  9 11  1  0  0  0  0
  9 28  1  0  0  0  0
  9 29  1  0  0  0  0
 10 11  1  0  0  0  0
 10 18  2  0  0  0  0
 11 17  2  0  0  0  0
 12 13  1  0  0  0  0
 12 15  1  0  0  0  0
 12 16  2  0  0  0  0
 13 30  1  0  0  0  0
 14 15  1  0  0  0  0
 15 22  2  0  0  0  0
 16 19  1  0  0  0  0
 16 23  1  0  0  0  0
 17 20  1  0  0  0  0
 17 31  1  0  0  0  0
 18 21  1  0  0  0  0
 18 32  1  0  0  0  0
 19 24  1  0  0  0  0
 19 33  1  0  0  0  0
 20 21  2  0  0  0  0
 22 34  1  0  0  0  0
 23 35  1  0  0  0  0
 24 36  1  0  0  0  0
 24 37  1  0  0  0  0
 24 38  1  0  0  0  0
 25 41  1  0  0  0  0
 25 42  1  0  0  0  0
 25 43  1  0  0  0  0
M  END
> <PUBCHEM_COMPOUND_CID>
442157

> <PUBCHEM_CONFORMER_RMSD>
0.6

> <PUBCHEM_CONFORMER_DIVERSEORDER>
1
4
6
3
2
5

> <PUBCHEM_MMFF94_PARTIAL_CHARGES>
31
1 -0.57
10 0.03
11 -0.14
12 0.03
13 -0.18
14 0.54
15 0.09
16 -0.14
17 -0.15
18 -0.15
19 0.42
2 -0.36
20 0.08
21 0.08
22 0.16
23 0.16
25 0.28
3 -0.68
30 0.15
31 0.15
32 0.15
34 0.15
35 0.15
39 0.4
4 -0.53
40 0.45
5 -0.47
6 -0.62
7 0.3
8 0.08
9 0.14

> <PUBCHEM_EFFECTIVE_ROTOR_COUNT>
2.4

> <PUBCHEM_PHARMACOPHORE_FEATURES>
10
1 1 acceptor
1 2 acceptor
1 3 acceptor
1 3 donor
1 4 donor
1 6 acceptor
6 10 11 17 18 20 21 rings
6 5 7 8 9 10 11 rings
6 5 8 12 13 14 15 rings
6 6 12 15 16 22 23 rings

> <PUBCHEM_HEAVY_ATOM_COUNT>
25

> <PUBCHEM_ATOM_DEF_STEREO_COUNT>
1

> <PUBCHEM_ATOM_UDEF_STEREO_COUNT>
0

> <PUBCHEM_BOND_DEF_STEREO_COUNT>
0

> <PUBCHEM_BOND_UDEF_STEREO_COUNT>
0

> <PUBCHEM_ISOTOPIC_ATOM_COUNT>
0

> <PUBCHEM_COMPONENT_COUNT>
1

> <PUBCHEM_CACTVS_TAUTO_COUNT>
3

> <PUBCHEM_CONFORMER_ID>
0006BF2D00000001

> <PUBCHEM_MMFF94_ENERGY>
86.9765

> <PUBCHEM_FEATURE_SELFOVERLAP>
50.818

> <PUBCHEM_SHAPE_FINGERPRINT>
10319926 262 18338249180662297634
10411042 1 17762617287679711059
10608611 8 18410009952945541991
10646746 165 18411417328039987948
10670039 82 18200294573079272892
11370993 70 18410294726383179006
11578080 2 16986893451801779911
11595378 159 17632025207645179817
12107183 9 18055083318034409682
12173636 292 18412262869925432823
12236239 1 17489591117467013194
12390115 104 18262784285398685761
12403259 226 17973446494789468906
12403259 415 18269548515355617381
12403260 363 18339929216700991348
12596602 18 16486688057042730960
13140716 1 18052528873202414283
13402501 40 18335984185807271225
138480 1 17617939579030833055
14466204 15 18410580595865970264
14790565 3 18340199675630355060
15021287 119 17132117944679809804
15042514 8 18197494013747357763
15196674 1 18337951293866669822
20510252 161 18408038516271103289
20645477 56 18411696591071630833
20645477 70 17241034514043885910
21033648 29 18409177618343691016
21279426 13 18263921206740132518
21315764 268 18339369561125246672
21421861 104 17773325732728845530
221357 26 18259984872822389765
22393880 68 18264762328318258894
23227448 37 18335420123536435287
23402539 116 18337958878594311494
23559900 14 18262520286659694448
23566358 2 18261386814419365503
238 59 16977621395226077709
283562 15 18411702102258600235
335352 9 18409446960807417046
350125 39 18410853231251495524
3545911 37 18408318869696885922
4214541 1 18410292510343883376
5104073 3 18270394030970124683
633830 44 17972318692433627957
7808743 9 18412263921918054984
9709674 26 18335412478431669575
9981440 41 18342737425017291547

> <PUBCHEM_SHAPE_MULTIPOLES>
481.05
11.29
3.65
0.81
8.66
0.17
-0.14
5.74
1.08
-2.69
-0.17
0.03
0.28
1.05

> <PUBCHEM_SHAPE_SELFOVERLAP>
1069.512

> <PUBCHEM_SHAPE_VOLUME>
256.1

> <PUBCHEM_COORDINATE_TYPE>
2
5
10

$$$$

