13468
  -OEChem-06261214312D

 43 44  0     0  0  0  0  0  0999 V2000
    3.2200    0.0000    0.0000 Cl  0  5  0  0  0  0  0  0  0  0  0  0
    1.7427    3.5842    0.0000 N   0  3  0  0  0  0  0  0  0  0  0  0
    3.9748    8.7749    0.0000 C   0  0  0  0  0  0  0  0  0  0  0  0
    2.9747    8.7749    0.0000 C   0  0  0  0  0  0  0  0  0  0  0  0
    3.4747    6.5842    0.0000 C   0  0  0  0  0  0  0  0  0  0  0  0
    4.5982    7.9930    0.0000 C   0  0  0  0  0  0  0  0  0  0  0  0
    2.3513    7.9930    0.0000 C   0  0  0  0  0  0  0  0  0  0  0  0
    4.3757    7.0181    0.0000 C   0  0  0  0  0  0  0  0  0  0  0  0
    2.5738    7.0181    0.0000 C   0  0  0  0  0  0  0  0  0  0  0  0
    3.4747    5.5842    0.0000 C   0  0  0  0  0  0  0  0  0  0  0  0
    2.6087    5.0842    0.0000 C   0  0  0  0  0  0  0  0  0  0  0  0
    2.6087    4.0842    0.0000 C   0  0  0  0  0  0  0  0  0  0  0  0
    5.5887    8.3154    0.0000 C   0  0  0  0  0  0  0  0  0  0  0  0
    1.3608    8.3154    0.0000 C   0  0  0  0  0  0  0  0  0  0  0  0
    5.1283    6.2979    0.0000 C   0  0  0  0  0  0  0  0  0  0  0  0
    1.8212    6.2980    0.0000 C   0  0  0  0  0  0  0  0  0  0  0  0
    6.3578    7.6128    0.0000 C   0  0  0  0  0  0  0  0  0  0  0  0
    0.5917    7.6128    0.0000 C   0  0  0  0  0  0  0  0  0  0  0  0
    6.1259    6.5973    0.0000 C   0  0  0  0  0  0  0  0  0  0  0  0
    0.8235    6.5973    0.0000 C   0  0  0  0  0  0  0  0  0  0  0  0
    0.8766    3.0842    0.0000 C   0  0  0  0  0  0  0  0  0  0  0  0
    4.5334    9.0439    0.0000 H   0  0  0  0  0  0  0  0  0  0  0  0
    3.8368    9.3793    0.0000 H   0  0  0  0  0  0  0  0  0  0  0  0
    3.1127    9.3793    0.0000 H   0  0  0  0  0  0  0  0  0  0  0  0
    2.4162    9.0439    0.0000 H   0  0  0  0  0  0  0  0  0  0  0  0
    4.0117    5.2742    0.0000 H   0  0  0  0  0  0  0  0  0  0  0  0
    2.3966    5.6668    0.0000 H   0  0  0  0  0  0  0  0  0  0  0  0
    1.9981    4.9766    0.0000 H   0  0  0  0  0  0  0  0  0  0  0  0
    2.8207    3.5016    0.0000 H   0  0  0  0  0  0  0  0  0  0  0  0
    3.2193    4.1919    0.0000 H   0  0  0  0  0  0  0  0  0  0  0  0
    1.2298    8.9214    0.0000 H   0  0  0  0  0  0  0  0  0  0  0  0
    5.7197    8.9214    0.0000 H   0  0  0  0  0  0  0  0  0  0  0  0
    4.9833    5.6951    0.0000 H   0  0  0  0  0  0  0  0  0  0  0  0
    1.9662    5.6951    0.0000 H   0  0  0  0  0  0  0  0  0  0  0  0
    2.0527    3.0473    0.0000 H   0  0  0  0  0  0  0  0  0  0  0  0
    1.4327    4.1212    0.0000 H   0  0  0  0  0  0  0  0  0  0  0  0
    0.0000    7.7978    0.0000 H   0  0  0  0  0  0  0  0  0  0  0  0
    6.9495    7.7978    0.0000 H   0  0  0  0  0  0  0  0  0  0  0  0
    0.3707    6.1738    0.0000 H   0  0  0  0  0  0  0  0  0  0  0  0
    6.5788    6.1738    0.0000 H   0  0  0  0  0  0  0  0  0  0  0  0
    0.5666    3.6212    0.0000 H   0  0  0  0  0  0  0  0  0  0  0  0
    0.3397    2.7742    0.0000 H   0  0  0  0  0  0  0  0  0  0  0  0
    1.1866    2.5473    0.0000 H   0  0  0  0  0  0  0  0  0  0  0  0
  2 12  1  0  0  0  0
  2 21  1  0  0  0  0
  2 35  1  0  0  0  0
  2 36  1  0  0  0  0
  3  4  1  0  0  0  0
  3  6  1  0  0  0  0
  3 22  1  0  0  0  0
  3 23  1  0  0  0  0
  4  7  1  0  0  0  0
  4 24  1  0  0  0  0
  4 25  1  0  0  0  0
  5  8  1  0  0  0  0
  5  9  1  0  0  0  0
  5 10  2  0  0  0  0
  6  8  1  0  0  0  0
  6 13  2  0  0  0  0
  7  9  1  0  0  0  0
  7 14  2  0  0  0  0
  8 15  2  0  0  0  0
  9 16  2  0  0  0  0
 10 11  1  0  0  0  0
 10 26  1  0  0  0  0
 11 12  1  0  0  0  0
 11 27  1  0  0  0  0
 11 28  1  0  0  0  0
 12 29  1  0  0  0  0
 12 30  1  0  0  0  0
 13 17  1  0  0  0  0
 13 32  1  0  0  0  0
 14 18  1  0  0  0  0
 14 31  1  0  0  0  0
 15 19  1  0  0  0  0
 15 33  1  0  0  0  0
 16 20  1  0  0  0  0
 16 34  1  0  0  0  0
 17 19  2  0  0  0  0
 17 38  1  0  0  0  0
 18 20  2  0  0  0  0
 18 37  1  0  0  0  0
 19 40  1  0  0  0  0
 20 39  1  0  0  0  0
 21 41  1  0  0  0  0
 21 42  1  0  0  0  0
 21 43  1  0  0  0  0
M  CHG  2   1  -1   2   1
M  END
> <PUBCHEM_COMPOUND_CID>
13468

> <PUBCHEM_COMPOUND_CANONICALIZED>
1

> <PUBCHEM_CACTVS_COMPLEXITY>
307

> <PUBCHEM_CACTVS_HBOND_ACCEPTOR>
1

> <PUBCHEM_CACTVS_HBOND_DONOR>
1

> <PUBCHEM_CACTVS_ROTATABLE_BOND>
3

> <PUBCHEM_CACTVS_SUBSKEYS>
AAADceB6AAAEAAAAAAAAAAAAAAAAAAAAAAAwYAAABgAAAAABQAAAHAAQAAAADADBGAQyAILAAACAAiBCAAACAAAgAAAIiIAIAIgIICKAERCEIAAgkAAIiAcAgMAOgAAAAAAQAAAAAAAAACAAAAAAAAAAAA==

> <PUBCHEM_IUPAC_OPENEYE_NAME>
3-(5,6-dihydrodibenzo[2,1-b:2',1'-f][7]annulen-11-ylidene)propyl-methyl-ammonium chloride

> <PUBCHEM_IUPAC_CAS_NAME>
3-(5,6-dihydrodibenzo[2,1-b:2',1'-f][7]annulen-11-ylidene)propyl-methylammonium chloride

> <PUBCHEM_IUPAC_NAME>
3-(5,6-dihydrodibenzo[2,1-b:2',1'-f][7]annulen-11-ylidene)propyl-methylazanium chloride

> <PUBCHEM_IUPAC_SYSTEMATIC_NAME>
3-(5,6-dihydrodibenzo[2,1-b:2',1'-f][7]annulen-11-ylidene)propyl-methyl-azanium chloride

> <PUBCHEM_IUPAC_TRADITIONAL_NAME>
3-(5,6-dihydrodibenzo[2,1-b:2',1'-f]cyclohepten-11-ylidene)propyl-methyl-ammonium chloride

> <PUBCHEM_IUPAC_INCHI>
InChI=1S/C19H21N.ClH/c1-20-14-6-11-19-17-9-4-2-7-15(17)12-13-16-8-3-5-10-18(16)19;/h2-5,7-11,20H,6,12-14H2,1H3;1H

> <PUBCHEM_IUPAC_INCHIKEY>
SHAYBENGXDALFF-UHFFFAOYSA-N

> <PUBCHEM_EXACT_MASS>
299.144077

> <PUBCHEM_MOLECULAR_FORMULA>
C19H22ClN

> <PUBCHEM_MOLECULAR_WEIGHT>
299.83768

> <PUBCHEM_OPENEYE_CAN_SMILES>
C[NH2+]CCC=C1C2=CC=CC=C2CCC3=CC=CC=C31.[Cl-]

> <PUBCHEM_OPENEYE_ISO_SMILES>
C[NH2+]CCC=C1C2=CC=CC=C2CCC3=CC=CC=C31.[Cl-]

> <PUBCHEM_CACTVS_TPSA>
16.6

> <PUBCHEM_MONOISOTOPIC_WEIGHT>
299.144077

> <PUBCHEM_TOTAL_CHARGE>
0

> <PUBCHEM_HEAVY_ATOM_COUNT>
21

> <PUBCHEM_ATOM_DEF_STEREO_COUNT>
0

> <PUBCHEM_ATOM_UDEF_STEREO_COUNT>
0

> <PUBCHEM_BOND_DEF_STEREO_COUNT>
0

> <PUBCHEM_BOND_UDEF_STEREO_COUNT>
0

> <PUBCHEM_ISOTOPIC_ATOM_COUNT>
0

> <PUBCHEM_COMPONENT_COUNT>
2

> <PUBCHEM_CACTVS_TAUTO_COUNT>
1

> <PUBCHEM_COORDINATE_TYPE>
1
5
255

> <PUBCHEM_BONDANNOTATIONS>
13  17  8
14  18  8
15  19  8
16  20  8
17  19  8
18  20  8
6  13  8
6  8  8
7  14  8
7  9  8
8  15  8
9  16  8

$$$$

