17395494
  -OEChem-06241222503D

 40 42  0     1  0  0  0  0  0999 V2000
   -0.8317   -1.2726   -1.8207 S   0  0  0  0  0  0  0  0  0  0  0  0
    3.9783    1.0504   -1.3126 S   0  0  0  0  0  0  0  0  0  0  0  0
    0.9295   -2.1266    0.4491 O   0  0  0  0  0  0  0  0  0  0  0  0
   -1.7791    0.6722   -0.1512 N   0  0  0  0  0  0  0  0  0  0  0  0
    2.7720    0.6218    0.9332 N   0  0  0  0  0  0  0  0  0  0  0  0
    0.1752    1.1238   -1.0254 N   0  0  0  0  0  0  0  0  0  0  0  0
   -0.1896    2.1749   -0.2079 N   0  0  0  0  0  0  0  0  0  0  0  0
    4.3208   -2.8832    1.3382 N   0  0  0  0  0  0  0  0  0  0  0  0
   -2.9708    0.0515    0.1838 C   0  0  0  0  0  0  0  0  0  0  0  0
   -4.1969    0.6558   -0.0942 C   0  0  0  0  0  0  0  0  0  0  0  0
    3.0544   -1.4370   -0.4638 C   0  0  1  0  0  0  0  0  0  0  0  0
   -0.7899    0.2336   -0.9781 C   0  0  0  0  0  0  0  0  0  0  0  0
    0.9370   -1.6721   -1.9266 C   0  0  0  0  0  0  0  0  0  0  0  0
    1.5700   -1.7933   -0.5492 C   0  0  0  0  0  0  0  0  0  0  0  0
    3.2020    0.0391   -0.1640 C   0  0  0  0  0  0  0  0  0  0  0  0
   -2.9334   -1.1955    0.8078 C   0  0  0  0  0  0  0  0  0  0  0  0
   -5.3855    0.0129    0.2518 C   0  0  0  0  0  0  0  0  0  0  0  0
   -4.2725    1.9919   -0.7611 C   0  0  0  0  0  0  0  0  0  0  0  0
   -1.3635    1.8857    0.3066 C   0  0  0  0  0  0  0  0  0  0  0  0
   -4.1221   -1.8383    1.1537 C   0  0  0  0  0  0  0  0  0  0  0  0
   -5.3480   -1.2341    0.8758 C   0  0  0  0  0  0  0  0  0  0  0  0
    3.0740    1.9682    0.8713 C   0  0  0  0  0  0  0  0  0  0  0  0
    3.7270    2.3877   -0.2688 C   0  0  0  0  0  0  0  0  0  0  0  0
    3.7617   -2.2446    0.5467 C   0  0  0  0  0  0  0  0  0  0  0  0
    2.6814    2.8278    2.0056 C   0  0  0  0  0  0  0  0  0  0  0  0
    3.4985   -1.6824   -1.4375 H   0  0  0  0  0  0  0  0  0  0  0  0
    1.4386   -0.8917   -2.5060 H   0  0  0  0  0  0  0  0  0  0  0  0
    1.0636   -2.6260   -2.4464 H   0  0  0  0  0  0  0  0  0  0  0  0
   -1.9909   -1.6779    1.0552 H   0  0  0  0  0  0  0  0  0  0  0  0
   -6.3491    0.4708    0.0447 H   0  0  0  0  0  0  0  0  0  0  0  0
   -3.5778    2.0644   -1.6043 H   0  0  0  0  0  0  0  0  0  0  0  0
   -5.2711    2.1664   -1.1788 H   0  0  0  0  0  0  0  0  0  0  0  0
   -4.0754    2.7948   -0.0445 H   0  0  0  0  0  0  0  0  0  0  0  0
   -1.9171    2.4982    1.0051 H   0  0  0  0  0  0  0  0  0  0  0  0
   -4.0930   -2.8069    1.6441 H   0  0  0  0  0  0  0  0  0  0  0  0
   -6.2734   -1.7340    1.1467 H   0  0  0  0  0  0  0  0  0  0  0  0
    4.0588    3.3817   -0.5332 H   0  0  0  0  0  0  0  0  0  0  0  0
    2.4507    3.8445    1.6715 H   0  0  0  0  0  0  0  0  0  0  0  0
    1.7920    2.4309    2.5055 H   0  0  0  0  0  0  0  0  0  0  0  0
    3.4916    2.8810    2.7394 H   0  0  0  0  0  0  0  0  0  0  0  0
  1 12  1  0  0  0  0
  1 13  1  0  0  0  0
  2 15  1  0  0  0  0
  2 23  1  0  0  0  0
  3 14  2  0  0  0  0
  4  9  1  0  0  0  0
  4 12  1  0  0  0  0
  4 19  1  0  0  0  0
  5 15  2  0  0  0  0
  5 22  1  0  0  0  0
  6  7  1  0  0  0  0
  6 12  2  0  0  0  0
  7 19  2  0  0  0  0
  8 24  3  0  0  0  0
  9 10  1  0  0  0  0
  9 16  2  0  0  0  0
 10 17  2  0  0  0  0
 10 18  1  0  0  0  0
 11 14  1  0  0  0  0
 11 15  1  0  0  0  0
 11 24  1  0  0  0  0
 11 26  1  0  0  0  0
 13 14  1  0  0  0  0
 13 27  1  0  0  0  0
 13 28  1  0  0  0  0
 16 20  1  0  0  0  0
 16 29  1  0  0  0  0
 17 21  1  0  0  0  0
 17 30  1  0  0  0  0
 18 31  1  0  0  0  0
 18 32  1  0  0  0  0
 18 33  1  0  0  0  0
 19 34  1  0  0  0  0
 20 21  2  0  0  0  0
 20 35  1  0  0  0  0
 21 36  1  0  0  0  0
 22 23  2  0  0  0  0
 22 25  1  0  0  0  0
 23 37  1  0  0  0  0
 25 38  1  0  0  0  0
 25 39  1  0  0  0  0
 25 40  1  0  0  0  0
M  END
> <PUBCHEM_COMPOUND_CID>
17395494

> <PUBCHEM_CONFORMER_RMSD>
1.2

> <PUBCHEM_CONFORMER_DIVERSEORDER>
1
149
226
106
104
97
3
41
221
205
267
156
14
44
185
103
189
24
88
127
170
203
265
238
85
10
269
249
153
9
259
243
214
197
60
49
33
201
23
247
236
117
183
122
171
146
139
232
21
107
158
231
159
76
120
165
46
54
147
207
218
63
157
101
43
175
168
266
142
31
89
200
177
39
244
75
18
138
133
69
91
5
172
198
6
239
26
124
110
129
87
121
123
112
173
15
109
62
58
82
19
95
275
194
105
114
86
20
66
223
131
219
178
36
61
38
155
204
74
100
98
17
224
206
174
193
151
53
255
68
144
48
169
199
119
182
12
167
125
81
71
195
25
227
8
217
166
264
237
230
55
115
84
225
262
180
78
234
186
209
188
108
251
51
40
208
190
248
212
77
2
222
28
27
126
250
192
134
245
32
179
13
128
50
47
258
252
254
11
163
132
229
30
56
45
215
272
140
154
37
135
148
92
35
274
22
90
65
42
141
256
4
150
160
79
257
202
83
246
233
145
102
228
181
268
16
136
196
261
67
211
93
73
240
242
137
184
210
57
34
260
220
162
116
29
64
70
271
152
273
52
253
94
143
80
96
111
263
72
7
113
164
99
191
130
213
270
118
161
176
216
235
59
187
241

> <PUBCHEM_MMFF94_PARTIAL_CHARGES>
31
1 -0.29
10 -0.14
11 0.44
12 0.24
13 0.29
14 0.45
15 0.2
16 -0.15
17 -0.15
18 0.14
19 0.04
2 -0.08
20 -0.15
21 -0.15
22 0.05
23 -0.11
24 0.36
25 0.18
29 0.15
3 -0.57
30 0.15
34 0.15
35 0.15
36 0.15
37 0.15
4 0.33
5 -0.57
6 -0.34
7 -0.34
8 -0.56
9 -0.02

> <PUBCHEM_EFFECTIVE_ROTOR_COUNT>
6

> <PUBCHEM_PHARMACOPHORE_FEATURES>
8
1 3 acceptor
1 5 acceptor
1 8 acceptor
3 4 6 12 cation
3 4 7 19 cation
5 2 5 15 22 23 rings
5 4 6 7 12 19 rings
6 9 10 16 17 20 21 rings

> <PUBCHEM_HEAVY_ATOM_COUNT>
25

> <PUBCHEM_ATOM_DEF_STEREO_COUNT>
0

> <PUBCHEM_ATOM_UDEF_STEREO_COUNT>
1

> <PUBCHEM_BOND_DEF_STEREO_COUNT>
0

> <PUBCHEM_BOND_UDEF_STEREO_COUNT>
0

> <PUBCHEM_ISOTOPIC_ATOM_COUNT>
0

> <PUBCHEM_COMPONENT_COUNT>
1

> <PUBCHEM_CACTVS_TAUTO_COUNT>
5

> <PUBCHEM_CONFORMER_ID>
01096F2600000001

> <PUBCHEM_MMFF94_ENERGY>
58.9051

> <PUBCHEM_FEATURE_SELFOVERLAP>
43.097

> <PUBCHEM_SHAPE_FINGERPRINT>
10366900 7 18336815455220569602
11045977 3 18341612659044812551
11405975 8 18341893060411327849
11578080 2 17489318541477905045
12616971 3 17967822664891706975
12633257 1 18193266618780844811
13224815 77 18261105292435216005
13533116 47 18410293610266610771
13583140 156 18335707104993691021
14223421 5 18409725200982741661
14341114 176 18341610485954858594
146900 427 18041268881864570057
14787075 74 18268986488646175631
14790565 3 17764300648529183220
1813 80 16272207466684925623
20465049 17 18261376820790129732
20626108 58 16557896806998606731
20681677 274 18272373117656563442
21033648 29 17967540034485027969
23559900 14 18200876282879915703
3286 77 18201157771206089526
350125 39 18413669123975450374
392239 28 18341607131469492843
44154327 71 18335416829507405412
469060 322 17911541808217839767
49207404 50 18408886209112249465
5104073 3 18411411843678111385
5283173 99 18201162173895897061
6442390 28 18195802969301035218
9709674 26 18192145108742126071

> <PUBCHEM_SHAPE_MULTIPOLES>
491.41
10.69
3.24
1.56
8.14
0.15
0.11
-0.48
-2.85
-3.18
-0.9
-0.72
-0.2
0.8

> <PUBCHEM_SHAPE_SELFOVERLAP>
1029.701

> <PUBCHEM_SHAPE_VOLUME>
280.4

> <PUBCHEM_COORDINATE_TYPE>
2
5
10

$$$$

