440126
  -OEChem-07051212482D

 16 15  0     1  0  0  0  0  0999 V2000
    6.0010   -0.0950    0.0000 S   0  0  0  0  0  0  0  0  0  0  0  0
    4.2690   -1.0950    0.0000 O   0  0  0  0  0  0  0  0  0  0  0  0
    2.5369   -0.0950    0.0000 O   0  0  0  0  0  0  0  0  0  0  0  0
    5.1350    1.4050    0.0000 O   0  0  0  0  0  0  0  0  0  0  0  0
    4.2690   -0.0950    0.0000 C   0  0  2  0  0  0  0  0  0  0  0  0
    3.4030    0.4050    0.0000 C   0  0  0  0  0  0  0  0  0  0  0  0
    5.1350    0.4050    0.0000 C   0  0  0  0  0  0  0  0  0  0  0  0
    6.8671    0.4050    0.0000 C   0  0  0  0  0  0  0  0  0  0  0  0
    4.8059   -0.4050    0.0000 H   0  0  0  0  0  0  0  0  0  0  0  0
    3.8015    0.8799    0.0000 H   0  0  0  0  0  0  0  0  0  0  0  0
    3.0044    0.8799    0.0000 H   0  0  0  0  0  0  0  0  0  0  0  0
    3.7320   -1.4050    0.0000 H   0  0  0  0  0  0  0  0  0  0  0  0
    2.0000    0.2150    0.0000 H   0  0  0  0  0  0  0  0  0  0  0  0
    7.1771   -0.1319    0.0000 H   0  0  0  0  0  0  0  0  0  0  0  0
    7.4040    0.7150    0.0000 H   0  0  0  0  0  0  0  0  0  0  0  0
    6.5571    0.9419    0.0000 H   0  0  0  0  0  0  0  0  0  0  0  0
  1  7  1  0  0  0  0
  1  8  1  0  0  0  0
  5  2  1  6  0  0  0
  2 12  1  0  0  0  0
  3  6  1  0  0  0  0
  3 13  1  0  0  0  0
  4  7  2  0  0  0  0
  5  6  1  0  0  0  0
  5  7  1  0  0  0  0
  5  9  1  0  0  0  0
  6 10  1  0  0  0  0
  6 11  1  0  0  0  0
  8 14  1  0  0  0  0
  8 15  1  0  0  0  0
  8 16  1  0  0  0  0
M  END
> <PUBCHEM_COMPOUND_CID>
440126

> <PUBCHEM_COMPOUND_CANONICALIZED>
1

> <PUBCHEM_CACTVS_COMPLEXITY>
83.4

> <PUBCHEM_CACTVS_HBOND_ACCEPTOR>
4

> <PUBCHEM_CACTVS_HBOND_DONOR>
2

> <PUBCHEM_CACTVS_ROTATABLE_BOND>
3

> <PUBCHEM_CACTVS_SUBSKEYS>
AAADccBgMABAAAAAAAAAAAAAAAAAAAAAAAAAAAAAAAAAAAAAAAAAGgQACAAACBSgwAKCAAAAAggIAAAQAAIAAAAAABAAAAFAAAABEAQgAAAAQAAAIAABAAAAAAAAAAAAAAAAAAAAAAAAAAAAAAAAAAAAAA==

> <PUBCHEM_IUPAC_OPENEYE_NAME>
S-methyl (2R)-2,3-dihydroxypropanethioate

> <PUBCHEM_IUPAC_CAS_NAME>
(2R)-2,3-dihydroxypropanethioic acid S-methyl ester

> <PUBCHEM_IUPAC_NAME>
S-methyl (2R)-2,3-dihydroxypropanethioate

> <PUBCHEM_IUPAC_SYSTEMATIC_NAME>
S-methyl (2R)-2,3-bis(oxidanyl)propanethioate

> <PUBCHEM_IUPAC_TRADITIONAL_NAME>
(2R)-2,3-dihydroxypropanethioic acid S-methyl ester

> <PUBCHEM_IUPAC_INCHI>
InChI=1S/C4H8O3S/c1-8-4(7)3(6)2-5/h3,5-6H,2H2,1H3/t3-/m1/s1

> <PUBCHEM_IUPAC_INCHIKEY>
OKHCZJYTWZIFMC-GSVOUGTGSA-N

> <PUBCHEM_XLOGP3_AA>
-0.6

> <PUBCHEM_EXACT_MASS>
136.019415

> <PUBCHEM_MOLECULAR_FORMULA>
C4H8O3S

> <PUBCHEM_MOLECULAR_WEIGHT>
136.16952

> <PUBCHEM_OPENEYE_CAN_SMILES>
CSC(=O)C(CO)O

> <PUBCHEM_OPENEYE_ISO_SMILES>
CSC(=O)[C@@H](CO)O

> <PUBCHEM_CACTVS_TPSA>
82.8

> <PUBCHEM_MONOISOTOPIC_WEIGHT>
136.019415

> <PUBCHEM_TOTAL_CHARGE>
0

> <PUBCHEM_HEAVY_ATOM_COUNT>
8

> <PUBCHEM_ATOM_DEF_STEREO_COUNT>
1

> <PUBCHEM_ATOM_UDEF_STEREO_COUNT>
0

> <PUBCHEM_BOND_DEF_STEREO_COUNT>
0

> <PUBCHEM_BOND_UDEF_STEREO_COUNT>
0

> <PUBCHEM_ISOTOPIC_ATOM_COUNT>
0

> <PUBCHEM_COMPONENT_COUNT>
1

> <PUBCHEM_CACTVS_TAUTO_COUNT>
1

> <PUBCHEM_COORDINATE_TYPE>
1
5
255

> <PUBCHEM_BONDANNOTATIONS>
5  2  6

$$$$

