442392
  -OEChem-07051212583D

 39 40  0     1  0  0  0  0  0999 V2000
   -3.4252    0.7543    0.9450 O   0  0  0  0  0  0  0  0  0  0  0  0
   -4.0062   -0.9528   -0.4817 O   0  0  0  0  0  0  0  0  0  0  0  0
    0.6591    0.1259    0.5933 C   0  0  2  0  0  0  0  0  0  0  0  0
    1.0739   -1.0485   -0.3355 C   0  0  1  0  0  0  0  0  0  0  0  0
   -0.7896    0.6074    0.2841 C   0  0  1  0  0  0  0  0  0  0  0  0
    2.4917   -1.5672   -0.0648 C   0  0  0  0  0  0  0  0  0  0  0  0
   -0.8004    1.5692   -0.9169 C   0  0  0  0  0  0  0  0  0  0  0  0
    0.0800   -2.2204   -0.2087 C   0  0  0  0  0  0  0  0  0  0  0  0
   -1.7399   -0.5385    0.0576 C   0  0  0  0  0  0  0  0  0  0  0  0
    1.6458    1.2700    0.5441 C   0  0  0  0  0  0  0  0  0  0  0  0
    0.0824    2.7926   -0.6650 C   0  0  0  0  0  0  0  0  0  0  0  0
   -1.3573   -1.8045   -0.1536 C   0  0  0  0  0  0  0  0  0  0  0  0
    1.3955    2.4707   -0.0043 C   0  0  0  0  0  0  0  0  0  0  0  0
    2.5914   -2.1234    1.3511 C   0  0  0  0  0  0  0  0  0  0  0  0
    2.8736   -2.6272   -1.0922 C   0  0  0  0  0  0  0  0  0  0  0  0
   -3.1834   -0.2852    0.1280 C   0  0  0  0  0  0  0  0  0  0  0  0
    2.4087    3.5776    0.0195 C   0  0  0  0  0  0  0  0  0  0  0  0
    0.6330   -0.2290    1.6319 H   0  0  0  0  0  0  0  0  0  0  0  0
    1.0410   -0.6868   -1.3735 H   0  0  0  0  0  0  0  0  0  0  0  0
   -1.1124    1.1722    1.1706 H   0  0  0  0  0  0  0  0  0  0  0  0
    3.2126   -0.7490   -0.1732 H   0  0  0  0  0  0  0  0  0  0  0  0
   -1.8190    1.9129   -1.1357 H   0  0  0  0  0  0  0  0  0  0  0  0
   -0.4528    1.0518   -1.8207 H   0  0  0  0  0  0  0  0  0  0  0  0
    0.2405   -2.8283    0.6842 H   0  0  0  0  0  0  0  0  0  0  0  0
    0.1893   -2.8849   -1.0739 H   0  0  0  0  0  0  0  0  0  0  0  0
    2.6077    1.1027    1.0229 H   0  0  0  0  0  0  0  0  0  0  0  0
   -0.4595    3.5024   -0.0275 H   0  0  0  0  0  0  0  0  0  0  0  0
    0.2601    3.2945   -1.6237 H   0  0  0  0  0  0  0  0  0  0  0  0
   -2.0881   -2.6007   -0.2710 H   0  0  0  0  0  0  0  0  0  0  0  0
    3.6445   -2.3462    1.5662 H   0  0  0  0  0  0  0  0  0  0  0  0
    2.2756   -1.4181    2.1223 H   0  0  0  0  0  0  0  0  0  0  0  0
    2.0629   -3.0693    1.4949 H   0  0  0  0  0  0  0  0  0  0  0  0
    2.3205   -3.5627   -0.9622 H   0  0  0  0  0  0  0  0  0  0  0  0
    3.9373   -2.8741   -0.9966 H   0  0  0  0  0  0  0  0  0  0  0  0
    2.7130   -2.2674   -2.1140 H   0  0  0  0  0  0  0  0  0  0  0  0
    3.3319    3.2831    0.5296 H   0  0  0  0  0  0  0  0  0  0  0  0
    2.0037    4.4507    0.5414 H   0  0  0  0  0  0  0  0  0  0  0  0
    2.6719    3.8734   -1.0011 H   0  0  0  0  0  0  0  0  0  0  0  0
   -4.3830    0.9532    1.0181 H   0  0  0  0  0  0  0  0  0  0  0  0
  1 16  1  0  0  0  0
  1 39  1  0  0  0  0
  2 16  2  0  0  0  0
  3  4  1  0  0  0  0
  3  5  1  0  0  0  0
  3 10  1  0  0  0  0
  3 18  1  0  0  0  0
  4  6  1  0  0  0  0
  4  8  1  0  0  0  0
  4 19  1  0  0  0  0
  5  7  1  0  0  0  0
  5  9  1  0  0  0  0
  5 20  1  0  0  0  0
  6 14  1  0  0  0  0
  6 15  1  0  0  0  0
  6 21  1  0  0  0  0
  7 11  1  0  0  0  0
  7 22  1  0  0  0  0
  7 23  1  0  0  0  0
  8 12  1  0  0  0  0
  8 24  1  0  0  0  0
  8 25  1  0  0  0  0
  9 12  2  0  0  0  0
  9 16  1  0  0  0  0
 10 13  2  0  0  0  0
 10 26  1  0  0  0  0
 11 13  1  0  0  0  0
 11 27  1  0  0  0  0
 11 28  1  0  0  0  0
 12 29  1  0  0  0  0
 13 17  1  0  0  0  0
 14 30  1  0  0  0  0
 14 31  1  0  0  0  0
 14 32  1  0  0  0  0
 15 33  1  0  0  0  0
 15 34  1  0  0  0  0
 15 35  1  0  0  0  0
 17 36  1  0  0  0  0
 17 37  1  0  0  0  0
 17 38  1  0  0  0  0
M  END
> <PUBCHEM_COMPOUND_CID>
442392

> <PUBCHEM_CONFORMER_RMSD>
0.6

> <PUBCHEM_CONFORMER_DIVERSEORDER>
1
2

> <PUBCHEM_MMFF94_PARTIAL_CHARGES>
15
1 -0.65
10 -0.29
11 0.14
12 -0.29
13 -0.28
16 0.71
17 0.14
2 -0.57
26 0.15
29 0.15
3 0.14
39 0.5
5 0.14
8 0.14
9 -0.12

> <PUBCHEM_EFFECTIVE_ROTOR_COUNT>
2.8

> <PUBCHEM_PHARMACOPHORE_FEATURES>
6
1 1 acceptor
1 2 acceptor
3 1 2 16 anion
3 6 14 15 hydrophobe
6 3 4 5 8 9 12 rings
6 3 5 7 10 11 13 rings

> <PUBCHEM_HEAVY_ATOM_COUNT>
17

> <PUBCHEM_ATOM_DEF_STEREO_COUNT>
3

> <PUBCHEM_ATOM_UDEF_STEREO_COUNT>
0

> <PUBCHEM_BOND_DEF_STEREO_COUNT>
0

> <PUBCHEM_BOND_UDEF_STEREO_COUNT>
0

> <PUBCHEM_ISOTOPIC_ATOM_COUNT>
0

> <PUBCHEM_COMPONENT_COUNT>
1

> <PUBCHEM_CACTVS_TAUTO_COUNT>
1

> <PUBCHEM_CONFORMER_ID>
0006C01800000001

> <PUBCHEM_MMFF94_ENERGY>
31.1015

> <PUBCHEM_FEATURE_SELFOVERLAP>
30.53

> <PUBCHEM_SHAPE_FINGERPRINT>
10382601 240 18271525282390510416
10967382 1 18339082566603247060
10989021 7 18409732884810992359
11132069 177 18117844527868329779
11578080 2 17130732606771889996
11680986 33 18268421344085947859
12035758 1 17980491370953399721
12138202 78 18412270531767429837
12423570 1 18194709023354444985
12553582 1 18268427021932616307
12644460 14 18341885256244585867
12716301 132 17767428020217004009
13140716 1 18123758547711396792
13380535 76 18052544261801047907
14181834 199 18340773645688778991
14790565 3 17472404930408220188
14817 1 8672032814986256554
15309172 13 17837773331064046369
15490181 8 17836925598998085714
16945 1 18337951182028487737
17357779 13 18120956128721212925
193761 8 18122060905726244271
19868273 325 18195522816730912798
20097449 115 18339928241521934074
20388701 513 18122356936705758986
20510252 161 17977383064482142914
20645476 183 17265247671057997876
20645477 70 18338806624299151631
20671657 1 18337666412811796108
21029758 27 18267568273059510278
21339142 36 18050851310051902718
21524375 3 17835808495194925224
21731228 192 17691681186695045088
22182313 1 18268165312305549140
2334 1 18339366386917158808
23419403 2 17772221745038031406
23557571 272 18046897454102961998
23598294 1 17838052967826084938
23728640 28 17257376241761041544
2748010 2 18122082032928537328
298252 57 17693942890898701688
305870 269 18124033420964579492
3071541 12 18337101285341747064
3071541 250 18338504335272270326
3091708 16 8998704969255374922
352729 6 17475792048637586939
4175511 71 18265039400705246139
43471831 8 17979921505774953722
559249 180 17835805193320629652
5939293 188 18337391642268465425
6138700 20 18338791222883940956
7364860 26 18335980857302295840
81228 2 17905039609936214458
81539 233 18055924194693651125
90316 7 18051986010357466370
90525 40 17692533308148438444

> <PUBCHEM_SHAPE_MULTIPOLES>
338.11
4.81
4
0.97
3.56
2.65
-0.05
-2.07
-0.3
-3.72
0.56
-0.33
-0.24
0.08

> <PUBCHEM_SHAPE_SELFOVERLAP>
700.419

> <PUBCHEM_SHAPE_VOLUME>
191

> <PUBCHEM_COORDINATE_TYPE>
2
5
10

$$$$

