22295962
  -OEChem-07051213083D

 78 81  0     1  0  0  0  0  0999 V2000
    0.1222    0.6843    1.1210 O   0  0  0  0  0  0  0  0  0  0  0  0
    5.5519    3.2334   -1.5426 O   0  0  0  0  0  0  0  0  0  0  0  0
    6.9184    1.7935    0.3864 O   0  0  0  0  0  0  0  0  0  0  0  0
    4.7873   -1.9925    2.4013 O   0  0  0  0  0  0  0  0  0  0  0  0
   -5.1083   -2.0267   -1.5279 O   0  0  0  0  0  0  0  0  0  0  0  0
   -6.5054    2.3661   -0.8804 O   0  0  0  0  0  0  0  0  0  0  0  0
   -8.1749    0.9434    2.0448 O   0  0  0  0  0  0  0  0  0  0  0  0
   -0.2440   -1.0221   -0.5931 C   0  0  1  0  0  0  0  0  0  0  0  0
    0.4254   -0.6838    0.7648 C   0  0  1  0  0  0  0  0  0  0  0  0
   -1.7428   -0.9015   -0.2136 C   0  0  2  0  0  0  0  0  0  0  0  0
    2.5493    0.0809   -0.4556 C   0  0  2  0  0  0  0  0  0  0  0  0
    4.0932   -0.1857   -0.6603 C   0  0  2  0  0  0  0  0  0  0  0  0
    1.9348   -0.7572    0.6765 C   0  0  0  0  0  0  0  0  0  0  0  0
    0.2189    0.0067   -1.6384 C   0  0  0  0  0  0  0  0  0  0  0  0
   -0.3747   -1.5524    1.7473 C   0  0  0  0  0  0  0  0  0  0  0  0
    1.7482   -0.0124   -1.7913 C   0  0  0  0  0  0  0  0  0  0  0  0
   -1.8170   -1.5303    1.1968 C   0  0  0  0  0  0  0  0  0  0  0  0
    4.8050   -0.2776    0.7176 C   0  0  1  0  0  0  0  0  0  0  0  0
   -2.7427   -1.5132   -1.1862 C   0  0  1  0  0  0  0  0  0  0  0  0
    0.0855   -2.4567   -1.0894 C   0  0  0  0  0  0  0  0  0  0  0  0
    4.7645    0.9482   -1.4876 C   0  0  0  0  0  0  0  0  0  0  0  0
    2.6642   -1.4245    1.5830 C   0  0  0  0  0  0  0  0  0  0  0  0
    4.8853    1.0689    1.4597 C   0  0  0  0  0  0  0  0  0  0  0  0
    4.3474   -1.5145   -1.4231 C   0  0  0  0  0  0  0  0  0  0  0  0
    4.1393   -1.3077    1.6110 C   0  0  0  0  0  0  0  0  0  0  0  0
    4.8453    2.2858   -0.7450 C   0  0  1  0  0  0  0  0  0  0  0  0
    5.5509    2.1462    0.6040 C   0  0  2  0  0  0  0  0  0  0  0  0
   -4.1914   -1.3709   -0.6538 C   0  0  1  0  0  0  0  0  0  0  0  0
   -2.5482   -0.8956   -2.5777 C   0  0  0  0  0  0  0  0  0  0  0  0
   -4.6277    0.0888   -0.4427 C   0  0  0  0  0  0  0  0  0  0  0  0
   -6.0692    0.1819    0.0879 C   0  0  0  0  0  0  0  0  0  0  0  0
   -6.5664    1.6242    0.3408 C   0  0  2  0  0  0  0  0  0  0  0  0
   -8.0331    1.6161    0.8033 C   0  0  0  0  0  0  0  0  0  0  0  0
   -5.6913    2.3567    1.3623 C   0  0  0  0  0  0  0  0  0  0  0  0
   -1.9604    0.1695   -0.1128 H   0  0  0  0  0  0  0  0  0  0  0  0
    2.4274    1.1185   -0.1179 H   0  0  0  0  0  0  0  0  0  0  0  0
   -0.0996    1.0192   -1.3615 H   0  0  0  0  0  0  0  0  0  0  0  0
   -0.1799   -0.1762   -2.6350 H   0  0  0  0  0  0  0  0  0  0  0  0
   -0.0112   -2.5860    1.7707 H   0  0  0  0  0  0  0  0  0  0  0  0
   -0.3540   -1.1643    2.7716 H   0  0  0  0  0  0  0  0  0  0  0  0
    2.0329    0.8211   -2.4441 H   0  0  0  0  0  0  0  0  0  0  0  0
    2.0094   -0.9241   -2.3364 H   0  0  0  0  0  0  0  0  0  0  0  0
   -2.4688   -0.9361    1.8472 H   0  0  0  0  0  0  0  0  0  0  0  0
   -2.2095   -2.5533    1.1808 H   0  0  0  0  0  0  0  0  0  0  0  0
    5.8315   -0.6355    0.5520 H   0  0  0  0  0  0  0  0  0  0  0  0
   -2.5642   -2.5909   -1.2944 H   0  0  0  0  0  0  0  0  0  0  0  0
    1.1611   -2.6581   -1.0879 H   0  0  0  0  0  0  0  0  0  0  0  0
   -0.3730   -3.2295   -0.4637 H   0  0  0  0  0  0  0  0  0  0  0  0
   -0.2593   -2.6247   -2.1135 H   0  0  0  0  0  0  0  0  0  0  0  0
    5.7834    0.6451   -1.7692 H   0  0  0  0  0  0  0  0  0  0  0  0
    4.2519    1.0938   -2.4458 H   0  0  0  0  0  0  0  0  0  0  0  0
    2.2146   -2.0022    2.3821 H   0  0  0  0  0  0  0  0  0  0  0  0
    3.8869    1.4053    1.7642 H   0  0  0  0  0  0  0  0  0  0  0  0
    5.4595    0.9271    2.3844 H   0  0  0  0  0  0  0  0  0  0  0  0
    5.4091   -1.7872   -1.3948 H   0  0  0  0  0  0  0  0  0  0  0  0
    3.7835   -2.3507   -0.9984 H   0  0  0  0  0  0  0  0  0  0  0  0
    4.0812   -1.4319   -2.4821 H   0  0  0  0  0  0  0  0  0  0  0  0
    3.8414    2.6934   -0.5875 H   0  0  0  0  0  0  0  0  0  0  0  0
    0.4936    0.8513    2.0045 H   0  0  0  0  0  0  0  0  0  0  0  0
    5.5514    3.1095    1.1260 H   0  0  0  0  0  0  0  0  0  0  0  0
   -4.2796   -1.8930    0.3058 H   0  0  0  0  0  0  0  0  0  0  0  0
   -3.4328   -1.0762   -3.1998 H   0  0  0  0  0  0  0  0  0  0  0  0
   -2.4138    0.1898   -2.5388 H   0  0  0  0  0  0  0  0  0  0  0  0
   -1.7282   -1.3634   -3.1247 H   0  0  0  0  0  0  0  0  0  0  0  0
   -4.5727    0.6327   -1.3922 H   0  0  0  0  0  0  0  0  0  0  0  0
   -3.9609    0.5799    0.2685 H   0  0  0  0  0  0  0  0  0  0  0  0
    5.0787    3.3148   -2.3882 H   0  0  0  0  0  0  0  0  0  0  0  0
    7.3445    1.7222    1.2575 H   0  0  0  0  0  0  0  0  0  0  0  0
   -4.8235   -2.9526   -1.6113 H   0  0  0  0  0  0  0  0  0  0  0  0
   -6.1339   -0.4035    1.0130 H   0  0  0  0  0  0  0  0  0  0  0  0
   -6.7386   -0.2916   -0.6416 H   0  0  0  0  0  0  0  0  0  0  0  0
   -8.6849    1.1399    0.0614 H   0  0  0  0  0  0  0  0  0  0  0  0
   -8.4029    2.6407    0.9241 H   0  0  0  0  0  0  0  0  0  0  0  0
   -4.6926    2.5633    0.9633 H   0  0  0  0  0  0  0  0  0  0  0  0
   -6.1194    3.3371    1.6034 H   0  0  0  0  0  0  0  0  0  0  0  0
   -5.5887    1.7901    2.2932 H   0  0  0  0  0  0  0  0  0  0  0  0
   -7.0503    1.9028   -1.5393 H   0  0  0  0  0  0  0  0  0  0  0  0
   -8.0950   -0.0104    1.8767 H   0  0  0  0  0  0  0  0  0  0  0  0
  1  9  1  0  0  0  0
  1 59  1  0  0  0  0
  2 26  1  0  0  0  0
  2 67  1  0  0  0  0
  3 27  1  0  0  0  0
  3 68  1  0  0  0  0
  4 25  2  0  0  0  0
  5 28  1  0  0  0  0
  5 69  1  0  0  0  0
  6 32  1  0  0  0  0
  6 77  1  0  0  0  0
  7 33  1  0  0  0  0
  7 78  1  0  0  0  0
  8  9  1  0  0  0  0
  8 10  1  0  0  0  0
  8 14  1  0  0  0  0
  8 20  1  0  0  0  0
  9 13  1  0  0  0  0
  9 15  1  0  0  0  0
 10 17  1  0  0  0  0
 10 19  1  0  0  0  0
 10 35  1  0  0  0  0
 11 12  1  0  0  0  0
 11 13  1  0  0  0  0
 11 16  1  0  0  0  0
 11 36  1  0  0  0  0
 12 18  1  0  0  0  0
 12 21  1  0  0  0  0
 12 24  1  0  0  0  0
 13 22  2  0  0  0  0
 14 16  1  0  0  0  0
 14 37  1  0  0  0  0
 14 38  1  0  0  0  0
 15 17  1  0  0  0  0
 15 39  1  0  0  0  0
 15 40  1  0  0  0  0
 16 41  1  0  0  0  0
 16 42  1  0  0  0  0
 17 43  1  0  0  0  0
 17 44  1  0  0  0  0
 18 23  1  0  0  0  0
 18 25  1  0  0  0  0
 18 45  1  0  0  0  0
 19 28  1  0  0  0  0
 19 29  1  0  0  0  0
 19 46  1  0  0  0  0
 20 47  1  0  0  0  0
 20 48  1  0  0  0  0
 20 49  1  0  0  0  0
 21 26  1  0  0  0  0
 21 50  1  0  0  0  0
 21 51  1  0  0  0  0
 22 25  1  0  0  0  0
 22 52  1  0  0  0  0
 23 27  1  0  0  0  0
 23 53  1  0  0  0  0
 23 54  1  0  0  0  0
 24 55  1  0  0  0  0
 24 56  1  0  0  0  0
 24 57  1  0  0  0  0
 26 27  1  0  0  0  0
 26 58  1  0  0  0  0
 27 60  1  0  0  0  0
 28 30  1  0  0  0  0
 28 61  1  0  0  0  0
 29 62  1  0  0  0  0
 29 63  1  0  0  0  0
 29 64  1  0  0  0  0
 30 31  1  0  0  0  0
 30 65  1  0  0  0  0
 30 66  1  0  0  0  0
 31 32  1  0  0  0  0
 31 70  1  0  0  0  0
 31 71  1  0  0  0  0
 32 33  1  0  0  0  0
 32 34  1  0  0  0  0
 33 72  1  0  0  0  0
 33 73  1  0  0  0  0
 34 74  1  0  0  0  0
 34 75  1  0  0  0  0
 34 76  1  0  0  0  0
M  END
> <PUBCHEM_COMPOUND_CID>
22295962

> <PUBCHEM_CONFORMER_RMSD>
1

> <PUBCHEM_CONFORMER_DIVERSEORDER>
1
4
5
6
2
3

> <PUBCHEM_MMFF94_PARTIAL_CHARGES>
25
1 -0.68
11 0.14
13 -0.28
18 0.06
2 -0.68
22 -0.14
25 0.49
26 0.28
27 0.28
28 0.28
3 -0.68
32 0.28
33 0.28
4 -0.57
5 -0.68
52 0.15
59 0.4
6 -0.68
67 0.4
68 0.4
69 0.4
7 -0.68
77 0.4
78 0.4
9 0.42

> <PUBCHEM_EFFECTIVE_ROTOR_COUNT>
7.8

> <PUBCHEM_PHARMACOPHORE_FEATURES>
18
1 1 acceptor
1 1 donor
1 2 acceptor
1 2 donor
1 29 hydrophobe
1 3 acceptor
1 3 donor
1 4 acceptor
1 5 acceptor
1 5 donor
1 6 acceptor
1 6 donor
1 7 acceptor
1 7 donor
5 8 9 10 15 17 rings
6 11 12 13 18 22 25 rings
6 12 18 21 23 26 27 rings
6 8 9 11 13 14 16 rings

> <PUBCHEM_HEAVY_ATOM_COUNT>
34

> <PUBCHEM_ATOM_DEF_STEREO_COUNT>
10

> <PUBCHEM_ATOM_UDEF_STEREO_COUNT>
1

> <PUBCHEM_BOND_DEF_STEREO_COUNT>
0

> <PUBCHEM_BOND_UDEF_STEREO_COUNT>
0

> <PUBCHEM_ISOTOPIC_ATOM_COUNT>
0

> <PUBCHEM_COMPONENT_COUNT>
1

> <PUBCHEM_CACTVS_TAUTO_COUNT>
5

> <PUBCHEM_CONFORMER_ID>
0154359A00000001

> <PUBCHEM_MMFF94_ENERGY>
121.2642

> <PUBCHEM_FEATURE_SELFOVERLAP>
91.48

> <PUBCHEM_SHAPE_FINGERPRINT>
10 15 18409163312745793267
10554248 39 18115602568046117119
10693767 8 6411300108996393724
10816530 90 17966971616695198185
10906281 52 18341605984464934270
11456790 92 17774454870851359264
11475781 23 16226058802850451371
11578080 2 17916014668975359888
11646440 116 16773802484885074324
12166972 35 9511457836055298831
12236239 1 18411709767836551346
12422481 6 17346600828528292765
12788726 201 18114181938809072632
13690498 29 16589442878189696799
13782708 43 12535627163762398333
14340393 91 6483360980790759635
14849402 71 18201152145068308061
15082195 135 17167574986635153928
15183329 4 16153422870407790769
15188451 53 11167943546075442537
15238133 3 18260276251814525482
15392192 104 16343119360863860299
15475509 35 12031795742774557308
1577012 14 18408888434511846983
15840311 113 18272088335781634981
16994733 274 18188497848495650584
17913733 40 16917073278301109403
17980427 23 18342177731096732983
18222031 100 6339241436953075710
1979834 28 16917350346578427386
19958102 18 15647047183791977287
20105231 36 15410899583249008920
21033648 29 18188217502736090328
21424621 283 18410854356748990755
21521239 73 6338952261326616485
21781055 127 18271805672022831140
22122407 14 18339355249882727641
22149856 69 16343133745062846805
23081809 10 18410303492839172303
23522609 53 18411131412278382213
23559900 14 14562812080642124074
23569914 152 4819875637924179289
2748736 6 18187089498696575821
3633792 109 17749381590564264326
3663271 9 18273498949139322171
3918712 181 17968098655280298041
392239 28 16630244715076637087
394071 54 17561369448462885500
397830 11 16845570911918138601
4093350 32 18409726279425929158
4340502 62 17346882238875051202
465052 167 13039189208280189766
504579 68 13767921326003884817
5104073 3 17346602928445839610

> <PUBCHEM_SHAPE_MULTIPOLES>
658.62
19.44
2.72
2.15
25.96
1.21
-0.08
16.14
-3.56
-0.14
0.28
-0.9
-0.51
-2.92

> <PUBCHEM_SHAPE_SELFOVERLAP>
1387.088

> <PUBCHEM_SHAPE_VOLUME>
367.9

> <PUBCHEM_COORDINATE_TYPE>
2
5
10

$$$$

