441711
  -OEChem-07051212552D

 94101  0     1  0  0  0  0  0999 V2000
    2.9219    0.9683    0.0000 O   0  0  0  0  0  0  0  0  0  0  0  0
    3.9982    0.6375    0.0000 O   0  0  0  0  0  0  0  0  0  0  0  0
    2.4807    1.8064    0.0000 O   0  0  0  0  0  0  0  0  0  0  0  0
    5.8209    4.3994    0.0000 O   0  0  0  0  0  0  0  0  0  0  0  0
    1.7032    4.8573    0.0000 O   0  0  0  0  0  0  0  0  0  0  0  0
    2.1339    3.8018    0.0000 O   0  0  0  0  0  0  0  0  0  0  0  0
    6.6869    0.1642    0.0000 O   0  0  0  0  0  0  0  0  0  0  0  0
    5.8209   -1.3358    0.0000 O   0  0  0  0  0  0  0  0  0  0  0  0
    8.7695   -4.1394    0.0000 O   0  0  0  0  0  0  0  0  0  0  0  0
    5.4616   -2.9354    0.0000 O   0  0  0  0  0  0  0  0  0  0  0  0
    7.0162    2.5703    0.0000 N   0  0  3  0  0  0  0  0  0  0  0  0
    7.2109   -3.2755    0.0000 N   0  0  0  0  0  0  0  0  0  0  0  0
    5.0696    2.9656    0.0000 C   0  0  2  0  0  0  0  0  0  0  0  0
    5.0696    2.0980    0.0000 C   0  0  2  0  0  0  0  0  0  0  0  0
    6.0715    2.8595    0.0000 C   0  0  3  0  0  0  0  0  0  0  0  0
    3.5454    1.7501    0.0000 C   0  0  2  0  0  0  0  0  0  0  0  0
    4.3913    3.5065    0.0000 C   0  0  1  0  0  0  0  0  0  0  0  0
    3.1690    2.5318    0.0000 C   0  0  1  0  0  0  0  0  0  0  0  0
    4.3913    1.5571    0.0000 C   0  0  1  0  0  0  0  0  0  0  0  0
    3.5454    3.3134    0.0000 C   0  0  1  0  0  0  0  0  0  0  0  0
    5.8209    1.6642    0.0000 C   0  0  2  0  0  0  0  0  0  0  0  0
    5.8209    3.3994    0.0000 C   0  0  2  0  0  0  0  0  0  0  0  0
    4.4690    4.3706    0.0000 C   0  0  0  0  0  0  0  0  0  0  0  0
    7.0162    1.8184    0.0000 C   0  0  0  0  0  0  0  0  0  0  0  0
    3.6713    4.7116    0.0000 C   0  0  1  0  0  0  0  0  0  0  0  0
    6.5722    2.0980    0.0000 C   0  0  0  0  0  0  0  0  0  0  0  0
    2.5241    2.8017    0.0000 C   0  0  0  0  0  0  0  0  0  0  0  0
    6.5722    2.9656    0.0000 C   0  0  0  0  0  0  0  0  0  0  0  0
    3.1004    4.0582    0.0000 C   0  0  0  0  0  0  0  0  0  0  0  0
    2.5241    4.2862    0.0000 C   0  0  2  0  0  0  0  0  0  0  0  0
    5.8209    0.6642    0.0000 C   0  0  0  0  0  0  0  0  0  0  0  0
    7.8202    3.1650    0.0000 C   0  0  0  0  0  0  0  0  0  0  0  0
    4.5980   -0.1626    0.0000 C   0  0  0  0  0  0  0  0  0  0  0  0
    8.7372    2.7661    0.0000 C   0  0  0  0  0  0  0  0  0  0  0  0
    6.6869    4.8994    0.0000 C   0  0  0  0  0  0  0  0  0  0  0  0
    1.7874    5.8538    0.0000 C   0  0  0  0  0  0  0  0  0  0  0  0
    6.6869   -0.8358    0.0000 C   0  0  0  0  0  0  0  0  0  0  0  0
    7.5529   -1.3358    0.0000 C   0  0  0  0  0  0  0  0  0  0  0  0
    7.5529   -2.3358    0.0000 C   0  0  0  0  0  0  0  0  0  0  0  0
    8.4190   -0.8358    0.0000 C   0  0  0  0  0  0  0  0  0  0  0  0
    8.4190   -2.8358    0.0000 C   0  0  0  0  0  0  0  0  0  0  0  0
    9.2850   -1.3358    0.0000 C   0  0  0  0  0  0  0  0  0  0  0  0
    9.2850   -2.3358    0.0000 C   0  0  0  0  0  0  0  0  0  0  0  0
    7.7701   -4.1045    0.0000 C   0  0  0  0  0  0  0  0  0  0  0  0
    6.2497   -3.5511    0.0000 C   0  0  0  0  0  0  0  0  0  0  0  0
    7.1544   -4.8925    0.0000 C   0  0  2  0  0  0  0  0  0  0  0  0
    6.2148   -4.5505    0.0000 C   0  0  0  0  0  0  0  0  0  0  0  0
    7.4301   -5.8538    0.0000 C   0  0  0  0  0  0  0  0  0  0  0  0
    5.1331    1.2504    0.0000 H   0  0  0  0  0  0  0  0  0  0  0  0
    6.1955    3.4670    0.0000 H   0  0  0  0  0  0  0  0  0  0  0  0
    5.1729    3.8406    0.0000 H   0  0  0  0  0  0  0  0  0  0  0  0
    4.5917    0.9704    0.0000 H   0  0  0  0  0  0  0  0  0  0  0  0
    2.6963    3.2753    0.0000 H   0  0  0  0  0  0  0  0  0  0  0  0
    5.2840    3.7094    0.0000 H   0  0  0  0  0  0  0  0  0  0  0  0
    4.6518    4.9630    0.0000 H   0  0  0  0  0  0  0  0  0  0  0  0
    5.0773    4.2508    0.0000 H   0  0  0  0  0  0  0  0  0  0  0  0
    7.6357    1.8450    0.0000 H   0  0  0  0  0  0  0  0  0  0  0  0
    7.0692    1.2007    0.0000 H   0  0  0  0  0  0  0  0  0  0  0  0
    3.6920    5.5613    0.0000 H   0  0  0  0  0  0  0  0  0  0  0  0
    7.1828    2.2057    0.0000 H   0  0  0  0  0  0  0  0  0  0  0  0
    6.7843    1.5154    0.0000 H   0  0  0  0  0  0  0  0  0  0  0  0
    2.3622    2.2032    0.0000 H   0  0  0  0  0  0  0  0  0  0  0  0
    1.9095    2.8834    0.0000 H   0  0  0  0  0  0  0  0  0  0  0  0
    6.7843    3.5482    0.0000 H   0  0  0  0  0  0  0  0  0  0  0  0
    7.1828    2.8579    0.0000 H   0  0  0  0  0  0  0  0  0  0  0  0
    2.6023    4.9013    0.0000 H   0  0  0  0  0  0  0  0  0  0  0  0
    5.6088    0.0816    0.0000 H   0  0  0  0  0  0  0  0  0  0  0  0
    5.2103    0.7719    0.0000 H   0  0  0  0  0  0  0  0  0  0  0  0
    3.1484    0.3912    0.0000 H   0  0  0  0  0  0  0  0  0  0  0  0
    1.8778    1.9511    0.0000 H   0  0  0  0  0  0  0  0  0  0  0  0
    7.3705    3.5919    0.0000 H   0  0  0  0  0  0  0  0  0  0  0  0
    8.1625    3.6820    0.0000 H   0  0  0  0  0  0  0  0  0  0  0  0
    5.0941    0.2093    0.0000 H   0  0  0  0  0  0  0  0  0  0  0  0
    4.9699   -0.6587    0.0000 H   0  0  0  0  0  0  0  0  0  0  0  0
    4.1020   -0.5345    0.0000 H   0  0  0  0  0  0  0  0  0  0  0  0
    8.9845    3.3346    0.0000 H   0  0  0  0  0  0  0  0  0  0  0  0
    9.3057    2.5188    0.0000 H   0  0  0  0  0  0  0  0  0  0  0  0
    8.4898    2.1976    0.0000 H   0  0  0  0  0  0  0  0  0  0  0  0
    6.3769    5.4363    0.0000 H   0  0  0  0  0  0  0  0  0  0  0  0
    7.2239    5.2094    0.0000 H   0  0  0  0  0  0  0  0  0  0  0  0
    6.9969    4.3624    0.0000 H   0  0  0  0  0  0  0  0  0  0  0  0
    1.1696    5.9060    0.0000 H   0  0  0  0  0  0  0  0  0  0  0  0
    1.8396    6.4716    0.0000 H   0  0  0  0  0  0  0  0  0  0  0  0
    2.4052    5.8016    0.0000 H   0  0  0  0  0  0  0  0  0  0  0  0
    8.4190   -0.2158    0.0000 H   0  0  0  0  0  0  0  0  0  0  0  0
    8.4190   -3.4558    0.0000 H   0  0  0  0  0  0  0  0  0  0  0  0
    9.8219   -1.0258    0.0000 H   0  0  0  0  0  0  0  0  0  0  0  0
    9.8219   -2.6458    0.0000 H   0  0  0  0  0  0  0  0  0  0  0  0
    6.7010   -5.3154    0.0000 H   0  0  0  0  0  0  0  0  0  0  0  0
    6.0648   -5.1521    0.0000 H   0  0  0  0  0  0  0  0  0  0  0  0
    5.6008   -4.4642    0.0000 H   0  0  0  0  0  0  0  0  0  0  0  0
    8.0261   -5.6829    0.0000 H   0  0  0  0  0  0  0  0  0  0  0  0
    7.6010   -6.4498    0.0000 H   0  0  0  0  0  0  0  0  0  0  0  0
    6.8341   -6.0247    0.0000 H   0  0  0  0  0  0  0  0  0  0  0  0
 16  1  1  1  0  0  0
  1 69  1  0  0  0  0
 19  2  1  6  0  0  0
  2 33  1  0  0  0  0
 18  3  1  6  0  0  0
  3 70  1  0  0  0  0
 22  4  1  1  0  0  0
  4 35  1  0  0  0  0
 30  5  1  6  0  0  0
  5 36  1  0  0  0  0
  6 29  2  0  0  0  0
  7 31  1  0  0  0  0
  7 37  1  0  0  0  0
  8 37  2  0  0  0  0
  9 44  2  0  0  0  0
 10 45  2  0  0  0  0
 11 15  1  0  0  0  0
 11 24  1  0  0  0  0
 11 32  1  0  0  0  0
 12 39  1  0  0  0  0
 12 44  1  0  0  0  0
 12 45  1  0  0  0  0
 13 14  1  0  0  0  0
 13 15  1  0  0  0  0
 13 17  1  0  0  0  0
 13 22  1  6  0  0  0
 14 19  1  0  0  0  0
 14 21  1  0  0  0  0
 14 49  1  6  0  0  0
 15 16  1  0  0  0  0
 15 50  1  0  0  0  0
 16 18  1  0  0  0  0
 16 19  1  0  0  0  0
 17 20  1  0  0  0  0
 17 23  1  0  0  0  0
 17 51  1  6  0  0  0
 18 20  1  0  0  0  0
 18 27  1  0  0  0  0
 19 52  1  0  0  0  0
 20 29  1  0  0  0  0
 20 53  1  6  0  0  0
 21 24  1  0  0  0  0
 21 26  1  0  0  0  0
 21 31  1  6  0  0  0
 22 28  1  0  0  0  0
 22 54  1  0  0  0  0
 23 25  1  0  0  0  0
 23 55  1  0  0  0  0
 23 56  1  0  0  0  0
 24 57  1  0  0  0  0
 24 58  1  0  0  0  0
 25 29  1  0  0  0  0
 25 30  1  0  0  0  0
 25 59  1  6  0  0  0
 26 28  1  0  0  0  0
 26 60  1  0  0  0  0
 26 61  1  0  0  0  0
 27 30  1  0  0  0  0
 27 62  1  0  0  0  0
 27 63  1  0  0  0  0
 28 64  1  0  0  0  0
 28 65  1  0  0  0  0
 30 66  1  0  0  0  0
 31 67  1  0  0  0  0
 31 68  1  0  0  0  0
 32 34  1  0  0  0  0
 32 71  1  0  0  0  0
 32 72  1  0  0  0  0
 33 73  1  0  0  0  0
 33 74  1  0  0  0  0
 33 75  1  0  0  0  0
 34 76  1  0  0  0  0
 34 77  1  0  0  0  0
 34 78  1  0  0  0  0
 35 79  1  0  0  0  0
 35 80  1  0  0  0  0
 35 81  1  0  0  0  0
 36 82  1  0  0  0  0
 36 83  1  0  0  0  0
 36 84  1  0  0  0  0
 37 38  1  0  0  0  0
 38 39  1  0  0  0  0
 38 40  2  0  0  0  0
 39 41  2  0  0  0  0
 40 42  1  0  0  0  0
 40 85  1  0  0  0  0
 41 43  1  0  0  0  0
 41 86  1  0  0  0  0
 42 43  2  0  0  0  0
 42 87  1  0  0  0  0
 43 88  1  0  0  0  0
 44 46  1  0  0  0  0
 45 47  1  0  0  0  0
 46 47  1  0  0  0  0
 46 48  1  1  0  0  0
 46 89  1  0  0  0  0
 47 90  1  0  0  0  0
 47 91  1  0  0  0  0
 48 92  1  0  0  0  0
 48 93  1  0  0  0  0
 48 94  1  0  0  0  0
M  END
> <PUBCHEM_COMPOUND_CID>
441711

> <PUBCHEM_COMPOUND_CANONICALIZED>
1

> <PUBCHEM_CACTVS_COMPLEXITY>
1410

> <PUBCHEM_CACTVS_HBOND_ACCEPTOR>
11

> <PUBCHEM_CACTVS_HBOND_DONOR>
2

> <PUBCHEM_CACTVS_ROTATABLE_BOND>
9

> <PUBCHEM_CACTVS_SUBSKEYS>
AAADcfB/PAAAAAAAAAAAAAAAAAAAAeMEAAA8YMGCB4gWAGABAAAAHgAACAAAD3zhmAYyyIMABgCIAqXSWACCAAAlAgAIiAEIbMgLJj7AtZmGcYhn5CHb6cf//f/fgAAAAAACAADQAAaUADSgAaEADSgAAA==

> <PUBCHEM_IUPAC_INCHI>
InChI=1S/C36H46N2O10/c1-6-37-16-33(17-48-31(42)19-9-7-8-10-22(19)38-25(39)13-18(2)30(38)41)12-11-24(46-4)35-21-14-20-23(45-3)15-34(43,26(21)27(20)40)36(44,32(35)37)29(47-5)28(33)35/h7-10,18,20-21,23-24,26,28-29,32,43-44H,6,11-17H2,1-5H3/t18-,20+,21+,23-,24-,26+,28+,29-,32?,33-,34+,35-,36+/m0/s1

> <PUBCHEM_IUPAC_INCHIKEY>
VBFGMIUWGBSAGV-UCFHPTPSSA-N

> <PUBCHEM_XLOGP3_AA>
0.3

> <PUBCHEM_EXACT_MASS>
666.315246

> <PUBCHEM_MOLECULAR_FORMULA>
C36H46N2O10

> <PUBCHEM_MOLECULAR_WEIGHT>
666.75784

> <PUBCHEM_OPENEYE_CAN_SMILES>
CCN1CC2(CCC(C34C2C(C(C31)(C5(CC(C6CC4C5C6=O)OC)O)O)OC)OC)COC(=O)C7=CC=CC=C7N8C(=O)CC(C8=O)C

> <PUBCHEM_OPENEYE_ISO_SMILES>
CCN1C[C@@]2(CC[C@@H]([C@@]34[C@@H]2[C@@H]([C@@](C31)([C@]5(C[C@@H]([C@H]6C[C@@H]4[C@@H]5C6=O)OC)O)O)OC)OC)COC(=O)C7=CC=CC=C7N8C(=O)C[C@@H](C8=O)C

> <PUBCHEM_CACTVS_TPSA>
152

> <PUBCHEM_MONOISOTOPIC_WEIGHT>
666.315246

> <PUBCHEM_TOTAL_CHARGE>
0

> <PUBCHEM_HEAVY_ATOM_COUNT>
48

> <PUBCHEM_ATOM_DEF_STEREO_COUNT>
12

> <PUBCHEM_ATOM_UDEF_STEREO_COUNT>
1

> <PUBCHEM_BOND_DEF_STEREO_COUNT>
0

> <PUBCHEM_BOND_UDEF_STEREO_COUNT>
0

> <PUBCHEM_ISOTOPIC_ATOM_COUNT>
0

> <PUBCHEM_COMPONENT_COUNT>
1

> <PUBCHEM_CACTVS_TAUTO_COUNT>
4

> <PUBCHEM_COORDINATE_TYPE>
1
5
255

> <PUBCHEM_BONDANNOTATIONS>
16  1  5
15  11  3
13  22  6
14  49  6
17  51  6
19  2  6
20  53  6
21  31  6
25  59  6
18  3  6
38  39  8
38  40  8
39  41  8
22  4  5
40  42  8
41  43  8
42  43  8
46  48  5
30  5  6

$$$$

