7846946
  -OEChem-06241222483D

 60 64  0     1  0  0  0  0  0999 V2000
   -4.6407   -1.1944    1.0526 S   0  0  0  0  0  0  0  0  0  0  0  0
   -0.5743    1.0717    1.8119 O   0  0  0  0  0  0  0  0  0  0  0  0
   -2.5003    2.0578    0.2104 O   0  0  0  0  0  0  0  0  0  0  0  0
   -3.2674    3.2268   -1.6247 O   0  0  0  0  0  0  0  0  0  0  0  0
    1.1203    2.0043    0.5190 N   0  0  0  0  0  0  0  0  0  0  0  0
   -3.3601   -0.6357   -1.1154 N   0  0  0  0  0  0  0  0  0  0  0  0
    3.1209    0.6114    0.4617 C   0  0  0  0  0  0  0  0  0  0  0  0
    3.1713   -1.5084   -0.9271 C   0  0  0  0  0  0  0  0  0  0  0  0
    4.6158    0.4510   -1.5790 C   0  0  0  0  0  0  0  0  0  0  0  0
    5.1646   -0.8878    0.4844 C   0  0  0  0  0  0  0  0  0  0  0  0
    2.2876   -0.5723   -0.0843 C   0  0  0  0  0  0  0  0  0  0  0  0
    3.7280    1.3820   -0.7347 C   0  0  0  0  0  0  0  0  0  0  0  0
    4.2755    0.0468    1.3231 C   0  0  0  0  0  0  0  0  0  0  0  0
    3.7668   -0.7185   -2.1043 C   0  0  0  0  0  0  0  0  0  0  0  0
    4.3130   -2.0507   -0.0513 C   0  0  0  0  0  0  0  0  0  0  0  0
    5.7503   -0.1011   -0.7000 C   0  0  0  0  0  0  0  0  0  0  0  0
    2.2385    1.5406    1.2994 C   0  0  1  0  0  0  0  0  0  0  0  0
    3.0407    2.7152    1.8368 C   0  0  0  0  0  0  0  0  0  0  0  0
   -0.2014    1.7286    0.8437 C   0  0  0  0  0  0  0  0  0  0  0  0
   -1.1651    2.3415   -0.1498 C   0  0  0  0  0  0  0  0  0  0  0  0
   -3.4739    2.5629   -0.6182 C   0  0  0  0  0  0  0  0  0  0  0  0
   -4.8375    2.1699   -0.0970 C   0  0  0  0  0  0  0  0  0  0  0  0
   -5.3213    0.8497   -0.6987 C   0  0  0  0  0  0  0  0  0  0  0  0
   -4.3835   -0.2842   -0.3725 C   0  0  0  0  0  0  0  0  0  0  0  0
   -3.2664   -2.1629    0.6702 C   0  0  0  0  0  0  0  0  0  0  0  0
   -2.7094   -1.7121   -0.5304 C   0  0  0  0  0  0  0  0  0  0  0  0
   -2.7206   -3.2438    1.3812 C   0  0  0  0  0  0  0  0  0  0  0  0
   -1.5654   -2.3682   -1.0348 C   0  0  0  0  0  0  0  0  0  0  0  0
   -1.5887   -3.8752    0.8600 C   0  0  0  0  0  0  0  0  0  0  0  0
   -1.0170   -3.4448   -0.3321 C   0  0  0  0  0  0  0  0  0  0  0  0
    2.5694   -2.3416   -1.3072 H   0  0  0  0  0  0  0  0  0  0  0  0
    5.0395    1.0076   -2.4224 H   0  0  0  0  0  0  0  0  0  0  0  0
    5.9773   -1.2811    1.1052 H   0  0  0  0  0  0  0  0  0  0  0  0
    1.8388   -1.1360    0.7438 H   0  0  0  0  0  0  0  0  0  0  0  0
    1.4596   -0.2221   -0.7129 H   0  0  0  0  0  0  0  0  0  0  0  0
    2.9483    1.7983   -1.3830 H   0  0  0  0  0  0  0  0  0  0  0  0
    4.3521    2.2195   -0.4056 H   0  0  0  0  0  0  0  0  0  0  0  0
    3.8758   -0.4994    2.1871 H   0  0  0  0  0  0  0  0  0  0  0  0
    4.9196    0.8398    1.7163 H   0  0  0  0  0  0  0  0  0  0  0  0
    2.9624   -0.3391   -2.7463 H   0  0  0  0  0  0  0  0  0  0  0  0
    4.3840   -1.3800   -2.7248 H   0  0  0  0  0  0  0  0  0  0  0  0
    4.9398   -2.7358   -0.6352 H   0  0  0  0  0  0  0  0  0  0  0  0
    3.9014   -2.6299    0.7844 H   0  0  0  0  0  0  0  0  0  0  0  0
    6.3744    0.7224   -0.3317 H   0  0  0  0  0  0  0  0  0  0  0  0
    6.4021   -0.7520   -1.2957 H   0  0  0  0  0  0  0  0  0  0  0  0
    1.8522    0.9818    2.1613 H   0  0  0  0  0  0  0  0  0  0  0  0
    3.4162    3.3809    1.0547 H   0  0  0  0  0  0  0  0  0  0  0  0
    2.3838    3.3409    2.4556 H   0  0  0  0  0  0  0  0  0  0  0  0
    3.8667    2.4213    2.4874 H   0  0  0  0  0  0  0  0  0  0  0  0
    1.3065    2.5931   -0.2875 H   0  0  0  0  0  0  0  0  0  0  0  0
   -0.9505    1.9226   -1.1401 H   0  0  0  0  0  0  0  0  0  0  0  0
   -1.0056    3.4259   -0.1633 H   0  0  0  0  0  0  0  0  0  0  0  0
   -5.5352    2.9770   -0.3488 H   0  0  0  0  0  0  0  0  0  0  0  0
   -4.8042    2.1255    0.9983 H   0  0  0  0  0  0  0  0  0  0  0  0
   -5.3807    0.9433   -1.7903 H   0  0  0  0  0  0  0  0  0  0  0  0
   -6.3354    0.6306   -0.3444 H   0  0  0  0  0  0  0  0  0  0  0  0
   -3.1615   -3.5851    2.3128 H   0  0  0  0  0  0  0  0  0  0  0  0
   -1.1092   -2.0386   -1.9640 H   0  0  0  0  0  0  0  0  0  0  0  0
   -1.1499   -4.7133    1.3952 H   0  0  0  0  0  0  0  0  0  0  0  0
   -0.1352   -3.9467   -0.7213 H   0  0  0  0  0  0  0  0  0  0  0  0
  1 24  1  0  0  0  0
  1 25  1  0  0  0  0
  2 19  2  0  0  0  0
  3 20  1  0  0  0  0
  3 21  1  0  0  0  0
  4 21  2  0  0  0  0
  5 17  1  0  0  0  0
  5 19  1  0  0  0  0
  5 50  1  0  0  0  0
  6 24  2  0  0  0  0
  6 26  1  0  0  0  0
  7 11  1  0  0  0  0
  7 12  1  0  0  0  0
  7 13  1  0  0  0  0
  7 17  1  0  0  0  0
  8 11  1  0  0  0  0
  8 14  1  0  0  0  0
  8 15  1  0  0  0  0
  8 31  1  0  0  0  0
  9 12  1  0  0  0  0
  9 14  1  0  0  0  0
  9 16  1  0  0  0  0
  9 32  1  0  0  0  0
 10 13  1  0  0  0  0
 10 15  1  0  0  0  0
 10 16  1  0  0  0  0
 10 33  1  0  0  0  0
 11 34  1  0  0  0  0
 11 35  1  0  0  0  0
 12 36  1  0  0  0  0
 12 37  1  0  0  0  0
 13 38  1  0  0  0  0
 13 39  1  0  0  0  0
 14 40  1  0  0  0  0
 14 41  1  0  0  0  0
 15 42  1  0  0  0  0
 15 43  1  0  0  0  0
 16 44  1  0  0  0  0
 16 45  1  0  0  0  0
 17 18  1  0  0  0  0
 17 46  1  0  0  0  0
 18 47  1  0  0  0  0
 18 48  1  0  0  0  0
 18 49  1  0  0  0  0
 19 20  1  0  0  0  0
 20 51  1  0  0  0  0
 20 52  1  0  0  0  0
 21 22  1  0  0  0  0
 22 23  1  0  0  0  0
 22 53  1  0  0  0  0
 22 54  1  0  0  0  0
 23 24  1  0  0  0  0
 23 55  1  0  0  0  0
 23 56  1  0  0  0  0
 25 26  1  0  0  0  0
 25 27  2  0  0  0  0
 26 28  2  0  0  0  0
 27 29  1  0  0  0  0
 27 57  1  0  0  0  0
 28 30  1  0  0  0  0
 28 58  1  0  0  0  0
 29 30  2  0  0  0  0
 29 59  1  0  0  0  0
 30 60  1  0  0  0  0
M  END
> <PUBCHEM_COMPOUND_CID>
7846946

> <PUBCHEM_CONFORMER_RMSD>
1.2

> <PUBCHEM_CONFORMER_DIVERSEORDER>
1
5
91
105
107
90
51
64
14
32
48
109
4
93
2
115
103
23
69
89
74
20
116
72
47
97
42
59
53
7
55
26
8
100
35
95
10
22
65
19
43
106
78
98
39
114
96
3
45
30
38
56
82
104
29
37
87
18
27
66
6
84
112
49
31
111
108
24
71
75
67
62
85
40
17
77
110
13
86
68
28
54
61
80
99
15
58
50
76
70
79
36
60
9
63
92
16
113
83
44
41
57
101
33
11
102
81
34
12
46
94
73
25
88
52
21

> <PUBCHEM_MMFF94_PARTIAL_CHARGES>
24
1 -0.08
17 0.3
19 0.57
2 -0.57
20 0.34
21 0.66
22 0.06
23 0.18
24 0.2
25 0.04
26 0.23
27 -0.15
28 -0.15
29 -0.15
3 -0.43
30 -0.15
4 -0.57
5 -0.73
50 0.37
57 0.15
58 0.15
59 0.15
6 -0.57
60 0.15

> <PUBCHEM_EFFECTIVE_ROTOR_COUNT>
10.2

> <PUBCHEM_PHARMACOPHORE_FEATURES>
10
1 2 acceptor
1 4 acceptor
1 5 donor
1 6 acceptor
5 1 6 24 25 26 rings
6 25 26 27 28 29 30 rings
6 7 8 10 11 13 15 rings
6 7 8 9 11 12 14 rings
6 7 9 10 12 13 16 rings
6 8 9 10 14 15 16 rings

> <PUBCHEM_HEAVY_ATOM_COUNT>
30

> <PUBCHEM_ATOM_DEF_STEREO_COUNT>
1

> <PUBCHEM_ATOM_UDEF_STEREO_COUNT>
0

> <PUBCHEM_BOND_DEF_STEREO_COUNT>
0

> <PUBCHEM_BOND_UDEF_STEREO_COUNT>
0

> <PUBCHEM_ISOTOPIC_ATOM_COUNT>
0

> <PUBCHEM_COMPONENT_COUNT>
1

> <PUBCHEM_CACTVS_TAUTO_COUNT>
4

> <PUBCHEM_CONFORMER_ID>
0077BC2200000001

> <PUBCHEM_MMFF94_ENERGY>
61.1964

> <PUBCHEM_FEATURE_SELFOVERLAP>
63.332

> <PUBCHEM_SHAPE_FINGERPRINT>
107951 10 18341050826315333119
108634 29 18261106422244074342
1100329 8 17401202768989912883
11014199 57 17691123738916794867
11135609 99 18265619969712424002
12422481 6 18193247829084889195
12788726 201 18114741645845680104
13402501 40 18333731329732090719
13617811 41 18202290225650082869
13726171 33 18266153086052893508
13941206 138 18129944593519058339
14251740 79 18259984911820169073
14251757 17 18187649153845221435
14251757 5 18341041939416022215
14363568 33 17402312794644440401
14910302 57 18411992351115479397
15361156 5 18259984834020517589
16067689 391 17173181563976752142
16112460 7 18044083773218034625
16719943 64 18341054098632422371
17627616 140 17981606288365154675
19319366 153 17632583802491201323
19958102 18 18270689769474942821
23559900 14 18261962860039887008
3298306 158 18194130839753450237
3383291 50 18338242574945164811
338550 245 18342458192234574086
340366 18 18202561795735883005
4015057 19 17677071061301826729
463206 1 17758957408511838298
474144 1 17771922780717634539
5047190 48 17471302746777750785
508706 21 18410016515940614951
5265222 85 18412542124357351413
5309563 4 17114103262069846795
574716 61 17131827621157723069
6437827 68 18411698832965658898
6695519 79 17028817512394261360
6823239 73 18335426738134321904
9709674 26 18263090915872203113

> <PUBCHEM_SHAPE_MULTIPOLES>
593.67
12.69
4.33
1.61
3.32
1.24
-0.01
-0.65
2.05
-4.43
-0.58
0.86
-0.26
2.26

> <PUBCHEM_SHAPE_SELFOVERLAP>
1273.841

> <PUBCHEM_SHAPE_VOLUME>
330.3

> <PUBCHEM_COORDINATE_TYPE>
2
5
10

$$$$

