166839
  -OEChem-07051213073D

 62 65  0     1  0  0  0  0  0999 V2000
   -0.5018   -1.5836   -1.6446 O   0  0  0  0  0  0  0  0  0  0  0  0
    7.3694   -0.5229   -0.5499 O   0  0  0  0  0  0  0  0  0  0  0  0
   -7.4092   -1.2765    0.9340 O   0  0  0  0  0  0  0  0  0  0  0  0
   -6.4597    0.7711    1.1836 O   0  0  0  0  0  0  0  0  0  0  0  0
   -1.1452    0.0111    0.1211 C   0  0  1  0  0  0  0  0  0  0  0  0
   -0.1926    1.1520   -0.3259 C   0  0  2  0  0  0  0  0  0  0  0  0
   -2.4030    0.4218   -0.6881 C   0  0  2  0  0  0  0  0  0  0  0  0
    1.1745    1.0721    0.3659 C   0  0  1  0  0  0  0  0  0  0  0  0
    1.8373   -0.2865   -0.0322 C   0  0  2  0  0  0  0  0  0  0  0  0
   -0.5177   -1.3547   -0.2360 C   0  0  2  0  0  0  0  0  0  0  0  0
   -1.0421    2.4115   -0.1561 C   0  0  0  0  0  0  0  0  0  0  0  0
    0.9199   -1.4891    0.3179 C   0  0  0  0  0  0  0  0  0  0  0  0
   -2.4697    1.9564   -0.5102 C   0  0  0  0  0  0  0  0  0  0  0  0
    3.3126   -0.3890    0.5041 C   0  0  2  0  0  0  0  0  0  0  0  0
   -3.7047   -0.2747   -0.3181 C   0  0  1  0  0  0  0  0  0  0  0  0
   -1.4470    0.0217    1.6464 C   0  0  0  0  0  0  0  0  0  0  0  0
    2.0850    2.2226    0.0277 C   0  0  0  0  0  0  0  0  0  0  0  0
    4.1101    0.8167   -0.0171 C   0  0  0  0  0  0  0  0  0  0  0  0
    3.9683   -1.6925   -0.0260 C   0  0  0  0  0  0  0  0  0  0  0  0
    3.3606   -0.3886    2.0505 C   0  0  0  0  0  0  0  0  0  0  0  0
    3.4058    2.0843   -0.1515 C   0  0  0  0  0  0  0  0  0  0  0  0
   -4.8630    0.2720   -1.1776 C   0  0  0  0  0  0  0  0  0  0  0  0
   -3.5480   -1.7921   -0.4632 C   0  0  0  0  0  0  0  0  0  0  0  0
    5.4707   -1.7571    0.2185 C   0  0  0  0  0  0  0  0  0  0  0  0
    5.4042    0.7484   -0.3727 C   0  0  0  0  0  0  0  0  0  0  0  0
    6.1709   -0.5159   -0.2727 C   0  0  0  0  0  0  0  0  0  0  0  0
   -6.2014   -0.4239   -0.9228 C   0  0  0  0  0  0  0  0  0  0  0  0
   -6.6842   -0.2145    0.4949 C   0  0  0  0  0  0  0  0  0  0  0  0
   -0.0099    1.0546   -1.4092 H   0  0  0  0  0  0  0  0  0  0  0  0
   -2.2108    0.2386   -1.7560 H   0  0  0  0  0  0  0  0  0  0  0  0
    1.0224    1.1176    1.4492 H   0  0  0  0  0  0  0  0  0  0  0  0
    1.9127   -0.2918   -1.1329 H   0  0  0  0  0  0  0  0  0  0  0  0
   -1.0704   -2.1849    0.2032 H   0  0  0  0  0  0  0  0  0  0  0  0
   -0.7117    3.2194   -0.8171 H   0  0  0  0  0  0  0  0  0  0  0  0
   -1.0034    2.7890    0.8718 H   0  0  0  0  0  0  0  0  0  0  0  0
    1.3574   -2.4076   -0.0887 H   0  0  0  0  0  0  0  0  0  0  0  0
    0.8759   -1.6123    1.4050 H   0  0  0  0  0  0  0  0  0  0  0  0
   -3.1563    2.2542    0.2906 H   0  0  0  0  0  0  0  0  0  0  0  0
   -2.8103    2.4384   -1.4334 H   0  0  0  0  0  0  0  0  0  0  0  0
   -3.9495   -0.0650    0.7294 H   0  0  0  0  0  0  0  0  0  0  0  0
   -2.0991   -0.8100    1.9316 H   0  0  0  0  0  0  0  0  0  0  0  0
   -0.5445   -0.0815    2.2544 H   0  0  0  0  0  0  0  0  0  0  0  0
   -1.9420    0.9417    1.9722 H   0  0  0  0  0  0  0  0  0  0  0  0
    1.6556    3.2173   -0.0509 H   0  0  0  0  0  0  0  0  0  0  0  0
    3.7897   -1.7768   -1.1072 H   0  0  0  0  0  0  0  0  0  0  0  0
    3.5101   -2.5745    0.4366 H   0  0  0  0  0  0  0  0  0  0  0  0
    2.8740   -1.2774    2.4651 H   0  0  0  0  0  0  0  0  0  0  0  0
    4.3905   -0.3809    2.4250 H   0  0  0  0  0  0  0  0  0  0  0  0
    2.8730    0.4899    2.4843 H   0  0  0  0  0  0  0  0  0  0  0  0
    3.9885    2.9659   -0.4069 H   0  0  0  0  0  0  0  0  0  0  0  0
   -4.9907    1.3464   -1.0011 H   0  0  0  0  0  0  0  0  0  0  0  0
   -4.6157    0.1561   -2.2406 H   0  0  0  0  0  0  0  0  0  0  0  0
   -0.1215   -2.4652   -1.7973 H   0  0  0  0  0  0  0  0  0  0  0  0
   -3.0854   -2.0721   -1.4138 H   0  0  0  0  0  0  0  0  0  0  0  0
   -2.9933   -2.2174    0.3721 H   0  0  0  0  0  0  0  0  0  0  0  0
   -4.5033   -2.3182   -0.4091 H   0  0  0  0  0  0  0  0  0  0  0  0
    5.8806   -2.6191   -0.3199 H   0  0  0  0  0  0  0  0  0  0  0  0
    5.6979   -1.8848    1.2816 H   0  0  0  0  0  0  0  0  0  0  0  0
    5.9474    1.6117   -0.7450 H   0  0  0  0  0  0  0  0  0  0  0  0
   -6.9613    0.0179   -1.5790 H   0  0  0  0  0  0  0  0  0  0  0  0
   -6.1699   -1.4880   -1.1669 H   0  0  0  0  0  0  0  0  0  0  0  0
   -7.7221   -1.1494    1.8551 H   0  0  0  0  0  0  0  0  0  0  0  0
  1 10  1  0  0  0  0
  1 53  1  0  0  0  0
  2 26  2  0  0  0  0
  3 28  1  0  0  0  0
  3 62  1  0  0  0  0
  4 28  2  0  0  0  0
  5  6  1  0  0  0  0
  5  7  1  0  0  0  0
  5 10  1  0  0  0  0
  5 16  1  0  0  0  0
  6  8  1  0  0  0  0
  6 11  1  0  0  0  0
  6 29  1  0  0  0  0
  7 13  1  0  0  0  0
  7 15  1  0  0  0  0
  7 30  1  0  0  0  0
  8  9  1  0  0  0  0
  8 17  1  0  0  0  0
  8 31  1  0  0  0  0
  9 12  1  0  0  0  0
  9 14  1  0  0  0  0
  9 32  1  0  0  0  0
 10 12  1  0  0  0  0
 10 33  1  0  0  0  0
 11 13  1  0  0  0  0
 11 34  1  0  0  0  0
 11 35  1  0  0  0  0
 12 36  1  0  0  0  0
 12 37  1  0  0  0  0
 13 38  1  0  0  0  0
 13 39  1  0  0  0  0
 14 18  1  0  0  0  0
 14 19  1  0  0  0  0
 14 20  1  0  0  0  0
 15 22  1  0  0  0  0
 15 23  1  0  0  0  0
 15 40  1  0  0  0  0
 16 41  1  0  0  0  0
 16 42  1  0  0  0  0
 16 43  1  0  0  0  0
 17 21  2  0  0  0  0
 17 44  1  0  0  0  0
 18 21  1  0  0  0  0
 18 25  2  0  0  0  0
 19 24  1  0  0  0  0
 19 45  1  0  0  0  0
 19 46  1  0  0  0  0
 20 47  1  0  0  0  0
 20 48  1  0  0  0  0
 20 49  1  0  0  0  0
 21 50  1  0  0  0  0
 22 27  1  0  0  0  0
 22 51  1  0  0  0  0
 22 52  1  0  0  0  0
 23 54  1  0  0  0  0
 23 55  1  0  0  0  0
 23 56  1  0  0  0  0
 24 26  1  0  0  0  0
 24 57  1  0  0  0  0
 24 58  1  0  0  0  0
 25 26  1  0  0  0  0
 25 59  1  0  0  0  0
 27 28  1  0  0  0  0
 27 60  1  0  0  0  0
 27 61  1  0  0  0  0
M  END
> <PUBCHEM_COMPOUND_CID>
166839

> <PUBCHEM_CONFORMER_RMSD>
0.8

> <PUBCHEM_CONFORMER_DIVERSEORDER>
1
3
6
5
4
2

> <PUBCHEM_MMFF94_PARTIAL_CHARGES>
20
1 -0.68
10 0.28
14 0.14
17 -0.29
18 -0.14
2 -0.57
21 -0.15
24 0.06
25 -0.14
26 0.49
27 0.06
28 0.66
3 -0.65
4 -0.57
44 0.15
50 0.15
53 0.4
59 0.15
62 0.5
8 0.14

> <PUBCHEM_EFFECTIVE_ROTOR_COUNT>
5.4

> <PUBCHEM_PHARMACOPHORE_FEATURES>
11
1 1 acceptor
1 1 donor
1 2 acceptor
1 23 hydrophobe
1 3 acceptor
1 4 acceptor
3 3 4 28 anion
5 5 6 7 11 13 rings
6 14 18 19 24 25 26 rings
6 5 6 8 9 10 12 rings
6 8 9 14 17 18 21 rings

> <PUBCHEM_HEAVY_ATOM_COUNT>
28

> <PUBCHEM_ATOM_DEF_STEREO_COUNT>
8

> <PUBCHEM_ATOM_UDEF_STEREO_COUNT>
0

> <PUBCHEM_BOND_DEF_STEREO_COUNT>
0

> <PUBCHEM_BOND_UDEF_STEREO_COUNT>
0

> <PUBCHEM_ISOTOPIC_ATOM_COUNT>
0

> <PUBCHEM_COMPONENT_COUNT>
1

> <PUBCHEM_CACTVS_TAUTO_COUNT>
2

> <PUBCHEM_CONFORMER_ID>
00028BB700000001

> <PUBCHEM_MMFF94_ENERGY>
89.3061

> <PUBCHEM_FEATURE_SELFOVERLAP>
55.97

> <PUBCHEM_SHAPE_FINGERPRINT>
10076449 9 18411695487455186796
10299344 5 18333448738264323479
10906281 52 18338219523528067607
11524674 6 16587746421573073447
11963148 33 18343591728705098035
12011746 2 18202003235417716724
12166972 35 18113620083998731520
12236239 1 17822011986709261309
12403259 415 18041012764295887520
12422481 6 18260547853367927711
12616971 3 18187654578795079013
12788726 201 18270689769628410985
13533116 47 18113340786913103552
13685833 64 18413107268547612392
13782708 43 17131561651245332291
14251764 18 18333448737768412348
14294032 229 16951948756252797769
14341114 176 18342177764897360013
14856354 85 17458346317495225207
14955137 171 18270956835570130797
15131766 46 14348081844856572154
15142383 8 4823216091539837194
15183329 4 18409455782290330823
17349148 13 17530967973329332740
18608769 82 18201718414276743994
200 152 18187370938653950613
20105231 36 18342165683171012131
21150785 3 15626220217211069071
21236236 1 18336265747189924685
21267235 1 18411134749356987004
21781051 124 18128517323983096655
221357 26 18412267250781752268
23035841 295 18408324388846100743
23522609 53 18191841523163966921
23559900 14 18338806606797489984
3004659 81 18272377459836727668
3178227 256 18411132541638490387
335352 9 18409451371295523655
34797466 226 16558741313179430006
350125 39 18408041831363675048
4073 2 18059572417240382338
4093350 32 16950561044109377708
4258327 124 16127788796283738158
4340502 62 16702308940058793024
46194498 28 17561367266630296132
465052 167 18411135835630324023
484989 97 18058721412378161419
5104073 3 18338243639764160587

> <PUBCHEM_SHAPE_MULTIPOLES>
552.75
16.67
2.12
1.17
9.43
0.63
-0.33
-4.76
-0.2
-0.79
0.2
0.56
-0.19
-0.06

> <PUBCHEM_SHAPE_SELFOVERLAP>
1176.761

> <PUBCHEM_SHAPE_VOLUME>
304.4

> <PUBCHEM_COORDINATE_TYPE>
2
5
10

$$$$

