19509
  -OEChem-07051213113D

 16 16  0     0  0  0  0  0  0999 V2000
   -0.0685   -1.1996   -0.1522 N   0  0  0  0  0  0  0  0  0  0  0  0
    2.7816    0.0256    0.6951 N   0  0  0  0  0  0  0  0  0  0  0  0
    0.5225    0.0107   -0.2676 C   0  0  0  0  0  0  0  0  0  0  0  0
    1.9907    0.0154   -0.5362 C   0  0  0  0  0  0  0  0  0  0  0  0
   -0.1501    1.2166   -0.1521 C   0  0  0  0  0  0  0  0  0  0  0  0
   -1.5172    1.1777    0.0983 C   0  0  0  0  0  0  0  0  0  0  0  0
   -2.1608   -0.0486    0.2236 C   0  0  0  0  0  0  0  0  0  0  0  0
   -1.3983   -1.1977    0.0910 C   0  0  0  0  0  0  0  0  0  0  0  0
    2.2532   -0.8803   -1.1114 H   0  0  0  0  0  0  0  0  0  0  0  0
    2.2663    0.8741   -1.1597 H   0  0  0  0  0  0  0  0  0  0  0  0
    0.3607    2.1686   -0.2501 H   0  0  0  0  0  0  0  0  0  0  0  0
   -2.0801    2.1011    0.1960 H   0  0  0  0  0  0  0  0  0  0  0  0
   -3.2256   -0.1029    0.4189 H   0  0  0  0  0  0  0  0  0  0  0  0
   -1.8526   -2.1791    0.1801 H   0  0  0  0  0  0  0  0  0  0  0  0
    2.6247    0.9013    1.1931 H   0  0  0  0  0  0  0  0  0  0  0  0
    3.7725    0.0127    0.4560 H   0  0  0  0  0  0  0  0  0  0  0  0
  1  3  1  0  0  0  0
  1  8  2  0  0  0  0
  2  4  1  0  0  0  0
  2 15  1  0  0  0  0
  2 16  1  0  0  0  0
  3  4  1  0  0  0  0
  3  5  2  0  0  0  0
  4  9  1  0  0  0  0
  4 10  1  0  0  0  0
  5  6  1  0  0  0  0
  5 11  1  0  0  0  0
  6  7  2  0  0  0  0
  6 12  1  0  0  0  0
  7  8  1  0  0  0  0
  7 13  1  0  0  0  0
  8 14  1  0  0  0  0
M  END
> <PUBCHEM_COMPOUND_CID>
19509

> <PUBCHEM_CONFORMER_RMSD>
0.4

> <PUBCHEM_CONFORMER_DIVERSEORDER>
1
3
2
4

> <PUBCHEM_MMFF94_PARTIAL_CHARGES>
14
1 -0.62
11 0.15
12 0.15
13 0.15
14 0.15
15 0.36
16 0.36
2 -0.99
3 0.17
4 0.41
5 -0.15
6 -0.15
7 -0.15
8 0.16

> <PUBCHEM_EFFECTIVE_ROTOR_COUNT>
1

> <PUBCHEM_PHARMACOPHORE_FEATURES>
4
1 1 acceptor
1 2 cation
1 2 donor
6 1 3 5 6 7 8 rings

> <PUBCHEM_HEAVY_ATOM_COUNT>
8

> <PUBCHEM_ATOM_DEF_STEREO_COUNT>
0

> <PUBCHEM_ATOM_UDEF_STEREO_COUNT>
0

> <PUBCHEM_BOND_DEF_STEREO_COUNT>
0

> <PUBCHEM_BOND_UDEF_STEREO_COUNT>
0

> <PUBCHEM_ISOTOPIC_ATOM_COUNT>
0

> <PUBCHEM_COMPONENT_COUNT>
1

> <PUBCHEM_CACTVS_TAUTO_COUNT>
1

> <PUBCHEM_CONFORMER_ID>
00004C3500000001

> <PUBCHEM_MMFF94_ENERGY>
15.1416

> <PUBCHEM_FEATURE_SELFOVERLAP>
20.297

> <PUBCHEM_SHAPE_FINGERPRINT>
10857977 72 18335988570984379968
16714656 1 18410848863111175261
18185500 45 18272084937982390702
20645464 45 17967255299680055082
21040471 1 18267013049841717509
23552423 10 17841706318484275356
29004967 10 16443057309585472502
369184 2 18335991921174895768
5084963 1 18262225724701030028

> <PUBCHEM_SHAPE_MULTIPOLES>
154.67
3.12
1.31
0.7
1.6
0.01
0.01
-0.04
0.5
-0.55
-0.02
0.2
0.01
0

> <PUBCHEM_SHAPE_SELFOVERLAP>
314.189

> <PUBCHEM_SHAPE_VOLUME>
88.6

> <PUBCHEM_COORDINATE_TYPE>
2
5
10

$$$$

