9641
  -OEChem-06261203543D

 18 17  0     0  0  0  0  0  0999 V2000
   -0.5090    1.7441    1.0245 F   0  0  0  0  0  0  0  0  0  0  0  0
    0.1725    1.5923   -1.0362 F   0  0  0  0  0  0  0  0  0  0  0  0
    2.0375    1.0314    0.8122 F   0  0  0  0  0  0  0  0  0  0  0  0
    0.8128   -0.5312    1.6974 F   0  0  0  0  0  0  0  0  0  0  0  0
   -1.1105   -0.7781   -1.3545 F   0  0  0  0  0  0  0  0  0  0  0  0
   -2.3606    0.8829   -0.7169 F   0  0  0  0  0  0  0  0  0  0  0  0
    2.0737   -0.2507   -1.5714 F   0  0  0  0  0  0  0  0  0  0  0  0
    2.7493   -1.4694    0.1005 F   0  0  0  0  0  0  0  0  0  0  0  0
   -3.1011   -1.5027    0.3694 O   0  0  0  0  0  0  0  0  0  0  0  0
   -0.1615    0.8503    0.0565 C   0  0  0  0  0  0  0  0  0  0  0  0
    1.0775    0.1070    0.5294 C   0  0  0  0  0  0  0  0  0  0  0  0
   -1.3892    0.0252   -0.2965 C   0  0  0  0  0  0  0  0  0  0  0  0
   -1.9455   -0.8152    0.8374 C   0  0  0  0  0  0  0  0  0  0  0  0
    1.6541   -0.8861   -0.4518 C   0  0  0  0  0  0  0  0  0  0  0  0
   -2.2360   -0.1998    1.6938 H   0  0  0  0  0  0  0  0  0  0  0  0
   -1.2335   -1.5776    1.1617 H   0  0  0  0  0  0  0  0  0  0  0  0
    0.9588   -1.6837   -0.7214 H   0  0  0  0  0  0  0  0  0  0  0  0
   -3.7388   -0.8313    0.0721 H   0  0  0  0  0  0  0  0  0  0  0  0
  1 10  1  0  0  0  0
  2 10  1  0  0  0  0
  3 11  1  0  0  0  0
  4 11  1  0  0  0  0
  5 12  1  0  0  0  0
  6 12  1  0  0  0  0
  7 14  1  0  0  0  0
  8 14  1  0  0  0  0
  9 13  1  0  0  0  0
  9 18  1  0  0  0  0
 10 11  1  0  0  0  0
 10 12  1  0  0  0  0
 11 14  1  0  0  0  0
 12 13  1  0  0  0  0
 13 15  1  0  0  0  0
 13 16  1  0  0  0  0
 14 17  1  0  0  0  0
M  END
> <PUBCHEM_COMPOUND_CID>
9641

> <PUBCHEM_CONFORMER_RMSD>
0.6

> <PUBCHEM_CONFORMER_DIVERSEORDER>
1
23
21
3
11
9
19
7
13
14
22
8
18
10
6
16
20
5
2
17
12
4
15

> <PUBCHEM_MMFF94_PARTIAL_CHARGES>
15
1 -0.34
10 0.68
11 0.68
12 0.68
13 0.28
14 0.68
18 0.4
2 -0.34
3 -0.34
4 -0.34
5 -0.34
6 -0.34
7 -0.34
8 -0.34
9 -0.68

> <PUBCHEM_EFFECTIVE_ROTOR_COUNT>
4

> <PUBCHEM_PHARMACOPHORE_FEATURES>
2
1 9 acceptor
1 9 donor

> <PUBCHEM_HEAVY_ATOM_COUNT>
14

> <PUBCHEM_ATOM_DEF_STEREO_COUNT>
0

> <PUBCHEM_ATOM_UDEF_STEREO_COUNT>
0

> <PUBCHEM_BOND_DEF_STEREO_COUNT>
0

> <PUBCHEM_BOND_UDEF_STEREO_COUNT>
0

> <PUBCHEM_ISOTOPIC_ATOM_COUNT>
0

> <PUBCHEM_COMPONENT_COUNT>
1

> <PUBCHEM_CACTVS_TAUTO_COUNT>
1

> <PUBCHEM_CONFORMER_ID>
000025A900000001

> <PUBCHEM_MMFF94_ENERGY>
7.575

> <PUBCHEM_FEATURE_SELFOVERLAP>
10.148

> <PUBCHEM_SHAPE_FINGERPRINT>
12423570 1 6040867705099771461
13024252 1 15265625551875437228
14128692 85 18059848450482719143
16945 1 18044360862821885505
20711985 344 18125172764229880445
21061003 4 17241048833333026738
21922407 69 17274815921642279284
230 275 9150632148844939255
23211744 25 17202751610133173016
23552423 10 17489307524591546835
2748010 2 18261120672507530461
29004967 10 18334578992745719577
5084963 1 17704066326388890306

> <PUBCHEM_SHAPE_MULTIPOLES>
224.05
3.46
1.51
1.28
0.64
0.21
0.03
-1.58
0.14
0.12
-0.09
-0.24
0.02
0.28

> <PUBCHEM_SHAPE_SELFOVERLAP>
458.821

> <PUBCHEM_SHAPE_VOLUME>
128.3

> <PUBCHEM_COORDINATE_TYPE>
2
5
10

$$$$

