6434488
  -OEChem-07051213123D

 46 46  0     1  0  0  0  0  0999 V2000
    0.8548    0.3692    0.4505 O   0  0  0  0  0  0  0  0  0  0  0  0
    0.1117    2.4811    1.0305 O   0  0  0  0  0  0  0  0  0  0  0  0
   -2.6011    1.1807    0.3592 C   0  0  0  0  0  0  0  0  0  0  0  0
   -2.0024   -0.1375   -0.0350 C   0  0  1  0  0  0  0  0  0  0  0  0
   -1.3980    0.6587    1.0771 C   0  0  1  0  0  0  0  0  0  0  0  0
   -2.4495    2.3149   -0.5979 C   0  0  0  0  0  0  0  0  0  0  0  0
   -3.8844    1.2119    1.1208 C   0  0  0  0  0  0  0  0  0  0  0  0
   -2.6790   -1.3825    0.2967 C   0  0  0  0  0  0  0  0  0  0  0  0
   -0.0697    1.2847    0.8553 C   0  0  0  0  0  0  0  0  0  0  0  0
   -3.6349   -2.0145   -0.4108 C   0  0  0  0  0  0  0  0  0  0  0  0
   -4.1795   -1.5095   -1.7169 C   0  0  0  0  0  0  0  0  0  0  0  0
   -4.2370   -3.3041    0.0738 C   0  0  0  0  0  0  0  0  0  0  0  0
    2.1655    0.8826    0.2117 C   0  0  1  0  0  0  0  0  0  0  0  0
    3.0809   -0.2551   -0.1913 C   0  0  0  0  0  0  0  0  0  0  0  0
    2.1251    1.9080   -0.8408 C   0  0  0  0  0  0  0  0  0  0  0  0
    2.7567   -0.9568   -1.4895 C   0  0  0  0  0  0  0  0  0  0  0  0
    4.1525   -0.6509    0.5256 C   0  0  0  0  0  0  0  0  0  0  0  0
    5.1221   -1.7501    0.1985 C   0  0  0  0  0  0  0  0  0  0  0  0
    2.0967    2.7492   -1.6972 C   0  0  0  0  0  0  0  0  0  0  0  0
    4.6695   -3.0800    0.7795 C   0  0  0  0  0  0  0  0  0  0  0  0
   -1.4501   -0.1808   -0.9697 H   0  0  0  0  0  0  0  0  0  0  0  0
   -1.5436    0.3165    2.0978 H   0  0  0  0  0  0  0  0  0  0  0  0
   -3.3142    2.3631   -1.2694 H   0  0  0  0  0  0  0  0  0  0  0  0
   -2.3885    3.2686   -0.0626 H   0  0  0  0  0  0  0  0  0  0  0  0
   -1.5606    2.2261   -1.2322 H   0  0  0  0  0  0  0  0  0  0  0  0
   -4.7356    1.0614    0.4478 H   0  0  0  0  0  0  0  0  0  0  0  0
   -3.9401    0.4514    1.9073 H   0  0  0  0  0  0  0  0  0  0  0  0
   -4.0129    2.1839    1.6101 H   0  0  0  0  0  0  0  0  0  0  0  0
   -2.3560   -1.8546    1.2236 H   0  0  0  0  0  0  0  0  0  0  0  0
   -4.0096   -2.2478   -2.5074 H   0  0  0  0  0  0  0  0  0  0  0  0
   -5.2569   -1.3334   -1.6329 H   0  0  0  0  0  0  0  0  0  0  0  0
   -3.7171   -0.5714   -2.0374 H   0  0  0  0  0  0  0  0  0  0  0  0
   -5.3165   -3.1882    0.2155 H   0  0  0  0  0  0  0  0  0  0  0  0
   -4.0655   -4.1008   -0.6574 H   0  0  0  0  0  0  0  0  0  0  0  0
   -3.8102   -3.6310    1.0278 H   0  0  0  0  0  0  0  0  0  0  0  0
    2.5308    1.3290    1.1461 H   0  0  0  0  0  0  0  0  0  0  0  0
    3.2210   -1.9406   -1.5912 H   0  0  0  0  0  0  0  0  0  0  0  0
    1.6774   -1.1275   -1.5699 H   0  0  0  0  0  0  0  0  0  0  0  0
    3.0703   -0.3469   -2.3428 H   0  0  0  0  0  0  0  0  0  0  0  0
    4.3551   -0.1317    1.4613 H   0  0  0  0  0  0  0  0  0  0  0  0
    6.1000   -1.4847    0.6180 H   0  0  0  0  0  0  0  0  0  0  0  0
    5.2798   -1.8411   -0.8813 H   0  0  0  0  0  0  0  0  0  0  0  0
    2.0706    3.4951   -2.4567 H   0  0  0  0  0  0  0  0  0  0  0  0
    5.4051   -3.8589    0.5545 H   0  0  0  0  0  0  0  0  0  0  0  0
    4.5648   -3.0207    1.8683 H   0  0  0  0  0  0  0  0  0  0  0  0
    3.7074   -3.3952    0.3627 H   0  0  0  0  0  0  0  0  0  0  0  0
  1  9  1  0  0  0  0
  1 13  1  0  0  0  0
  2  9  2  0  0  0  0
  3  4  1  0  0  0  0
  3  5  1  0  0  0  0
  3  6  1  0  0  0  0
  3  7  1  0  0  0  0
  4  5  1  0  0  0  0
  4  8  1  0  0  0  0
  4 21  1  0  0  0  0
  5  9  1  0  0  0  0
  5 22  1  0  0  0  0
  6 23  1  0  0  0  0
  6 24  1  0  0  0  0
  6 25  1  0  0  0  0
  7 26  1  0  0  0  0
  7 27  1  0  0  0  0
  7 28  1  0  0  0  0
  8 10  2  0  0  0  0
  8 29  1  0  0  0  0
 10 11  1  0  0  0  0
 10 12  1  0  0  0  0
 11 30  1  0  0  0  0
 11 31  1  0  0  0  0
 11 32  1  0  0  0  0
 12 33  1  0  0  0  0
 12 34  1  0  0  0  0
 12 35  1  0  0  0  0
 13 14  1  0  0  0  0
 13 15  1  0  0  0  0
 13 36  1  0  0  0  0
 14 16  1  0  0  0  0
 14 17  2  0  0  0  0
 15 19  3  0  0  0  0
 16 37  1  0  0  0  0
 16 38  1  0  0  0  0
 16 39  1  0  0  0  0
 17 18  1  0  0  0  0
 17 40  1  0  0  0  0
 18 20  1  0  0  0  0
 18 41  1  0  0  0  0
 18 42  1  0  0  0  0
 19 43  1  0  0  0  0
 20 44  1  0  0  0  0
 20 45  1  0  0  0  0
 20 46  1  0  0  0  0
M  END
> <PUBCHEM_COMPOUND_CID>
6434488

> <PUBCHEM_CONFORMER_RMSD>
1

> <PUBCHEM_CONFORMER_DIVERSEORDER>
1
460
104
164
111
465
229
486
211
146
30
160
403
141
190
157
177
286
13
279
81
248
299
409
226
212
394
408
419
377
185
162
184
478
319
224
20
72
225
272
344
170
370
469
42
313
23
85
239
71
108
404
351
271
138
301
15
414
322
315
28
74
477
2
338
73
265
407
197
340
195
189
476
48
332
447
179
159
388
353
356
350
54
482
16
256
484
5
314
246
393
273
63
59
222
433
107
105
245
445
88
317
158
316
57
207
67
427
306
361
367
174
243
295
198
398
467
101
288
39
401
65
46
307
330
441
100
127
442
50
145
125
456
119
416
312
51
371
410
96
135
483
352
77
337
364
260
228
458
305
252
395
43
37
44
292
321
214
335
434
457
249
274
294
326
452
474
435
400
374
191
22
310
399
129
325
220
83
99
264
192
188
464
8
199
175
366
241
144
348
276
116
52
21
392
161
291
415
182
12
137
131
369
201
281
216
250
9
103
470
98
396
345
163
437
35
143
238
263
56
172
36
479
235
267
124
153
428
385
168
4
253
453
259
242
202
431
140
133
382
181
451
32
118
420
218
232
45
221
147
208
80
215
247
186
120
11
368
58
406
69
336
422
47
359
38
176
94
25
481
93
343
257
293
354
76
227
150
33
342
169
290
166
255
461
283
78
462
82
327
132
165
430
53
106
210
480
68
268
102
31
284
18
219
475
173
449
109
254
110
308
376
339
200
187
237
278
402
391
331
448
205
115
328
309
151
149
485
89
113
240
289
79
311
114
296
425
136
418
86
60
413
357
167
61
417
333
26
380
440
471
436
275
233
196
117
70
450
213
155
91
6
318
95
455
329
180
362
251
112
49
384
231
358
62
355
282
17
92
439
34
236
285
303
66
360
266
459
334
423
302
347
397
270
134
421
90
446
178
142
298
320
341
122
390
323
375
300
365
443
473
405
40
123
206
262
121
3
277
14
41
244
463
261
75
297
373
411
472
466
346
126
10
171
19
379
194
230
438
87
139
156
429
148
27
269
372
223
324
444
426
128
183
454
154
152
97
7
204
378
468
287
389
130
381
387
304
29
383
193
217
432
424
280
258
234
209
24
363
84
203
55
349
386
64
412

> <PUBCHEM_MMFF94_PARTIAL_CHARGES>
24
1 -0.43
10 -0.28
11 0.14
12 0.14
13 0.62
14 -0.28
15 -0.2
16 0.14
17 -0.29
18 0.14
19 -0.18
2 -0.57
21 0.1
22 0.1
29 0.15
3 -0.19
4 -0.06
40 0.15
43 0.18
5 -0.1
6 0.09
7 0.09
8 -0.19
9 0.72

> <PUBCHEM_EFFECTIVE_ROTOR_COUNT>
6.6

> <PUBCHEM_PHARMACOPHORE_FEATURES>
6
1 16 hydrophobe
1 19 hydrophobe
1 2 acceptor
1 20 hydrophobe
3 10 11 12 hydrophobe
3 3 6 7 hydrophobe

> <PUBCHEM_HEAVY_ATOM_COUNT>
20

> <PUBCHEM_ATOM_DEF_STEREO_COUNT>
0

> <PUBCHEM_ATOM_UDEF_STEREO_COUNT>
3

> <PUBCHEM_BOND_DEF_STEREO_COUNT>
1

> <PUBCHEM_BOND_UDEF_STEREO_COUNT>
0

> <PUBCHEM_ISOTOPIC_ATOM_COUNT>
0

> <PUBCHEM_COMPONENT_COUNT>
1

> <PUBCHEM_CACTVS_TAUTO_COUNT>
1

> <PUBCHEM_CONFORMER_ID>
00622EB800000001

> <PUBCHEM_MMFF94_ENERGY>
30.6974

> <PUBCHEM_FEATURE_SELFOVERLAP>
30.446

> <PUBCHEM_SHAPE_FINGERPRINT>
10042902 136 18264198287997441638
10062212 137 18335420188029483795
12553582 1 17678448659113189679
13140716 1 18260826011939068817
13899415 180 17703795838255112236
14115302 16 18261945340757393145
14178342 30 17531511178954142995
15099037 8 18411697656007339913
15342168 16 10663283128023005171
15342816 4 17607521324437064013
15842332 3 18265027211530648536
17492 89 18412544275887832442
18186145 218 16486971752486073561
19141452 34 18265894837884234200
20281475 54 18264764372870092233
20600515 1 17604141644600184032
20626108 58 18412832386904954994
21069387 34 18273213088789706658
21452121 199 18408606929259745512
21501502 16 18337660915565302761
23402539 116 18341615979571321666
23557571 272 17531234089112765174
23558518 356 18341323397439684795
23559900 14 18338249184139716777
23598291 2 18272364269897281180
23622692 118 18409451349493814550
312423 11 18341040818382111191
312425 83 17631745850424599703
44062 13 18339921622977512743
463206 1 18201153372985843514
5104073 3 18113621187957989394
53777708 50 18339912728031904753
559249 180 18265338480990526787
633830 44 16917343736222968665
81228 2 16155648354493345208
88748 71 18412259510897516963

> <PUBCHEM_SHAPE_MULTIPOLES>
399.85
10.19
3.69
1.36
4.01
1.1
0.43
9.39
0.27
-0.36
0.38
-0.2
-0.33
-2

> <PUBCHEM_SHAPE_SELFOVERLAP>
796.114

> <PUBCHEM_SHAPE_VOLUME>
239.6

> <PUBCHEM_COORDINATE_TYPE>
2
5
10

$$$$

