242491
  -OEChem-07051213072D

 55 58  0     1  0  0  0  0  0999 V2000
    5.0182    0.3154    0.0000 F   0  0  0  0  0  0  0  0  0  0  0  0
    4.7950    1.0493    0.0000 O   0  0  0  0  0  0  0  0  0  0  0  0
    7.9821    2.5489    0.0000 O   0  0  0  0  0  0  0  0  0  0  0  0
    2.0000   -2.5030    0.0000 O   0  0  0  0  0  0  0  0  0  0  0  0
    7.3931   -0.4507    0.0000 C   0  0  2  0  0  0  0  0  0  0  0  0
    7.3931    0.5493    0.0000 C   0  0  1  0  0  0  0  0  0  0  0  0
    6.5271   -0.9507    0.0000 C   0  0  1  0  0  0  0  0  0  0  0  0
    5.6610   -0.4507    0.0000 C   0  0  2  0  0  0  0  0  0  0  0  0
    4.7510   -0.9575    0.0000 C   0  0  2  0  0  0  0  0  0  0  0  0
    8.3393    0.8540    0.0000 C   0  0  2  0  0  0  0  0  0  0  0  0
    8.3393   -0.7554    0.0000 C   0  0  0  0  0  0  0  0  0  0  0  0
    6.5271    1.0493    0.0000 C   0  0  0  0  0  0  0  0  0  0  0  0
    8.9229    0.0493    0.0000 C   0  0  0  0  0  0  0  0  0  0  0  0
    6.5431   -1.9922    0.0000 C   0  0  0  0  0  0  0  0  0  0  0  0
    5.6610    0.5493    0.0000 C   0  0  0  0  0  0  0  0  0  0  0  0
    4.7430   -1.9991    0.0000 C   0  0  0  0  0  0  0  0  0  0  0  0
    7.3931    1.5493    0.0000 C   0  0  0  0  0  0  0  0  0  0  0  0
    5.6451   -2.5200    0.0000 C   0  0  0  0  0  0  0  0  0  0  0  0
    3.8242   -0.3935    0.0000 C   0  0  0  0  0  0  0  0  0  0  0  0
    4.4163   -0.0152    0.0000 C   0  0  0  0  0  0  0  0  0  0  0  0
    8.6500    1.8046    0.0000 C   0  0  0  0  0  0  0  0  0  0  0  0
    2.8763   -0.9214    0.0000 C   0  0  2  0  0  0  0  0  0  0  0  0
    3.8076   -2.5489    0.0000 C   0  0  0  0  0  0  0  0  0  0  0  0
    2.8680   -2.0064    0.0000 C   0  0  0  0  0  0  0  0  0  0  0  0
    9.6285    2.0108    0.0000 C   0  0  0  0  0  0  0  0  0  0  0  0
    2.0161   -0.4114    0.0000 C   0  0  0  0  0  0  0  0  0  0  0  0
    7.4830   -1.2959    0.0000 H   0  0  0  0  0  0  0  0  0  0  0  0
    7.2664   -1.3700    0.0000 H   0  0  0  0  0  0  0  0  0  0  0  0
    7.9018    1.2934    0.0000 H   0  0  0  0  0  0  0  0  0  0  0  0
    8.0883   -1.3223    0.0000 H   0  0  0  0  0  0  0  0  0  0  0  0
    8.8767   -1.0647    0.0000 H   0  0  0  0  0  0  0  0  0  0  0  0
    6.9256    1.5243    0.0000 H   0  0  0  0  0  0  0  0  0  0  0  0
    6.1285    1.5243    0.0000 H   0  0  0  0  0  0  0  0  0  0  0  0
    9.3838   -0.3654    0.0000 H   0  0  0  0  0  0  0  0  0  0  0  0
    9.3838    0.4640    0.0000 H   0  0  0  0  0  0  0  0  0  0  0  0
    6.7612   -2.5726    0.0000 H   0  0  0  0  0  0  0  0  0  0  0  0
    7.1523   -1.8767    0.0000 H   0  0  0  0  0  0  0  0  0  0  0  0
    5.2478   -2.9959    0.0000 H   0  0  0  0  0  0  0  0  0  0  0  0
    6.0460   -2.9928    0.0000 H   0  0  0  0  0  0  0  0  0  0  0  0
    8.0131    1.5493    0.0000 H   0  0  0  0  0  0  0  0  0  0  0  0
    7.3931    2.1693    0.0000 H   0  0  0  0  0  0  0  0  0  0  0  0
    6.7731    1.5493    0.0000 H   0  0  0  0  0  0  0  0  0  0  0  0
    4.2324    0.0732    0.0000 H   0  0  0  0  0  0  0  0  0  0  0  0
    3.4343    0.0886    0.0000 H   0  0  0  0  0  0  0  0  0  0  0  0
    5.0005    0.1923    0.0000 H   0  0  0  0  0  0  0  0  0  0  0  0
    4.2087    0.5690    0.0000 H   0  0  0  0  0  0  0  0  0  0  0  0
    3.8320   -0.2228    0.0000 H   0  0  0  0  0  0  0  0  0  0  0  0
    2.3364   -1.2262    0.0000 H   0  0  0  0  0  0  0  0  0  0  0  0
    3.8100   -3.1689    0.0000 H   0  0  0  0  0  0  0  0  0  0  0  0
    9.7563    1.4041    0.0000 H   0  0  0  0  0  0  0  0  0  0  0  0
   10.2351    2.1386    0.0000 H   0  0  0  0  0  0  0  0  0  0  0  0
    9.5006    2.6174    0.0000 H   0  0  0  0  0  0  0  0  0  0  0  0
    2.3323    0.1219    0.0000 H   0  0  0  0  0  0  0  0  0  0  0  0
    1.4828   -0.0952    0.0000 H   0  0  0  0  0  0  0  0  0  0  0  0
    1.6999   -0.9447    0.0000 H   0  0  0  0  0  0  0  0  0  0  0  0
  8  1  1  6  0  0  0
  2 15  2  0  0  0  0
  3 21  2  0  0  0  0
  4 24  2  0  0  0  0
  5  6  1  0  0  0  0
  5  7  1  0  0  0  0
  5 11  1  0  0  0  0
  5 27  1  6  0  0  0
  6 10  1  0  0  0  0
  6 12  1  0  0  0  0
  6 17  1  1  0  0  0
  7  8  1  0  0  0  0
  7 14  1  0  0  0  0
  7 28  1  1  0  0  0
  8  9  1  0  0  0  0
  8 15  1  0  0  0  0
  9 16  1  0  0  0  0
  9 19  1  0  0  0  0
  9 20  1  1  0  0  0
 10 13  1  0  0  0  0
 10 21  1  1  0  0  0
 10 29  1  0  0  0  0
 11 13  1  0  0  0  0
 11 30  1  0  0  0  0
 11 31  1  0  0  0  0
 12 15  1  0  0  0  0
 12 32  1  0  0  0  0
 12 33  1  0  0  0  0
 13 34  1  0  0  0  0
 13 35  1  0  0  0  0
 14 18  1  0  0  0  0
 14 36  1  0  0  0  0
 14 37  1  0  0  0  0
 16 18  1  0  0  0  0
 16 23  2  0  0  0  0
 17 40  1  0  0  0  0
 17 41  1  0  0  0  0
 17 42  1  0  0  0  0
 18 38  1  0  0  0  0
 18 39  1  0  0  0  0
 19 22  1  0  0  0  0
 19 43  1  0  0  0  0
 19 44  1  0  0  0  0
 20 45  1  0  0  0  0
 20 46  1  0  0  0  0
 20 47  1  0  0  0  0
 21 25  1  0  0  0  0
 22 24  1  0  0  0  0
 22 26  1  6  0  0  0
 22 48  1  0  0  0  0
 23 24  1  0  0  0  0
 23 49  1  0  0  0  0
 25 50  1  0  0  0  0
 25 51  1  0  0  0  0
 25 52  1  0  0  0  0
 26 53  1  0  0  0  0
 26 54  1  0  0  0  0
 26 55  1  0  0  0  0
M  END
> <PUBCHEM_COMPOUND_CID>
242491

> <PUBCHEM_COMPOUND_CANONICALIZED>
1

> <PUBCHEM_CACTVS_COMPLEXITY>
740

> <PUBCHEM_CACTVS_HBOND_ACCEPTOR>
4

> <PUBCHEM_CACTVS_HBOND_DONOR>
0

> <PUBCHEM_CACTVS_ROTATABLE_BOND>
1

> <PUBCHEM_CACTVS_SUBSKEYS>
AAADceB4MQAAAAAAAAAAAAAAAAAAAYAAAAAwYIAAAAAAAGDAAAAAGwAAAAAADwSAgAACAAAAAACIAqBSAAAAAAAgAAAACAEAAEgAABIAAQAAAAAAgAAIAQMIisCvgAAAAAAAAACAAAQAACAAAQAACAAAAA==

> <PUBCHEM_IUPAC_OPENEYE_NAME>
(2R,8S,9R,10S,13S,14S,17S)-17-acetyl-9-fluoro-2,10,13-trimethyl-1,2,6,7,8,12,14,15,16,17-decahydrocyclopenta[a]phenanthrene-3,11-dione

> <PUBCHEM_IUPAC_CAS_NAME>
(2R,8S,9R,10S,13S,14S,17S)-17-acetyl-9-fluoro-2,10,13-trimethyl-1,2,6,7,8,12,14,15,16,17-decahydrocyclopenta[a]phenanthrene-3,11-dione

> <PUBCHEM_IUPAC_NAME>
(2R,8S,9R,10S,13S,14S,17S)-17-acetyl-9-fluoro-2,10,13-trimethyl-1,2,6,7,8,12,14,15,16,17-decahydrocyclopenta[a]phenanthrene-3,11-dione

> <PUBCHEM_IUPAC_SYSTEMATIC_NAME>
(2R,8S,9R,10S,13S,14S,17S)-17-ethanoyl-9-fluoranyl-2,10,13-trimethyl-1,2,6,7,8,12,14,15,16,17-decahydrocyclopenta[a]phenanthrene-3,11-dione

> <PUBCHEM_IUPAC_TRADITIONAL_NAME>
(2R,8S,9R,10S,13S,14S,17S)-17-acetyl-9-fluoro-2,10,13-trimethyl-1,2,6,7,8,12,14,15,16,17-decahydrocyclopenta[a]phenanthrene-3,11-quinone

> <PUBCHEM_IUPAC_INCHI>
InChI=1S/C22H29FO3/c1-12-10-21(4)14(9-18(12)25)5-6-17-16-8-7-15(13(2)24)20(16,3)11-19(26)22(17,21)23/h9,12,15-17H,5-8,10-11H2,1-4H3/t12-,15-,16+,17+,20-,21+,22+/m1/s1

> <PUBCHEM_IUPAC_INCHIKEY>
CCIHHCZWSDAQGO-ROXMKHFISA-N

> <PUBCHEM_XLOGP3_AA>
3

> <PUBCHEM_EXACT_MASS>
360.210073

> <PUBCHEM_MOLECULAR_FORMULA>
C22H29FO3

> <PUBCHEM_MOLECULAR_WEIGHT>
360.462263

> <PUBCHEM_OPENEYE_CAN_SMILES>
CC1CC2(C(=CC1=O)CCC3C2(C(=O)CC4(C3CCC4C(=O)C)C)F)C

> <PUBCHEM_OPENEYE_ISO_SMILES>
C[C@@H]1C[C@]2(C(=CC1=O)CC[C@@H]3[C@@]2(C(=O)C[C@]4([C@H]3CC[C@@H]4C(=O)C)C)F)C

> <PUBCHEM_CACTVS_TPSA>
51.2

> <PUBCHEM_MONOISOTOPIC_WEIGHT>
360.210073

> <PUBCHEM_TOTAL_CHARGE>
0

> <PUBCHEM_HEAVY_ATOM_COUNT>
26

> <PUBCHEM_ATOM_DEF_STEREO_COUNT>
7

> <PUBCHEM_ATOM_UDEF_STEREO_COUNT>
0

> <PUBCHEM_BOND_DEF_STEREO_COUNT>
0

> <PUBCHEM_BOND_UDEF_STEREO_COUNT>
0

> <PUBCHEM_ISOTOPIC_ATOM_COUNT>
0

> <PUBCHEM_COMPONENT_COUNT>
1

> <PUBCHEM_CACTVS_TAUTO_COUNT>
30

> <PUBCHEM_COORDINATE_TYPE>
1
5
255

> <PUBCHEM_BONDANNOTATIONS>
8  1  6
10  21  5
22  26  6
5  27  6
6  17  5
7  28  5
9  20  5

$$$$

