445128
  -OEChem-07051213092D

 47 46  0     0  0  0  0  0  0999 V2000
    2.5369    1.1900    0.0000 O   0  0  0  0  0  0  0  0  0  0  0  0
    6.8671    0.6900    0.0000 C   0  0  0  0  0  0  0  0  0  0  0  0
    7.7331    1.1900    0.0000 C   0  0  0  0  0  0  0  0  0  0  0  0
    6.0010    1.1900    0.0000 C   0  0  0  0  0  0  0  0  0  0  0  0
    8.5991    0.6900    0.0000 C   0  0  0  0  0  0  0  0  0  0  0  0
    5.1350    0.6900    0.0000 C   0  0  0  0  0  0  0  0  0  0  0  0
    9.4651    1.1900    0.0000 C   0  0  0  0  0  0  0  0  0  0  0  0
    4.2690    1.1900    0.0000 C   0  0  0  0  0  0  0  0  0  0  0  0
   10.3312    0.6900    0.0000 C   0  0  0  0  0  0  0  0  0  0  0  0
    3.4030    0.6900    0.0000 C   0  0  0  0  0  0  0  0  0  0  0  0
   11.1972    1.1900    0.0000 C   0  0  0  0  0  0  0  0  0  0  0  0
   12.0632    0.6900    0.0000 C   0  0  0  0  0  0  0  0  0  0  0  0
   12.9292    1.1900    0.0000 C   0  0  0  0  0  0  0  0  0  0  0  0
   13.7953   -0.3100    0.0000 C   0  0  0  0  0  0  0  0  0  0  0  0
   14.6613   -0.8100    0.0000 C   0  0  0  0  0  0  0  0  0  0  0  0
   13.7953    0.6900    0.0000 C   0  0  0  0  0  0  0  0  0  0  0  0
   14.6613   -1.8100    0.0000 C   0  0  0  0  0  0  0  0  0  0  0  0
    6.4685    0.2151    0.0000 H   0  0  0  0  0  0  0  0  0  0  0  0
    7.2656    0.2151    0.0000 H   0  0  0  0  0  0  0  0  0  0  0  0
    8.1316    1.6650    0.0000 H   0  0  0  0  0  0  0  0  0  0  0  0
    7.3346    1.6650    0.0000 H   0  0  0  0  0  0  0  0  0  0  0  0
    6.3996    1.6650    0.0000 H   0  0  0  0  0  0  0  0  0  0  0  0
    5.6025    1.6650    0.0000 H   0  0  0  0  0  0  0  0  0  0  0  0
    8.2006    0.2151    0.0000 H   0  0  0  0  0  0  0  0  0  0  0  0
    8.9976    0.2151    0.0000 H   0  0  0  0  0  0  0  0  0  0  0  0
    4.7365    0.2151    0.0000 H   0  0  0  0  0  0  0  0  0  0  0  0
    5.5335    0.2151    0.0000 H   0  0  0  0  0  0  0  0  0  0  0  0
    9.8637    1.6650    0.0000 H   0  0  0  0  0  0  0  0  0  0  0  0
    9.0666    1.6650    0.0000 H   0  0  0  0  0  0  0  0  0  0  0  0
    4.6675    1.6650    0.0000 H   0  0  0  0  0  0  0  0  0  0  0  0
    3.8705    1.6650    0.0000 H   0  0  0  0  0  0  0  0  0  0  0  0
    9.9326    0.2151    0.0000 H   0  0  0  0  0  0  0  0  0  0  0  0
   10.7297    0.2151    0.0000 H   0  0  0  0  0  0  0  0  0  0  0  0
    3.0044    0.2151    0.0000 H   0  0  0  0  0  0  0  0  0  0  0  0
    3.8015    0.2151    0.0000 H   0  0  0  0  0  0  0  0  0  0  0  0
   11.1972    1.8100    0.0000 H   0  0  0  0  0  0  0  0  0  0  0  0
   12.0632    0.0700    0.0000 H   0  0  0  0  0  0  0  0  0  0  0  0
    2.0000    0.8800    0.0000 H   0  0  0  0  0  0  0  0  0  0  0  0
   13.1847   -0.2023    0.0000 H   0  0  0  0  0  0  0  0  0  0  0  0
   13.5832   -0.8926    0.0000 H   0  0  0  0  0  0  0  0  0  0  0  0
   12.9292    1.8100    0.0000 H   0  0  0  0  0  0  0  0  0  0  0  0
   15.2719   -0.9177    0.0000 H   0  0  0  0  0  0  0  0  0  0  0  0
   14.8733   -0.2274    0.0000 H   0  0  0  0  0  0  0  0  0  0  0  0
   14.3322    1.0000    0.0000 H   0  0  0  0  0  0  0  0  0  0  0  0
   14.0413   -1.8100    0.0000 H   0  0  0  0  0  0  0  0  0  0  0  0
   14.6613   -2.4300    0.0000 H   0  0  0  0  0  0  0  0  0  0  0  0
   15.2813   -1.8100    0.0000 H   0  0  0  0  0  0  0  0  0  0  0  0
  1 10  1  0  0  0  0
  1 38  1  0  0  0  0
  2  3  1  0  0  0  0
  2  4  1  0  0  0  0
  2 18  1  0  0  0  0
  2 19  1  0  0  0  0
  3  5  1  0  0  0  0
  3 20  1  0  0  0  0
  3 21  1  0  0  0  0
  4  6  1  0  0  0  0
  4 22  1  0  0  0  0
  4 23  1  0  0  0  0
  5  7  1  0  0  0  0
  5 24  1  0  0  0  0
  5 25  1  0  0  0  0
  6  8  1  0  0  0  0
  6 26  1  0  0  0  0
  6 27  1  0  0  0  0
  7  9  1  0  0  0  0
  7 28  1  0  0  0  0
  7 29  1  0  0  0  0
  8 10  1  0  0  0  0
  8 30  1  0  0  0  0
  8 31  1  0  0  0  0
  9 11  1  0  0  0  0
  9 32  1  0  0  0  0
  9 33  1  0  0  0  0
 10 34  1  0  0  0  0
 10 35  1  0  0  0  0
 11 12  2  0  0  0  0
 11 36  1  0  0  0  0
 12 13  1  0  0  0  0
 12 37  1  0  0  0  0
 13 16  2  0  0  0  0
 13 41  1  0  0  0  0
 14 15  1  0  0  0  0
 14 16  1  0  0  0  0
 14 39  1  0  0  0  0
 14 40  1  0  0  0  0
 15 17  1  0  0  0  0
 15 42  1  0  0  0  0
 15 43  1  0  0  0  0
 16 44  1  0  0  0  0
 17 45  1  0  0  0  0
 17 46  1  0  0  0  0
 17 47  1  0  0  0  0
M  END
> <PUBCHEM_COMPOUND_CID>
445128

> <PUBCHEM_COMPOUND_CANONICALIZED>
1

> <PUBCHEM_CACTVS_COMPLEXITY>
182

> <PUBCHEM_CACTVS_HBOND_ACCEPTOR>
1

> <PUBCHEM_CACTVS_HBOND_DONOR>
1

> <PUBCHEM_CACTVS_ROTATABLE_BOND>
12

> <PUBCHEM_CACTVS_SUBSKEYS>
AAADceB4IAAAAAAAAAAAAAAAAAAAAAAAAAAAAAAAAAAAAAAAAAAAGgAACAAACACggAICAAAAAgCAACBCAAAAAAAgAAAICAAAAAgIEAIAAQAAQAAEgAAIgAOAwKAAAAAAAAAAAAAAAAAAAAAAAAAAAAAAAA==

> <PUBCHEM_IUPAC_OPENEYE_NAME>
(10E,12Z)-hexadeca-10,12-dien-1-ol

> <PUBCHEM_IUPAC_CAS_NAME>
(10E,12Z)-1-hexadeca-10,12-dienol

> <PUBCHEM_IUPAC_NAME>
(10E,12Z)-hexadeca-10,12-dien-1-ol

> <PUBCHEM_IUPAC_SYSTEMATIC_NAME>
(10E,12Z)-hexadeca-10,12-dien-1-ol

> <PUBCHEM_IUPAC_TRADITIONAL_NAME>
(10E,12Z)-hexadeca-10,12-dien-1-ol

> <PUBCHEM_IUPAC_INCHI>
InChI=1S/C16H30O/c1-2-3-4-5-6-7-8-9-10-11-12-13-14-15-16-17/h4-7,17H,2-3,8-16H2,1H3/b5-4-,7-6+

> <PUBCHEM_IUPAC_INCHIKEY>
CIVIWCVVOFNUST-SCFJQAPRSA-N

> <PUBCHEM_XLOGP3_AA>
5.9

> <PUBCHEM_EXACT_MASS>
238.229666

> <PUBCHEM_MOLECULAR_FORMULA>
C16H30O

> <PUBCHEM_MOLECULAR_WEIGHT>
238.4088

> <PUBCHEM_OPENEYE_CAN_SMILES>
CCCC=CC=CCCCCCCCCCO

> <PUBCHEM_OPENEYE_ISO_SMILES>
CCC/C=C\C=C\CCCCCCCCCO

> <PUBCHEM_CACTVS_TPSA>
20.2

> <PUBCHEM_MONOISOTOPIC_WEIGHT>
238.229666

> <PUBCHEM_TOTAL_CHARGE>
0

> <PUBCHEM_HEAVY_ATOM_COUNT>
17

> <PUBCHEM_ATOM_DEF_STEREO_COUNT>
0

> <PUBCHEM_ATOM_UDEF_STEREO_COUNT>
0

> <PUBCHEM_BOND_DEF_STEREO_COUNT>
2

> <PUBCHEM_BOND_UDEF_STEREO_COUNT>
0

> <PUBCHEM_ISOTOPIC_ATOM_COUNT>
0

> <PUBCHEM_COMPONENT_COUNT>
1

> <PUBCHEM_CACTVS_TAUTO_COUNT>
1

> <PUBCHEM_COORDINATE_TYPE>
1
5
255

$$$$

