441561
  -OEChem-07051212553D

 33 34  0     1  0  0  0  0  0999 V2000
   -0.0026    0.7940    2.9214 O   0  0  0  0  0  0  0  0  0  0  0  0
    0.6878   -1.3584    2.6271 O   0  0  0  0  0  0  0  0  0  0  0  0
    4.0316    1.6562   -0.7862 O   0  0  0  0  0  0  0  0  0  0  0  0
    2.1854    2.9845   -0.6352 O   0  0  0  0  0  0  0  0  0  0  0  0
   -4.1034    1.2598   -1.9026 O   0  0  0  0  0  0  0  0  0  0  0  0
   -4.2720    1.2153    0.3622 O   0  0  0  0  0  0  0  0  0  0  0  0
    0.6391    1.0177    0.2226 N   0  0  0  0  0  0  0  0  0  0  0  0
    0.9977   -2.7150   -1.4538 N   0  0  0  0  0  0  0  0  0  0  0  0
   -0.7080   -2.4666   -0.0319 N   0  0  0  0  0  0  0  0  0  0  0  0
   -0.1884   -0.1004    0.7540 C   0  0  2  0  0  0  0  0  0  0  0  0
    2.0349    0.6361   -0.0933 C   0  0  1  0  0  0  0  0  0  0  0  0
    0.0545   -1.3282   -0.0571 C   0  0  0  0  0  0  0  0  0  0  0  0
    2.1341   -0.4371   -1.2021 C   0  0  0  0  0  0  0  0  0  0  0  0
   -1.6588    0.3217    0.7412 C   0  0  0  0  0  0  0  0  0  0  0  0
    1.1131   -1.4672   -0.9239 C   0  0  0  0  0  0  0  0  0  0  0  0
    0.2202   -0.3204    2.1827 C   0  0  0  0  0  0  0  0  0  0  0  0
   -2.1609    0.6399   -0.6586 C   0  0  0  0  0  0  0  0  0  0  0  0
    2.7225    1.8924   -0.5261 C   0  0  0  0  0  0  0  0  0  0  0  0
   -0.1158   -3.2794   -0.8844 C   0  0  0  0  0  0  0  0  0  0  0  0
   -3.6110    1.0550   -0.6560 C   0  0  0  0  0  0  0  0  0  0  0  0
    2.5277    0.2920    0.8254 H   0  0  0  0  0  0  0  0  0  0  0  0
    0.6245    1.7959    0.8824 H   0  0  0  0  0  0  0  0  0  0  0  0
    3.1367   -0.8795   -1.2141 H   0  0  0  0  0  0  0  0  0  0  0  0
    1.9529    0.0029   -2.1906 H   0  0  0  0  0  0  0  0  0  0  0  0
   -2.2820   -0.4706    1.1805 H   0  0  0  0  0  0  0  0  0  0  0  0
   -1.8240    1.2040    1.3752 H   0  0  0  0  0  0  0  0  0  0  0  0
   -1.5928    1.4649   -1.1016 H   0  0  0  0  0  0  0  0  0  0  0  0
   -2.0797   -0.2368   -1.3099 H   0  0  0  0  0  0  0  0  0  0  0  0
    1.6096   -3.1469   -2.1337 H   0  0  0  0  0  0  0  0  0  0  0  0
   -0.4367   -4.2809   -1.1329 H   0  0  0  0  0  0  0  0  0  0  0  0
    0.2573    0.6700    3.8590 H   0  0  0  0  0  0  0  0  0  0  0  0
    4.5004    2.4684   -1.0738 H   0  0  0  0  0  0  0  0  0  0  0  0
   -5.0431    1.5407   -1.8836 H   0  0  0  0  0  0  0  0  0  0  0  0
  1 16  1  0  0  0  0
  1 31  1  0  0  0  0
  2 16  2  0  0  0  0
  3 18  1  0  0  0  0
  3 32  1  0  0  0  0
  4 18  2  0  0  0  0
  5 20  1  0  0  0  0
  5 33  1  0  0  0  0
  6 20  2  0  0  0  0
  7 10  1  0  0  0  0
  7 11  1  0  0  0  0
  7 22  1  0  0  0  0
  8 15  1  0  0  0  0
  8 19  1  0  0  0  0
  8 29  1  0  0  0  0
  9 12  1  0  0  0  0
  9 19  2  0  0  0  0
 10 12  1  0  0  0  0
 10 14  1  0  0  0  0
 10 16  1  0  0  0  0
 11 13  1  0  0  0  0
 11 18  1  0  0  0  0
 11 21  1  0  0  0  0
 12 15  2  0  0  0  0
 13 15  1  0  0  0  0
 13 23  1  0  0  0  0
 13 24  1  0  0  0  0
 14 17  1  0  0  0  0
 14 25  1  0  0  0  0
 14 26  1  0  0  0  0
 17 20  1  0  0  0  0
 17 27  1  0  0  0  0
 17 28  1  0  0  0  0
 19 30  1  0  0  0  0
M  END
> <PUBCHEM_COMPOUND_CID>
441561

> <PUBCHEM_CONFORMER_RMSD>
0.8

> <PUBCHEM_CONFORMER_DIVERSEORDER>
1
12
9
6
3
7
4
2
5
13
11
8
10
14

> <PUBCHEM_MMFF94_PARTIAL_CHARGES>
25
1 -0.65
10 0.51
11 0.33
12 0.05
13 0.18
15 -0.33
16 0.66
17 0.06
18 0.66
19 0.04
2 -0.57
20 0.66
22 0.36
29 0.27
3 -0.65
30 0.15
31 0.5
32 0.5
33 0.5
4 -0.57
5 -0.65
6 -0.57
7 -0.9
8 0.03
9 -0.57

> <PUBCHEM_EFFECTIVE_ROTOR_COUNT>
5.8

> <PUBCHEM_PHARMACOPHORE_FEATURES>
15
1 1 acceptor
1 2 acceptor
1 3 acceptor
1 4 acceptor
1 5 acceptor
1 6 acceptor
1 7 cation
1 7 donor
1 8 donor
3 1 2 16 anion
3 3 4 18 anion
3 5 6 20 anion
3 8 9 19 cation
5 8 9 12 15 19 rings
6 7 10 11 12 13 15 rings

> <PUBCHEM_HEAVY_ATOM_COUNT>
20

> <PUBCHEM_ATOM_DEF_STEREO_COUNT>
2

> <PUBCHEM_ATOM_UDEF_STEREO_COUNT>
0

> <PUBCHEM_BOND_DEF_STEREO_COUNT>
0

> <PUBCHEM_BOND_UDEF_STEREO_COUNT>
0

> <PUBCHEM_ISOTOPIC_ATOM_COUNT>
0

> <PUBCHEM_COMPONENT_COUNT>
1

> <PUBCHEM_CACTVS_TAUTO_COUNT>
2

> <PUBCHEM_CONFORMER_ID>
0006BCD900000001

> <PUBCHEM_MMFF94_ENERGY>
32.2709

> <PUBCHEM_FEATURE_SELFOVERLAP>
76.39

> <PUBCHEM_SHAPE_FINGERPRINT>
10756046 70 17984174605851364050
10871710 139 16831196716671691493
11582403 64 18059587853305163089
11725454 13 17989487415845217605
12403814 3 17761759676998598066
12716301 132 17825977843267060147
12824470 246 6338140791617613956
13134695 92 17341562951795870379
14614273 12 17683781243279106686
14713325 29 18052531080351517142
14817 1 14422922641573051946
15502722 9 18336258054771083439
16945 1 18191570046506299454
20473742 2 18270686492541782494
20671657 53 17758105291353724023
20820808 20 18334010627044207621
21285901 2 17610610917377538367
21524375 3 18201721700048155109
23382010 3 17967820383826281077
23419403 2 17624084577550294514
23526113 38 16662059006215861768
25 1 18409160026173035485
266924 78 17829569020384452817
2748010 2 18046314523576388838
298252 57 18340771446676157136
3060560 45 18338528528939178117
4175511 376 18128531759267659507
427121 178 16844998117741731145
68419 9 17624176769049598938
81228 2 17406280927925113633
9999458 23 16558755658370217816

> <PUBCHEM_SHAPE_MULTIPOLES>
361.43
5.12
3.07
2.06
4.33
1.77
1.83
-4.98
-3.02
-1.5
-1.29
0.2
0.07
0.12

> <PUBCHEM_SHAPE_SELFOVERLAP>
774.012

> <PUBCHEM_SHAPE_VOLUME>
197.7

> <PUBCHEM_COORDINATE_TYPE>
2
5
10

$$$$

