447123
  -OEChem-07051213043D

 41 40  0     1  0  0  0  0  0999 V2000
    1.6628    1.9973    0.7237 S   0  0  0  0  0  0  0  0  0  0  0  0
   -1.5366   -0.1357   -2.2001 O   0  0  0  0  0  0  0  0  0  0  0  0
    1.7994   -1.7859    0.7795 O   0  0  0  0  0  0  0  0  0  0  0  0
   -4.6917   -0.2052    2.2814 O   0  0  0  0  0  0  0  0  0  0  0  0
   -5.9115    1.2500    1.0423 O   0  0  0  0  0  0  0  0  0  0  0  0
    3.2118    3.7735   -0.5875 O   0  0  0  0  0  0  0  0  0  0  0  0
    4.7709    0.1891    0.9398 O   0  0  0  0  0  0  0  0  0  0  0  0
    6.2729   -1.4930    1.1903 O   0  0  0  0  0  0  0  0  0  0  0  0
   -0.2502   -0.4099   -0.2856 N   0  0  0  0  0  0  0  0  0  0  0  0
    3.3068   -1.0588   -0.8272 N   0  0  0  0  0  0  0  0  0  0  0  0
   -6.4009   -0.7665   -0.7719 N   0  0  0  0  0  0  0  0  0  0  0  0
    1.0403   -0.2112   -0.9037 C   0  0  1  0  0  0  0  0  0  0  0  0
   -3.9650   -0.5330   -0.8571 C   0  0  0  0  0  0  0  0  0  0  0  0
   -2.6404   -0.5901   -0.0934 C   0  0  0  0  0  0  0  0  0  0  0  0
   -5.1768   -0.8415    0.0292 C   0  0  1  0  0  0  0  0  0  0  0  0
   -1.4408   -0.3543   -0.9955 C   0  0  0  0  0  0  0  0  0  0  0  0
    1.4523    1.2627   -0.9311 C   0  0  0  0  0  0  0  0  0  0  0  0
    2.0625   -1.1133   -0.2154 C   0  0  0  0  0  0  0  0  0  0  0  0
   -5.3214    0.1814    1.1414 C   0  0  0  0  0  0  0  0  0  0  0  0
    4.4454   -1.8051   -0.3450 C   0  0  0  0  0  0  0  0  0  0  0  0
    2.0483    3.6914    0.2204 C   0  0  0  0  0  0  0  0  0  0  0  0
    5.2620   -1.0418    0.6657 C   0  0  0  0  0  0  0  0  0  0  0  0
    0.9647   -0.5596   -1.9425 H   0  0  0  0  0  0  0  0  0  0  0  0
   -3.9313   -1.2475   -1.6905 H   0  0  0  0  0  0  0  0  0  0  0  0
   -4.0701    0.4642   -1.3064 H   0  0  0  0  0  0  0  0  0  0  0  0
   -2.5240   -1.5708    0.3829 H   0  0  0  0  0  0  0  0  0  0  0  0
   -2.6140    0.1763    0.6892 H   0  0  0  0  0  0  0  0  0  0  0  0
   -5.1026   -1.8447    0.4637 H   0  0  0  0  0  0  0  0  0  0  0  0
   -0.2810   -0.5740    0.7169 H   0  0  0  0  0  0  0  0  0  0  0  0
    2.3893    1.3875   -1.4820 H   0  0  0  0  0  0  0  0  0  0  0  0
    0.6837    1.8414   -1.4560 H   0  0  0  0  0  0  0  0  0  0  0  0
    3.4355   -0.4915   -1.6592 H   0  0  0  0  0  0  0  0  0  0  0  0
   -7.1984   -1.0515   -0.2043 H   0  0  0  0  0  0  0  0  0  0  0  0
   -6.3475   -1.4349   -1.5399 H   0  0  0  0  0  0  0  0  0  0  0  0
    5.0777   -2.0252   -1.2097 H   0  0  0  0  0  0  0  0  0  0  0  0
    4.0998   -2.7350    0.1163 H   0  0  0  0  0  0  0  0  0  0  0  0
    1.2010    4.1135   -0.3280 H   0  0  0  0  0  0  0  0  0  0  0  0
    2.2112    4.2913    1.1203 H   0  0  0  0  0  0  0  0  0  0  0  0
   -4.7773    0.4658    2.9918 H   0  0  0  0  0  0  0  0  0  0  0  0
    3.3444    4.7123   -0.8032 H   0  0  0  0  0  0  0  0  0  0  0  0
    5.3186    0.6648    1.6001 H   0  0  0  0  0  0  0  0  0  0  0  0
  1 17  1  0  0  0  0
  1 21  1  0  0  0  0
  2 16  2  0  0  0  0
  3 18  2  0  0  0  0
  4 19  1  0  0  0  0
  4 39  1  0  0  0  0
  5 19  2  0  0  0  0
  6 21  1  0  0  0  0
  6 40  1  0  0  0  0
  7 22  1  0  0  0  0
  7 41  1  0  0  0  0
  8 22  2  0  0  0  0
  9 12  1  0  0  0  0
  9 16  1  0  0  0  0
  9 29  1  0  0  0  0
 10 18  1  0  0  0  0
 10 20  1  0  0  0  0
 10 32  1  0  0  0  0
 11 15  1  0  0  0  0
 11 33  1  0  0  0  0
 11 34  1  0  0  0  0
 12 17  1  0  0  0  0
 12 18  1  0  0  0  0
 12 23  1  0  0  0  0
 13 14  1  0  0  0  0
 13 15  1  0  0  0  0
 13 24  1  0  0  0  0
 13 25  1  0  0  0  0
 14 16  1  0  0  0  0
 14 26  1  0  0  0  0
 14 27  1  0  0  0  0
 15 19  1  0  0  0  0
 15 28  1  0  0  0  0
 17 30  1  0  0  0  0
 17 31  1  0  0  0  0
 20 22  1  0  0  0  0
 20 35  1  0  0  0  0
 20 36  1  0  0  0  0
 21 37  1  0  0  0  0
 21 38  1  0  0  0  0
M  END
> <PUBCHEM_COMPOUND_CID>
447123

> <PUBCHEM_CONFORMER_RMSD>
1

> <PUBCHEM_CONFORMER_DIVERSEORDER>
1
37
69
83
50
51
82
49
60
13
23
71
29
64
56
78
52
28
31
44
32
22
72
33
58
24
84
41
73
20
38
45
30
80
17
77
36
15
76
86
4
48
53
70
65
16
18
47
59
74
57
35
68
25
27
42
11
81
46
43
6
14
39
55
79
21
9
10
62
75
54
63
40
61
2
85
26
67
5
12
34
19
8
7
3
66

> <PUBCHEM_MMFF94_PARTIAL_CHARGES>
28
1 -0.46
10 -0.73
11 -0.99
12 0.36
14 0.06
15 0.33
16 0.57
17 0.23
18 0.57
19 0.66
2 -0.57
20 0.36
21 0.51
22 0.66
29 0.37
3 -0.57
32 0.37
33 0.36
34 0.36
39 0.5
4 -0.65
40 0.4
41 0.5
5 -0.57
6 -0.68
7 -0.65
8 -0.57
9 -0.73

> <PUBCHEM_EFFECTIVE_ROTOR_COUNT>
13

> <PUBCHEM_PHARMACOPHORE_FEATURES>
14
1 10 donor
1 11 cation
1 11 donor
1 2 acceptor
1 3 acceptor
1 4 acceptor
1 5 acceptor
1 6 acceptor
1 6 donor
1 7 acceptor
1 8 acceptor
1 9 donor
3 4 5 19 anion
3 7 8 22 anion

> <PUBCHEM_HEAVY_ATOM_COUNT>
22

> <PUBCHEM_ATOM_DEF_STEREO_COUNT>
2

> <PUBCHEM_ATOM_UDEF_STEREO_COUNT>
0

> <PUBCHEM_BOND_DEF_STEREO_COUNT>
0

> <PUBCHEM_BOND_UDEF_STEREO_COUNT>
0

> <PUBCHEM_ISOTOPIC_ATOM_COUNT>
0

> <PUBCHEM_COMPONENT_COUNT>
1

> <PUBCHEM_CACTVS_TAUTO_COUNT>
4

> <PUBCHEM_CONFORMER_ID>
0006D29300000001

> <PUBCHEM_MMFF94_ENERGY>
30.026

> <PUBCHEM_FEATURE_SELFOVERLAP>
71.159

> <PUBCHEM_SHAPE_FINGERPRINT>
11089746 13 18411702115132783789
11405975 8 18338513037203397275
11545043 162 17632864135470632893
12236239 1 17821450166295581991
12403259 118 17894906339704010293
12507557 5 18040994073125463073
12596602 18 17894633681879044443
12616971 3 18114730578511406649
12633257 1 18410291398063495815
13257819 101 5039944118530756568
13590594 115 18338230569657049552
13899415 154 18411694384128412356
14739800 52 17241898574873788457
14849402 71 18339638924114938420
15048467 5 16588033407272489706
15238133 3 18261944228260240373
15527383 91 18413671309470258381
15880784 105 18270962337486378067
17980427 26 17463433624179270020
1813 80 18260541273319865822
18785283 64 18199749150771562132
20281389 69 15864077580390964906
21041028 32 18409172133986867588
21521721 280 17988916761353463378
23559900 14 16415473818857174943
23622692 88 17894917321144102470
25147074 1 17823993242132445079
5104073 3 18268701732715338907
7495541 125 16917063356663106110
9841814 1 18413105065746308854

> <PUBCHEM_SHAPE_MULTIPOLES>
400.57
14.87
2.83
1.46
11.73
4.1
-0.15
-4.84
-5.69
-4.9
0.03
1.08
-0.06
-1.31

> <PUBCHEM_SHAPE_SELFOVERLAP>
767.007

> <PUBCHEM_SHAPE_VOLUME>
244

> <PUBCHEM_COORDINATE_TYPE>
2
5
10

$$$$

