11667
  -OEChem-06261205583D

 11 10  0     0  0  0  0  0  0999 V2000
    2.0543    0.9944    0.0136 Cl  0  0  0  0  0  0  0  0  0  0  0  0
    0.3872   -0.1970   -0.0086 S   0  0  0  0  0  0  0  0  0  0  0  0
    0.3663   -0.7835   -1.3357 O   0  0  0  0  0  0  0  0  0  0  0  0
    0.4992   -1.0167    1.1834 O   0  0  0  0  0  0  0  0  0  0  0  0
   -1.0022    0.8749    0.1640 C   0  0  0  0  0  0  0  0  0  0  0  0
   -2.3047    0.1280   -0.0167 C   0  0  0  0  0  0  0  0  0  0  0  0
   -0.9502    1.3338    1.1555 H   0  0  0  0  0  0  0  0  0  0  0  0
   -0.9113    1.6569   -0.5957 H   0  0  0  0  0  0  0  0  0  0  0  0
   -3.1534    0.8080    0.1052 H   0  0  0  0  0  0  0  0  0  0  0  0
   -2.3707   -0.3214   -1.0128 H   0  0  0  0  0  0  0  0  0  0  0  0
   -2.4037   -0.6764    0.7194 H   0  0  0  0  0  0  0  0  0  0  0  0
  1  2  1  0  0  0  0
  2  3  2  0  0  0  0
  2  4  2  0  0  0  0
  2  5  1  0  0  0  0
  5  6  1  0  0  0  0
  5  7  1  0  0  0  0
  5  8  1  0  0  0  0
  6  9  1  0  0  0  0
  6 10  1  0  0  0  0
  6 11  1  0  0  0  0
M  END
> <PUBCHEM_COMPOUND_CID>
11667

> <PUBCHEM_CONFORMER_RMSD>
0.4

> <PUBCHEM_CONFORMER_DIVERSEORDER>
1
2
3

> <PUBCHEM_MMFF94_PARTIAL_CHARGES>
5
1 -0.19
2 1.38
3 -0.65
4 -0.65
5 0.11

> <PUBCHEM_EFFECTIVE_ROTOR_COUNT>
1

> <PUBCHEM_PHARMACOPHORE_FEATURES>
0

> <PUBCHEM_HEAVY_ATOM_COUNT>
6

> <PUBCHEM_ATOM_DEF_STEREO_COUNT>
0

> <PUBCHEM_ATOM_UDEF_STEREO_COUNT>
0

> <PUBCHEM_BOND_DEF_STEREO_COUNT>
0

> <PUBCHEM_BOND_UDEF_STEREO_COUNT>
0

> <PUBCHEM_ISOTOPIC_ATOM_COUNT>
0

> <PUBCHEM_COMPONENT_COUNT>
1

> <PUBCHEM_CACTVS_TAUTO_COUNT>
1

> <PUBCHEM_CONFORMER_ID>
00002D9300000001

> <PUBCHEM_MMFF94_ENERGY>
-0.6425

> <PUBCHEM_FEATURE_SELFOVERLAP>
0

> <PUBCHEM_SHAPE_FINGERPRINT>
16714656 1 17749956535591027837
20096714 4 18408606937585831840
21040471 1 17560785624493430819
23552449 11 17273433865575073161
24536 1 17752211840398784809
29004967 10 17749656467864241163
5943 1 11367897298712764406

> <PUBCHEM_SHAPE_MULTIPOLES>
117.46
2.6
1.14
1.01
0.5
0.02
0.02
0.91
0.04
-0.25
-0.03
-0.16
-0.37
-0.05

> <PUBCHEM_SHAPE_SELFOVERLAP>
189.708

> <PUBCHEM_SHAPE_VOLUME>
83.4

> <PUBCHEM_COORDINATE_TYPE>
2
5
10

$$$$

