480865
  -OEChem-07051213093D

 63 65  0     1  0  0  0  0  0999 V2000
   -0.4791   -2.1748   -1.5442 O   0  0  0  0  0  0  0  0  0  0  0  0
   -2.8922    1.0423    1.1474 O   0  0  0  0  0  0  0  0  0  0  0  0
    3.1613   -0.7139    1.1910 O   0  0  0  0  0  0  0  0  0  0  0  0
   -5.0172   -2.9280   -0.4574 O   0  0  0  0  0  0  0  0  0  0  0  0
    5.3467    2.9892   -0.9151 O   0  0  0  0  0  0  0  0  0  0  0  0
    0.8439   -0.4204   -0.4504 C   0  0  1  0  0  0  0  0  0  0  0  0
   -0.4162    0.3597   -0.0550 C   0  0  0  0  0  0  0  0  0  0  0  0
    0.5500   -1.1966   -1.7385 C   0  0  0  0  0  0  0  0  0  0  0  0
   -1.6327   -0.5171   -0.1684 C   0  0  0  0  0  0  0  0  0  0  0  0
    2.0566    0.4799   -0.5589 C   0  0  0  0  0  0  0  0  0  0  0  0
   -1.5995   -1.7096   -0.9040 C   0  0  0  0  0  0  0  0  0  0  0  0
   -2.8297   -0.1291    0.4482 C   0  0  0  0  0  0  0  0  0  0  0  0
    3.1640    0.2917    0.2690 C   0  0  0  0  0  0  0  0  0  0  0  0
   -3.9667   -0.9325    0.3538 C   0  0  0  0  0  0  0  0  0  0  0  0
    2.0588    1.5082   -1.5018 C   0  0  0  0  0  0  0  0  0  0  0  0
   -2.7357   -2.5189   -0.9859 C   0  0  0  0  0  0  0  0  0  0  0  0
    4.2720    1.1311    0.1542 C   0  0  0  0  0  0  0  0  0  0  0  0
   -3.9183   -2.1284   -0.3594 C   0  0  0  0  0  0  0  0  0  0  0  0
   -5.2385   -0.5130    1.0194 C   0  0  0  0  0  0  0  0  0  0  0  0
    3.1667    2.3476   -1.6166 C   0  0  0  0  0  0  0  0  0  0  0  0
    4.2734    2.1592   -0.7886 C   0  0  0  0  0  0  0  0  0  0  0  0
    5.4590    0.9306    1.0414 C   0  0  0  0  0  0  0  0  0  0  0  0
   -6.1178    0.3240    0.1253 C   0  0  0  0  0  0  0  0  0  0  0  0
    6.4788   -0.0093    0.4500 C   0  0  0  0  0  0  0  0  0  0  0  0
   -3.2678    2.2081    0.4198 C   0  0  0  0  0  0  0  0  0  0  0  0
   -6.9650    1.3087    0.4808 C   0  0  0  0  0  0  0  0  0  0  0  0
    6.9041   -1.1888    0.9417 C   0  0  0  0  0  0  0  0  0  0  0  0
   -7.8153    2.1059   -0.4672 C   0  0  0  0  0  0  0  0  0  0  0  0
   -7.1298    1.6858    1.9291 C   0  0  0  0  0  0  0  0  0  0  0  0
    7.9285   -2.0788    0.2971 C   0  0  0  0  0  0  0  0  0  0  0  0
    6.3578   -1.7127    2.2433 C   0  0  0  0  0  0  0  0  0  0  0  0
    1.0062   -1.1713    0.3352 H   0  0  0  0  0  0  0  0  0  0  0  0
   -0.5703    1.2307   -0.7029 H   0  0  0  0  0  0  0  0  0  0  0  0
   -0.3001    0.7264    0.9727 H   0  0  0  0  0  0  0  0  0  0  0  0
    0.2566   -0.5400   -2.5677 H   0  0  0  0  0  0  0  0  0  0  0  0
    1.4453   -1.7390   -2.0641 H   0  0  0  0  0  0  0  0  0  0  0  0
    1.2114    1.6722   -2.1616 H   0  0  0  0  0  0  0  0  0  0  0  0
   -2.7011   -3.4515   -1.5441 H   0  0  0  0  0  0  0  0  0  0  0  0
   -5.8034   -1.3847    1.3711 H   0  0  0  0  0  0  0  0  0  0  0  0
   -4.9849    0.0247    1.9400 H   0  0  0  0  0  0  0  0  0  0  0  0
    3.1621    3.1458   -2.3540 H   0  0  0  0  0  0  0  0  0  0  0  0
    5.9589    1.8868    1.2430 H   0  0  0  0  0  0  0  0  0  0  0  0
    5.1207    0.6495    2.0416 H   0  0  0  0  0  0  0  0  0  0  0  0
   -6.0687    0.0840   -0.9369 H   0  0  0  0  0  0  0  0  0  0  0  0
    4.0666   -0.9736    1.4113 H   0  0  0  0  0  0  0  0  0  0  0  0
    6.9220    0.3241   -0.4880 H   0  0  0  0  0  0  0  0  0  0  0  0
   -5.8284   -2.4092   -0.3405 H   0  0  0  0  0  0  0  0  0  0  0  0
   -4.0108    2.7582    1.0036 H   0  0  0  0  0  0  0  0  0  0  0  0
   -3.6864    1.9766   -0.5657 H   0  0  0  0  0  0  0  0  0  0  0  0
   -2.3868    2.8437    0.2923 H   0  0  0  0  0  0  0  0  0  0  0  0
    6.1565    2.5503   -0.6121 H   0  0  0  0  0  0  0  0  0  0  0  0
   -7.6480    1.8067   -1.5070 H   0  0  0  0  0  0  0  0  0  0  0  0
   -7.5807    3.1720   -0.3843 H   0  0  0  0  0  0  0  0  0  0  0  0
   -8.8772    1.9614   -0.2441 H   0  0  0  0  0  0  0  0  0  0  0  0
   -6.7505    0.9409    2.6323 H   0  0  0  0  0  0  0  0  0  0  0  0
   -8.1932    1.8085    2.1645 H   0  0  0  0  0  0  0  0  0  0  0  0
   -6.6266    2.6376    2.1282 H   0  0  0  0  0  0  0  0  0  0  0  0
    8.2805   -1.6645   -0.6534 H   0  0  0  0  0  0  0  0  0  0  0  0
    8.7976   -2.2001    0.9515 H   0  0  0  0  0  0  0  0  0  0  0  0
    7.5013   -3.0660    0.0936 H   0  0  0  0  0  0  0  0  0  0  0  0
    5.8709   -0.9737    2.8794 H   0  0  0  0  0  0  0  0  0  0  0  0
    5.6526   -2.5283    2.0520 H   0  0  0  0  0  0  0  0  0  0  0  0
    7.1777   -2.1200    2.8472 H   0  0  0  0  0  0  0  0  0  0  0  0
  1  8  1  0  0  0  0
  1 11  1  0  0  0  0
  2 12  1  0  0  0  0
  2 25  1  0  0  0  0
  3 13  1  0  0  0  0
  3 45  1  0  0  0  0
  4 18  1  0  0  0  0
  4 47  1  0  0  0  0
  5 21  1  0  0  0  0
  5 51  1  0  0  0  0
  6  7  1  0  0  0  0
  6  8  1  0  0  0  0
  6 10  1  0  0  0  0
  6 32  1  0  0  0  0
  7  9  1  0  0  0  0
  7 33  1  0  0  0  0
  7 34  1  0  0  0  0
  8 35  1  0  0  0  0
  8 36  1  0  0  0  0
  9 11  2  0  0  0  0
  9 12  1  0  0  0  0
 10 13  2  0  0  0  0
 10 15  1  0  0  0  0
 11 16  1  0  0  0  0
 12 14  2  0  0  0  0
 13 17  1  0  0  0  0
 14 18  1  0  0  0  0
 14 19  1  0  0  0  0
 15 20  2  0  0  0  0
 15 37  1  0  0  0  0
 16 18  2  0  0  0  0
 16 38  1  0  0  0  0
 17 21  2  0  0  0  0
 17 22  1  0  0  0  0
 19 23  1  0  0  0  0
 19 39  1  0  0  0  0
 19 40  1  0  0  0  0
 20 21  1  0  0  0  0
 20 41  1  0  0  0  0
 22 24  1  0  0  0  0
 22 42  1  0  0  0  0
 22 43  1  0  0  0  0
 23 26  2  0  0  0  0
 23 44  1  0  0  0  0
 24 27  2  0  0  0  0
 24 46  1  0  0  0  0
 25 48  1  0  0  0  0
 25 49  1  0  0  0  0
 25 50  1  0  0  0  0
 26 28  1  0  0  0  0
 26 29  1  0  0  0  0
 27 30  1  0  0  0  0
 27 31  1  0  0  0  0
 28 52  1  0  0  0  0
 28 53  1  0  0  0  0
 28 54  1  0  0  0  0
 29 55  1  0  0  0  0
 29 56  1  0  0  0  0
 29 57  1  0  0  0  0
 30 58  1  0  0  0  0
 30 59  1  0  0  0  0
 30 60  1  0  0  0  0
 31 61  1  0  0  0  0
 31 62  1  0  0  0  0
 31 63  1  0  0  0  0
M  END
> <PUBCHEM_COMPOUND_CID>
480865

> <PUBCHEM_CONFORMER_RMSD>
0.8

> <PUBCHEM_CONFORMER_DIVERSEORDER>
1
305
210
32
426
159
208
106
390
365
110
397
410
484
476
241
112
69
286
105
414
200
126
343
230
158
182
326
283
55
216
412
282
327
147
28
464
174
383
249
290
189
240
311
402
392
386
451
406
460
264
322
394
452
478
339
138
57
367
349
444
360
14
395
168
419
172
352
124
405
429
467
401
376
310
471
374
459
479
462
23
447
221
387
336
43
7
423
217
344
420
319
239
150
184
61
164
142
226
118
342
59
314
235
370
79
247
278
234
127
409
62
450
385
157
440
335
369
415
155
95
162
362
455
391
299
431
424
350
372
45
324
81
443
433
80
185
12
238
133
89
458
421
308
90
318
163
373
482
91
186
413
153
474
193
346
53
139
242
475
179
457
470
207
345
288
328
274
4
353
141
68
292
111
427
148
434
262
199
276
430
377
56
341
73
359
428
136
115
384
229
337
253
205
379
169
445
27
453
130
42
85
82
160
180
340
87
22
329
323
196
244
330
33
107
485
161
439
393
315
480
481
301
194
270
173
231
233
296
388
371
103
224
251
357
277
473
338
146
48
316
143
232
71
128
348
104
187
191
97
267
39
256
269
422
399
461
75
214
29
448
113
255
165
114
408
237
417
225
34
469
284
398
21
129
300
36
212
416
206
140
446
375
248
297
281
332
66
151
78
121
313
77
275
295
361
382
152
263
358
192
24
303
132
49
122
149
347
298
285
93
31
167
432
213
243
250
435
291
363
166
273
389
466
222
171
325
58
312
280
211
266
246
265
403
76
441
99
72
41
306
307
190
175
123
252
46
17
436
197
294
120
47
364
260
437
320
137
177
176
271
209
20
116
456
289
321
220
51
396
26
407
201
223
5
202
257
11
333
468
131
279
37
438
63
108
304
454
334
44
354
16
88
317
218
70
228
258
195
477
472
203
119
144
215
449
355
268
483
351
259
100
261
188
404
236
134
245
331
411
227
19
52
183
38
302
65
204
442
178
86
145
135
102
3
125
465
2
366
30
67
156
96
15
10
418
18
272
368
425
254
380
219
25
98
94
74
378
101
13
54
117
293
309
287
8
6
9
40
109
84
181
83
50
170
381
400
154
60
92
35
463
356
64
198

> <PUBCHEM_MMFF94_PARTIAL_CHARGES>
39
1 -0.36
10 -0.14
11 0.08
12 0.08
13 0.08
14 -0.14
15 -0.15
16 -0.15
17 -0.14
18 0.08
19 0.28
2 -0.36
20 -0.15
21 0.08
22 0.28
23 -0.29
24 -0.29
25 0.28
26 -0.28
27 -0.28
28 0.14
29 0.14
3 -0.53
30 0.14
31 0.14
37 0.15
38 0.15
4 -0.53
41 0.15
44 0.15
45 0.45
46 0.15
47 0.45
5 -0.53
51 0.45
6 0.14
7 0.14
8 0.28
9 -0.14

> <PUBCHEM_EFFECTIVE_ROTOR_COUNT>
6.8

> <PUBCHEM_PHARMACOPHORE_FEATURES>
10
1 1 acceptor
1 2 acceptor
1 3 donor
1 4 donor
1 5 donor
3 26 28 29 hydrophobe
3 27 30 31 hydrophobe
6 1 6 7 8 9 11 rings
6 10 13 15 17 20 21 rings
6 9 11 12 14 16 18 rings

> <PUBCHEM_HEAVY_ATOM_COUNT>
31

> <PUBCHEM_ATOM_DEF_STEREO_COUNT>
1

> <PUBCHEM_ATOM_UDEF_STEREO_COUNT>
0

> <PUBCHEM_BOND_DEF_STEREO_COUNT>
0

> <PUBCHEM_BOND_UDEF_STEREO_COUNT>
0

> <PUBCHEM_ISOTOPIC_ATOM_COUNT>
0

> <PUBCHEM_COMPONENT_COUNT>
1

> <PUBCHEM_CACTVS_TAUTO_COUNT>
27

> <PUBCHEM_CONFORMER_ID>
0007566100000001

> <PUBCHEM_MMFF94_ENERGY>
100.2635

> <PUBCHEM_FEATURE_SELFOVERLAP>
50.772

> <PUBCHEM_SHAPE_FINGERPRINT>
10076449 9 10015569637293917157
10319926 262 17895484648139047546
10906281 52 18115289160573115945
12107183 9 18412265073190881752
12236239 1 18340769230546677502
12596602 18 18201156529538171458
12616971 3 18201720604699164605
12778500 126 18410013243560371584
13540713 4 17971442236197396807
13782708 43 15338570353181590192
13914758 101 18341900692631451303
14117953 113 18409164454680190813
14347424 109 18341897377291634832
14428016 545 18411420643807604846
15064986 96 17314231241084251438
15131766 46 17842547444964817316
15461852 350 17023190387760268597
1577012 14 18339358565834486556
17980427 23 18270674261070925373
1813 80 18202848769187922254
20511986 3 18341619170421117465
20554085 129 17095246946627064954
20715895 44 18338512045625199293
21033648 29 15502643893436061786
21065198 48 18341050701349727310
21130935 74 18339645534275140778
21150785 3 8142080966139824315
21403212 168 18261116317600882134
21591340 7 18334582343653699167
21774942 28 16660916798466175569
21792964 463 17631149932029142165
21859007 373 18269838790704701653
23081809 10 18339080371954171334
23522609 53 18128234732309602012
23559900 14 17677869323453203366
23569943 247 17202223947847848010
2748736 6 18260826017099536753
2838139 119 18040721346828393989
4516262 110 17913492333936880468
4756326 101 14346374445149191834
5080951 261 15792312392058199911
5104073 3 18339921502559984907
513202 73 17560813159829550228
6058803 2 18051693239695784910
6299153 45 18412261765659843184
86090 222 15769773619354122722
9981440 41 18335411332319252379

> <PUBCHEM_SHAPE_MULTIPOLES>
608.62
21.85
3.02
1.56
0.69
0.04
-0.17
-2.91
-9.53
-0.18
0.94
0.73
0.06
-3.47

> <PUBCHEM_SHAPE_SELFOVERLAP>
1293.683

> <PUBCHEM_SHAPE_VOLUME>
340.2

> <PUBCHEM_COORDINATE_TYPE>
2
5
10

$$$$

