5281349
  -OEChem-07051212563D

 40 43  0     1  0  0  0  0  0999 V2000
   -1.5711    2.0646   -0.1433 N   0  0  2  0  0  0  0  0  0  0  0  0
    1.1137   -1.3869    0.6937 N   0  0  0  0  0  0  0  0  0  0  0  0
   -2.5350   -0.5423    0.3870 C   0  0  1  0  0  0  0  0  0  0  0  0
   -3.1985    0.6336    1.1240 C   0  0  0  0  0  0  0  0  0  0  0  0
   -2.3167    1.8882    1.1039 C   0  0  0  0  0  0  0  0  0  0  0  0
   -2.1104    1.3419   -1.2962 C   0  0  0  0  0  0  0  0  0  0  0  0
   -2.3024   -0.1373   -1.0586 C   0  0  0  0  0  0  0  0  0  0  0  0
   -0.1170    2.0542   -0.0017 C   0  0  0  0  0  0  0  0  0  0  0  0
   -1.2346   -0.9613    1.0794 C   0  0  0  0  0  0  0  0  0  0  0  0
    0.5603    0.7258    0.2224 C   0  0  0  0  0  0  0  0  0  0  0  0
    0.0685   -0.4881    0.6990 C   0  0  0  0  0  0  0  0  0  0  0  0
    1.9703    0.5298   -0.0211 C   0  0  0  0  0  0  0  0  0  0  0  0
    2.2775   -0.7930    0.2797 C   0  0  0  0  0  0  0  0  0  0  0  0
   -2.2731   -1.0288   -2.0607 C   0  0  0  0  0  0  0  0  0  0  0  0
   -1.3309   -1.8217    2.1139 C   0  0  0  0  0  0  0  0  0  0  0  0
    3.0117    1.3689   -0.4766 C   0  0  0  0  0  0  0  0  0  0  0  0
    3.5640   -1.3279    0.1471 C   0  0  0  0  0  0  0  0  0  0  0  0
   -2.4573   -2.4951   -1.8738 C   0  0  0  0  0  0  0  0  0  0  0  0
    4.3055    0.8530   -0.6130 C   0  0  0  0  0  0  0  0  0  0  0  0
    4.5755   -0.4774   -0.3053 C   0  0  0  0  0  0  0  0  0  0  0  0
   -3.2588   -1.3674    0.4243 H   0  0  0  0  0  0  0  0  0  0  0  0
   -3.4273    0.3657    2.1630 H   0  0  0  0  0  0  0  0  0  0  0  0
   -4.1620    0.8615    0.6472 H   0  0  0  0  0  0  0  0  0  0  0  0
   -2.9593    2.7647    1.2512 H   0  0  0  0  0  0  0  0  0  0  0  0
   -1.6459    1.8720    1.9726 H   0  0  0  0  0  0  0  0  0  0  0  0
   -1.4856    1.5204   -2.1806 H   0  0  0  0  0  0  0  0  0  0  0  0
   -3.0902    1.7762   -1.5357 H   0  0  0  0  0  0  0  0  0  0  0  0
    0.1745    2.7313    0.8125 H   0  0  0  0  0  0  0  0  0  0  0  0
    0.3028    2.5079   -0.9094 H   0  0  0  0  0  0  0  0  0  0  0  0
    1.0429   -2.3611    0.9536 H   0  0  0  0  0  0  0  0  0  0  0  0
   -2.1175   -0.6833   -3.0794 H   0  0  0  0  0  0  0  0  0  0  0  0
   -2.2964   -2.2014    2.4355 H   0  0  0  0  0  0  0  0  0  0  0  0
   -0.4732   -2.1622    2.6854 H   0  0  0  0  0  0  0  0  0  0  0  0
    2.8202    2.4098   -0.7222 H   0  0  0  0  0  0  0  0  0  0  0  0
    3.7729   -2.3650    0.3874 H   0  0  0  0  0  0  0  0  0  0  0  0
   -3.4394   -2.7969   -2.2505 H   0  0  0  0  0  0  0  0  0  0  0  0
   -2.3573   -2.8481   -0.8461 H   0  0  0  0  0  0  0  0  0  0  0  0
   -1.6989   -3.0266   -2.4592 H   0  0  0  0  0  0  0  0  0  0  0  0
    5.1061    1.4988   -0.9635 H   0  0  0  0  0  0  0  0  0  0  0  0
    5.5862   -0.8609   -0.4182 H   0  0  0  0  0  0  0  0  0  0  0  0
  1  5  1  0  0  0  0
  1  6  1  0  0  0  0
  1  8  1  0  0  0  0
  2 11  1  0  0  0  0
  2 13  1  0  0  0  0
  2 30  1  0  0  0  0
  3  4  1  0  0  0  0
  3  7  1  0  0  0  0
  3  9  1  0  0  0  0
  3 21  1  0  0  0  0
  4  5  1  0  0  0  0
  4 22  1  0  0  0  0
  4 23  1  0  0  0  0
  5 24  1  0  0  0  0
  5 25  1  0  0  0  0
  6  7  1  0  0  0  0
  6 26  1  0  0  0  0
  6 27  1  0  0  0  0
  7 14  2  0  0  0  0
  8 10  1  0  0  0  0
  8 28  1  0  0  0  0
  8 29  1  0  0  0  0
  9 11  1  0  0  0  0
  9 15  2  0  0  0  0
 10 11  2  0  0  0  0
 10 12  1  0  0  0  0
 12 13  1  0  0  0  0
 12 16  2  0  0  0  0
 13 17  2  0  0  0  0
 14 18  1  0  0  0  0
 14 31  1  0  0  0  0
 15 32  1  0  0  0  0
 15 33  1  0  0  0  0
 16 19  1  0  0  0  0
 16 34  1  0  0  0  0
 17 20  1  0  0  0  0
 17 35  1  0  0  0  0
 18 36  1  0  0  0  0
 18 37  1  0  0  0  0
 18 38  1  0  0  0  0
 19 20  2  0  0  0  0
 19 39  1  0  0  0  0
 20 40  1  0  0  0  0
M  END
> <PUBCHEM_COMPOUND_CID>
5281349

> <PUBCHEM_CONFORMER_RMSD>
0.6

> <PUBCHEM_CONFORMER_DIVERSEORDER>
1
2

> <PUBCHEM_MMFF94_PARTIAL_CHARGES>
26
1 -0.81
10 -0.18
11 -0.2
13 -0.15
14 -0.29
15 -0.3
16 -0.15
17 -0.15
18 0.14
19 -0.15
2 0.03
20 -0.15
3 0.28
30 0.27
31 0.15
32 0.15
33 0.15
34 0.15
35 0.15
39 0.15
40 0.15
5 0.27
6 0.41
7 -0.28
8 0.45
9 -0.09

> <PUBCHEM_EFFECTIVE_ROTOR_COUNT>
0.8

> <PUBCHEM_PHARMACOPHORE_FEATURES>
7
1 1 cation
1 18 hydrophobe
1 2 cation
1 2 donor
5 2 10 11 12 13 rings
6 1 3 4 5 6 7 rings
6 12 13 16 17 19 20 rings

> <PUBCHEM_HEAVY_ATOM_COUNT>
20

> <PUBCHEM_ATOM_DEF_STEREO_COUNT>
1

> <PUBCHEM_ATOM_UDEF_STEREO_COUNT>
0

> <PUBCHEM_BOND_DEF_STEREO_COUNT>
1

> <PUBCHEM_BOND_UDEF_STEREO_COUNT>
0

> <PUBCHEM_ISOTOPIC_ATOM_COUNT>
0

> <PUBCHEM_COMPONENT_COUNT>
1

> <PUBCHEM_CACTVS_TAUTO_COUNT>
1

> <PUBCHEM_CONFORMER_ID>
0050964500000001

> <PUBCHEM_MMFF94_ENERGY>
55.5916

> <PUBCHEM_FEATURE_SELFOVERLAP>
35.609

> <PUBCHEM_SHAPE_FINGERPRINT>
10062212 137 18338807830884080042
10948715 1 18054508273305564361
11578080 2 17241621532566733849
121448 382 18270981054347049786
12173636 292 17560520719606160405
12714826 92 16660932084270436959
13024252 1 17774999103136466937
13140716 1 18272925016975351376
13224815 77 18410579466094333864
13583140 156 15267068012800908496
14142880 1 16343424011515976373
14817 1 7845951368248161399
14863182 85 15106016720478240315
15163728 17 16736327963425618057
16752209 62 17898036705000601581
16945 1 18116167712432361817
17349148 13 18130244700284905914
17357779 13 17485649243648880851
18186145 218 17846776330394205066
18219364 16 17203610384670263020
200 152 18409173190168364484
20600515 1 16412914095642878955
20775530 9 16738638822918112974
21634736 98 18263092011299646092
2306618 200 16988847163583667189
23402539 116 18342744026893058628
23419403 2 17338997435081784843
23559900 14 18343580777164902184
2748010 2 17551793616559426712
298252 57 17896882264914608193
4921388 177 17385437717819759078
8809292 202 17988630879318242922
90525 40 18188212125305179855
9709674 26 18341602746682299546

> <PUBCHEM_SHAPE_MULTIPOLES>
401.63
6.74
2.29
1.66
7.69
0.05
-0.18
-0.35
-1.3
-1.22
-0.21
-1.8
-0.86
-0.94

> <PUBCHEM_SHAPE_SELFOVERLAP>
887.227

> <PUBCHEM_SHAPE_VOLUME>
211.7

> <PUBCHEM_COORDINATE_TYPE>
2
5
10

$$$$

