14133
  -OEChem-06241222423D

 30 32  0     0  0  0  0  0  0999 V2000
    0.4355   -1.2449    0.0004 N   0  3  0  0  0  0  0  0  0  0  0  0
    0.4147    1.4858    0.0003 N   0  0  0  0  0  0  0  0  0  0  0  0
   -2.0274    2.8653    0.0001 N   0  0  0  0  0  0  0  0  0  0  0  0
   -4.3741   -1.3741   -0.0009 N   0  0  0  0  0  0  0  0  0  0  0  0
   -0.7491   -0.6090    0.0002 C   0  0  0  0  0  0  0  0  0  0  0  0
    1.6102   -0.5910    0.0005 C   0  0  0  0  0  0  0  0  0  0  0  0
   -0.7414    0.7974    0.0002 C   0  0  0  0  0  0  0  0  0  0  0  0
    1.5810    0.8152    0.0002 C   0  0  0  0  0  0  0  0  0  0  0  0
   -1.9464   -1.3329   -0.0001 C   0  0  0  0  0  0  0  0  0  0  0  0
   -1.9712    1.4495    0.0002 C   0  0  0  0  0  0  0  0  0  0  0  0
    0.4472   -2.7216    0.0004 C   0  0  0  0  0  0  0  0  0  0  0  0
   -3.1612   -0.6555   -0.0002 C   0  0  0  0  0  0  0  0  0  0  0  0
    2.8184   -1.2965    0.0001 C   0  0  0  0  0  0  0  0  0  0  0  0
   -3.1738    0.7361   -0.0001 C   0  0  0  0  0  0  0  0  0  0  0  0
    2.8007    1.4859   -0.0002 C   0  0  0  0  0  0  0  0  0  0  0  0
    4.0228   -0.6007   -0.0005 C   0  0  0  0  0  0  0  0  0  0  0  0
    4.0140    0.7910   -0.0008 C   0  0  0  0  0  0  0  0  0  0  0  0
   -2.0039   -2.4135    0.0470 H   0  0  0  0  0  0  0  0  0  0  0  0
   -0.3756   -3.1306   -0.5865 H   0  0  0  0  0  0  0  0  0  0  0  0
    1.3025   -3.1325   -0.5335 H   0  0  0  0  0  0  0  0  0  0  0  0
    0.4163   -3.0660    1.0369 H   0  0  0  0  0  0  0  0  0  0  0  0
    2.9123   -2.3734    0.0495 H   0  0  0  0  0  0  0  0  0  0  0  0
   -4.1221    1.2699   -0.0002 H   0  0  0  0  0  0  0  0  0  0  0  0
    2.8205    2.5739    0.0003 H   0  0  0  0  0  0  0  0  0  0  0  0
    4.9660   -1.1388    0.0105 H   0  0  0  0  0  0  0  0  0  0  0  0
    4.9514    1.3398    0.0013 H   0  0  0  0  0  0  0  0  0  0  0  0
   -2.9213    3.3380    0.0007 H   0  0  0  0  0  0  0  0  0  0  0  0
   -1.1693    3.4007    0.0009 H   0  0  0  0  0  0  0  0  0  0  0  0
   -5.2558   -0.8788    0.0001 H   0  0  0  0  0  0  0  0  0  0  0  0
   -4.3648   -2.3854   -0.0008 H   0  0  0  0  0  0  0  0  0  0  0  0
  1  5  2  0  0  0  0
  1  6  1  0  0  0  0
  1 11  1  0  0  0  0
  2  7  2  0  0  0  0
  2  8  1  0  0  0  0
  3 10  1  0  0  0  0
  3 27  1  0  0  0  0
  3 28  1  0  0  0  0
  4 12  1  0  0  0  0
  4 29  1  0  0  0  0
  4 30  1  0  0  0  0
  5  7  1  0  0  0  0
  5  9  1  0  0  0  0
  6  8  1  0  0  0  0
  6 13  2  0  0  0  0
  7 10  1  0  0  0  0
  8 15  2  0  0  0  0
  9 12  2  0  0  0  0
  9 18  1  0  0  0  0
 10 14  2  0  0  0  0
 11 19  1  0  0  0  0
 11 20  1  0  0  0  0
 11 21  1  0  0  0  0
 12 14  1  0  0  0  0
 13 16  1  0  0  0  0
 13 22  1  0  0  0  0
 14 23  1  0  0  0  0
 15 17  1  0  0  0  0
 15 24  1  0  0  0  0
 16 17  2  0  0  0  0
 16 25  1  0  0  0  0
 17 26  1  0  0  0  0
M  CHG  1   1   1
M  END
> <PUBCHEM_COMPOUND_CID>
14133

> <PUBCHEM_CONFORMER_RMSD>
0.4

> <PUBCHEM_CONFORMER_DIVERSEORDER>
1

> <PUBCHEM_MMFF94_PARTIAL_CHARGES>
27
1 -0.21
10 0.1
11 0.49
12 0.1
13 -0.15
14 -0.15
15 -0.15
16 -0.15
17 -0.15
18 0.15
2 -0.62
22 0.15
23 0.15
24 0.15
25 0.15
26 0.15
27 0.4
28 0.4
29 0.4
3 -0.9
30 0.4
4 -0.9
5 0.36
6 0.36
7 0.31
8 0.31
9 -0.15

> <PUBCHEM_EFFECTIVE_ROTOR_COUNT>
0

> <PUBCHEM_PHARMACOPHORE_FEATURES>
8
1 2 acceptor
1 3 cation
1 3 donor
1 4 cation
1 4 donor
6 1 2 5 6 7 8 rings
6 5 7 9 10 12 14 rings
6 6 8 13 15 16 17 rings

> <PUBCHEM_HEAVY_ATOM_COUNT>
17

> <PUBCHEM_ATOM_DEF_STEREO_COUNT>
0

> <PUBCHEM_ATOM_UDEF_STEREO_COUNT>
0

> <PUBCHEM_BOND_DEF_STEREO_COUNT>
0

> <PUBCHEM_BOND_UDEF_STEREO_COUNT>
0

> <PUBCHEM_ISOTOPIC_ATOM_COUNT>
0

> <PUBCHEM_COMPONENT_COUNT>
1

> <PUBCHEM_CACTVS_TAUTO_COUNT>
12

> <PUBCHEM_CONFORMER_ID>
0000373500000001

> <PUBCHEM_MMFF94_ENERGY>
90.4913

> <PUBCHEM_FEATURE_SELFOVERLAP>
40.664

> <PUBCHEM_SHAPE_FINGERPRINT>
10062212 137 18338810020906067754
10411042 1 15744724095338281938
10608611 8 18409732889090362712
10616163 171 18410009974467981159
10967382 1 18266741285690987526
11132069 177 18410016541472781952
11471102 20 18411142411209416950
11806522 49 18339081493146480655
12032990 46 18410289203102806518
12403259 226 18408891732604060288
13140716 1 17834682591304300032
13221675 6 18409731754997262118
13380535 76 18411981372978305410
13862211 1 18338522932750232791
14144814 61 18410856577088729712
14178342 30 18194695984107995576
14325111 11 18410575102128051044
14614273 12 18200881785039133141
15042514 8 18267304222944928922
15196674 1 18410855464438966340
15309172 13 18409158905160080483
15442244 35 18195529418364652682
15536298 74 18334575746288435766
16945 1 18122626316653266945
17492 89 18339363070944710139
17802600 8 18408890620175550800
17804303 29 18408600374996940932
18186145 218 18187919629685045440
193761 8 18122343755070968391
19591789 44 18410009974642372790
200 152 18186811262071965303
20510252 161 18333731316631132072
21267235 1 18410846651287803502
21501502 16 18340488992293753282
221490 88 18338790225718512818
2334 1 18410575084942842148
23366157 5 17914607504577358914
23402539 116 18335430014819646727
23463225 33 18341613741518554126
23559900 14 18045785847899995110
238 59 15829202463285733149
2748010 2 18410856581383742484
2871803 45 18412550907432940311
335352 9 17978228597312942206
350125 39 18410853261400831552
43471831 8 18342180002681368482
474 4 17058923339554515300
5104073 3 18410293626887382912
54173680 148 18124312701308337338
69090 78 18261396602718606078
7364860 26 18119810459006572966
7832392 63 18049160261189553352
8809292 202 18200870682432901227
9709674 26 18410005546467748150

> <PUBCHEM_SHAPE_MULTIPOLES>
329.93
6.83
2.45
0.6
0.59
0.09
0
-0.16
0
-0.71
0
0.03
-0.01
0

> <PUBCHEM_SHAPE_SELFOVERLAP>
743.826

> <PUBCHEM_SHAPE_VOLUME>
173.8

> <PUBCHEM_COORDINATE_TYPE>
2
5
10

$$$$

