853993
  -OEChem-06241222463D

 33 34  0     0  0  0  0  0  0999 V2000
    7.3692   -1.1551    0.9241 Br  0  0  0  0  0  0  0  0  0  0  0  0
   -1.5588    0.5196    0.0730 S   0  0  0  0  0  0  0  0  0  0  0  0
    1.2988    2.2723    0.4286 O   0  0  0  0  0  0  0  0  0  0  0  0
    1.7146    0.2898   -0.7615 N   0  0  0  0  0  0  0  0  0  0  0  0
   -3.0574    0.7149   -0.9388 C   0  0  0  0  0  0  0  0  0  0  0  0
   -4.2522    0.0707   -0.3205 C   0  0  0  0  0  0  0  0  0  0  0  0
   -0.4054    1.4073   -0.9978 C   0  0  0  0  0  0  0  0  0  0  0  0
    3.0320   -0.0472   -0.3682 C   0  0  0  0  0  0  0  0  0  0  0  0
   -5.0669    0.7990    0.5465 C   0  0  0  0  0  0  0  0  0  0  0  0
   -4.5547   -1.2600   -0.6089 C   0  0  0  0  0  0  0  0  0  0  0  0
    0.9665    1.3896   -0.3585 C   0  0  0  0  0  0  0  0  0  0  0  0
    3.6189   -1.1926   -0.8792 C   0  0  0  0  0  0  0  0  0  0  0  0
    3.7057    0.7764    0.5182 C   0  0  0  0  0  0  0  0  0  0  0  0
   -6.1840    0.1965    1.1251 C   0  0  0  0  0  0  0  0  0  0  0  0
   -5.6719   -1.8625   -0.0305 C   0  0  0  0  0  0  0  0  0  0  0  0
   -6.4864   -1.1342    0.8366 C   0  0  0  0  0  0  0  0  0  0  0  0
    4.9175   -1.5241   -0.4925 C   0  0  0  0  0  0  0  0  0  0  0  0
    5.0042    0.4449    0.9047 C   0  0  0  0  0  0  0  0  0  0  0  0
    5.6102   -0.7054    0.3995 C   0  0  0  0  0  0  0  0  0  0  0  0
   -2.8748    0.2859   -1.9310 H   0  0  0  0  0  0  0  0  0  0  0  0
   -3.2470    1.7840   -1.0903 H   0  0  0  0  0  0  0  0  0  0  0  0
   -0.7208    2.4492   -1.1134 H   0  0  0  0  0  0  0  0  0  0  0  0
   -0.3735    0.9452   -1.9894 H   0  0  0  0  0  0  0  0  0  0  0  0
   -4.8420    1.8363    0.7807 H   0  0  0  0  0  0  0  0  0  0  0  0
   -3.9278   -1.8393   -1.2818 H   0  0  0  0  0  0  0  0  0  0  0  0
    1.2800   -0.3610   -1.4122 H   0  0  0  0  0  0  0  0  0  0  0  0
    3.0881   -1.8369   -1.5744 H   0  0  0  0  0  0  0  0  0  0  0  0
    3.3075    1.6818    0.9512 H   0  0  0  0  0  0  0  0  0  0  0  0
   -6.8181    0.7634    1.8005 H   0  0  0  0  0  0  0  0  0  0  0  0
   -5.9073   -2.8988   -0.2547 H   0  0  0  0  0  0  0  0  0  0  0  0
   -7.3562   -1.6034    1.2871 H   0  0  0  0  0  0  0  0  0  0  0  0
    5.3751   -2.4240   -0.8954 H   0  0  0  0  0  0  0  0  0  0  0  0
    5.5315    1.0929    1.6005 H   0  0  0  0  0  0  0  0  0  0  0  0
  1 19  1  0  0  0  0
  2  5  1  0  0  0  0
  2  7  1  0  0  0  0
  3 11  2  0  0  0  0
  4  8  1  0  0  0  0
  4 11  1  0  0  0  0
  4 26  1  0  0  0  0
  5  6  1  0  0  0  0
  5 20  1  0  0  0  0
  5 21  1  0  0  0  0
  6  9  2  0  0  0  0
  6 10  1  0  0  0  0
  7 11  1  0  0  0  0
  7 22  1  0  0  0  0
  7 23  1  0  0  0  0
  8 12  2  0  0  0  0
  8 13  1  0  0  0  0
  9 14  1  0  0  0  0
  9 24  1  0  0  0  0
 10 15  2  0  0  0  0
 10 25  1  0  0  0  0
 12 17  1  0  0  0  0
 12 27  1  0  0  0  0
 13 18  2  0  0  0  0
 13 28  1  0  0  0  0
 14 16  2  0  0  0  0
 14 29  1  0  0  0  0
 15 16  1  0  0  0  0
 15 30  1  0  0  0  0
 16 31  1  0  0  0  0
 17 19  2  0  0  0  0
 17 32  1  0  0  0  0
 18 19  1  0  0  0  0
 18 33  1  0  0  0  0
M  END
> <PUBCHEM_COMPOUND_CID>
853993

> <PUBCHEM_CONFORMER_RMSD>
0.8

> <PUBCHEM_CONFORMER_DIVERSEORDER>
1
12
36
5
28
25
8
13
33
27
29
26
22
21
9
11
3
18
2
6
30
7
35
14
20
4
10
15
16
17
19
24
34
23
32
31

> <PUBCHEM_MMFF94_PARTIAL_CHARGES>
29
1 -0.11
10 -0.15
11 0.57
12 -0.15
13 -0.15
14 -0.15
15 -0.15
16 -0.15
17 -0.15
18 -0.15
19 0.11
2 -0.46
24 0.15
25 0.15
26 0.37
27 0.15
28 0.15
29 0.15
3 -0.57
30 0.15
31 0.15
32 0.15
33 0.15
4 -0.55
5 0.37
6 -0.14
7 0.29
8 0.12
9 -0.15

> <PUBCHEM_EFFECTIVE_ROTOR_COUNT>
6

> <PUBCHEM_PHARMACOPHORE_FEATURES>
5
1 1 hydrophobe
1 3 acceptor
1 4 donor
6 6 9 10 14 15 16 rings
6 8 12 13 17 18 19 rings

> <PUBCHEM_HEAVY_ATOM_COUNT>
19

> <PUBCHEM_ATOM_DEF_STEREO_COUNT>
0

> <PUBCHEM_ATOM_UDEF_STEREO_COUNT>
0

> <PUBCHEM_BOND_DEF_STEREO_COUNT>
0

> <PUBCHEM_BOND_UDEF_STEREO_COUNT>
0

> <PUBCHEM_ISOTOPIC_ATOM_COUNT>
0

> <PUBCHEM_COMPONENT_COUNT>
1

> <PUBCHEM_CACTVS_TAUTO_COUNT>
2

> <PUBCHEM_CONFORMER_ID>
000D07E900000001

> <PUBCHEM_MMFF94_ENERGY>
50.1306

> <PUBCHEM_FEATURE_SELFOVERLAP>
25.371

> <PUBCHEM_SHAPE_FINGERPRINT>
10670039 82 11240007762499884390
10693767 8 13829307116566379728
12166972 35 17704069603760277908
12516196 113 18409165511099453832
12596602 18 17676487233337838507
12616971 3 17240773852099149308
13403585 85 17095240350126790137
13668630 136 16271926025503820954
13685833 64 18342175570485556744
13862211 1 17988926673362548595
14123256 34 18273210906798718006
14251751 18 18411136922657944021
14251757 52 6050151252037233314
14251764 18 18408322155373260806
14341114 176 17821443564693295760
14528608 73 10592044639750111637
14729087 3 7348883378384814450
14849402 71 18042407915792837216
15003188 100 10303801073543142831
15183329 4 12967134929735305790
15348495 7 17749113240501065003
15716309 27 18342738511780465093
16988056 13 12031490078864335582
17780758 139 18259703415621731777
17844677 252 17918273151827210429
190975 80 18410299073406969376
20281389 69 5400804947052605651
20526848 3 6338951183390201482
21150785 3 14836117754440205550
21521239 73 14548741742263657216
21623969 137 18259703415110165486
21637258 2 17632864130880084460
221357 26 12175625070490443598
22224240 67 17022630775381629502
22288116 15 11095586884869979177
23402655 69 10807938162816262877
23522609 53 18055602166673642805
23559900 14 16558176095763104501
2767999 5 6555410903446773211
2838139 119 9079112250136278974
3004659 81 16988562398941576252
312425 54 18187640345078592931
34797466 226 12391510897675962587
351380 3 18060701688965278355
465052 167 18409169926853030158
5104073 3 18041551422457303065
543368 44 8358264739961232667
559249 180 18341895195711511839

> <PUBCHEM_SHAPE_MULTIPOLES>
389.95
20.7
1.79
1.08
0.54
0.02
-0.05
-11.14
-6.77
0.25
0.08
0.04
-0.02
0.18

> <PUBCHEM_SHAPE_SELFOVERLAP>
791.204

> <PUBCHEM_SHAPE_VOLUME>
232

> <PUBCHEM_COORDINATE_TYPE>
2
5
10

$$$$

