443682
  -OEChem-07051213023D

 45 49  0     1  0  0  0  0  0999 V2000
   -0.2733    2.7304   -1.0739 O   0  0  0  0  0  0  0  0  0  0  0  0
   -0.2451    2.4709    1.2709 O   0  0  0  0  0  0  0  0  0  0  0  0
   -2.9531   -2.9596   -0.9467 O   0  0  0  0  0  0  0  0  0  0  0  0
    3.3525   -2.2157    0.9204 O   0  0  0  0  0  0  0  0  0  0  0  0
    4.8421   -0.5594    0.0036 O   0  0  0  0  0  0  0  0  0  0  0  0
   -2.7913    1.0059    0.8946 N   0  0  2  0  0  0  0  0  0  0  0  0
   -0.6959    0.5170   -0.1780 C   0  0  1  0  0  0  0  0  0  0  0  0
   -1.6628    0.0257    0.9326 C   0  0  2  0  0  0  0  0  0  0  0  0
   -0.8432    2.0469    0.0324 C   0  0  2  0  0  0  0  0  0  0  0  0
   -2.3478    2.2208    0.1787 C   0  0  0  0  0  0  0  0  0  0  0  0
   -2.2082   -1.3896    0.6979 C   0  0  0  0  0  0  0  0  0  0  0  0
    0.7952    0.2288   -0.0820 C   0  0  0  0  0  0  0  0  0  0  0  0
   -1.1711    0.0453   -1.5603 C   0  0  0  0  0  0  0  0  0  0  0  0
   -2.8703   -1.5631   -0.6711 C   0  0  1  0  0  0  0  0  0  0  0  0
    1.6822    1.2110   -0.6215 C   0  0  0  0  0  0  0  0  0  0  0  0
   -2.1254   -0.8726   -1.7707 C   0  0  0  0  0  0  0  0  0  0  0  0
    1.1483    2.5266   -1.1665 C   0  0  0  0  0  0  0  0  0  0  0  0
   -3.3021    1.3021    2.2286 C   0  0  0  0  0  0  0  0  0  0  0  0
    1.3157   -0.9552    0.4558 C   0  0  0  0  0  0  0  0  0  0  0  0
    3.0684    0.9939   -0.6208 C   0  0  0  0  0  0  0  0  0  0  0  0
    2.6858   -1.1292    0.4412 C   0  0  0  0  0  0  0  0  0  0  0  0
    3.5363   -0.1855   -0.0830 C   0  0  0  0  0  0  0  0  0  0  0  0
   -3.6548   -3.6480    0.0775 C   0  0  0  0  0  0  0  0  0  0  0  0
    4.7181   -1.8471    0.6402 C   0  0  0  0  0  0  0  0  0  0  0  0
   -1.1543    0.0589    1.9065 H   0  0  0  0  0  0  0  0  0  0  0  0
   -2.6173    3.1477    0.6988 H   0  0  0  0  0  0  0  0  0  0  0  0
   -2.8375    2.2563   -0.8015 H   0  0  0  0  0  0  0  0  0  0  0  0
   -2.9246   -1.6231    1.4962 H   0  0  0  0  0  0  0  0  0  0  0  0
   -1.3998   -2.1194    0.8157 H   0  0  0  0  0  0  0  0  0  0  0  0
   -0.7010    0.4876   -2.4366 H   0  0  0  0  0  0  0  0  0  0  0  0
   -3.8887   -1.1532   -0.6574 H   0  0  0  0  0  0  0  0  0  0  0  0
   -2.3985   -1.1170   -2.7939 H   0  0  0  0  0  0  0  0  0  0  0  0
    1.6252    3.3530   -0.6264 H   0  0  0  0  0  0  0  0  0  0  0  0
    1.4151    2.6163   -2.2249 H   0  0  0  0  0  0  0  0  0  0  0  0
   -3.6493    0.3886    2.7228 H   0  0  0  0  0  0  0  0  0  0  0  0
   -2.5471    1.7736    2.8674 H   0  0  0  0  0  0  0  0  0  0  0  0
   -4.1661    1.9726    2.1649 H   0  0  0  0  0  0  0  0  0  0  0  0
   -0.6435    3.3210    1.5218 H   0  0  0  0  0  0  0  0  0  0  0  0
    0.6826   -1.7265    0.8725 H   0  0  0  0  0  0  0  0  0  0  0  0
    3.7524    1.7337   -1.0229 H   0  0  0  0  0  0  0  0  0  0  0  0
   -4.5700   -3.1233    0.3707 H   0  0  0  0  0  0  0  0  0  0  0  0
   -3.0148   -3.8359    0.9443 H   0  0  0  0  0  0  0  0  0  0  0  0
   -3.9448   -4.6252   -0.3211 H   0  0  0  0  0  0  0  0  0  0  0  0
    5.2770   -1.8280    1.5829 H   0  0  0  0  0  0  0  0  0  0  0  0
    5.1593   -2.6067   -0.0152 H   0  0  0  0  0  0  0  0  0  0  0  0
  1  9  1  0  0  0  0
  1 17  1  0  0  0  0
  2  9  1  0  0  0  0
  2 38  1  0  0  0  0
  3 14  1  0  0  0  0
  3 23  1  0  0  0  0
  4 21  1  0  0  0  0
  4 24  1  0  0  0  0
  5 22  1  0  0  0  0
  5 24  1  0  0  0  0
  6  8  1  0  0  0  0
  6 10  1  0  0  0  0
  6 18  1  0  0  0  0
  7  8  1  0  0  0  0
  7  9  1  0  0  0  0
  7 12  1  0  0  0  0
  7 13  1  0  0  0  0
  8 11  1  0  0  0  0
  8 25  1  0  0  0  0
  9 10  1  0  0  0  0
 10 26  1  0  0  0  0
 10 27  1  0  0  0  0
 11 14  1  0  0  0  0
 11 28  1  0  0  0  0
 11 29  1  0  0  0  0
 12 15  1  0  0  0  0
 12 19  2  0  0  0  0
 13 16  2  0  0  0  0
 13 30  1  0  0  0  0
 14 16  1  0  0  0  0
 14 31  1  0  0  0  0
 15 17  1  0  0  0  0
 15 20  2  0  0  0  0
 16 32  1  0  0  0  0
 17 33  1  0  0  0  0
 17 34  1  0  0  0  0
 18 35  1  0  0  0  0
 18 36  1  0  0  0  0
 18 37  1  0  0  0  0
 19 21  1  0  0  0  0
 19 39  1  0  0  0  0
 20 22  1  0  0  0  0
 20 40  1  0  0  0  0
 21 22  2  0  0  0  0
 23 41  1  0  0  0  0
 23 42  1  0  0  0  0
 23 43  1  0  0  0  0
 24 44  1  0  0  0  0
 24 45  1  0  0  0  0
M  END
> <PUBCHEM_COMPOUND_CID>
443682

> <PUBCHEM_CONFORMER_RMSD>
0.6

> <PUBCHEM_CONFORMER_DIVERSEORDER>
1

> <PUBCHEM_MMFF94_PARTIAL_CHARGES>
28
1 -0.56
10 0.27
12 -0.14
13 -0.29
14 0.42
15 -0.14
16 -0.29
17 0.42
18 0.27
19 -0.15
2 -0.68
20 -0.15
21 0.08
22 0.08
23 0.28
24 0.56
3 -0.56
30 0.15
32 0.15
38 0.4
39 0.15
4 -0.36
40 0.15
5 -0.36
6 -0.81
7 0.28
8 0.27
9 0.56

> <PUBCHEM_EFFECTIVE_ROTOR_COUNT>
2.8

> <PUBCHEM_PHARMACOPHORE_FEATURES>
12
1 1 acceptor
1 2 acceptor
1 2 donor
1 3 acceptor
1 4 acceptor
1 5 acceptor
1 6 cation
5 4 5 21 22 24 rings
5 6 7 8 9 10 rings
6 1 7 9 12 15 17 rings
6 12 15 19 20 21 22 rings
6 7 8 11 13 14 16 rings

> <PUBCHEM_HEAVY_ATOM_COUNT>
24

> <PUBCHEM_ATOM_DEF_STEREO_COUNT>
4

> <PUBCHEM_ATOM_UDEF_STEREO_COUNT>
0

> <PUBCHEM_BOND_DEF_STEREO_COUNT>
0

> <PUBCHEM_BOND_UDEF_STEREO_COUNT>
0

> <PUBCHEM_ISOTOPIC_ATOM_COUNT>
0

> <PUBCHEM_COMPONENT_COUNT>
1

> <PUBCHEM_CACTVS_TAUTO_COUNT>
1

> <PUBCHEM_CONFORMER_ID>
0006C52200000001

> <PUBCHEM_MMFF94_ENERGY>
81.5673

> <PUBCHEM_FEATURE_SELFOVERLAP>
61.485

> <PUBCHEM_SHAPE_FINGERPRINT>
10616163 171 18408887373381332798
11135609 187 17769089043285526340
11552529 35 18040158422212545858
11578080 2 18190203241958469937
11725454 13 14925344359779386737
12403814 3 18269554021118939153
12506688 2 18124318194671631807
12553582 1 18201433727249824362
12596599 1 18335409184376083966
12633257 1 17896040008784737824
12788726 201 17897989275608186275
12824470 246 18339927004534533479
13004483 165 18262526883872106483
13140716 1 18334293167141406280
13224815 77 18410302410681025904
13583140 156 15430331264678336734
13911987 19 17268616609082523076
14787075 74 17610895695484824720
14863182 85 14894036487764392601
15099037 8 18339081488629986663
16945 1 18189884495297236197
18927931 339 18057889250423801434
19141452 34 18338233889760974224
200 152 18342184340598071038
20261772 1 18339353197167298258
20291156 8 18338239258444103822
20775530 9 18198352761955883595
21033648 29 17974022935299205040
21421861 104 18049414008353630675
21731516 1 18115876187311215583
22112679 90 18261383421395448421
23419403 2 17608978297329235677
23559900 14 18267600030042129832
23598288 3 18186798050356995613
23728640 28 18193562387493092729
25147074 1 18266722619863716269
2748010 2 17403166492234826141
312423 11 18337945702082812910
34934 24 18128818719123406832
392239 28 17608948477703089864
427121 178 16663427018288597929
46194498 28 16913704194327779615
463206 1 17979360750413735910
5104073 3 18187938296093203002
6992083 37 18338227266953318517
7097593 13 18338791320897756384
7471813 234 18044948878357706615

> <PUBCHEM_SHAPE_MULTIPOLES>
459.58
7.21
3.48
1.45
6.1
0.9
-0.09
5.55
-1.43
-2.35
0.12
-1.15
-0.35
-1.89

> <PUBCHEM_SHAPE_SELFOVERLAP>
1027.709

> <PUBCHEM_SHAPE_VOLUME>
241.6

> <PUBCHEM_COORDINATE_TYPE>
2
5
10

$$$$

