83845
  -OEChem-07051213033D

 69 73  0     1  0  0  0  0  0999 V2000
   -2.4468    0.5043    0.2245 O   0  0  0  0  0  0  0  0  0  0  0  0
   -3.0687   -2.0070   -0.8962 O   0  0  0  0  0  0  0  0  0  0  0  0
   -4.6945    1.2260    0.4567 O   0  0  0  0  0  0  0  0  0  0  0  0
   -3.4677   -4.7059   -0.4219 O   0  0  0  0  0  0  0  0  0  0  0  0
   -5.4585    3.8145   -0.5623 O   0  0  0  0  0  0  0  0  0  0  0  0
    0.3292    1.4682    1.3025 O   0  0  0  0  0  0  0  0  0  0  0  0
    1.3942   -3.5478   -0.7365 O   0  0  0  0  0  0  0  0  0  0  0  0
    2.7185    2.0767    0.8259 O   0  0  0  0  0  0  0  0  0  0  0  0
    3.7672   -2.7914   -1.1104 O   0  0  0  0  0  0  0  0  0  0  0  0
    5.1367    2.8411    0.4525 O   0  0  0  0  0  0  0  0  0  0  0  0
   -2.7769    4.6245   -1.1282 N   0  0  0  0  0  0  0  0  0  0  0  0
   -2.6345   -2.5858    0.3369 C   0  0  2  0  0  0  0  0  0  0  0  0
   -2.6995   -1.5437    1.4647 C   0  0  0  0  0  0  0  0  0  0  0  0
   -1.8024   -0.3335    1.1851 C   0  0  1  0  0  0  0  0  0  0  0  0
   -1.1920   -3.0822    0.1499 C   0  0  0  0  0  0  0  0  0  0  0  0
   -0.4197   -0.7146    0.7113 C   0  0  0  0  0  0  0  0  0  0  0  0
   -0.1457   -1.9913    0.1932 C   0  0  0  0  0  0  0  0  0  0  0  0
   -3.5633   -3.7651    0.6384 C   0  0  1  0  0  0  0  0  0  0  0  0
   -3.3360    1.4222    0.8543 C   0  0  2  0  0  0  0  0  0  0  0  0
   -2.8804    2.8553    0.5729 C   0  0  0  0  0  0  0  0  0  0  0  0
   -3.1231    3.2236   -0.8952 C   0  0  1  0  0  0  0  0  0  0  0  0
   -4.5827    2.9426   -1.2789 C   0  0  1  0  0  0  0  0  0  0  0  0
    0.6085    0.2425    0.7644 C   0  0  0  0  0  0  0  0  0  0  0  0
    1.1543   -2.2934   -0.2468 C   0  0  0  0  0  0  0  0  0  0  0  0
   -4.9396    1.4898   -0.9313 C   0  0  2  0  0  0  0  0  0  0  0  0
    1.8979   -0.0649    0.3156 C   0  0  0  0  0  0  0  0  0  0  0  0
    2.1709   -1.3334   -0.1900 C   0  0  0  0  0  0  0  0  0  0  0  0
   -5.0035   -3.3138    0.7905 C   0  0  0  0  0  0  0  0  0  0  0  0
   -6.4071    1.1729   -1.1992 C   0  0  0  0  0  0  0  0  0  0  0  0
    2.9594    0.9603    0.3833 C   0  0  0  0  0  0  0  0  0  0  0  0
    3.5274   -1.6760   -0.6647 C   0  0  0  0  0  0  0  0  0  0  0  0
    4.3164    0.6194   -0.0899 C   0  0  0  0  0  0  0  0  0  0  0  0
    4.5905   -0.6530   -0.5955 C   0  0  0  0  0  0  0  0  0  0  0  0
    5.3324    1.5805   -0.0294 C   0  0  0  0  0  0  0  0  0  0  0  0
    5.8808   -0.9645   -1.0406 C   0  0  0  0  0  0  0  0  0  0  0  0
    6.6167    1.2662   -0.4744 C   0  0  0  0  0  0  0  0  0  0  0  0
    6.8903   -0.0036   -0.9788 C   0  0  0  0  0  0  0  0  0  0  0  0
    5.3510    3.0407    1.8477 C   0  0  0  0  0  0  0  0  0  0  0  0
   -2.3884   -2.0172    2.4056 H   0  0  0  0  0  0  0  0  0  0  0  0
   -3.7224   -1.1797    1.5999 H   0  0  0  0  0  0  0  0  0  0  0  0
   -1.6932    0.1660    2.1575 H   0  0  0  0  0  0  0  0  0  0  0  0
   -1.1244   -3.6002   -0.8154 H   0  0  0  0  0  0  0  0  0  0  0  0
   -0.9473   -3.7952    0.9484 H   0  0  0  0  0  0  0  0  0  0  0  0
   -3.2501   -4.2786    1.5546 H   0  0  0  0  0  0  0  0  0  0  0  0
   -3.3411    1.2961    1.9432 H   0  0  0  0  0  0  0  0  0  0  0  0
   -1.8232    2.9912    0.8154 H   0  0  0  0  0  0  0  0  0  0  0  0
   -3.4535    3.5360    1.2164 H   0  0  0  0  0  0  0  0  0  0  0  0
   -2.4704    2.6091   -1.5278 H   0  0  0  0  0  0  0  0  0  0  0  0
   -4.7295    3.1273   -2.3502 H   0  0  0  0  0  0  0  0  0  0  0  0
   -4.3272    0.8051   -1.5316 H   0  0  0  0  0  0  0  0  0  0  0  0
   -2.9226   -2.6496   -1.6103 H   0  0  0  0  0  0  0  0  0  0  0  0
   -5.6623   -4.1893    0.8330 H   0  0  0  0  0  0  0  0  0  0  0  0
   -5.1702   -2.7420    1.7071 H   0  0  0  0  0  0  0  0  0  0  0  0
   -5.3474   -2.7220   -0.0645 H   0  0  0  0  0  0  0  0  0  0  0  0
   -3.9355   -4.3459   -1.1940 H   0  0  0  0  0  0  0  0  0  0  0  0
   -6.6837    1.4051   -2.2319 H   0  0  0  0  0  0  0  0  0  0  0  0
   -6.5965    0.1080   -1.0223 H   0  0  0  0  0  0  0  0  0  0  0  0
   -7.0709    1.7162   -0.5183 H   0  0  0  0  0  0  0  0  0  0  0  0
   -1.8228    4.7993   -0.8151 H   0  0  0  0  0  0  0  0  0  0  0  0
   -3.3748    5.2256   -0.5619 H   0  0  0  0  0  0  0  0  0  0  0  0
   -6.3259    3.7883   -1.0002 H   0  0  0  0  0  0  0  0  0  0  0  0
   -0.5906    1.5554    1.5807 H   0  0  0  0  0  0  0  0  0  0  0  0
    0.8065   -4.1974   -0.3197 H   0  0  0  0  0  0  0  0  0  0  0  0
    6.1196   -1.9472   -1.4381 H   0  0  0  0  0  0  0  0  0  0  0  0
    7.4114    2.0065   -0.4322 H   0  0  0  0  0  0  0  0  0  0  0  0
    7.8911   -0.2458   -1.3247 H   0  0  0  0  0  0  0  0  0  0  0  0
    4.8671    2.2624    2.4467 H   0  0  0  0  0  0  0  0  0  0  0  0
    4.9280    4.0102    2.1246 H   0  0  0  0  0  0  0  0  0  0  0  0
    6.4247    3.0546    2.0597 H   0  0  0  0  0  0  0  0  0  0  0  0
  1 14  1  0  0  0  0
  1 19  1  0  0  0  0
  2 12  1  0  0  0  0
  2 51  1  0  0  0  0
  3 19  1  0  0  0  0
  3 25  1  0  0  0  0
  4 18  1  0  0  0  0
  4 55  1  0  0  0  0
  5 22  1  0  0  0  0
  5 61  1  0  0  0  0
  6 23  1  0  0  0  0
  6 62  1  0  0  0  0
  7 24  1  0  0  0  0
  7 63  1  0  0  0  0
  8 30  2  0  0  0  0
  9 31  2  0  0  0  0
 10 34  1  0  0  0  0
 10 38  1  0  0  0  0
 11 21  1  0  0  0  0
 11 59  1  0  0  0  0
 11 60  1  0  0  0  0
 12 13  1  0  0  0  0
 12 15  1  0  0  0  0
 12 18  1  0  0  0  0
 13 14  1  0  0  0  0
 13 39  1  0  0  0  0
 13 40  1  0  0  0  0
 14 16  1  0  0  0  0
 14 41  1  0  0  0  0
 15 17  1  0  0  0  0
 15 42  1  0  0  0  0
 15 43  1  0  0  0  0
 16 17  2  0  0  0  0
 16 23  1  0  0  0  0
 17 24  1  0  0  0  0
 18 28  1  0  0  0  0
 18 44  1  0  0  0  0
 19 20  1  0  0  0  0
 19 45  1  0  0  0  0
 20 21  1  0  0  0  0
 20 46  1  0  0  0  0
 20 47  1  0  0  0  0
 21 22  1  0  0  0  0
 21 48  1  0  0  0  0
 22 25  1  0  0  0  0
 22 49  1  0  0  0  0
 23 26  2  0  0  0  0
 24 27  2  0  0  0  0
 25 29  1  0  0  0  0
 25 50  1  0  0  0  0
 26 27  1  0  0  0  0
 26 30  1  0  0  0  0
 27 31  1  0  0  0  0
 28 52  1  0  0  0  0
 28 53  1  0  0  0  0
 28 54  1  0  0  0  0
 29 56  1  0  0  0  0
 29 57  1  0  0  0  0
 29 58  1  0  0  0  0
 30 32  1  0  0  0  0
 31 33  1  0  0  0  0
 32 33  2  0  0  0  0
 32 34  1  0  0  0  0
 33 35  1  0  0  0  0
 34 36  2  0  0  0  0
 35 37  2  0  0  0  0
 35 64  1  0  0  0  0
 36 37  1  0  0  0  0
 36 65  1  0  0  0  0
 37 66  1  0  0  0  0
 38 67  1  0  0  0  0
 38 68  1  0  0  0  0
 38 69  1  0  0  0  0
M  END
> <PUBCHEM_COMPOUND_CID>
83845

> <PUBCHEM_CONFORMER_RMSD>
1

> <PUBCHEM_CONFORMER_DIVERSEORDER>
1
6
8
9
4
5
2
3
7
10

> <PUBCHEM_MMFF94_PARTIAL_CHARGES>
44
1 -0.56
10 -0.36
11 -0.99
12 0.28
14 0.42
15 0.14
16 -0.14
17 -0.14
18 0.28
19 0.56
2 -0.68
21 0.27
22 0.28
23 0.08
24 0.08
25 0.28
26 0.09
27 0.09
3 -0.56
30 0.4
31 0.4
32 0.09
33 0.09
34 0.08
35 -0.15
36 -0.15
37 -0.15
38 0.28
4 -0.68
5 -0.68
51 0.4
55 0.4
59 0.36
6 -0.53
60 0.36
61 0.4
62 0.45
63 0.45
64 0.15
65 0.15
66 0.15
7 -0.53
8 -0.57
9 -0.57

> <PUBCHEM_EFFECTIVE_ROTOR_COUNT>
6

> <PUBCHEM_PHARMACOPHORE_FEATURES>
20
1 1 acceptor
1 10 acceptor
1 11 cation
1 11 donor
1 2 acceptor
1 2 donor
1 3 acceptor
1 4 acceptor
1 4 donor
1 5 acceptor
1 5 donor
1 6 donor
1 7 donor
1 8 acceptor
1 9 acceptor
6 12 13 14 15 16 17 rings
6 16 17 23 24 26 27 rings
6 26 27 30 31 32 33 rings
6 3 19 20 21 22 25 rings
6 32 33 34 35 36 37 rings

> <PUBCHEM_HEAVY_ATOM_COUNT>
38

> <PUBCHEM_ATOM_DEF_STEREO_COUNT>
6

> <PUBCHEM_ATOM_UDEF_STEREO_COUNT>
1

> <PUBCHEM_BOND_DEF_STEREO_COUNT>
0

> <PUBCHEM_BOND_UDEF_STEREO_COUNT>
0

> <PUBCHEM_ISOTOPIC_ATOM_COUNT>
0

> <PUBCHEM_COMPONENT_COUNT>
1

> <PUBCHEM_CACTVS_TAUTO_COUNT>
27

> <PUBCHEM_CONFORMER_ID>
0001478500000001

> <PUBCHEM_MMFF94_ENERGY>
135.2349

> <PUBCHEM_FEATURE_SELFOVERLAP>
101.619

> <PUBCHEM_SHAPE_FINGERPRINT>
10050765 1 18412543236848852466
10258939 38 18267299820656257170
10675989 125 17474104779230764705
11578080 2 18272083941945994214
12107183 9 17985277506757242642
12788726 201 18201166434297739579
13383668 254 16081087031029568970
13617811 41 17907578030187328974
13944108 23 16902437949090894612
14040221 97 17756151090220222128
14068700 686 18264488373960956986
14415360 78 18263637545567559457
14713325 29 18412260606404087371
14790565 3 18051128400215384297
15064981 194 18339624690730443725
15198563 99 18340491050506319863
17899979 129 17764593514191932973
18608769 82 18411695462075838195
19958102 18 18338236067488949373
21033648 144 18335977644635148973
21033648 29 18411142394863367936
21279426 13 18261944216182525158
21360443 126 18343024389357084823
21859007 373 18411149047931447632
22393880 68 18409727353199265170
23559900 14 18187920751094068090
23569914 152 17247508601579884182
23576562 1 18200014172324720012
255183 451 17616537255836201463
3380486 145 18266721521026952201
350125 39 18189323585632628922
4015057 19 17967813894373433304
44249763 50 18337400352884557224
508706 21 18410577245263802394
5283173 99 18411135823198940330
6086070 43 18334296483626123298
6697151 62 17313943147799320038
6700243 42 17902752376711351671

> <PUBCHEM_SHAPE_MULTIPOLES>
718.35
15.61
5.7
1.27
11.32
0.28
-0.14
-8.38
3.86
-7.97
0.7
-0.04
-0.48
3.74

> <PUBCHEM_SHAPE_SELFOVERLAP>
1585.484

> <PUBCHEM_SHAPE_VOLUME>
379.9

> <PUBCHEM_COORDINATE_TYPE>
2
5
10

$$$$

