442405
  -OEChem-07051212583D

 38 39  0     1  0  0  0  0  0999 V2000
    4.3279   -0.9296   -0.0728 O   0  0  0  0  0  0  0  0  0  0  0  0
    0.3887    0.4205   -0.1602 C   0  0  2  0  0  0  0  0  0  0  0  0
    1.4953    1.3577    0.4339 C   0  0  1  0  0  0  0  0  0  0  0  0
   -0.9846    0.7285    0.5061 C   0  0  0  0  0  0  0  0  0  0  0  0
    0.7812   -1.0280    0.1558 C   0  0  0  0  0  0  0  0  0  0  0  0
   -0.3249   -2.0090    0.4879 C   0  0  0  0  0  0  0  0  0  0  0  0
    2.8919    0.9844   -0.0874 C   0  0  0  0  0  0  0  0  0  0  0  0
   -2.0789   -0.2448    0.1245 C   0  0  0  0  0  0  0  0  0  0  0  0
    0.2716    0.5994   -1.6948 C   0  0  0  0  0  0  0  0  0  0  0  0
   -1.6645   -1.6651   -0.1607 C   0  0  0  0  0  0  0  0  0  0  0  0
    1.2625    2.8566    0.2089 C   0  0  0  0  0  0  0  0  0  0  0  0
    2.0583   -1.4378    0.2232 C   0  0  0  0  0  0  0  0  0  0  0  0
    3.1807   -0.4946    0.0197 C   0  0  0  0  0  0  0  0  0  0  0  0
   -3.3621    0.1369    0.0389 C   0  0  0  0  0  0  0  0  0  0  0  0
   -3.7917    1.5468    0.3195 C   0  0  0  0  0  0  0  0  0  0  0  0
   -4.4515   -0.8219   -0.3424 C   0  0  0  0  0  0  0  0  0  0  0  0
    1.5068    1.2044    1.5242 H   0  0  0  0  0  0  0  0  0  0  0  0
   -1.2657    1.7494    0.2305 H   0  0  0  0  0  0  0  0  0  0  0  0
   -0.8754    0.7050    1.5991 H   0  0  0  0  0  0  0  0  0  0  0  0
   -0.0400   -3.0257    0.1892 H   0  0  0  0  0  0  0  0  0  0  0  0
   -0.4524   -2.0212    1.5790 H   0  0  0  0  0  0  0  0  0  0  0  0
    3.6482    1.5122    0.5065 H   0  0  0  0  0  0  0  0  0  0  0  0
    3.0229    1.2809   -1.1337 H   0  0  0  0  0  0  0  0  0  0  0  0
    1.2256    0.4303   -2.2046 H   0  0  0  0  0  0  0  0  0  0  0  0
   -0.4405   -0.0987   -2.1450 H   0  0  0  0  0  0  0  0  0  0  0  0
   -0.0700    1.6072   -1.9530 H   0  0  0  0  0  0  0  0  0  0  0  0
   -2.3967   -2.3804    0.2316 H   0  0  0  0  0  0  0  0  0  0  0  0
   -1.5974   -1.8213   -1.2438 H   0  0  0  0  0  0  0  0  0  0  0  0
    2.0653    3.4393    0.6751 H   0  0  0  0  0  0  0  0  0  0  0  0
    1.2493    3.1141   -0.8543 H   0  0  0  0  0  0  0  0  0  0  0  0
    0.3250    3.1937    0.6591 H   0  0  0  0  0  0  0  0  0  0  0  0
    2.3167   -2.4655    0.4558 H   0  0  0  0  0  0  0  0  0  0  0  0
   -3.7603    2.1451   -0.5965 H   0  0  0  0  0  0  0  0  0  0  0  0
   -4.8228    1.5594    0.6918 H   0  0  0  0  0  0  0  0  0  0  0  0
   -3.1954    2.0365    1.0948 H   0  0  0  0  0  0  0  0  0  0  0  0
   -4.9910   -1.1543    0.5502 H   0  0  0  0  0  0  0  0  0  0  0  0
   -5.1695   -0.3224   -1.0035 H   0  0  0  0  0  0  0  0  0  0  0  0
   -4.1076   -1.7012   -0.8926 H   0  0  0  0  0  0  0  0  0  0  0  0
  1 13  2  0  0  0  0
  2  3  1  0  0  0  0
  2  4  1  0  0  0  0
  2  5  1  0  0  0  0
  2  9  1  0  0  0  0
  3  7  1  0  0  0  0
  3 11  1  0  0  0  0
  3 17  1  0  0  0  0
  4  8  1  0  0  0  0
  4 18  1  0  0  0  0
  4 19  1  0  0  0  0
  5  6  1  0  0  0  0
  5 12  2  0  0  0  0
  6 10  1  0  0  0  0
  6 20  1  0  0  0  0
  6 21  1  0  0  0  0
  7 13  1  0  0  0  0
  7 22  1  0  0  0  0
  7 23  1  0  0  0  0
  8 10  1  0  0  0  0
  8 14  2  0  0  0  0
  9 24  1  0  0  0  0
  9 25  1  0  0  0  0
  9 26  1  0  0  0  0
 10 27  1  0  0  0  0
 10 28  1  0  0  0  0
 11 29  1  0  0  0  0
 11 30  1  0  0  0  0
 11 31  1  0  0  0  0
 12 13  1  0  0  0  0
 12 32  1  0  0  0  0
 14 15  1  0  0  0  0
 14 16  1  0  0  0  0
 15 33  1  0  0  0  0
 15 34  1  0  0  0  0
 15 35  1  0  0  0  0
 16 36  1  0  0  0  0
 16 37  1  0  0  0  0
 16 38  1  0  0  0  0
M  END
> <PUBCHEM_COMPOUND_CID>
442405

> <PUBCHEM_CONFORMER_RMSD>
0.6

> <PUBCHEM_CONFORMER_DIVERSEORDER>
1
2
3

> <PUBCHEM_MMFF94_PARTIAL_CHARGES>
14
1 -0.57
10 0.14
12 -0.14
13 0.49
14 -0.28
15 0.14
16 0.14
2 0.14
32 0.15
4 0.14
5 -0.28
6 0.14
7 0.06
8 -0.28

> <PUBCHEM_EFFECTIVE_ROTOR_COUNT>
1

> <PUBCHEM_PHARMACOPHORE_FEATURES>
4
1 1 acceptor
3 14 15 16 hydrophobe
6 2 3 5 7 12 13 rings
6 2 4 5 6 8 10 rings

> <PUBCHEM_HEAVY_ATOM_COUNT>
16

> <PUBCHEM_ATOM_DEF_STEREO_COUNT>
2

> <PUBCHEM_ATOM_UDEF_STEREO_COUNT>
0

> <PUBCHEM_BOND_DEF_STEREO_COUNT>
0

> <PUBCHEM_BOND_UDEF_STEREO_COUNT>
0

> <PUBCHEM_ISOTOPIC_ATOM_COUNT>
0

> <PUBCHEM_COMPONENT_COUNT>
1

> <PUBCHEM_CACTVS_TAUTO_COUNT>
5

> <PUBCHEM_CONFORMER_ID>
0006C02500000001

> <PUBCHEM_MMFF94_ENERGY>
40.4105

> <PUBCHEM_FEATURE_SELFOVERLAP>
20.315

> <PUBCHEM_SHAPE_FINGERPRINT>
10219947 1 17846778507414980095
10608611 8 18338801100480403609
10967382 1 18410856555429244410
10980938 120 18412265055631237002
11132069 177 18409736170587600458
11471102 20 18411423886180742318
11680986 33 18268426819899874234
11806522 49 18411984641775406815
12403259 226 18411987927562616229
12491281 212 18339635655417219571
12507560 14 18260831509555093228
12716301 132 17343538696850313972
13132413 78 18336263564961358013
13140716 1 18340207366993252594
13380535 76 18410856534007636115
13571099 22 18334856082676826370
13922767 16 18411139155819339817
14115302 16 18201990006617985718
14144814 61 18410011039798984929
14251717 144 18412267237501113935
14648413 74 18195807367041370672
14911166 2 18411698789989644774
14993402 34 18411981381547024046
15042514 8 15746976667482092875
15196674 1 18410012139009938752
15375462 189 18130509750811031986
15375462 478 17749111118639553432
15442244 35 18409167709790127217
15501101 241 18202283623419632940
15536298 74 18334016051550966338
15775835 57 18411131459496395209
16945 1 18411708668345671882
17802600 8 18411986853778275949
17804303 29 18341608213558203023
18186145 218 18408323298182831397
18511873 20 18334575741455404834
200 152 18186810162665897415
20233049 118 18343300409356272108
20511035 2 18126273147804660814
20671657 1 18339918195504186725
21267235 1 18409440388758653355
21501502 16 18267024947022388222
21524375 3 18413670201796320959
22094290 62 18410573950849956025
221490 88 18268143154564046355
22854114 111 18411698751598475321
22892500 29 18410866433996794549
2334 1 17979071587433898610
23402539 116 18187372076835952598
23402655 69 18335989731142540565
23419403 2 16387412001077422058
23463225 33 18340769333610243738
23557571 272 16732702779304651145
23559900 14 18262523585131111800
25 1 18271245018615552475
2748010 2 18051970325152582306
3071541 12 18266457612060786704
3286 77 18411985728270069285
335352 9 18338234980592970855
5104073 3 18409448081065712793
53655031 270 18337389456230390752
53812653 166 18411983576317328594
69090 78 18261678086580702407
7364860 26 18263082119831947864
74978 22 18337669702772595067
7832392 63 18408889529058769731
9709674 26 18265894661870001483
9981440 41 17473273071815003904

> <PUBCHEM_SHAPE_MULTIPOLES>
323.4
6.62
2.26
0.86
2.9
0.74
0.29
-0.4
0.04
-0.5
-0.3
0.01
0.11
-0.19

> <PUBCHEM_SHAPE_SELFOVERLAP>
669.544

> <PUBCHEM_SHAPE_VOLUME>
185.1

> <PUBCHEM_COORDINATE_TYPE>
2
5
10

$$$$

