160492
  -OEChem-07051213093D

 21 21  0     0  0  0  0  0  0999 V2000
    2.0014    0.7479    0.3272 O   0  0  0  0  0  0  0  0  0  0  0  0
    1.9022   -1.4046   -0.5192 O   0  0  0  0  0  0  0  0  0  0  0  0
   -2.0608    1.2505   -0.5158 N   0  0  0  0  0  0  0  0  0  0  0  0
   -2.7840    0.3661    0.4022 C   0  0  0  0  0  0  0  0  0  0  0  0
   -2.3411   -1.0940    0.2455 C   0  0  0  0  0  0  0  0  0  0  0  0
   -0.6157    1.2132   -0.2445 C   0  0  0  0  0  0  0  0  0  0  0  0
   -0.0663   -0.1697   -0.0528 C   0  0  0  0  0  0  0  0  0  0  0  0
   -0.8491   -1.2379    0.1543 C   0  0  0  0  0  0  0  0  0  0  0  0
    1.3814   -0.3743   -0.1192 C   0  0  0  0  0  0  0  0  0  0  0  0
    3.4320    0.7027    0.3223 C   0  0  0  0  0  0  0  0  0  0  0  0
   -3.8584    0.4380    0.2003 H   0  0  0  0  0  0  0  0  0  0  0  0
   -2.6336    0.6999    1.4371 H   0  0  0  0  0  0  0  0  0  0  0  0
   -2.7862   -1.5258   -0.6590 H   0  0  0  0  0  0  0  0  0  0  0  0
   -2.7105   -1.6727    1.0997 H   0  0  0  0  0  0  0  0  0  0  0  0
   -0.4070    1.8127    0.6505 H   0  0  0  0  0  0  0  0  0  0  0  0
   -0.1124    1.6989   -1.0884 H   0  0  0  0  0  0  0  0  0  0  0  0
   -2.3988    2.2064   -0.4094 H   0  0  0  0  0  0  0  0  0  0  0  0
   -0.4372   -2.2361    0.2683 H   0  0  0  0  0  0  0  0  0  0  0  0
    3.7877   -0.0980    0.9777 H   0  0  0  0  0  0  0  0  0  0  0  0
    3.8037    1.6583    0.7015 H   0  0  0  0  0  0  0  0  0  0  0  0
    3.8027    0.5610   -0.6974 H   0  0  0  0  0  0  0  0  0  0  0  0
  1  9  1  0  0  0  0
  1 10  1  0  0  0  0
  2  9  2  0  0  0  0
  3  4  1  0  0  0  0
  3  6  1  0  0  0  0
  3 17  1  0  0  0  0
  4  5  1  0  0  0  0
  4 11  1  0  0  0  0
  4 12  1  0  0  0  0
  5  8  1  0  0  0  0
  5 13  1  0  0  0  0
  5 14  1  0  0  0  0
  6  7  1  0  0  0  0
  6 15  1  0  0  0  0
  6 16  1  0  0  0  0
  7  8  2  0  0  0  0
  7  9  1  0  0  0  0
  8 18  1  0  0  0  0
 10 19  1  0  0  0  0
 10 20  1  0  0  0  0
 10 21  1  0  0  0  0
M  END
> <PUBCHEM_COMPOUND_CID>
160492

> <PUBCHEM_CONFORMER_RMSD>
0.6

> <PUBCHEM_CONFORMER_DIVERSEORDER>
1
2
3

> <PUBCHEM_MMFF94_PARTIAL_CHARGES>
12
1 -0.43
10 0.28
17 0.36
18 0.15
2 -0.57
3 -0.9
4 0.27
5 0.14
6 0.41
7 -0.12
8 -0.29
9 0.71

> <PUBCHEM_EFFECTIVE_ROTOR_COUNT>
2.8

> <PUBCHEM_PHARMACOPHORE_FEATURES>
4
1 2 acceptor
1 3 cation
1 3 donor
6 3 4 5 6 7 8 rings

> <PUBCHEM_HEAVY_ATOM_COUNT>
10

> <PUBCHEM_ATOM_DEF_STEREO_COUNT>
0

> <PUBCHEM_ATOM_UDEF_STEREO_COUNT>
0

> <PUBCHEM_BOND_DEF_STEREO_COUNT>
0

> <PUBCHEM_BOND_UDEF_STEREO_COUNT>
0

> <PUBCHEM_ISOTOPIC_ATOM_COUNT>
0

> <PUBCHEM_COMPONENT_COUNT>
1

> <PUBCHEM_CACTVS_TAUTO_COUNT>
1

> <PUBCHEM_CONFORMER_ID>
000272EC00000001

> <PUBCHEM_MMFF94_ENERGY>
11.6942

> <PUBCHEM_FEATURE_SELFOVERLAP>
20.297

> <PUBCHEM_SHAPE_FINGERPRINT>
10857977 72 18342741767249683129
12932764 1 18271518805458371906
14325111 11 18410293635461472792
14390081 3 18334296465538996448
15219456 202 18335136522756426718
15310529 11 15864062200254878959
16945 1 18341044125596560943
19973954 147 18337106868846802052
20201158 50 18408324375776368171
20645464 45 18335420179281085578
20871998 184 18263075514182978079
21040471 1 18199748227105160285
23235685 24 18335989713488138408
23552423 10 18202275926796248134
2748010 2 18340201998447675655
29004967 10 18338509755447222731
3248919 1 17676491704119023491
369184 2 18060145340186563617
5084963 1 17844513607956362263
6333449 129 18409452462000925503

> <PUBCHEM_SHAPE_MULTIPOLES>
189.08
4.58
1.46
0.69
2.09
0.09
-0.01
-0.67
-0.62
-0.29
0.13
-0.01
-0.01
0.38

> <PUBCHEM_SHAPE_SELFOVERLAP>
376.272

> <PUBCHEM_SHAPE_VOLUME>
111.9

> <PUBCHEM_COORDINATE_TYPE>
2
5
10

$$$$

