46173863
  -OEChem-07051213093D

 36 38  0     1  0  0  0  0  0999 V2000
   -1.6274   -2.3565   -0.1151 O   0  0  0  0  0  0  0  0  0  0  0  0
    0.0313   -1.2681    1.8190 O   0  0  0  0  0  0  0  0  0  0  0  0
    2.9051    1.3605   -0.2752 O   0  0  0  0  0  0  0  0  0  0  0  0
   -2.1581   -1.0634   -0.4307 C   0  0  2  0  0  0  0  0  0  0  0  0
   -0.6651   -1.3441   -0.4547 C   0  0  1  0  0  0  0  0  0  0  0  0
   -2.9157   -0.4260    0.6981 C   0  0  0  0  0  0  0  0  0  0  0  0
   -2.8576   -1.0480   -1.7507 C   0  0  0  0  0  0  0  0  0  0  0  0
    0.2608   -0.9891    0.6494 C   0  0  0  0  0  0  0  0  0  0  0  0
   -2.9408    1.1058    0.6008 C   0  0  0  0  0  0  0  0  0  0  0  0
    1.4600   -0.2957    0.2285 C   0  0  0  0  0  0  0  0  0  0  0  0
   -1.5725    1.6509    0.8783 C   0  0  0  0  0  0  0  0  0  0  0  0
    1.6401    1.0781    0.1518 C   0  0  0  0  0  0  0  0  0  0  0  0
    0.7701    2.2625    0.4270 C   0  0  0  0  0  0  0  0  0  0  0  0
   -0.6646    2.0772   -0.0201 C   0  0  0  0  0  0  0  0  0  0  0  0
    2.6928   -0.8730   -0.1769 C   0  0  0  0  0  0  0  0  0  0  0  0
    3.5324    0.1738   -0.4721 C   0  0  0  0  0  0  0  0  0  0  0  0
   -0.9099    2.2639   -1.4913 C   0  0  0  0  0  0  0  0  0  0  0  0
    3.0190   -2.3086   -0.2661 C   0  0  0  0  0  0  0  0  0  0  0  0
   -0.2044   -1.4288   -1.4353 H   0  0  0  0  0  0  0  0  0  0  0  0
   -3.9502   -0.7925    0.6840 H   0  0  0  0  0  0  0  0  0  0  0  0
   -2.5090   -0.7338    1.6692 H   0  0  0  0  0  0  0  0  0  0  0  0
   -2.3542   -1.6794   -2.4918 H   0  0  0  0  0  0  0  0  0  0  0  0
   -2.8996   -0.0354   -2.1612 H   0  0  0  0  0  0  0  0  0  0  0  0
   -3.8833   -1.4192   -1.6526 H   0  0  0  0  0  0  0  0  0  0  0  0
   -3.6243    1.5025    1.3611 H   0  0  0  0  0  0  0  0  0  0  0  0
   -3.3386    1.4318   -0.3630 H   0  0  0  0  0  0  0  0  0  0  0  0
   -1.2562    1.5457    1.9160 H   0  0  0  0  0  0  0  0  0  0  0  0
    0.8145    2.4695    1.5044 H   0  0  0  0  0  0  0  0  0  0  0  0
    1.1839    3.1556   -0.0582 H   0  0  0  0  0  0  0  0  0  0  0  0
    4.5547    0.2395   -0.8156 H   0  0  0  0  0  0  0  0  0  0  0  0
   -0.5422    3.2455   -1.8091 H   0  0  0  0  0  0  0  0  0  0  0  0
   -1.9671    2.2254   -1.7606 H   0  0  0  0  0  0  0  0  0  0  0  0
   -0.3850    1.4972   -2.0698 H   0  0  0  0  0  0  0  0  0  0  0  0
    4.0613   -2.4665   -0.5621 H   0  0  0  0  0  0  0  0  0  0  0  0
    2.3810   -2.8024   -1.0062 H   0  0  0  0  0  0  0  0  0  0  0  0
    2.8674   -2.7994    0.7008 H   0  0  0  0  0  0  0  0  0  0  0  0
  1  4  1  0  0  0  0
  1  5  1  0  0  0  0
  2  8  2  0  0  0  0
  3 12  1  0  0  0  0
  3 16  1  0  0  0  0
  4  5  1  0  0  0  0
  4  6  1  0  0  0  0
  4  7  1  0  0  0  0
  5  8  1  0  0  0  0
  5 19  1  0  0  0  0
  6  9  1  0  0  0  0
  6 20  1  0  0  0  0
  6 21  1  0  0  0  0
  7 22  1  0  0  0  0
  7 23  1  0  0  0  0
  7 24  1  0  0  0  0
  8 10  1  0  0  0  0
  9 11  1  0  0  0  0
  9 25  1  0  0  0  0
  9 26  1  0  0  0  0
 10 12  2  0  0  0  0
 10 15  1  0  0  0  0
 11 14  2  0  0  0  0
 11 27  1  0  0  0  0
 12 13  1  0  0  0  0
 13 14  1  0  0  0  0
 13 28  1  0  0  0  0
 13 29  1  0  0  0  0
 14 17  1  0  0  0  0
 15 16  2  0  0  0  0
 15 18  1  0  0  0  0
 16 30  1  0  0  0  0
 17 31  1  0  0  0  0
 17 32  1  0  0  0  0
 17 33  1  0  0  0  0
 18 34  1  0  0  0  0
 18 35  1  0  0  0  0
 18 36  1  0  0  0  0
M  END
> <PUBCHEM_COMPOUND_CID>
46173863

> <PUBCHEM_CONFORMER_RMSD>
0.6

> <PUBCHEM_CONFORMER_DIVERSEORDER>
1
4
6
3
2
5

> <PUBCHEM_MMFF94_PARTIAL_CHARGES>
21
1 -0.3
10 -0.09
11 -0.29
12 -0.04
13 0.32
14 -0.28
15 -0.18
16 -0.01
17 0.14
18 0.18
19 0.1
2 -0.57
27 0.15
3 -0.28
30 0.15
4 -0.04
5 0.05
6 0.09
7 0.09
8 0.66
9 0.14

> <PUBCHEM_EFFECTIVE_ROTOR_COUNT>
0.8

> <PUBCHEM_PHARMACOPHORE_FEATURES>
4
1 1 acceptor
1 2 acceptor
1 3 acceptor
5 3 10 12 15 16 rings

> <PUBCHEM_HEAVY_ATOM_COUNT>
18

> <PUBCHEM_ATOM_DEF_STEREO_COUNT>
1

> <PUBCHEM_ATOM_UDEF_STEREO_COUNT>
1

> <PUBCHEM_BOND_DEF_STEREO_COUNT>
1

> <PUBCHEM_BOND_UDEF_STEREO_COUNT>
0

> <PUBCHEM_ISOTOPIC_ATOM_COUNT>
0

> <PUBCHEM_COMPONENT_COUNT>
1

> <PUBCHEM_CACTVS_TAUTO_COUNT>
2

> <PUBCHEM_CONFORMER_ID>
02C08EA700000001

> <PUBCHEM_MMFF94_ENERGY>
31.7924

> <PUBCHEM_FEATURE_SELFOVERLAP>
20.302

> <PUBCHEM_SHAPE_FINGERPRINT>
10863032 1 17967532376257047633
10922523 26 18116710918574338038
10967382 1 18409162208074203554
11132069 177 18409168818155713136
11578080 2 17241061941230044314
12491281 212 18335688442964754776
12553582 1 18409165489529457420
12715332 25 17899977437075004322
13140716 1 18193557989583731920
13221675 6 18411132580092482507
13544592 271 17834969567865130488
14251711 518 18198632218407890683
14251745 187 18192153702861181912
15001771 113 18264489486136031469
15442244 35 18264203789412255690
15775835 57 18341322400664692321
16945 1 18263365785020167097
18186145 218 17846778520479645642
21501502 16 18335700568079365894
21634736 98 18339069497592778476
22802520 49 18410846642734584610
2334 1 18410293639972743952
23402539 116 18409174289996782582
23419403 2 16457500451805851617
23559900 14 17901391405630642922
238 59 16753850476394110999
2748010 2 18195811992684302820
3060560 45 17403186287850188348
353137 74 18272095993317855408
6992083 37 18188196676376465835
7832392 63 18261107452767050441
81228 2 18411706486502402632
90525 40 17975974581148633665

> <PUBCHEM_SHAPE_MULTIPOLES>
352.82
5.06
2.78
1.23
1.92
0.42
-0.15
-1.19
-0.7
-0.18
-0.3
-0.75
-0.06
-0.35

> <PUBCHEM_SHAPE_SELFOVERLAP>
752.631

> <PUBCHEM_SHAPE_VOLUME>
197.6

> <PUBCHEM_COORDINATE_TYPE>
2
5
10

$$$$

