443789
  -OEChem-07051213033D

 40 43  0     0  0  0  0  0  0999 V2000
   -1.6580   -2.5109   -0.0026 O   0  0  0  0  0  0  0  0  0  0  0  0
    0.8289   -2.5078   -0.0006 O   0  0  0  0  0  0  0  0  0  0  0  0
    1.0083    2.8315   -0.0005 O   0  0  0  0  0  0  0  0  0  0  0  0
    3.3749   -2.6860    0.0021 O   0  0  0  0  0  0  0  0  0  0  0  0
    5.8316    1.3625   -0.0001 O   0  0  0  0  0  0  0  0  0  0  0  0
   -6.3574    1.8001    0.0018 O   0  0  0  0  0  0  0  0  0  0  0  0
   -0.3854   -0.4889   -0.0009 C   0  0  0  0  0  0  0  0  0  0  0  0
   -0.3355    0.9037   -0.0008 C   0  0  0  0  0  0  0  0  0  0  0  0
   -2.8224   -0.4117   -0.0005 C   0  0  0  0  0  0  0  0  0  0  0  0
   -2.7716    1.0012   -0.0003 C   0  0  0  0  0  0  0  0  0  0  0  0
   -1.6235   -1.1440   -0.0009 C   0  0  0  0  0  0  0  0  0  0  0  0
    2.1595   -0.5814   -0.0003 C   0  0  0  0  0  0  0  0  0  0  0  0
    2.2095    0.8138   -0.0008 C   0  0  0  0  0  0  0  0  0  0  0  0
   -1.5234    1.6458   -0.0006 C   0  0  0  0  0  0  0  0  0  0  0  0
    0.8602   -1.2841   -0.0005 C   0  0  0  0  0  0  0  0  0  0  0  0
    0.9639    1.6076   -0.0006 C   0  0  0  0  0  0  0  0  0  0  0  0
   -4.0718   -1.0537    0.0002 C   0  0  0  0  0  0  0  0  0  0  0  0
   -3.9719    1.7311    0.0005 C   0  0  0  0  0  0  0  0  0  0  0  0
    3.3472   -1.3228    0.0011 C   0  0  0  0  0  0  0  0  0  0  0  0
    3.4471    1.4682   -0.0009 C   0  0  0  0  0  0  0  0  0  0  0  0
   -5.2540   -0.3132    0.0010 C   0  0  0  0  0  0  0  0  0  0  0  0
   -5.2042    1.0772    0.0010 C   0  0  0  0  0  0  0  0  0  0  0  0
    4.6284    0.7258    0.0001 C   0  0  0  0  0  0  0  0  0  0  0  0
   -4.2584   -2.5406    0.0006 C   0  0  0  0  0  0  0  0  0  0  0  0
    4.5785   -0.6667    0.0013 C   0  0  0  0  0  0  0  0  0  0  0  0
    6.9995    0.5431    0.0011 C   0  0  0  0  0  0  0  0  0  0  0  0
   -1.4878    2.7338   -0.0004 H   0  0  0  0  0  0  0  0  0  0  0  0
   -3.9504    2.8196    0.0007 H   0  0  0  0  0  0  0  0  0  0  0  0
    3.5065    2.5538   -0.0014 H   0  0  0  0  0  0  0  0  0  0  0  0
   -6.2215   -0.8100    0.0016 H   0  0  0  0  0  0  0  0  0  0  0  0
   -3.8334   -2.9908    0.9036 H   0  0  0  0  0  0  0  0  0  0  0  0
   -5.3191   -2.8203    0.0019 H   0  0  0  0  0  0  0  0  0  0  0  0
   -3.8356   -2.9910   -0.9033 H   0  0  0  0  0  0  0  0  0  0  0  0
    5.4699   -1.2852    0.0023 H   0  0  0  0  0  0  0  0  0  0  0  0
   -0.8437   -2.8729    0.3788 H   0  0  0  0  0  0  0  0  0  0  0  0
    4.2952   -2.9995    0.0030 H   0  0  0  0  0  0  0  0  0  0  0  0
   -7.1141    1.1890    0.0021 H   0  0  0  0  0  0  0  0  0  0  0  0
    7.0674   -0.0635   -0.9084 H   0  0  0  0  0  0  0  0  0  0  0  0
    7.0668   -0.0618    0.9118 H   0  0  0  0  0  0  0  0  0  0  0  0
    7.8644    1.2146    0.0007 H   0  0  0  0  0  0  0  0  0  0  0  0
  1 11  1  0  0  0  0
  1 35  1  0  0  0  0
  2 15  2  0  0  0  0
  3 16  2  0  0  0  0
  4 19  1  0  0  0  0
  4 36  1  0  0  0  0
  5 23  1  0  0  0  0
  5 26  1  0  0  0  0
  6 22  1  0  0  0  0
  6 37  1  0  0  0  0
  7  8  2  0  0  0  0
  7 11  1  0  0  0  0
  7 15  1  0  0  0  0
  8 14  1  0  0  0  0
  8 16  1  0  0  0  0
  9 10  1  0  0  0  0
  9 11  2  0  0  0  0
  9 17  1  0  0  0  0
 10 14  2  0  0  0  0
 10 18  1  0  0  0  0
 12 13  2  0  0  0  0
 12 15  1  0  0  0  0
 12 19  1  0  0  0  0
 13 16  1  0  0  0  0
 13 20  1  0  0  0  0
 14 27  1  0  0  0  0
 17 21  2  0  0  0  0
 17 24  1  0  0  0  0
 18 22  2  0  0  0  0
 18 28  1  0  0  0  0
 19 25  2  0  0  0  0
 20 23  2  0  0  0  0
 20 29  1  0  0  0  0
 21 22  1  0  0  0  0
 21 30  1  0  0  0  0
 23 25  1  0  0  0  0
 24 31  1  0  0  0  0
 24 32  1  0  0  0  0
 24 33  1  0  0  0  0
 25 34  1  0  0  0  0
 26 38  1  0  0  0  0
 26 39  1  0  0  0  0
 26 40  1  0  0  0  0
M  END
> <PUBCHEM_COMPOUND_CID>
443789

> <PUBCHEM_CONFORMER_RMSD>
0.6

> <PUBCHEM_CONFORMER_DIVERSEORDER>
1

> <PUBCHEM_MMFF94_PARTIAL_CHARGES>
32
1 -0.53
11 0.08
12 0.09
13 0.09
14 -0.15
15 0.4
16 0.4
17 -0.14
18 -0.15
19 0.08
2 -0.57
20 -0.15
21 -0.15
22 0.08
23 0.08
24 0.14
25 -0.15
26 0.28
27 0.15
28 0.15
29 0.15
3 -0.57
30 0.15
34 0.15
35 0.45
36 0.45
37 0.45
4 -0.53
5 -0.36
6 -0.53
7 0.09
8 0.09

> <PUBCHEM_EFFECTIVE_ROTOR_COUNT>
1

> <PUBCHEM_PHARMACOPHORE_FEATURES>
10
1 1 donor
1 2 acceptor
1 3 acceptor
1 4 donor
1 5 acceptor
1 6 donor
6 12 13 19 20 23 25 rings
6 7 8 12 13 15 16 rings
6 7 8 9 10 11 14 rings
6 9 10 17 18 21 22 rings

> <PUBCHEM_HEAVY_ATOM_COUNT>
26

> <PUBCHEM_ATOM_DEF_STEREO_COUNT>
0

> <PUBCHEM_ATOM_UDEF_STEREO_COUNT>
0

> <PUBCHEM_BOND_DEF_STEREO_COUNT>
0

> <PUBCHEM_BOND_UDEF_STEREO_COUNT>
0

> <PUBCHEM_ISOTOPIC_ATOM_COUNT>
0

> <PUBCHEM_COMPONENT_COUNT>
1

> <PUBCHEM_CACTVS_TAUTO_COUNT>
253

> <PUBCHEM_CONFORMER_ID>
0006C58D00000001

> <PUBCHEM_MMFF94_ENERGY>
101.2132

> <PUBCHEM_FEATURE_SELFOVERLAP>
50.811

> <PUBCHEM_SHAPE_FINGERPRINT>
10 15 18130784564172263993
10411042 1 17762336912531191175
10616163 171 18337670806996317823
10906281 52 18339061757544778696
10967382 1 18410855481676929254
11578080 2 16986895642050413135
12107183 9 17688588681334728345
12236239 1 18410857667762457448
12403259 415 18114186276430544864
12788726 201 17531242923818549024
12838862 33 18338535095818020704
13140716 1 18338802337547172458
13402501 40 18411136935120709708
14341114 176 18410004468551749923
14790565 3 18411132541359103637
15196674 1 18410573998073477671
15927050 60 17469605114537378820
1601671 61 18411420600836904308
1813 80 17060335244836852908
18608769 82 18340483345003012307
18681886 176 18335426707721280496
19591789 44 18411139181447017551
200 152 18113339708928780193
20642791 178 18129649807990220053
21033648 144 18342183306048731039
21033648 29 17822305534838931418
21133410 171 17182840476963510654
21236236 1 18409730625805978647
21267235 1 18338791221807709338
21279426 13 18338797939368493887
21421861 104 17916317185308298266
21709351 56 18339931415766620733
221490 88 18340762629393031187
23402539 116 18335707108887322484
23559900 14 18335145262746258241
3004659 81 18271805774410319678
335352 9 18411138030680554317
338550 245 18342734074783901621
34797466 226 17385999546681435212
34934 24 18410296912917424846
350125 39 18411418388670543869
3545911 37 18410011039530180248
3680242 22 18270965772600352954
4073 2 18130782330915974762
4093350 32 17168419471224965535
4214541 1 18410573972699273797
5104073 3 18411418427441041627
6138700 20 18411417332741137038
9709674 26 18411413977997684643

> <PUBCHEM_SHAPE_MULTIPOLES>
499.85
13.61
2.73
0.59
4.61
0.8
0
-3.05
-0.01
-0.9
0
-0.01
-0.01
0

> <PUBCHEM_SHAPE_SELFOVERLAP>
1143.705

> <PUBCHEM_SHAPE_VOLUME>
258.8

> <PUBCHEM_COORDINATE_TYPE>
2
5
10

$$$$

