11954109
  -OEChem-07051213063D

 50 53  0     1  0  0  0  0  0999 V2000
   -4.3998   -1.6057   -0.4034 O   0  0  0  0  0  0  0  0  0  0  0  0
   -4.7418    0.8397    0.6262 O   0  0  0  0  0  0  0  0  0  0  0  0
    5.7282    0.1939   -1.3357 O   0  0  0  0  0  0  0  0  0  0  0  0
   -1.3904    0.4604   -0.1854 C   0  0  2  0  0  0  0  0  0  0  0  0
   -2.0842   -0.8814    0.1245 C   0  0  1  0  0  0  0  0  0  0  0  0
   -0.0642    0.6136    0.5600 C   0  0  1  0  0  0  0  0  0  0  0  0
    0.8966   -0.5395    0.1059 C   0  0  2  0  0  0  0  0  0  0  0  0
   -3.3693   -0.6861   -0.7089 C   0  0  2  0  0  0  0  0  0  0  0  0
   -2.4900    1.5038    0.0209 C   0  0  0  0  0  0  0  0  0  0  0  0
   -1.1707   -2.0139   -0.3695 C   0  0  0  0  0  0  0  0  0  0  0  0
   -3.7883    0.7847   -0.4344 C   0  0  2  0  0  0  0  0  0  0  0  0
    0.2369   -1.9310    0.2499 C   0  0  0  0  0  0  0  0  0  0  0  0
    2.2401   -0.4098    0.8728 C   0  0  2  0  0  0  0  0  0  0  0  0
    0.5763    1.9966    0.3318 C   0  0  0  0  0  0  0  0  0  0  0  0
   -2.4167   -1.1147    1.6185 C   0  0  0  0  0  0  0  0  0  0  0  0
    1.9511    2.1066    0.9980 C   0  0  0  0  0  0  0  0  0  0  0  0
    2.8154    0.9584    0.5516 C   0  0  0  0  0  0  0  0  0  0  0  0
    3.2724   -1.5206    0.6264 C   0  0  0  0  0  0  0  0  0  0  0  0
   -4.4201    1.4287   -1.6651 C   0  0  0  0  0  0  0  0  0  0  0  0
    4.0101   -1.3509   -0.6901 C   0  0  0  0  0  0  0  0  0  0  0  0
    3.9432    1.1581   -0.1470 C   0  0  0  0  0  0  0  0  0  0  0  0
    4.6651    0.0092   -0.7467 C   0  0  0  0  0  0  0  0  0  0  0  0
   -1.1503    0.4881   -1.2617 H   0  0  0  0  0  0  0  0  0  0  0  0
   -0.2397    0.5204    1.6394 H   0  0  0  0  0  0  0  0  0  0  0  0
    1.0978   -0.4007   -0.9675 H   0  0  0  0  0  0  0  0  0  0  0  0
   -3.1299   -0.8045   -1.7744 H   0  0  0  0  0  0  0  0  0  0  0  0
   -2.5481    1.8112    1.0715 H   0  0  0  0  0  0  0  0  0  0  0  0
   -2.2852    2.4010   -0.5735 H   0  0  0  0  0  0  0  0  0  0  0  0
   -1.0697   -1.9632   -1.4616 H   0  0  0  0  0  0  0  0  0  0  0  0
   -1.6126   -2.9927   -0.1473 H   0  0  0  0  0  0  0  0  0  0  0  0
    0.1965   -2.2134    1.3080 H   0  0  0  0  0  0  0  0  0  0  0  0
    0.8564   -2.6866   -0.2466 H   0  0  0  0  0  0  0  0  0  0  0  0
    2.0157   -0.4416    1.9489 H   0  0  0  0  0  0  0  0  0  0  0  0
   -0.0736    2.7833    0.7321 H   0  0  0  0  0  0  0  0  0  0  0  0
    0.6764    2.1845   -0.7454 H   0  0  0  0  0  0  0  0  0  0  0  0
   -3.0281   -0.3171    2.0477 H   0  0  0  0  0  0  0  0  0  0  0  0
   -2.9671   -2.0534    1.7496 H   0  0  0  0  0  0  0  0  0  0  0  0
   -1.5219   -1.1849    2.2427 H   0  0  0  0  0  0  0  0  0  0  0  0
    1.8457    2.0813    2.0894 H   0  0  0  0  0  0  0  0  0  0  0  0
    2.3997    3.0742    0.7447 H   0  0  0  0  0  0  0  0  0  0  0  0
    2.8224   -2.5157    0.6847 H   0  0  0  0  0  0  0  0  0  0  0  0
    4.0115   -1.4842    1.4399 H   0  0  0  0  0  0  0  0  0  0  0  0
   -3.7321    1.4349   -2.5166 H   0  0  0  0  0  0  0  0  0  0  0  0
   -5.3308    0.8941   -1.9574 H   0  0  0  0  0  0  0  0  0  0  0  0
   -4.7172    2.4623   -1.4551 H   0  0  0  0  0  0  0  0  0  0  0  0
   -4.0472   -2.4997   -0.5512 H   0  0  0  0  0  0  0  0  0  0  0  0
   -4.9322    1.7758    0.8083 H   0  0  0  0  0  0  0  0  0  0  0  0
    3.3363   -1.4539   -1.5468 H   0  0  0  0  0  0  0  0  0  0  0  0
    4.7901   -2.1159   -0.7692 H   0  0  0  0  0  0  0  0  0  0  0  0
    4.3199    2.1512   -0.3646 H   0  0  0  0  0  0  0  0  0  0  0  0
  1  8  1  0  0  0  0
  1 46  1  0  0  0  0
  2 11  1  0  0  0  0
  2 47  1  0  0  0  0
  3 22  2  0  0  0  0
  4  5  1  0  0  0  0
  4  6  1  0  0  0  0
  4  9  1  0  0  0  0
  4 23  1  0  0  0  0
  5  8  1  0  0  0  0
  5 10  1  0  0  0  0
  5 15  1  0  0  0  0
  6  7  1  0  0  0  0
  6 14  1  0  0  0  0
  6 24  1  0  0  0  0
  7 12  1  0  0  0  0
  7 13  1  0  0  0  0
  7 25  1  0  0  0  0
  8 11  1  0  0  0  0
  8 26  1  0  0  0  0
  9 11  1  0  0  0  0
  9 27  1  0  0  0  0
  9 28  1  0  0  0  0
 10 12  1  0  0  0  0
 10 29  1  0  0  0  0
 10 30  1  0  0  0  0
 11 19  1  0  0  0  0
 12 31  1  0  0  0  0
 12 32  1  0  0  0  0
 13 17  1  0  0  0  0
 13 18  1  0  0  0  0
 13 33  1  0  0  0  0
 14 16  1  0  0  0  0
 14 34  1  0  0  0  0
 14 35  1  0  0  0  0
 15 36  1  0  0  0  0
 15 37  1  0  0  0  0
 15 38  1  0  0  0  0
 16 17  1  0  0  0  0
 16 39  1  0  0  0  0
 16 40  1  0  0  0  0
 17 21  2  0  0  0  0
 18 20  1  0  0  0  0
 18 41  1  0  0  0  0
 18 42  1  0  0  0  0
 19 43  1  0  0  0  0
 19 44  1  0  0  0  0
 19 45  1  0  0  0  0
 20 22  1  0  0  0  0
 20 48  1  0  0  0  0
 20 49  1  0  0  0  0
 21 22  1  0  0  0  0
 21 50  1  0  0  0  0
M  END
> <PUBCHEM_COMPOUND_CID>
11954109

> <PUBCHEM_CONFORMER_RMSD>
0.6

> <PUBCHEM_CONFORMER_DIVERSEORDER>
1
2

> <PUBCHEM_MMFF94_PARTIAL_CHARGES>
14
1 -0.68
11 0.28
13 0.14
16 0.14
17 -0.28
2 -0.68
20 0.06
21 -0.14
22 0.49
3 -0.57
46 0.4
47 0.4
50 0.15
8 0.28

> <PUBCHEM_EFFECTIVE_ROTOR_COUNT>
1.8

> <PUBCHEM_PHARMACOPHORE_FEATURES>
9
1 1 acceptor
1 1 donor
1 2 acceptor
1 2 donor
1 3 acceptor
5 4 5 8 9 11 rings
6 13 17 18 20 21 22 rings
6 4 5 6 7 10 12 rings
6 6 7 13 14 16 17 rings

> <PUBCHEM_HEAVY_ATOM_COUNT>
22

> <PUBCHEM_ATOM_DEF_STEREO_COUNT>
7

> <PUBCHEM_ATOM_UDEF_STEREO_COUNT>
0

> <PUBCHEM_BOND_DEF_STEREO_COUNT>
0

> <PUBCHEM_BOND_UDEF_STEREO_COUNT>
0

> <PUBCHEM_ISOTOPIC_ATOM_COUNT>
0

> <PUBCHEM_COMPONENT_COUNT>
1

> <PUBCHEM_CACTVS_TAUTO_COUNT>
8

> <PUBCHEM_CONFORMER_ID>
00B667BD00000001

> <PUBCHEM_MMFF94_ENERGY>
73.3803

> <PUBCHEM_FEATURE_SELFOVERLAP>
45.799

> <PUBCHEM_SHAPE_FINGERPRINT>
10366900 7 18059296465776087691
10498660 4 18272658960393409676
10693767 8 17823717432323697223
10759866 29 17917434288868514282
107951 10 17703787033319142963
1100329 8 17040918140073267945
11595378 159 14979405083048138981
11796584 16 14273458101921575397
12011746 2 18410294726478306733
12236239 1 17917717911751021994
12403259 415 18411987940458080617
12553582 1 18334576867032547640
12596602 18 14836402549479741045
12788726 201 18116992385077289088
13140716 1 18410022021840489619
13224815 77 18343024371607548762
13944108 23 16756929684694870789
14790565 3 18120082033973234561
15099037 51 18335703866160633559
15163728 17 16557088846540934439
15196674 1 18409452474717048347
15210252 30 17989203746689462532
15238133 3 17988096581202624304
15536298 74 18187936040554708112
15848702 151 17603578664238463174
1601671 61 18342740732410685932
16752209 62 18188212125421393376
16945 1 18194408796782492128
17349148 13 16660361459141664983
17804303 29 18335702723862966993
1813 80 4967613892927536106
18186145 218 18334866012783853993
19591789 44 18409170978519169947
19862831 5 18334857221017311136
200 152 17022621974539802945
20645477 70 18113336375928793556
20871999 31 18413105035428667934
21033648 29 18341621395003083041
21069387 34 14996283604652583214
21267235 1 18335414622179135895
21521239 73 17969525774349180285
21637258 2 15574705955115593172
221357 26 18334581222203030693
221490 88 18264768766278783650
2215653 11 18187652426747737149
22393880 68 18409457963690605487
23402539 116 17749103413594759952
23402655 69 18410011052889582540
23493267 7 17775004570139140354
23559900 14 18187088313248731064
25 1 18340493360592017451
26918003 58 7204772579327587845
2748010 2 18338244751654255081
296302 2 17203610401786886923
3004659 81 18342454898638489678
335352 9 18335987579073735997
34934 24 18334863784212532202
350125 39 18411417298555426523
3759504 43 17775560923197251434
4028521 119 18342179972521060605
4280585 95 17396690360981179246
474 4 16844720925105630924
4921388 177 16630234827571480499
495365 180 17531262616802315232
4990 188 18187362134324194558
5104073 3 18409454669719696091
633830 44 18186529790915805941
9709674 26 18264494974861506347

> <PUBCHEM_SHAPE_MULTIPOLES>
435.14
10.08
2.18
1.17
2.34
0.02
0.04
-0.88
3.71
-0.22
-0.17
-0.15
-0.08
0.62

> <PUBCHEM_SHAPE_SELFOVERLAP>
934.468

> <PUBCHEM_SHAPE_VOLUME>
238.3

> <PUBCHEM_COORDINATE_TYPE>
2
5
10

$$$$

