5281861
  -OEChem-07051213002D

 54 54  0     0  0  0  0  0  0999 V2000
    6.0010    3.8100    0.0000 O   0  0  0  0  0  0  0  0  0  0  0  0
    2.5369   -3.1900    0.0000 O   0  0  0  0  0  0  0  0  0  0  0  0
    6.0010   -5.1900    0.0000 O   0  0  0  0  0  0  0  0  0  0  0  0
    6.0010   -0.1900    0.0000 C   0  0  0  0  0  0  0  0  0  0  0  0
    6.0010    0.8100    0.0000 C   0  0  0  0  0  0  0  0  0  0  0  0
    6.8671    2.3100    0.0000 C   0  0  0  0  0  0  0  0  0  0  0  0
    7.7331    2.8100    0.0000 C   0  0  0  0  0  0  0  0  0  0  0  0
    5.1350   -0.6900    0.0000 C   0  0  0  0  0  0  0  0  0  0  0  0
    6.8671    1.3100    0.0000 C   0  0  0  0  0  0  0  0  0  0  0  0
    7.7331    3.8100    0.0000 C   0  0  0  0  0  0  0  0  0  0  0  0
    5.1350   -1.6900    0.0000 C   0  0  0  0  0  0  0  0  0  0  0  0
    4.2690   -2.1900    0.0000 C   0  0  0  0  0  0  0  0  0  0  0  0
    6.0010    2.8100    0.0000 C   0  0  0  0  0  0  0  0  0  0  0  0
    4.2690   -0.1900    0.0000 C   0  0  0  0  0  0  0  0  0  0  0  0
    8.5991    4.3100    0.0000 C   0  0  0  0  0  0  0  0  0  0  0  0
    4.2690   -3.1900    0.0000 C   0  0  0  0  0  0  0  0  0  0  0  0
    8.5991    5.3100    0.0000 C   0  0  0  0  0  0  0  0  0  0  0  0
    3.4030   -3.6900    0.0000 C   0  0  0  0  0  0  0  0  0  0  0  0
    5.1350   -3.6900    0.0000 C   0  0  0  0  0  0  0  0  0  0  0  0
    9.4651    5.8100    0.0000 C   0  0  0  0  0  0  0  0  0  0  0  0
    7.7331    5.8100    0.0000 C   0  0  0  0  0  0  0  0  0  0  0  0
    5.1350   -4.6900    0.0000 C   0  0  0  0  0  0  0  0  0  0  0  0
    3.4030   -4.6900    0.0000 C   0  0  0  0  0  0  0  0  0  0  0  0
    4.2690   -5.1900    0.0000 C   0  0  0  0  0  0  0  0  0  0  0  0
    6.2131   -0.7726    0.0000 H   0  0  0  0  0  0  0  0  0  0  0  0
    6.6116   -0.0823    0.0000 H   0  0  0  0  0  0  0  0  0  0  0  0
    5.7890    1.3926    0.0000 H   0  0  0  0  0  0  0  0  0  0  0  0
    5.3905    0.7023    0.0000 H   0  0  0  0  0  0  0  0  0  0  0  0
    7.9451    2.2274    0.0000 H   0  0  0  0  0  0  0  0  0  0  0  0
    8.3437    2.9177    0.0000 H   0  0  0  0  0  0  0  0  0  0  0  0
    7.4040    1.0000    0.0000 H   0  0  0  0  0  0  0  0  0  0  0  0
    7.5210    4.3926    0.0000 H   0  0  0  0  0  0  0  0  0  0  0  0
    7.1225    3.7023    0.0000 H   0  0  0  0  0  0  0  0  0  0  0  0
    5.6720   -2.0000    0.0000 H   0  0  0  0  0  0  0  0  0  0  0  0
    4.0569   -1.6074    0.0000 H   0  0  0  0  0  0  0  0  0  0  0  0
    3.6584   -2.2977    0.0000 H   0  0  0  0  0  0  0  0  0  0  0  0
    5.3905    2.9177    0.0000 H   0  0  0  0  0  0  0  0  0  0  0  0
    5.7890    2.2274    0.0000 H   0  0  0  0  0  0  0  0  0  0  0  0
    4.5790    0.3469    0.0000 H   0  0  0  0  0  0  0  0  0  0  0  0
    3.7320    0.1200    0.0000 H   0  0  0  0  0  0  0  0  0  0  0  0
    3.9590   -0.7269    0.0000 H   0  0  0  0  0  0  0  0  0  0  0  0
    9.1360    4.0000    0.0000 H   0  0  0  0  0  0  0  0  0  0  0  0
    5.6720   -3.3800    0.0000 H   0  0  0  0  0  0  0  0  0  0  0  0
    9.7751    5.2731    0.0000 H   0  0  0  0  0  0  0  0  0  0  0  0
   10.0021    6.1200    0.0000 H   0  0  0  0  0  0  0  0  0  0  0  0
    8.0431    6.3469    0.0000 H   0  0  0  0  0  0  0  0  0  0  0  0
    7.1962    6.1200    0.0000 H   0  0  0  0  0  0  0  0  0  0  0  0
    7.4231    5.2731    0.0000 H   0  0  0  0  0  0  0  0  0  0  0  0
    9.1551    6.3469    0.0000 H   0  0  0  0  0  0  0  0  0  0  0  0
    2.8660   -5.0000    0.0000 H   0  0  0  0  0  0  0  0  0  0  0  0
    5.4641    4.1200    0.0000 H   0  0  0  0  0  0  0  0  0  0  0  0
    4.2690   -5.8100    0.0000 H   0  0  0  0  0  0  0  0  0  0  0  0
    2.0000   -3.5000    0.0000 H   0  0  0  0  0  0  0  0  0  0  0  0
    6.0010   -5.8100    0.0000 H   0  0  0  0  0  0  0  0  0  0  0  0
  1 13  1  0  0  0  0
  1 51  1  0  0  0  0
  2 18  1  0  0  0  0
  2 53  1  0  0  0  0
  3 22  1  0  0  0  0
  3 54  1  0  0  0  0
  4  5  1  0  0  0  0
  4  8  1  0  0  0  0
  4 25  1  0  0  0  0
  4 26  1  0  0  0  0
  5  9  1  0  0  0  0
  5 27  1  0  0  0  0
  5 28  1  0  0  0  0
  6  7  1  0  0  0  0
  6  9  2  0  0  0  0
  6 13  1  0  0  0  0
  7 10  1  0  0  0  0
  7 29  1  0  0  0  0
  7 30  1  0  0  0  0
  8 11  2  0  0  0  0
  8 14  1  0  0  0  0
  9 31  1  0  0  0  0
 10 15  1  0  0  0  0
 10 32  1  0  0  0  0
 10 33  1  0  0  0  0
 11 12  1  0  0  0  0
 11 34  1  0  0  0  0
 12 16  1  0  0  0  0
 12 35  1  0  0  0  0
 12 36  1  0  0  0  0
 13 37  1  0  0  0  0
 13 38  1  0  0  0  0
 14 39  1  0  0  0  0
 14 40  1  0  0  0  0
 14 41  1  0  0  0  0
 15 17  2  0  0  0  0
 15 42  1  0  0  0  0
 16 18  2  0  0  0  0
 16 19  1  0  0  0  0
 17 20  1  0  0  0  0
 17 21  1  0  0  0  0
 18 23  1  0  0  0  0
 19 22  2  0  0  0  0
 19 43  1  0  0  0  0
 20 44  1  0  0  0  0
 20 45  1  0  0  0  0
 20 49  1  0  0  0  0
 21 46  1  0  0  0  0
 21 47  1  0  0  0  0
 21 48  1  0  0  0  0
 22 24  1  0  0  0  0
 23 24  2  0  0  0  0
 23 50  1  0  0  0  0
 24 52  1  0  0  0  0
M  END
> <PUBCHEM_COMPOUND_CID>
5281861

> <PUBCHEM_COMPOUND_CANONICALIZED>
1

> <PUBCHEM_CACTVS_COMPLEXITY>
444

> <PUBCHEM_CACTVS_HBOND_ACCEPTOR>
3

> <PUBCHEM_CACTVS_HBOND_DONOR>
3

> <PUBCHEM_CACTVS_ROTATABLE_BOND>
9

> <PUBCHEM_CACTVS_SUBSKEYS>
AAADceB4MAAAAAAAAAAAAAAAAAAAAAAAAAAwAAAAAAAAAAABAAAAGgAACAAADASgmAIyBoAAAgCAAiBCAAACAAAgIAAIiAAGCIgINiKCERKAcAAkwBEImAfAwLAOAQABAAAIAAACAAIAABAAAAAAAAAAAA==

> <PUBCHEM_IUPAC_OPENEYE_NAME>
2-[(2E,6Z)-7-(hydroxymethyl)-3,11-dimethyl-dodeca-2,6,10-trienyl]benzene-1,4-diol

> <PUBCHEM_IUPAC_CAS_NAME>
2-[(2E,6Z)-7-(hydroxymethyl)-3,11-dimethyldodeca-2,6,10-trienyl]benzene-1,4-diol

> <PUBCHEM_IUPAC_NAME>
2-[(2E,6Z)-7-(hydroxymethyl)-3,11-dimethyldodeca-2,6,10-trienyl]benzene-1,4-diol

> <PUBCHEM_IUPAC_SYSTEMATIC_NAME>
2-[(2E,6Z)-7-(hydroxymethyl)-3,11-dimethyl-dodeca-2,6,10-trienyl]benzene-1,4-diol

> <PUBCHEM_IUPAC_TRADITIONAL_NAME>
2-[(2E,6Z)-3,11-dimethyl-7-methylol-dodeca-2,6,10-trienyl]hydroquinone

> <PUBCHEM_IUPAC_INCHI>
InChI=1S/C21H30O3/c1-16(2)6-4-8-18(15-22)9-5-7-17(3)10-11-19-14-20(23)12-13-21(19)24/h6,9-10,12-14,22-24H,4-5,7-8,11,15H2,1-3H3/b17-10+,18-9-

> <PUBCHEM_IUPAC_INCHIKEY>
SNVNUOWZKGGIRP-ASKQTUSVSA-N

> <PUBCHEM_XLOGP3_AA>
5.6

> <PUBCHEM_EXACT_MASS>
330.219495

> <PUBCHEM_MOLECULAR_FORMULA>
C21H30O3

> <PUBCHEM_MOLECULAR_WEIGHT>
330.4611

> <PUBCHEM_OPENEYE_CAN_SMILES>
CC(=CCCC(=CCCC(=CCC1=C(C=CC(=C1)O)O)C)CO)C

> <PUBCHEM_OPENEYE_ISO_SMILES>
CC(=CCC/C(=C/CC/C(=C/CC1=C(C=CC(=C1)O)O)/C)/CO)C

> <PUBCHEM_CACTVS_TPSA>
60.7

> <PUBCHEM_MONOISOTOPIC_WEIGHT>
330.219495

> <PUBCHEM_TOTAL_CHARGE>
0

> <PUBCHEM_HEAVY_ATOM_COUNT>
24

> <PUBCHEM_ATOM_DEF_STEREO_COUNT>
0

> <PUBCHEM_ATOM_UDEF_STEREO_COUNT>
0

> <PUBCHEM_BOND_DEF_STEREO_COUNT>
2

> <PUBCHEM_BOND_UDEF_STEREO_COUNT>
0

> <PUBCHEM_ISOTOPIC_ATOM_COUNT>
0

> <PUBCHEM_COMPONENT_COUNT>
1

> <PUBCHEM_CACTVS_TAUTO_COUNT>
67

> <PUBCHEM_COORDINATE_TYPE>
1
5
255

> <PUBCHEM_BONDANNOTATIONS>
16  18  8
16  19  8
18  23  8
19  22  8
22  24  8
23  24  8

$$$$

