161772
  -OEChem-07051213063D

 16 15  0     0  0  0  0  0  0999 V2000
    0.0003   -0.3775   -0.2344 S   0  0  0  0  0  0  0  0  0  0  0  0
    0.0008   -1.3604    0.8991 O   0  0  0  0  0  0  0  0  0  0  0  0
    3.7136    0.9873    0.0859 O   0  0  0  0  0  0  0  0  0  0  0  0
   -3.7141    0.9741    0.1362 O   0  0  0  0  0  0  0  0  0  0  0  0
    2.8218   -1.0527   -0.3675 O   0  0  0  0  0  0  0  0  0  0  0  0
   -2.8216   -1.0344   -0.4400 O   0  0  0  0  0  0  0  0  0  0  0  0
    1.3417    0.7981    0.0632 C   0  0  0  0  0  0  0  0  0  0  0  0
   -1.3421    0.7976    0.0660 C   0  0  0  0  0  0  0  0  0  0  0  0
    2.6765    0.1348   -0.1070 C   0  0  0  0  0  0  0  0  0  0  0  0
   -2.6768    0.1332   -0.1015 C   0  0  0  0  0  0  0  0  0  0  0  0
    1.2579    1.1815    1.0837 H   0  0  0  0  0  0  0  0  0  0  0  0
    1.2554    1.6114   -0.6624 H   0  0  0  0  0  0  0  0  0  0  0  0
   -1.2586    1.6121   -0.6586 H   0  0  0  0  0  0  0  0  0  0  0  0
   -1.2554    1.1792    1.0870 H   0  0  0  0  0  0  0  0  0  0  0  0
    4.5801    0.5388   -0.0160 H   0  0  0  0  0  0  0  0  0  0  0  0
   -4.5805    0.5312    0.0115 H   0  0  0  0  0  0  0  0  0  0  0  0
  1  2  2  0  0  0  0
  1  7  1  0  0  0  0
  1  8  1  0  0  0  0
  3  9  1  0  0  0  0
  3 15  1  0  0  0  0
  4 10  1  0  0  0  0
  4 16  1  0  0  0  0
  5  9  2  0  0  0  0
  6 10  2  0  0  0  0
  7  9  1  0  0  0  0
  7 11  1  0  0  0  0
  7 12  1  0  0  0  0
  8 10  1  0  0  0  0
  8 13  1  0  0  0  0
  8 14  1  0  0  0  0
M  END
> <PUBCHEM_COMPOUND_CID>
161772

> <PUBCHEM_CONFORMER_RMSD>
0.6

> <PUBCHEM_CONFORMER_DIVERSEORDER>
1
29
16
27
3
26
28
6
19
25
7
2
20
11
12
13
8
17
23
10
18
24
5
4
22
14
21
15
9

> <PUBCHEM_MMFF94_PARTIAL_CHARGES>
12
1 0.11
10 0.66
15 0.5
16 0.5
2 -0.5
3 -0.65
4 -0.65
5 -0.57
6 -0.57
7 0.25
8 0.25
9 0.66

> <PUBCHEM_EFFECTIVE_ROTOR_COUNT>
4

> <PUBCHEM_PHARMACOPHORE_FEATURES>
7
1 2 acceptor
1 3 acceptor
1 4 acceptor
1 5 acceptor
1 6 acceptor
3 3 5 9 anion
3 4 6 10 anion

> <PUBCHEM_HEAVY_ATOM_COUNT>
10

> <PUBCHEM_ATOM_DEF_STEREO_COUNT>
0

> <PUBCHEM_ATOM_UDEF_STEREO_COUNT>
0

> <PUBCHEM_BOND_DEF_STEREO_COUNT>
0

> <PUBCHEM_BOND_UDEF_STEREO_COUNT>
0

> <PUBCHEM_ISOTOPIC_ATOM_COUNT>
0

> <PUBCHEM_COMPONENT_COUNT>
1

> <PUBCHEM_CACTVS_TAUTO_COUNT>
1

> <PUBCHEM_CONFORMER_ID>
000277EC00000001

> <PUBCHEM_MMFF94_ENERGY>
6.9087

> <PUBCHEM_FEATURE_SELFOVERLAP>
35.638

> <PUBCHEM_SHAPE_FINGERPRINT>
11062470 55 17458062664157951960
12932764 1 17775012314054851805
14325111 11 18410293609696976276
14390081 3 18412828005674341945
15775835 57 18411980273519171773
18186145 218 18341612646101505284
20201158 50 18408321069041933810
20645477 70 18187364388850112190
23235685 24 18201723946199629400
23402539 116 18340217327539493316
3248919 1 17775280534788834772

> <PUBCHEM_SHAPE_MULTIPOLES>
180.3
6.17
1.23
0.68
0
0.16
0.04
-1.18
-0.36
-0.02
0.09
0.02
0.11
-0.03

> <PUBCHEM_SHAPE_SELFOVERLAP>
330.912

> <PUBCHEM_SHAPE_VOLUME>
113.6

> <PUBCHEM_COORDINATE_TYPE>
2
5
10

$$$$

