251868
  -OEChem-07051213073D

 56 59  0     1  0  0  0  0  0999 V2000
    4.5082    1.5966   -0.3851 O   0  0  0  0  0  0  0  0  0  0  0  0
   -5.6729    1.3396    0.7303 O   0  0  0  0  0  0  0  0  0  0  0  0
    5.5259   -0.2781    0.5017 O   0  0  0  0  0  0  0  0  0  0  0  0
    1.1650   -1.1699   -0.3544 C   0  0  2  0  0  0  0  0  0  0  0  0
    2.0629    0.0186    0.0431 C   0  0  2  0  0  0  0  0  0  0  0  0
   -0.2666   -1.0554    0.1803 C   0  0  1  0  0  0  0  0  0  0  0  0
   -0.9094    0.2612   -0.3435 C   0  0  1  0  0  0  0  0  0  0  0  0
   -2.3872    0.4489    0.1902 C   0  0  2  0  0  0  0  0  0  0  0  0
    1.4576    1.2844   -0.5799 C   0  0  0  0  0  0  0  0  0  0  0  0
    3.3908   -0.4462   -0.5952 C   0  0  2  0  0  0  0  0  0  0  0  0
    0.0063    1.4976   -0.1161 C   0  0  0  0  0  0  0  0  0  0  0  0
    1.9988   -2.3886    0.0251 C   0  0  0  0  0  0  0  0  0  0  0  0
    3.4397   -1.9626   -0.3108 C   0  0  0  0  0  0  0  0  0  0  0  0
   -1.1069   -2.2634   -0.2557 C   0  0  0  0  0  0  0  0  0  0  0  0
   -3.1671   -0.8698    0.1365 C   0  0  0  0  0  0  0  0  0  0  0  0
    2.2162    0.2020    1.5755 C   0  0  0  0  0  0  0  0  0  0  0  0
   -3.0923    1.5401   -0.6836 C   0  0  0  0  0  0  0  0  0  0  0  0
   -2.5768   -2.0584   -0.0831 C   0  0  0  0  0  0  0  0  0  0  0  0
   -2.3840    0.9118    1.6690 C   0  0  0  0  0  0  0  0  0  0  0  0
   -4.6718   -0.8114    0.3201 C   0  0  0  0  0  0  0  0  0  0  0  0
   -4.4195    1.1081   -1.3160 C   0  0  0  0  0  0  0  0  0  0  0  0
    4.6040    0.2694   -0.0876 C   0  0  0  0  0  0  0  0  0  0  0  0
   -5.3290    0.4213   -0.3069 C   0  0  2  0  0  0  0  0  0  0  0  0
    5.6080    2.4043    0.0462 C   0  0  0  0  0  0  0  0  0  0  0  0
    1.0870   -1.1863   -1.4551 H   0  0  0  0  0  0  0  0  0  0  0  0
   -0.2467   -1.0426    1.2761 H   0  0  0  0  0  0  0  0  0  0  0  0
   -0.9815    0.1436   -1.4374 H   0  0  0  0  0  0  0  0  0  0  0  0
    1.4707    1.2132   -1.6751 H   0  0  0  0  0  0  0  0  0  0  0  0
    2.0428    2.1728   -0.3186 H   0  0  0  0  0  0  0  0  0  0  0  0
    3.3670   -0.3107   -1.6857 H   0  0  0  0  0  0  0  0  0  0  0  0
    0.0244    1.7722    0.9424 H   0  0  0  0  0  0  0  0  0  0  0  0
   -0.3991    2.3662   -0.6473 H   0  0  0  0  0  0  0  0  0  0  0  0
    1.7063   -3.2809   -0.5376 H   0  0  0  0  0  0  0  0  0  0  0  0
    1.9050   -2.6231    1.0913 H   0  0  0  0  0  0  0  0  0  0  0  0
    4.1034   -2.2396    0.5151 H   0  0  0  0  0  0  0  0  0  0  0  0
    3.7977   -2.4958   -1.1993 H   0  0  0  0  0  0  0  0  0  0  0  0
   -0.8035   -3.1400    0.3294 H   0  0  0  0  0  0  0  0  0  0  0  0
   -0.9212   -2.5059   -1.3094 H   0  0  0  0  0  0  0  0  0  0  0  0
    1.2570    0.3149    2.0873 H   0  0  0  0  0  0  0  0  0  0  0  0
    2.7286   -0.6426    2.0472 H   0  0  0  0  0  0  0  0  0  0  0  0
    2.8008    1.1006    1.8038 H   0  0  0  0  0  0  0  0  0  0  0  0
   -2.4452    1.8691   -1.5058 H   0  0  0  0  0  0  0  0  0  0  0  0
   -3.2685    2.4429   -0.0838 H   0  0  0  0  0  0  0  0  0  0  0  0
   -3.1866   -2.9574   -0.1359 H   0  0  0  0  0  0  0  0  0  0  0  0
   -1.9485    1.9094    1.7846 H   0  0  0  0  0  0  0  0  0  0  0  0
   -3.3971    0.9747    2.0806 H   0  0  0  0  0  0  0  0  0  0  0  0
   -1.8222    0.2240    2.3098 H   0  0  0  0  0  0  0  0  0  0  0  0
   -5.1220   -1.6988   -0.1444 H   0  0  0  0  0  0  0  0  0  0  0  0
   -4.8988   -0.8708    1.3917 H   0  0  0  0  0  0  0  0  0  0  0  0
   -4.9157    1.9993   -1.7187 H   0  0  0  0  0  0  0  0  0  0  0  0
   -4.2253    0.4369   -2.1618 H   0  0  0  0  0  0  0  0  0  0  0  0
   -6.2668    0.1344   -0.7963 H   0  0  0  0  0  0  0  0  0  0  0  0
   -6.3072    0.8948    1.3181 H   0  0  0  0  0  0  0  0  0  0  0  0
    6.5334    2.0719   -0.4337 H   0  0  0  0  0  0  0  0  0  0  0  0
    5.7012    2.3654    1.1357 H   0  0  0  0  0  0  0  0  0  0  0  0
    5.4087    3.4369   -0.2523 H   0  0  0  0  0  0  0  0  0  0  0  0
  1 22  1  0  0  0  0
  1 24  1  0  0  0  0
  2 23  1  0  0  0  0
  2 53  1  0  0  0  0
  3 22  2  0  0  0  0
  4  5  1  0  0  0  0
  4  6  1  0  0  0  0
  4 12  1  0  0  0  0
  4 25  1  0  0  0  0
  5  9  1  0  0  0  0
  5 10  1  0  0  0  0
  5 16  1  0  0  0  0
  6  7  1  0  0  0  0
  6 14  1  0  0  0  0
  6 26  1  0  0  0  0
  7  8  1  0  0  0  0
  7 11  1  0  0  0  0
  7 27  1  0  0  0  0
  8 15  1  0  0  0  0
  8 17  1  0  0  0  0
  8 19  1  0  0  0  0
  9 11  1  0  0  0  0
  9 28  1  0  0  0  0
  9 29  1  0  0  0  0
 10 13  1  0  0  0  0
 10 22  1  0  0  0  0
 10 30  1  0  0  0  0
 11 31  1  0  0  0  0
 11 32  1  0  0  0  0
 12 13  1  0  0  0  0
 12 33  1  0  0  0  0
 12 34  1  0  0  0  0
 13 35  1  0  0  0  0
 13 36  1  0  0  0  0
 14 18  1  0  0  0  0
 14 37  1  0  0  0  0
 14 38  1  0  0  0  0
 15 18  2  0  0  0  0
 15 20  1  0  0  0  0
 16 39  1  0  0  0  0
 16 40  1  0  0  0  0
 16 41  1  0  0  0  0
 17 21  1  0  0  0  0
 17 42  1  0  0  0  0
 17 43  1  0  0  0  0
 18 44  1  0  0  0  0
 19 45  1  0  0  0  0
 19 46  1  0  0  0  0
 19 47  1  0  0  0  0
 20 23  1  0  0  0  0
 20 48  1  0  0  0  0
 20 49  1  0  0  0  0
 21 23  1  0  0  0  0
 21 50  1  0  0  0  0
 21 51  1  0  0  0  0
 23 52  1  0  0  0  0
 24 54  1  0  0  0  0
 24 55  1  0  0  0  0
 24 56  1  0  0  0  0
M  END
> <PUBCHEM_COMPOUND_CID>
251868

> <PUBCHEM_CONFORMER_RMSD>
0.8

> <PUBCHEM_CONFORMER_DIVERSEORDER>
1
2

> <PUBCHEM_MMFF94_PARTIAL_CHARGES>
14
1 -0.43
10 0.06
14 0.14
15 -0.28
18 -0.29
2 -0.68
20 0.14
22 0.66
23 0.28
24 0.28
3 -0.57
44 0.15
53 0.4
8 0.14

> <PUBCHEM_EFFECTIVE_ROTOR_COUNT>
4

> <PUBCHEM_PHARMACOPHORE_FEATURES>
7
1 2 acceptor
1 2 donor
1 3 acceptor
5 4 5 10 12 13 rings
6 4 5 6 7 9 11 rings
6 6 7 8 14 15 18 rings
6 8 15 17 20 21 23 rings

> <PUBCHEM_HEAVY_ATOM_COUNT>
24

> <PUBCHEM_ATOM_DEF_STEREO_COUNT>
7

> <PUBCHEM_ATOM_UDEF_STEREO_COUNT>
0

> <PUBCHEM_BOND_DEF_STEREO_COUNT>
0

> <PUBCHEM_BOND_UDEF_STEREO_COUNT>
0

> <PUBCHEM_ISOTOPIC_ATOM_COUNT>
0

> <PUBCHEM_COMPONENT_COUNT>
1

> <PUBCHEM_CACTVS_TAUTO_COUNT>
1

> <PUBCHEM_CONFORMER_ID>
0003D7DC00000001

> <PUBCHEM_MMFF94_ENERGY>
78.9402

> <PUBCHEM_FEATURE_SELFOVERLAP>
35.621

> <PUBCHEM_SHAPE_FINGERPRINT>
10 15 18129945577150841568
10366900 7 17168145632800405331
10411042 1 17617939570747191510
10498660 4 18411980269393022708
10906281 52 18200858600832088244
11089746 13 17385732387125796466
11112241 14 16735257893518880064
11578080 2 17169846461683498699
11595378 159 16988576730857449332
12011746 2 18333732437511776230
12107183 9 17541933629988579560
12236239 1 18410855442948299123
12403259 415 18200312255464820261
12788726 201 17241038928906217473
13140716 1 18339642209505879016
13224815 77 18410855485935109738
13533116 47 17894914095935230327
14790565 3 18411132519905372709
15196674 1 18411135840104866687
15238133 3 15841268263227515127
15375358 24 18272651259606510586
15788980 27 17132114649832907028
1601671 61 18411983550742801028
17349148 13 18186524340944964735
17980427 23 17774158973189436516
1813 80 16917063373573813894
18608769 82 18338515223726970467
200 152 17894635872554289135
20645477 56 18272934933806833189
20645477 70 18262518216369601750
21033648 29 18337124444190906113
21267235 1 18411409644386200118
21304253 335 18342732997005800764
21421861 104 17988092209100282890
23227448 37 18339924809732269135
23402539 116 17822015315488173013
23402655 69 18259705605337673503
23557571 272 16845013523673053060
23559900 14 18335984276729799014
239999 70 18334007337674720566
296302 2 18413389843394789967
3004659 81 18343301505100550678
335352 9 18410855473889010846
34797466 226 17459177513356834244
34934 24 18410858745931429478
350125 39 18337388219818015915
3545911 37 18410572894229939943
3680242 22 18343023332700360154
4340502 62 18409450293380096622
474 4 17703220707879778516
5104073 3 18343299279648135107
5283173 99 18059302083509402077
542803 24 17894911841061361261
9709674 26 18412538799746507743

> <PUBCHEM_SHAPE_MULTIPOLES>
476.3
11.9
2.37
1.02
1.55
0.54
-0.26
-4.98
0.12
1.13
0.22
-0.42
-0.26
0.17

> <PUBCHEM_SHAPE_SELFOVERLAP>
1013.977

> <PUBCHEM_SHAPE_VOLUME>
264.4

> <PUBCHEM_COORDINATE_TYPE>
2
5
10

$$$$

