854116
  -OEChem-06241222472D

 45 48  0     0  0  0  0  0  0999 V2000
    7.2640   -2.7456    0.0000 O   0  0  0  0  0  0  0  0  0  0  0  0
    5.5101    0.2859    0.0000 O   0  0  0  0  0  0  0  0  0  0  0  0
    6.3979   -4.2456    0.0000 O   0  0  0  0  0  0  0  0  0  0  0  0
    5.5319   -1.7456    0.0000 C   0  0  0  0  0  0  0  0  0  0  0  0
    4.5857   -1.4408    0.0000 C   0  0  0  0  0  0  0  0  0  0  0  0
    4.0021   -2.2456    0.0000 C   0  0  0  0  0  0  0  0  0  0  0  0
    4.5857   -3.0503    0.0000 C   0  0  0  0  0  0  0  0  0  0  0  0
    5.5319   -2.7456    0.0000 C   0  0  0  0  0  0  0  0  0  0  0  0
    6.3979   -1.2456    0.0000 C   0  0  0  0  0  0  0  0  0  0  0  0
    7.2640   -1.7456    0.0000 C   0  0  0  0  0  0  0  0  0  0  0  0
    6.3979   -3.2456    0.0000 C   0  0  0  0  0  0  0  0  0  0  0  0
    6.3819   -0.2041    0.0000 C   0  0  0  0  0  0  0  0  0  0  0  0
    8.1740   -1.2387    0.0000 C   0  0  0  0  0  0  0  0  0  0  0  0
    7.2799    0.3237    0.0000 C   0  0  0  0  0  0  0  0  0  0  0  0
    8.1820   -0.1971    0.0000 C   0  0  0  0  0  0  0  0  0  0  0  0
    5.4986    1.2858    0.0000 C   0  0  0  0  0  0  0  0  0  0  0  0
    9.0499    0.2995    0.0000 C   0  0  0  0  0  0  0  0  0  0  0  0
    4.6268    1.7758    0.0000 C   0  0  0  0  0  0  0  0  0  0  0  0
    4.6152    2.7757    0.0000 C   0  0  0  0  0  0  0  0  0  0  0  0
    3.7666    1.2658    0.0000 C   0  0  0  0  0  0  0  0  0  0  0  0
    3.7435    3.2657    0.0000 C   0  0  0  0  0  0  0  0  0  0  0  0
    2.8949    1.7558    0.0000 C   0  0  0  0  0  0  0  0  0  0  0  0
    2.8833    2.7557    0.0000 C   0  0  0  0  0  0  0  0  0  0  0  0
    2.0116    3.2456    0.0000 C   0  0  0  0  0  0  0  0  0  0  0  0
    2.0000    4.2456    0.0000 C   0  0  0  0  0  0  0  0  0  0  0  0
    4.8367   -0.8739    0.0000 H   0  0  0  0  0  0  0  0  0  0  0  0
    4.0483   -1.1316    0.0000 H   0  0  0  0  0  0  0  0  0  0  0  0
    3.5412   -1.8308    0.0000 H   0  0  0  0  0  0  0  0  0  0  0  0
    3.5412   -2.6603    0.0000 H   0  0  0  0  0  0  0  0  0  0  0  0
    4.0483   -3.3595    0.0000 H   0  0  0  0  0  0  0  0  0  0  0  0
    4.8367   -3.6172    0.0000 H   0  0  0  0  0  0  0  0  0  0  0  0
    8.7073   -1.5549    0.0000 H   0  0  0  0  0  0  0  0  0  0  0  0
    7.2775    0.9437    0.0000 H   0  0  0  0  0  0  0  0  0  0  0  0
    6.1103    1.1852    0.0000 H   0  0  0  0  0  0  0  0  0  0  0  0
    5.7039    1.8708    0.0000 H   0  0  0  0  0  0  0  0  0  0  0  0
    9.3579   -0.2386    0.0000 H   0  0  0  0  0  0  0  0  0  0  0  0
    9.5881    0.6075    0.0000 H   0  0  0  0  0  0  0  0  0  0  0  0
    8.7420    0.8377    0.0000 H   0  0  0  0  0  0  0  0  0  0  0  0
    5.1486    3.0919    0.0000 H   0  0  0  0  0  0  0  0  0  0  0  0
    3.7738    0.6458    0.0000 H   0  0  0  0  0  0  0  0  0  0  0  0
    3.7363    3.8856    0.0000 H   0  0  0  0  0  0  0  0  0  0  0  0
    2.3616    1.4396    0.0000 H   0  0  0  0  0  0  0  0  0  0  0  0
    1.4782    2.9294    0.0000 H   0  0  0  0  0  0  0  0  0  0  0  0
    2.5333    4.5618    0.0000 H   0  0  0  0  0  0  0  0  0  0  0  0
    1.4595    4.5493    0.0000 H   0  0  0  0  0  0  0  0  0  0  0  0
  1 10  1  0  0  0  0
  1 11  1  0  0  0  0
  2 12  1  0  0  0  0
  2 16  1  0  0  0  0
  3 11  2  0  0  0  0
  4  5  1  0  0  0  0
  4  8  2  0  0  0  0
  4  9  1  0  0  0  0
  5  6  1  0  0  0  0
  5 26  1  0  0  0  0
  5 27  1  0  0  0  0
  6  7  1  0  0  0  0
  6 28  1  0  0  0  0
  6 29  1  0  0  0  0
  7  8  1  0  0  0  0
  7 30  1  0  0  0  0
  7 31  1  0  0  0  0
  8 11  1  0  0  0  0
  9 10  2  0  0  0  0
  9 12  1  0  0  0  0
 10 13  1  0  0  0  0
 12 14  2  0  0  0  0
 13 15  2  0  0  0  0
 13 32  1  0  0  0  0
 14 15  1  0  0  0  0
 14 33  1  0  0  0  0
 15 17  1  0  0  0  0
 16 18  1  0  0  0  0
 16 34  1  0  0  0  0
 16 35  1  0  0  0  0
 17 36  1  0  0  0  0
 17 37  1  0  0  0  0
 17 38  1  0  0  0  0
 18 19  2  0  0  0  0
 18 20  1  0  0  0  0
 19 21  1  0  0  0  0
 19 39  1  0  0  0  0
 20 22  2  0  0  0  0
 20 40  1  0  0  0  0
 21 23  2  0  0  0  0
 21 41  1  0  0  0  0
 22 23  1  0  0  0  0
 22 42  1  0  0  0  0
 23 24  1  0  0  0  0
 24 25  2  0  0  0  0
 24 43  1  0  0  0  0
 25 44  1  0  0  0  0
 25 45  1  0  0  0  0
M  END
> <PUBCHEM_COMPOUND_CID>
854116

> <PUBCHEM_COMPOUND_CANONICALIZED>
1

> <PUBCHEM_CACTVS_COMPLEXITY>
556

> <PUBCHEM_CACTVS_HBOND_ACCEPTOR>
3

> <PUBCHEM_CACTVS_HBOND_DONOR>
0

> <PUBCHEM_CACTVS_ROTATABLE_BOND>
4

> <PUBCHEM_CACTVS_SUBSKEYS>
AAADceB4MAAAAAAAAAAAAAAAAAAAAQAAAAAwYIAAAAAAAEiBQAAAGgAAAAAADASgmAIyDoAABACIAiDSCAACCAAgIAAIiAEGCMgMJzKEMRqCOiClwBUIqQeI6PyOQAABCAAIAACAAAIQABAAAAAAAAAAAA==

> <PUBCHEM_IUPAC_OPENEYE_NAME>
7-methyl-9-[(4-vinylphenyl)methoxy]-2,3-dihydro-1H-cyclopenta[c]chromen-4-one

> <PUBCHEM_IUPAC_CAS_NAME>
9-[(4-ethenylphenyl)methoxy]-7-methyl-2,3-dihydro-1H-cyclopenta[c][1]benzopyran-4-one

> <PUBCHEM_IUPAC_NAME>
9-[(4-ethenylphenyl)methoxy]-7-methyl-2,3-dihydro-1H-cyclopenta[c]chromen-4-one

> <PUBCHEM_IUPAC_SYSTEMATIC_NAME>
9-[(4-ethenylphenyl)methoxy]-7-methyl-2,3-dihydro-1H-cyclopenta[c]chromen-4-one

> <PUBCHEM_IUPAC_TRADITIONAL_NAME>
7-methyl-9-(4-vinylbenzyl)oxy-2,3-dihydro-1H-cyclopenta[c]chromen-4-one

> <PUBCHEM_IUPAC_INCHI>
InChI=1S/C22H20O3/c1-3-15-7-9-16(10-8-15)13-24-19-11-14(2)12-20-21(19)17-5-4-6-18(17)22(23)25-20/h3,7-12H,1,4-6,13H2,2H3

> <PUBCHEM_IUPAC_INCHIKEY>
YHROTRNOIVWLAG-UHFFFAOYSA-N

> <PUBCHEM_XLOGP3_AA>
4.9

> <PUBCHEM_EXACT_MASS>
332.141245

> <PUBCHEM_MOLECULAR_FORMULA>
C22H20O3

> <PUBCHEM_MOLECULAR_WEIGHT>
332.3924

> <PUBCHEM_OPENEYE_CAN_SMILES>
CC1=CC2=C(C3=C(CCC3)C(=O)O2)C(=C1)OCC4=CC=C(C=C4)C=C

> <PUBCHEM_OPENEYE_ISO_SMILES>
CC1=CC2=C(C3=C(CCC3)C(=O)O2)C(=C1)OCC4=CC=C(C=C4)C=C

> <PUBCHEM_CACTVS_TPSA>
35.5

> <PUBCHEM_MONOISOTOPIC_WEIGHT>
332.141245

> <PUBCHEM_TOTAL_CHARGE>
0

> <PUBCHEM_HEAVY_ATOM_COUNT>
25

> <PUBCHEM_ATOM_DEF_STEREO_COUNT>
0

> <PUBCHEM_ATOM_UDEF_STEREO_COUNT>
0

> <PUBCHEM_BOND_DEF_STEREO_COUNT>
0

> <PUBCHEM_BOND_UDEF_STEREO_COUNT>
0

> <PUBCHEM_ISOTOPIC_ATOM_COUNT>
0

> <PUBCHEM_COMPONENT_COUNT>
1

> <PUBCHEM_CACTVS_TAUTO_COUNT>
1

> <PUBCHEM_COORDINATE_TYPE>
1
5
255

> <PUBCHEM_BONDANNOTATIONS>
1  10  8
1  11  8
10  13  8
12  14  8
13  15  8
14  15  8
18  19  8
18  20  8
19  21  8
20  22  8
21  23  8
22  23  8
4  8  8
4  9  8
8  11  8
9  10  8
9  12  8

$$$$

