442088
  -OEChem-07051212573D

 40 44  0     1  0  0  0  0  0999 V2000
   -2.2651   -2.6378   -0.7073 O   0  0  0  0  0  0  0  0  0  0  0  0
   -0.9399   -1.5213    0.8344 N   0  0  0  0  0  0  0  0  0  0  0  0
   -1.4514    0.8295    1.3131 N   0  0  3  0  0  0  0  0  0  0  0  0
    1.5381    1.1861    0.6716 N   0  0  0  0  0  0  0  0  0  0  0  0
   -0.4628   -0.2394    1.3957 C   0  0  2  0  0  0  0  0  0  0  0  0
    0.8804   -0.0067    0.7628 C   0  0  0  0  0  0  0  0  0  0  0  0
    1.6874   -0.9898    0.2165 C   0  0  0  0  0  0  0  0  0  0  0  0
   -0.0104   -2.6563    0.9945 C   0  0  0  0  0  0  0  0  0  0  0  0
    1.2552   -2.4213    0.1408 C   0  0  0  0  0  0  0  0  0  0  0  0
    2.8794   -0.3614   -0.2378 C   0  0  0  0  0  0  0  0  0  0  0  0
   -1.9526   -1.6064   -0.1167 C   0  0  0  0  0  0  0  0  0  0  0  0
   -2.4051    0.8208    0.3087 C   0  0  0  0  0  0  0  0  0  0  0  0
    2.7599    1.0003    0.0601 C   0  0  0  0  0  0  0  0  0  0  0  0
   -2.6712   -0.3476   -0.4238 C   0  0  0  0  0  0  0  0  0  0  0  0
   -1.3236    1.9610    2.2233 C   0  0  0  0  0  0  0  0  0  0  0  0
    4.0509   -0.8145   -0.8770 C   0  0  0  0  0  0  0  0  0  0  0  0
   -3.1669    1.9610   -0.0177 C   0  0  0  0  0  0  0  0  0  0  0  0
    3.7601    1.9293   -0.2488 C   0  0  0  0  0  0  0  0  0  0  0  0
   -3.6392   -0.3685   -1.4429 C   0  0  0  0  0  0  0  0  0  0  0  0
    5.0579    0.1048   -1.1915 C   0  0  0  0  0  0  0  0  0  0  0  0
    4.9128    1.4552   -0.8811 C   0  0  0  0  0  0  0  0  0  0  0  0
   -4.1298    1.9442   -1.0311 C   0  0  0  0  0  0  0  0  0  0  0  0
   -4.3642    0.7789   -1.7459 C   0  0  0  0  0  0  0  0  0  0  0  0
   -0.2856   -0.4469    2.4602 H   0  0  0  0  0  0  0  0  0  0  0  0
   -0.4905   -3.5955    0.7009 H   0  0  0  0  0  0  0  0  0  0  0  0
    0.2470   -2.7283    2.0580 H   0  0  0  0  0  0  0  0  0  0  0  0
    1.0322   -2.6563   -0.9074 H   0  0  0  0  0  0  0  0  0  0  0  0
    2.0563   -3.0915    0.4697 H   0  0  0  0  0  0  0  0  0  0  0  0
    1.1901    2.0754    1.0018 H   0  0  0  0  0  0  0  0  0  0  0  0
   -2.2783    2.1768    2.7155 H   0  0  0  0  0  0  0  0  0  0  0  0
   -0.9806    2.8555    1.6925 H   0  0  0  0  0  0  0  0  0  0  0  0
   -0.5975    1.7547    3.0177 H   0  0  0  0  0  0  0  0  0  0  0  0
    4.1784   -1.8643   -1.1253 H   0  0  0  0  0  0  0  0  0  0  0  0
   -3.0199    2.9016    0.5082 H   0  0  0  0  0  0  0  0  0  0  0  0
    3.6485    2.9814   -0.0087 H   0  0  0  0  0  0  0  0  0  0  0  0
   -3.8441   -1.2729   -2.0100 H   0  0  0  0  0  0  0  0  0  0  0  0
    5.9632   -0.2402   -1.6839 H   0  0  0  0  0  0  0  0  0  0  0  0
    5.7076    2.1521   -1.1344 H   0  0  0  0  0  0  0  0  0  0  0  0
   -4.6930    2.8448   -1.2578 H   0  0  0  0  0  0  0  0  0  0  0  0
   -5.1113    0.7610   -2.5333 H   0  0  0  0  0  0  0  0  0  0  0  0
  1 11  2  0  0  0  0
  2  5  1  0  0  0  0
  2  8  1  0  0  0  0
  2 11  1  0  0  0  0
  3  5  1  0  0  0  0
  3 12  1  0  0  0  0
  3 15  1  0  0  0  0
  4  6  1  0  0  0  0
  4 13  1  0  0  0  0
  4 29  1  0  0  0  0
  5  6  1  0  0  0  0
  5 24  1  0  0  0  0
  6  7  2  0  0  0  0
  7  9  1  0  0  0  0
  7 10  1  0  0  0  0
  8  9  1  0  0  0  0
  8 25  1  0  0  0  0
  8 26  1  0  0  0  0
  9 27  1  0  0  0  0
  9 28  1  0  0  0  0
 10 13  1  0  0  0  0
 10 16  2  0  0  0  0
 11 14  1  0  0  0  0
 12 14  1  0  0  0  0
 12 17  2  0  0  0  0
 13 18  2  0  0  0  0
 14 19  2  0  0  0  0
 15 30  1  0  0  0  0
 15 31  1  0  0  0  0
 15 32  1  0  0  0  0
 16 20  1  0  0  0  0
 16 33  1  0  0  0  0
 17 22  1  0  0  0  0
 17 34  1  0  0  0  0
 18 21  1  0  0  0  0
 18 35  1  0  0  0  0
 19 23  1  0  0  0  0
 19 36  1  0  0  0  0
 20 21  2  0  0  0  0
 20 37  1  0  0  0  0
 21 38  1  0  0  0  0
 22 23  2  0  0  0  0
 22 39  1  0  0  0  0
 23 40  1  0  0  0  0
M  END
> <PUBCHEM_COMPOUND_CID>
442088

> <PUBCHEM_CONFORMER_RMSD>
0.6

> <PUBCHEM_CONFORMER_DIVERSEORDER>
2
1

> <PUBCHEM_MMFF94_PARTIAL_CHARGES>
31
1 -0.57
11 0.54
12 0.1
13 -0.15
14 0.09
15 0.37
16 -0.15
17 -0.15
18 -0.15
19 -0.15
2 -0.66
20 -0.15
21 -0.15
22 -0.15
23 -0.15
29 0.27
3 -0.84
33 0.15
34 0.15
35 0.15
36 0.15
37 0.15
38 0.15
39 0.15
4 0.03
40 0.15
5 0.85
6 -0.33
7 -0.18
8 0.3
9 0.18

> <PUBCHEM_EFFECTIVE_ROTOR_COUNT>
0.6

> <PUBCHEM_PHARMACOPHORE_FEATURES>
9
1 1 acceptor
1 3 cation
1 4 cation
1 4 donor
5 4 6 7 10 13 rings
6 10 13 16 18 20 21 rings
6 12 14 17 19 22 23 rings
6 2 3 5 11 12 14 rings
6 2 5 6 7 8 9 rings

> <PUBCHEM_HEAVY_ATOM_COUNT>
23

> <PUBCHEM_ATOM_DEF_STEREO_COUNT>
1

> <PUBCHEM_ATOM_UDEF_STEREO_COUNT>
0

> <PUBCHEM_BOND_DEF_STEREO_COUNT>
0

> <PUBCHEM_BOND_UDEF_STEREO_COUNT>
0

> <PUBCHEM_ISOTOPIC_ATOM_COUNT>
0

> <PUBCHEM_COMPONENT_COUNT>
1

> <PUBCHEM_CACTVS_TAUTO_COUNT>
1

> <PUBCHEM_CONFORMER_ID>
0006BEE800000002

> <PUBCHEM_MMFF94_ENERGY>
70.2309

> <PUBCHEM_FEATURE_SELFOVERLAP>
45.934

> <PUBCHEM_SHAPE_FINGERPRINT>
10498660 4 18273220789339254893
105312 117 17988915661567555366
10756046 5 18334577992060914327
11370993 144 12247139531648687500
11370993 70 18341619195926677212
11640471 11 17846509118402504211
11725454 13 17132122367662356105
11796584 16 14418140650966564061
12035759 4 18189055463413355035
12363563 72 14201401572945534124
12670546 177 18260548930814167756
12730499 353 18130218367634698705
12788726 201 17386846299906004249
12892183 10 10663820788633474716
13103583 49 8646488578523997501
13464514 151 18341891943667252006
13544653 18 6555403219539297056
13583140 156 17060050407423287680
13994607 96 16558740205120111157
14468879 13 17703507791830803713
14713325 29 18059849516014676891
15163728 17 17917695916780472454
15209294 21 13470683741738640916
15420108 30 16676118891535182536
16752209 62 17313674870376245593
16945 1 18187088377208835067
16994733 274 15768402460442385519
17349148 13 18259989310035322762
17780758 139 8646225692355537484
1813 80 5328460423334458600
18186145 218 18409166597551827272
192875 21 18261401091344169186
193927 3 4967608416406669485
19765921 60 18202009832403334683
19862831 5 18260269667613615348
200 152 16950556671399504080
20775438 99 16378376171929565135
20775530 9 13987796026155929957
20871999 31 18114186332787410629
21756936 100 15913040985560580932
221357 26 18188777141327898095
22182313 1 17825685356130911019
22393880 68 18409168792654830926
22907989 373 17841132382099475998
23227448 37 18272086050653233773
23559900 14 18186519887464909624
25 1 18271242819513156218
2748010 2 16750446357928883459
2838139 119 17632308894487947837
3027735 51 15140948613030231613
394222 165 17987249995782883387
4028521 119 18342459235526479292
474 4 18130795615212540235
9981440 41 18271816661778174890

> <PUBCHEM_SHAPE_MULTIPOLES>
452.52
9.11
2.67
1.54
4.98
1.04
-0.29
-4.8
5.88
-0.61
-0.31
-1
-0.46
-0.23

> <PUBCHEM_SHAPE_SELFOVERLAP>
1026.203

> <PUBCHEM_SHAPE_VOLUME>
235.1

> <PUBCHEM_COORDINATE_TYPE>
2
5
10

$$$$

