441972
  -OEChem-07051212562D

 51 55  0     1  0  0  0  0  0999 V2000
    5.3000    3.5447    0.0000 O   0  0  0  0  0  0  0  0  0  0  0  0
    3.7863    2.6270    0.0000 O   0  0  0  0  0  0  0  0  0  0  0  0
    8.3654    3.4872    0.0000 O   0  0  0  0  0  0  0  0  0  0  0  0
    8.3454    1.7553    0.0000 O   0  0  0  0  0  0  0  0  0  0  0  0
    2.6198   -3.3280    0.0000 O   0  0  0  0  0  0  0  0  0  0  0  0
    8.0977   -3.1788    0.0000 O   0  0  0  0  0  0  0  0  0  0  0  0
    9.1198   -1.7805    0.0000 O   0  0  0  0  0  0  0  0  0  0  0  0
    4.9199   -0.0121    0.0000 N   0  0  0  0  0  0  0  0  0  0  0  0
    7.5101   -0.6109    0.0000 N   0  0  0  0  0  0  0  0  0  0  0  0
    5.3209    1.7447    0.0000 C   0  0  1  0  0  0  0  0  0  0  0  0
    6.3209    1.7447    0.0000 C   0  0  2  0  0  0  0  0  0  0  0  0
    4.6974    0.9628    0.0000 C   0  0  1  0  0  0  0  0  0  0  0  0
    6.9444    0.9628    0.0000 C   0  0  0  0  0  0  0  0  0  0  0  0
    4.7862    2.6386    0.0000 C   0  0  2  0  0  0  0  0  0  0  0  0
    5.8209   -0.4460    0.0000 C   0  0  0  0  0  0  0  0  0  0  0  0
    6.7218   -0.0121    0.0000 C   0  0  0  0  0  0  0  0  0  0  0  0
    6.8555    2.6386    0.0000 C   0  0  0  0  0  0  0  0  0  0  0  0
    4.2348   -0.7324    0.0000 C   0  0  0  0  0  0  0  0  0  0  0  0
    3.7224    1.1854    0.0000 C   0  0  0  0  0  0  0  0  0  0  0  0
    5.6849   -1.4307    0.0000 C   0  0  0  0  0  0  0  0  0  0  0  0
    4.7066   -1.6074    0.0000 C   0  0  0  0  0  0  0  0  0  0  0  0
    6.3417    3.5447    0.0000 C   0  0  0  0  0  0  0  0  0  0  0  0
    6.4947   -2.0001    0.0000 C   0  0  0  0  0  0  0  0  0  0  0  0
    3.2003   -0.6863    0.0000 C   0  0  0  0  0  0  0  0  0  0  0  0
    7.8554    2.6270    0.0000 C   0  0  0  0  0  0  0  0  0  0  0  0
    4.1767   -2.4970    0.0000 C   0  0  0  0  0  0  0  0  0  0  0  0
    7.3978   -1.5945    0.0000 C   0  0  0  0  0  0  0  0  0  0  0  0
    2.6500   -1.5634    0.0000 C   0  0  0  0  0  0  0  0  0  0  0  0
    3.1415   -2.4748    0.0000 C   0  0  0  0  0  0  0  0  0  0  0  0
    8.2051   -2.1846    0.0000 C   0  0  0  0  0  0  0  0  0  0  0  0
    9.3654    3.4757    0.0000 C   0  0  0  0  0  0  0  0  0  0  0  0
    4.4728    1.8017    0.0000 H   0  0  0  0  0  0  0  0  0  0  0  0
    7.1690    1.8017    0.0000 H   0  0  0  0  0  0  0  0  0  0  0  0
    4.2590    0.5244    0.0000 H   0  0  0  0  0  0  0  0  0  0  0  0
    7.5030    0.6938    0.0000 H   0  0  0  0  0  0  0  0  0  0  0  0
    7.3309    1.4476    0.0000 H   0  0  0  0  0  0  0  0  0  0  0  0
    4.4710    3.1725    0.0000 H   0  0  0  0  0  0  0  0  0  0  0  0
    3.8604    1.7898    0.0000 H   0  0  0  0  0  0  0  0  0  0  0  0
    3.1180    1.3233    0.0000 H   0  0  0  0  0  0  0  0  0  0  0  0
    3.5845    0.5809    0.0000 H   0  0  0  0  0  0  0  0  0  0  0  0
    6.6537    4.0804    0.0000 H   0  0  0  0  0  0  0  0  0  0  0  0
    6.4357   -2.6172    0.0000 H   0  0  0  0  0  0  0  0  0  0  0  0
    2.9124   -0.1373    0.0000 H   0  0  0  0  0  0  0  0  0  0  0  0
    3.4701    3.1604    0.0000 H   0  0  0  0  0  0  0  0  0  0  0  0
    4.4773   -3.0392    0.0000 H   0  0  0  0  0  0  0  0  0  0  0  0
    2.0303   -1.5430    0.0000 H   0  0  0  0  0  0  0  0  0  0  0  0
    2.0000   -3.3124    0.0000 H   0  0  0  0  0  0  0  0  0  0  0  0
    9.3582    2.8557    0.0000 H   0  0  0  0  0  0  0  0  0  0  0  0
    9.9853    3.4685    0.0000 H   0  0  0  0  0  0  0  0  0  0  0  0
    9.3725    4.0956    0.0000 H   0  0  0  0  0  0  0  0  0  0  0  0
    8.5982   -3.5447    0.0000 H   0  0  0  0  0  0  0  0  0  0  0  0
  1 14  1  0  0  0  0
  1 22  1  0  0  0  0
 14  2  1  1  0  0  0
  2 44  1  0  0  0  0
  3 25  1  0  0  0  0
  3 31  1  0  0  0  0
  4 25  2  0  0  0  0
  5 29  1  0  0  0  0
  5 47  1  0  0  0  0
  6 30  1  0  0  0  0
  6 51  1  0  0  0  0
  7 30  2  0  0  0  0
  8 12  1  0  0  0  0
  8 15  1  0  0  0  0
  8 18  1  0  0  0  0
  9 16  1  0  0  0  0
  9 27  2  0  0  0  0
 10 11  1  0  0  0  0
 10 12  1  0  0  0  0
 10 14  1  0  0  0  0
 10 32  1  6  0  0  0
 11 13  1  0  0  0  0
 11 17  1  0  0  0  0
 11 33  1  6  0  0  0
 12 19  1  6  0  0  0
 12 34  1  0  0  0  0
 13 16  1  0  0  0  0
 13 35  1  0  0  0  0
 13 36  1  0  0  0  0
 14 37  1  0  0  0  0
 15 16  2  0  0  0  0
 15 20  1  0  0  0  0
 17 22  2  0  0  0  0
 17 25  1  0  0  0  0
 18 21  2  0  0  0  0
 18 24  1  0  0  0  0
 19 38  1  0  0  0  0
 19 39  1  0  0  0  0
 19 40  1  0  0  0  0
 20 21  1  0  0  0  0
 20 23  2  0  0  0  0
 21 26  1  0  0  0  0
 22 41  1  0  0  0  0
 23 27  1  0  0  0  0
 23 42  1  0  0  0  0
 24 28  2  0  0  0  0
 24 43  1  0  0  0  0
 26 29  2  0  0  0  0
 26 45  1  0  0  0  0
 27 30  1  0  0  0  0
 28 29  1  0  0  0  0
 28 46  1  0  0  0  0
 31 48  1  0  0  0  0
 31 49  1  0  0  0  0
 31 50  1  0  0  0  0
M  END
> <PUBCHEM_COMPOUND_CID>
441972

> <PUBCHEM_COMPOUND_CANONICALIZED>
1

> <PUBCHEM_CACTVS_COMPLEXITY>
788

> <PUBCHEM_CACTVS_HBOND_ACCEPTOR>
8

> <PUBCHEM_CACTVS_HBOND_DONOR>
3

> <PUBCHEM_CACTVS_ROTATABLE_BOND>
3

> <PUBCHEM_CACTVS_SUBSKEYS>
AAADceB7OAAAAAAAAAAAAAAAAAAAAWAAAAA8QIAABYAAAFix/gAAHgAACAAADSzxngcyzvMMFgCoAyTyTASCiCQnMiAI2CG+fNgadvLCtbOUcQhmwBHY+Ye4/fuegEABAAACAAAAgAIAAAQAAAAAAAAAAA==

> <PUBCHEM_IUPAC_INCHI>
InChI=1S/C22H20N2O7/c1-9-18-12(14(21(28)30-2)8-31-22(18)29)6-15-19-13(7-16(23-15)20(26)27)11-5-10(25)3-4-17(11)24(9)19/h3-5,7-9,12,18,22,25,29H,6H2,1-2H3,(H,26,27)/t9-,12-,18-,22+/m1/s1

> <PUBCHEM_IUPAC_INCHIKEY>
DJWXVEDJWPDUBQ-DEALGVFLSA-N

> <PUBCHEM_XLOGP3_AA>
1.9

> <PUBCHEM_EXACT_MASS>
424.127051

> <PUBCHEM_MOLECULAR_FORMULA>
C22H20N2O7

> <PUBCHEM_MOLECULAR_WEIGHT>
424.4034

> <PUBCHEM_OPENEYE_CAN_SMILES>
CC1C2C(CC3=C4N1C5=C(C4=CC(=N3)C(=O)O)C=C(C=C5)O)C(=COC2O)C(=O)OC

> <PUBCHEM_OPENEYE_ISO_SMILES>
C[C@@H]1[C@@H]2[C@H](CC3=C4N1C5=C(C4=CC(=N3)C(=O)O)C=C(C=C5)O)C(=CO[C@@H]2O)C(=O)OC

> <PUBCHEM_CACTVS_TPSA>
131

> <PUBCHEM_MONOISOTOPIC_WEIGHT>
424.127051

> <PUBCHEM_TOTAL_CHARGE>
0

> <PUBCHEM_HEAVY_ATOM_COUNT>
31

> <PUBCHEM_ATOM_DEF_STEREO_COUNT>
4

> <PUBCHEM_ATOM_UDEF_STEREO_COUNT>
0

> <PUBCHEM_BOND_DEF_STEREO_COUNT>
0

> <PUBCHEM_BOND_UDEF_STEREO_COUNT>
0

> <PUBCHEM_ISOTOPIC_ATOM_COUNT>
0

> <PUBCHEM_COMPONENT_COUNT>
1

> <PUBCHEM_CACTVS_TAUTO_COUNT>
3

> <PUBCHEM_COORDINATE_TYPE>
1
5
255

> <PUBCHEM_BONDANNOTATIONS>
10  32  6
11  33  6
12  19  6
15  16  8
15  20  8
18  21  8
18  24  8
14  2  5
20  21  8
20  23  8
21  26  8
23  27  8
24  28  8
26  29  8
28  29  8
8  15  8
8  18  8
9  16  8
9  27  8

$$$$

