9747
  -OEChem-06261204013D

 23 22  0     0  0  0  0  0  0999 V2000
   -4.6674    0.8818   -0.4818 Cl  0  0  0  0  0  0  0  0  0  0  0  0
   -3.0661   -0.2741    0.0641 S   0  0  0  0  0  0  0  0  0  0  0  0
    4.7286   -1.1493   -0.3031 F   0  0  0  0  0  0  0  0  0  0  0  0
   -3.1645   -0.3893    1.5071 O   0  0  0  0  0  0  0  0  0  0  0  0
   -3.1358   -1.4387   -0.7983 O   0  0  0  0  0  0  0  0  0  0  0  0
    0.9216    0.7797   -0.2060 C   0  0  0  0  0  0  0  0  0  0  0  0
   -0.3387   -0.0035    0.1709 C   0  0  0  0  0  0  0  0  0  0  0  0
    2.1855    0.0529    0.2591 C   0  0  0  0  0  0  0  0  0  0  0  0
   -1.6172    0.6477   -0.3376 C   0  0  0  0  0  0  0  0  0  0  0  0
    3.4474    0.8132   -0.1519 C   0  0  0  0  0  0  0  0  0  0  0  0
    4.7064    0.0797    0.2775 C   0  0  0  0  0  0  0  0  0  0  0  0
    0.8810    1.7795    0.2427 H   0  0  0  0  0  0  0  0  0  0  0  0
    0.9551    0.9136   -1.2941 H   0  0  0  0  0  0  0  0  0  0  0  0
   -0.3876   -0.1085    1.2618 H   0  0  0  0  0  0  0  0  0  0  0  0
   -0.2689   -1.0212   -0.2337 H   0  0  0  0  0  0  0  0  0  0  0  0
    2.1639   -0.0627    1.3495 H   0  0  0  0  0  0  0  0  0  0  0  0
    2.2064   -0.9553   -0.1723 H   0  0  0  0  0  0  0  0  0  0  0  0
   -1.7335    1.6401    0.1103 H   0  0  0  0  0  0  0  0  0  0  0  0
   -1.5927    0.7571   -1.4266 H   0  0  0  0  0  0  0  0  0  0  0  0
    3.4415    1.8175    0.2865 H   0  0  0  0  0  0  0  0  0  0  0  0
    3.4580    0.9256   -1.2424 H   0  0  0  0  0  0  0  0  0  0  0  0
    4.7436   -0.0564    1.3623 H   0  0  0  0  0  0  0  0  0  0  0  0
    5.6018    0.6202   -0.0420 H   0  0  0  0  0  0  0  0  0  0  0  0
  1  2  1  0  0  0  0
  2  4  2  0  0  0  0
  2  5  2  0  0  0  0
  2  9  1  0  0  0  0
  3 11  1  0  0  0  0
  6  7  1  0  0  0  0
  6  8  1  0  0  0  0
  6 12  1  0  0  0  0
  6 13  1  0  0  0  0
  7  9  1  0  0  0  0
  7 14  1  0  0  0  0
  7 15  1  0  0  0  0
  8 10  1  0  0  0  0
  8 16  1  0  0  0  0
  8 17  1  0  0  0  0
  9 18  1  0  0  0  0
  9 19  1  0  0  0  0
 10 11  1  0  0  0  0
 10 20  1  0  0  0  0
 10 21  1  0  0  0  0
 11 22  1  0  0  0  0
 11 23  1  0  0  0  0
M  END
> <PUBCHEM_COMPOUND_CID>
9747

> <PUBCHEM_CONFORMER_RMSD>
0.6

> <PUBCHEM_CONFORMER_DIVERSEORDER>
1
79
128
114
16
89
49
2
66
127
41
109
77
76
87
95
25
101
118
5
117
126
10
125
96
45
131
17
55
12
119
22
81
30
69
86
112
57
42
4
97
73
92
91
37
23
36
122
78
113
100
83
121
67
26
123
84
21
102
90
53
104
120
40
46
107
116
29
106
124
82
72
28
39
99
51
38
94
71
24
105
68
64
13
103
85
52
43
27
60
48
7
93
56
88
59
54
14
63
32
47
58
115
110
33
130
6
80
75
3
111
129
15
108
31
34
19
9
44
11
35
50
8
62
65
18
70
98
61
20
74

> <PUBCHEM_MMFF94_PARTIAL_CHARGES>
7
1 -0.19
11 0.34
2 1.38
3 -0.34
4 -0.65
5 -0.65
9 0.11

> <PUBCHEM_EFFECTIVE_ROTOR_COUNT>
6

> <PUBCHEM_PHARMACOPHORE_FEATURES>
1
4 6 7 8 10 hydrophobe

> <PUBCHEM_HEAVY_ATOM_COUNT>
11

> <PUBCHEM_ATOM_DEF_STEREO_COUNT>
0

> <PUBCHEM_ATOM_UDEF_STEREO_COUNT>
0

> <PUBCHEM_BOND_DEF_STEREO_COUNT>
0

> <PUBCHEM_BOND_UDEF_STEREO_COUNT>
0

> <PUBCHEM_ISOTOPIC_ATOM_COUNT>
0

> <PUBCHEM_COMPONENT_COUNT>
1

> <PUBCHEM_CACTVS_TAUTO_COUNT>
1

> <PUBCHEM_CONFORMER_ID>
0000261300000001

> <PUBCHEM_MMFF94_ENERGY>
0.6832

> <PUBCHEM_FEATURE_SELFOVERLAP>
5.074

> <PUBCHEM_SHAPE_FINGERPRINT>
10680689 15 18342737412057944709
114248 4 9223226351638111028
11987891 38 18261109669191805670
124424 183 17385444314984529449
14123238 8 7132431332806767044
15242439 84 18060421326110901196
17834076 25 16343704347856750504
18186145 218 16271930376437599388
190213 19 17167858647407001380
1986462 14 16200150971720872587
20279233 1 18113894974848073253
20645477 70 18335706108381904502
20828058 44 17748825202740355878
21119208 17 18343586247935346453
22485316 2 18334580131207380428
23402539 116 18412833477547086292
23557571 272 17845937458556230644
42788 4 18343866619147737988
449060 50 9007054673615791376

> <PUBCHEM_SHAPE_MULTIPOLES>
213.08
10.83
1.09
0.86
5.42
0.08
-0.15
0.61
0.55
-0.34
0.17
-0.62
0.17
0.23

> <PUBCHEM_SHAPE_SELFOVERLAP>
369.921

> <PUBCHEM_SHAPE_VOLUME>
141.4

> <PUBCHEM_COORDINATE_TYPE>
2
5
10

$$$$

