76738
  -OEChem-07051213103D

 19 19  0     0  0  0  0  0  0999 V2000
   -2.1954    1.2850   -0.4361 O   0  0  0  0  0  0  0  0  0  0  0  0
   -2.7723   -1.4136   -0.1013 O   0  0  0  0  0  0  0  0  0  0  0  0
    3.4259   -0.4875    0.1954 O   0  5  0  0  0  0  0  0  0  0  0  0
    2.7502    1.5746   -0.1373 O   0  0  0  0  0  0  0  0  0  0  0  0
    2.5110    0.3524    0.0163 N   0  3  0  0  0  0  0  0  0  0  0  0
   -1.1942    0.3817   -0.2420 C   0  0  0  0  0  0  0  0  0  0  0  0
    1.1634   -0.0942   -0.0140 C   0  0  0  0  0  0  0  0  0  0  0  0
    0.1293    0.8208   -0.2120 C   0  0  0  0  0  0  0  0  0  0  0  0
   -1.4838   -0.9723   -0.0741 C   0  0  0  0  0  0  0  0  0  0  0  0
    0.8738   -1.4483    0.1540 C   0  0  0  0  0  0  0  0  0  0  0  0
   -0.4498   -1.8874    0.1241 C   0  0  0  0  0  0  0  0  0  0  0  0
   -2.7581    1.8888    0.7270 C   0  0  0  0  0  0  0  0  0  0  0  0
    0.3252    1.8821   -0.3468 H   0  0  0  0  0  0  0  0  0  0  0  0
    1.6534   -2.1895    0.3104 H   0  0  0  0  0  0  0  0  0  0  0  0
   -0.6618   -2.9450    0.2564 H   0  0  0  0  0  0  0  0  0  0  0  0
   -1.9964    2.4570    1.2704 H   0  0  0  0  0  0  0  0  0  0  0  0
   -3.1986    1.1298    1.3810 H   0  0  0  0  0  0  0  0  0  0  0  0
   -3.5465    2.5763    0.4088 H   0  0  0  0  0  0  0  0  0  0  0  0
   -2.7802   -2.3769    0.0328 H   0  0  0  0  0  0  0  0  0  0  0  0
  1  6  1  0  0  0  0
  1 12  1  0  0  0  0
  2  9  1  0  0  0  0
  2 19  1  0  0  0  0
  3  5  1  0  0  0  0
  4  5  2  0  0  0  0
  5  7  1  0  0  0  0
  6  8  1  0  0  0  0
  6  9  2  0  0  0  0
  7  8  2  0  0  0  0
  7 10  1  0  0  0  0
  8 13  1  0  0  0  0
  9 11  1  0  0  0  0
 10 11  2  0  0  0  0
 10 14  1  0  0  0  0
 11 15  1  0  0  0  0
 12 16  1  0  0  0  0
 12 17  1  0  0  0  0
 12 18  1  0  0  0  0
M  CHG  2   3  -1   5   1
M  END
> <PUBCHEM_COMPOUND_CID>
76738

> <PUBCHEM_CONFORMER_RMSD>
0.6

> <PUBCHEM_CONFORMER_DIVERSEORDER>
1

> <PUBCHEM_MMFF94_PARTIAL_CHARGES>
16
1 -0.36
10 -0.15
11 -0.15
12 0.28
13 0.15
14 0.15
15 0.15
19 0.45
2 -0.53
3 -0.52
4 -0.52
5 0.91
6 0.08
7 0.13
8 -0.15
9 0.08

> <PUBCHEM_EFFECTIVE_ROTOR_COUNT>
2

> <PUBCHEM_PHARMACOPHORE_FEATURES>
6
1 1 acceptor
1 2 donor
1 3 acceptor
1 3 anion
1 4 acceptor
6 6 7 8 9 10 11 rings

> <PUBCHEM_HEAVY_ATOM_COUNT>
12

> <PUBCHEM_ATOM_DEF_STEREO_COUNT>
0

> <PUBCHEM_ATOM_UDEF_STEREO_COUNT>
0

> <PUBCHEM_BOND_DEF_STEREO_COUNT>
0

> <PUBCHEM_BOND_UDEF_STEREO_COUNT>
0

> <PUBCHEM_ISOTOPIC_ATOM_COUNT>
0

> <PUBCHEM_COMPONENT_COUNT>
1

> <PUBCHEM_CACTVS_TAUTO_COUNT>
5

> <PUBCHEM_CONFORMER_ID>
00012BC200000001

> <PUBCHEM_MMFF94_ENERGY>
43.9385

> <PUBCHEM_FEATURE_SELFOVERLAP>
30.527

> <PUBCHEM_SHAPE_FINGERPRINT>
12932764 1 17560808766088555388
13380535 21 18266165304896714359
13380535 76 18338239383219558431
14325111 11 18411702075834603572
14897335 6 18337961215436023093
15775835 57 18343296007046494088
16945 1 18265896852208078086
193761 8 18267024036526705895
19973954 147 18338797814893712588
20510252 161 18262518087309157553
20653085 51 18337379513497131970
20871998 184 18189610536571283671
21040471 1 18411981402990036662
21501502 16 18411701006256027438
23402539 116 18263094231587027335
23552423 10 18272936029002738686
23559900 14 18261951943139764582
2748010 2 18411416258350765623
369184 2 18335703784740949110
5084963 1 18261393308531236186
6333449 129 18409733971332106317

> <PUBCHEM_SHAPE_MULTIPOLES>
218.5
4.44
2.04
0.66
1.55
0.13
-0.03
-1.61
-0.37
-0.88
-0.15
-0.17
-0.08
-0.34

> <PUBCHEM_SHAPE_SELFOVERLAP>
457.048

> <PUBCHEM_SHAPE_VOLUME>
124.9

> <PUBCHEM_COORDINATE_TYPE>
2
5
10

$$$$

