25670
  -OEChem-07051213122D

 36 35  0     0  0  0  0  0  0999 V2000
    7.1962   -0.3660    0.0000 S   0  0  0  0  0  0  0  0  0  0  0  0
    5.4641   -0.3660    0.0000 S   0  0  0  0  0  0  0  0  0  0  0  0
    5.0981   -1.7320    0.0000 S   0  0  0  0  0  0  0  0  0  0  0  0
    4.5981   -0.8660    0.0000 P   0  0  0  0  0  0  0  0  0  0  0  0
    3.7320   -1.3660    0.0000 O   0  0  0  0  0  0  0  0  0  0  0  0
    4.0981    0.0000    0.0000 O   0  0  0  0  0  0  0  0  0  0  0  0
    8.0622   -0.8660    0.0000 C   0  0  0  0  0  0  0  0  0  0  0  0
    8.9282   -1.3660    0.0000 C   0  0  0  0  0  0  0  0  0  0  0  0
    8.5622    0.0000    0.0000 C   0  0  0  0  0  0  0  0  0  0  0  0
    7.5622   -1.7320    0.0000 C   0  0  0  0  0  0  0  0  0  0  0  0
    6.3301   -0.8660    0.0000 C   0  0  0  0  0  0  0  0  0  0  0  0
    2.8660   -0.8660    0.0000 C   0  0  0  0  0  0  0  0  0  0  0  0
    4.5981    0.8660    0.0000 C   0  0  0  0  0  0  0  0  0  0  0  0
    2.0000   -1.3660    0.0000 C   0  0  0  0  0  0  0  0  0  0  0  0
    4.0981    1.7320    0.0000 C   0  0  0  0  0  0  0  0  0  0  0  0
    8.6182   -1.9030    0.0000 H   0  0  0  0  0  0  0  0  0  0  0  0
    9.4651   -1.6760    0.0000 H   0  0  0  0  0  0  0  0  0  0  0  0
    9.2382   -0.8291    0.0000 H   0  0  0  0  0  0  0  0  0  0  0  0
    9.0991   -0.3100    0.0000 H   0  0  0  0  0  0  0  0  0  0  0  0
    8.8722    0.5369    0.0000 H   0  0  0  0  0  0  0  0  0  0  0  0
    8.0252    0.3100    0.0000 H   0  0  0  0  0  0  0  0  0  0  0  0
    7.0252   -1.4220    0.0000 H   0  0  0  0  0  0  0  0  0  0  0  0
    7.2522   -2.2690    0.0000 H   0  0  0  0  0  0  0  0  0  0  0  0
    8.0991   -2.0420    0.0000 H   0  0  0  0  0  0  0  0  0  0  0  0
    5.9316   -1.3410    0.0000 H   0  0  0  0  0  0  0  0  0  0  0  0
    6.7287   -1.3410    0.0000 H   0  0  0  0  0  0  0  0  0  0  0  0
    3.2646   -0.3911    0.0000 H   0  0  0  0  0  0  0  0  0  0  0  0
    2.4675   -0.3911    0.0000 H   0  0  0  0  0  0  0  0  0  0  0  0
    5.0730    0.4675    0.0000 H   0  0  0  0  0  0  0  0  0  0  0  0
    5.0730    1.2646    0.0000 H   0  0  0  0  0  0  0  0  0  0  0  0
    1.6900   -0.8291    0.0000 H   0  0  0  0  0  0  0  0  0  0  0  0
    1.4631   -1.6760    0.0000 H   0  0  0  0  0  0  0  0  0  0  0  0
    2.3100   -1.9030    0.0000 H   0  0  0  0  0  0  0  0  0  0  0  0
    4.6350    2.0420    0.0000 H   0  0  0  0  0  0  0  0  0  0  0  0
    3.7881    2.2690    0.0000 H   0  0  0  0  0  0  0  0  0  0  0  0
    3.5611    1.4220    0.0000 H   0  0  0  0  0  0  0  0  0  0  0  0
  1  7  1  0  0  0  0
  1 11  1  0  0  0  0
  2  4  1  0  0  0  0
  2 11  1  0  0  0  0
  3  4  2  0  0  0  0
  4  5  1  0  0  0  0
  4  6  1  0  0  0  0
  5 12  1  0  0  0  0
  6 13  1  0  0  0  0
  7  8  1  0  0  0  0
  7  9  1  0  0  0  0
  7 10  1  0  0  0  0
  8 16  1  0  0  0  0
  8 17  1  0  0  0  0
  8 18  1  0  0  0  0
  9 19  1  0  0  0  0
  9 20  1  0  0  0  0
  9 21  1  0  0  0  0
 10 22  1  0  0  0  0
 10 23  1  0  0  0  0
 10 24  1  0  0  0  0
 11 25  1  0  0  0  0
 11 26  1  0  0  0  0
 12 14  1  0  0  0  0
 12 27  1  0  0  0  0
 12 28  1  0  0  0  0
 13 15  1  0  0  0  0
 13 29  1  0  0  0  0
 13 30  1  0  0  0  0
 14 31  1  0  0  0  0
 14 32  1  0  0  0  0
 14 33  1  0  0  0  0
 15 34  1  0  0  0  0
 15 35  1  0  0  0  0
 15 36  1  0  0  0  0
M  END
> <PUBCHEM_COMPOUND_CID>
25670

> <PUBCHEM_COMPOUND_CANONICALIZED>
1

> <PUBCHEM_CACTVS_COMPLEXITY>
206

> <PUBCHEM_CACTVS_HBOND_ACCEPTOR>
5

> <PUBCHEM_CACTVS_HBOND_DONOR>
0

> <PUBCHEM_CACTVS_ROTATABLE_BOND>
8

> <PUBCHEM_CACTVS_SUBSKEYS>
AAADceBwMAJgAAAAAAAAAAAAAAAAAAAAAAAAAAAAAAAAAAAAAAAAGgQAACAADACgwAKCAAAAARgAAAAAAAAAAQAAABAAAAAAAAAAAAAAAAAAAAAAAAAAAAAAAAAAAAAAAAAAAAAAAAAAAAAAAAAAAAAAAA==

> <PUBCHEM_IUPAC_OPENEYE_NAME>
tert-butylsulfanylmethylsulfanyl-diethoxy-thioxo-$l^{5}-phosphane

> <PUBCHEM_IUPAC_CAS_NAME>
[(tert-butylthio)methylthio]-diethoxy-sulfanylidenephosphorane

> <PUBCHEM_IUPAC_NAME>
tert-butylsulfanylmethylsulfanyl-diethoxy-sulfanylidene-$l^{5}-phosphane

> <PUBCHEM_IUPAC_SYSTEMATIC_NAME>
tert-butylsulfanylmethylsulfanyl-diethoxy-sulfanylidene-$l^{5}-phosphane

> <PUBCHEM_IUPAC_TRADITIONAL_NAME>
[(tert-butylthio)methylthio]-diethoxy-thioxo-phosphorane

> <PUBCHEM_IUPAC_INCHI>
InChI=1S/C9H21O2PS3/c1-6-10-12(13,11-7-2)15-8-14-9(3,4)5/h6-8H2,1-5H3

> <PUBCHEM_IUPAC_INCHIKEY>
XLNZEKHULJKQBA-UHFFFAOYSA-N

> <PUBCHEM_XLOGP3>
4.5

> <PUBCHEM_EXACT_MASS>
288.04413

> <PUBCHEM_MOLECULAR_FORMULA>
C9H21O2PS3

> <PUBCHEM_MOLECULAR_WEIGHT>
288.430602

> <PUBCHEM_OPENEYE_CAN_SMILES>
CCOP(=S)(OCC)SCSC(C)(C)C

> <PUBCHEM_OPENEYE_ISO_SMILES>
CCOP(=S)(OCC)SCSC(C)(C)C

> <PUBCHEM_CACTVS_TPSA>
101

> <PUBCHEM_MONOISOTOPIC_WEIGHT>
288.04413

> <PUBCHEM_TOTAL_CHARGE>
0

> <PUBCHEM_HEAVY_ATOM_COUNT>
15

> <PUBCHEM_ATOM_DEF_STEREO_COUNT>
0

> <PUBCHEM_ATOM_UDEF_STEREO_COUNT>
0

> <PUBCHEM_BOND_DEF_STEREO_COUNT>
0

> <PUBCHEM_BOND_UDEF_STEREO_COUNT>
0

> <PUBCHEM_ISOTOPIC_ATOM_COUNT>
0

> <PUBCHEM_COMPONENT_COUNT>
1

> <PUBCHEM_CACTVS_TAUTO_COUNT>
1

> <PUBCHEM_COORDINATE_TYPE>
1
5
255

$$$$

