17693
  -OEChem-07051213133D

 23 24  0     0  0  0  0  0  0999 V2000
    3.7496    2.0853    0.0475 Cl  0  0  0  0  0  0  0  0  0  0  0  0
    4.5859   -1.0259   -0.2604 Cl  0  0  0  0  0  0  0  0  0  0  0  0
   -2.2241   -1.5391    0.1626 O   0  0  0  0  0  0  0  0  0  0  0  0
   -1.0957    0.5292    0.2503 N   0  0  0  0  0  0  0  0  0  0  0  0
   -3.4990    0.4582    0.4066 C   0  0  0  0  0  0  0  0  0  0  0  0
   -4.1214    1.0109   -0.8207 C   0  0  0  0  0  0  0  0  0  0  0  0
   -4.7440   -0.1573   -0.1137 C   0  0  0  0  0  0  0  0  0  0  0  0
   -2.2133   -0.3161    0.2573 C   0  0  0  0  0  0  0  0  0  0  0  0
    0.2493    0.1778    0.1313 C   0  0  0  0  0  0  0  0  0  0  0  0
    1.2329    1.1666    0.1454 C   0  0  0  0  0  0  0  0  0  0  0  0
    0.6100   -1.1630   -0.0024 C   0  0  0  0  0  0  0  0  0  0  0  0
    2.5774    0.8147    0.0259 C   0  0  0  0  0  0  0  0  0  0  0  0
    1.9542   -1.5150   -0.1220 C   0  0  0  0  0  0  0  0  0  0  0  0
    2.9381   -0.5262   -0.1077 C   0  0  0  0  0  0  0  0  0  0  0  0
   -3.5815    1.0425    1.3172 H   0  0  0  0  0  0  0  0  0  0  0  0
   -3.6496    0.8257   -1.7779 H   0  0  0  0  0  0  0  0  0  0  0  0
   -4.6221    1.9687   -0.7484 H   0  0  0  0  0  0  0  0  0  0  0  0
   -5.6625    0.0179    0.4335 H   0  0  0  0  0  0  0  0  0  0  0  0
   -4.7047   -1.1182   -0.6117 H   0  0  0  0  0  0  0  0  0  0  0  0
   -1.2781    1.5265    0.3422 H   0  0  0  0  0  0  0  0  0  0  0  0
    0.9480    2.2117    0.2493 H   0  0  0  0  0  0  0  0  0  0  0  0
   -0.0935   -1.9834   -0.0223 H   0  0  0  0  0  0  0  0  0  0  0  0
    2.2187   -2.5646   -0.2257 H   0  0  0  0  0  0  0  0  0  0  0  0
  1 12  1  0  0  0  0
  2 14  1  0  0  0  0
  3  8  2  0  0  0  0
  4  8  1  0  0  0  0
  4  9  1  0  0  0  0
  4 20  1  0  0  0  0
  5  6  1  0  0  0  0
  5  7  1  0  0  0  0
  5  8  1  0  0  0  0
  5 15  1  0  0  0  0
  6  7  1  0  0  0  0
  6 16  1  0  0  0  0
  6 17  1  0  0  0  0
  7 18  1  0  0  0  0
  7 19  1  0  0  0  0
  9 10  2  0  0  0  0
  9 11  1  0  0  0  0
 10 12  1  0  0  0  0
 10 21  1  0  0  0  0
 11 13  2  0  0  0  0
 11 22  1  0  0  0  0
 12 14  2  0  0  0  0
 13 14  1  0  0  0  0
 13 23  1  0  0  0  0
M  END
> <PUBCHEM_COMPOUND_CID>
17693

> <PUBCHEM_CONFORMER_RMSD>
0.6

> <PUBCHEM_CONFORMER_DIVERSEORDER>
1
8
4
9
5
7
2
3
6

> <PUBCHEM_MMFF94_PARTIAL_CHARGES>
23
1 -0.18
10 -0.15
11 -0.15
12 0.18
13 -0.15
14 0.18
15 0.1
16 0.1
17 0.1
18 0.1
19 0.1
2 -0.18
20 0.37
21 0.15
22 0.15
23 0.15
3 -0.57
4 -0.55
5 -0.1
6 -0.2
7 -0.2
8 0.63
9 0.12

> <PUBCHEM_EFFECTIVE_ROTOR_COUNT>
3.6

> <PUBCHEM_PHARMACOPHORE_FEATURES>
3
1 3 acceptor
1 4 donor
6 9 10 11 12 13 14 rings

> <PUBCHEM_HEAVY_ATOM_COUNT>
14

> <PUBCHEM_ATOM_DEF_STEREO_COUNT>
0

> <PUBCHEM_ATOM_UDEF_STEREO_COUNT>
0

> <PUBCHEM_BOND_DEF_STEREO_COUNT>
0

> <PUBCHEM_BOND_UDEF_STEREO_COUNT>
0

> <PUBCHEM_ISOTOPIC_ATOM_COUNT>
0

> <PUBCHEM_COMPONENT_COUNT>
1

> <PUBCHEM_CACTVS_TAUTO_COUNT>
2

> <PUBCHEM_CONFORMER_ID>
0000451D00000001

> <PUBCHEM_MMFF94_ENERGY>
36.4072

> <PUBCHEM_FEATURE_SELFOVERLAP>
15.223

> <PUBCHEM_SHAPE_FINGERPRINT>
10608611 8 18413673508747000621
11401426 45 18408608071694457914
11471102 20 18409167714480772308
11543360 7 15285638733649167808
12932764 1 17346329197221153907
13081056 2 18342739619977232981
13922767 16 18409169922088583856
14144814 61 18335979852575341481
14251717 144 18334576866831957342
14325111 11 18337952294572684488
14415576 193 18412542111060356308
14897335 6 18409169874522183619
14911166 2 18410847794250088990
15196674 1 18410010996627954075
15219456 202 18341891861814609353
15375358 24 18343866597614632571
15536298 74 18334574625175422960
17834072 33 18260551091298645095
18175812 5 18343017778970029446
18186145 218 18131635590514264555
200 152 17894915156633455155
20201158 50 18409444829759982299
20279233 1 18272646848743669587
20645477 56 18201158754748234597
20645477 70 18334009506121332990
21267235 1 18336254717291675059
21452121 103 18335712611479322872
221490 88 18339635629653132194
23402539 116 17676211320523039377
23402655 69 18334299798924326133
23557571 272 17346597525777608829
23559900 14 18408040706857437362
29717793 49 17676208009034682829
3545911 37 18339075995314067561
449060 50 18341047428616575413
5104073 3 18411416185399385515
633830 44 17560803195436760210
69090 78 18410015425282672143
77779 3 18410854348074510499
93112 12 18411136931073688255
9709674 26 18339637846046271307

> <PUBCHEM_SHAPE_MULTIPOLES>
281
9.41
1.72
0.69
4.89
0.27
0.04
1
1.08
-1.63
0.03
0.2
0.05
0.4

> <PUBCHEM_SHAPE_SELFOVERLAP>
571.667

> <PUBCHEM_SHAPE_VOLUME>
165.7

> <PUBCHEM_COORDINATE_TYPE>
2
5
10

$$$$

