25137910
  -OEChem-07051213113D

 40 42  0     1  0  0  0  0  0999 V2000
    1.5473    2.5907    0.5496 O   0  0  0  0  0  0  0  0  0  0  0  0
    0.8116   -0.6795    0.0915 C   0  0  1  0  0  0  0  0  0  0  0  0
   -1.3701   -1.4794    0.3756 C   0  0  1  0  0  0  0  0  0  0  0  0
   -0.0554   -1.3397    1.1605 C   0  0  0  0  0  0  0  0  0  0  0  0
    2.2662   -0.4013    0.4832 C   0  0  2  0  0  0  0  0  0  0  0  0
    0.5686   -1.5842   -1.1318 C   0  0  0  0  0  0  0  0  0  0  0  0
    0.2873    0.7166   -0.2286 C   0  0  0  0  0  0  0  0  0  0  0  0
   -2.0562   -0.0677    0.1985 C   0  0  0  0  0  0  0  0  0  0  0  0
   -0.8626   -2.1076   -0.9415 C   0  0  0  0  0  0  0  0  0  0  0  0
   -1.0292    1.0173   -0.2002 C   0  0  0  0  0  0  0  0  0  0  0  0
    1.4455    1.6415   -0.5048 C   0  0  2  0  0  0  0  0  0  0  0  0
    2.6686    0.7212   -0.4824 C   0  0  0  0  0  0  0  0  0  0  0  0
    3.2223   -1.5836    0.4313 C   0  0  0  0  0  0  0  0  0  0  0  0
   -2.6999    0.3230    1.5528 C   0  0  0  0  0  0  0  0  0  0  0  0
   -3.1957   -0.1642   -0.8391 C   0  0  0  0  0  0  0  0  0  0  0  0
   -1.5483    2.3970   -0.5146 C   0  0  0  0  0  0  0  0  0  0  0  0
   -2.0599   -2.1693    0.8758 H   0  0  0  0  0  0  0  0  0  0  0  0
   -0.1491   -0.7441    2.0732 H   0  0  0  0  0  0  0  0  0  0  0  0
    0.3377   -2.3241    1.4434 H   0  0  0  0  0  0  0  0  0  0  0  0
    2.2892   -0.0037    1.5087 H   0  0  0  0  0  0  0  0  0  0  0  0
    1.2499   -2.4407   -1.1577 H   0  0  0  0  0  0  0  0  0  0  0  0
    0.6722   -1.0555   -2.0864 H   0  0  0  0  0  0  0  0  0  0  0  0
   -1.4885   -1.9063   -1.8127 H   0  0  0  0  0  0  0  0  0  0  0  0
   -0.8274   -3.1991   -0.8307 H   0  0  0  0  0  0  0  0  0  0  0  0
    1.3546    2.1633   -1.4623 H   0  0  0  0  0  0  0  0  0  0  0  0
    2.8557    0.3162   -1.4849 H   0  0  0  0  0  0  0  0  0  0  0  0
    3.5751    1.2316   -0.1404 H   0  0  0  0  0  0  0  0  0  0  0  0
    3.3673   -1.9523   -0.5889 H   0  0  0  0  0  0  0  0  0  0  0  0
    2.8580   -2.4098    1.0495 H   0  0  0  0  0  0  0  0  0  0  0  0
    4.2069   -1.2898    0.8110 H   0  0  0  0  0  0  0  0  0  0  0  0
   -3.3531   -0.4764    1.9216 H   0  0  0  0  0  0  0  0  0  0  0  0
   -3.3184    1.2234    1.4642 H   0  0  0  0  0  0  0  0  0  0  0  0
   -1.9500    0.5244    2.3248 H   0  0  0  0  0  0  0  0  0  0  0  0
   -3.8126   -1.0529   -0.6637 H   0  0  0  0  0  0  0  0  0  0  0  0
   -2.8161   -0.2088   -1.8652 H   0  0  0  0  0  0  0  0  0  0  0  0
   -3.8634    0.7040   -0.7882 H   0  0  0  0  0  0  0  0  0  0  0  0
   -2.2419    2.3656   -1.3601 H   0  0  0  0  0  0  0  0  0  0  0  0
   -0.7551    3.0985   -0.7882 H   0  0  0  0  0  0  0  0  0  0  0  0
   -2.0674    2.8231    0.3487 H   0  0  0  0  0  0  0  0  0  0  0  0
    2.3294    3.1406    0.3722 H   0  0  0  0  0  0  0  0  0  0  0  0
  1 11  1  0  0  0  0
  1 40  1  0  0  0  0
  2  4  1  0  0  0  0
  2  5  1  0  0  0  0
  2  6  1  0  0  0  0
  2  7  1  0  0  0  0
  3  4  1  0  0  0  0
  3  8  1  0  0  0  0
  3  9  1  0  0  0  0
  3 17  1  0  0  0  0
  4 18  1  0  0  0  0
  4 19  1  0  0  0  0
  5 12  1  0  0  0  0
  5 13  1  0  0  0  0
  5 20  1  0  0  0  0
  6  9  1  0  0  0  0
  6 21  1  0  0  0  0
  6 22  1  0  0  0  0
  7 10  2  0  0  0  0
  7 11  1  0  0  0  0
  8 10  1  0  0  0  0
  8 14  1  0  0  0  0
  8 15  1  0  0  0  0
  9 23  1  0  0  0  0
  9 24  1  0  0  0  0
 10 16  1  0  0  0  0
 11 12  1  0  0  0  0
 11 25  1  0  0  0  0
 12 26  1  0  0  0  0
 12 27  1  0  0  0  0
 13 28  1  0  0  0  0
 13 29  1  0  0  0  0
 13 30  1  0  0  0  0
 14 31  1  0  0  0  0
 14 32  1  0  0  0  0
 14 33  1  0  0  0  0
 15 34  1  0  0  0  0
 15 35  1  0  0  0  0
 15 36  1  0  0  0  0
 16 37  1  0  0  0  0
 16 38  1  0  0  0  0
 16 39  1  0  0  0  0
M  END
> <PUBCHEM_COMPOUND_CID>
25137910

> <PUBCHEM_CONFORMER_RMSD>
0.6

> <PUBCHEM_CONFORMER_DIVERSEORDER>
1

> <PUBCHEM_MMFF94_PARTIAL_CHARGES>
8
1 -0.68
10 -0.28
11 0.42
16 0.14
2 0.14
40 0.4
7 -0.28
8 0.14

> <PUBCHEM_EFFECTIVE_ROTOR_COUNT>
1.4

> <PUBCHEM_PHARMACOPHORE_FEATURES>
5
1 1 acceptor
1 1 donor
3 8 14 15 hydrophobe
5 2 5 7 11 12 rings
8 2 3 4 6 7 8 9 10 rings

> <PUBCHEM_HEAVY_ATOM_COUNT>
16

> <PUBCHEM_ATOM_DEF_STEREO_COUNT>
4

> <PUBCHEM_ATOM_UDEF_STEREO_COUNT>
0

> <PUBCHEM_BOND_DEF_STEREO_COUNT>
0

> <PUBCHEM_BOND_UDEF_STEREO_COUNT>
0

> <PUBCHEM_ISOTOPIC_ATOM_COUNT>
0

> <PUBCHEM_COMPONENT_COUNT>
1

> <PUBCHEM_CACTVS_TAUTO_COUNT>
1

> <PUBCHEM_CONFORMER_ID>
017F92F600000001

> <PUBCHEM_MMFF94_ENERGY>
54.1565

> <PUBCHEM_FEATURE_SELFOVERLAP>
25.438

> <PUBCHEM_SHAPE_FINGERPRINT>
10863032 1 18268154154186093047
10967382 1 18339927000149713444
12423570 1 5905750211737349227
12491281 212 18190164720395785161
12524768 44 18338223869560081183
13024252 1 17060064683430173367
13140716 1 18267302036631768170
13172582 1 18336259136702064658
13221675 6 18341607088677600654
144361 1 18338811047587529947
14614273 12 17838915732176880397
14993402 34 18335706056789354358
15490181 8 18041826359871705791
15775835 57 18338790122280257316
16945 1 18412823594611092642
20511035 2 18269827627699219535
21501502 16 18338513032565356650
2334 1 17907294351813046636
23402539 116 18190761896928004527
23419403 2 15330747461078216587
23559900 14 18121504824549259314
2748010 2 18051124796347134132
5084963 1 18261403268512942347
5255222 1 18339078185942755748
528886 8 18335421214410473399
53812654 25 18336840744431250026
7364860 26 18335986359640718256

> <PUBCHEM_SHAPE_MULTIPOLES>
323.4
4.13
2.48
1.14
0.37
0.87
0.14
-0.1
0.38
0.37
-0.29
-0.44
-0.27
-0.13

> <PUBCHEM_SHAPE_SELFOVERLAP>
694.57

> <PUBCHEM_SHAPE_VOLUME>
183.2

> <PUBCHEM_COORDINATE_TYPE>
2
5
10

$$$$

