44631186
  -OEChem-07051213092D

105109  0     1  0  0  0  0  0999 V2000
    7.9506   -2.3051    0.0000 O   0  0  0  0  0  0  0  0  0  0  0  0
    7.0628    2.2264    0.0000 O   0  0  0  0  0  0  0  0  0  0  0  0
    2.5357   -2.3260    0.0000 O   0  0  0  0  0  0  0  0  0  0  0  0
    8.8339   -3.7950    0.0000 O   0  0  0  0  0  0  0  0  0  0  0  0
    6.2302   -3.3250    0.0000 O   0  0  0  0  0  0  0  0  0  0  0  0
    6.2534   -5.3249    0.0000 O   0  0  0  0  0  0  0  0  0  0  0  0
    7.9969   -6.3048    0.0000 O   0  0  0  0  0  0  0  0  0  0  0  0
   10.5774   -4.7749    0.0000 O   0  0  0  0  0  0  0  0  0  0  0  0
   13.0532    5.4518    0.0000 O   0  0  0  0  0  0  0  0  0  0  0  0
   14.6996    4.9138    0.0000 O   0  0  0  0  0  0  0  0  0  0  0  0
    7.9288    0.7264    0.0000 C   0  0  1  0  0  0  0  0  0  0  0  0
    7.9288   -0.2736    0.0000 C   0  0  3  0  0  0  0  0  0  0  0  0
    7.0628   -0.7736    0.0000 C   0  0  3  0  0  0  0  0  0  0  0  0
    6.1968   -0.2736    0.0000 C   0  0  3  0  0  0  0  0  0  0  0  0
    5.2868   -0.7805    0.0000 C   0  0  2  0  0  0  0  0  0  0  0  0
    8.8750    1.0311    0.0000 C   0  0  2  0  0  0  0  0  0  0  0  0
    7.0628    1.2264    0.0000 C   0  0  2  0  0  0  0  0  0  0  0  0
    5.2787   -1.8221    0.0000 C   0  0  2  0  0  0  0  0  0  0  0  0
    6.1968    0.7264    0.0000 C   0  0  0  0  0  0  0  0  0  0  0  0
    7.0789   -1.8151    0.0000 C   0  0  1  0  0  0  0  0  0  0  0  0
    8.8750   -0.5784    0.0000 C   0  0  0  0  0  0  0  0  0  0  0  0
    9.4586    0.2264    0.0000 C   0  0  0  0  0  0  0  0  0  0  0  0
    6.1808   -2.3429    0.0000 C   0  0  0  0  0  0  0  0  0  0  0  0
    4.3599   -0.2164    0.0000 C   0  0  0  0  0  0  0  0  0  0  0  0
    7.9288    1.7264    0.0000 C   0  0  0  0  0  0  0  0  0  0  0  0
    9.1857    1.9816    0.0000 C   0  0  1  0  0  0  0  0  0  0  0  0
    4.3433   -2.3718    0.0000 C   0  0  0  0  0  0  0  0  0  0  0  0
    5.2945    0.2195    0.0000 C   0  0  0  0  0  0  0  0  0  0  0  0
    3.4120   -0.7443    0.0000 C   0  0  0  0  0  0  0  0  0  0  0  0
    3.4037   -1.8293    0.0000 C   0  0  1  0  0  0  0  0  0  0  0  0
   10.1642    2.1878    0.0000 C   0  0  0  0  0  0  0  0  0  0  0  0
    8.5179    2.7259    0.0000 C   0  0  0  0  0  0  0  0  0  0  0  0
    7.9622   -3.3050    0.0000 C   0  0  2  0  0  0  0  0  0  0  0  0
   10.4749    3.1384    0.0000 C   0  0  0  0  0  0  0  0  0  0  0  0
    7.1020   -3.8150    0.0000 C   0  0  1  0  0  0  0  0  0  0  0  0
   11.4534    3.3446    0.0000 C   0  0  0  0  0  0  0  0  0  0  0  0
    7.1135   -4.8149    0.0000 C   0  0  2  0  0  0  0  0  0  0  0  0
    8.8455   -4.7949    0.0000 C   0  0  1  0  0  0  0  0  0  0  0  0
    7.9853   -5.3049    0.0000 C   0  0  2  0  0  0  0  0  0  0  0  0
   11.7640    4.2951    0.0000 C   0  0  2  0  0  0  0  0  0  0  0  0
    9.7172   -5.2848    0.0000 C   0  0  0  0  0  0  0  0  0  0  0  0
   12.7425    4.5013    0.0000 C   0  0  0  0  0  0  0  0  0  0  0  0
   11.0962    5.0394    0.0000 C   0  0  0  0  0  0  0  0  0  0  0  0
   14.0317    5.6581    0.0000 C   0  0  0  0  0  0  0  0  0  0  0  0
   14.3424    6.6086    0.0000 C   0  0  0  0  0  0  0  0  0  0  0  0
    7.9944   -0.8901    0.0000 H   0  0  0  0  0  0  0  0  0  0  0  0
    7.6021   -1.0795    0.0000 H   0  0  0  0  0  0  0  0  0  0  0  0
    6.7337    0.0364    0.0000 H   0  0  0  0  0  0  0  0  0  0  0  0
    9.7148    1.1630    0.0000 H   0  0  0  0  0  0  0  0  0  0  0  0
    7.5997    1.5364    0.0000 H   0  0  0  0  0  0  0  0  0  0  0  0
    5.2820   -2.6721    0.0000 H   0  0  0  0  0  0  0  0  0  0  0  0
    5.9847    1.3090    0.0000 H   0  0  0  0  0  0  0  0  0  0  0  0
    5.5862    0.6187    0.0000 H   0  0  0  0  0  0  0  0  0  0  0  0
    7.6116   -1.4979    0.0000 H   0  0  0  0  0  0  0  0  0  0  0  0
    8.6240   -1.1453    0.0000 H   0  0  0  0  0  0  0  0  0  0  0  0
    9.4124   -0.8876    0.0000 H   0  0  0  0  0  0  0  0  0  0  0  0
    9.9195   -0.1884    0.0000 H   0  0  0  0  0  0  0  0  0  0  0  0
    9.9195    0.6411    0.0000 H   0  0  0  0  0  0  0  0  0  0  0  0
    5.7835   -2.8188    0.0000 H   0  0  0  0  0  0  0  0  0  0  0  0
    6.5818   -2.8158    0.0000 H   0  0  0  0  0  0  0  0  0  0  0  0
    4.7681    0.2503    0.0000 H   0  0  0  0  0  0  0  0  0  0  0  0
    3.9700    0.2657    0.0000 H   0  0  0  0  0  0  0  0  0  0  0  0
    8.5488    1.7264    0.0000 H   0  0  0  0  0  0  0  0  0  0  0  0
    7.9288    2.3464    0.0000 H   0  0  0  0  0  0  0  0  0  0  0  0
    7.3088    1.7264    0.0000 H   0  0  0  0  0  0  0  0  0  0  0  0
    9.3783    2.5710    0.0000 H   0  0  0  0  0  0  0  0  0  0  0  0
    3.9460   -2.8478    0.0000 H   0  0  0  0  0  0  0  0  0  0  0  0
    4.7443   -2.8447    0.0000 H   0  0  0  0  0  0  0  0  0  0  0  0
    5.9145    0.2147    0.0000 H   0  0  0  0  0  0  0  0  0  0  0  0
    5.2993    0.8395    0.0000 H   0  0  0  0  0  0  0  0  0  0  0  0
    4.6745    0.2243    0.0000 H   0  0  0  0  0  0  0  0  0  0  0  0
    3.2075   -0.1590    0.0000 H   0  0  0  0  0  0  0  0  0  0  0  0
    2.8004   -0.8457    0.0000 H   0  0  0  0  0  0  0  0  0  0  0  0
    2.8686   -1.5162    0.0000 H   0  0  0  0  0  0  0  0  0  0  0  0
    6.5259    2.5364    0.0000 H   0  0  0  0  0  0  0  0  0  0  0  0
   10.1848    1.5682    0.0000 H   0  0  0  0  0  0  0  0  0  0  0  0
   10.7780    2.1005    0.0000 H   0  0  0  0  0  0  0  0  0  0  0  0
    8.9793    3.1400    0.0000 H   0  0  0  0  0  0  0  0  0  0  0  0
    8.1038    3.1874    0.0000 H   0  0  0  0  0  0  0  0  0  0  0  0
    8.0564    2.3119    0.0000 H   0  0  0  0  0  0  0  0  0  0  0  0
    7.4217   -3.0013    0.0000 H   0  0  0  0  0  0  0  0  0  0  0  0
   10.4543    3.7580    0.0000 H   0  0  0  0  0  0  0  0  0  0  0  0
    9.8611    3.2257    0.0000 H   0  0  0  0  0  0  0  0  0  0  0  0
    2.0000   -2.0139    0.0000 H   0  0  0  0  0  0  0  0  0  0  0  0
    6.5687   -4.1312    0.0000 H   0  0  0  0  0  0  0  0  0  0  0  0
   11.4739    2.7249    0.0000 H   0  0  0  0  0  0  0  0  0  0  0  0
   12.0672    3.2572    0.0000 H   0  0  0  0  0  0  0  0  0  0  0  0
    7.1207   -5.4349    0.0000 H   0  0  0  0  0  0  0  0  0  0  0  0
    9.3788   -4.4787    0.0000 H   0  0  0  0  0  0  0  0  0  0  0  0
    7.4520   -5.6211    0.0000 H   0  0  0  0  0  0  0  0  0  0  0  0
   11.9567    4.8844    0.0000 H   0  0  0  0  0  0  0  0  0  0  0  0
    5.6969   -3.6412    0.0000 H   0  0  0  0  0  0  0  0  0  0  0  0
    9.3242   -5.7644    0.0000 H   0  0  0  0  0  0  0  0  0  0  0  0
   10.1212   -5.7552    0.0000 H   0  0  0  0  0  0  0  0  0  0  0  0
    6.2605   -5.9449    0.0000 H   0  0  0  0  0  0  0  0  0  0  0  0
   12.7631    3.8817    0.0000 H   0  0  0  0  0  0  0  0  0  0  0  0
   13.3564    4.4140    0.0000 H   0  0  0  0  0  0  0  0  0  0  0  0
   11.5577    5.4535    0.0000 H   0  0  0  0  0  0  0  0  0  0  0  0
   10.6821    5.5009    0.0000 H   0  0  0  0  0  0  0  0  0  0  0  0
   10.6347    4.6254    0.0000 H   0  0  0  0  0  0  0  0  0  0  0  0
    8.5373   -6.6086    0.0000 H   0  0  0  0  0  0  0  0  0  0  0  0
   11.1179   -5.0786    0.0000 H   0  0  0  0  0  0  0  0  0  0  0  0
   14.9317    6.4160    0.0000 H   0  0  0  0  0  0  0  0  0  0  0  0
   14.5350    7.1979    0.0000 H   0  0  0  0  0  0  0  0  0  0  0  0
   13.7531    6.8012    0.0000 H   0  0  0  0  0  0  0  0  0  0  0  0
  1 20  1  0  0  0  0
 33  1  1  6  0  0  0
 17  2  1  6  0  0  0
  2 75  1  0  0  0  0
 30  3  1  6  0  0  0
  3 84  1  0  0  0  0
  4 33  1  0  0  0  0
  4 38  1  0  0  0  0
 35  5  1  1  0  0  0
  5 92  1  0  0  0  0
 37  6  1  6  0  0  0
  6 95  1  0  0  0  0
 39  7  1  6  0  0  0
  7101  1  0  0  0  0
  8 41  1  0  0  0  0
  8102  1  0  0  0  0
  9 42  1  0  0  0  0
  9 44  1  0  0  0  0
 10 44  2  0  0  0  0
 11 12  1  0  0  0  0
 11 16  1  0  0  0  0
 11 17  1  0  0  0  0
 11 25  1  1  0  0  0
 12 13  1  0  0  0  0
 12 21  1  0  0  0  0
 12 46  1  0  0  0  0
 13 14  1  0  0  0  0
 13 20  1  0  0  0  0
 13 47  1  0  0  0  0
 14 15  1  0  0  0  0
 14 19  1  0  0  0  0
 14 48  1  0  0  0  0
 15 18  1  0  0  0  0
 15 24  1  0  0  0  0
 15 28  1  1  0  0  0
 16 22  1  0  0  0  0
 16 26  1  0  0  0  0
 16 49  1  6  0  0  0
 17 19  1  0  0  0  0
 17 50  1  0  0  0  0
 18 23  1  0  0  0  0
 18 27  1  0  0  0  0
 18 51  1  1  0  0  0
 19 52  1  0  0  0  0
 19 53  1  0  0  0  0
 20 23  1  0  0  0  0
 20 54  1  0  0  0  0
 21 22  1  0  0  0  0
 21 55  1  0  0  0  0
 21 56  1  0  0  0  0
 22 57  1  0  0  0  0
 22 58  1  0  0  0  0
 23 59  1  0  0  0  0
 23 60  1  0  0  0  0
 24 29  1  0  0  0  0
 24 61  1  0  0  0  0
 24 62  1  0  0  0  0
 25 63  1  0  0  0  0
 25 64  1  0  0  0  0
 25 65  1  0  0  0  0
 26 31  1  0  0  0  0
 26 32  1  6  0  0  0
 26 66  1  0  0  0  0
 27 30  1  0  0  0  0
 27 67  1  0  0  0  0
 27 68  1  0  0  0  0
 28 69  1  0  0  0  0
 28 70  1  0  0  0  0
 28 71  1  0  0  0  0
 29 30  1  0  0  0  0
 29 72  1  0  0  0  0
 29 73  1  0  0  0  0
 30 74  1  0  0  0  0
 31 34  1  0  0  0  0
 31 76  1  0  0  0  0
 31 77  1  0  0  0  0
 32 78  1  0  0  0  0
 32 79  1  0  0  0  0
 32 80  1  0  0  0  0
 33 35  1  0  0  0  0
 33 81  1  0  0  0  0
 34 36  1  0  0  0  0
 34 82  1  0  0  0  0
 34 83  1  0  0  0  0
 35 37  1  0  0  0  0
 35 85  1  0  0  0  0
 36 40  1  0  0  0  0
 36 86  1  0  0  0  0
 36 87  1  0  0  0  0
 37 39  1  0  0  0  0
 37 88  1  0  0  0  0
 38 39  1  0  0  0  0
 38 41  1  6  0  0  0
 38 89  1  0  0  0  0
 39 90  1  0  0  0  0
 40 42  1  0  0  0  0
 40 43  1  1  0  0  0
 40 91  1  0  0  0  0
 41 93  1  0  0  0  0
 41 94  1  0  0  0  0
 42 96  1  0  0  0  0
 42 97  1  0  0  0  0
 43 98  1  0  0  0  0
 43 99  1  0  0  0  0
 43100  1  0  0  0  0
 44 45  1  0  0  0  0
 45103  1  0  0  0  0
 45104  1  0  0  0  0
 45105  1  0  0  0  0
M  END
> <PUBCHEM_COMPOUND_CID>
44631186

> <PUBCHEM_COMPOUND_CANONICALIZED>
1

> <PUBCHEM_CACTVS_COMPLEXITY>
1010

> <PUBCHEM_CACTVS_HBOND_ACCEPTOR>
10

> <PUBCHEM_CACTVS_HBOND_DONOR>
6

> <PUBCHEM_CACTVS_ROTATABLE_BOND>
11

> <PUBCHEM_CACTVS_SUBSKEYS>
AAADcfB8PAAAAAAAAAAAAAAAAAAAAYAAAAA0YMEAAAAAAGDAAAAAGgAACAAADxSwgAMCCAAABgAIAACQCAAAAAAAAAAAAAAAAAAREAIAAAAiQAAFAAAHAAHA4PwPgAAAAAAAAADAAAYAADAAAQAACAAAAA==

> <PUBCHEM_IUPAC_OPENEYE_NAME>
[(2R,6R)-6-[(3R,5S,7R,10S,12S,13R,17R)-3,12-dihydroxy-10,13-dimethyl-7-[(2R,3R,4S,5R,6R)-3,4,5-trihydroxy-6-(hydroxymethyl)tetrahydropyran-2-yl]oxy-2,3,4,5,6,7,8,9,11,12,14,15,16,17-tetradecahydro-1H-cyclopenta[a]phenanthren-17-yl]-2-methyl-heptyl] acetate

> <PUBCHEM_IUPAC_CAS_NAME>
acetic acid [(2R,6R)-6-[(3R,5S,7R,10S,12S,13R,17R)-3,12-dihydroxy-10,13-dimethyl-7-[[(2R,3R,4S,5R,6R)-3,4,5-trihydroxy-6-(hydroxymethyl)-2-oxanyl]oxy]-2,3,4,5,6,7,8,9,11,12,14,15,16,17-tetradecahydro-1H-cyclopenta[a]phenanthren-17-yl]-2-methylheptyl] ester

> <PUBCHEM_IUPAC_NAME>
[(2R,6R)-6-[(3R,5S,7R,10S,12S,13R,17R)-3,12-dihydroxy-10,13-dimethyl-7-[(2R,3R,4S,5R,6R)-3,4,5-trihydroxy-6-(hydroxymethyl)oxan-2-yl]oxy-2,3,4,5,6,7,8,9,11,12,14,15,16,17-tetradecahydro-1H-cyclopenta[a]phenanthren-17-yl]-2-methylheptyl] acetate

> <PUBCHEM_IUPAC_SYSTEMATIC_NAME>
[(2R,6R)-6-[(3R,5S,7R,10S,12S,13R,17R)-7-[(2R,3R,4S,5R,6R)-6-(hydroxymethyl)-3,4,5-tris(oxidanyl)oxan-2-yl]oxy-10,13-dimethyl-3,12-bis(oxidanyl)-2,3,4,5,6,7,8,9,11,12,14,15,16,17-tetradecahydro-1H-cyclopenta[a]phenanthren-17-yl]-2-methyl-heptyl] ethanoate

> <PUBCHEM_IUPAC_TRADITIONAL_NAME>
acetic acid [(2R,6R)-6-[(3R,5S,7R,10S,12S,13R,17R)-3,12-dihydroxy-10,13-dimethyl-7-[(2R,3R,4S,5R,6R)-3,4,5-trihydroxy-6-methylol-tetrahydropyran-2-yl]oxy-2,3,4,5,6,7,8,9,11,12,14,15,16,17-tetradecahydro-1H-cyclopenta[a]phenanthren-17-yl]-2-methyl-heptyl] ester

> <PUBCHEM_IUPAC_INCHI>
InChI=1S/C35H60O10/c1-18(17-43-20(3)37)7-6-8-19(2)23-9-10-24-29-25(15-28(39)35(23,24)5)34(4)12-11-22(38)13-21(34)14-26(29)44-33-32(42)31(41)30(40)27(16-36)45-33/h18-19,21-33,36,38-42H,6-17H2,1-5H3/t18-,19-,21+,22-,23-,24?,25?,26-,27-,28+,29?,30+,31+,32-,33-,34+,35-/m1/s1

> <PUBCHEM_IUPAC_INCHIKEY>
WEAIGSXIPHVINK-IISMKYRPSA-N

> <PUBCHEM_XLOGP3_AA>
4.3

> <PUBCHEM_EXACT_MASS>
640.418648

> <PUBCHEM_MOLECULAR_FORMULA>
C35H60O10

> <PUBCHEM_MOLECULAR_WEIGHT>
640.8449

> <PUBCHEM_OPENEYE_CAN_SMILES>
CC(CCCC(C)C1CCC2C1(C(CC3C2C(CC4C3(CCC(C4)O)C)OC5C(C(C(C(O5)CO)O)O)O)O)C)COC(=O)C

> <PUBCHEM_OPENEYE_ISO_SMILES>
C[C@H](CCC[C@@H](C)[C@H]1CCC2[C@@]1([C@H](CC3C2[C@@H](C[C@H]4[C@@]3(CC[C@H](C4)O)C)O[C@H]5[C@@H]([C@H]([C@H]([C@H](O5)CO)O)O)O)O)C)COC(=O)C

> <PUBCHEM_CACTVS_TPSA>
166

> <PUBCHEM_MONOISOTOPIC_WEIGHT>
640.418648

> <PUBCHEM_TOTAL_CHARGE>
0

> <PUBCHEM_HEAVY_ATOM_COUNT>
45

> <PUBCHEM_ATOM_DEF_STEREO_COUNT>
14

> <PUBCHEM_ATOM_UDEF_STEREO_COUNT>
3

> <PUBCHEM_BOND_DEF_STEREO_COUNT>
0

> <PUBCHEM_BOND_UDEF_STEREO_COUNT>
0

> <PUBCHEM_ISOTOPIC_ATOM_COUNT>
0

> <PUBCHEM_COMPONENT_COUNT>
1

> <PUBCHEM_CACTVS_TAUTO_COUNT>
1

> <PUBCHEM_COORDINATE_TYPE>
1
5
255

> <PUBCHEM_BONDANNOTATIONS>
33  1  6
11  25  5
12  21  3
13  20  3
14  19  3
15  28  5
16  49  6
18  51  5
17  2  6
26  32  6
30  3  6
38  41  6
40  43  5
35  5  5
37  6  6
39  7  6

$$$$

