37455
  -OEChem-07051213063D

 33 38  0     1  0  0  0  0  0999 V2000
   -4.7751    1.1229   -0.4450 O   0  0  0  0  0  0  0  0  0  0  0  0
   -3.7417    0.8294    0.4386 C   0  0  1  0  0  0  0  0  0  0  0  0
   -4.3417   -0.1771   -0.7762 C   0  0  1  0  0  0  0  0  0  0  0  0
   -2.2502    0.6666    0.2713 C   0  0  0  0  0  0  0  0  0  0  0  0
   -1.7534   -0.6756    0.2355 C   0  0  0  0  0  0  0  0  0  0  0  0
   -4.0423   -1.4832   -0.1460 C   0  0  0  0  0  0  0  0  0  0  0  0
   -0.3625   -0.9273    0.1497 C   0  0  0  0  0  0  0  0  0  0  0  0
    0.5213    0.1824    0.0875 C   0  0  0  0  0  0  0  0  0  0  0  0
   -1.3598    1.7351    0.2066 C   0  0  0  0  0  0  0  0  0  0  0  0
   -2.7947   -1.7538    0.3006 C   0  0  0  0  0  0  0  0  0  0  0  0
    0.0181    1.5091    0.1138 C   0  0  0  0  0  0  0  0  0  0  0  0
    1.9251   -0.0222   -0.0047 C   0  0  0  0  0  0  0  0  0  0  0  0
    0.1990   -2.2210    0.1081 C   0  0  0  0  0  0  0  0  0  0  0  0
    2.4527   -1.3329   -0.0375 C   0  0  0  0  0  0  0  0  0  0  0  0
    2.8068    1.0841   -0.0660 C   0  0  0  0  0  0  0  0  0  0  0  0
    0.9074    2.5893    0.0518 C   0  0  0  0  0  0  0  0  0  0  0  0
    1.5780   -2.4200    0.0187 C   0  0  0  0  0  0  0  0  0  0  0  0
    2.2830    2.3806   -0.0366 C   0  0  0  0  0  0  0  0  0  0  0  0
    3.8396   -1.5220   -0.1279 C   0  0  0  0  0  0  0  0  0  0  0  0
    4.1892    0.8652   -0.1560 C   0  0  0  0  0  0  0  0  0  0  0  0
    4.7013   -0.4296   -0.1864 C   0  0  0  0  0  0  0  0  0  0  0  0
   -4.0872    0.6893    1.4612 H   0  0  0  0  0  0  0  0  0  0  0  0
   -3.9090   -0.1727   -1.7752 H   0  0  0  0  0  0  0  0  0  0  0  0
   -4.8263   -2.2301   -0.0915 H   0  0  0  0  0  0  0  0  0  0  0  0
   -1.7508    2.7503    0.2411 H   0  0  0  0  0  0  0  0  0  0  0  0
   -2.5491   -2.7144    0.7349 H   0  0  0  0  0  0  0  0  0  0  0  0
   -0.4297   -3.1076    0.1410 H   0  0  0  0  0  0  0  0  0  0  0  0
    0.5378    3.6128    0.0724 H   0  0  0  0  0  0  0  0  0  0  0  0
    1.9574   -3.4395   -0.0085 H   0  0  0  0  0  0  0  0  0  0  0  0
    2.9408    3.2460   -0.0826 H   0  0  0  0  0  0  0  0  0  0  0  0
    4.2619   -2.5244   -0.1542 H   0  0  0  0  0  0  0  0  0  0  0  0
    4.8813    1.7034   -0.2038 H   0  0  0  0  0  0  0  0  0  0  0  0
    5.7736   -0.5874   -0.2565 H   0  0  0  0  0  0  0  0  0  0  0  0
  1  2  1  0  0  0  0
  1  3  1  0  0  0  0
  2  3  1  0  0  0  0
  2  4  1  0  0  0  0
  2 22  1  0  0  0  0
  3  6  1  0  0  0  0
  3 23  1  0  0  0  0
  4  5  2  0  0  0  0
  4  9  1  0  0  0  0
  5  7  1  0  0  0  0
  5 10  1  0  0  0  0
  6 10  2  0  0  0  0
  6 24  1  0  0  0  0
  7  8  2  0  0  0  0
  7 13  1  0  0  0  0
  8 11  1  0  0  0  0
  8 12  1  0  0  0  0
  9 11  2  0  0  0  0
  9 25  1  0  0  0  0
 10 26  1  0  0  0  0
 11 16  1  0  0  0  0
 12 14  1  0  0  0  0
 12 15  2  0  0  0  0
 13 17  2  0  0  0  0
 13 27  1  0  0  0  0
 14 17  1  0  0  0  0
 14 19  2  0  0  0  0
 15 18  1  0  0  0  0
 15 20  1  0  0  0  0
 16 18  2  0  0  0  0
 16 28  1  0  0  0  0
 17 29  1  0  0  0  0
 18 30  1  0  0  0  0
 19 21  1  0  0  0  0
 19 31  1  0  0  0  0
 20 21  2  0  0  0  0
 20 32  1  0  0  0  0
 21 33  1  0  0  0  0
M  END
> <PUBCHEM_COMPOUND_CID>
37455

> <PUBCHEM_CONFORMER_RMSD>
0.6

> <PUBCHEM_CONFORMER_DIVERSEORDER>
1

> <PUBCHEM_MMFF94_PARTIAL_CHARGES>
27
1 -0.3
10 -0.18
13 -0.15
16 -0.15
17 -0.15
18 -0.15
19 -0.15
2 0.08
20 -0.15
21 -0.15
22 0.1
23 0.1
24 0.15
25 0.15
26 0.15
27 0.15
28 0.15
29 0.15
3 0.09
30 0.15
31 0.15
32 0.15
33 0.15
4 -0.03
5 0.03
6 -0.19
9 -0.15

> <PUBCHEM_EFFECTIVE_ROTOR_COUNT>
0.2

> <PUBCHEM_PHARMACOPHORE_FEATURES>
6
1 1 acceptor
6 12 14 15 19 20 21 rings
6 4 5 7 8 9 11 rings
6 7 8 12 13 14 17 rings
6 8 11 12 15 16 18 rings
7 1 2 3 4 5 6 10 rings

> <PUBCHEM_HEAVY_ATOM_COUNT>
21

> <PUBCHEM_ATOM_DEF_STEREO_COUNT>
0

> <PUBCHEM_ATOM_UDEF_STEREO_COUNT>
2

> <PUBCHEM_BOND_DEF_STEREO_COUNT>
0

> <PUBCHEM_BOND_UDEF_STEREO_COUNT>
0

> <PUBCHEM_ISOTOPIC_ATOM_COUNT>
0

> <PUBCHEM_COMPONENT_COUNT>
1

> <PUBCHEM_CACTVS_TAUTO_COUNT>
1

> <PUBCHEM_CONFORMER_ID>
0000924F00000001

> <PUBCHEM_MMFF94_ENERGY>
106.5524

> <PUBCHEM_FEATURE_SELFOVERLAP>
30.586

> <PUBCHEM_SHAPE_FINGERPRINT>
10062212 137 18335424547621651679
10411042 1 17618504728208112979
10616163 171 18408319973804473247
10693767 8 18115318885208848623
10967382 1 18410853304392280338
11132069 177 18411422808254766448
11471102 20 18411139142929104740
11578080 2 16986604310134444134
116883 192 18191583262294573820
11806522 49 18409448081107935812
12011746 2 18410570700086987022
12236239 1 17821728351733220465
12403259 226 18339647741566408277
12553582 1 18339072821364650667
12838862 33 18338817670770387912
13140716 1 18338224982188914617
138480 1 18410292489059256272
13862211 1 18410858797903677050
13944108 23 16543297878406087469
14790565 3 18268139860772880476
15196674 1 18410855443132960922
15230672 131 13443126064139768627
15442244 35 18337106873162803569
15536298 74 18334013874023743648
1601671 61 18411700997755568780
16945 1 18338508763251631617
17492 89 18337391530816600559
18186145 218 17918000459947193591
19591789 44 18266457607433347587
200 152 18113339704369984357
20028762 73 18042406833271297903
20905425 154 18120372314022531990
21029758 11 18335422382625929216
21267235 1 18409720751618337707
21279426 13 18339924934244083655
21421861 104 17843405343201191866
221357 26 18410865343665639813
221490 88 18340762620507879379
2334 1 18266454313135039112
23402539 116 18335145293211670038
23559900 14 18408326562416206680
23566358 2 18194687196362301869
238 59 17910999916700074029
2748010 2 18123461687829164912
2871803 45 18411982502754852582
3004659 81 18273494590063605294
335352 9 18339079392669862479
34934 24 18339083786569371827
350125 39 18339635638859978907
3680242 22 18198907096267498738
4214541 1 18410855460650414245
4280585 95 17612018687773018950
5104073 3 18410573968013806947
543358 83 18338795727259830577
6138700 20 18339358669388682446
6443956 14 18411134749278301020
7364860 26 18335702698087999008
9709674 26 18340201882547160867
9981440 41 17473271972350926808

> <PUBCHEM_SHAPE_MULTIPOLES>
426.3
8.54
2.7
0.68
2.69
0.17
0.02
-0.56
1.15
-0.83
-0.08
0.2
0
0.01

> <PUBCHEM_SHAPE_SELFOVERLAP>
1002.536

> <PUBCHEM_SHAPE_VOLUME>
216.2

> <PUBCHEM_COORDINATE_TYPE>
2
5
10

$$$$

