6451139
  -OEChem-07051213123D

 54 55  0     0  0  0  0  0  0999 V2000
    2.5379    1.8351    0.5767 Cl  0  0  0  0  0  0  0  0  0  0  0  0
   -0.1952   -2.1797   -0.0558 O   0  0  0  0  0  0  0  0  0  0  0  0
   -5.1605    1.4915   -0.9913 O   0  0  0  0  0  0  0  0  0  0  0  0
    2.1860   -0.8022   -0.7867 N   0  0  0  0  0  0  0  0  0  0  0  0
    4.4540   -1.2072   -1.1675 N   0  0  0  0  0  0  0  0  0  0  0  0
    6.1098    0.3895   -0.4488 N   0  0  0  0  0  0  0  0  0  0  0  0
   -3.9972   -0.6457    0.6024 C   0  0  0  0  0  0  0  0  0  0  0  0
   -3.0332   -0.5595    1.6070 C   0  0  0  0  0  0  0  0  0  0  0  0
   -1.7542   -1.0728    1.3921 C   0  0  0  0  0  0  0  0  0  0  0  0
   -5.3741   -0.1042    0.8066 C   0  0  0  0  0  0  0  0  0  0  0  0
   -1.4392   -1.6725    0.1728 C   0  0  0  0  0  0  0  0  0  0  0  0
   -3.6821   -1.2454   -0.6169 C   0  0  0  0  0  0  0  0  0  0  0  0
   -5.5072    1.3604    0.3814 C   0  0  0  0  0  0  0  0  0  0  0  0
   -2.4031   -1.7587   -0.8317 C   0  0  0  0  0  0  0  0  0  0  0  0
   -3.3730    0.0840    2.9140 C   0  0  0  0  0  0  0  0  0  0  0  0
   -0.7149   -0.9843    2.4640 C   0  0  0  0  0  0  0  0  0  0  0  0
    0.2730   -2.1647   -1.4027 C   0  0  0  0  0  0  0  0  0  0  0  0
    1.7873   -2.0423   -1.4107 C   0  0  0  0  0  0  0  0  0  0  0  0
   -5.2701    2.8385   -1.4301 C   0  0  0  0  0  0  0  0  0  0  0  0
    3.5035   -0.3907   -0.6675 C   0  0  0  0  0  0  0  0  0  0  0  0
    3.7742    0.8146   -0.0523 C   0  0  0  0  0  0  0  0  0  0  0  0
    5.1083    1.1569    0.0293 C   0  0  0  0  0  0  0  0  0  0  0  0
    5.5414    2.4352    0.6705 C   0  0  0  0  0  0  0  0  0  0  0  0
   -4.8895    2.9129   -2.8934 C   0  0  0  0  0  0  0  0  0  0  0  0
    5.8010    2.2732    2.1649 C   0  0  0  0  0  0  0  0  0  0  0  0
    5.7172   -0.7621   -1.0262 C   0  0  0  0  0  0  0  0  0  0  0  0
   -5.7138   -0.2359    1.8400 H   0  0  0  0  0  0  0  0  0  0  0  0
   -6.0727   -0.7035    0.2062 H   0  0  0  0  0  0  0  0  0  0  0  0
   -4.4239   -1.3267   -1.4071 H   0  0  0  0  0  0  0  0  0  0  0  0
   -4.8521    2.0016    0.9814 H   0  0  0  0  0  0  0  0  0  0  0  0
   -6.5437    1.6852    0.5298 H   0  0  0  0  0  0  0  0  0  0  0  0
   -2.2128   -2.2444   -1.7841 H   0  0  0  0  0  0  0  0  0  0  0  0
   -3.8357   -0.6505    3.5815 H   0  0  0  0  0  0  0  0  0  0  0  0
   -2.4996    0.5045    3.4210 H   0  0  0  0  0  0  0  0  0  0  0  0
   -4.0513    0.9335    2.8029 H   0  0  0  0  0  0  0  0  0  0  0  0
   -1.1010   -1.3636    3.4163 H   0  0  0  0  0  0  0  0  0  0  0  0
    0.1740   -1.5834    2.2415 H   0  0  0  0  0  0  0  0  0  0  0  0
   -0.3826    0.0518    2.5870 H   0  0  0  0  0  0  0  0  0  0  0  0
   -0.0207   -3.0999   -1.8928 H   0  0  0  0  0  0  0  0  0  0  0  0
   -0.1342   -1.3139   -1.9656 H   0  0  0  0  0  0  0  0  0  0  0  0
    2.1489   -2.0831   -2.4443 H   0  0  0  0  0  0  0  0  0  0  0  0
    2.2219   -2.8819   -0.8556 H   0  0  0  0  0  0  0  0  0  0  0  0
    1.5030   -0.3213   -0.2100 H   0  0  0  0  0  0  0  0  0  0  0  0
   -4.5995    3.4756   -0.8426 H   0  0  0  0  0  0  0  0  0  0  0  0
   -6.2999    3.1889   -1.2985 H   0  0  0  0  0  0  0  0  0  0  0  0
    4.8338    3.2511    0.4891 H   0  0  0  0  0  0  0  0  0  0  0  0
    6.4755    2.7642    0.1957 H   0  0  0  0  0  0  0  0  0  0  0  0
   -3.8660    2.5539   -3.0441 H   0  0  0  0  0  0  0  0  0  0  0  0
   -5.5429    2.2722   -3.4947 H   0  0  0  0  0  0  0  0  0  0  0  0
   -4.9622    3.9389   -3.2649 H   0  0  0  0  0  0  0  0  0  0  0  0
    6.5681    1.5141    2.3526 H   0  0  0  0  0  0  0  0  0  0  0  0
    6.1481    3.2191    2.5925 H   0  0  0  0  0  0  0  0  0  0  0  0
    4.8939    1.9719    2.6987 H   0  0  0  0  0  0  0  0  0  0  0  0
    6.5009   -1.3981   -1.4189 H   0  0  0  0  0  0  0  0  0  0  0  0
  1 21  1  0  0  0  0
  2 11  1  0  0  0  0
  2 17  1  0  0  0  0
  3 13  1  0  0  0  0
  3 19  1  0  0  0  0
  4 18  1  0  0  0  0
  4 20  1  0  0  0  0
  4 43  1  0  0  0  0
  5 20  2  0  0  0  0
  5 26  1  0  0  0  0
  6 22  1  0  0  0  0
  6 26  2  0  0  0  0
  7  8  2  0  0  0  0
  7 10  1  0  0  0  0
  7 12  1  0  0  0  0
  8  9  1  0  0  0  0
  8 15  1  0  0  0  0
  9 11  2  0  0  0  0
  9 16  1  0  0  0  0
 10 13  1  0  0  0  0
 10 27  1  0  0  0  0
 10 28  1  0  0  0  0
 11 14  1  0  0  0  0
 12 14  2  0  0  0  0
 12 29  1  0  0  0  0
 13 30  1  0  0  0  0
 13 31  1  0  0  0  0
 14 32  1  0  0  0  0
 15 33  1  0  0  0  0
 15 34  1  0  0  0  0
 15 35  1  0  0  0  0
 16 36  1  0  0  0  0
 16 37  1  0  0  0  0
 16 38  1  0  0  0  0
 17 18  1  0  0  0  0
 17 39  1  0  0  0  0
 17 40  1  0  0  0  0
 18 41  1  0  0  0  0
 18 42  1  0  0  0  0
 19 24  1  0  0  0  0
 19 44  1  0  0  0  0
 19 45  1  0  0  0  0
 20 21  1  0  0  0  0
 21 22  2  0  0  0  0
 22 23  1  0  0  0  0
 23 25  1  0  0  0  0
 23 46  1  0  0  0  0
 23 47  1  0  0  0  0
 24 48  1  0  0  0  0
 24 49  1  0  0  0  0
 24 50  1  0  0  0  0
 25 51  1  0  0  0  0
 25 52  1  0  0  0  0
 25 53  1  0  0  0  0
 26 54  1  0  0  0  0
M  END
> <PUBCHEM_COMPOUND_CID>
6451139

> <PUBCHEM_CONFORMER_RMSD>
1

> <PUBCHEM_CONFORMER_DIVERSEORDER>
1
12
179
154
72
56
121
113
150
177
8
144
142
17
156
23
139
181
170
160
80
175
50
124
57
35
85
44
111
58
132
147
90
36
14
145
61
60
45
107
99
37
127
34
64
116
21
163
7
81
168
133
84
70
141
110
135
20
166
176
22
174
125
27
134
31
146
38
161
47
92
123
32
178
68
15
93
164
143
74
129
89
171
4
77
39
76
138
172
9
78
55
130
42
158
41
2
67
98
162
140
104
148
83
109
59
114
95
82
96
16
152
128
43
180
3
62
97
52
88
30
120
26
11
5
87
19
101
136
151
118
13
165
86
18
6
102
169
73
103
115
48
46
137
184
28
40
66
108
29
122
49
159
117
126
167
94
24
155
149
33
173
157
53
105
131
79
153
69
119
65
183
54
25
106
91
100
10
75
51
63
182
112
71

> <PUBCHEM_MMFF94_PARTIAL_CHARGES>
28
1 -0.18
10 0.14
11 0.08
12 -0.15
13 0.28
14 -0.15
15 0.14
16 0.14
17 0.28
18 0.37
19 0.28
2 -0.36
20 0.41
21 0.18
22 0.17
23 0.14
26 0.47
29 0.15
3 -0.56
32 0.15
4 -0.87
43 0.4
5 -0.62
54 0.15
6 -0.62
7 -0.14
8 -0.14
9 -0.14

> <PUBCHEM_EFFECTIVE_ROTOR_COUNT>
10

> <PUBCHEM_PHARMACOPHORE_FEATURES>
8
1 2 acceptor
1 25 hydrophobe
1 3 acceptor
1 4 donor
3 4 5 20 cation
3 5 6 26 cation
6 5 6 20 21 22 26 rings
6 7 8 9 11 12 14 rings

> <PUBCHEM_HEAVY_ATOM_COUNT>
26

> <PUBCHEM_ATOM_DEF_STEREO_COUNT>
0

> <PUBCHEM_ATOM_UDEF_STEREO_COUNT>
0

> <PUBCHEM_BOND_DEF_STEREO_COUNT>
0

> <PUBCHEM_BOND_UDEF_STEREO_COUNT>
0

> <PUBCHEM_ISOTOPIC_ATOM_COUNT>
0

> <PUBCHEM_COMPONENT_COUNT>
1

> <PUBCHEM_CACTVS_TAUTO_COUNT>
5

> <PUBCHEM_CONFORMER_ID>
00626FC300000001

> <PUBCHEM_MMFF94_ENERGY>
78.5229

> <PUBCHEM_FEATURE_SELFOVERLAP>
40.737

> <PUBCHEM_SHAPE_FINGERPRINT>
10674148 151 16343409701450135278
10763959 59 18412535518865728044
11387372 6 9078569160876493461
12633257 1 15913037695130595295
13103583 49 15482663568004481223
13383661 66 7780934342058003757
13402501 40 18412260661911777157
13878862 14 18040445399738571388
14739800 52 17702110364439446929
14767858 380 16805324418386424015
14950920 106 16056305129824124141
15183329 4 18040709281658468602
15537594 2 12967123879138258082
16067690 210 17203610363359873109
18470217 77 18058161718637561603
19438510 23 18058165223547353825
20511986 3 17894920590236790946
21033648 144 18260827055742826126
21033648 29 18272370858498159702
21859007 373 18341622563661371052
23379529 103 5543752497346829997
23559900 14 16878793681757938794
2838139 119 18336833103584061285
3459 39 17274826912938467541
474 4 18041264526684017630
508706 21 18343305829821128333
6328613 192 17970894576538097108
6371009 1 17531244006893969394
7918774 8 9151168783422624061
999808 66 10447931693352032068

> <PUBCHEM_SHAPE_MULTIPOLES>
510.26
16.67
3.09
2.42
9.67
1.64
0.69
12.58
-1.5
-1.16
-1.52
-2.3
0.84
4.98

> <PUBCHEM_SHAPE_SELFOVERLAP>
1043.747

> <PUBCHEM_SHAPE_VOLUME>
296.6

> <PUBCHEM_COORDINATE_TYPE>
2
5
10

$$$$

