10874
  -OEChem-06261205042D

 23 23  0     0  0  0  0  0  0999 V2000
    4.5981   -2.2500    0.0000 N   0  0  0  0  0  0  0  0  0  0  0  0
    2.8660    0.7500    0.0000 C   0  0  0  0  0  0  0  0  0  0  0  0
    2.8660   -0.2500    0.0000 C   0  0  0  0  0  0  0  0  0  0  0  0
    2.0000    1.2500    0.0000 C   0  0  0  0  0  0  0  0  0  0  0  0
    3.7320   -0.7500    0.0000 C   0  0  0  0  0  0  0  0  0  0  0  0
    2.0000    2.2500    0.0000 C   0  0  0  0  0  0  0  0  0  0  0  0
    4.5981   -0.2500    0.0000 C   0  0  0  0  0  0  0  0  0  0  0  0
    3.7320   -1.7500    0.0000 C   0  0  0  0  0  0  0  0  0  0  0  0
    5.4641   -0.7500    0.0000 C   0  0  0  0  0  0  0  0  0  0  0  0
    5.4641   -1.7500    0.0000 C   0  0  0  0  0  0  0  0  0  0  0  0
    3.4766    0.6423    0.0000 H   0  0  0  0  0  0  0  0  0  0  0  0
    3.0781    1.3326    0.0000 H   0  0  0  0  0  0  0  0  0  0  0  0
    2.2554   -0.1423    0.0000 H   0  0  0  0  0  0  0  0  0  0  0  0
    2.6540   -0.8326    0.0000 H   0  0  0  0  0  0  0  0  0  0  0  0
    1.3894    1.3577    0.0000 H   0  0  0  0  0  0  0  0  0  0  0  0
    1.7880    0.6674    0.0000 H   0  0  0  0  0  0  0  0  0  0  0  0
    2.6200    2.2500    0.0000 H   0  0  0  0  0  0  0  0  0  0  0  0
    2.0000    2.8700    0.0000 H   0  0  0  0  0  0  0  0  0  0  0  0
    1.3800    2.2500    0.0000 H   0  0  0  0  0  0  0  0  0  0  0  0
    4.5981    0.3700    0.0000 H   0  0  0  0  0  0  0  0  0  0  0  0
    3.1951   -2.0600    0.0000 H   0  0  0  0  0  0  0  0  0  0  0  0
    6.0010   -0.4400    0.0000 H   0  0  0  0  0  0  0  0  0  0  0  0
    6.0010   -2.0600    0.0000 H   0  0  0  0  0  0  0  0  0  0  0  0
  1  8  1  0  0  0  0
  1 10  2  0  0  0  0
  2  3  1  0  0  0  0
  2  4  1  0  0  0  0
  2 11  1  0  0  0  0
  2 12  1  0  0  0  0
  3  5  1  0  0  0  0
  3 13  1  0  0  0  0
  3 14  1  0  0  0  0
  4  6  1  0  0  0  0
  4 15  1  0  0  0  0
  4 16  1  0  0  0  0
  5  7  1  0  0  0  0
  5  8  2  0  0  0  0
  6 17  1  0  0  0  0
  6 18  1  0  0  0  0
  6 19  1  0  0  0  0
  7  9  2  0  0  0  0
  7 20  1  0  0  0  0
  8 21  1  0  0  0  0
  9 10  1  0  0  0  0
  9 22  1  0  0  0  0
 10 23  1  0  0  0  0
M  END
> <PUBCHEM_COMPOUND_CID>
10874

> <PUBCHEM_COMPOUND_CANONICALIZED>
1

> <PUBCHEM_CACTVS_COMPLEXITY>
80.8

> <PUBCHEM_CACTVS_HBOND_ACCEPTOR>
1

> <PUBCHEM_CACTVS_HBOND_DONOR>
0

> <PUBCHEM_CACTVS_ROTATABLE_BOND>
3

> <PUBCHEM_CACTVS_SUBSKEYS>
AAADccByAAAAAAAAAAAAAAAAAAAAAAAAAAAsAAAAAAAAAAABgAAAHAAAAAAADADBGgQ+gJIIEACgAjBnRACCgCAxAiAI2CA4ZJgIIOLAkZGEIAhggADIyAcQgIAOAAAAAAAAAAAAAAAAAAAAAAAAAAAAAA==

> <PUBCHEM_IUPAC_OPENEYE_NAME>
3-butylpyridine

> <PUBCHEM_IUPAC_CAS_NAME>
3-butylpyridine

> <PUBCHEM_IUPAC_NAME>
3-butylpyridine

> <PUBCHEM_IUPAC_SYSTEMATIC_NAME>
3-butylpyridine

> <PUBCHEM_IUPAC_TRADITIONAL_NAME>
3-butylpyridine

> <PUBCHEM_IUPAC_INCHI>
InChI=1S/C9H13N/c1-2-3-5-9-6-4-7-10-8-9/h4,6-8H,2-3,5H2,1H3

> <PUBCHEM_IUPAC_INCHIKEY>
QSNMFWFDOFQASV-UHFFFAOYSA-N

> <PUBCHEM_XLOGP3>
2.5

> <PUBCHEM_EXACT_MASS>
135.104799

> <PUBCHEM_MOLECULAR_FORMULA>
C9H13N

> <PUBCHEM_MOLECULAR_WEIGHT>
135.20622

> <PUBCHEM_OPENEYE_CAN_SMILES>
CCCCC1=CN=CC=C1

> <PUBCHEM_OPENEYE_ISO_SMILES>
CCCCC1=CN=CC=C1

> <PUBCHEM_CACTVS_TPSA>
12.9

> <PUBCHEM_MONOISOTOPIC_WEIGHT>
135.104799

> <PUBCHEM_TOTAL_CHARGE>
0

> <PUBCHEM_HEAVY_ATOM_COUNT>
10

> <PUBCHEM_ATOM_DEF_STEREO_COUNT>
0

> <PUBCHEM_ATOM_UDEF_STEREO_COUNT>
0

> <PUBCHEM_BOND_DEF_STEREO_COUNT>
0

> <PUBCHEM_BOND_UDEF_STEREO_COUNT>
0

> <PUBCHEM_ISOTOPIC_ATOM_COUNT>
0

> <PUBCHEM_COMPONENT_COUNT>
1

> <PUBCHEM_CACTVS_TAUTO_COUNT>
1

> <PUBCHEM_COORDINATE_TYPE>
1
5
255

> <PUBCHEM_BONDANNOTATIONS>
1  10  8
1  8  8
5  7  8
5  8  8
7  9  8
9  10  8

$$$$

