442913
  -OEChem-07051213003D

 24 26  0     0  0  0  0  0  0999 V2000
   -2.6907   -1.1224    0.0000 O   0  0  0  0  0  0  0  0  0  0  0  0
   -0.2210    2.7517    0.0025 O   0  0  0  0  0  0  0  0  0  0  0  0
   -0.3190   -1.3763    0.0006 N   0  0  0  0  0  0  0  0  0  0  0  0
    0.9402   -0.7237    0.0001 C   0  0  0  0  0  0  0  0  0  0  0  0
   -1.4341   -0.6067   -0.0003 C   0  0  0  0  0  0  0  0  0  0  0  0
    1.0097    0.7031   -0.0005 C   0  0  0  0  0  0  0  0  0  0  0  0
   -1.4720    0.7685   -0.0006 C   0  0  0  0  0  0  0  0  0  0  0  0
   -0.2456    1.5290    0.0001 C   0  0  0  0  0  0  0  0  0  0  0  0
    2.1576   -1.4259    0.0007 C   0  0  0  0  0  0  0  0  0  0  0  0
   -0.3996   -2.8298    0.0004 C   0  0  0  0  0  0  0  0  0  0  0  0
   -2.8361    1.1310   -0.0008 C   0  0  0  0  0  0  0  0  0  0  0  0
    2.2408    1.3708   -0.0012 C   0  0  0  0  0  0  0  0  0  0  0  0
   -3.5383   -0.0555   -0.0003 C   0  0  0  0  0  0  0  0  0  0  0  0
    3.3835   -0.7526    0.0002 C   0  0  0  0  0  0  0  0  0  0  0  0
    3.4245    0.6389   -0.0008 C   0  0  0  0  0  0  0  0  0  0  0  0
    2.1831   -2.5125    0.0014 H   0  0  0  0  0  0  0  0  0  0  0  0
    0.0819   -3.2453    0.8929 H   0  0  0  0  0  0  0  0  0  0  0  0
    0.0813   -3.2451   -0.8925 H   0  0  0  0  0  0  0  0  0  0  0  0
   -1.4323   -3.1962    0.0008 H   0  0  0  0  0  0  0  0  0  0  0  0
   -3.2616    2.1241   -0.0008 H   0  0  0  0  0  0  0  0  0  0  0  0
    2.2958    2.4559   -0.0018 H   0  0  0  0  0  0  0  0  0  0  0  0
   -4.5907   -0.2990   -0.0001 H   0  0  0  0  0  0  0  0  0  0  0  0
    4.3099   -1.3204    0.0006 H   0  0  0  0  0  0  0  0  0  0  0  0
    4.3811    1.1533   -0.0013 H   0  0  0  0  0  0  0  0  0  0  0  0
  1  5  1  0  0  0  0
  1 13  1  0  0  0  0
  2  8  2  0  0  0  0
  3  4  1  0  0  0  0
  3  5  1  0  0  0  0
  3 10  1  0  0  0  0
  4  6  1  0  0  0  0
  4  9  2  0  0  0  0
  5  7  2  0  0  0  0
  6  8  1  0  0  0  0
  6 12  2  0  0  0  0
  7  8  1  0  0  0  0
  7 11  1  0  0  0  0
  9 14  1  0  0  0  0
  9 16  1  0  0  0  0
 10 17  1  0  0  0  0
 10 18  1  0  0  0  0
 10 19  1  0  0  0  0
 11 13  2  0  0  0  0
 11 20  1  0  0  0  0
 12 15  1  0  0  0  0
 12 21  1  0  0  0  0
 13 22  1  0  0  0  0
 14 15  2  0  0  0  0
 14 23  1  0  0  0  0
 15 24  1  0  0  0  0
M  END
> <PUBCHEM_COMPOUND_CID>
442913

> <PUBCHEM_CONFORMER_RMSD>
0.4

> <PUBCHEM_CONFORMER_DIVERSEORDER>
1

> <PUBCHEM_MMFF94_PARTIAL_CHARGES>
21
1 -0.28
10 0.37
11 -0.15
12 -0.15
13 -0.01
14 -0.15
15 -0.15
16 0.15
2 -0.57
20 0.15
21 0.15
22 0.15
23 0.15
24 0.15
3 -0.55
4 0.1
5 0.22
6 0.09
7 -0.09
8 0.57
9 -0.15

> <PUBCHEM_EFFECTIVE_ROTOR_COUNT>
0

> <PUBCHEM_PHARMACOPHORE_FEATURES>
6
1 1 acceptor
1 2 acceptor
1 3 cation
5 1 5 7 11 13 rings
6 3 4 5 6 7 8 rings
6 4 6 9 12 14 15 rings

> <PUBCHEM_HEAVY_ATOM_COUNT>
15

> <PUBCHEM_ATOM_DEF_STEREO_COUNT>
0

> <PUBCHEM_ATOM_UDEF_STEREO_COUNT>
0

> <PUBCHEM_BOND_DEF_STEREO_COUNT>
0

> <PUBCHEM_BOND_UDEF_STEREO_COUNT>
0

> <PUBCHEM_ISOTOPIC_ATOM_COUNT>
0

> <PUBCHEM_COMPONENT_COUNT>
1

> <PUBCHEM_CACTVS_TAUTO_COUNT>
1

> <PUBCHEM_CONFORMER_ID>
0006C22100000001

> <PUBCHEM_MMFF94_ENERGY>
41.8727

> <PUBCHEM_FEATURE_SELFOVERLAP>
30.575

> <PUBCHEM_SHAPE_FINGERPRINT>
10411042 1 15744443397687296373
10608611 8 18410578383314429032
108231 29 18333732385967199393
10967382 1 18410575097616727974
11132069 177 18334864930393826280
11471102 20 18411142475908226493
12032990 46 18411130338114421987
12382932 28 18410014291078685064
13140716 1 18338515347584170291
13380535 76 18408887317472599502
13897977 150 18410577326789118205
14144814 61 18410575084789686112
14325111 11 18410856568240377604
14614273 12 18056484082477997341
14993402 34 18410294687839223775
15196674 1 18410573998068027524
15309172 13 18409721885267943683
15536298 74 18333732425075221568
15775835 57 18410851074982383336
16945 1 18122626054739318209
17844478 74 17988918985666533253
18186145 218 18335697286275971852
193761 8 17762055437015221574
20201158 50 18411419535373648610
20510252 161 18260830444598811728
20588541 1 18336262366823309230
20645476 183 17916566649434666238
21267235 1 18410846664061883622
21501502 16 18050849918514095102
2334 1 18410573963813771207
23402539 116 18334024886293601534
23419403 2 15951689819455576331
23463225 33 18412825806571919620
23559900 14 18262231128825417148
2748010 2 18410855464523356015
335352 9 17978511167221476725
43471831 8 18269557311116700434
5104073 3 18410575093279394760
528886 8 18410016549972974355
537710 114 18412256220836276701
53812653 166 18334580100947697136
54173680 148 18195807366862392666
589210 1 17762056540805992467
69090 78 18335425638311353279
7364860 26 18047753994312993734
8809292 202 18343577451905842338

> <PUBCHEM_SHAPE_MULTIPOLES>
291.97
5.18
2.45
0.6
0.21
0.39
0
-0.18
0
-0.08
0
0.02
0
0

> <PUBCHEM_SHAPE_SELFOVERLAP>
657.478

> <PUBCHEM_SHAPE_VOLUME>
155

> <PUBCHEM_COORDINATE_TYPE>
2
5
10

$$$$

