91611
  -OEChem-07051213082D

 22 23  0     0  0  0  0  0  0999 V2000
    3.7320    1.8100    0.0000 O   0  0  0  0  0  0  0  0  0  0  0  0
    7.1279   -0.1900    0.0000 O   0  0  0  0  0  0  0  0  0  0  0  0
    2.0000   -1.1900    0.0000 O   0  0  0  0  0  0  0  0  0  0  0  0
    5.5443    0.6147    0.0000 N   0  0  0  0  0  0  0  0  0  0  0  0
    2.8660    0.3100    0.0000 N   0  0  0  0  0  0  0  0  0  0  0  0
    5.5443   -0.9947    0.0000 N   0  0  0  0  0  0  0  0  0  0  0  0
    3.7320   -1.1900    0.0000 N   0  0  0  0  0  0  0  0  0  0  0  0
    4.5981    0.3100    0.0000 C   0  0  0  0  0  0  0  0  0  0  0  0
    4.5981   -0.6900    0.0000 C   0  0  0  0  0  0  0  0  0  0  0  0
    3.7320    0.8100    0.0000 C   0  0  0  0  0  0  0  0  0  0  0  0
    6.1279   -0.1900    0.0000 C   0  0  0  0  0  0  0  0  0  0  0  0
    2.8660   -0.6900    0.0000 C   0  0  0  0  0  0  0  0  0  0  0  0
    5.8550    1.5652    0.0000 C   0  0  0  0  0  0  0  0  0  0  0  0
    2.0000    0.8100    0.0000 C   0  0  0  0  0  0  0  0  0  0  0  0
    5.7369   -1.5840    0.0000 H   0  0  0  0  0  0  0  0  0  0  0  0
    3.7320   -1.8100    0.0000 H   0  0  0  0  0  0  0  0  0  0  0  0
    6.4443    1.3726    0.0000 H   0  0  0  0  0  0  0  0  0  0  0  0
    6.0476    2.1546    0.0000 H   0  0  0  0  0  0  0  0  0  0  0  0
    5.2656    1.7579    0.0000 H   0  0  0  0  0  0  0  0  0  0  0  0
    2.3100    1.3469    0.0000 H   0  0  0  0  0  0  0  0  0  0  0  0
    1.4631    1.1200    0.0000 H   0  0  0  0  0  0  0  0  0  0  0  0
    1.6900    0.2731    0.0000 H   0  0  0  0  0  0  0  0  0  0  0  0
  1 10  2  0  0  0  0
  2 11  2  0  0  0  0
  3 12  2  0  0  0  0
  4  8  1  0  0  0  0
  4 11  1  0  0  0  0
  4 13  1  0  0  0  0
  5 10  1  0  0  0  0
  5 12  1  0  0  0  0
  5 14  1  0  0  0  0
  6  9  1  0  0  0  0
  6 11  1  0  0  0  0
  6 15  1  0  0  0  0
  7  9  1  0  0  0  0
  7 12  1  0  0  0  0
  7 16  1  0  0  0  0
  8  9  2  0  0  0  0
  8 10  1  0  0  0  0
 13 17  1  0  0  0  0
 13 18  1  0  0  0  0
 13 19  1  0  0  0  0
 14 20  1  0  0  0  0
 14 21  1  0  0  0  0
 14 22  1  0  0  0  0
M  END
> <PUBCHEM_COMPOUND_CID>
91611

> <PUBCHEM_COMPOUND_CANONICALIZED>
1

> <PUBCHEM_CACTVS_COMPLEXITY>
386

> <PUBCHEM_CACTVS_HBOND_ACCEPTOR>
3

> <PUBCHEM_CACTVS_HBOND_DONOR>
2

> <PUBCHEM_CACTVS_ROTATABLE_BOND>
0

> <PUBCHEM_CACTVS_SUBSKEYS>
AAADccBjsAAAAAAAAAAAAAAAAAAAAQAAAAAgAAAAAAAAAFgAAAAAHgAQAAAACAgBgAQDAAPAAACIAAVQUACAAAAAAAAAAACIAECAQAAAACAQAAAIByIAAEAAAAAAAAAAAAAAAAAAAAAAAAAAAAAAAAAAAA==

> <PUBCHEM_IUPAC_OPENEYE_NAME>
1,7-dimethyl-3,9-dihydropurine-2,6,8-trione

> <PUBCHEM_IUPAC_CAS_NAME>
1,7-dimethyl-3,9-dihydropurine-2,6,8-trione

> <PUBCHEM_IUPAC_NAME>
1,7-dimethyl-3,9-dihydropurine-2,6,8-trione

> <PUBCHEM_IUPAC_SYSTEMATIC_NAME>
1,7-dimethyl-3,9-dihydropurine-2,6,8-trione

> <PUBCHEM_IUPAC_TRADITIONAL_NAME>
1,7-dimethyluric acid

> <PUBCHEM_IUPAC_INCHI>
InChI=1S/C7H8N4O3/c1-10-3-4(8-6(10)13)9-7(14)11(2)5(3)12/h1-2H3,(H,8,13)(H,9,14)

> <PUBCHEM_IUPAC_INCHIKEY>
NOFNCLGCUJJPKU-UHFFFAOYSA-N

> <PUBCHEM_XLOGP3>
-0.2

> <PUBCHEM_EXACT_MASS>
196.05964

> <PUBCHEM_MOLECULAR_FORMULA>
C7H8N4O3

> <PUBCHEM_MOLECULAR_WEIGHT>
196.16342

> <PUBCHEM_OPENEYE_CAN_SMILES>
CN1C2=C(NC1=O)NC(=O)N(C2=O)C

> <PUBCHEM_OPENEYE_ISO_SMILES>
CN1C2=C(NC1=O)NC(=O)N(C2=O)C

> <PUBCHEM_CACTVS_TPSA>
81.8

> <PUBCHEM_MONOISOTOPIC_WEIGHT>
196.05964

> <PUBCHEM_TOTAL_CHARGE>
0

> <PUBCHEM_HEAVY_ATOM_COUNT>
14

> <PUBCHEM_ATOM_DEF_STEREO_COUNT>
0

> <PUBCHEM_ATOM_UDEF_STEREO_COUNT>
0

> <PUBCHEM_BOND_DEF_STEREO_COUNT>
0

> <PUBCHEM_BOND_UDEF_STEREO_COUNT>
0

> <PUBCHEM_ISOTOPIC_ATOM_COUNT>
0

> <PUBCHEM_COMPONENT_COUNT>
1

> <PUBCHEM_CACTVS_TAUTO_COUNT>
12

> <PUBCHEM_COORDINATE_TYPE>
1
5
255

> <PUBCHEM_BONDANNOTATIONS>
4  11  8
4  8  8
5  10  8
5  12  8
6  11  8
6  9  8
7  12  8
7  9  8
8  10  8
8  9  8

$$$$

