439879
  -OEChem-07051212472D

 70 72  0     1  0  0  0  0  0999 V2000
    8.2320    1.8455    0.0000 O   0  0  0  0  0  0  0  0  0  0  0  0
    6.5000   -1.1545    0.0000 O   0  0  0  0  0  0  0  0  0  0  0  0
    6.5000    0.8455    0.0000 O   0  0  0  0  0  0  0  0  0  0  0  0
    6.5000    1.8455    0.0000 O   0  0  0  0  0  0  0  0  0  0  0  0
    6.5000   -2.8865    0.0000 O   0  0  0  0  0  0  0  0  0  0  0  0
    6.5000    4.8455    0.0000 O   0  0  0  0  0  0  0  0  0  0  0  0
    4.5000   -1.1544    0.0000 O   0  0  0  0  0  0  0  0  0  0  0  0
    4.7679    3.8455    0.0000 O   0  0  0  0  0  0  0  0  0  0  0  0
    4.5001   -4.6186    0.0000 O   0  0  0  0  0  0  0  0  0  0  0  0
    3.9019    2.3455    0.0000 O   0  0  0  0  0  0  0  0  0  0  0  0
    3.5000   -4.6186    0.0000 O   0  0  0  0  0  0  0  0  0  0  0  0
    9.9641    0.8455    0.0000 N   0  0  0  0  0  0  0  0  0  0  0  0
    8.7321   -2.0205    0.0000 N   0  0  0  0  0  0  0  0  0  0  0  0
    8.2320    3.8455    0.0000 N   0  0  0  0  0  0  0  0  0  0  0  0
    3.5000   -2.8866    0.0000 N   0  0  0  0  0  0  0  0  0  0  0  0
    8.2320    0.8455    0.0000 C   0  0  1  0  0  0  0  0  0  0  0  0
    7.3660   -0.6545    0.0000 C   0  0  2  0  0  0  0  0  0  0  0  0
    7.3660    0.3455    0.0000 C   0  0  1  0  0  0  0  0  0  0  0  0
    9.0981    0.3455    0.0000 C   0  0  2  0  0  0  0  0  0  0  0  0
    8.2320   -1.1545    0.0000 C   0  0  1  0  0  0  0  0  0  0  0  0
    9.0981   -0.6545    0.0000 C   0  0  0  0  0  0  0  0  0  0  0  0
    7.3660    2.3455    0.0000 C   0  0  1  0  0  0  0  0  0  0  0  0
    7.3660    3.3455    0.0000 C   0  0  1  0  0  0  0  0  0  0  0  0
    6.0001   -2.0206    0.0000 C   0  0  2  0  0  0  0  0  0  0  0  0
    6.5000    3.8455    0.0000 C   0  0  2  0  0  0  0  0  0  0  0  0
    5.0000   -2.0205    0.0000 C   0  0  2  0  0  0  0  0  0  0  0  0
    5.6340    3.3455    0.0000 C   0  0  1  0  0  0  0  0  0  0  0  0
    5.6340    2.3455    0.0000 C   0  0  1  0  0  0  0  0  0  0  0  0
    4.5000   -2.8866    0.0000 C   0  0  1  0  0  0  0  0  0  0  0  0
    5.0001   -3.7526    0.0000 C   0  0  2  0  0  0  0  0  0  0  0  0
    6.0000   -3.7526    0.0000 C   0  0  0  0  0  0  0  0  0  0  0  0
    4.7679    1.8455    0.0000 C   0  0  0  0  0  0  0  0  0  0  0  0
    3.0000   -3.7526    0.0000 C   0  0  0  0  0  0  0  0  0  0  0  0
    2.0000   -3.7526    0.0000 C   0  0  0  0  0  0  0  0  0  0  0  0
    8.7690    1.1555    0.0000 H   0  0  0  0  0  0  0  0  0  0  0  0
    7.3660   -1.2745    0.0000 H   0  0  0  0  0  0  0  0  0  0  0  0
    7.3660    0.9655    0.0000 H   0  0  0  0  0  0  0  0  0  0  0  0
    9.0981    0.9655    0.0000 H   0  0  0  0  0  0  0  0  0  0  0  0
    7.7936   -1.5929    0.0000 H   0  0  0  0  0  0  0  0  0  0  0  0
    9.3101   -1.2371    0.0000 H   0  0  0  0  0  0  0  0  0  0  0  0
    9.7086   -0.5468    0.0000 H   0  0  0  0  0  0  0  0  0  0  0  0
    7.3660    1.7255    0.0000 H   0  0  0  0  0  0  0  0  0  0  0  0
    7.3660    3.9655    0.0000 H   0  0  0  0  0  0  0  0  0  0  0  0
    5.6900   -1.4836    0.0000 H   0  0  0  0  0  0  0  0  0  0  0  0
    7.0369    4.1555    0.0000 H   0  0  0  0  0  0  0  0  0  0  0  0
    4.3800   -2.0205    0.0000 H   0  0  0  0  0  0  0  0  0  0  0  0
    5.6340    3.9655    0.0000 H   0  0  0  0  0  0  0  0  0  0  0  0
    5.6340    1.7255    0.0000 H   0  0  0  0  0  0  0  0  0  0  0  0
   10.5010    0.5355    0.0000 H   0  0  0  0  0  0  0  0  0  0  0  0
    9.9641    1.4655    0.0000 H   0  0  0  0  0  0  0  0  0  0  0  0
    9.3520   -2.0205    0.0000 H   0  0  0  0  0  0  0  0  0  0  0  0
    8.4221   -2.5574    0.0000 H   0  0  0  0  0  0  0  0  0  0  0  0
    4.1900   -3.4235    0.0000 H   0  0  0  0  0  0  0  0  0  0  0  0
    5.9630    0.5355    0.0000 H   0  0  0  0  0  0  0  0  0  0  0  0
    5.3101   -4.2895    0.0000 H   0  0  0  0  0  0  0  0  0  0  0  0
    5.8923   -4.3631    0.0000 H   0  0  0  0  0  0  0  0  0  0  0  0
    6.5826   -3.9646    0.0000 H   0  0  0  0  0  0  0  0  0  0  0  0
    4.3694    1.3706    0.0000 H   0  0  0  0  0  0  0  0  0  0  0  0
    5.1665    1.3706    0.0000 H   0  0  0  0  0  0  0  0  0  0  0  0
    8.2320    4.4655    0.0000 H   0  0  0  0  0  0  0  0  0  0  0  0
    8.7690    3.5355    0.0000 H   0  0  0  0  0  0  0  0  0  0  0  0
    3.1900   -2.3496    0.0000 H   0  0  0  0  0  0  0  0  0  0  0  0
    5.9630    5.1555    0.0000 H   0  0  0  0  0  0  0  0  0  0  0  0
    3.8800   -1.1544    0.0000 H   0  0  0  0  0  0  0  0  0  0  0  0
    4.7679    4.4655    0.0000 H   0  0  0  0  0  0  0  0  0  0  0  0
    4.8100   -5.1555    0.0000 H   0  0  0  0  0  0  0  0  0  0  0  0
    3.3650    2.0355    0.0000 H   0  0  0  0  0  0  0  0  0  0  0  0
    2.0000   -3.1326    0.0000 H   0  0  0  0  0  0  0  0  0  0  0  0
    1.3800   -3.7526    0.0000 H   0  0  0  0  0  0  0  0  0  0  0  0
    2.0000   -4.3726    0.0000 H   0  0  0  0  0  0  0  0  0  0  0  0
 16  1  1  6  0  0  0
 22  1  1  1  0  0  0
 17  2  1  6  0  0  0
 24  2  1  6  0  0  0
 18  3  1  1  0  0  0
  3 54  1  0  0  0  0
  4 22  1  0  0  0  0
  4 28  1  0  0  0  0
  5 24  1  0  0  0  0
  5 31  1  0  0  0  0
 25  6  1  6  0  0  0
  6 63  1  0  0  0  0
 26  7  1  6  0  0  0
  7 64  1  0  0  0  0
 27  8  1  1  0  0  0
  8 65  1  0  0  0  0
 30  9  1  6  0  0  0
  9 66  1  0  0  0  0
 10 32  1  0  0  0  0
 10 67  1  0  0  0  0
 11 33  2  0  0  0  0
 19 12  1  1  0  0  0
 12 49  1  0  0  0  0
 12 50  1  0  0  0  0
 20 13  1  1  0  0  0
 13 51  1  0  0  0  0
 13 52  1  0  0  0  0
 23 14  1  1  0  0  0
 14 60  1  0  0  0  0
 14 61  1  0  0  0  0
 29 15  1  1  0  0  0
 15 33  1  0  0  0  0
 15 62  1  0  0  0  0
 16 18  1  0  0  0  0
 16 19  1  0  0  0  0
 16 35  1  0  0  0  0
 17 18  1  0  0  0  0
 17 20  1  0  0  0  0
 17 36  1  0  0  0  0
 18 37  1  0  0  0  0
 19 21  1  0  0  0  0
 19 38  1  0  0  0  0
 20 21  1  0  0  0  0
 20 39  1  0  0  0  0
 21 40  1  0  0  0  0
 21 41  1  0  0  0  0
 22 23  1  0  0  0  0
 22 42  1  0  0  0  0
 23 25  1  0  0  0  0
 23 43  1  0  0  0  0
 24 26  1  0  0  0  0
 24 44  1  0  0  0  0
 25 27  1  0  0  0  0
 25 45  1  0  0  0  0
 26 29  1  0  0  0  0
 26 46  1  0  0  0  0
 27 28  1  0  0  0  0
 27 47  1  0  0  0  0
 28 32  1  6  0  0  0
 28 48  1  0  0  0  0
 29 30  1  0  0  0  0
 29 53  1  0  0  0  0
 30 31  1  0  0  0  0
 30 55  1  0  0  0  0
 31 56  1  0  0  0  0
 31 57  1  0  0  0  0
 32 58  1  0  0  0  0
 32 59  1  0  0  0  0
 33 34  1  0  0  0  0
 34 68  1  0  0  0  0
 34 69  1  0  0  0  0
 34 70  1  0  0  0  0
M  END
> <PUBCHEM_COMPOUND_CID>
439879

> <PUBCHEM_COMPOUND_CANONICALIZED>
1

> <PUBCHEM_CACTVS_COMPLEXITY>
693

> <PUBCHEM_CACTVS_HBOND_ACCEPTOR>
14

> <PUBCHEM_CACTVS_HBOND_DONOR>
10

> <PUBCHEM_CACTVS_ROTATABLE_BOND>
6

> <PUBCHEM_CACTVS_SUBSKEYS>
AAADcfB7vAAAAAAAAAAAAAAAAAAAAAAAAAA0SIAAAAAAAAAAAAAAHgAQCAAACDzxgAcCCALABgAIAAEQEAAAAAAAAAAAAIAIAAATEAIAwAAnQAAHFgCXAAHwcA0AAAAAAAAAAAAAgAAUCACgAAAAAAAAAA==

> <PUBCHEM_IUPAC_OPENEYE_NAME>
N-[(2S,3S,4R,5R)-2-[(1S,2S,3R,4S,6R)-4,6-diamino-3-[(2S,3R,4R,5S,6R)-3-amino-4,5-dihydroxy-6-(hydroxymethyl)tetrahydropyran-2-yl]oxy-2-hydroxy-cyclohexoxy]-3,5-dihydroxy-tetrahydropyran-4-yl]acetamide

> <PUBCHEM_IUPAC_CAS_NAME>
N-[(2S,3S,4R,5R)-2-[(1S,2S,3R,4S,6R)-4,6-diamino-3-[[(2S,3R,4R,5S,6R)-3-amino-4,5-dihydroxy-6-(hydroxymethyl)-2-oxanyl]oxy]-2-hydroxycyclohexyl]oxy-3,5-dihydroxy-4-oxanyl]acetamide

> <PUBCHEM_IUPAC_NAME>
N-[(2S,3S,4R,5R)-2-[(1S,2S,3R,4S,6R)-4,6-diamino-3-[(2S,3R,4R,5S,6R)-3-amino-4,5-dihydroxy-6-(hydroxymethyl)oxan-2-yl]oxy-2-hydroxycyclohexyl]oxy-3,5-dihydroxyoxan-4-yl]acetamide

> <PUBCHEM_IUPAC_SYSTEMATIC_NAME>
N-[(2S,3S,4R,5R)-2-[(1S,2S,3R,4S,6R)-4,6-bis(azanyl)-3-[(2S,3R,4R,5S,6R)-3-azanyl-6-(hydroxymethyl)-4,5-bis(oxidanyl)oxan-2-yl]oxy-2-oxidanyl-cyclohexyl]oxy-3,5-bis(oxidanyl)oxan-4-yl]ethanamide

> <PUBCHEM_IUPAC_TRADITIONAL_NAME>
N-[(2S,3S,4R,5R)-2-[(1S,2S,3R,4S,6R)-4,6-diamino-3-[(2S,3R,4R,5S,6R)-3-amino-4,5-dihydroxy-6-methylol-tetrahydropyran-2-yl]oxy-2-hydroxy-cyclohexoxy]-3,5-dihydroxy-tetrahydropyran-4-yl]acetamide

> <PUBCHEM_IUPAC_INCHI>
InChI=1S/C19H36N4O11/c1-5(25)23-11-8(26)4-31-19(14(11)29)34-17-7(21)2-6(20)16(15(17)30)33-18-10(22)13(28)12(27)9(3-24)32-18/h6-19,24,26-30H,2-4,20-22H2,1H3,(H,23,25)/t6-,7+,8-,9+,10+,11+,12+,13+,14-,15-,16+,17-,18+,19-/m0/s1

> <PUBCHEM_IUPAC_INCHIKEY>
KEIJCRBIDGPDMU-VSTVETRJSA-N

> <PUBCHEM_XLOGP3_AA>
-6.6

> <PUBCHEM_EXACT_MASS>
496.238058

> <PUBCHEM_MOLECULAR_FORMULA>
C19H36N4O11

> <PUBCHEM_MOLECULAR_WEIGHT>
496.50934

> <PUBCHEM_OPENEYE_CAN_SMILES>
CC(=O)NC1C(COC(C1O)OC2C(CC(C(C2O)OC3C(C(C(C(O3)CO)O)O)N)N)N)O

> <PUBCHEM_OPENEYE_ISO_SMILES>
CC(=O)N[C@@H]1[C@H](CO[C@H]([C@H]1O)O[C@H]2[C@@H](C[C@@H]([C@H]([C@@H]2O)O[C@@H]3[C@@H]([C@H]([C@@H]([C@H](O3)CO)O)O)N)N)N)O

> <PUBCHEM_CACTVS_TPSA>
266

> <PUBCHEM_MONOISOTOPIC_WEIGHT>
496.238058

> <PUBCHEM_TOTAL_CHARGE>
0

> <PUBCHEM_HEAVY_ATOM_COUNT>
34

> <PUBCHEM_ATOM_DEF_STEREO_COUNT>
14

> <PUBCHEM_ATOM_UDEF_STEREO_COUNT>
0

> <PUBCHEM_BOND_DEF_STEREO_COUNT>
0

> <PUBCHEM_BOND_UDEF_STEREO_COUNT>
0

> <PUBCHEM_ISOTOPIC_ATOM_COUNT>
0

> <PUBCHEM_COMPONENT_COUNT>
1

> <PUBCHEM_CACTVS_TAUTO_COUNT>
2

> <PUBCHEM_COORDINATE_TYPE>
1
5
255

> <PUBCHEM_BONDANNOTATIONS>
16  1  6
22  1  5
19  12  5
20  13  5
23  14  5
29  15  5
17  2  6
24  2  6
28  32  6
18  3  5
25  6  6
26  7  6
27  8  5
30  9  6

$$$$

