8804
  -OEChem-06261203073D

 29 29  0     0  0  0  0  0  0999 V2000
   -1.2477    1.7863    0.0661 O   0  0  0  0  0  0  0  0  0  0  0  0
   -5.1367   -0.9146   -1.9647 O   0  0  0  0  0  0  0  0  0  0  0  0
   -5.3236   -1.4145    0.2422 O   0  0  0  0  0  0  0  0  0  0  0  0
    5.7363   -1.0562   -0.1606 O   0  5  0  0  0  0  0  0  0  0  0  0
    5.4769    0.9820   -0.9336 O   0  0  0  0  0  0  0  0  0  0  0  0
   -2.6868    0.2248    0.9815 N   0  0  0  0  0  0  0  0  0  0  0  0
   -0.4606   -0.3129    0.7622 N   0  0  0  0  0  0  0  0  0  0  0  0
    5.0127   -0.0638   -0.4183 N   0  3  0  0  0  0  0  0  0  0  0  0
   -3.8809    1.0213    0.8933 C   0  0  0  0  0  0  0  0  0  0  0  0
   -4.6089    0.8169   -0.4288 C   0  0  0  0  0  0  0  0  0  0  0  0
    0.9209   -0.2495    0.4653 C   0  0  0  0  0  0  0  0  0  0  0  0
   -1.4291    0.6729    0.5530 C   0  0  0  0  0  0  0  0  0  0  0  0
    1.7259   -1.3407    0.7482 C   0  0  0  0  0  0  0  0  0  0  0  0
    1.4403    0.9021   -0.1033 C   0  0  0  0  0  0  0  0  0  0  0  0
    3.6265   -0.1263   -0.1180 C   0  0  0  0  0  0  0  0  0  0  0  0
    3.0881   -1.2787    0.4547 C   0  0  0  0  0  0  0  0  0  0  0  0
    2.8026    0.9642   -0.3970 C   0  0  0  0  0  0  0  0  0  0  0  0
   -5.0560   -0.6131   -0.6420 C   0  0  0  0  0  0  0  0  0  0  0  0
   -4.5207    0.7347    1.7347 H   0  0  0  0  0  0  0  0  0  0  0  0
   -3.6191    2.0781    1.0122 H   0  0  0  0  0  0  0  0  0  0  0  0
   -3.9426    1.0976   -1.2534 H   0  0  0  0  0  0  0  0  0  0  0  0
   -5.4976    1.4551   -0.4720 H   0  0  0  0  0  0  0  0  0  0  0  0
   -2.7626   -0.7117    1.3661 H   0  0  0  0  0  0  0  0  0  0  0  0
   -0.7805   -1.1841    1.1777 H   0  0  0  0  0  0  0  0  0  0  0  0
    1.3163   -2.2430    1.1938 H   0  0  0  0  0  0  0  0  0  0  0  0
    0.8695    1.7854   -0.3484 H   0  0  0  0  0  0  0  0  0  0  0  0
    3.6995   -2.1473    0.6856 H   0  0  0  0  0  0  0  0  0  0  0  0
    3.1884    1.8775   -0.8430 H   0  0  0  0  0  0  0  0  0  0  0  0
   -5.4290   -1.8395   -2.1114 H   0  0  0  0  0  0  0  0  0  0  0  0
  1 12  2  0  0  0  0
  2 18  1  0  0  0  0
  2 29  1  0  0  0  0
  3 18  2  0  0  0  0
  4  8  1  0  0  0  0
  5  8  2  0  0  0  0
  6  9  1  0  0  0  0
  6 12  1  0  0  0  0
  6 23  1  0  0  0  0
  7 11  1  0  0  0  0
  7 12  1  0  0  0  0
  7 24  1  0  0  0  0
  8 15  1  0  0  0  0
  9 10  1  0  0  0  0
  9 19  1  0  0  0  0
  9 20  1  0  0  0  0
 10 18  1  0  0  0  0
 10 21  1  0  0  0  0
 10 22  1  0  0  0  0
 11 13  2  0  0  0  0
 11 14  1  0  0  0  0
 13 16  1  0  0  0  0
 13 25  1  0  0  0  0
 14 17  2  0  0  0  0
 14 26  1  0  0  0  0
 15 16  2  0  0  0  0
 15 17  1  0  0  0  0
 16 27  1  0  0  0  0
 17 28  1  0  0  0  0
M  CHG  2   4  -1   8   1
M  END
> <PUBCHEM_COMPOUND_CID>
8804

> <PUBCHEM_CONFORMER_RMSD>
0.8

> <PUBCHEM_CONFORMER_DIVERSEORDER>
2
22
7
19
8
20
24
21
3
23
1
13
4
14
6
15
10
5
18
16
9
12
17
11

> <PUBCHEM_MMFF94_PARTIAL_CHARGES>
25
1 -0.57
10 0.06
11 0.12
12 0.69
13 -0.15
14 -0.15
15 0.13
16 -0.15
17 -0.15
18 0.66
2 -0.65
23 0.37
24 0.37
25 0.15
26 0.15
27 0.15
28 0.15
29 0.5
3 -0.57
4 -0.52
5 -0.52
6 -0.73
7 -0.55
8 0.91
9 0.3

> <PUBCHEM_EFFECTIVE_ROTOR_COUNT>
7

> <PUBCHEM_PHARMACOPHORE_FEATURES>
10
1 1 acceptor
1 2 acceptor
1 3 acceptor
1 4 acceptor
1 4 anion
1 5 acceptor
1 6 donor
1 7 donor
3 2 3 18 anion
6 11 13 14 15 16 17 rings

> <PUBCHEM_HEAVY_ATOM_COUNT>
18

> <PUBCHEM_ATOM_DEF_STEREO_COUNT>
0

> <PUBCHEM_ATOM_UDEF_STEREO_COUNT>
0

> <PUBCHEM_BOND_DEF_STEREO_COUNT>
0

> <PUBCHEM_BOND_UDEF_STEREO_COUNT>
0

> <PUBCHEM_ISOTOPIC_ATOM_COUNT>
0

> <PUBCHEM_COMPONENT_COUNT>
1

> <PUBCHEM_CACTVS_TAUTO_COUNT>
3

> <PUBCHEM_CONFORMER_ID>
0000226400000002

> <PUBCHEM_MMFF94_ENERGY>
41.3439

> <PUBCHEM_FEATURE_SELFOVERLAP>
50.934

> <PUBCHEM_SHAPE_FINGERPRINT>
10912923 1 18335980964607861600
11046707 91 17821733836411686793
11089746 13 13326854400747378615
11287383 113 16588029000387630632
11471102 20 18131064953002017120
117890 112 13614524060486788694
12236239 1 18334293179957586716
12500047 106 14979949251151805329
13167823 11 18334013908631369291
13862211 1 18343020034450391090
1420 363 15864068771364918357
14251718 22 18335137583323094476
14251757 5 18267306418074377559
14455015 7 14345791651792130468
14528608 73 18412824672811511684
14576447 43 18408328782476318739
15048467 5 11383829359870320382
15188451 53 14490769905995420229
15501527 24 18411415103299825500
15880784 105 16081659864056249531
17834072 33 18260829293415369316
17844677 252 16370444453749231113
18186145 218 16702018703960870961
19489759 90 14476958978545069649
200 152 18410855473329730897
20281389 69 10015583895957826367
20645477 70 17917430990007122914
20871999 31 18342182176525092129
21054139 6 18334582325730590230
21709351 56 18341895212105826557
220451 1 17967523610144257659
23035841 295 17822008714345088915
23402539 116 18411135865874572905
23402655 69 18271246139749813641
23557571 272 16226320542706054041
23559900 14 18340772524992802905
270888 7 13325757183740253255
29717793 49 18335135436229810910
33382 64 16226034639881434926
351380 3 18113621162510009703
42 15 6627748885766107881
441001 317 14476963402377007679
602551 16 16660372445757952063
7062679 117 18334573529948316899
7495541 125 16950288399194563800

> <PUBCHEM_SHAPE_MULTIPOLES>
326.14
13.84
1.44
1.05
2.55
0.02
-0.27
2.42
-4.69
0.15
0.03
1.11
0.12
-1.14

> <PUBCHEM_SHAPE_SELFOVERLAP>
673.023

> <PUBCHEM_SHAPE_VOLUME>
185.9

> <PUBCHEM_COORDINATE_TYPE>
2
5
10

$$$$

