7052
  -OEChem-06261201422D

 23 23  0     0  0  0  0  0  0999 V2000
    2.8660    0.6900    0.0000 O   0  0  0  0  0  0  0  0  0  0  0  0
    4.5981   -2.3100    0.0000 O   0  0  0  0  0  0  0  0  0  0  0  0
    5.4641    2.1900    0.0000 O   0  0  0  0  0  0  0  0  0  0  0  0
    3.7320    2.1900    0.0000 O   0  0  0  0  0  0  0  0  0  0  0  0
    3.7320    0.1900    0.0000 C   0  0  0  0  0  0  0  0  0  0  0  0
    4.5981    0.6900    0.0000 C   0  0  0  0  0  0  0  0  0  0  0  0
    4.5981   -1.3100    0.0000 C   0  0  0  0  0  0  0  0  0  0  0  0
    3.7320   -0.8100    0.0000 C   0  0  0  0  0  0  0  0  0  0  0  0
    5.4641    0.1900    0.0000 C   0  0  0  0  0  0  0  0  0  0  0  0
    5.4641   -0.8100    0.0000 C   0  0  0  0  0  0  0  0  0  0  0  0
    4.5981    1.6900    0.0000 C   0  0  0  0  0  0  0  0  0  0  0  0
    2.0000    0.1900    0.0000 C   0  0  0  0  0  0  0  0  0  0  0  0
    5.4641   -2.8100    0.0000 C   0  0  0  0  0  0  0  0  0  0  0  0
    3.1951   -1.1200    0.0000 H   0  0  0  0  0  0  0  0  0  0  0  0
    6.0010    0.5000    0.0000 H   0  0  0  0  0  0  0  0  0  0  0  0
    6.0010   -1.1200    0.0000 H   0  0  0  0  0  0  0  0  0  0  0  0
    1.6900    0.7269    0.0000 H   0  0  0  0  0  0  0  0  0  0  0  0
    1.4631   -0.1200    0.0000 H   0  0  0  0  0  0  0  0  0  0  0  0
    2.3100   -0.3469    0.0000 H   0  0  0  0  0  0  0  0  0  0  0  0
    5.1541   -3.3469    0.0000 H   0  0  0  0  0  0  0  0  0  0  0  0
    6.0010   -3.1200    0.0000 H   0  0  0  0  0  0  0  0  0  0  0  0
    5.7741   -2.2731    0.0000 H   0  0  0  0  0  0  0  0  0  0  0  0
    5.4641    2.8100    0.0000 H   0  0  0  0  0  0  0  0  0  0  0  0
  1  5  1  0  0  0  0
  1 12  1  0  0  0  0
  2  7  1  0  0  0  0
  2 13  1  0  0  0  0
  3 11  1  0  0  0  0
  3 23  1  0  0  0  0
  4 11  2  0  0  0  0
  5  6  2  0  0  0  0
  5  8  1  0  0  0  0
  6  9  1  0  0  0  0
  6 11  1  0  0  0  0
  7  8  2  0  0  0  0
  7 10  1  0  0  0  0
  8 14  1  0  0  0  0
  9 10  2  0  0  0  0
  9 15  1  0  0  0  0
 10 16  1  0  0  0  0
 12 17  1  0  0  0  0
 12 18  1  0  0  0  0
 12 19  1  0  0  0  0
 13 20  1  0  0  0  0
 13 21  1  0  0  0  0
 13 22  1  0  0  0  0
M  END
> <PUBCHEM_COMPOUND_CID>
7052

> <PUBCHEM_COMPOUND_CANONICALIZED>
1

> <PUBCHEM_CACTVS_COMPLEXITY>
181

> <PUBCHEM_CACTVS_HBOND_ACCEPTOR>
4

> <PUBCHEM_CACTVS_HBOND_DONOR>
1

> <PUBCHEM_CACTVS_ROTATABLE_BOND>
3

> <PUBCHEM_CACTVS_SUBSKEYS>
AAADccBwOAAAAAAAAAAAAAAAAAAAAAAAAAAwAAAAAAAAAAABAAAAGgAACAAADASAmAIyDoAABgCIAiDSCAACCAAkIAAIiAEGCMgMJzaENRqAcWAl4BUIuYeI7CzOIAAACAAIAABAAAAQABAAAAAAAAAAAA==

> <PUBCHEM_IUPAC_OPENEYE_NAME>
2,4-dimethoxybenzoic acid

> <PUBCHEM_IUPAC_CAS_NAME>
2,4-dimethoxybenzoic acid

> <PUBCHEM_IUPAC_NAME>
2,4-dimethoxybenzoic acid

> <PUBCHEM_IUPAC_SYSTEMATIC_NAME>
2,4-dimethoxybenzoic acid

> <PUBCHEM_IUPAC_TRADITIONAL_NAME>
2,4-dimethoxybenzoic acid

> <PUBCHEM_IUPAC_INCHI>
InChI=1S/C9H10O4/c1-12-6-3-4-7(9(10)11)8(5-6)13-2/h3-5H,1-2H3,(H,10,11)

> <PUBCHEM_IUPAC_INCHIKEY>
GPVDHNVGGIAOQT-UHFFFAOYSA-N

> <PUBCHEM_XLOGP3>
1.6

> <PUBCHEM_EXACT_MASS>
182.057909

> <PUBCHEM_MOLECULAR_FORMULA>
C9H10O4

> <PUBCHEM_MOLECULAR_WEIGHT>
182.1733

> <PUBCHEM_OPENEYE_CAN_SMILES>
COC1=CC(=C(C=C1)C(=O)O)OC

> <PUBCHEM_OPENEYE_ISO_SMILES>
COC1=CC(=C(C=C1)C(=O)O)OC

> <PUBCHEM_CACTVS_TPSA>
55.8

> <PUBCHEM_MONOISOTOPIC_WEIGHT>
182.057909

> <PUBCHEM_TOTAL_CHARGE>
0

> <PUBCHEM_HEAVY_ATOM_COUNT>
13

> <PUBCHEM_ATOM_DEF_STEREO_COUNT>
0

> <PUBCHEM_ATOM_UDEF_STEREO_COUNT>
0

> <PUBCHEM_BOND_DEF_STEREO_COUNT>
0

> <PUBCHEM_BOND_UDEF_STEREO_COUNT>
0

> <PUBCHEM_ISOTOPIC_ATOM_COUNT>
0

> <PUBCHEM_COMPONENT_COUNT>
1

> <PUBCHEM_CACTVS_TAUTO_COUNT>
1

> <PUBCHEM_COORDINATE_TYPE>
1
5
255

> <PUBCHEM_BONDANNOTATIONS>
5  6  8
5  8  8
6  9  8
7  10  8
7  8  8
9  10  8

$$$$

