442736
  -OEChem-07051212593D

 24 25  0     1  0  0  0  0  0999 V2000
   -0.4448   -2.5350    0.2085 O   0  0  0  0  0  0  0  0  0  0  0  0
    2.8987   -0.8796    0.5080 O   0  0  0  0  0  0  0  0  0  0  0  0
   -1.0969    0.9146    0.6219 N   0  0  2  0  0  0  0  0  0  0  0  0
   -0.0605   -0.1506    0.4557 C   0  0  1  0  0  0  0  0  0  0  0  0
   -0.7292   -1.2653   -0.3513 C   0  0  2  0  0  0  0  0  0  0  0  0
   -2.2138    0.5664   -0.2697 C   0  0  0  0  0  0  0  0  0  0  0  0
   -2.2111   -0.9477   -0.2480 C   0  0  0  0  0  0  0  0  0  0  0  0
    1.1036    0.5135   -0.2149 C   0  0  0  0  0  0  0  0  0  0  0  0
   -0.4501    2.1884    0.2394 C   0  0  0  0  0  0  0  0  0  0  0  0
    0.8793    1.8252   -0.3325 C   0  0  0  0  0  0  0  0  0  0  0  0
    2.3248   -0.2299   -0.6171 C   0  0  0  0  0  0  0  0  0  0  0  0
    0.2422   -0.5018    1.4501 H   0  0  0  0  0  0  0  0  0  0  0  0
   -0.4216   -1.2654   -1.4041 H   0  0  0  0  0  0  0  0  0  0  0  0
   -2.0515    0.9143   -1.2982 H   0  0  0  0  0  0  0  0  0  0  0  0
   -3.1586    0.9802    0.0947 H   0  0  0  0  0  0  0  0  0  0  0  0
   -2.6361   -1.3391    0.6848 H   0  0  0  0  0  0  0  0  0  0  0  0
   -2.7802   -1.3805   -1.0767 H   0  0  0  0  0  0  0  0  0  0  0  0
   -0.3070    2.8023    1.1353 H   0  0  0  0  0  0  0  0  0  0  0  0
   -1.0417    2.7717   -0.4747 H   0  0  0  0  0  0  0  0  0  0  0  0
    1.5702    2.5391   -0.7567 H   0  0  0  0  0  0  0  0  0  0  0  0
    3.0762    0.4439   -1.0421 H   0  0  0  0  0  0  0  0  0  0  0  0
    2.0810   -0.9857   -1.3702 H   0  0  0  0  0  0  0  0  0  0  0  0
    0.5190   -2.6593    0.1738 H   0  0  0  0  0  0  0  0  0  0  0  0
    3.6836   -1.3588    0.1918 H   0  0  0  0  0  0  0  0  0  0  0  0
  1  5  1  0  0  0  0
  1 23  1  0  0  0  0
  2 11  1  0  0  0  0
  2 24  1  0  0  0  0
  3  4  1  0  0  0  0
  3  6  1  0  0  0  0
  3  9  1  0  0  0  0
  4  5  1  0  0  0  0
  4  8  1  0  0  0  0
  4 12  1  0  0  0  0
  5  7  1  0  0  0  0
  5 13  1  0  0  0  0
  6  7  1  0  0  0  0
  6 14  1  0  0  0  0
  6 15  1  0  0  0  0
  7 16  1  0  0  0  0
  7 17  1  0  0  0  0
  8 10  2  0  0  0  0
  8 11  1  0  0  0  0
  9 10  1  0  0  0  0
  9 18  1  0  0  0  0
  9 19  1  0  0  0  0
 10 20  1  0  0  0  0
 11 21  1  0  0  0  0
 11 22  1  0  0  0  0
M  END
> <PUBCHEM_COMPOUND_CID>
442736

> <PUBCHEM_CONFORMER_RMSD>
0.4

> <PUBCHEM_CONFORMER_DIVERSEORDER>
1
6
3
4
2
5

> <PUBCHEM_MMFF94_PARTIAL_CHARGES>
13
1 -0.68
10 -0.29
11 0.42
2 -0.68
20 0.15
23 0.4
24 0.4
3 -0.81
4 0.41
5 0.28
6 0.27
8 -0.28
9 0.41

> <PUBCHEM_EFFECTIVE_ROTOR_COUNT>
1.8

> <PUBCHEM_PHARMACOPHORE_FEATURES>
7
1 1 acceptor
1 1 donor
1 2 acceptor
1 2 donor
1 3 cation
5 3 4 5 6 7 rings
5 3 4 8 9 10 rings

> <PUBCHEM_HEAVY_ATOM_COUNT>
11

> <PUBCHEM_ATOM_DEF_STEREO_COUNT>
2

> <PUBCHEM_ATOM_UDEF_STEREO_COUNT>
0

> <PUBCHEM_BOND_DEF_STEREO_COUNT>
0

> <PUBCHEM_BOND_UDEF_STEREO_COUNT>
0

> <PUBCHEM_ISOTOPIC_ATOM_COUNT>
0

> <PUBCHEM_COMPONENT_COUNT>
1

> <PUBCHEM_CACTVS_TAUTO_COUNT>
1

> <PUBCHEM_CONFORMER_ID>
0006C17000000001

> <PUBCHEM_MMFF94_ENERGY>
17.7822

> <PUBCHEM_FEATURE_SELFOVERLAP>
35.885

> <PUBCHEM_SHAPE_FINGERPRINT>
12423570 1 8972948325301374477
12524768 44 18188199906096751414
13024252 1 15482377759548089556
16945 1 18262512722963660725
18185500 45 18339357453279428276
193761 8 17977946778601762341
20871998 184 18187364359011947310
21040471 1 18194404390257108169
23552423 10 17981603762707431037
241688 4 18409449180556487665
2748010 2 18338237059589477821
369184 2 15068622729232628350
5084963 1 18259984851447630619
528886 8 18338520853853699113
54338 74 18411705400017938880
66348 1 18193270789241613502

> <PUBCHEM_SHAPE_MULTIPOLES>
209.66
3.05
2.26
0.74
0.93
0.01
-0.02
-0.88
-0.23
-0.2
0.15
0.07
0.01
-0.2

> <PUBCHEM_SHAPE_SELFOVERLAP>
436.36

> <PUBCHEM_SHAPE_VOLUME>
122.9

> <PUBCHEM_COORDINATE_TYPE>
2
5
10

$$$$

