442899
  -OEChem-07051213003D

 31 34  0     0  0  0  0  0  0999 V2000
    3.8993   -0.4382   -0.1551 O   0  0  0  0  0  0  0  0  0  0  0  0
    3.6828    1.9541    0.0324 O   0  0  0  0  0  0  0  0  0  0  0  0
    1.6820   -2.2108   -0.2531 O   0  0  0  0  0  0  0  0  0  0  0  0
   -0.9351   -2.3250   -0.2168 O   0  0  0  0  0  0  0  0  0  0  0  0
   -1.1818    1.7079    0.0969 N   0  0  0  0  0  0  0  0  0  0  0  0
    0.2362   -0.2676   -0.0787 C   0  0  0  0  0  0  0  0  0  0  0  0
    0.0977    1.1376    0.0318 C   0  0  0  0  0  0  0  0  0  0  0  0
    1.4982   -0.8702   -0.1466 C   0  0  0  0  0  0  0  0  0  0  0  0
    2.5988   -0.0398   -0.1016 C   0  0  0  0  0  0  0  0  0  0  0  0
    2.4752    1.3264    0.0053 C   0  0  0  0  0  0  0  0  0  0  0  0
   -2.3160   -0.4369   -0.0498 C   0  0  0  0  0  0  0  0  0  0  0  0
   -2.3670    0.9624    0.0587 C   0  0  0  0  0  0  0  0  0  0  0  0
   -0.9909   -1.1057   -0.1226 C   0  0  0  0  0  0  0  0  0  0  0  0
    1.2425    1.9447    0.0741 C   0  0  0  0  0  0  0  0  0  0  0  0
    4.5803    0.8300   -0.0688 C   0  0  0  0  0  0  0  0  0  0  0  0
   -3.4908   -1.1937   -0.0891 C   0  0  0  0  0  0  0  0  0  0  0  0
   -3.6147    1.5920    0.1270 C   0  0  0  0  0  0  0  0  0  0  0  0
   -4.7264   -0.5511   -0.0201 C   0  0  0  0  0  0  0  0  0  0  0  0
   -4.7888    0.8378    0.0876 C   0  0  0  0  0  0  0  0  0  0  0  0
    2.4184   -2.8537    0.7884 C   0  0  0  0  0  0  0  0  0  0  0  0
    1.1671    3.0240    0.1581 H   0  0  0  0  0  0  0  0  0  0  0  0
   -1.2522    2.7140    0.1762 H   0  0  0  0  0  0  0  0  0  0  0  0
    5.2308    0.8196    0.8133 H   0  0  0  0  0  0  0  0  0  0  0  0
    5.2017    0.9561   -0.9628 H   0  0  0  0  0  0  0  0  0  0  0  0
   -3.4652   -2.2765   -0.1727 H   0  0  0  0  0  0  0  0  0  0  0  0
   -3.6818    2.6739    0.2112 H   0  0  0  0  0  0  0  0  0  0  0  0
   -5.6427   -1.1337   -0.0503 H   0  0  0  0  0  0  0  0  0  0  0  0
   -5.7533    1.3343    0.1411 H   0  0  0  0  0  0  0  0  0  0  0  0
    2.2765   -2.3577    1.7549 H   0  0  0  0  0  0  0  0  0  0  0  0
    3.4804   -2.8911    0.5303 H   0  0  0  0  0  0  0  0  0  0  0  0
    2.0528   -3.8812    0.8737 H   0  0  0  0  0  0  0  0  0  0  0  0
  1  9  1  0  0  0  0
  1 15  1  0  0  0  0
  2 10  1  0  0  0  0
  2 15  1  0  0  0  0
  3  8  1  0  0  0  0
  3 20  1  0  0  0  0
  4 13  2  0  0  0  0
  5  7  1  0  0  0  0
  5 12  1  0  0  0  0
  5 22  1  0  0  0  0
  6  7  1  0  0  0  0
  6  8  2  0  0  0  0
  6 13  1  0  0  0  0
  7 14  2  0  0  0  0
  8  9  1  0  0  0  0
  9 10  2  0  0  0  0
 10 14  1  0  0  0  0
 11 12  1  0  0  0  0
 11 13  1  0  0  0  0
 11 16  2  0  0  0  0
 12 17  2  0  0  0  0
 14 21  1  0  0  0  0
 15 23  1  0  0  0  0
 15 24  1  0  0  0  0
 16 18  1  0  0  0  0
 16 25  1  0  0  0  0
 17 19  1  0  0  0  0
 17 26  1  0  0  0  0
 18 19  2  0  0  0  0
 18 27  1  0  0  0  0
 19 28  1  0  0  0  0
 20 29  1  0  0  0  0
 20 30  1  0  0  0  0
 20 31  1  0  0  0  0
M  END
> <PUBCHEM_COMPOUND_CID>
442899

> <PUBCHEM_CONFORMER_RMSD>
0.6

> <PUBCHEM_CONFORMER_DIVERSEORDER>
1

> <PUBCHEM_MMFF94_PARTIAL_CHARGES>
26
1 -0.36
10 0.08
11 0.09
12 0.1
13 0.4
14 -0.15
15 0.56
16 -0.15
17 -0.15
18 -0.15
19 -0.15
2 -0.36
20 0.28
21 0.15
22 0.4
25 0.15
26 0.15
27 0.15
28 0.15
3 -0.36
4 -0.57
5 -0.6
6 0.09
7 0.1
8 0.08
9 0.08

> <PUBCHEM_EFFECTIVE_ROTOR_COUNT>
1.6

> <PUBCHEM_PHARMACOPHORE_FEATURES>
10
1 1 acceptor
1 2 acceptor
1 3 acceptor
1 4 acceptor
1 5 cation
1 5 donor
5 1 2 9 10 15 rings
6 11 12 16 17 18 19 rings
6 5 6 7 11 12 13 rings
6 6 7 8 9 10 14 rings

> <PUBCHEM_HEAVY_ATOM_COUNT>
20

> <PUBCHEM_ATOM_DEF_STEREO_COUNT>
0

> <PUBCHEM_ATOM_UDEF_STEREO_COUNT>
0

> <PUBCHEM_BOND_DEF_STEREO_COUNT>
0

> <PUBCHEM_BOND_UDEF_STEREO_COUNT>
0

> <PUBCHEM_ISOTOPIC_ATOM_COUNT>
0

> <PUBCHEM_COMPONENT_COUNT>
1

> <PUBCHEM_CACTVS_TAUTO_COUNT>
3

> <PUBCHEM_CONFORMER_ID>
0006C21300000001

> <PUBCHEM_MMFF94_ENERGY>
76.4667

> <PUBCHEM_FEATURE_SELFOVERLAP>
50.959

> <PUBCHEM_SHAPE_FINGERPRINT>
10411042 1 17762055836511503542
10608611 8 18411139151677600173
10616163 171 18337389340488280927
10967382 1 18410292518764675084
10980938 120 18411136948105961882
11471102 20 18410014325148422364
11578080 2 17129876155664453342
12107183 9 17760645172046219561
12592029 89 18412261727084421426
12644460 14 18342452694307073114
13140716 1 18122066398946782920
13221675 6 18409449167581648383
13380535 76 18410854334873344358
138480 1 17978228592881590990
14178342 30 18120675534170885514
14790565 3 18268139877678534012
15196674 1 18409729551689536821
15442244 35 18193838369238306195
15536298 74 18334293197026634206
16945 1 18338245876919745204
17492 89 18409448128817722135
18186145 218 18335978774448931293
19591789 44 18337671888948112263
19784866 9 18411421713243795408
200 152 18040155098213488853
20510252 161 18187361039007788201
20645477 70 18334011726339785319
21267235 1 18409439284883226703
21421861 104 17987242316275427762
21501502 16 18337111271393787971
221490 88 18340479058124510155
2334 1 18337955704613167663
23366157 5 18059571446915305090
23402539 116 18260272919183557053
23402655 69 18333734632709796805
23463225 33 18338517551076537471
23559900 14 18190462842898207390
2748010 2 18266742569875653293
2871803 45 18411702084107994708
335352 9 18409729594902869852
33824 294 18411981364472539538
34934 24 18408327678685476559
350125 39 18339923843823511004
3545911 37 18411697690899873653
4214541 1 18409729569233740609
4409770 3 16401977661418504366
474 4 18059571335061441828
4990 188 17967522480837053348
5104073 3 18410011035234967027
69090 78 18335422335581417645
7364860 26 18336546126886502518
9709674 26 18410285909021529391

> <PUBCHEM_SHAPE_MULTIPOLES>
383.13
8.65
2.54
0.64
3
1.05
0.03
-1.65
0.1
-1.32
0.26
-0.04
0.09
-0.35

> <PUBCHEM_SHAPE_SELFOVERLAP>
872.595

> <PUBCHEM_SHAPE_VOLUME>
198.1

> <PUBCHEM_COORDINATE_TYPE>
2
5
10

$$$$

