441715
  -OEChem-07051212553D

 66 71  0     1  0  0  0  0  0999 V2000
   -2.0005   -2.7109    0.5818 O   0  0  0  0  0  0  0  0  0  0  0  0
    0.8374    2.6980   -0.9494 O   0  0  0  0  0  0  0  0  0  0  0  0
   -4.0173   -1.4690   -1.2743 O   0  0  0  0  0  0  0  0  0  0  0  0
   -4.6015    0.8550    0.6932 O   0  0  0  0  0  0  0  0  0  0  0  0
    4.0360   -2.3892   -1.4943 O   0  0  0  0  0  0  0  0  0  0  0  0
    1.6025    0.5431    1.5983 N   0  0  2  0  0  0  0  0  0  0  0  0
    0.7040    0.2373   -0.7105 C   0  0  1  0  0  0  0  0  0  0  0  0
    1.5737   -1.0704   -0.7387 C   0  0  2  0  0  0  0  0  0  0  0  0
   -0.6504    0.0811   -1.5205 C   0  0  1  0  0  0  0  0  0  0  0  0
    0.3891    0.2489    0.8062 C   0  0  1  0  0  0  0  0  0  0  0  0
   -0.1730   -1.1944    0.9702 C   0  0  1  0  0  0  0  0  0  0  0  0
   -1.5790   -1.0980   -1.1389 C   0  0  1  0  0  0  0  0  0  0  0  0
   -1.6050   -1.3367    0.3880 C   0  0  1  0  0  0  0  0  0  0  0  0
    0.7904   -2.0767    0.1376 C   0  0  0  0  0  0  0  0  0  0  0  0
    2.9602   -0.7924   -0.0803 C   0  0  2  0  0  0  0  0  0  0  0  0
    1.4822    1.4709   -1.2822 C   0  0  2  0  0  0  0  0  0  0  0  0
   -1.6117    1.3001   -1.4762 C   0  0  0  0  0  0  0  0  0  0  0  0
   -3.0028    0.7537   -1.1174 C   0  0  1  0  0  0  0  0  0  0  0  0
   -2.9392   -0.6557   -1.6847 C   0  0  2  0  0  0  0  0  0  0  0  0
   -2.6547   -0.4871    1.1444 C   0  0  0  0  0  0  0  0  0  0  0  0
    2.7289   -0.3861    1.4085 C   0  0  0  0  0  0  0  0  0  0  0  0
    3.6859    0.3177   -0.8668 C   0  0  0  0  0  0  0  0  0  0  0  0
   -3.2010    0.7495    0.4113 C   0  0  2  0  0  0  0  0  0  0  0  0
    2.9386    1.6299   -0.8631 C   0  0  0  0  0  0  0  0  0  0  0  0
    3.8746   -2.0361   -0.1389 C   0  0  0  0  0  0  0  0  0  0  0  0
    1.3096    0.7382    3.0150 C   0  0  0  0  0  0  0  0  0  0  0  0
    2.5284    1.2903    3.7291 C   0  0  0  0  0  0  0  0  0  0  0  0
    1.4277    3.7941   -1.6316 C   0  0  0  0  0  0  0  0  0  0  0  0
   -4.8330    0.9951    2.0842 C   0  0  0  0  0  0  0  0  0  0  0  0
    1.6858   -1.4411   -1.7640 H   0  0  0  0  0  0  0  0  0  0  0  0
   -0.3712   -0.0652   -2.5749 H   0  0  0  0  0  0  0  0  0  0  0  0
   -0.3618    1.0093    1.0376 H   0  0  0  0  0  0  0  0  0  0  0  0
   -0.1774   -1.5303    2.0135 H   0  0  0  0  0  0  0  0  0  0  0  0
   -1.2806   -2.0053   -1.6772 H   0  0  0  0  0  0  0  0  0  0  0  0
    1.4171   -2.6695    0.8081 H   0  0  0  0  0  0  0  0  0  0  0  0
    0.3083   -2.8203   -0.5003 H   0  0  0  0  0  0  0  0  0  0  0  0
    1.4714    1.3583   -2.3763 H   0  0  0  0  0  0  0  0  0  0  0  0
   -1.3273    2.0818   -0.7723 H   0  0  0  0  0  0  0  0  0  0  0  0
   -1.6418    1.7616   -2.4713 H   0  0  0  0  0  0  0  0  0  0  0  0
   -3.7963    1.3413   -1.5927 H   0  0  0  0  0  0  0  0  0  0  0  0
   -2.9288   -0.6284   -2.7816 H   0  0  0  0  0  0  0  0  0  0  0  0
   -2.2590   -0.1829    2.1227 H   0  0  0  0  0  0  0  0  0  0  0  0
   -3.4900   -1.1577    1.3900 H   0  0  0  0  0  0  0  0  0  0  0  0
    2.5810   -1.2835    2.0233 H   0  0  0  0  0  0  0  0  0  0  0  0
    3.6604    0.0718    1.7629 H   0  0  0  0  0  0  0  0  0  0  0  0
    3.8219    0.0215   -1.9148 H   0  0  0  0  0  0  0  0  0  0  0  0
    4.6912    0.4821   -0.4582 H   0  0  0  0  0  0  0  0  0  0  0  0
   -2.7280    1.6508    0.8223 H   0  0  0  0  0  0  0  0  0  0  0  0
    3.0217    2.1173    0.1158 H   0  0  0  0  0  0  0  0  0  0  0  0
    3.4670    2.2995   -1.5537 H   0  0  0  0  0  0  0  0  0  0  0  0
    3.4581   -2.8971    0.3893 H   0  0  0  0  0  0  0  0  0  0  0  0
    4.8584   -1.8361    0.3020 H   0  0  0  0  0  0  0  0  0  0  0  0
   -1.5658   -3.2823   -0.0700 H   0  0  0  0  0  0  0  0  0  0  0  0
    0.4993    1.4691    3.1250 H   0  0  0  0  0  0  0  0  0  0  0  0
    0.9813   -0.1873    3.5018 H   0  0  0  0  0  0  0  0  0  0  0  0
   -3.8228   -2.3772   -1.5622 H   0  0  0  0  0  0  0  0  0  0  0  0
    3.3097    0.5368    3.8698 H   0  0  0  0  0  0  0  0  0  0  0  0
    2.9550    2.1503    3.2012 H   0  0  0  0  0  0  0  0  0  0  0  0
    2.2414    1.6331    4.7296 H   0  0  0  0  0  0  0  0  0  0  0  0
    4.8108   -1.9136   -1.8386 H   0  0  0  0  0  0  0  0  0  0  0  0
    0.7121    4.6217   -1.6020 H   0  0  0  0  0  0  0  0  0  0  0  0
    1.6294    3.5690   -2.6840 H   0  0  0  0  0  0  0  0  0  0  0  0
    2.3311    4.1406   -1.1217 H   0  0  0  0  0  0  0  0  0  0  0  0
   -5.8669    1.3297    2.2143 H   0  0  0  0  0  0  0  0  0  0  0  0
   -4.1814    1.7529    2.5315 H   0  0  0  0  0  0  0  0  0  0  0  0
   -4.7382    0.0456    2.6173 H   0  0  0  0  0  0  0  0  0  0  0  0
  1 13  1  0  0  0  0
  1 53  1  0  0  0  0
  2 16  1  0  0  0  0
  2 28  1  0  0  0  0
  3 19  1  0  0  0  0
  3 56  1  0  0  0  0
  4 23  1  0  0  0  0
  4 29  1  0  0  0  0
  5 25  1  0  0  0  0
  5 60  1  0  0  0  0
  6 10  1  0  0  0  0
  6 21  1  0  0  0  0
  6 26  1  0  0  0  0
  7  8  1  0  0  0  0
  7  9  1  0  0  0  0
  7 10  1  0  0  0  0
  7 16  1  0  0  0  0
  8 14  1  0  0  0  0
  8 15  1  0  0  0  0
  8 30  1  0  0  0  0
  9 12  1  0  0  0  0
  9 17  1  0  0  0  0
  9 31  1  0  0  0  0
 10 11  1  0  0  0  0
 10 32  1  0  0  0  0
 11 13  1  0  0  0  0
 11 14  1  0  0  0  0
 11 33  1  0  0  0  0
 12 13  1  0  0  0  0
 12 19  1  0  0  0  0
 12 34  1  0  0  0  0
 13 20  1  0  0  0  0
 14 35  1  0  0  0  0
 14 36  1  0  0  0  0
 15 21  1  0  0  0  0
 15 22  1  0  0  0  0
 15 25  1  0  0  0  0
 16 24  1  0  0  0  0
 16 37  1  0  0  0  0
 17 18  1  0  0  0  0
 17 38  1  0  0  0  0
 17 39  1  0  0  0  0
 18 19  1  0  0  0  0
 18 23  1  0  0  0  0
 18 40  1  0  0  0  0
 19 41  1  0  0  0  0
 20 23  1  0  0  0  0
 20 42  1  0  0  0  0
 20 43  1  0  0  0  0
 21 44  1  0  0  0  0
 21 45  1  0  0  0  0
 22 24  1  0  0  0  0
 22 46  1  0  0  0  0
 22 47  1  0  0  0  0
 23 48  1  0  0  0  0
 24 49  1  0  0  0  0
 24 50  1  0  0  0  0
 25 51  1  0  0  0  0
 25 52  1  0  0  0  0
 26 27  1  0  0  0  0
 26 54  1  0  0  0  0
 26 55  1  0  0  0  0
 27 57  1  0  0  0  0
 27 58  1  0  0  0  0
 27 59  1  0  0  0  0
 28 61  1  0  0  0  0
 28 62  1  0  0  0  0
 28 63  1  0  0  0  0
 29 64  1  0  0  0  0
 29 65  1  0  0  0  0
 29 66  1  0  0  0  0
M  END
> <PUBCHEM_COMPOUND_CID>
441715

> <PUBCHEM_CONFORMER_RMSD>
0.8

> <PUBCHEM_CONFORMER_DIVERSEORDER>
1

> <PUBCHEM_MMFF94_PARTIAL_CHARGES>
19
1 -0.68
10 0.27
13 0.28
16 0.28
19 0.28
2 -0.56
21 0.27
23 0.28
25 0.28
26 0.27
28 0.28
29 0.28
3 -0.68
4 -0.56
5 -0.68
53 0.4
56 0.4
6 -0.81
60 0.4

> <PUBCHEM_EFFECTIVE_ROTOR_COUNT>
6

> <PUBCHEM_PHARMACOPHORE_FEATURES>
13
1 1 acceptor
1 1 donor
1 2 acceptor
1 3 acceptor
1 3 donor
1 4 acceptor
1 5 acceptor
1 5 donor
1 6 cation
6 7 8 15 16 22 24 rings
8 6 7 8 10 11 14 15 21 rings
8 7 8 9 10 11 12 13 14 rings
8 9 12 13 17 18 19 20 23 rings

> <PUBCHEM_HEAVY_ATOM_COUNT>
29

> <PUBCHEM_ATOM_DEF_STEREO_COUNT>
11

> <PUBCHEM_ATOM_UDEF_STEREO_COUNT>
1

> <PUBCHEM_BOND_DEF_STEREO_COUNT>
0

> <PUBCHEM_BOND_UDEF_STEREO_COUNT>
0

> <PUBCHEM_ISOTOPIC_ATOM_COUNT>
0

> <PUBCHEM_COMPONENT_COUNT>
1

> <PUBCHEM_CACTVS_TAUTO_COUNT>
1

> <PUBCHEM_CONFORMER_ID>
0006BD7300000001

> <PUBCHEM_MMFF94_ENERGY>
154.4808

> <PUBCHEM_FEATURE_SELFOVERLAP>
67.502

> <PUBCHEM_SHAPE_FINGERPRINT>
10076449 9 17842527869168104038
10675989 125 16476888393605100876
10863032 1 18267851818241820486
11578080 2 17896035442844339480
12160290 23 17340155606898571876
12553582 1 18201441436352214974
12633257 1 18202567245858807945
12788726 201 17627243586411310124
13134695 92 17530968037748554482
13140716 1 17988073375272576123
13224815 77 18336275552198847799
13583140 156 17530962454170224555
14223421 5 17557419882067492935
14713325 29 17192895403904068956
14955137 171 18129360748190512885
15163728 17 17535479123520500264
15219462 58 17605830322508586483
15238133 3 17314216933645412929
15295992 7 17894345584125631891
16945 1 18059868280336337815
17349148 13 18053412953170042175
1813 80 18192416683824741350
18981168 100 18118406129054145313
20600515 1 17985020100302192976
20715895 44 15213857272344597025
20905425 154 17270330768915262846
21033648 29 18189913083053324121
23419403 2 17608407775917742144
23559900 14 18269002998268262310
2748010 2 17488181487419785367
3286 77 17749686120213250255
35225 105 16254211445898313937

> <PUBCHEM_SHAPE_MULTIPOLES>
562.48
7.17
2.72
2.61
4.17
2.04
-3
-0.97
-0.54
-1.55
1.1
-0.79
-0.1
0.08

> <PUBCHEM_SHAPE_SELFOVERLAP>
1238.061

> <PUBCHEM_SHAPE_VOLUME>
298.9

> <PUBCHEM_COORDINATE_TYPE>
2
5
10

$$$$

