6439717
  -OEChem-07051213113D

 47 47  0     0  0  0  0  0  0999 V2000
    2.0865    0.4803    1.3396 O   0  0  0  0  0  0  0  0  0  0  0  0
    3.4698   -4.9155   -1.2600 O   0  0  0  0  0  0  0  0  0  0  0  0
   -6.0264   -1.6073   -0.9827 O   0  0  0  0  0  0  0  0  0  0  0  0
   -6.2037    0.6146   -0.4967 O   0  0  0  0  0  0  0  0  0  0  0  0
    0.0291   -0.6908    1.0198 C   0  0  0  0  0  0  0  0  0  0  0  0
    0.1153    1.6956    0.7521 C   0  0  0  0  0  0  0  0  0  0  0  0
    0.7560    0.4906    1.0404 C   0  0  0  0  0  0  0  0  0  0  0  0
    0.7046   -2.0037    1.3279 C   0  0  0  0  0  0  0  0  0  0  0  0
    0.8698    2.9844    0.7650 C   0  0  0  0  0  0  0  0  0  0  0  0
   -1.3252   -0.6932    0.7170 C   0  0  0  0  0  0  0  0  0  0  0  0
   -1.9658    0.5118    0.4286 C   0  0  0  0  0  0  0  0  0  0  0  0
   -1.2456    1.7062    0.4462 C   0  0  0  0  0  0  0  0  0  0  0  0
    1.2619   -2.6618    0.0971 C   0  0  0  0  0  0  0  0  0  0  0  0
    1.4676    3.3277   -0.5768 C   0  0  0  0  0  0  0  0  0  0  0  0
    2.5404   -3.0044   -0.1550 C   0  0  0  0  0  0  0  0  0  0  0  0
    2.7680    3.4812   -0.8915 C   0  0  0  0  0  0  0  0  0  0  0  0
   -3.3850    0.5227    0.1100 C   0  0  0  0  0  0  0  0  0  0  0  0
    2.9072   -3.6285   -1.4786 C   0  0  0  0  0  0  0  0  0  0  0  0
    3.6903   -2.8042    0.7938 C   0  0  0  0  0  0  0  0  0  0  0  0
    3.2958    3.8252   -2.2554 C   0  0  0  0  0  0  0  0  0  0  0  0
    3.8311    3.3189    0.1624 C   0  0  0  0  0  0  0  0  0  0  0  0
   -4.0994   -0.5448   -0.3107 C   0  0  0  0  0  0  0  0  0  0  0  0
   -5.5422   -0.4051   -0.5924 C   0  0  0  0  0  0  0  0  0  0  0  0
    1.4475   -1.8609    2.1175 H   0  0  0  0  0  0  0  0  0  0  0  0
   -0.0288   -2.6904    1.7722 H   0  0  0  0  0  0  0  0  0  0  0  0
    0.1716    3.7972    1.0132 H   0  0  0  0  0  0  0  0  0  0  0  0
    1.5713    3.0080    1.6015 H   0  0  0  0  0  0  0  0  0  0  0  0
   -1.8607   -1.6381    0.7293 H   0  0  0  0  0  0  0  0  0  0  0  0
   -1.7419    2.6474    0.2182 H   0  0  0  0  0  0  0  0  0  0  0  0
    0.5203   -2.8747   -0.6730 H   0  0  0  0  0  0  0  0  0  0  0  0
    0.7419    3.4712   -1.3772 H   0  0  0  0  0  0  0  0  0  0  0  0
   -3.8826    1.4834    0.2264 H   0  0  0  0  0  0  0  0  0  0  0  0
    2.5120    1.3018    1.0588 H   0  0  0  0  0  0  0  0  0  0  0  0
    2.0404   -3.7438   -2.1379 H   0  0  0  0  0  0  0  0  0  0  0  0
    3.6457   -3.0053   -1.9942 H   0  0  0  0  0  0  0  0  0  0  0  0
    3.4262   -2.2549    1.6988 H   0  0  0  0  0  0  0  0  0  0  0  0
    4.0988   -3.7711    1.1053 H   0  0  0  0  0  0  0  0  0  0  0  0
    4.4872   -2.2374    0.3002 H   0  0  0  0  0  0  0  0  0  0  0  0
    2.4876    3.9142   -2.9888 H   0  0  0  0  0  0  0  0  0  0  0  0
    3.8312    4.7797   -2.2302 H   0  0  0  0  0  0  0  0  0  0  0  0
    3.9812    3.0468   -2.6060 H   0  0  0  0  0  0  0  0  0  0  0  0
    3.4809    3.3825    1.1925 H   0  0  0  0  0  0  0  0  0  0  0  0
    4.3473    2.3625    0.0282 H   0  0  0  0  0  0  0  0  0  0  0  0
    4.5770    4.1160    0.0578 H   0  0  0  0  0  0  0  0  0  0  0  0
   -3.6602   -1.5230   -0.4693 H   0  0  0  0  0  0  0  0  0  0  0  0
    3.7129   -5.2724   -2.1312 H   0  0  0  0  0  0  0  0  0  0  0  0
   -6.9859   -1.5693   -1.1837 H   0  0  0  0  0  0  0  0  0  0  0  0
  1  7  1  0  0  0  0
  1 33  1  0  0  0  0
  2 18  1  0  0  0  0
  2 46  1  0  0  0  0
  3 23  1  0  0  0  0
  3 47  1  0  0  0  0
  4 23  2  0  0  0  0
  5  7  1  0  0  0  0
  5  8  1  0  0  0  0
  5 10  2  0  0  0  0
  6  7  2  0  0  0  0
  6  9  1  0  0  0  0
  6 12  1  0  0  0  0
  8 13  1  0  0  0  0
  8 24  1  0  0  0  0
  8 25  1  0  0  0  0
  9 14  1  0  0  0  0
  9 26  1  0  0  0  0
  9 27  1  0  0  0  0
 10 11  1  0  0  0  0
 10 28  1  0  0  0  0
 11 12  2  0  0  0  0
 11 17  1  0  0  0  0
 12 29  1  0  0  0  0
 13 15  2  0  0  0  0
 13 30  1  0  0  0  0
 14 16  2  0  0  0  0
 14 31  1  0  0  0  0
 15 18  1  0  0  0  0
 15 19  1  0  0  0  0
 16 20  1  0  0  0  0
 16 21  1  0  0  0  0
 17 22  2  0  0  0  0
 17 32  1  0  0  0  0
 18 34  1  0  0  0  0
 18 35  1  0  0  0  0
 19 36  1  0  0  0  0
 19 37  1  0  0  0  0
 19 38  1  0  0  0  0
 20 39  1  0  0  0  0
 20 40  1  0  0  0  0
 20 41  1  0  0  0  0
 21 42  1  0  0  0  0
 21 43  1  0  0  0  0
 21 44  1  0  0  0  0
 22 23  1  0  0  0  0
 22 45  1  0  0  0  0
M  END
> <PUBCHEM_COMPOUND_CID>
6439717

> <PUBCHEM_CONFORMER_RMSD>
0.8

> <PUBCHEM_CONFORMER_DIVERSEORDER>
5
64
39
87
84
66
43
105
60
55
49
68
77
37
70
35
38
7
34
85
45
103
89
15
62
52
36
73
24
97
69
82
90
40
27
95
102
32
72
76
101
54
11
30
10
31
93
81
57
19
96
75
71
53
29
94
56
14
104
20
47
28
100
80
78
92
51
26
17
74
107
48
79
13
88
22
106
63
16
58
18
50
83
42
9
61
65
99
91
12
98
1
3
67
25
33
46
2
59
41
8
86
4
6
21
23
44

> <PUBCHEM_MMFF94_PARTIAL_CHARGES>
32
1 -0.53
10 -0.15
11 0.03
12 -0.15
13 -0.29
14 -0.29
15 -0.28
16 -0.28
17 -0.18
18 0.42
19 0.14
2 -0.68
20 0.14
21 0.14
22 -0.14
23 0.71
28 0.15
29 0.15
3 -0.65
30 0.15
31 0.15
32 0.15
33 0.45
4 -0.57
45 0.15
46 0.4
47 0.5
5 -0.14
6 -0.14
7 0.08
8 0.28
9 0.28

> <PUBCHEM_EFFECTIVE_ROTOR_COUNT>
7

> <PUBCHEM_PHARMACOPHORE_FEATURES>
9
1 1 donor
1 19 hydrophobe
1 2 acceptor
1 2 donor
1 3 acceptor
1 4 acceptor
3 16 20 21 hydrophobe
3 3 4 23 anion
6 5 6 7 10 11 12 rings

> <PUBCHEM_HEAVY_ATOM_COUNT>
23

> <PUBCHEM_ATOM_DEF_STEREO_COUNT>
0

> <PUBCHEM_ATOM_UDEF_STEREO_COUNT>
0

> <PUBCHEM_BOND_DEF_STEREO_COUNT>
2

> <PUBCHEM_BOND_UDEF_STEREO_COUNT>
0

> <PUBCHEM_ISOTOPIC_ATOM_COUNT>
0

> <PUBCHEM_COMPONENT_COUNT>
1

> <PUBCHEM_CACTVS_TAUTO_COUNT>
3

> <PUBCHEM_CONFORMER_ID>
0062432500000005

> <PUBCHEM_MMFF94_ENERGY>
48.5395

> <PUBCHEM_FEATURE_SELFOVERLAP>
45.724

> <PUBCHEM_SHAPE_FINGERPRINT>
10074138 170 8713549853964539566
11045515 52 18053096517122365388
11488393 25 18341321193963648499
12788726 201 17120003782524072040
13257819 37 17767672867760002629
13836976 161 18270132192694751473
14508225 48 18122063375289884302
14863182 85 18189069624189620576
15475509 35 5256136778085996253
15664445 248 18268998746287971754
15775530 1 17986651724002537091
15961568 22 18268708493500459334
167882 2 18342455902642432952
1813 80 18264774440031016331
20388580 30 18261957452649199963
20602899 9 17757254995023645073
20645477 70 18342189825888148833
21344244 181 17684632252030080750
21344244 246 18409727331629463838
23559900 14 18262253213288290179
24893989 43 16324365149511030525
26353 1 18051151463904765420
266924 1 18187354446576003905
3057174 1 18124305017748371692
3298306 158 18195800774266486652
38695281 34 18194968435311087064
4017518 198 18263076610370004860
4280585 95 18122634008966613770
46194498 28 18272382975101971069
9709674 26 18340216211333631043
9925002 15 17834939146854749068

> <PUBCHEM_SHAPE_MULTIPOLES>
449.85
9.69
6.38
1.46
19.22
2.64
-0.43
0.82
-4.86
-12.91
-3.08
-1.13
-0.07
-0.66

> <PUBCHEM_SHAPE_SELFOVERLAP>
918.65

> <PUBCHEM_SHAPE_VOLUME>
261.1

> <PUBCHEM_COORDINATE_TYPE>
2
5
10

$$$$

