442529
  -OEChem-07051212583D

 37 38  0     1  0  0  0  0  0999 V2000
   -1.3097   -2.4924    0.2202 O   0  0  0  0  0  0  0  0  0  0  0  0
    0.9096   -1.2492    0.2559 N   0  0  0  0  0  0  0  0  0  0  0  0
   -1.2373   -0.1323    0.5884 C   0  0  1  0  0  0  0  0  0  0  0  0
   -1.9716    1.1853    0.3000 C   0  0  0  0  0  0  0  0  0  0  0  0
   -1.9280   -1.2726   -0.1677 C   0  0  0  0  0  0  0  0  0  0  0  0
    0.1870    2.4946    0.2076 C   0  0  1  0  0  0  0  0  0  0  0  0
   -1.1956    2.3692    0.8631 C   0  0  0  0  0  0  0  0  0  0  0  0
    0.2492   -0.0613    0.2906 C   0  0  0  0  0  0  0  0  0  0  0  0
    0.9102    1.1666    0.1577 C   0  0  0  0  0  0  0  0  0  0  0  0
   -1.7660   -1.0799   -1.6672 C   0  0  0  0  0  0  0  0  0  0  0  0
   -3.3947   -1.3378    0.2255 C   0  0  0  0  0  0  0  0  0  0  0  0
    0.0870    3.1064   -1.1954 C   0  0  0  0  0  0  0  0  0  0  0  0
    2.2972    1.1405   -0.0444 C   0  0  0  0  0  0  0  0  0  0  0  0
    2.2450   -1.2247    0.0557 C   0  0  0  0  0  0  0  0  0  0  0  0
    2.9795   -0.0671   -0.0996 C   0  0  0  0  0  0  0  0  0  0  0  0
    2.9381   -2.5452    0.0096 C   0  0  0  0  0  0  0  0  0  0  0  0
   -1.2991   -0.3302    1.6690 H   0  0  0  0  0  0  0  0  0  0  0  0
   -2.9577    1.1850    0.7785 H   0  0  0  0  0  0  0  0  0  0  0  0
   -2.1376    1.3631   -0.7651 H   0  0  0  0  0  0  0  0  0  0  0  0
    0.7735    3.1828    0.8313 H   0  0  0  0  0  0  0  0  0  0  0  0
   -1.7685    3.2944    0.7296 H   0  0  0  0  0  0  0  0  0  0  0  0
   -1.0737    2.2320    1.9460 H   0  0  0  0  0  0  0  0  0  0  0  0
   -2.1580   -1.9594   -2.1946 H   0  0  0  0  0  0  0  0  0  0  0  0
   -2.3076   -0.2180   -2.0646 H   0  0  0  0  0  0  0  0  0  0  0  0
   -0.7192   -1.0097   -1.9795 H   0  0  0  0  0  0  0  0  0  0  0  0
   -3.5140   -1.3708    1.3147 H   0  0  0  0  0  0  0  0  0  0  0  0
   -3.8500   -2.2615   -0.1528 H   0  0  0  0  0  0  0  0  0  0  0  0
   -3.9869   -0.5071   -0.1700 H   0  0  0  0  0  0  0  0  0  0  0  0
   -0.4591    4.0553   -1.1681 H   0  0  0  0  0  0  0  0  0  0  0  0
    1.0813    3.3123   -1.6074 H   0  0  0  0  0  0  0  0  0  0  0  0
   -0.4230    2.4391   -1.8986 H   0  0  0  0  0  0  0  0  0  0  0  0
    2.8528    2.0682   -0.1576 H   0  0  0  0  0  0  0  0  0  0  0  0
   -1.7309   -3.2173   -0.2724 H   0  0  0  0  0  0  0  0  0  0  0  0
    4.0525   -0.0867   -0.2564 H   0  0  0  0  0  0  0  0  0  0  0  0
    2.2267   -3.3673    0.1405 H   0  0  0  0  0  0  0  0  0  0  0  0
    3.4359   -2.6808   -0.9559 H   0  0  0  0  0  0  0  0  0  0  0  0
    3.6827   -2.6127    0.8091 H   0  0  0  0  0  0  0  0  0  0  0  0
  1  5  1  0  0  0  0
  1 33  1  0  0  0  0
  2  8  1  0  0  0  0
  2 14  2  0  0  0  0
  3  4  1  0  0  0  0
  3  5  1  0  0  0  0
  3  8  1  0  0  0  0
  3 17  1  0  0  0  0
  4  7  1  0  0  0  0
  4 18  1  0  0  0  0
  4 19  1  0  0  0  0
  5 10  1  0  0  0  0
  5 11  1  0  0  0  0
  6  7  1  0  0  0  0
  6  9  1  0  0  0  0
  6 12  1  0  0  0  0
  6 20  1  0  0  0  0
  7 21  1  0  0  0  0
  7 22  1  0  0  0  0
  8  9  2  0  0  0  0
  9 13  1  0  0  0  0
 10 23  1  0  0  0  0
 10 24  1  0  0  0  0
 10 25  1  0  0  0  0
 11 26  1  0  0  0  0
 11 27  1  0  0  0  0
 11 28  1  0  0  0  0
 12 29  1  0  0  0  0
 12 30  1  0  0  0  0
 12 31  1  0  0  0  0
 13 15  2  0  0  0  0
 13 32  1  0  0  0  0
 14 15  1  0  0  0  0
 14 16  1  0  0  0  0
 15 34  1  0  0  0  0
 16 35  1  0  0  0  0
 16 36  1  0  0  0  0
 16 37  1  0  0  0  0
M  END
> <PUBCHEM_COMPOUND_CID>
442529

> <PUBCHEM_CONFORMER_RMSD>
0.6

> <PUBCHEM_CONFORMER_DIVERSEORDER>
1
4
3
5
2
6

> <PUBCHEM_MMFF94_PARTIAL_CHARGES>
14
1 -0.68
13 -0.15
14 0.17
15 -0.15
16 0.14
2 -0.62
3 0.14
32 0.15
33 0.4
34 0.15
5 0.28
6 0.14
8 0.17
9 -0.14

> <PUBCHEM_EFFECTIVE_ROTOR_COUNT>
1.8

> <PUBCHEM_PHARMACOPHORE_FEATURES>
6
1 1 acceptor
1 1 donor
1 2 acceptor
3 5 10 11 hydrophobe
6 2 8 9 13 14 15 rings
6 3 4 6 7 8 9 rings

> <PUBCHEM_HEAVY_ATOM_COUNT>
16

> <PUBCHEM_ATOM_DEF_STEREO_COUNT>
2

> <PUBCHEM_ATOM_UDEF_STEREO_COUNT>
0

> <PUBCHEM_BOND_DEF_STEREO_COUNT>
0

> <PUBCHEM_BOND_UDEF_STEREO_COUNT>
0

> <PUBCHEM_ISOTOPIC_ATOM_COUNT>
0

> <PUBCHEM_COMPONENT_COUNT>
1

> <PUBCHEM_CACTVS_TAUTO_COUNT>
1

> <PUBCHEM_CONFORMER_ID>
0006C0A100000001

> <PUBCHEM_MMFF94_ENERGY>
47.601

> <PUBCHEM_FEATURE_SELFOVERLAP>
30.486

> <PUBCHEM_SHAPE_FINGERPRINT>
10967382 1 18265894644568377914
12553582 1 18336547118670695366
13140716 1 18265894833531128075
14178342 30 17974018240688505451
14817 1 11559577179243634509
15001771 113 18410007723783805273
15309172 13 17543339914161793216
15490181 7 17764877187795376600
16945 1 18266743471903200793
193761 8 18410009983268905944
19591789 44 17184740836761062563
19868273 325 18411697703336343672
20645476 183 17121383618346907214
20645477 70 17765162670357032003
20871998 184 18042404797239481823
21160774 45 17980481479163402460
21501502 16 18337950211914368624
21524375 3 17687747559445520985
2334 1 18410291419263700898
23388829 49 18263366880379499136
23419403 2 16536036415161497408
23552423 10 18050284769690333971
23559900 14 17396703555405626494
238 59 17257971115874188519
241688 4 18412546547751082200
257057 1 18337405893101991282
2748010 2 18410294743568283945
2897 32 18194116317915283724
34934 24 18334581191885045521
6338986 31 18189355522713834790
69090 78 17904488746110661984
7364860 26 18047752594274565353
81228 2 18338807834788618432

> <PUBCHEM_SHAPE_MULTIPOLES>
318.42
4.22
3.43
0.98
1.14
1.24
-0.35
-2.83
0.08
-0.2
-0.36
-0.42
0.18
-0.35

> <PUBCHEM_SHAPE_SELFOVERLAP>
668.995

> <PUBCHEM_SHAPE_VOLUME>
179.6

> <PUBCHEM_COORDINATE_TYPE>
2
5
10

$$$$

