41635
  -OEChem-07051212483D

 37 36  0     1  0  0  0  0  0999 V2000
   -3.0795   -0.6983   -0.0817 P   0  0  0  0  0  0  0  0  0  0  0  0
   -1.7177   -1.5485   -0.2663 O   0  0  0  0  0  0  0  0  0  0  0  0
    3.0867   -2.2615    0.2970 O   0  0  0  0  0  0  0  0  0  0  0  0
    3.0643    0.0754   -1.0622 O   0  0  0  0  0  0  0  0  0  0  0  0
   -3.1294   -0.4489    1.5153 O   0  0  0  0  0  0  0  0  0  0  0  0
   -2.7071    0.7596   -0.6743 O   0  0  0  0  0  0  0  0  0  0  0  0
   -4.3093   -1.3322   -0.6630 O   0  0  0  0  0  0  0  0  0  0  0  0
   -1.2648    3.4660   -0.7406 O   0  0  0  0  0  0  0  0  0  0  0  0
   -0.5645    2.5017    1.1920 O   0  0  0  0  0  0  0  0  0  0  0  0
    1.9263    1.0525    0.7080 N   0  0  0  0  0  0  0  0  0  0  0  0
    0.6858   -1.9564   -0.0090 C   0  0  0  0  0  0  0  0  0  0  0  0
    2.0088   -1.3688    0.5660 C   0  0  2  0  0  0  0  0  0  0  0  0
   -0.5096   -1.0098    0.2599 C   0  0  0  0  0  0  0  0  0  0  0  0
    0.8102   -2.2211   -1.5226 C   0  0  0  0  0  0  0  0  0  0  0  0
    0.4103   -3.3150    0.6789 C   0  0  0  0  0  0  0  0  0  0  0  0
    2.4067   -0.0191   -0.0275 C   0  0  0  0  0  0  0  0  0  0  0  0
    2.1506    2.4291    0.3312 C   0  0  0  0  0  0  0  0  0  0  0  0
    1.0490    2.9610   -0.5761 C   0  0  0  0  0  0  0  0  0  0  0  0
   -0.3168    2.9341    0.0751 C   0  0  0  0  0  0  0  0  0  0  0  0
    1.9370   -1.2763    1.6561 H   0  0  0  0  0  0  0  0  0  0  0  0
   -0.6237   -0.8419    1.3361 H   0  0  0  0  0  0  0  0  0  0  0  0
   -0.3396   -0.0463   -0.2268 H   0  0  0  0  0  0  0  0  0  0  0  0
    1.6196   -2.9199   -1.7571 H   0  0  0  0  0  0  0  0  0  0  0  0
    0.9865   -1.2954   -2.0798 H   0  0  0  0  0  0  0  0  0  0  0  0
   -0.1075   -2.6664   -1.9243 H   0  0  0  0  0  0  0  0  0  0  0  0
    1.2212   -4.0300    0.5013 H   0  0  0  0  0  0  0  0  0  0  0  0
   -0.5120   -3.7754    0.3075 H   0  0  0  0  0  0  0  0  0  0  0  0
    0.3059   -3.1903    1.7627 H   0  0  0  0  0  0  0  0  0  0  0  0
    3.2711   -2.2506   -0.6568 H   0  0  0  0  0  0  0  0  0  0  0  0
    1.3802    0.8768    1.5462 H   0  0  0  0  0  0  0  0  0  0  0  0
    3.1192    2.5099   -0.1736 H   0  0  0  0  0  0  0  0  0  0  0  0
    2.1997    3.0097    1.2586 H   0  0  0  0  0  0  0  0  0  0  0  0
    0.9950    2.3598   -1.4908 H   0  0  0  0  0  0  0  0  0  0  0  0
    1.2767    3.9983   -0.8447 H   0  0  0  0  0  0  0  0  0  0  0  0
   -3.9226   -0.0228    1.9045 H   0  0  0  0  0  0  0  0  0  0  0  0
   -3.4089    1.4426   -0.7288 H   0  0  0  0  0  0  0  0  0  0  0  0
   -2.1526    3.4565   -0.3232 H   0  0  0  0  0  0  0  0  0  0  0  0
  1  2  1  0  0  0  0
  1  5  1  0  0  0  0
  1  6  1  0  0  0  0
  1  7  2  0  0  0  0
  2 13  1  0  0  0  0
  3 12  1  0  0  0  0
  3 29  1  0  0  0  0
  4 16  2  0  0  0  0
  5 35  1  0  0  0  0
  6 36  1  0  0  0  0
  8 19  1  0  0  0  0
  8 37  1  0  0  0  0
  9 19  2  0  0  0  0
 10 16  1  0  0  0  0
 10 17  1  0  0  0  0
 10 30  1  0  0  0  0
 11 12  1  0  0  0  0
 11 13  1  0  0  0  0
 11 14  1  0  0  0  0
 11 15  1  0  0  0  0
 12 16  1  0  0  0  0
 12 20  1  0  0  0  0
 13 21  1  0  0  0  0
 13 22  1  0  0  0  0
 14 23  1  0  0  0  0
 14 24  1  0  0  0  0
 14 25  1  0  0  0  0
 15 26  1  0  0  0  0
 15 27  1  0  0  0  0
 15 28  1  0  0  0  0
 17 18  1  0  0  0  0
 17 31  1  0  0  0  0
 17 32  1  0  0  0  0
 18 19  1  0  0  0  0
 18 33  1  0  0  0  0
 18 34  1  0  0  0  0
M  END
> <PUBCHEM_COMPOUND_CID>
41635

> <PUBCHEM_CONFORMER_RMSD>
0.8

> <PUBCHEM_CONFORMER_DIVERSEORDER>
1
96
87
43
132
12
72
138
10
83
35
56
50
131
108
40
107
71
80
139
11
21
99
85
101
18
2
37
76
36
51
130
126
20
48
41
91
70
122
67
17
111
62
136
68
90
15
94
118
57
38
30
133
65
14
127
116
46
128
49
113
88
8
110
78
112
103
100
61
124
45
135
60
4
54
86
19
24
104
140
79
123
5
93
29
22
98
97
33
134
105
28
55
129
32
120
69
6
34
137
47
44
141
89
39
58
66
42
7
27
31
26
53
125
9
102
73
115
77
106
81
63
109
64
3
16
121
23
75
119
52
13
59
114
25
74
117
84
95
82
92

> <PUBCHEM_MMFF94_PARTIAL_CHARGES>
21
1 1.51
10 -0.73
12 0.34
13 0.28
16 0.57
17 0.3
18 0.06
19 0.66
2 -0.55
29 0.4
3 -0.68
30 0.37
35 0.5
36 0.5
37 0.5
4 -0.57
5 -0.77
6 -0.77
7 -0.7
8 -0.65
9 -0.57

> <PUBCHEM_EFFECTIVE_ROTOR_COUNT>
9

> <PUBCHEM_PHARMACOPHORE_FEATURES>
12
1 10 donor
1 3 acceptor
1 3 donor
1 4 acceptor
1 5 acceptor
1 6 acceptor
1 7 acceptor
1 8 acceptor
1 9 acceptor
3 11 14 15 hydrophobe
3 8 9 19 anion
4 1 5 6 7 anion

> <PUBCHEM_HEAVY_ATOM_COUNT>
19

> <PUBCHEM_ATOM_DEF_STEREO_COUNT>
1

> <PUBCHEM_ATOM_UDEF_STEREO_COUNT>
0

> <PUBCHEM_BOND_DEF_STEREO_COUNT>
0

> <PUBCHEM_BOND_UDEF_STEREO_COUNT>
0

> <PUBCHEM_ISOTOPIC_ATOM_COUNT>
0

> <PUBCHEM_COMPONENT_COUNT>
1

> <PUBCHEM_CACTVS_TAUTO_COUNT>
2

> <PUBCHEM_CONFORMER_ID>
0000A2A300000001

> <PUBCHEM_MMFF94_ENERGY>
-2.9459

> <PUBCHEM_FEATURE_SELFOVERLAP>
60.994

> <PUBCHEM_SHAPE_FINGERPRINT>
104564 63 18337100293378465988
10967382 1 18267026054897038744
12596599 1 17822279172429979287
1420 336 17401772316033556675
14251717 144 18193282897171100367
16945 1 18198908002642896986
18219364 16 17981883047562005331
20304884 271 17474110899674809742
20905425 154 18336831995181883308
21160774 45 17619349148863727060
21524375 3 17975978665609972990
2334 1 18192434073666936544
238 59 17907337331798880341
2748010 2 17976246946884643042
3014063 31 18339089306045725509
3060560 45 18113333081293583422
474 4 18193557766451439811
5939293 188 18409172107826225132
6438718 38 17320444683558781061
81228 2 17976533137677409739

> <PUBCHEM_SHAPE_MULTIPOLES>
342.93
5.02
4.61
1.09
4.51
1.73
0.05
-0.1
0.25
-1.85
0.11
0.16
-0.13
0.03

> <PUBCHEM_SHAPE_SELFOVERLAP>
654.619

> <PUBCHEM_SHAPE_VOLUME>
211.6

> <PUBCHEM_COORDINATE_TYPE>
2
5
10

$$$$

