73266
  -OEChem-07051213052D

 12 12  0     0  0  0  0  0  0999 V2000
    2.8660   -0.9400    0.0000 O   0  0  0  0  0  0  0  0  0  0  0  0
    6.3301   -0.9400    0.0000 O   0  5  0  0  0  0  0  0  0  0  0  0
    4.5981   -0.9400    0.0000 N   0  0  0  0  0  0  0  0  0  0  0  0
    5.4641    0.5600    0.0000 N   0  0  0  0  0  0  0  0  0  0  0  0
    2.8660    1.0600    0.0000 N   0  3  0  0  0  0  0  0  0  0  0  0
    2.0000    1.5600    0.0000 N   0  0  0  0  0  0  0  0  0  0  0  0
    3.7320    0.5600    0.0000 C   0  0  0  0  0  0  0  0  0  0  0  0
    3.7320   -0.4400    0.0000 C   0  0  0  0  0  0  0  0  0  0  0  0
    4.5981    1.0600    0.0000 C   0  0  0  0  0  0  0  0  0  0  0  0
    5.4641   -0.4400    0.0000 C   0  0  0  0  0  0  0  0  0  0  0  0
    4.5981   -1.5600    0.0000 H   0  0  0  0  0  0  0  0  0  0  0  0
    4.5981    1.6800    0.0000 H   0  0  0  0  0  0  0  0  0  0  0  0
  1  8  2  0  0  0  0
  2 10  1  0  0  0  0
  3  8  1  0  0  0  0
  3 10  1  0  0  0  0
  3 11  1  0  0  0  0
  4  9  1  0  0  0  0
  4 10  2  0  0  0  0
  5  6  3  0  0  0  0
  5  7  1  0  0  0  0
  7  8  1  0  0  0  0
  7  9  2  0  0  0  0
  9 12  1  0  0  0  0
M  CHG  2   2  -1   5   1
M  END
> <PUBCHEM_COMPOUND_CID>
73266

> <PUBCHEM_COMPOUND_CANONICALIZED>
1

> <PUBCHEM_CACTVS_COMPLEXITY>
281

> <PUBCHEM_CACTVS_HBOND_ACCEPTOR>
4

> <PUBCHEM_CACTVS_HBOND_DONOR>
1

> <PUBCHEM_CACTVS_ROTATABLE_BOND>
0

> <PUBCHEM_CACTVS_SUBSKEYS>
AAADcQBjsAAAAAAAAAAAAAAAAAAAAAAAAAAgAAAAAAAAAAAAAAAAHgAYAAAACAjBgAQBAALAAACoAAVWdACAAAEAAgABAACAAEEAQAAACAAQAAAAAAAAAMAAAAAAAAAAAAAAAAAAAAAAAAAAAAAAAAAAAA==

> <PUBCHEM_IUPAC_OPENEYE_NAME>
5-diazonio-6-oxo-1H-pyrimidin-2-olate

> <PUBCHEM_IUPAC_CAS_NAME>
5-diazonio-6-oxo-1H-pyrimidin-2-olate

> <PUBCHEM_IUPAC_NAME>
5-diazonio-6-oxo-1H-pyrimidin-2-olate

> <PUBCHEM_IUPAC_SYSTEMATIC_NAME>
5-diazonio-6-oxidanylidene-1H-pyrimidin-2-olate

> <PUBCHEM_IUPAC_TRADITIONAL_NAME>
5-diazonio-6-keto-1H-pyrimidin-2-olate

> <PUBCHEM_IUPAC_INCHI>
InChI=1S/C4H2N4O2/c5-8-2-1-6-4(10)7-3(2)9/h1H,(H-,6,7,9,10)

> <PUBCHEM_IUPAC_INCHIKEY>
XFLJNCDBYCPPTE-UHFFFAOYSA-N

> <PUBCHEM_XLOGP3_AA>
0.9

> <PUBCHEM_EXACT_MASS>
138.017775

> <PUBCHEM_MOLECULAR_FORMULA>
C4H2N4O2

> <PUBCHEM_MOLECULAR_WEIGHT>
138.08428

> <PUBCHEM_OPENEYE_CAN_SMILES>
C1=C(C(=O)NC(=N1)[O-])[N+]#N

> <PUBCHEM_OPENEYE_ISO_SMILES>
C1=C(C(=O)NC(=N1)[O-])[N+]#N

> <PUBCHEM_CACTVS_TPSA>
92.7

> <PUBCHEM_MONOISOTOPIC_WEIGHT>
138.017775

> <PUBCHEM_TOTAL_CHARGE>
0

> <PUBCHEM_HEAVY_ATOM_COUNT>
10

> <PUBCHEM_ATOM_DEF_STEREO_COUNT>
0

> <PUBCHEM_ATOM_UDEF_STEREO_COUNT>
0

> <PUBCHEM_BOND_DEF_STEREO_COUNT>
0

> <PUBCHEM_BOND_UDEF_STEREO_COUNT>
0

> <PUBCHEM_ISOTOPIC_ATOM_COUNT>
0

> <PUBCHEM_COMPONENT_COUNT>
1

> <PUBCHEM_CACTVS_TAUTO_COUNT>
3

> <PUBCHEM_COORDINATE_TYPE>
1
5
255

> <PUBCHEM_BONDANNOTATIONS>
3  10  8
3  8  8
4  10  8
4  9  8
7  8  8
7  9  8

$$$$

