159962
  -OEChem-07051213002D

 55 59  0     1  0  0  0  0  0999 V2000
    6.7059    3.0374    0.0000 O   0  0  0  0  0  0  0  0  0  0  0  0
    8.0895    1.9234    0.0000 O   0  0  0  0  0  0  0  0  0  0  0  0
    2.8718    0.4657    0.0000 O   0  0  0  0  0  0  0  0  0  0  0  0
    2.9562   -1.7807    0.0000 O   0  0  0  0  0  0  0  0  0  0  0  0
    4.4081   -2.6190    0.0000 O   0  0  0  0  0  0  0  0  0  0  0  0
    9.8381    0.4626    0.0000 O   0  0  0  0  0  0  0  0  0  0  0  0
    8.1060   -2.5374    0.0000 O   0  0  0  0  0  0  0  0  0  0  0  0
    9.8381   -1.5374    0.0000 O   0  0  0  0  0  0  0  0  0  0  0  0
    6.3740    1.4626    0.0000 C   0  0  1  0  0  0  0  0  0  0  0  0
    5.5080    1.9626    0.0000 C   0  0  1  0  0  0  0  0  0  0  0  0
    6.3740    0.4626    0.0000 C   0  0  1  0  0  0  0  0  0  0  0  0
    4.6419    1.4626    0.0000 C   0  0  0  0  0  0  0  0  0  0  0  0
    5.5080   -0.0374    0.0000 C   0  0  0  0  0  0  0  0  0  0  0  0
    5.7172    2.9344    0.0000 C   0  0  0  0  0  0  0  0  0  0  0  0
    4.6419    0.4626    0.0000 C   0  0  0  0  0  0  0  0  0  0  0  0
    7.1110    2.1296    0.0000 C   0  0  0  0  0  0  0  0  0  0  0  0
    7.2400   -0.0374    0.0000 C   0  0  0  0  0  0  0  0  0  0  0  0
    3.7319   -0.0443    0.0000 C   0  0  0  0  0  0  0  0  0  0  0  0
    5.5240   -1.0789    0.0000 C   0  0  0  0  0  0  0  0  0  0  0  0
    3.7239   -1.0859    0.0000 C   0  0  0  0  0  0  0  0  0  0  0  0
    4.6260   -1.6067    0.0000 C   0  0  0  0  0  0  0  0  0  0  0  0
    7.2400   -1.0374    0.0000 C   0  0  0  0  0  0  0  0  0  0  0  0
    8.1060    0.4626    0.0000 C   0  0  0  0  0  0  0  0  0  0  0  0
    8.9721   -0.0374    0.0000 C   0  0  0  0  0  0  0  0  0  0  0  0
    8.1060   -1.5374    0.0000 C   0  0  0  0  0  0  0  0  0  0  0  0
    3.3782   -2.7263    0.0000 C   0  0  0  0  0  0  0  0  0  0  0  0
    8.9721   -1.0374    0.0000 C   0  0  0  0  0  0  0  0  0  0  0  0
    2.0000   -0.0243    0.0000 C   0  0  0  0  0  0  0  0  0  0  0  0
    9.8381    1.4626    0.0000 C   0  0  0  0  0  0  0  0  0  0  0  0
    8.9721   -3.0374    0.0000 C   0  0  0  0  0  0  0  0  0  0  0  0
   10.7041   -1.0374    0.0000 C   0  0  0  0  0  0  0  0  0  0  0  0
    7.1510    1.1178    0.0000 H   0  0  0  0  0  0  0  0  0  0  0  0
    4.8210    2.4631    0.0000 H   0  0  0  0  0  0  0  0  0  0  0  0
    6.3740   -0.1574    0.0000 H   0  0  0  0  0  0  0  0  0  0  0  0
    4.4299    2.0452    0.0000 H   0  0  0  0  0  0  0  0  0  0  0  0
    4.0314    1.3549    0.0000 H   0  0  0  0  0  0  0  0  0  0  0  0
    5.7181    3.5544    0.0000 H   0  0  0  0  0  0  0  0  0  0  0  0
    5.1007    3.0004    0.0000 H   0  0  0  0  0  0  0  0  0  0  0  0
    6.0645   -1.3827    0.0000 H   0  0  0  0  0  0  0  0  0  0  0  0
    6.7031   -1.3474    0.0000 H   0  0  0  0  0  0  0  0  0  0  0  0
    8.1060    1.0826    0.0000 H   0  0  0  0  0  0  0  0  0  0  0  0
    2.7886   -2.9181    0.0000 H   0  0  0  0  0  0  0  0  0  0  0  0
    3.5069   -3.3328    0.0000 H   0  0  0  0  0  0  0  0  0  0  0  0
    1.6962    0.5162    0.0000 H   0  0  0  0  0  0  0  0  0  0  0  0
    1.4595   -0.3280    0.0000 H   0  0  0  0  0  0  0  0  0  0  0  0
    2.3038   -0.5647    0.0000 H   0  0  0  0  0  0  0  0  0  0  0  0
   10.4581    1.4626    0.0000 H   0  0  0  0  0  0  0  0  0  0  0  0
    9.8381    2.0826    0.0000 H   0  0  0  0  0  0  0  0  0  0  0  0
    9.2181    1.4626    0.0000 H   0  0  0  0  0  0  0  0  0  0  0  0
    8.6621   -3.5744    0.0000 H   0  0  0  0  0  0  0  0  0  0  0  0
    9.5090   -3.3474    0.0000 H   0  0  0  0  0  0  0  0  0  0  0  0
    9.2821   -2.5005    0.0000 H   0  0  0  0  0  0  0  0  0  0  0  0
   11.0141   -1.5744    0.0000 H   0  0  0  0  0  0  0  0  0  0  0  0
   11.2410   -0.7274    0.0000 H   0  0  0  0  0  0  0  0  0  0  0  0
   10.3941   -0.5005    0.0000 H   0  0  0  0  0  0  0  0  0  0  0  0
  1 14  1  0  0  0  0
  1 16  1  0  0  0  0
  2 16  2  0  0  0  0
  3 18  1  0  0  0  0
  3 28  1  0  0  0  0
  4 20  1  0  0  0  0
  4 26  1  0  0  0  0
  5 21  1  0  0  0  0
  5 26  1  0  0  0  0
  6 24  1  0  0  0  0
  6 29  1  0  0  0  0
  7 25  1  0  0  0  0
  7 30  1  0  0  0  0
  8 27  1  0  0  0  0
  8 31  1  0  0  0  0
  9 10  1  0  0  0  0
  9 11  1  0  0  0  0
  9 16  1  0  0  0  0
  9 32  1  1  0  0  0
 10 12  1  0  0  0  0
 10 14  1  0  0  0  0
 10 33  1  6  0  0  0
 11 13  1  0  0  0  0
 11 17  1  6  0  0  0
 11 34  1  0  0  0  0
 12 15  1  0  0  0  0
 12 35  1  0  0  0  0
 12 36  1  0  0  0  0
 13 15  1  0  0  0  0
 13 19  2  0  0  0  0
 14 37  1  0  0  0  0
 14 38  1  0  0  0  0
 15 18  2  0  0  0  0
 17 22  2  0  0  0  0
 17 23  1  0  0  0  0
 18 20  1  0  0  0  0
 19 21  1  0  0  0  0
 19 39  1  0  0  0  0
 20 21  2  0  0  0  0
 22 25  1  0  0  0  0
 22 40  1  0  0  0  0
 23 24  2  0  0  0  0
 23 41  1  0  0  0  0
 24 27  1  0  0  0  0
 25 27  2  0  0  0  0
 26 42  1  0  0  0  0
 26 43  1  0  0  0  0
 28 44  1  0  0  0  0
 28 45  1  0  0  0  0
 28 46  1  0  0  0  0
 29 47  1  0  0  0  0
 29 48  1  0  0  0  0
 29 49  1  0  0  0  0
 30 50  1  0  0  0  0
 30 51  1  0  0  0  0
 30 52  1  0  0  0  0
 31 53  1  0  0  0  0
 31 54  1  0  0  0  0
 31 55  1  0  0  0  0
M  END
> <PUBCHEM_COMPOUND_CID>
159962

> <PUBCHEM_COMPOUND_CANONICALIZED>
1

> <PUBCHEM_CACTVS_COMPLEXITY>
644

> <PUBCHEM_CACTVS_HBOND_ACCEPTOR>
8

> <PUBCHEM_CACTVS_HBOND_DONOR>
0

> <PUBCHEM_CACTVS_ROTATABLE_BOND>
5

> <PUBCHEM_CACTVS_SUBSKEYS>
AAADceB4PAAAAAAAAAAAAAAAAAAAASJAAAAwYMAAAAAAAEjBQAAAGgAAAAAADQSgmAMyDoAABACIAiDSCAACCAAgIAAAiAEGiIgdJzKEMRqiMCIlwBUOqAeK6PyOoAABCAAYQADAAAYQADCAAAAAAAAAAA==

> <PUBCHEM_IUPAC_OPENEYE_NAME>
(5aR,8aR,9R)-4-methoxy-9-(3,4,5-trimethoxyphenyl)-5a,6,8a,9-tetrahydro-5H-isobenzofuro[6,5-f][1,3]benzodioxol-8-one

> <PUBCHEM_IUPAC_CAS_NAME>
(5aR,8aR,9R)-4-methoxy-9-(3,4,5-trimethoxyphenyl)-5a,6,8a,9-tetrahydro-5H-isobenzofuro[6,5-f][1,3]benzodioxol-8-one

> <PUBCHEM_IUPAC_NAME>
(5aR,8aR,9R)-4-methoxy-9-(3,4,5-trimethoxyphenyl)-5a,6,8a,9-tetrahydro-5H-[2]benzofuro[6,5-f][1,3]benzodioxol-8-one

> <PUBCHEM_IUPAC_SYSTEMATIC_NAME>
(5aR,8aR,9R)-4-methoxy-9-(3,4,5-trimethoxyphenyl)-5a,6,8a,9-tetrahydro-5H-[2]benzofuro[6,5-f][1,3]benzodioxol-8-one

> <PUBCHEM_IUPAC_TRADITIONAL_NAME>
(5aR,8aR,9R)-4-methoxy-9-(3,4,5-trimethoxyphenyl)-5a,6,8a,9-tetrahydro-5H-isobenzofuro[6,5-f][1,3]benzodioxol-8-one

> <PUBCHEM_IUPAC_INCHI>
InChI=1S/C23H24O8/c1-25-15-6-11(7-16(26-2)21(15)28-4)18-13-8-17-22(31-10-30-17)20(27-3)14(13)5-12-9-29-23(24)19(12)18/h6-8,12,18-19H,5,9-10H2,1-4H3/t12-,18+,19-/m0/s1

> <PUBCHEM_IUPAC_INCHIKEY>
BFKORKXLSJUYSS-RQUSPXKASA-N

> <PUBCHEM_XLOGP3_AA>
3.3

> <PUBCHEM_EXACT_MASS>
428.147118

> <PUBCHEM_MOLECULAR_FORMULA>
C23H24O8

> <PUBCHEM_MOLECULAR_WEIGHT>
428.43186

> <PUBCHEM_OPENEYE_CAN_SMILES>
COC1=CC(=CC(=C1OC)OC)C2C3C(CC4=C(C5=C(C=C24)OCO5)OC)COC3=O

> <PUBCHEM_OPENEYE_ISO_SMILES>
COC1=CC(=CC(=C1OC)OC)[C@H]2[C@@H]3[C@@H](CC4=C(C5=C(C=C24)OCO5)OC)COC3=O

> <PUBCHEM_CACTVS_TPSA>
81.7

> <PUBCHEM_MONOISOTOPIC_WEIGHT>
428.147118

> <PUBCHEM_TOTAL_CHARGE>
0

> <PUBCHEM_HEAVY_ATOM_COUNT>
31

> <PUBCHEM_ATOM_DEF_STEREO_COUNT>
3

> <PUBCHEM_ATOM_UDEF_STEREO_COUNT>
0

> <PUBCHEM_BOND_DEF_STEREO_COUNT>
0

> <PUBCHEM_BOND_UDEF_STEREO_COUNT>
0

> <PUBCHEM_ISOTOPIC_ATOM_COUNT>
0

> <PUBCHEM_COMPONENT_COUNT>
1

> <PUBCHEM_CACTVS_TAUTO_COUNT>
2

> <PUBCHEM_COORDINATE_TYPE>
1
5
255

> <PUBCHEM_BONDANNOTATIONS>
10  33  6
11  17  6
13  15  8
13  19  8
15  18  8
17  22  8
17  23  8
18  20  8
19  21  8
20  21  8
22  25  8
23  24  8
24  27  8
25  27  8
9  32  5

$$$$

