8772
  -OEChem-06261203052D

 37 33  0     1  0  0  0  0  0999 V2000
    2.8660   -3.0000    0.0000 Na  0  3  0  0  0  0  0  0  0  0  0  0
    8.9282    2.5000    0.0000 Na  0  3  0  0  0  0  0  0  0  0  0  0
    2.0000    2.5000    0.0000 Na  0  3  0  0  0  0  0  0  0  0  0  0
    6.3301   -2.0000    0.0000 O   0  0  0  0  0  0  0  0  0  0  0  0
    2.8660   -2.0000    0.0000 O   0  5  0  0  0  0  0  0  0  0  0  0
    4.5981   -2.0000    0.0000 O   0  0  0  0  0  0  0  0  0  0  0  0
    8.0622    3.0000    0.0000 O   0  5  0  0  0  0  0  0  0  0  0  0
    2.8660    3.0000    0.0000 O   0  5  0  0  0  0  0  0  0  0  0  0
    3.7320    1.5000    0.0000 O   0  0  0  0  0  0  0  0  0  0  0  0
    7.1962    1.5000    0.0000 O   0  0  0  0  0  0  0  0  0  0  0  0
    4.5981    0.0000    0.0000 N   0  0  3  0  0  0  0  0  0  0  0  0
    5.4641    2.5000    0.0000 N   0  0  0  0  0  0  0  0  0  0  0  0
    4.5981    1.0000    0.0000 C   0  0  0  0  0  0  0  0  0  0  0  0
    5.4641    1.5000    0.0000 C   0  0  0  0  0  0  0  0  0  0  0  0
    5.4641   -0.5000    0.0000 C   0  0  0  0  0  0  0  0  0  0  0  0
    3.7320   -0.5000    0.0000 C   0  0  0  0  0  0  0  0  0  0  0  0
    6.3301    3.0000    0.0000 C   0  0  0  0  0  0  0  0  0  0  0  0
    4.5981    3.0000    0.0000 C   0  0  0  0  0  0  0  0  0  0  0  0
    5.4641   -1.5000    0.0000 C   0  0  0  0  0  0  0  0  0  0  0  0
    3.7320   -1.5000    0.0000 C   0  0  0  0  0  0  0  0  0  0  0  0
    7.1962    2.5000    0.0000 C   0  0  0  0  0  0  0  0  0  0  0  0
    3.7320    2.5000    0.0000 C   0  0  0  0  0  0  0  0  0  0  0  0
    4.3860    1.5826    0.0000 H   0  0  0  0  0  0  0  0  0  0  0  0
    3.9875    0.8923    0.0000 H   0  0  0  0  0  0  0  0  0  0  0  0
    5.6762    0.9174    0.0000 H   0  0  0  0  0  0  0  0  0  0  0  0
    6.0747    1.6077    0.0000 H   0  0  0  0  0  0  0  0  0  0  0  0
    6.0747   -0.6077    0.0000 H   0  0  0  0  0  0  0  0  0  0  0  0
    5.6762    0.0826    0.0000 H   0  0  0  0  0  0  0  0  0  0  0  0
    3.5200    0.0826    0.0000 H   0  0  0  0  0  0  0  0  0  0  0  0
    3.1215   -0.6077    0.0000 H   0  0  0  0  0  0  0  0  0  0  0  0
    6.7287    3.4750    0.0000 H   0  0  0  0  0  0  0  0  0  0  0  0
    5.9316    3.4750    0.0000 H   0  0  0  0  0  0  0  0  0  0  0  0
    4.9966    3.4750    0.0000 H   0  0  0  0  0  0  0  0  0  0  0  0
    4.1996    3.4750    0.0000 H   0  0  0  0  0  0  0  0  0  0  0  0
    4.8535   -1.3923    0.0000 H   0  0  0  0  0  0  0  0  0  0  0  0
    5.2520   -2.0826    0.0000 H   0  0  0  0  0  0  0  0  0  0  0  0
    6.3301   -2.6200    0.0000 H   0  0  0  0  0  0  0  0  0  0  0  0
  4 19  1  0  0  0  0
  4 37  1  0  0  0  0
  5 20  1  0  0  0  0
  6 20  2  0  0  0  0
  7 21  1  0  0  0  0
  8 22  1  0  0  0  0
  9 22  2  0  0  0  0
 10 21  2  0  0  0  0
 11 13  1  0  0  0  0
 11 15  1  0  0  0  0
 11 16  1  0  0  0  0
 12 14  1  0  0  0  0
 12 17  1  0  0  0  0
 12 18  1  0  0  0  0
 13 14  1  0  0  0  0
 13 23  1  0  0  0  0
 13 24  1  0  0  0  0
 14 25  1  0  0  0  0
 14 26  1  0  0  0  0
 15 19  1  0  0  0  0
 15 27  1  0  0  0  0
 15 28  1  0  0  0  0
 16 20  1  0  0  0  0
 16 29  1  0  0  0  0
 16 30  1  0  0  0  0
 17 21  1  0  0  0  0
 17 31  1  0  0  0  0
 17 32  1  0  0  0  0
 18 22  1  0  0  0  0
 18 33  1  0  0  0  0
 18 34  1  0  0  0  0
 19 35  1  0  0  0  0
 19 36  1  0  0  0  0
M  CHG  6   1   1   2   1   3   1   5  -1   7  -1   8  -1
M  END
> <PUBCHEM_COMPOUND_CID>
8772

> <PUBCHEM_COMPOUND_CANONICALIZED>
1

> <PUBCHEM_CACTVS_COMPLEXITY>
289

> <PUBCHEM_CACTVS_HBOND_ACCEPTOR>
9

> <PUBCHEM_CACTVS_HBOND_DONOR>
1

> <PUBCHEM_CACTVS_ROTATABLE_BOND>
8

> <PUBCHEM_CACTVS_SUBSKEYS>
AAADccBzODAAAAAAAAAAAAAAAAAAAAAAAAAAAAAAAAAAAAAAAAAAHgAACAAAAADhgAYACAMAAgAIAACQCAAAAAAAAAAAAACIAAACUAAAACAQAAAAAACQAAAAAAAAAAAAAAAAAAAAAAAAAAAAAAAAAAAAAA==

> <PUBCHEM_IUPAC_OPENEYE_NAME>
trisodium 2-[2-[bis(carboxylatomethyl)amino]ethyl-(2-hydroxyethyl)amino]acetate

> <PUBCHEM_IUPAC_CAS_NAME>
trisodium 2-[2-[bis(carboxylatomethyl)amino]ethyl-(2-hydroxyethyl)amino]acetate

> <PUBCHEM_IUPAC_NAME>
trisodium 2-[2-[bis(carboxylatomethyl)amino]ethyl-(2-hydroxyethyl)amino]acetate

> <PUBCHEM_IUPAC_SYSTEMATIC_NAME>
trisodium 2-[2-[bis(2-oxidanidyl-2-oxidanylidene-ethyl)amino]ethyl-(2-hydroxyethyl)amino]ethanoate

> <PUBCHEM_IUPAC_TRADITIONAL_NAME>
trisodium 2-[2-[bis(carboxylatomethyl)amino]ethyl-(2-hydroxyethyl)amino]acetate

> <PUBCHEM_IUPAC_INCHI>
InChI=1S/C10H18N2O7.3Na/c13-4-3-11(5-8(14)15)1-2-12(6-9(16)17)7-10(18)19;;;/h13H,1-7H2,(H,14,15)(H,16,17)(H,18,19);;;/q;3*+1/p-3

> <PUBCHEM_IUPAC_INCHIKEY>
WHNXAQZPEBNFBC-UHFFFAOYSA-K

> <PUBCHEM_EXACT_MASS>
344.057234

> <PUBCHEM_MOLECULAR_FORMULA>
C10H15N2Na3O7

> <PUBCHEM_MOLECULAR_WEIGHT>
344.204608

> <PUBCHEM_OPENEYE_CAN_SMILES>
C(CN(CC(=O)[O-])CC(=O)[O-])N(CCO)CC(=O)[O-].[Na+].[Na+].[Na+]

> <PUBCHEM_OPENEYE_ISO_SMILES>
C(CN(CC(=O)[O-])CC(=O)[O-])N(CCO)CC(=O)[O-].[Na+].[Na+].[Na+]

> <PUBCHEM_CACTVS_TPSA>
147

> <PUBCHEM_MONOISOTOPIC_WEIGHT>
344.057234

> <PUBCHEM_TOTAL_CHARGE>
0

> <PUBCHEM_HEAVY_ATOM_COUNT>
22

> <PUBCHEM_ATOM_DEF_STEREO_COUNT>
0

> <PUBCHEM_ATOM_UDEF_STEREO_COUNT>
0

> <PUBCHEM_BOND_DEF_STEREO_COUNT>
0

> <PUBCHEM_BOND_UDEF_STEREO_COUNT>
0

> <PUBCHEM_ISOTOPIC_ATOM_COUNT>
0

> <PUBCHEM_COMPONENT_COUNT>
4

> <PUBCHEM_CACTVS_TAUTO_COUNT>
1

> <PUBCHEM_COORDINATE_TYPE>
1
5
255

$$$$

