582790
  -OEChem-06241222442D

 29 30  0     1  0  0  0  0  0999 V2000
    6.9331   -0.6650    0.0000 S   0  0  0  0  0  0  0  0  0  0  0  0
    5.1514   -1.6754    0.0000 O   0  0  0  0  0  0  0  0  0  0  0  0
    7.4364    0.1991    0.0000 O   0  0  0  0  0  0  0  0  0  0  0  0
    6.4298   -1.5291    0.0000 O   0  0  0  0  0  0  0  0  0  0  0  0
    6.0690   -0.1616    0.0000 C   0  0  3  0  0  0  0  0  0  0  0  0
    5.1629   -0.6755    0.0000 C   0  0  3  0  0  0  0  0  0  0  0  0
    6.0690    0.8800    0.0000 C   0  0  0  0  0  0  0  0  0  0  0  0
    5.1629    1.3938    0.0000 C   0  0  0  0  0  0  0  0  0  0  0  0
    4.2690   -0.1408    0.0000 C   0  5  3  0  0  0  0  0  0  0  0  0
    4.2690    0.8592    0.0000 C   0  5  3  0  0  0  0  0  0  0  0  0
    3.4030   -0.6408    0.0000 C   0  5  3  0  0  0  0  0  0  0  0  0
    7.7972   -1.1683    0.0000 C   0  0  0  0  0  0  0  0  0  0  0  0
    3.4030    1.3592    0.0000 C   0  5  3  0  0  0  0  0  0  0  0  0
    2.5369   -0.1408    0.0000 C   0  5  3  0  0  0  0  0  0  0  0  0
    2.5369    0.8592    0.0000 C   0  5  3  0  0  0  0  0  0  0  0  0
    6.6065    0.1473    0.0000 H   0  0  0  0  0  0  0  0  0  0  0  0
    5.6969   -0.9906    0.0000 H   0  0  0  0  0  0  0  0  0  0  0  0
    6.6799    0.7739    0.0000 H   0  0  0  0  0  0  0  0  0  0  0  0
    6.2781    1.4637    0.0000 H   0  0  0  0  0  0  0  0  0  0  0  0
    5.5566    1.8729    0.0000 H   0  0  0  0  0  0  0  0  0  0  0  0
    4.7583    1.8636    0.0000 H   0  0  0  0  0  0  0  0  0  0  0  0
    3.4030   -1.2608    0.0000 H   0  0  0  0  0  0  0  0  0  0  0  0
    7.4851   -1.7040    0.0000 H   0  0  0  0  0  0  0  0  0  0  0  0
    8.3329   -1.4804    0.0000 H   0  0  0  0  0  0  0  0  0  0  0  0
    8.1092   -0.6326    0.0000 H   0  0  0  0  0  0  0  0  0  0  0  0
    3.4030    1.9792    0.0000 H   0  0  0  0  0  0  0  0  0  0  0  0
    4.6109   -1.9792    0.0000 H   0  0  0  0  0  0  0  0  0  0  0  0
    2.0000   -0.4508    0.0000 H   0  0  0  0  0  0  0  0  0  0  0  0
    2.0000    1.1692    0.0000 H   0  0  0  0  0  0  0  0  0  0  0  0
  1  3  2  0  0  0  0
  1  4  2  0  0  0  0
  1  5  1  0  0  0  0
  1 12  1  0  0  0  0
  2  6  1  0  0  0  0
  2 27  1  0  0  0  0
  5  6  1  0  0  0  0
  5  7  1  0  0  0  0
  5 16  1  0  0  0  0
  6  9  1  0  0  0  0
  6 17  1  0  0  0  0
  7  8  1  0  0  0  0
  7 18  1  0  0  0  0
  7 19  1  0  0  0  0
  8 10  1  0  0  0  0
  8 20  1  0  0  0  0
  8 21  1  0  0  0  0
  9 10  1  0  0  0  0
  9 11  1  0  0  0  0
 10 13  1  0  0  0  0
 11 14  1  0  0  0  0
 11 22  1  0  0  0  0
 12 23  1  0  0  0  0
 12 24  1  0  0  0  0
 12 25  1  0  0  0  0
 13 15  1  0  0  0  0
 13 26  1  0  0  0  0
 14 15  1  0  0  0  0
 14 28  1  0  0  0  0
 15 29  1  0  0  0  0
M  CHG  6   9  -1  10  -1  11  -1  13  -1  14  -1  15  -1
M  END
> <PUBCHEM_COMPOUND_CID>
582790

> <PUBCHEM_COMPOUND_CANONICALIZED>
1

> <PUBCHEM_CACTVS_COMPLEXITY>
317

> <PUBCHEM_CACTVS_HBOND_ACCEPTOR>
9

> <PUBCHEM_CACTVS_HBOND_DONOR>
1

> <PUBCHEM_CACTVS_ROTATABLE_BOND>
1

> <PUBCHEM_CACTVS_SUBSKEYS>
AAADccBwMABAAAAAAAAAAAAAAAAAAAAAAAAwYAAAAAAAAADAAAAAGgQACAAADBSkwAKCAAAAAgoAAAAAAHBAAAAAABAAAAAAAAAAEAIgAAAAQAAEAAAAAAGAwLAOgAAAAAAAAAAgAAMAADBAAAAAAAAAAA==

> <PUBCHEM_IUPAC_OPENEYE_NAME>
2-methylsulfonyldecalin-4a,5,6,7,8,8a-hexaid-1-ol

> <PUBCHEM_IUPAC_CAS_NAME>
2-methylsulfonyl-1,2,3,4,5,6,7,8-octahydronaphthalene-4a,5,6,7,8,8a-hexaid-1-ol

> <PUBCHEM_IUPAC_NAME>
2-methylsulfonyl-1,2,3,4,5,6,7,8-octahydronaphthalene-4a,5,6,7,8,8a-hexaid-1-ol

> <PUBCHEM_IUPAC_SYSTEMATIC_NAME>
2-methylsulfonyl-1,2,3,4,5,6,7,8-octahydronaphthalene-4a,5,6,7,8,8a-hexaid-1-ol

> <PUBCHEM_IUPAC_TRADITIONAL_NAME>
2-mesyldecalin-4a,5,6,7,8,8a-hexaid-1-ol

> <PUBCHEM_IUPAC_INCHI>
InChI=1S/C11H14O3S/c1-15(13,14)10-7-6-8-4-2-3-5-9(8)11(10)12/h2-5,10-12H,6-7H2,1H3/q-6

> <PUBCHEM_IUPAC_INCHIKEY>
OITRYTCBTZXBFK-UHFFFAOYSA-N

> <PUBCHEM_XLOGP3_AA>
2.4

> <PUBCHEM_EXACT_MASS>
226.066365

> <PUBCHEM_MOLECULAR_FORMULA>
C11H14O3S-6

> <PUBCHEM_MOLECULAR_WEIGHT>
226.29206

> <PUBCHEM_OPENEYE_CAN_SMILES>
CS(=O)(=O)C1CC[C-]2[CH-][CH-][CH-][CH-][C-]2C1O

> <PUBCHEM_OPENEYE_ISO_SMILES>
CS(=O)(=O)C1CC[C-]2[CH-][CH-][CH-][CH-][C-]2C1O

> <PUBCHEM_CACTVS_TPSA>
62.8

> <PUBCHEM_MONOISOTOPIC_WEIGHT>
226.066365

> <PUBCHEM_TOTAL_CHARGE>
-6

> <PUBCHEM_HEAVY_ATOM_COUNT>
15

> <PUBCHEM_ATOM_DEF_STEREO_COUNT>
0

> <PUBCHEM_ATOM_UDEF_STEREO_COUNT>
2

> <PUBCHEM_BOND_DEF_STEREO_COUNT>
0

> <PUBCHEM_BOND_UDEF_STEREO_COUNT>
0

> <PUBCHEM_ISOTOPIC_ATOM_COUNT>
0

> <PUBCHEM_COMPONENT_COUNT>
1

> <PUBCHEM_CACTVS_TAUTO_COUNT>
1

> <PUBCHEM_COORDINATE_TYPE>
1
5
255

> <PUBCHEM_BONDANNOTATIONS>
5  1  3
6  2  3

$$$$

