238650
  -OEChem-07051213063D

 49 52  0     1  0  0  0  0  0999 V2000
   -5.4700   -1.3404   -0.4573 Cl  0  0  0  0  0  0  0  0  0  0  0  0
   -4.8632    1.3815    0.4215 O   0  0  0  0  0  0  0  0  0  0  0  0
    5.8532   -0.3102    0.9226 O   0  0  0  0  0  0  0  0  0  0  0  0
   -1.7648   -0.5660    0.4216 C   0  0  2  0  0  0  0  0  0  0  0  0
   -2.4943    0.7410    0.0530 C   0  0  2  0  0  0  0  0  0  0  0  0
   -0.4004   -0.6912   -0.2640 C   0  0  1  0  0  0  0  0  0  0  0  0
    0.4974    0.5052    0.1836 C   0  0  1  0  0  0  0  0  0  0  0  0
    1.9486    0.4464   -0.4325 C   0  0  2  0  0  0  0  0  0  0  0  0
   -1.6426    1.9136    0.5609 C   0  0  0  0  0  0  0  0  0  0  0  0
   -0.2152    1.8716   -0.0143 C   0  0  0  0  0  0  0  0  0  0  0  0
   -3.8133    0.5270    0.8275 C   0  0  2  0  0  0  0  0  0  0  0  0
   -2.8206   -1.6426    0.1778 C   0  0  0  0  0  0  0  0  0  0  0  0
    0.2811   -2.0204    0.0841 C   0  0  0  0  0  0  0  0  0  0  0  0
   -4.1310   -0.9820    0.6600 C   0  0  2  0  0  0  0  0  0  0  0  0
    2.5397   -0.9531   -0.2198 C   0  0  0  0  0  0  0  0  0  0  0  0
    1.6526   -2.1244   -0.5702 C   0  0  0  0  0  0  0  0  0  0  0  0
   -2.7713    0.9284   -1.4590 C   0  0  0  0  0  0  0  0  0  0  0  0
    2.8281    1.5104    0.2868 C   0  0  0  0  0  0  0  0  0  0  0  0
    1.9454    0.7422   -1.9494 C   0  0  0  0  0  0  0  0  0  0  0  0
    4.3206    1.3178    0.0670 C   0  0  0  0  0  0  0  0  0  0  0  0
    3.7851   -1.1824    0.2293 C   0  0  0  0  0  0  0  0  0  0  0  0
    4.7348   -0.0723    0.4707 C   0  0  0  0  0  0  0  0  0  0  0  0
   -1.5754   -0.5666    1.5084 H   0  0  0  0  0  0  0  0  0  0  0  0
   -0.5394   -0.6639   -1.3504 H   0  0  0  0  0  0  0  0  0  0  0  0
    0.6194    0.3948    1.2737 H   0  0  0  0  0  0  0  0  0  0  0  0
   -1.5754    1.8829    1.6563 H   0  0  0  0  0  0  0  0  0  0  0  0
   -2.1126    2.8716    0.3084 H   0  0  0  0  0  0  0  0  0  0  0  0
   -0.2531    2.1295   -1.0771 H   0  0  0  0  0  0  0  0  0  0  0  0
    0.3603    2.6665    0.4730 H   0  0  0  0  0  0  0  0  0  0  0  0
   -3.6445    0.7139    1.8966 H   0  0  0  0  0  0  0  0  0  0  0  0
   -2.8546   -1.9199   -0.8821 H   0  0  0  0  0  0  0  0  0  0  0  0
   -2.6093   -2.5531    0.7488 H   0  0  0  0  0  0  0  0  0  0  0  0
   -0.3344   -2.8612   -0.2560 H   0  0  0  0  0  0  0  0  0  0  0  0
    0.3822   -2.1200    1.1727 H   0  0  0  0  0  0  0  0  0  0  0  0
   -4.4243   -1.3971    1.6305 H   0  0  0  0  0  0  0  0  0  0  0  0
    1.5366   -2.1689   -1.6601 H   0  0  0  0  0  0  0  0  0  0  0  0
    2.1116   -3.0751   -0.2720 H   0  0  0  0  0  0  0  0  0  0  0  0
   -3.3841    0.1267   -1.8788 H   0  0  0  0  0  0  0  0  0  0  0  0
   -3.3029    1.8697   -1.6402 H   0  0  0  0  0  0  0  0  0  0  0  0
   -1.8556    0.9634   -2.0552 H   0  0  0  0  0  0  0  0  0  0  0  0
    2.6378    1.4710    1.3686 H   0  0  0  0  0  0  0  0  0  0  0  0
    2.5575    2.5218   -0.0389 H   0  0  0  0  0  0  0  0  0  0  0  0
    2.9303    0.5629   -2.3965 H   0  0  0  0  0  0  0  0  0  0  0  0
    1.2324    0.1146   -2.4931 H   0  0  0  0  0  0  0  0  0  0  0  0
    1.6880    1.7862   -2.1566 H   0  0  0  0  0  0  0  0  0  0  0  0
    4.8698    2.0374    0.6843 H   0  0  0  0  0  0  0  0  0  0  0  0
    4.6030    1.4800   -0.9778 H   0  0  0  0  0  0  0  0  0  0  0  0
    4.1642   -2.1877    0.3792 H   0  0  0  0  0  0  0  0  0  0  0  0
   -4.5572    2.2970    0.5367 H   0  0  0  0  0  0  0  0  0  0  0  0
  1 14  1  0  0  0  0
  2 11  1  0  0  0  0
  2 49  1  0  0  0  0
  3 22  2  0  0  0  0
  4  5  1  0  0  0  0
  4  6  1  0  0  0  0
  4 12  1  0  0  0  0
  4 23  1  0  0  0  0
  5  9  1  0  0  0  0
  5 11  1  0  0  0  0
  5 17  1  0  0  0  0
  6  7  1  0  0  0  0
  6 13  1  0  0  0  0
  6 24  1  0  0  0  0
  7  8  1  0  0  0  0
  7 10  1  0  0  0  0
  7 25  1  0  0  0  0
  8 15  1  0  0  0  0
  8 18  1  0  0  0  0
  8 19  1  0  0  0  0
  9 10  1  0  0  0  0
  9 26  1  0  0  0  0
  9 27  1  0  0  0  0
 10 28  1  0  0  0  0
 10 29  1  0  0  0  0
 11 14  1  0  0  0  0
 11 30  1  0  0  0  0
 12 14  1  0  0  0  0
 12 31  1  0  0  0  0
 12 32  1  0  0  0  0
 13 16  1  0  0  0  0
 13 33  1  0  0  0  0
 13 34  1  0  0  0  0
 14 35  1  0  0  0  0
 15 16  1  0  0  0  0
 15 21  2  0  0  0  0
 16 36  1  0  0  0  0
 16 37  1  0  0  0  0
 17 38  1  0  0  0  0
 17 39  1  0  0  0  0
 17 40  1  0  0  0  0
 18 20  1  0  0  0  0
 18 41  1  0  0  0  0
 18 42  1  0  0  0  0
 19 43  1  0  0  0  0
 19 44  1  0  0  0  0
 19 45  1  0  0  0  0
 20 22  1  0  0  0  0
 20 46  1  0  0  0  0
 20 47  1  0  0  0  0
 21 22  1  0  0  0  0
 21 48  1  0  0  0  0
M  END
> <PUBCHEM_COMPOUND_CID>
238650

> <PUBCHEM_CONFORMER_RMSD>
0.6

> <PUBCHEM_CONFORMER_DIVERSEORDER>
1

> <PUBCHEM_MMFF94_PARTIAL_CHARGES>
13
1 -0.29
11 0.28
14 0.29
15 -0.28
16 0.14
2 -0.68
20 0.06
21 -0.14
22 0.49
3 -0.57
48 0.15
49 0.4
8 0.14

> <PUBCHEM_EFFECTIVE_ROTOR_COUNT>
1.8

> <PUBCHEM_PHARMACOPHORE_FEATURES>
7
1 2 acceptor
1 2 donor
1 3 acceptor
5 4 5 11 12 14 rings
6 4 5 6 7 9 10 rings
6 6 7 8 13 15 16 rings
6 8 15 18 20 21 22 rings

> <PUBCHEM_HEAVY_ATOM_COUNT>
22

> <PUBCHEM_ATOM_DEF_STEREO_COUNT>
7

> <PUBCHEM_ATOM_UDEF_STEREO_COUNT>
0

> <PUBCHEM_BOND_DEF_STEREO_COUNT>
0

> <PUBCHEM_BOND_UDEF_STEREO_COUNT>
0

> <PUBCHEM_ISOTOPIC_ATOM_COUNT>
0

> <PUBCHEM_COMPONENT_COUNT>
1

> <PUBCHEM_CACTVS_TAUTO_COUNT>
5

> <PUBCHEM_CONFORMER_ID>
0003A43A00000001

> <PUBCHEM_MMFF94_ENERGY>
74.6106

> <PUBCHEM_FEATURE_SELFOVERLAP>
35.616

> <PUBCHEM_SHAPE_FINGERPRINT>
10062212 137 18413108338337594419
10447042 23 18337400361321374879
10967382 1 18409444748091988298
11132069 177 18412255155926752931
11578080 2 16771277061242388470
12011746 2 18409444809039143174
12107183 9 17762619890354948874
12166972 35 18131352972986966092
12236239 1 18060418010913003008
12403259 226 18339365270463246596
12403259 415 18411424994720641772
12403260 363 18411139108406069848
12403814 3 17917709098282932341
12553582 1 18266717161324000493
12839892 36 18336274508780894394
128620 24 16877940537959837663
13140716 1 18337671901980577568
13214271 11 18260267460575347293
13224815 77 18407757040708829943
13675066 3 18201715150106503410
13862211 1 18409732820349812971
14178342 30 18338506555644170992
14223421 5 18264486355030740502
14251764 18 18342179943342447968
14341114 176 18410006672123278026
14787075 74 18337392647322643274
15163728 17 14636534528768816409
15196674 1 18409727365551105259
15536298 74 18261385697949524862
15788980 27 16845856784561480583
16945 1 18266455606073253950
17349148 13 18272369771839739628
17492 89 18338516459870943203
1813 80 17203608216402849222
192875 21 17632573825260852229
200 152 18333736806110759663
20028762 73 18114466660586536350
20715895 44 18056202607902616101
21033648 29 18270137776263376224
21267235 1 18410284796419167434
21421861 104 17986110931579414114
21637258 2 15769790078375526034
23402539 116 18335145288563034397
23557571 272 18113329799843363359
23558518 356 18124864905179451889
23559900 14 18263362645937429562
26918003 58 18412265051246735409
296302 2 16081089290018510436
3286 77 18338517435281368613
335352 9 18338232777258936741
34934 24 18336548321751596555
350125 39 18411135827773969568
351380 180 18409731763824502314
392239 28 18259700090610189528
4214541 1 18411699893885819721
4325135 7 18040720242716026015
474229 33 18408887308724402806
5104073 3 18410852170251824795
5283173 99 18129957779253273501
69090 78 18409730638311189346
7364860 26 18189328146998588966
9709674 26 18409720790014716939

> <PUBCHEM_SHAPE_MULTIPOLES>
442.88
10.56
2.12
1.05
0.36
0.18
0.41
0.95
-1.89
-0.35
0
0.04
-0.2
-0.18

> <PUBCHEM_SHAPE_SELFOVERLAP>
939.975

> <PUBCHEM_SHAPE_VOLUME>
248.2

> <PUBCHEM_COORDINATE_TYPE>
2
5
10

$$$$

