13214
  -OEChem-06261207542D

 15 14  0     0  0  0  0  0  0999 V2000
    2.0000   -2.5000    0.0000 Na  0  3  0  0  0  0  0  0  0  0  0  0
    2.8660   -2.0000    0.0000 O   0  5  0  0  0  0  0  0  0  0  0  0
    3.7320    2.5000    0.0000 O   0  5  0  0  0  0  0  0  0  0  0  0
    2.0000    2.5000    0.0000 O   0  0  0  0  0  0  0  0  0  0  0  0
    2.8660    2.0000    0.0000 N   0  3  0  0  0  0  0  0  0  0  0  0
    2.8660    1.0000    0.0000 C   0  0  0  0  0  0  0  0  0  0  0  0
    2.0000    0.5000    0.0000 C   0  0  0  0  0  0  0  0  0  0  0  0
    3.7320    0.5000    0.0000 C   0  0  0  0  0  0  0  0  0  0  0  0
    2.0000   -0.5000    0.0000 C   0  0  0  0  0  0  0  0  0  0  0  0
    3.7320   -0.5000    0.0000 C   0  0  0  0  0  0  0  0  0  0  0  0
    2.8660   -1.0000    0.0000 C   0  0  0  0  0  0  0  0  0  0  0  0
    1.4631    0.8100    0.0000 H   0  0  0  0  0  0  0  0  0  0  0  0
    4.2690    0.8100    0.0000 H   0  0  0  0  0  0  0  0  0  0  0  0
    1.4631   -0.8100    0.0000 H   0  0  0  0  0  0  0  0  0  0  0  0
    4.2690   -0.8100    0.0000 H   0  0  0  0  0  0  0  0  0  0  0  0
  2 11  1  0  0  0  0
  3  5  1  0  0  0  0
  4  5  2  0  0  0  0
  5  6  1  0  0  0  0
  6  7  2  0  0  0  0
  6  8  1  0  0  0  0
  7  9  1  0  0  0  0
  7 12  1  0  0  0  0
  8 10  2  0  0  0  0
  8 13  1  0  0  0  0
  9 11  2  0  0  0  0
  9 14  1  0  0  0  0
 10 11  1  0  0  0  0
 10 15  1  0  0  0  0
M  CHG  4   1   1   2  -1   3  -1   5   1
M  END
> <PUBCHEM_COMPOUND_CID>
13214

> <PUBCHEM_COMPOUND_CANONICALIZED>
1

> <PUBCHEM_CACTVS_COMPLEXITY>
123

> <PUBCHEM_CACTVS_HBOND_ACCEPTOR>
3

> <PUBCHEM_CACTVS_HBOND_DONOR>
0

> <PUBCHEM_CACTVS_ROTATABLE_BOND>
0

> <PUBCHEM_CACTVS_SUBSKEYS>
AAADcYBiMCAAAAAAAAAAAAAAAAAAAAAAAAAwAAAAAAAAAAABAAAAHgAEAAAACAyBkAAwxoAQQACBACRCQwCCAAAgIgAoiAAGbIoIJiKAkZOAMABkwBEIyAewQAAAAEAAAAAAAAAAgAAAAAAAAAAAAAAAAA==

> <PUBCHEM_IUPAC_OPENEYE_NAME>
sodium 4-nitrophenolate

> <PUBCHEM_IUPAC_CAS_NAME>
sodium 4-nitrophenolate

> <PUBCHEM_IUPAC_NAME>
sodium 4-nitrophenolate

> <PUBCHEM_IUPAC_SYSTEMATIC_NAME>
sodium 4-nitrophenolate

> <PUBCHEM_IUPAC_TRADITIONAL_NAME>
sodium 4-nitrophenolate

> <PUBCHEM_IUPAC_INCHI>
InChI=1S/C6H5NO3.Na/c8-6-3-1-5(2-4-6)7(9)10;/h1-4,8H;/q;+1/p-1

> <PUBCHEM_IUPAC_INCHIKEY>
CURNJKLCYZZBNJ-UHFFFAOYSA-M

> <PUBCHEM_EXACT_MASS>
161.008887

> <PUBCHEM_MOLECULAR_FORMULA>
C6H4NNaO3

> <PUBCHEM_MOLECULAR_WEIGHT>
161.090629

> <PUBCHEM_OPENEYE_CAN_SMILES>
C1=CC(=CC=C1[N+](=O)[O-])[O-].[Na+]

> <PUBCHEM_OPENEYE_ISO_SMILES>
C1=CC(=CC=C1[N+](=O)[O-])[O-].[Na+]

> <PUBCHEM_CACTVS_TPSA>
68.9

> <PUBCHEM_MONOISOTOPIC_WEIGHT>
161.008887

> <PUBCHEM_TOTAL_CHARGE>
0

> <PUBCHEM_HEAVY_ATOM_COUNT>
11

> <PUBCHEM_ATOM_DEF_STEREO_COUNT>
0

> <PUBCHEM_ATOM_UDEF_STEREO_COUNT>
0

> <PUBCHEM_BOND_DEF_STEREO_COUNT>
0

> <PUBCHEM_BOND_UDEF_STEREO_COUNT>
0

> <PUBCHEM_ISOTOPIC_ATOM_COUNT>
0

> <PUBCHEM_COMPONENT_COUNT>
2

> <PUBCHEM_CACTVS_TAUTO_COUNT>
1

> <PUBCHEM_COORDINATE_TYPE>
1
5
255

> <PUBCHEM_BONDANNOTATIONS>
10  11  8
6  7  8
6  8  8
7  9  8
8  10  8
9  11  8

$$$$

