5281305
  -OEChem-07051212563D

 81 85  0     1  0  0  0  0  0999 V2000
   -1.3783    3.2503    0.7068 O   0  0  0  0  0  0  0  0  0  0  0  0
   -1.4312   -1.2832    1.9457 O   0  0  0  0  0  0  0  0  0  0  0  0
   -3.0826    2.6911   -1.5686 O   0  0  0  0  0  0  0  0  0  0  0  0
    0.2133    1.3058   -1.9666 O   0  0  0  0  0  0  0  0  0  0  0  0
    1.6790    0.1001    0.8009 O   0  0  0  0  0  0  0  0  0  0  0  0
    1.8413    2.6780   -0.5824 O   0  0  0  0  0  0  0  0  0  0  0  0
    1.0716    4.0393    1.1178 O   0  0  0  0  0  0  0  0  0  0  0  0
    0.6550   -2.1376    1.9252 O   0  0  0  0  0  0  0  0  0  0  0  0
   -7.3193   -2.6899   -0.7664 O   0  0  0  0  0  0  0  0  0  0  0  0
   -6.2253   -1.5113   -2.9182 O   0  0  0  0  0  0  0  0  0  0  0  0
    2.1363   -1.5628   -0.7340 O   0  0  0  0  0  0  0  0  0  0  0  0
    7.2748   -1.5198   -0.1695 O   0  0  0  0  0  0  0  0  0  0  0  0
    6.2742   -0.7323   -2.0970 O   0  0  0  0  0  0  0  0  0  0  0  0
   -1.9806    0.9571    1.0083 C   0  0  2  0  0  0  0  0  0  0  0  0
   -2.5185    0.5546   -0.4226 C   0  0  1  0  0  0  0  0  0  0  0  0
   -0.4628    1.1436    0.9951 C   0  0  2  0  0  0  0  0  0  0  0  0
   -4.0093    0.0029   -0.4325 C   0  0  2  0  0  0  0  0  0  0  0  0
   -0.3686    2.3862    0.1244 C   0  0  1  0  0  0  0  0  0  0  0  0
   -2.2906   -0.1024    2.0637 C   0  0  1  0  0  0  0  0  0  0  0  0
   -2.1603    1.6097   -1.5177 C   0  0  2  0  0  0  0  0  0  0  0  0
   -4.0986   -1.1599    0.6145 C   0  0  1  0  0  0  0  0  0  0  0  0
   -2.3393    2.4034    1.3916 C   0  0  0  0  0  0  0  0  0  0  0  0
   -0.7320    2.1756   -1.3538 C   0  0  2  0  0  0  0  0  0  0  0  0
   -3.7299   -0.6242    2.0197 C   0  0  0  0  0  0  0  0  0  0  0  0
    0.2858   -0.1264    0.6580 C   0  0  2  0  0  0  0  0  0  0  0  0
   -4.3088   -0.6096   -1.8192 C   0  0  0  0  0  0  0  0  0  0  0  0
   -5.0907    1.0795   -0.1470 C   0  0  0  0  0  0  0  0  0  0  0  0
   -5.4140   -1.9471    0.5332 C   0  0  0  0  0  0  0  0  0  0  0  0
    0.9119    3.1435    0.2997 C   0  0  0  0  0  0  0  0  0  0  0  0
   -0.1220   -1.2478    1.5891 C   0  0  0  0  0  0  0  0  0  0  0  0
   -5.6102   -1.3776   -1.8594 C   0  0  0  0  0  0  0  0  0  0  0  0
   -6.1218   -2.0237   -0.6161 C   0  0  0  0  0  0  0  0  0  0  0  0
   -5.8144   -2.7020    1.7783 C   0  0  0  0  0  0  0  0  0  0  0  0
    2.4942   -0.6924    0.0422 C   0  0  0  0  0  0  0  0  0  0  0  0
    3.1200    3.3182   -0.5235 C   0  0  0  0  0  0  0  0  0  0  0  0
    3.8990   -0.3220    0.3471 C   0  0  0  0  0  0  0  0  0  0  0  0
    4.9489   -1.1682    0.3074 C   0  0  0  0  0  0  0  0  0  0  0  0
    6.3863   -0.7186    0.6228 C   0  0  0  0  0  0  0  0  0  0  0  0
    4.7994   -2.6284   -0.0636 C   0  0  0  0  0  0  0  0  0  0  0  0
    6.7111   -0.9661    2.1046 C   0  0  0  0  0  0  0  0  0  0  0  0
    6.7157    0.7465    0.2899 C   0  0  0  0  0  0  0  0  0  0  0  0
    7.1002   -1.4236   -1.5167 C   0  0  0  0  0  0  0  0  0  0  0  0
    8.0908   -2.3084   -2.2111 C   0  0  0  0  0  0  0  0  0  0  0  0
   -1.9328   -0.3275   -0.7146 H   0  0  0  0  0  0  0  0  0  0  0  0
   -0.1281    1.4302    2.0084 H   0  0  0  0  0  0  0  0  0  0  0  0
   -2.1031    0.2907    3.0708 H   0  0  0  0  0  0  0  0  0  0  0  0
   -2.2215    1.1115   -2.4930 H   0  0  0  0  0  0  0  0  0  0  0  0
   -3.3313   -1.9062    0.3547 H   0  0  0  0  0  0  0  0  0  0  0  0
   -2.2187    2.5868    2.4656 H   0  0  0  0  0  0  0  0  0  0  0  0
   -3.3358    2.7356    1.1113 H   0  0  0  0  0  0  0  0  0  0  0  0
   -0.6760    3.1356   -1.8839 H   0  0  0  0  0  0  0  0  0  0  0  0
   -4.4294    0.1518    2.3464 H   0  0  0  0  0  0  0  0  0  0  0  0
   -3.7992   -1.4351    2.7544 H   0  0  0  0  0  0  0  0  0  0  0  0
    0.0646   -0.4704   -0.3546 H   0  0  0  0  0  0  0  0  0  0  0  0
   -3.5165   -1.3041   -2.1243 H   0  0  0  0  0  0  0  0  0  0  0  0
   -4.3721    0.1812   -2.5760 H   0  0  0  0  0  0  0  0  0  0  0  0
   -4.9478    1.5853    0.8066 H   0  0  0  0  0  0  0  0  0  0  0  0
   -5.1379    1.8371   -0.9321 H   0  0  0  0  0  0  0  0  0  0  0  0
   -6.0981    0.6532   -0.0980 H   0  0  0  0  0  0  0  0  0  0  0  0
   -2.8518    3.2432   -2.3349 H   0  0  0  0  0  0  0  0  0  0  0  0
    1.0540    1.7848   -2.0499 H   0  0  0  0  0  0  0  0  0  0  0  0
   -6.0791   -2.0086    2.5825 H   0  0  0  0  0  0  0  0  0  0  0  0
   -6.6839   -3.3453    1.6079 H   0  0  0  0  0  0  0  0  0  0  0  0
   -4.9978   -3.3504    2.1120 H   0  0  0  0  0  0  0  0  0  0  0  0
   -7.6044   -2.5921   -1.6911 H   0  0  0  0  0  0  0  0  0  0  0  0
    3.0282    4.3658   -0.8250 H   0  0  0  0  0  0  0  0  0  0  0  0
    3.5411    3.2417    0.4835 H   0  0  0  0  0  0  0  0  0  0  0  0
    3.7879    2.8079   -1.2224 H   0  0  0  0  0  0  0  0  0  0  0  0
    4.0461    0.7069    0.6610 H   0  0  0  0  0  0  0  0  0  0  0  0
    5.5799   -3.2453    0.3946 H   0  0  0  0  0  0  0  0  0  0  0  0
    3.8584   -3.0404    0.3160 H   0  0  0  0  0  0  0  0  0  0  0  0
    4.8220   -2.7757   -1.1468 H   0  0  0  0  0  0  0  0  0  0  0  0
    7.7563   -0.7146    2.3197 H   0  0  0  0  0  0  0  0  0  0  0  0
    6.0678   -0.3765    2.7665 H   0  0  0  0  0  0  0  0  0  0  0  0
    6.5933   -2.0249    2.3627 H   0  0  0  0  0  0  0  0  0  0  0  0
    7.8002    0.9057    0.2512 H   0  0  0  0  0  0  0  0  0  0  0  0
    6.3099    1.0875   -0.6669 H   0  0  0  0  0  0  0  0  0  0  0  0
    6.3096    1.4235    1.0511 H   0  0  0  0  0  0  0  0  0  0  0  0
    9.1073   -1.9882   -1.9695 H   0  0  0  0  0  0  0  0  0  0  0  0
    7.9322   -3.3476   -1.9122 H   0  0  0  0  0  0  0  0  0  0  0  0
    7.9490   -2.2318   -3.2929 H   0  0  0  0  0  0  0  0  0  0  0  0
  1 18  1  0  0  0  0
  1 22  1  0  0  0  0
  2 19  1  0  0  0  0
  2 30  1  0  0  0  0
  3 20  1  0  0  0  0
  3 60  1  0  0  0  0
  4 23  1  0  0  0  0
  4 61  1  0  0  0  0
  5 25  1  0  0  0  0
  5 34  1  0  0  0  0
  6 29  1  0  0  0  0
  6 35  1  0  0  0  0
  7 29  2  0  0  0  0
  8 30  2  0  0  0  0
  9 32  1  0  0  0  0
  9 65  1  0  0  0  0
 10 31  2  0  0  0  0
 11 34  2  0  0  0  0
 12 38  1  0  0  0  0
 12 42  1  0  0  0  0
 13 42  2  0  0  0  0
 14 15  1  0  0  0  0
 14 16  1  0  0  0  0
 14 19  1  0  0  0  0
 14 22  1  0  0  0  0
 15 17  1  0  0  0  0
 15 20  1  0  0  0  0
 15 44  1  0  0  0  0
 16 18  1  0  0  0  0
 16 25  1  0  0  0  0
 16 45  1  0  0  0  0
 17 21  1  0  0  0  0
 17 26  1  0  0  0  0
 17 27  1  0  0  0  0
 18 23  1  0  0  0  0
 18 29  1  0  0  0  0
 19 24  1  0  0  0  0
 19 46  1  0  0  0  0
 20 23  1  0  0  0  0
 20 47  1  0  0  0  0
 21 24  1  0  0  0  0
 21 28  1  0  0  0  0
 21 48  1  0  0  0  0
 22 49  1  0  0  0  0
 22 50  1  0  0  0  0
 23 51  1  0  0  0  0
 24 52  1  0  0  0  0
 24 53  1  0  0  0  0
 25 30  1  0  0  0  0
 25 54  1  0  0  0  0
 26 31  1  0  0  0  0
 26 55  1  0  0  0  0
 26 56  1  0  0  0  0
 27 57  1  0  0  0  0
 27 58  1  0  0  0  0
 27 59  1  0  0  0  0
 28 32  2  0  0  0  0
 28 33  1  0  0  0  0
 31 32  1  0  0  0  0
 33 62  1  0  0  0  0
 33 63  1  0  0  0  0
 33 64  1  0  0  0  0
 34 36  1  0  0  0  0
 35 66  1  0  0  0  0
 35 67  1  0  0  0  0
 35 68  1  0  0  0  0
 36 37  2  0  0  0  0
 36 69  1  0  0  0  0
 37 38  1  0  0  0  0
 37 39  1  0  0  0  0
 38 40  1  0  0  0  0
 38 41  1  0  0  0  0
 39 70  1  0  0  0  0
 39 71  1  0  0  0  0
 39 72  1  0  0  0  0
 40 73  1  0  0  0  0
 40 74  1  0  0  0  0
 40 75  1  0  0  0  0
 41 76  1  0  0  0  0
 41 77  1  0  0  0  0
 41 78  1  0  0  0  0
 42 43  1  0  0  0  0
 43 79  1  0  0  0  0
 43 80  1  0  0  0  0
 43 81  1  0  0  0  0
M  END
> <PUBCHEM_COMPOUND_CID>
5281305

> <PUBCHEM_CONFORMER_RMSD>
1.2

> <PUBCHEM_CONFORMER_DIVERSEORDER>
1
10
11
7
16
4
14
17
5
3
8
13
6
15
12
2
9

> <PUBCHEM_MMFF94_PARTIAL_CHARGES>
39
1 -0.56
10 -0.57
11 -0.57
12 -0.43
13 -0.57
18 0.34
19 0.28
2 -0.43
20 0.28
21 0.14
22 0.28
23 0.28
25 0.34
26 0.06
28 -0.28
29 0.66
3 -0.68
30 0.66
31 0.49
32 0.09
33 0.14
34 0.71
35 0.28
36 -0.14
37 -0.28
38 0.42
39 0.14
4 -0.68
42 0.66
43 0.06
5 -0.43
6 -0.43
60 0.4
61 0.4
65 0.45
69 0.15
7 -0.57
8 -0.57
9 -0.53

> <PUBCHEM_EFFECTIVE_ROTOR_COUNT>
9.6

> <PUBCHEM_PHARMACOPHORE_FEATURES>
17
1 1 acceptor
1 10 acceptor
1 11 acceptor
1 13 acceptor
1 3 acceptor
1 3 donor
1 39 hydrophobe
1 4 acceptor
1 4 donor
1 7 acceptor
1 8 acceptor
1 9 donor
3 38 40 41 hydrophobe
6 14 15 17 19 21 24 rings
6 17 21 26 28 31 32 rings
6 2 14 16 19 25 30 rings
8 1 14 15 16 18 20 22 23 rings

> <PUBCHEM_HEAVY_ATOM_COUNT>
43

> <PUBCHEM_ATOM_DEF_STEREO_COUNT>
10

> <PUBCHEM_ATOM_UDEF_STEREO_COUNT>
0

> <PUBCHEM_BOND_DEF_STEREO_COUNT>
1

> <PUBCHEM_BOND_UDEF_STEREO_COUNT>
0

> <PUBCHEM_ISOTOPIC_ATOM_COUNT>
0

> <PUBCHEM_COMPONENT_COUNT>
1

> <PUBCHEM_CACTVS_TAUTO_COUNT>
17

> <PUBCHEM_CONFORMER_ID>
0050961900000001

> <PUBCHEM_MMFF94_ENERGY>
164.8556

> <PUBCHEM_FEATURE_SELFOVERLAP>
86.436

> <PUBCHEM_SHAPE_FINGERPRINT>
10930396 42 17985014564785863336
11135609 201 12175631724264580447
11445158 3 15792027644612113792
11621639 179 17628373859449851293
12166972 35 17917987266039912012
13690498 29 18342465850540896173
13782708 43 18272090457041876208
13811026 1 18410581673148192234
14068700 675 18411703183678053976
15183329 4 16056880230483014962
15975801 100 13253983224414830119
16067689 302 18196080045740585674
16110190 28 6122490329098266706
20609170 92 17846217688409676572
20775438 99 17832168038018397647
21033650 10 16128391380474824789
21344244 246 18194968431216475891
21424621 283 11743838062759697782
21756936 100 11887948852773153105
21927370 108 18337657694091638817
22182313 1 17630327437870896545
23559900 14 17846222102981733545
2838139 119 14045745936858635375
474113 269 17894918400019495125
484989 97 17845366661592298147
504579 68 16916776427901180254

> <PUBCHEM_SHAPE_MULTIPOLES>
808.62
19.08
3.85
2.25
22.96
2.85
-0.48
-19.22
-7.29
-0.61
-0.06
-0.85
-0.86
0.84

> <PUBCHEM_SHAPE_SELFOVERLAP>
1753.036

> <PUBCHEM_SHAPE_VOLUME>
434.6

> <PUBCHEM_COORDINATE_TYPE>
2
5
10

$$$$

