439499
  -OEChem-07051212453D

 40 42  0     1  0  0  0  0  0999 V2000
    1.6938   -0.5905    0.1471 O   0  0  0  0  0  0  0  0  0  0  0  0
    0.7027    1.5202    0.2276 O   0  0  0  0  0  0  0  0  0  0  0  0
    5.4248    0.9935    0.8093 O   0  0  0  0  0  0  0  0  0  0  0  0
    5.1666   -1.6884   -0.2380 O   0  0  0  0  0  0  0  0  0  0  0  0
    3.2403    2.7033   -0.1834 O   0  0  0  0  0  0  0  0  0  0  0  0
    1.2300   -3.2098   -0.5459 O   0  0  0  0  0  0  0  0  0  0  0  0
   -3.7000   -0.1023    1.2008 O   0  0  0  0  0  0  0  0  0  0  0  0
   -1.2254    0.7162    2.0541 O   0  0  0  0  0  0  0  0  0  0  0  0
   -5.8089   -0.8790    1.6425 O   0  0  0  0  0  0  0  0  0  0  0  0
    4.3238    0.5559    0.0113 C   0  0  1  0  0  0  0  0  0  0  0  0
    4.0894   -0.9267    0.3012 C   0  0  1  0  0  0  0  0  0  0  0  0
    3.0871    1.3882    0.3500 C   0  0  2  0  0  0  0  0  0  0  0  0
    2.7737   -1.4004   -0.3209 C   0  0  1  0  0  0  0  0  0  0  0  0
    1.8219    0.7733   -0.2484 C   0  0  1  0  0  0  0  0  0  0  0  0
    2.4603   -2.8457    0.0531 C   0  0  0  0  0  0  0  0  0  0  0  0
   -0.5316    1.1123   -0.1986 C   0  0  0  0  0  0  0  0  0  0  0  0
   -1.4950    0.7101    0.7197 C   0  0  0  0  0  0  0  0  0  0  0  0
   -0.8106    1.1054   -1.5645 C   0  0  0  0  0  0  0  0  0  0  0  0
   -2.7410    0.3007    0.2491 C   0  0  0  0  0  0  0  0  0  0  0  0
   -3.0418    0.2854   -1.1103 C   0  0  0  0  0  0  0  0  0  0  0  0
   -2.0652    0.6922   -2.0223 C   0  0  0  0  0  0  0  0  0  0  0  0
   -4.3613   -0.1536   -1.5312 C   0  0  0  0  0  0  0  0  0  0  0  0
   -5.2640   -0.5341   -0.6237 C   0  0  0  0  0  0  0  0  0  0  0  0
   -4.9695   -0.5262    0.8213 C   0  0  0  0  0  0  0  0  0  0  0  0
    4.6184    0.7104   -1.0341 H   0  0  0  0  0  0  0  0  0  0  0  0
    4.0836   -1.0894    1.3860 H   0  0  0  0  0  0  0  0  0  0  0  0
    2.9879    1.4964    1.4367 H   0  0  0  0  0  0  0  0  0  0  0  0
    2.8091   -1.3342   -1.4169 H   0  0  0  0  0  0  0  0  0  0  0  0
    1.8652    0.8409   -1.3433 H   0  0  0  0  0  0  0  0  0  0  0  0
    2.3524   -2.9649    1.1363 H   0  0  0  0  0  0  0  0  0  0  0  0
    3.2333   -3.5330   -0.3022 H   0  0  0  0  0  0  0  0  0  0  0  0
    6.1892    0.4374    0.5805 H   0  0  0  0  0  0  0  0  0  0  0  0
    5.1752   -1.5561   -1.2014 H   0  0  0  0  0  0  0  0  0  0  0  0
    3.3319    2.6287   -1.1487 H   0  0  0  0  0  0  0  0  0  0  0  0
    0.5527   -2.5879   -0.2290 H   0  0  0  0  0  0  0  0  0  0  0  0
   -0.0740    1.4362   -2.2911 H   0  0  0  0  0  0  0  0  0  0  0  0
   -2.2677    0.6969   -3.0904 H   0  0  0  0  0  0  0  0  0  0  0  0
   -4.5992   -0.1671   -2.5890 H   0  0  0  0  0  0  0  0  0  0  0  0
   -2.0160    0.4042    2.5278 H   0  0  0  0  0  0  0  0  0  0  0  0
   -6.2510   -0.8632   -0.9302 H   0  0  0  0  0  0  0  0  0  0  0  0
  1 13  1  0  0  0  0
  1 14  1  0  0  0  0
  2 14  1  0  0  0  0
  2 16  1  0  0  0  0
  3 10  1  0  0  0  0
  3 32  1  0  0  0  0
  4 11  1  0  0  0  0
  4 33  1  0  0  0  0
  5 12  1  0  0  0  0
  5 34  1  0  0  0  0
  6 15  1  0  0  0  0
  6 35  1  0  0  0  0
  7 19  1  0  0  0  0
  7 24  1  0  0  0  0
  8 17  1  0  0  0  0
  8 39  1  0  0  0  0
  9 24  2  0  0  0  0
 10 11  1  0  0  0  0
 10 12  1  0  0  0  0
 10 25  1  0  0  0  0
 11 13  1  0  0  0  0
 11 26  1  0  0  0  0
 12 14  1  0  0  0  0
 12 27  1  0  0  0  0
 13 15  1  0  0  0  0
 13 28  1  0  0  0  0
 14 29  1  0  0  0  0
 15 30  1  0  0  0  0
 15 31  1  0  0  0  0
 16 17  2  0  0  0  0
 16 18  1  0  0  0  0
 17 19  1  0  0  0  0
 18 21  2  0  0  0  0
 18 36  1  0  0  0  0
 19 20  2  0  0  0  0
 20 21  1  0  0  0  0
 20 22  1  0  0  0  0
 21 37  1  0  0  0  0
 22 23  2  0  0  0  0
 22 38  1  0  0  0  0
 23 24  1  0  0  0  0
 23 40  1  0  0  0  0
M  END
> <PUBCHEM_COMPOUND_CID>
439499

> <PUBCHEM_CONFORMER_RMSD>
0.8

> <PUBCHEM_CONFORMER_DIVERSEORDER>
1
69
12
71
59
74
67
77
73
45
13
28
63
31
72
38
65
61
17
52
70
53
6
30
27
64
68
54
2
78
18
50
10
76
8
55
58
36
16
43
60
56
34
29
15
11
4
51
19
9
57
66
5
41
7
14
48
49
35
24
42
3
26
40
75
25
44
79
33
47
21
20
22
23
32
39
62
46
37

> <PUBCHEM_MMFF94_PARTIAL_CHARGES>
33
1 -0.56
10 0.28
11 0.28
12 0.28
13 0.28
14 0.56
15 0.28
16 0.08
17 0.08
18 -0.15
19 0.08
2 -0.36
20 0.03
21 -0.15
22 -0.18
23 -0.14
24 0.71
3 -0.68
32 0.4
33 0.4
34 0.4
35 0.4
36 0.15
37 0.15
38 0.15
39 0.45
4 -0.68
40 0.15
5 -0.68
6 -0.68
7 -0.23
8 -0.53
9 -0.57

> <PUBCHEM_EFFECTIVE_ROTOR_COUNT>
4.2

> <PUBCHEM_PHARMACOPHORE_FEATURES>
15
1 1 acceptor
1 2 acceptor
1 3 acceptor
1 3 donor
1 4 acceptor
1 4 donor
1 5 acceptor
1 5 donor
1 6 acceptor
1 6 donor
1 8 donor
1 9 acceptor
6 1 10 11 12 13 14 rings
6 16 17 18 19 20 21 rings
6 7 19 20 22 23 24 rings

> <PUBCHEM_HEAVY_ATOM_COUNT>
24

> <PUBCHEM_ATOM_DEF_STEREO_COUNT>
5

> <PUBCHEM_ATOM_UDEF_STEREO_COUNT>
0

> <PUBCHEM_BOND_DEF_STEREO_COUNT>
0

> <PUBCHEM_BOND_UDEF_STEREO_COUNT>
0

> <PUBCHEM_ISOTOPIC_ATOM_COUNT>
0

> <PUBCHEM_COMPONENT_COUNT>
1

> <PUBCHEM_CACTVS_TAUTO_COUNT>
3

> <PUBCHEM_CONFORMER_ID>
0006B4CB00000001

> <PUBCHEM_MMFF94_ENERGY>
81.0155

> <PUBCHEM_FEATURE_SELFOVERLAP>
76.204

> <PUBCHEM_SHAPE_FINGERPRINT>
10366900 7 17917142901197026466
11595378 159 16950558917593677321
12107183 9 17539397039905515297
12236239 1 17530966873422260749
12596602 18 17240767255087158083
13402501 40 18202560679002044851
13544653 18 18413107264685473853
13583140 156 18113904879322830193
14341114 328 17603303747851016511
14386348 63 17917710214615713391
14787075 74 17821732693264571066
14844126 61 16036335121184233042
14849402 71 17241063003052532200
15375462 189 17822016423194128937
15961568 22 16199866151387191436
17138139 8 17463160975180641535
1813 80 18187074053313951213
19141452 34 18129937885143859395
200 152 18334583450995865989
20028762 73 18041005068068531974
20511986 3 17676783036494077929
20645477 70 18272087188893562960
21033650 10 15696590185364709692
21197605 99 18123460592898406715
21623969 137 18413387613979878139
23402539 116 15984833622638685613
23557571 272 17346881156654068757
23559900 14 16845570903122709732
23598288 3 17241613990604388433
239999 70 17775005657151273472
33824 294 18411703197063875362
4340502 62 18261387797924587275
465052 167 17989213638077590632
5104073 3 18338805631850502952
7399639 24 18201169762549331396
9981440 41 15438238672911038448

> <PUBCHEM_SHAPE_MULTIPOLES>
441.08
11.95
2.26
1.45
2.83
1.33
-0.01
2.76
1.92
-3.22
-0.26
2.04
-0.19
0.97

> <PUBCHEM_SHAPE_SELFOVERLAP>
951.506

> <PUBCHEM_SHAPE_VOLUME>
238.9

> <PUBCHEM_COORDINATE_TYPE>
2
5
10

$$$$

