8862
  -OEChem-06261203113D

 21 21  0     1  0  0  0  0  0999 V2000
   -0.0001   -1.7657    0.1949 O   0  0  0  0  0  0  0  0  0  0  0  0
    0.0000    1.0732   -0.0788 N   0  0  0  0  0  0  0  0  0  0  0  0
   -1.2062    0.3379    0.3284 C   0  0  2  0  0  0  0  0  0  0  0  0
    1.2063    0.3378    0.3283 C   0  0  1  0  0  0  0  0  0  0  0  0
   -1.1766   -1.0824   -0.2416 C   0  0  0  0  0  0  0  0  0  0  0  0
    1.1766   -1.0825   -0.2415 C   0  0  0  0  0  0  0  0  0  0  0  0
   -2.4455    1.0909   -0.1448 C   0  0  0  0  0  0  0  0  0  0  0  0
    2.4454    1.0908   -0.1448 C   0  0  0  0  0  0  0  0  0  0  0  0
   -1.2251    0.2887    1.4245 H   0  0  0  0  0  0  0  0  0  0  0  0
    1.2252    0.2887    1.4245 H   0  0  0  0  0  0  0  0  0  0  0  0
    0.0000    1.1858   -1.0931 H   0  0  0  0  0  0  0  0  0  0  0  0
   -2.0393   -1.6527    0.1191 H   0  0  0  0  0  0  0  0  0  0  0  0
   -1.2136   -1.0883   -1.3383 H   0  0  0  0  0  0  0  0  0  0  0  0
    1.2136   -1.0884   -1.3382 H   0  0  0  0  0  0  0  0  0  0  0  0
    2.0391   -1.6530    0.1192 H   0  0  0  0  0  0  0  0  0  0  0  0
   -2.4745    1.1750   -1.2370 H   0  0  0  0  0  0  0  0  0  0  0  0
   -3.3563    0.5743    0.1765 H   0  0  0  0  0  0  0  0  0  0  0  0
   -2.4722    2.1032    0.2731 H   0  0  0  0  0  0  0  0  0  0  0  0
    2.4747    1.1748   -1.2371 H   0  0  0  0  0  0  0  0  0  0  0  0
    2.4721    2.1033    0.2730 H   0  0  0  0  0  0  0  0  0  0  0  0
    3.3562    0.5744    0.1766 H   0  0  0  0  0  0  0  0  0  0  0  0
  1  5  1  0  0  0  0
  1  6  1  0  0  0  0
  2  3  1  0  0  0  0
  2  4  1  0  0  0  0
  2 11  1  0  0  0  0
  3  5  1  0  0  0  0
  3  7  1  0  0  0  0
  3  9  1  0  0  0  0
  4  6  1  0  0  0  0
  4  8  1  0  0  0  0
  4 10  1  0  0  0  0
  5 12  1  0  0  0  0
  5 13  1  0  0  0  0
  6 14  1  0  0  0  0
  6 15  1  0  0  0  0
  7 16  1  0  0  0  0
  7 17  1  0  0  0  0
  7 18  1  0  0  0  0
  8 19  1  0  0  0  0
  8 20  1  0  0  0  0
  8 21  1  0  0  0  0
M  END
> <PUBCHEM_COMPOUND_CID>
8862

> <PUBCHEM_CONFORMER_RMSD>
0.4

> <PUBCHEM_CONFORMER_DIVERSEORDER>
3
4
1
2

> <PUBCHEM_MMFF94_PARTIAL_CHARGES>
7
1 -0.56
11 0.36
2 -0.9
3 0.27
4 0.27
5 0.28
6 0.28

> <PUBCHEM_EFFECTIVE_ROTOR_COUNT>
1.2

> <PUBCHEM_PHARMACOPHORE_FEATURES>
4
1 1 acceptor
1 2 cation
1 2 donor
6 1 2 3 4 5 6 rings

> <PUBCHEM_HEAVY_ATOM_COUNT>
8

> <PUBCHEM_ATOM_DEF_STEREO_COUNT>
0

> <PUBCHEM_ATOM_UDEF_STEREO_COUNT>
2

> <PUBCHEM_BOND_DEF_STEREO_COUNT>
0

> <PUBCHEM_BOND_UDEF_STEREO_COUNT>
0

> <PUBCHEM_ISOTOPIC_ATOM_COUNT>
0

> <PUBCHEM_COMPONENT_COUNT>
1

> <PUBCHEM_CACTVS_TAUTO_COUNT>
1

> <PUBCHEM_CONFORMER_ID>
0000229E00000003

> <PUBCHEM_MMFF94_ENERGY>
3.4618

> <PUBCHEM_FEATURE_SELFOVERLAP>
20.297

> <PUBCHEM_SHAPE_FINGERPRINT>
16714656 1 18122057603043521566
18185500 45 17400639823225463587
20096714 4 18337672017807524779
21040471 1 18409731746444159864
23235685 24 18410015428981533969
23552423 10 18343018853065404590
241688 4 16896236716373040306
29004967 10 18054780947598418953

> <PUBCHEM_SHAPE_MULTIPOLES>
153.79
2.95
1.67
0.65
0
0.46
0
-1.41
-0.21
0
-0.05
0
0
0

> <PUBCHEM_SHAPE_SELFOVERLAP>
291.963

> <PUBCHEM_SHAPE_VOLUME>
95.6

> <PUBCHEM_COORDINATE_TYPE>
2
5
10

$$$$

