6650
  -OEChem-06261201263D

 34 34  0     0  0  0  0  0  0999 V2000
   -2.3211    0.0015    1.4756 N   0  0  0  0  0  0  0  0  0  0  0  0
    2.2213   -0.0235    1.4729 N   0  0  0  0  0  0  0  0  0  0  0  0
    0.7491   -0.0006   -0.4832 C   0  0  0  0  0  0  0  0  0  0  0  0
   -2.2100    0.0000    0.0097 C   0  0  0  0  0  0  0  0  0  0  0  0
    0.0193   -1.2649   -0.0120 C   0  0  0  0  0  0  0  0  0  0  0  0
    0.0193    1.2647   -0.0147 C   0  0  0  0  0  0  0  0  0  0  0  0
   -1.4496   -1.2628   -0.4430 C   0  0  0  0  0  0  0  0  0  0  0  0
   -1.4497    1.2618   -0.4456 C   0  0  0  0  0  0  0  0  0  0  0  0
    2.1968    0.0000    0.0048 C   0  0  0  0  0  0  0  0  0  0  0  0
   -3.6266   -0.0005   -0.5824 C   0  0  0  0  0  0  0  0  0  0  0  0
    2.9182    1.2677   -0.4712 C   0  0  0  0  0  0  0  0  0  0  0  0
    2.9328   -1.2435   -0.5110 C   0  0  0  0  0  0  0  0  0  0  0  0
    0.7433   -0.0010   -1.5830 H   0  0  0  0  0  0  0  0  0  0  0  0
    0.0669   -1.3765    1.0774 H   0  0  0  0  0  0  0  0  0  0  0  0
    0.4739   -2.1633   -0.4425 H   0  0  0  0  0  0  0  0  0  0  0  0
    0.4719    2.1632   -0.4470 H   0  0  0  0  0  0  0  0  0  0  0  0
    0.0552    1.3810    1.0735 H   0  0  0  0  0  0  0  0  0  0  0  0
   -1.4907   -1.3385   -1.5382 H   0  0  0  0  0  0  0  0  0  0  0  0
   -1.9395   -2.1664   -0.0569 H   0  0  0  0  0  0  0  0  0  0  0  0
   -1.9398    2.1662   -0.0616 H   0  0  0  0  0  0  0  0  0  0  0  0
   -1.4907    1.3351   -1.5410 H   0  0  0  0  0  0  0  0  0  0  0  0
   -4.1916   -0.8858   -0.2680 H   0  0  0  0  0  0  0  0  0  0  0  0
   -4.1915    0.8855   -0.2698 H   0  0  0  0  0  0  0  0  0  0  0  0
   -3.5951   -0.0016   -1.6779 H   0  0  0  0  0  0  0  0  0  0  0  0
    2.8133    1.3991   -1.5542 H   0  0  0  0  0  0  0  0  0  0  0  0
    2.5590    2.1791    0.0185 H   0  0  0  0  0  0  0  0  0  0  0  0
    3.9924    1.2109   -0.2547 H   0  0  0  0  0  0  0  0  0  0  0  0
    2.5829   -2.1707   -0.0447 H   0  0  0  0  0  0  0  0  0  0  0  0
    4.0072   -1.1812   -0.2970 H   0  0  0  0  0  0  0  0  0  0  0  0
    2.8244   -1.3458   -1.5967 H   0  0  0  0  0  0  0  0  0  0  0  0
   -2.8504   -0.8134    1.7838 H   0  0  0  0  0  0  0  0  0  0  0  0
   -2.8503    0.8171    1.7821 H   0  0  0  0  0  0  0  0  0  0  0  0
    1.9170    0.8715    1.8525 H   0  0  0  0  0  0  0  0  0  0  0  0
    3.1807   -0.1430    1.7978 H   0  0  0  0  0  0  0  0  0  0  0  0
  1  4  1  0  0  0  0
  1 31  1  0  0  0  0
  1 32  1  0  0  0  0
  2  9  1  0  0  0  0
  2 33  1  0  0  0  0
  2 34  1  0  0  0  0
  3  5  1  0  0  0  0
  3  6  1  0  0  0  0
  3  9  1  0  0  0  0
  3 13  1  0  0  0  0
  4  7  1  0  0  0  0
  4  8  1  0  0  0  0
  4 10  1  0  0  0  0
  5  7  1  0  0  0  0
  5 14  1  0  0  0  0
  5 15  1  0  0  0  0
  6  8  1  0  0  0  0
  6 16  1  0  0  0  0
  6 17  1  0  0  0  0
  7 18  1  0  0  0  0
  7 19  1  0  0  0  0
  8 20  1  0  0  0  0
  8 21  1  0  0  0  0
  9 11  1  0  0  0  0
  9 12  1  0  0  0  0
 10 22  1  0  0  0  0
 10 23  1  0  0  0  0
 10 24  1  0  0  0  0
 11 25  1  0  0  0  0
 11 26  1  0  0  0  0
 11 27  1  0  0  0  0
 12 28  1  0  0  0  0
 12 29  1  0  0  0  0
 12 30  1  0  0  0  0
M  END
> <PUBCHEM_COMPOUND_CID>
6650

> <PUBCHEM_CONFORMER_RMSD>
0.6

> <PUBCHEM_CONFORMER_DIVERSEORDER>
2
1
3

> <PUBCHEM_MMFF94_PARTIAL_CHARGES>
8
1 -0.99
2 -0.99
31 0.36
32 0.36
33 0.36
34 0.36
4 0.27
9 0.27

> <PUBCHEM_EFFECTIVE_ROTOR_COUNT>
2.2

> <PUBCHEM_PHARMACOPHORE_FEATURES>
6
1 1 cation
1 1 donor
1 2 cation
1 2 donor
3 9 11 12 hydrophobe
6 3 4 5 6 7 8 rings

> <PUBCHEM_HEAVY_ATOM_COUNT>
12

> <PUBCHEM_ATOM_DEF_STEREO_COUNT>
0

> <PUBCHEM_ATOM_UDEF_STEREO_COUNT>
0

> <PUBCHEM_BOND_DEF_STEREO_COUNT>
0

> <PUBCHEM_BOND_UDEF_STEREO_COUNT>
0

> <PUBCHEM_ISOTOPIC_ATOM_COUNT>
0

> <PUBCHEM_COMPONENT_COUNT>
1

> <PUBCHEM_CACTVS_TAUTO_COUNT>
1

> <PUBCHEM_CONFORMER_ID>
000019FA00000002

> <PUBCHEM_MMFF94_ENERGY>
15.1987

> <PUBCHEM_FEATURE_SELFOVERLAP>
30.446

> <PUBCHEM_SHAPE_FINGERPRINT>
10219947 1 18410569587347591773
10857977 72 18411704270409852617
11062470 55 17632581543591376533
12032990 46 18411694392191066543
12491281 212 17240747502353040387
12524768 44 18412542076784832036
12932764 1 17132116857150600727
13296908 3 17988918959659151299
14144814 61 18408038498458257021
14325111 11 18410292518886124509
14993402 34 18335983082227217853
15310529 11 16988850474982385989
15775835 57 18408321064383008693
16945 1 18411417319175727295
17844478 74 18130490990330468609
20201158 50 18408040736310454150
20711983 171 16588010347117934161
20715346 28 18059565867356862895
21028194 46 17895197735274433575
23235685 24 18335422352539812261
23402539 116 16226339195880395053
23419403 2 15659513274734096981
23552423 10 18342176682824343550
2748010 2 18122345949804414853
29004967 10 15841557353360647468
3248919 1 17603863416380702590
3286 77 17167871893080861006
369184 2 16950006932586176167
5084963 1 18187648045659288902
528886 8 18409450245692370702
7364860 26 18335139774500357004
8030462 33 17346318240859698140

> <PUBCHEM_SHAPE_MULTIPOLES>
236.99
5.17
1.43
1.01
0.43
0.01
-0.37
0
0.31
-0.4
0.23
0.03
-0.01
0

> <PUBCHEM_SHAPE_SELFOVERLAP>
465.195

> <PUBCHEM_SHAPE_VOLUME>
141.8

> <PUBCHEM_COORDINATE_TYPE>
2
5
10

$$$$

