11194
  -OEChem-06261205223D

 17 16  0     0  0  0  0  0  0999 V2000
   -0.0004   -0.1697    0.0000 O   0  0  0  0  0  0  0  0  0  0  0  0
   -1.1562    0.6292   -0.2092 C   0  0  0  0  0  0  0  0  0  0  0  0
    1.1564    0.6296    0.2087 C   0  0  0  0  0  0  0  0  0  0  0  0
   -2.3289   -0.2698   -0.4207 C   0  0  0  0  0  0  0  0  0  0  0  0
    2.3289   -0.2695    0.4210 C   0  0  0  0  0  0  0  0  0  0  0  0
   -3.4165   -0.2747    0.3577 C   0  0  0  0  0  0  0  0  0  0  0  0
    3.4166   -0.2751   -0.3575 C   0  0  0  0  0  0  0  0  0  0  0  0
   -1.3105    1.2878    0.6538 H   0  0  0  0  0  0  0  0  0  0  0  0
   -1.0186    1.2504   -1.1017 H   0  0  0  0  0  0  0  0  0  0  0  0
    1.3106    1.2873   -0.6548 H   0  0  0  0  0  0  0  0  0  0  0  0
    1.0186    1.2515    1.1007 H   0  0  0  0  0  0  0  0  0  0  0  0
   -2.2882   -0.9547   -1.2637 H   0  0  0  0  0  0  0  0  0  0  0  0
    2.2882   -0.9536    1.2645 H   0  0  0  0  0  0  0  0  0  0  0  0
   -4.2377   -0.9519    0.1496 H   0  0  0  0  0  0  0  0  0  0  0  0
   -3.5081    0.3899    1.2096 H   0  0  0  0  0  0  0  0  0  0  0  0
    4.2377   -0.9522   -0.1488 H   0  0  0  0  0  0  0  0  0  0  0  0
    3.5083    0.3888   -1.2100 H   0  0  0  0  0  0  0  0  0  0  0  0
  1  2  1  0  0  0  0
  1  3  1  0  0  0  0
  2  4  1  0  0  0  0
  2  8  1  0  0  0  0
  2  9  1  0  0  0  0
  3  5  1  0  0  0  0
  3 10  1  0  0  0  0
  3 11  1  0  0  0  0
  4  6  2  0  0  0  0
  4 12  1  0  0  0  0
  5  7  2  0  0  0  0
  5 13  1  0  0  0  0
  6 14  1  0  0  0  0
  6 15  1  0  0  0  0
  7 16  1  0  0  0  0
  7 17  1  0  0  0  0
M  END
> <PUBCHEM_COMPOUND_CID>
11194

> <PUBCHEM_CONFORMER_RMSD>
0.6

> <PUBCHEM_CONFORMER_DIVERSEORDER>
1
8
6
14
2
13
3
12
9
11
10
7
5
4

> <PUBCHEM_MMFF94_PARTIAL_CHARGES>
13
1 -0.56
12 0.15
13 0.15
14 0.15
15 0.15
16 0.15
17 0.15
2 0.42
3 0.42
4 -0.29
5 -0.29
6 -0.3
7 -0.3

> <PUBCHEM_EFFECTIVE_ROTOR_COUNT>
4

> <PUBCHEM_PHARMACOPHORE_FEATURES>
3
1 1 acceptor
1 6 hydrophobe
1 7 hydrophobe

> <PUBCHEM_HEAVY_ATOM_COUNT>
7

> <PUBCHEM_ATOM_DEF_STEREO_COUNT>
0

> <PUBCHEM_ATOM_UDEF_STEREO_COUNT>
0

> <PUBCHEM_BOND_DEF_STEREO_COUNT>
0

> <PUBCHEM_BOND_UDEF_STEREO_COUNT>
0

> <PUBCHEM_ISOTOPIC_ATOM_COUNT>
0

> <PUBCHEM_COMPONENT_COUNT>
1

> <PUBCHEM_CACTVS_TAUTO_COUNT>
1

> <PUBCHEM_CONFORMER_ID>
00002BBA00000001

> <PUBCHEM_MMFF94_ENERGY>
5.8481

> <PUBCHEM_FEATURE_SELFOVERLAP>
15.223

> <PUBCHEM_SHAPE_FINGERPRINT>
12932764 1 18338530689059658085
14325111 11 18411420613415643208
14390081 3 11240002264920145895
21293036 1 15769772442258684614
5460574 1 6266897978423532968

> <PUBCHEM_SHAPE_MULTIPOLES>
138.19
6.09
0.77
0.71
0
0.07
0
-1.18
0
0
0
0
-0.01
0.07

> <PUBCHEM_SHAPE_SELFOVERLAP>
244.582

> <PUBCHEM_SHAPE_VOLUME>
90.3

> <PUBCHEM_COORDINATE_TYPE>
2
5
10

$$$$

