233493
  -OEChem-07051213062D

 46 49  0     1  0  0  0  0  0999 V2000
    9.5056    2.3999    0.0000 O   0  0  0  0  0  0  0  0  0  0  0  0
    2.8556   -1.9077    0.0000 O   0  0  0  0  0  0  0  0  0  0  0  0
    2.8833    1.1838    0.0000 O   0  5  0  0  0  0  0  0  0  0  0  0
    2.0000   -0.3061    0.0000 O   0  0  0  0  0  0  0  0  0  0  0  0
    2.8718    0.1839    0.0000 N   0  3  0  0  0  0  0  0  0  0  0  0
    8.2487    1.1446    0.0000 C   0  0  1  0  0  0  0  0  0  0  0  0
    8.2487    0.1446    0.0000 C   0  0  2  0  0  0  0  0  0  0  0  0
    7.3827   -0.3554    0.0000 C   0  0  1  0  0  0  0  0  0  0  0  0
    6.5167    0.1446    0.0000 C   0  0  2  0  0  0  0  0  0  0  0  0
    9.1949    1.4493    0.0000 C   0  0  2  0  0  0  0  0  0  0  0  0
    7.3827    1.6446    0.0000 C   0  0  0  0  0  0  0  0  0  0  0  0
    9.1949   -0.1601    0.0000 C   0  0  0  0  0  0  0  0  0  0  0  0
    6.5167    1.1446    0.0000 C   0  0  0  0  0  0  0  0  0  0  0  0
    9.7785    0.6446    0.0000 C   0  0  0  0  0  0  0  0  0  0  0  0
    7.3987   -1.3969    0.0000 C   0  0  0  0  0  0  0  0  0  0  0  0
    8.2487    2.1446    0.0000 C   0  0  0  0  0  0  0  0  0  0  0  0
    5.6067   -0.3622    0.0000 C   0  0  0  0  0  0  0  0  0  0  0  0
    6.5007   -1.9246    0.0000 C   0  0  0  0  0  0  0  0  0  0  0  0
    5.5986   -1.4038    0.0000 C   0  0  0  0  0  0  0  0  0  0  0  0
    4.6798    0.2018    0.0000 C   0  0  0  0  0  0  0  0  0  0  0  0
    4.6632   -1.9536    0.0000 C   0  0  0  0  0  0  0  0  0  0  0  0
    3.7319   -0.3261    0.0000 C   0  0  0  0  0  0  0  0  0  0  0  0
    3.7236   -1.4111    0.0000 C   0  0  0  0  0  0  0  0  0  0  0  0
    8.3387   -0.7006    0.0000 H   0  0  0  0  0  0  0  0  0  0  0  0
    8.1221   -0.7747    0.0000 H   0  0  0  0  0  0  0  0  0  0  0  0
    7.2528    0.5696    0.0000 H   0  0  0  0  0  0  0  0  0  0  0  0
    8.7575    1.8887    0.0000 H   0  0  0  0  0  0  0  0  0  0  0  0
    7.7812    2.1196    0.0000 H   0  0  0  0  0  0  0  0  0  0  0  0
    6.9842    2.1196    0.0000 H   0  0  0  0  0  0  0  0  0  0  0  0
    8.9439   -0.7270    0.0000 H   0  0  0  0  0  0  0  0  0  0  0  0
    9.7323   -0.4693    0.0000 H   0  0  0  0  0  0  0  0  0  0  0  0
    6.3046    1.7272    0.0000 H   0  0  0  0  0  0  0  0  0  0  0  0
    5.9061    1.0370    0.0000 H   0  0  0  0  0  0  0  0  0  0  0  0
   10.2394    0.2299    0.0000 H   0  0  0  0  0  0  0  0  0  0  0  0
   10.2394    1.0593    0.0000 H   0  0  0  0  0  0  0  0  0  0  0  0
    7.6168   -1.9773    0.0000 H   0  0  0  0  0  0  0  0  0  0  0  0
    8.0079   -1.2814    0.0000 H   0  0  0  0  0  0  0  0  0  0  0  0
    8.8687    2.1446    0.0000 H   0  0  0  0  0  0  0  0  0  0  0  0
    8.2487    2.7646    0.0000 H   0  0  0  0  0  0  0  0  0  0  0  0
    7.6287    2.1446    0.0000 H   0  0  0  0  0  0  0  0  0  0  0  0
    6.1034   -2.4006    0.0000 H   0  0  0  0  0  0  0  0  0  0  0  0
    6.9017   -2.3975    0.0000 H   0  0  0  0  0  0  0  0  0  0  0  0
   10.1123    2.5277    0.0000 H   0  0  0  0  0  0  0  0  0  0  0  0
    4.6918    0.8217    0.0000 H   0  0  0  0  0  0  0  0  0  0  0  0
    4.6656   -2.5736    0.0000 H   0  0  0  0  0  0  0  0  0  0  0  0
    2.8532   -2.5277    0.0000 H   0  0  0  0  0  0  0  0  0  0  0  0
 10  1  1  1  0  0  0
  1 43  1  0  0  0  0
  2 23  1  0  0  0  0
  2 46  1  0  0  0  0
  3  5  1  0  0  0  0
  4  5  2  0  0  0  0
  5 22  1  0  0  0  0
  6  7  1  0  0  0  0
  6 10  1  0  0  0  0
  6 11  1  0  0  0  0
  6 16  1  1  0  0  0
  7  8  1  0  0  0  0
  7 12  1  0  0  0  0
  7 24  1  6  0  0  0
  8  9  1  0  0  0  0
  8 15  1  0  0  0  0
  8 25  1  1  0  0  0
  9 13  1  0  0  0  0
  9 17  1  0  0  0  0
  9 26  1  6  0  0  0
 10 14  1  0  0  0  0
 10 27  1  0  0  0  0
 11 13  1  0  0  0  0
 11 28  1  0  0  0  0
 11 29  1  0  0  0  0
 12 14  1  0  0  0  0
 12 30  1  0  0  0  0
 12 31  1  0  0  0  0
 13 32  1  0  0  0  0
 13 33  1  0  0  0  0
 14 34  1  0  0  0  0
 14 35  1  0  0  0  0
 15 18  1  0  0  0  0
 15 36  1  0  0  0  0
 15 37  1  0  0  0  0
 16 38  1  0  0  0  0
 16 39  1  0  0  0  0
 16 40  1  0  0  0  0
 17 19  1  0  0  0  0
 17 20  2  0  0  0  0
 18 19  1  0  0  0  0
 18 41  1  0  0  0  0
 18 42  1  0  0  0  0
 19 21  2  0  0  0  0
 20 22  1  0  0  0  0
 20 44  1  0  0  0  0
 21 23  1  0  0  0  0
 21 45  1  0  0  0  0
 22 23  2  0  0  0  0
M  CHG  2   3  -1   5   1
M  END
> <PUBCHEM_COMPOUND_CID>
233493

> <PUBCHEM_COMPOUND_CANONICALIZED>
1

> <PUBCHEM_CACTVS_COMPLEXITY>
492

> <PUBCHEM_CACTVS_HBOND_ACCEPTOR>
4

> <PUBCHEM_CACTVS_HBOND_DONOR>
2

> <PUBCHEM_CACTVS_ROTATABLE_BOND>
0

> <PUBCHEM_CACTVS_SUBSKEYS>
AAADceB6OAAAAAAAAAAAAAAAAAAAAYAAAAAwYMAAAAAAAGDBAAAAHgAECAAADxyhmAIyxoAQQgCBAiRCQwCCAAAgIgAgiAAHbIoKNiKSkZOAcABkwFEI2AeQwPAPqAABQAAQEADQAAaAACAgAIAADAAAAA==

> <PUBCHEM_IUPAC_OPENEYE_NAME>
(8R,9S,13S,14S,17S)-13-methyl-2-nitro-6,7,8,9,11,12,14,15,16,17-decahydrocyclopenta[a]phenanthrene-3,17-diol

> <PUBCHEM_IUPAC_CAS_NAME>
(8R,9S,13S,14S,17S)-13-methyl-2-nitro-6,7,8,9,11,12,14,15,16,17-decahydrocyclopenta[a]phenanthrene-3,17-diol

> <PUBCHEM_IUPAC_NAME>
(8R,9S,13S,14S,17S)-13-methyl-2-nitro-6,7,8,9,11,12,14,15,16,17-decahydrocyclopenta[a]phenanthrene-3,17-diol

> <PUBCHEM_IUPAC_SYSTEMATIC_NAME>
(8R,9S,13S,14S,17S)-13-methyl-2-nitro-6,7,8,9,11,12,14,15,16,17-decahydrocyclopenta[a]phenanthrene-3,17-diol

> <PUBCHEM_IUPAC_TRADITIONAL_NAME>
(8R,9S,13S,14S,17S)-13-methyl-2-nitro-6,7,8,9,11,12,14,15,16,17-decahydrocyclopenta[a]phenanthrene-3,17-diol

> <PUBCHEM_IUPAC_INCHI>
InChI=1S/C18H23NO4/c1-18-7-6-11-12(14(18)4-5-17(18)21)3-2-10-8-16(20)15(19(22)23)9-13(10)11/h8-9,11-12,14,17,20-21H,2-7H2,1H3/t11-,12+,14-,17-,18-/m0/s1

> <PUBCHEM_IUPAC_INCHIKEY>
GWIXIEVQSOLTQI-XSSYPUMDSA-N

> <PUBCHEM_XLOGP3>
4.4

> <PUBCHEM_EXACT_MASS>
317.162708

> <PUBCHEM_MOLECULAR_FORMULA>
C18H23NO4

> <PUBCHEM_MOLECULAR_WEIGHT>
317.37952

> <PUBCHEM_OPENEYE_CAN_SMILES>
CC12CCC3C(C1CCC2O)CCC4=CC(=C(C=C34)[N+](=O)[O-])O

> <PUBCHEM_OPENEYE_ISO_SMILES>
C[C@]12CC[C@H]3[C@H]([C@@H]1CC[C@@H]2O)CCC4=CC(=C(C=C34)[N+](=O)[O-])O

> <PUBCHEM_CACTVS_TPSA>
86.3

> <PUBCHEM_MONOISOTOPIC_WEIGHT>
317.162708

> <PUBCHEM_TOTAL_CHARGE>
0

> <PUBCHEM_HEAVY_ATOM_COUNT>
23

> <PUBCHEM_ATOM_DEF_STEREO_COUNT>
5

> <PUBCHEM_ATOM_UDEF_STEREO_COUNT>
0

> <PUBCHEM_BOND_DEF_STEREO_COUNT>
0

> <PUBCHEM_BOND_UDEF_STEREO_COUNT>
0

> <PUBCHEM_ISOTOPIC_ATOM_COUNT>
0

> <PUBCHEM_COMPONENT_COUNT>
1

> <PUBCHEM_CACTVS_TAUTO_COUNT>
12

> <PUBCHEM_COORDINATE_TYPE>
1
5
255

> <PUBCHEM_BONDANNOTATIONS>
10  1  5
17  19  8
17  20  8
19  21  8
20  22  8
21  23  8
22  23  8
6  16  5
7  24  6
8  25  5
9  26  6

$$$$

