10629
  -OEChem-06261204463D

 16 17  0     0  0  0  0  0  0999 V2000
   -1.0638   -2.0141   -0.0003 S   0  0  0  0  0  0  0  0  0  0  0  0
   -2.3373    1.6209    0.0005 O   0  0  0  0  0  0  0  0  0  0  0  0
   -0.1808    0.4160   -0.0001 C   0  0  0  0  0  0  0  0  0  0  0  0
    0.2612   -0.9106    0.0001 C   0  0  0  0  0  0  0  0  0  0  0  0
   -1.6144    0.4858    0.0001 C   0  0  0  0  0  0  0  0  0  0  0  0
    0.7914    1.4453   -0.0003 C   0  0  0  0  0  0  0  0  0  0  0  0
    1.6333   -1.2299    0.0004 C   0  0  0  0  0  0  0  0  0  0  0  0
   -2.2104   -0.7530   -0.0003 C   0  0  0  0  0  0  0  0  0  0  0  0
    2.1533    1.1320   -0.0005 C   0  0  0  0  0  0  0  0  0  0  0  0
    2.5674   -0.1923    0.0004 C   0  0  0  0  0  0  0  0  0  0  0  0
    0.4900    2.4899   -0.0006 H   0  0  0  0  0  0  0  0  0  0  0  0
    1.9668   -2.2638    0.0006 H   0  0  0  0  0  0  0  0  0  0  0  0
   -3.2680   -0.9779   -0.0003 H   0  0  0  0  0  0  0  0  0  0  0  0
    2.8896    1.9307   -0.0008 H   0  0  0  0  0  0  0  0  0  0  0  0
    3.6286   -0.4262    0.0007 H   0  0  0  0  0  0  0  0  0  0  0  0
   -1.7562    2.4006    0.0008 H   0  0  0  0  0  0  0  0  0  0  0  0
  1  4  1  0  0  0  0
  1  8  1  0  0  0  0
  2  5  1  0  0  0  0
  2 16  1  0  0  0  0
  3  4  1  0  0  0  0
  3  5  1  0  0  0  0
  3  6  2  0  0  0  0
  4  7  2  0  0  0  0
  5  8  2  0  0  0  0
  6  9  1  0  0  0  0
  6 11  1  0  0  0  0
  7 10  1  0  0  0  0
  7 12  1  0  0  0  0
  8 13  1  0  0  0  0
  9 10  2  0  0  0  0
  9 14  1  0  0  0  0
 10 15  1  0  0  0  0
M  END
> <PUBCHEM_COMPOUND_CID>
10629

> <PUBCHEM_CONFORMER_RMSD>
0.4

> <PUBCHEM_CONFORMER_DIVERSEORDER>
1

> <PUBCHEM_MMFF94_PARTIAL_CHARGES>
15
1 -0.08
10 -0.15
11 0.15
12 0.15
13 0.15
14 0.15
15 0.15
16 0.45
2 -0.51
4 0.04
5 0.06
6 -0.15
7 -0.15
8 -0.11
9 -0.15

> <PUBCHEM_EFFECTIVE_ROTOR_COUNT>
0

> <PUBCHEM_PHARMACOPHORE_FEATURES>
3
1 2 donor
5 1 3 4 5 8 rings
6 3 4 6 7 9 10 rings

> <PUBCHEM_HEAVY_ATOM_COUNT>
10

> <PUBCHEM_ATOM_DEF_STEREO_COUNT>
0

> <PUBCHEM_ATOM_UDEF_STEREO_COUNT>
0

> <PUBCHEM_BOND_DEF_STEREO_COUNT>
0

> <PUBCHEM_BOND_UDEF_STEREO_COUNT>
0

> <PUBCHEM_ISOTOPIC_ATOM_COUNT>
0

> <PUBCHEM_COMPONENT_COUNT>
1

> <PUBCHEM_CACTVS_TAUTO_COUNT>
2

> <PUBCHEM_CONFORMER_ID>
0000298500000001

> <PUBCHEM_MMFF94_ENERGY>
18.5882

> <PUBCHEM_FEATURE_SELFOVERLAP>
15.283

> <PUBCHEM_SHAPE_FINGERPRINT>
11206711 2 18339079272358024293
12897270 3 18194121819741788918
14325111 11 18410575093253195392
16945 1 18338798892645569798
18185500 45 18411421700216611322
19973954 147 18339078190110719700
21040471 1 18410575093416576292
23402655 69 18192164883077953925
23552423 10 18200031716395314870
23559900 14 18261945341774894510
241688 4 17833270818068319451
2748010 2 18339078301706055503
369184 2 18040998393002674146
5084963 1 18187643561650167450
528886 8 18338521966002231040
66348 1 18338800017921700646

> <PUBCHEM_SHAPE_MULTIPOLES>
203.78
3.39
1.95
0.62
0.4
0.11
0
-0.33
0
-0.53
0
0.01
0.03
0

> <PUBCHEM_SHAPE_SELFOVERLAP>
434.355

> <PUBCHEM_SHAPE_VOLUME>
114.6

> <PUBCHEM_COORDINATE_TYPE>
2
5
10

$$$$

