439659
  -OEChem-07051212462D

 24 23  0     1  0  0  0  0  0999 V2000
    5.1350    1.8450    0.0000 O   0  0  0  0  0  0  0  0  0  0  0  0
    2.5369    0.3450    0.0000 O   0  0  0  0  0  0  0  0  0  0  0  0
    3.4030    1.8450    0.0000 O   0  0  0  0  0  0  0  0  0  0  0  0
    6.8671    0.8450    0.0000 O   0  0  0  0  0  0  0  0  0  0  0  0
    6.0010   -0.6550    0.0000 O   0  0  0  0  0  0  0  0  0  0  0  0
    4.2690    0.3450    0.0000 C   0  0  3  0  0  0  0  0  0  0  0  0
    4.2690   -0.6550    0.0000 C   0  0  0  0  0  0  0  0  0  0  0  0
    5.1350    0.8450    0.0000 C   0  0  1  0  0  0  0  0  0  0  0  0
    3.4030   -1.1550    0.0000 C   0  0  0  0  0  0  0  0  0  0  0  0
    3.4030    0.8450    0.0000 C   0  0  0  0  0  0  0  0  0  0  0  0
    3.4030   -2.1550    0.0000 C   0  0  0  0  0  0  0  0  0  0  0  0
    6.0010    0.3450    0.0000 C   0  0  0  0  0  0  0  0  0  0  0  0
    4.2690    1.1950    0.0000 H   0  0  0  0  0  0  0  0  0  0  0  0
    4.4810   -1.2376    0.0000 H   0  0  0  0  0  0  0  0  0  0  0  0
    4.8796   -0.5473    0.0000 H   0  0  0  0  0  0  0  0  0  0  0  0
    5.6720    1.1550    0.0000 H   0  0  0  0  0  0  0  0  0  0  0  0
    3.1909   -0.5724    0.0000 H   0  0  0  0  0  0  0  0  0  0  0  0
    2.7924   -1.2627    0.0000 H   0  0  0  0  0  0  0  0  0  0  0  0
    2.7830   -2.1550    0.0000 H   0  0  0  0  0  0  0  0  0  0  0  0
    3.4030   -2.7750    0.0000 H   0  0  0  0  0  0  0  0  0  0  0  0
    4.0230   -2.1550    0.0000 H   0  0  0  0  0  0  0  0  0  0  0  0
    5.6720    2.1550    0.0000 H   0  0  0  0  0  0  0  0  0  0  0  0
    2.0000    0.6550    0.0000 H   0  0  0  0  0  0  0  0  0  0  0  0
    7.4040    0.5350    0.0000 H   0  0  0  0  0  0  0  0  0  0  0  0
  8  1  1  6  0  0  0
  1 22  1  0  0  0  0
  2 10  1  0  0  0  0
  2 23  1  0  0  0  0
  3 10  2  0  0  0  0
  4 12  1  0  0  0  0
  4 24  1  0  0  0  0
  5 12  2  0  0  0  0
  6  7  1  0  0  0  0
  6  8  1  0  0  0  0
  6 10  1  0  0  0  0
  6 13  1  0  0  0  0
  7  9  1  0  0  0  0
  7 14  1  0  0  0  0
  7 15  1  0  0  0  0
  8 12  1  0  0  0  0
  8 16  1  0  0  0  0
  9 11  1  0  0  0  0
  9 17  1  0  0  0  0
  9 18  1  0  0  0  0
 11 19  1  0  0  0  0
 11 20  1  0  0  0  0
 11 21  1  0  0  0  0
M  END
> <PUBCHEM_COMPOUND_CID>
439659

> <PUBCHEM_COMPOUND_CANONICALIZED>
1

> <PUBCHEM_CACTVS_COMPLEXITY>
177

> <PUBCHEM_CACTVS_HBOND_ACCEPTOR>
5

> <PUBCHEM_CACTVS_HBOND_DONOR>
3

> <PUBCHEM_CACTVS_ROTATABLE_BOND>
5

> <PUBCHEM_CACTVS_SUBSKEYS>
AAADccBgOAAAAAAAAAAAAAAAAAAAAAAAAAAAAAAAAAAAAAAAAAAAGgAACAAADRSggAICCAAAAgAIAACQCAIAAAAAAAAAAAFAAAABEBYAAAAAQAAFIAABAAHLSAAOAAAAAAAAAAAAAAAAAAAAAAAAAAAAAA==

> <PUBCHEM_IUPAC_OPENEYE_NAME>
(2S)-2-hydroxy-3-propyl-butanedioic acid

> <PUBCHEM_IUPAC_CAS_NAME>
(2S)-2-hydroxy-3-propylbutanedioic acid

> <PUBCHEM_IUPAC_NAME>
(2S)-2-hydroxy-3-propylbutanedioic acid

> <PUBCHEM_IUPAC_SYSTEMATIC_NAME>
(2S)-2-oxidanyl-3-propyl-butanedioic acid

> <PUBCHEM_IUPAC_TRADITIONAL_NAME>
(2S)-2-hydroxy-3-propyl-succinic acid

> <PUBCHEM_IUPAC_INCHI>
InChI=1S/C7H12O5/c1-2-3-4(6(9)10)5(8)7(11)12/h4-5,8H,2-3H2,1H3,(H,9,10)(H,11,12)/t4?,5-/m0/s1

> <PUBCHEM_IUPAC_INCHIKEY>
LOLHYFQEDPGSHZ-AKGZTFGVSA-N

> <PUBCHEM_XLOGP3_AA>
0.1

> <PUBCHEM_EXACT_MASS>
176.068473

> <PUBCHEM_MOLECULAR_FORMULA>
C7H12O5

> <PUBCHEM_MOLECULAR_WEIGHT>
176.16718

> <PUBCHEM_OPENEYE_CAN_SMILES>
CCCC(C(C(=O)O)O)C(=O)O

> <PUBCHEM_OPENEYE_ISO_SMILES>
CCCC([C@@H](C(=O)O)O)C(=O)O

> <PUBCHEM_CACTVS_TPSA>
94.8

> <PUBCHEM_MONOISOTOPIC_WEIGHT>
176.068473

> <PUBCHEM_TOTAL_CHARGE>
0

> <PUBCHEM_HEAVY_ATOM_COUNT>
12

> <PUBCHEM_ATOM_DEF_STEREO_COUNT>
1

> <PUBCHEM_ATOM_UDEF_STEREO_COUNT>
1

> <PUBCHEM_BOND_DEF_STEREO_COUNT>
0

> <PUBCHEM_BOND_UDEF_STEREO_COUNT>
0

> <PUBCHEM_ISOTOPIC_ATOM_COUNT>
0

> <PUBCHEM_COMPONENT_COUNT>
1

> <PUBCHEM_CACTVS_TAUTO_COUNT>
1

> <PUBCHEM_COORDINATE_TYPE>
1
5
255

> <PUBCHEM_BONDANNOTATIONS>
8  1  6
6  13  3

$$$$

