58258
  -OEChem-07051213012D

 43 46  0     0  0  0  0  0  0999 V2000
    4.6046   -0.3183    0.0000 S   0  0  0  0  0  0  0  0  0  0  0  0
    6.3301    2.6765    0.0000 F   0  0  0  0  0  0  0  0  0  0  0  0
    8.9663    0.1796    0.0000 O   0  0  0  0  0  0  0  0  0  0  0  0
    8.9860   -2.8686    0.0000 O   0  0  0  0  0  0  0  0  0  0  0  0
    9.8462   -1.3653    0.0000 O   0  0  0  0  0  0  0  0  0  0  0  0
    4.5981    1.6765    0.0000 N   0  0  0  0  0  0  0  0  0  0  0  0
    2.8660    2.6765    0.0000 N   0  0  0  0  0  0  0  0  0  0  0  0
    6.3141   -1.3650    0.0000 N   0  0  0  0  0  0  0  0  0  0  0  0
    4.5981    2.6765    0.0000 C   0  0  0  0  0  0  0  0  0  0  0  0
    3.7320    1.1765    0.0000 C   0  0  0  0  0  0  0  0  0  0  0  0
    3.7320    3.1765    0.0000 C   0  0  0  0  0  0  0  0  0  0  0  0
    2.8660    1.6765    0.0000 C   0  0  0  0  0  0  0  0  0  0  0  0
    5.4641    1.1765    0.0000 C   0  0  0  0  0  0  0  0  0  0  0  0
    5.4641    0.1765    0.0000 C   0  0  0  0  0  0  0  0  0  0  0  0
    6.3301   -0.3235    0.0000 C   0  0  0  0  0  0  0  0  0  0  0  0
    7.1962    0.1765    0.0000 C   0  0  0  0  0  0  0  0  0  0  0  0
    5.4370   -1.8278    0.0000 C   0  0  0  0  0  0  0  0  0  0  0  0
    6.3301    1.6765    0.0000 C   0  0  0  0  0  0  0  0  0  0  0  0
    4.5912   -1.3099    0.0000 C   0  0  0  0  0  0  0  0  0  0  0  0
    7.1962    1.1765    0.0000 C   0  0  0  0  0  0  0  0  0  0  0  0
    2.0000    3.1765    0.0000 C   0  0  0  0  0  0  0  0  0  0  0  0
    7.2121   -1.8928    0.0000 C   0  0  0  0  0  0  0  0  0  0  0  0
    8.1062   -0.3303    0.0000 C   0  0  0  0  0  0  0  0  0  0  0  0
    8.1142   -1.3719    0.0000 C   0  0  0  0  0  0  0  0  0  0  0  0
    8.9821   -1.8686    0.0000 C   0  0  0  0  0  0  0  0  0  0  0  0
    5.2087    2.5688    0.0000 H   0  0  0  0  0  0  0  0  0  0  0  0
    4.8101    3.2591    0.0000 H   0  0  0  0  0  0  0  0  0  0  0  0
    3.3335    0.7016    0.0000 H   0  0  0  0  0  0  0  0  0  0  0  0
    4.1306    0.7016    0.0000 H   0  0  0  0  0  0  0  0  0  0  0  0
    4.1306    3.6515    0.0000 H   0  0  0  0  0  0  0  0  0  0  0  0
    3.3335    3.6515    0.0000 H   0  0  0  0  0  0  0  0  0  0  0  0
    2.2554    1.7842    0.0000 H   0  0  0  0  0  0  0  0  0  0  0  0
    2.6540    1.0939    0.0000 H   0  0  0  0  0  0  0  0  0  0  0  0
    5.0244   -2.2906    0.0000 H   0  0  0  0  0  0  0  0  0  0  0  0
    5.8191   -2.3160    0.0000 H   0  0  0  0  0  0  0  0  0  0  0  0
    3.9826   -1.1915    0.0000 H   0  0  0  0  0  0  0  0  0  0  0  0
    4.3665   -1.8877    0.0000 H   0  0  0  0  0  0  0  0  0  0  0  0
    7.7331    1.4865    0.0000 H   0  0  0  0  0  0  0  0  0  0  0  0
    2.3100    3.7134    0.0000 H   0  0  0  0  0  0  0  0  0  0  0  0
    1.4631    3.4865    0.0000 H   0  0  0  0  0  0  0  0  0  0  0  0
    1.6900    2.6396    0.0000 H   0  0  0  0  0  0  0  0  0  0  0  0
    7.2097   -2.5127    0.0000 H   0  0  0  0  0  0  0  0  0  0  0  0
    9.5241   -3.1765    0.0000 H   0  0  0  0  0  0  0  0  0  0  0  0
  1 14  1  0  0  0  0
  1 19  1  0  0  0  0
  2 18  1  0  0  0  0
  3 23  2  0  0  0  0
  4 25  1  0  0  0  0
  4 43  1  0  0  0  0
  5 25  2  0  0  0  0
  6  9  1  0  0  0  0
  6 10  1  0  0  0  0
  6 13  1  0  0  0  0
  7 11  1  0  0  0  0
  7 12  1  0  0  0  0
  7 21  1  0  0  0  0
  8 15  1  0  0  0  0
  8 17  1  0  0  0  0
  8 22  1  0  0  0  0
  9 11  1  0  0  0  0
  9 26  1  0  0  0  0
  9 27  1  0  0  0  0
 10 12  1  0  0  0  0
 10 28  1  0  0  0  0
 10 29  1  0  0  0  0
 11 30  1  0  0  0  0
 11 31  1  0  0  0  0
 12 32  1  0  0  0  0
 12 33  1  0  0  0  0
 13 14  1  0  0  0  0
 13 18  2  0  0  0  0
 14 15  2  0  0  0  0
 15 16  1  0  0  0  0
 16 20  2  0  0  0  0
 16 23  1  0  0  0  0
 17 19  1  0  0  0  0
 17 34  1  0  0  0  0
 17 35  1  0  0  0  0
 18 20  1  0  0  0  0
 19 36  1  0  0  0  0
 19 37  1  0  0  0  0
 20 38  1  0  0  0  0
 21 39  1  0  0  0  0
 21 40  1  0  0  0  0
 21 41  1  0  0  0  0
 22 24  2  0  0  0  0
 22 42  1  0  0  0  0
 23 24  1  0  0  0  0
 24 25  1  0  0  0  0
M  END
> <PUBCHEM_COMPOUND_CID>
58258

> <PUBCHEM_COMPOUND_CANONICALIZED>
1

> <PUBCHEM_CACTVS_COMPLEXITY>
608

> <PUBCHEM_CACTVS_HBOND_ACCEPTOR>
8

> <PUBCHEM_CACTVS_HBOND_DONOR>
1

> <PUBCHEM_CACTVS_ROTATABLE_BOND>
2

> <PUBCHEM_CACTVS_SUBSKEYS>
AAADceB7MQBAAAAAAAAAAAAAAAAAAAAAAAA8WIEAAAAAAACxAAAAHwQACAAADAzF2AyyyYMAAgiIAqTWSACCAAAlCBAAiBUIRMgIZD7o1NGUYYhkoADo2ceY2aOeCAAAgAQCAQAQAAEACAQCAAAAAAAAAA==

> <PUBCHEM_IUPAC_INCHI>
InChI=1S/C17H18FN3O3S/c1-19-2-4-20(5-3-19)14-12(18)8-10-13-16(14)25-7-6-21(13)9-11(15(10)22)17(23)24/h8-9H,2-7H2,1H3,(H,23,24)

> <PUBCHEM_IUPAC_INCHIKEY>
NJCJBUHJQLFDSW-UHFFFAOYSA-N

> <PUBCHEM_XLOGP3>
-0.3

> <PUBCHEM_EXACT_MASS>
363.105291

> <PUBCHEM_MOLECULAR_FORMULA>
C17H18FN3O3S

> <PUBCHEM_MOLECULAR_WEIGHT>
363.406523

> <PUBCHEM_OPENEYE_CAN_SMILES>
CN1CCN(CC1)C2=C(C=C3C4=C2SCCN4C=C(C3=O)C(=O)O)F

> <PUBCHEM_OPENEYE_ISO_SMILES>
CN1CCN(CC1)C2=C(C=C3C4=C2SCCN4C=C(C3=O)C(=O)O)F

> <PUBCHEM_CACTVS_TPSA>
89.4

> <PUBCHEM_MONOISOTOPIC_WEIGHT>
363.105291

> <PUBCHEM_TOTAL_CHARGE>
0

> <PUBCHEM_HEAVY_ATOM_COUNT>
25

> <PUBCHEM_ATOM_DEF_STEREO_COUNT>
0

> <PUBCHEM_ATOM_UDEF_STEREO_COUNT>
0

> <PUBCHEM_BOND_DEF_STEREO_COUNT>
0

> <PUBCHEM_BOND_UDEF_STEREO_COUNT>
0

> <PUBCHEM_ISOTOPIC_ATOM_COUNT>
0

> <PUBCHEM_COMPONENT_COUNT>
1

> <PUBCHEM_CACTVS_TAUTO_COUNT>
1

> <PUBCHEM_COORDINATE_TYPE>
1
5
255

> <PUBCHEM_BONDANNOTATIONS>
13  14  8
13  18  8
14  15  8
15  16  8
16  20  8
16  23  8
18  20  8
22  24  8
23  24  8
8  15  8
8  22  8

$$$$

