17395816
  -OEChem-06241222523D

 32 33  0     1  0  0  0  0  0999 V2000
    6.5400   -2.0409   -0.7409 I   0  0  0  0  0  0  0  0  0  0  0  0
    1.4306    1.2035    0.7734 O   0  0  0  0  0  0  0  0  0  0  0  0
   -5.2015   -0.4929   -0.9733 O   0  0  0  0  0  0  0  0  0  0  0  0
   -0.9124    0.1867    1.4640 O   0  0  0  0  0  0  0  0  0  0  0  0
   -1.8669    0.6257   -0.6357 N   0  0  0  0  0  0  0  0  0  0  0  0
   -4.0728    0.1268   -1.4958 N   0  0  0  0  0  0  0  0  0  0  0  0
    0.4121    1.2930   -0.2103 C   0  0  1  0  0  0  0  0  0  0  0  0
   -0.8596    0.6386    0.3238 C   0  0  0  0  0  0  0  0  0  0  0  0
    0.1842    2.7545   -0.5669 C   0  0  0  0  0  0  0  0  0  0  0  0
    2.5542    0.4907    0.4402 C   0  0  0  0  0  0  0  0  0  0  0  0
   -3.1711    0.0906   -0.5105 C   0  0  0  0  0  0  0  0  0  0  0  0
   -3.6693   -0.5339    0.6461 C   0  0  0  0  0  0  0  0  0  0  0  0
    2.4487   -0.8590    0.1040 C   0  0  0  0  0  0  0  0  0  0  0  0
    3.8018    1.1145    0.4384 C   0  0  0  0  0  0  0  0  0  0  0  0
   -4.9489   -0.8820    0.3026 C   0  0  0  0  0  0  0  0  0  0  0  0
    3.5909   -1.5846   -0.2341 C   0  0  0  0  0  0  0  0  0  0  0  0
    4.9440    0.3886    0.1004 C   0  0  0  0  0  0  0  0  0  0  0  0
    4.8385   -0.9609   -0.2360 C   0  0  0  0  0  0  0  0  0  0  0  0
   -6.0424   -1.5590    1.0106 C   0  0  0  0  0  0  0  0  0  0  0  0
    0.6955    0.7637   -1.1310 H   0  0  0  0  0  0  0  0  0  0  0  0
   -0.1829    3.3117    0.3026 H   0  0  0  0  0  0  0  0  0  0  0  0
   -0.5381    2.8806   -1.3783 H   0  0  0  0  0  0  0  0  0  0  0  0
    1.1258    3.2252   -0.8698 H   0  0  0  0  0  0  0  0  0  0  0  0
   -1.6796    1.0211   -1.5532 H   0  0  0  0  0  0  0  0  0  0  0  0
   -3.1974   -0.7186    1.5989 H   0  0  0  0  0  0  0  0  0  0  0  0
    1.4850   -1.3610    0.1102 H   0  0  0  0  0  0  0  0  0  0  0  0
    3.8893    2.1657    0.6991 H   0  0  0  0  0  0  0  0  0  0  0  0
    3.4866   -2.6357   -0.4912 H   0  0  0  0  0  0  0  0  0  0  0  0
    5.9062    0.8944    0.1051 H   0  0  0  0  0  0  0  0  0  0  0  0
   -6.9187   -0.9071    1.0785 H   0  0  0  0  0  0  0  0  0  0  0  0
   -6.3336   -2.4734    0.4846 H   0  0  0  0  0  0  0  0  0  0  0  0
   -5.7447   -1.8334    2.0275 H   0  0  0  0  0  0  0  0  0  0  0  0
  1 18  1  0  0  0  0
  2  7  1  0  0  0  0
  2 10  1  0  0  0  0
  3  6  1  0  0  0  0
  3 15  1  0  0  0  0
  4  8  2  0  0  0  0
  5  8  1  0  0  0  0
  5 11  1  0  0  0  0
  5 24  1  0  0  0  0
  6 11  2  0  0  0  0
  7  8  1  0  0  0  0
  7  9  1  0  0  0  0
  7 20  1  0  0  0  0
  9 21  1  0  0  0  0
  9 22  1  0  0  0  0
  9 23  1  0  0  0  0
 10 13  2  0  0  0  0
 10 14  1  0  0  0  0
 11 12  1  0  0  0  0
 12 15  2  0  0  0  0
 12 25  1  0  0  0  0
 13 16  1  0  0  0  0
 13 26  1  0  0  0  0
 14 17  2  0  0  0  0
 14 27  1  0  0  0  0
 15 19  1  0  0  0  0
 16 18  2  0  0  0  0
 16 28  1  0  0  0  0
 17 18  1  0  0  0  0
 17 29  1  0  0  0  0
 19 30  1  0  0  0  0
 19 31  1  0  0  0  0
 19 32  1  0  0  0  0
M  END
> <PUBCHEM_COMPOUND_CID>
17395816

> <PUBCHEM_CONFORMER_RMSD>
0.6

> <PUBCHEM_CONFORMER_DIVERSEORDER>
1
49
70
13
26
10
51
69
5
43
67
38
32
44
30
9
45
33
17
31
4
41
62
58
12
66
21
48
60
15
11
52
55
18
23
50
37
14
72
39
53
68
28
74
71
73
6
16
2
47
64
35
54
20
75
65
25
59
8
42
3
56
22
19
7
46
40
24
34
29
63
57
36
27
61

> <PUBCHEM_MMFF94_PARTIAL_CHARGES>
24
1 -0.08
10 0.08
11 0.35
12 -0.15
13 -0.15
14 -0.15
15 -0.04
16 -0.15
17 -0.15
18 0.08
19 0.18
2 -0.36
24 0.37
25 0.15
26 0.15
27 0.15
28 0.15
29 0.15
3 -0.02
4 -0.57
5 -0.49
6 -0.41
7 0.34
8 0.57

> <PUBCHEM_EFFECTIVE_ROTOR_COUNT>
5

> <PUBCHEM_PHARMACOPHORE_FEATURES>
6
1 1 hydrophobe
1 2 acceptor
1 4 acceptor
1 5 donor
5 3 6 11 12 15 rings
6 10 13 14 16 17 18 rings

> <PUBCHEM_HEAVY_ATOM_COUNT>
19

> <PUBCHEM_ATOM_DEF_STEREO_COUNT>
0

> <PUBCHEM_ATOM_UDEF_STEREO_COUNT>
1

> <PUBCHEM_BOND_DEF_STEREO_COUNT>
0

> <PUBCHEM_BOND_UDEF_STEREO_COUNT>
0

> <PUBCHEM_ISOTOPIC_ATOM_COUNT>
0

> <PUBCHEM_COMPONENT_COUNT>
1

> <PUBCHEM_CACTVS_TAUTO_COUNT>
3

> <PUBCHEM_CONFORMER_ID>
0109706800000001

> <PUBCHEM_MMFF94_ENERGY>
43.9464

> <PUBCHEM_FEATURE_SELFOVERLAP>
30.455

> <PUBCHEM_SHAPE_FINGERPRINT>
10912923 1 16443633389465096121
11128504 68 15051733066920828567
12236239 1 17530963570687109001
12403259 118 5617246048737309513
12596602 18 15430044235939822602
12616971 3 17313106336617251460
12633257 1 15864074251864539757
13103583 49 16732701632173979479
13402501 40 18343015575789606355
13533116 47 17967533454868644368
13685833 64 18411415094767991331
13955234 65 18187934902889879312
14123256 34 18261385694039887518
1420 363 18412260640584393034
14251732 14 15769768019112354603
14251757 5 13397480384134935401
14251764 30 18413387635460171334
14252887 29 18410297982158599032
14341114 328 15864069849465039162
14350574 20 18408601492142118630
14386348 63 18272651229510149699
14455015 7 18409446981659676499
15188451 53 14707792640092650701
15238133 3 7276536630396094226
15537594 2 18114183008387778550
17844677 252 18410006637305110161
17870717 6 17703790327880525879
1813 80 18187633709064223733
193927 3 18260259776493856374
19784866 240 18410566284649648849
200 152 18186803586380026800
20028762 73 17676211294901598726
20374829 77 18271530883085574528
20621476 21 18201989994113366387
20645477 70 18271244924179071520
20871999 31 17775004638927552356
21033650 10 16701458016896181932
21267235 1 18260822731375436094
21623969 137 18335133180955878983
21637258 2 17676215696973284310
2215653 11 18342188756441344215
22765269 38 8862944948690960707
2297311 6 17632295671090218837
23198884 109 15339114667256342662
23402539 116 18341330093088269536
23402655 69 12535339100310987472
23559900 14 18341334388029295856
239999 70 18271808999888359802
2767999 5 11671778252481988150
2838139 119 13183019631413625398
2871803 45 18342460374315181378
3004659 81 18060701702071758766
314194 84 18259989249188414078
34797466 226 17418084382711854790
351380 180 9367349236284876715
351380 3 17966972729101965070
46194498 28 17560238007678998741
465052 167 18259980470808050270
4990 188 17775291542890475097
5104073 3 18115312297261110392
56616090 284 18060134371024751610
5718773 13 18267869570360604474
77188 2 18408321073221954624

> <PUBCHEM_SHAPE_MULTIPOLES>
375.38
15.71
2.08
1.06
1.96
0.56
0.08
-12.14
1.41
-1.39
0.19
0.85
-0.04
1.38

> <PUBCHEM_SHAPE_SELFOVERLAP>
766.791

> <PUBCHEM_SHAPE_VOLUME>
221.9

> <PUBCHEM_COORDINATE_TYPE>
2
5
10

$$$$

