194622
  -OEChem-07051213102D

 33 34  0     1  0  0  0  0  0999 V2000
    7.2192    0.1443    0.0000 S   0  0  0  0  0  0  0  0  0  0  0  0
    2.9665   -1.0684    0.0000 O   0  0  0  0  0  0  0  0  0  0  0  0
    6.9186   -1.8237    0.0000 O   0  0  0  0  0  0  0  0  0  0  0  0
    5.2713   -2.3589    0.0000 O   0  0  0  0  0  0  0  0  0  0  0  0
    4.6804   -0.3557    0.0000 N   0  0  0  0  0  0  0  0  0  0  0  0
    9.2192    1.8764    0.0000 N   0  0  0  0  0  0  0  0  0  0  0  0
    4.6804    0.6443    0.0000 C   0  0  1  0  0  0  0  0  0  0  0  0
    3.6721    0.6485    0.0000 C   0  0  2  0  0  0  0  0  0  0  0  0
    5.6314    0.9533    0.0000 C   0  0  0  0  0  0  0  0  0  0  0  0
    3.6721   -0.3598    0.0000 C   0  0  0  0  0  0  0  0  0  0  0  0
    2.9665    1.3570    0.0000 C   0  0  0  0  0  0  0  0  0  0  0  0
    5.6314   -0.6647    0.0000 C   0  0  0  0  0  0  0  0  0  0  0  0
    6.2192    0.1443    0.0000 C   0  0  0  0  0  0  0  0  0  0  0  0
    2.0000    1.1002    0.0000 C   0  0  0  0  0  0  0  0  0  0  0  0
    5.9405   -1.6158    0.0000 C   0  0  0  0  0  0  0  0  0  0  0  0
    7.7192    1.0104    0.0000 C   0  0  0  0  0  0  0  0  0  0  0  0
    8.7192    1.0104    0.0000 C   0  0  0  0  0  0  0  0  0  0  0  0
    4.5491    1.4841    0.0000 H   0  0  0  0  0  0  0  0  0  0  0  0
    3.0991    0.4118    0.0000 H   0  0  0  0  0  0  0  0  0  0  0  0
    6.1684    1.2633    0.0000 H   0  0  0  0  0  0  0  0  0  0  0  0
    5.3793    1.5197    0.0000 H   0  0  0  0  0  0  0  0  0  0  0  0
    3.4751    1.7116    0.0000 H   0  0  0  0  0  0  0  0  0  0  0  0
    2.7056    1.9195    0.0000 H   0  0  0  0  0  0  0  0  0  0  0  0
    1.8408    1.6994    0.0000 H   0  0  0  0  0  0  0  0  0  0  0  0
    1.4008    0.9410    0.0000 H   0  0  0  0  0  0  0  0  0  0  0  0
    2.1592    0.5010    0.0000 H   0  0  0  0  0  0  0  0  0  0  0  0
    7.8269    1.6209    0.0000 H   0  0  0  0  0  0  0  0  0  0  0  0
    7.1366    1.2224    0.0000 H   0  0  0  0  0  0  0  0  0  0  0  0
    8.6116    0.3998    0.0000 H   0  0  0  0  0  0  0  0  0  0  0  0
    9.3018    0.7983    0.0000 H   0  0  0  0  0  0  0  0  0  0  0  0
    7.1102   -2.4133    0.0000 H   0  0  0  0  0  0  0  0  0  0  0  0
    9.8392    1.8764    0.0000 H   0  0  0  0  0  0  0  0  0  0  0  0
    8.9092    2.4133    0.0000 H   0  0  0  0  0  0  0  0  0  0  0  0
  1 13  1  0  0  0  0
  1 16  1  0  0  0  0
  2 10  2  0  0  0  0
  3 15  1  0  0  0  0
  3 31  1  0  0  0  0
  4 15  2  0  0  0  0
  5  7  1  0  0  0  0
  5 10  1  0  0  0  0
  5 12  1  0  0  0  0
  6 17  1  0  0  0  0
  6 32  1  0  0  0  0
  6 33  1  0  0  0  0
  7  8  1  0  0  0  0
  7  9  1  0  0  0  0
  7 18  1  6  0  0  0
  8 10  1  0  0  0  0
  8 11  1  6  0  0  0
  8 19  1  0  0  0  0
  9 13  1  0  0  0  0
  9 20  1  0  0  0  0
  9 21  1  0  0  0  0
 11 14  1  0  0  0  0
 11 22  1  0  0  0  0
 11 23  1  0  0  0  0
 12 13  2  0  0  0  0
 12 15  1  0  0  0  0
 14 24  1  0  0  0  0
 14 25  1  0  0  0  0
 14 26  1  0  0  0  0
 16 17  1  0  0  0  0
 16 27  1  0  0  0  0
 16 28  1  0  0  0  0
 17 29  1  0  0  0  0
 17 30  1  0  0  0  0
M  END
> <PUBCHEM_COMPOUND_CID>
194622

> <PUBCHEM_COMPOUND_CANONICALIZED>
1

> <PUBCHEM_CACTVS_COMPLEXITY>
394

> <PUBCHEM_CACTVS_HBOND_ACCEPTOR>
5

> <PUBCHEM_CACTVS_HBOND_DONOR>
2

> <PUBCHEM_CACTVS_ROTATABLE_BOND>
5

> <PUBCHEM_CACTVS_SUBSKEYS>
AAADceBzMABAAAAAAAAAAAAAAABYAQAAAAAAAAAABAAAAAAAAAAAHgQQCAAADSjFwASCCANAAgiIAAXQWAAAAAAgABAACIGIAEgCBBoggCAEEAAAlgC4EQMYAAAOAAAAAAAAAAAAAAAAAAAAAAAAAAAAAA==

> <PUBCHEM_IUPAC_OPENEYE_NAME>
(5R,6R)-3-(2-aminoethylsulfanyl)-6-ethyl-7-oxo-1-azabicyclo[3.2.0]hept-2-ene-2-carboxylic acid

> <PUBCHEM_IUPAC_CAS_NAME>
(5R,6R)-3-(2-aminoethylthio)-6-ethyl-7-oxo-1-azabicyclo[3.2.0]hept-2-ene-2-carboxylic acid

> <PUBCHEM_IUPAC_NAME>
(5R,6R)-3-(2-aminoethylsulfanyl)-6-ethyl-7-oxo-1-azabicyclo[3.2.0]hept-2-ene-2-carboxylic acid

> <PUBCHEM_IUPAC_SYSTEMATIC_NAME>
(5R,6R)-3-(2-azanylethylsulfanyl)-6-ethyl-7-oxidanylidene-1-azabicyclo[3.2.0]hept-2-ene-2-carboxylic acid

> <PUBCHEM_IUPAC_TRADITIONAL_NAME>
(5R,6R)-3-(2-aminoethylthio)-6-ethyl-7-keto-1-azabicyclo[3.2.0]hept-2-ene-2-carboxylic acid

> <PUBCHEM_IUPAC_INCHI>
InChI=1S/C11H16N2O3S/c1-2-6-7-5-8(17-4-3-12)9(11(15)16)13(7)10(6)14/h6-7H,2-5,12H2,1H3,(H,15,16)/t6-,7-/m1/s1

> <PUBCHEM_IUPAC_INCHIKEY>
PSJNLRROOZKIHF-RNFRBKRXSA-N

> <PUBCHEM_XLOGP3_AA>
-2.4

> <PUBCHEM_EXACT_MASS>
256.088163

> <PUBCHEM_MOLECULAR_FORMULA>
C11H16N2O3S

> <PUBCHEM_MOLECULAR_WEIGHT>
256.32134

> <PUBCHEM_OPENEYE_CAN_SMILES>
CCC1C2CC(=C(N2C1=O)C(=O)O)SCCN

> <PUBCHEM_OPENEYE_ISO_SMILES>
CC[C@@H]1[C@H]2CC(=C(N2C1=O)C(=O)O)SCCN

> <PUBCHEM_CACTVS_TPSA>
109

> <PUBCHEM_MONOISOTOPIC_WEIGHT>
256.088163

> <PUBCHEM_TOTAL_CHARGE>
0

> <PUBCHEM_HEAVY_ATOM_COUNT>
17

> <PUBCHEM_ATOM_DEF_STEREO_COUNT>
2

> <PUBCHEM_ATOM_UDEF_STEREO_COUNT>
0

> <PUBCHEM_BOND_DEF_STEREO_COUNT>
0

> <PUBCHEM_BOND_UDEF_STEREO_COUNT>
0

> <PUBCHEM_ISOTOPIC_ATOM_COUNT>
0

> <PUBCHEM_COMPONENT_COUNT>
1

> <PUBCHEM_CACTVS_TAUTO_COUNT>
2

> <PUBCHEM_COORDINATE_TYPE>
1
5
255

> <PUBCHEM_BONDANNOTATIONS>
7  18  6
8  11  6

$$$$

