153909
  -OEChem-07051213003D

 44 45  0     0  0  0  0  0  0999 V2000
    2.5592    0.9456   -1.4659 S   0  0  0  0  0  0  0  0  0  0  0  0
    2.5671    0.5405   -2.8585 O   0  0  0  0  0  0  0  0  0  0  0  0
    3.5539    1.8752   -0.9669 O   0  0  0  0  0  0  0  0  0  0  0  0
    1.5124    1.2073    1.9363 O   0  0  0  0  0  0  0  0  0  0  0  0
   -0.2022   -0.3703   -1.7228 O   0  0  0  0  0  0  0  0  0  0  0  0
    3.8038    1.4192    1.8783 O   0  0  0  0  0  0  0  0  0  0  0  0
   -3.2734   -2.7134    0.3016 O   0  0  0  0  0  0  0  0  0  0  0  0
    0.9931    1.4984   -1.0517 N   0  0  0  0  0  0  0  0  0  0  0  0
   -1.4316    1.3959   -0.8597 N   0  0  0  0  0  0  0  0  0  0  0  0
   -3.6007    1.3192    0.0082 N   0  0  0  0  0  0  0  0  0  0  0  0
   -2.3211   -0.6889   -0.2883 N   0  0  0  0  0  0  0  0  0  0  0  0
   -4.5455   -0.8044    0.6045 N   0  0  0  0  0  0  0  0  0  0  0  0
    2.6527   -0.5317   -0.5000 C   0  0  0  0  0  0  0  0  0  0  0  0
    2.7460   -0.4710    0.8818 C   0  0  0  0  0  0  0  0  0  0  0  0
    2.6294   -1.7483   -1.1657 C   0  0  0  0  0  0  0  0  0  0  0  0
    2.8177   -1.6549    1.6161 C   0  0  0  0  0  0  0  0  0  0  0  0
   -0.2320    0.7743   -1.2698 C   0  0  0  0  0  0  0  0  0  0  0  0
    2.7011   -2.9321   -0.4314 C   0  0  0  0  0  0  0  0  0  0  0  0
    2.7952   -2.8854    0.9594 C   0  0  0  0  0  0  0  0  0  0  0  0
    2.7725    0.7947    1.6028 C   0  0  0  0  0  0  0  0  0  0  0  0
   -2.5288    0.6206   -0.3432 C   0  0  0  0  0  0  0  0  0  0  0  0
   -1.5264    2.8523   -0.9754 C   0  0  0  0  0  0  0  0  0  0  0  0
   -4.5815    0.5319    0.4789 C   0  0  0  0  0  0  0  0  0  0  0  0
   -3.3847   -1.3461    0.2015 C   0  0  0  0  0  0  0  0  0  0  0  0
   -5.8382    1.2109    0.9058 C   0  0  0  0  0  0  0  0  0  0  0  0
    1.4065    2.4441    2.6495 C   0  0  0  0  0  0  0  0  0  0  0  0
   -2.0446   -3.2834   -0.1255 C   0  0  0  0  0  0  0  0  0  0  0  0
    0.9455    2.3703   -0.5099 H   0  0  0  0  0  0  0  0  0  0  0  0
    2.5540   -1.8203   -2.2459 H   0  0  0  0  0  0  0  0  0  0  0  0
    2.8910   -1.6321    2.7004 H   0  0  0  0  0  0  0  0  0  0  0  0
    2.6822   -3.8904   -0.9422 H   0  0  0  0  0  0  0  0  0  0  0  0
    2.8503   -3.8072    1.5310 H   0  0  0  0  0  0  0  0  0  0  0  0
   -2.4941    3.1283   -1.4054 H   0  0  0  0  0  0  0  0  0  0  0  0
   -1.4224    3.2897    0.0220 H   0  0  0  0  0  0  0  0  0  0  0  0
   -0.7474    3.2525   -1.6307 H   0  0  0  0  0  0  0  0  0  0  0  0
   -6.7123    0.6313    0.5930 H   0  0  0  0  0  0  0  0  0  0  0  0
   -5.8531    1.3104    1.9952 H   0  0  0  0  0  0  0  0  0  0  0  0
   -5.9165    2.2090    0.4634 H   0  0  0  0  0  0  0  0  0  0  0  0
    1.9217    2.3696    3.6116 H   0  0  0  0  0  0  0  0  0  0  0  0
    1.8202    3.2608    2.0506 H   0  0  0  0  0  0  0  0  0  0  0  0
    0.3468    2.6424    2.8302 H   0  0  0  0  0  0  0  0  0  0  0  0
   -1.2073   -2.9130    0.4759 H   0  0  0  0  0  0  0  0  0  0  0  0
   -1.8718   -3.0946   -1.1904 H   0  0  0  0  0  0  0  0  0  0  0  0
   -2.1073   -4.3662    0.0176 H   0  0  0  0  0  0  0  0  0  0  0  0
  1  2  2  0  0  0  0
  1  3  2  0  0  0  0
  1  8  1  0  0  0  0
  1 13  1  0  0  0  0
  4 20  1  0  0  0  0
  4 26  1  0  0  0  0
  5 17  2  0  0  0  0
  6 20  2  0  0  0  0
  7 24  1  0  0  0  0
  7 27  1  0  0  0  0
  8 17  1  0  0  0  0
  8 28  1  0  0  0  0
  9 17  1  0  0  0  0
  9 21  1  0  0  0  0
  9 22  1  0  0  0  0
 10 21  1  0  0  0  0
 10 23  2  0  0  0  0
 11 21  2  0  0  0  0
 11 24  1  0  0  0  0
 12 23  1  0  0  0  0
 12 24  2  0  0  0  0
 13 14  1  0  0  0  0
 13 15  2  0  0  0  0
 14 16  2  0  0  0  0
 14 20  1  0  0  0  0
 15 18  1  0  0  0  0
 15 29  1  0  0  0  0
 16 19  1  0  0  0  0
 16 30  1  0  0  0  0
 18 19  2  0  0  0  0
 18 31  1  0  0  0  0
 19 32  1  0  0  0  0
 22 33  1  0  0  0  0
 22 34  1  0  0  0  0
 22 35  1  0  0  0  0
 23 25  1  0  0  0  0
 25 36  1  0  0  0  0
 25 37  1  0  0  0  0
 25 38  1  0  0  0  0
 26 39  1  0  0  0  0
 26 40  1  0  0  0  0
 26 41  1  0  0  0  0
 27 42  1  0  0  0  0
 27 43  1  0  0  0  0
 27 44  1  0  0  0  0
M  END
> <PUBCHEM_COMPOUND_CID>
153909

> <PUBCHEM_CONFORMER_RMSD>
1

> <PUBCHEM_CONFORMER_DIVERSEORDER>
1
310
304
48
238
271
165
75
262
47
224
168
132
126
339
336
295
195
306
308
263
111
98
301
260
189
278
228
170
90
130
197
234
55
305
324
122
231
110
56
319
167
320
298
253
230
270
337
88
49
282
117
180
203
182
208
246
345
273
105
136
93
227
294
240
277
205
181
334
138
121
156
330
245
28
169
318
223
326
25
323
177
342
102
289
147
107
201
259
131
94
152
299
300
343
161
150
158
20
127
52
112
149
113
266
92
309
329
242
58
142
82
81
288
164
321
64
248
331
153
193
257
187
172
267
83
303
284
333
188
86
274
272
14
33
96
296
162
44
148
215
24
325
32
250
65
78
217
190
236
302
241
84
312
275
315
269
154
43
104
264
322
179
145
314
141
338
67
119
286
51
87
251
307
17
249
279
16
255
213
327
229
133
184
42
233
346
30
116
71
202
62
74
287
290
139
243
191
160
144
31
226
23
194
146
232
5
80
60
108
276
178
200
157
221
214
95
163
34
12
285
135
216
222
118
328
19
9
186
69
115
101
254
27
4
192
6
265
293
21
183
317
340
53
103
281
244
196
209
268
220
316
68
292
26
128
57
237
129
143
85
29
76
63
199
173
97
114
297
70
10
283
124
311
313
125
99
66
258
174
72
256
54
332
40
45
100
210
134
211
166
341
120
61
151
22
219
198
261
106
252
77
123
185
15
171
204
46
280
159
89
225
59
207
291
212
18
50
239
35
176
39
137
73
247
13
155
335
41
140
175
235
3
206
38
344
7
91
218
8
36
109
37
2
11
79

> <PUBCHEM_MMFF94_PARTIAL_CHARGES>
32
1 1.45
10 -0.62
11 -0.62
12 -0.62
13 -0.01
14 0.09
15 -0.15
16 -0.15
17 0.87
18 -0.15
19 -0.15
2 -0.65
20 0.63
21 0.74
22 0.3
23 0.48
24 0.7
25 0.14
26 0.28
27 0.28
28 0.42
29 0.15
3 -0.65
30 0.15
31 0.15
32 0.15
4 -0.43
5 -0.57
6 -0.57
7 -0.36
8 -0.79
9 -0.48

> <PUBCHEM_EFFECTIVE_ROTOR_COUNT>
8

> <PUBCHEM_PHARMACOPHORE_FEATURES>
9
1 2 acceptor
1 3 acceptor
1 5 acceptor
1 6 acceptor
1 8 donor
3 10 12 23 cation
3 11 12 24 cation
6 10 11 12 21 23 24 rings
6 13 14 15 16 18 19 rings

> <PUBCHEM_HEAVY_ATOM_COUNT>
27

> <PUBCHEM_ATOM_DEF_STEREO_COUNT>
0

> <PUBCHEM_ATOM_UDEF_STEREO_COUNT>
0

> <PUBCHEM_BOND_DEF_STEREO_COUNT>
0

> <PUBCHEM_BOND_UDEF_STEREO_COUNT>
0

> <PUBCHEM_ISOTOPIC_ATOM_COUNT>
0

> <PUBCHEM_COMPONENT_COUNT>
1

> <PUBCHEM_CACTVS_TAUTO_COUNT>
2

> <PUBCHEM_CONFORMER_ID>
0002593500000001

> <PUBCHEM_MMFF94_ENERGY>
73.1932

> <PUBCHEM_FEATURE_SELFOVERLAP>
46.614

> <PUBCHEM_SHAPE_FINGERPRINT>
10366900 7 18189069649701078052
11118852 30 18129384804545080262
11244481 83 18040726830831705466
12403259 327 18186525422981239729
12553582 1 18200592493279797167
12633257 1 18187939424968091939
13224815 77 18343304747341871407
13533116 47 18261393377862635983
13583140 156 18041572338578840313
14081887 123 18263369105298957707
14178342 30 18194407684381129119
15238133 3 17750785747762984217
15664445 248 18270946956486331356
1813 80 16773790411979710789
20442098 301 18273215313234755887
20600515 1 17545035370129833382
20775530 9 17769104775513419410
21421861 104 17917706911585597844
21756936 100 17463997665417940120
23559900 14 18335407002564047783
238 59 11815321776009991784
5309563 4 17192045489995943899
6823239 73 18336813282336948662
7097593 13 18343298137534662311
8509985 295 17968939820218897505
8988823 20 18041014924991316021

> <PUBCHEM_SHAPE_MULTIPOLES>
499.38
9.11
3.46
2.13
11.24
1.88
0.25
0.54
2.51
-0.62
0.49
-2.42
-1.33
0.3

> <PUBCHEM_SHAPE_SELFOVERLAP>
1041.537

> <PUBCHEM_SHAPE_VOLUME>
285.4

> <PUBCHEM_COORDINATE_TYPE>
2
5
10

$$$$

