10926
  -OEChem-06261205073D

 14 13  0     0  0  0  0  0  0999 V2000
   -1.6676   -1.4434   -0.3606 Cl  0  0  0  0  0  0  0  0  0  0  0  0
   -1.6258    1.4718   -0.3541 Cl  0  0  0  0  0  0  0  0  0  0  0  0
    0.3895   -0.0175    0.7768 C   0  0  0  0  0  0  0  0  0  0  0  0
    1.2743   -0.0275   -0.4757 C   0  0  0  0  0  0  0  0  0  0  0  0
   -1.1207    0.0047    0.5195 C   0  0  0  0  0  0  0  0  0  0  0  0
    2.7504    0.0120   -0.1059 C   0  0  0  0  0  0  0  0  0  0  0  0
    0.6305   -0.8977    1.3873 H   0  0  0  0  0  0  0  0  0  0  0  0
    0.6514    0.8557    1.3888 H   0  0  0  0  0  0  0  0  0  0  0  0
    1.0532    0.8358   -1.1119 H   0  0  0  0  0  0  0  0  0  0  0  0
    1.0855   -0.9274   -1.0707 H   0  0  0  0  0  0  0  0  0  0  0  0
   -1.6507    0.0102    1.4764 H   0  0  0  0  0  0  0  0  0  0  0  0
    3.3676    0.0004   -1.0097 H   0  0  0  0  0  0  0  0  0  0  0  0
    3.0252   -0.8546    0.5041 H   0  0  0  0  0  0  0  0  0  0  0  0
    2.9900    0.9196    0.4572 H   0  0  0  0  0  0  0  0  0  0  0  0
  1  5  1  0  0  0  0
  2  5  1  0  0  0  0
  3  4  1  0  0  0  0
  3  5  1  0  0  0  0
  3  7  1  0  0  0  0
  3  8  1  0  0  0  0
  4  6  1  0  0  0  0
  4  9  1  0  0  0  0
  4 10  1  0  0  0  0
  5 11  1  0  0  0  0
  6 12  1  0  0  0  0
  6 13  1  0  0  0  0
  6 14  1  0  0  0  0
M  END
> <PUBCHEM_COMPOUND_CID>
10926

> <PUBCHEM_CONFORMER_RMSD>
0.4

> <PUBCHEM_CONFORMER_DIVERSEORDER>
1
9
4
8
5
2
7
3
6

> <PUBCHEM_MMFF94_PARTIAL_CHARGES>
3
1 -0.29
2 -0.29
5 0.58

> <PUBCHEM_EFFECTIVE_ROTOR_COUNT>
2

> <PUBCHEM_PHARMACOPHORE_FEATURES>
1
1 6 hydrophobe

> <PUBCHEM_HEAVY_ATOM_COUNT>
6

> <PUBCHEM_ATOM_DEF_STEREO_COUNT>
0

> <PUBCHEM_ATOM_UDEF_STEREO_COUNT>
0

> <PUBCHEM_BOND_DEF_STEREO_COUNT>
0

> <PUBCHEM_BOND_UDEF_STEREO_COUNT>
0

> <PUBCHEM_ISOTOPIC_ATOM_COUNT>
0

> <PUBCHEM_COMPONENT_COUNT>
1

> <PUBCHEM_CACTVS_TAUTO_COUNT>
1

> <PUBCHEM_CONFORMER_ID>
00002AAE00000001

> <PUBCHEM_MMFF94_ENERGY>
0.0025

> <PUBCHEM_FEATURE_SELFOVERLAP>
5.074

> <PUBCHEM_SHAPE_FINGERPRINT>
12932741 1 17748830717710439992
139733 1 11671524269247950091
16714656 1 18410570691296592019
20096714 4 17702378635921889401
21040471 1 18194693784995146793
23552449 1 18409167697026888804
24536 1 17240474844965157296
29004967 10 16298376942605487650
5460574 1 9295293815821972090
5943 1 8773817711583265249

> <PUBCHEM_SHAPE_MULTIPOLES>
127.22
3.3
1.38
0.85
2.22
0.03
0.06
-0.02
-0.46
-1.22
-0.26
-0.04
0
0

> <PUBCHEM_SHAPE_SELFOVERLAP>
203.33

> <PUBCHEM_SHAPE_VOLUME>
88.8

> <PUBCHEM_COORDINATE_TYPE>
2
5
10

$$$$

