37829
  -OEChem-07051213123D

 23 22  0     0  0  0  0  0  0999 V2000
   -2.3999   -0.5985   -1.7613 Cl  0  0  0  0  0  0  0  0  0  0  0  0
   -3.3656   -0.1497    0.9533 Cl  0  0  0  0  0  0  0  0  0  0  0  0
   -0.8473   -1.5423    1.0225 O   0  0  0  0  0  0  0  0  0  0  0  0
    0.4394    0.1022    0.0222 N   0  0  0  0  0  0  0  0  0  0  0  0
    0.5720    1.3163   -0.7768 C   0  0  0  0  0  0  0  0  0  0  0  0
    1.6845   -0.4475    0.5429 C   0  0  0  0  0  0  0  0  0  0  0  0
   -0.7751   -0.5133    0.3425 C   0  0  0  0  0  0  0  0  0  0  0  0
    0.5297    2.5025    0.1280 C   0  0  0  0  0  0  0  0  0  0  0  0
    2.2162   -1.4523   -0.4241 C   0  0  0  0  0  0  0  0  0  0  0  0
   -2.0363    0.1402   -0.1924 C   0  0  0  0  0  0  0  0  0  0  0  0
    1.5345    3.3759    0.2597 C   0  0  0  0  0  0  0  0  0  0  0  0
    2.4477   -2.7336   -0.1165 C   0  0  0  0  0  0  0  0  0  0  0  0
    1.5073    1.2681   -1.3470 H   0  0  0  0  0  0  0  0  0  0  0  0
   -0.2296    1.3896   -1.5153 H   0  0  0  0  0  0  0  0  0  0  0  0
    2.4146    0.3543    0.6969 H   0  0  0  0  0  0  0  0  0  0  0  0
    1.4942   -0.9044    1.5211 H   0  0  0  0  0  0  0  0  0  0  0  0
   -0.3748    2.6729    0.7059 H   0  0  0  0  0  0  0  0  0  0  0  0
    2.4467   -1.1147   -1.4315 H   0  0  0  0  0  0  0  0  0  0  0  0
   -1.9644    1.2199   -0.3076 H   0  0  0  0  0  0  0  0  0  0  0  0
    1.4419    4.2228    0.9308 H   0  0  0  0  0  0  0  0  0  0  0  0
    2.4605    3.2629   -0.2931 H   0  0  0  0  0  0  0  0  0  0  0  0
    2.8448   -3.4141   -0.8617 H   0  0  0  0  0  0  0  0  0  0  0  0
    2.2463   -3.1249    0.8745 H   0  0  0  0  0  0  0  0  0  0  0  0
  1 10  1  0  0  0  0
  2 10  1  0  0  0  0
  3  7  2  0  0  0  0
  4  5  1  0  0  0  0
  4  6  1  0  0  0  0
  4  7  1  0  0  0  0
  5  8  1  0  0  0  0
  5 13  1  0  0  0  0
  5 14  1  0  0  0  0
  6  9  1  0  0  0  0
  6 15  1  0  0  0  0
  6 16  1  0  0  0  0
  7 10  1  0  0  0  0
  8 11  2  0  0  0  0
  8 17  1  0  0  0  0
  9 12  2  0  0  0  0
  9 18  1  0  0  0  0
 10 19  1  0  0  0  0
 11 20  1  0  0  0  0
 11 21  1  0  0  0  0
 12 22  1  0  0  0  0
 12 23  1  0  0  0  0
M  END
> <PUBCHEM_COMPOUND_CID>
37829

> <PUBCHEM_CONFORMER_RMSD>
0.6

> <PUBCHEM_CONFORMER_DIVERSEORDER>
1
124
88
25
50
81
52
75
118
51
61
39
109
14
80
114
73
65
41
84
99
117
79
72
101
108
125
116
69
28
85
112
77
27
82
68
55
12
26
90
123
42
105
119
59
64
111
89
34
96
49
106
97
121
11
104
113
70
66
38
74
47
86
10
45
33
100
91
15
92
13
93
17
22
57
62
30
36
44
48
54
5
24
67
21
95
102
20
35
16
63
40
53
9
19
98
87
103
31
3
71
122
115
94
7
8
18
43
107
56
2
29
110
4
76
78
46
83
6
58
37
23
60
32
120

> <PUBCHEM_MMFF94_PARTIAL_CHARGES>
18
1 -0.29
10 0.64
11 -0.3
12 -0.3
17 0.15
18 0.15
2 -0.29
20 0.15
21 0.15
22 0.15
23 0.15
3 -0.57
4 -0.66
5 0.44
6 0.44
7 0.57
8 -0.29
9 -0.29

> <PUBCHEM_EFFECTIVE_ROTOR_COUNT>
6

> <PUBCHEM_PHARMACOPHORE_FEATURES>
3
1 11 hydrophobe
1 12 hydrophobe
1 3 acceptor

> <PUBCHEM_HEAVY_ATOM_COUNT>
12

> <PUBCHEM_ATOM_DEF_STEREO_COUNT>
0

> <PUBCHEM_ATOM_UDEF_STEREO_COUNT>
0

> <PUBCHEM_BOND_DEF_STEREO_COUNT>
0

> <PUBCHEM_BOND_UDEF_STEREO_COUNT>
0

> <PUBCHEM_ISOTOPIC_ATOM_COUNT>
0

> <PUBCHEM_COMPONENT_COUNT>
1

> <PUBCHEM_CACTVS_TAUTO_COUNT>
1

> <PUBCHEM_CONFORMER_ID>
000093C500000001

> <PUBCHEM_MMFF94_ENERGY>
18.0499

> <PUBCHEM_FEATURE_SELFOVERLAP>
15.223

> <PUBCHEM_SHAPE_FINGERPRINT>
1 1 18122904231344864412
12759256 9 18338812108423398488
14648413 74 18269264682183203603
15852999 172 17624443903383605183
15906896 17 17329434359167541037
16945 1 18338242574068802077
17357990 137 17388504290494629617
19021347 4 17616811033507889160
20711978 78 18340761529728377063
20711985 344 17763475306085454034
20871998 184 17756987079401014942
21061003 4 18271798086097139179
21524375 3 17550960190998458688
23526113 38 18056503813515277733
23552423 10 18189060802369154727
23598291 2 17968090872571963565
2748010 2 18195542595050114004
305870 269 18121213173623782809
6992083 37 17896321492414556127
7364860 26 18337662001875134417
81228 2 17908151228038285000

> <PUBCHEM_SHAPE_MULTIPOLES>
239.84
4.1
3.32
1.16
2.29
2.58
0.33
-2.16
-0.13
-3.58
-0.14
0.93
-0.28
0.05

> <PUBCHEM_SHAPE_SELFOVERLAP>
436.985

> <PUBCHEM_SHAPE_VOLUME>
153.6

> <PUBCHEM_COORDINATE_TYPE>
2
5
10

$$$$

