13644
  -OEChem-06241222392D

 35 35  0     1  0  0  0  0  0999 V2000
    3.0119    0.0000    0.0000 Cl  0  5  0  0  0  0  0  0  0  0  0  0
    1.6200    4.5615    0.0000 N   0  3  3  0  0  0  0  0  0  0  0  0
    4.0687    5.3979    0.0000 C   0  0  3  0  0  0  0  0  0  0  0  0
    3.5909    7.3465    0.0000 C   0  0  0  0  0  0  0  0  0  0  0  0
    4.3275    6.3638    0.0000 C   0  0  3  0  0  0  0  0  0  0  0  0
    5.9006    4.6391    0.0000 C   0  0  0  0  0  0  0  0  0  0  0  0
    2.5336    4.1548    0.0000 C   0  0  0  0  0  0  0  0  0  0  0  0
    6.1595    5.6050    0.0000 C   0  0  0  0  0  0  0  0  0  0  0  0
    1.7245    5.5560    0.0000 C   0  0  0  0  0  0  0  0  0  0  0  0
    3.8099    4.4320    0.0000 C   0  0  0  0  0  0  0  0  0  0  0  0
    3.6954    8.3410    0.0000 C   0  0  0  0  0  0  0  0  0  0  0  0
    2.6774    7.7532    0.0000 C   0  0  0  0  0  0  0  0  0  0  0  0
    0.6200    4.5615    0.0000 C   0  0  0  0  0  0  0  0  0  0  0  0
    4.8487    7.0353    0.0000 H   0  0  0  0  0  0  0  0  0  0  0  0
    5.6886    4.0565    0.0000 H   0  0  0  0  0  0  0  0  0  0  0  0
    6.4920    4.4527    0.0000 H   0  0  0  0  0  0  0  0  0  0  0  0
    2.1959    3.6348    0.0000 H   0  0  0  0  0  0  0  0  0  0  0  0
    2.9943    3.7399    0.0000 H   0  0  0  0  0  0  0  0  0  0  0  0
    6.7508    5.4186    0.0000 H   0  0  0  0  0  0  0  0  0  0  0  0
    6.3715    6.1876    0.0000 H   0  0  0  0  0  0  0  0  0  0  0  0
    1.6223    6.1675    0.0000 H   0  0  0  0  0  0  0  0  0  0  0  0
    1.1048    5.5371    0.0000 H   0  0  0  0  0  0  0  0  0  0  0  0
    1.3100    4.0246    0.0000 H   0  0  0  0  0  0  0  0  0  0  0  0
    3.2110    4.5925    0.0000 H   0  0  0  0  0  0  0  0  0  0  0  0
    3.6494    3.8331    0.0000 H   0  0  0  0  0  0  0  0  0  0  0  0
    4.4088    4.2715    0.0000 H   0  0  0  0  0  0  0  0  0  0  0  0
    4.3120    8.2762    0.0000 H   0  0  0  0  0  0  0  0  0  0  0  0
    3.7602    8.9576    0.0000 H   0  0  0  0  0  0  0  0  0  0  0  0
    3.0788    8.4058    0.0000 H   0  0  0  0  0  0  0  0  0  0  0  0
    2.9295    8.3196    0.0000 H   0  0  0  0  0  0  0  0  0  0  0  0
    2.1110    8.0054    0.0000 H   0  0  0  0  0  0  0  0  0  0  0  0
    2.4252    7.1868    0.0000 H   0  0  0  0  0  0  0  0  0  0  0  0
    0.6200    5.1815    0.0000 H   0  0  0  0  0  0  0  0  0  0  0  0
    0.0000    4.5615    0.0000 H   0  0  0  0  0  0  0  0  0  0  0  0
    0.6200    3.9415    0.0000 H   0  0  0  0  0  0  0  0  0  0  0  0
  2  7  1  0  0  0  0
  2  9  1  0  0  0  0
  2 13  1  0  0  0  0
  2 23  1  0  0  0  0
  3  4  1  0  0  0  0
  3  6  1  0  0  0  0
  3  7  1  0  0  0  0
  3 10  1  0  0  0  0
  4  5  1  0  0  0  0
  4 11  1  0  0  0  0
  4 12  1  0  0  0  0
  5  8  1  0  0  0  0
  5  9  1  0  0  0  0
  5 14  1  0  0  0  0
  6  8  1  0  0  0  0
  6 15  1  0  0  0  0
  6 16  1  0  0  0  0
  7 17  1  0  0  0  0
  7 18  1  0  0  0  0
  8 19  1  0  0  0  0
  8 20  1  0  0  0  0
  9 21  1  0  0  0  0
  9 22  1  0  0  0  0
 10 24  1  0  0  0  0
 10 25  1  0  0  0  0
 10 26  1  0  0  0  0
 11 27  1  0  0  0  0
 11 28  1  0  0  0  0
 11 29  1  0  0  0  0
 12 30  1  0  0  0  0
 12 31  1  0  0  0  0
 12 32  1  0  0  0  0
 13 33  1  0  0  0  0
 13 34  1  0  0  0  0
 13 35  1  0  0  0  0
M  CHG  2   1  -1   2   1
M  END
> <PUBCHEM_COMPOUND_CID>
13644

> <PUBCHEM_COMPOUND_CANONICALIZED>
1

> <PUBCHEM_CACTVS_COMPLEXITY>
197

> <PUBCHEM_CACTVS_HBOND_ACCEPTOR>
1

> <PUBCHEM_CACTVS_HBOND_DONOR>
1

> <PUBCHEM_CACTVS_ROTATABLE_BOND>
0

> <PUBCHEM_CACTVS_SUBSKEYS>
AAADceByAAAEAAAAAAAAAAAAAAAAAYAAAAAsAAAABYAAAAAAAAAAHAAQAAAADwDBAAQCAAPAAAAAAAAAAAAAAAAAAAAAAIAIAAAAAAIAgAAEAAAAEACAAAEQgEAPgAAAAAAAAAAAAAAAAAAAAQAACAAAAA==

> <PUBCHEM_IUPAC_OPENEYE_NAME>
3,5,8,8-tetramethyl-3-azoniabicyclo[3.2.1]octane chloride

> <PUBCHEM_IUPAC_CAS_NAME>
3,5,8,8-tetramethyl-3-azoniabicyclo[3.2.1]octane chloride

> <PUBCHEM_IUPAC_NAME>
3,5,8,8-tetramethyl-3-azoniabicyclo[3.2.1]octane chloride

> <PUBCHEM_IUPAC_SYSTEMATIC_NAME>
3,5,8,8-tetramethyl-3-azoniabicyclo[3.2.1]octane chloride

> <PUBCHEM_IUPAC_TRADITIONAL_NAME>
3,5,8,8-tetramethyl-3-azoniabicyclo[3.2.1]octane chloride

> <PUBCHEM_IUPAC_INCHI>
InChI=1S/C11H21N.ClH/c1-10(2)9-5-6-11(10,3)8-12(4)7-9;/h9H,5-8H2,1-4H3;1H

> <PUBCHEM_IUPAC_INCHIKEY>
NKLXCHWJENSPCX-UHFFFAOYSA-N

> <PUBCHEM_EXACT_MASS>
203.144077

> <PUBCHEM_MOLECULAR_FORMULA>
C11H22ClN

> <PUBCHEM_MOLECULAR_WEIGHT>
203.75208

> <PUBCHEM_OPENEYE_CAN_SMILES>
CC1(C2CCC1(C[NH+](C2)C)C)C.[Cl-]

> <PUBCHEM_OPENEYE_ISO_SMILES>
CC1(C2CCC1(C[NH+](C2)C)C)C.[Cl-]

> <PUBCHEM_CACTVS_TPSA>
4.4

> <PUBCHEM_MONOISOTOPIC_WEIGHT>
203.144077

> <PUBCHEM_TOTAL_CHARGE>
0

> <PUBCHEM_HEAVY_ATOM_COUNT>
13

> <PUBCHEM_ATOM_DEF_STEREO_COUNT>
0

> <PUBCHEM_ATOM_UDEF_STEREO_COUNT>
2

> <PUBCHEM_BOND_DEF_STEREO_COUNT>
0

> <PUBCHEM_BOND_UDEF_STEREO_COUNT>
0

> <PUBCHEM_ISOTOPIC_ATOM_COUNT>
0

> <PUBCHEM_COMPONENT_COUNT>
2

> <PUBCHEM_CACTVS_TAUTO_COUNT>
1

> <PUBCHEM_COORDINATE_TYPE>
1
5
255

> <PUBCHEM_BONDANNOTATIONS>
3  10  3
5  14  3

$$$$

