77770
  -OEChem-07051212472D

 17 17  0     0  0  0  0  0  0999 V2000
    3.7320   -1.0194    0.0000 O   0  0  0  0  0  0  0  0  0  0  0  0
    2.8660    0.4806    0.0000 N   0  0  0  0  0  0  0  0  0  0  0  0
    2.3660    2.0194    0.0000 N   0  0  0  0  0  0  0  0  0  0  0  0
    2.0000   -1.0194    0.0000 C   0  0  0  0  0  0  0  0  0  0  0  0
    2.8660   -0.5194    0.0000 C   0  0  0  0  0  0  0  0  0  0  0  0
    2.0000   -2.0194    0.0000 C   0  0  0  0  0  0  0  0  0  0  0  0
    3.6750    1.0684    0.0000 C   0  0  0  0  0  0  0  0  0  0  0  0
    2.0570    1.0684    0.0000 C   0  0  0  0  0  0  0  0  0  0  0  0
    3.3660    2.0194    0.0000 C   0  0  0  0  0  0  0  0  0  0  0  0
    1.7880   -0.4368    0.0000 H   0  0  0  0  0  0  0  0  0  0  0  0
    1.3894   -1.1271    0.0000 H   0  0  0  0  0  0  0  0  0  0  0  0
    1.3800   -2.0194    0.0000 H   0  0  0  0  0  0  0  0  0  0  0  0
    2.0000   -2.6394    0.0000 H   0  0  0  0  0  0  0  0  0  0  0  0
    2.6200   -2.0194    0.0000 H   0  0  0  0  0  0  0  0  0  0  0  0
    4.2647    0.8768    0.0000 H   0  0  0  0  0  0  0  0  0  0  0  0
    1.4674    0.8768    0.0000 H   0  0  0  0  0  0  0  0  0  0  0  0
    3.7304    2.5210    0.0000 H   0  0  0  0  0  0  0  0  0  0  0  0
  1  5  2  0  0  0  0
  2  5  1  0  0  0  0
  2  7  1  0  0  0  0
  2  8  1  0  0  0  0
  3  8  2  0  0  0  0
  3  9  1  0  0  0  0
  4  5  1  0  0  0  0
  4  6  1  0  0  0  0
  4 10  1  0  0  0  0
  4 11  1  0  0  0  0
  6 12  1  0  0  0  0
  6 13  1  0  0  0  0
  6 14  1  0  0  0  0
  7  9  2  0  0  0  0
  7 15  1  0  0  0  0
  8 16  1  0  0  0  0
  9 17  1  0  0  0  0
M  END
> <PUBCHEM_COMPOUND_CID>
77770

> <PUBCHEM_COMPOUND_CANONICALIZED>
1

> <PUBCHEM_CACTVS_COMPLEXITY>
114

> <PUBCHEM_CACTVS_HBOND_ACCEPTOR>
2

> <PUBCHEM_CACTVS_HBOND_DONOR>
0

> <PUBCHEM_CACTVS_ROTATABLE_BOND>
1

> <PUBCHEM_CACTVS_SUBSKEYS>
AAADccBjIAAAAAAAAAAAAAAAAAAAAWAAAAAAAAAAAAAAAAABgAAAHgAAAAAACADBggQvkBcMEACoABE3dAAAgC0REqAJQAEYMACASAAACAAUAAAIBwKAACAAAAAAAAAAAAAAAAAAAAAAAAAAAAAAAAAAAA==

> <PUBCHEM_IUPAC_OPENEYE_NAME>
1-imidazol-1-ylpropan-1-one

> <PUBCHEM_IUPAC_CAS_NAME>
1-(1-imidazolyl)-1-propanone

> <PUBCHEM_IUPAC_NAME>
1-imidazol-1-ylpropan-1-one

> <PUBCHEM_IUPAC_SYSTEMATIC_NAME>
1-imidazol-1-ylpropan-1-one

> <PUBCHEM_IUPAC_TRADITIONAL_NAME>
1-imidazol-1-ylpropan-1-one

> <PUBCHEM_IUPAC_INCHI>
InChI=1S/C6H8N2O/c1-2-6(9)8-4-3-7-5-8/h3-5H,2H2,1H3

> <PUBCHEM_IUPAC_INCHIKEY>
GDBUORNHWAZSNU-UHFFFAOYSA-N

> <PUBCHEM_XLOGP3>
0.1

> <PUBCHEM_EXACT_MASS>
124.063663

> <PUBCHEM_MOLECULAR_FORMULA>
C6H8N2O

> <PUBCHEM_MOLECULAR_WEIGHT>
124.14052

> <PUBCHEM_OPENEYE_CAN_SMILES>
CCC(=O)N1C=CN=C1

> <PUBCHEM_OPENEYE_ISO_SMILES>
CCC(=O)N1C=CN=C1

> <PUBCHEM_CACTVS_TPSA>
34.9

> <PUBCHEM_MONOISOTOPIC_WEIGHT>
124.063663

> <PUBCHEM_TOTAL_CHARGE>
0

> <PUBCHEM_HEAVY_ATOM_COUNT>
9

> <PUBCHEM_ATOM_DEF_STEREO_COUNT>
0

> <PUBCHEM_ATOM_UDEF_STEREO_COUNT>
0

> <PUBCHEM_BOND_DEF_STEREO_COUNT>
0

> <PUBCHEM_BOND_UDEF_STEREO_COUNT>
0

> <PUBCHEM_ISOTOPIC_ATOM_COUNT>
0

> <PUBCHEM_COMPONENT_COUNT>
1

> <PUBCHEM_CACTVS_TAUTO_COUNT>
1

> <PUBCHEM_COORDINATE_TYPE>
1
5
255

> <PUBCHEM_BONDANNOTATIONS>
2  7  8
2  8  8
3  8  8
3  9  8
7  9  8

$$$$

