44237352
  -OEChem-07051213103D

 57 59  0     1  0  0  0  0  0999 V2000
    3.9297    0.9561   -1.0201 P   0  0  2  0  0  0  0  0  0  0  0  0
    3.2533   -1.8142   -0.2952 P   0  0  1  0  0  0  0  0  0  0  0  0
   -0.1767    3.6030   -0.2328 O   0  0  0  0  0  0  0  0  0  0  0  0
    0.9443    3.6074    2.5481 O   0  0  0  0  0  0  0  0  0  0  0  0
   -0.7292    1.4542    2.5844 O   0  0  0  0  0  0  0  0  0  0  0  0
    3.2205    2.3096   -0.4889 O   0  0  0  0  0  0  0  0  0  0  0  0
    0.2945   -3.3700   -0.3968 O   0  0  0  0  0  0  0  0  0  0  0  0
    2.1010   -2.3511    0.7003 O   0  0  0  0  0  0  0  0  0  0  0  0
    0.0855   -3.2279    2.4185 O   0  0  0  0  0  0  0  0  0  0  0  0
    3.0491   -0.2108   -0.3304 O   0  0  0  0  0  0  0  0  0  0  0  0
   -2.3607   -1.9236    2.4372 O   0  0  0  0  0  0  0  0  0  0  0  0
   -3.7087    2.1657    1.2995 O   0  0  0  0  0  0  0  0  0  0  0  0
   -3.0223   -3.6835    0.4757 O   0  0  0  0  0  0  0  0  0  0  0  0
    5.3207    0.8969   -0.1965 O   0  0  0  0  0  0  0  0  0  0  0  0
    4.0695    0.8355   -2.5095 O   0  0  0  0  0  0  0  0  0  0  0  0
    4.6280   -1.9944    0.5386 O   0  0  0  0  0  0  0  0  0  0  0  0
    3.2603   -2.4636   -1.6487 O   0  0  0  0  0  0  0  0  0  0  0  0
   -4.5495    0.2037   -2.7854 O   0  0  0  0  0  0  0  0  0  0  0  0
   -1.9875    2.1253   -0.2800 N   0  0  0  0  0  0  0  0  0  0  0  0
   -4.1255    1.1891   -0.7354 N   0  0  0  0  0  0  0  0  0  0  0  0
    1.1034    2.6389    1.5117 C   0  0  1  0  0  0  0  0  0  0  0  0
   -0.1684    1.8347    1.3447 C   0  0  2  0  0  0  0  0  0  0  0  0
    1.1881    3.3811    0.1849 C   0  0  1  0  0  0  0  0  0  0  0  0
   -1.0530    2.8003    0.5750 C   0  0  1  0  0  0  0  0  0  0  0  0
    1.8947    2.5866   -0.9053 C   0  0  0  0  0  0  0  0  0  0  0  0
   -0.1037   -2.0647    1.6060 C   0  0  1  0  0  0  0  0  0  0  0  0
    0.7309   -2.2204    0.3326 C   0  0  2  0  0  0  0  0  0  0  0  0
   -1.5824   -1.9182    1.2592 C   0  0  1  0  0  0  0  0  0  0  0  0
   -3.2981    1.8532    0.1800 C   0  0  0  0  0  0  0  0  0  0  0  0
   -1.6048    1.7391   -1.5600 C   0  0  0  0  0  0  0  0  0  0  0  0
   -1.0461   -3.2577   -0.8637 C   0  0  2  0  0  0  0  0  0  0  0  0
   -1.9840   -3.0445    0.3213 C   0  0  0  0  0  0  0  0  0  0  0  0
   -2.4049    1.1073   -2.4213 C   0  0  0  0  0  0  0  0  0  0  0  0
   -1.3792   -4.5279   -1.6299 C   0  0  0  0  0  0  0  0  0  0  0  0
   -3.7885    0.7847   -2.0178 C   0  0  0  0  0  0  0  0  0  0  0  0
    1.9711    2.0229    1.7633 H   0  0  0  0  0  0  0  0  0  0  0  0
    0.0431    0.9304    0.7636 H   0  0  0  0  0  0  0  0  0  0  0  0
    1.6719    4.3574    0.3027 H   0  0  0  0  0  0  0  0  0  0  0  0
   -1.5950    3.4694    1.2543 H   0  0  0  0  0  0  0  0  0  0  0  0
    1.9248    3.1582   -1.8389 H   0  0  0  0  0  0  0  0  0  0  0  0
    1.3757    1.6486   -1.1201 H   0  0  0  0  0  0  0  0  0  0  0  0
    1.7706    4.1178    2.5984 H   0  0  0  0  0  0  0  0  0  0  0  0
   -1.5780    1.0177    2.3992 H   0  0  0  0  0  0  0  0  0  0  0  0
    0.2442   -1.2182    2.2060 H   0  0  0  0  0  0  0  0  0  0  0  0
    0.6203   -1.3320   -0.3015 H   0  0  0  0  0  0  0  0  0  0  0  0
   -1.7564   -0.9723    0.7346 H   0  0  0  0  0  0  0  0  0  0  0  0
   -0.5989    1.9695   -1.8777 H   0  0  0  0  0  0  0  0  0  0  0  0
   -1.1329   -2.3957   -1.5359 H   0  0  0  0  0  0  0  0  0  0  0  0
   -5.0710    0.9828   -0.4252 H   0  0  0  0  0  0  0  0  0  0  0  0
   -2.0717    0.8228   -3.4118 H   0  0  0  0  0  0  0  0  0  0  0  0
   -0.6742   -4.6740   -2.4553 H   0  0  0  0  0  0  0  0  0  0  0  0
   -2.3942   -4.4946   -2.0381 H   0  0  0  0  0  0  0  0  0  0  0  0
   -1.2980   -5.4089   -0.9831 H   0  0  0  0  0  0  0  0  0  0  0  0
   -0.1124   -4.0115    1.8782 H   0  0  0  0  0  0  0  0  0  0  0  0
   -3.2813   -1.7437    2.1807 H   0  0  0  0  0  0  0  0  0  0  0  0
    5.2930    0.9384    0.7831 H   0  0  0  0  0  0  0  0  0  0  0  0
    5.4828   -1.8507    0.0795 H   0  0  0  0  0  0  0  0  0  0  0  0
  1  6  1  0  0  0  0
  1 10  1  0  0  0  0
  1 14  1  0  0  0  0
  1 15  2  0  0  0  0
  2  8  1  0  0  0  0
  2 10  1  0  0  0  0
  2 16  1  0  0  0  0
  2 17  2  0  0  0  0
  3 23  1  0  0  0  0
  3 24  1  0  0  0  0
  4 21  1  0  0  0  0
  4 42  1  0  0  0  0
  5 22  1  0  0  0  0
  5 43  1  0  0  0  0
  6 25  1  0  0  0  0
  7 27  1  0  0  0  0
  7 31  1  0  0  0  0
  8 27  1  0  0  0  0
  9 26  1  0  0  0  0
  9 54  1  0  0  0  0
 11 28  1  0  0  0  0
 11 55  1  0  0  0  0
 12 29  2  0  0  0  0
 13 32  2  0  0  0  0
 14 56  1  0  0  0  0
 16 57  1  0  0  0  0
 18 35  2  0  0  0  0
 19 24  1  0  0  0  0
 19 29  1  0  0  0  0
 19 30  1  0  0  0  0
 20 29  1  0  0  0  0
 20 35  1  0  0  0  0
 20 49  1  0  0  0  0
 21 22  1  0  0  0  0
 21 23  1  0  0  0  0
 21 36  1  0  0  0  0
 22 24  1  0  0  0  0
 22 37  1  0  0  0  0
 23 25  1  0  0  0  0
 23 38  1  0  0  0  0
 24 39  1  0  0  0  0
 25 40  1  0  0  0  0
 25 41  1  0  0  0  0
 26 27  1  0  0  0  0
 26 28  1  0  0  0  0
 26 44  1  0  0  0  0
 27 45  1  0  0  0  0
 28 32  1  0  0  0  0
 28 46  1  0  0  0  0
 30 33  2  0  0  0  0
 30 47  1  0  0  0  0
 31 32  1  0  0  0  0
 31 34  1  0  0  0  0
 31 48  1  0  0  0  0
 33 35  1  0  0  0  0
 33 50  1  0  0  0  0
 34 51  1  0  0  0  0
 34 52  1  0  0  0  0
 34 53  1  0  0  0  0
M  END
> <PUBCHEM_COMPOUND_CID>
44237352

> <PUBCHEM_CONFORMER_RMSD>
1.6

> <PUBCHEM_CONFORMER_DIVERSEORDER>
1
64
70
7
103
77
54
37
115
130
4
148
57
82
131
9
127
97
67
34
27
98
107
48
99
110
3
43
44
32
72
154
102
40
129
123
121
135
10
117
29
71
55
59
126
60
42
94
96
68
26
81
65
84
63
146
83
109
69
50
88
25
138
120
73
2
101
152
78
61
128
74
137
11
18
153
147
136
85
19
149
53
39
105
46
89
139
132
143
142
8
36
112
80
76
17
38
75
104
20
119
66
31
35
21
14
12
45
114
145
155
52
49
118
151
100
30
47
125
51
116
106
111
41
87
6
150
133
56
58
93
86
16
92
134
91
144
141
140
124
15
95
113
28
62
90
5
108
122
79
23
22
13
33
24

> <PUBCHEM_MMFF94_PARTIAL_CHARGES>
43
1 1.51
10 -0.54
11 -0.68
12 -0.57
13 -0.57
14 -0.77
15 -0.7
16 -0.77
17 -0.7
18 -0.57
19 -0.47
2 1.51
20 -0.49
21 0.28
22 0.28
23 0.28
24 0.58
25 0.28
26 0.28
27 0.56
28 0.34
29 0.69
3 -0.56
30 -0.04
31 0.34
32 0.45
33 -0.14
35 0.62
4 -0.68
42 0.4
43 0.4
47 0.15
49 0.37
5 -0.68
50 0.15
54 0.4
55 0.4
56 0.5
57 0.5
6 -0.55
7 -0.56
8 -0.55
9 -0.68

> <PUBCHEM_EFFECTIVE_ROTOR_COUNT>
10

> <PUBCHEM_PHARMACOPHORE_FEATURES>
21
1 11 acceptor
1 11 donor
1 12 acceptor
1 13 acceptor
1 14 acceptor
1 15 acceptor
1 16 acceptor
1 17 acceptor
1 18 acceptor
1 20 donor
1 3 acceptor
1 4 acceptor
1 4 donor
1 5 acceptor
1 5 donor
1 7 acceptor
1 9 acceptor
1 9 donor
5 3 21 22 23 24 rings
6 19 20 29 30 33 35 rings
6 7 26 27 28 31 32 rings

> <PUBCHEM_HEAVY_ATOM_COUNT>
35

> <PUBCHEM_ATOM_DEF_STEREO_COUNT>
7

> <PUBCHEM_ATOM_UDEF_STEREO_COUNT>
1

> <PUBCHEM_BOND_DEF_STEREO_COUNT>
0

> <PUBCHEM_BOND_UDEF_STEREO_COUNT>
0

> <PUBCHEM_ISOTOPIC_ATOM_COUNT>
0

> <PUBCHEM_COMPONENT_COUNT>
1

> <PUBCHEM_CACTVS_TAUTO_COUNT>
21

> <PUBCHEM_CONFORMER_ID>
02A3022800000001

> <PUBCHEM_MMFF94_ENERGY>
39.4941

> <PUBCHEM_FEATURE_SELFOVERLAP>
106.618

> <PUBCHEM_SHAPE_FINGERPRINT>
11170278 133 17909874013147403463
12156800 1 17905647365357687584
12422481 6 17842238603004291233
12539773 59 17392475902039494697
13122387 1 18340764965617798316
17492 54 18271536410724250277
19930381 70 17836914969064979977
20764821 26 18194408783818676700
20775438 99 17539172421680099943
21285901 2 17258229466746548311
21304303 94 18266482952457296525
238 59 17842558736279817463
238918 7 17253176141159336904
3027735 51 17761792667022200151
35225 105 18122875815698679886
437795 51 18342179990782358349
463206 1 18410012173681413628
469060 322 17343191092256391158
6287921 2 17397541390810628891

> <PUBCHEM_SHAPE_MULTIPOLES>
624.11
7.37
6.33
2.53
4.02
3.05
-0.1
-0.61
4.13
-1.34
-1.05
-1.32
-0.3
0.7

> <PUBCHEM_SHAPE_SELFOVERLAP>
1277.757

> <PUBCHEM_SHAPE_VOLUME>
361.3

> <PUBCHEM_COORDINATE_TYPE>
2
5
10

$$$$

