442932
  -OEChem-07051213003D

 59 64  0     1  0  0  0  0  0999 V2000
    1.1936    0.5546    1.2354 O   0  0  0  0  0  0  0  0  0  0  0  0
   -0.9009    0.0833   -2.0427 O   0  0  0  0  0  0  0  0  0  0  0  0
    0.0242    2.9111   -1.1812 O   0  0  0  0  0  0  0  0  0  0  0  0
   -1.5418   -0.0251    0.2066 O   0  0  0  0  0  0  0  0  0  0  0  0
    2.5835   -2.4955   -1.2255 O   0  0  0  0  0  0  0  0  0  0  0  0
    6.2820    0.7000    1.2249 O   0  0  0  0  0  0  0  0  0  0  0  0
   -1.5691    3.6249    0.3319 O   0  0  0  0  0  0  0  0  0  0  0  0
    7.0448   -1.3177    0.1500 O   0  0  0  0  0  0  0  0  0  0  0  0
   -2.9650    0.5934    2.5092 O   0  0  0  0  0  0  0  0  0  0  0  0
   -5.5767   -1.9980   -1.5353 O   0  0  0  0  0  0  0  0  0  0  0  0
   -6.8115   -1.4611    0.4635 O   0  0  0  0  0  0  0  0  0  0  0  0
    0.0815    1.6460   -0.5448 C   0  0  2  0  0  0  0  0  0  0  0  0
    1.1799    0.8064   -1.1414 C   0  0  1  0  0  0  0  0  0  0  0  0
    1.5560   -0.1269    0.0148 C   0  0  1  0  0  0  0  0  0  0  0  0
   -1.1865    0.8473   -0.8585 C   0  0  1  0  0  0  0  0  0  0  0  0
    0.5001    1.7662    0.9036 C   0  0  0  0  0  0  0  0  0  0  0  0
    0.5057    0.1265   -2.3151 C   0  0  0  0  0  0  0  0  0  0  0  0
    3.0219   -0.4900    0.0246 C   0  0  0  0  0  0  0  0  0  0  0  0
    3.4707   -1.6679   -0.6026 C   0  0  0  0  0  0  0  0  0  0  0  0
    3.9305    0.3597    0.6644 C   0  0  0  0  0  0  0  0  0  0  0  0
   -0.8488    3.8159   -0.6386 C   0  0  0  0  0  0  0  0  0  0  0  0
   -2.8653   -0.3671    0.3113 C   0  0  0  0  0  0  0  0  0  0  0  0
    5.2628    0.0007    0.6557 C   0  0  0  0  0  0  0  0  0  0  0  0
    4.8258   -2.0080   -0.5971 C   0  0  0  0  0  0  0  0  0  0  0  0
    5.6984   -1.1514    0.0418 C   0  0  0  0  0  0  0  0  0  0  0  0
   -0.8022    5.1004   -1.4093 C   0  0  0  0  0  0  0  0  0  0  0  0
   -3.5788   -0.0521    1.4767 C   0  0  0  0  0  0  0  0  0  0  0  0
   -3.4783   -1.0265   -0.7522 C   0  0  0  0  0  0  0  0  0  0  0  0
    7.4081   -0.1405    0.9000 C   0  0  0  0  0  0  0  0  0  0  0  0
   -4.8110   -1.3555   -0.6117 C   0  0  0  0  0  0  0  0  0  0  0  0
   -4.9277   -0.3964    1.5932 C   0  0  0  0  0  0  0  0  0  0  0  0
    1.9984   -3.5281   -0.4359 C   0  0  0  0  0  0  0  0  0  0  0  0
   -5.5164   -1.0488    0.5295 C   0  0  0  0  0  0  0  0  0  0  0  0
   -6.8431   -2.0606   -0.8479 C   0  0  0  0  0  0  0  0  0  0  0  0
   -2.3448   -0.2193    3.5029 C   0  0  0  0  0  0  0  0  0  0  0  0
    2.0382    1.3993   -1.4804 H   0  0  0  0  0  0  0  0  0  0  0  0
    0.9426   -1.0330    0.0069 H   0  0  0  0  0  0  0  0  0  0  0  0
   -2.0307    1.5034   -1.1026 H   0  0  0  0  0  0  0  0  0  0  0  0
    1.1927    2.6008    1.0631 H   0  0  0  0  0  0  0  0  0  0  0  0
   -0.3329    1.8876    1.6016 H   0  0  0  0  0  0  0  0  0  0  0  0
    0.6359    0.7169   -3.2285 H   0  0  0  0  0  0  0  0  0  0  0  0
    0.8709   -0.8843   -2.5117 H   0  0  0  0  0  0  0  0  0  0  0  0
    3.6189    1.2792    1.1478 H   0  0  0  0  0  0  0  0  0  0  0  0
    5.1800   -2.9133   -1.0781 H   0  0  0  0  0  0  0  0  0  0  0  0
   -1.0942    4.9198   -2.4469 H   0  0  0  0  0  0  0  0  0  0  0  0
    0.2035    5.5250   -1.3602 H   0  0  0  0  0  0  0  0  0  0  0  0
   -1.5044    5.8138   -0.9684 H   0  0  0  0  0  0  0  0  0  0  0  0
   -2.9444   -1.2979   -1.6545 H   0  0  0  0  0  0  0  0  0  0  0  0
    8.1238    0.4442    0.3106 H   0  0  0  0  0  0  0  0  0  0  0  0
    7.8926   -0.4538    1.8320 H   0  0  0  0  0  0  0  0  0  0  0  0
   -5.4929   -0.1592    2.4879 H   0  0  0  0  0  0  0  0  0  0  0  0
    1.1109   -3.8972   -0.9570 H   0  0  0  0  0  0  0  0  0  0  0  0
    2.7088   -4.3533   -0.3260 H   0  0  0  0  0  0  0  0  0  0  0  0
    1.6997   -3.1669    0.5535 H   0  0  0  0  0  0  0  0  0  0  0  0
   -7.1354   -3.1120   -0.7461 H   0  0  0  0  0  0  0  0  0  0  0  0
   -7.5965   -1.5427   -1.4525 H   0  0  0  0  0  0  0  0  0  0  0  0
   -1.5520   -0.8307    3.0601 H   0  0  0  0  0  0  0  0  0  0  0  0
   -1.8993    0.4385    4.2542 H   0  0  0  0  0  0  0  0  0  0  0  0
   -3.0852   -0.8598    3.9924 H   0  0  0  0  0  0  0  0  0  0  0  0
  1 14  1  0  0  0  0
  1 16  1  0  0  0  0
  2 15  1  0  0  0  0
  2 17  1  0  0  0  0
  3 12  1  0  0  0  0
  3 21  1  0  0  0  0
  4 15  1  0  0  0  0
  4 22  1  0  0  0  0
  5 19  1  0  0  0  0
  5 32  1  0  0  0  0
  6 23  1  0  0  0  0
  6 29  1  0  0  0  0
  7 21  2  0  0  0  0
  8 25  1  0  0  0  0
  8 29  1  0  0  0  0
  9 27  1  0  0  0  0
  9 35  1  0  0  0  0
 10 30  1  0  0  0  0
 10 34  1  0  0  0  0
 11 33  1  0  0  0  0
 11 34  1  0  0  0  0
 12 13  1  0  0  0  0
 12 15  1  0  0  0  0
 12 16  1  0  0  0  0
 13 14  1  0  0  0  0
 13 17  1  0  0  0  0
 13 36  1  0  0  0  0
 14 18  1  0  0  0  0
 14 37  1  0  0  0  0
 15 38  1  0  0  0  0
 16 39  1  0  0  0  0
 16 40  1  0  0  0  0
 17 41  1  0  0  0  0
 17 42  1  0  0  0  0
 18 19  1  0  0  0  0
 18 20  2  0  0  0  0
 19 24  2  0  0  0  0
 20 23  1  0  0  0  0
 20 43  1  0  0  0  0
 21 26  1  0  0  0  0
 22 27  2  0  0  0  0
 22 28  1  0  0  0  0
 23 25  2  0  0  0  0
 24 25  1  0  0  0  0
 24 44  1  0  0  0  0
 26 45  1  0  0  0  0
 26 46  1  0  0  0  0
 26 47  1  0  0  0  0
 27 31  1  0  0  0  0
 28 30  2  0  0  0  0
 28 48  1  0  0  0  0
 29 49  1  0  0  0  0
 29 50  1  0  0  0  0
 30 33  1  0  0  0  0
 31 33  2  0  0  0  0
 31 51  1  0  0  0  0
 32 52  1  0  0  0  0
 32 53  1  0  0  0  0
 32 54  1  0  0  0  0
 34 55  1  0  0  0  0
 34 56  1  0  0  0  0
 35 57  1  0  0  0  0
 35 58  1  0  0  0  0
 35 59  1  0  0  0  0
M  END
> <PUBCHEM_COMPOUND_CID>
442932

> <PUBCHEM_CONFORMER_RMSD>
1

> <PUBCHEM_CONFORMER_DIVERSEORDER>
2
13
75
58
28
78
49
69
33
79
27
43
59
17
77
62
45
41
71
30
21
44
64
65
1
12
66
51
61
14
47
22
11
34
76
56
57
26
39
16
50
4
55
52
15
24
23
38
25
31
68
32
42
74
54
72
70
6
37
29
20
19
46
40
73
8
3
63
67
9
18
35
60
36
7
53
10
5
48

> <PUBCHEM_MMFF94_PARTIAL_CHARGES>
38
1 -0.56
10 -0.36
11 -0.36
12 0.28
14 0.42
15 0.56
16 0.28
17 0.28
18 -0.14
19 0.08
2 -0.56
20 -0.15
21 0.66
22 0.08
23 0.08
24 -0.15
25 0.08
26 0.06
27 0.08
28 -0.15
29 0.56
3 -0.43
30 0.08
31 -0.15
32 0.28
33 0.08
34 0.56
35 0.28
4 -0.36
43 0.15
44 0.15
48 0.15
5 -0.36
51 0.15
6 -0.36
7 -0.57
8 -0.36
9 -0.36

> <PUBCHEM_EFFECTIVE_ROTOR_COUNT>
9.4

> <PUBCHEM_PHARMACOPHORE_FEATURES>
16
1 1 acceptor
1 10 acceptor
1 11 acceptor
1 2 acceptor
1 4 acceptor
1 5 acceptor
1 6 acceptor
1 7 acceptor
1 8 acceptor
1 9 acceptor
5 1 12 13 14 16 rings
5 10 11 30 33 34 rings
5 2 12 13 15 17 rings
5 6 8 23 25 29 rings
6 18 19 20 23 24 25 rings
6 22 27 28 30 31 33 rings

> <PUBCHEM_HEAVY_ATOM_COUNT>
35

> <PUBCHEM_ATOM_DEF_STEREO_COUNT>
4

> <PUBCHEM_ATOM_UDEF_STEREO_COUNT>
0

> <PUBCHEM_BOND_DEF_STEREO_COUNT>
0

> <PUBCHEM_BOND_UDEF_STEREO_COUNT>
0

> <PUBCHEM_ISOTOPIC_ATOM_COUNT>
0

> <PUBCHEM_COMPONENT_COUNT>
1

> <PUBCHEM_CACTVS_TAUTO_COUNT>
1

> <PUBCHEM_CONFORMER_ID>
0006C23400000002

> <PUBCHEM_MMFF94_ENERGY>
135.7002

> <PUBCHEM_FEATURE_SELFOVERLAP>
81.982

> <PUBCHEM_SHAPE_FINGERPRINT>
10 15 15791732971131881858
10165383 225 7709464935073888683
10670039 82 14476695100519376399
10930396 42 17986977180040366800
11115154 58 18201445787987782517
11445158 3 17313676957815657096
11578080 2 17972031702413395968
11646440 116 18273206487235458691
11991303 11 17627228206291822125
12166972 35 18261957328595990081
12516196 113 18341896272804181023
12596602 18 17458339762410429890
12788726 201 17917158298217147657
13583140 156 18117002293914753348
13636023 51 16844160134887744092
13782708 43 18193551393216410150
14068700 675 18131354102668801548
14394314 77 18411135879249747627
1454969 45 18410570648710961772
15064986 96 15358809188463566798
15183329 4 12967136012035876990
15361156 5 18055893606279382556
16114785 44 17914606409450415545
1813 80 18337657676896055557
18365409 1 17914059956698870429
21583282 1 18124031226891004524
21756936 100 14996292439663918700
23559900 14 18196375815069707115
249057 3 13254797927759569363
2747138 104 18412540999317915370
283562 15 18130511945439028248
2838139 119 8574713485902337402
3737641 26 18189614015579559830
437815 12 18202286879579810693
4516262 110 9150910360311468155
463206 1 18341891836525691535
469060 322 18409444812864923968
5104073 3 18192439791276067626
513202 73 18339359794115972806
5252454 2 6627464069352346012
5969126 39 18342181089276341748
6004065 56 18269553849720992019
6009941 240 17988371467984248925
613672 6 18272356573421557515
6523845 18 7709460494009197771
6823239 73 15625661579927156621
9962374 69 18194686961157919975

> <PUBCHEM_SHAPE_MULTIPOLES>
655.72
15.79
3.84
2.03
5.85
5.26
1.12
-13.24
3.33
-1.27
-2.11
-1.87
0.12
0.16

> <PUBCHEM_SHAPE_SELFOVERLAP>
1464.089

> <PUBCHEM_SHAPE_VOLUME>
350.1

> <PUBCHEM_COORDINATE_TYPE>
2
5
10

$$$$

