13426
  -OEChem-06261214062D

 33 33  0     0  0  0  0  0  0999 V2000
    4.6760   -1.4330    0.0000 O   0  0  0  0  0  0  0  0  0  0  0  0
    2.9440   -1.4330    0.0000 O   0  0  0  0  0  0  0  0  0  0  0  0
    2.3100    0.9330    0.0000 O   0  0  0  0  0  0  0  0  0  0  0  0
    5.3100    0.9330    0.0000 N   0  3  0  0  0  0  0  0  0  0  0  0
    3.8100    0.0670    0.0000 C   0  0  0  0  0  0  0  0  0  0  0  0
    4.3100    0.9330    0.0000 C   0  0  0  0  0  0  0  0  0  0  0  0
    4.6760   -0.4330    0.0000 C   0  0  0  0  0  0  0  0  0  0  0  0
    2.9440   -0.4330    0.0000 C   0  0  0  0  0  0  0  0  0  0  0  0
    3.3100    0.9330    0.0000 C   0  0  0  0  0  0  0  0  0  0  0  0
    6.3100    0.9330    0.0000 C   0  0  0  0  0  0  0  0  0  0  0  0
    5.3100    1.9330    0.0000 C   0  0  0  0  0  0  0  0  0  0  0  0
    5.3100   -0.0670    0.0000 C   0  0  0  0  0  0  0  0  0  0  0  0
    3.8100   -1.9330    0.0000 C   0  0  0  0  0  0  0  0  0  0  0  0
    4.4177    1.5436    0.0000 H   0  0  0  0  0  0  0  0  0  0  0  0
    3.7274    1.1451    0.0000 H   0  0  0  0  0  0  0  0  0  0  0  0
    2.7319    0.1496    0.0000 H   0  0  0  0  0  0  0  0  0  0  0  0
    2.3334   -0.5407    0.0000 H   0  0  0  0  0  0  0  0  0  0  0  0
    5.2866   -0.5407    0.0000 H   0  0  0  0  0  0  0  0  0  0  0  0
    4.8881    0.1496    0.0000 H   0  0  0  0  0  0  0  0  0  0  0  0
    3.8926    1.1451    0.0000 H   0  0  0  0  0  0  0  0  0  0  0  0
    3.2023    1.5436    0.0000 H   0  0  0  0  0  0  0  0  0  0  0  0
    4.6900   -0.0670    0.0000 H   0  0  0  0  0  0  0  0  0  0  0  0
    5.3100   -0.6870    0.0000 H   0  0  0  0  0  0  0  0  0  0  0  0
    6.3100    0.3130    0.0000 H   0  0  0  0  0  0  0  0  0  0  0  0
    6.9300    0.9330    0.0000 H   0  0  0  0  0  0  0  0  0  0  0  0
    6.3100    1.5530    0.0000 H   0  0  0  0  0  0  0  0  0  0  0  0
    5.9300    1.9330    0.0000 H   0  0  0  0  0  0  0  0  0  0  0  0
    5.3100    2.5530    0.0000 H   0  0  0  0  0  0  0  0  0  0  0  0
    4.6900    1.9330    0.0000 H   0  0  0  0  0  0  0  0  0  0  0  0
    5.9300   -0.0670    0.0000 H   0  0  0  0  0  0  0  0  0  0  0  0
    3.4115   -2.4080    0.0000 H   0  0  0  0  0  0  0  0  0  0  0  0
    4.2085   -2.4080    0.0000 H   0  0  0  0  0  0  0  0  0  0  0  0
    2.0000    1.4700    0.0000 H   0  0  0  0  0  0  0  0  0  0  0  0
  1  7  1  0  0  0  0
  1 13  1  0  0  0  0
  2  8  1  0  0  0  0
  2 13  1  0  0  0  0
  3  9  1  0  0  0  0
  3 33  1  0  0  0  0
  4  6  1  0  0  0  0
  4 10  1  0  0  0  0
  4 11  1  0  0  0  0
  4 12  1  0  0  0  0
  5  6  1  0  0  0  0
  5  7  1  0  0  0  0
  5  8  1  0  0  0  0
  5  9  1  0  0  0  0
  6 14  1  0  0  0  0
  6 15  1  0  0  0  0
  7 18  1  0  0  0  0
  7 19  1  0  0  0  0
  8 16  1  0  0  0  0
  8 17  1  0  0  0  0
  9 20  1  0  0  0  0
  9 21  1  0  0  0  0
 10 24  1  0  0  0  0
 10 25  1  0  0  0  0
 10 26  1  0  0  0  0
 11 27  1  0  0  0  0
 11 28  1  0  0  0  0
 11 29  1  0  0  0  0
 12 22  1  0  0  0  0
 12 23  1  0  0  0  0
 12 30  1  0  0  0  0
 13 31  1  0  0  0  0
 13 32  1  0  0  0  0
M  CHG  1   4   1
M  END
> <PUBCHEM_COMPOUND_CID>
13426

> <PUBCHEM_COMPOUND_CANONICALIZED>
1

> <PUBCHEM_CACTVS_COMPLEXITY>
159

> <PUBCHEM_CACTVS_HBOND_ACCEPTOR>
3

> <PUBCHEM_CACTVS_HBOND_DONOR>
1

> <PUBCHEM_CACTVS_ROTATABLE_BOND>
3

> <PUBCHEM_CACTVS_SUBSKEYS>
AAADceByMAAAAAAAAAAAAAAAAAAAAAAAAAAkAAAAAAAAAAAAAAAAHgAACAAADgDhgAcCCAMABgAAAAAAAAAAAAAAAAAAAAAIAAAQEAAAAAAkQAADAAAEAAAAAAAAAAAAAAAAAAAAAAAAAAAAAAAAAAAAAA==

> <PUBCHEM_IUPAC_OPENEYE_NAME>
[5-(hydroxymethyl)-1,3-dioxan-5-yl]methyl-trimethyl-ammonium

> <PUBCHEM_IUPAC_CAS_NAME>
[5-(hydroxymethyl)-1,3-dioxan-5-yl]methyl-trimethylammonium

> <PUBCHEM_IUPAC_NAME>
[5-(hydroxymethyl)-1,3-dioxan-5-yl]methyl-trimethylazanium

> <PUBCHEM_IUPAC_SYSTEMATIC_NAME>
[5-(hydroxymethyl)-1,3-dioxan-5-yl]methyl-trimethyl-azanium

> <PUBCHEM_IUPAC_TRADITIONAL_NAME>
trimethyl-[(5-methylol-1,3-dioxan-5-yl)methyl]ammonium

> <PUBCHEM_IUPAC_INCHI>
InChI=1S/C9H20NO3/c1-10(2,3)4-9(5-11)6-12-8-13-7-9/h11H,4-8H2,1-3H3/q+1

> <PUBCHEM_IUPAC_INCHIKEY>
PNOYNGPMOUCEBU-UHFFFAOYSA-N

> <PUBCHEM_XLOGP3_AA>
-0.7

> <PUBCHEM_EXACT_MASS>
190.144319

> <PUBCHEM_MOLECULAR_FORMULA>
C9H20NO3+

> <PUBCHEM_MOLECULAR_WEIGHT>
190.26

> <PUBCHEM_OPENEYE_CAN_SMILES>
C[N+](C)(C)CC1(COCOC1)CO

> <PUBCHEM_OPENEYE_ISO_SMILES>
C[N+](C)(C)CC1(COCOC1)CO

> <PUBCHEM_CACTVS_TPSA>
38.7

> <PUBCHEM_MONOISOTOPIC_WEIGHT>
190.144319

> <PUBCHEM_TOTAL_CHARGE>
1

> <PUBCHEM_HEAVY_ATOM_COUNT>
13

> <PUBCHEM_ATOM_DEF_STEREO_COUNT>
0

> <PUBCHEM_ATOM_UDEF_STEREO_COUNT>
0

> <PUBCHEM_BOND_DEF_STEREO_COUNT>
0

> <PUBCHEM_BOND_UDEF_STEREO_COUNT>
0

> <PUBCHEM_ISOTOPIC_ATOM_COUNT>
0

> <PUBCHEM_COMPONENT_COUNT>
1

> <PUBCHEM_CACTVS_TAUTO_COUNT>
1

> <PUBCHEM_COORDINATE_TYPE>
1
5
255

$$$$

