442276
  -OEChem-07051212573D

 40 44  0     1  0  0  0  0  0999 V2000
   -2.8116   -1.8331    0.6610 O   0  0  0  0  0  0  0  0  0  0  0  0
   -3.2351    1.1554   -0.6406 O   0  0  0  0  0  0  0  0  0  0  0  0
   -0.2618   -1.2143    2.2320 O   0  0  0  0  0  0  0  0  0  0  0  0
    0.8282    0.6767   -1.5237 O   0  0  0  0  0  0  0  0  0  0  0  0
   -0.6127    2.8528   -0.0357 O   0  0  0  0  0  0  0  0  0  0  0  0
    1.9958    0.3010    1.8588 O   0  0  0  0  0  0  0  0  0  0  0  0
    0.4114   -1.4630   -2.2693 O   0  0  0  0  0  0  0  0  0  0  0  0
   -1.1714    0.5302    0.6685 C   0  0  1  0  0  0  0  0  0  0  0  0
   -2.1132    0.2631   -0.5369 C   0  0  1  0  0  0  0  0  0  0  0  0
   -0.4678   -0.9176    0.8547 C   0  0  2  0  0  0  0  0  0  0  0  0
   -2.4266   -1.2211   -0.5800 C   0  0  1  0  0  0  0  0  0  0  0  0
   -1.4385   -1.9444    0.2855 C   0  0  2  0  0  0  0  0  0  0  0  0
    0.8912   -1.0222    0.0929 C   0  0  2  0  0  0  0  0  0  0  0  0
   -0.0960    1.6492    0.5194 C   0  0  1  0  0  0  0  0  0  0  0  0
   -2.3264    1.1643   -1.7416 C   0  0  0  0  0  0  0  0  0  0  0  0
    1.8807    0.0836    0.4643 C   0  0  1  0  0  0  0  0  0  0  0  0
    1.1765    1.2390   -0.2450 C   0  0  1  0  0  0  0  0  0  0  0  0
   -2.0374    0.8889    1.9111 C   0  0  0  0  0  0  0  0  0  0  0  0
    0.6902   -0.6835   -1.3733 C   0  0  0  0  0  0  0  0  0  0  0  0
    3.2659   -0.1548   -0.0680 C   0  0  0  0  0  0  0  0  0  0  0  0
    4.2895    0.8914    0.2594 C   0  0  0  0  0  0  0  0  0  0  0  0
    3.5692   -1.2413   -0.7937 C   0  0  0  0  0  0  0  0  0  0  0  0
   -2.7550   -1.6820   -1.5006 H   0  0  0  0  0  0  0  0  0  0  0  0
   -1.0449   -2.9086    0.0094 H   0  0  0  0  0  0  0  0  0  0  0  0
    1.2997   -2.0256    0.2457 H   0  0  0  0  0  0  0  0  0  0  0  0
    0.2222    1.9395    1.5286 H   0  0  0  0  0  0  0  0  0  0  0  0
   -1.7255    2.0447   -1.9020 H   0  0  0  0  0  0  0  0  0  0  0  0
   -2.6595    0.7055   -2.6658 H   0  0  0  0  0  0  0  0  0  0  0  0
    1.8150    2.1112   -0.4140 H   0  0  0  0  0  0  0  0  0  0  0  0
   -2.8127    0.1453    2.1148 H   0  0  0  0  0  0  0  0  0  0  0  0
   -1.4266    0.9854    2.8154 H   0  0  0  0  0  0  0  0  0  0  0  0
   -2.5466    1.8486    1.7649 H   0  0  0  0  0  0  0  0  0  0  0  0
    0.3312   -0.5380    2.5994 H   0  0  0  0  0  0  0  0  0  0  0  0
    0.0954    3.5189   -0.0183 H   0  0  0  0  0  0  0  0  0  0  0  0
    2.3112    1.2087    2.0068 H   0  0  0  0  0  0  0  0  0  0  0  0
    3.9879    1.8779   -0.1027 H   0  0  0  0  0  0  0  0  0  0  0  0
    4.4608    0.9508    1.3388 H   0  0  0  0  0  0  0  0  0  0  0  0
    5.2571    0.6665   -0.2036 H   0  0  0  0  0  0  0  0  0  0  0  0
    4.5852   -1.3714   -1.1591 H   0  0  0  0  0  0  0  0  0  0  0  0
    2.8987   -2.0439   -1.0638 H   0  0  0  0  0  0  0  0  0  0  0  0
  1 11  1  0  0  0  0
  1 12  1  0  0  0  0
  2  9  1  0  0  0  0
  2 15  1  0  0  0  0
  3 10  1  0  0  0  0
  3 33  1  0  0  0  0
  4 17  1  0  0  0  0
  4 19  1  0  0  0  0
  5 14  1  0  0  0  0
  5 34  1  0  0  0  0
  6 16  1  0  0  0  0
  6 35  1  0  0  0  0
  7 19  2  0  0  0  0
  8  9  1  0  0  0  0
  8 10  1  0  0  0  0
  8 14  1  0  0  0  0
  8 18  1  0  0  0  0
  9 11  1  0  0  0  0
  9 15  1  0  0  0  0
 10 12  1  0  0  0  0
 10 13  1  0  0  0  0
 11 12  1  0  0  0  0
 11 23  1  0  0  0  0
 12 24  1  0  0  0  0
 13 16  1  0  0  0  0
 13 19  1  0  0  0  0
 13 25  1  0  0  0  0
 14 17  1  0  0  0  0
 14 26  1  0  0  0  0
 15 27  1  0  0  0  0
 15 28  1  0  0  0  0
 16 17  1  0  0  0  0
 16 20  1  0  0  0  0
 17 29  1  0  0  0  0
 18 30  1  0  0  0  0
 18 31  1  0  0  0  0
 18 32  1  0  0  0  0
 20 21  1  0  0  0  0
 20 22  2  0  0  0  0
 21 36  1  0  0  0  0
 21 37  1  0  0  0  0
 21 38  1  0  0  0  0
 22 39  1  0  0  0  0
 22 40  1  0  0  0  0
M  END
> <PUBCHEM_COMPOUND_CID>
442276

> <PUBCHEM_CONFORMER_RMSD>
0.6

> <PUBCHEM_CONFORMER_DIVERSEORDER>
2
1

> <PUBCHEM_MMFF94_PARTIAL_CHARGES>
30
1 -0.3
10 0.38
11 0.05
12 -0.05
13 0.06
14 0.28
15 -0.05
16 0.42
17 0.28
19 0.66
2 -0.3
20 -0.28
21 0.14
22 -0.3
23 0.1
24 0.1
27 0.1
28 0.1
3 -0.68
33 0.4
34 0.4
35 0.4
39 0.15
4 -0.43
40 0.15
5 -0.68
6 -0.68
7 -0.57
8 0.09
9 0.05

> <PUBCHEM_EFFECTIVE_ROTOR_COUNT>
2.2

> <PUBCHEM_PHARMACOPHORE_FEATURES>
11
1 1 acceptor
1 2 acceptor
1 3 acceptor
1 3 donor
1 5 acceptor
1 5 donor
1 6 acceptor
1 6 donor
1 7 acceptor
6 1 8 9 10 11 12 rings
8 4 8 10 13 14 16 17 19 rings

> <PUBCHEM_HEAVY_ATOM_COUNT>
22

> <PUBCHEM_ATOM_DEF_STEREO_COUNT>
8

> <PUBCHEM_ATOM_UDEF_STEREO_COUNT>
1

> <PUBCHEM_BOND_DEF_STEREO_COUNT>
0

> <PUBCHEM_BOND_UDEF_STEREO_COUNT>
0

> <PUBCHEM_ISOTOPIC_ATOM_COUNT>
0

> <PUBCHEM_COMPONENT_COUNT>
1

> <PUBCHEM_CACTVS_TAUTO_COUNT>
1

> <PUBCHEM_CONFORMER_ID>
0006BFA400000002

> <PUBCHEM_MMFF94_ENERGY>
92.5817

> <PUBCHEM_FEATURE_SELFOVERLAP>
55.854

> <PUBCHEM_SHAPE_FINGERPRINT>
10863032 1 18129956670470832363
10948715 1 17916316115370694221
11315181 36 18410574003555069530
12423570 1 12351240669664184569
12491281 212 17131844191183501741
13024252 1 17346880035398358131
144361 1 17823437013881897487
14817 1 15042211055800941963
15775835 57 17917434267277646069
15881359 60 17826539680839392331
16945 1 18339083816702487464
19868273 293 18060419152947074870
19868273 325 18341332206090729832
200 152 16588031238070911862
20525323 117 17458336481086492225
22344851 262 17604133934911775929
23402539 116 18259991474398100983
23419403 2 17824843138993382137
23493267 7 18339371849825207640
23559900 14 18411143571778923730
2748010 2 18336273323063478224
296302 2 18259707791481191356
5845 1 8428020956581308259

> <PUBCHEM_SHAPE_MULTIPOLES>
411.66
5.01
2.03
1.77
3.61
0.31
0.11
0.02
-0.35
-0.72
-0.11
-0.54
-0.15
0.59

> <PUBCHEM_SHAPE_SELFOVERLAP>
922.296

> <PUBCHEM_SHAPE_VOLUME>
215

> <PUBCHEM_COORDINATE_TYPE>
2
5
10

$$$$

