448438
  -OEChem-07051212553D

100103  0     1  0  0  0  0  0999 V2000
   11.9895    1.6375    0.1138 O   0  0  0  0  0  0  0  0  0  0  0  0
  -11.8097   -0.3501    1.5954 O   0  0  0  0  0  0  0  0  0  0  0  0
   14.7590   -1.4313    0.2139 O   0  0  0  0  0  0  0  0  0  0  0  0
  -15.8821   -0.9670    0.3491 O   0  0  0  0  0  0  0  0  0  0  0  0
   11.7743    0.2321   -0.0474 C   0  0  2  0  0  0  0  0  0  0  0  0
  -11.7010   -0.1302    0.1732 C   0  0  2  0  0  0  0  0  0  0  0  0
   12.6862    0.7687    1.0265 C   0  0  1  0  0  0  0  0  0  0  0  0
  -12.6106    0.6968    1.0488 C   0  0  1  0  0  0  0  0  0  0  0  0
   12.3321   -0.3761   -1.3130 C   0  0  0  0  0  0  0  0  0  0  0  0
  -12.2421   -1.2554   -0.6921 C   0  0  0  0  0  0  0  0  0  0  0  0
   14.1721    0.8247    0.8635 C   0  0  0  0  0  0  0  0  0  0  0  0
  -14.0805    0.4498    1.0873 C   0  0  0  0  0  0  0  0  0  0  0  0
   13.8269   -0.0057   -1.5150 C   0  0  0  0  0  0  0  0  0  0  0  0
  -13.7864   -1.1933   -0.7927 C   0  0  0  0  0  0  0  0  0  0  0  0
   14.6869   -0.0881   -0.2492 C   0  0  2  0  0  0  0  0  0  0  0  0
  -14.4718   -0.9262    0.5485 C   0  0  2  0  0  0  0  0  0  0  0  0
   12.1928    0.9378    2.4261 C   0  0  0  0  0  0  0  0  0  0  0  0
  -12.1752    2.0400    1.5435 C   0  0  0  0  0  0  0  0  0  0  0  0
   10.4842   -0.3189    0.4095 C   0  0  0  0  0  0  0  0  0  0  0  0
  -10.4885    0.5345   -0.3230 C   0  0  0  0  0  0  0  0  0  0  0  0
   11.5303    0.1420   -2.5239 C   0  0  0  0  0  0  0  0  0  0  0  0
   12.1448   -1.9059   -1.2503 C   0  0  0  0  0  0  0  0  0  0  0  0
  -11.6673   -1.1128   -2.1170 C   0  0  0  0  0  0  0  0  0  0  0  0
  -11.7919   -2.6215   -0.1393 C   0  0  0  0  0  0  0  0  0  0  0  0
    9.2728    0.1407    0.0559 C   0  0  0  0  0  0  0  0  0  0  0  0
   -9.2256    0.1700   -0.0394 C   0  0  0  0  0  0  0  0  0  0  0  0
    8.0057   -0.4212    0.4973 C   0  0  0  0  0  0  0  0  0  0  0  0
   -8.0019    0.8128   -0.5156 C   0  0  0  0  0  0  0  0  0  0  0  0
    8.1546   -1.6213    1.3946 C   0  0  0  0  0  0  0  0  0  0  0  0
   -8.1535    2.0130   -1.4218 C   0  0  0  0  0  0  0  0  0  0  0  0
    6.7838    0.0300    0.1502 C   0  0  0  0  0  0  0  0  0  0  0  0
   -6.7558    0.4008   -0.1962 C   0  0  0  0  0  0  0  0  0  0  0  0
    5.4892   -0.4823    0.5532 C   0  0  0  0  0  0  0  0  0  0  0  0
   -5.4836    0.9639   -0.6121 C   0  0  0  0  0  0  0  0  0  0  0  0
    4.3112    0.0295    0.1588 C   0  0  0  0  0  0  0  0  0  0  0  0
   -4.3037    0.4531   -0.2187 C   0  0  0  0  0  0  0  0  0  0  0  0
    2.9773   -0.4621    0.5194 C   0  0  0  0  0  0  0  0  0  0  0  0
   -2.9689    0.9439   -0.5807 C   0  0  0  0  0  0  0  0  0  0  0  0
    2.9080   -1.6623    1.4302 C   0  0  0  0  0  0  0  0  0  0  0  0
   -2.8982    2.1462   -1.4890 C   0  0  0  0  0  0  0  0  0  0  0  0
    1.9018    0.1867    0.0226 C   0  0  0  0  0  0  0  0  0  0  0  0
   -1.8934    0.2951   -0.0838 C   0  0  0  0  0  0  0  0  0  0  0  0
    0.5016   -0.1181    0.2437 C   0  0  0  0  0  0  0  0  0  0  0  0
   -0.4931    0.5998   -0.3048 C   0  0  0  0  0  0  0  0  0  0  0  0
   14.4623    1.8602    0.6444 H   0  0  0  0  0  0  0  0  0  0  0  0
   14.6604    0.5511    1.8070 H   0  0  0  0  0  0  0  0  0  0  0  0
  -14.4616    0.5532    2.1112 H   0  0  0  0  0  0  0  0  0  0  0  0
  -14.5921    1.2263    0.5033 H   0  0  0  0  0  0  0  0  0  0  0  0
   13.8970    1.0225   -1.8961 H   0  0  0  0  0  0  0  0  0  0  0  0
   14.2579   -0.6540   -2.2888 H   0  0  0  0  0  0  0  0  0  0  0  0
  -14.1769   -2.1198   -1.2344 H   0  0  0  0  0  0  0  0  0  0  0  0
  -14.0852   -0.3985   -1.4915 H   0  0  0  0  0  0  0  0  0  0  0  0
   15.7122    0.2068   -0.5021 H   0  0  0  0  0  0  0  0  0  0  0  0
  -14.2169   -1.7039    1.2767 H   0  0  0  0  0  0  0  0  0  0  0  0
   12.3160    0.0041    2.9847 H   0  0  0  0  0  0  0  0  0  0  0  0
   12.7639    1.7168    2.9437 H   0  0  0  0  0  0  0  0  0  0  0  0
   11.1396    1.2331    2.4824 H   0  0  0  0  0  0  0  0  0  0  0  0
  -11.1105    2.0817    1.7970 H   0  0  0  0  0  0  0  0  0  0  0  0
  -12.3769    2.8047    0.7863 H   0  0  0  0  0  0  0  0  0  0  0  0
  -12.7262    2.3127    2.4505 H   0  0  0  0  0  0  0  0  0  0  0  0
   10.5854   -1.1683    1.0786 H   0  0  0  0  0  0  0  0  0  0  0  0
  -10.6681    1.3922   -0.9667 H   0  0  0  0  0  0  0  0  0  0  0  0
   11.5418    1.2369   -2.5715 H   0  0  0  0  0  0  0  0  0  0  0  0
   11.9557   -0.2354   -3.4613 H   0  0  0  0  0  0  0  0  0  0  0  0
   10.4820   -0.1727   -2.4980 H   0  0  0  0  0  0  0  0  0  0  0  0
   11.0936   -2.2023   -1.3489 H   0  0  0  0  0  0  0  0  0  0  0  0
   12.6820   -2.3973   -2.0698 H   0  0  0  0  0  0  0  0  0  0  0  0
   12.5105   -2.3316   -0.3104 H   0  0  0  0  0  0  0  0  0  0  0  0
  -11.8819   -0.1293   -2.5518 H   0  0  0  0  0  0  0  0  0  0  0  0
  -12.1218   -1.8569   -2.7837 H   0  0  0  0  0  0  0  0  0  0  0  0
  -10.5865   -1.2875   -2.1627 H   0  0  0  0  0  0  0  0  0  0  0  0
  -12.1870   -2.8082    0.8646 H   0  0  0  0  0  0  0  0  0  0  0  0
  -12.1325   -3.4398   -0.7839 H   0  0  0  0  0  0  0  0  0  0  0  0
  -10.6998   -2.6835   -0.0728 H   0  0  0  0  0  0  0  0  0  0  0  0
   15.3485   -1.4469    0.9869 H   0  0  0  0  0  0  0  0  0  0  0  0
  -16.1081   -1.8577    0.0310 H   0  0  0  0  0  0  0  0  0  0  0  0
    9.2097    0.9974   -0.6116 H   0  0  0  0  0  0  0  0  0  0  0  0
   -9.0768   -0.6910    0.6106 H   0  0  0  0  0  0  0  0  0  0  0  0
    8.6848   -1.3532    2.3165 H   0  0  0  0  0  0  0  0  0  0  0  0
    8.7032   -2.4231    0.8853 H   0  0  0  0  0  0  0  0  0  0  0  0
    7.2212   -2.0798    1.7222 H   0  0  0  0  0  0  0  0  0  0  0  0
   -8.7152    2.8013   -0.9062 H   0  0  0  0  0  0  0  0  0  0  0  0
   -8.7089    1.7311   -2.3245 H   0  0  0  0  0  0  0  0  0  0  0  0
   -7.2363    2.4830   -1.7728 H   0  0  0  0  0  0  0  0  0  0  0  0
    6.7405    0.8950   -0.5124 H   0  0  0  0  0  0  0  0  0  0  0  0
   -6.6724   -0.4674    0.4590 H   0  0  0  0  0  0  0  0  0  0  0  0
    5.4762   -1.3398    1.2130 H   0  0  0  0  0  0  0  0  0  0  0  0
   -5.4825    1.8268   -1.2629 H   0  0  0  0  0  0  0  0  0  0  0  0
    4.3312    0.8937   -0.5052 H   0  0  0  0  0  0  0  0  0  0  0  0
   -4.3185   -0.4172    0.4379 H   0  0  0  0  0  0  0  0  0  0  0  0
    3.4048   -2.5236    0.9695 H   0  0  0  0  0  0  0  0  0  0  0  0
    3.3929   -1.4460    2.3888 H   0  0  0  0  0  0  0  0  0  0  0  0
    1.8898   -1.9806    1.6631 H   0  0  0  0  0  0  0  0  0  0  0  0
   -3.3936    3.0069   -1.0257 H   0  0  0  0  0  0  0  0  0  0  0  0
   -3.3852    1.9326   -2.4471 H   0  0  0  0  0  0  0  0  0  0  0  0
   -1.8800    2.4635   -1.7227 H   0  0  0  0  0  0  0  0  0  0  0  0
    2.0717    1.0467   -0.6266 H   0  0  0  0  0  0  0  0  0  0  0  0
   -2.0632   -0.5652    0.5650 H   0  0  0  0  0  0  0  0  0  0  0  0
    0.2531   -0.9616    0.8788 H   0  0  0  0  0  0  0  0  0  0  0  0
   -0.2445    1.4433   -0.9399 H   0  0  0  0  0  0  0  0  0  0  0  0
  1  5  1  0  0  0  0
  1  7  1  0  0  0  0
  2  6  1  0  0  0  0
  2  8  1  0  0  0  0
  3 15  1  0  0  0  0
  3 75  1  0  0  0  0
  4 16  1  0  0  0  0
  4 76  1  0  0  0  0
  5  7  1  0  0  0  0
  5  9  1  0  0  0  0
  5 19  1  0  0  0  0
  6  8  1  0  0  0  0
  6 10  1  0  0  0  0
  6 20  1  0  0  0  0
  7 11  1  0  0  0  0
  7 17  1  0  0  0  0
  8 12  1  0  0  0  0
  8 18  1  0  0  0  0
  9 13  1  0  0  0  0
  9 21  1  0  0  0  0
  9 22  1  0  0  0  0
 10 14  1  0  0  0  0
 10 23  1  0  0  0  0
 10 24  1  0  0  0  0
 11 15  1  0  0  0  0
 11 45  1  0  0  0  0
 11 46  1  0  0  0  0
 12 16  1  0  0  0  0
 12 47  1  0  0  0  0
 12 48  1  0  0  0  0
 13 15  1  0  0  0  0
 13 49  1  0  0  0  0
 13 50  1  0  0  0  0
 14 16  1  0  0  0  0
 14 51  1  0  0  0  0
 14 52  1  0  0  0  0
 15 53  1  0  0  0  0
 16 54  1  0  0  0  0
 17 55  1  0  0  0  0
 17 56  1  0  0  0  0
 17 57  1  0  0  0  0
 18 58  1  0  0  0  0
 18 59  1  0  0  0  0
 18 60  1  0  0  0  0
 19 25  2  0  0  0  0
 19 61  1  0  0  0  0
 20 26  2  0  0  0  0
 20 62  1  0  0  0  0
 21 63  1  0  0  0  0
 21 64  1  0  0  0  0
 21 65  1  0  0  0  0
 22 66  1  0  0  0  0
 22 67  1  0  0  0  0
 22 68  1  0  0  0  0
 23 69  1  0  0  0  0
 23 70  1  0  0  0  0
 23 71  1  0  0  0  0
 24 72  1  0  0  0  0
 24 73  1  0  0  0  0
 24 74  1  0  0  0  0
 25 27  1  0  0  0  0
 25 77  1  0  0  0  0
 26 28  1  0  0  0  0
 26 78  1  0  0  0  0
 27 29  1  0  0  0  0
 27 31  2  0  0  0  0
 28 30  1  0  0  0  0
 28 32  2  0  0  0  0
 29 79  1  0  0  0  0
 29 80  1  0  0  0  0
 29 81  1  0  0  0  0
 30 82  1  0  0  0  0
 30 83  1  0  0  0  0
 30 84  1  0  0  0  0
 31 33  1  0  0  0  0
 31 85  1  0  0  0  0
 32 34  1  0  0  0  0
 32 86  1  0  0  0  0
 33 35  2  0  0  0  0
 33 87  1  0  0  0  0
 34 36  2  0  0  0  0
 34 88  1  0  0  0  0
 35 37  1  0  0  0  0
 35 89  1  0  0  0  0
 36 38  1  0  0  0  0
 36 90  1  0  0  0  0
 37 39  1  0  0  0  0
 37 41  2  0  0  0  0
 38 40  1  0  0  0  0
 38 42  2  0  0  0  0
 39 91  1  0  0  0  0
 39 92  1  0  0  0  0
 39 93  1  0  0  0  0
 40 94  1  0  0  0  0
 40 95  1  0  0  0  0
 40 96  1  0  0  0  0
 41 43  1  0  0  0  0
 41 97  1  0  0  0  0
 42 44  1  0  0  0  0
 42 98  1  0  0  0  0
 43 44  2  0  0  0  0
 43 99  1  0  0  0  0
 44100  1  0  0  0  0
M  END
> <PUBCHEM_COMPOUND_CID>
448438

> <PUBCHEM_CONFORMER_RMSD>
1.2

> <PUBCHEM_CONFORMER_DIVERSEORDER>
1
26
42
79
6
4
96
20
3
43
61
64
23
13
50
39
48
46
47
8
19
63
72
35
40
11
45
60
92
7
76
89
25
2
22
32
82
85
84
15
88
51
30
58
31
21
78
34
66
87
75
49
97
24
12
37
57
33
56
94
10
69
71
67
81
28
86
14
54
74
17
59
55
90
93
27
95
9
29
5
41
53
77
16
36
70
44
52
80
83
18
65
62
91
68
73
38

> <PUBCHEM_MMFF94_PARTIAL_CHARGES>
54
1 -0.3
10 0.09
100 0.15
11 0.09
12 0.09
15 0.28
16 0.28
17 0.09
18 0.09
19 -0.19
2 -0.3
20 -0.19
25 -0.15
26 -0.15
27 -0.14
28 -0.14
29 0.14
3 -0.68
30 0.14
31 -0.15
32 -0.15
33 -0.15
34 -0.15
35 -0.15
36 -0.15
37 -0.14
38 -0.14
39 0.14
4 -0.68
40 0.14
41 -0.15
42 -0.15
43 -0.15
44 -0.15
5 0.09
6 0.09
61 0.15
62 0.15
7 -0.04
75 0.4
76 0.4
77 0.15
78 0.15
8 -0.04
85 0.15
86 0.15
87 0.15
88 0.15
89 0.15
9 0.09
90 0.15
97 0.15
98 0.15
99 0.15

> <PUBCHEM_EFFECTIVE_ROTOR_COUNT>
12

> <PUBCHEM_PHARMACOPHORE_FEATURES>
14
1 1 acceptor
1 2 acceptor
1 29 hydrophobe
1 3 acceptor
1 3 donor
1 30 hydrophobe
1 39 hydrophobe
1 4 acceptor
1 4 donor
1 40 hydrophobe
3 10 23 24 hydrophobe
3 9 21 22 hydrophobe
7 1 5 7 9 11 13 15 rings
7 2 6 8 10 12 14 16 rings

> <PUBCHEM_HEAVY_ATOM_COUNT>
44

> <PUBCHEM_ATOM_DEF_STEREO_COUNT>
6

> <PUBCHEM_ATOM_UDEF_STEREO_COUNT>
0

> <PUBCHEM_BOND_DEF_STEREO_COUNT>
9

> <PUBCHEM_BOND_UDEF_STEREO_COUNT>
0

> <PUBCHEM_ISOTOPIC_ATOM_COUNT>
0

> <PUBCHEM_COMPONENT_COUNT>
1

> <PUBCHEM_CACTVS_TAUTO_COUNT>
1

> <PUBCHEM_CONFORMER_ID>
0006D7B600000001

> <PUBCHEM_MMFF94_ENERGY>
120.2027

> <PUBCHEM_FEATURE_SELFOVERLAP>
71.041

> <PUBCHEM_SHAPE_FINGERPRINT>
12013929 2 7493282253102776716
12013929 94 18272653463668583877
12559415 90 12103848964641071863
14251920 1 18410573989446418440
15061470 23 16702306783922199340
15274700 256 17894630358523442777
15343295 29 6555412008376845337
16728433 110 10952043460737678486
21057603 130 17346882226876645399
23581129 1 18411982463846997752
24893992 56 17846501436252040200
3092352 35 18410575088958046220
3991529 128 18187085057040748814
9663363 56 12535628275631420390

> <PUBCHEM_SHAPE_MULTIPOLES>
882.02
102.74
1.67
1.61
3.42
0.24
-0.24
14.9
5.3
3.01
-0.05
-1.97
-0.13
0.53

> <PUBCHEM_SHAPE_SELFOVERLAP>
1823.97

> <PUBCHEM_SHAPE_VOLUME>
506.3

> <PUBCHEM_COORDINATE_TYPE>
2
5
10

$$$$

