442900
  -OEChem-07051213003D

 92 94  0     0  0  0  0  0  0999 V2000
   -0.2727   -0.5980   -2.6351 O   0  0  0  0  0  0  0  0  0  0  0  0
    4.2097   -0.6894   -0.9849 O   0  0  0  0  0  0  0  0  0  0  0  0
    1.2601   -4.3511   -0.1074 O   0  0  0  0  0  0  0  0  0  0  0  0
   -2.8874   -1.4214   -2.5262 O   0  0  0  0  0  0  0  0  0  0  0  0
   -0.1113    1.7640   -1.2488 O   0  0  0  0  0  0  0  0  0  0  0  0
   -0.9864   -3.5871    1.2844 O   0  0  0  0  0  0  0  0  0  0  0  0
    4.6473    1.9465   -1.6343 O   0  0  0  0  0  0  0  0  0  0  0  0
   -4.8488   -0.8221    1.7950 O   0  0  0  0  0  0  0  0  0  0  0  0
    2.3761    4.9631    1.2923 O   0  0  0  0  0  0  0  0  0  0  0  0
    4.5940   -3.9781   -0.3842 O   0  0  0  0  0  0  0  0  0  0  0  0
   -5.6662   -0.6670   -1.8377 O   0  0  0  0  0  0  0  0  0  0  0  0
   -0.4623    5.0582    0.4577 O   0  0  0  0  0  0  0  0  0  0  0  0
    0.4815   -2.4809   -1.3719 C   0  0  0  0  0  0  0  0  0  0  0  0
    1.9715   -0.6316   -1.8157 C   0  0  0  0  0  0  0  0  0  0  0  0
   -0.8614   -3.1240   -1.5112 C   0  0  0  0  0  0  0  0  0  0  0  0
    2.2293    0.7235   -2.4393 C   0  0  0  0  0  0  0  0  0  0  0  0
    0.7192   -1.2319   -1.9458 C   0  0  0  0  0  0  0  0  0  0  0  0
   -1.9274   -2.5092   -0.6293 C   0  0  0  0  0  0  0  0  0  0  0  0
    2.2670    1.8451   -1.4508 C   0  0  0  0  0  0  0  0  0  0  0  0
    2.7483   -2.5290   -0.5376 C   0  0  0  0  0  0  0  0  0  0  0  0
    2.9861   -1.2801   -1.1116 C   0  0  0  0  0  0  0  0  0  0  0  0
    1.4960   -3.1294   -0.6678 C   0  0  0  0  0  0  0  0  0  0  0  0
   -2.8995   -1.6781   -1.1859 C   0  0  0  0  0  0  0  0  0  0  0  0
    1.0816    2.3227   -0.8919 C   0  0  0  0  0  0  0  0  0  0  0  0
   -1.9367   -2.7736    0.7403 C   0  0  0  0  0  0  0  0  0  0  0  0
    3.4879    2.4141   -1.0883 C   0  0  0  0  0  0  0  0  0  0  0  0
   -3.8812   -1.1115   -0.3729 C   0  0  0  0  0  0  0  0  0  0  0  0
    1.1170    3.3694    0.0295 C   0  0  0  0  0  0  0  0  0  0  0  0
   -2.9184   -2.2070    1.5531 C   0  0  0  0  0  0  0  0  0  0  0  0
    3.5233    3.4606   -0.1668 C   0  0  0  0  0  0  0  0  0  0  0  0
    3.8092   -3.2069    0.1999 C   0  0  0  0  0  0  0  0  0  0  0  0
   -3.8907   -1.3759    0.9966 C   0  0  0  0  0  0  0  0  0  0  0  0
    2.3379    3.9382    0.3921 C   0  0  0  0  0  0  0  0  0  0  0  0
    3.9623   -2.9681    1.7113 C   0  0  0  0  0  0  0  0  0  0  0  0
   -4.8975   -0.2412   -0.9549 C   0  0  0  0  0  0  0  0  0  0  0  0
   -0.1516    3.8813    0.6268 C   0  0  0  0  0  0  0  0  0  0  0  0
    4.5593   -4.1629    2.4549 C   0  0  0  0  0  0  0  0  0  0  0  0
   -5.0228    1.2144   -0.4753 C   0  0  0  0  0  0  0  0  0  0  0  0
   -1.0206    2.9233    1.4278 C   0  0  0  0  0  0  0  0  0  0  0  0
   -2.9285   -2.4913    3.0213 C   0  0  0  0  0  0  0  0  0  0  0  0
    4.8325    4.0698    0.2220 C   0  0  0  0  0  0  0  0  0  0  0  0
   -4.8346    2.2384   -1.5948 C   0  0  0  0  0  0  0  0  0  0  0  0
   -1.8168    3.6401    2.5184 C   0  0  0  0  0  0  0  0  0  0  0  0
    4.6620   -3.8956    3.9477 C   0  0  0  0  0  0  0  0  0  0  0  0
   -4.9340    3.6616   -1.0707 C   0  0  0  0  0  0  0  0  0  0  0  0
   -2.6539    2.6646    3.3296 C   0  0  0  0  0  0  0  0  0  0  0  0
   -6.0507   -1.5670    1.9732 C   0  0  0  0  0  0  0  0  0  0  0  0
    2.5025    4.6105    2.6673 C   0  0  0  0  0  0  0  0  0  0  0  0
   -0.8202   -4.2047   -1.3232 H   0  0  0  0  0  0  0  0  0  0  0  0
   -1.1637   -3.1214   -2.5665 H   0  0  0  0  0  0  0  0  0  0  0  0
    1.5161    0.9484   -3.2423 H   0  0  0  0  0  0  0  0  0  0  0  0
    3.1719    0.6558   -2.9998 H   0  0  0  0  0  0  0  0  0  0  0  0
    2.9740   -2.7362    2.1255 H   0  0  0  0  0  0  0  0  0  0  0  0
    4.5989   -2.0854    1.8409 H   0  0  0  0  0  0  0  0  0  0  0  0
    5.5565   -4.3895    2.0596 H   0  0  0  0  0  0  0  0  0  0  0  0
    3.9413   -5.0520    2.2830 H   0  0  0  0  0  0  0  0  0  0  0  0
   -6.0091    1.3228   -0.0092 H   0  0  0  0  0  0  0  0  0  0  0  0
   -4.2752    1.4003    0.3045 H   0  0  0  0  0  0  0  0  0  0  0  0
   -0.3790    2.1604    1.8837 H   0  0  0  0  0  0  0  0  0  0  0  0
   -1.7086    2.4267    0.7349 H   0  0  0  0  0  0  0  0  0  0  0  0
   -0.8931   -1.2384   -3.0134 H   0  0  0  0  0  0  0  0  0  0  0  0
   -3.5105   -3.3957    3.2244 H   0  0  0  0  0  0  0  0  0  0  0  0
   -1.9145   -2.6338    3.4102 H   0  0  0  0  0  0  0  0  0  0  0  0
   -3.3541   -1.6622    3.5963 H   0  0  0  0  0  0  0  0  0  0  0  0
    5.4128    3.3660    0.8278 H   0  0  0  0  0  0  0  0  0  0  0  0
    4.7240    4.9916    0.8014 H   0  0  0  0  0  0  0  0  0  0  0  0
    5.4095    4.3479   -0.6671 H   0  0  0  0  0  0  0  0  0  0  0  0
    4.8278   -1.2688   -0.5121 H   0  0  0  0  0  0  0  0  0  0  0  0
    2.0555   -4.6908    0.3323 H   0  0  0  0  0  0  0  0  0  0  0  0
   -5.5903    2.0814   -2.3731 H   0  0  0  0  0  0  0  0  0  0  0  0
   -3.8576    2.0892   -2.0696 H   0  0  0  0  0  0  0  0  0  0  0  0
   -2.4761    4.3919    2.0685 H   0  0  0  0  0  0  0  0  0  0  0  0
   -1.1326    4.1778    3.1855 H   0  0  0  0  0  0  0  0  0  0  0  0
   -3.6021   -0.8111   -2.7681 H   0  0  0  0  0  0  0  0  0  0  0  0
   -0.0619    1.3893   -2.1408 H   0  0  0  0  0  0  0  0  0  0  0  0
   -0.6602   -4.2212    0.6289 H   0  0  0  0  0  0  0  0  0  0  0  0
    5.4223    2.2961   -1.1686 H   0  0  0  0  0  0  0  0  0  0  0  0
    5.0931   -4.7619    4.4591 H   0  0  0  0  0  0  0  0  0  0  0  0
    5.3010   -3.0296    4.1478 H   0  0  0  0  0  0  0  0  0  0  0  0
    3.6751   -3.7023    4.3802 H   0  0  0  0  0  0  0  0  0  0  0  0
   -4.7992    4.3769   -1.8880 H   0  0  0  0  0  0  0  0  0  0  0  0
   -5.9128    3.8446   -0.6160 H   0  0  0  0  0  0  0  0  0  0  0  0
   -4.1630    3.8569   -0.3182 H   0  0  0  0  0  0  0  0  0  0  0  0
   -3.2155    3.1983    4.1026 H   0  0  0  0  0  0  0  0  0  0  0  0
   -3.3706    2.1378    2.6915 H   0  0  0  0  0  0  0  0  0  0  0  0
   -2.0209    1.9196    3.8222 H   0  0  0  0  0  0  0  0  0  0  0  0
   -6.5670   -1.7039    1.0180 H   0  0  0  0  0  0  0  0  0  0  0  0
   -5.8430   -2.5407    2.4271 H   0  0  0  0  0  0  0  0  0  0  0  0
   -6.7050   -1.0034    2.6438 H   0  0  0  0  0  0  0  0  0  0  0  0
    1.6336    4.0349    3.0006 H   0  0  0  0  0  0  0  0  0  0  0  0
    3.4175    4.0358    2.8417 H   0  0  0  0  0  0  0  0  0  0  0  0
    2.5538    5.5324    3.2531 H   0  0  0  0  0  0  0  0  0  0  0  0
  1 17  1  0  0  0  0
  1 61  1  0  0  0  0
  2 21  1  0  0  0  0
  2 68  1  0  0  0  0
  3 22  1  0  0  0  0
  3 69  1  0  0  0  0
  4 23  1  0  0  0  0
  4 74  1  0  0  0  0
  5 24  1  0  0  0  0
  5 75  1  0  0  0  0
  6 25  1  0  0  0  0
  6 76  1  0  0  0  0
  7 26  1  0  0  0  0
  7 77  1  0  0  0  0
  8 32  1  0  0  0  0
  8 47  1  0  0  0  0
  9 33  1  0  0  0  0
  9 48  1  0  0  0  0
 10 31  2  0  0  0  0
 11 35  2  0  0  0  0
 12 36  2  0  0  0  0
 13 15  1  0  0  0  0
 13 17  2  0  0  0  0
 13 22  1  0  0  0  0
 14 16  1  0  0  0  0
 14 17  1  0  0  0  0
 14 21  2  0  0  0  0
 15 18  1  0  0  0  0
 15 49  1  0  0  0  0
 15 50  1  0  0  0  0
 16 19  1  0  0  0  0
 16 51  1  0  0  0  0
 16 52  1  0  0  0  0
 18 23  2  0  0  0  0
 18 25  1  0  0  0  0
 19 24  2  0  0  0  0
 19 26  1  0  0  0  0
 20 21  1  0  0  0  0
 20 22  2  0  0  0  0
 20 31  1  0  0  0  0
 23 27  1  0  0  0  0
 24 28  1  0  0  0  0
 25 29  2  0  0  0  0
 26 30  2  0  0  0  0
 27 32  2  0  0  0  0
 27 35  1  0  0  0  0
 28 33  2  0  0  0  0
 28 36  1  0  0  0  0
 29 32  1  0  0  0  0
 29 40  1  0  0  0  0
 30 33  1  0  0  0  0
 30 41  1  0  0  0  0
 31 34  1  0  0  0  0
 34 37  1  0  0  0  0
 34 53  1  0  0  0  0
 34 54  1  0  0  0  0
 35 38  1  0  0  0  0
 36 39  1  0  0  0  0
 37 44  1  0  0  0  0
 37 55  1  0  0  0  0
 37 56  1  0  0  0  0
 38 42  1  0  0  0  0
 38 57  1  0  0  0  0
 38 58  1  0  0  0  0
 39 43  1  0  0  0  0
 39 59  1  0  0  0  0
 39 60  1  0  0  0  0
 40 62  1  0  0  0  0
 40 63  1  0  0  0  0
 40 64  1  0  0  0  0
 41 65  1  0  0  0  0
 41 66  1  0  0  0  0
 41 67  1  0  0  0  0
 42 45  1  0  0  0  0
 42 70  1  0  0  0  0
 42 71  1  0  0  0  0
 43 46  1  0  0  0  0
 43 72  1  0  0  0  0
 43 73  1  0  0  0  0
 44 78  1  0  0  0  0
 44 79  1  0  0  0  0
 44 80  1  0  0  0  0
 45 81  1  0  0  0  0
 45 82  1  0  0  0  0
 45 83  1  0  0  0  0
 46 84  1  0  0  0  0
 46 85  1  0  0  0  0
 46 86  1  0  0  0  0
 47 87  1  0  0  0  0
 47 88  1  0  0  0  0
 47 89  1  0  0  0  0
 48 90  1  0  0  0  0
 48 91  1  0  0  0  0
 48 92  1  0  0  0  0
M  END
> <PUBCHEM_COMPOUND_CID>
442900

> <PUBCHEM_CONFORMER_RMSD>
1.4

> <PUBCHEM_CONFORMER_DIVERSEORDER>
1
13
42
30
16
34
40
51
22
27
28
24
32
47
50
44
11
38
2
21
33
52
29
6
18
39
12
46
17
25
9
48
31
5
8
15
45
20
23
10
19
49
43
14
4
35
26
41
37
7
36
3

> <PUBCHEM_MMFF94_PARTIAL_CHARGES>
49
1 -0.53
10 -0.57
11 -0.57
12 -0.57
13 -0.14
14 -0.14
15 0.29
16 0.29
17 0.08
18 -0.14
19 -0.14
2 -0.53
20 0.09
21 0.08
22 0.08
23 0.08
24 0.08
25 0.08
26 0.08
27 0.09
28 0.09
29 -0.14
3 -0.53
30 -0.14
31 0.42
32 0.08
33 0.08
34 0.06
35 0.42
36 0.42
38 0.06
39 0.06
4 -0.53
40 0.14
41 0.14
47 0.28
48 0.28
5 -0.53
6 -0.53
61 0.45
68 0.45
69 0.45
7 -0.53
74 0.45
75 0.45
76 0.45
77 0.45
8 -0.36
9 -0.36

> <PUBCHEM_EFFECTIVE_ROTOR_COUNT>
15

> <PUBCHEM_PHARMACOPHORE_FEATURES>
18
1 1 donor
1 10 acceptor
1 11 acceptor
1 12 acceptor
1 2 donor
1 3 donor
1 4 donor
1 44 hydrophobe
1 45 hydrophobe
1 46 hydrophobe
1 5 donor
1 6 donor
1 7 donor
1 8 acceptor
1 9 acceptor
6 13 14 17 20 21 22 rings
6 18 23 25 27 29 32 rings
6 19 24 26 28 30 33 rings

> <PUBCHEM_HEAVY_ATOM_COUNT>
48

> <PUBCHEM_ATOM_DEF_STEREO_COUNT>
0

> <PUBCHEM_ATOM_UDEF_STEREO_COUNT>
0

> <PUBCHEM_BOND_DEF_STEREO_COUNT>
0

> <PUBCHEM_BOND_UDEF_STEREO_COUNT>
0

> <PUBCHEM_ISOTOPIC_ATOM_COUNT>
0

> <PUBCHEM_COMPONENT_COUNT>
1

> <PUBCHEM_CACTVS_TAUTO_COUNT>
998

> <PUBCHEM_CONFORMER_ID>
0006C21400000001

> <PUBCHEM_MMFF94_ENERGY>
167.0868

> <PUBCHEM_FEATURE_SELFOVERLAP>
91.361

> <PUBCHEM_SHAPE_FINGERPRINT>
10439779 11 18336839657435148885
10581848 197 17822017519154485336
10675989 125 18193557994259592245
11456790 92 17986665082046613697
12128747 34 18130503059304927143
12156800 1 17552392120367980561
12788726 201 18193826262010751734
14040222 75 18188768499743247820
14725015 67 17253161826175816215
15351339 4 18118975684925607180
16112460 7 18191854829009202881
17627616 140 18336271132593234149
17974551 9 18131346419141361023
19246450 95 18048344183782807568
19311894 1 17463954779657390238
20764821 26 18191288580293746305
22122407 14 18118090711847622163
22889206 1 18272382944979885738
376196 1 17464243934341470812
463206 1 17904470050334865405
50677037 204 17686910827049599881

> <PUBCHEM_SHAPE_MULTIPOLES>
917.39
11.18
8.54
3.27
6.89
5.31
-2.39
-2.87
-2.12
-8.22
-5.07
-0.17
-1.01
-1.48

> <PUBCHEM_SHAPE_SELFOVERLAP>
1961.336

> <PUBCHEM_SHAPE_VOLUME>
509.4

> <PUBCHEM_COORDINATE_TYPE>
2
5
10

$$$$

