11450
  -OEChem-07051213043D

 25 25  0     0  0  0  0  0  0999 V2000
   -2.8632   -1.5893    0.0003 O   0  0  0  0  0  0  0  0  0  0  0  0
    1.8178   -0.1864    0.0001 C   0  0  0  0  0  0  0  0  0  0  0  0
    0.3168    0.1477   -0.0005 C   0  0  0  0  0  0  0  0  0  0  0  0
    2.4822    0.4101    1.2598 C   0  0  0  0  0  0  0  0  0  0  0  0
    2.4840    0.4130   -1.2574 C   0  0  0  0  0  0  0  0  0  0  0  0
    2.1210   -1.7019   -0.0016 C   0  0  0  0  0  0  0  0  0  0  0  0
   -0.5811   -0.8901   -0.0004 C   0  0  0  0  0  0  0  0  0  0  0  0
   -0.0563    1.4684   -0.0002 C   0  0  0  0  0  0  0  0  0  0  0  0
   -1.9427   -0.5869   -0.0003 C   0  0  0  0  0  0  0  0  0  0  0  0
   -1.4177    1.7714    0.0000 C   0  0  0  0  0  0  0  0  0  0  0  0
   -2.3608    0.7439    0.0001 C   0  0  0  0  0  0  0  0  0  0  0  0
    2.0072    0.0322    2.1730 H   0  0  0  0  0  0  0  0  0  0  0  0
    3.5460    0.1488    1.3057 H   0  0  0  0  0  0  0  0  0  0  0  0
    2.4225    1.5036    1.2862 H   0  0  0  0  0  0  0  0  0  0  0  0
    2.4248    1.5066   -1.2812 H   0  0  0  0  0  0  0  0  0  0  0  0
    3.5478    0.1514   -1.3026 H   0  0  0  0  0  0  0  0  0  0  0  0
    2.0100    0.0374   -2.1721 H   0  0  0  0  0  0  0  0  0  0  0  0
    3.2034   -1.8813   -0.0016 H   0  0  0  0  0  0  0  0  0  0  0  0
    1.7224   -2.2016    0.8892 H   0  0  0  0  0  0  0  0  0  0  0  0
    1.7225   -2.1995   -0.8936 H   0  0  0  0  0  0  0  0  0  0  0  0
   -0.3065   -1.9375   -0.0003 H   0  0  0  0  0  0  0  0  0  0  0  0
    0.6589    2.2836    0.0002 H   0  0  0  0  0  0  0  0  0  0  0  0
   -1.7435    2.8075    0.0004 H   0  0  0  0  0  0  0  0  0  0  0  0
   -3.4185    0.9934    0.0004 H   0  0  0  0  0  0  0  0  0  0  0  0
   -3.7541   -1.1989    0.0005 H   0  0  0  0  0  0  0  0  0  0  0  0
  1  9  1  0  0  0  0
  1 25  1  0  0  0  0
  2  3  1  0  0  0  0
  2  4  1  0  0  0  0
  2  5  1  0  0  0  0
  2  6  1  0  0  0  0
  3  7  2  0  0  0  0
  3  8  1  0  0  0  0
  4 12  1  0  0  0  0
  4 13  1  0  0  0  0
  4 14  1  0  0  0  0
  5 15  1  0  0  0  0
  5 16  1  0  0  0  0
  5 17  1  0  0  0  0
  6 18  1  0  0  0  0
  6 19  1  0  0  0  0
  6 20  1  0  0  0  0
  7  9  1  0  0  0  0
  7 21  1  0  0  0  0
  8 10  2  0  0  0  0
  8 22  1  0  0  0  0
  9 11  2  0  0  0  0
 10 11  1  0  0  0  0
 10 23  1  0  0  0  0
 11 24  1  0  0  0  0
M  END
> <PUBCHEM_COMPOUND_CID>
11450

> <PUBCHEM_CONFORMER_RMSD>
0.4

> <PUBCHEM_CONFORMER_DIVERSEORDER>
1
2

> <PUBCHEM_MMFF94_PARTIAL_CHARGES>
13
1 -0.53
10 -0.15
11 -0.15
2 0.14
21 0.15
22 0.15
23 0.15
24 0.15
25 0.45
3 -0.14
7 -0.15
8 -0.15
9 0.08

> <PUBCHEM_EFFECTIVE_ROTOR_COUNT>
1

> <PUBCHEM_PHARMACOPHORE_FEATURES>
3
1 1 donor
4 2 4 5 6 hydrophobe
6 3 7 8 9 10 11 rings

> <PUBCHEM_HEAVY_ATOM_COUNT>
11

> <PUBCHEM_ATOM_DEF_STEREO_COUNT>
0

> <PUBCHEM_ATOM_UDEF_STEREO_COUNT>
0

> <PUBCHEM_BOND_DEF_STEREO_COUNT>
0

> <PUBCHEM_BOND_UDEF_STEREO_COUNT>
0

> <PUBCHEM_ISOTOPIC_ATOM_COUNT>
0

> <PUBCHEM_COMPONENT_COUNT>
1

> <PUBCHEM_CACTVS_TAUTO_COUNT>
3

> <PUBCHEM_CONFORMER_ID>
00002CBA00000001

> <PUBCHEM_MMFF94_ENERGY>
37.1075

> <PUBCHEM_FEATURE_SELFOVERLAP>
15.223

> <PUBCHEM_SHAPE_FINGERPRINT>
10857977 72 18335994072869186633
12326174 3 16343697777200236018
12423570 1 17700980100249875300
12716758 59 18266182918625991689
12897270 3 18411692171513373196
12932764 1 17894631452378982750
14128692 85 18266447724882203381
16945 1 18410575067689080965
193761 8 14807977295956748460
19973954 147 18335986457992566384
20645464 45 17821739346411603000
20871998 184 18259705596969265639
21040471 1 18122625212862704001
23552423 10 18201434834866206874
23559900 14 17827920951956816798
2748010 2 18408887373090623815
3248919 1 17917712400453419258
369184 2 18041852808121747129
5084963 1 18126000705096479904
8030462 33 18409731785056661246

> <PUBCHEM_SHAPE_MULTIPOLES>
220.51
4.14
1.73
0.9
0.06
0.14
0
0.75
0
0.6
0
-0.73
-0.16
0

> <PUBCHEM_SHAPE_SELFOVERLAP>
454.364

> <PUBCHEM_SHAPE_VOLUME>
128.4

> <PUBCHEM_COORDINATE_TYPE>
2
5
10

$$$$

