11988272
  -OEChem-07051213082D

 42 43  0     1  0  0  0  0  0999 V2000
    7.1467   -2.4644    0.0000 O   0  0  0  0  0  0  0  0  0  0  0  0
    3.9234    0.6496    0.0000 O   0  0  0  0  0  0  0  0  0  0  0  0
    2.0000   -3.0420    0.0000 O   0  0  0  0  0  0  0  0  0  0  0  0
    8.5956    2.8644    0.0000 O   0  0  0  0  0  0  0  0  0  0  0  0
    7.5776    1.4631    0.0000 O   0  0  0  0  0  0  0  0  0  0  0  0
    5.5736   -0.7397    0.0000 C   0  0  2  0  0  0  0  0  0  0  0  0
    4.8369    0.2429    0.0000 C   0  0  1  0  0  0  0  0  0  0  0  0
    5.3147   -1.7056    0.0000 C   0  0  1  0  0  0  0  0  0  0  0  0
    2.9705   -1.5475    0.0000 C   0  0  0  0  0  0  0  0  0  0  0  0
    3.7796   -2.9488    0.0000 C   0  0  0  0  0  0  0  0  0  0  0  0
    7.4055   -1.4985    0.0000 C   0  0  0  0  0  0  0  0  0  0  0  0
    2.8660   -2.5420    0.0000 C   0  0  1  0  0  0  0  0  0  0  0  0
    5.8324    0.2262    0.0000 C   0  0  0  0  0  0  0  0  0  0  0  0
    5.0559   -2.6716    0.0000 C   0  0  0  0  0  0  0  0  0  0  0  0
    4.9415    1.2374    0.0000 C   0  0  0  0  0  0  0  0  0  0  0  0
    5.8550    1.6442    0.0000 C   0  0  0  0  0  0  0  0  0  0  0  0
    5.9595    2.6387    0.0000 C   0  0  0  0  0  0  0  0  0  0  0  0
    5.1505    3.2265    0.0000 C   0  0  0  0  0  0  0  0  0  0  0  0
    6.8731    3.0454    0.0000 C   0  0  0  0  0  0  0  0  0  0  0  0
    7.6821    2.4576    0.0000 C   0  0  0  0  0  0  0  0  0  0  0  0
    2.8683   -0.9360    0.0000 H   0  0  0  0  0  0  0  0  0  0  0  0
    2.3508   -1.5664    0.0000 H   0  0  0  0  0  0  0  0  0  0  0  0
    3.4419   -3.4688    0.0000 H   0  0  0  0  0  0  0  0  0  0  0  0
    4.2403   -3.3636    0.0000 H   0  0  0  0  0  0  0  0  0  0  0  0
    7.9968   -1.6850    0.0000 H   0  0  0  0  0  0  0  0  0  0  0  0
    7.6176   -0.9159    0.0000 H   0  0  0  0  0  0  0  0  0  0  0  0
    2.8985   -3.1612    0.0000 H   0  0  0  0  0  0  0  0  0  0  0  0
    6.4312    0.0658    0.0000 H   0  0  0  0  0  0  0  0  0  0  0  0
    5.9928    0.8251    0.0000 H   0  0  0  0  0  0  0  0  0  0  0  0
    5.2335    0.3867    0.0000 H   0  0  0  0  0  0  0  0  0  0  0  0
    4.4570   -2.5111    0.0000 H   0  0  0  0  0  0  0  0  0  0  0  0
    4.8954   -3.2704    0.0000 H   0  0  0  0  0  0  0  0  0  0  0  0
    5.6548   -2.8320    0.0000 H   0  0  0  0  0  0  0  0  0  0  0  0
    4.4399    1.6019    0.0000 H   0  0  0  0  0  0  0  0  0  0  0  0
    3.4218    0.2852    0.0000 H   0  0  0  0  0  0  0  0  0  0  0  0
    2.0000   -3.6620    0.0000 H   0  0  0  0  0  0  0  0  0  0  0  0
    6.3566    1.2798    0.0000 H   0  0  0  0  0  0  0  0  0  0  0  0
    5.5149    3.7281    0.0000 H   0  0  0  0  0  0  0  0  0  0  0  0
    4.6489    3.5909    0.0000 H   0  0  0  0  0  0  0  0  0  0  0  0
    4.7861    2.7249    0.0000 H   0  0  0  0  0  0  0  0  0  0  0  0
    6.9379    3.6620    0.0000 H   0  0  0  0  0  0  0  0  0  0  0  0
    9.0972    2.5000    0.0000 H   0  0  0  0  0  0  0  0  0  0  0  0
  1  8  1  0  0  0  0
  1 11  1  0  0  0  0
  7  2  1  1  0  0  0
  2 35  1  0  0  0  0
 12  3  1  1  0  0  0
  3 36  1  0  0  0  0
  4 20  1  0  0  0  0
  4 42  1  0  0  0  0
  5 20  2  0  0  0  0
  6  7  1  0  0  0  0
  6  9  1  0  0  0  0
  6 11  1  0  0  0  0
  6 13  1  6  0  0  0
  7  8  1  0  0  0  0
  7 15  1  0  0  0  0
  8 10  1  0  0  0  0
  8 14  1  1  0  0  0
  9 12  1  0  0  0  0
  9 21  1  0  0  0  0
  9 22  1  0  0  0  0
 10 12  1  0  0  0  0
 10 23  1  0  0  0  0
 10 24  1  0  0  0  0
 11 25  1  0  0  0  0
 11 26  1  0  0  0  0
 12 27  1  0  0  0  0
 13 28  1  0  0  0  0
 13 29  1  0  0  0  0
 13 30  1  0  0  0  0
 14 31  1  0  0  0  0
 14 32  1  0  0  0  0
 14 33  1  0  0  0  0
 15 16  2  0  0  0  0
 15 34  1  0  0  0  0
 16 17  1  0  0  0  0
 16 37  1  0  0  0  0
 17 18  1  0  0  0  0
 17 19  2  0  0  0  0
 18 38  1  0  0  0  0
 18 39  1  0  0  0  0
 18 40  1  0  0  0  0
 19 20  1  0  0  0  0
 19 41  1  0  0  0  0
M  END
> <PUBCHEM_COMPOUND_CID>
11988272

> <PUBCHEM_COMPOUND_CANONICALIZED>
1

> <PUBCHEM_CACTVS_COMPLEXITY>
483

> <PUBCHEM_CACTVS_HBOND_ACCEPTOR>
5

> <PUBCHEM_CACTVS_HBOND_DONOR>
3

> <PUBCHEM_CACTVS_ROTATABLE_BOND>
3

> <PUBCHEM_CACTVS_SUBSKEYS>
AAADceBwOAAAAAAAAAAAAAAAAAAAASAAAAAwAAAABIAAAAAAAAAAGgAACAAADlSggAICCAAABgCIAiDSCAAAAAAgAAAICAAAAEgJFAIAAQACUAAFwAALkQPA4PwPgAAAAAAAAABCAAYQADCAAAAAAAAAAA==

> <PUBCHEM_IUPAC_OPENEYE_NAME>
(2Z,4E)-5-[(1R,3S,5R,8S)-3,8-dihydroxy-1,5-dimethyl-6-oxabicyclo[3.2.1]octan-8-yl]-3-methyl-penta-2,4-dienoic acid

> <PUBCHEM_IUPAC_CAS_NAME>
(2Z,4E)-5-[(1R,3S,5R,8S)-3,8-dihydroxy-1,5-dimethyl-6-oxabicyclo[3.2.1]octan-8-yl]-3-methylpenta-2,4-dienoic acid

> <PUBCHEM_IUPAC_NAME>
(2Z,4E)-5-[(1R,3S,5R,8S)-3,8-dihydroxy-1,5-dimethyl-6-oxabicyclo[3.2.1]octan-8-yl]-3-methylpenta-2,4-dienoic acid

> <PUBCHEM_IUPAC_SYSTEMATIC_NAME>
(2Z,4E)-5-[(1R,3S,5R,8S)-1,5-dimethyl-3,8-bis(oxidanyl)-6-oxabicyclo[3.2.1]octan-8-yl]-3-methyl-penta-2,4-dienoic acid

> <PUBCHEM_IUPAC_TRADITIONAL_NAME>
(2Z,4E)-5-[(1R,3S,5R,8S)-3,8-dihydroxy-1,5-dimethyl-6-oxabicyclo[3.2.1]octan-8-yl]-3-methyl-penta-2,4-dienoic acid

> <PUBCHEM_IUPAC_INCHI>
InChI=1S/C15H22O5/c1-10(6-12(17)18)4-5-15(19)13(2)7-11(16)8-14(15,3)20-9-13/h4-6,11,16,19H,7-9H2,1-3H3,(H,17,18)/b5-4+,10-6-/t11-,13+,14+,15-/m0/s1

> <PUBCHEM_IUPAC_INCHIKEY>
XIVFQYWMMJWUCD-VSTJRZLJSA-N

> <PUBCHEM_XLOGP3_AA>
0.9

> <PUBCHEM_EXACT_MASS>
282.146724

> <PUBCHEM_MOLECULAR_FORMULA>
C15H22O5

> <PUBCHEM_MOLECULAR_WEIGHT>
282.33218

> <PUBCHEM_OPENEYE_CAN_SMILES>
CC(=CC(=O)O)C=CC1(C2(CC(CC1(OC2)C)O)C)O

> <PUBCHEM_OPENEYE_ISO_SMILES>
C/C(=C/C(=O)O)/C=C/[C@@]1([C@@]2(C[C@@H](C[C@]1(OC2)C)O)C)O

> <PUBCHEM_CACTVS_TPSA>
87

> <PUBCHEM_MONOISOTOPIC_WEIGHT>
282.146724

> <PUBCHEM_TOTAL_CHARGE>
0

> <PUBCHEM_HEAVY_ATOM_COUNT>
20

> <PUBCHEM_ATOM_DEF_STEREO_COUNT>
4

> <PUBCHEM_ATOM_UDEF_STEREO_COUNT>
0

> <PUBCHEM_BOND_DEF_STEREO_COUNT>
2

> <PUBCHEM_BOND_UDEF_STEREO_COUNT>
0

> <PUBCHEM_ISOTOPIC_ATOM_COUNT>
0

> <PUBCHEM_COMPONENT_COUNT>
1

> <PUBCHEM_CACTVS_TAUTO_COUNT>
1

> <PUBCHEM_COORDINATE_TYPE>
1
5
255

> <PUBCHEM_BONDANNOTATIONS>
7  2  5
12  3  5
6  13  6
8  14  5

$$$$

