4701
  -OEChem-06261200173D

 70 74  0     1  0  0  0  0  0999 V2000
   -2.7556   -0.2883   -1.9338 O   0  0  0  0  0  0  0  0  0  0  0  0
   -1.1327   -4.0292   -2.0327 O   0  0  0  0  0  0  0  0  0  0  0  0
   -1.6586   -3.7618    0.1691 O   0  0  0  0  0  0  0  0  0  0  0  0
   -1.4329   -1.0528   -0.1709 N   0  0  0  0  0  0  0  0  0  0  0  0
    2.3105   -1.9915    1.2874 N   0  0  0  0  0  0  0  0  0  0  0  0
    0.8009   -1.3996    2.8226 N   0  0  0  0  0  0  0  0  0  0  0  0
    6.6953    2.1452   -0.7500 N   0  0  0  0  0  0  0  0  0  0  0  0
   -0.6421   -1.9428   -1.0632 C   0  0  1  0  0  0  0  0  0  0  0  0
    0.8812   -1.8990   -0.8248 C   0  0  0  0  0  0  0  0  0  0  0  0
    1.1416   -1.7813    0.6216 C   0  0  0  0  0  0  0  0  0  0  0  0
   -1.1852   -1.1013    1.2985 C   0  0  0  0  0  0  0  0  0  0  0  0
    0.2292   -1.4167    1.5787 C   0  0  0  0  0  0  0  0  0  0  0  0
   -2.5158   -0.3532   -0.7255 C   0  0  0  0  0  0  0  0  0  0  0  0
   -3.4228    0.3616    0.2460 C   0  0  0  0  0  0  0  0  0  0  0  0
    3.5794   -2.3856    0.7257 C   0  0  0  0  0  0  0  0  0  0  0  0
   -1.2026   -3.3245   -0.8770 C   0  0  0  0  0  0  0  0  0  0  0  0
    2.0545   -1.7491    2.6132 C   0  0  0  0  0  0  0  0  0  0  0  0
    4.4007   -1.1882    0.3308 C   0  0  0  0  0  0  0  0  0  0  0  0
   -2.9084    1.7456    0.5840 C   0  0  0  0  0  0  0  0  0  0  0  0
   -4.8734    0.3499   -0.1942 C   0  0  0  0  0  0  0  0  0  0  0  0
    4.2793   -0.6675   -0.9504 C   0  0  0  0  0  0  0  0  0  0  0  0
    5.2691   -0.6205    1.2530 C   0  0  0  0  0  0  0  0  0  0  0  0
   -2.1734    2.4410   -0.3596 C   0  0  0  0  0  0  0  0  0  0  0  0
   -5.6909   -0.6897    0.2095 C   0  0  0  0  0  0  0  0  0  0  0  0
   -3.1850    2.2823    1.8287 C   0  0  0  0  0  0  0  0  0  0  0  0
   -5.3437    1.3791   -0.9891 C   0  0  0  0  0  0  0  0  0  0  0  0
    5.0410    0.4424   -1.3162 C   0  0  0  0  0  0  0  0  0  0  0  0
    5.9167    1.0208   -0.3974 C   0  0  0  0  0  0  0  0  0  0  0  0
    6.0306    0.4894    0.8873 C   0  0  0  0  0  0  0  0  0  0  0  0
   -1.6996    3.7153   -0.0478 C   0  0  0  0  0  0  0  0  0  0  0  0
   -7.0256   -0.7005   -0.1960 C   0  0  0  0  0  0  0  0  0  0  0  0
   -2.7113    3.5567    2.1403 C   0  0  0  0  0  0  0  0  0  0  0  0
   -6.6783    1.3684   -1.3945 C   0  0  0  0  0  0  0  0  0  0  0  0
    4.8982    0.9918   -2.6985 C   0  0  0  0  0  0  0  0  0  0  0  0
   -1.9685    4.2732    1.2020 C   0  0  0  0  0  0  0  0  0  0  0  0
   -7.5193    0.3287   -0.9980 C   0  0  0  0  0  0  0  0  0  0  0  0
    6.0564    3.3730   -1.1773 C   0  0  0  0  0  0  0  0  0  0  0  0
    8.1413    2.0786   -0.7017 C   0  0  0  0  0  0  0  0  0  0  0  0
   -0.8357   -1.6532   -2.1034 H   0  0  0  0  0  0  0  0  0  0  0  0
    1.3660   -2.7803   -1.2569 H   0  0  0  0  0  0  0  0  0  0  0  0
    1.2808   -1.0087   -1.3234 H   0  0  0  0  0  0  0  0  0  0  0  0
   -1.8530   -1.8457    1.7425 H   0  0  0  0  0  0  0  0  0  0  0  0
   -1.4017   -0.1322    1.7511 H   0  0  0  0  0  0  0  0  0  0  0  0
   -3.4266   -0.2051    1.1853 H   0  0  0  0  0  0  0  0  0  0  0  0
    3.3995   -3.0452   -0.1305 H   0  0  0  0  0  0  0  0  0  0  0  0
    4.1072   -2.9920    1.4720 H   0  0  0  0  0  0  0  0  0  0  0  0
    2.8155   -1.8423    3.3761 H   0  0  0  0  0  0  0  0  0  0  0  0
    3.6087   -1.1279   -1.6699 H   0  0  0  0  0  0  0  0  0  0  0  0
    5.3648   -1.0252    2.2567 H   0  0  0  0  0  0  0  0  0  0  0  0
   -1.9554    2.0507   -1.3475 H   0  0  0  0  0  0  0  0  0  0  0  0
   -5.3168   -1.4985    0.8304 H   0  0  0  0  0  0  0  0  0  0  0  0
   -3.7631    1.7331    2.5662 H   0  0  0  0  0  0  0  0  0  0  0  0
   -4.7173    2.1934   -1.3350 H   0  0  0  0  0  0  0  0  0  0  0  0
   -1.4929   -4.9360   -1.9311 H   0  0  0  0  0  0  0  0  0  0  0  0
    6.7029    0.9314    1.6181 H   0  0  0  0  0  0  0  0  0  0  0  0
   -1.1241    4.2752   -0.7793 H   0  0  0  0  0  0  0  0  0  0  0  0
   -7.6802   -1.5108    0.1116 H   0  0  0  0  0  0  0  0  0  0  0  0
   -2.9210    3.9912    3.1133 H   0  0  0  0  0  0  0  0  0  0  0  0
   -7.0620    2.1669   -2.0229 H   0  0  0  0  0  0  0  0  0  0  0  0
    4.4340    0.2574   -3.3672 H   0  0  0  0  0  0  0  0  0  0  0  0
    5.8716    1.2276   -3.1409 H   0  0  0  0  0  0  0  0  0  0  0  0
    4.2598    1.8802   -2.6987 H   0  0  0  0  0  0  0  0  0  0  0  0
   -1.6004    5.2658    1.4442 H   0  0  0  0  0  0  0  0  0  0  0  0
   -8.5580    0.3194   -1.3149 H   0  0  0  0  0  0  0  0  0  0  0  0
    6.1301    3.4948   -2.2625 H   0  0  0  0  0  0  0  0  0  0  0  0
    6.5496    4.2347   -0.7136 H   0  0  0  0  0  0  0  0  0  0  0  0
    5.0015    3.4158   -0.8838 H   0  0  0  0  0  0  0  0  0  0  0  0
    8.4975    2.1315    0.3322 H   0  0  0  0  0  0  0  0  0  0  0  0
    8.5943    2.9090   -1.2541 H   0  0  0  0  0  0  0  0  0  0  0  0
    8.5058    1.1488   -1.1518 H   0  0  0  0  0  0  0  0  0  0  0  0
  1 13  2  0  0  0  0
  2 16  1  0  0  0  0
  2 54  1  0  0  0  0
  3 16  2  0  0  0  0
  4  8  1  0  0  0  0
  4 11  1  0  0  0  0
  4 13  1  0  0  0  0
  5 10  1  0  0  0  0
  5 15  1  0  0  0  0
  5 17  1  0  0  0  0
  6 12  1  0  0  0  0
  6 17  2  0  0  0  0
  7 28  1  0  0  0  0
  7 37  1  0  0  0  0
  7 38  1  0  0  0  0
  8  9  1  0  0  0  0
  8 16  1  0  0  0  0
  8 39  1  0  0  0  0
  9 10  1  0  0  0  0
  9 40  1  0  0  0  0
  9 41  1  0  0  0  0
 10 12  2  0  0  0  0
 11 12  1  0  0  0  0
 11 42  1  0  0  0  0
 11 43  1  0  0  0  0
 13 14  1  0  0  0  0
 14 19  1  0  0  0  0
 14 20  1  0  0  0  0
 14 44  1  0  0  0  0
 15 18  1  0  0  0  0
 15 45  1  0  0  0  0
 15 46  1  0  0  0  0
 17 47  1  0  0  0  0
 18 21  2  0  0  0  0
 18 22  1  0  0  0  0
 19 23  2  0  0  0  0
 19 25  1  0  0  0  0
 20 24  2  0  0  0  0
 20 26  1  0  0  0  0
 21 27  1  0  0  0  0
 21 48  1  0  0  0  0
 22 29  2  0  0  0  0
 22 49  1  0  0  0  0
 23 30  1  0  0  0  0
 23 50  1  0  0  0  0
 24 31  1  0  0  0  0
 24 51  1  0  0  0  0
 25 32  2  0  0  0  0
 25 52  1  0  0  0  0
 26 33  2  0  0  0  0
 26 53  1  0  0  0  0
 27 28  2  0  0  0  0
 27 34  1  0  0  0  0
 28 29  1  0  0  0  0
 29 55  1  0  0  0  0
 30 35  2  0  0  0  0
 30 56  1  0  0  0  0
 31 36  2  0  0  0  0
 31 57  1  0  0  0  0
 32 35  1  0  0  0  0
 32 58  1  0  0  0  0
 33 36  1  0  0  0  0
 33 59  1  0  0  0  0
 34 60  1  0  0  0  0
 34 61  1  0  0  0  0
 34 62  1  0  0  0  0
 35 63  1  0  0  0  0
 36 64  1  0  0  0  0
 37 65  1  0  0  0  0
 37 66  1  0  0  0  0
 37 67  1  0  0  0  0
 38 68  1  0  0  0  0
 38 69  1  0  0  0  0
 38 70  1  0  0  0  0
M  END
> <PUBCHEM_COMPOUND_CID>
4701

> <PUBCHEM_CONFORMER_RMSD>
1

> <PUBCHEM_CONFORMER_DIVERSEORDER>
3
39
82
74
140
180
83
202
128
159
25
152
44
118
174
33
73
192
161
188
198
48
110
195
107
71
106
76
75
104
167
165
113
92
101
64
197
199
22
109
29
156
175
18
129
179
70
205
131
177
191
187
66
94
54
14
203
155
147
154
115
116
132
20
193
189
172
194
87
42
163
85
90
21
178
134
59
138
32
31
95
127
58
91
36
99
173
34
43
196
86
145
93
169
124
12
185
160
30
53
97
111
78
28
182
162
122
38
88
168
81
49
11
126
46
153
37
204
65
24
201
133
96
13
19
27
119
200
146
166
143
151
6
84
72
98
15
100
55
171
23
63
139
68
141
157
114
206
184
89
170
112
186
102
183
135
137
67
26
77
125
16
176
7
40
60
62
130
41
120
47
144
123
17
80
149
108
79
150
105
4
45
5
61
121
51
148
142
8
52
57
35
190
164
69
56
10
50
2
9
136
1
103
181
117
158

> <PUBCHEM_MMFF94_PARTIAL_CHARGES>
53
1 -0.57
10 -0.33
11 0.48
12 0.05
13 0.57
14 0.35
15 0.4
16 0.66
17 0.04
18 -0.14
19 -0.14
2 -0.65
20 -0.14
21 -0.15
22 -0.15
23 -0.15
24 -0.15
25 -0.15
26 -0.15
27 -0.14
28 0.1
29 -0.15
3 -0.57
30 -0.15
31 -0.15
32 -0.15
33 -0.15
34 0.14
35 -0.15
36 -0.15
37 0.37
38 0.37
4 -0.66
47 0.15
48 0.15
49 0.15
5 0.05
50 0.15
51 0.15
52 0.15
53 0.15
54 0.5
55 0.15
56 0.15
57 0.15
58 0.15
59 0.15
6 -0.57
63 0.15
64 0.15
7 -0.84
8 0.36
9 0.18

> <PUBCHEM_EFFECTIVE_ROTOR_COUNT>
8.8

> <PUBCHEM_PHARMACOPHORE_FEATURES>
11
1 1 acceptor
1 2 acceptor
1 3 acceptor
1 7 cation
3 2 3 16 anion
3 5 6 17 cation
5 5 6 10 12 17 rings
6 18 21 22 27 28 29 rings
6 19 23 25 30 32 35 rings
6 20 24 26 31 33 36 rings
6 4 8 9 10 11 12 rings

> <PUBCHEM_HEAVY_ATOM_COUNT>
38

> <PUBCHEM_ATOM_DEF_STEREO_COUNT>
0

> <PUBCHEM_ATOM_UDEF_STEREO_COUNT>
1

> <PUBCHEM_BOND_DEF_STEREO_COUNT>
0

> <PUBCHEM_BOND_UDEF_STEREO_COUNT>
0

> <PUBCHEM_ISOTOPIC_ATOM_COUNT>
0

> <PUBCHEM_COMPONENT_COUNT>
1

> <PUBCHEM_CACTVS_TAUTO_COUNT>
1

> <PUBCHEM_CONFORMER_ID>
0000125D00000003

> <PUBCHEM_MMFF94_ENERGY>
128.8335

> <PUBCHEM_FEATURE_SELFOVERLAP>
55.978

> <PUBCHEM_SHAPE_FINGERPRINT>
10670039 82 18188488111461352960
10842051 180 18336273396705559773
10906281 52 18266455585495073625
10928967 22 7132174009296611348
11796584 16 9943223987824924722
12596602 18 18059578031073867907
13383665 225 17823407366361619537
13617811 41 18260841418445850969
13636023 51 12750650934407981470
13911987 19 18336278915991677847
14068700 686 17896880048885556935
14394314 77 18411411847784252213
15163728 17 18044360854400950818
15289351 153 18411133655153280472
15357212 105 17316744784493858433
15575132 122 18337114583009206749
15781502 589 18335701663723366286
15968369 153 18042411235712424856
16112460 7 18202281408240414204
16991981 162 18334852771541994654
17809404 112 14332264437935612409
17899979 19 18343301457735169629
19319366 153 18131641105374281202
21049683 271 18411707569963360789
249057 25 18267586990838054434
3918712 181 18412267203748745208
46194498 28 16588602945431170696
469060 322 18190180269026820841
5081480 168 15575010488838293096
550186 72 18337953514761271193
563151 74 16845296072223003211
5776283 40 18264205808474880808
6036956 94 18271515412530122100

> <PUBCHEM_SHAPE_MULTIPOLES>
744.49
18.59
4.7
2.17
9.57
1.63
0.53
11.87
-7.46
-0.16
0.43
0.86
-0.12
-3.34

> <PUBCHEM_SHAPE_SELFOVERLAP>
1630.793

> <PUBCHEM_SHAPE_VOLUME>
402

> <PUBCHEM_COORDINATE_TYPE>
2
5
10

$$$$

