193187
  -OEChem-07051212492D

 33 32  0     1  0  0  0  0  0999 V2000
    2.5369    1.4050    0.0000 O   0  0  0  0  0  0  0  0  0  0  0  0
    3.4030    2.9050    0.0000 O   0  0  0  0  0  0  0  0  0  0  0  0
    7.7331    1.4050    0.0000 O   0  0  0  0  0  0  0  0  0  0  0  0
    6.8671    2.9050    0.0000 O   0  0  0  0  0  0  0  0  0  0  0  0
    5.1350    1.9050    0.0000 N   0  0  0  0  0  0  0  0  0  0  0  0
    2.5369   -2.5950    0.0000 N   0  0  0  0  0  0  0  0  0  0  0  0
    4.2690    0.4050    0.0000 C   0  0  0  0  0  0  0  0  0  0  0  0
    4.2690    1.4050    0.0000 C   0  0  1  0  0  0  0  0  0  0  0  0
    3.4030   -0.0950    0.0000 C   0  0  0  0  0  0  0  0  0  0  0  0
    3.4030   -1.0950    0.0000 C   0  0  0  0  0  0  0  0  0  0  0  0
    6.0010    1.4050    0.0000 C   0  0  2  0  0  0  0  0  0  0  0  0
    2.5369   -1.5950    0.0000 C   0  0  0  0  0  0  0  0  0  0  0  0
    3.4030    1.9050    0.0000 C   0  0  0  0  0  0  0  0  0  0  0  0
    6.0010    0.4050    0.0000 C   0  0  0  0  0  0  0  0  0  0  0  0
    6.8671    1.9050    0.0000 C   0  0  0  0  0  0  0  0  0  0  0  0
    4.4810   -0.1776    0.0000 H   0  0  0  0  0  0  0  0  0  0  0  0
    4.8796    0.5127    0.0000 H   0  0  0  0  0  0  0  0  0  0  0  0
    4.2690    2.0250    0.0000 H   0  0  0  0  0  0  0  0  0  0  0  0
    3.1909    0.4876    0.0000 H   0  0  0  0  0  0  0  0  0  0  0  0
    2.7924   -0.2027    0.0000 H   0  0  0  0  0  0  0  0  0  0  0  0
    3.6150   -1.6776    0.0000 H   0  0  0  0  0  0  0  0  0  0  0  0
    4.0135   -0.9873    0.0000 H   0  0  0  0  0  0  0  0  0  0  0  0
    5.1350    2.5250    0.0000 H   0  0  0  0  0  0  0  0  0  0  0  0
    5.4641    1.0950    0.0000 H   0  0  0  0  0  0  0  0  0  0  0  0
    2.3249   -1.0124    0.0000 H   0  0  0  0  0  0  0  0  0  0  0  0
    1.9264   -1.7027    0.0000 H   0  0  0  0  0  0  0  0  0  0  0  0
    5.3810    0.4050    0.0000 H   0  0  0  0  0  0  0  0  0  0  0  0
    6.0010   -0.2150    0.0000 H   0  0  0  0  0  0  0  0  0  0  0  0
    6.6210    0.4050    0.0000 H   0  0  0  0  0  0  0  0  0  0  0  0
    2.0000   -2.9050    0.0000 H   0  0  0  0  0  0  0  0  0  0  0  0
    3.0739   -2.9050    0.0000 H   0  0  0  0  0  0  0  0  0  0  0  0
    2.0000    1.7150    0.0000 H   0  0  0  0  0  0  0  0  0  0  0  0
    8.2700    1.7150    0.0000 H   0  0  0  0  0  0  0  0  0  0  0  0
  1 13  1  0  0  0  0
  1 32  1  0  0  0  0
  2 13  2  0  0  0  0
  3 15  1  0  0  0  0
  3 33  1  0  0  0  0
  4 15  2  0  0  0  0
  8  5  1  1  0  0  0
 11  5  1  1  0  0  0
  5 23  1  0  0  0  0
  6 12  1  0  0  0  0
  6 30  1  0  0  0  0
  6 31  1  0  0  0  0
  7  8  1  0  0  0  0
  7  9  1  0  0  0  0
  7 16  1  0  0  0  0
  7 17  1  0  0  0  0
  8 13  1  0  0  0  0
  8 18  1  0  0  0  0
  9 10  1  0  0  0  0
  9 19  1  0  0  0  0
  9 20  1  0  0  0  0
 10 12  1  0  0  0  0
 10 21  1  0  0  0  0
 10 22  1  0  0  0  0
 11 14  1  0  0  0  0
 11 15  1  0  0  0  0
 11 24  1  0  0  0  0
 12 25  1  0  0  0  0
 12 26  1  0  0  0  0
 14 27  1  0  0  0  0
 14 28  1  0  0  0  0
 14 29  1  0  0  0  0
M  END
> <PUBCHEM_COMPOUND_CID>
193187

> <PUBCHEM_COMPOUND_CANONICALIZED>
1

> <PUBCHEM_CACTVS_COMPLEXITY>
220

> <PUBCHEM_CACTVS_HBOND_ACCEPTOR>
6

> <PUBCHEM_CACTVS_HBOND_DONOR>
4

> <PUBCHEM_CACTVS_ROTATABLE_BOND>
8

> <PUBCHEM_CACTVS_SUBSKEYS>
AAADceBzOAAAAAAAAAAAAAAAAAAAAAAAAAAAAAAAAAAAAAAAAAAAHgAQCAAACCjBgAQCCALAAgAIAACQCAAAAAAAAAAAAIGIAAACABIAgCAEQAAEEACQAAGYSAAAAAAAAAAAAAAAAAAAAAAAAAAAAAAAAA==

> <PUBCHEM_IUPAC_OPENEYE_NAME>
(2S)-6-amino-2-[[(1R)-1-carboxyethyl]amino]hexanoic acid

> <PUBCHEM_IUPAC_CAS_NAME>
(2S)-6-amino-2-[[(1R)-1-carboxyethyl]amino]hexanoic acid

> <PUBCHEM_IUPAC_NAME>
(2S)-6-amino-2-[[(1R)-1-carboxyethyl]amino]hexanoic acid

> <PUBCHEM_IUPAC_SYSTEMATIC_NAME>
(2S)-6-azanyl-2-[[(2R)-1-oxidanyl-1-oxidanylidene-propan-2-yl]amino]hexanoic acid

> <PUBCHEM_IUPAC_TRADITIONAL_NAME>
(2S)-6-amino-2-[[(1R)-1-carboxyethyl]amino]hexanoic acid

> <PUBCHEM_IUPAC_INCHI>
InChI=1S/C9H18N2O4/c1-6(8(12)13)11-7(9(14)15)4-2-3-5-10/h6-7,11H,2-5,10H2,1H3,(H,12,13)(H,14,15)/t6-,7+/m1/s1

> <PUBCHEM_IUPAC_INCHIKEY>
ZZYYVZYAZCMNPG-RQJHMYQMSA-N

> <PUBCHEM_XLOGP3_AA>
-5

> <PUBCHEM_EXACT_MASS>
218.126657

> <PUBCHEM_MOLECULAR_FORMULA>
C9H18N2O4

> <PUBCHEM_MOLECULAR_WEIGHT>
218.25022

> <PUBCHEM_OPENEYE_CAN_SMILES>
CC(C(=O)O)NC(CCCCN)C(=O)O

> <PUBCHEM_OPENEYE_ISO_SMILES>
C[C@H](C(=O)O)N[C@@H](CCCCN)C(=O)O

> <PUBCHEM_CACTVS_TPSA>
113

> <PUBCHEM_MONOISOTOPIC_WEIGHT>
218.126657

> <PUBCHEM_TOTAL_CHARGE>
0

> <PUBCHEM_HEAVY_ATOM_COUNT>
15

> <PUBCHEM_ATOM_DEF_STEREO_COUNT>
2

> <PUBCHEM_ATOM_UDEF_STEREO_COUNT>
0

> <PUBCHEM_BOND_DEF_STEREO_COUNT>
0

> <PUBCHEM_BOND_UDEF_STEREO_COUNT>
0

> <PUBCHEM_ISOTOPIC_ATOM_COUNT>
0

> <PUBCHEM_COMPONENT_COUNT>
1

> <PUBCHEM_CACTVS_TAUTO_COUNT>
1

> <PUBCHEM_COORDINATE_TYPE>
1
5
255

> <PUBCHEM_BONDANNOTATIONS>
11  5  5
8  5  5

$$$$

