4684
  -OEChem-07051212463D

 13 13  0     0  0  0  0  0  0999 V2000
   -3.0707    0.0000    0.0005 Cl  0  0  0  0  0  0  0  0  0  0  0  0
    2.8008    0.0000    0.0011 O   0  0  0  0  0  0  0  0  0  0  0  0
    1.4398    0.0001   -0.0006 C   0  0  0  0  0  0  0  0  0  0  0  0
    0.7424    1.2080   -0.0005 C   0  0  0  0  0  0  0  0  0  0  0  0
    0.7425   -1.2080   -0.0004 C   0  0  0  0  0  0  0  0  0  0  0  0
   -0.6525    1.2079    0.0000 C   0  0  0  0  0  0  0  0  0  0  0  0
   -0.6525   -1.2080   -0.0001 C   0  0  0  0  0  0  0  0  0  0  0  0
   -1.3499   -0.0001    0.0001 C   0  0  0  0  0  0  0  0  0  0  0  0
    1.2802    2.1522   -0.0003 H   0  0  0  0  0  0  0  0  0  0  0  0
    1.2741   -2.1558   -0.0002 H   0  0  0  0  0  0  0  0  0  0  0  0
   -1.1827    2.1568    0.0002 H   0  0  0  0  0  0  0  0  0  0  0  0
   -1.1827   -2.1568    0.0001 H   0  0  0  0  0  0  0  0  0  0  0  0
    3.1158   -0.9202    0.0013 H   0  0  0  0  0  0  0  0  0  0  0  0
  1  8  1  0  0  0  0
  2  3  1  0  0  0  0
  2 13  1  0  0  0  0
  3  4  2  0  0  0  0
  3  5  1  0  0  0  0
  4  6  1  0  0  0  0
  4  9  1  0  0  0  0
  5  7  2  0  0  0  0
  5 10  1  0  0  0  0
  6  8  2  0  0  0  0
  6 11  1  0  0  0  0
  7  8  1  0  0  0  0
  7 12  1  0  0  0  0
M  END
> <PUBCHEM_COMPOUND_CID>
4684

> <PUBCHEM_CONFORMER_RMSD>
0.4

> <PUBCHEM_CONFORMER_DIVERSEORDER>
1

> <PUBCHEM_MMFF94_PARTIAL_CHARGES>
13
1 -0.18
10 0.15
11 0.15
12 0.15
13 0.45
2 -0.53
3 0.08
4 -0.15
5 -0.15
6 -0.15
7 -0.15
8 0.18
9 0.15

> <PUBCHEM_EFFECTIVE_ROTOR_COUNT>
0

> <PUBCHEM_PHARMACOPHORE_FEATURES>
2
1 2 donor
6 3 4 5 6 7 8 rings

> <PUBCHEM_HEAVY_ATOM_COUNT>
8

> <PUBCHEM_ATOM_DEF_STEREO_COUNT>
0

> <PUBCHEM_ATOM_UDEF_STEREO_COUNT>
0

> <PUBCHEM_BOND_DEF_STEREO_COUNT>
0

> <PUBCHEM_BOND_UDEF_STEREO_COUNT>
0

> <PUBCHEM_ISOTOPIC_ATOM_COUNT>
0

> <PUBCHEM_COMPONENT_COUNT>
1

> <PUBCHEM_CACTVS_TAUTO_COUNT>
2

> <PUBCHEM_CONFORMER_ID>
0000124C00000001

> <PUBCHEM_MMFF94_ENERGY>
16.0292

> <PUBCHEM_FEATURE_SELFOVERLAP>
10.148

> <PUBCHEM_SHAPE_FINGERPRINT>
16714656 1 18410572885808615494
16945 1 18410855464496975623
18185500 45 18410296895378664687
21040471 1 18266458694101966149
23235685 24 18410859858195869365
23402655 69 18193575565339558813
23552423 10 18055626471987768766
2748010 2 18122342372086081511
29004967 10 18343577460553448353
5084963 1 18333168370919663865

> <PUBCHEM_SHAPE_MULTIPOLES>
160.64
3.38
1.36
0.61
0.93
0
0
0
0
-0.09
0
0.05
0
0

> <PUBCHEM_SHAPE_SELFOVERLAP>
324.489

> <PUBCHEM_SHAPE_VOLUME>
95.3

> <PUBCHEM_COORDINATE_TYPE>
2
5
10

$$$$

