47205091
  -OEChem-06241222583D

 29 30  0     0  0  0  0  0  0999 V2000
   -5.0795    2.3476    0.4189 Br  0  0  0  0  0  0  0  0  0  0  0  0
    0.4992   -1.7855    1.3486 O   0  0  0  0  0  0  0  0  0  0  0  0
    1.5796   -1.6174   -0.6993 N   0  0  0  0  0  0  0  0  0  0  0  0
    3.4757    0.9053   -0.9353 N   0  0  0  0  0  0  0  0  0  0  0  0
    3.7141    2.1604   -0.5178 N   0  0  0  0  0  0  0  0  0  0  0  0
   -0.8087   -1.9684   -0.6810 C   0  0  0  0  0  0  0  0  0  0  0  0
    2.9116   -1.4202   -0.1775 C   0  0  0  0  0  0  0  0  0  0  0  0
   -1.8405   -0.9250   -0.4147 C   0  0  0  0  0  0  0  0  0  0  0  0
    3.2070    0.0299    0.0757 C   0  0  0  0  0  0  0  0  0  0  0  0
    0.4726   -1.7854    0.1205 C   0  0  0  0  0  0  0  0  0  0  0  0
   -2.7816   -1.1169    0.5969 C   0  0  0  0  0  0  0  0  0  0  0  0
   -1.8648    0.2424   -1.1776 C   0  0  0  0  0  0  0  0  0  0  0  0
    3.2747    0.7632    1.2351 C   0  0  0  0  0  0  0  0  0  0  0  0
   -3.7471   -0.1414    0.8455 C   0  0  0  0  0  0  0  0  0  0  0  0
   -2.8304    1.2179   -0.9293 C   0  0  0  0  0  0  0  0  0  0  0  0
   -3.7715    1.0260    0.0822 C   0  0  0  0  0  0  0  0  0  0  0  0
    3.5898    2.0674    0.8089 C   0  0  0  0  0  0  0  0  0  0  0  0
   -1.2024   -2.9628   -0.4330 H   0  0  0  0  0  0  0  0  0  0  0  0
   -0.5975   -2.0089   -1.7568 H   0  0  0  0  0  0  0  0  0  0  0  0
    3.6163   -1.8262   -0.9112 H   0  0  0  0  0  0  0  0  0  0  0  0
    3.0237   -1.9924    0.7503 H   0  0  0  0  0  0  0  0  0  0  0  0
    1.4644   -1.6066   -1.7083 H   0  0  0  0  0  0  0  0  0  0  0  0
   -2.7723   -2.0212    1.1996 H   0  0  0  0  0  0  0  0  0  0  0  0
   -1.1354    0.4042   -1.9669 H   0  0  0  0  0  0  0  0  0  0  0  0
    3.1175    0.4071    2.2427 H   0  0  0  0  0  0  0  0  0  0  0  0
    3.5119    0.7165   -1.9293 H   0  0  0  0  0  0  0  0  0  0  0  0
   -4.4730   -0.3062    1.6376 H   0  0  0  0  0  0  0  0  0  0  0  0
   -2.8352    2.1221   -1.5326 H   0  0  0  0  0  0  0  0  0  0  0  0
    3.7338    2.9538    1.4098 H   0  0  0  0  0  0  0  0  0  0  0  0
  1 16  1  0  0  0  0
  2 10  2  0  0  0  0
  3  7  1  0  0  0  0
  3 10  1  0  0  0  0
  3 22  1  0  0  0  0
  4  5  1  0  0  0  0
  4  9  1  0  0  0  0
  4 26  1  0  0  0  0
  5 17  2  0  0  0  0
  6  8  1  0  0  0  0
  6 10  1  0  0  0  0
  6 18  1  0  0  0  0
  6 19  1  0  0  0  0
  7  9  1  0  0  0  0
  7 20  1  0  0  0  0
  7 21  1  0  0  0  0
  8 11  2  0  0  0  0
  8 12  1  0  0  0  0
  9 13  2  0  0  0  0
 11 14  1  0  0  0  0
 11 23  1  0  0  0  0
 12 15  2  0  0  0  0
 12 24  1  0  0  0  0
 13 17  1  0  0  0  0
 13 25  1  0  0  0  0
 14 16  2  0  0  0  0
 14 27  1  0  0  0  0
 15 16  1  0  0  0  0
 15 28  1  0  0  0  0
 17 29  1  0  0  0  0
M  END
> <PUBCHEM_COMPOUND_CID>
47205091

> <PUBCHEM_CONFORMER_RMSD>
0.6

> <PUBCHEM_CONFORMER_DIVERSEORDER>
1
5
97
66
115
54
116
150
101
110
87
81
128
71
19
96
63
155
117
62
112
69
118
111
35
77
142
30
135
105
86
55
53
156
51
102
8
60
6
136
82
70
20
41
121
129
83
22
7
149
122
64
120
95
15
79
56
132
24
104
148
48
25
107
151
42
34
21
125
94
45
52
26
9
65
106
133
153
109
36
138
47
126
114
98
137
40
10
2
12
140
143
123
61
49
141
147
72
152
37
59
29
17
27
113
11
85
74
80
100
84
124
58
23
139
73
57
33
131
16
99
103
134
44
31
88
75
93
3
46
130
4
38
67
14
90
127
154
18
145
144
32
28
92
43
39
89
119
50
76
13
146
68
91
78
108

> <PUBCHEM_MMFF94_PARTIAL_CHARGES>
25
1 -0.11
10 0.57
11 -0.15
12 -0.15
13 -0.15
14 -0.15
15 -0.15
16 0.11
17 0.14
2 -0.57
22 0.37
23 0.15
24 0.15
25 0.15
26 0.27
27 0.15
28 0.15
29 0.15
3 -0.73
4 0.3
5 -0.71
6 0.2
7 0.48
8 -0.14
9 -0.33

> <PUBCHEM_EFFECTIVE_ROTOR_COUNT>
5

> <PUBCHEM_PHARMACOPHORE_FEATURES>
7
1 1 hydrophobe
1 2 acceptor
1 3 donor
1 4 donor
1 5 acceptor
5 4 5 9 13 17 rings
6 8 11 12 14 15 16 rings

> <PUBCHEM_HEAVY_ATOM_COUNT>
17

> <PUBCHEM_ATOM_DEF_STEREO_COUNT>
0

> <PUBCHEM_ATOM_UDEF_STEREO_COUNT>
0

> <PUBCHEM_BOND_DEF_STEREO_COUNT>
0

> <PUBCHEM_BOND_UDEF_STEREO_COUNT>
0

> <PUBCHEM_ISOTOPIC_ATOM_COUNT>
0

> <PUBCHEM_COMPONENT_COUNT>
1

> <PUBCHEM_CACTVS_TAUTO_COUNT>
4

> <PUBCHEM_CONFORMER_ID>
02D04AE300000001

> <PUBCHEM_MMFF94_ENERGY>
23.853

> <PUBCHEM_FEATURE_SELFOVERLAP>
35.52

> <PUBCHEM_SHAPE_FINGERPRINT>
10498660 4 18040436568436387601
10968037 57 11383566623551345393
11137873 295 8502376650354614655
11615756 256 18411134731897659776
11715629 250 18335707079102372942
12173636 292 18187653470482961751
122479 349 18411980247712711139
12363563 72 9943535132340620600
12633257 1 16415196745684164457
12824470 246 11311766311245038903
13897977 13 18411978036215724463
14123255 52 18334579048870399041
1420 369 10952042369003627737
14251710 61 10015864297081598913
14251731 5 9583526433799257080
14251764 30 13397523458367013808
14251764 75 18335128787489548977
14341114 328 17131828725011855264
14848160 33 10159695785292836784
15295992 7 18201994464989406458
15342168 16 18408602591426971181
15342816 4 8574715715111137712
17810953 82 18264766730607340081
17834072 14 10303817566343919603
17834072 32 18335983146804720745
1798214 55 18335423447899085808
18186145 218 17967527952657010510
21475661 188 18270120261381208661
21503847 285 18338794640801948658
21864079 5 18334862701142405656
22182937 141 18337388232196411867
23403322 49 9223236243179830737
23559900 14 18192430998882543243
26353 1 13912600524674236058
27216 239 18341332197928063395
312425 83 14273724145233668608
38570 142 16771805669386430188
4463277 69 9799399027905889305
474 4 18411983576243410409
49207404 50 18201991110382343787
5104073 3 18271803566633548099
633830 44 18411984667276172510
7808743 9 18124590882556698564
90316 7 16558754524757172263
960060 61 6916257459649958232

> <PUBCHEM_SHAPE_MULTIPOLES>
334.98
9.72
2.69
1.15
2.39
0.5
-0.06
7.87
-1.11
-0.6
-0.14
-0.07
0.04
0.16

> <PUBCHEM_SHAPE_SELFOVERLAP>
692.031

> <PUBCHEM_SHAPE_VOLUME>
196

> <PUBCHEM_COORDINATE_TYPE>
2
5
10

$$$$

