9954
  -OEChem-06261204123D

 33 34  0     0  0  0  0  0  0999 V2000
   -4.7622    1.2549   -1.7152 O   0  0  0  0  0  0  0  0  0  0  0  0
   -5.9614    0.7361    0.7383 O   0  0  0  0  0  0  0  0  0  0  0  0
    1.6067   -0.9028   -0.3018 N   0  0  0  0  0  0  0  0  0  0  0  0
    5.1949    1.1673    0.4199 N   0  0  0  0  0  0  0  0  0  0  0  0
    6.4176   -0.6690   -0.4791 N   0  0  0  0  0  0  0  0  0  0  0  0
   -0.8293   -1.3183   -0.3971 C   0  0  0  0  0  0  0  0  0  0  0  0
    0.2922   -0.3589    0.0217 C   0  0  0  0  0  0  0  0  0  0  0  0
   -2.1855   -0.7736   -0.1002 C   0  0  0  0  0  0  0  0  0  0  0  0
   -2.8523   -0.0042   -1.0536 C   0  0  0  0  0  0  0  0  0  0  0  0
   -2.7873   -1.0339    1.1310 C   0  0  0  0  0  0  0  0  0  0  0  0
    2.7822   -0.2248   -0.0658 C   0  0  0  0  0  0  0  0  0  0  0  0
   -4.1210    0.5049   -0.7760 C   0  0  0  0  0  0  0  0  0  0  0  0
   -4.0558   -0.5246    1.4087 C   0  0  0  0  0  0  0  0  0  0  0  0
   -4.7228    0.2447    0.4552 C   0  0  0  0  0  0  0  0  0  0  0  0
    4.0290   -0.7881   -0.3937 C   0  0  0  0  0  0  0  0  0  0  0  0
    2.7815    1.0576    0.5129 C   0  0  0  0  0  0  0  0  0  0  0  0
    5.1826   -0.0652   -0.1356 C   0  0  0  0  0  0  0  0  0  0  0  0
    3.9909    1.6979    0.7305 C   0  0  0  0  0  0  0  0  0  0  0  0
   -0.6967   -2.2853    0.1064 H   0  0  0  0  0  0  0  0  0  0  0  0
   -0.7448   -1.5419   -1.4691 H   0  0  0  0  0  0  0  0  0  0  0  0
    0.2244   -0.1732    1.1011 H   0  0  0  0  0  0  0  0  0  0  0  0
    0.1512    0.5985   -0.4957 H   0  0  0  0  0  0  0  0  0  0  0  0
    1.6609   -1.8269   -0.7156 H   0  0  0  0  0  0  0  0  0  0  0  0
   -2.3876    0.2037   -2.0144 H   0  0  0  0  0  0  0  0  0  0  0  0
   -2.2773   -1.6304    1.8827 H   0  0  0  0  0  0  0  0  0  0  0  0
   -4.5128   -0.7345    2.3720 H   0  0  0  0  0  0  0  0  0  0  0  0
    4.0774   -1.7768   -0.8432 H   0  0  0  0  0  0  0  0  0  0  0  0
    1.8670    1.5667    0.7983 H   0  0  0  0  0  0  0  0  0  0  0  0
    4.0238    2.6870    1.1755 H   0  0  0  0  0  0  0  0  0  0  0  0
   -5.6254    1.5232   -1.3551 H   0  0  0  0  0  0  0  0  0  0  0  0
   -6.2164    0.4552    1.6339 H   0  0  0  0  0  0  0  0  0  0  0  0
    6.4768   -1.6798   -0.4778 H   0  0  0  0  0  0  0  0  0  0  0  0
    7.2580   -0.1394   -0.2827 H   0  0  0  0  0  0  0  0  0  0  0  0
  1 12  1  0  0  0  0
  1 30  1  0  0  0  0
  2 14  1  0  0  0  0
  2 31  1  0  0  0  0
  3  7  1  0  0  0  0
  3 11  1  0  0  0  0
  3 23  1  0  0  0  0
  4 17  2  0  0  0  0
  4 18  1  0  0  0  0
  5 17  1  0  0  0  0
  5 32  1  0  0  0  0
  5 33  1  0  0  0  0
  6  7  1  0  0  0  0
  6  8  1  0  0  0  0
  6 19  1  0  0  0  0
  6 20  1  0  0  0  0
  7 21  1  0  0  0  0
  7 22  1  0  0  0  0
  8  9  2  0  0  0  0
  8 10  1  0  0  0  0
  9 12  1  0  0  0  0
  9 24  1  0  0  0  0
 10 13  2  0  0  0  0
 10 25  1  0  0  0  0
 11 15  2  0  0  0  0
 11 16  1  0  0  0  0
 12 14  2  0  0  0  0
 13 14  1  0  0  0  0
 13 26  1  0  0  0  0
 15 17  1  0  0  0  0
 15 27  1  0  0  0  0
 16 18  2  0  0  0  0
 16 28  1  0  0  0  0
 18 29  1  0  0  0  0
M  END
> <PUBCHEM_COMPOUND_CID>
9954

> <PUBCHEM_CONFORMER_RMSD>
0.6

> <PUBCHEM_CONFORMER_DIVERSEORDER>
2
66
54
47
31
74
63
73
12
15
49
56
64
20
67
40
29
65
94
46
52
42
62
82
24
79
34
41
39
14
35
86
80
26
50
51
43
55
44
48
19
1
27
93
72
33
16
45
76
37
84
4
81
70
17
75
78
85
23
8
32
28
53
13
25
18
3
69
7
22
77
88
11
92
71
61
87
83
38
58
60
68
36
57
21
90
9
91
5
30
6
10
59
89

> <PUBCHEM_MMFF94_PARTIAL_CHARGES>
29
1 -0.53
10 -0.15
11 0.1
12 0.08
13 -0.15
14 0.08
15 -0.15
16 -0.15
17 0.41
18 0.16
2 -0.53
23 0.4
24 0.15
25 0.15
26 0.15
27 0.15
28 0.15
29 0.15
3 -0.87
30 0.45
31 0.45
32 0.4
33 0.4
4 -0.62
5 -0.9
6 0.14
7 0.37
8 -0.14
9 -0.15

> <PUBCHEM_EFFECTIVE_ROTOR_COUNT>
4

> <PUBCHEM_PHARMACOPHORE_FEATURES>
8
1 1 donor
1 2 donor
1 3 cation
1 3 donor
1 5 donor
3 4 5 17 cation
6 4 11 15 16 17 18 rings
6 8 9 10 12 13 14 rings

> <PUBCHEM_HEAVY_ATOM_COUNT>
18

> <PUBCHEM_ATOM_DEF_STEREO_COUNT>
0

> <PUBCHEM_ATOM_UDEF_STEREO_COUNT>
0

> <PUBCHEM_BOND_DEF_STEREO_COUNT>
0

> <PUBCHEM_BOND_UDEF_STEREO_COUNT>
0

> <PUBCHEM_ISOTOPIC_ATOM_COUNT>
0

> <PUBCHEM_COMPONENT_COUNT>
1

> <PUBCHEM_CACTVS_TAUTO_COUNT>
108

> <PUBCHEM_CONFORMER_ID>
000026E200000002

> <PUBCHEM_MMFF94_ENERGY>
59.7341

> <PUBCHEM_FEATURE_SELFOVERLAP>
40.599

> <PUBCHEM_SHAPE_FINGERPRINT>
10014705 185 18335426724874678287
10680689 15 18202002097104021363
11089746 13 16805325483627718050
12236239 1 16805324392094153406
12596602 18 15267342924714137308
13167372 99 17894905282350979672
13533116 47 18130229371088295042
13675066 3 18201435852805026638
14251718 22 6122500211838742938
14341114 328 15339121242724386624
14849402 71 15338260244475582460
15183329 4 17676482857113952996
15348495 7 18059572434783897600
15537594 2 12967128294132231280
16988056 13 5168949590026368883
17834072 33 15791735182733824280
17834072 8 18187641406241184134
17844677 252 17846772984277233980
19433438 28 18201999902243468251
19489759 90 17632579344905691987
19784866 170 17846781827403893159
200 152 16732703848028970563
20281389 69 18343867705990793628
20300324 65 15140678077324667411
20432913 95 11527951166184765629
20645477 56 18272653454619849999
20645477 70 18113896087471982430
21033648 29 18341063950986770896
21054139 6 14779276306087741980
21503847 285 17632577111522977676
2297311 6 17418368116714898879
23402539 116 16515685550047446393
23402655 69 17821730486374041276
23559900 14 17416684841722821495
239999 70 8286202760619296668
29717793 49 16443058409788268388
300161 21 16588025718932603702
3545911 37 18272367585511702811
5104073 3 18262525780213146762
542803 24 17385441016312424418
5758199 1 13830122868394406958
5924683 9 18058166125190085363
633830 44 18058740100450570942
90127 26 18130787815747181080
9971528 1 17312821581166319344

> <PUBCHEM_SHAPE_MULTIPOLES>
343.75
15.38
1.33
1.14
6.14
0.25
-0.07
3.46
0.02
0.71
0.05
-1.69
0.13
1.25

> <PUBCHEM_SHAPE_SELFOVERLAP>
729.396

> <PUBCHEM_SHAPE_VOLUME>
191

> <PUBCHEM_COORDINATE_TYPE>
2
5
10

$$$$

