86306
  -OEChem-07051213122D

 43 43  0     0  0  0  0  0  0999 V2000
    5.6569   -0.0497    0.0000 S   0  0  0  0  0  0  0  0  0  0  0  0
    4.7628   -1.8284    0.0000 O   0  0  0  0  0  0  0  0  0  0  0  0
    8.0942    0.9796    0.0000 O   0  0  0  0  0  0  0  0  0  0  0  0
    7.5590   -0.6677    0.0000 O   0  0  0  0  0  0  0  0  0  0  0  0
    3.8968   -0.3284    0.0000 N   0  0  0  0  0  0  0  0  0  0  0  0
    3.0878    0.2593    0.0000 N   0  0  0  0  0  0  0  0  0  0  0  0
    4.3968    1.2104    0.0000 N   0  0  0  0  0  0  0  0  0  0  0  0
    3.0308   -1.8284    0.0000 N   0  0  0  0  0  0  0  0  0  0  0  0
    2.8090    2.0194    0.0000 C   0  0  0  0  0  0  0  0  0  0  0  0
    3.3968    1.2104    0.0000 C   0  0  0  0  0  0  0  0  0  0  0  0
    2.2212    2.8284    0.0000 C   0  0  0  0  0  0  0  0  0  0  0  0
    3.6180    2.6072    0.0000 C   0  0  0  0  0  0  0  0  0  0  0  0
    2.0000    1.4316    0.0000 C   0  0  0  0  0  0  0  0  0  0  0  0
    4.7058    0.2593    0.0000 C   0  0  0  0  0  0  0  0  0  0  0  0
    3.8968   -1.3284    0.0000 C   0  0  0  0  0  0  0  0  0  0  0  0
    6.4000    0.6195    0.0000 C   0  0  0  0  0  0  0  0  0  0  0  0
    3.0308   -2.8284    0.0000 C   0  0  0  0  0  0  0  0  0  0  0  0
    2.1648   -1.3284    0.0000 C   0  0  0  0  0  0  0  0  0  0  0  0
    7.3511    0.3104    0.0000 C   0  0  0  0  0  0  0  0  0  0  0  0
    9.0453    0.6706    0.0000 C   0  0  0  0  0  0  0  0  0  0  0  0
    9.7884    1.3397    0.0000 C   0  0  0  0  0  0  0  0  0  0  0  0
    1.6356    1.9332    0.0000 H   0  0  0  0  0  0  0  0  0  0  0  0
    1.4984    1.0672    0.0000 H   0  0  0  0  0  0  0  0  0  0  0  0
    2.3644    0.9300    0.0000 H   0  0  0  0  0  0  0  0  0  0  0  0
    3.9825    2.1056    0.0000 H   0  0  0  0  0  0  0  0  0  0  0  0
    4.1196    2.9716    0.0000 H   0  0  0  0  0  0  0  0  0  0  0  0
    3.2536    3.1088    0.0000 H   0  0  0  0  0  0  0  0  0  0  0  0
    2.7228    3.1929    0.0000 H   0  0  0  0  0  0  0  0  0  0  0  0
    1.8568    3.3300    0.0000 H   0  0  0  0  0  0  0  0  0  0  0  0
    1.7196    2.4640    0.0000 H   0  0  0  0  0  0  0  0  0  0  0  0
    6.6911    1.1669    0.0000 H   0  0  0  0  0  0  0  0  0  0  0  0
    5.9114    1.0012    0.0000 H   0  0  0  0  0  0  0  0  0  0  0  0
    2.4108   -2.8284    0.0000 H   0  0  0  0  0  0  0  0  0  0  0  0
    3.0308   -3.4484    0.0000 H   0  0  0  0  0  0  0  0  0  0  0  0
    3.6508   -2.8284    0.0000 H   0  0  0  0  0  0  0  0  0  0  0  0
    2.4747   -0.7915    0.0000 H   0  0  0  0  0  0  0  0  0  0  0  0
    1.6278   -1.0184    0.0000 H   0  0  0  0  0  0  0  0  0  0  0  0
    1.8548   -1.8654    0.0000 H   0  0  0  0  0  0  0  0  0  0  0  0
    8.7542    0.1231    0.0000 H   0  0  0  0  0  0  0  0  0  0  0  0
    9.5338    0.2888    0.0000 H   0  0  0  0  0  0  0  0  0  0  0  0
   10.2033    0.8789    0.0000 H   0  0  0  0  0  0  0  0  0  0  0  0
   10.2492    1.7546    0.0000 H   0  0  0  0  0  0  0  0  0  0  0  0
    9.3736    1.8004    0.0000 H   0  0  0  0  0  0  0  0  0  0  0  0
  1 14  1  0  0  0  0
  1 16  1  0  0  0  0
  2 15  2  0  0  0  0
  3 19  1  0  0  0  0
  3 20  1  0  0  0  0
  4 19  2  0  0  0  0
  5  6  1  0  0  0  0
  5 14  1  0  0  0  0
  5 15  1  0  0  0  0
  6 10  2  0  0  0  0
  7 10  1  0  0  0  0
  7 14  2  0  0  0  0
  8 15  1  0  0  0  0
  8 17  1  0  0  0  0
  8 18  1  0  0  0  0
  9 10  1  0  0  0  0
  9 11  1  0  0  0  0
  9 12  1  0  0  0  0
  9 13  1  0  0  0  0
 11 28  1  0  0  0  0
 11 29  1  0  0  0  0
 11 30  1  0  0  0  0
 12 25  1  0  0  0  0
 12 26  1  0  0  0  0
 12 27  1  0  0  0  0
 13 22  1  0  0  0  0
 13 23  1  0  0  0  0
 13 24  1  0  0  0  0
 16 19  1  0  0  0  0
 16 31  1  0  0  0  0
 16 32  1  0  0  0  0
 17 33  1  0  0  0  0
 17 34  1  0  0  0  0
 17 35  1  0  0  0  0
 18 36  1  0  0  0  0
 18 37  1  0  0  0  0
 18 38  1  0  0  0  0
 20 21  1  0  0  0  0
 20 39  1  0  0  0  0
 20 40  1  0  0  0  0
 21 41  1  0  0  0  0
 21 42  1  0  0  0  0
 21 43  1  0  0  0  0
M  END
> <PUBCHEM_COMPOUND_CID>
86306

> <PUBCHEM_COMPOUND_CANONICALIZED>
1

> <PUBCHEM_CACTVS_COMPLEXITY>
384

> <PUBCHEM_CACTVS_HBOND_ACCEPTOR>
6

> <PUBCHEM_CACTVS_HBOND_DONOR>
0

> <PUBCHEM_CACTVS_ROTATABLE_BOND>
6

> <PUBCHEM_CACTVS_SUBSKEYS>
AAADceBzsABAAAAAAAAAAAAAAAAAAWAAAAAAAAAAAAAAAAABgAAAHgQIAAAADgClwwaDGAcIFAgqAAKwPAAQ0AtAALAXAAAoAACACAAACAAGAAAICwIAAAAAAAAAAAAAAAAAAAAAAAAAAAAAAAAAAAAAAA==

> <PUBCHEM_IUPAC_OPENEYE_NAME>
ethyl 2-[[5-tert-butyl-2-(dimethylcarbamoyl)-1,2,4-triazol-3-yl]sulfanyl]acetate

> <PUBCHEM_IUPAC_CAS_NAME>
2-[[5-tert-butyl-2-[dimethylamino(oxo)methyl]-1,2,4-triazol-3-yl]thio]acetic acid ethyl ester

> <PUBCHEM_IUPAC_NAME>
ethyl 2-[[5-tert-butyl-2-(dimethylcarbamoyl)-1,2,4-triazol-3-yl]sulfanyl]acetate

> <PUBCHEM_IUPAC_SYSTEMATIC_NAME>
ethyl 2-[[5-tert-butyl-2-(dimethylcarbamoyl)-1,2,4-triazol-3-yl]sulfanyl]ethanoate

> <PUBCHEM_IUPAC_TRADITIONAL_NAME>
2-[[5-tert-butyl-2-(dimethylcarbamoyl)-1,2,4-triazol-3-yl]thio]acetic acid ethyl ester

> <PUBCHEM_IUPAC_INCHI>
InChI=1S/C13H22N4O3S/c1-7-20-9(18)8-21-11-14-10(13(2,3)4)15-17(11)12(19)16(5)6/h7-8H2,1-6H3

> <PUBCHEM_IUPAC_INCHIKEY>
NKNFWVNSBIXGLL-UHFFFAOYSA-N

> <PUBCHEM_XLOGP3_AA>
2.7

> <PUBCHEM_EXACT_MASS>
314.141262

> <PUBCHEM_MOLECULAR_FORMULA>
C13H22N4O3S

> <PUBCHEM_MOLECULAR_WEIGHT>
314.40378

> <PUBCHEM_OPENEYE_CAN_SMILES>
CCOC(=O)CSC1=NC(=NN1C(=O)N(C)C)C(C)(C)C

> <PUBCHEM_OPENEYE_ISO_SMILES>
CCOC(=O)CSC1=NC(=NN1C(=O)N(C)C)C(C)(C)C

> <PUBCHEM_CACTVS_TPSA>
103

> <PUBCHEM_MONOISOTOPIC_WEIGHT>
314.141262

> <PUBCHEM_TOTAL_CHARGE>
0

> <PUBCHEM_HEAVY_ATOM_COUNT>
21

> <PUBCHEM_ATOM_DEF_STEREO_COUNT>
0

> <PUBCHEM_ATOM_UDEF_STEREO_COUNT>
0

> <PUBCHEM_BOND_DEF_STEREO_COUNT>
0

> <PUBCHEM_BOND_UDEF_STEREO_COUNT>
0

> <PUBCHEM_ISOTOPIC_ATOM_COUNT>
0

> <PUBCHEM_COMPONENT_COUNT>
1

> <PUBCHEM_CACTVS_TAUTO_COUNT>
1

> <PUBCHEM_COORDINATE_TYPE>
1
5
255

> <PUBCHEM_BONDANNOTATIONS>
5  14  8
5  6  8
6  10  8
7  10  8
7  14  8

$$$$

