68082
  -OEChem-07051213112D

 24 26  0     0  0  0  0  0  0999 V2000
    2.5836   -1.5894    0.0000 O   0  0  0  0  0  0  0  0  0  0  0  0
    4.3798    1.2569    0.0000 O   0  0  0  0  0  0  0  0  0  0  0  0
    6.1279   -1.7846    0.0000 O   0  0  0  0  0  0  0  0  0  0  0  0
    5.2740    2.7846    0.0000 O   0  0  0  0  0  0  0  0  0  0  0  0
    3.5298   -0.2846    0.0000 C   0  0  0  0  0  0  0  0  0  0  0  0
    4.3958    0.2154    0.0000 C   0  0  0  0  0  0  0  0  0  0  0  0
    5.2619   -0.2846    0.0000 C   0  0  0  0  0  0  0  0  0  0  0  0
    3.5298   -1.2846    0.0000 C   0  0  0  0  0  0  0  0  0  0  0  0
    5.2619   -1.2846    0.0000 C   0  0  0  0  0  0  0  0  0  0  0  0
    4.3958   -1.7846    0.0000 C   0  0  0  0  0  0  0  0  0  0  0  0
    2.5836    0.0201    0.0000 C   0  0  0  0  0  0  0  0  0  0  0  0
    6.1719    0.2222    0.0000 C   0  0  0  0  0  0  0  0  0  0  0  0
    2.0000   -0.7846    0.0000 C   0  0  0  0  0  0  0  0  0  0  0  0
    6.1799    1.2638    0.0000 C   0  0  0  0  0  0  0  0  0  0  0  0
    5.2778    1.7846    0.0000 C   0  0  0  0  0  0  0  0  0  0  0  0
    6.1279   -2.7846    0.0000 C   0  0  0  0  0  0  0  0  0  0  0  0
    4.3958   -2.4046    0.0000 H   0  0  0  0  0  0  0  0  0  0  0  0
    2.3910    0.6094    0.0000 H   0  0  0  0  0  0  0  0  0  0  0  0
    6.7052   -0.0940    0.0000 H   0  0  0  0  0  0  0  0  0  0  0  0
    1.3800   -0.7846    0.0000 H   0  0  0  0  0  0  0  0  0  0  0  0
    6.7180    1.5718    0.0000 H   0  0  0  0  0  0  0  0  0  0  0  0
    5.5079   -2.7846    0.0000 H   0  0  0  0  0  0  0  0  0  0  0  0
    6.1279   -3.4046    0.0000 H   0  0  0  0  0  0  0  0  0  0  0  0
    6.7479   -2.7846    0.0000 H   0  0  0  0  0  0  0  0  0  0  0  0
  1  8  1  0  0  0  0
  1 13  1  0  0  0  0
  2  6  1  0  0  0  0
  2 15  1  0  0  0  0
  3  9  1  0  0  0  0
  3 16  1  0  0  0  0
  4 15  2  0  0  0  0
  5  6  2  0  0  0  0
  5  8  1  0  0  0  0
  5 11  1  0  0  0  0
  6  7  1  0  0  0  0
  7  9  2  0  0  0  0
  7 12  1  0  0  0  0
  8 10  2  0  0  0  0
  9 10  1  0  0  0  0
 10 17  1  0  0  0  0
 11 13  2  0  0  0  0
 11 18  1  0  0  0  0
 12 14  2  0  0  0  0
 12 19  1  0  0  0  0
 13 20  1  0  0  0  0
 14 15  1  0  0  0  0
 14 21  1  0  0  0  0
 16 22  1  0  0  0  0
 16 23  1  0  0  0  0
 16 24  1  0  0  0  0
M  END
> <PUBCHEM_COMPOUND_CID>
68082

> <PUBCHEM_COMPOUND_CANONICALIZED>
1

> <PUBCHEM_CACTVS_COMPLEXITY>
325

> <PUBCHEM_CACTVS_HBOND_ACCEPTOR>
4

> <PUBCHEM_CACTVS_HBOND_DONOR>
0

> <PUBCHEM_CACTVS_ROTATABLE_BOND>
1

> <PUBCHEM_CACTVS_SUBSKEYS>
AAADccBwOAAAAAAAAAAAAAAAAAAAASAAAAAwQAAAAAAAAEiB8AAAGgAAAAAADASgmAIyDsAABECIAqjSiAACCAAkIAAIiAEGCMgMJzaENBqCO2Cl4BUIqYfK7PzOIAACCAAIAABAAAQQABAAAAAAAAAAAA==

> <PUBCHEM_IUPAC_OPENEYE_NAME>
5-methoxyfuro[2,3-h]chromen-2-one

> <PUBCHEM_IUPAC_CAS_NAME>
5-methoxy-2-furo[2,3-h][1]benzopyranone

> <PUBCHEM_IUPAC_NAME>
5-methoxyfuro[2,3-h]chromen-2-one

> <PUBCHEM_IUPAC_SYSTEMATIC_NAME>
5-methoxyfuro[2,3-h]chromen-2-one

> <PUBCHEM_IUPAC_TRADITIONAL_NAME>
5-methoxyfuro[2,3-h]chromen-2-one

> <PUBCHEM_IUPAC_INCHI>
InChI=1S/C12H8O4/c1-14-9-6-10-8(4-5-15-10)12-7(9)2-3-11(13)16-12/h2-6H,1H3

> <PUBCHEM_IUPAC_INCHIKEY>
AJSPSRWWZBBIOR-UHFFFAOYSA-N

> <PUBCHEM_XLOGP3>
2

> <PUBCHEM_EXACT_MASS>
216.042259

> <PUBCHEM_MOLECULAR_FORMULA>
C12H8O4

> <PUBCHEM_MOLECULAR_WEIGHT>
216.18952

> <PUBCHEM_OPENEYE_CAN_SMILES>
COC1=C2C=CC(=O)OC2=C3C=COC3=C1

> <PUBCHEM_OPENEYE_ISO_SMILES>
COC1=C2C=CC(=O)OC2=C3C=COC3=C1

> <PUBCHEM_CACTVS_TPSA>
48.7

> <PUBCHEM_MONOISOTOPIC_WEIGHT>
216.042259

> <PUBCHEM_TOTAL_CHARGE>
0

> <PUBCHEM_HEAVY_ATOM_COUNT>
16

> <PUBCHEM_ATOM_DEF_STEREO_COUNT>
0

> <PUBCHEM_ATOM_UDEF_STEREO_COUNT>
0

> <PUBCHEM_BOND_DEF_STEREO_COUNT>
0

> <PUBCHEM_BOND_UDEF_STEREO_COUNT>
0

> <PUBCHEM_ISOTOPIC_ATOM_COUNT>
0

> <PUBCHEM_COMPONENT_COUNT>
1

> <PUBCHEM_CACTVS_TAUTO_COUNT>
1

> <PUBCHEM_COORDINATE_TYPE>
1
5
255

> <PUBCHEM_BONDANNOTATIONS>
1  13  8
1  8  8
11  13  8
12  14  8
14  15  8
2  15  8
2  6  8
5  11  8
5  6  8
5  8  8
6  7  8
7  12  8
7  9  8
8  10  8
9  10  8

$$$$

