4745
  -OEChem-06261200193D

 48 51  0     1  0  0  0  0  0999 V2000
   -3.8241   -2.9495    0.0856 S   0  0  0  0  0  0  0  0  0  0  0  0
   -1.5578    1.7433    0.4280 N   0  0  2  0  0  0  0  0  0  0  0  0
    3.8427   -0.2535   -1.3781 N   0  0  0  0  0  0  0  0  0  0  0  0
   -0.2227   -0.3108    0.9112 C   0  0  1  0  0  0  0  0  0  0  0  0
   -0.1987    1.1720    0.3544 C   0  0  1  0  0  0  0  0  0  0  0  0
   -1.2624   -1.1567    0.1629 C   0  0  0  0  0  0  0  0  0  0  0  0
   -2.6364   -0.4802    0.2031 C   0  0  1  0  0  0  0  0  0  0  0  0
   -2.5556    0.9647   -0.3129 C   0  0  0  0  0  0  0  0  0  0  0  0
    0.5071    1.3271   -1.0501 C   0  0  0  0  0  0  0  0  0  0  0  0
    1.1461   -0.9504    0.8158 C   0  0  0  0  0  0  0  0  0  0  0  0
    1.8076    0.5947   -1.0642 C   0  0  0  0  0  0  0  0  0  0  0  0
    2.0232   -0.4630   -0.1584 C   0  0  0  0  0  0  0  0  0  0  0  0
   -1.6089    3.1541    0.0550 C   0  0  0  0  0  0  0  0  0  0  0  0
   -3.6555   -1.2846   -0.6029 C   0  0  0  0  0  0  0  0  0  0  0  0
    3.2870   -0.9862   -0.3516 C   0  0  0  0  0  0  0  0  0  0  0  0
    1.5986   -2.0189    1.5963 C   0  0  0  0  0  0  0  0  0  0  0  0
    2.9527    0.7070   -1.8175 C   0  0  0  0  0  0  0  0  0  0  0  0
   -0.5879    3.9528    0.8614 C   0  0  0  0  0  0  0  0  0  0  0  0
    3.7574   -2.0476    0.4227 C   0  0  0  0  0  0  0  0  0  0  0  0
    2.8821   -2.5518    1.4011 C   0  0  0  0  0  0  0  0  0  0  0  0
   -0.6360    5.4309    0.5066 C   0  0  0  0  0  0  0  0  0  0  0  0
   -5.0586   -3.5935   -1.0682 C   0  0  0  0  0  0  0  0  0  0  0  0
   -0.5002   -0.2634    1.9740 H   0  0  0  0  0  0  0  0  0  0  0  0
    0.4407    1.6835    1.0865 H   0  0  0  0  0  0  0  0  0  0  0  0
   -0.9507   -1.3091   -0.8795 H   0  0  0  0  0  0  0  0  0  0  0  0
   -1.2861   -2.1487    0.6269 H   0  0  0  0  0  0  0  0  0  0  0  0
   -2.9699   -0.4377    1.2507 H   0  0  0  0  0  0  0  0  0  0  0  0
   -2.3462    0.9746   -1.3899 H   0  0  0  0  0  0  0  0  0  0  0  0
   -3.5438    1.4249   -0.1818 H   0  0  0  0  0  0  0  0  0  0  0  0
    0.6884    2.3819   -1.2816 H   0  0  0  0  0  0  0  0  0  0  0  0
   -0.1254    0.9183   -1.8461 H   0  0  0  0  0  0  0  0  0  0  0  0
   -1.4396    3.2953   -1.0197 H   0  0  0  0  0  0  0  0  0  0  0  0
   -2.6089    3.5503    0.2727 H   0  0  0  0  0  0  0  0  0  0  0  0
   -3.3457   -1.3580   -1.6512 H   0  0  0  0  0  0  0  0  0  0  0  0
   -4.6325   -0.7907   -0.5687 H   0  0  0  0  0  0  0  0  0  0  0  0
    0.9550   -2.4456    2.3612 H   0  0  0  0  0  0  0  0  0  0  0  0
    3.2256    1.3750   -2.6222 H   0  0  0  0  0  0  0  0  0  0  0  0
   -0.7745    3.8353    1.9357 H   0  0  0  0  0  0  0  0  0  0  0  0
    0.4426    3.6432    0.6676 H   0  0  0  0  0  0  0  0  0  0  0  0
    4.7687   -0.3963   -1.7567 H   0  0  0  0  0  0  0  0  0  0  0  0
    4.7466   -2.4674    0.2803 H   0  0  0  0  0  0  0  0  0  0  0  0
    3.2100   -3.3816    2.0235 H   0  0  0  0  0  0  0  0  0  0  0  0
   -0.4098    5.5883   -0.5529 H   0  0  0  0  0  0  0  0  0  0  0  0
   -1.6252    5.8517    0.7133 H   0  0  0  0  0  0  0  0  0  0  0  0
    0.0985    5.9879    1.0971 H   0  0  0  0  0  0  0  0  0  0  0  0
   -5.2961   -4.6267   -0.8016 H   0  0  0  0  0  0  0  0  0  0  0  0
   -4.6696   -3.5790   -2.0896 H   0  0  0  0  0  0  0  0  0  0  0  0
   -5.9759   -3.0014   -1.0144 H   0  0  0  0  0  0  0  0  0  0  0  0
  1 14  1  0  0  0  0
  1 22  1  0  0  0  0
  2  5  1  0  0  0  0
  2  8  1  0  0  0  0
  2 13  1  0  0  0  0
  3 15  1  0  0  0  0
  3 17  1  0  0  0  0
  3 40  1  0  0  0  0
  4  5  1  0  0  0  0
  4  6  1  0  0  0  0
  4 10  1  0  0  0  0
  4 23  1  0  0  0  0
  5  9  1  0  0  0  0
  5 24  1  0  0  0  0
  6  7  1  0  0  0  0
  6 25  1  0  0  0  0
  6 26  1  0  0  0  0
  7  8  1  0  0  0  0
  7 14  1  0  0  0  0
  7 27  1  0  0  0  0
  8 28  1  0  0  0  0
  8 29  1  0  0  0  0
  9 11  1  0  0  0  0
  9 30  1  0  0  0  0
  9 31  1  0  0  0  0
 10 12  2  0  0  0  0
 10 16  1  0  0  0  0
 11 12  1  0  0  0  0
 11 17  2  0  0  0  0
 12 15  1  0  0  0  0
 13 18  1  0  0  0  0
 13 32  1  0  0  0  0
 13 33  1  0  0  0  0
 14 34  1  0  0  0  0
 14 35  1  0  0  0  0
 15 19  2  0  0  0  0
 16 20  2  0  0  0  0
 16 36  1  0  0  0  0
 17 37  1  0  0  0  0
 18 21  1  0  0  0  0
 18 38  1  0  0  0  0
 18 39  1  0  0  0  0
 19 20  1  0  0  0  0
 19 41  1  0  0  0  0
 20 42  1  0  0  0  0
 21 43  1  0  0  0  0
 21 44  1  0  0  0  0
 21 45  1  0  0  0  0
 22 46  1  0  0  0  0
 22 47  1  0  0  0  0
 22 48  1  0  0  0  0
M  END
> <PUBCHEM_COMPOUND_CID>
4745

> <PUBCHEM_CONFORMER_RMSD>
0.8

> <PUBCHEM_CONFORMER_DIVERSEORDER>
1
38
23
17
13
10
6
2
36
30
28
24
4
29
11
32
31
3
20
16
43
18
25
7
27
40
9
39
5
15
34
35
22
8
26
21
14
33
41
37
19
42
12

> <PUBCHEM_MMFF94_PARTIAL_CHARGES>
22
1 -0.46
10 -0.14
11 -0.18
13 0.27
14 0.23
15 -0.15
16 -0.15
17 -0.3
19 -0.15
2 -0.81
20 -0.15
22 0.23
3 0.03
36 0.15
37 0.15
4 0.14
40 0.27
41 0.15
42 0.15
5 0.27
8 0.27
9 0.18

> <PUBCHEM_EFFECTIVE_ROTOR_COUNT>
5

> <PUBCHEM_PHARMACOPHORE_FEATURES>
9
1 2 cation
1 21 hydrophobe
1 22 hydrophobe
1 3 cation
1 3 donor
5 3 11 12 15 17 rings
6 10 12 15 16 19 20 rings
6 2 4 5 6 7 8 rings
6 4 5 9 10 11 12 rings

> <PUBCHEM_HEAVY_ATOM_COUNT>
22

> <PUBCHEM_ATOM_DEF_STEREO_COUNT>
0

> <PUBCHEM_ATOM_UDEF_STEREO_COUNT>
3

> <PUBCHEM_BOND_DEF_STEREO_COUNT>
0

> <PUBCHEM_BOND_UDEF_STEREO_COUNT>
0

> <PUBCHEM_ISOTOPIC_ATOM_COUNT>
0

> <PUBCHEM_COMPONENT_COUNT>
1

> <PUBCHEM_CACTVS_TAUTO_COUNT>
1

> <PUBCHEM_CONFORMER_ID>
0000128900000001

> <PUBCHEM_MMFF94_ENERGY>
49.2285

> <PUBCHEM_FEATURE_SELFOVERLAP>
45.944

> <PUBCHEM_SHAPE_FINGERPRINT>
10764073 3 16545881399712241025
11578080 2 18055944140759826500
12173636 292 17832714843173798789
12293681 160 18055051187215275732
12553582 1 18410291372605123323
12788726 201 18339632468841785577
13009979 54 18271251637176298602
13140716 1 18411982498623363979
13583140 156 17171270565649266290
14178342 30 18053396671255231930
14576447 43 18270400486190386662
14787075 74 18123743167465275212
15420108 30 16755238648352263369
15664445 248 18117546349753067343
15842332 3 18057310898353185358
16752209 62 18120663688740701609
16945 1 18192147316028229368
19141452 34 17619915401905851818
20775438 99 17547624372484846903
21452121 199 18339373967407738491
22112679 90 18336536192484358521
23184049 59 17121969692409336472
23419403 2 16691955865478283400
23557571 272 18115597083188139746
23559900 14 18189621708318751264
23598288 3 18269261521572524737
23598291 2 17913199043061376326
25147074 1 17915448609808481270
2748010 2 16831481490245880251
3091708 16 9208146571517808009
352729 6 17979637067793256129
4017518 198 17111301156560112911
463206 1 18269836411203745923
6669772 16 17327737297525369469
6992083 37 17697315479576121568
7064713 232 17403469953634610400
7164475 11 18411979204225601286
7471813 234 18342187643533669894
7832392 63 17767675419418858568
90525 40 17981038935995732545

> <PUBCHEM_SHAPE_MULTIPOLES>
446.64
7.13
5.47
1.36
5.42
8.26
0.18
-9.63
2.64
2.76
-1.79
-0.99
-0.34
-1.78

> <PUBCHEM_SHAPE_SELFOVERLAP>
946.275

> <PUBCHEM_SHAPE_VOLUME>
253.3

> <PUBCHEM_COORDINATE_TYPE>
2
5
10

$$$$

