244947
  -OEChem-07051213063D

 57 60  0     1  0  0  0  0  0999 V2000
   -5.4412   -1.5715   -0.1045 O   0  0  0  0  0  0  0  0  0  0  0  0
    5.4453    1.0161   -0.0182 O   0  0  0  0  0  0  0  0  0  0  0  0
    4.2867   -3.0256   -0.0913 O   0  0  0  0  0  0  0  0  0  0  0  0
   -0.1981   -0.2070   -0.2303 C   0  0  1  0  0  0  0  0  0  0  0  0
   -1.1803    0.9399    0.1774 C   0  0  2  0  0  0  0  0  0  0  0  0
    1.2620    0.0541    0.2993 C   0  0  2  0  0  0  0  0  0  0  0  0
   -2.5581    0.6362   -0.4204 C   0  0  1  0  0  0  0  0  0  0  0  0
   -3.1403   -0.7026    0.0757 C   0  0  2  0  0  0  0  0  0  0  0  0
    1.7110    1.4485   -0.2411 C   0  0  1  0  0  0  0  0  0  0  0  0
   -0.7655   -1.6100    0.1146 C   0  0  0  0  0  0  0  0  0  0  0  0
   -0.6591    2.3095   -0.2794 C   0  0  0  0  0  0  0  0  0  0  0  0
   -2.2057   -1.8285   -0.3854 C   0  0  0  0  0  0  0  0  0  0  0  0
    0.7681    2.5763    0.1927 C   0  0  0  0  0  0  0  0  0  0  0  0
   -3.7004    1.6251   -0.2011 C   0  0  0  0  0  0  0  0  0  0  0  0
    2.2473   -1.0093   -0.2661 C   0  0  0  0  0  0  0  0  0  0  0  0
   -4.5031   -0.6612   -0.6453 C   0  0  2  0  0  0  0  0  0  0  0  0
    3.1683    1.7771    0.0997 C   0  0  0  0  0  0  0  0  0  0  0  0
   -4.9689    0.8004   -0.4879 C   0  0  0  0  0  0  0  0  0  0  0  0
    3.7295   -0.7055    0.0253 C   0  0  2  0  0  0  0  0  0  0  0  0
    1.3046   -0.0122    1.8476 C   0  0  0  0  0  0  0  0  0  0  0  0
    4.1187    0.7062   -0.4380 C   0  0  2  0  0  0  0  0  0  0  0  0
   -3.3430   -0.7922    1.6093 C   0  0  0  0  0  0  0  0  0  0  0  0
    4.6223   -1.7636   -0.6326 C   0  0  0  0  0  0  0  0  0  0  0  0
   -0.1360   -0.1836   -1.3303 H   0  0  0  0  0  0  0  0  0  0  0  0
   -1.2712    0.9770    1.2678 H   0  0  0  0  0  0  0  0  0  0  0  0
   -2.4205    0.5713   -1.5131 H   0  0  0  0  0  0  0  0  0  0  0  0
    1.6579    1.4066   -1.3405 H   0  0  0  0  0  0  0  0  0  0  0  0
   -0.7344   -1.7795    1.1951 H   0  0  0  0  0  0  0  0  0  0  0  0
   -0.1390   -2.3869   -0.3374 H   0  0  0  0  0  0  0  0  0  0  0  0
   -1.3108    3.1059    0.0988 H   0  0  0  0  0  0  0  0  0  0  0  0
   -0.6906    2.3714   -1.3749 H   0  0  0  0  0  0  0  0  0  0  0  0
   -2.1888   -1.8775   -1.4820 H   0  0  0  0  0  0  0  0  0  0  0  0
   -2.5725   -2.8023   -0.0394 H   0  0  0  0  0  0  0  0  0  0  0  0
    1.1060    3.5285   -0.2343 H   0  0  0  0  0  0  0  0  0  0  0  0
    0.7857    2.7025    1.2813 H   0  0  0  0  0  0  0  0  0  0  0  0
   -3.6289    2.4898   -0.8687 H   0  0  0  0  0  0  0  0  0  0  0  0
   -3.7139    2.0006    0.8281 H   0  0  0  0  0  0  0  0  0  0  0  0
    2.1072   -1.0857   -1.3531 H   0  0  0  0  0  0  0  0  0  0  0  0
    1.9987   -1.9937    0.1476 H   0  0  0  0  0  0  0  0  0  0  0  0
   -4.3871   -0.8949   -1.7106 H   0  0  0  0  0  0  0  0  0  0  0  0
    3.4477    2.7449   -0.3373 H   0  0  0  0  0  0  0  0  0  0  0  0
    3.3098    1.9042    1.1795 H   0  0  0  0  0  0  0  0  0  0  0  0
   -5.7027    0.9253    0.3159 H   0  0  0  0  0  0  0  0  0  0  0  0
   -5.4508    1.1393   -1.4119 H   0  0  0  0  0  0  0  0  0  0  0  0
    3.8974   -0.7837    1.1074 H   0  0  0  0  0  0  0  0  0  0  0  0
    1.0932   -1.0248    2.2069 H   0  0  0  0  0  0  0  0  0  0  0  0
    2.2838    0.2591    2.2510 H   0  0  0  0  0  0  0  0  0  0  0  0
    0.5808    0.6570    2.3189 H   0  0  0  0  0  0  0  0  0  0  0  0
    4.1049    0.7528   -1.5348 H   0  0  0  0  0  0  0  0  0  0  0  0
   -2.4114   -0.6596    2.1659 H   0  0  0  0  0  0  0  0  0  0  0  0
   -4.0441   -0.0399    1.9844 H   0  0  0  0  0  0  0  0  0  0  0  0
   -3.7399   -1.7746    1.8907 H   0  0  0  0  0  0  0  0  0  0  0  0
    5.6805   -1.5827   -0.4242 H   0  0  0  0  0  0  0  0  0  0  0  0
    4.4762   -1.7909   -1.7176 H   0  0  0  0  0  0  0  0  0  0  0  0
   -5.7312   -1.2454    0.7636 H   0  0  0  0  0  0  0  0  0  0  0  0
    6.0607    0.5212   -0.5844 H   0  0  0  0  0  0  0  0  0  0  0  0
    4.8570   -3.6846   -0.5225 H   0  0  0  0  0  0  0  0  0  0  0  0
  1 16  1  0  0  0  0
  1 55  1  0  0  0  0
  2 21  1  0  0  0  0
  2 56  1  0  0  0  0
  3 23  1  0  0  0  0
  3 57  1  0  0  0  0
  4  5  1  0  0  0  0
  4  6  1  0  0  0  0
  4 10  1  0  0  0  0
  4 24  1  0  0  0  0
  5  7  1  0  0  0  0
  5 11  1  0  0  0  0
  5 25  1  0  0  0  0
  6  9  1  0  0  0  0
  6 15  1  0  0  0  0
  6 20  1  0  0  0  0
  7  8  1  0  0  0  0
  7 14  1  0  0  0  0
  7 26  1  0  0  0  0
  8 12  1  0  0  0  0
  8 16  1  0  0  0  0
  8 22  1  0  0  0  0
  9 13  1  0  0  0  0
  9 17  1  0  0  0  0
  9 27  1  0  0  0  0
 10 12  1  0  0  0  0
 10 28  1  0  0  0  0
 10 29  1  0  0  0  0
 11 13  1  0  0  0  0
 11 30  1  0  0  0  0
 11 31  1  0  0  0  0
 12 32  1  0  0  0  0
 12 33  1  0  0  0  0
 13 34  1  0  0  0  0
 13 35  1  0  0  0  0
 14 18  1  0  0  0  0
 14 36  1  0  0  0  0
 14 37  1  0  0  0  0
 15 19  1  0  0  0  0
 15 38  1  0  0  0  0
 15 39  1  0  0  0  0
 16 18  1  0  0  0  0
 16 40  1  0  0  0  0
 17 21  1  0  0  0  0
 17 41  1  0  0  0  0
 17 42  1  0  0  0  0
 18 43  1  0  0  0  0
 18 44  1  0  0  0  0
 19 21  1  0  0  0  0
 19 23  1  0  0  0  0
 19 45  1  0  0  0  0
 20 46  1  0  0  0  0
 20 47  1  0  0  0  0
 20 48  1  0  0  0  0
 21 49  1  0  0  0  0
 22 50  1  0  0  0  0
 22 51  1  0  0  0  0
 22 52  1  0  0  0  0
 23 53  1  0  0  0  0
 23 54  1  0  0  0  0
M  END
> <PUBCHEM_COMPOUND_CID>
244947

> <PUBCHEM_CONFORMER_RMSD>
0.6

> <PUBCHEM_CONFORMER_DIVERSEORDER>
1

> <PUBCHEM_MMFF94_PARTIAL_CHARGES>
9
1 -0.68
16 0.28
2 -0.68
21 0.28
23 0.28
3 -0.68
55 0.4
56 0.4
57 0.4

> <PUBCHEM_EFFECTIVE_ROTOR_COUNT>
3.2

> <PUBCHEM_PHARMACOPHORE_FEATURES>
10
1 1 acceptor
1 1 donor
1 2 acceptor
1 2 donor
1 3 acceptor
1 3 donor
5 7 8 14 16 18 rings
6 4 5 6 9 11 13 rings
6 4 5 7 8 10 12 rings
6 6 9 15 17 19 21 rings

> <PUBCHEM_HEAVY_ATOM_COUNT>
23

> <PUBCHEM_ATOM_DEF_STEREO_COUNT>
9

> <PUBCHEM_ATOM_UDEF_STEREO_COUNT>
0

> <PUBCHEM_BOND_DEF_STEREO_COUNT>
0

> <PUBCHEM_BOND_UDEF_STEREO_COUNT>
0

> <PUBCHEM_ISOTOPIC_ATOM_COUNT>
0

> <PUBCHEM_COMPONENT_COUNT>
1

> <PUBCHEM_CACTVS_TAUTO_COUNT>
1

> <PUBCHEM_CONFORMER_ID>
0003BCD300000001

> <PUBCHEM_MMFF94_ENERGY>
83.3848

> <PUBCHEM_FEATURE_SELFOVERLAP>
50.834

> <PUBCHEM_SHAPE_FINGERPRINT>
10366900 7 17417818309930992105
10693767 8 18189356652971242519
10967382 1 18410576154210214452
1100329 8 16971396024196686619
11578080 2 16808147778945716218
116883 192 18263358256469946516
12011746 2 18342746195835784077
12107183 9 17901941173178816416
12236239 1 17846786195580669008
12403259 226 18409173173685204237
12633257 1 15357699652334264861
13140716 1 18264763440393067481
13224815 77 17917997161185580449
13533116 47 18114182995434239427
13544653 18 18411975866866992836
14790565 3 17688586482676410969
14866123 147 17686333578802007328
15099037 51 18411140268379406431
15196674 1 18410575106264613541
15536298 74 18408888412420104652
15788980 27 18412823594684841790
15848702 151 18334573555327646310
16945 1 18123747552389409777
17349148 13 17313100847886508479
17492 89 18265337205554610183
1813 80 17561083609662291340
18186145 218 17561367283271671885
19591789 44 18411139177151887927
19862831 5 17917712413380434673
200 152 18113338596279094885
20645477 70 18408604786071103806
21267235 1 18410848832993676150
21279426 13 18340490092132571989
21521239 73 18189356644623173519
221357 26 18411705374606889925
221490 88 18269549446951888400
22182313 1 18268732600213103092
22393880 68 18130799987795202853
23402539 116 18408047307536570564
23559900 14 18409451414603859710
2871803 45 18272373096181440972
3004659 81 18272369815327788238
3286 77 17167871863100447347
335352 9 18337954622830295573
34934 24 18410017598430297620
350125 39 18410009928019984313
3545911 37 18409166580677965004
4214541 1 18410575097906917445
460360 51 18193251174015404128
474 4 17274256124490662052
4921388 177 16343694392639439281
5104073 3 18409167739881233824
633830 44 17489587835753257556
7364860 26 18191027807022634896
9709674 26 18341612556218564635

> <PUBCHEM_SHAPE_MULTIPOLES>
455.72
10.68
2.57
0.97
0.14
0.03
-0.43
3.11
1.63
1.35
0.22
-0.23
0.12
0.46

> <PUBCHEM_SHAPE_SELFOVERLAP>
962.041

> <PUBCHEM_SHAPE_VOLUME>
253.6

> <PUBCHEM_COORDINATE_TYPE>
2
5
10

$$$$

