7524
  -OEChem-06261202073D

 20 20  0     1  0  0  0  0  0999 V2000
   -0.1810   -0.9801   -0.2780 O   0  0  0  0  0  0  0  0  0  0  0  0
   -2.8427   -0.4330    0.1733 O   0  0  0  0  0  0  0  0  0  0  0  0
    0.4295    1.3684   -0.1537 C   0  0  0  0  0  0  0  0  0  0  0  0
   -0.5664    0.2857    0.2687 C   0  0  1  0  0  0  0  0  0  0  0  0
    1.8478    0.9848    0.2575 C   0  0  0  0  0  0  0  0  0  0  0  0
    2.1826   -0.4225   -0.2241 C   0  0  0  0  0  0  0  0  0  0  0  0
    1.0976   -1.4068    0.1919 C   0  0  0  0  0  0  0  0  0  0  0  0
   -1.9673    0.6035   -0.2355 C   0  0  0  0  0  0  0  0  0  0  0  0
   -0.5946    0.1884    1.3619 H   0  0  0  0  0  0  0  0  0  0  0  0
    0.1595    2.3343    0.2872 H   0  0  0  0  0  0  0  0  0  0  0  0
    0.4064    1.4854   -1.2448 H   0  0  0  0  0  0  0  0  0  0  0  0
    1.9344    1.0268    1.3501 H   0  0  0  0  0  0  0  0  0  0  0  0
    2.5661    1.7039   -0.1509 H   0  0  0  0  0  0  0  0  0  0  0  0
    2.2545   -0.4094   -1.3186 H   0  0  0  0  0  0  0  0  0  0  0  0
    3.1549   -0.7383    0.1681 H   0  0  0  0  0  0  0  0  0  0  0  0
    1.3011   -2.3904   -0.2430 H   0  0  0  0  0  0  0  0  0  0  0  0
    1.0645   -1.5274    1.2810 H   0  0  0  0  0  0  0  0  0  0  0  0
   -1.9998    0.6546   -1.3289 H   0  0  0  0  0  0  0  0  0  0  0  0
   -2.3331    1.5502    0.1730 H   0  0  0  0  0  0  0  0  0  0  0  0
   -2.5022   -1.2669   -0.1933 H   0  0  0  0  0  0  0  0  0  0  0  0
  1  4  1  0  0  0  0
  1  7  1  0  0  0  0
  2  8  1  0  0  0  0
  2 20  1  0  0  0  0
  3  4  1  0  0  0  0
  3  5  1  0  0  0  0
  3 10  1  0  0  0  0
  3 11  1  0  0  0  0
  4  8  1  0  0  0  0
  4  9  1  0  0  0  0
  5  6  1  0  0  0  0
  5 12  1  0  0  0  0
  5 13  1  0  0  0  0
  6  7  1  0  0  0  0
  6 14  1  0  0  0  0
  6 15  1  0  0  0  0
  7 16  1  0  0  0  0
  7 17  1  0  0  0  0
  8 18  1  0  0  0  0
  8 19  1  0  0  0  0
M  END
> <PUBCHEM_COMPOUND_CID>
7524

> <PUBCHEM_CONFORMER_RMSD>
0.4

> <PUBCHEM_CONFORMER_DIVERSEORDER>
3
11
9
10
8
12
6
7
2
1
5
4

> <PUBCHEM_MMFF94_PARTIAL_CHARGES>
6
1 -0.56
2 -0.68
20 0.4
4 0.28
7 0.28
8 0.28

> <PUBCHEM_EFFECTIVE_ROTOR_COUNT>
2.2

> <PUBCHEM_PHARMACOPHORE_FEATURES>
4
1 1 acceptor
1 2 acceptor
1 2 donor
6 1 3 4 5 6 7 rings

> <PUBCHEM_HEAVY_ATOM_COUNT>
8

> <PUBCHEM_ATOM_DEF_STEREO_COUNT>
0

> <PUBCHEM_ATOM_UDEF_STEREO_COUNT>
1

> <PUBCHEM_BOND_DEF_STEREO_COUNT>
0

> <PUBCHEM_BOND_UDEF_STEREO_COUNT>
0

> <PUBCHEM_ISOTOPIC_ATOM_COUNT>
0

> <PUBCHEM_COMPONENT_COUNT>
1

> <PUBCHEM_CACTVS_TAUTO_COUNT>
1

> <PUBCHEM_CONFORMER_ID>
00001D6400000003

> <PUBCHEM_MMFF94_ENERGY>
9.394

> <PUBCHEM_FEATURE_SELFOVERLAP>
20.302

> <PUBCHEM_SHAPE_FINGERPRINT>
12897270 3 18412828014232589213
18185500 45 18335707190533898870
20096714 4 18409168783753451712
21040471 1 18266459806683183584
23235685 24 18338240349587258424
23552423 10 18128811035336938174
29004967 10 18341893017113423697
5084963 1 18410570682332312512

> <PUBCHEM_SHAPE_MULTIPOLES>
152.9
3.21
1.43
0.64
1.6
0.01
0
0.22
0.01
-0.46
0.01
-0.04
-0.02
0.09

> <PUBCHEM_SHAPE_SELFOVERLAP>
292.215

> <PUBCHEM_SHAPE_VOLUME>
93.8

> <PUBCHEM_COORDINATE_TYPE>
2
5
10

$$$$

