5281664
  -OEChem-07051212582D

 48 51  0     1  0  0  0  0  0999 V2000
    5.1357   -1.0281    0.0000 O   0  0  0  0  0  0  0  0  0  0  0  0
    4.2639    0.4686    0.0000 O   0  0  0  0  0  0  0  0  0  0  0  0
    2.5434   -2.5381    0.0000 O   0  0  0  0  0  0  0  0  0  0  0  0
    4.2793   -3.5314    0.0000 O   0  0  0  0  0  0  0  0  0  0  0  0
    2.5357   -0.5381    0.0000 O   0  0  0  0  0  0  0  0  0  0  0  0
    6.0114   -3.5247    0.0000 O   0  0  0  0  0  0  0  0  0  0  0  0
    7.7940    0.4927    0.0000 O   0  0  0  0  0  0  0  0  0  0  0  0
    4.2639    2.5168    0.0000 O   0  0  0  0  0  0  0  0  0  0  0  0
    7.7940    3.4927    0.0000 O   0  0  0  0  0  0  0  0  0  0  0  0
    9.5424    3.5273    0.0000 O   0  0  0  0  0  0  0  0  0  0  0  0
   11.3242    0.4686    0.0000 O   0  0  0  0  0  0  0  0  0  0  0  0
    3.4075   -2.0348    0.0000 C   0  0  1  0  0  0  0  0  0  0  0  0
    4.2755   -2.5314    0.0000 C   0  0  1  0  0  0  0  0  0  0  0  0
    3.4037   -1.0348    0.0000 C   0  0  2  0  0  0  0  0  0  0  0  0
    5.1396   -2.0281    0.0000 C   0  0  1  0  0  0  0  0  0  0  0  0
    4.2678   -0.5314    0.0000 C   0  0  1  0  0  0  0  0  0  0  0  0
    6.0075   -2.5248    0.0000 C   0  0  0  0  0  0  0  0  0  0  0  0
    5.1280    0.9719    0.0000 C   0  0  0  0  0  0  0  0  0  0  0  0
    6.0341    0.4580    0.0000 C   0  0  0  0  0  0  0  0  0  0  0  0
    5.1280    2.0135    0.0000 C   0  0  0  0  0  0  0  0  0  0  0  0
    6.9280    0.9927    0.0000 C   0  0  0  0  0  0  0  0  0  0  0  0
    6.9280    1.9927    0.0000 C   0  0  0  0  0  0  0  0  0  0  0  0
    6.0341    2.5274    0.0000 C   0  0  0  0  0  0  0  0  0  0  0  0
    7.7940    2.4927    0.0000 C   0  0  0  0  0  0  0  0  0  0  0  0
    8.6601    1.9927    0.0000 C   0  0  0  0  0  0  0  0  0  0  0  0
    8.6601    0.9927    0.0000 C   0  0  0  0  0  0  0  0  0  0  0  0
    9.5540    2.5274    0.0000 C   0  0  0  0  0  0  0  0  0  0  0  0
    9.5540    0.4580    0.0000 C   0  0  0  0  0  0  0  0  0  0  0  0
   10.4601    2.0135    0.0000 C   0  0  0  0  0  0  0  0  0  0  0  0
   10.4601    0.9719    0.0000 C   0  0  0  0  0  0  0  0  0  0  0  0
    3.4099   -2.6548    0.0000 H   0  0  0  0  0  0  0  0  0  0  0  0
    3.7398   -2.8435    0.0000 H   0  0  0  0  0  0  0  0  0  0  0  0
    2.8680   -1.3468    0.0000 H   0  0  0  0  0  0  0  0  0  0  0  0
    5.6753   -1.7160    0.0000 H   0  0  0  0  0  0  0  0  0  0  0  0
    3.7296   -0.2235    0.0000 H   0  0  0  0  0  0  0  0  0  0  0  0
    6.6185   -2.6301    0.0000 H   0  0  0  0  0  0  0  0  0  0  0  0
    6.2173   -1.9413    0.0000 H   0  0  0  0  0  0  0  0  0  0  0  0
    2.5458   -3.1581    0.0000 H   0  0  0  0  0  0  0  0  0  0  0  0
    3.7436   -3.8435    0.0000 H   0  0  0  0  0  0  0  0  0  0  0  0
    2.0000   -0.8502    0.0000 H   0  0  0  0  0  0  0  0  0  0  0  0
    6.5495   -3.8327    0.0000 H   0  0  0  0  0  0  0  0  0  0  0  0
    6.0412   -0.1619    0.0000 H   0  0  0  0  0  0  0  0  0  0  0  0
    6.0412    3.1473    0.0000 H   0  0  0  0  0  0  0  0  0  0  0  0
    9.5468   -0.1619    0.0000 H   0  0  0  0  0  0  0  0  0  0  0  0
    4.2663    3.1368    0.0000 H   0  0  0  0  0  0  0  0  0  0  0  0
   10.9958    2.3256    0.0000 H   0  0  0  0  0  0  0  0  0  0  0  0
   10.0758    3.8435    0.0000 H   0  0  0  0  0  0  0  0  0  0  0  0
   11.8623    0.7765    0.0000 H   0  0  0  0  0  0  0  0  0  0  0  0
  1 15  1  0  0  0  0
  1 16  1  0  0  0  0
 16  2  1  6  0  0  0
  2 18  1  0  0  0  0
 12  3  1  6  0  0  0
  3 38  1  0  0  0  0
 13  4  1  1  0  0  0
  4 39  1  0  0  0  0
 14  5  1  1  0  0  0
  5 40  1  0  0  0  0
  6 17  1  0  0  0  0
  6 41  1  0  0  0  0
  7 21  1  0  0  0  0
  7 26  1  0  0  0  0
  8 20  1  0  0  0  0
  8 45  1  0  0  0  0
  9 24  2  0  0  0  0
 10 27  1  0  0  0  0
 10 47  1  0  0  0  0
 11 30  1  0  0  0  0
 11 48  1  0  0  0  0
 12 13  1  0  0  0  0
 12 14  1  0  0  0  0
 12 31  1  0  0  0  0
 13 15  1  0  0  0  0
 13 32  1  0  0  0  0
 14 16  1  0  0  0  0
 14 33  1  0  0  0  0
 15 17  1  6  0  0  0
 15 34  1  0  0  0  0
 16 35  1  0  0  0  0
 17 36  1  0  0  0  0
 17 37  1  0  0  0  0
 18 19  1  0  0  0  0
 18 20  2  0  0  0  0
 19 21  2  0  0  0  0
 19 42  1  0  0  0  0
 20 23  1  0  0  0  0
 21 22  1  0  0  0  0
 22 23  2  0  0  0  0
 22 24  1  0  0  0  0
 23 43  1  0  0  0  0
 24 25  1  0  0  0  0
 25 26  1  0  0  0  0
 25 27  2  0  0  0  0
 26 28  2  0  0  0  0
 27 29  1  0  0  0  0
 28 30  1  0  0  0  0
 28 44  1  0  0  0  0
 29 30  2  0  0  0  0
 29 46  1  0  0  0  0
M  END
> <PUBCHEM_COMPOUND_CID>
5281664

> <PUBCHEM_COMPOUND_CANONICALIZED>
1

> <PUBCHEM_CACTVS_COMPLEXITY>
632

> <PUBCHEM_CACTVS_HBOND_ACCEPTOR>
11

> <PUBCHEM_CACTVS_HBOND_DONOR>
7

> <PUBCHEM_CACTVS_ROTATABLE_BOND>
3

> <PUBCHEM_CACTVS_SUBSKEYS>
AAADceB4PAAAAAAAAAAAAAAAAAAAAAAAAAA0aIEAAAAAAACRQAAAGgAACAAADBSwmAMwDoAABgCIAqBSAAACCAAkIAAAiAEGiMgdNzaGNRqieWOl4BUPuYfK7PzOIQABCAAIQABCAAIQABCAAAAAAAAAAA==

> <PUBCHEM_IUPAC_OPENEYE_NAME>
1,3,7-trihydroxy-6-[(2S,3R,4S,5S,6R)-3,4,5-trihydroxy-6-(hydroxymethyl)tetrahydropyran-2-yl]oxy-xanthen-9-one

> <PUBCHEM_IUPAC_CAS_NAME>
1,3,7-trihydroxy-6-[[(2S,3R,4S,5S,6R)-3,4,5-trihydroxy-6-(hydroxymethyl)-2-oxanyl]oxy]-9-xanthenone

> <PUBCHEM_IUPAC_NAME>
1,3,7-trihydroxy-6-[(2S,3R,4S,5S,6R)-3,4,5-trihydroxy-6-(hydroxymethyl)oxan-2-yl]oxyxanthen-9-one

> <PUBCHEM_IUPAC_SYSTEMATIC_NAME>
6-[(2S,3R,4S,5S,6R)-6-(hydroxymethyl)-3,4,5-tris(oxidanyl)oxan-2-yl]oxy-1,3,7-tris(oxidanyl)xanthen-9-one

> <PUBCHEM_IUPAC_TRADITIONAL_NAME>
1,3,7-trihydroxy-6-[(2S,3R,4S,5S,6R)-3,4,5-trihydroxy-6-methylol-tetrahydropyran-2-yl]oxy-xanthone

> <PUBCHEM_IUPAC_INCHI>
InChI=1S/C19H18O11/c20-5-13-16(25)17(26)18(27)19(30-13)29-11-4-10-7(3-8(11)22)15(24)14-9(23)1-6(21)2-12(14)28-10/h1-4,13,16-23,25-27H,5H2/t13-,16-,17+,18-,19-/m1/s1

> <PUBCHEM_IUPAC_INCHIKEY>
DSJIWZUDANJKCU-LQDZTQBFSA-N

> <PUBCHEM_XLOGP3_AA>
0.3

> <PUBCHEM_EXACT_MASS>
422.084911

> <PUBCHEM_MOLECULAR_FORMULA>
C19H18O11

> <PUBCHEM_MOLECULAR_WEIGHT>
422.33962

> <PUBCHEM_OPENEYE_CAN_SMILES>
C1=C(C=C2C(=C1O)C(=O)C3=CC(=C(C=C3O2)OC4C(C(C(C(O4)CO)O)O)O)O)O

> <PUBCHEM_OPENEYE_ISO_SMILES>
C1=C(C=C2C(=C1O)C(=O)C3=CC(=C(C=C3O2)O[C@H]4[C@@H]([C@H]([C@@H]([C@H](O4)CO)O)O)O)O)O

> <PUBCHEM_CACTVS_TPSA>
186

> <PUBCHEM_MONOISOTOPIC_WEIGHT>
422.084911

> <PUBCHEM_TOTAL_CHARGE>
0

> <PUBCHEM_HEAVY_ATOM_COUNT>
30

> <PUBCHEM_ATOM_DEF_STEREO_COUNT>
5

> <PUBCHEM_ATOM_UDEF_STEREO_COUNT>
0

> <PUBCHEM_BOND_DEF_STEREO_COUNT>
0

> <PUBCHEM_BOND_UDEF_STEREO_COUNT>
0

> <PUBCHEM_ISOTOPIC_ATOM_COUNT>
0

> <PUBCHEM_COMPONENT_COUNT>
1

> <PUBCHEM_CACTVS_TAUTO_COUNT>
36

> <PUBCHEM_COORDINATE_TYPE>
1
5
255

> <PUBCHEM_BONDANNOTATIONS>
15  17  6
18  19  8
18  20  8
19  21  8
16  2  6
20  23  8
21  22  8
22  23  8
22  24  8
24  25  8
25  26  8
25  27  8
26  28  8
27  29  8
28  30  8
29  30  8
12  3  6
13  4  5
14  5  5
7  21  8
7  26  8

$$$$

