17395617
  -OEChem-06241222513D

 62 65  0     1  0  0  0  0  0999 V2000
   -2.6184    2.2119    2.6041 S   0  0  0  0  0  0  0  0  0  0  0  0
   -0.2990   -0.9456   -3.3425 O   0  0  0  0  0  0  0  0  0  0  0  0
    2.8966    0.9783   -0.3604 N   0  0  0  0  0  0  0  0  0  0  0  0
   -0.1281   -2.1066   -1.3432 N   0  0  0  0  0  0  0  0  0  0  0  0
   -2.8663   -0.6445   -1.4970 N   0  0  0  0  0  0  0  0  0  0  0  0
   -2.7575   -1.6965    0.6037 N   0  0  0  0  0  0  0  0  0  0  0  0
   -2.6336   -0.4513    2.6804 N   0  0  0  0  0  0  0  0  0  0  0  0
    2.5083    1.9560   -1.3866 C   0  0  0  0  0  0  0  0  0  0  0  0
    3.7947    1.5810    0.6346 C   0  0  0  0  0  0  0  0  0  0  0  0
    3.7350    2.5116   -2.1117 C   0  0  0  0  0  0  0  0  0  0  0  0
    5.0637    2.1242   -0.0243 C   0  0  0  0  0  0  0  0  0  0  0  0
    4.7315    3.1189   -1.1307 C   0  0  0  0  0  0  0  0  0  0  0  0
    1.7110    0.4221    0.2908 C   0  0  0  0  0  0  0  0  0  0  0  0
    1.9875   -0.9252    0.9033 C   0  0  0  0  0  0  0  0  0  0  0  0
    1.8060   -2.0980    0.1701 C   0  0  0  0  0  0  0  0  0  0  0  0
    2.4322   -0.9901    2.2238 C   0  0  0  0  0  0  0  0  0  0  0  0
    1.3309   -2.0536   -1.2450 C   0  0  0  0  0  0  0  0  0  0  0  0
    2.0694   -3.3355    0.7575 C   0  0  0  0  0  0  0  0  0  0  0  0
    2.6953   -2.2277    2.8111 C   0  0  0  0  0  0  0  0  0  0  0  0
    2.5138   -3.4003    2.0781 C   0  0  0  0  0  0  0  0  0  0  0  0
   -2.3137   -1.7409   -2.2610 C   0  0  2  0  0  0  0  0  0  0  0  0
   -0.8118   -1.5400   -2.3965 C   0  0  0  0  0  0  0  0  0  0  0  0
   -2.7446    0.6855    0.5258 C   0  0  0  0  0  0  0  0  0  0  0  0
   -2.7893   -0.5556   -0.1176 C   0  0  0  0  0  0  0  0  0  0  0  0
   -2.9746   -1.7993   -3.6310 C   0  0  0  0  0  0  0  0  0  0  0  0
   -2.7613    2.0331    0.0461 C   0  0  0  0  0  0  0  0  0  0  0  0
   -2.6680    0.6552    1.9123 C   0  0  0  0  0  0  0  0  0  0  0  0
   -2.6975    2.9571    1.0663 C   0  0  0  0  0  0  0  0  0  0  0  0
   -2.8379    2.4159   -1.3873 C   0  0  0  0  0  0  0  0  0  0  0  0
   -2.6915    4.4351    0.9831 C   0  0  0  0  0  0  0  0  0  0  0  0
   -2.6825   -1.5754    1.9436 C   0  0  0  0  0  0  0  0  0  0  0  0
    1.8638    1.4775   -2.1344 H   0  0  0  0  0  0  0  0  0  0  0  0
    1.9360    2.7810   -0.9420 H   0  0  0  0  0  0  0  0  0  0  0  0
    3.2923    2.3894    1.1821 H   0  0  0  0  0  0  0  0  0  0  0  0
    4.1264    0.8421    1.3689 H   0  0  0  0  0  0  0  0  0  0  0  0
    3.4234    3.2699   -2.8388 H   0  0  0  0  0  0  0  0  0  0  0  0
    4.2228    1.7074   -2.6772 H   0  0  0  0  0  0  0  0  0  0  0  0
    5.6454    1.2930   -0.4430 H   0  0  0  0  0  0  0  0  0  0  0  0
    5.6949    2.6082    0.7296 H   0  0  0  0  0  0  0  0  0  0  0  0
    5.6452    3.4153   -1.6572 H   0  0  0  0  0  0  0  0  0  0  0  0
    4.3035    4.0275   -0.6897 H   0  0  0  0  0  0  0  0  0  0  0  0
    0.8726    0.3333   -0.4107 H   0  0  0  0  0  0  0  0  0  0  0  0
    1.3219    1.1068    1.0589 H   0  0  0  0  0  0  0  0  0  0  0  0
    2.5611   -0.0892    2.8177 H   0  0  0  0  0  0  0  0  0  0  0  0
    1.7206   -1.1949   -1.8006 H   0  0  0  0  0  0  0  0  0  0  0  0
    1.7018   -2.9311   -1.7901 H   0  0  0  0  0  0  0  0  0  0  0  0
    1.9300   -4.2579    0.1999 H   0  0  0  0  0  0  0  0  0  0  0  0
    3.0369   -2.2785    3.8408 H   0  0  0  0  0  0  0  0  0  0  0  0
   -0.6365   -2.6260   -0.6332 H   0  0  0  0  0  0  0  0  0  0  0  0
    2.7171   -4.3638    2.5361 H   0  0  0  0  0  0  0  0  0  0  0  0
   -2.5152   -2.7009   -1.7692 H   0  0  0  0  0  0  0  0  0  0  0  0
   -3.0818    0.1880   -2.0235 H   0  0  0  0  0  0  0  0  0  0  0  0
   -4.0516   -1.9759   -3.5350 H   0  0  0  0  0  0  0  0  0  0  0  0
   -2.5484   -2.6064   -4.2365 H   0  0  0  0  0  0  0  0  0  0  0  0
   -2.8438   -0.8629   -4.1857 H   0  0  0  0  0  0  0  0  0  0  0  0
   -3.7941    2.1083   -1.8226 H   0  0  0  0  0  0  0  0  0  0  0  0
   -2.7665    3.4991   -1.5301 H   0  0  0  0  0  0  0  0  0  0  0  0
   -2.0101    1.9790   -1.9553 H   0  0  0  0  0  0  0  0  0  0  0  0
   -2.6664    4.9163    1.9666 H   0  0  0  0  0  0  0  0  0  0  0  0
   -3.5890    4.7931    0.4675 H   0  0  0  0  0  0  0  0  0  0  0  0
   -1.8148    4.7822    0.4258 H   0  0  0  0  0  0  0  0  0  0  0  0
   -2.6571   -2.5061    2.4995 H   0  0  0  0  0  0  0  0  0  0  0  0
  1 27  1  0  0  0  0
  1 28  1  0  0  0  0
  2 22  2  0  0  0  0
  3  8  1  0  0  0  0
  3  9  1  0  0  0  0
  3 13  1  0  0  0  0
  4 17  1  0  0  0  0
  4 22  1  0  0  0  0
  4 49  1  0  0  0  0
  5 21  1  0  0  0  0
  5 24  1  0  0  0  0
  5 52  1  0  0  0  0
  6 24  1  0  0  0  0
  6 31  2  0  0  0  0
  7 27  2  0  0  0  0
  7 31  1  0  0  0  0
  8 10  1  0  0  0  0
  8 32  1  0  0  0  0
  8 33  1  0  0  0  0
  9 11  1  0  0  0  0
  9 34  1  0  0  0  0
  9 35  1  0  0  0  0
 10 12  1  0  0  0  0
 10 36  1  0  0  0  0
 10 37  1  0  0  0  0
 11 12  1  0  0  0  0
 11 38  1  0  0  0  0
 11 39  1  0  0  0  0
 12 40  1  0  0  0  0
 12 41  1  0  0  0  0
 13 14  1  0  0  0  0
 13 42  1  0  0  0  0
 13 43  1  0  0  0  0
 14 15  1  0  0  0  0
 14 16  2  0  0  0  0
 15 17  1  0  0  0  0
 15 18  2  0  0  0  0
 16 19  1  0  0  0  0
 16 44  1  0  0  0  0
 17 45  1  0  0  0  0
 17 46  1  0  0  0  0
 18 20  1  0  0  0  0
 18 47  1  0  0  0  0
 19 20  2  0  0  0  0
 19 48  1  0  0  0  0
 20 50  1  0  0  0  0
 21 22  1  0  0  0  0
 21 25  1  0  0  0  0
 21 51  1  0  0  0  0
 23 24  2  0  0  0  0
 23 26  1  0  0  0  0
 23 27  1  0  0  0  0
 25 53  1  0  0  0  0
 25 54  1  0  0  0  0
 25 55  1  0  0  0  0
 26 28  2  0  0  0  0
 26 29  1  0  0  0  0
 28 30  1  0  0  0  0
 29 56  1  0  0  0  0
 29 57  1  0  0  0  0
 29 58  1  0  0  0  0
 30 59  1  0  0  0  0
 30 60  1  0  0  0  0
 30 61  1  0  0  0  0
 31 62  1  0  0  0  0
M  END
> <PUBCHEM_COMPOUND_CID>
17395617

> <PUBCHEM_CONFORMER_RMSD>
1.4

> <PUBCHEM_CONFORMER_DIVERSEORDER>
1
21
22
109
58
12
83
10
57
72
13
20
41
31
94
54
56
124
120
29
92
53
107
114
51
80
65
111
125
87
50
112
4
88
33
61
102
74
73
26
75
45
121
81
40
123
15
25
101
52
96
9
47
2
85
17
95
11
48
104
19
30
6
103
69
113
78
117
76
46
98
82
3
86
119
108
44
38
16
62
105
28
67
49
77
59
106
43
90
79
84
110
34
68
97
100
37
42
5
39
14
55
60
122
93
99
64
35
118
24
70
115
27
23
7
89
66
18
36
63
91
32
71
116
8

> <PUBCHEM_MMFF94_PARTIAL_CHARGES>
33
1 -0.08
13 0.41
14 -0.14
15 -0.14
16 -0.15
17 0.44
18 -0.15
19 -0.15
2 -0.57
20 -0.15
21 0.43
22 0.57
24 0.41
26 -0.18
27 0.3
28 -0.14
29 0.18
3 -0.81
30 0.18
31 0.47
4 -0.73
44 0.15
47 0.15
48 0.15
49 0.37
5 -0.87
50 0.15
52 0.4
6 -0.62
62 0.15
7 -0.57
8 0.27
9 0.27

> <PUBCHEM_EFFECTIVE_ROTOR_COUNT>
9.2

> <PUBCHEM_PHARMACOPHORE_FEATURES>
11
1 2 acceptor
1 3 cation
1 4 donor
1 5 cation
1 5 donor
1 7 acceptor
3 6 7 31 cation
5 1 23 26 27 28 rings
6 14 15 16 18 19 20 rings
6 3 8 9 10 11 12 rings
6 6 7 23 24 27 31 rings

> <PUBCHEM_HEAVY_ATOM_COUNT>
31

> <PUBCHEM_ATOM_DEF_STEREO_COUNT>
0

> <PUBCHEM_ATOM_UDEF_STEREO_COUNT>
1

> <PUBCHEM_BOND_DEF_STEREO_COUNT>
0

> <PUBCHEM_BOND_UDEF_STEREO_COUNT>
0

> <PUBCHEM_ISOTOPIC_ATOM_COUNT>
0

> <PUBCHEM_COMPONENT_COUNT>
1

> <PUBCHEM_CACTVS_TAUTO_COUNT>
8

> <PUBCHEM_CONFORMER_ID>
01096FA100000001

> <PUBCHEM_MMFF94_ENERGY>
64.3575

> <PUBCHEM_FEATURE_SELFOVERLAP>
55.899

> <PUBCHEM_SHAPE_FINGERPRINT>
10032420 55 17625277311902679579
10165383 225 16227980702189827547
10291535 26 17688019813750387472
11578080 2 16845291691234886271
11763715 3 17174666759277795550
12107698 1 18266446784342505003
12156800 1 13848089789676847339
12160290 23 17095823048324092151
12633257 1 17768246069868970001
12655364 131 17912683273845656296
12788726 201 18115607966925372951
133893 2 18200894945030060774
14251751 93 18187634774521678292
14251757 17 16371548320848482004
14713325 29 17609757726941303390
17809404 112 15338832041317730451
17921350 177 17906710846156975548
17974551 9 17055809788326907297
20600515 1 17619621827773484552
20642791 239 17756167600100127863
22907989 373 17894356592195395837
3493558 16 17247844974670245023
35225 105 17023483991825057805
469060 322 16481921528207835942
6287921 2 14902203930802821715

> <PUBCHEM_SHAPE_MULTIPOLES>
611.04
8.18
4.94
3.6
4.82
2.19
-1.31
6.06
0.54
1.71
0.43
-1.82
-2
-4.67

> <PUBCHEM_SHAPE_SELFOVERLAP>
1288.644

> <PUBCHEM_SHAPE_VOLUME>
346

> <PUBCHEM_COORDINATE_TYPE>
2
5
10

$$$$

