440713
  -OEChem-07051212502D

 64 68  0     1  0  0  0  0  0999 V2000
   12.6445    2.7426    0.0000 O   0  0  0  0  0  0  0  0  0  0  0  0
    5.9945   -1.5650    0.0000 O   0  0  0  0  0  0  0  0  0  0  0  0
    5.1343   -0.0617    0.0000 O   0  0  0  0  0  0  0  0  0  0  0  0
    4.2586   -2.5583    0.0000 O   0  0  0  0  0  0  0  0  0  0  0  0
    2.5304   -1.5517    0.0000 O   0  0  0  0  0  0  0  0  0  0  0  0
    2.5381    0.4483    0.0000 O   0  0  0  0  0  0  0  0  0  0  0  0
    3.4099    1.9450    0.0000 O   0  0  0  0  0  0  0  0  0  0  0  0
    5.1420    1.9383    0.0000 O   0  0  0  0  0  0  0  0  0  0  0  0
   11.3876    1.4873    0.0000 C   0  0  1  0  0  0  0  0  0  0  0  0
   11.3876    0.4873    0.0000 C   0  0  2  0  0  0  0  0  0  0  0  0
   10.5216   -0.0127    0.0000 C   0  0  1  0  0  0  0  0  0  0  0  0
    9.6555    0.4873    0.0000 C   0  0  2  0  0  0  0  0  0  0  0  0
   12.3338    1.7920    0.0000 C   0  0  2  0  0  0  0  0  0  0  0  0
   10.5216    1.9873    0.0000 C   0  0  0  0  0  0  0  0  0  0  0  0
   12.3338    0.1826    0.0000 C   0  0  0  0  0  0  0  0  0  0  0  0
    9.6555    1.4873    0.0000 C   0  0  0  0  0  0  0  0  0  0  0  0
   12.9174    0.9873    0.0000 C   0  0  0  0  0  0  0  0  0  0  0  0
   10.5376   -1.0542    0.0000 C   0  0  0  0  0  0  0  0  0  0  0  0
   11.3876    2.4873    0.0000 C   0  0  0  0  0  0  0  0  0  0  0  0
    8.7455   -0.0195    0.0000 C   0  0  0  0  0  0  0  0  0  0  0  0
    9.6396   -1.5820    0.0000 C   0  0  0  0  0  0  0  0  0  0  0  0
    8.7375   -1.0611    0.0000 C   0  0  0  0  0  0  0  0  0  0  0  0
    7.8187    0.5445    0.0000 C   0  0  0  0  0  0  0  0  0  0  0  0
    7.8021   -1.6109    0.0000 C   0  0  0  0  0  0  0  0  0  0  0  0
    6.8708    0.0166    0.0000 C   0  0  0  0  0  0  0  0  0  0  0  0
    6.8624   -1.0684    0.0000 C   0  0  0  0  0  0  0  0  0  0  0  0
    5.1304   -1.0617    0.0000 C   0  0  2  0  0  0  0  0  0  0  0  0
    4.2625   -1.5583    0.0000 C   0  0  1  0  0  0  0  0  0  0  0  0
    3.3984   -1.0550    0.0000 C   0  0  2  0  0  0  0  0  0  0  0  0
    3.4022   -0.0550    0.0000 C   0  0  1  0  0  0  0  0  0  0  0  0
    4.2702    0.4416    0.0000 C   0  0  1  0  0  0  0  0  0  0  0  0
    4.2740    1.4416    0.0000 C   0  0  0  0  0  0  0  0  0  0  0  0
   11.4775   -0.3579    0.0000 H   0  0  0  0  0  0  0  0  0  0  0  0
   11.2609   -0.4320    0.0000 H   0  0  0  0  0  0  0  0  0  0  0  0
   10.3916    0.9123    0.0000 H   0  0  0  0  0  0  0  0  0  0  0  0
   11.8963    2.2314    0.0000 H   0  0  0  0  0  0  0  0  0  0  0  0
   10.9201    2.4622    0.0000 H   0  0  0  0  0  0  0  0  0  0  0  0
   10.1230    2.4622    0.0000 H   0  0  0  0  0  0  0  0  0  0  0  0
   12.0828   -0.3843    0.0000 H   0  0  0  0  0  0  0  0  0  0  0  0
   12.8712   -0.1267    0.0000 H   0  0  0  0  0  0  0  0  0  0  0  0
    9.4435    2.0699    0.0000 H   0  0  0  0  0  0  0  0  0  0  0  0
    9.0450    1.3796    0.0000 H   0  0  0  0  0  0  0  0  0  0  0  0
   13.3783    0.5726    0.0000 H   0  0  0  0  0  0  0  0  0  0  0  0
   13.3783    1.4020    0.0000 H   0  0  0  0  0  0  0  0  0  0  0  0
   10.7556   -1.6346    0.0000 H   0  0  0  0  0  0  0  0  0  0  0  0
   11.1468   -0.9387    0.0000 H   0  0  0  0  0  0  0  0  0  0  0  0
   12.0076    2.4873    0.0000 H   0  0  0  0  0  0  0  0  0  0  0  0
   11.3876    3.1073    0.0000 H   0  0  0  0  0  0  0  0  0  0  0  0
   10.7676    2.4873    0.0000 H   0  0  0  0  0  0  0  0  0  0  0  0
    9.2423   -2.0579    0.0000 H   0  0  0  0  0  0  0  0  0  0  0  0
   10.0405   -2.0548    0.0000 H   0  0  0  0  0  0  0  0  0  0  0  0
   13.2511    2.8704    0.0000 H   0  0  0  0  0  0  0  0  0  0  0  0
    7.8306    1.1644    0.0000 H   0  0  0  0  0  0  0  0  0  0  0  0
    7.8045   -2.2309    0.0000 H   0  0  0  0  0  0  0  0  0  0  0  0
    6.3375    0.3328    0.0000 H   0  0  0  0  0  0  0  0  0  0  0  0
    5.1280   -1.6817    0.0000 H   0  0  0  0  0  0  0  0  0  0  0  0
    3.7243   -1.8663    0.0000 H   0  0  0  0  0  0  0  0  0  0  0  0
    2.8626   -0.7430    0.0000 H   0  0  0  0  0  0  0  0  0  0  0  0
    2.8641   -0.3630    0.0000 H   0  0  0  0  0  0  0  0  0  0  0  0
    4.8083    0.7496    0.0000 H   0  0  0  0  0  0  0  0  0  0  0  0
    4.7943   -2.8704    0.0000 H   0  0  0  0  0  0  0  0  0  0  0  0
    2.5280   -2.1717    0.0000 H   0  0  0  0  0  0  0  0  0  0  0  0
    2.0000    0.1404    0.0000 H   0  0  0  0  0  0  0  0  0  0  0  0
    3.4123    2.5650    0.0000 H   0  0  0  0  0  0  0  0  0  0  0  0
 13  1  1  1  0  0  0
  1 52  1  0  0  0  0
  2 26  1  0  0  0  0
 27  2  1  1  0  0  0
  3 27  1  0  0  0  0
  3 31  1  0  0  0  0
 28  4  1  6  0  0  0
  4 61  1  0  0  0  0
 29  5  1  1  0  0  0
  5 62  1  0  0  0  0
 30  6  1  6  0  0  0
  6 63  1  0  0  0  0
  7 32  1  0  0  0  0
  7 64  1  0  0  0  0
  8 32  2  0  0  0  0
  9 10  1  0  0  0  0
  9 13  1  0  0  0  0
  9 14  1  0  0  0  0
  9 19  1  1  0  0  0
 10 11  1  0  0  0  0
 10 15  1  0  0  0  0
 10 33  1  6  0  0  0
 11 12  1  0  0  0  0
 11 18  1  0  0  0  0
 11 34  1  1  0  0  0
 12 16  1  0  0  0  0
 12 20  1  0  0  0  0
 12 35  1  6  0  0  0
 13 17  1  0  0  0  0
 13 36  1  0  0  0  0
 14 16  1  0  0  0  0
 14 37  1  0  0  0  0
 14 38  1  0  0  0  0
 15 17  1  0  0  0  0
 15 39  1  0  0  0  0
 15 40  1  0  0  0  0
 16 41  1  0  0  0  0
 16 42  1  0  0  0  0
 17 43  1  0  0  0  0
 17 44  1  0  0  0  0
 18 21  1  0  0  0  0
 18 45  1  0  0  0  0
 18 46  1  0  0  0  0
 19 47  1  0  0  0  0
 19 48  1  0  0  0  0
 19 49  1  0  0  0  0
 20 22  2  0  0  0  0
 20 23  1  0  0  0  0
 21 22  1  0  0  0  0
 21 50  1  0  0  0  0
 21 51  1  0  0  0  0
 22 24  1  0  0  0  0
 23 25  2  0  0  0  0
 23 53  1  0  0  0  0
 24 26  2  0  0  0  0
 24 54  1  0  0  0  0
 25 26  1  0  0  0  0
 25 55  1  0  0  0  0
 27 28  1  0  0  0  0
 27 56  1  0  0  0  0
 28 29  1  0  0  0  0
 28 57  1  0  0  0  0
 29 30  1  0  0  0  0
 29 58  1  0  0  0  0
 30 31  1  0  0  0  0
 30 59  1  0  0  0  0
 31 32  1  1  0  0  0
 31 60  1  0  0  0  0
M  END
> <PUBCHEM_COMPOUND_CID>
440713

> <PUBCHEM_COMPOUND_CANONICALIZED>
1

> <PUBCHEM_CACTVS_COMPLEXITY>
716

> <PUBCHEM_CACTVS_HBOND_ACCEPTOR>
8

> <PUBCHEM_CACTVS_HBOND_DONOR>
5

> <PUBCHEM_CACTVS_ROTATABLE_BOND>
3

> <PUBCHEM_CACTVS_SUBSKEYS>
AAADcfB4PAAAAAAAAAAAAAAAAAAAAYAAAAA0YMEAAAAAAGDBAAAAGgAACAAADxSwmAMyDoAABgCIAiDSCAICCAAgIAAIiAFGCIgdNjaEMR6ieCCl4BEPqAfK7PxPoAABAAAQAADAAAYAACAAAIAADAAAAA==

> <PUBCHEM_IUPAC_OPENEYE_NAME>
(2S,3S,4S,5R,6S)-3,4,5-trihydroxy-6-[[(8R,9S,13S,14S,17S)-17-hydroxy-13-methyl-6,7,8,9,11,12,14,15,16,17-decahydrocyclopenta[a]phenanthren-3-yl]oxy]tetrahydropyran-2-carboxylic acid

> <PUBCHEM_IUPAC_CAS_NAME>
(2S,3S,4S,5R,6S)-3,4,5-trihydroxy-6-[[(8R,9S,13S,14S,17S)-17-hydroxy-13-methyl-6,7,8,9,11,12,14,15,16,17-decahydrocyclopenta[a]phenanthren-3-yl]oxy]-2-oxanecarboxylic acid

> <PUBCHEM_IUPAC_NAME>
(2S,3S,4S,5R,6S)-3,4,5-trihydroxy-6-[[(8R,9S,13S,14S,17S)-17-hydroxy-13-methyl-6,7,8,9,11,12,14,15,16,17-decahydrocyclopenta[a]phenanthren-3-yl]oxy]oxane-2-carboxylic acid

> <PUBCHEM_IUPAC_SYSTEMATIC_NAME>
(2S,3S,4S,5R,6S)-6-[[(8R,9S,13S,14S,17S)-13-methyl-17-oxidanyl-6,7,8,9,11,12,14,15,16,17-decahydrocyclopenta[a]phenanthren-3-yl]oxy]-3,4,5-tris(oxidanyl)oxane-2-carboxylic acid

> <PUBCHEM_IUPAC_TRADITIONAL_NAME>
(2S,3S,4S,5R,6S)-3,4,5-trihydroxy-6-[[(8R,9S,13S,14S,17S)-17-hydroxy-13-methyl-6,7,8,9,11,12,14,15,16,17-decahydrocyclopenta[a]phenanthren-3-yl]oxy]tetrahydropyran-2-carboxylic acid

> <PUBCHEM_IUPAC_INCHI>
InChI=1S/C24H32O8/c1-24-9-8-14-13-5-3-12(10-11(13)2-4-15(14)16(24)6-7-17(24)25)31-23-20(28)18(26)19(27)21(32-23)22(29)30/h3,5,10,14-21,23,25-28H,2,4,6-9H2,1H3,(H,29,30)/t14-,15-,16+,17+,18+,19+,20-,21+,23-,24+/m1/s1

> <PUBCHEM_IUPAC_INCHIKEY>
MUOHJTRCBBDUOW-QXYWQCSFSA-N

> <PUBCHEM_XLOGP3>
1.1

> <PUBCHEM_EXACT_MASS>
448.209718

> <PUBCHEM_MOLECULAR_FORMULA>
C24H32O8

> <PUBCHEM_MOLECULAR_WEIGHT>
448.50608

> <PUBCHEM_OPENEYE_CAN_SMILES>
CC12CCC3C(C1CCC2O)CCC4=C3C=CC(=C4)OC5C(C(C(C(O5)C(=O)O)O)O)O

> <PUBCHEM_OPENEYE_ISO_SMILES>
C[C@]12CC[C@H]3[C@H]([C@@H]1CC[C@@H]2O)CCC4=C3C=CC(=C4)O[C@H]5[C@@H]([C@H]([C@@H]([C@H](O5)C(=O)O)O)O)O

> <PUBCHEM_CACTVS_TPSA>
137

> <PUBCHEM_MONOISOTOPIC_WEIGHT>
448.209718

> <PUBCHEM_TOTAL_CHARGE>
0

> <PUBCHEM_HEAVY_ATOM_COUNT>
32

> <PUBCHEM_ATOM_DEF_STEREO_COUNT>
10

> <PUBCHEM_ATOM_UDEF_STEREO_COUNT>
0

> <PUBCHEM_BOND_DEF_STEREO_COUNT>
0

> <PUBCHEM_BOND_UDEF_STEREO_COUNT>
0

> <PUBCHEM_ISOTOPIC_ATOM_COUNT>
0

> <PUBCHEM_COMPONENT_COUNT>
1

> <PUBCHEM_CACTVS_TAUTO_COUNT>
1

> <PUBCHEM_COORDINATE_TYPE>
1
5
255

> <PUBCHEM_BONDANNOTATIONS>
13  1  5
10  33  6
11  34  5
12  35  6
27  2  5
20  22  8
20  23  8
22  24  8
23  25  8
24  26  8
25  26  8
31  32  5
28  4  6
29  5  5
30  6  6
9  19  5

$$$$

