2369
  -OEChem-07051212522D

 51 52  0     1  0  0  0  0  0999 V2000
    3.3660   -3.8170    0.0000 O   0  0  0  0  0  0  0  0  0  0  0  0
    4.2320    1.6830    0.0000 O   0  0  0  0  0  0  0  0  0  0  0  0
    4.2320    3.6830    0.0000 O   0  0  0  0  0  0  0  0  0  0  0  0
    5.9641    4.6830    0.0000 N   0  0  0  0  0  0  0  0  0  0  0  0
    2.5000   -5.3170    0.0000 C   0  0  0  0  0  0  0  0  0  0  0  0
    2.0000   -6.1830    0.0000 C   0  0  0  0  0  0  0  0  0  0  0  0
    3.0000   -6.1830    0.0000 C   0  0  0  0  0  0  0  0  0  0  0  0
    2.5000   -4.3170    0.0000 C   0  0  0  0  0  0  0  0  0  0  0  0
    3.3660   -2.8170    0.0000 C   0  0  0  0  0  0  0  0  0  0  0  0
    4.2320   -2.3170    0.0000 C   0  0  0  0  0  0  0  0  0  0  0  0
    4.2320   -1.3170    0.0000 C   0  0  0  0  0  0  0  0  0  0  0  0
    5.0981    3.1830    0.0000 C   0  0  3  0  0  0  0  0  0  0  0  0
    5.9641    3.6830    0.0000 C   0  0  0  0  0  0  0  0  0  0  0  0
    6.8301    5.1830    0.0000 C   0  0  0  0  0  0  0  0  0  0  0  0
    5.0981    2.1830    0.0000 C   0  0  0  0  0  0  0  0  0  0  0  0
    5.0981   -0.8170    0.0000 C   0  0  0  0  0  0  0  0  0  0  0  0
    3.3660   -0.8170    0.0000 C   0  0  0  0  0  0  0  0  0  0  0  0
    4.2320    0.6830    0.0000 C   0  0  0  0  0  0  0  0  0  0  0  0
    6.8301    6.1830    0.0000 C   0  0  0  0  0  0  0  0  0  0  0  0
    7.6962    4.6830    0.0000 C   0  0  0  0  0  0  0  0  0  0  0  0
    5.0981    0.1830    0.0000 C   0  0  0  0  0  0  0  0  0  0  0  0
    3.3660    0.1830    0.0000 C   0  0  0  0  0  0  0  0  0  0  0  0
    3.0989   -5.1565    0.0000 H   0  0  0  0  0  0  0  0  0  0  0  0
    1.4174   -5.9710    0.0000 H   0  0  0  0  0  0  0  0  0  0  0  0
    1.8923   -6.7936    0.0000 H   0  0  0  0  0  0  0  0  0  0  0  0
    3.1077   -6.7936    0.0000 H   0  0  0  0  0  0  0  0  0  0  0  0
    3.5826   -5.9710    0.0000 H   0  0  0  0  0  0  0  0  0  0  0  0
    2.2880   -3.7344    0.0000 H   0  0  0  0  0  0  0  0  0  0  0  0
    1.8894   -4.4246    0.0000 H   0  0  0  0  0  0  0  0  0  0  0  0
    3.1540   -2.2344    0.0000 H   0  0  0  0  0  0  0  0  0  0  0  0
    2.7554   -2.9247    0.0000 H   0  0  0  0  0  0  0  0  0  0  0  0
    4.4441   -2.8996    0.0000 H   0  0  0  0  0  0  0  0  0  0  0  0
    4.8426   -2.2093    0.0000 H   0  0  0  0  0  0  0  0  0  0  0  0
    5.0981    3.8030    0.0000 H   0  0  0  0  0  0  0  0  0  0  0  0
    6.1762    3.1004    0.0000 H   0  0  0  0  0  0  0  0  0  0  0  0
    6.5747    3.7907    0.0000 H   0  0  0  0  0  0  0  0  0  0  0  0
    6.2932    5.4930    0.0000 H   0  0  0  0  0  0  0  0  0  0  0  0
    5.4272    4.9930    0.0000 H   0  0  0  0  0  0  0  0  0  0  0  0
    5.3101    1.6004    0.0000 H   0  0  0  0  0  0  0  0  0  0  0  0
    5.7087    2.2907    0.0000 H   0  0  0  0  0  0  0  0  0  0  0  0
    5.6350   -1.1270    0.0000 H   0  0  0  0  0  0  0  0  0  0  0  0
    2.8291   -1.1270    0.0000 H   0  0  0  0  0  0  0  0  0  0  0  0
    7.3862    4.1461    0.0000 H   0  0  0  0  0  0  0  0  0  0  0  0
    7.4501    6.1830    0.0000 H   0  0  0  0  0  0  0  0  0  0  0  0
    6.8301    6.8030    0.0000 H   0  0  0  0  0  0  0  0  0  0  0  0
    6.2101    6.1830    0.0000 H   0  0  0  0  0  0  0  0  0  0  0  0
    8.2331    4.3730    0.0000 H   0  0  0  0  0  0  0  0  0  0  0  0
    8.0062    5.2200    0.0000 H   0  0  0  0  0  0  0  0  0  0  0  0
    5.6350    0.4930    0.0000 H   0  0  0  0  0  0  0  0  0  0  0  0
    2.8291    0.4930    0.0000 H   0  0  0  0  0  0  0  0  0  0  0  0
    4.2320    4.3030    0.0000 H   0  0  0  0  0  0  0  0  0  0  0  0
  1  8  1  0  0  0  0
  1  9  1  0  0  0  0
  2 15  1  0  0  0  0
  2 18  1  0  0  0  0
  3 12  1  0  0  0  0
  3 51  1  0  0  0  0
  4 13  1  0  0  0  0
  4 14  1  0  0  0  0
  4 38  1  0  0  0  0
  5  6  1  0  0  0  0
  5  7  1  0  0  0  0
  5  8  1  0  0  0  0
  5 23  1  0  0  0  0
  6  7  1  0  0  0  0
  6 24  1  0  0  0  0
  6 25  1  0  0  0  0
  7 26  1  0  0  0  0
  7 27  1  0  0  0  0
  8 28  1  0  0  0  0
  8 29  1  0  0  0  0
  9 10  1  0  0  0  0
  9 30  1  0  0  0  0
  9 31  1  0  0  0  0
 10 11  1  0  0  0  0
 10 32  1  0  0  0  0
 10 33  1  0  0  0  0
 11 16  2  0  0  0  0
 11 17  1  0  0  0  0
 12 13  1  0  0  0  0
 12 15  1  0  0  0  0
 12 34  1  0  0  0  0
 13 35  1  0  0  0  0
 13 36  1  0  0  0  0
 14 19  1  0  0  0  0
 14 20  1  0  0  0  0
 14 37  1  0  0  0  0
 15 39  1  0  0  0  0
 15 40  1  0  0  0  0
 16 21  1  0  0  0  0
 16 41  1  0  0  0  0
 17 22  2  0  0  0  0
 17 42  1  0  0  0  0
 18 21  2  0  0  0  0
 18 22  1  0  0  0  0
 19 44  1  0  0  0  0
 19 45  1  0  0  0  0
 19 46  1  0  0  0  0
 20 43  1  0  0  0  0
 20 47  1  0  0  0  0
 20 48  1  0  0  0  0
 21 49  1  0  0  0  0
 22 50  1  0  0  0  0
M  END
> <PUBCHEM_COMPOUND_CID>
2369

> <PUBCHEM_COMPOUND_CANONICALIZED>
1

> <PUBCHEM_CACTVS_COMPLEXITY>
286

> <PUBCHEM_CACTVS_HBOND_ACCEPTOR>
4

> <PUBCHEM_CACTVS_HBOND_DONOR>
2

> <PUBCHEM_CACTVS_ROTATABLE_BOND>
11

> <PUBCHEM_CACTVS_SUBSKEYS>
AAADceB6MAAAAAAAAAAAAAAAGAAAAAAAAAAwAAAAAAAAAAABAAAAHgAQCAAADTzhmAYyBoLABgCAAiBCAAACCAAgIAAIiIAOCIgPNiKEMRqGOCCm0BGbqAeAwKAOIAAAAAAAAABAAAAAAAAAAAAAAAAAAA==

> <PUBCHEM_IUPAC_OPENEYE_NAME>
1-[4-[2-(cyclopropylmethoxy)ethyl]phenoxy]-3-(isopropylamino)propan-2-ol

> <PUBCHEM_IUPAC_CAS_NAME>
1-[4-[2-(cyclopropylmethoxy)ethyl]phenoxy]-3-(propan-2-ylamino)-2-propanol

> <PUBCHEM_IUPAC_NAME>
1-[4-[2-(cyclopropylmethoxy)ethyl]phenoxy]-3-(propan-2-ylamino)propan-2-ol

> <PUBCHEM_IUPAC_SYSTEMATIC_NAME>
1-[4-[2-(cyclopropylmethoxy)ethyl]phenoxy]-3-(propan-2-ylamino)propan-2-ol

> <PUBCHEM_IUPAC_TRADITIONAL_NAME>
1-[4-[2-(cyclopropylmethoxy)ethyl]phenoxy]-3-(isopropylamino)propan-2-ol

> <PUBCHEM_IUPAC_INCHI>
InChI=1S/C18H29NO3/c1-14(2)19-11-17(20)13-22-18-7-5-15(6-8-18)9-10-21-12-16-3-4-16/h5-8,14,16-17,19-20H,3-4,9-13H2,1-2H3

> <PUBCHEM_IUPAC_INCHIKEY>
NWIUTZDMDHAVTP-UHFFFAOYSA-N

> <PUBCHEM_XLOGP3>
2.8

> <PUBCHEM_EXACT_MASS>
307.214744

> <PUBCHEM_MOLECULAR_FORMULA>
C18H29NO3

> <PUBCHEM_MOLECULAR_WEIGHT>
307.42776

> <PUBCHEM_OPENEYE_CAN_SMILES>
CC(C)NCC(COC1=CC=C(C=C1)CCOCC2CC2)O

> <PUBCHEM_OPENEYE_ISO_SMILES>
CC(C)NCC(COC1=CC=C(C=C1)CCOCC2CC2)O

> <PUBCHEM_CACTVS_TPSA>
50.7

> <PUBCHEM_MONOISOTOPIC_WEIGHT>
307.214744

> <PUBCHEM_TOTAL_CHARGE>
0

> <PUBCHEM_HEAVY_ATOM_COUNT>
22

> <PUBCHEM_ATOM_DEF_STEREO_COUNT>
0

> <PUBCHEM_ATOM_UDEF_STEREO_COUNT>
1

> <PUBCHEM_BOND_DEF_STEREO_COUNT>
0

> <PUBCHEM_BOND_UDEF_STEREO_COUNT>
0

> <PUBCHEM_ISOTOPIC_ATOM_COUNT>
0

> <PUBCHEM_COMPONENT_COUNT>
1

> <PUBCHEM_CACTVS_TAUTO_COUNT>
1

> <PUBCHEM_COORDINATE_TYPE>
1
5
255

> <PUBCHEM_BONDANNOTATIONS>
11  16  8
11  17  8
16  21  8
17  22  8
18  21  8
18  22  8
12  3  3

$$$$

