5600
  -OEChem-06261200452D

112114  0     1  0  0  0  0  0999 V2000
   19.3205   15.1830    0.0000 F   0  0  0  0  0  0  0  0  0  0  0  0
   20.3205   14.1830    0.0000 F   0  0  0  0  0  0  0  0  0  0  0  0
   18.3205   14.1830    0.0000 F   0  0  0  0  0  0  0  0  0  0  0  0
    2.0000  -14.8170    0.0000 F   0  0  0  0  0  0  0  0  0  0  0  0
    3.3660  -15.1830    0.0000 F   0  0  0  0  0  0  0  0  0  0  0  0
    2.3660  -13.4510    0.0000 F   0  0  0  0  0  0  0  0  0  0  0  0
   19.3205    7.1830    0.0000 O   0  0  0  0  0  0  0  0  0  0  0  0
    8.9282  -10.8170    0.0000 O   0  0  0  0  0  0  0  0  0  0  0  0
   18.4545    5.6830    0.0000 O   0  0  0  0  0  0  0  0  0  0  0  0
    9.7942   -9.3170    0.0000 O   0  0  0  0  0  0  0  0  0  0  0  0
   18.4545    9.6830    0.0000 O   0  0  0  0  0  0  0  0  0  0  0  0
    6.3301  -11.3170    0.0000 O   0  0  0  0  0  0  0  0  0  0  0  0
   15.8564    2.1830    0.0000 O   0  0  0  0  0  0  0  0  0  0  0  0
   11.5263   -5.3170    0.0000 O   0  0  0  0  0  0  0  0  0  0  0  0
   19.3205    8.1830    0.0000 O   0  0  0  0  0  0  0  0  0  0  0  0
    8.0622  -11.3170    0.0000 O   0  0  0  0  0  0  0  0  0  0  0  0
   12.3923    1.1830    0.0000 O   0  0  0  0  0  0  0  0  0  0  0  0
   10.6603   -1.8170    0.0000 O   0  0  0  0  0  0  0  0  0  0  0  0
   17.5885    8.1830    0.0000 N   0  0  0  0  0  0  0  0  0  0  0  0
    7.1962   -9.8170    0.0000 N   0  0  0  0  0  0  0  0  0  0  0  0
   14.9904    3.6830    0.0000 N   0  0  0  0  0  0  0  0  0  0  0  0
    9.7942   -5.3170    0.0000 N   0  0  0  0  0  0  0  0  0  0  0  0
   14.1244    1.1830    0.0000 N   0  0  0  0  0  0  0  0  0  0  0  0
   11.5263   -3.3170    0.0000 N   0  0  0  0  0  0  0  0  0  0  0  0
   16.7224    5.6830    0.0000 C   0  0  0  0  0  0  0  0  0  0  0  0
    8.9282   -7.8170    0.0000 C   0  0  0  0  0  0  0  0  0  0  0  0
   16.7224    6.6830    0.0000 C   0  0  0  0  0  0  0  0  0  0  0  0
    8.0622   -8.3170    0.0000 C   0  0  0  0  0  0  0  0  0  0  0  0
   15.8564    5.1830    0.0000 C   0  0  0  0  0  0  0  0  0  0  0  0
    8.9282   -6.8170    0.0000 C   0  0  0  0  0  0  0  0  0  0  0  0
   17.5885    7.1830    0.0000 C   0  0  3  0  0  0  0  0  0  0  0  0
    8.0622   -9.3170    0.0000 C   0  0  3  0  0  0  0  0  0  0  0  0
   15.8564    4.1830    0.0000 C   0  0  0  0  0  0  0  0  0  0  0  0
    9.7942   -6.3170    0.0000 C   0  0  0  0  0  0  0  0  0  0  0  0
   18.4545    6.6830    0.0000 C   0  0  0  0  0  0  0  0  0  0  0  0
    8.9282   -9.8170    0.0000 C   0  0  0  0  0  0  0  0  0  0  0  0
   14.9904    2.6830    0.0000 C   0  0  0  0  0  0  0  0  0  0  0  0
   10.6603   -4.8170    0.0000 C   0  0  0  0  0  0  0  0  0  0  0  0
   18.4545    8.6830    0.0000 C   0  0  0  0  0  0  0  0  0  0  0  0
    7.1962  -10.8170    0.0000 C   0  0  0  0  0  0  0  0  0  0  0  0
   14.1244    2.1830    0.0000 C   0  0  0  0  0  0  0  0  0  0  0  0
   10.6603   -3.8170    0.0000 C   0  0  0  0  0  0  0  0  0  0  0  0
   19.3205   10.1830    0.0000 C   0  0  0  0  0  0  0  0  0  0  0  0
    6.3301  -12.3170    0.0000 C   0  0  0  0  0  0  0  0  0  0  0  0
   13.2583    0.6830    0.0000 C   0  0  0  0  0  0  0  0  0  0  0  0
   11.5263   -2.3170    0.0000 C   0  0  0  0  0  0  0  0  0  0  0  0
   19.3205   11.1830    0.0000 C   0  0  0  0  0  0  0  0  0  0  0  0
    5.4641  -12.8170    0.0000 C   0  0  0  0  0  0  0  0  0  0  0  0
   13.2583   -0.3170    0.0000 C   0  0  0  0  0  0  0  0  0  0  0  0
   12.3923   -1.8170    0.0000 C   0  0  0  0  0  0  0  0  0  0  0  0
   12.3923   -0.8170    0.0000 C   0  0  0  0  0  0  0  0  0  0  0  0
   14.1244   -0.8170    0.0000 C   0  0  0  0  0  0  0  0  0  0  0  0
   13.2583   -2.3170    0.0000 C   0  0  0  0  0  0  0  0  0  0  0  0
   20.1865   11.6830    0.0000 C   0  0  0  0  0  0  0  0  0  0  0  0
    4.5981  -12.3170    0.0000 C   0  0  0  0  0  0  0  0  0  0  0  0
   18.4545   11.6830    0.0000 C   0  0  0  0  0  0  0  0  0  0  0  0
    5.4641  -13.8170    0.0000 C   0  0  0  0  0  0  0  0  0  0  0  0
   14.1244   -1.8170    0.0000 C   0  0  0  0  0  0  0  0  0  0  0  0
   19.3205   13.1830    0.0000 C   0  0  0  0  0  0  0  0  0  0  0  0
    3.7320  -13.8170    0.0000 C   0  0  0  0  0  0  0  0  0  0  0  0
   20.1865   12.6830    0.0000 C   0  0  0  0  0  0  0  0  0  0  0  0
    3.7320  -12.8170    0.0000 C   0  0  0  0  0  0  0  0  0  0  0  0
   18.4545   12.6830    0.0000 C   0  0  0  0  0  0  0  0  0  0  0  0
    4.5981  -14.3170    0.0000 C   0  0  0  0  0  0  0  0  0  0  0  0
   19.3205   14.1830    0.0000 C   0  0  0  0  0  0  0  0  0  0  0  0
    2.8660  -14.3170    0.0000 C   0  0  0  0  0  0  0  0  0  0  0  0
   16.9345    5.1004    0.0000 H   0  0  0  0  0  0  0  0  0  0  0  0
   17.3330    5.7907    0.0000 H   0  0  0  0  0  0  0  0  0  0  0  0
    9.1403   -8.3996    0.0000 H   0  0  0  0  0  0  0  0  0  0  0  0
    9.5388   -7.7093    0.0000 H   0  0  0  0  0  0  0  0  0  0  0  0
   16.5104    7.2656    0.0000 H   0  0  0  0  0  0  0  0  0  0  0  0
   16.1119    6.5754    0.0000 H   0  0  0  0  0  0  0  0  0  0  0  0
    7.8501   -7.7344    0.0000 H   0  0  0  0  0  0  0  0  0  0  0  0
    7.4516   -8.4246    0.0000 H   0  0  0  0  0  0  0  0  0  0  0  0
   15.6444    5.7656    0.0000 H   0  0  0  0  0  0  0  0  0  0  0  0
   15.2458    5.0754    0.0000 H   0  0  0  0  0  0  0  0  0  0  0  0
    8.7162   -6.2344    0.0000 H   0  0  0  0  0  0  0  0  0  0  0  0
    8.3176   -6.9246    0.0000 H   0  0  0  0  0  0  0  0  0  0  0  0
   18.1254    7.4930    0.0000 H   0  0  0  0  0  0  0  0  0  0  0  0
    8.0622   -9.9370    0.0000 H   0  0  0  0  0  0  0  0  0  0  0  0
   16.0685    3.6004    0.0000 H   0  0  0  0  0  0  0  0  0  0  0  0
   16.4670    4.2907    0.0000 H   0  0  0  0  0  0  0  0  0  0  0  0
   10.0063   -6.8996    0.0000 H   0  0  0  0  0  0  0  0  0  0  0  0
   10.4048   -6.2093    0.0000 H   0  0  0  0  0  0  0  0  0  0  0  0
   17.0515    8.4930    0.0000 H   0  0  0  0  0  0  0  0  0  0  0  0
    6.6592   -9.5070    0.0000 H   0  0  0  0  0  0  0  0  0  0  0  0
   14.4534    3.9930    0.0000 H   0  0  0  0  0  0  0  0  0  0  0  0
    9.2573   -5.0070    0.0000 H   0  0  0  0  0  0  0  0  0  0  0  0
   13.9123    2.7656    0.0000 H   0  0  0  0  0  0  0  0  0  0  0  0
   13.5138    2.0753    0.0000 H   0  0  0  0  0  0  0  0  0  0  0  0
   10.4482   -3.2344    0.0000 H   0  0  0  0  0  0  0  0  0  0  0  0
   10.0497   -3.9246    0.0000 H   0  0  0  0  0  0  0  0  0  0  0  0
   19.8574    6.8730    0.0000 H   0  0  0  0  0  0  0  0  0  0  0  0
    9.4651  -11.1270    0.0000 H   0  0  0  0  0  0  0  0  0  0  0  0
   14.6613    0.8730    0.0000 H   0  0  0  0  0  0  0  0  0  0  0  0
   12.0632   -3.6270    0.0000 H   0  0  0  0  0  0  0  0  0  0  0  0
   19.5326    9.6004    0.0000 H   0  0  0  0  0  0  0  0  0  0  0  0
   19.9311   10.2907    0.0000 H   0  0  0  0  0  0  0  0  0  0  0  0
    6.5422  -12.8996    0.0000 H   0  0  0  0  0  0  0  0  0  0  0  0
    6.9407  -12.2093    0.0000 H   0  0  0  0  0  0  0  0  0  0  0  0
   11.8554   -0.5070    0.0000 H   0  0  0  0  0  0  0  0  0  0  0  0
   14.6613   -0.5070    0.0000 H   0  0  0  0  0  0  0  0  0  0  0  0
   13.2583   -2.9370    0.0000 H   0  0  0  0  0  0  0  0  0  0  0  0
   20.7235   11.3730    0.0000 H   0  0  0  0  0  0  0  0  0  0  0  0
    4.5981  -11.6970    0.0000 H   0  0  0  0  0  0  0  0  0  0  0  0
   17.9175   11.3730    0.0000 H   0  0  0  0  0  0  0  0  0  0  0  0
    6.0010  -14.1270    0.0000 H   0  0  0  0  0  0  0  0  0  0  0  0
   14.6613   -2.1270    0.0000 H   0  0  0  0  0  0  0  0  0  0  0  0
   20.7235   12.9930    0.0000 H   0  0  0  0  0  0  0  0  0  0  0  0
    3.1951  -12.5070    0.0000 H   0  0  0  0  0  0  0  0  0  0  0  0
   17.9175   12.9930    0.0000 H   0  0  0  0  0  0  0  0  0  0  0  0
    4.5981  -14.9370    0.0000 H   0  0  0  0  0  0  0  0  0  0  0  0
  1 65  1  0  0  0  0
  2 65  1  0  0  0  0
  3 65  1  0  0  0  0
  4 66  1  0  0  0  0
  5 66  1  0  0  0  0
  6 66  1  0  0  0  0
  7 35  1  0  0  0  0
  7 93  1  0  0  0  0
  8 36  1  0  0  0  0
  8 94  1  0  0  0  0
  9 35  2  0  0  0  0
 10 36  2  0  0  0  0
 11 39  1  0  0  0  0
 11 43  1  0  0  0  0
 12 40  1  0  0  0  0
 12 44  1  0  0  0  0
 13 37  2  0  0  0  0
 14 38  2  0  0  0  0
 15 39  2  0  0  0  0
 16 40  2  0  0  0  0
 17 45  2  0  0  0  0
 18 46  2  0  0  0  0
 19 31  1  0  0  0  0
 19 39  1  0  0  0  0
 19 85  1  0  0  0  0
 20 32  1  0  0  0  0
 20 40  1  0  0  0  0
 20 86  1  0  0  0  0
 21 33  1  0  0  0  0
 21 37  1  0  0  0  0
 21 87  1  0  0  0  0
 22 34  1  0  0  0  0
 22 38  1  0  0  0  0
 22 88  1  0  0  0  0
 23 41  1  0  0  0  0
 23 45  1  0  0  0  0
 23 95  1  0  0  0  0
 24 42  1  0  0  0  0
 24 46  1  0  0  0  0
 24 96  1  0  0  0  0
 25 27  1  0  0  0  0
 25 29  1  0  0  0  0
 25 67  1  0  0  0  0
 25 68  1  0  0  0  0
 26 28  1  0  0  0  0
 26 30  1  0  0  0  0
 26 69  1  0  0  0  0
 26 70  1  0  0  0  0
 27 31  1  0  0  0  0
 27 71  1  0  0  0  0
 27 72  1  0  0  0  0
 28 32  1  0  0  0  0
 28 73  1  0  0  0  0
 28 74  1  0  0  0  0
 29 33  1  0  0  0  0
 29 75  1  0  0  0  0
 29 76  1  0  0  0  0
 30 34  1  0  0  0  0
 30 77  1  0  0  0  0
 30 78  1  0  0  0  0
 31 35  1  0  0  0  0
 31 79  1  0  0  0  0
 32 36  1  0  0  0  0
 32 80  1  0  0  0  0
 33 81  1  0  0  0  0
 33 82  1  0  0  0  0
 34 83  1  0  0  0  0
 34 84  1  0  0  0  0
 37 41  1  0  0  0  0
 38 42  1  0  0  0  0
 41 89  1  0  0  0  0
 41 90  1  0  0  0  0
 42 91  1  0  0  0  0
 42 92  1  0  0  0  0
 43 47  1  0  0  0  0
 43 97  1  0  0  0  0
 43 98  1  0  0  0  0
 44 48  1  0  0  0  0
 44 99  1  0  0  0  0
 44100  1  0  0  0  0
 45 49  1  0  0  0  0
 46 50  1  0  0  0  0
 47 54  2  0  0  0  0
 47 56  1  0  0  0  0
 48 55  2  0  0  0  0
 48 57  1  0  0  0  0
 49 51  2  0  0  0  0
 49 52  1  0  0  0  0
 50 51  1  0  0  0  0
 50 53  2  0  0  0  0
 51101  1  0  0  0  0
 52 58  2  0  0  0  0
 52102  1  0  0  0  0
 53 58  1  0  0  0  0
 53103  1  0  0  0  0
 54 61  1  0  0  0  0
 54104  1  0  0  0  0
 55 62  1  0  0  0  0
 55105  1  0  0  0  0
 56 63  2  0  0  0  0
 56106  1  0  0  0  0
 57 64  2  0  0  0  0
 57107  1  0  0  0  0
 58108  1  0  0  0  0
 59 61  2  0  0  0  0
 59 63  1  0  0  0  0
 59 65  1  0  0  0  0
 60 62  2  0  0  0  0
 60 64  1  0  0  0  0
 60 66  1  0  0  0  0
 61109  1  0  0  0  0
 62110  1  0  0  0  0
 63111  1  0  0  0  0
 64112  1  0  0  0  0
M  END
> <PUBCHEM_COMPOUND_CID>
5600

> <PUBCHEM_COMPOUND_CANONICALIZED>
1

> <PUBCHEM_CACTVS_COMPLEXITY>
1510

> <PUBCHEM_CACTVS_HBOND_ACCEPTOR>
18

> <PUBCHEM_CACTVS_HBOND_DONOR>
8

> <PUBCHEM_CACTVS_ROTATABLE_BOND>
26

> <PUBCHEM_CACTVS_SUBSKEYS>
AAADcfB/vcAAAAAAAAAAAAAAAAAAAAAAAAAwYMAAAAAAAAABUAAAHwAQCAAADCjhmBYwCILABgCIAiHSGACCAAAkAAAIiIGIDMkKZjKAtTmccQhk1gGYqYeYy3COQAACAAAAAACAAAQAAAAAAAAAAAAAAA==

> <PUBCHEM_IUPAC_OPENEYE_NAME>
6-[[2-[[3-[[2-[[5-carboxy-5-[[4-(trifluoromethyl)phenyl]methoxycarbonylamino]pentyl]amino]-2-oxo-ethyl]carbamoyl]benzoyl]amino]acetyl]amino]-2-[[4-(trifluoromethyl)phenyl]methoxycarbonylamino]hexanoic acid

> <PUBCHEM_IUPAC_CAS_NAME>
6-[[2-[[[3-[[[2-[[5-carboxy-5-[[oxo-[[4-(trifluoromethyl)phenyl]methoxy]methyl]amino]pentyl]amino]-2-oxoethyl]amino]-oxomethyl]phenyl]-oxomethyl]amino]-1-oxoethyl]amino]-2-[[oxo-[[4-(trifluoromethyl)phenyl]methoxy]methyl]amino]hexanoic acid

> <PUBCHEM_IUPAC_NAME>
6-[[2-[[3-[[2-[[5-carboxy-5-[[4-(trifluoromethyl)phenyl]methoxycarbonylamino]pentyl]amino]-2-oxoethyl]carbamoyl]benzoyl]amino]acetyl]amino]-2-[[4-(trifluoromethyl)phenyl]methoxycarbonylamino]hexanoic acid

> <PUBCHEM_IUPAC_SYSTEMATIC_NAME>
6-[2-[[3-[[2-oxidanylidene-2-[[6-oxidanyl-6-oxidanylidene-5-[[4-(trifluoromethyl)phenyl]methoxycarbonylamino]hexyl]amino]ethyl]carbamoyl]phenyl]carbonylamino]ethanoylamino]-2-[[4-(trifluoromethyl)phenyl]methoxycarbonylamino]hexanoic acid

> <PUBCHEM_IUPAC_TRADITIONAL_NAME>
6-[[2-[[3-[[2-[[5-carboxy-5-[[4-(trifluoromethyl)benzyl]oxycarbonylamino]pentyl]amino]-2-keto-ethyl]carbamoyl]benzoyl]amino]acetyl]amino]-2-[[4-(trifluoromethyl)benzyl]oxycarbonylamino]hexanoic acid

> <PUBCHEM_IUPAC_INCHI>
InChI=1S/C42H46F6N6O12/c43-41(44,45)29-14-10-25(11-15-29)23-65-39(63)53-31(37(59)60)8-1-3-18-49-33(55)21-51-35(57)27-6-5-7-28(20-27)36(58)52-22-34(56)50-19-4-2-9-32(38(61)62)54-40(64)66-24-26-12-16-30(17-13-26)42(46,47)48/h5-7,10-17,20,31-32H,1-4,8-9,18-19,21-24H2,(H,49,55)(H,50,56)(H,51,57)(H,52,58)(H,53,63)(H,54,64)(H,59,60)(H,61,62)

> <PUBCHEM_IUPAC_INCHIKEY>
QRURLAHCTNYZLV-UHFFFAOYSA-N

> <PUBCHEM_XLOGP3_AA>
4.8

> <PUBCHEM_EXACT_MASS>
940.30779

> <PUBCHEM_MOLECULAR_FORMULA>
C42H46F6N6O12

> <PUBCHEM_MOLECULAR_WEIGHT>
940.838059

> <PUBCHEM_OPENEYE_CAN_SMILES>
C1=CC(=CC(=C1)C(=O)NCC(=O)NCCCCC(C(=O)O)NC(=O)OCC2=CC=C(C=C2)C(F)(F)F)C(=O)NCC(=O)NCCCCC(C(=O)O)NC(=O)OCC3=CC=C(C=C3)C(F)(F)F

> <PUBCHEM_OPENEYE_ISO_SMILES>
C1=CC(=CC(=C1)C(=O)NCC(=O)NCCCCC(C(=O)O)NC(=O)OCC2=CC=C(C=C2)C(F)(F)F)C(=O)NCC(=O)NCCCCC(C(=O)O)NC(=O)OCC3=CC=C(C=C3)C(F)(F)F

> <PUBCHEM_CACTVS_TPSA>
268

> <PUBCHEM_MONOISOTOPIC_WEIGHT>
940.30779

> <PUBCHEM_TOTAL_CHARGE>
0

> <PUBCHEM_HEAVY_ATOM_COUNT>
66

> <PUBCHEM_ATOM_DEF_STEREO_COUNT>
0

> <PUBCHEM_ATOM_UDEF_STEREO_COUNT>
2

> <PUBCHEM_BOND_DEF_STEREO_COUNT>
0

> <PUBCHEM_BOND_UDEF_STEREO_COUNT>
0

> <PUBCHEM_ISOTOPIC_ATOM_COUNT>
0

> <PUBCHEM_COMPONENT_COUNT>
1

> <PUBCHEM_CACTVS_TAUTO_COUNT>
36

> <PUBCHEM_COORDINATE_TYPE>
1
5
255

> <PUBCHEM_BONDANNOTATIONS>
31  27  3
32  28  3
47  54  8
47  56  8
48  55  8
48  57  8
49  51  8
49  52  8
50  51  8
50  53  8
52  58  8
53  58  8
54  61  8
55  62  8
56  63  8
57  64  8
59  61  8
59  63  8
60  62  8
60  64  8

$$$$

