172448
  -OEChem-07051212572D

102113  0     1  0  0  0  0  0999 V2000
    7.4991    0.1697    0.0000 N   0  0  3  0  0  0  0  0  0  0  0  0
    4.0854   -1.5522    0.0000 N   0  0  3  0  0  0  0  0  0  0  0  0
    6.3873    1.7072    0.0000 N   0  0  0  0  0  0  0  0  0  0  0  0
    5.8170   -2.3279    0.0000 N   0  0  0  0  0  0  0  0  0  0  0  0
    6.3363    4.3727    0.0000 N   0  0  3  0  0  0  0  0  0  0  0  0
    7.1940   -4.6108    0.0000 N   0  0  3  0  0  0  0  0  0  0  0  0
    4.5402    4.9838    0.0000 N   0  0  0  0  0  0  0  0  0  0  0  0
    9.0550   -4.2420    0.0000 N   0  0  0  0  0  0  0  0  0  0  0  0
    5.4806   -0.7452    0.0000 C   0  0  3  0  0  0  0  0  0  0  0  0
    5.8873    0.1683    0.0000 C   0  0  3  0  0  0  0  0  0  0  0  0
    6.6964    0.7561    0.0000 C   0  0  3  0  0  0  0  0  0  0  0  0
    5.0738   -1.6588    0.0000 C   0  0  3  0  0  0  0  0  0  0  0  0
    4.7401   -0.0820    0.0000 C   0  0  0  0  0  0  0  0  0  0  0  0
    6.1970   -0.7763    0.0000 C   0  0  0  0  0  0  0  0  0  0  0  0
    6.4752   -0.8497    0.0000 C   0  0  0  0  0  0  0  0  0  0  0  0
    5.0783    0.7561    0.0000 C   0  0  0  0  0  0  0  0  0  0  0  0
    7.1911   -0.7754    0.0000 C   0  0  0  0  0  0  0  0  0  0  0  0
    3.8797   -0.5797    0.0000 C   0  0  0  0  0  0  0  0  0  0  0  0
    5.3873    1.7072    0.0000 C   0  0  0  0  0  0  0  0  0  0  0  0
    6.6831   -1.8279    0.0000 C   0  0  0  0  0  0  0  0  0  0  0  0
    7.6686   -2.1650    0.0000 C   0  0  0  0  0  0  0  0  0  0  0  0
    4.7024    2.4919    0.0000 C   0  0  0  0  0  0  0  0  0  0  0  0
    5.0224    3.4393    0.0000 C   0  0  3  0  0  0  0  0  0  0  0  0
    7.8652   -3.1455    0.0000 C   0  0  3  0  0  0  0  0  0  0  0  0
    4.0629    0.5239    0.0000 C   0  0  0  0  0  0  0  0  0  0  0  0
    7.2384   -0.1409    0.0000 C   0  0  0  0  0  0  0  0  0  0  0  0
    3.4150   -2.2942    0.0000 C   0  0  0  0  0  0  0  0  0  0  0  0
    8.4506    0.4771    0.0000 C   0  0  0  0  0  0  0  0  0  0  0  0
    5.3424    4.3868    0.0000 C   0  0  3  0  0  0  0  0  0  0  0  0
    8.0619   -4.1259    0.0000 C   0  0  3  0  0  0  0  0  0  0  0  0
    5.8213    2.8478    0.0000 C   0  0  0  0  0  0  0  0  0  0  0  0
    6.8776   -3.0327    0.0000 C   0  0  0  0  0  0  0  0  0  0  0  0
    3.6819    2.2832    0.0000 C   0  0  0  0  0  0  0  0  0  0  0  0
    8.4480   -1.4740    0.0000 C   0  0  0  0  0  0  0  0  0  0  0  0
    3.3600    1.2926    0.0000 C   0  0  0  0  0  0  0  0  0  0  0  0
    8.2315   -0.4551    0.0000 C   0  0  0  0  0  0  0  0  0  0  0  0
    8.7369   -2.6555    0.0000 C   0  0  0  0  0  0  0  0  0  0  0  0
    4.0224    3.4509    0.0000 C   0  0  0  0  0  0  0  0  0  0  0  0
    6.6318    3.4235    0.0000 C   0  0  0  0  0  0  0  0  0  0  0  0
    6.4636   -3.9365    0.0000 C   0  0  0  0  0  0  0  0  0  0  0  0
    9.4723   -3.3332    0.0000 C   0  0  0  0  0  0  0  0  0  0  0  0
    3.7244    4.4055    0.0000 C   0  0  0  0  0  0  0  0  0  0  0  0
    3.3284    2.6741    0.0000 C   0  0  0  0  0  0  0  0  0  0  0  0
    8.9496   -1.6358    0.0000 C   0  0  0  0  0  0  0  0  0  0  0  0
    7.0762   -5.6038    0.0000 C   0  0  0  0  0  0  0  0  0  0  0  0
    6.9348    5.1738    0.0000 C   0  0  0  0  0  0  0  0  0  0  0  0
   10.4713   -3.0382    0.0000 C   0  0  0  0  0  0  0  0  0  0  0  0
    2.7118    4.6494    0.0000 C   0  0  0  0  0  0  0  0  0  0  0  0
    2.3104    2.8946    0.0000 C   0  0  0  0  0  0  0  0  0  0  0  0
    9.9415   -1.3178    0.0000 C   0  0  0  0  0  0  0  0  0  0  0  0
    2.0000    3.8889    0.0000 C   0  0  0  0  0  0  0  0  0  0  0  0
   10.7074   -2.0237    0.0000 C   0  0  0  0  0  0  0  0  0  0  0  0
    4.7271   -2.4348    0.0000 H   0  0  0  0  0  0  0  0  0  0  0  0
    7.3847    1.2548    0.0000 H   0  0  0  0  0  0  0  0  0  0  0  0
    5.5908   -0.9064    0.0000 H   0  0  0  0  0  0  0  0  0  0  0  0
    6.2627   -1.3928    0.0000 H   0  0  0  0  0  0  0  0  0  0  0  0
    5.2000    0.3338    0.0000 H   0  0  0  0  0  0  0  0  0  0  0  0
    4.3750    0.4191    0.0000 H   0  0  0  0  0  0  0  0  0  0  0  0
    3.6273   -0.0134    0.0000 H   0  0  0  0  0  0  0  0  0  0  0  0
    3.2900   -0.7712    0.0000 H   0  0  0  0  0  0  0  0  0  0  0  0
    7.1264   -1.3920    0.0000 H   0  0  0  0  0  0  0  0  0  0  0  0
    7.7975   -0.9045    0.0000 H   0  0  0  0  0  0  0  0  0  0  0  0
    5.7522   -2.9445    0.0000 H   0  0  0  0  0  0  0  0  0  0  0  0
    6.7518    2.2088    0.0000 H   0  0  0  0  0  0  0  0  0  0  0  0
    3.8782   -0.0680    0.0000 H   0  0  0  0  0  0  0  0  0  0  0  0
    7.1024    0.4640    0.0000 H   0  0  0  0  0  0  0  0  0  0  0  0
    8.6412   -0.1129    0.0000 H   0  0  0  0  0  0  0  0  0  0  0  0
    9.0406    0.6677    0.0000 H   0  0  0  0  0  0  0  0  0  0  0  0
    8.2601    1.0671    0.0000 H   0  0  0  0  0  0  0  0  0  0  0  0
    2.9550   -1.8786    0.0000 H   0  0  0  0  0  0  0  0  0  0  0  0
    2.9994   -2.7542    0.0000 H   0  0  0  0  0  0  0  0  0  0  0  0
    3.8751   -2.7099    0.0000 H   0  0  0  0  0  0  0  0  0  0  0  0
    8.2279   -4.9596    0.0000 H   0  0  0  0  0  0  0  0  0  0  0  0
    5.6154    5.1917    0.0000 H   0  0  0  0  0  0  0  0  0  0  0  0
    5.4021    2.3911    0.0000 H   0  0  0  0  0  0  0  0  0  0  0  0
    6.2315    2.3829    0.0000 H   0  0  0  0  0  0  0  0  0  0  0  0
    7.0123   -2.4275    0.0000 H   0  0  0  0  0  0  0  0  0  0  0  0
    6.2899   -2.8351    0.0000 H   0  0  0  0  0  0  0  0  0  0  0  0
    3.2688    2.7456    0.0000 H   0  0  0  0  0  0  0  0  0  0  0  0
    9.0369   -1.6679    0.0000 H   0  0  0  0  0  0  0  0  0  0  0  0
    2.7540    1.1613    0.0000 H   0  0  0  0  0  0  0  0  0  0  0  0
    8.6906   -0.0385    0.0000 H   0  0  0  0  0  0  0  0  0  0  0  0
    6.9357    2.8831    0.0000 H   0  0  0  0  0  0  0  0  0  0  0  0
    7.2011    3.6690    0.0000 H   0  0  0  0  0  0  0  0  0  0  0  0
    5.9302   -3.6204    0.0000 H   0  0  0  0  0  0  0  0  0  0  0  0
    6.0932   -4.4337    0.0000 H   0  0  0  0  0  0  0  0  0  0  0  0
    9.3588   -4.7825    0.0000 H   0  0  0  0  0  0  0  0  0  0  0  0
    4.5474    5.6038    0.0000 H   0  0  0  0  0  0  0  0  0  0  0  0
    3.5200    2.0845    0.0000 H   0  0  0  0  0  0  0  0  0  0  0  0
    8.4888   -1.2210    0.0000 H   0  0  0  0  0  0  0  0  0  0  0  0
    7.4315    4.8027    0.0000 H   0  0  0  0  0  0  0  0  0  0  0  0
    7.3059    5.6705    0.0000 H   0  0  0  0  0  0  0  0  0  0  0  0
    6.4381    5.5449    0.0000 H   0  0  0  0  0  0  0  0  0  0  0  0
    6.4606   -5.5308    0.0000 H   0  0  0  0  0  0  0  0  0  0  0  0
    7.0032   -6.2195    0.0000 H   0  0  0  0  0  0  0  0  0  0  0  0
    7.6919   -5.6768    0.0000 H   0  0  0  0  0  0  0  0  0  0  0  0
    2.5339    5.2434    0.0000 H   0  0  0  0  0  0  0  0  0  0  0  0
   10.9223   -3.4636    0.0000 H   0  0  0  0  0  0  0  0  0  0  0  0
    1.8920    2.4371    0.0000 H   0  0  0  0  0  0  0  0  0  0  0  0
   10.0750   -0.7123    0.0000 H   0  0  0  0  0  0  0  0  0  0  0  0
    1.3956    4.0272    0.0000 H   0  0  0  0  0  0  0  0  0  0  0  0
   11.3000   -1.8412    0.0000 H   0  0  0  0  0  0  0  0  0  0  0  0
  1 11  1  0  0  0  0
  1 17  1  0  0  0  0
  1 28  1  0  0  0  0
  2 12  1  0  0  0  0
  2 18  1  0  0  0  0
  2 27  1  0  0  0  0
  3 11  1  0  0  0  0
  3 19  1  0  0  0  0
  3 64  1  0  0  0  0
  4 12  1  0  0  0  0
  4 20  1  0  0  0  0
  4 63  1  0  0  0  0
  5 29  1  0  0  0  0
  5 39  1  0  0  0  0
  5 46  1  0  0  0  0
  6 30  1  0  0  0  0
  6 40  1  0  0  0  0
  6 45  1  0  0  0  0
  7 29  1  0  0  0  0
  7 42  1  0  0  0  0
  7 88  1  0  0  0  0
  8 30  1  0  0  0  0
  8 41  1  0  0  0  0
  8 87  1  0  0  0  0
  9 10  1  0  0  0  0
  9 12  1  0  0  0  0
  9 13  1  0  0  0  0
  9 15  1  0  0  0  0
 10 11  1  0  0  0  0
 10 14  1  0  0  0  0
 10 16  1  0  0  0  0
 11 54  1  0  0  0  0
 12 53  1  0  0  0  0
 13 18  1  0  0  0  0
 13 57  1  0  0  0  0
 13 58  1  0  0  0  0
 14 17  1  0  0  0  0
 14 55  1  0  0  0  0
 14 56  1  0  0  0  0
 15 20  1  0  0  0  0
 15 26  2  0  0  0  0
 16 19  1  0  0  0  0
 16 25  2  0  0  0  0
 17 61  1  0  0  0  0
 17 62  1  0  0  0  0
 18 59  1  0  0  0  0
 18 60  1  0  0  0  0
 19 22  2  0  0  0  0
 20 21  2  0  0  0  0
 21 24  1  0  0  0  0
 21 34  1  0  0  0  0
 22 23  1  0  0  0  0
 22 33  1  0  0  0  0
 23 29  1  0  0  0  0
 23 31  1  0  0  0  0
 23 38  1  0  0  0  0
 24 30  1  0  0  0  0
 24 32  1  0  0  0  0
 24 37  1  0  0  0  0
 25 35  1  0  0  0  0
 25 65  1  0  0  0  0
 26 36  1  0  0  0  0
 26 66  1  0  0  0  0
 27 70  1  0  0  0  0
 27 71  1  0  0  0  0
 27 72  1  0  0  0  0
 28 67  1  0  0  0  0
 28 68  1  0  0  0  0
 28 69  1  0  0  0  0
 29 74  1  0  0  0  0
 30 73  1  0  0  0  0
 31 39  1  0  0  0  0
 31 75  1  0  0  0  0
 31 76  1  0  0  0  0
 32 40  1  0  0  0  0
 32 77  1  0  0  0  0
 32 78  1  0  0  0  0
 33 35  2  0  0  0  0
 33 79  1  0  0  0  0
 34 36  2  0  0  0  0
 34 80  1  0  0  0  0
 35 81  1  0  0  0  0
 36 82  1  0  0  0  0
 37 41  1  0  0  0  0
 37 44  2  0  0  0  0
 38 42  1  0  0  0  0
 38 43  2  0  0  0  0
 39 83  1  0  0  0  0
 39 84  1  0  0  0  0
 40 85  1  0  0  0  0
 40 86  1  0  0  0  0
 41 47  2  0  0  0  0
 42 48  2  0  0  0  0
 43 49  1  0  0  0  0
 43 89  1  0  0  0  0
 44 50  1  0  0  0  0
 44 90  1  0  0  0  0
 45 94  1  0  0  0  0
 45 95  1  0  0  0  0
 45 96  1  0  0  0  0
 46 91  1  0  0  0  0
 46 92  1  0  0  0  0
 46 93  1  0  0  0  0
 47 52  1  0  0  0  0
 47 98  1  0  0  0  0
 48 51  1  0  0  0  0
 48 97  1  0  0  0  0
 49 51  2  0  0  0  0
 49 99  1  0  0  0  0
 50 52  2  0  0  0  0
 50100  1  0  0  0  0
 51101  1  0  0  0  0
 52102  1  0  0  0  0
M  END
> <PUBCHEM_COMPOUND_CID>
172448

> <PUBCHEM_COMPOUND_CANONICALIZED>
1

> <PUBCHEM_CACTVS_COMPLEXITY>
1320

> <PUBCHEM_CACTVS_HBOND_ACCEPTOR>
8

> <PUBCHEM_CACTVS_HBOND_DONOR>
4

> <PUBCHEM_CACTVS_ROTATABLE_BOND>
3

> <PUBCHEM_CACTVS_SUBSKEYS>
AAADcfB/wAAAAAAAAAAAAAAAAAAAAWLFixYwYMGAAAAWLFgBVAAAHAAQAAAADgjBGAQzwIPAAACAAiRCQACCAAAhAgAIiIAIZIiIICLAkZGEIAhokALIyCcQgMAPgAACAAACAAAAAAQAAAQAAAAAAAAAAA==

> <PUBCHEM_IUPAC_OPENEYE_NAME>
3-methyl-5-(3-methyl-1,2,3a,4-tetrahydropyrrolo[2,3-b]indol-8b-yl)-8b-[3-methyl-5-(3-methyl-1,2,3a,4-tetrahydropyrrolo[2,3-b]indol-8b-yl)-1,2,3a,4-tetrahydropyrrolo[2,3-b]indol-8b-yl]-1,2,3a,4-tetrahydropyrrolo[2,3-b]indole

> <PUBCHEM_IUPAC_CAS_NAME>
3-methyl-5-(3-methyl-1,2,3a,4-tetrahydropyrrolo[2,3-b]indol-8b-yl)-8b-[3-methyl-5-(3-methyl-1,2,3a,4-tetrahydropyrrolo[2,3-b]indol-8b-yl)-1,2,3a,4-tetrahydropyrrolo[2,3-b]indol-8b-yl]-1,2,3a,4-tetrahydropyrrolo[2,3-b]indole

> <PUBCHEM_IUPAC_NAME>
3-methyl-5-(3-methyl-1,2,3a,4-tetrahydropyrrolo[2,3-b]indol-8b-yl)-8b-[3-methyl-5-(3-methyl-1,2,3a,4-tetrahydropyrrolo[2,3-b]indol-8b-yl)-1,2,3a,4-tetrahydropyrrolo[2,3-b]indol-8b-yl]-1,2,3a,4-tetrahydropyrrolo[2,3-b]indole

> <PUBCHEM_IUPAC_SYSTEMATIC_NAME>
3-methyl-5-(3-methyl-1,2,3a,4-tetrahydropyrrolo[2,3-b]indol-8b-yl)-8b-[3-methyl-5-(3-methyl-1,2,3a,4-tetrahydropyrrolo[2,3-b]indol-8b-yl)-1,2,3a,4-tetrahydropyrrolo[2,3-b]indol-8b-yl]-1,2,3a,4-tetrahydropyrrolo[2,3-b]indole

> <PUBCHEM_IUPAC_TRADITIONAL_NAME>
3-methyl-5-(3-methyl-1,2,3a,4-tetrahydropyrrol[2,3-b]indol-8b-yl)-8b-[3-methyl-5-(3-methyl-1,2,3a,4-tetrahydropyrrol[2,3-b]indol-8b-yl)-1,2,3a,4-tetrahydropyrrol[2,3-b]indol-8b-yl]-1,2,3a,4-tetrahydropyrrol[2,3-b]indole

> <PUBCHEM_IUPAC_INCHI>
InChI=1S/C44H50N8/c1-49-23-19-41(27-11-5-7-17-33(27)45-37(41)49)29-13-9-15-31-35(29)47-39-43(31,21-25-51(39)3)44-22-26-52(4)40(44)48-36-30(14-10-16-32(36)44)42-20-24-50(2)38(42)46-34-18-8-6-12-28(34)42/h5-18,37-40,45-48H,19-26H2,1-4H3

> <PUBCHEM_IUPAC_INCHIKEY>
XRCKDTICIIHERM-UHFFFAOYSA-N

> <PUBCHEM_XLOGP3_AA>
7.5

> <PUBCHEM_EXACT_MASS>
690.415844

> <PUBCHEM_MOLECULAR_FORMULA>
C44H50N8

> <PUBCHEM_MOLECULAR_WEIGHT>
690.9214

> <PUBCHEM_OPENEYE_CAN_SMILES>
CN1CCC2(C1NC3=CC=CC=C32)C4=C5C(=CC=C4)C6(CCN(C6N5)C)C78CCN(C7NC9=C(C=CC=C89)C12CCN(C1NC1=CC=CC=C21)C)C

> <PUBCHEM_OPENEYE_ISO_SMILES>
CN1CCC2(C1NC3=CC=CC=C32)C4=C5C(=CC=C4)C6(CCN(C6N5)C)C78CCN(C7NC9=C(C=CC=C89)C12CCN(C1NC1=CC=CC=C21)C)C

> <PUBCHEM_CACTVS_TPSA>
61.1

> <PUBCHEM_MONOISOTOPIC_WEIGHT>
690.415844

> <PUBCHEM_TOTAL_CHARGE>
0

> <PUBCHEM_HEAVY_ATOM_COUNT>
52

> <PUBCHEM_ATOM_DEF_STEREO_COUNT>
0

> <PUBCHEM_ATOM_UDEF_STEREO_COUNT>
8

> <PUBCHEM_BOND_DEF_STEREO_COUNT>
0

> <PUBCHEM_BOND_UDEF_STEREO_COUNT>
0

> <PUBCHEM_ISOTOPIC_ATOM_COUNT>
0

> <PUBCHEM_COMPONENT_COUNT>
1

> <PUBCHEM_CACTVS_TAUTO_COUNT>
1

> <PUBCHEM_COORDINATE_TYPE>
1
5
255

> <PUBCHEM_BONDANNOTATIONS>
10  14  3
11  54  3
12  53  3
15  20  8
15  26  8
16  19  8
16  25  8
19  22  8
20  21  8
24  21  3
21  34  8
23  22  3
22  33  8
25  35  8
26  36  8
29  74  3
30  73  3
33  35  8
34  36  8
37  41  8
37  44  8
38  42  8
38  43  8
41  47  8
42  48  8
43  49  8
44  50  8
47  52  8
48  51  8
49  51  8
50  52  8
9  13  3

$$$$

