17395637
  -OEChem-06241222512D

 33 35  0     0  0  0  0  0  0999 V2000
    5.4921    1.0094    0.0000 S   0  0  0  0  0  0  0  0  0  0  0  0
    7.9953    1.9572    0.0000 O   0  0  0  0  0  0  0  0  0  0  0  0
    3.7320    0.7306    0.0000 N   0  0  0  0  0  0  0  0  0  0  0  0
    2.9230    1.3184    0.0000 N   0  0  0  0  0  0  0  0  0  0  0  0
    4.2320    2.2694    0.0000 N   0  0  0  0  0  0  0  0  0  0  0  0
    8.8044    1.3695    0.0000 N   0  0  0  0  0  0  0  0  0  0  0  0
    3.2320    2.2694    0.0000 N   0  0  0  0  0  0  0  0  0  0  0  0
    3.7320   -0.2694    0.0000 C   0  0  0  0  0  0  0  0  0  0  0  0
    2.8660   -0.7694    0.0000 C   0  0  0  0  0  0  0  0  0  0  0  0
    4.5981   -0.7694    0.0000 C   0  0  0  0  0  0  0  0  0  0  0  0
    4.5411    1.3184    0.0000 C   0  0  0  0  0  0  0  0  0  0  0  0
    6.2353    1.6785    0.0000 C   0  0  0  0  0  0  0  0  0  0  0  0
    2.8660   -1.7694    0.0000 C   0  0  0  0  0  0  0  0  0  0  0  0
    7.1863    1.3695    0.0000 C   0  0  0  0  0  0  0  0  0  0  0  0
    2.0000   -0.2694    0.0000 C   0  0  0  0  0  0  0  0  0  0  0  0
    4.5981   -1.7694    0.0000 C   0  0  0  0  0  0  0  0  0  0  0  0
    3.7320   -2.2694    0.0000 C   0  0  0  0  0  0  0  0  0  0  0  0
    7.4953    0.4184    0.0000 C   0  0  0  0  0  0  0  0  0  0  0  0
    8.4953    0.4184    0.0000 C   0  0  0  0  0  0  0  0  0  0  0  0
    9.0831   -0.3906    0.0000 C   0  0  0  0  0  0  0  0  0  0  0  0
    5.1350   -0.4594    0.0000 H   0  0  0  0  0  0  0  0  0  0  0  0
    6.5263    2.2259    0.0000 H   0  0  0  0  0  0  0  0  0  0  0  0
    5.7467    2.0602    0.0000 H   0  0  0  0  0  0  0  0  0  0  0  0
    2.3291   -2.0794    0.0000 H   0  0  0  0  0  0  0  0  0  0  0  0
    2.3100    0.2675    0.0000 H   0  0  0  0  0  0  0  0  0  0  0  0
    1.4631    0.0406    0.0000 H   0  0  0  0  0  0  0  0  0  0  0  0
    1.6900   -0.8064    0.0000 H   0  0  0  0  0  0  0  0  0  0  0  0
    5.1350   -2.0794    0.0000 H   0  0  0  0  0  0  0  0  0  0  0  0
    3.7320   -2.8894    0.0000 H   0  0  0  0  0  0  0  0  0  0  0  0
    7.1309   -0.0832    0.0000 H   0  0  0  0  0  0  0  0  0  0  0  0
    8.5815   -0.7550    0.0000 H   0  0  0  0  0  0  0  0  0  0  0  0
    9.4476   -0.8922    0.0000 H   0  0  0  0  0  0  0  0  0  0  0  0
    9.5847   -0.0262    0.0000 H   0  0  0  0  0  0  0  0  0  0  0  0
  1 11  1  0  0  0  0
  1 12  1  0  0  0  0
  2  6  1  0  0  0  0
  2 14  1  0  0  0  0
  3  4  1  0  0  0  0
  3  8  1  0  0  0  0
  3 11  1  0  0  0  0
  4  7  2  0  0  0  0
  5  7  1  0  0  0  0
  5 11  2  0  0  0  0
  6 19  2  0  0  0  0
  8  9  1  0  0  0  0
  8 10  2  0  0  0  0
  9 13  2  0  0  0  0
  9 15  1  0  0  0  0
 10 16  1  0  0  0  0
 10 21  1  0  0  0  0
 12 14  1  0  0  0  0
 12 22  1  0  0  0  0
 12 23  1  0  0  0  0
 13 17  1  0  0  0  0
 13 24  1  0  0  0  0
 14 18  2  0  0  0  0
 15 25  1  0  0  0  0
 15 26  1  0  0  0  0
 15 27  1  0  0  0  0
 16 17  2  0  0  0  0
 16 28  1  0  0  0  0
 17 29  1  0  0  0  0
 18 19  1  0  0  0  0
 18 30  1  0  0  0  0
 19 20  1  0  0  0  0
 20 31  1  0  0  0  0
 20 32  1  0  0  0  0
 20 33  1  0  0  0  0
M  END
> <PUBCHEM_COMPOUND_CID>
17395637

> <PUBCHEM_COMPOUND_CANONICALIZED>
1

> <PUBCHEM_CACTVS_COMPLEXITY>
321

> <PUBCHEM_CACTVS_HBOND_ACCEPTOR>
6

> <PUBCHEM_CACTVS_HBOND_DONOR>
0

> <PUBCHEM_CACTVS_ROTATABLE_BOND>
4

> <PUBCHEM_CACTVS_SUBSKEYS>
AAADccBzoABAAAAAAAAAAAAAAAAAAWLAAAAwAAAAAAAAAAAB8AAAHgQMAAAADAyF3gCz1JYYAAirA6RyZgCCFCNlIpA9mCE2bNqIJjrgmZOEMYhmgBpIyWcQgAAOAAAAAAACAAAAAAAAAAQAAAAAAAAAAA==

> <PUBCHEM_IUPAC_OPENEYE_NAME>
3-methyl-5-[[1-(o-tolyl)tetrazol-5-yl]sulfanylmethyl]isoxazole

> <PUBCHEM_IUPAC_CAS_NAME>
3-methyl-5-[[[1-(2-methylphenyl)-5-tetrazolyl]thio]methyl]isoxazole

> <PUBCHEM_IUPAC_NAME>
3-methyl-5-[[1-(2-methylphenyl)tetrazol-5-yl]sulfanylmethyl]-1,2-oxazole

> <PUBCHEM_IUPAC_SYSTEMATIC_NAME>
3-methyl-5-[[1-(2-methylphenyl)-1,2,3,4-tetrazol-5-yl]sulfanylmethyl]-1,2-oxazole

> <PUBCHEM_IUPAC_TRADITIONAL_NAME>
3-methyl-5-[[[1-(o-tolyl)tetrazol-5-yl]thio]methyl]isoxazole

> <PUBCHEM_IUPAC_INCHI>
InChI=1S/C13H13N5OS/c1-9-5-3-4-6-12(9)18-13(14-16-17-18)20-8-11-7-10(2)15-19-11/h3-7H,8H2,1-2H3

> <PUBCHEM_IUPAC_INCHIKEY>
ADBOLXOUYFDISB-UHFFFAOYSA-N

> <PUBCHEM_XLOGP3_AA>
2.8

> <PUBCHEM_EXACT_MASS>
287.084081

> <PUBCHEM_MOLECULAR_FORMULA>
C13H13N5OS

> <PUBCHEM_MOLECULAR_WEIGHT>
287.34022

> <PUBCHEM_OPENEYE_CAN_SMILES>
CC1=CC=CC=C1N2C(=NN=N2)SCC3=CC(=NO3)C

> <PUBCHEM_OPENEYE_ISO_SMILES>
CC1=CC=CC=C1N2C(=NN=N2)SCC3=CC(=NO3)C

> <PUBCHEM_CACTVS_TPSA>
94.9

> <PUBCHEM_MONOISOTOPIC_WEIGHT>
287.084081

> <PUBCHEM_TOTAL_CHARGE>
0

> <PUBCHEM_HEAVY_ATOM_COUNT>
20

> <PUBCHEM_ATOM_DEF_STEREO_COUNT>
0

> <PUBCHEM_ATOM_UDEF_STEREO_COUNT>
0

> <PUBCHEM_BOND_DEF_STEREO_COUNT>
0

> <PUBCHEM_BOND_UDEF_STEREO_COUNT>
0

> <PUBCHEM_ISOTOPIC_ATOM_COUNT>
0

> <PUBCHEM_COMPONENT_COUNT>
1

> <PUBCHEM_CACTVS_TAUTO_COUNT>
1

> <PUBCHEM_COORDINATE_TYPE>
1
5
255

> <PUBCHEM_BONDANNOTATIONS>
10  16  8
13  17  8
14  18  8
16  17  8
18  19  8
2  14  8
2  6  8
3  11  8
3  4  8
4  7  8
5  11  8
5  7  8
6  19  8
8  10  8
8  9  8
9  13  8

$$$$

